1,2
 OpenBabel05122313063D

 21 21  0  0  1  0  0  0  0  0999 V2000
   -0.5731    1.7574   -0.0012 O   0  5  0  0  0  0  0  0  0  0  0  0
   -1.7026   -0.7115   -0.0024 O   0  0  0  0  0  1  0  0  0  0  0  0
   -6.4576   -0.8984    0.0008 O   0  0  0  0  0  0  0  0  0  0  0  0
   -1.8667    3.7161   -0.0011 C   0  0  0  0  0  0  0  0  0  0  0  0
   -0.8464    4.1381   -0.0029 H   0  0  0  0  0  0  0  0  0  0  0  0
   -2.4137    4.0812   -0.8937 H   0  0  0  0  0  0  0  0  0  0  0  0
   -2.4105    4.0816    0.8933 H   0  0  0  0  0  0  0  0  0  0  0  0
   -1.7671    2.2065   -0.0008 C   0  0  0  0  0  0  0  0  0  0  0  0
   -2.9409    1.3855   -0.0001 C   0  0  0  0  0  0  0  0  0  0  0  0
   -2.8244   -0.0613   -0.0011 C   0  0  1  0  0  3  0  0  0  0  0  0
   -4.0262   -0.8379   -0.0009 C   0  0  0  0  0  0  0  0  0  0  0  0
   -3.8959   -1.9268   -0.0017 H   0  0  0  0  0  0  0  0  0  0  0  0
   -5.2790   -0.2281    0.0004 C   0  0  0  0  0  0  0  0  0  0  0  0
   -5.3950    1.1964    0.0015 C   0  0  0  0  0  0  0  0  0  0  0  0
   -6.3990    1.6417    0.0025 H   0  0  0  0  0  0  0  0  0  0  0  0
   -4.2497    1.9640    0.0012 C   0  0  0  0  0  0  0  0  0  0  0  0
   -4.3483    3.0587    0.0020 H   0  0  0  0  0  0  0  0  0  0  0  0
   -6.4260   -2.3153   -0.0007 C   0  0  0  0  0  0  0  0  0  0  0  0
   -7.4792   -2.6515   -0.0006 H   0  0  0  0  0  0  0  0  0  0  0  0
   -5.9144   -2.7133   -0.9047 H   0  0  0  0  0  0  0  0  0  0  0  0
   -5.9137   -2.7152    0.9021 H   0  0  0  0  0  0  0  0  0  0  0  0
  1  8  1  0  0  0  0
  4  8  1  0  0  0  0
  4  7  1  0  0  0  0
  5  4  1  0  0  0  0
  6  4  1  0  0  0  0
  8  9  2  0  0  0  0
  9 16  1  0  0  0  0
 10  2  1  6  0  0  0
 10 11  1  0  0  0  0
 10  9  1  0  0  0  0
 11 13  2  0  0  0  0
 12 11  1  0  0  0  0
 13  3  1  0  0  0  0
 13 14  1  0  0  0  0
 14 15  1  0  0  0  0
 16 14  2  0  0  0  0
 16 17  1  0  0  0  0
 18 19  1  0  0  0  0
 18  3  1  0  0  0  0
 18 21  1  0  0  0  0
 20 18  1  0  0  0  0
M  CHG  1   1  -1
M  END
