1,2
q = -2.0, confidence = 0.932

 56 58  0  0  0  0  0  0  0  0999 V2000
   -1.7983   -0.0100    0.2028 O   0  5  0  0  0  0  0  0  0  0  0  0
    2.0587   -0.0669    0.4278 O   0  5  0  0  0  0  0  0  0  0  0  0
    0.2293   -1.5565   -1.3897 C   0  0  0  0  0  0  0  0  0  0  0  0
    0.3195   -0.4799   -1.6233 H   0  0  0  0  0  0  0  0  0  0  0  0
   -1.0485   -2.1613   -1.4867 C   0  0  0  0  0  0  0  0  0  0  0  0
   -1.1277   -3.5686   -1.4024 C   0  0  0  0  0  0  0  0  0  0  0  0
   -2.1141   -4.0520   -1.4604 H   0  0  0  0  0  0  0  0  0  0  0  0
    0.0308   -4.3369   -1.2230 C   0  0  0  0  0  0  0  0  0  0  0  0
   -0.0470   -5.4327   -1.1481 H   0  0  0  0  0  0  0  0  0  0  0  0
    1.2859   -3.7220   -1.1138 C   0  0  0  0  0  0  0  0  0  0  0  0
    2.1882   -4.3292   -0.9485 H   0  0  0  0  0  0  0  0  0  0  0  0
    1.4123   -2.3170   -1.2077 C   0  0  0  0  0  0  0  0  0  0  0  0
   -2.2910   -1.3733   -1.6884 C   0  0  0  0  0  0  0  0  0  0  0  0
   -2.6442   -0.3224   -0.7846 C   0  0  0  0  0  0  0  0  0  0  0  0
   -3.9049    0.3451   -0.9098 C   0  0  0  0  0  0  0  0  0  0  0  0
   -4.7353   -0.0348   -1.9811 C   0  0  0  0  0  0  0  0  0  0  0  0
   -5.7011    0.4703   -2.1134 H   0  0  0  0  0  0  0  0  0  0  0  0
   -4.3835   -1.0441   -2.8908 C   0  0  0  0  0  0  0  0  0  0  0  0
   -5.0623   -1.3032   -3.7167 H   0  0  0  0  0  0  0  0  0  0  0  0
   -3.1730   -1.7223   -2.7303 C   0  0  0  0  0  0  0  0  0  0  0  0
   -2.8841   -2.5264   -3.4245 H   0  0  0  0  0  0  0  0  0  0  0  0
    2.7605   -1.6972   -1.1662 C   0  0  0  0  0  0  0  0  0  0  0  0
    3.0406   -0.5737   -0.3261 C   0  0  0  0  0  0  0  0  0  0  0  0
    4.3636   -0.0292   -0.2603 C   0  0  0  0  0  0  0  0  0  0  0  0
    5.3522   -0.6282   -1.0631 C   0  0  0  0  0  0  0  0  0  0  0  0
    6.3741   -0.2278   -1.0404 H   0  0  0  0  0  0  0  0  0  0  0  0
    5.0864   -1.7256   -1.8963 C   0  0  0  0  0  0  0  0  0  0  0  0
    5.8889   -2.1578   -2.5121 H   0  0  0  0  0  0  0  0  0  0  0  0
    3.7976   -2.2602   -1.9382 C   0  0  0  0  0  0  0  0  0  0  0  0
    3.5690   -3.1142   -2.5940 H   0  0  0  0  0  0  0  0  0  0  0  0
   -4.3477    1.4184    0.1054 C   0  0  0  0  0  0  0  0  0  0  0  0
   -4.3762    0.8065    1.5268 C   0  0  0  0  0  0  0  0  0  0  0  0
   -5.1077   -0.0257    1.5782 H   0  0  0  0  0  0  0  0  0  0  0  0
   -4.6811    1.5760    2.2666 H   0  0  0  0  0  0  0  0  0  0  0  0
   -3.3865    0.4119    1.8204 H   0  0  0  0  0  0  0  0  0  0  0  0
   -3.3798    2.6227    0.0659 C   0  0  0  0  0  0  0  0  0  0  0  0
   -2.3564    2.3312    0.3567 H   0  0  0  0  0  0  0  0  0  0  0  0
   -3.7219    3.4118    0.7675 H   0  0  0  0  0  0  0  0  0  0  0  0
   -3.3392    3.0643   -0.9508 H   0  0  0  0  0  0  0  0  0  0  0  0
   -5.7610    1.9491   -0.2007 C   0  0  0  0  0  0  0  0  0  0  0  0
   -5.8155    2.4464   -1.1905 H   0  0  0  0  0  0  0  0  0  0  0  0
   -6.0420    2.7015    0.5636 H   0  0  0  0  0  0  0  0  0  0  0  0
   -6.5241    1.1452   -0.1731 H   0  0  0  0  0  0  0  0  0  0  0  0
    4.6946    1.1641    0.6587 C   0  0  0  0  0  0  0  0  0  0  0  0
    4.3880    0.7969    2.1303 C   0  0  0  0  0  0  0  0  0  0  0  0
    3.3272    0.5191    2.2666 H   0  0  0  0  0  0  0  0  0  0  0  0
    4.6134    1.6581    2.7933 H   0  0  0  0  0  0  0  0  0  0  0  0
    5.0130   -0.0589    2.4569 H   0  0  0  0  0  0  0  0  0  0  0  0
    3.8678    2.3986    0.2307 C   0  0  0  0  0  0  0  0  0  0  0  0
    2.7834    2.2105    0.3119 H   0  0  0  0  0  0  0  0  0  0  0  0
    4.0954    2.6778   -0.8183 H   0  0  0  0  0  0  0  0  0  0  0  0
    4.1134    3.2673    0.8765 H   0  0  0  0  0  0  0  0  0  0  0  0
    6.1830    1.5539    0.5814 C   0  0  0  0  0  0  0  0  0  0  0  0
    6.3723    2.4079    1.2624 H   0  0  0  0  0  0  0  0  0  0  0  0
    6.4792    1.8718   -0.4388 H   0  0  0  0  0  0  0  0  0  0  0  0
    6.8490    0.7245    0.8946 H   0  0  0  0  0  0  0  0  0  0  0  0
  3 12  1  0  0  0  0
  4  3  1  0  0  0  0
  5  6  1  0  0  0  0
  5  3  2  0  0  0  0
  6  8  2  0  0  0  0
  7  6  1  0  0  0  0
  8  9  1  0  0  0  0
  8 10  1  0  0  0  0
 10 11  1  0  0  0  0
 12 22  1  0  0  0  0
 12 10  2  0  0  0  0
 13  5  1  0  0  0  0
 13 14  1  0  0  0  0
 14  1  1  0  0  0  0
 15 14  2  0  0  0  0
 15 31  1  0  0  0  0
 16 15  1  0  0  0  0
 17 16  1  0  0  0  0
 18 20  1  0  0  0  0
 18 16  2  0  0  0  0
 19 18  1  0  0  0  0
 20 13  2  0  0  0  0
 21 20  1  0  0  0  0
 22 23  1  0  0  0  0
 23 24  2  0  0  0  0
 23  2  1  0  0  0  0
 24 44  1  0  0  0  0
 25 26  1  0  0  0  0
 25 24  1  0  0  0  0
 27 25  2  0  0  0  0
 28 27  1  0  0  0  0
 29 27  1  0  0  0  0
 29 22  2  0  0  0  0
 30 29  1  0  0  0  0
 31 32  1  0  0  0  0
 32 33  1  0  0  0  0
 32 35  1  0  0  0  0
 32 34  1  0  0  0  0
 36 31  1  0  0  0  0
 36 37  1  0  0  0  0
 36 38  1  0  0  0  0
 39 36  1  0  0  0  0
 40 43  1  0  0  0  0
 40 31  1  0  0  0  0
 40 42  1  0  0  0  0
 41 40  1  0  0  0  0
 44 45  1  0  0  0  0
 45 46  1  0  0  0  0
 45 48  1  0  0  0  0
 45 47  1  0  0  0  0
 49 50  1  0  0  0  0
 49 44  1  0  0  0  0
 49 52  1  0  0  0  0
 51 49  1  0  0  0  0
 53 44  1  0  0  0  0
 53 56  1  0  0  0  0
 53 54  1  0  0  0  0
 55 53  1  0  0  0  0
M  CHG  2   1  -1   2  -1
M  END
