3,7
 OpenBabel05122313063D

 25 25  0  0  1  0  0  0  0  0999 V2000
   -1.0292   -0.8203   -2.0698 P   0  0  1  0  0  0  0  0  0  0  0  0
   -2.9863    1.1063   -0.4929 P   0  0  2  0  0  0  0  0  0  0  0  0
    0.2821   -0.1412   -1.5894 O   0  0  0  0  0  1  0  0  0  0  0  0
   -1.5796    0.0700   -3.3525 O   0  0  0  0  0  0  0  0  0  0  0  0
   -2.4344    0.5211   -3.1048 H   0  0  0  0  0  0  0  0  0  0  0  0
   -0.9653   -2.3123   -2.3727 O   0  0  0  0  0  0  0  0  0  0  0  0
   -1.7195    1.9232   -0.0959 O   0  0  0  0  0  1  0  0  0  0  0  0
   -3.3538    1.6052   -2.0767 O   0  0  0  0  0  0  0  0  0  0  0  0
   -4.3291    1.6619   -2.1390 H   0  0  0  0  0  0  0  0  0  0  0  0
   -4.2300    1.1743    0.3573 O   0  0  0  0  0  0  0  0  0  0  0  0
   -3.4892   -1.4101   -1.3378 O   0  0  0  0  0  0  0  0  0  0  0  0
   -3.0341   -2.1404   -1.8276 H   0  0  0  0  0  0  0  0  0  0  0  0
   -2.9881   -1.3185    1.5154 N   0  0  0  0  0  0  0  0  0  0  0  0
   -4.3391   -0.7252    3.0944 N   0  0  0  0  0  0  0  0  0  0  0  0
   -4.7368   -0.1830    3.8627 H   0  0  0  0  0  0  0  0  0  0  0  0
   -2.4070   -0.6489   -0.7992 C   0  0  1  0  0  0  0  0  0  0  0  0
   -1.9052   -1.2474    0.5312 C   0  0  0  0  0  0  0  0  0  0  0  0
   -1.0783   -0.6483    0.9559 H   0  0  0  0  0  0  0  0  0  0  0  0
   -1.5081   -2.2651    0.3564 H   0  0  0  0  0  0  0  0  0  0  0  0
   -3.1688   -0.4242    2.5055 C   0  0  0  0  0  3  0  0  0  0  0  0
   -2.4877    0.4550    2.7290 H   0  0  0  0  0  0  0  0  0  0  0  0
   -4.0757   -2.1769    1.4577 C   0  0  0  0  0  0  0  0  0  0  0  0
   -4.1519   -2.9530    0.6941 H   0  0  0  0  0  0  0  0  0  0  0  0
   -4.9344   -1.8047    2.4632 C   0  0  0  0  0  0  0  0  0  0  0  0
   -5.8986   -2.2146    2.7746 H   0  0  0  0  0  0  0  0  0  0  0  0
  1  6  2  6  0  0  0
  1  3  1  0  0  0  0
  1 16  1  0  0  0  0
  2  7  1  1  0  0  0
  2 10  2  0  0  0  0
  4  5  1  0  0  0  0
  4  1  1  0  0  0  0
  8  2  1  0  0  0  0
  9  8  1  0  0  0  0
 12 11  1  0  0  0  0
 13 20  1  0  0  0  0
 14 15  1  0  0  0  0
 16 11  1  6  0  0  0
 16  2  1  0  0  0  0
 16 17  1  0  0  0  0
 17 18  1  0  0  0  0
 17 13  1  0  0  0  0
 19 17  1  0  0  0  0
 20 21  1  0  0  0  0
 20 14  1  0  0  0  0
 22 13  1  0  0  0  0
 22 24  2  0  0  0  0
 23 22  1  0  0  0  0
 24 25  1  0  0  0  0
 24 14  1  0  0  0  0
M  END
