1,2
 OpenBabel05122313063D

 31 32  0  0  0  0  0  0  0  0999 V2000
    0.0000    2.0479   -0.9457 O   0  5  0  0  0  0  0  0  0  0  0  0
   -0.0000    1.7082    1.2978 O   0  5  0  0  0  0  0  0  0  0  0  0
    0.0000    2.7202    0.3103 C   0  0  0  0  0  0  0  0  0  0  0  0
   -1.2723    3.6075    0.4326 C   0  0  0  0  0  0  0  0  0  0  0  0
   -2.5508    2.8267    0.2975 C   0  0  0  0  0  0  0  0  0  0  0  0
   -3.2597    2.3878    1.4344 C   0  0  0  0  0  0  0  0  0  0  0  0
   -4.4310    1.6265    1.3061 C   0  0  0  0  0  0  0  0  0  0  0  0
   -4.9114    1.2787    0.0338 C   0  0  0  0  0  0  0  0  0  0  0  0
   -4.2126    1.7026   -1.1069 C   0  0  0  0  0  0  0  0  0  0  0  0
   -3.0454    2.4696   -0.9754 C   0  0  0  0  0  0  0  0  0  0  0  0
   -1.2332    4.1168    1.4164 H   0  0  0  0  0  0  0  0  0  0  0  0
   -1.2118    4.3854   -0.3558 H   0  0  0  0  0  0  0  0  0  0  0  0
   -2.8778    2.6492    2.4335 H   0  0  0  0  0  0  0  0  0  0  0  0
   -4.9718    1.2960    2.2066 H   0  0  0  0  0  0  0  0  0  0  0  0
   -5.8202    0.6668   -0.0690 H   0  0  0  0  0  0  0  0  0  0  0  0
   -4.5789    1.4276   -2.1081 H   0  0  0  0  0  0  0  0  0  0  0  0
   -2.4943    2.7970   -1.8695 H   0  0  0  0  0  0  0  0  0  0  0  0
    1.2722    3.6075    0.4326 C   0  0  0  0  0  0  0  0  0  0  0  0
    2.5508    2.8267    0.2975 C   0  0  0  0  0  0  0  0  0  0  0  0
    3.2597    2.3879    1.4344 C   0  0  0  0  0  0  0  0  0  0  0  0
    4.4311    1.6266    1.3060 C   0  0  0  0  0  0  0  0  0  0  0  0
    4.9114    1.2787    0.0337 C   0  0  0  0  0  0  0  0  0  0  0  0
    4.2125    1.7026   -1.1070 C   0  0  0  0  0  0  0  0  0  0  0  0
    3.0453    2.4696   -0.9754 C   0  0  0  0  0  0  0  0  0  0  0  0
    2.4941    2.7968   -1.8695 H   0  0  0  0  0  0  0  0  0  0  0  0
    4.5787    1.4275   -2.1082 H   0  0  0  0  0  0  0  0  0  0  0  0
    5.8202    0.6668   -0.0691 H   0  0  0  0  0  0  0  0  0  0  0  0
    4.9720    1.2961    2.2065 H   0  0  0  0  0  0  0  0  0  0  0  0
    2.8779    2.6494    2.4334 H   0  0  0  0  0  0  0  0  0  0  0  0
    1.2332    4.1168    1.4164 H   0  0  0  0  0  0  0  0  0  0  0  0
    1.2117    4.3854   -0.3558 H   0  0  0  0  0  0  0  0  0  0  0  0
  1  3  1  0  0  0  0
  3  4  1  0  0  0  0
  3 18  1  0  0  0  0
  3  2  1  0  0  0  0
  4 11  1  0  0  0  0
  5  4  1  0  0  0  0
  5  6  1  0  0  0  0
  6 13  1  0  0  0  0
  7  6  2  0  0  0  0
  7 14  1  0  0  0  0
  8  7  1  0  0  0  0
  9 10  1  0  0  0  0
  9  8  2  0  0  0  0
 10  5  2  0  0  0  0
 12  4  1  0  0  0  0
 15  8  1  0  0  0  0
 16  9  1  0  0  0  0
 17 10  1  0  0  0  0
 18 30  1  0  0  0  0
 19 18  1  0  0  0  0
 19 20  1  0  0  0  0
 20 29  1  0  0  0  0
 21 20  2  0  0  0  0
 21 28  1  0  0  0  0
 22 21  1  0  0  0  0
 23 24  1  0  0  0  0
 23 22  2  0  0  0  0
 24 19  2  0  0  0  0
 25 24  1  0  0  0  0
 26 23  1  0  0  0  0
 27 22  1  0  0  0  0
 31 18  1  0  0  0  0
M  CHG  2   1  -1   2  -1
M  END
