2,3
 OpenBabel05122313063D

 21 21  0  0  1  0  0  0  0  0999 V2000
    4.6420   -0.8740   -0.8309 O   0  0  0  0  0  0  0  0  0  0  0  0
    1.1476   -1.1774   -0.0342 O   0  0  0  0  0  1  0  0  0  0  0  0
    0.9092    1.3481   -1.0235 O   0  0  0  0  0  1  0  0  0  0  0  0
    2.3272    2.7924    0.9361 O   0  0  0  0  0  0  0  0  0  0  0  0
    1.6265    2.9819    0.2736 H   0  0  0  0  0  0  0  0  0  0  0  0
    3.7831   -0.5543    1.3303 O   0  0  0  0  0  0  0  0  0  0  0  0
    3.5630   -1.1210    0.0512 C   0  0  1  0  0  0  0  0  0  0  0  0
    3.4612   -2.2146    0.2527 H   0  0  0  0  0  0  0  0  0  0  0  0
    2.2880   -0.6100   -0.6537 C   0  0  2  0  0  0  0  0  0  0  0  0
    2.3740   -0.9136   -1.7284 H   0  0  0  0  0  0  0  0  0  0  0  0
    2.1833    0.9134   -0.5715 C   0  0  2  0  0  0  0  0  0  0  0  0
    2.9633    1.4040   -1.2045 H   0  0  0  0  0  0  0  0  0  0  0  0
    2.4174    1.3799    0.8711 C   0  0  1  0  0  0  0  0  0  0  0  0
    1.6385    0.8912    1.5090 H   0  0  0  0  0  0  0  0  0  0  0  0
    3.7748    0.8761    1.3452 C   0  0  0  0  0  0  0  0  0  0  0  0
    4.5818    1.2944    0.6995 H   0  0  0  0  0  0  0  0  0  0  0  0
    3.9768    1.1800    2.3918 H   0  0  0  0  0  0  0  0  0  0  0  0
    5.8594   -1.4478   -0.4033 C   0  0  0  0  0  0  0  0  0  0  0  0
    6.1707   -1.0711    0.5967 H   0  0  0  0  0  0  0  0  0  0  0  0
    6.6335   -1.1821   -1.1493 H   0  0  0  0  0  0  0  0  0  0  0  0
    5.7894   -2.5615   -0.3405 H   0  0  0  0  0  0  0  0  0  0  0  0
  1 18  1  0  0  0  0
  1  7  1  0  0  0  0
  3 11  1  0  0  0  0
  5  4  1  0  0  0  0
  6 15  1  0  0  0  0
  7  8  1  1  0  0  0
  7  6  1  0  0  0  0
  9 10  1  6  0  0  0
  9 11  1  0  0  0  0
  9  2  1  0  0  0  0
  9  7  1  0  0  0  0
 11 12  1  6  0  0  0
 11 13  1  0  0  0  0
 13  4  1  0  0  0  0
 13 15  1  0  0  0  0
 13 14  1  1  0  0  0
 15 17  1  0  0  0  0
 16 15  1  0  0  0  0
 18 21  1  0  0  0  0
 18 19  1  0  0  0  0
 20 18  1  0  0  0  0
M  END
