17,20
 OpenBabel05122313063D

 21 21  0  0  1  0  0  0  0  0999 V2000
    2.8791    1.2909   -0.0754 C   0  0  2  0  0  0  0  0  0  0  0  0
    2.4417    2.2697   -0.3882 H   0  0  0  0  0  0  0  0  0  0  0  0
    2.5240    0.2157   -1.1273 C   0  0  1  0  0  0  0  0  0  0  0  0
    3.1377    0.4248   -2.0373 H   0  0  0  0  0  0  0  0  0  0  0  0
    2.9601   -1.1840   -0.6016 C   0  0  1  0  0  0  0  0  0  0  0  0
    4.0688   -1.1811   -0.5246 H   0  0  0  0  0  0  0  0  0  0  0  0
    2.3501   -1.4218    0.8034 C   0  0  1  0  0  0  0  0  0  0  0  0
    2.8632   -2.3217    1.2277 H   0  0  0  0  0  0  0  0  0  0  0  0
    2.6613   -0.2384    1.7305 C   0  0  0  0  0  0  0  0  0  0  0  0
    2.0939   -0.3457    2.6768 H   0  0  0  0  0  0  0  0  0  0  0  0
    3.7515   -0.2366    1.9662 H   0  0  0  0  0  0  0  0  0  0  0  0
    4.7378    2.4508    0.8156 C   0  0  0  0  0  0  0  0  0  0  0  0
    5.8450    2.4258    0.8155 H   0  0  0  0  0  0  0  0  0  0  0  0
    4.3709    2.3734    1.8639 H   0  0  0  0  0  0  0  0  0  0  0  0
    4.4011    3.4356    0.4094 H   0  0  0  0  0  0  0  0  0  0  0  0
    4.2865    1.3781    0.0149 O   0  0  0  0  0  0  0  0  0  0  0  0
    1.1890    0.3024   -1.4898 O   0  0  0  0  0  1  0  0  0  0  0  0
    2.5701   -2.2261   -1.4622 O   0  0  0  0  0  0  0  0  0  0  0  0
    1.6435   -2.4018   -1.1777 H   0  0  0  0  0  0  0  0  0  0  0  0
    0.9957   -1.7443    0.7055 O   0  0  0  0  0  1  0  0  0  0  0  0
    2.2778    1.0281    1.1839 O   0  0  0  0  0  0  0  0  0  0  0  0
  1  2  1  6  0  0  0
  1 16  1  0  0  0  0
  1 21  1  0  0  0  0
  3  4  1  6  0  0  0
  3  5  1  0  0  0  0
  3  1  1  0  0  0  0
  5  6  1  1  0  0  0
  5  7  1  0  0  0  0
  7  8  1  1  0  0  0
  7  9  1  0  0  0  0
  9 11  1  0  0  0  0
  9 10  1  0  0  0  0
 12 14  1  0  0  0  0
 13 12  1  0  0  0  0
 15 12  1  0  0  0  0
 16 12  1  0  0  0  0
 17  3  1  0  0  0  0
 18 19  1  0  0  0  0
 18  5  1  0  0  0  0
 20  7  1  0  0  0  0
 21  9  1  0  0  0  0
M  END
