1,37
 OpenBabel05122313063D

 37 38  0  0  0  0  0  0  0  0999 V2000
    0.5761   -0.9123    1.0677 O   0  0  0  0  0  1  0  0  0  0  0  0
    0.3710   -2.4315    0.7764 P   0  0  1  0  0  0  0  0  0  0  0  0
    1.8476   -3.1389    1.0280 O   0  0  0  0  0  0  0  0  0  0  0  0
    3.0257   -2.4677    0.7545 C   0  0  0  0  0  0  0  0  0  0  0  0
    3.3760   -2.0742   -0.5503 C   0  0  0  0  0  0  0  0  0  0  0  0
    2.7210   -2.3046   -1.4049 H   0  0  0  0  0  0  0  0  0  0  0  0
    4.5898   -1.4055   -0.7592 C   0  0  0  0  0  0  0  0  0  0  0  0
    4.8515   -1.0983   -1.7847 H   0  0  0  0  0  0  0  0  0  0  0  0
    5.4833   -1.1310    0.2968 C   0  0  0  0  0  0  0  0  0  0  0  0
    5.1216   -1.5645    1.5881 C   0  0  0  0  0  0  0  0  0  0  0  0
    5.8077   -1.3843    2.4320 H   0  0  0  0  0  0  0  0  0  0  0  0
    3.9029   -2.2174    1.8226 C   0  0  0  0  0  0  0  0  0  0  0  0
    3.6123   -2.5485    2.8301 H   0  0  0  0  0  0  0  0  0  0  0  0
    6.7647   -0.3741    0.0521 C   0  0  0  0  0  0  0  0  0  0  0  0
    6.5742    0.7202   -0.0101 H   0  0  0  0  0  0  0  0  0  0  0  0
    7.2423   -0.6746   -0.9024 H   0  0  0  0  0  0  0  0  0  0  0  0
    7.4981   -0.5350    0.8672 H   0  0  0  0  0  0  0  0  0  0  0  0
   -0.6919   -3.1912    1.5139 O   0  0  0  0  0  0  0  0  0  0  0  0
    0.1479   -2.6341   -0.8559 O   0  0  0  0  0  0  0  0  0  0  0  0
    0.1650   -1.7409   -2.2527 P   0  0  1  0  0  0  0  0  0  0  0  0
    1.1764   -2.2506   -3.2239 O   0  0  0  0  0  0  0  0  0  0  0  0
   -1.3811   -2.0742   -2.8194 O   0  0  0  0  0  0  0  0  0  0  0  0
   -2.4555   -1.4413   -2.2495 C   0  0  0  0  0  0  0  0  0  0  0  0
   -2.9745   -1.8471   -1.0048 C   0  0  0  0  0  0  0  0  0  0  0  0
   -2.4787   -2.6532   -0.4424 H   0  0  0  0  0  0  0  0  0  0  0  0
   -4.1097   -1.2049   -0.4877 C   0  0  0  0  0  0  0  0  0  0  0  0
   -4.5098   -1.5372    0.4831 H   0  0  0  0  0  0  0  0  0  0  0  0
   -4.7434   -0.1459   -1.1699 C   0  0  0  0  0  0  0  0  0  0  0  0
   -4.1932    0.2626   -2.4045 C   0  0  0  0  0  0  0  0  0  0  0  0
   -4.6728    1.0808   -2.9678 H   0  0  0  0  0  0  0  0  0  0  0  0
   -3.0649   -0.3747   -2.9429 C   0  0  0  0  0  0  0  0  0  0  0  0
   -2.6470   -0.0826   -3.9181 H   0  0  0  0  0  0  0  0  0  0  0  0
   -6.0014    0.4898   -0.6297 C   0  0  0  0  0  0  0  0  0  0  0  0
   -6.0436    1.5767   -0.8515 H   0  0  0  0  0  0  0  0  0  0  0  0
   -6.0877    0.3516    0.4662 H   0  0  0  0  0  0  0  0  0  0  0  0
   -6.9081    0.0387   -1.0877 H   0  0  0  0  0  0  0  0  0  0  0  0
    0.1144   -0.2301   -1.8676 O   0  0  0  0  0  1  0  0  0  0  0  0
  2  3  1  0  0  0  0
  2  1  1  1  0  0  0
  2 18  2  0  0  0  0
  4  3  1  0  0  0  0
  4 12  1  0  0  0  0
  5  4  2  0  0  0  0
  6  5  1  0  0  0  0
  7  5  1  0  0  0  0
  7  9  2  0  0  0  0
  8  7  1  0  0  0  0
  9 10  1  0  0  0  0
 10 12  2  0  0  0  0
 10 11  1  0  0  0  0
 12 13  1  0  0  0  0
 14  9  1  0  0  0  0
 14 17  1  0  0  0  0
 15 14  1  0  0  0  0
 16 14  1  0  0  0  0
 19  2  1  0  0  0  0
 20 21  2  6  0  0  0
 20 37  1  0  0  0  0
 20 19  1  0  0  0  0
 22 20  1  0  0  0  0
 22 23  1  0  0  0  0
 23 24  1  0  0  0  0
 24 26  2  0  0  0  0
 24 25  1  0  0  0  0
 26 27  1  0  0  0  0
 28 33  1  0  0  0  0
 28 26  1  0  0  0  0
 29 28  2  0  0  0  0
 30 29  1  0  0  0  0
 31 29  1  0  0  0  0
 31 23  2  0  0  0  0
 32 31  1  0  0  0  0
 33 35  1  0  0  0  0
 34 33  1  0  0  0  0
 36 33  1  0  0  0  0
M  END
