1,17
 OpenBabel05122313063D

 31 32  0  0  0  0  0  0  0  0999 V2000
    0.9389   -0.0969    1.5899 O   0  0  0  0  0  1  0  0  0  0  0  0
   -0.5860    0.1698    1.7673 P   0  0  2  0  0  0  0  0  0  0  0  0
   -1.1031    0.6785    3.0748 O   0  0  0  0  0  0  0  0  0  0  0  0
   -1.2254   -1.3050    1.2878 O   0  0  0  0  0  0  0  0  0  0  0  0
   -2.5665   -1.5999    1.2302 C   0  0  0  0  0  0  0  0  0  0  0  0
   -2.9175   -2.7474    0.4951 C   0  0  0  0  0  0  0  0  0  0  0  0
   -2.1184   -3.3243    0.0073 H   0  0  0  0  0  0  0  0  0  0  0  0
   -4.2594   -3.1305    0.3850 C   0  0  0  0  0  0  0  0  0  0  0  0
   -4.5442   -4.0213   -0.1926 H   0  0  0  0  0  0  0  0  0  0  0  0
   -5.2511   -2.3548    1.0057 C   0  0  0  0  0  0  0  0  0  0  0  0
   -6.9362   -2.8009    0.8227 Cl  0  0  0  0  0  0  0  0  0  0  0  0
   -4.9098   -1.2103    1.7405 C   0  0  0  0  0  0  0  0  0  0  0  0
   -5.7004   -0.6049    2.2051 H   0  0  0  0  0  0  0  0  0  0  0  0
   -3.5655   -0.8330    1.8613 C   0  0  0  0  0  0  0  0  0  0  0  0
   -3.2763    0.0489    2.4506 H   0  0  0  0  0  0  0  0  0  0  0  0
   -1.0933    1.1838    0.5470 O   0  0  0  0  0  0  0  0  0  0  0  0
    0.1811    0.1655   -1.4887 O   0  0  0  0  0  1  0  0  0  0  0  0
   -0.9603    1.1415   -1.1151 P   0  0  2  0  0  0  0  0  0  0  0  0
   -0.9605    2.5492   -1.6497 O   0  0  0  0  0  0  0  0  0  0  0  0
   -2.3258    0.2833   -1.5403 O   0  0  0  0  0  0  0  0  0  0  0  0
   -3.6107    0.6645   -1.2400 C   0  0  0  0  0  0  0  0  0  0  0  0
   -4.6257   -0.2407   -1.5994 C   0  0  0  0  0  0  0  0  0  0  0  0
   -4.3420   -1.1761   -2.1011 H   0  0  0  0  0  0  0  0  0  0  0  0
   -5.9604    0.0258   -1.2766 C   0  0  0  0  0  0  0  0  0  0  0  0
   -6.7503   -0.6995   -1.5141 H   0  0  0  0  0  0  0  0  0  0  0  0
   -6.2793    1.2091   -0.5927 C   0  0  0  0  0  0  0  0  0  0  0  0
   -7.9407    1.5243   -0.1339 Cl  0  0  0  0  0  0  0  0  0  0  0  0
   -5.2779    2.1336   -0.2591 C   0  0  0  0  0  0  0  0  0  0  0  0
   -5.5451    3.0614    0.2660 H   0  0  0  0  0  0  0  0  0  0  0  0
   -3.9416    1.8683   -0.5872 C   0  0  0  0  0  0  0  0  0  0  0  0
   -3.1542    2.5920   -0.3364 H   0  0  0  0  0  0  0  0  0  0  0  0
  2  1  1  1  0  0  0
  2  3  2  0  0  0  0
  4  2  1  0  0  0  0
  5  4  1  0  0  0  0
  5 14  1  0  0  0  0
  6  5  2  0  0  0  0
  7  6  1  0  0  0  0
  8  6  1  0  0  0  0
  8 10  2  0  0  0  0
  9  8  1  0  0  0  0
 10 12  1  0  0  0  0
 11 10  1  0  0  0  0
 12 14  2  0  0  0  0
 12 13  1  0  0  0  0
 14 15  1  0  0  0  0
 16  2  1  0  0  0  0
 17 18  1  0  0  0  0
 18 19  2  6  0  0  0
 18 16  1  0  0  0  0
 20 21  1  0  0  0  0
 20 18  1  0  0  0  0
 21 30  1  0  0  0  0
 22 24  1  0  0  0  0
 22 21  2  0  0  0  0
 23 22  1  0  0  0  0
 24 26  2  0  0  0  0
 25 24  1  0  0  0  0
 26 28  1  0  0  0  0
 26 27  1  0  0  0  0
 28 29  1  0  0  0  0
 30 31  1  0  0  0  0
 30 28  2  0  0  0  0
M  END
