1,5
 OpenBabel05122313063D

 21 20  0  0  0  0  0  0  0  0999 V2000
   -1.8945    1.2192   -0.2701 O   0  0  0  0  0  1  0  0  0  0  0  0
   -3.4644    0.9490   -0.7420 Si  0  0  0  0  0  0  0  0  0  0  0  0
   -3.9979   -0.5189   -0.0786 O   0  0  0  0  0  0  0  0  0  0  0  0
   -3.0082   -1.3847    0.9809 Si  0  0  0  0  0  0  0  0  0  0  0  0
   -1.4175   -1.3790    0.4893 O   0  0  0  0  0  1  0  0  0  0  0  0
   -4.5563    2.3250   -0.0503 C   0  0  0  0  0  0  0  0  0  0  0  0
   -5.6241    2.1312   -0.2802 H   0  0  0  0  0  0  0  0  0  0  0  0
   -4.2862    3.3128   -0.4773 H   0  0  0  0  0  0  0  0  0  0  0  0
   -4.4504    2.3849    1.0522 H   0  0  0  0  0  0  0  0  0  0  0  0
   -3.6386    0.8255   -2.6119 C   0  0  0  0  0  0  0  0  0  0  0  0
   -4.6658    0.5249   -2.9030 H   0  0  0  0  0  0  0  0  0  0  0  0
   -2.9270    0.0712   -3.0049 H   0  0  0  0  0  0  0  0  0  0  0  0
   -3.4071    1.7961   -3.0966 H   0  0  0  0  0  0  0  0  0  0  0  0
   -3.1451   -0.6201    2.7072 C   0  0  0  0  0  0  0  0  0  0  0  0
   -4.1941   -0.6179    3.0684 H   0  0  0  0  0  0  0  0  0  0  0  0
   -2.7934    0.4323    2.6818 H   0  0  0  0  0  0  0  0  0  0  0  0
   -2.5269   -1.1719    3.4454 H   0  0  0  0  0  0  0  0  0  0  0  0
   -3.6418   -3.1578    0.9898 C   0  0  0  0  0  0  0  0  0  0  0  0
   -4.7007   -3.2031    1.3169 H   0  0  0  0  0  0  0  0  0  0  0  0
   -3.0384   -3.7940    1.6689 H   0  0  0  0  0  0  0  0  0  0  0  0
   -3.5802   -3.5882   -0.0306 H   0  0  0  0  0  0  0  0  0  0  0  0
  2  1  1  0  0  0  0
  2  3  1  0  0  0  0
  2  6  1  0  0  0  0
  3  4  1  0  0  0  0
  4 18  1  0  0  0  0
  4 14  1  0  0  0  0
  5  4  1  0  0  0  0
  6  9  1  0  0  0  0
  7  6  1  0  0  0  0
  8  6  1  0  0  0  0
 10  2  1  0  0  0  0
 11 10  1  0  0  0  0
 12 10  1  0  0  0  0
 13 10  1  0  0  0  0
 14 15  1  0  0  0  0
 14 17  1  0  0  0  0
 16 14  1  0  0  0  0
 18 19  1  0  0  0  0
 18 20  1  0  0  0  0
 21 18  1  0  0  0  0
M  END
