4,5
q = -1.0, confidence = 0.006

 13 12  0  0  0  0  0  0  0  0999 V2000
    3.2042    0.0000    0.0000 N   0  0  0  0  0  4  0  0  0  0  0  0
    2.5370    1.1655   -0.0001 C   0  0  0  0  0  0  0  0  0  0  0  0
    2.5370   -1.1655    0.0001 C   0  0  0  0  0  0  0  0  0  0  0  0
    1.2697   -1.3497    0.0001 O   0  5  0  0  0  0  0  0  0  0  0  0
    1.2697    1.3497   -0.0002 O   0  5  0  0  0  0  0  0  0  0  0  0
    3.3808   -2.4163    0.0000 C   0  0  0  0  0  0  0  0  0  0  0  0
    2.7482   -3.3209    0.0010 H   0  0  0  0  0  0  0  0  0  0  0  0
    4.0445   -2.4107    0.8876 H   0  0  0  0  0  0  0  0  0  0  0  0
    4.0428   -2.4116   -0.8889 H   0  0  0  0  0  0  0  0  0  0  0  0
    3.3808    2.4164    0.0001 C   0  0  0  0  0  0  0  0  0  0  0  0
    2.7481    3.3209   -0.0030 H   0  0  0  0  0  0  0  0  0  0  0  0
    4.0462    2.4098   -0.8862 H   0  0  0  0  0  0  0  0  0  0  0  0
    4.0410    2.4127    0.8903 H   0  0  0  0  0  0  0  0  0  0  0  0
  1  3  2  0  0  0  0
  2  1  2  0  0  0  0
  2 10  1  0  0  0  0
  4  3  1  0  0  0  0
  5  2  1  0  0  0  0
  6  3  1  0  0  0  0
  6  7  1  0  0  0  0
  6  8  1  0  0  0  0
  9  6  1  0  0  0  0
 10 13  1  0  0  0  0
 11 10  1  0  0  0  0
 12 10  1  0  0  0  0
M  CHG  2   4  -1   5  -1
M  END
