13,28
 OpenBabel05122313063D

 47 50  0  0  1  0  0  0  0  0999 V2000
   -2.4144    2.1984   -0.4800 N   0  0  0  0  0  0  0  0  0  0  0  0
   -3.8302    2.1688   -0.4607 C   0  0  0  0  0  0  0  0  0  0  0  0
   -4.5402    1.0593    0.0481 C   0  0  0  0  0  0  0  0  0  0  0  0
   -5.9421    1.0793    0.0451 C   0  0  0  0  0  0  0  0  0  0  0  0
   -6.6491    2.1853   -0.4509 C   0  0  0  0  0  0  0  0  0  0  0  0
   -5.9345    3.2890   -0.9445 C   0  0  0  0  0  0  0  0  0  0  0  0
   -4.5349    3.2883   -0.9528 C   0  0  0  0  0  0  0  0  0  0  0  0
   -1.7689    3.3968   -0.7192 N   0  0  0  0  0  0  0  0  0  0  0  0
   -0.4725    3.1467   -0.7204 C   0  0  0  0  0  0  0  0  0  0  0  0
    0.4802    4.2815   -0.9246 C   0  0  0  0  0  0  0  0  0  0  0  0
   -0.2105    1.7398   -0.4748 C   0  0  0  0  0  0  0  0  0  0  0  0
    0.9885    0.9874   -0.4406 C   0  0  2  0  0  3  0  0  0  0  0  0
    1.0474   -0.2554   -0.1729 O   0  0  0  0  0  1  0  0  0  0  0  0
    2.3537    1.6366   -0.7069 C   0  0  0  0  0  0  0  0  0  0  0  0
    3.3079    0.6122   -1.3132 C   0  0  0  0  0  0  0  0  0  0  0  0
    3.2276    0.3280   -2.6908 C   0  0  0  0  0  0  0  0  0  0  0  0
    4.0430   -0.6554   -3.2710 C   0  0  0  0  0  0  0  0  0  0  0  0
    4.9582   -1.3668   -2.4776 C   0  0  0  0  0  0  0  0  0  0  0  0
    5.0477   -1.0860   -1.1050 C   0  0  0  0  0  0  0  0  0  0  0  0
    4.2273   -0.1050   -0.5269 C   0  0  0  0  0  0  0  0  0  0  0  0
    2.8895    2.2936    0.5629 C   0  0  0  0  0  0  0  0  0  0  0  0
    2.4648    1.9001    1.8477 C   0  0  0  0  0  0  0  0  0  0  0  0
    3.0083    2.5156    2.9875 C   0  0  0  0  0  0  0  0  0  0  0  0
    3.9774    3.5218    2.8620 C   0  0  0  0  0  0  0  0  0  0  0  0
    4.4051    3.9168    1.5833 C   0  0  0  0  0  0  0  0  0  0  0  0
    3.8633    3.3069    0.4438 C   0  0  0  0  0  0  0  0  0  0  0  0
   -1.5206    1.1530   -0.3168 C   0  0  0  0  0  0  0  0  0  0  0  0
   -1.8900   -0.0541   -0.1269 O   0  5  0  0  0  0  0  0  0  0  0  0
   -3.9890    0.2002    0.4462 H   0  0  0  0  0  0  0  0  0  0  0  0
   -6.4882    0.2122    0.4477 H   0  0  0  0  0  0  0  0  0  0  0  0
   -7.7494    2.1902   -0.4478 H   0  0  0  0  0  0  0  0  0  0  0  0
   -6.4734    4.1678   -1.3309 H   0  0  0  0  0  0  0  0  0  0  0  0
   -3.9586    4.1444   -1.3257 H   0  0  0  0  0  0  0  0  0  0  0  0
    1.0500    4.1803   -1.8725 H   0  0  0  0  0  0  0  0  0  0  0  0
    1.2191    4.3490   -0.1011 H   0  0  0  0  0  0  0  0  0  0  0  0
   -0.0960    5.2241   -0.9714 H   0  0  0  0  0  0  0  0  0  0  0  0
    2.2055    2.4344   -1.4604 H   0  0  0  0  0  0  0  0  0  0  0  0
    2.5094    0.8834   -3.3159 H   0  0  0  0  0  0  0  0  0  0  0  0
    3.9696   -0.8614   -4.3500 H   0  0  0  0  0  0  0  0  0  0  0  0
    5.6042   -2.1342   -2.9305 H   0  0  0  0  0  0  0  0  0  0  0  0
    5.7646   -1.6362   -0.4761 H   0  0  0  0  0  0  0  0  0  0  0  0
    4.2959    0.1098    0.5496 H   0  0  0  0  0  0  0  0  0  0  0  0
    1.6983    1.1175    1.9750 H   0  0  0  0  0  0  0  0  0  0  0  0
    2.6600    2.2011    3.9832 H   0  0  0  0  0  0  0  0  0  0  0  0
    4.3977    4.0026    3.7585 H   0  0  0  0  0  0  0  0  0  0  0  0
    5.1628    4.7077    1.4727 H   0  0  0  0  0  0  0  0  0  0  0  0
    4.2015    3.6159   -0.5583 H   0  0  0  0  0  0  0  0  0  0  0  0
  1  2  1  0  0  0  0
  1 27  1  0  0  0  0
  2  3  1  0  0  0  0
  3 29  1  0  0  0  0
  4  3  2  0  0  0  0
  4 30  1  0  0  0  0
  5 31  1  0  0  0  0
  5  4  1  0  0  0  0
  6  5  2  0  0  0  0
  7  6  1  0  0  0  0
  7  2  2  0  0  0  0
  8  1  1  0  0  0  0
  9  8  2  0  0  0  0
  9 11  1  0  0  0  0
 10  9  1  0  0  0  0
 10 35  1  0  0  0  0
 11 12  1  0  0  0  0
 11 27  2  0  0  0  0
 12 13  1  1  0  0  0
 14 12  1  0  0  0  0
 14 21  1  0  0  0  0
 15 14  1  0  0  0  0
 15 20  1  0  0  0  0
 16 15  2  0  0  0  0
 17 16  1  0  0  0  0
 17 18  2  0  0  0  0
 18 19  1  0  0  0  0
 19 20  2  0  0  0  0
 19 41  1  0  0  0  0
 20 42  1  0  0  0  0
 21 22  1  0  0  0  0
 22 43  1  0  0  0  0
 22 23  2  0  0  0  0
 23 44  1  0  0  0  0
 24 23  1  0  0  0  0
 24 45  1  0  0  0  0
 25 24  2  0  0  0  0
 26 21  2  0  0  0  0
 26 25  1  0  0  0  0
 27 28  1  0  0  0  0
 32  6  1  0  0  0  0
 33  7  1  0  0  0  0
 34 10  1  0  0  0  0
 36 10  1  0  0  0  0
 37 14  1  0  0  0  0
 38 16  1  0  0  0  0
 39 17  1  0  0  0  0
 40 18  1  0  0  0  0
 46 25  1  0  0  0  0
 47 26  1  0  0  0  0
M  CHG  1  28  -1
M  END
