1,2
 OpenBabel05122313063D

 45 48  0  0  0  0  0  0  0  0999 V2000
    1.8287    0.2870    0.8229 O   0  5  0  0  0  0  0  0  0  0  0  0
   -0.7512    0.8316    0.2669 O   0  5  0  0  0  0  0  0  0  0  0  0
    2.5069    1.3553    0.3483 C   0  0  0  0  0  0  0  0  0  0  0  0
    3.6486    1.1323   -0.4720 C   0  0  0  0  0  0  0  0  0  0  0  0
    4.2879    2.2659   -1.0140 C   0  0  0  0  0  0  0  0  0  0  0  0
    3.8260    3.5610   -0.7462 C   0  0  0  0  0  0  0  0  0  0  0  0
    2.7073    3.7505    0.0775 C   0  0  0  0  0  0  0  0  0  0  0  0
    2.0278    2.6574    0.6409 C   0  0  0  0  0  0  0  0  0  0  0  0
    0.8146    2.8696    1.5309 C   0  0  0  0  0  0  0  0  0  0  0  0
   -0.4743    3.1456    0.7794 C   0  0  0  0  0  0  0  0  0  0  0  0
   -0.9813    4.4512    0.6849 C   0  0  0  0  0  0  0  0  0  0  0  0
   -2.1740    4.7243   -0.0015 C   0  0  0  0  0  0  0  0  0  0  0  0
   -2.8796    3.6795   -0.6072 C   0  0  0  0  0  0  0  0  0  0  0  0
   -2.4172    2.3480   -0.5467 C   0  0  0  0  0  0  0  0  0  0  0  0
   -1.2034    2.0911    0.1578 C   0  0  0  0  0  0  0  0  0  0  0  0
    4.1246   -0.2382   -0.7851 C   0  0  0  0  0  0  0  0  0  0  0  0
    4.1986   -1.2435    0.2049 C   0  0  0  0  0  0  0  0  0  0  0  0
    4.6445   -2.5318   -0.1168 C   0  0  0  0  0  0  0  0  0  0  0  0
    5.0276   -2.8420   -1.4307 C   0  0  0  0  0  0  0  0  0  0  0  0
    4.9648   -1.8509   -2.4231 C   0  0  0  0  0  0  0  0  0  0  0  0
    4.5175   -0.5625   -2.1033 C   0  0  0  0  0  0  0  0  0  0  0  0
   -3.1920    1.2634   -1.2002 C   0  0  0  0  0  0  0  0  0  0  0  0
   -4.6019    1.2321   -1.0884 C   0  0  0  0  0  0  0  0  0  0  0  0
   -5.3515    0.2253   -1.7125 C   0  0  0  0  0  0  0  0  0  0  0  0
   -4.7070   -0.7752   -2.4584 C   0  0  0  0  0  0  0  0  0  0  0  0
   -3.3089   -0.7521   -2.5825 C   0  0  0  0  0  0  0  0  0  0  0  0
   -2.5588    0.2581   -1.9660 C   0  0  0  0  0  0  0  0  0  0  0  0
    5.1787    2.1164   -1.6419 H   0  0  0  0  0  0  0  0  0  0  0  0
    4.3498    4.4297   -1.1719 H   0  0  0  0  0  0  0  0  0  0  0  0
    2.3475    4.7684    0.2945 H   0  0  0  0  0  0  0  0  0  0  0  0
   -0.4255    5.2696    1.1687 H   0  0  0  0  0  0  0  0  0  0  0  0
   -2.5490    5.7562   -0.0693 H   0  0  0  0  0  0  0  0  0  0  0  0
   -3.8018    3.8901   -1.1690 H   0  0  0  0  0  0  0  0  0  0  0  0
    3.9023   -1.0148    1.2377 H   0  0  0  0  0  0  0  0  0  0  0  0
    4.6827   -3.3012    0.6688 H   0  0  0  0  0  0  0  0  0  0  0  0
    5.3699   -3.8572   -1.6830 H   0  0  0  0  0  0  0  0  0  0  0  0
    5.2526   -2.0867   -3.4591 H   0  0  0  0  0  0  0  0  0  0  0  0
    4.4376    0.2008   -2.8921 H   0  0  0  0  0  0  0  0  0  0  0  0
   -5.1108    1.9981   -0.4834 H   0  0  0  0  0  0  0  0  0  0  0  0
   -6.4475    0.2175   -1.6081 H   0  0  0  0  0  0  0  0  0  0  0  0
   -5.2944   -1.5698   -2.9434 H   0  0  0  0  0  0  0  0  0  0  0  0
   -2.7874   -1.5270   -3.1645 H   0  0  0  0  0  0  0  0  0  0  0  0
   -1.4664    0.2626   -2.0814 H   0  0  0  0  0  0  0  0  0  0  0  0
    0.6775    1.9958    2.1975 H   0  0  0  0  0  0  0  0  0  0  0  0
    1.0174    3.7402    2.1849 H   0  0  0  0  0  0  0  0  0  0  0  0
  3  8  1  0  0  0  0
  3  1  1  0  0  0  0
  4  3  2  0  0  0  0
  5  6  2  0  0  0  0
  5  4  1  0  0  0  0
  6  7  1  0  0  0  0
  7 30  1  0  0  0  0
  7  8  2  0  0  0  0
  8  9  1  0  0  0  0
  9 45  1  0  0  0  0
  9 44  1  0  0  0  0
 10  9  1  0  0  0  0
 11 10  1  0  0  0  0
 11 31  1  0  0  0  0
 12 11  2  0  0  0  0
 13 14  2  0  0  0  0
 13 12  1  0  0  0  0
 14 15  1  0  0  0  0
 15  2  1  0  0  0  0
 15 10  2  0  0  0  0
 16  4  1  0  0  0  0
 16 17  1  0  0  0  0
 17 34  1  0  0  0  0
 18 17  2  0  0  0  0
 18 35  1  0  0  0  0
 19 18  1  0  0  0  0
 20 21  1  0  0  0  0
 20 19  2  0  0  0  0
 21 16  2  0  0  0  0
 22 23  1  0  0  0  0
 22 14  1  0  0  0  0
 23 39  1  0  0  0  0
 24 40  1  0  0  0  0
 24 23  2  0  0  0  0
 25 24  1  0  0  0  0
 26 25  2  0  0  0  0
 26 27  1  0  0  0  0
 27 22  2  0  0  0  0
 28  5  1  0  0  0  0
 29  6  1  0  0  0  0
 32 12  1  0  0  0  0
 33 13  1  0  0  0  0
 36 19  1  0  0  0  0
 37 20  1  0  0  0  0
 38 21  1  0  0  0  0
 41 25  1  0  0  0  0
 42 26  1  0  0  0  0
 43 27  1  0  0  0  0
M  CHG  2   1  -1   2  -1
M  END
