1,2
 OpenBabel05122313063D

 59 61  0  0  0  0  0  0  0  0999 V2000
    0.6761    1.4371    0.2244 O   0  5  0  0  0  0  0  0  0  0  0  0
    0.8711   -1.1674    1.0589 O   0  0  0  0  0  1  0  0  0  0  0  0
   -0.5705   -1.3449    0.5038 P   0  0  0  0  0  4  0  0  0  0  0  0
   -0.6286    1.4262    0.0528 C   0  0  0  0  0  0  0  0  0  0  0  0
   -1.3522    2.6445   -0.2264 C   0  0  0  0  0  0  0  0  0  0  0  0
   -2.7359    2.5556   -0.4210 C   0  0  0  0  0  0  0  0  0  0  0  0
   -3.2792    3.4835   -0.6428 H   0  0  0  0  0  0  0  0  0  0  0  0
   -3.4928    1.3609   -0.3336 C   0  0  0  0  0  0  0  0  0  0  0  0
   -2.7879    0.1929   -0.0391 C   0  0  0  0  0  0  0  0  0  0  0  0
   -3.3218   -0.7598    0.0886 H   0  0  0  0  0  0  0  0  0  0  0  0
   -1.3831    0.2123    0.1270 C   0  0  0  0  0  0  0  0  0  0  0  0
   -0.6244    4.0022   -0.2833 C   0  0  0  0  0  0  0  0  0  0  0  0
    0.4894    3.9832   -1.3563 C   0  0  0  0  0  0  0  0  0  0  0  0
    1.2784    3.2451   -1.1254 H   0  0  0  0  0  0  0  0  0  0  0  0
    0.9662    4.9834   -1.4167 H   0  0  0  0  0  0  0  0  0  0  0  0
    0.0680    3.7516   -2.3561 H   0  0  0  0  0  0  0  0  0  0  0  0
   -0.0086    4.2970    1.1039 C   0  0  0  0  0  0  0  0  0  0  0  0
   -0.7971    4.3567    1.8817 H   0  0  0  0  0  0  0  0  0  0  0  0
    0.5309    5.2665    1.0861 H   0  0  0  0  0  0  0  0  0  0  0  0
    0.7079    3.5077    1.3886 H   0  0  0  0  0  0  0  0  0  0  0  0
   -1.5859    5.1551   -0.6270 C   0  0  0  0  0  0  0  0  0  0  0  0
   -2.0553    5.0240   -1.6233 H   0  0  0  0  0  0  0  0  0  0  0  0
   -1.0183    6.1067   -0.6511 H   0  0  0  0  0  0  0  0  0  0  0  0
   -2.3921    5.2709    0.1258 H   0  0  0  0  0  0  0  0  0  0  0  0
   -5.0153    1.3948   -0.5428 C   0  0  0  0  0  0  0  0  0  0  0  0
   -5.6445   -0.0014   -0.3967 C   0  0  0  0  0  0  0  0  0  0  0  0
   -5.2409   -0.7156   -1.1432 H   0  0  0  0  0  0  0  0  0  0  0  0
   -6.7401    0.0594   -0.5542 H   0  0  0  0  0  0  0  0  0  0  0  0
   -5.4758   -0.4266    0.6136 H   0  0  0  0  0  0  0  0  0  0  0  0
   -5.6562    2.3309    0.5069 C   0  0  0  0  0  0  0  0  0  0  0  0
   -6.7563    2.3779    0.3680 H   0  0  0  0  0  0  0  0  0  0  0  0
   -5.2637    3.3644    0.4296 H   0  0  0  0  0  0  0  0  0  0  0  0
   -5.4526    1.9690    1.5350 H   0  0  0  0  0  0  0  0  0  0  0  0
   -5.3223    1.9239   -1.9621 C   0  0  0  0  0  0  0  0  0  0  0  0
   -4.8774    1.2644   -2.7347 H   0  0  0  0  0  0  0  0  0  0  0  0
   -4.9170    2.9437   -2.1169 H   0  0  0  0  0  0  0  0  0  0  0  0
   -6.4178    1.9678   -2.1341 H   0  0  0  0  0  0  0  0  0  0  0  0
   -1.5953   -2.1494    1.7805 C   0  0  0  0  0  0  0  0  0  0  0  0
   -2.0664   -3.4691    1.6484 C   0  0  0  0  0  0  0  0  0  0  0  0
   -1.8481   -4.0424    0.7351 H   0  0  0  0  0  0  0  0  0  0  0  0
   -2.8152   -4.0498    2.6846 C   0  0  0  0  0  0  0  0  0  0  0  0
   -3.1851   -5.0807    2.5790 H   0  0  0  0  0  0  0  0  0  0  0  0
   -3.0892   -3.3189    3.8503 C   0  0  0  0  0  0  0  0  0  0  0  0
   -3.6764   -3.7767    4.6608 H   0  0  0  0  0  0  0  0  0  0  0  0
   -2.6163   -2.0017    3.9850 C   0  0  0  0  0  0  0  0  0  0  0  0
   -2.8315   -1.4282    4.8992 H   0  0  0  0  0  0  0  0  0  0  0  0
   -1.8733   -1.4150    2.9533 C   0  0  0  0  0  0  0  0  0  0  0  0
   -1.5109   -0.3794    3.0493 H   0  0  0  0  0  0  0  0  0  0  0  0
   -0.5477   -2.4883   -0.9144 C   0  0  0  0  0  0  0  0  0  0  0  0
    0.5109   -3.4185   -0.9673 C   0  0  0  0  0  0  0  0  0  0  0  0
    1.3225   -3.3627   -0.2245 H   0  0  0  0  0  0  0  0  0  0  0  0
    0.5408   -4.3724   -1.9948 C   0  0  0  0  0  0  0  0  0  0  0  0
    1.3708   -5.0933   -2.0428 H   0  0  0  0  0  0  0  0  0  0  0  0
   -0.4734   -4.3971   -2.9671 C   0  0  0  0  0  0  0  0  0  0  0  0
   -0.4437   -5.1451   -3.7739 H   0  0  0  0  0  0  0  0  0  0  0  0
   -1.5195   -3.4603   -2.9185 C   0  0  0  0  0  0  0  0  0  0  0  0
   -2.3062   -3.4702   -3.6879 H   0  0  0  0  0  0  0  0  0  0  0  0
   -1.5611   -2.5050   -1.8917 C   0  0  0  0  0  0  0  0  0  0  0  0
   -2.3734   -1.7633   -1.8604 H   0  0  0  0  0  0  0  0  0  0  0  0
  3  2  1  0  0  0  0
  3 38  1  0  0  0  0
  4 11  1  0  0  0  0
  4  1  1  0  0  0  0
  5  4  2  0  0  0  0
  6  8  2  0  0  0  0
  6  5  1  0  0  0  0
  7  6  1  0  0  0  0
  8  9  1  0  0  0  0
  9 10  1  0  0  0  0
  9 11  2  0  0  0  0
 11  3  1  0  0  0  0
 12  5  1  0  0  0  0
 12 17  1  0  0  0  0
 13 14  1  0  0  0  0
 13 12  1  0  0  0  0
 15 13  1  0  0  0  0
 16 13  1  0  0  0  0
 17 20  1  0  0  0  0
 17 18  1  0  0  0  0
 19 17  1  0  0  0  0
 21 12  1  0  0  0  0
 21 24  1  0  0  0  0
 22 21  1  0  0  0  0
 23 21  1  0  0  0  0
 25 26  1  0  0  0  0
 25  8  1  0  0  0  0
 25 30  1  0  0  0  0
 26 29  1  0  0  0  0
 27 26  1  0  0  0  0
 28 26  1  0  0  0  0
 30 33  1  0  0  0  0
 31 30  1  0  0  0  0
 32 30  1  0  0  0  0
 34 25  1  0  0  0  0
 35 34  1  0  0  0  0
 36 34  1  0  0  0  0
 37 34  1  0  0  0  0
 38 47  1  0  0  0  0
 39 38  2  0  0  0  0
 39 41  1  0  0  0  0
 40 39  1  0  0  0  0
 41 43  2  0  0  0  0
 42 41  1  0  0  0  0
 43 45  1  0  0  0  0
 43 44  1  0  0  0  0
 45 46  1  0  0  0  0
 47 48  1  0  0  0  0
 47 45  2  0  0  0  0
 49  3  1  0  0  0  0
 50 49  1  0  0  0  0
 50 51  1  0  0  0  0
 52 50  2  0  0  0  0
 53 52  1  0  0  0  0
 54 56  2  0  0  0  0
 54 52  1  0  0  0  0
 55 54  1  0  0  0  0
 56 58  1  0  0  0  0
 57 56  1  0  0  0  0
 58 59  1  0  0  0  0
 58 49  2  0  0  0  0
M  CHG  1   1  -1
M  END
