2,3
 OpenBabel05122313063D

 45 48  0  0  0  0  0  0  0  0999 V2000
    1.7533    0.2421    0.0543 P   0  0  0  0  0  4  0  0  0  0  0  0
    1.1197   -0.9151    0.8873 O   0  0  0  0  0  1  0  0  0  0  0  0
   -0.9516    0.0666   -0.3965 O   0  5  0  0  0  0  0  0  0  0  0  0
    3.3470    0.6804    0.8034 C   0  0  0  0  0  0  0  0  0  0  0  0
    3.5828    0.2956    2.1376 C   0  0  0  0  0  0  0  0  0  0  0  0
    2.8199   -0.2940    2.6673 H   0  0  0  0  0  0  0  0  0  0  0  0
    4.7892    0.6505    2.7581 C   0  0  0  0  0  0  0  0  0  0  0  0
    4.9791    0.3455    3.7982 H   0  0  0  0  0  0  0  0  0  0  0  0
    5.7543    1.3876    2.0527 C   0  0  0  0  0  0  0  0  0  0  0  0
    6.7003    1.6640    2.5425 H   0  0  0  0  0  0  0  0  0  0  0  0
    5.5208    1.7640    0.7197 C   0  0  0  0  0  0  0  0  0  0  0  0
    6.2830    2.3304    0.1639 H   0  0  0  0  0  0  0  0  0  0  0  0
    4.3199    1.4074    0.0889 C   0  0  0  0  0  0  0  0  0  0  0  0
    4.1467    1.6801   -0.9636 H   0  0  0  0  0  0  0  0  0  0  0  0
    2.0358   -0.2378   -1.6730 C   0  0  0  0  0  0  0  0  0  0  0  0
    2.2121   -1.6040   -1.9701 C   0  0  0  0  0  0  0  0  0  0  0  0
    2.1211   -2.3577   -1.1718 H   0  0  0  0  0  0  0  0  0  0  0  0
    2.4418   -1.9919   -3.2978 C   0  0  0  0  0  0  0  0  0  0  0  0
    2.5610   -3.0593   -3.5367 H   0  0  0  0  0  0  0  0  0  0  0  0
    2.5011   -1.0285   -4.3178 C   0  0  0  0  0  0  0  0  0  0  0  0
    2.6778   -1.3409   -5.3583 H   0  0  0  0  0  0  0  0  0  0  0  0
    2.3164    0.3314   -4.0183 C   0  0  0  0  0  0  0  0  0  0  0  0
    2.3434    1.0834   -4.8212 H   0  0  0  0  0  0  0  0  0  0  0  0
    2.0764    0.7313   -2.6958 C   0  0  0  0  0  0  0  0  0  0  0  0
    1.8948    1.7917   -2.4602 H   0  0  0  0  0  0  0  0  0  0  0  0
    0.6903    1.6955    0.0527 C   0  0  0  0  0  0  0  0  0  0  0  0
   -0.6694    1.3414   -0.1893 C   0  0  0  0  0  0  0  0  0  0  0  0
   -1.6715    2.3649   -0.2010 C   0  0  0  0  0  0  0  0  0  0  0  0
   -1.2367    3.6925    0.0017 C   0  0  0  0  0  0  0  0  0  0  0  0
   -1.9868    4.4967   -0.0396 H   0  0  0  0  0  0  0  0  0  0  0  0
    0.1068    4.0301    0.2372 C   0  0  0  0  0  0  0  0  0  0  0  0
    0.3890    5.0823    0.3876 H   0  0  0  0  0  0  0  0  0  0  0  0
    1.0834    3.0257    0.2750 C   0  0  0  0  0  0  0  0  0  0  0  0
    2.1395    3.2673    0.4710 H   0  0  0  0  0  0  0  0  0  0  0  0
   -3.1091    2.0379   -0.3704 C   0  0  0  0  0  0  0  0  0  0  0  0
   -4.0942    2.8053    0.2978 C   0  0  0  0  0  0  0  0  0  0  0  0
   -3.7849    3.6366    0.9495 H   0  0  0  0  0  0  0  0  0  0  0  0
   -5.4558    2.4984    0.1765 C   0  0  0  0  0  0  0  0  0  0  0  0
   -6.2008    3.1049    0.7140 H   0  0  0  0  0  0  0  0  0  0  0  0
   -5.8662    1.4101   -0.6106 C   0  0  0  0  0  0  0  0  0  0  0  0
   -6.9347    1.1603   -0.6968 H   0  0  0  0  0  0  0  0  0  0  0  0
   -4.9010    0.6384   -1.2762 C   0  0  0  0  0  0  0  0  0  0  0  0
   -5.2023   -0.2267   -1.8862 H   0  0  0  0  0  0  0  0  0  0  0  0
   -3.5388    0.9467   -1.1641 C   0  0  0  0  0  0  0  0  0  0  0  0
   -2.8017    0.3157   -1.6763 H   0  0  0  0  0  0  0  0  0  0  0  0
  1  4  1  0  0  0  0
  1  2  1  0  0  0  0
  3 27  1  0  0  0  0
  4  5  1  0  0  0  0
  5  6  1  0  0  0  0
  5  7  2  0  0  0  0
  7  8  1  0  0  0  0
  9 10  1  0  0  0  0
  9  7  1  0  0  0  0
 11  9  2  0  0  0  0
 12 11  1  0  0  0  0
 13 11  1  0  0  0  0
 13  4  2  0  0  0  0
 14 13  1  0  0  0  0
 15  1  1  0  0  0  0
 16 15  1  0  0  0  0
 16 17  1  0  0  0  0
 18 16  2  0  0  0  0
 19 18  1  0  0  0  0
 20 22  2  0  0  0  0
 20 18  1  0  0  0  0
 21 20  1  0  0  0  0
 22 24  1  0  0  0  0
 23 22  1  0  0  0  0
 24 25  1  0  0  0  0
 24 15  2  0  0  0  0
 26  1  1  0  0  0  0
 26 33  1  0  0  0  0
 27 26  2  0  0  0  0
 28 27  1  0  0  0  0
 28 29  2  0  0  0  0
 29 31  1  0  0  0  0
 30 29  1  0  0  0  0
 31 33  2  0  0  0  0
 31 32  1  0  0  0  0
 33 34  1  0  0  0  0
 35 28  1  0  0  0  0
 35 36  1  0  0  0  0
 36 37  1  0  0  0  0
 38 36  2  0  0  0  0
 38 39  1  0  0  0  0
 40 38  1  0  0  0  0
 41 40  1  0  0  0  0
 42 44  1  0  0  0  0
 42 40  2  0  0  0  0
 43 42  1  0  0  0  0
 44 35  2  0  0  0  0
 45 44  1  0  0  0  0
M  CHG  1   3  -1
M  END
