1,2
 OpenBabel05122313063D

 20 19  0  0  1  0  0  0  0  0999 V2000
    1.3757   -1.4416   -0.1145 O   0  0  0  0  0  1  0  0  0  0  0  0
    1.3757    1.4415   -0.1147 O   0  5  0  0  0  0  0  0  0  0  0  0
    3.4220   -2.5485   -0.3011 C   0  0  0  0  0  0  0  0  0  0  0  0
    2.7255   -3.3917   -0.1484 H   0  0  0  0  0  0  0  0  0  0  0  0
    3.9038   -2.6584   -1.2947 H   0  0  0  0  0  0  0  0  0  0  0  0
    4.2251   -2.5938    0.4605 H   0  0  0  0  0  0  0  0  0  0  0  0
    2.6414   -1.2498   -0.2229 C   0  0  1  0  0  3  0  0  0  0  0  0
    3.3222   -0.0000   -0.2866 C   0  0  0  0  0  0  0  0  0  0  0  0
    2.6413    1.2497   -0.2231 C   0  0  0  0  0  0  0  0  0  0  0  0
    3.4220    2.5485   -0.3015 C   0  0  0  0  0  0  0  0  0  0  0  0
    2.7254    3.3917   -0.1489 H   0  0  0  0  0  0  0  0  0  0  0  0
    4.2251    2.5939    0.4600 H   0  0  0  0  0  0  0  0  0  0  0  0
    3.9038    2.6582   -1.2951 H   0  0  0  0  0  0  0  0  0  0  0  0
    4.8428   -0.0000   -0.3745 C   0  0  0  0  0  0  0  0  0  0  0  0
    5.1862   -0.8759   -0.9605 H   0  0  0  0  0  0  0  0  0  0  0  0
    5.1862    0.8758   -0.9606 H   0  0  0  0  0  0  0  0  0  0  0  0
    5.5512    0.0001    0.9898 C   0  0  0  0  0  0  0  0  0  0  0  0
    5.2722   -0.8899    1.5902 H   0  0  0  0  0  0  0  0  0  0  0  0
    6.6550    0.0001    0.8769 H   0  0  0  0  0  0  0  0  0  0  0  0
    5.2722    0.8902    1.5900 H   0  0  0  0  0  0  0  0  0  0  0  0
  3  7  1  0  0  0  0
  3  4  1  0  0  0  0
  3  6  1  0  0  0  0
  5  3  1  0  0  0  0
  7  1  1  6  0  0  0
  8  9  2  0  0  0  0
  8  7  1  0  0  0  0
  9  2  1  0  0  0  0
 10  9  1  0  0  0  0
 10 11  1  0  0  0  0
 10 12  1  0  0  0  0
 13 10  1  0  0  0  0
 14  8  1  0  0  0  0
 14 17  1  0  0  0  0
 15 14  1  0  0  0  0
 16 14  1  0  0  0  0
 17 20  1  0  0  0  0
 17 18  1  0  0  0  0
 19 17  1  0  0  0  0
M  CHG  1   2  -1
M  END
