1,2
 OpenBabel05122313063D

 34 36  0  0  1  0  0  0  0  0999 V2000
    0.1158    0.5982   -0.7171 O   0  0  0  0  0  1  0  0  0  0  0  0
   -2.0363    1.4515    0.9832 O   0  5  0  0  0  0  0  0  0  0  0  0
    4.9971    1.7688   -1.2148 C   0  0  0  0  0  0  0  0  0  0  0  0
    4.4599    2.5854   -1.7204 H   0  0  0  0  0  0  0  0  0  0  0  0
    2.0049    1.9359   -0.6068 C   0  0  0  0  0  0  0  0  0  0  0  0
    2.4337    2.9457   -0.6601 H   0  0  0  0  0  0  0  0  0  0  0  0
   -0.2689    2.8648    0.0354 C   0  0  0  0  0  0  0  0  0  0  0  0
    4.2598    0.7894   -0.5344 C   0  0  0  0  0  0  0  0  0  0  0  0
    4.9630   -0.3054    0.1021 C   0  0  0  0  0  0  0  0  0  0  0  0
    0.1874    4.2098   -0.1015 C   0  0  0  0  0  0  0  0  0  0  0  0
    1.1076    4.4023   -0.6703 H   0  0  0  0  0  0  0  0  0  0  0  0
    6.4244   -2.4277    1.3100 C   0  0  0  0  0  0  0  0  0  0  0  0
    6.9770   -3.2565    1.7781 H   0  0  0  0  0  0  0  0  0  0  0  0
    6.4048    1.7058   -1.3075 C   0  0  0  0  0  0  0  0  0  0  0  0
    6.9492    2.4869   -1.8591 H   0  0  0  0  0  0  0  0  0  0  0  0
   -2.1815    3.7573    1.3074 C   0  0  0  0  0  0  0  0  0  0  0  0
   -3.1093    3.5580    1.8633 H   0  0  0  0  0  0  0  0  0  0  0  0
    4.2973   -1.3150    0.8600 C   0  0  0  0  0  0  0  0  0  0  0  0
    3.2088   -1.2684    1.0130 H   0  0  0  0  0  0  0  0  0  0  0  0
    2.8049    0.8364   -0.4885 C   0  0  0  0  0  0  0  0  0  0  0  0
    2.2736   -0.1059   -0.2837 H   0  0  0  0  0  0  0  0  0  0  0  0
   -0.5138    5.2894    0.4154 C   0  0  0  0  0  0  0  0  0  0  0  0
   -0.1482    6.3149    0.2631 H   0  0  0  0  0  0  0  0  0  0  0  0
    6.4017   -0.3692   -0.0120 C   0  0  0  0  0  0  0  0  0  0  0  0
    7.1032   -1.4501    0.6000 C   0  0  0  0  0  0  0  0  0  0  0  0
    8.1993   -1.4886    0.5007 H   0  0  0  0  0  0  0  0  0  0  0  0
    0.5512    1.7710   -0.4669 C   0  0  2  0  0  3  0  0  0  0  0  0
   -1.5095    2.6228    0.7490 C   0  0  0  0  0  0  0  0  0  0  0  0
    7.0951    0.6521   -0.7234 C   0  0  0  0  0  0  0  0  0  0  0  0
    8.1917    0.5894   -0.8028 H   0  0  0  0  0  0  0  0  0  0  0  0
   -1.7064    5.0491    1.1403 C   0  0  0  0  0  0  0  0  0  0  0  0
   -2.2686    5.8939    1.5683 H   0  0  0  0  0  0  0  0  0  0  0  0
    5.0134   -2.3518    1.4441 C   0  0  0  0  0  0  0  0  0  0  0  0
    4.4774   -3.1179    2.0248 H   0  0  0  0  0  0  0  0  0  0  0  0
  3  8  1  0  0  0  0
  4  3  1  0  0  0  0
  5 20  2  0  0  0  0
  5 27  1  0  0  0  0
  6  5  1  0  0  0  0
  7 28  1  0  0  0  0
  8 20  1  0  0  0  0
  8  9  2  0  0  0  0
  9 18  1  0  0  0  0
 10  7  2  0  0  0  0
 10 22  1  0  0  0  0
 11 10  1  0  0  0  0
 12 33  1  0  0  0  0
 12 13  1  0  0  0  0
 14  3  2  0  0  0  0
 14 29  1  0  0  0  0
 15 14  1  0  0  0  0
 16 17  1  0  0  0  0
 18 19  1  0  0  0  0
 18 33  2  0  0  0  0
 20 21  1  0  0  0  0
 22 31  2  0  0  0  0
 23 22  1  0  0  0  0
 24  9  1  0  0  0  0
 24 25  1  0  0  0  0
 25 12  2  0  0  0  0
 26 25  1  0  0  0  0
 27  1  1  1  0  0  0
 27  7  1  0  0  0  0
 28  2  1  0  0  0  0
 28 16  2  0  0  0  0
 29 24  2  0  0  0  0
 30 29  1  0  0  0  0
 31 16  1  0  0  0  0
 31 32  1  0  0  0  0
 33 34  1  0  0  0  0
M  CHG  1   2  -1
M  END
