2,3
 OpenBabel05122313063D

 47 49  0  0  0  0  0  0  0  0999 V2000
    0.1322   -1.3768   -0.1623 P   0  0  0  0  0  4  0  0  0  0  0  0
    1.0599    1.4626    0.0947 O   0  5  0  0  0  0  0  0  0  0  0  0
   -1.0337   -0.6789   -0.9243 O   0  0  0  0  0  1  0  0  0  0  0  0
    3.3408    1.1496   -0.5397 C   0  0  0  0  0  0  0  0  0  0  0  0
   -0.1179   -1.2501    1.6431 C   0  0  0  0  0  0  0  0  0  0  0  0
    1.9973    0.6489   -0.3257 C   0  0  0  0  0  0  0  0  0  0  0  0
    0.9648   -1.0911    2.5276 C   0  0  0  0  0  0  0  0  0  0  0  0
    1.9881   -1.0197    2.1276 H   0  0  0  0  0  0  0  0  0  0  0  0
    1.7693   -0.7569   -0.5417 C   0  0  0  0  0  0  0  0  0  0  0  0
    0.6686   -4.1161    0.3107 C   0  0  0  0  0  0  0  0  0  0  0  0
    1.1429   -3.7960    1.2513 H   0  0  0  0  0  0  0  0  0  0  0  0
    0.0922   -3.1592   -0.5479 C   0  0  0  0  0  0  0  0  0  0  0  0
   -1.4360   -1.3084    2.1398 C   0  0  0  0  0  0  0  0  0  0  0  0
   -2.2748   -1.4110    1.4345 H   0  0  0  0  0  0  0  0  0  0  0  0
    3.6565    2.6392   -0.3117 C   0  0  0  0  0  0  0  0  0  0  0  0
    2.8084    3.4938   -1.2835 C   0  0  0  0  0  0  0  0  0  0  0  0
    1.7306    3.2855   -1.1577 H   0  0  0  0  0  0  0  0  0  0  0  0
    3.0852    3.2750   -2.3352 H   0  0  0  0  0  0  0  0  0  0  0  0
    2.9853    4.5746   -1.1003 H   0  0  0  0  0  0  0  0  0  0  0  0
    0.6291   -5.4752   -0.0326 C   0  0  0  0  0  0  0  0  0  0  0  0
    1.0795   -6.2226    0.6381 H   0  0  0  0  0  0  0  0  0  0  0  0
    3.3431    3.0215    1.1547 C   0  0  0  0  0  0  0  0  0  0  0  0
    2.2844    2.8182    1.3974 H   0  0  0  0  0  0  0  0  0  0  0  0
    3.5489    4.0998    1.3211 H   0  0  0  0  0  0  0  0  0  0  0  0
    3.9824    2.4412    1.8517 H   0  0  0  0  0  0  0  0  0  0  0  0
    4.3223    0.2481   -0.9715 C   0  0  0  0  0  0  0  0  0  0  0  0
    5.3413    0.6203   -1.1461 H   0  0  0  0  0  0  0  0  0  0  0  0
    0.7277   -0.9955    3.9078 C   0  0  0  0  0  0  0  0  0  0  0  0
    1.5732   -0.8608    4.5994 H   0  0  0  0  0  0  0  0  0  0  0  0
   -0.5840   -1.0588    4.4033 C   0  0  0  0  0  0  0  0  0  0  0  0
   -0.7670   -0.9796    5.4859 H   0  0  0  0  0  0  0  0  0  0  0  0
   -0.5329   -3.5678   -1.7416 C   0  0  0  0  0  0  0  0  0  0  0  0
   -0.9904   -2.8071   -2.3917 H   0  0  0  0  0  0  0  0  0  0  0  0
    5.1385    2.9649   -0.5721 C   0  0  0  0  0  0  0  0  0  0  0  0
    5.4366    2.7521   -1.6190 H   0  0  0  0  0  0  0  0  0  0  0  0
    5.8145    2.4008    0.1028 H   0  0  0  0  0  0  0  0  0  0  0  0
    5.3131    4.0449   -0.3910 H   0  0  0  0  0  0  0  0  0  0  0  0
   -0.5718   -4.9290   -2.0783 C   0  0  0  0  0  0  0  0  0  0  0  0
   -1.0608   -5.2488   -3.0111 H   0  0  0  0  0  0  0  0  0  0  0  0
    0.0107   -5.8818   -1.2268 C   0  0  0  0  0  0  0  0  0  0  0  0
   -0.0207   -6.9494   -1.4929 H   0  0  0  0  0  0  0  0  0  0  0  0
   -1.6655   -1.2153    3.5187 C   0  0  0  0  0  0  0  0  0  0  0  0
   -2.6944   -1.2579    3.9076 H   0  0  0  0  0  0  0  0  0  0  0  0
    2.7921   -1.6224   -0.9895 C   0  0  0  0  0  0  0  0  0  0  0  0
    2.5737   -2.6875   -1.1583 H   0  0  0  0  0  0  0  0  0  0  0  0
    4.0720   -1.1195   -1.2084 C   0  0  0  0  0  0  0  0  0  0  0  0
    4.8795   -1.7778   -1.5604 H   0  0  0  0  0  0  0  0  0  0  0  0
  1  5  1  0  0  0  0
  3  1  1  0  0  0  0
  4  6  1  0  0  0  0
  4 15  1  0  0  0  0
  5 13  2  0  0  0  0
  5  7  1  0  0  0  0
  6  2  1  0  0  0  0
  7 28  2  0  0  0  0
  8  7  1  0  0  0  0
  9  6  2  0  0  0  0
  9  1  1  0  0  0  0
 10 11  1  0  0  0  0
 12  1  1  0  0  0  0
 12 10  2  0  0  0  0
 13 42  1  0  0  0  0
 14 13  1  0  0  0  0
 15 22  1  0  0  0  0
 16 17  1  0  0  0  0
 16 19  1  0  0  0  0
 16 15  1  0  0  0  0
 18 16  1  0  0  0  0
 20 10  1  0  0  0  0
 20 21  1  0  0  0  0
 22 24  1  0  0  0  0
 22 23  1  0  0  0  0
 22 25  1  0  0  0  0
 26  4  2  0  0  0  0
 27 26  1  0  0  0  0
 28 30  1  0  0  0  0
 28 29  1  0  0  0  0
 30 31  1  0  0  0  0
 32 12  1  0  0  0  0
 33 32  1  0  0  0  0
 34 37  1  0  0  0  0
 34 15  1  0  0  0  0
 34 36  1  0  0  0  0
 35 34  1  0  0  0  0
 38 32  2  0  0  0  0
 38 40  1  0  0  0  0
 39 38  1  0  0  0  0
 40 20  2  0  0  0  0
 41 40  1  0  0  0  0
 42 43  1  0  0  0  0
 42 30  2  0  0  0  0
 44  9  1  0  0  0  0
 45 44  1  0  0  0  0
 46 44  2  0  0  0  0
 46 26  1  0  0  0  0
 47 46  1  0  0  0  0
M  CHG  1   2  -1
M  END
