21,27
 OpenBabel05122313063D

 27 28  0  0  1  0  0  0  0  0999 V2000
    2.7793    0.6620    0.1266 N   0  0  0  0  0  0  0  0  0  0  0  0
    3.7884   -0.2923    0.4118 C   0  0  0  0  0  0  0  0  0  0  0  0
    3.5708   -1.6723    0.2128 C   0  0  0  0  0  0  0  0  0  0  0  0
    2.6071   -2.0208   -0.1757 H   0  0  0  0  0  0  0  0  0  0  0  0
    4.6003   -2.5778    0.5051 C   0  0  0  0  0  0  0  0  0  0  0  0
    4.4274   -3.6528    0.3436 H   0  0  0  0  0  0  0  0  0  0  0  0
    5.8407   -2.1307    0.9861 C   0  0  0  0  0  0  0  0  0  0  0  0
    6.6417   -2.8504    1.2116 H   0  0  0  0  0  0  0  0  0  0  0  0
    6.0510   -0.7544    1.1689 C   0  0  0  0  0  0  0  0  0  0  0  0
    7.0208   -0.3879    1.5386 H   0  0  0  0  0  0  0  0  0  0  0  0
    5.0350    0.1661    0.8856 C   0  0  0  0  0  0  0  0  0  0  0  0
    5.1831    1.2462    1.0116 H   0  0  0  0  0  0  0  0  0  0  0  0
    3.1256    1.9934   -0.0098 N   0  0  0  0  0  0  0  0  0  0  0  0
    2.0175    2.6714   -0.2385 C   0  0  0  0  0  0  0  0  0  0  0  0
    2.1084    4.1451   -0.4701 C   0  0  0  0  0  0  0  0  0  0  0  0
    3.1699    4.4470   -0.4091 H   0  0  0  0  0  0  0  0  0  0  0  0
    1.5261    4.7133    0.2809 H   0  0  0  0  0  0  0  0  0  0  0  0
    1.7091    4.4203   -1.4657 H   0  0  0  0  0  0  0  0  0  0  0  0
    0.8665    1.7796   -0.2703 C   0  0  0  0  0  0  0  0  0  0  0  0
   -0.5210    1.9729   -0.4011 C   0  0  1  0  0  3  0  0  0  0  0  0
   -1.3991    1.0577   -0.4758 O   0  0  0  0  0  1  0  0  0  0  0  0
   -1.1387    3.3910   -0.4126 C   0  0  0  0  0  0  0  0  0  0  0  0
   -2.4789    3.3351   -0.4167 F   0  0  0  0  0  0  0  0  0  0  0  0
   -0.7481    4.0867   -1.5032 F   0  0  0  0  0  0  0  0  0  0  0  0
   -0.7618    4.0890    0.6880 F   0  0  0  0  0  0  0  0  0  0  0  0
    1.4224    0.4655   -0.0204 C   0  0  0  0  0  0  0  0  0  0  0  0
    0.8617   -0.6684    0.1390 O   0  5  0  0  0  0  0  0  0  0  0  0
  1  2  1  0  0  0  0
  2 11  1  0  0  0  0
  3  2  2  0  0  0  0
  3  5  1  0  0  0  0
  4  3  1  0  0  0  0
  5  7  2  0  0  0  0
  6  5  1  0  0  0  0
  7  9  1  0  0  0  0
  7  8  1  0  0  0  0
  9 10  1  0  0  0  0
 11 12  1  0  0  0  0
 11  9  2  0  0  0  0
 13  1  1  0  0  0  0
 14 13  2  0  0  0  0
 15 16  1  0  0  0  0
 15 14  1  0  0  0  0
 15 17  1  0  0  0  0
 18 15  1  0  0  0  0
 19 14  1  0  0  0  0
 19 26  2  0  0  0  0
 20 21  1  1  0  0  0
 20 19  1  0  0  0  0
 22 20  1  0  0  0  0
 22 25  1  0  0  0  0
 23 22  1  0  0  0  0
 24 22  1  0  0  0  0
 26  1  1  0  0  0  0
 26 27  1  0  0  0  0
M  CHG  1  27  -1
M  END
