2,13
 OpenBabel05122313063D

 18 18  0  0  0  0  0  0  0  0999 V2000
    6.7666    0.3024   -2.4111 N   0  0  0  0  0  0  0  0  0  0  0  0
    1.8396   -0.0026   -1.1177 O   0  5  0  0  0  0  0  0  0  0  0  0
    2.4723    0.0004   -0.0001 C   0  0  0  0  0  3  0  0  0  0  0  0
    3.9661    0.0007   -0.0000 C   0  0  0  0  0  0  0  0  0  0  0  0
    4.6541    0.1148   -1.2207 C   0  0  0  0  0  0  0  0  0  0  0  0
    4.0789    0.2093   -2.1523 H   0  0  0  0  0  0  0  0  0  0  0  0
    6.0686    0.1235   -1.2275 C   0  0  0  0  0  0  0  0  0  0  0  0
    6.7577    0.0011    0.0001 C   0  0  0  0  0  0  0  0  0  0  0  0
    7.8600    0.0013    0.0001 H   0  0  0  0  0  0  0  0  0  0  0  0
    6.2642    0.0998   -3.2748 H   0  0  0  0  0  0  0  0  0  0  0  0
    7.7423    0.0061   -2.4260 H   0  0  0  0  0  0  0  0  0  0  0  0
    6.7665   -0.3001    2.4113 N   0  0  0  0  0  0  0  0  0  0  0  0
    1.8396    0.0033    1.1175 O   0  5  0  0  0  0  0  0  0  0  0  0
    4.6541   -0.1132    1.2206 C   0  0  0  0  0  0  0  0  0  0  0  0
    4.0789   -0.2079    2.1522 H   0  0  0  0  0  0  0  0  0  0  0  0
    6.0685   -0.1214    1.2276 C   0  0  0  0  0  0  0  0  0  0  0  0
    6.2640   -0.0977    3.2748 H   0  0  0  0  0  0  0  0  0  0  0  0
    7.7421   -0.0035    2.4262 H   0  0  0  0  0  0  0  0  0  0  0  0
  1  7  1  0  0  0  0
  2  3  1  0  0  0  0
  3  4  1  0  0  0  0
  3 13  1  0  0  0  0
  4 14  1  0  0  0  0
  5  4  2  0  0  0  0
  6  5  1  0  0  0  0
  7  5  1  0  0  0  0
  7  8  2  0  0  0  0
  8  9  1  0  0  0  0
  8 16  1  0  0  0  0
 10  1  1  0  0  0  0
 11  1  1  0  0  0  0
 12 18  1  0  0  0  0
 12 17  1  0  0  0  0
 14 16  2  0  0  0  0
 14 15  1  0  0  0  0
 16 12  1  0  0  0  0
M  CHG  2   2  -1  13  -1
M  END
