1,37
 OpenBabel05122313063D

 37 38  0  0  0  0  0  0  0  0999 V2000
    1.3392   -1.4728    0.5578 O   0  5  0  0  0  0  0  0  0  0  0  0
    2.6390   -1.3922    0.2451 C   0  0  0  0  0  0  0  0  0  0  0  0
    3.5082   -2.4942    0.2253 C   0  0  0  0  0  0  0  0  0  0  0  0
    3.1116   -3.4833    0.4939 H   0  0  0  0  0  0  0  0  0  0  0  0
    4.8491   -2.3074   -0.1527 C   0  0  0  0  0  0  0  0  0  0  0  0
    5.5301   -3.1709   -0.1759 H   0  0  0  0  0  0  0  0  0  0  0  0
    5.3209   -1.0358   -0.5115 C   0  0  0  0  0  0  0  0  0  0  0  0
    6.3685   -0.9020   -0.8184 H   0  0  0  0  0  0  0  0  0  0  0  0
    4.4627    0.0822   -0.4879 C   0  0  0  0  0  0  0  0  0  0  0  0
    4.8359    1.0758   -0.7729 H   0  0  0  0  0  0  0  0  0  0  0  0
    3.1358   -0.1066   -0.0968 C   0  0  0  0  0  0  0  0  0  0  0  0
    2.1658    0.8556    0.0343 O   0  0  0  0  0  0  0  0  0  0  0  0
    2.3455    2.1597   -0.5055 C   0  0  0  0  0  0  0  0  0  0  0  0
    2.3308    2.1016   -1.6162 H   0  0  0  0  0  0  0  0  0  0  0  0
    3.3088    2.5970   -0.1660 H   0  0  0  0  0  0  0  0  0  0  0  0
    1.1947    2.9907    0.0204 C   0  0  0  0  0  0  0  0  0  0  0  0
    1.2413    3.0506    1.1320 H   0  0  0  0  0  0  0  0  0  0  0  0
    1.2467    4.0190   -0.4073 H   0  0  0  0  0  0  0  0  0  0  0  0
    0.0001    2.3402   -0.3822 O   0  0  0  0  0  0  0  0  0  0  0  0
   -1.1946    2.9907    0.0204 C   0  0  0  0  0  0  0  0  0  0  0  0
   -1.2466    4.0189   -0.4073 H   0  0  0  0  0  0  0  0  0  0  0  0
   -1.2412    3.0506    1.1320 H   0  0  0  0  0  0  0  0  0  0  0  0
   -2.3454    2.1597   -0.5055 C   0  0  0  0  0  0  0  0  0  0  0  0
   -3.3087    2.5970   -0.1660 H   0  0  0  0  0  0  0  0  0  0  0  0
   -2.3308    2.1016   -1.6162 H   0  0  0  0  0  0  0  0  0  0  0  0
   -2.1658    0.8556    0.0343 O   0  0  0  0  0  0  0  0  0  0  0  0
   -3.1358   -0.1066   -0.0968 C   0  0  0  0  0  0  0  0  0  0  0  0
   -4.4626    0.0823   -0.4879 C   0  0  0  0  0  0  0  0  0  0  0  0
   -4.8358    1.0759   -0.7729 H   0  0  0  0  0  0  0  0  0  0  0  0
   -5.3209   -1.0357   -0.5115 C   0  0  0  0  0  0  0  0  0  0  0  0
   -6.3685   -0.9018   -0.8184 H   0  0  0  0  0  0  0  0  0  0  0  0
   -4.8491   -2.3074   -0.1527 C   0  0  0  0  0  0  0  0  0  0  0  0
   -5.5302   -3.1708   -0.1758 H   0  0  0  0  0  0  0  0  0  0  0  0
   -3.5083   -2.4941    0.2252 C   0  0  0  0  0  0  0  0  0  0  0  0
   -3.1117   -3.4833    0.4938 H   0  0  0  0  0  0  0  0  0  0  0  0
   -2.6390   -1.3922    0.2450 C   0  0  0  0  0  0  0  0  0  0  0  0
   -1.3392   -1.4729    0.5577 O   0  5  0  0  0  0  0  0  0  0  0  0
  2  1  1  0  0  0  0
  3  2  1  0  0  0  0
  3  4  1  0  0  0  0
  5  3  2  0  0  0  0
  6  5  1  0  0  0  0
  7  9  2  0  0  0  0
  7  5  1  0  0  0  0
  8  7  1  0  0  0  0
  9 11  1  0  0  0  0
 10  9  1  0  0  0  0
 11 12  1  0  0  0  0
 11  2  2  0  0  0  0
 13 15  1  0  0  0  0
 13 16  1  0  0  0  0
 13 12  1  0  0  0  0
 14 13  1  0  0  0  0
 16 17  1  0  0  0  0
 18 16  1  0  0  0  0
 19 16  1  0  0  0  0
 19 20  1  0  0  0  0
 20 22  1  0  0  0  0
 21 20  1  0  0  0  0
 23 24  1  0  0  0  0
 23 20  1  0  0  0  0
 23 26  1  0  0  0  0
 25 23  1  0  0  0  0
 27 26  1  0  0  0  0
 27 36  1  0  0  0  0
 28 27  2  0  0  0  0
 29 28  1  0  0  0  0
 30 28  1  0  0  0  0
 30 32  2  0  0  0  0
 31 30  1  0  0  0  0
 32 34  1  0  0  0  0
 33 32  1  0  0  0  0
 34 36  2  0  0  0  0
 34 35  1  0  0  0  0
 36 37  1  0  0  0  0
M  CHG  2   1  -1  37  -1
M  END
