1,6
 OpenBabel05122313063D

 30 31  0  0  1  0  0  0  0  0999 V2000
   -1.1136    0.2238    1.9587 O   0  5  0  0  0  0  0  0  0  0  0  0
   -9.3038   -0.7617   -1.3899 O   0  0  0  0  0  0  0  0  0  0  0  0
   -4.8813    1.1937    1.4839 C   0  0  0  0  0  0  0  0  0  0  0  0
   -4.9433    1.2154    2.5841 H   0  0  0  0  0  0  0  0  0  0  0  0
   -5.9972    0.7036    0.7491 C   0  0  0  0  0  0  0  0  0  0  0  0
   -0.6099    1.5864    0.2782 O   0  5  0  0  0  0  0  0  0  0  0  0
   -2.2717    3.6484    1.3967 C   0  0  0  0  0  0  0  0  0  0  0  0
   -1.4271    4.0118    2.0162 H   0  0  0  0  0  0  0  0  0  0  0  0
   -3.1707    4.2473    1.6424 H   0  0  0  0  0  0  0  0  0  0  0  0
   -2.0084    3.8236    0.3358 H   0  0  0  0  0  0  0  0  0  0  0  0
   -1.3298    1.2918    1.2831 C   0  0  0  0  0  3  0  0  0  0  0  0
   -7.1914    0.2469    1.3856 C   0  0  0  0  0  0  0  0  0  0  0  0
   -7.2518    0.2775    2.4848 H   0  0  0  0  0  0  0  0  0  0  0  0
   -9.3061   -0.8376   -2.8017 C   0  0  0  0  0  0  0  0  0  0  0  0
   -9.1843    0.1651   -3.2706 H   0  0  0  0  0  0  0  0  0  0  0  0
  -10.2875   -1.2554   -3.0937 H   0  0  0  0  0  0  0  0  0  0  0  0
   -8.4998   -1.5049   -3.1818 H   0  0  0  0  0  0  0  0  0  0  0  0
   -2.5345    2.1573    1.6471 C   0  0  2  0  0  0  0  0  0  0  0  0
   -2.7432    1.9784    2.7203 H   0  0  0  0  0  0  0  0  0  0  0  0
   -7.0414    0.1632   -1.4344 C   0  0  0  0  0  0  0  0  0  0  0  0
   -6.9636    0.1382   -2.5299 H   0  0  0  0  0  0  0  0  0  0  0  0
   -3.6641    1.5833   -0.5759 C   0  0  0  0  0  0  0  0  0  0  0  0
   -2.7379    1.9043   -1.0767 H   0  0  0  0  0  0  0  0  0  0  0  0
   -5.9297    0.6571   -0.6897 C   0  0  0  0  0  0  0  0  0  0  0  0
   -8.1901   -0.2733   -0.7772 C   0  0  0  0  0  0  0  0  0  0  0  0
   -4.7330    1.1091   -1.3205 C   0  0  0  0  0  0  0  0  0  0  0  0
   -4.6659    1.0718   -2.4194 H   0  0  0  0  0  0  0  0  0  0  0  0
   -8.2587   -0.2281    0.6492 C   0  0  0  0  0  0  0  0  0  0  0  0
   -9.1821   -0.5824    1.1297 H   0  0  0  0  0  0  0  0  0  0  0  0
   -3.7249    1.6341    0.8494 C   0  0  0  0  0  0  0  0  0  0  0  0
  2 25  1  0  0  0  0
  3  4  1  0  0  0  0
  5 12  1  0  0  0  0
  5  3  2  0  0  0  0
  6 11  1  0  0  0  0
  7  9  1  0  0  0  0
  7 18  1  0  0  0  0
  7  8  1  0  0  0  0
 10  7  1  0  0  0  0
 11 18  1  0  0  0  0
 11  1  1  0  0  0  0
 12 13  1  0  0  0  0
 14  2  1  0  0  0  0
 15 14  1  0  0  0  0
 16 14  1  0  0  0  0
 17 14  1  0  0  0  0
 18 19  1  1  0  0  0
 20 25  2  0  0  0  0
 20 24  1  0  0  0  0
 21 20  1  0  0  0  0
 22 30  2  0  0  0  0
 23 22  1  0  0  0  0
 24  5  1  0  0  0  0
 25 28  1  0  0  0  0
 26 24  2  0  0  0  0
 26 22  1  0  0  0  0
 27 26  1  0  0  0  0
 28 29  1  0  0  0  0
 28 12  2  0  0  0  0
 30  3  1  0  0  0  0
 30 18  1  0  0  0  0
M  CHG  2   1  -1   6  -1
M  END
