1,2
 OpenBabel05122313063D

 19 18  0  0  0  0  0  0  0  0999 V2000
    1.7860    1.1713   -0.2011 O   0  5  0  0  0  0  0  0  0  0  0  0
    1.6764   -0.8540   -1.0996 O   0  5  0  0  0  0  0  0  0  0  0  0
    2.3466    0.2004   -0.8158 C   0  0  0  0  0  3  0  0  0  0  0  0
    3.8191    0.2611   -1.1508 C   0  0  0  0  0  0  0  0  0  0  0  0
    4.0520    1.2597   -1.5737 H   0  0  0  0  0  0  0  0  0  0  0  0
    4.0250   -0.5064   -1.9219 H   0  0  0  0  0  0  0  0  0  0  0  0
    4.7409    0.0102    0.0840 C   0  0  0  0  0  0  0  0  0  0  0  0
    6.1797   -0.1535   -0.4383 C   0  0  0  0  0  0  0  0  0  0  0  0
    6.8891   -0.2970    0.4027 H   0  0  0  0  0  0  0  0  0  0  0  0
    6.5042    0.7432   -1.0054 H   0  0  0  0  0  0  0  0  0  0  0  0
    6.2672   -1.0316   -1.1110 H   0  0  0  0  0  0  0  0  0  0  0  0
    4.3141   -1.2751    0.8179 C   0  0  0  0  0  0  0  0  0  0  0  0
    5.0318   -1.5149    1.6289 H   0  0  0  0  0  0  0  0  0  0  0  0
    4.2776   -2.1418    0.1263 H   0  0  0  0  0  0  0  0  0  0  0  0
    3.3142   -1.1676    1.2862 H   0  0  0  0  0  0  0  0  0  0  0  0
    4.6804    1.2042    1.0527 C   0  0  0  0  0  0  0  0  0  0  0  0
    3.6445    1.3867    1.3976 H   0  0  0  0  0  0  0  0  0  0  0  0
    5.0387    2.1324    0.5615 H   0  0  0  0  0  0  0  0  0  0  0  0
    5.3219    1.0186    1.9387 H   0  0  0  0  0  0  0  0  0  0  0  0
  2  3  1  0  0  0  0
  3  1  1  0  0  0  0
  4  3  1  0  0  0  0
  4  7  1  0  0  0  0
  5  4  1  0  0  0  0
  6  4  1  0  0  0  0
  7 12  1  0  0  0  0
  7 16  1  0  0  0  0
  8  7  1  0  0  0  0
  8  9  1  0  0  0  0
 10  8  1  0  0  0  0
 11  8  1  0  0  0  0
 12 15  1  0  0  0  0
 12 13  1  0  0  0  0
 14 12  1  0  0  0  0
 16 17  1  0  0  0  0
 16 19  1  0  0  0  0
 18 16  1  0  0  0  0
M  CHG  2   1  -1   2  -1
M  END
