2,3
 OpenBabel05122313063D

 30 31  0  0  1  0  0  0  0  0999 V2000
   -7.8461    0.4512   -1.2569 O   0  0  0  0  0  0  0  0  0  0  0  0
    1.6286   -0.8768    1.7158 O   0  5  0  0  0  0  0  0  0  0  0  0
    0.5811    0.3766    0.2708 O   0  5  0  0  0  0  0  0  0  0  0  0
   -4.2643    0.4421    0.9399 C   0  0  0  0  0  0  0  0  0  0  0  0
   -4.3709   -0.4090   -0.2176 C   0  0  0  0  0  0  0  0  0  0  0  0
   -3.0540    0.4454    1.6887 C   0  0  0  0  0  0  0  0  0  0  0  0
   -2.9860    1.1012    2.5729 H   0  0  0  0  0  0  0  0  0  0  0  0
   -1.9722   -0.3515    1.3326 C   0  0  0  0  0  0  0  0  0  0  0  0
   -6.6520    0.3866   -0.6036 C   0  0  0  0  0  0  0  0  0  0  0  0
   -3.2465   -1.2142   -0.5668 C   0  0  0  0  0  0  0  0  0  0  0  0
   -3.3118   -1.8595   -1.4570 H   0  0  0  0  0  0  0  0  0  0  0  0
   -5.3852    1.2543    1.2898 C   0  0  0  0  0  0  0  0  0  0  0  0
   -5.3123    1.9081    2.1732 H   0  0  0  0  0  0  0  0  0  0  0  0
   -6.5476    1.2309    0.5439 C   0  0  0  0  0  0  0  0  0  0  0  0
   -7.4167    1.8518    0.8052 H   0  0  0  0  0  0  0  0  0  0  0  0
    0.5443   -0.2943    1.3611 C   0  0  0  0  0  3  0  0  0  0  0  0
   -2.0821   -1.1899    0.1831 C   0  0  0  0  0  0  0  0  0  0  0  0
   -1.2185   -1.8004   -0.1269 H   0  0  0  0  0  0  0  0  0  0  0  0
   -0.7206   -0.3934    2.1939 C   0  0  2  0  0  0  0  0  0  0  0  0
   -0.7194    0.5200    2.8317 H   0  0  0  0  0  0  0  0  0  0  0  0
   -5.5785   -0.4196   -0.9767 C   0  0  0  0  0  0  0  0  0  0  0  0
   -5.6334   -1.0767   -1.8553 H   0  0  0  0  0  0  0  0  0  0  0  0
   -0.6847   -1.6289    3.1104 C   0  0  0  0  0  0  0  0  0  0  0  0
   -1.5769   -1.6405    3.7654 H   0  0  0  0  0  0  0  0  0  0  0  0
   -0.6839   -2.5564    2.5049 H   0  0  0  0  0  0  0  0  0  0  0  0
    0.2281   -1.6317    3.7365 H   0  0  0  0  0  0  0  0  0  0  0  0
   -8.0199   -0.3585   -2.4025 C   0  0  0  0  0  0  0  0  0  0  0  0
   -9.0412   -0.1602   -2.7775 H   0  0  0  0  0  0  0  0  0  0  0  0
   -7.2852   -0.1095   -3.2015 H   0  0  0  0  0  0  0  0  0  0  0  0
   -7.9252   -1.4418   -2.1628 H   0  0  0  0  0  0  0  0  0  0  0  0
  1  9  1  0  0  0  0
  3 16  1  0  0  0  0
  4 12  1  0  0  0  0
  4  6  2  0  0  0  0
  5  4  1  0  0  0  0
  6  7  1  0  0  0  0
  8  6  1  0  0  0  0
  8 19  1  0  0  0  0
  9 14  1  0  0  0  0
 10  5  2  0  0  0  0
 10 17  1  0  0  0  0
 11 10  1  0  0  0  0
 12 13  1  0  0  0  0
 14 15  1  0  0  0  0
 14 12  2  0  0  0  0
 16  2  1  0  0  0  0
 16 19  1  0  0  0  0
 17  8  2  0  0  0  0
 18 17  1  0  0  0  0
 19 20  1  1  0  0  0
 19 23  1  0  0  0  0
 21  9  2  0  0  0  0
 21  5  1  0  0  0  0
 22 21  1  0  0  0  0
 23 26  1  0  0  0  0
 23 24  1  0  0  0  0
 25 23  1  0  0  0  0
 27 30  1  0  0  0  0
 27  1  1  0  0  0  0
 28 27  1  0  0  0  0
 29 27  1  0  0  0  0
M  CHG  2   2  -1   3  -1
M  END
