3,4
 OpenBabel05122313063D

 18 18  0  0  0  0  0  0  0  0999 V2000
    1.7446   -5.1825   -1.8545 Cl  0  0  0  0  0  0  0  0  0  0  0  0
   -1.5180   -4.6630    2.4573 Cl  0  0  0  0  0  0  0  0  0  0  0  0
    2.2994   -0.6375   -1.5169 O   0  5  0  0  0  0  0  0  0  0  0  0
    0.5241    0.6995   -1.5781 O   0  5  0  0  0  0  0  0  0  0  0  0
    0.6842   -2.6128   -2.6487 O   0  0  0  0  0  0  0  0  0  0  0  0
    1.1711   -0.3235   -1.9886 C   0  0  0  0  0  3  0  0  0  0  0  0
    0.5216   -1.2521   -3.0198 C   0  0  0  0  0  0  0  0  0  0  0  0
   -0.5476   -0.9812   -3.1570 H   0  0  0  0  0  0  0  0  0  0  0  0
    1.0398   -1.1468   -3.9933 H   0  0  0  0  0  0  0  0  0  0  0  0
    0.1465   -3.0095   -1.4652 C   0  0  0  0  0  0  0  0  0  0  0  0
    0.5546   -4.2738   -0.9692 C   0  0  0  0  0  0  0  0  0  0  0  0
    0.0363   -4.7856    0.2257 C   0  0  0  0  0  0  0  0  0  0  0  0
    0.3720   -5.7649    0.5899 H   0  0  0  0  0  0  0  0  0  0  0  0
   -0.8960   -4.0266    0.9495 C   0  0  0  0  0  0  0  0  0  0  0  0
   -1.3052   -2.7686    0.4922 C   0  0  0  0  0  0  0  0  0  0  0  0
   -2.0257   -2.1714    1.0671 H   0  0  0  0  0  0  0  0  0  0  0  0
   -0.7795   -2.2649   -0.7065 C   0  0  0  0  0  0  0  0  0  0  0  0
   -1.0939   -1.2642   -1.0305 H   0  0  0  0  0  0  0  0  0  0  0  0
  1 11  1  0  0  0  0
  5 10  1  0  0  0  0
  6  4  1  0  0  0  0
  6  3  1  0  0  0  0
  7  5  1  0  0  0  0
  7  6  1  0  0  0  0
  8  7  1  0  0  0  0
  9  7  1  0  0  0  0
 10 11  2  0  0  0  0
 10 17  1  0  0  0  0
 11 12  1  0  0  0  0
 12 13  1  0  0  0  0
 12 14  2  0  0  0  0
 14  2  1  0  0  0  0
 15 14  1  0  0  0  0
 15 16  1  0  0  0  0
 17 15  2  0  0  0  0
 18 17  1  0  0  0  0
M  CHG  2   3  -1   4  -1
M  END
