1,2
 OpenBabel05122313063D

 13 12  0  0  0  0  0  0  0  0999 V2000
    2.1221    1.1596    0.7615 O   0  5  0  0  0  0  0  0  0  0  0  0
    1.1623    1.3884   -1.1930 O   0  5  0  0  0  0  0  0  0  0  0  0
    2.7003    3.0588   -0.5910 N   0  0  0  0  0  0  0  0  0  0  0  0
    2.3681    1.6777   -0.5754 C   0  0  0  0  0  0  0  0  0  0  0  0
    3.2234    1.1076   -1.0212 H   0  0  0  0  0  0  0  0  0  0  0  0
    1.6760    3.9650   -0.0996 C   0  0  0  0  0  0  0  0  0  0  0  0
    1.8841    4.9900   -0.4697 H   0  0  0  0  0  0  0  0  0  0  0  0
    1.6186    4.0032    1.0153 H   0  0  0  0  0  0  0  0  0  0  0  0
    0.6931    3.6445   -0.4939 H   0  0  0  0  0  0  0  0  0  0  0  0
    4.0507    3.3817   -0.1764 C   0  0  0  0  0  0  0  0  0  0  0  0
    4.1996    3.3436    0.9313 H   0  0  0  0  0  0  0  0  0  0  0  0
    4.3139    4.4044   -0.5185 H   0  0  0  0  0  0  0  0  0  0  0  0
    4.7659    2.6717   -0.6400 H   0  0  0  0  0  0  0  0  0  0  0  0
  2  4  1  0  0  0  0
  3  4  1  0  0  0  0
  3 10  1  0  0  0  0
  3  6  1  0  0  0  0
  4  1  1  0  0  0  0
  5  4  1  0  0  0  0
  6  8  1  0  0  0  0
  7  6  1  0  0  0  0
  9  6  1  0  0  0  0
 10 11  1  0  0  0  0
 12 10  1  0  0  0  0
 13 10  1  0  0  0  0
M  CHG  2   1  -1   2  -1
M  END
