1,2
 OpenBabel05122313063D

 30 29  0  0  1  0  0  0  0  0999 V2000
    1.1802    1.3992   -0.2433 O   0  5  0  0  0  0  0  0  0  0  0  0
    1.2485   -1.3006   -0.3988 O   0  0  0  0  0  1  0  0  0  0  0  0
    3.2242   -2.4187   -0.9915 C   0  0  0  0  0  0  0  0  0  0  0  0
    2.4815   -1.1267   -0.7164 C   0  0  1  0  0  3  0  0  0  0  0  0
    3.1390    0.1274   -0.8321 C   0  0  0  0  0  0  0  0  0  0  0  0
    2.4195    1.3251   -0.5751 C   0  0  0  0  0  0  0  0  0  0  0  0
    3.0954    2.6759   -0.6974 C   0  0  0  0  0  0  0  0  0  0  0  0
    4.6147    0.1845   -1.1788 C   0  0  0  0  0  0  0  0  0  0  0  0
    5.5549    0.1377    0.0394 C   0  0  0  0  0  0  0  0  0  0  0  0
    7.0383    0.1928   -0.3309 C   0  0  0  0  0  0  0  0  0  0  0  0
    7.9773    0.1414    0.8860 C   0  0  0  0  0  0  0  0  0  0  0  0
    9.4308    0.2362    0.5191 C   0  0  0  0  0  0  0  0  0  0  0  0
    9.7321    1.1585   -0.0137 H   0  0  0  0  0  0  0  0  0  0  0  0
   10.3616   -0.7020    0.7641 C   0  0  0  0  0  0  0  0  0  0  0  0
   10.1067   -1.6390    1.2882 H   0  0  0  0  0  0  0  0  0  0  0  0
    2.5565   -3.2690   -0.7655 H   0  0  0  0  0  0  0  0  0  0  0  0
    4.1448   -2.5018   -0.3803 H   0  0  0  0  0  0  0  0  0  0  0  0
    3.5318   -2.4779   -2.0563 H   0  0  0  0  0  0  0  0  0  0  0  0
    2.3859    3.4599   -0.3782 H   0  0  0  0  0  0  0  0  0  0  0  0
    4.0115    2.7346   -0.0765 H   0  0  0  0  0  0  0  0  0  0  0  0
    3.3981    2.8723   -1.7471 H   0  0  0  0  0  0  0  0  0  0  0  0
    4.8337    1.1035   -1.7613 H   0  0  0  0  0  0  0  0  0  0  0  0
    4.8779   -0.6494   -1.8623 H   0  0  0  0  0  0  0  0  0  0  0  0
    5.3097    0.9780    0.7264 H   0  0  0  0  0  0  0  0  0  0  0  0
    5.3503   -0.7853    0.6260 H   0  0  0  0  0  0  0  0  0  0  0  0
    7.2848   -0.6489   -1.0155 H   0  0  0  0  0  0  0  0  0  0  0  0
    7.2391    1.1201   -0.9139 H   0  0  0  0  0  0  0  0  0  0  0  0
    7.7146    0.9838    1.5672 H   0  0  0  0  0  0  0  0  0  0  0  0
    7.7943   -0.7916    1.4620 H   0  0  0  0  0  0  0  0  0  0  0  0
   11.4109   -0.5703    0.4570 H   0  0  0  0  0  0  0  0  0  0  0  0
  3 16  1  0  0  0  0
  3  4  1  0  0  0  0
  3 17  1  0  0  0  0
  4  2  1  6  0  0  0
  5  4  1  0  0  0  0
  5  6  2  0  0  0  0
  6  1  1  0  0  0  0
  7  6  1  0  0  0  0
  7 19  1  0  0  0  0
  7 20  1  0  0  0  0
  8  5  1  0  0  0  0
  8  9  1  0  0  0  0
  9 25  1  0  0  0  0
  9 24  1  0  0  0  0
 10  9  1  0  0  0  0
 10 11  1  0  0  0  0
 11 29  1  0  0  0  0
 11 28  1  0  0  0  0
 12 14  2  0  0  0  0
 12 11  1  0  0  0  0
 13 12  1  0  0  0  0
 14 15  1  0  0  0  0
 18  3  1  0  0  0  0
 21  7  1  0  0  0  0
 22  8  1  0  0  0  0
 23  8  1  0  0  0  0
 26 10  1  0  0  0  0
 27 10  1  0  0  0  0
 30 14  1  0  0  0  0
M  CHG  1   1  -1
M  END
