1,2
 OpenBabel05122313063D

 41 44  0  0  1  0  0  0  0  0999 V2000
   -2.8046    1.3830   -0.0129 O   0  5  0  0  0  0  0  0  0  0  0  0
   -0.5292   -0.0583   -0.0974 O   0  5  0  0  0  0  0  0  0  0  0  0
    0.7856    3.3273   -0.1253 O   0  0  0  0  0  0  0  0  0  0  0  0
    5.9684   -0.2935    0.0429 O   0  0  0  0  0  0  0  0  0  0  0  0
   -1.6867    2.0114   -0.0634 C   0  0  0  0  0  0  0  0  0  0  0  0
   -1.6240    3.4536   -0.0721 C   0  0  0  0  0  0  0  0  0  0  0  0
   -2.7751    4.2821   -0.0479 C   0  0  0  0  0  0  0  0  0  0  0  0
   -3.7589    3.7939   -0.0108 H   0  0  0  0  0  0  0  0  0  0  0  0
   -2.6442    5.6664   -0.0714 C   0  0  0  0  0  0  0  0  0  0  0  0
   -3.5391    6.3057   -0.0532 H   0  0  0  0  0  0  0  0  0  0  0  0
   -1.3582    6.2588   -0.1195 C   0  0  0  0  0  0  0  0  0  0  0  0
   -1.2603    7.3545   -0.1388 H   0  0  0  0  0  0  0  0  0  0  0  0
   -0.2104    5.4680   -0.1412 C   0  0  0  0  0  0  0  0  0  0  0  0
    0.7978    5.9043   -0.1756 H   0  0  0  0  0  0  0  0  0  0  0  0
   -0.3468    4.0659   -0.1153 C   0  0  1  0  0  3  0  0  0  0  0  0
    0.7776    1.9567   -0.1015 C   0  0  0  0  0  0  0  0  0  0  0  0
   -0.4481    1.2556   -0.1005 C   0  0  0  0  0  0  0  0  0  0  0  0
    2.1175    1.3848   -0.0743 C   0  0  0  0  0  0  0  0  0  0  0  0
    2.3389   -0.0170    0.0378 C   0  0  0  0  0  0  0  0  0  0  0  0
    1.4665   -0.6777    0.0990 H   0  0  0  0  0  0  0  0  0  0  0  0
    3.6286   -0.5387    0.0753 C   0  0  0  0  0  0  0  0  0  0  0  0
    3.7983   -1.6214    0.1663 H   0  0  0  0  0  0  0  0  0  0  0  0
    4.7531    0.3122   -0.0010 C   0  0  0  0  0  0  0  0  0  0  0  0
    4.5551    1.7059   -0.1116 C   0  0  0  0  0  0  0  0  0  0  0  0
    5.4066    2.3963   -0.1708 H   0  0  0  0  0  0  0  0  0  0  0  0
    3.2573    2.2244   -0.1455 C   0  0  0  0  0  0  0  0  0  0  0  0
    3.1182    3.3103   -0.2302 H   0  0  0  0  0  0  0  0  0  0  0  0
    7.1377    0.5059   -0.0434 C   0  0  0  0  0  0  0  0  0  0  0  0
    7.1680    1.2416    0.7942 H   0  0  0  0  0  0  0  0  0  0  0  0
    7.1226    1.0971   -0.9911 H   0  0  0  0  0  0  0  0  0  0  0  0
    8.3667   -0.3715   -0.0058 C   0  0  0  0  0  0  0  0  0  0  0  0
    8.2925   -1.7545   -0.2491 C   0  0  0  0  0  0  0  0  0  0  0  0
    7.3109   -2.2114   -0.4364 H   0  0  0  0  0  0  0  0  0  0  0  0
    9.4577   -2.5371   -0.2417 C   0  0  0  0  0  0  0  0  0  0  0  0
    9.3869   -3.6195   -0.4293 H   0  0  0  0  0  0  0  0  0  0  0  0
   10.7068   -1.9475    0.0039 C   0  0  0  0  0  0  0  0  0  0  0  0
   11.6191   -2.5631    0.0095 H   0  0  0  0  0  0  0  0  0  0  0  0
   10.7859   -0.5667    0.2484 C   0  0  0  0  0  0  0  0  0  0  0  0
   11.7604   -0.0958    0.4486 H   0  0  0  0  0  0  0  0  0  0  0  0
    9.6222    0.2148    0.2471 C   0  0  0  0  0  0  0  0  0  0  0  0
    9.6895    1.2964    0.4485 H   0  0  0  0  0  0  0  0  0  0  0  0
  3 15  1  0  0  0  0
  3 16  1  0  0  0  0
  5  1  1  0  0  0  0
  6  5  2  0  0  0  0
  6  7  1  0  0  0  0
  7  8  1  0  0  0  0
  9 10  1  0  0  0  0
  9  7  2  0  0  0  0
 11  9  1  0  0  0  0
 12 11  1  0  0  0  0
 13 11  2  0  0  0  0
 14 13  1  0  0  0  0
 15 13  1  1  0  0  0
 15  6  1  0  0  0  0
 16 17  2  0  0  0  0
 16 18  1  0  0  0  0
 17  2  1  0  0  0  0
 17  5  1  0  0  0  0
 18 19  1  0  0  0  0
 19 21  2  0  0  0  0
 19 20  1  0  0  0  0
 21 22  1  0  0  0  0
 23  4  1  0  0  0  0
 23 21  1  0  0  0  0
 24 23  2  0  0  0  0
 25 24  1  0  0  0  0
 26 24  1  0  0  0  0
 26 18  2  0  0  0  0
 27 26  1  0  0  0  0
 28 31  1  0  0  0  0
 28  4  1  0  0  0  0
 28 29  1  0  0  0  0
 30 28  1  0  0  0  0
 31 40  1  0  0  0  0
 32 34  1  0  0  0  0
 32 31  2  0  0  0  0
 33 32  1  0  0  0  0
 34 36  2  0  0  0  0
 35 34  1  0  0  0  0
 36 37  1  0  0  0  0
 36 38  1  0  0  0  0
 38 39  1  0  0  0  0
 40 38  2  0  0  0  0
 40 41  1  0  0  0  0
M  CHG  2   1  -1   2  -1
M  END
