1,2
 OpenBabel05122313063D

 18 17  0  0  1  0  0  0  0  0999 V2000
   -0.7140   -2.0195    0.4548 O   0  0  0  0  0  1  0  0  0  0  0  0
    0.6970   -0.3880   -1.4862 O   0  5  0  0  0  0  0  0  0  0  0  0
    2.6455   -1.3324   -2.1445 O   0  0  0  0  0  0  0  0  0  0  0  0
    0.2505   -4.1194    0.9820 C   0  0  0  0  0  0  0  0  0  0  0  0
   -0.7181   -4.6310    0.8066 H   0  0  0  0  0  0  0  0  0  0  0  0
    0.3060   -3.9083    2.0705 H   0  0  0  0  0  0  0  0  0  0  0  0
    1.0778   -4.7989    0.7046 H   0  0  0  0  0  0  0  0  0  0  0  0
    0.2733   -2.8072    0.2205 C   0  0  2  0  0  3  0  0  0  0  0  0
    1.3466   -2.5551   -0.6509 C   0  0  0  0  0  0  0  0  0  0  0  0
    1.4941   -1.3617   -1.4181 C   0  0  0  0  0  0  0  0  0  0  0  0
    2.9419   -0.1216   -2.8635 C   0  0  0  0  0  0  0  0  0  0  0  0
    2.0102    0.2791   -3.3125 H   0  0  0  0  0  0  0  0  0  0  0  0
    3.6232   -0.4426   -3.6768 H   0  0  0  0  0  0  0  0  0  0  0  0
    3.5992    0.9184   -1.9680 C   0  0  0  0  0  0  0  0  0  0  0  0
    3.9064    1.7989   -2.5687 H   0  0  0  0  0  0  0  0  0  0  0  0
    4.5024    0.5018   -1.4784 H   0  0  0  0  0  0  0  0  0  0  0  0
    2.8989    1.2686   -1.1838 H   0  0  0  0  0  0  0  0  0  0  0  0
    2.1456   -3.3007   -0.7487 H   0  0  0  0  0  0  0  0  0  0  0  0
  2 10  1  0  0  0  0
  3 10  1  0  0  0  0
  4  6  1  0  0  0  0
  5  4  1  0  0  0  0
  7  4  1  0  0  0  0
  8  1  1  1  0  0  0
  8  4  1  0  0  0  0
  9  8  1  0  0  0  0
 10  9  2  0  0  0  0
 11  3  1  0  0  0  0
 11 14  1  0  0  0  0
 12 11  1  0  0  0  0
 13 11  1  0  0  0  0
 14 16  1  0  0  0  0
 14 17  1  0  0  0  0
 15 14  1  0  0  0  0
 18  9  1  0  0  0  0
M  CHG  1   2  -1
M  END
