1,2
 OpenBabel05122313063D

 31 32  0  0  0  0  0  0  0  0999 V2000
   -0.4867   -0.7835   -0.5268 O   0  5  0  0  0  0  0  0  0  0  0  0
    0.0787    1.5254    0.5910 O   0  5  0  0  0  0  0  0  0  0  0  0
   -1.5826   -1.5349   -0.2876 C   0  0  0  0  0  0  0  0  0  0  0  0
   -1.7565   -2.7172   -1.0502 C   0  0  0  0  0  0  0  0  0  0  0  0
   -2.9115   -3.4840   -0.8183 C   0  0  0  0  0  0  0  0  0  0  0  0
   -3.0628   -4.4059   -1.4017 H   0  0  0  0  0  0  0  0  0  0  0  0
   -3.8597   -3.0944    0.1393 C   0  0  0  0  0  0  0  0  0  0  0  0
   -4.7575   -3.7080    0.3069 H   0  0  0  0  0  0  0  0  0  0  0  0
   -3.6605   -1.9235    0.8861 C   0  0  0  0  0  0  0  0  0  0  0  0
   -4.3995   -1.6188    1.6439 H   0  0  0  0  0  0  0  0  0  0  0  0
   -2.5225   -1.1233    0.6897 C   0  0  0  0  0  0  0  0  0  0  0  0
   -2.2885    0.1431    1.4886 C   0  0  0  0  0  0  0  0  0  0  0  0
   -3.0715    0.2071    2.2699 H   0  0  0  0  0  0  0  0  0  0  0  0
   -1.3157    0.0673    2.0163 H   0  0  0  0  0  0  0  0  0  0  0  0
   -2.3185    1.4177    0.6646 C   0  0  0  0  0  0  0  0  0  0  0  0
   -3.5440    1.9975    0.2877 C   0  0  0  0  0  0  0  0  0  0  0  0
   -4.4799    1.5018    0.5908 H   0  0  0  0  0  0  0  0  0  0  0  0
   -3.5844    3.1827   -0.4568 C   0  0  0  0  0  0  0  0  0  0  0  0
   -4.5517    3.6223   -0.7427 H   0  0  0  0  0  0  0  0  0  0  0  0
   -2.3867    3.8137   -0.8305 C   0  0  0  0  0  0  0  0  0  0  0  0
   -2.4144    4.7504   -1.4094 H   0  0  0  0  0  0  0  0  0  0  0  0
   -1.1388    3.2725   -0.4809 C   0  0  0  0  0  0  0  0  0  0  0  0
   -1.1233    2.0599    0.2565 C   0  0  0  0  0  0  0  0  0  0  0  0
   -0.7158   -3.1030   -2.0656 C   0  0  0  0  0  0  0  0  0  0  0  0
   -0.6645   -2.3551   -2.8855 H   0  0  0  0  0  0  0  0  0  0  0  0
   -0.9389   -4.0897   -2.5136 H   0  0  0  0  0  0  0  0  0  0  0  0
    0.2947   -3.1357   -1.6088 H   0  0  0  0  0  0  0  0  0  0  0  0
    0.1618    3.9271   -0.8605 C   0  0  0  0  0  0  0  0  0  0  0  0
    0.7419    4.2087    0.0436 H   0  0  0  0  0  0  0  0  0  0  0  0
   -0.0112    4.8400   -1.4617 H   0  0  0  0  0  0  0  0  0  0  0  0
    0.8083    3.2323   -1.4336 H   0  0  0  0  0  0  0  0  0  0  0  0
  1  3  1  0  0  0  0
  3 11  1  0  0  0  0
  4  5  1  0  0  0  0
  4  3  2  0  0  0  0
  5  7  2  0  0  0  0
  6  5  1  0  0  0  0
  7  8  1  0  0  0  0
  7  9  1  0  0  0  0
  9 10  1  0  0  0  0
 11  9  2  0  0  0  0
 11 12  1  0  0  0  0
 12 14  1  0  0  0  0
 12 13  1  0  0  0  0
 15 12  1  0  0  0  0
 16 17  1  0  0  0  0
 16 15  1  0  0  0  0
 18 16  2  0  0  0  0
 19 18  1  0  0  0  0
 20 22  2  0  0  0  0
 20 18  1  0  0  0  0
 21 20  1  0  0  0  0
 22 23  1  0  0  0  0
 23  2  1  0  0  0  0
 23 15  2  0  0  0  0
 24 27  1  0  0  0  0
 24  4  1  0  0  0  0
 25 24  1  0  0  0  0
 26 24  1  0  0  0  0
 28 22  1  0  0  0  0
 28 29  1  0  0  0  0
 30 28  1  0  0  0  0
 31 28  1  0  0  0  0
M  CHG  2   1  -1   2  -1
M  END
