1,2
 OpenBabel05122313063D

 32 33  0  0  1  0  0  0  0  0999 V2000
   -2.1645   -1.0592    1.4952 O   0  0  0  0  0  1  0  0  0  0  0  0
    1.5004   -0.9469   -0.5494 O   0  5  0  0  0  0  0  0  0  0  0  0
    3.9898   -0.9056   -1.4216 O   0  0  0  0  0  0  0  0  0  0  0  0
   -1.0970   -1.7372   -0.8393 N   0  0  0  0  0  0  0  0  0  0  0  0
   -2.4365   -1.8805   -0.5995 N   0  0  0  0  0  0  0  0  0  0  0  0
   -3.0426   -2.3182   -1.3052 H   0  0  0  0  0  0  0  0  0  0  0  0
   -7.1885   -1.6945    1.2334 N   0  0  0  0  0  0  0  0  0  0  0  0
   -0.6290   -2.3137   -1.9297 C   0  0  0  0  0  0  0  0  0  0  0  0
   -1.3413   -2.8799   -2.5687 H   0  0  0  0  0  0  0  0  0  0  0  0
   -4.9247   -1.6475    2.0868 C   0  0  0  0  0  0  0  0  0  0  0  0
   -4.2426   -1.6703    2.9486 H   0  0  0  0  0  0  0  0  0  0  0  0
    3.0925   -1.6031   -2.1721 C   0  0  0  0  0  0  0  0  0  0  0  0
    1.7473   -1.5853   -1.6499 C   0  0  0  0  0  0  0  0  0  0  0  0
   -4.4093   -1.5571    0.7801 C   0  0  0  0  0  0  0  0  0  0  0  0
    0.7262   -2.2872   -2.3843 C   0  0  0  0  0  0  0  0  0  0  0  0
   -6.3161   -1.7179    2.2537 C   0  0  0  0  0  0  0  0  0  0  0  0
   -6.7477   -1.7976    3.2668 H   0  0  0  0  0  0  0  0  0  0  0  0
   -2.9399   -1.4715    0.5927 C   0  0  1  0  0  3  0  0  0  0  0  0
    3.3811   -2.2946   -3.3499 C   0  0  0  0  0  0  0  0  0  0  0  0
    4.4059   -2.3109   -3.7456 H   0  0  0  0  0  0  0  0  0  0  0  0
    2.3612   -2.9842   -4.0581 C   0  0  0  0  0  0  0  0  0  0  0  0
    2.6187   -3.5185   -4.9834 H   0  0  0  0  0  0  0  0  0  0  0  0
    1.0587   -2.9811   -3.5899 C   0  0  0  0  0  0  0  0  0  0  0  0
    0.2658   -3.5127   -4.1382 H   0  0  0  0  0  0  0  0  0  0  0  0
    5.3451   -0.8990   -1.8395 C   0  0  0  0  0  0  0  0  0  0  0  0
    5.9018   -0.3056   -1.0905 H   0  0  0  0  0  0  0  0  0  0  0  0
    5.4659   -0.4297   -2.8414 H   0  0  0  0  0  0  0  0  0  0  0  0
    5.7706   -1.9264   -1.8734 H   0  0  0  0  0  0  0  0  0  0  0  0
   -6.6932   -1.5962   -0.0096 C   0  0  0  0  0  0  0  0  0  0  0  0
   -7.4296   -1.5649   -0.8322 H   0  0  0  0  0  0  0  0  0  0  0  0
   -5.3207   -1.5222   -0.2948 C   0  0  0  0  0  0  0  0  0  0  0  0
   -4.9854   -1.3895   -1.3349 H   0  0  0  0  0  0  0  0  0  0  0  0
  4  5  1  0  0  0  0
  5 18  1  0  0  0  0
  6  5  1  0  0  0  0
  7 16  1  0  0  0  0
  8  4  2  0  0  0  0
  9  8  1  0  0  0  0
 10 16  2  0  0  0  0
 10 11  1  0  0  0  0
 12 13  1  0  0  0  0
 12  3  1  0  0  0  0
 13  2  1  0  0  0  0
 14 10  1  0  0  0  0
 15  8  1  0  0  0  0
 15 13  2  0  0  0  0
 16 17  1  0  0  0  0
 18 14  1  0  0  0  0
 18  1  1  1  0  0  0
 19 12  2  0  0  0  0
 20 19  1  0  0  0  0
 21 23  2  0  0  0  0
 21 19  1  0  0  0  0
 22 21  1  0  0  0  0
 23 15  1  0  0  0  0
 24 23  1  0  0  0  0
 25  3  1  0  0  0  0
 25 26  1  0  0  0  0
 27 25  1  0  0  0  0
 28 25  1  0  0  0  0
 29  7  2  0  0  0  0
 30 29  1  0  0  0  0
 31 29  1  0  0  0  0
 31 14  2  0  0  0  0
 32 31  1  0  0  0  0
M  CHG  1   2  -1
M  END
