7,8
 OpenBabel05122313063D

 36 37  0  0  0  0  0  0  0  0999 V2000
   -5.9369   -3.6830   -0.4750 Br  0  0  0  0  0  0  0  0  0  0  0  0
   -4.1145    1.4131    1.3460 Br  0  0  0  0  0  0  0  0  0  0  0  0
    4.0789    0.3967   -2.2273 Br  0  0  0  0  0  0  0  0  0  0  0  0
    5.1650   -4.3056    0.8145 Br  0  0  0  0  0  0  0  0  0  0  0  0
   -0.4129   -0.6780    1.4762 S   0  0  0  0  0  0  0  0  0  0  0  0
    0.0863   -1.2459   -1.8155 S   0  0  0  0  0  0  0  0  0  0  0  0
   -1.9773    0.8946   -0.7991 O   0  5  0  0  0  0  0  0  0  0  0  0
    1.8991    0.7272   -0.0714 O   0  5  0  0  0  0  0  0  0  0  0  0
   -3.6617   -2.2807   -1.5220 C   0  0  0  0  0  0  0  0  0  0  0  0
   -4.7069   -2.2342   -0.5871 C   0  0  0  0  0  0  0  0  0  0  0  0
   -4.8561   -1.1323    0.2690 C   0  0  0  0  0  0  0  0  0  0  0  0
   -3.9408   -0.0735    0.1804 C   0  0  0  0  0  0  0  0  0  0  0  0
   -2.8688   -0.0848   -0.7518 C   0  0  0  0  0  0  0  0  0  0  0  0
   -2.7464   -1.2177   -1.6097 C   0  0  0  0  0  0  0  0  0  0  0  0
   -1.6004   -1.2772   -2.5764 C   0  0  0  0  0  0  0  0  0  0  0  0
    2.6394   -0.3543    0.1382 C   0  0  0  0  0  0  0  0  0  0  0  0
    3.6922   -0.7215   -0.7409 C   0  0  0  0  0  0  0  0  0  0  0  0
    4.4493   -1.8861   -0.5500 C   0  0  0  0  0  0  0  0  0  0  0  0
    4.1546   -2.7147    0.5428 C   0  0  0  0  0  0  0  0  0  0  0  0
    3.1251   -2.3836    1.4363 C   0  0  0  0  0  0  0  0  0  0  0  0
    2.3703   -1.2136    1.2447 C   0  0  0  0  0  0  0  0  0  0  0  0
    1.2739   -0.8536    2.2027 C   0  0  0  0  0  0  0  0  0  0  0  0
   -0.7101   -2.3173    0.7098 C   0  0  0  0  0  0  0  0  0  0  0  0
    0.0147   -2.6170   -0.6045 C   0  0  0  0  0  0  0  0  0  0  0  0
   -3.5555   -3.1512   -2.1858 H   0  0  0  0  0  0  0  0  0  0  0  0
   -5.6717   -1.0952    1.0032 H   0  0  0  0  0  0  0  0  0  0  0  0
   -1.5750   -0.3859   -3.2359 H   0  0  0  0  0  0  0  0  0  0  0  0
   -1.6619   -2.1790   -3.2157 H   0  0  0  0  0  0  0  0  0  0  0  0
    5.2549   -2.1414   -1.2509 H   0  0  0  0  0  0  0  0  0  0  0  0
    2.9079   -3.0385    2.2927 H   0  0  0  0  0  0  0  0  0  0  0  0
    1.4427    0.1457    2.6543 H   0  0  0  0  0  0  0  0  0  0  0  0
    1.1968   -1.5890    3.0259 H   0  0  0  0  0  0  0  0  0  0  0  0
   -1.8086   -2.3482    0.5782 H   0  0  0  0  0  0  0  0  0  0  0  0
   -0.4483   -3.0814    1.4714 H   0  0  0  0  0  0  0  0  0  0  0  0
   -0.4475   -3.4957   -1.1016 H   0  0  0  0  0  0  0  0  0  0  0  0
    1.0801   -2.8597   -0.4257 H   0  0  0  0  0  0  0  0  0  0  0  0
  3 17  1  0  0  0  0
  5 22  1  0  0  0  0
  6 24  1  0  0  0  0
  7 13  1  0  0  0  0
  8 16  1  0  0  0  0
  9 10  1  0  0  0  0
 10  1  1  0  0  0  0
 10 11  2  0  0  0  0
 11 26  1  0  0  0  0
 12 11  1  0  0  0  0
 12  2  1  0  0  0  0
 13 12  2  0  0  0  0
 14  9  2  0  0  0  0
 14 13  1  0  0  0  0
 15  6  1  0  0  0  0
 15 14  1  0  0  0  0
 16 21  1  0  0  0  0
 17 18  1  0  0  0  0
 17 16  2  0  0  0  0
 18 19  2  0  0  0  0
 19  4  1  0  0  0  0
 19 20  1  0  0  0  0
 20 30  1  0  0  0  0
 21 20  2  0  0  0  0
 21 22  1  0  0  0  0
 22 31  1  0  0  0  0
 22 32  1  0  0  0  0
 23 34  1  0  0  0  0
 23  5  1  0  0  0  0
 24 36  1  0  0  0  0
 24 23  1  0  0  0  0
 25  9  1  0  0  0  0
 27 15  1  0  0  0  0
 28 15  1  0  0  0  0
 29 18  1  0  0  0  0
 33 23  1  0  0  0  0
 35 24  1  0  0  0  0
M  CHG  2   7  -1   8  -1
M  END
