1,2
 OpenBabel05122313063D

 52 53  0  0  1  0  0  0  0  0999 V2000
   -0.0626    1.3878   -0.1562 O   0  0  0  0  0  1  0  0  0  0  0  0
    0.6628   -1.4886   -0.1580 O   0  5  0  0  0  0  0  0  0  0  0  0
    1.2086    1.4910   -0.0215 C   0  0  2  0  0  3  0  0  0  0  0  0
    2.1285    0.4161    0.0572 C   0  0  0  0  0  0  0  0  0  0  0  0
    1.8311   -0.9617   -0.0211 C   0  0  0  0  0  0  0  0  0  0  0  0
    1.7284    2.8965    0.1099 C   0  0  0  0  0  0  0  0  0  0  0  0
    1.3412    3.6445    1.2519 C   0  0  0  0  0  0  0  0  0  0  0  0
    1.8073    4.9751    1.3859 C   0  0  0  0  0  0  0  0  0  0  0  0
    2.6449    5.5053    0.3900 C   0  0  0  0  0  0  0  0  0  0  0  0
    3.0323    4.7738   -0.7435 C   0  0  0  0  0  0  0  0  0  0  0  0
    2.5604    3.4458   -0.8969 C   0  0  0  0  0  0  0  0  0  0  0  0
    0.4538    3.0493    2.3190 C   0  0  0  0  0  0  0  0  0  0  0  0
    1.4157    5.8192    2.5731 C   0  0  0  0  0  0  0  0  0  0  0  0
    3.9277    5.3982   -1.7835 C   0  0  0  0  0  0  0  0  0  0  0  0
    2.9310    2.6702   -2.1382 C   0  0  0  0  0  0  0  0  0  0  0  0
    2.9550   -1.9519    0.1102 C   0  0  0  0  0  0  0  0  0  0  0  0
    3.9344   -2.0566   -0.9082 C   0  0  0  0  0  0  0  0  0  0  0  0
    4.9803   -3.0010   -0.7544 C   0  0  0  0  0  0  0  0  0  0  0  0
    4.9995   -3.8125    0.3909 C   0  0  0  0  0  0  0  0  0  0  0  0
    4.0239   -3.7269    1.3984 C   0  0  0  0  0  0  0  0  0  0  0  0
    2.9823   -2.7767    1.2643 C   0  0  0  0  0  0  0  0  0  0  0  0
    3.8772   -1.2150   -2.1604 C   0  0  0  0  0  0  0  0  0  0  0  0
    6.0508   -3.1430   -1.8066 C   0  0  0  0  0  0  0  0  0  0  0  0
    4.0924   -4.6381    2.5983 C   0  0  0  0  0  0  0  0  0  0  0  0
    1.9344   -2.6541    2.3445 C   0  0  0  0  0  0  0  0  0  0  0  0
    3.1850    0.6816    0.1995 H   0  0  0  0  0  0  0  0  0  0  0  0
    3.0092    6.5402    0.5014 H   0  0  0  0  0  0  0  0  0  0  0  0
    0.4323    1.9450    2.2844 H   0  0  0  0  0  0  0  0  0  0  0  0
   -0.5971    3.3922    2.2034 H   0  0  0  0  0  0  0  0  0  0  0  0
    0.7821    3.3539    3.3325 H   0  0  0  0  0  0  0  0  0  0  0  0
    1.7801    5.3840    3.5285 H   0  0  0  0  0  0  0  0  0  0  0  0
    0.3131    5.9060    2.6713 H   0  0  0  0  0  0  0  0  0  0  0  0
    1.8307    6.8422    2.4914 H   0  0  0  0  0  0  0  0  0  0  0  0
    4.2325    6.4211   -1.4901 H   0  0  0  0  0  0  0  0  0  0  0  0
    3.4259    5.4665   -2.7728 H   0  0  0  0  0  0  0  0  0  0  0  0
    4.8503    4.8015   -1.9456 H   0  0  0  0  0  0  0  0  0  0  0  0
    4.0110    2.4062   -2.1492 H   0  0  0  0  0  0  0  0  0  0  0  0
    2.7484    3.2714   -3.0527 H   0  0  0  0  0  0  0  0  0  0  0  0
    2.3610    1.7290   -2.2328 H   0  0  0  0  0  0  0  0  0  0  0  0
    5.8111   -4.5507    0.5022 H   0  0  0  0  0  0  0  0  0  0  0  0
    4.7004   -0.4681   -2.1902 H   0  0  0  0  0  0  0  0  0  0  0  0
    2.9260   -0.6612   -2.2518 H   0  0  0  0  0  0  0  0  0  0  0  0
    3.9932   -1.8426   -3.0679 H   0  0  0  0  0  0  0  0  0  0  0  0
    6.5793   -2.1835   -1.9899 H   0  0  0  0  0  0  0  0  0  0  0  0
    5.6278   -3.4553   -2.7857 H   0  0  0  0  0  0  0  0  0  0  0  0
    6.8070   -3.8959   -1.5120 H   0  0  0  0  0  0  0  0  0  0  0  0
    4.9411   -5.3443    2.5173 H   0  0  0  0  0  0  0  0  0  0  0  0
    3.1632   -5.2344    2.7159 H   0  0  0  0  0  0  0  0  0  0  0  0
    4.2182   -4.0682    3.5440 H   0  0  0  0  0  0  0  0  0  0  0  0
    1.1765   -3.4628    2.2630 H   0  0  0  0  0  0  0  0  0  0  0  0
    1.3839   -1.6973    2.2935 H   0  0  0  0  0  0  0  0  0  0  0  0
    2.3848   -2.7366    3.3536 H   0  0  0  0  0  0  0  0  0  0  0  0
  2  5  1  0  0  0  0
  3  1  1  1  0  0  0
  3  4  1  0  0  0  0
  3  6  1  0  0  0  0
  4 26  1  0  0  0  0
  5  4  2  0  0  0  0
  5 16  1  0  0  0  0
  6  7  1  0  0  0  0
  7  8  2  0  0  0  0
  7 12  1  0  0  0  0
  8 13  1  0  0  0  0
  9 27  1  0  0  0  0
  9  8  1  0  0  0  0
 10  9  2  0  0  0  0
 11 10  1  0  0  0  0
 11  6  2  0  0  0  0
 12 30  1  0  0  0  0
 13 32  1  0  0  0  0
 13 31  1  0  0  0  0
 14 34  1  0  0  0  0
 14 10  1  0  0  0  0
 15 11  1  0  0  0  0
 16 21  1  0  0  0  0
 17 18  1  0  0  0  0
 17 16  2  0  0  0  0
 18 19  2  0  0  0  0
 19 40  1  0  0  0  0
 19 20  1  0  0  0  0
 20 24  1  0  0  0  0
 21 20  2  0  0  0  0
 21 25  1  0  0  0  0
 22 17  1  0  0  0  0
 23 46  1  0  0  0  0
 23 18  1  0  0  0  0
 24 48  1  0  0  0  0
 24 49  1  0  0  0  0
 25 52  1  0  0  0  0
 28 12  1  0  0  0  0
 29 12  1  0  0  0  0
 33 13  1  0  0  0  0
 35 14  1  0  0  0  0
 36 14  1  0  0  0  0
 37 15  1  0  0  0  0
 38 15  1  0  0  0  0
 39 15  1  0  0  0  0
 41 22  1  0  0  0  0
 42 22  1  0  0  0  0
 43 22  1  0  0  0  0
 44 23  1  0  0  0  0
 45 23  1  0  0  0  0
 47 24  1  0  0  0  0
 50 25  1  0  0  0  0
 51 25  1  0  0  0  0
M  CHG  1   2  -1
M  END
