2,4
 OpenBabel05122313063D

 24 24  0  0  0  0  0  0  0  0999 V2000
   -1.7337    1.6981    0.2074 C   0  0  0  0  0  0  0  0  0  0  0  0
   -1.1370    0.6789    0.7012 O   0  5  0  0  0  0  0  0  0  0  0  0
   -0.8396    2.8150   -0.1862 C   0  0  0  0  0  0  0  0  0  0  0  0
    0.3825    2.4982   -0.4100 O   0  5  0  0  0  0  0  0  0  0  0  0
   -1.3926    4.1226   -0.3293 C   0  0  0  0  0  0  0  0  0  0  0  0
   -0.7184    4.9694   -0.5232 H   0  0  0  0  0  0  0  0  0  0  0  0
   -2.7778    4.2595   -0.3289 C   0  0  0  0  0  0  0  0  0  0  0  0
   -3.2247    5.2494   -0.5075 H   0  0  0  0  0  0  0  0  0  0  0  0
   -3.6421    3.1444   -0.1410 C   0  0  0  0  0  0  0  0  0  0  0  0
   -4.7322    3.3028   -0.1675 H   0  0  0  0  0  0  0  0  0  0  0  0
   -3.1610    1.8451    0.0747 C   0  0  0  0  0  0  0  0  0  0  0  0
   -4.1005    0.7247    0.1833 C   0  0  0  0  0  0  0  0  0  0  0  0
   -5.1814    1.0278    0.2001 H   0  0  0  0  0  0  0  0  0  0  0  0
   -3.7602   -0.5131    0.2145 N   0  0  0  0  0  0  0  0  0  0  0  0
   -4.8027   -1.5088    0.2711 C   0  0  0  0  0  0  0  0  0  0  0  0
   -5.8301   -1.0591    0.3112 H   0  0  0  0  0  0  0  0  0  0  0  0
   -4.6686   -2.0900    1.2133 H   0  0  0  0  0  0  0  0  0  0  0  0
   -4.7102   -2.4843   -0.9111 C   0  0  0  0  0  0  0  0  0  0  0  0
   -3.6815   -2.9039   -0.9391 H   0  0  0  0  0  0  0  0  0  0  0  0
   -4.8306   -1.9089   -1.8545 H   0  0  0  0  0  0  0  0  0  0  0  0
   -5.7443   -3.6066   -0.8375 C   0  0  0  0  0  0  0  0  0  0  0  0
   -5.6189   -4.2125    0.0843 H   0  0  0  0  0  0  0  0  0  0  0  0
   -5.6586   -4.2938   -1.7027 H   0  0  0  0  0  0  0  0  0  0  0  0
   -6.7798   -3.2069   -0.8309 H   0  0  0  0  0  0  0  0  0  0  0  0
  1  2  1  0  0  0  0
  3  1  2  0  0  0  0
  4  3  1  0  0  0  0
  5  7  2  0  0  0  0
  5  3  1  0  0  0  0
  6  5  1  0  0  0  0
  7  9  1  0  0  0  0
  8  7  1  0  0  0  0
  9 11  2  0  0  0  0
 10  9  1  0  0  0  0
 11 12  1  0  0  0  0
 11  1  1  0  0  0  0
 12 13  1  0  0  0  0
 12 14  2  0  0  0  0
 14 15  1  0  0  0  0
 15 16  1  0  0  0  0
 15 17  1  0  0  0  0
 18 21  1  0  0  0  0
 18 15  1  0  0  0  0
 19 18  1  0  0  0  0
 20 18  1  0  0  0  0
 21 24  1  0  0  0  0
 21 22  1  0  0  0  0
 23 21  1  0  0  0  0
M  CHG  2   2  -1   4  -1
M  END
