1,2
 OpenBabel05122313063D

 20 19  0  0  1  0  0  0  0  0999 V2000
   -1.4896    0.7299    0.8790 O   0  0  0  0  0  1  0  0  0  0  0  0
   -0.4365    0.6676   -1.6996 O   0  5  0  0  0  0  0  0  0  0  0  0
   -2.4408    1.3526    0.2978 C   0  0  1  0  0  3  0  0  0  0  0  0
   -1.5048    1.3153   -1.9889 C   0  0  0  0  0  0  0  0  0  0  0  0
   -3.5669    1.8048    1.2330 C   0  0  0  0  0  0  0  0  0  0  0  0
   -2.5208    1.6582   -1.0742 C   0  0  0  0  0  0  0  0  0  0  0  0
   -1.6324    1.7079   -3.4432 C   0  0  0  0  0  0  0  0  0  0  0  0
   -4.9313    1.3943    0.7162 C   0  0  0  0  0  0  0  0  0  0  0  0
   -3.3743    1.3735    2.2305 H   0  0  0  0  0  0  0  0  0  0  0  0
   -3.5537    2.9119    1.2937 H   0  0  0  0  0  0  0  0  0  0  0  0
   -3.4072    2.1979   -1.4311 H   0  0  0  0  0  0  0  0  0  0  0  0
   -2.5734    2.2485   -3.6509 H   0  0  0  0  0  0  0  0  0  0  0  0
   -0.7725    2.3461   -3.7327 H   0  0  0  0  0  0  0  0  0  0  0  0
   -1.5827    0.7988   -4.0769 H   0  0  0  0  0  0  0  0  0  0  0  0
   -5.5566    1.9651   -0.1581 O   0  0  0  0  0  0  0  0  0  0  0  0
   -5.3720    0.2697    1.3348 O   0  0  0  0  0  0  0  0  0  0  0  0
   -6.6253   -0.2311    0.8550 C   0  0  0  0  0  0  0  0  0  0  0  0
   -6.8431   -1.1358    1.4504 H   0  0  0  0  0  0  0  0  0  0  0  0
   -7.4289    0.5211    0.9860 H   0  0  0  0  0  0  0  0  0  0  0  0
   -6.5583   -0.4831   -0.2227 H   0  0  0  0  0  0  0  0  0  0  0  0
  3  1  1  1  0  0  0
  3  5  1  0  0  0  0
  4  2  1  0  0  0  0
  4  6  2  0  0  0  0
  5 10  1  0  0  0  0
  5  9  1  0  0  0  0
  6  3  1  0  0  0  0
  7  4  1  0  0  0  0
  8  5  1  0  0  0  0
  8 16  1  0  0  0  0
 11  6  1  0  0  0  0
 12  7  1  0  0  0  0
 13  7  1  0  0  0  0
 14  7  1  0  0  0  0
 15  8  2  0  0  0  0
 17 19  1  0  0  0  0
 17 16  1  0  0  0  0
 17 18  1  0  0  0  0
 20 17  1  0  0  0  0
M  CHG  1   2  -1
M  END
