3,4
 OpenBabel05122313063D

 30 31  0  0  1  0  0  0  0  0999 V2000
    2.7721    2.8671   -0.5752 N   0  0  0  0  0  0  0  0  0  0  0  0
    4.4448   -1.2139   -0.9393 N   0  0  0  0  0  0  0  0  0  0  0  0
    1.3920    1.5600    0.6486 O   0  0  0  0  0  1  0  0  0  0  0  0
    2.2181   -0.8089   -0.7822 O   0  0  0  0  0  1  0  0  0  0  0  0
    1.6491    3.7771   -0.8006 C   0  0  0  0  0  0  0  0  0  0  0  0
    0.7713    3.1900   -1.1361 H   0  0  0  0  0  0  0  0  0  0  0  0
    1.9341    4.5058   -1.5814 H   0  0  0  0  0  0  0  0  0  0  0  0
    1.3803    4.3246    0.1276 H   0  0  0  0  0  0  0  0  0  0  0  0
    2.5264    1.7583    0.1688 C   0  0  1  0  0  3  0  0  0  0  0  0
    3.6527    0.7483    0.3821 C   0  0  1  0  0  0  0  0  0  0  0  0
    3.4818    0.3490    1.4092 H   0  0  0  0  0  0  0  0  0  0  0  0
    3.3882   -0.4774   -0.5067 C   0  0  1  0  0  3  0  0  0  0  0  0
    4.2073   -2.4170   -1.7305 C   0  0  0  0  0  0  0  0  0  0  0  0
    3.1256   -2.6281   -1.7746 H   0  0  0  0  0  0  0  0  0  0  0  0
    4.7255   -3.2790   -1.2631 H   0  0  0  0  0  0  0  0  0  0  0  0
    4.5989   -2.2842   -2.7616 H   0  0  0  0  0  0  0  0  0  0  0  0
    5.8494   -0.8395   -0.7694 C   0  0  0  0  0  0  0  0  0  0  0  0
    6.2403   -0.4747   -1.7484 H   0  0  0  0  0  0  0  0  0  0  0  0
    6.4192   -1.7643   -0.5389 H   0  0  0  0  0  0  0  0  0  0  0  0
    6.0728    0.1973    0.3249 C   0  0  0  0  0  0  0  0  0  0  0  0
    7.1118    0.5786    0.2497 H   0  0  0  0  0  0  0  0  0  0  0  0
    5.9745   -0.2853    1.3194 H   0  0  0  0  0  0  0  0  0  0  0  0
    5.0586    1.3389    0.2364 C   0  0  1  0  0  0  0  0  0  0  0  0
    5.2336    2.0338    1.0865 H   0  0  0  0  0  0  0  0  0  0  0  0
    5.1089    2.1476   -1.0634 C   0  0  0  0  0  0  0  0  0  0  0  0
    6.1209    2.5676   -1.2380 H   0  0  0  0  0  0  0  0  0  0  0  0
    4.8754    1.4899   -1.9285 H   0  0  0  0  0  0  0  0  0  0  0  0
    4.1028    3.2919   -1.0163 C   0  0  0  0  0  0  0  0  0  0  0  0
    4.4712    4.0961   -0.3360 H   0  0  0  0  0  0  0  0  0  0  0  0
    3.9978    3.7519   -2.0207 H   0  0  0  0  0  0  0  0  0  0  0  0
  1  9  1  0  0  0  0
  2 17  1  0  0  0  0
  2 12  1  0  0  0  0
  5  1  1  0  0  0  0
  5  8  1  0  0  0  0
  6  5  1  0  0  0  0
  7  5  1  0  0  0  0
  9 10  1  0  0  0  0
  9  3  1  6  0  0  0
 10 11  1  1  0  0  0
 12  4  1  1  0  0  0
 12 10  1  0  0  0  0
 13 15  1  0  0  0  0
 13  2  1  0  0  0  0
 14 13  1  0  0  0  0
 16 13  1  0  0  0  0
 17 19  1  0  0  0  0
 17 20  1  0  0  0  0
 18 17  1  0  0  0  0
 20 22  1  0  0  0  0
 21 20  1  0  0  0  0
 23 20  1  0  0  0  0
 23 10  1  0  0  0  0
 23 24  1  1  0  0  0
 25 28  1  0  0  0  0
 25 23  1  0  0  0  0
 26 25  1  0  0  0  0
 27 25  1  0  0  0  0
 28  1  1  0  0  0  0
 28 29  1  0  0  0  0
 30 28  1  0  0  0  0
M  END
