1,2
 OpenBabel05122313063D

 31 31  0  0  0  0  0  0  0  0999 V2000
   -1.7717    0.6290   -2.0767 O   0  5  0  0  0  0  0  0  0  0  0  0
   -0.8639    1.6463   -0.3300 O   0  5  0  0  0  0  0  0  0  0  0  0
   -0.6651    3.9779    0.7362 O   0  0  0  0  0  0  0  0  0  0  0  0
   -0.6186    6.1766    0.3159 O   0  0  0  0  0  0  0  0  0  0  0  0
    3.1140   -0.9646   -2.6044 O   0  0  0  0  0  0  0  0  0  0  0  0
    5.2013   -0.4575   -1.8731 O   0  0  0  0  0  0  0  0  0  0  0  0
    5.4748    3.1401    1.6584 O   0  0  0  0  0  0  0  0  0  0  0  0
    4.2758    4.9871    1.2168 O   0  0  0  0  0  0  0  0  0  0  0  0
    0.5527    3.4370   -1.8437 N   0  0  0  0  0  0  0  0  0  0  0  0
    1.7783    2.9089   -1.4354 C   0  0  0  0  0  0  0  0  0  0  0  0
    2.5985    3.6010   -0.5100 C   0  0  0  0  0  0  0  0  0  0  0  0
    3.8403    3.0691   -0.1163 C   0  0  0  0  0  0  0  0  0  0  0  0
    4.3282    1.8775   -0.6812 C   0  0  0  0  0  0  0  0  0  0  0  0
    3.5039    1.1660   -1.5660 C   0  0  0  0  0  0  0  0  0  0  0  0
    2.2352    1.6548   -1.9125 C   0  0  0  0  0  0  0  0  0  0  0  0
   -0.4015    2.5846   -2.5128 C   0  0  0  0  0  0  0  0  0  0  0  0
   -1.0492    1.5395   -1.5995 C   0  0  0  0  0  3  0  0  0  0  0  0
    0.1614    4.7754   -1.4605 C   0  0  0  0  0  0  0  0  0  0  0  0
   -0.4076    5.0339   -0.0408 C   0  0  0  0  0  0  0  0  0  0  0  0
    4.6130    3.7038    0.9820 C   0  0  0  0  0  0  0  0  0  0  0  0
    3.9021   -0.1885   -2.0834 C   0  0  0  0  0  0  0  0  0  0  0  0
    2.2607    4.5299   -0.0352 H   0  0  0  0  0  0  0  0  0  0  0  0
    5.3062    1.4754   -0.3961 H   0  0  0  0  0  0  0  0  0  0  0  0
    1.6252    1.0106   -2.5599 H   0  0  0  0  0  0  0  0  0  0  0  0
    5.3428   -1.4458   -1.9807 H   0  0  0  0  0  0  0  0  0  0  0  0
   -1.2195    3.2081   -2.9270 H   0  0  0  0  0  0  0  0  0  0  0  0
    0.0381    2.0541   -3.3838 H   0  0  0  0  0  0  0  0  0  0  0  0
    4.7981    5.2593    2.0024 H   0  0  0  0  0  0  0  0  0  0  0  0
    1.0113    5.4799   -1.5760 H   0  0  0  0  0  0  0  0  0  0  0  0
   -0.6158    5.1360   -2.1653 H   0  0  0  0  0  0  0  0  0  0  0  0
   -0.5243    3.0812    0.2746 H   0  0  0  0  0  0  0  0  0  0  0  0
  1 17  1  0  0  0  0
  5 21  2  0  0  0  0
  8 28  1  0  0  0  0
  9 18  1  0  0  0  0
  9 10  1  0  0  0  0
 10 11  1  0  0  0  0
 11 12  2  0  0  0  0
 11 22  1  0  0  0  0
 12 20  1  0  0  0  0
 13 23  1  0  0  0  0
 13 12  1  0  0  0  0
 14 13  2  0  0  0  0
 15 14  1  0  0  0  0
 15 10  2  0  0  0  0
 16  9  1  0  0  0  0
 16 17  1  0  0  0  0
 17  2  1  0  0  0  0
 18 19  1  0  0  0  0
 19  4  2  0  0  0  0
 19  3  1  0  0  0  0
 20  8  1  0  0  0  0
 20  7  2  0  0  0  0
 21  6  1  0  0  0  0
 21 14  1  0  0  0  0
 24 15  1  0  0  0  0
 25  6  1  0  0  0  0
 26 16  1  0  0  0  0
 27 16  1  0  0  0  0
 29 18  1  0  0  0  0
 30 18  1  0  0  0  0
 31  3  1  0  0  0  0
M  CHG  2   1  -1   2  -1
M  END
