1,2
 OpenBabel05122313063D

 17 17  0  0  0  0  0  0  0  0999 V2000
    1.5083    1.0716    0.0010 O   0  5  0  0  0  0  0  0  0  0  0  0
    0.9290   -1.6100    0.0004 O   0  5  0  0  0  0  0  0  0  0  0  0
    4.5532   -1.0374   -0.0001 C   0  0  0  0  0  3  0  0  0  0  0  0
    4.8307   -2.1047   -0.0003 H   0  0  0  0  0  0  0  0  0  0  0  0
    3.7825    1.6670    0.0002 C   0  0  0  0  0  0  0  0  0  0  0  0
    3.4736    2.7221    0.0003 H   0  0  0  0  0  0  0  0  0  0  0  0
    2.7433    0.6797    0.0005 C   0  0  0  0  0  0  0  0  0  0  0  0
    3.1633   -0.7052    0.0002 C   0  0  0  0  0  0  0  0  0  0  0  0
    5.5434   -0.0659   -0.0003 C   0  0  0  0  0  0  0  0  0  0  0  0
    2.1901   -1.7399    0.0004 C   0  0  0  0  0  0  0  0  0  0  0  0
    5.1175    1.3001   -0.0001 C   0  0  0  0  0  0  0  0  0  0  0  0
    5.8852    2.0917   -0.0004 H   0  0  0  0  0  0  0  0  0  0  0  0
    7.0114   -0.4049   -0.0001 C   0  0  0  0  0  0  0  0  0  0  0  0
    7.5267    0.0182   -0.8885 H   0  0  0  0  0  0  0  0  0  0  0  0
    7.5247    0.0103    0.8932 H   0  0  0  0  0  0  0  0  0  0  0  0
    7.1769   -1.4997   -0.0046 H   0  0  0  0  0  0  0  0  0  0  0  0
    2.5574   -2.7928    0.0006 H   0  0  0  0  0  0  0  0  0  0  0  0
  3  8  1  0  0  0  0
  4  3  1  0  0  0  0
  5  6  1  0  0  0  0
  5  7  2  0  0  0  0
  7  1  1  0  0  0  0
  8 10  2  0  0  0  0
  8  7  1  0  0  0  0
  9 11  2  0  0  0  0
  9 13  1  0  0  0  0
  9  3  1  0  0  0  0
 10  2  1  0  0  0  0
 10 17  1  0  0  0  0
 11  5  1  0  0  0  0
 12 11  1  0  0  0  0
 13 15  1  0  0  0  0
 14 13  1  0  0  0  0
 16 13  1  0  0  0  0
M  CHG  2   1  -1   2  -1
M  END
