1,2
 OpenBabel05122313063D

 52 54  0  0  1  0  0  0  0  0999 V2000
    1.4515   -0.8581    0.7625 O   0  0  0  0  0  1  0  0  0  0  0  0
   -1.4513   -0.8584    0.7626 O   0  0  0  0  0  1  0  0  0  0  0  0
    2.1610   -0.3716   -0.3469 C   0  0  1  0  0  0  0  0  0  0  0  0
    1.2569   -0.5040   -1.6400 C   0  0  2  0  0  0  0  0  0  0  0  0
   -0.0001    0.3708   -1.6106 C   0  0  0  0  0  0  0  0  0  0  0  0
   -1.2567   -0.5046   -1.6398 C   0  0  2  0  0  0  0  0  0  0  0  0
   -0.6792   -1.9187   -1.6800 C   0  0  0  0  0  0  0  0  0  0  0  0
    0.6801   -1.9184   -1.6803 C   0  0  0  0  0  0  0  0  0  0  0  0
   -0.0004    1.7152   -1.6786 C   0  0  0  0  0  0  0  0  0  0  0  0
   -2.1036   -0.2064   -2.8938 C   0  0  0  0  0  0  0  0  0  0  0  0
   -1.5763   -3.1171   -1.6808 C   0  0  0  0  0  0  0  0  0  0  0  0
    1.5778   -3.1164   -1.6810 C   0  0  0  0  0  0  0  0  0  0  0  0
    2.1036   -0.2052   -2.8938 C   0  0  0  0  0  0  0  0  0  0  0  0
   -2.1609   -0.3723   -0.3469 C   0  0  2  0  0  0  0  0  0  0  0  0
    2.7089    1.0140   -0.0595 C   0  0  0  0  0  0  0  0  0  0  0  0
    3.8693    1.4670   -0.7184 C   0  0  0  0  0  0  0  0  0  0  0  0
    4.3547    2.7650   -0.5011 C   0  0  0  0  0  0  0  0  0  0  0  0
    3.6964    3.6220    0.3950 C   0  0  0  0  0  0  0  0  0  0  0  0
    2.5611    3.1651    1.0824 C   0  0  0  0  0  0  0  0  0  0  0  0
    2.0711    1.8707    0.8580 C   0  0  0  0  0  0  0  0  0  0  0  0
   -2.7093    1.0131   -0.0595 C   0  0  0  0  0  0  0  0  0  0  0  0
   -3.8699    1.4657   -0.7184 C   0  0  0  0  0  0  0  0  0  0  0  0
   -4.3557    2.7635   -0.5012 C   0  0  0  0  0  0  0  0  0  0  0  0
   -3.6977    3.6208    0.3949 C   0  0  0  0  0  0  0  0  0  0  0  0
   -2.5622    3.1644    1.0822 C   0  0  0  0  0  0  0  0  0  0  0  0
   -2.0718    1.8701    0.8579 C   0  0  0  0  0  0  0  0  0  0  0  0
    3.0272   -1.0545   -0.5084 H   0  0  0  0  0  0  0  0  0  0  0  0
   -0.9369    2.2910   -1.7068 H   0  0  0  0  0  0  0  0  0  0  0  0
    0.9358    2.2914   -1.7069 H   0  0  0  0  0  0  0  0  0  0  0  0
   -1.5013   -0.3945   -3.8036 H   0  0  0  0  0  0  0  0  0  0  0  0
   -2.4294    0.8508   -2.9133 H   0  0  0  0  0  0  0  0  0  0  0  0
   -3.0093   -0.8455   -2.9397 H   0  0  0  0  0  0  0  0  0  0  0  0
   -1.0339   -4.0418   -1.9532 H   0  0  0  0  0  0  0  0  0  0  0  0
   -2.4250   -2.9972   -2.3855 H   0  0  0  0  0  0  0  0  0  0  0  0
   -2.0057   -3.2872   -0.6698 H   0  0  0  0  0  0  0  0  0  0  0  0
    1.0370   -4.0405   -1.9588 H   0  0  0  0  0  0  0  0  0  0  0  0
    2.4293   -2.9939   -2.3816 H   0  0  0  0  0  0  0  0  0  0  0  0
    2.0028   -3.2895   -0.6687 H   0  0  0  0  0  0  0  0  0  0  0  0
    2.4292    0.8520   -2.9131 H   0  0  0  0  0  0  0  0  0  0  0  0
    1.5015   -0.3933   -3.8037 H   0  0  0  0  0  0  0  0  0  0  0  0
    3.0096   -0.8441   -2.9399 H   0  0  0  0  0  0  0  0  0  0  0  0
   -3.0269   -1.0555   -0.5083 H   0  0  0  0  0  0  0  0  0  0  0  0
    4.4069    0.7926   -1.4024 H   0  0  0  0  0  0  0  0  0  0  0  0
    5.2613    3.1037   -1.0254 H   0  0  0  0  0  0  0  0  0  0  0  0
    4.0794    4.6387    0.5708 H   0  0  0  0  0  0  0  0  0  0  0  0
    2.0518    3.8205    1.8052 H   0  0  0  0  0  0  0  0  0  0  0  0
    1.1974    1.5103    1.4175 H   0  0  0  0  0  0  0  0  0  0  0  0
   -4.4072    0.7911   -1.4023 H   0  0  0  0  0  0  0  0  0  0  0  0
   -5.2624    3.1019   -1.0254 H   0  0  0  0  0  0  0  0  0  0  0  0
   -4.0811    4.6374    0.5707 H   0  0  0  0  0  0  0  0  0  0  0  0
   -2.0532    3.8199    1.8050 H   0  0  0  0  0  0  0  0  0  0  0  0
   -1.1979    1.5100    1.4175 H   0  0  0  0  0  0  0  0  0  0  0  0
  3 27  1  6  0  0  0
  3 15  1  0  0  0  0
  3  1  1  0  0  0  0
  4 13  1  6  0  0  0
  4  5  1  0  0  0  0
  4  3  1  0  0  0  0
  6 10  1  6  0  0  0
  6  5  1  0  0  0  0
  6 14  1  0  0  0  0
  7  6  1  0  0  0  0
  8  7  2  0  0  0  0
  8  4  1  0  0  0  0
  9  5  2  0  0  0  0
 11  7  1  0  0  0  0
 11 35  1  0  0  0  0
 12  8  1  0  0  0  0
 12 38  1  0  0  0  0
 14 42  1  6  0  0  0
 14 21  1  0  0  0  0
 14  2  1  0  0  0  0
 15 20  1  0  0  0  0
 16 17  1  0  0  0  0
 16 15  2  0  0  0  0
 17 18  2  0  0  0  0
 18 45  1  0  0  0  0
 18 19  1  0  0  0  0
 19 46  1  0  0  0  0
 20 19  2  0  0  0  0
 20 47  1  0  0  0  0
 21 26  1  0  0  0  0
 22 23  1  0  0  0  0
 22 21  2  0  0  0  0
 23 24  2  0  0  0  0
 24 50  1  0  0  0  0
 24 25  1  0  0  0  0
 25 51  1  0  0  0  0
 26 25  2  0  0  0  0
 26 52  1  0  0  0  0
 28  9  1  0  0  0  0
 29  9  1  0  0  0  0
 30 10  1  0  0  0  0
 31 10  1  0  0  0  0
 32 10  1  0  0  0  0
 33 11  1  0  0  0  0
 34 11  1  0  0  0  0
 36 12  1  0  0  0  0
 37 12  1  0  0  0  0
 39 13  1  0  0  0  0
 40 13  1  0  0  0  0
 41 13  1  0  0  0  0
 43 16  1  0  0  0  0
 44 17  1  0  0  0  0
 48 22  1  0  0  0  0
 49 23  1  0  0  0  0
M  END
