1,2
 OpenBabel05122313063D

 23 23  0  0  1  0  0  0  0  0999 V2000
   -0.6154    0.2599   -0.0000 O   0  5  0  0  0  0  0  0  0  0  0  0
    1.7836    1.5045    0.0012 O   0  0  0  0  0  1  0  0  0  0  0  0
   -2.4733    1.5830   -0.0001 N   0  0  0  0  0  0  0  0  0  0  0  0
   -3.5053    0.6227   -0.0001 C   0  0  0  0  0  0  0  0  0  0  0  0
   -4.8297    1.1178    0.0003 C   0  0  0  0  0  0  0  0  0  0  0  0
   -5.9163    0.2376    0.0003 C   0  0  0  0  0  0  0  0  0  0  0  0
   -5.6994   -1.1497   -0.0002 C   0  0  0  0  0  0  0  0  0  0  0  0
   -4.3843   -1.6393   -0.0006 C   0  0  0  0  0  0  0  0  0  0  0  0
   -3.2825   -0.7729   -0.0006 C   0  0  0  0  0  0  0  0  0  0  0  0
   -1.1168    1.4214    0.0001 C   0  0  0  0  0  0  0  0  0  0  0  0
   -0.3153    2.6273    0.0004 C   0  0  0  0  0  0  0  0  0  0  0  0
    1.0664    2.6104    0.0006 C   0  0  2  0  0  3  0  0  0  0  0  0
    1.8919    3.8631    0.0000 C   0  0  0  0  0  0  0  0  0  0  0  0
   -2.7947    2.5527    0.0009 H   0  0  0  0  0  0  0  0  0  0  0  0
   -5.0041    2.2063    0.0006 H   0  0  0  0  0  0  0  0  0  0  0  0
   -6.9399    0.6411    0.0006 H   0  0  0  0  0  0  0  0  0  0  0  0
   -6.5521   -1.8445   -0.0001 H   0  0  0  0  0  0  0  0  0  0  0  0
   -4.2011   -2.7243   -0.0010 H   0  0  0  0  0  0  0  0  0  0  0  0
   -2.2613   -1.1683   -0.0010 H   0  0  0  0  0  0  0  0  0  0  0  0
   -0.8182    3.6043   -0.0000 H   0  0  0  0  0  0  0  0  0  0  0  0
    1.2691    4.7757    0.0004 H   0  0  0  0  0  0  0  0  0  0  0  0
    2.5544    3.8684    0.8897 H   0  0  0  0  0  0  0  0  0  0  0  0
    2.5531    3.8684   -0.8906 H   0  0  0  0  0  0  0  0  0  0  0  0
  1 10  1  0  0  0  0
  3 10  1  0  0  0  0
  3 14  1  0  0  0  0
  4  3  1  0  0  0  0
  4  5  1  0  0  0  0
  5  6  2  0  0  0  0
  5 15  1  0  0  0  0
  6 16  1  0  0  0  0
  7 17  1  0  0  0  0
  7  6  1  0  0  0  0
  8  9  1  0  0  0  0
  8  7  2  0  0  0  0
  9  4  2  0  0  0  0
 10 11  2  0  0  0  0
 11 12  1  0  0  0  0
 12  2  1  6  0  0  0
 13 21  1  0  0  0  0
 13 12  1  0  0  0  0
 13 22  1  0  0  0  0
 18  8  1  0  0  0  0
 19  9  1  0  0  0  0
 20 11  1  0  0  0  0
 23 13  1  0  0  0  0
M  CHG  1   1  -1
M  END
