1,2
 OpenBabel05122313063D

 58 59  0  0  0  0  0  0  0  0999 V2000
   -0.9410   -0.4995   -1.1321 O   0  5  0  0  0  0  0  0  0  0  0  0
    1.2363   -0.7506    0.7617 O   0  5  0  0  0  0  0  0  0  0  0  0
   -0.5222    1.4615    0.1727 C   0  0  0  0  0  0  0  0  0  0  0  0
   -1.0070    2.4399    1.0827 C   0  0  0  0  0  0  0  0  0  0  0  0
    1.7893    0.3588    0.2035 C   0  0  0  0  0  0  0  0  0  0  0  0
   -1.4471    0.5791   -0.4613 C   0  0  0  0  0  0  0  0  0  0  0  0
    0.9370    1.4392   -0.1767 C   0  0  0  0  0  0  0  0  0  0  0  0
    1.4817    2.5597   -0.8594 C   0  0  0  0  0  0  0  0  0  0  0  0
    3.1987    0.4281    0.0092 C   0  0  0  0  0  0  0  0  0  0  0  0
    3.6953    1.5856   -0.6131 C   0  0  0  0  0  0  0  0  0  0  0  0
    4.7774    1.6795   -0.7783 H   0  0  0  0  0  0  0  0  0  0  0  0
   -0.0658    3.3140    1.8728 C   0  0  0  0  0  0  0  0  0  0  0  0
    0.9877    3.0055    1.7498 H   0  0  0  0  0  0  0  0  0  0  0  0
   -0.3129    3.2818    2.9542 H   0  0  0  0  0  0  0  0  0  0  0  0
   -0.1461    4.3800    1.5688 H   0  0  0  0  0  0  0  0  0  0  0  0
   -2.8538    0.7765   -0.3676 C   0  0  0  0  0  0  0  0  0  0  0  0
    2.8796    2.6335   -1.0690 C   0  0  0  0  0  0  0  0  0  0  0  0
   -3.2818    1.7948    0.5004 C   0  0  0  0  0  0  0  0  0  0  0  0
   -4.3586    1.9766    0.6214 H   0  0  0  0  0  0  0  0  0  0  0  0
   -2.4034    2.5925    1.2556 C   0  0  0  0  0  0  0  0  0  0  0  0
    0.6077    3.6753   -1.3789 C   0  0  0  0  0  0  0  0  0  0  0  0
   -0.4678    3.4343   -1.3084 H   0  0  0  0  0  0  0  0  0  0  0  0
    0.8416    3.8942   -2.4411 H   0  0  0  0  0  0  0  0  0  0  0  0
    0.7799    4.6229   -0.8238 H   0  0  0  0  0  0  0  0  0  0  0  0
    4.1343   -0.7290    0.4127 C   0  0  0  0  0  0  0  0  0  0  0  0
   -3.8534   -0.0585   -1.1951 C   0  0  0  0  0  0  0  0  0  0  0  0
    3.4939    3.8200   -1.7687 C   0  0  0  0  0  0  0  0  0  0  0  0
    3.1252    3.9229   -2.8123 H   0  0  0  0  0  0  0  0  0  0  0  0
    4.5968    3.7328   -1.8112 H   0  0  0  0  0  0  0  0  0  0  0  0
    3.2494    4.7768   -1.2598 H   0  0  0  0  0  0  0  0  0  0  0  0
   -2.9520    3.6205    2.2128 C   0  0  0  0  0  0  0  0  0  0  0  0
   -2.6282    3.4255    3.2578 H   0  0  0  0  0  0  0  0  0  0  0  0
   -4.0589    3.6313    2.2008 H   0  0  0  0  0  0  0  0  0  0  0  0
   -2.6001    4.6454    1.9678 H   0  0  0  0  0  0  0  0  0  0  0  0
   -3.8783   -1.5294   -0.7201 C   0  0  0  0  0  0  0  0  0  0  0  0
   -2.8982   -2.0229   -0.8491 H   0  0  0  0  0  0  0  0  0  0  0  0
   -4.6302   -2.1031   -1.3011 H   0  0  0  0  0  0  0  0  0  0  0  0
   -4.1515   -1.5946    0.3525 H   0  0  0  0  0  0  0  0  0  0  0  0
    3.8424   -1.9414   -0.5020 C   0  0  0  0  0  0  0  0  0  0  0  0
    2.7780   -2.2337   -0.4609 H   0  0  0  0  0  0  0  0  0  0  0  0
    4.4566   -2.8161   -0.2004 H   0  0  0  0  0  0  0  0  0  0  0  0
    4.0859   -1.6979   -1.5562 H   0  0  0  0  0  0  0  0  0  0  0  0
    3.9295   -1.1075    1.8981 C   0  0  0  0  0  0  0  0  0  0  0  0
    4.1648   -0.2442    2.5538 H   0  0  0  0  0  0  0  0  0  0  0  0
    4.6092   -1.9403    2.1753 H   0  0  0  0  0  0  0  0  0  0  0  0
    2.8886   -1.4171    2.1000 H   0  0  0  0  0  0  0  0  0  0  0  0
   -3.4601    0.0041   -2.6899 C   0  0  0  0  0  0  0  0  0  0  0  0
   -3.4912    1.0498   -3.0576 H   0  0  0  0  0  0  0  0  0  0  0  0
   -4.1711   -0.5936   -3.2975 H   0  0  0  0  0  0  0  0  0  0  0  0
   -2.4398   -0.3887   -2.8554 H   0  0  0  0  0  0  0  0  0  0  0  0
    5.6193   -0.3589    0.2365 C   0  0  0  0  0  0  0  0  0  0  0  0
    5.8764   -0.1409   -0.8195 H   0  0  0  0  0  0  0  0  0  0  0  0
    6.2502   -1.2116    0.5596 H   0  0  0  0  0  0  0  0  0  0  0  0
    5.9021    0.5197    0.8511 H   0  0  0  0  0  0  0  0  0  0  0  0
   -5.2881    0.4885   -1.0671 C   0  0  0  0  0  0  0  0  0  0  0  0
   -5.6759    0.4102   -0.0313 H   0  0  0  0  0  0  0  0  0  0  0  0
   -5.9651   -0.1007   -1.7180 H   0  0  0  0  0  0  0  0  0  0  0  0
   -5.3563    1.5487   -1.3837 H   0  0  0  0  0  0  0  0  0  0  0  0
  1  6  1  0  0  0  0
  3  4  1  0  0  0  0
  4 20  2  0  0  0  0
  4 12  1  0  0  0  0
  5  2  1  0  0  0  0
  6 16  1  0  0  0  0
  6  3  2  0  0  0  0
  7  3  1  0  0  0  0
  7  5  2  0  0  0  0
  8  7  1  0  0  0  0
  9  5  1  0  0  0  0
  9 25  1  0  0  0  0
 10  9  2  0  0  0  0
 11 10  1  0  0  0  0
 12 14  1  0  0  0  0
 13 12  1  0  0  0  0
 15 12  1  0  0  0  0
 16 18  2  0  0  0  0
 17  8  2  0  0  0  0
 17 10  1  0  0  0  0
 18 19  1  0  0  0  0
 18 20  1  0  0  0  0
 20 31  1  0  0  0  0
 21 22  1  0  0  0  0
 21  8  1  0  0  0  0
 21 24  1  0  0  0  0
 23 21  1  0  0  0  0
 25 43  1  0  0  0  0
 26 55  1  0  0  0  0
 26 35  1  0  0  0  0
 26 16  1  0  0  0  0
 27 30  1  0  0  0  0
 27 17  1  0  0  0  0
 28 27  1  0  0  0  0
 29 27  1  0  0  0  0
 31 32  1  0  0  0  0
 33 31  1  0  0  0  0
 34 31  1  0  0  0  0
 35 38  1  0  0  0  0
 36 35  1  0  0  0  0
 37 35  1  0  0  0  0
 39 40  1  0  0  0  0
 39 41  1  0  0  0  0
 39 25  1  0  0  0  0
 42 39  1  0  0  0  0
 43 46  1  0  0  0  0
 43 45  1  0  0  0  0
 43 44  1  0  0  0  0
 47 26  1  0  0  0  0
 48 47  1  0  0  0  0
 49 47  1  0  0  0  0
 50 47  1  0  0  0  0
 51 25  1  0  0  0  0
 51 53  1  0  0  0  0
 51 54  1  0  0  0  0
 52 51  1  0  0  0  0
 55 56  1  0  0  0  0
 57 55  1  0  0  0  0
 58 55  1  0  0  0  0
M  CHG  2   1  -1   2  -1
M  END
