1,2
 OpenBabel05122313063D

 35 38  0  0  1  0  0  0  0  0999 V2000
   -2.1582   -0.7056   -0.2515 O   0  5  0  0  0  0  0  0  0  0  0  0
    0.5681    0.0083   -0.2335 O   0  0  0  0  0  1  0  0  0  0  0  0
   -1.4966    4.0086    0.3614 O   0  0  0  0  0  0  0  0  0  0  0  0
   -2.2410    0.5550   -0.1217 C   0  0  0  0  0  0  0  0  0  0  0  0
   -1.2220    1.5599    0.0333 C   0  0  0  0  0  0  0  0  0  0  0  0
    0.1799    1.2308   -0.0840 C   0  0  2  0  0  3  0  0  0  0  0  0
   -1.9198    2.8625    0.1749 C   0  0  0  0  0  0  0  0  0  0  0  0
   -3.3944    2.5759    0.0589 C   0  0  0  0  0  0  0  0  0  0  0  0
   -4.4766    3.4514    0.1230 C   0  0  0  0  0  0  0  0  0  0  0  0
   -5.7701    2.9072   -0.0192 C   0  0  0  0  0  0  0  0  0  0  0  0
   -5.9561    1.5251   -0.2122 C   0  0  0  0  0  0  0  0  0  0  0  0
   -4.8553    0.6460   -0.2686 C   0  0  0  0  0  0  0  0  0  0  0  0
   -3.5802    1.1987   -0.1334 C   0  0  0  0  0  0  0  0  0  0  0  0
    1.2646    3.5646    0.1307 C   0  0  0  0  0  0  0  0  0  0  0  0
    1.2844    2.1845   -0.1159 C   0  0  0  0  0  0  0  0  0  0  0  0
    2.6802    1.8457   -0.3756 C   0  0  0  0  0  0  0  0  0  0  0  0
    3.3792    0.6642   -0.6973 C   0  0  0  0  0  0  0  0  0  0  0  0
    4.7654    0.7192   -0.8887 C   0  0  0  0  0  0  0  0  0  0  0  0
    5.4780    1.9338   -0.7683 C   0  0  0  0  0  0  0  0  0  0  0  0
    4.8131    3.1269   -0.4558 C   0  0  0  0  0  0  0  0  0  0  0  0
    3.4240    3.0609   -0.2663 C   0  0  0  0  0  0  0  0  0  0  0  0
    2.8911    5.4650    0.2574 C   0  0  0  0  0  0  0  0  0  0  0  0
    2.5271    4.0805    0.0457 N   0  0  0  0  0  0  0  0  0  0  0  0
   -4.3085    4.5273    0.2803 H   0  0  0  0  0  0  0  0  0  0  0  0
   -6.6489    3.5689    0.0238 H   0  0  0  0  0  0  0  0  0  0  0  0
   -6.9768    1.1267   -0.3163 H   0  0  0  0  0  0  0  0  0  0  0  0
   -4.9874   -0.4369   -0.4090 H   0  0  0  0  0  0  0  0  0  0  0  0
    0.3854    4.1809    0.3639 H   0  0  0  0  0  0  0  0  0  0  0  0
    2.8254   -0.2761   -0.7860 H   0  0  0  0  0  0  0  0  0  0  0  0
    5.3133   -0.2032   -1.1365 H   0  0  0  0  0  0  0  0  0  0  0  0
    6.5674    1.9452   -0.9226 H   0  0  0  0  0  0  0  0  0  0  0  0
    5.3612    4.0759   -0.3635 H   0  0  0  0  0  0  0  0  0  0  0  0
    1.9815    6.0475    0.4897 H   0  0  0  0  0  0  0  0  0  0  0  0
    3.6031    5.5615    1.1034 H   0  0  0  0  0  0  0  0  0  0  0  0
    3.3666    5.8917   -0.6502 H   0  0  0  0  0  0  0  0  0  0  0  0
  1  4  1  0  0  0  0
  4  5  2  0  0  0  0
  5  7  1  0  0  0  0
  6  2  1  6  0  0  0
  6  5  1  0  0  0  0
  7  3  2  0  0  0  0
  8  9  1  0  0  0  0
  8  7  1  0  0  0  0
  9 24  1  0  0  0  0
 10 25  1  0  0  0  0
 10  9  2  0  0  0  0
 11 10  1  0  0  0  0
 12 11  2  0  0  0  0
 12 13  1  0  0  0  0
 13  4  1  0  0  0  0
 13  8  2  0  0  0  0
 14 28  1  0  0  0  0
 15  6  1  0  0  0  0
 15 14  2  0  0  0  0
 16 21  1  0  0  0  0
 16 15  1  0  0  0  0
 17 16  2  0  0  0  0
 18 19  2  0  0  0  0
 18 17  1  0  0  0  0
 19 20  1  0  0  0  0
 20 32  1  0  0  0  0
 20 21  2  0  0  0  0
 21 23  1  0  0  0  0
 22 33  1  0  0  0  0
 22 34  1  0  0  0  0
 23 14  1  0  0  0  0
 23 22  1  0  0  0  0
 26 11  1  0  0  0  0
 27 12  1  0  0  0  0
 29 17  1  0  0  0  0
 30 18  1  0  0  0  0
 31 19  1  0  0  0  0
 35 22  1  0  0  0  0
M  CHG  1   1  -1
M  END
