1,2
 OpenBabel05122313063D

 20 22  0  0  0  0  0  0  0  0999 V2000
   -0.3796   -1.4002   -0.0003 O   0  5  0  0  0  0  0  0  0  0  0  0
   -0.3799    1.3994   -0.0004 O   0  5  0  0  0  0  0  0  0  0  0  0
    0.6775   -0.7768   -0.0002 C   0  0  0  0  0  0  0  0  0  0  0  0
    0.6773    0.7763   -0.0003 C   0  0  0  0  0  0  0  0  0  0  0  0
    2.0826   -1.2015   -0.0002 C   0  0  0  0  0  0  0  0  0  0  0  0
    2.7238   -2.4357   -0.0000 C   0  0  0  0  0  0  0  0  0  0  0  0
    4.1461   -2.4545    0.0001 C   0  0  0  0  0  0  0  0  0  0  0  0
    4.9061   -1.2817    0.0001 C   0  0  0  0  0  0  0  0  0  0  0  0
    4.2760    0.0002    0.0000 C   0  0  0  0  0  0  0  0  0  0  0  0
    2.8579    0.0000   -0.0001 C   0  0  0  0  0  0  0  0  0  0  0  0
    2.0823    1.2014   -0.0002 C   0  0  0  0  0  0  0  0  0  0  0  0
    2.7232    2.4357   -0.0001 C   0  0  0  0  0  0  0  0  0  0  0  0
    4.1454    2.4549    0.0001 C   0  0  0  0  0  0  0  0  0  0  0  0
    4.9058    1.2823    0.0001 C   0  0  0  0  0  0  0  0  0  0  0  0
    2.1460   -3.3714   -0.0000 H   0  0  0  0  0  0  0  0  0  0  0  0
    4.6639   -3.4251    0.0002 H   0  0  0  0  0  0  0  0  0  0  0  0
    6.0054   -1.3430    0.0002 H   0  0  0  0  0  0  0  0  0  0  0  0
    2.1451    3.3713   -0.0001 H   0  0  0  0  0  0  0  0  0  0  0  0
    4.6630    3.4256    0.0002 H   0  0  0  0  0  0  0  0  0  0  0  0
    6.0050    1.3439    0.0002 H   0  0  0  0  0  0  0  0  0  0  0  0
  1  3  1  0  0  0  0
  2  4  1  0  0  0  0
  3  5  1  0  0  0  0
  4  3  2  0  0  0  0
  4 11  1  0  0  0  0
  5 10  2  0  0  0  0
  5  6  1  0  0  0  0
  6  7  2  0  0  0  0
  7  8  1  0  0  0  0
  7 16  1  0  0  0  0
  8 17  1  0  0  0  0
  9 14  1  0  0  0  0
  9  8  2  0  0  0  0
 10  9  1  0  0  0  0
 11 10  1  0  0  0  0
 11 12  2  0  0  0  0
 12 13  1  0  0  0  0
 13 14  2  0  0  0  0
 13 19  1  0  0  0  0
 14 20  1  0  0  0  0
 15  6  1  0  0  0  0
 18 12  1  0  0  0  0
M  CHG  2   1  -1   2  -1
M  END
