47,49
 OpenBabel05122313063D

 53 55  0  0  0  0  0  0  0  0999 V2000
    2.7066    0.1064    1.0047 C   0  0  0  0  0  0  0  0  0  0  0  0
    2.9604    0.3576    2.0544 H   0  0  0  0  0  0  0  0  0  0  0  0
    2.7834   -1.3465    0.9132 N   0  0  0  0  0  0  0  0  0  0  0  0
    2.5826   -1.9627   -0.2673 N   0  0  0  0  0  0  0  0  0  0  0  0
    2.7458   -3.2742   -0.0225 C   0  0  0  0  0  0  0  0  0  0  0  0
    3.0585   -3.4924    1.3516 C   0  0  0  0  0  0  0  0  0  0  0  0
    3.2471   -4.4426    1.8596 H   0  0  0  0  0  0  0  0  0  0  0  0
    3.0799   -2.2226    1.9202 C   0  0  0  0  0  0  0  0  0  0  0  0
    3.2809   -1.8760    2.9399 H   0  0  0  0  0  0  0  0  0  0  0  0
    2.5838   -4.2793   -1.1524 C   0  0  0  0  0  0  0  0  0  0  0  0
    3.6250   -3.9680   -2.2496 C   0  0  0  0  0  0  0  0  0  0  0  0
    3.5098   -4.6634   -3.1069 H   0  0  0  0  0  0  0  0  0  0  0  0
    4.6570   -4.0690   -1.8566 H   0  0  0  0  0  0  0  0  0  0  0  0
    3.5030   -2.9301   -2.6161 H   0  0  0  0  0  0  0  0  0  0  0  0
    1.1613   -4.1430   -1.7383 C   0  0  0  0  0  0  0  0  0  0  0  0
    1.0208   -4.8391   -2.5912 H   0  0  0  0  0  0  0  0  0  0  0  0
    0.9856   -3.1082   -2.0915 H   0  0  0  0  0  0  0  0  0  0  0  0
    0.3934   -4.3741   -0.9720 H   0  0  0  0  0  0  0  0  0  0  0  0
    2.7948   -5.7089   -0.6287 C   0  0  0  0  0  0  0  0  0  0  0  0
    2.6745   -6.4409   -1.4529 H   0  0  0  0  0  0  0  0  0  0  0  0
    2.0586   -5.9648    0.1604 H   0  0  0  0  0  0  0  0  0  0  0  0
    3.8118   -5.8406   -0.2064 H   0  0  0  0  0  0  0  0  0  0  0  0
    3.7696    0.7320    0.2322 N   0  0  0  0  0  0  0  0  0  0  0  0
    4.8292    1.2694    0.8765 N   0  0  0  0  0  0  0  0  0  0  0  0
    5.6443    1.7167   -0.0938 C   0  0  0  0  0  0  0  0  0  0  0  0
    5.0885    1.4476   -1.3802 C   0  0  0  0  0  0  0  0  0  0  0  0
    5.5113    1.6851   -2.3609 H   0  0  0  0  0  0  0  0  0  0  0  0
    3.8780    0.8103   -1.1279 C   0  0  0  0  0  0  0  0  0  0  0  0
    3.1021    0.3945   -1.7780 H   0  0  0  0  0  0  0  0  0  0  0  0
    6.9499    2.4074    0.2716 C   0  0  0  0  0  0  0  0  0  0  0  0
    6.6323    3.6663    1.1076 C   0  0  0  0  0  0  0  0  0  0  0  0
    7.5673    4.1761    1.4209 H   0  0  0  0  0  0  0  0  0  0  0  0
    6.0569    3.3931    2.0136 H   0  0  0  0  0  0  0  0  0  0  0  0
    6.0243    4.3866    0.5230 H   0  0  0  0  0  0  0  0  0  0  0  0
    7.8108    1.4375    1.1097 C   0  0  0  0  0  0  0  0  0  0  0  0
    8.7560    1.9255    1.4266 H   0  0  0  0  0  0  0  0  0  0  0  0
    8.0673    0.5305    0.5255 H   0  0  0  0  0  0  0  0  0  0  0  0
    7.2583    1.1133    2.0130 H   0  0  0  0  0  0  0  0  0  0  0  0
    7.7139    2.8106   -0.9998 C   0  0  0  0  0  0  0  0  0  0  0  0
    8.6668    3.3109   -0.7325 H   0  0  0  0  0  0  0  0  0  0  0  0
    7.1249    3.5158   -1.6209 H   0  0  0  0  0  0  0  0  0  0  0  0
    7.9593    1.9265   -1.6228 H   0  0  0  0  0  0  0  0  0  0  0  0
    1.3332    0.6638    0.6501 C   0  0  0  0  0  0  0  0  0  0  0  0
    0.2097   -0.1680    0.5475 C   0  0  0  0  0  0  0  0  0  0  0  0
    0.2835   -1.2587    0.6493 H   0  0  0  0  0  0  0  0  0  0  0  0
   -1.0452    0.4136    0.2818 C   0  0  0  0  0  0  0  0  0  0  0  0
   -2.1768   -0.2903    0.1516 O   0  5  0  0  0  0  0  0  0  0  0  0
   -1.1770    1.8238    0.1266 C   0  0  0  0  0  0  0  0  0  0  0  0
   -2.4130    2.2675   -0.1250 O   0  5  0  0  0  0  0  0  0  0  0  0
   -0.0417    2.6538    0.2392 C   0  0  0  0  0  0  0  0  0  0  0  0
   -0.1528    3.7412    0.1183 H   0  0  0  0  0  0  0  0  0  0  0  0
    1.2004    2.0683    0.4983 C   0  0  0  0  0  0  0  0  0  0  0  0
    2.0954    2.7026    0.5850 H   0  0  0  0  0  0  0  0  0  0  0  0
  1  2  1  0  0  0  0
  3  1  1  0  0  0  0
  3  8  1  0  0  0  0
  4  5  2  0  0  0  0
  4  3  1  0  0  0  0
  5  6  1  0  0  0  0
  6  7  1  0  0  0  0
  6  8  2  0  0  0  0
  8  9  1  0  0  0  0
 10 19  1  0  0  0  0
 10  5  1  0  0  0  0
 11 13  1  0  0  0  0
 11 10  1  0  0  0  0
 12 11  1  0  0  0  0
 14 11  1  0  0  0  0
 15 10  1  0  0  0  0
 15 18  1  0  0  0  0
 16 15  1  0  0  0  0
 17 15  1  0  0  0  0
 19 22  1  0  0  0  0
 19 21  1  0  0  0  0
 20 19  1  0  0  0  0
 23 24  1  0  0  0  0
 23  1  1  0  0  0  0
 25 30  1  0  0  0  0
 25 24  2  0  0  0  0
 26 28  2  0  0  0  0
 26 25  1  0  0  0  0
 27 26  1  0  0  0  0
 28 23  1  0  0  0  0
 29 28  1  0  0  0  0
 30 31  1  0  0  0  0
 30 35  1  0  0  0  0
 31 32  1  0  0  0  0
 31 33  1  0  0  0  0
 34 31  1  0  0  0  0
 35 36  1  0  0  0  0
 35 38  1  0  0  0  0
 37 35  1  0  0  0  0
 39 40  1  0  0  0  0
 39 30  1  0  0  0  0
 41 39  1  0  0  0  0
 42 39  1  0  0  0  0
 43  1  1  0  0  0  0
 44 45  1  0  0  0  0
 44 43  1  0  0  0  0
 46 44  2  0  0  0  0
 47 46  1  0  0  0  0
 48 50  2  0  0  0  0
 48 46  1  0  0  0  0
 49 48  1  0  0  0  0
 50 52  1  0  0  0  0
 51 50  1  0  0  0  0
 52 53  1  0  0  0  0
 52 43  2  0  0  0  0
M  CHG  2  47  -1  49  -1
M  END
