26,28
 OpenBabel05122313063D

 41 43  0  0  0  0  0  0  0  0999 V2000
    3.7869   -0.1292   -0.7302 C   0  0  0  0  0  0  0  0  0  0  0  0
    4.0731   -0.2880   -1.7878 H   0  0  0  0  0  0  0  0  0  0  0  0
    4.0821    1.2719   -0.4596 N   0  0  0  0  0  0  0  0  0  0  0  0
    3.7286    1.8457    0.7176 N   0  0  0  0  0  0  0  0  0  0  0  0
    4.2919    3.0611    0.7068 C   0  0  0  0  0  0  0  0  0  0  0  0
    5.0357    3.2602   -0.4926 C   0  0  0  0  0  0  0  0  0  0  0  0
    5.6073    4.1455   -0.7922 H   0  0  0  0  0  0  0  0  0  0  0  0
    4.8964    2.0819   -1.2212 C   0  0  0  0  0  0  0  0  0  0  0  0
    4.0973    4.0037    1.8537 C   0  0  0  0  0  0  0  0  0  0  0  0
    3.4838    3.5211    2.6376 H   0  0  0  0  0  0  0  0  0  0  0  0
    3.5844    4.9348    1.5341 H   0  0  0  0  0  0  0  0  0  0  0  0
    5.0673    4.3030    2.3020 H   0  0  0  0  0  0  0  0  0  0  0  0
    5.4823    1.6585   -2.5289 C   0  0  0  0  0  0  0  0  0  0  0  0
    6.0638    0.7194   -2.4168 H   0  0  0  0  0  0  0  0  0  0  0  0
    6.1568    2.4477   -2.9094 H   0  0  0  0  0  0  0  0  0  0  0  0
    4.7031    1.4827   -3.3009 H   0  0  0  0  0  0  0  0  0  0  0  0
    4.7061   -1.0097   -0.0128 N   0  0  0  0  0  0  0  0  0  0  0  0
    5.8186   -1.4166   -0.6795 N   0  0  0  0  0  0  0  0  0  0  0  0
    6.5384   -2.1043    0.2171 C   0  0  0  0  0  0  0  0  0  0  0  0
    5.8774   -2.1258    1.4787 C   0  0  0  0  0  0  0  0  0  0  0  0
    6.2107   -2.6063    2.4056 H   0  0  0  0  0  0  0  0  0  0  0  0
    2.3272   -0.5283   -0.5660 C   0  0  0  0  0  0  0  0  0  0  0  0
    1.3058    0.4188   -0.4011 C   0  0  0  0  0  0  0  0  0  0  0  0
    1.5245    1.4890   -0.2998 H   0  0  0  0  0  0  0  0  0  0  0  0
   -0.0270   -0.0265   -0.3251 C   0  0  0  0  0  0  0  0  0  0  0  0
   -1.0770    0.7903   -0.1540 O   0  5  0  0  0  0  0  0  0  0  0  0
   -0.3408   -1.4088   -0.4180 C   0  0  0  0  0  0  0  0  0  0  0  0
   -1.6422   -1.7138   -0.3219 O   0  5  0  0  0  0  0  0  0  0  0  0
    0.6873   -2.3552   -0.5961 C   0  0  0  0  0  0  0  0  0  0  0  0
    0.4351   -3.4230   -0.6719 H   0  0  0  0  0  0  0  0  0  0  0  0
    2.0100   -1.9064   -0.6734 C   0  0  0  0  0  0  0  0  0  0  0  0
    2.8244   -2.6335   -0.8111 H   0  0  0  0  0  0  0  0  0  0  0  0
    4.6966   -1.4040    1.3075 C   0  0  0  0  0  0  0  0  0  0  0  0
    7.8443   -2.7283   -0.1677 C   0  0  0  0  0  0  0  0  0  0  0  0
    7.8269   -3.8299   -0.0331 H   0  0  0  0  0  0  0  0  0  0  0  0
    8.6795   -2.3377    0.4500 H   0  0  0  0  0  0  0  0  0  0  0  0
    8.0655   -2.5115   -1.2299 H   0  0  0  0  0  0  0  0  0  0  0  0
    3.6037   -1.0817    2.2736 C   0  0  0  0  0  0  0  0  0  0  0  0
    3.3314   -0.0091    2.2112 H   0  0  0  0  0  0  0  0  0  0  0  0
    3.9384   -1.3149    3.3019 H   0  0  0  0  0  0  0  0  0  0  0  0
    2.6864   -1.6696    2.0624 H   0  0  0  0  0  0  0  0  0  0  0  0
  1 22  1  0  0  0  0
  1  3  1  0  0  0  0
  1 17  1  0  0  0  0
  2  1  1  0  0  0  0
  3  4  1  0  0  0  0
  5  4  2  0  0  0  0
  5  9  1  0  0  0  0
  6  5  1  0  0  0  0
  7  6  1  0  0  0  0
  8  6  2  0  0  0  0
  8  3  1  0  0  0  0
  9 12  1  0  0  0  0
  9 10  1  0  0  0  0
 11  9  1  0  0  0  0
 13 14  1  0  0  0  0
 13  8  1  0  0  0  0
 15 13  1  0  0  0  0
 16 13  1  0  0  0  0
 17 33  1  0  0  0  0
 18 17  1  0  0  0  0
 18 19  2  0  0  0  0
 19 20  1  0  0  0  0
 20 21  1  0  0  0  0
 22 23  1  0  0  0  0
 23 25  2  0  0  0  0
 23 24  1  0  0  0  0
 25 26  1  0  0  0  0
 27 25  1  0  0  0  0
 27 28  1  0  0  0  0
 29 27  2  0  0  0  0
 30 29  1  0  0  0  0
 31 29  1  0  0  0  0
 31 22  2  0  0  0  0
 32 31  1  0  0  0  0
 33 20  2  0  0  0  0
 33 38  1  0  0  0  0
 34 35  1  0  0  0  0
 34 19  1  0  0  0  0
 34 36  1  0  0  0  0
 37 34  1  0  0  0  0
 38 40  1  0  0  0  0
 39 38  1  0  0  0  0
 41 38  1  0  0  0  0
M  CHG  2  26  -1  28  -1
M  END
