1,2
 OpenBabel05122313063D

 25 25  0  0  0  0  0  0  0  0999 V2000
    0.5915   -2.2358   -0.3437 O   0  5  0  0  0  0  0  0  0  0  0  0
    1.8171   -0.7595    0.7593 O   0  5  0  0  0  0  0  0  0  0  0  0
    6.7142   -0.6698    0.7708 O   0  0  0  0  0  0  0  0  0  0  0  0
    4.4183   -0.9393    0.6726 N   0  0  0  0  0  0  0  0  0  0  0  0
    3.4901   -0.5159    0.8839 H   0  0  0  0  0  0  0  0  0  0  0  0
    1.7269   -1.8684    0.1010 C   0  0  0  0  0  3  0  0  0  0  0  0
    2.9473   -2.6813   -0.1662 C   0  0  0  0  0  0  0  0  0  0  0  0
    4.2719   -2.2080    0.1129 C   0  0  0  0  0  0  0  0  0  0  0  0
    5.3760   -3.0364   -0.2036 C   0  0  0  0  0  0  0  0  0  0  0  0
    6.3815   -2.6558    0.0099 H   0  0  0  0  0  0  0  0  0  0  0  0
    5.1691   -4.2978   -0.7707 C   0  0  0  0  0  0  0  0  0  0  0  0
    6.0432   -4.9262   -1.0024 H   0  0  0  0  0  0  0  0  0  0  0  0
    3.8728   -4.7696   -1.0450 C   0  0  0  0  0  0  0  0  0  0  0  0
    3.7213   -5.7644   -1.4892 H   0  0  0  0  0  0  0  0  0  0  0  0
    2.7776   -3.9557   -0.7454 C   0  0  0  0  0  0  0  0  0  0  0  0
    1.7471   -4.2805   -0.9491 H   0  0  0  0  0  0  0  0  0  0  0  0
    5.5743   -0.2367    0.9529 C   0  0  0  0  0  0  0  0  0  0  0  0
    5.3208    1.1527    1.5106 C   0  0  0  0  0  0  0  0  0  0  0  0
    3.9153    1.6853    1.6289 C   0  0  0  0  0  0  0  0  0  0  0  0
    3.9134    2.7147    2.0357 H   0  0  0  0  0  0  0  0  0  0  0  0
    3.2837    1.0545    2.2894 H   0  0  0  0  0  0  0  0  0  0  0  0
    3.4021    1.7032    0.6441 H   0  0  0  0  0  0  0  0  0  0  0  0
    6.4097    1.8652    1.8690 C   0  0  0  0  0  0  0  0  0  0  0  0
    7.4082    1.4177    1.7505 H   0  0  0  0  0  0  0  0  0  0  0  0
    6.3232    2.8837    2.2777 H   0  0  0  0  0  0  0  0  0  0  0  0
  1  6  1  0  0  0  0
  3 17  2  0  0  0  0
  4  5  1  0  0  0  0
  4 17  1  0  0  0  0
  6  2  1  0  0  0  0
  7  6  1  0  0  0  0
  7  8  1  0  0  0  0
  8  4  1  0  0  0  0
  9 10  1  0  0  0  0
  9  8  2  0  0  0  0
 11  9  1  0  0  0  0
 12 11  1  0  0  0  0
 13 11  2  0  0  0  0
 13 15  1  0  0  0  0
 14 13  1  0  0  0  0
 15  7  2  0  0  0  0
 16 15  1  0  0  0  0
 17 18  1  0  0  0  0
 18 19  1  0  0  0  0
 18 23  2  0  0  0  0
 19 20  1  0  0  0  0
 19 21  1  0  0  0  0
 22 19  1  0  0  0  0
 23 25  1  0  0  0  0
 24 23  1  0  0  0  0
M  CHG  2   1  -1   2  -1
M  END
