1,2
q = nan, confidence = 0.0

 20 20  0  0  0  0  0  0  0  0999 V2000
    0.7998   -0.6372    1.3328 O   0  5  0  0  0  0  0  0  0  0  0  0
    0.7984   -0.6416   -1.3334 O   0  5  0  0  0  0  0  0  0  0  0  0
    1.9858   -0.4896    0.6862 C   0  0  0  0  0  0  0  0  0  0  0  0
    3.2486   -0.4719    1.4881 C   0  0  0  0  0  0  0  0  0  0  0  0
    3.3192   -1.4222    2.0749 H   0  0  0  0  0  0  0  0  0  0  0  0
    3.1915    0.3196    2.2721 H   0  0  0  0  0  0  0  0  0  0  0  0
    4.5152   -0.2849    0.6786 C   0  0  0  0  0  0  0  0  0  0  0  0
    4.5145   -0.2818   -0.6824 C   0  0  0  0  0  0  0  0  0  0  0  0
    3.2472   -0.4658   -1.4913 C   0  0  0  0  0  0  0  0  0  0  0  0
    3.1886    0.3290   -2.2717 H   0  0  0  0  0  0  0  0  0  0  0  0
    3.3181   -1.4132   -2.0829 H   0  0  0  0  0  0  0  0  0  0  0  0
    1.9857   -0.4878   -0.6875 C   0  0  0  0  0  0  0  0  0  0  0  0
    5.7439   -0.1210    1.5355 C   0  0  0  0  0  0  0  0  0  0  0  0
    6.6848   -0.0460    0.9613 H   0  0  0  0  0  0  0  0  0  0  0  0
    5.8444   -0.9756    2.2401 H   0  0  0  0  0  0  0  0  0  0  0  0
    5.6616    0.7889    2.1702 H   0  0  0  0  0  0  0  0  0  0  0  0
    5.7422   -0.1141   -1.5400 C   0  0  0  0  0  0  0  0  0  0  0  0
    6.6837   -0.0401   -0.9667 H   0  0  0  0  0  0  0  0  0  0  0  0
    5.6584    0.7977   -2.1718 H   0  0  0  0  0  0  0  0  0  0  0  0
    5.8427   -0.9664   -2.2475 H   0  0  0  0  0  0  0  0  0  0  0  0
  2 12  1  0  0  0  0
  3  1  1  0  0  0  0
  3  4  1  0  0  0  0
  4  5  1  0  0  0  0
  4  6  1  0  0  0  0
  7  4  1  0  0  0  0
  7 13  1  0  0  0  0
  8  7  2  0  0  0  0
  9 12  1  0  0  0  0
  9  8  1  0  0  0  0
 10  9  1  0  0  0  0
 11  9  1  0  0  0  0
 12  3  2  0  0  0  0
 13 16  1  0  0  0  0
 13 15  1  0  0  0  0
 14 13  1  0  0  0  0
 17 18  1  0  0  0  0
 17  8  1  0  0  0  0
 19 17  1  0  0  0  0
 20 17  1  0  0  0  0
M  CHG  2   1  -1   2  -1
M  END
