1,3
 OpenBabel05122313063D

 14 14  0  0  0  0  0  0  0  0999 V2000
   -2.0114   -0.7825   -0.7825 O   0  5  0  0  0  0  0  0  0  0  0  0
   -4.1464    2.2366    1.6033 O   0  5  0  0  0  0  0  0  0  0  0  0
   -2.1292    1.8774    0.6954 O   0  0  0  0  0  0  0  0  0  0  0  0
   -3.9599   -1.9109   -0.7297 N   0  0  0  0  0  0  0  0  0  0  0  0
   -3.4749   -2.6224   -1.2864 H   0  0  0  0  0  0  0  0  0  0  0  0
   -5.8685   -1.1806    0.3500 N   0  0  0  0  0  0  0  0  0  0  0  0
   -6.8460   -1.3353    0.6087 H   0  0  0  0  0  0  0  0  0  0  0  0
   -5.8789   -3.2035   -0.7705 O   0  0  0  0  0  0  0  0  0  0  0  0
   -5.2884   -2.1979   -0.4202 C   0  0  0  0  0  0  0  0  0  0  0  0
   -3.1950   -0.7930   -0.3744 C   0  0  0  0  0  0  0  0  0  0  0  0
   -3.3521    1.5490    0.9573 C   0  0  0  0  0  0  0  0  0  0  0  0
   -5.2055   -0.0568    0.7392 C   0  0  0  0  0  3  0  0  0  0  0  0
   -5.7431    0.6946    1.3406 H   0  0  0  0  0  0  0  0  0  0  0  0
   -3.8921    0.2057    0.4227 C   0  0  0  0  0  0  0  0  0  0  0  0
  1 10  1  0  0  0  0
  3 11  2  0  0  0  0
  4  9  1  0  0  0  0
  4 10  1  0  0  0  0
  5  4  1  0  0  0  0
  6  7  1  0  0  0  0
  6 12  1  0  0  0  0
  8  9  2  0  0  0  0
  9  6  1  0  0  0  0
 10 14  2  0  0  0  0
 11  2  1  0  0  0  0
 12 13  1  0  0  0  0
 14 12  1  0  0  0  0
 14 11  1  0  0  0  0
M  CHG  2   1  -1   2  -1
M  END
