3,4
 OpenBabel05122313063D

 28 31  0  0  0  0  0  0  0  0999 V2000
   -1.5318   -3.7748   -0.1254 S   0  0  0  0  0  0  0  0  0  0  0  0
    1.5344   -3.7740    0.1262 S   0  0  0  0  0  0  0  0  0  0  0  0
    1.4019    0.0576   -0.6741 O   0  5  0  0  0  0  0  0  0  0  0  0
   -1.4013    0.0569    0.6748 O   0  5  0  0  0  0  0  0  0  0  0  0
   -1.6483   -1.1670    0.3780 C   0  0  0  0  0  0  0  0  0  0  0  0
   -4.1714   -0.9426    0.7882 C   0  0  0  0  0  0  0  0  0  0  0  0
   -4.0796    0.1379    0.9735 H   0  0  0  0  0  0  0  0  0  0  0  0
   -3.0106   -1.6815    0.4876 C   0  0  0  0  0  0  0  0  0  0  0  0
    3.0121   -1.6800   -0.4871 C   0  0  0  0  0  0  0  0  0  0  0  0
    1.6496   -1.1662   -0.3773 C   0  0  0  0  0  0  0  0  0  0  0  0
   -3.1023   -3.0713    0.2401 C   0  0  0  0  0  0  0  0  0  0  0  0
   -4.3347   -3.7400    0.2841 C   0  0  0  0  0  0  0  0  0  0  0  0
   -4.4010   -4.8203    0.0885 H   0  0  0  0  0  0  0  0  0  0  0  0
   -0.7047   -2.2088    0.0376 C   0  0  0  0  0  0  0  0  0  0  0  0
    4.3373   -3.7379   -0.2838 C   0  0  0  0  0  0  0  0  0  0  0  0
    4.4041   -4.8181   -0.0881 H   0  0  0  0  0  0  0  0  0  0  0  0
    4.1724   -0.9405   -0.7880 C   0  0  0  0  0  0  0  0  0  0  0  0
    4.0801    0.1399   -0.9734 H   0  0  0  0  0  0  0  0  0  0  0  0
    3.1046   -3.0698   -0.2395 C   0  0  0  0  0  0  0  0  0  0  0  0
    5.4840   -2.9883   -0.5872 C   0  0  0  0  0  0  0  0  0  0  0  0
    6.4606   -3.4942   -0.6280 H   0  0  0  0  0  0  0  0  0  0  0  0
    0.7065   -2.2084   -0.0368 C   0  0  0  0  0  0  0  0  0  0  0  0
   -5.4819   -2.9910    0.5872 C   0  0  0  0  0  0  0  0  0  0  0  0
   -6.4582   -3.4974    0.6279 H   0  0  0  0  0  0  0  0  0  0  0  0
    5.4046   -1.6009   -0.8383 C   0  0  0  0  0  0  0  0  0  0  0  0
    6.3200   -1.0380   -1.0735 H   0  0  0  0  0  0  0  0  0  0  0  0
   -5.4032   -1.6035    0.8383 C   0  0  0  0  0  0  0  0  0  0  0  0
   -6.3190   -1.0411    1.0733 H   0  0  0  0  0  0  0  0  0  0  0  0
  1 14  1  0  0  0  0
  1 11  1  0  0  0  0
  3 10  1  0  0  0  0
  5  8  1  0  0  0  0
  5  4  1  0  0  0  0
  6 27  1  0  0  0  0
  6  7  1  0  0  0  0
  8  6  2  0  0  0  0
  9 10  1  0  0  0  0
  9 19  1  0  0  0  0
 10 22  2  0  0  0  0
 11 12  2  0  0  0  0
 11  8  1  0  0  0  0
 12 23  1  0  0  0  0
 13 12  1  0  0  0  0
 14  5  2  0  0  0  0
 15 19  2  0  0  0  0
 15 16  1  0  0  0  0
 17  9  2  0  0  0  0
 18 17  1  0  0  0  0
 19  2  1  0  0  0  0
 20 15  1  0  0  0  0
 21 20  1  0  0  0  0
 22 14  1  0  0  0  0
 22  2  1  0  0  0  0
 23 24  1  0  0  0  0
 23 27  2  0  0  0  0
 25 17  1  0  0  0  0
 25 20  2  0  0  0  0
 26 25  1  0  0  0  0
 27 28  1  0  0  0  0
M  CHG  2   3  -1   4  -1
M  END
