6,9
 OpenBabel05122313063D

 25 25  0  0  1  0  0  0  0  0999 V2000
   -3.1391    1.5080   -0.1696 C   0  0  2  0  0  0  0  0  0  0  0  0
   -3.0518    2.3582    0.5479 H   0  0  0  0  0  0  0  0  0  0  0  0
   -3.8775    1.8777   -1.3093 O   0  0  0  0  0  0  0  0  0  0  0  0
   -1.7380    1.1132   -0.6500 C   0  0  1  0  0  0  0  0  0  0  0  0
   -1.4395    1.8539   -1.4260 H   0  0  0  0  0  0  0  0  0  0  0  0
   -0.8155    1.2043    0.4397 O   0  0  0  0  0  1  0  0  0  0  0  0
   -1.6550   -0.3041   -1.2396 C   0  0  1  0  0  0  0  0  0  0  0  0
   -2.0333   -0.3241   -2.2849 H   0  0  0  0  0  0  0  0  0  0  0  0
   -0.2662   -0.6771   -1.2503 O   0  0  0  0  0  1  0  0  0  0  0  0
   -2.4664   -1.3053   -0.4135 C   0  0  2  0  0  0  0  0  0  0  0  0
   -1.9724   -1.4253    0.5761 H   0  0  0  0  0  0  0  0  0  0  0  0
   -2.5209   -2.5459   -1.1097 O   0  0  0  0  0  0  0  0  0  0  0  0
   -2.4618   -3.2461   -0.4372 H   0  0  0  0  0  0  0  0  0  0  0  0
   -3.8802   -0.7638   -0.1391 C   0  0  2  0  0  0  0  0  0  0  0  0
   -4.4146   -0.6209   -1.1064 H   0  0  0  0  0  0  0  0  0  0  0  0
   -3.7815    0.4848    0.5699 O   0  0  0  0  0  0  0  0  0  0  0  0
   -4.6914   -1.6797    0.7695 C   0  0  0  0  0  0  0  0  0  0  0  0
   -5.7197   -1.2541    0.8772 H   0  0  0  0  0  0  0  0  0  0  0  0
   -4.7878   -2.6708    0.2804 H   0  0  0  0  0  0  0  0  0  0  0  0
   -4.0556   -1.8664    2.0185 O   0  0  0  0  0  0  0  0  0  0  0  0
   -3.8035   -0.9658    2.3076 H   0  0  0  0  0  0  0  0  0  0  0  0
   -5.1377    2.4480   -1.0078 C   0  0  0  0  0  0  0  0  0  0  0  0
   -5.7914    1.7423   -0.4487 H   0  0  0  0  0  0  0  0  0  0  0  0
   -5.6204    2.7078   -1.9692 H   0  0  0  0  0  0  0  0  0  0  0  0
   -5.0290    3.3752   -0.3960 H   0  0  0  0  0  0  0  0  0  0  0  0
  1  2  1  1  0  0  0
  1 16  1  0  0  0  0
  3 22  1  0  0  0  0
  3  1  1  0  0  0  0
  4  5  1  6  0  0  0
  4  1  1  0  0  0  0
  4  6  1  0  0  0  0
  7  8  1  6  0  0  0
  7  4  1  0  0  0  0
  7 10  1  0  0  0  0
  9  7  1  0  0  0  0
 10 14  1  0  0  0  0
 10 11  1  1  0  0  0
 12 13  1  0  0  0  0
 12 10  1  0  0  0  0
 14 15  1  6  0  0  0
 14 16  1  0  0  0  0
 14 17  1  0  0  0  0
 17 18  1  0  0  0  0
 17 20  1  0  0  0  0
 19 17  1  0  0  0  0
 20 21  1  0  0  0  0
 22 23  1  0  0  0  0
 22 25  1  0  0  0  0
 24 22  1  0  0  0  0
M  END
