1,2
 OpenBabel05122313063D

 20 19  0  0  1  0  0  0  0  0999 V2000
    1.2836   -0.9906   -0.5466 O   0  0  0  0  0  1  0  0  0  0  0  0
    0.8970    1.8833   -0.0393 O   0  5  0  0  0  0  0  0  0  0  0  0
    3.5108   -1.6435   -0.7309 C   0  0  0  0  0  0  0  0  0  0  0  0
    2.5080   -0.7188    0.0165 C   0  0  1  0  0  0  0  0  0  0  0  0
    3.0223    0.7047   -0.0978 C   0  0  0  0  0  0  0  0  0  0  0  0
    2.2093    1.7991   -0.0894 C   0  0  0  0  0  0  0  0  0  0  0  0
    2.8265    3.1923   -0.1278 C   0  0  0  0  0  0  0  0  0  0  0  0
    3.1363   -2.9360   -0.6944 F   0  0  0  0  0  0  0  0  0  0  0  0
    4.7599   -1.5661   -0.1823 F   0  0  0  0  0  0  0  0  0  0  0  0
    3.6287   -1.2886   -2.0274 F   0  0  0  0  0  0  0  0  0  0  0  0
    2.4057    3.8937   -1.2086 F   0  0  0  0  0  0  0  0  0  0  0  0
    4.1849    3.1716   -0.1732 F   0  0  0  0  0  0  0  0  0  0  0  0
    2.4807    3.9144    0.9685 F   0  0  0  0  0  0  0  0  0  0  0  0
    2.5374   -1.0272    1.5680 C   0  0  0  0  0  0  0  0  0  0  0  0
    2.1415   -2.4271    1.9379 N   0  0  0  0  0  0  0  0  0  0  0  0
    0.9419   -2.6901    1.9674 O   0  0  0  0  0  0  0  0  0  0  0  0
    3.0535   -3.2271    2.1741 O   0  0  0  0  0  0  0  0  0  0  0  0
    4.1085    0.8578   -0.1095 H   0  0  0  0  0  0  0  0  0  0  0  0
    1.7868   -0.3536    2.0189 H   0  0  0  0  0  0  0  0  0  0  0  0
    3.5465   -0.8644    1.9821 H   0  0  0  0  0  0  0  0  0  0  0  0
  3  8  1  0  0  0  0
  3  9  1  0  0  0  0
  3  4  1  0  0  0  0
  4  1  1  6  0  0  0
  4 14  1  0  0  0  0
  5  6  2  0  0  0  0
  5  4  1  0  0  0  0
  6  2  1  0  0  0  0
  7  6  1  0  0  0  0
  7 13  1  0  0  0  0
 10  3  1  0  0  0  0
 11  7  1  0  0  0  0
 12  7  1  0  0  0  0
 14 15  1  0  0  0  0
 14 20  1  0  0  0  0
 14 19  1  0  0  0  0
 15 16  2  0  0  0  0
 15 17  2  0  0  0  0
 18  5  1  0  0  0  0
M  CHG  1   2  -1
M  END
