1,2
 OpenBabel05122313063D

 20 20  0  0  0  0  0  0  0  0999 V2000
    1.6832   -0.9278   -0.2812 O   0  5  0  0  0  0  0  0  0  0  0  0
    1.5685    1.1461    0.4782 O   0  5  0  0  0  0  0  0  0  0  0  0
    2.2790    0.1517    0.0736 C   0  0  0  0  0  3  0  0  0  0  0  0
    3.7610    0.2783    0.0287 C   0  0  0  0  0  0  0  0  0  0  0  0
    4.3149    1.5103    0.4443 C   0  0  0  0  0  0  0  0  0  0  0  0
    3.6213    2.2961    0.7757 H   0  0  0  0  0  0  0  0  0  0  0  0
    5.6921    1.7272    0.4365 C   0  0  0  0  0  0  0  0  0  0  0  0
    6.0980    2.6970    0.7652 H   0  0  0  0  0  0  0  0  0  0  0  0
    6.5692    0.7081    0.0088 C   0  0  0  0  0  0  0  0  0  0  0  0
    6.0096   -0.5147   -0.4032 C   0  0  0  0  0  0  0  0  0  0  0  0
    6.6851   -1.3179   -0.7405 H   0  0  0  0  0  0  0  0  0  0  0  0
    4.6230   -0.7671   -0.4069 C   0  0  0  0  0  0  0  0  0  0  0  0
    4.1319   -2.1166   -0.8644 C   0  0  0  0  0  0  0  0  0  0  0  0
    3.5750   -2.6363   -0.0593 H   0  0  0  0  0  0  0  0  0  0  0  0
    4.9817   -2.7528   -1.1788 H   0  0  0  0  0  0  0  0  0  0  0  0
    3.4169   -2.0253   -1.7052 H   0  0  0  0  0  0  0  0  0  0  0  0
    8.0599    0.9278    0.0028 C   0  0  0  0  0  0  0  0  0  0  0  0
    8.3311    1.8264   -0.5894 H   0  0  0  0  0  0  0  0  0  0  0  0
    8.6024    0.0610   -0.4211 H   0  0  0  0  0  0  0  0  0  0  0  0
    8.4419    1.0979    1.0315 H   0  0  0  0  0  0  0  0  0  0  0  0
  1  3  1  0  0  0  0
  3  2  1  0  0  0  0
  4  3  1  0  0  0  0
  4  5  1  0  0  0  0
  5  6  1  0  0  0  0
  7  5  2  0  0  0  0
  7  8  1  0  0  0  0
  9  7  1  0  0  0  0
 10  9  2  0  0  0  0
 11 10  1  0  0  0  0
 12 10  1  0  0  0  0
 12  4  2  0  0  0  0
 13 12  1  0  0  0  0
 13 14  1  0  0  0  0
 15 13  1  0  0  0  0
 16 13  1  0  0  0  0
 17  9  1  0  0  0  0
 17 20  1  0  0  0  0
 18 17  1  0  0  0  0
 19 17  1  0  0  0  0
M  CHG  2   1  -1   2  -1
M  END
