3,8
 OpenBabel05122313063D

 10  9  0  0  0  0  0  0  0  0999 V2000
    1.8853   -2.0452    1.4775 S   0  0  0  0  0  0  0  0  0  0  0  0
    0.8755   -3.5202    0.0963 S   0  0  0  0  0  0  0  0  0  0  0  0
    1.0653   -0.7506    1.3601 O   0  0  0  0  0  0  0  0  0  0  0  0
    1.7880   -2.5889    2.8504 O   0  0  0  0  0  0  0  0  0  0  0  0
    3.2287   -1.9546    0.8428 O   0  0  0  0  0  0  0  0  0  0  0  0
   -1.8236   -2.0960   -1.3003 S   0  0  0  0  0  0  0  0  0  0  0  0
   -1.1158   -3.2885    0.4838 S   0  0  0  0  0  0  0  0  0  0  0  0
   -0.7265   -1.0294   -1.4723 O   0  0  0  0  0  0  0  0  0  0  0  0
   -1.8530   -3.0031   -2.4653 O   0  0  0  0  0  0  0  0  0  0  0  0
   -3.1168   -1.5381   -0.8084 O   0  0  0  0  0  0  0  0  0  0  0  0
  1  4  1  0  0  0  0
  2  7  1  0  0  0  0
  2  1  1  0  0  0  0
  3  1  1  0  0  0  0
  5  1  1  0  0  0  0
  6 10  1  0  0  0  0
  6  7  1  0  0  0  0
  8  6  1  0  0  0  0
  9  6  1  0  0  0  0
M  END
