2,4
 OpenBabel05122313063D

 21 20  0  0  0  0  0  0  0  0999 V2000
   -2.3114    0.5216   -0.2918 N   0  0  0  0  0  0  0  0  0  0  0  0
   -0.0117    1.2412   -1.3793 O   0  5  0  0  0  0  0  0  0  0  0  0
   -0.7951    3.2299   -2.1197 O   0  0  0  0  0  0  0  0  0  0  0  0
   -1.2927   -1.4660    1.1863 O   0  5  0  0  0  0  0  0  0  0  0  0
   -3.2418   -1.8153    2.2795 O   0  0  0  0  0  0  0  0  0  0  0  0
   -1.1244   -1.5512   -1.6499 O   0  0  0  0  0  0  0  0  0  0  0  0
   -0.9150    2.2147   -1.4615 C   0  0  0  0  0  0  0  0  0  0  0  0
   -2.1434    1.9657   -0.5618 C   0  0  0  0  0  0  0  0  0  0  0  0
   -2.5316   -1.1493    1.5496 C   0  0  0  0  0  0  0  0  0  0  0  0
   -2.9834    0.2106    0.9864 C   0  0  0  0  0  0  0  0  0  0  0  0
   -2.5566   -1.5898   -1.6065 C   0  0  0  0  0  0  0  0  0  0  0  0
   -2.9722   -0.1358   -1.4487 C   0  0  0  0  0  0  0  0  0  0  0  0
   -0.6913   -2.3743   -1.9491 H   0  0  0  0  0  0  0  0  0  0  0  0
   -3.0455    2.4275   -1.0164 H   0  0  0  0  0  0  0  0  0  0  0  0
   -1.9438    2.4828    0.3986 H   0  0  0  0  0  0  0  0  0  0  0  0
   -4.0911    0.2414    0.9059 H   0  0  0  0  0  0  0  0  0  0  0  0
   -2.6650    0.9679    1.7311 H   0  0  0  0  0  0  0  0  0  0  0  0
   -2.9053   -2.2311   -0.7692 H   0  0  0  0  0  0  0  0  0  0  0  0
   -2.9614   -1.9915   -2.5585 H   0  0  0  0  0  0  0  0  0  0  0  0
   -2.6614    0.4050   -2.3644 H   0  0  0  0  0  0  0  0  0  0  0  0
   -4.0792   -0.0553   -1.3658 H   0  0  0  0  0  0  0  0  0  0  0  0
  1 10  1  0  0  0  0
  3  7  2  0  0  0  0
  4  9  1  0  0  0  0
  6 11  1  0  0  0  0
  7  2  1  0  0  0  0
  7  8  1  0  0  0  0
  8  1  1  0  0  0  0
  8 15  1  0  0  0  0
  9  5  2  0  0  0  0
 10  9  1  0  0  0  0
 10 17  1  0  0  0  0
 11 12  1  0  0  0  0
 11 18  1  0  0  0  0
 12 21  1  0  0  0  0
 12  1  1  0  0  0  0
 13  6  1  0  0  0  0
 14  8  1  0  0  0  0
 16 10  1  0  0  0  0
 19 11  1  0  0  0  0
 20 12  1  0  0  0  0
M  CHG  2   2  -1   4  -1
M  END
