1,2
q = -2.0, confidence = 0.93

 43 44  0  0  1  0  0  0  0  0999 V2000
    1.9240    0.7056   -0.1604 O   0  0  0  0  0  1  0  0  0  0  0  0
   -0.4610    2.5040   -1.0934 O   0  0  0  0  0  1  0  0  0  0  0  0
   -0.7208    0.0911    0.1948 N   0  0  0  0  0  0  0  0  0  0  0  0
    2.7508   -2.7986    0.7383 C   0  0  0  0  0  0  0  0  0  0  0  0
    2.0844   -2.9627    1.6012 H   0  0  0  0  0  0  0  0  0  0  0  0
    3.6684   -3.7907    0.3637 C   0  0  0  0  0  0  0  0  0  0  0  0
    3.7182   -4.7331    0.9306 H   0  0  0  0  0  0  0  0  0  0  0  0
    4.5282   -3.5783   -0.7267 C   0  0  0  0  0  0  0  0  0  0  0  0
    5.2529   -4.3540   -1.0178 H   0  0  0  0  0  0  0  0  0  0  0  0
    4.4640   -2.3693   -1.4373 C   0  0  0  0  0  0  0  0  0  0  0  0
    5.1407   -2.1944   -2.2879 H   0  0  0  0  0  0  0  0  0  0  0  0
    3.5420   -1.3784   -1.0662 C   0  0  0  0  0  0  0  0  0  0  0  0
    3.4852   -0.4219   -1.6058 H   0  0  0  0  0  0  0  0  0  0  0  0
    2.6786   -1.5868    0.0238 C   0  0  0  0  0  0  0  0  0  0  0  0
    1.6394   -0.5477    0.3998 C   0  0  2  0  0  0  0  0  0  0  0  0
    1.6086   -0.4669    1.5144 H   0  0  0  0  0  0  0  0  0  0  0  0
    0.2361   -0.9671   -0.1013 C   0  0  0  0  0  0  0  0  0  0  0  0
    0.3089   -1.0927   -1.1996 H   0  0  0  0  0  0  0  0  0  0  0  0
   -0.0512   -1.9484    0.3382 H   0  0  0  0  0  0  0  0  0  0  0  0
   -1.2478    0.0615    1.5760 C   0  0  0  0  0  0  0  0  0  0  0  0
   -2.0101    0.8633    1.6555 H   0  0  0  0  0  0  0  0  0  0  0  0
   -0.4334    0.3657    2.2643 H   0  0  0  0  0  0  0  0  0  0  0  0
   -1.8290   -1.2580    2.0198 C   0  0  0  0  0  0  0  0  0  0  0  0
   -2.7084   -1.6310    1.4672 H   0  0  0  0  0  0  0  0  0  0  0  0
   -1.3287   -1.9823    3.0364 C   0  0  0  0  0  0  0  0  0  0  0  0
   -0.4485   -1.6360    3.6058 H   0  0  0  0  0  0  0  0  0  0  0  0
   -1.7831   -2.9359    3.3479 H   0  0  0  0  0  0  0  0  0  0  0  0
   -1.6745    0.4642   -0.8728 C   0  0  1  0  0  0  0  0  0  0  0  0
   -1.1763    0.1727   -1.8199 H   0  0  0  0  0  0  0  0  0  0  0  0
   -3.0132   -0.2523   -0.8153 C   0  0  0  0  0  0  0  0  0  0  0  0
   -3.1293   -1.5378   -1.3855 C   0  0  0  0  0  0  0  0  0  0  0  0
   -2.2654   -1.9718   -1.9136 H   0  0  0  0  0  0  0  0  0  0  0  0
   -4.3200   -2.2692   -1.2802 C   0  0  0  0  0  0  0  0  0  0  0  0
   -4.3889   -3.2718   -1.7290 H   0  0  0  0  0  0  0  0  0  0  0  0
   -5.4245   -1.7211   -0.6067 C   0  0  0  0  0  0  0  0  0  0  0  0
   -6.3607   -2.2931   -0.5214 H   0  0  0  0  0  0  0  0  0  0  0  0
   -5.3291   -0.4363   -0.0513 C   0  0  0  0  0  0  0  0  0  0  0  0
   -6.1923    0.0046    0.4701 H   0  0  0  0  0  0  0  0  0  0  0  0
   -4.1336    0.2922   -0.1563 C   0  0  0  0  0  0  0  0  0  0  0  0
   -4.0771    1.2956    0.2914 H   0  0  0  0  0  0  0  0  0  0  0  0
   -1.7520    2.0015   -0.9169 C   0  0  0  0  0  0  0  0  0  0  0  0
   -2.4021    2.3201   -1.7633 H   0  0  0  0  0  0  0  0  0  0  0  0
   -2.2063    2.4034    0.0212 H   0  0  0  0  0  0  0  0  0  0  0  0
  1 15  1  0  0  0  0
  2 41  1  0  0  0  0
  3 20  1  0  0  0  0
  4  5  1  0  0  0  0
  6  4  1  0  0  0  0
  6  7  1  0  0  0  0
  8  6  2  0  0  0  0
  9  8  1  0  0  0  0
 10 12  2  0  0  0  0
 10  8  1  0  0  0  0
 11 10  1  0  0  0  0
 12 14  1  0  0  0  0
 13 12  1  0  0  0  0
 14 15  1  0  0  0  0
 14  4  2  0  0  0  0
 15 16  1  1  0  0  0
 17  3  1  0  0  0  0
 17 19  1  0  0  0  0
 17 15  1  0  0  0  0
 18 17  1  0  0  0  0
 20 21  1  0  0  0  0
 20 23  1  0  0  0  0
 20 22  1  0  0  0  0
 23 25  2  0  0  0  0
 24 23  1  0  0  0  0
 25 27  1  0  0  0  0
 25 26  1  0  0  0  0
 28 29  1  6  0  0  0
 28 30  1  0  0  0  0
 28  3  1  0  0  0  0
 30 39  1  0  0  0  0
 31 33  1  0  0  0  0
 31 30  2  0  0  0  0
 32 31  1  0  0  0  0
 33 35  2  0  0  0  0
 34 33  1  0  0  0  0
 35 36  1  0  0  0  0
 35 37  1  0  0  0  0
 37 38  1  0  0  0  0
 39 37  2  0  0  0  0
 39 40  1  0  0  0  0
 41 28  1  0  0  0  0
 41 43  1  0  0  0  0
 42 41  1  0  0  0  0
M  END
