2,4
q = -2.0, confidence = 0.562

 28 27  0  0  1  0  0  0  0  0999 V2000
   -1.4624    0.2927   -2.1957 C   0  0  0  0  0  2  0  0  0  0  0  0
   -0.1806    0.6916   -2.3323 O   0  0  0  0  0  1  0  0  0  0  0  0
   -1.5985   -0.9634   -1.5401 C   0  0  1  0  0  3  0  0  0  0  0  0
   -0.6007   -1.8032   -1.1067 O   0  0  0  0  0  1  0  0  0  0  0  0
   -1.6315    2.1015   -0.0430 P   0  0  0  0  0  0  0  0  0  0  0  0
   -3.3286   -0.9955   -1.0526 P   0  0  0  0  0  4  0  0  0  0  0  0
   -1.3031    3.4575   -1.2443 C   0  0  0  0  0  0  0  0  0  0  0  0
   -1.6403    3.0140    1.5653 C   0  0  0  0  0  0  0  0  0  0  0  0
   -3.4655    1.7765   -0.3124 C   0  0  0  0  0  0  0  0  0  0  0  0
   -3.9544    0.3678    0.0369 C   0  0  0  0  0  0  0  0  0  0  0  0
   -4.3812   -1.0205   -2.5442 C   0  0  0  0  0  0  0  0  0  0  0  0
   -3.6756   -2.5336   -0.1369 C   0  0  0  0  0  0  0  0  0  0  0  0
   -0.2944    3.8618   -1.0300 H   0  0  0  0  0  0  0  0  0  0  0  0
   -1.3075    3.0221   -2.2606 H   0  0  0  0  0  0  0  0  0  0  0  0
   -2.0560    4.2668   -1.1584 H   0  0  0  0  0  0  0  0  0  0  0  0
   -0.5988    3.3091    1.8005 H   0  0  0  0  0  0  0  0  0  0  0  0
   -2.2862    3.9139    1.5114 H   0  0  0  0  0  0  0  0  0  0  0  0
   -1.9922    2.3356    2.3660 H   0  0  0  0  0  0  0  0  0  0  0  0
   -3.6453    1.9961   -1.3825 H   0  0  0  0  0  0  0  0  0  0  0  0
   -4.0351    2.5123    0.2961 H   0  0  0  0  0  0  0  0  0  0  0  0
   -5.0635    0.3114   -0.0275 H   0  0  0  0  0  0  0  0  0  0  0  0
   -3.6590    0.0843    1.0691 H   0  0  0  0  0  0  0  0  0  0  0  0
   -4.1092   -1.9037   -3.1533 H   0  0  0  0  0  0  0  0  0  0  0  0
   -5.4539   -1.0667   -2.2700 H   0  0  0  0  0  0  0  0  0  0  0  0
   -4.1586   -0.1047   -3.1223 H   0  0  0  0  0  0  0  0  0  0  0  0
   -3.3853   -3.3965   -0.7665 H   0  0  0  0  0  0  0  0  0  0  0  0
   -3.0521   -2.5276    0.7802 H   0  0  0  0  0  0  0  0  0  0  0  0
   -4.7468   -2.6036    0.1336 H   0  0  0  0  0  0  0  0  0  0  0  0
  1  3  1  0  0  0  0
  2  1  1  0  0  0  0
  3  4  1  1  0  0  0
  3  6  1  0  0  0  0
  5  8  1  0  0  0  0
  6 12  1  0  0  0  0
  6 10  1  0  0  0  0
  7 15  1  0  0  0  0
  7 13  1  0  0  0  0
  7  5  1  0  0  0  0
  8 16  1  0  0  0  0
  8 18  1  0  0  0  0
  9  5  1  0  0  0  0
  9 10  1  0  0  0  0
  9 20  1  0  0  0  0
 10 22  1  0  0  0  0
 11 24  1  0  0  0  0
 11  6  1  0  0  0  0
 12 28  1  0  0  0  0
 12 27  1  0  0  0  0
 14  7  1  0  0  0  0
 17  8  1  0  0  0  0
 19  9  1  0  0  0  0
 21 10  1  0  0  0  0
 23 11  1  0  0  0  0
 25 11  1  0  0  0  0
 26 12  1  0  0  0  0
M  END
