1,17
q = -1.0, confidence = 0.044

 31 32  0  0  1  0  0  0  0  0999 V2000
    0.0981   -1.4756   -0.1297 O   0  0  0  0  0  1  0  0  0  0  0  0
   -1.0659   -0.9552   -0.1204 C   0  0  2  0  0  3  0  0  0  0  0  0
   -2.3289   -1.7971   -0.2365 C   0  0  2  0  0  0  0  0  0  0  0  0
   -2.1596   -3.2717    0.0690 C   0  0  0  0  0  0  0  0  0  0  0  0
   -2.8381   -1.4623   -1.6867 C   0  0  0  0  0  0  0  0  0  0  0  0
   -3.3270    0.0102   -1.5979 C   0  0  0  0  0  0  0  0  0  0  0  0
   -2.9856    0.3898   -0.1298 C   0  0  1  0  0  0  0  0  0  0  0  0
   -3.3064   -0.9288    0.6512 C   0  0  0  0  0  0  0  0  0  0  0  0
   -4.7725   -1.3697    0.5684 C   0  0  0  0  0  0  0  0  0  0  0  0
   -2.9035   -0.8739    2.1312 C   0  0  0  0  0  0  0  0  0  0  0  0
   -1.4647    0.4105   -0.0550 C   0  0  0  0  0  0  0  0  0  0  0  0
   -0.5796    1.4826   -0.0136 C   0  0  0  0  0  0  0  0  0  0  0  0
   -1.1498    2.9150    0.0116 C   0  0  0  0  0  0  0  0  0  0  0  0
   -1.9036    3.0996    1.1242 F   0  0  0  0  0  0  0  0  0  0  0  0
   -1.9562    3.1162   -1.0618 F   0  0  0  0  0  0  0  0  0  0  0  0
   -0.1888    3.8390   -0.0050 F   0  0  0  0  0  0  0  0  0  0  0  0
    0.7064    1.4301    0.0205 O   0  5  0  0  0  0  0  0  0  0  0  0
   -3.1205   -3.8100   -0.0507 H   0  0  0  0  0  0  0  0  0  0  0  0
   -1.7953   -3.4323    1.1030 H   0  0  0  0  0  0  0  0  0  0  0  0
   -1.4208   -3.7316   -0.6168 H   0  0  0  0  0  0  0  0  0  0  0  0
   -3.6566   -2.1629   -1.9468 H   0  0  0  0  0  0  0  0  0  0  0  0
   -2.0353   -1.6169   -2.4341 H   0  0  0  0  0  0  0  0  0  0  0  0
   -2.8127    0.6846   -2.3076 H   0  0  0  0  0  0  0  0  0  0  0  0
   -4.4142    0.0956   -1.7913 H   0  0  0  0  0  0  0  0  0  0  0  0
   -3.4874    1.2988    0.2463 H   0  0  0  0  0  0  0  0  0  0  0  0
   -5.1478   -1.4902   -0.4646 H   0  0  0  0  0  0  0  0  0  0  0  0
   -5.4186   -0.6232    1.0740 H   0  0  0  0  0  0  0  0  0  0  0  0
   -4.9166   -2.3365    1.0916 H   0  0  0  0  0  0  0  0  0  0  0  0
   -1.8535   -0.5550    2.2816 H   0  0  0  0  0  0  0  0  0  0  0  0
   -3.0305   -1.8657    2.6105 H   0  0  0  0  0  0  0  0  0  0  0  0
   -3.5492   -0.1569    2.6775 H   0  0  0  0  0  0  0  0  0  0  0  0
  2  1  1  6  0  0  0
  2 11  1  0  0  0  0
  3  2  1  0  0  0  0
  3  4  1  1  0  0  0
  3  8  1  0  0  0  0
  4 19  1  0  0  0  0
  5  6  1  0  0  0  0
  5  3  1  0  0  0  0
  6  7  1  0  0  0  0
  7 11  1  0  0  0  0
  7 25  1  1  0  0  0
  7  8  1  0  0  0  0
  8 10  1  0  0  0  0
  9  8  1  0  0  0  0
  9 27  1  0  0  0  0
  9 28  1  0  0  0  0
 10 29  1  0  0  0  0
 10 30  1  0  0  0  0
 10 31  1  0  0  0  0
 11 12  2  0  0  0  0
 12 13  1  0  0  0  0
 12 17  1  0  0  0  0
 13 14  1  0  0  0  0
 15 13  1  0  0  0  0
 16 13  1  0  0  0  0
 18  4  1  0  0  0  0
 20  4  1  0  0  0  0
 21  5  1  0  0  0  0
 22  5  1  0  0  0  0
 23  6  1  0  0  0  0
 24  6  1  0  0  0  0
 26  9  1  0  0  0  0
M  CHG  1  17  -1
M  END
