1,2
q = 0.0, confidence = 0.952

 26 27  0  0  1  0  0  0  0  0999 V2000
    0.4859    1.2395   -0.3238 O   0  0  0  0  0  1  0  0  0  0  0  0
    0.4857   -1.2397    0.3242 O   0  0  0  0  0  1  0  0  0  0  0  0
   -1.8186    1.6363   -0.0075 C   0  0  0  0  0  0  0  0  0  0  0  0
   -1.7892    2.8760   -0.6912 C   0  0  0  0  0  0  0  0  0  0  0  0
   -2.8625    3.7628   -0.5781 C   0  0  0  0  0  0  0  0  0  0  0  0
   -3.9577    3.4399    0.2442 C   0  0  0  0  0  0  0  0  0  0  0  0
   -3.9781    2.2278    0.9536 C   0  0  0  0  0  0  0  0  0  0  0  0
   -2.9201    1.3204    0.8242 C   0  0  0  0  0  0  0  0  0  0  0  0
   -0.6375    0.7640   -0.1075 C   0  0  2  0  0  3  0  0  0  0  0  0
   -0.6376   -0.7641    0.1078 C   0  0  1  0  0  3  0  0  0  0  0  0
   -1.8189   -1.6363    0.0076 C   0  0  0  0  0  0  0  0  0  0  0  0
   -1.7897   -2.8759    0.6914 C   0  0  0  0  0  0  0  0  0  0  0  0
   -2.8631   -3.7625    0.5781 C   0  0  0  0  0  0  0  0  0  0  0  0
   -3.9582   -3.4395   -0.2444 C   0  0  0  0  0  0  0  0  0  0  0  0
   -3.9783   -2.2273   -0.9537 C   0  0  0  0  0  0  0  0  0  0  0  0
   -2.9201   -1.3201   -0.8243 C   0  0  0  0  0  0  0  0  0  0  0  0
   -0.9121    3.1152   -1.3099 H   0  0  0  0  0  0  0  0  0  0  0  0
   -2.8461    4.7166   -1.1259 H   0  0  0  0  0  0  0  0  0  0  0  0
   -4.7984    4.1439    0.3388 H   0  0  0  0  0  0  0  0  0  0  0  0
   -4.8238    1.9888    1.6151 H   0  0  0  0  0  0  0  0  0  0  0  0
   -2.9333    0.3814    1.3943 H   0  0  0  0  0  0  0  0  0  0  0  0
   -0.9127   -3.1153    1.3102 H   0  0  0  0  0  0  0  0  0  0  0  0
   -2.8470   -4.7163    1.1259 H   0  0  0  0  0  0  0  0  0  0  0  0
   -4.7990   -4.1433   -0.3391 H   0  0  0  0  0  0  0  0  0  0  0  0
   -4.8238   -1.9882   -1.6154 H   0  0  0  0  0  0  0  0  0  0  0  0
   -2.9331   -0.3811   -1.3943 H   0  0  0  0  0  0  0  0  0  0  0  0
  3  8  1  0  0  0  0
  4  5  1  0  0  0  0
  4  3  2  0  0  0  0
  5  6  2  0  0  0  0
  6 19  1  0  0  0  0
  6  7  1  0  0  0  0
  7 20  1  0  0  0  0
  8  7  2  0  0  0  0
  8 21  1  0  0  0  0
  9  1  1  1  0  0  0
  9  3  1  0  0  0  0
  9 10  1  0  0  0  0
 10  2  1  6  0  0  0
 11 10  1  0  0  0  0
 11 12  1  0  0  0  0
 12 22  1  0  0  0  0
 13 12  2  0  0  0  0
 13 23  1  0  0  0  0
 14 13  1  0  0  0  0
 15 16  1  0  0  0  0
 15 14  2  0  0  0  0
 16 11  2  0  0  0  0
 17  4  1  0  0  0  0
 18  5  1  0  0  0  0
 24 14  1  0  0  0  0
 25 15  1  0  0  0  0
 26 16  1  0  0  0  0
M  END
