4,5
q = -2.0, confidence = 0.82

 49 52  0  0  0  0  0  0  0  0999 V2000
   -0.6634    1.5972   -0.4886 Si  0  0  0  0  0  0  0  0  0  0  0  0
   -1.6784   -1.2047   -0.1184 Si  0  0  0  0  0  0  0  0  0  0  0  0
   -1.4780    0.2150   -1.0158 O   0  0  0  0  0  0  0  0  0  0  0  0
    0.0523    1.3401    0.9865 O   0  0  0  0  0  1  0  0  0  0  0  0
   -0.3549   -1.5401    0.8202 O   0  0  0  0  0  1  0  0  0  0  0  0
   -1.8386    3.0529   -0.3135 C   0  0  0  0  0  0  0  0  0  0  0  0
   -1.9867   -3.9248   -1.0126 C   0  0  0  0  0  0  0  0  0  0  0  0
   -2.0235   -4.1781    0.0602 H   0  0  0  0  0  0  0  0  0  0  0  0
   -2.0453   -4.9547   -1.9646 C   0  0  0  0  0  0  0  0  0  0  0  0
   -2.1319   -6.0034   -1.6390 H   0  0  0  0  0  0  0  0  0  0  0  0
   -1.9944   -4.6465   -3.3347 C   0  0  0  0  0  0  0  0  0  0  0  0
   -2.0393   -5.4527   -4.0835 H   0  0  0  0  0  0  0  0  0  0  0  0
   -1.8901   -3.3077   -3.7452 C   0  0  0  0  0  0  0  0  0  0  0  0
   -1.8535   -3.0628   -4.8185 H   0  0  0  0  0  0  0  0  0  0  0  0
    1.1135    0.8597   -2.6288 C   0  0  0  0  0  0  0  0  0  0  0  0
    0.6987   -0.1492   -2.4747 H   0  0  0  0  0  0  0  0  0  0  0  0
   -4.4080   -1.7050    0.7357 C   0  0  0  0  0  0  0  0  0  0  0  0
   -4.4847   -2.3908   -0.1241 H   0  0  0  0  0  0  0  0  0  0  0  0
   -2.1370    3.5747    0.9645 C   0  0  0  0  0  0  0  0  0  0  0  0
   -1.6556    3.1248    1.8471 H   0  0  0  0  0  0  0  0  0  0  0  0
    2.6517    2.3517   -3.7827 C   0  0  0  0  0  0  0  0  0  0  0  0
    3.4457    2.5143   -4.5281 H   0  0  0  0  0  0  0  0  0  0  0  0
   -1.8807   -2.5707   -1.4066 C   0  0  0  0  0  0  0  0  0  0  0  0
   -1.8351   -2.2809   -2.7885 C   0  0  0  0  0  0  0  0  0  0  0  0
   -1.7542   -1.2295   -3.1074 H   0  0  0  0  0  0  0  0  0  0  0  0
    2.1263    1.0633   -3.5794 C   0  0  0  0  0  0  0  0  0  0  0  0
    2.5061    0.2149   -4.1708 H   0  0  0  0  0  0  0  0  0  0  0  0
   -3.3499    4.7126   -1.2952 C   0  0  0  0  0  0  0  0  0  0  0  0
   -3.8258    5.1575   -2.1832 H   0  0  0  0  0  0  0  0  0  0  0  0
   -3.1945   -1.0291    0.9822 C   0  0  0  0  0  0  0  0  0  0  0  0
   -5.5226   -1.5136    1.5693 C   0  0  0  0  0  0  0  0  0  0  0  0
   -6.4630   -2.0490    1.3637 H   0  0  0  0  0  0  0  0  0  0  0  0
   -3.0304    4.6468    1.1139 C   0  0  0  0  0  0  0  0  0  0  0  0
   -3.2561    5.0405    2.1175 H   0  0  0  0  0  0  0  0  0  0  0  0
    0.6042    1.9323   -1.8608 C   0  0  0  0  0  0  0  0  0  0  0  0
   -3.1239   -0.1536    2.0911 C   0  0  0  0  0  0  0  0  0  0  0  0
   -2.1806    0.3803    2.2947 H   0  0  0  0  0  0  0  0  0  0  0  0
   -5.4384   -0.6365    2.6619 C   0  0  0  0  0  0  0  0  0  0  0  0
   -6.3123   -0.4821    3.3141 H   0  0  0  0  0  0  0  0  0  0  0  0
   -2.4564    3.6401   -1.4399 C   0  0  0  0  0  0  0  0  0  0  0  0
   -2.2363    3.2515   -2.4480 H   0  0  0  0  0  0  0  0  0  0  0  0
   -3.6384    5.2168   -0.0163 C   0  0  0  0  0  0  0  0  0  0  0  0
   -4.3406    6.0573    0.0992 H   0  0  0  0  0  0  0  0  0  0  0  0
    2.1491    3.4331   -3.0406 C   0  0  0  0  0  0  0  0  0  0  0  0
    2.5462    4.4469   -3.2069 H   0  0  0  0  0  0  0  0  0  0  0  0
    1.1315    3.2219   -2.0940 C   0  0  0  0  0  0  0  0  0  0  0  0
    0.7296    4.0812   -1.5309 H   0  0  0  0  0  0  0  0  0  0  0  0
   -4.2369    0.0455    2.9206 C   0  0  0  0  0  0  0  0  0  0  0  0
   -4.1696    0.7368    3.7754 H   0  0  0  0  0  0  0  0  0  0  0  0
  1  6  1  0  0  0  0
  1  4  1  0  0  0  0
  2  5  1  0  0  0  0
  2 30  1  0  0  0  0
  3  1  1  0  0  0  0
  3  2  1  0  0  0  0
  6 19  1  0  0  0  0
  7  8  1  0  0  0  0
  9 10  1  0  0  0  0
  9  7  2  0  0  0  0
 11  9  1  0  0  0  0
 12 11  1  0  0  0  0
 13 11  2  0  0  0  0
 13 24  1  0  0  0  0
 14 13  1  0  0  0  0
 15 16  1  0  0  0  0
 15 35  1  0  0  0  0
 17 30  2  0  0  0  0
 17 31  1  0  0  0  0
 18 17  1  0  0  0  0
 19 33  2  0  0  0  0
 19 20  1  0  0  0  0
 21 26  1  0  0  0  0
 21 44  2  0  0  0  0
 22 21  1  0  0  0  0
 23  7  1  0  0  0  0
 23  2  1  0  0  0  0
 24 23  2  0  0  0  0
 25 24  1  0  0  0  0
 26 15  2  0  0  0  0
 27 26  1  0  0  0  0
 28 42  2  0  0  0  0
 29 28  1  0  0  0  0
 30 36  1  0  0  0  0
 31 38  2  0  0  0  0
 32 31  1  0  0  0  0
 33 34  1  0  0  0  0
 35  1  1  0  0  0  0
 36 37  1  0  0  0  0
 36 48  2  0  0  0  0
 38 48  1  0  0  0  0
 38 39  1  0  0  0  0
 40 28  1  0  0  0  0
 40  6  2  0  0  0  0
 41 40  1  0  0  0  0
 42 43  1  0  0  0  0
 42 33  1  0  0  0  0
 44 46  1  0  0  0  0
 45 44  1  0  0  0  0
 46 35  2  0  0  0  0
 46 47  1  0  0  0  0
 48 49  1  0  0  0  0
M  END
