1,3
q = -2.0, confidence = 0.816

 25 26  0  0  0  0  0  0  0  0999 V2000
   -2.2137    1.0349   -1.1344 O   0  5  0  0  0  0  0  0  0  0  0  0
   -0.6118    2.6112   -1.1955 O   0  0  0  0  0  0  0  0  0  0  0  0
   -1.7116   -1.2070    0.1676 O   0  5  0  0  0  0  0  0  0  0  0  0
    3.6686    0.1552   -0.1835 N   0  0  0  0  0  2  0  0  0  0  0  0
    4.5229   -0.7090    0.1904 N   0  0  0  0  0  2  0  0  0  0  0  0
    8.6104    0.3839   -0.0522 N   0  0  0  0  0  0  0  0  0  0  0  0
   -0.9504    1.4661   -0.9420 C   0  0  0  0  0  0  0  0  0  0  0  0
   -0.0089    0.4106   -0.4460 C   0  0  0  0  0  0  0  0  0  0  0  0
   -0.4405   -0.8607    0.0624 C   0  0  0  0  0  0  0  0  0  0  0  0
    0.5488   -1.8051    0.4792 C   0  0  0  0  0  0  0  0  0  0  0  0
    0.1912   -2.7726    0.8623 H   0  0  0  0  0  0  0  0  0  0  0  0
    1.8989   -1.5077    0.4096 C   0  0  0  0  0  0  0  0  0  0  0  0
    2.6694   -2.2225    0.7323 H   0  0  0  0  0  0  0  0  0  0  0  0
    2.3297   -0.2427   -0.0848 C   0  0  0  0  0  0  0  0  0  0  0  0
    1.3660    0.6913   -0.5040 C   0  0  0  0  0  0  0  0  0  0  0  0
    1.6917    1.6708   -0.8836 H   0  0  0  0  0  0  0  0  0  0  0  0
    5.8662   -0.2820    0.0838 C   0  0  0  0  0  0  0  0  0  0  0  0
    6.8581   -1.1983    0.4856 C   0  0  0  0  0  0  0  0  0  0  0  0
    6.5537   -2.1878    0.8574 H   0  0  0  0  0  0  0  0  0  0  0  0
    8.2045   -0.8147    0.3968 C   0  0  0  0  0  0  0  0  0  0  0  0
    8.9992   -1.5173    0.7066 H   0  0  0  0  0  0  0  0  0  0  0  0
    7.6541    1.2533   -0.4345 C   0  0  0  0  0  0  0  0  0  0  0  0
    8.0085    2.2338   -0.8011 H   0  0  0  0  0  0  0  0  0  0  0  0
    6.2825    0.9824   -0.3907 C   0  0  0  0  0  0  0  0  0  0  0  0
    5.5265    1.7131   -0.7100 H   0  0  0  0  0  0  0  0  0  0  0  0
  1  7  1  0  0  0  0
  2  7  2  0  0  0  0
  4 14  1  0  0  0  0
  4  5  1  0  0  0  0
  6 20  1  0  0  0  0
  7  8  1  0  0  0  0
  8  9  1  0  0  0  0
  9  3  1  0  0  0  0
  9 10  2  0  0  0  0
 10 11  1  0  0  0  0
 12 10  1  0  0  0  0
 12 13  1  0  0  0  0
 14 12  2  0  0  0  0
 15  8  2  0  0  0  0
 15 14  1  0  0  0  0
 16 15  1  0  0  0  0
 17  5  1  0  0  0  0
 17 18  1  0  0  0  0
 18 19  1  0  0  0  0
 20 18  2  0  0  0  0
 20 21  1  0  0  0  0
 22 24  1  0  0  0  0
 22  6  2  0  0  0  0
 23 22  1  0  0  0  0
 24 17  2  0  0  0  0
 25 24  1  0  0  0  0
M  CHG  2   1  -1   3  -1
M  END
