2,4
q = -2.0, confidence = 0.81

 26 27  0  0  0  0  0  0  0  0999 V2000
    9.5865    0.4963   -0.0610 Cl  0  0  0  0  0  0  0  0  0  0  0  0
   -2.9103    1.0787   -1.1121 O   0  5  0  0  0  0  0  0  0  0  0  0
   -1.2722    2.6175   -1.1429 O   0  0  0  0  0  0  0  0  0  0  0  0
   -2.4563   -1.2120    0.1187 O   0  5  0  0  0  0  0  0  0  0  0  0
    2.9561    0.0540   -0.1752 N   0  0  0  0  0  2  0  0  0  0  0  0
    3.7900   -0.8384    0.1795 N   0  0  0  0  0  2  0  0  0  0  0  0
   -1.6364    1.4749   -0.9134 C   0  0  0  0  0  0  0  0  0  0  0  0
   -0.7181    0.3882   -0.4423 C   0  0  0  0  0  0  0  0  0  0  0  0
   -1.1762   -0.8868    0.0301 C   0  0  0  0  0  0  0  0  0  0  0  0
   -0.2078   -1.8599    0.4252 C   0  0  0  0  0  0  0  0  0  0  0  0
   -0.5851   -2.8304    0.7813 H   0  0  0  0  0  0  0  0  0  0  0  0
    1.1489   -1.5870    0.3679 C   0  0  0  0  0  0  0  0  0  0  0  0
    1.9034   -2.3255    0.6745 H   0  0  0  0  0  0  0  0  0  0  0  0
    1.6073   -0.3193   -0.0919 C   0  0  0  0  0  0  0  0  0  0  0  0
    0.6633    0.6430   -0.4895 C   0  0  0  0  0  0  0  0  0  0  0  0
    1.0084    1.6256   -0.8427 H   0  0  0  0  0  0  0  0  0  0  0  0
    5.1421   -0.4512    0.0956 C   0  0  0  0  0  0  0  0  0  0  0  0
    6.0933   -1.4217    0.4788 C   0  0  0  0  0  0  0  0  0  0  0  0
    5.7227   -2.4023    0.8122 H   0  0  0  0  0  0  0  0  0  0  0  0
    7.4623   -1.1395    0.4339 C   0  0  0  0  0  0  0  0  0  0  0  0
    8.2085   -1.8896    0.7304 H   0  0  0  0  0  0  0  0  0  0  0  0
    7.8833    0.1293    0.0002 C   0  0  0  0  0  0  0  0  0  0  0  0
    6.9493    1.1124   -0.3870 C   0  0  0  0  0  0  0  0  0  0  0  0
    7.3087    2.0960   -0.7220 H   0  0  0  0  0  0  0  0  0  0  0  0
    5.5864    0.8216   -0.3389 C   0  0  0  0  0  0  0  0  0  0  0  0
    4.8278    1.5609   -0.6326 H   0  0  0  0  0  0  0  0  0  0  0  0
  1 22  1  0  0  0  0
  2  7  1  0  0  0  0
  3  7  2  0  0  0  0
  5 14  1  0  0  0  0
  5  6  1  0  0  0  0
  7  8  1  0  0  0  0
  8  9  1  0  0  0  0
  9  4  1  0  0  0  0
  9 10  2  0  0  0  0
 10 11  1  0  0  0  0
 12 10  1  0  0  0  0
 12 13  1  0  0  0  0
 14 12  2  0  0  0  0
 15  8  2  0  0  0  0
 15 14  1  0  0  0  0
 16 15  1  0  0  0  0
 17  6  1  0  0  0  0
 17 18  1  0  0  0  0
 18 19  1  0  0  0  0
 20 18  2  0  0  0  0
 20 21  1  0  0  0  0
 22 20  1  0  0  0  0
 23 25  1  0  0  0  0
 23 22  2  0  0  0  0
 24 23  1  0  0  0  0
 25 17  2  0  0  0  0
 26 25  1  0  0  0  0
M  CHG  2   2  -1   4  -1
M  END
