2,3
q = -1.0, confidence = 0.006

 21 21  0  0  1  0  0  0  0  0999 V2000
    7.7723    0.2452   -0.6386 Cl  0  0  0  0  0  0  0  0  0  0  0  0
    1.1863   -0.7146   -0.4215 O   0  0  0  0  0  1  0  0  0  0  0  0
   -0.9674   -0.5946    1.5028 O   0  5  0  0  0  0  0  0  0  0  0  0
   -1.1988    1.4034    3.4787 F   0  0  0  0  0  0  0  0  0  0  0  0
    3.3475   -0.1847    0.3156 C   0  0  0  0  0  0  0  0  0  0  0  0
    0.5672    0.5425    4.4382 F   0  0  0  0  0  0  0  0  0  0  0  0
   -1.2285   -0.6707    4.1717 F   0  0  0  0  0  0  0  0  0  0  0  0
    3.8124   -0.2560   -1.0207 C   0  0  0  0  0  0  0  0  0  0  0  0
    3.0834   -0.4123   -1.8276 H   0  0  0  0  0  0  0  0  0  0  0  0
    5.6546    0.1464    1.0611 C   0  0  0  0  0  0  0  0  0  0  0  0
    6.3879    0.2956    1.8655 H   0  0  0  0  0  0  0  0  0  0  0  0
    4.2943    0.0180    1.3485 C   0  0  0  0  0  0  0  0  0  0  0  0
    3.9791    0.0573    2.4003 H   0  0  0  0  0  0  0  0  0  0  0  0
    5.1675   -0.1217   -1.3217 C   0  0  0  0  0  0  0  0  0  0  0  0
    5.5256   -0.1678   -2.3595 H   0  0  0  0  0  0  0  0  0  0  0  0
    6.0905    0.0797   -0.2761 C   0  0  0  0  0  0  0  0  0  0  0  0
    1.8966   -0.3257    0.5789 C   0  0  1  0  0  3  0  0  0  0  0  0
    1.3562   -0.0151    1.8621 C   0  0  0  0  0  0  0  0  0  0  0  0
    2.0263    0.3577    2.6430 H   0  0  0  0  0  0  0  0  0  0  0  0
    0.0167   -0.1694    2.2093 C   0  0  0  0  0  0  0  0  0  0  0  0
   -0.4529    0.2687    3.6093 C   0  0  0  0  0  0  0  0  0  0  0  0
  1 16  1  0  0  0  0
  3 20  1  0  0  0  0
  4 21  1  0  0  0  0
  5 17  1  0  0  0  0
  5 12  1  0  0  0  0
  8  5  2  0  0  0  0
  9  8  1  0  0  0  0
 10 12  2  0  0  0  0
 10 11  1  0  0  0  0
 12 13  1  0  0  0  0
 14  8  1  0  0  0  0
 14 16  2  0  0  0  0
 15 14  1  0  0  0  0
 16 10  1  0  0  0  0
 17  2  1  6  0  0  0
 17 18  1  0  0  0  0
 18 20  2  0  0  0  0
 18 19  1  0  0  0  0
 20 21  1  0  0  0  0
 21  7  1  0  0  0  0
 21  6  1  0  0  0  0
M  CHG  1   3  -1
M  END
