1,2
q = -1.0, confidence = 0.042

 30 31  0  0  1  0  0  0  0  0999 V2000
   -1.8866   -1.5550    0.7424 O   0  5  0  0  0  0  0  0  0  0  0  0
   -0.7260   -1.0437   -1.5320 O   0  5  0  0  0  0  0  0  0  0  0  0
   -2.6451   -1.0605   -0.2184 C   0  0  0  0  0  0  0  0  0  0  0  0
   -4.0072   -0.8131   -0.0420 C   0  0  1  0  0  3  0  0  0  0  0  0
   -4.7305   -0.3117   -1.1209 N   0  0  0  0  0  0  0  0  0  0  0  0
   -4.1237   -0.0323   -2.3152 C   0  0  0  0  0  0  0  0  0  0  0  0
   -2.7754   -0.2481   -2.5297 C   0  0  0  0  0  0  0  0  0  0  0  0
   -1.9725   -0.7804   -1.4773 C   0  0  0  0  0  0  0  0  0  0  0  0
   -6.1333    0.0714   -0.9471 C   0  0  0  0  0  0  0  0  0  0  0  0
   -6.3187    1.3784   -0.2001 C   0  0  0  0  0  0  0  0  0  0  0  0
   -7.5726    1.6960    0.3614 C   0  0  0  0  0  0  0  0  0  0  0  0
   -7.8386    2.8378    1.0079 N   0  0  0  0  0  0  0  0  0  0  0  0
   -6.8411    3.7280    1.1336 C   0  0  0  0  0  0  0  0  0  0  0  0
   -5.5494    3.5139    0.6270 C   0  0  0  0  0  0  0  0  0  0  0  0
   -5.2839    2.3180   -0.0538 C   0  0  0  0  0  0  0  0  0  0  0  0
   -4.6779   -1.1610    1.2576 C   0  0  0  0  0  0  0  0  0  0  0  0
   -5.2446   -2.5909    1.2800 C   0  0  0  0  0  0  0  0  0  0  0  0
   -4.7820    0.3763   -3.0942 H   0  0  0  0  0  0  0  0  0  0  0  0
   -2.3260   -0.0261   -3.5067 H   0  0  0  0  0  0  0  0  0  0  0  0
   -6.5763    0.1497   -1.9608 H   0  0  0  0  0  0  0  0  0  0  0  0
   -6.6791   -0.7455   -0.4350 H   0  0  0  0  0  0  0  0  0  0  0  0
   -8.4070    0.9728    0.2810 H   0  0  0  0  0  0  0  0  0  0  0  0
   -7.0806    4.6615    1.6733 H   0  0  0  0  0  0  0  0  0  0  0  0
   -4.7619    4.2692    0.7673 H   0  0  0  0  0  0  0  0  0  0  0  0
   -4.2793    2.1115   -0.4545 H   0  0  0  0  0  0  0  0  0  0  0  0
   -3.8967   -1.0738    2.0384 H   0  0  0  0  0  0  0  0  0  0  0  0
   -5.4633   -0.4202    1.5114 H   0  0  0  0  0  0  0  0  0  0  0  0
   -4.4377   -3.3264    1.0934 H   0  0  0  0  0  0  0  0  0  0  0  0
   -5.6965   -2.8187    2.2659 H   0  0  0  0  0  0  0  0  0  0  0  0
   -6.0250   -2.7444    0.5057 H   0  0  0  0  0  0  0  0  0  0  0  0
  2  8  1  0  0  0  0
  3  4  1  0  0  0  0
  3  1  1  0  0  0  0
  4 16  1  6  0  0  0
  5  9  1  0  0  0  0
  5  4  1  0  0  0  0
  6  5  1  0  0  0  0
  7  6  2  0  0  0  0
  7  8  1  0  0  0  0
  8  3  2  0  0  0  0
  9 21  1  0  0  0  0
  9 10  1  0  0  0  0
 10 15  2  0  0  0  0
 10 11  1  0  0  0  0
 11 12  2  0  0  0  0
 12 13  1  0  0  0  0
 13 23  1  0  0  0  0
 14 24  1  0  0  0  0
 14 13  2  0  0  0  0
 15 14  1  0  0  0  0
 16 17  1  0  0  0  0
 16 27  1  0  0  0  0
 16 26  1  0  0  0  0
 17 29  1  0  0  0  0
 18  6  1  0  0  0  0
 19  7  1  0  0  0  0
 20  9  1  0  0  0  0
 22 11  1  0  0  0  0
 25 15  1  0  0  0  0
 28 17  1  0  0  0  0
 30 17  1  0  0  0  0
M  CHG  2   1  -1   2  -1
M  END
