26,28
q = -2.0, confidence = 0.86

 28 28  0  0  0  0  0  0  0  0999 V2000
    4.8803    1.3556    1.5406 C   0  0  0  0  0  0  0  0  0  0  0  0
    3.8464    1.4362    1.9149 H   0  0  0  0  0  0  0  0  0  0  0  0
    5.9242    1.9862    2.2341 C   0  0  0  0  0  0  0  0  0  0  0  0
    5.7073    2.5592    3.1491 H   0  0  0  0  0  0  0  0  0  0  0  0
    7.2427    1.8906    1.7609 C   0  0  0  0  0  0  0  0  0  0  0  0
    8.0636    2.3865    2.3013 H   0  0  0  0  0  0  0  0  0  0  0  0
    7.5048    1.1609    0.5904 C   0  0  0  0  0  0  0  0  0  0  0  0
    8.5346    1.0833    0.2084 H   0  0  0  0  0  0  0  0  0  0  0  0
    6.4563    0.5323   -0.0981 C   0  0  0  0  0  0  0  0  0  0  0  0
    6.6668   -0.0361   -1.0185 H   0  0  0  0  0  0  0  0  0  0  0  0
    5.1266    0.6192    0.3633 C   0  0  0  0  0  0  0  0  0  0  0  0
    4.0084   -0.1022   -0.3498 C   0  0  0  0  0  0  0  0  0  0  0  0
    3.0744    0.4918   -0.2573 H   0  0  0  0  0  0  0  0  0  0  0  0
    4.2170   -0.1694   -1.4368 H   0  0  0  0  0  0  0  0  0  0  0  0
    3.7751   -1.5202    0.2081 C   0  0  0  0  0  0  0  0  0  0  0  0
    3.5182   -1.4389    1.2892 H   0  0  0  0  0  0  0  0  0  0  0  0
    4.7382   -2.0740    0.1738 H   0  0  0  0  0  0  0  0  0  0  0  0
    2.7026   -2.3415   -0.5166 C   0  0  0  0  0  0  0  0  0  0  0  0
    2.9933   -2.4882   -1.5773 H   0  0  0  0  0  0  0  0  0  0  0  0
    2.6300   -3.3483   -0.0596 H   0  0  0  0  0  0  0  0  0  0  0  0
    1.3041   -1.7190   -0.4969 C   0  0  0  0  0  0  0  0  0  0  0  0
    1.1935   -1.0510    0.3909 H   0  0  0  0  0  0  0  0  0  0  0  0
    1.0554   -0.7999   -1.7171 C   0  0  0  0  0  0  0  0  0  0  0  0
    0.1874   -2.7760   -0.3026 C   0  0  0  0  0  0  0  0  0  0  0  0
    0.4209   -3.9721   -0.2061 O   0  5  0  0  0  0  0  0  0  0  0  0
   -1.0527   -2.3163   -0.1772 O   0  0  0  0  0  0  0  0  0  0  0  0
    1.8537   -0.7057   -2.6402 O   0  5  0  0  0  0  0  0  0  0  0  0
   -0.0482   -0.0618   -1.6996 O   0  0  0  0  0  0  0  0  0  0  0  0
  1  2  1  0  0  0  0
  1  3  1  0  0  0  0
  3  4  1  0  0  0  0
  5  3  2  0  0  0  0
  5  6  1  0  0  0  0
  7  5  1  0  0  0  0
  8  7  1  0  0  0  0
  9 11  1  0  0  0  0
  9  7  2  0  0  0  0
 10  9  1  0  0  0  0
 11  1  2  0  0  0  0
 12 13  1  0  0  0  0
 12 15  1  0  0  0  0
 12 11  1  0  0  0  0
 14 12  1  0  0  0  0
 15 16  1  0  0  0  0
 17 15  1  0  0  0  0
 18 21  1  0  0  0  0
 18 20  1  0  0  0  0
 18 15  1  0  0  0  0
 19 18  1  0  0  0  0
 21 24  1  0  0  0  0
 21 22  1  0  0  0  0
 23 28  2  0  0  0  0
 23 21  1  0  0  0  0
 24 25  1  0  0  0  0
 24 26  2  0  0  0  0
 27 23  1  0  0  0  0
M  CHG  2  25  -1  27  -1
M  END
