4,26
q = -1.0, confidence = 0.006

 26 27  0  0  1  0  0  0  0  0999 V2000
    2.2700   -0.2707   -0.6499 N   0  0  0  0  0  0  0  0  0  0  0  0
    2.8749   -1.1886    0.1219 C   0  0  0  0  0  0  0  0  0  0  0  0
    2.1068   -1.6282    1.2901 C   0  0  0  0  0  0  0  0  0  0  0  0
    0.9327   -1.1192    1.4862 O   0  5  0  0  0  0  0  0  0  0  0  0
    2.7329   -2.5924    2.1163 C   0  0  0  0  0  0  0  0  0  0  0  0
    2.1892   -2.9484    3.0032 H   0  0  0  0  0  0  0  0  0  0  0  0
    4.0163   -3.0874    1.8084 C   0  0  0  0  0  0  0  0  0  0  0  0
    4.4601   -3.8392    2.4809 H   0  0  0  0  0  0  0  0  0  0  0  0
    4.7508   -2.6714    0.6888 C   0  0  0  0  0  0  0  0  0  0  0  0
    5.7488   -3.0842    0.4810 H   0  0  0  0  0  0  0  0  0  0  0  0
    4.1899   -1.7086   -0.1817 C   0  0  0  0  0  0  0  0  0  0  0  0
    4.8082   -1.1909   -1.3594 C   0  0  0  0  0  0  0  0  0  0  0  0
    5.8094   -1.5535   -1.6413 H   0  0  0  0  0  0  0  0  0  0  0  0
    4.1611   -0.2464   -2.1436 C   0  0  0  0  0  0  0  0  0  0  0  0
    4.6323    0.1537   -3.0538 H   0  0  0  0  0  0  0  0  0  0  0  0
    2.8668    0.2050   -1.7544 C   0  0  0  0  0  0  0  0  0  0  0  0
    2.0925    1.1881   -2.5044 C   0  0  0  0  0  0  0  0  0  0  0  0
    2.4966    1.5991   -3.4528 H   0  0  0  0  0  0  0  0  0  0  0  0
    0.9339    1.5380   -2.0325 N   0  0  0  0  0  0  0  0  0  0  0  0
    0.1359    2.4095   -2.6697 N   0  0  0  0  0  0  0  0  0  0  0  0
    0.4228    2.8338   -3.5609 H   0  0  0  0  0  0  0  0  0  0  0  0
   -1.0899    2.6865   -2.0678 C   0  0  2  0  0  3  0  0  0  0  0  0
   -1.8997    3.5519   -2.7428 N   0  0  0  0  0  0  0  0  0  0  0  0
   -1.7610    3.7713   -3.7280 H   0  0  0  0  0  0  0  0  0  0  0  0
   -2.8382    3.6680   -2.3613 H   0  0  0  0  0  0  0  0  0  0  0  0
   -1.3883    2.1914   -0.9732 O   0  0  0  0  0  1  0  0  0  0  0  0
  1  2  1  0  0  0  0
  2  3  1  0  0  0  0
  3  4  1  0  0  0  0
  3  5  2  0  0  0  0
  5  6  1  0  0  0  0
  7  5  1  0  0  0  0
  7  8  1  0  0  0  0
  9  7  2  0  0  0  0
 10  9  1  0  0  0  0
 11  2  2  0  0  0  0
 11  9  1  0  0  0  0
 12 11  1  0  0  0  0
 13 12  1  0  0  0  0
 14 16  1  0  0  0  0
 14 12  2  0  0  0  0
 15 14  1  0  0  0  0
 16  1  2  0  0  0  0
 17 19  2  0  0  0  0
 17 16  1  0  0  0  0
 18 17  1  0  0  0  0
 20 22  1  0  0  0  0
 20 19  1  0  0  0  0
 21 20  1  0  0  0  0
 22 26  1  1  0  0  0
 23 25  1  0  0  0  0
 23 22  1  0  0  0  0
 24 23  1  0  0  0  0
M  CHG  1   4  -1
M  END
