1,2
q = 0.0, confidence = 0.994

 27 27  0  0  1  0  0  0  0  0999 V2000
   -1.9875    1.2979   -0.9581 O   0  0  0  0  0  1  0  0  0  0  0  0
    0.1326   -0.0288    0.4152 O   0  0  0  0  0  1  0  0  0  0  0  0
    2.0110    1.1905   -0.0010 N   0  0  0  0  0  0  0  0  0  0  0  0
   -1.4590    3.4734   -1.7709 C   0  0  0  0  0  0  0  0  0  0  0  0
   -1.2571    2.2820   -0.8797 C   0  0  1  0  0  3  0  0  0  0  0  0
   -0.1372    2.3508    0.1531 C   0  0  0  0  0  0  0  0  0  0  0  0
    0.6739    1.0688    0.2052 C   0  0  1  0  0  3  0  0  0  0  0  0
    2.9803    0.1510   -0.0450 C   0  0  0  0  0  0  0  0  0  0  0  0
    2.6476   -1.1410   -0.4967 C   0  0  0  0  0  0  0  0  0  0  0  0
    3.6397   -2.1284   -0.5418 C   0  0  0  0  0  0  0  0  0  0  0  0
    4.9538   -1.8329   -0.1508 C   0  0  0  0  0  0  0  0  0  0  0  0
    5.2752   -0.5397    0.2853 C   0  0  0  0  0  0  0  0  0  0  0  0
    4.3034    0.4746    0.3531 C   0  0  0  0  0  0  0  0  0  0  0  0
    4.6531    1.8583    0.8408 C   0  0  0  0  0  0  0  0  0  0  0  0
    2.3743    2.1430   -0.0642 H   0  0  0  0  0  0  0  0  0  0  0  0
   -1.5677    4.3938   -1.1597 H   0  0  0  0  0  0  0  0  0  0  0  0
   -2.3496    3.3283   -2.4073 H   0  0  0  0  0  0  0  0  0  0  0  0
   -0.5593    3.6171   -2.4065 H   0  0  0  0  0  0  0  0  0  0  0  0
   -0.6750    2.4021    1.1318 H   0  0  0  0  0  0  0  0  0  0  0  0
    0.4854    3.2549    0.0184 H   0  0  0  0  0  0  0  0  0  0  0  0
    1.6227   -1.3666   -0.8192 H   0  0  0  0  0  0  0  0  0  0  0  0
    3.3756   -3.1370   -0.8923 H   0  0  0  0  0  0  0  0  0  0  0  0
    5.7323   -2.6093   -0.1861 H   0  0  0  0  0  0  0  0  0  0  0  0
    6.3061   -0.3040    0.5924 H   0  0  0  0  0  0  0  0  0  0  0  0
    4.5215    2.6323    0.0505 H   0  0  0  0  0  0  0  0  0  0  0  0
    5.7113    1.9102    1.1579 H   0  0  0  0  0  0  0  0  0  0  0  0
    4.0292    2.1622    1.7083 H   0  0  0  0  0  0  0  0  0  0  0  0
  3  7  1  0  0  0  0
  4 16  1  0  0  0  0
  4  5  1  0  0  0  0
  5  1  1  1  0  0  0
  5  6  1  0  0  0  0
  6  7  1  0  0  0  0
  6 19  1  0  0  0  0
  7  2  1  6  0  0  0
  8  3  1  0  0  0  0
  8 13  1  0  0  0  0
  9  8  2  0  0  0  0
 10  9  1  0  0  0  0
 10 11  2  0  0  0  0
 11 12  1  0  0  0  0
 12 13  2  0  0  0  0
 12 24  1  0  0  0  0
 13 14  1  0  0  0  0
 14 26  1  0  0  0  0
 14 27  1  0  0  0  0
 15  3  1  0  0  0  0
 17  4  1  0  0  0  0
 18  4  1  0  0  0  0
 20  6  1  0  0  0  0
 21  9  1  0  0  0  0
 22 10  1  0  0  0  0
 23 11  1  0  0  0  0
 25 14  1  0  0  0  0
M  END
