1,2
q = -1.0, confidence = 0.0

 28 29  0  0  1  0  0  0  0  0999 V2000
    2.1123   -0.9861    0.0707 O   0  0  0  0  0  1  0  0  0  0  0  0
    0.2307    0.3353   -1.5360 O   0  5  0  0  0  0  0  0  0  0  0  0
    0.7371    5.0883   -1.6617 O   0  0  0  0  0  0  0  0  0  0  0  0
    2.2502    1.3164   -0.6039 C   0  0  0  0  0  0  0  0  0  0  0  0
    0.9575    1.3769   -1.2846 C   0  0  0  0  0  0  0  0  0  0  0  0
    0.4816    2.6657   -1.6891 C   0  0  0  0  0  0  0  0  0  0  0  0
   -0.5051    2.6766   -2.1687 H   0  0  0  0  0  0  0  0  0  0  0  0
    1.1823    3.8330   -1.3928 C   0  0  0  0  0  0  0  0  0  0  0  0
    2.4427    3.7717   -0.7283 C   0  0  0  0  0  0  0  0  0  0  0  0
    2.9712    4.7099   -0.5095 H   0  0  0  0  0  0  0  0  0  0  0  0
    2.9479    2.5383   -0.3592 C   0  0  0  0  0  0  0  0  0  0  0  0
    3.8993    2.5001    0.1907 H   0  0  0  0  0  0  0  0  0  0  0  0
    2.7970    0.0559   -0.1403 C   0  0  2  0  0  3  0  0  0  0  0  0
    4.2709   -0.0868    0.1247 C   0  0  0  0  0  0  0  0  0  0  0  0
    4.6797   -0.9198    1.1883 C   0  0  0  0  0  0  0  0  0  0  0  0
    3.9015   -1.3936    1.8046 H   0  0  0  0  0  0  0  0  0  0  0  0
    6.0392   -1.1334    1.4448 C   0  0  0  0  0  0  0  0  0  0  0  0
    6.3459   -1.7702    2.2890 H   0  0  0  0  0  0  0  0  0  0  0  0
    7.0126   -0.5395    0.6226 C   0  0  0  0  0  0  0  0  0  0  0  0
    8.0820   -0.7121    0.8192 H   0  0  0  0  0  0  0  0  0  0  0  0
    6.6165    0.2670   -0.4560 C   0  0  0  0  0  0  0  0  0  0  0  0
    7.3744    0.7177   -1.1151 H   0  0  0  0  0  0  0  0  0  0  0  0
    5.2546    0.4970   -0.7018 C   0  0  0  0  0  0  0  0  0  0  0  0
    4.9438    1.1169   -1.5556 H   0  0  0  0  0  0  0  0  0  0  0  0
   -0.5550    5.2314   -2.2276 C   0  0  0  0  0  0  0  0  0  0  0  0
   -0.7345    6.3184   -2.3234 H   0  0  0  0  0  0  0  0  0  0  0  0
   -1.3347    4.7833   -1.5735 H   0  0  0  0  0  0  0  0  0  0  0  0
   -0.6169    4.7613   -3.2345 H   0  0  0  0  0  0  0  0  0  0  0  0
  2  5  1  0  0  0  0
  3  8  1  0  0  0  0
  4 11  1  0  0  0  0
  4 13  1  0  0  0  0
  5  4  2  0  0  0  0
  6  8  2  0  0  0  0
  6  5  1  0  0  0  0
  7  6  1  0  0  0  0
  8  9  1  0  0  0  0
  9 10  1  0  0  0  0
  9 11  2  0  0  0  0
 11 12  1  0  0  0  0
 13  1  1  6  0  0  0
 13 14  1  0  0  0  0
 14 15  1  0  0  0  0
 15 17  2  0  0  0  0
 15 16  1  0  0  0  0
 17 18  1  0  0  0  0
 19 20  1  0  0  0  0
 19 17  1  0  0  0  0
 21 19  2  0  0  0  0
 22 21  1  0  0  0  0
 23 21  1  0  0  0  0
 23 14  2  0  0  0  0
 24 23  1  0  0  0  0
 25  3  1  0  0  0  0
 25 27  1  0  0  0  0
 26 25  1  0  0  0  0
 28 25  1  0  0  0  0
M  CHG  1   2  -1
M  END
