4,5
q = -2.0, confidence = 0.852

 25 25  0  0  1  0  0  0  0  0999 V2000
   -3.6909    0.3567   -1.6157 O   0  0  0  0  0  0  0  0  0  0  0  0
   -1.5784    2.2464    0.6568 O   0  0  0  0  0  0  0  0  0  0  0  0
   -2.1778    3.0004    0.7998 H   0  0  0  0  0  0  0  0  0  0  0  0
    0.3796    1.0969   -1.0009 O   0  0  0  0  0  1  0  0  0  0  0  0
    0.2752   -1.2562    0.2343 O   0  0  0  0  0  1  0  0  0  0  0  0
   -3.2401   -0.2432    0.6078 O   0  0  0  0  0  0  0  0  0  0  0  0
   -2.0782   -1.4014    2.8300 O   0  0  0  0  0  0  0  0  0  0  0  0
   -2.7552   -0.6956    2.8005 H   0  0  0  0  0  0  0  0  0  0  0  0
   -3.3162    0.8061   -0.3459 C   0  0  1  0  0  0  0  0  0  0  0  0
   -4.0911    1.4888    0.0840 H   0  0  0  0  0  0  0  0  0  0  0  0
   -1.9763    1.5663   -0.5327 C   0  0  2  0  0  0  0  0  0  0  0  0
   -2.0971    2.2716   -1.3851 H   0  0  0  0  0  0  0  0  0  0  0  0
   -0.8965    0.5275   -0.8425 C   0  0  2  0  0  0  0  0  0  0  0  0
   -1.2228   -0.0219   -1.7624 H   0  0  0  0  0  0  0  0  0  0  0  0
   -0.8762   -0.4617    0.3341 C   0  0  1  0  0  0  0  0  0  0  0  0
   -0.8826    0.1144    1.2873 H   0  0  0  0  0  0  0  0  0  0  0  0
   -2.2005   -1.2268    0.4113 C   0  0  1  0  0  0  0  0  0  0  0  0
   -2.3789   -1.8097   -0.5219 H   0  0  0  0  0  0  0  0  0  0  0  0
   -2.2672   -2.1354    1.6356 C   0  0  0  0  0  0  0  0  0  0  0  0
   -3.2390   -2.6850    1.6270 H   0  0  0  0  0  0  0  0  0  0  0  0
   -1.4504   -2.8819    1.5646 H   0  0  0  0  0  0  0  0  0  0  0  0
   -5.0083   -0.1770   -1.6764 C   0  0  0  0  0  0  0  0  0  0  0  0
   -5.1806   -0.5025   -2.7188 H   0  0  0  0  0  0  0  0  0  0  0  0
   -5.7671    0.5935   -1.4068 H   0  0  0  0  0  0  0  0  0  0  0  0
   -5.1308   -1.0443   -0.9928 H   0  0  0  0  0  0  0  0  0  0  0  0
  1  9  1  0  0  0  0
  2  3  1  0  0  0  0
  4 13  1  0  0  0  0
  5 15  1  0  0  0  0
  8  7  1  0  0  0  0
  9 10  1  1  0  0  0
  9  6  1  0  0  0  0
 11 12  1  6  0  0  0
 11  9  1  0  0  0  0
 11  2  1  0  0  0  0
 13 14  1  6  0  0  0
 13 11  1  0  0  0  0
 13 15  1  0  0  0  0
 15 17  1  0  0  0  0
 15 16  1  1  0  0  0
 17 18  1  6  0  0  0
 17  6  1  0  0  0  0
 17 19  1  0  0  0  0
 19  7  1  0  0  0  0
 20 19  1  0  0  0  0
 21 19  1  0  0  0  0
 22  1  1  0  0  0  0
 22 24  1  0  0  0  0
 22 25  1  0  0  0  0
 23 22  1  0  0  0  0
M  END
