1,14
q = 0.0, confidence = 1.0

 26 25  0  0  1  0  0  0  0  0999 V2000
    1.3080    0.5730    0.6033 O   0  0  0  0  0  1  0  0  0  0  0  0
    2.9046    2.1082    0.2774 O   0  0  0  0  0  0  0  0  0  0  0  0
    1.6450    1.6979    0.2303 C   0  0  1  0  0  3  0  0  0  0  0  0
    0.6951    2.7255   -0.3298 C   0  0  0  0  0  0  0  0  0  0  0  0
    0.6158    2.4878   -1.4142 H   0  0  0  0  0  0  0  0  0  0  0  0
    1.1693    3.7214   -0.2518 H   0  0  0  0  0  0  0  0  0  0  0  0
    3.9066    1.1109    0.6664 C   0  0  0  0  0  0  0  0  0  0  0  0
    3.4764    0.4864    1.4738 H   0  0  0  0  0  0  0  0  0  0  0  0
    4.7382    1.7204    1.0674 H   0  0  0  0  0  0  0  0  0  0  0  0
    4.3242    0.2669   -0.5224 C   0  0  0  0  0  0  0  0  0  0  0  0
    3.4723   -0.3258   -0.9105 H   0  0  0  0  0  0  0  0  0  0  0  0
    5.1170   -0.4395   -0.2046 H   0  0  0  0  0  0  0  0  0  0  0  0
    4.7281    0.8967   -1.3396 H   0  0  0  0  0  0  0  0  0  0  0  0
   -1.3080    0.5730   -0.6036 O   0  0  0  0  0  1  0  0  0  0  0  0
   -2.9047    2.1081   -0.2774 O   0  0  0  0  0  0  0  0  0  0  0  0
   -1.6450    1.6978   -0.2304 C   0  0  1  0  0  3  0  0  0  0  0  0
   -0.6952    2.7255    0.3296 C   0  0  0  0  0  0  0  0  0  0  0  0
   -0.6158    2.4880    1.4140 H   0  0  0  0  0  0  0  0  0  0  0  0
   -1.1694    3.7214    0.2516 H   0  0  0  0  0  0  0  0  0  0  0  0
   -3.9067    1.1108   -0.6664 C   0  0  0  0  0  0  0  0  0  0  0  0
   -3.4765    0.4862   -1.4737 H   0  0  0  0  0  0  0  0  0  0  0  0
   -4.7382    1.7203   -1.0674 H   0  0  0  0  0  0  0  0  0  0  0  0
   -4.3243    0.2668    0.5225 C   0  0  0  0  0  0  0  0  0  0  0  0
   -3.4725   -0.3259    0.9106 H   0  0  0  0  0  0  0  0  0  0  0  0
   -5.1171   -0.4396    0.2046 H   0  0  0  0  0  0  0  0  0  0  0  0
   -4.7283    0.8967    1.3396 H   0  0  0  0  0  0  0  0  0  0  0  0
  2  7  1  0  0  0  0
  3  2  1  0  0  0  0
  3  1  1  6  0  0  0
  4  6  1  0  0  0  0
  4  3  1  0  0  0  0
  4 17  1  0  0  0  0
  5  4  1  0  0  0  0
  7  9  1  0  0  0  0
  7  8  1  0  0  0  0
 10 12  1  0  0  0  0
 10  7  1  0  0  0  0
 11 10  1  0  0  0  0
 13 10  1  0  0  0  0
 15 16  1  0  0  0  0
 16 14  1  1  0  0  0
 16 17  1  0  0  0  0
 17 18  1  0  0  0  0
 19 17  1  0  0  0  0
 20 15  1  0  0  0  0
 20 23  1  0  0  0  0
 21 20  1  0  0  0  0
 22 20  1  0  0  0  0
 23 24  1  0  0  0  0
 23 26  1  0  0  0  0
 25 23  1  0  0  0  0
M  END
