2,3
q = -2.0, confidence = 0.83

 11 10  0  0  1  0  0  0  0  0999 V2000
   -4.8145   -1.9331    0.2031 Cl  0  0  0  0  0  0  0  0  0  0  0  0
   -1.2000   -0.6407   -1.4801 O   0  0  0  0  0  1  0  0  0  0  0  0
   -0.8589   -1.6076    0.7336 O   0  0  0  0  0  1  0  0  0  0  0  0
   -1.9083   -1.8503   -1.3530 C   0  0  0  0  0  0  0  0  0  0  0  0
   -1.3307   -2.6849   -1.8123 H   0  0  0  0  0  0  0  0  0  0  0  0
   -2.8939   -1.7818   -1.8618 H   0  0  0  0  0  0  0  0  0  0  0  0
   -2.0616   -2.0813    0.1680 C   0  0  2  0  0  0  0  0  0  0  0  0
   -2.1862   -3.1634    0.3985 H   0  0  0  0  0  0  0  0  0  0  0  0
   -3.2295   -1.3062    0.7896 C   0  0  0  0  0  0  0  0  0  0  0  0
   -3.1659   -0.2312    0.5322 H   0  0  0  0  0  0  0  0  0  0  0  0
   -3.2065   -1.4097    1.8902 H   0  0  0  0  0  0  0  0  0  0  0  0
  1  9  1  0  0  0  0
  2  4  1  0  0  0  0
  4  7  1  0  0  0  0
  5  4  1  0  0  0  0
  6  4  1  0  0  0  0
  7  8  1  1  0  0  0
  7  3  1  0  0  0  0
  7  9  1  0  0  0  0
  9 11  1  0  0  0  0
 10  9  1  0  0  0  0
M  END
