22,23
q = -2.0, confidence = 0.85

 24 24  0  0  0  0  0  0  0  0999 V2000
   -2.5930   -0.6205    1.1159 C   0  0  0  0  0  0  0  0  0  0  0  0
   -2.8096   -1.6892    1.2893 H   0  0  0  0  0  0  0  0  0  0  0  0
   -2.9724    0.0010    1.9457 H   0  0  0  0  0  0  0  0  0  0  0  0
   -2.9625   -0.2040   -0.3230 C   0  0  0  0  0  0  0  0  0  0  0  0
   -1.4936   -0.4341   -0.7632 C   0  0  0  0  0  0  0  0  0  0  0  0
   -1.0456    0.3412   -1.4133 H   0  0  0  0  0  0  0  0  0  0  0  0
   -1.3476   -1.4407   -1.2000 H   0  0  0  0  0  0  0  0  0  0  0  0
   -1.1040   -0.4156    0.7654 C   0  0  0  0  0  0  0  0  0  0  0  0
   -4.2679    1.6990    0.2996 C   0  0  0  0  0  0  0  0  0  0  0  0
   -4.6010    2.6443   -0.1722 H   0  0  0  0  0  0  0  0  0  0  0  0
   -3.8874    1.9260    1.3195 H   0  0  0  0  0  0  0  0  0  0  0  0
   -5.1365    1.0075    0.3661 H   0  0  0  0  0  0  0  0  0  0  0  0
   -4.1596   -0.8504   -2.2602 C   0  0  0  0  0  0  0  0  0  0  0  0
   -4.9922   -1.5148   -2.5613 H   0  0  0  0  0  0  0  0  0  0  0  0
   -3.2514   -1.1348   -2.8442 H   0  0  0  0  0  0  0  0  0  0  0  0
   -4.4155    0.2009   -2.5172 H   0  0  0  0  0  0  0  0  0  0  0  0
   -0.1818   -1.5869    1.1518 C   0  0  0  0  0  0  0  0  0  0  0  0
   -0.6200    0.9854    1.2060 C   0  0  0  0  0  0  0  0  0  0  0  0
   -3.2368    1.1670   -0.5204 O   0  0  0  0  0  0  0  0  0  0  0  0
   -3.9671   -1.0240   -0.8686 O   0  0  0  0  0  0  0  0  0  0  0  0
   -0.5899   -2.5680    1.7520 O   0  5  0  0  0  0  0  0  0  0  0  0
    1.0828   -1.5270    0.7223 O   0  0  0  0  0  0  0  0  0  0  0  0
    0.5585    1.3936    0.7300 O   0  5  0  0  0  0  0  0  0  0  0  0
   -1.2876    1.7149    1.9230 O   0  0  0  0  0  0  0  0  0  0  0  0
  1  2  1  0  0  0  0
  1  3  1  0  0  0  0
  4  1  1  0  0  0  0
  5  4  1  0  0  0  0
  5  8  1  0  0  0  0
  6  5  1  0  0  0  0
  7  5  1  0  0  0  0
  8  1  1  0  0  0  0
  8 17  1  0  0  0  0
  8 18  1  0  0  0  0
  9 12  1  0  0  0  0
  9 11  1  0  0  0  0
 10  9  1  0  0  0  0
 13 20  1  0  0  0  0
 14 13  1  0  0  0  0
 15 13  1  0  0  0  0
 16 13  1  0  0  0  0
 17 21  1  0  0  0  0
 18 24  2  0  0  0  0
 19  4  1  0  0  0  0
 19  9  1  0  0  0  0
 20  4  1  0  0  0  0
 22 17  2  0  0  0  0
 23 18  1  0  0  0  0
M  CHG  2  21  -1  23  -1
M  END
