2,3
q = -2.0, confidence = 0.96

 45 47  0  0  1  0  0  0  0  0999 V2000
   -0.7753   -1.8595   -1.7286 S   0  0  0  0  0  0  0  0  0  0  0  0
   -1.1219    0.2363    0.3617 O   0  0  0  0  0  1  0  0  0  0  0  0
    1.5270   -0.2104   -0.5170 O   0  0  0  0  0  1  0  0  0  0  0  0
   -3.3677   -0.6708    0.9481 C   0  0  2  0  0  0  0  0  0  0  0  0
   -1.8198   -0.8797    0.7993 C   0  0  1  0  0  0  0  0  0  0  0  0
   -1.7268   -2.1236   -0.1899 C   0  0  1  0  0  0  0  0  0  0  0  0
   -3.2160   -2.4536   -0.4597 C   0  0  1  0  0  0  0  0  0  0  0  0
   -3.7542   -3.0896    0.8433 C   0  0  0  0  0  0  0  0  0  0  0  0
   -3.8373   -1.8738    1.8113 C   0  0  0  0  0  0  0  0  0  0  0  0
   -3.9184   -1.0602   -0.4730 C   0  0  0  0  0  0  0  0  0  0  0  0
   -3.4828   -0.1191   -1.6044 C   0  0  0  0  0  0  0  0  0  0  0  0
   -5.4525   -1.1595   -0.5404 C   0  0  0  0  0  0  0  0  0  0  0  0
   -3.7624    0.6883    1.4965 C   0  0  0  0  0  0  0  0  0  0  0  0
    0.8794   -2.4293   -1.2426 C   0  0  0  0  0  0  0  0  0  0  0  0
    1.5743   -1.5617   -0.1659 C   0  0  1  0  0  0  0  0  0  0  0  0
    3.0081   -2.0325    0.0271 C   0  0  0  0  0  0  0  0  0  0  0  0
    3.3304   -2.9754    1.0197 C   0  0  0  0  0  0  0  0  0  0  0  0
    4.6489   -3.4345    1.1671 C   0  0  0  0  0  0  0  0  0  0  0  0
    5.6596   -2.9509    0.3216 C   0  0  0  0  0  0  0  0  0  0  0  0
    5.3445   -2.0088   -0.6722 C   0  0  0  0  0  0  0  0  0  0  0  0
    4.0265   -1.5538   -0.8199 C   0  0  0  0  0  0  0  0  0  0  0  0
   -1.4037   -1.1711    1.7931 H   0  0  0  0  0  0  0  0  0  0  0  0
   -1.2336   -2.9739    0.3229 H   0  0  0  0  0  0  0  0  0  0  0  0
   -3.3617   -3.0743   -1.3651 H   0  0  0  0  0  0  0  0  0  0  0  0
   -4.7464   -3.5530    0.6788 H   0  0  0  0  0  0  0  0  0  0  0  0
   -3.0856   -3.8925    1.2129 H   0  0  0  0  0  0  0  0  0  0  0  0
   -3.2003   -1.9922    2.7120 H   0  0  0  0  0  0  0  0  0  0  0  0
   -4.8697   -1.7054    2.1764 H   0  0  0  0  0  0  0  0  0  0  0  0
   -3.8030   -0.5261   -2.5854 H   0  0  0  0  0  0  0  0  0  0  0  0
   -2.3960    0.0691   -1.6554 H   0  0  0  0  0  0  0  0  0  0  0  0
   -3.9709    0.8703   -1.4862 H   0  0  0  0  0  0  0  0  0  0  0  0
   -5.7588   -1.5891   -1.5162 H   0  0  0  0  0  0  0  0  0  0  0  0
   -5.9071   -0.1501   -0.4748 H   0  0  0  0  0  0  0  0  0  0  0  0
   -5.9063   -1.7802    0.2546 H   0  0  0  0  0  0  0  0  0  0  0  0
   -3.3295    1.5051    0.8868 H   0  0  0  0  0  0  0  0  0  0  0  0
   -3.4070    0.8166    2.5393 H   0  0  0  0  0  0  0  0  0  0  0  0
   -4.8652    0.8038    1.5047 H   0  0  0  0  0  0  0  0  0  0  0  0
    0.8540   -3.4893   -0.9120 H   0  0  0  0  0  0  0  0  0  0  0  0
    1.4707   -2.3827   -2.1802 H   0  0  0  0  0  0  0  0  0  0  0  0
    1.0327   -1.7209    0.7990 H   0  0  0  0  0  0  0  0  0  0  0  0
    2.5396   -3.3468    1.6919 H   0  0  0  0  0  0  0  0  0  0  0  0
    4.8896   -4.1677    1.9521 H   0  0  0  0  0  0  0  0  0  0  0  0
    6.6949   -3.3051    0.4396 H   0  0  0  0  0  0  0  0  0  0  0  0
    6.1340   -1.6240   -1.3360 H   0  0  0  0  0  0  0  0  0  0  0  0
    3.7698   -0.8091   -1.5885 H   0  0  0  0  0  0  0  0  0  0  0  0
  1 14  1  0  0  0  0
  1  6  1  0  0  0  0
  2  5  1  0  0  0  0
  3 15  1  0  0  0  0
  4 13  1  1  0  0  0
  4  9  1  0  0  0  0
  5  4  1  0  0  0  0
  5 22  1  1  0  0  0
  6 23  1  1  0  0  0
  6  5  1  0  0  0  0
  7 24  1  6  0  0  0
  7  6  1  0  0  0  0
  7  8  1  0  0  0  0
  8 26  1  0  0  0  0
  8  9  1  0  0  0  0
  9 28  1  0  0  0  0
  9 27  1  0  0  0  0
 10  7  1  0  0  0  0
 10  4  1  0  0  0  0
 11 31  1  0  0  0  0
 11 10  1  0  0  0  0
 12 33  1  0  0  0  0
 12 10  1  0  0  0  0
 12 34  1  0  0  0  0
 13 37  1  0  0  0  0
 13 36  1  0  0  0  0
 14 38  1  0  0  0  0
 14 15  1  0  0  0  0
 15 16  1  0  0  0  0
 15 40  1  1  0  0  0
 16 17  1  0  0  0  0
 17 18  2  0  0  0  0
 17 41  1  0  0  0  0
 18 42  1  0  0  0  0
 19 43  1  0  0  0  0
 19 18  1  0  0  0  0
 20 19  2  0  0  0  0
 21 20  1  0  0  0  0
 21 16  2  0  0  0  0
 25  8  1  0  0  0  0
 29 11  1  0  0  0  0
 30 11  1  0  0  0  0
 32 12  1  0  0  0  0
 35 13  1  0  0  0  0
 39 14  1  0  0  0  0
 44 20  1  0  0  0  0
 45 21  1  0  0  0  0
M  END
