1,2
q = -1.0, confidence = 0.026

 33 34  0  0  1  0  0  0  0  0999 V2000
    1.0468   -0.4721    0.0395 O   0  0  0  0  0  1  0  0  0  0  0  0
   -0.4614    2.0863   -0.0188 O   0  5  0  0  0  0  0  0  0  0  0  0
    3.3042    0.1077   -0.0085 N   0  0  0  0  0  0  0  0  0  0  0  0
    4.1017    1.2252   -0.1181 N   0  0  0  0  0  0  0  0  0  0  0  0
    1.9599    0.4313   -0.0093 C   0  0  1  0  0  3  0  0  0  0  0  0
    1.9028    1.8710   -0.0929 C   0  0  0  0  0  0  0  0  0  0  0  0
    0.6932    2.6253   -0.0701 C   0  0  0  0  0  0  0  0  0  0  0  0
    0.7108    4.1516   -0.0368 C   0  0  0  0  0  0  0  0  0  0  0  0
    1.6215    4.4933   -0.5641 H   0  0  0  0  0  0  0  0  0  0  0  0
   -0.5107    4.7549   -0.7379 C   0  0  0  0  0  0  0  0  0  0  0  0
   -0.5958    4.4034   -1.7852 H   0  0  0  0  0  0  0  0  0  0  0  0
   -0.4374    5.8607   -0.7480 H   0  0  0  0  0  0  0  0  0  0  0  0
   -1.4463    4.4800   -0.2123 H   0  0  0  0  0  0  0  0  0  0  0  0
    0.8022    4.6119    1.4322 C   0  0  0  0  0  0  0  0  0  0  0  0
    1.6982    4.2008    1.9383 H   0  0  0  0  0  0  0  0  0  0  0  0
   -0.0897    4.2706    1.9962 H   0  0  0  0  0  0  0  0  0  0  0  0
    0.8461    5.7183    1.4918 H   0  0  0  0  0  0  0  0  0  0  0  0
    3.2982    2.2736   -0.1640 C   0  0  0  0  0  0  0  0  0  0  0  0
    3.9217    3.6302   -0.2830 C   0  0  0  0  0  0  0  0  0  0  0  0
    5.0210    3.5085   -0.2858 H   0  0  0  0  0  0  0  0  0  0  0  0
    3.6454    4.2968    0.5588 H   0  0  0  0  0  0  0  0  0  0  0  0
    3.6278    4.1411   -1.2235 H   0  0  0  0  0  0  0  0  0  0  0  0
    3.9107   -1.1732    0.0380 C   0  0  0  0  0  0  0  0  0  0  0  0
    3.2394   -2.2843    0.5892 C   0  0  0  0  0  0  0  0  0  0  0  0
    2.2301   -2.1644    0.9986 H   0  0  0  0  0  0  0  0  0  0  0  0
    3.8784   -3.5321    0.6146 C   0  0  0  0  0  0  0  0  0  0  0  0
    3.3478   -4.3944    1.0466 H   0  0  0  0  0  0  0  0  0  0  0  0
    5.1786   -3.6857    0.1095 C   0  0  0  0  0  0  0  0  0  0  0  0
    5.6720   -4.6688    0.1342 H   0  0  0  0  0  0  0  0  0  0  0  0
    5.8462   -2.5697   -0.4211 C   0  0  0  0  0  0  0  0  0  0  0  0
    6.8691   -2.6735   -0.8143 H   0  0  0  0  0  0  0  0  0  0  0  0
    5.2217   -1.3173   -0.4608 C   0  0  0  0  0  0  0  0  0  0  0  0
    5.7294   -0.4317   -0.8640 H   0  0  0  0  0  0  0  0  0  0  0  0
  3 23  1  0  0  0  0
  4  3  1  0  0  0  0
  5  3  1  0  0  0  0
  5  1  1  6  0  0  0
  6  7  2  0  0  0  0
  6  5  1  0  0  0  0
  7  8  1  0  0  0  0
  7  2  1  0  0  0  0
  8 14  1  0  0  0  0
  9  8  1  0  0  0  0
 10 13  1  0  0  0  0
 10  8  1  0  0  0  0
 11 10  1  0  0  0  0
 12 10  1  0  0  0  0
 14 17  1  0  0  0  0
 14 15  1  0  0  0  0
 14 16  1  0  0  0  0
 18  4  2  0  0  0  0
 18  6  1  0  0  0  0
 19 18  1  0  0  0  0
 19 21  1  0  0  0  0
 20 19  1  0  0  0  0
 22 19  1  0  0  0  0
 23 24  1  0  0  0  0
 24 26  2  0  0  0  0
 24 25  1  0  0  0  0
 26 27  1  0  0  0  0
 28 29  1  0  0  0  0
 28 26  1  0  0  0  0
 30 28  2  0  0  0  0
 31 30  1  0  0  0  0
 32 30  1  0  0  0  0
 32 23  2  0  0  0  0
 33 32  1  0  0  0  0
M  CHG  1   2  -1
M  END
