1,12
q = -2.0, confidence = 0.652

 15 14  0  0  0  0  0  0  0  0999 V2000
    0.2829    1.4851   -0.3323 O   0  5  0  0  0  0  0  0  0  0  0  0
    2.3382    2.2265   -0.6828 O   0  0  0  0  0  0  0  0  0  0  0  0
    1.6091    1.3191   -0.3140 C   0  0  0  0  0  0  0  0  0  0  0  0
    2.1878   -0.0000    0.2802 C   0  0  0  0  0  0  0  0  0  0  0  0
    3.7061   -0.0000    0.0699 C   0  0  0  0  0  0  0  0  0  0  0  0
    1.8761   -0.0000    1.8019 C   0  0  0  0  0  0  0  0  0  0  0  0
    4.1506    0.9069    0.5202 H   0  0  0  0  0  0  0  0  0  0  0  0
    2.3190    0.8984    2.2771 H   0  0  0  0  0  0  0  0  0  0  0  0
    3.9530    0.0000   -1.0079 H   0  0  0  0  0  0  0  0  0  0  0  0
    0.7846   -0.0000    1.9995 H   0  0  0  0  0  0  0  0  0  0  0  0
    1.6091   -1.3191   -0.3140 C   0  0  0  0  0  0  0  0  0  0  0  0
    0.2829   -1.4851   -0.3323 O   0  5  0  0  0  0  0  0  0  0  0  0
    2.3382   -2.2265   -0.6829 O   0  0  0  0  0  0  0  0  0  0  0  0
    4.1506   -0.9069    0.5202 H   0  0  0  0  0  0  0  0  0  0  0  0
    2.3190   -0.8985    2.2771 H   0  0  0  0  0  0  0  0  0  0  0  0
  1  3  1  0  0  0  0
  2  3  2  0  0  0  0
  3  4  1  0  0  0  0
  4  6  1  0  0  0  0
  5  4  1  0  0  0  0
  5 14  1  0  0  0  0
  5  7  1  0  0  0  0
  6 10  1  0  0  0  0
  6 15  1  0  0  0  0
  6  8  1  0  0  0  0
  9  5  1  0  0  0  0
 11  4  1  0  0  0  0
 12 11  1  0  0  0  0
 13 11  2  0  0  0  0
M  CHG  2   1  -1  12  -1
M  END
