1,3,5,6
q = -2.0, confidence = 0.728

 22 21  0  0  0  0  0  0  0  0999 V2000
   -1.7678   -0.2171    1.0201 O   0  5  0  0  0  0  0  0  0  0  0  0
   -3.7138    0.8965    0.9848 O   0  0  0  0  0  0  0  0  0  0  0  0
    1.7678   -0.2171   -1.0201 O   0  5  0  0  0  0  0  0  0  0  0  0
    3.7138    0.8965   -0.9848 O   0  0  0  0  0  0  0  0  0  0  0  0
   -0.8173    1.1683   -1.1730 N   0  0  0  0  0  0  0  0  0  0  0  0
    0.8173    1.1683    1.1730 N   0  0  0  0  0  0  0  0  0  0  0  0
   -0.1183    2.4174   -0.7555 C   0  0  0  0  0  0  0  0  0  0  0  0
    0.1183    2.4174    0.7555 C   0  0  0  0  0  0  0  0  0  0  0  0
   -2.2877    1.1131   -0.9465 C   0  0  0  0  0  0  0  0  0  0  0  0
   -2.6572    0.5931    0.4631 C   0  0  0  0  0  0  0  0  0  0  0  0
    2.2877    1.1131    0.9465 C   0  0  0  0  0  0  0  0  0  0  0  0
    2.6572    0.5931   -0.4630 C   0  0  0  0  0  0  0  0  0  0  0  0
   -0.5943    0.9440   -2.1549 H   0  0  0  0  0  0  0  0  0  0  0  0
    0.5943    0.9440    2.1549 H   0  0  0  0  0  0  0  0  0  0  0  0
    0.8446    2.4529   -1.3020 H   0  0  0  0  0  0  0  0  0  0  0  0
   -0.7107    3.3093   -1.0487 H   0  0  0  0  0  0  0  0  0  0  0  0
   -0.8446    2.4529    1.3019 H   0  0  0  0  0  0  0  0  0  0  0  0
    0.7107    3.3093    1.0487 H   0  0  0  0  0  0  0  0  0  0  0  0
   -2.7627    2.0977   -1.1250 H   0  0  0  0  0  0  0  0  0  0  0  0
   -2.6915    0.3726   -1.6654 H   0  0  0  0  0  0  0  0  0  0  0  0
    2.7626    2.0978    1.1250 H   0  0  0  0  0  0  0  0  0  0  0  0
    2.6914    0.3726    1.6654 H   0  0  0  0  0  0  0  0  0  0  0  0
  3 12  1  0  0  0  0
  4 12  2  0  0  0  0
  5  9  1  0  0  0  0
  5  7  1  0  0  0  0
  6 14  1  0  0  0  0
  7  8  1  0  0  0  0
  8 18  1  0  0  0  0
  8  6  1  0  0  0  0
  8 17  1  0  0  0  0
  9 10  1  0  0  0  0
 10  2  2  0  0  0  0
 10  1  1  0  0  0  0
 11 21  1  0  0  0  0
 11  6  1  0  0  0  0
 11 22  1  0  0  0  0
 12 11  1  0  0  0  0
 13  5  1  0  0  0  0
 15  7  1  0  0  0  0
 16  7  1  0  0  0  0
 19  9  1  0  0  0  0
 20  9  1  0  0  0  0
M  CHG  2   1  -1   3  -1
M  END
