1,5,9,19
q = -2.0, confidence = 0.856

 50 50  0  0  1  0  0  0  0  0999 V2000
   -1.4989    1.2217   -0.0273 N   0  0  0  0  0  2  0  0  0  0  0  0
   -4.7117   -0.7185    0.1653 C   0  0  0  0  0  0  0  0  0  0  0  0
   -5.2859   -1.7758    0.3463 O   0  0  0  0  0  0  0  0  0  0  0  0
   -1.6295   -3.8548   -0.2001 F   0  0  0  0  0  0  0  0  0  0  0  0
    1.0053    1.6321   -0.0237 N   0  0  0  0  0  2  0  0  0  0  0  0
   -5.3854    0.4656    0.0407 O   0  0  0  0  0  0  0  0  0  0  0  0
   -3.2384   -0.5146    0.0633 C   0  0  0  0  0  0  0  0  0  0  0  0
   -3.5640   -3.3424   -1.0383 F   0  0  0  0  0  0  0  0  0  0  0  0
   -1.0478   -1.4422   -0.0325 O   0  0  0  0  0  1  0  0  0  0  0  0
   -3.2894   -3.4631    1.1416 F   0  0  0  0  0  0  0  0  0  0  0  0
   -2.3094   -1.5911    0.0126 C   0  0  2  0  0  3  0  0  0  0  0  0
    2.7865   -3.0529   -0.7049 F   0  0  0  0  0  0  0  0  0  0  0  0
    5.0599    2.0298    0.0283 O   0  0  0  0  0  0  0  0  0  0  0  0
   -2.7207   -3.0918   -0.0193 C   0  0  0  0  0  0  0  0  0  0  0  0
   -2.7611    0.8193    0.0250 C   0  0  0  0  0  0  0  0  0  0  0  0
   -3.5427    1.5945    0.0431 H   0  0  0  0  0  0  0  0  0  0  0  0
    4.5367   -1.8337   -1.1103 F   0  0  0  0  0  0  0  0  0  0  0  0
    5.3768   -0.0964    0.7617 O   0  0  0  0  0  0  0  0  0  0  0  0
    1.4212   -1.0455   -0.0955 O   0  0  0  0  0  1  0  0  0  0  0  0
    4.0718   -2.4654    0.9427 F   0  0  0  0  0  0  0  0  0  0  0  0
   -1.1548    2.5923   -0.0749 C   0  0  0  0  0  0  0  0  0  0  0  0
   -2.0458    3.6821   -0.1247 C   0  0  0  0  0  0  0  0  0  0  0  0
   -3.1326    3.5221   -0.1333 H   0  0  0  0  0  0  0  0  0  0  0  0
   -1.5392    4.9857   -0.1710 C   0  0  0  0  0  0  0  0  0  0  0  0
   -2.2357    5.8360   -0.2123 H   0  0  0  0  0  0  0  0  0  0  0  0
   -0.1497    5.2122   -0.1716 C   0  0  0  0  0  0  0  0  0  0  0  0
    0.2412    6.2394   -0.2138 H   0  0  0  0  0  0  0  0  0  0  0  0
    0.7441    4.1366   -0.1252 C   0  0  0  0  0  0  0  0  0  0  0  0
    1.8258    4.3273   -0.1352 H   0  0  0  0  0  0  0  0  0  0  0  0
    0.2437    2.8211   -0.0747 C   0  0  0  0  0  0  0  0  0  0  0  0
    4.6297    0.9081    0.2635 C   0  0  0  0  0  0  0  0  0  0  0  0
    3.1948    0.5290    0.1015 C   0  0  0  0  0  0  0  0  0  0  0  0
    2.6648   -0.7801   -0.0369 C   0  0  2  0  0  3  0  0  0  0  0  0
    3.5384   -2.0526   -0.2227 C   0  0  0  0  0  0  0  0  0  0  0  0
    2.3272    1.6464    0.0542 C   0  0  0  0  0  0  0  0  0  0  0  0
    2.8471    2.6204    0.0820 H   0  0  0  0  0  0  0  0  0  0  0  0
   -6.8196    0.3777    0.1567 C   0  0  0  0  0  0  0  0  0  0  0  0
   -7.2003   -0.3170   -0.6215 H   0  0  0  0  0  0  0  0  0  0  0  0
   -7.0746   -0.0767    1.1376 H   0  0  0  0  0  0  0  0  0  0  0  0
   -7.3852    1.7748    0.0055 C   0  0  0  0  0  0  0  0  0  0  0  0
   -8.4899    1.7466    0.0844 H   0  0  0  0  0  0  0  0  0  0  0  0
   -7.1214    2.2076   -0.9801 H   0  0  0  0  0  0  0  0  0  0  0  0
   -7.0014    2.4497    0.7966 H   0  0  0  0  0  0  0  0  0  0  0  0
    6.8011    0.1264    0.8554 C   0  0  0  0  0  0  0  0  0  0  0  0
    6.9767    1.1762    1.1653 H   0  0  0  0  0  0  0  0  0  0  0  0
    7.1327   -0.5557    1.6621 H   0  0  0  0  0  0  0  0  0  0  0  0
    7.4913   -0.1847   -0.4624 C   0  0  0  0  0  0  0  0  0  0  0  0
    8.5900   -0.0939   -0.3458 H   0  0  0  0  0  0  0  0  0  0  0  0
    7.1699    0.5260   -1.2488 H   0  0  0  0  0  0  0  0  0  0  0  0
    7.2563   -1.2138   -0.7971 H   0  0  0  0  0  0  0  0  0  0  0  0
  1 15  1  0  0  0  0
  2  3  2  0  0  0  0
  4 14  1  0  0  0  0
  5 35  1  0  0  0  0
  6 37  1  0  0  0  0
  6  2  1  0  0  0  0
  7  2  1  0  0  0  0
  8 14  1  0  0  0  0
 11  9  1  6  0  0  0
 11  7  1  0  0  0  0
 12 34  1  0  0  0  0
 13 31  2  0  0  0  0
 14 11  1  0  0  0  0
 14 10  1  0  0  0  0
 15 16  1  0  0  0  0
 15  7  2  0  0  0  0
 17 34  1  0  0  0  0
 18 44  1  0  0  0  0
 21 30  1  0  0  0  0
 21  1  1  0  0  0  0
 22 21  2  0  0  0  0
 23 22  1  0  0  0  0
 24 22  1  0  0  0  0
 25 24  1  0  0  0  0
 26 24  2  0  0  0  0
 26 28  1  0  0  0  0
 27 26  1  0  0  0  0
 28 30  2  0  0  0  0
 29 28  1  0  0  0  0
 30  5  1  0  0  0  0
 31 18  1  0  0  0  0
 32 31  1  0  0  0  0
 33 19  1  6  0  0  0
 33 32  1  0  0  0  0
 34 33  1  0  0  0  0
 34 20  1  0  0  0  0
 35 36  1  0  0  0  0
 35 32  2  0  0  0  0
 37 39  1  0  0  0  0
 38 37  1  0  0  0  0
 40 41  1  0  0  0  0
 40 37  1  0  0  0  0
 40 43  1  0  0  0  0
 42 40  1  0  0  0  0
 44 45  1  0  0  0  0
 44 46  1  0  0  0  0
 47 48  1  0  0  0  0
 47 44  1  0  0  0  0
 49 47  1  0  0  0  0
 50 47  1  0  0  0  0
M  END
