1,2,3,4
q = -2.0, confidence = 0.776

 63 66  0  0  1  0  0  0  0  0999 V2000
    1.1932    2.4874   -0.2623 O   0  5  0  0  0  0  0  0  0  0  0  0
   -1.1932    2.4874    0.2626 O   0  0  0  0  0  1  0  0  0  0  0  0
    1.3682   -0.1779    0.2235 N   0  0  0  0  0  2  0  0  0  0  0  0
   -1.3682   -0.1779   -0.2235 N   0  0  0  0  0  2  0  0  0  0  0  0
    2.4376    2.4074   -0.6153 C   0  0  0  0  0  0  0  0  0  0  0  0
    3.0777    3.6031   -1.0783 C   0  0  0  0  0  0  0  0  0  0  0  0
    2.4558    4.5087   -1.1213 H   0  0  0  0  0  0  0  0  0  0  0  0
    4.4108    3.6090   -1.4613 C   0  0  0  0  0  0  0  0  0  0  0  0
    4.8652    4.5446   -1.8244 H   0  0  0  0  0  0  0  0  0  0  0  0
    5.1925    2.4290   -1.3862 C   0  0  0  0  0  0  0  0  0  0  0  0
    6.2499    2.4395   -1.6873 H   0  0  0  0  0  0  0  0  0  0  0  0
    4.6095    1.2593   -0.9181 C   0  0  0  0  0  3  0  0  0  0  0  0
    5.2153    0.3454   -0.8425 H   0  0  0  0  0  0  0  0  0  0  0  0
    3.2354    1.2037   -0.5353 C   0  0  0  0  0  0  0  0  0  0  0  0
    2.6679   -0.0067    0.0157 C   0  0  0  0  0  0  0  0  0  0  0  0
    3.6437   -1.0710    0.4377 C   0  0  0  0  0  0  0  0  0  0  0  0
    4.1006   -2.0451   -0.4711 C   0  0  0  0  0  0  0  0  0  0  0  0
    3.7333   -2.0324   -1.5077 H   0  0  0  0  0  0  0  0  0  0  0  0
    5.0278   -3.0170   -0.0642 C   0  0  0  0  0  0  0  0  0  0  0  0
    5.3775   -3.7722   -0.7844 H   0  0  0  0  0  0  0  0  0  0  0  0
    5.5107   -3.0231    1.2534 C   0  0  0  0  0  0  0  0  0  0  0  0
    6.2366   -3.7863    1.5723 H   0  0  0  0  0  0  0  0  0  0  0  0
    5.0719   -2.0449    2.1605 C   0  0  0  0  0  0  0  0  0  0  0  0
    5.4552   -2.0366    3.1921 H   0  0  0  0  0  0  0  0  0  0  0  0
    4.1497   -1.0698    1.7539 C   0  0  0  0  0  0  0  0  0  0  0  0
    3.8125   -0.2948    2.4589 H   0  0  0  0  0  0  0  0  0  0  0  0
    0.8805   -1.3808    0.9013 C   0  0  0  0  0  0  0  0  0  0  0  0
    0.2710   -1.0435    1.7645 H   0  0  0  0  0  0  0  0  0  0  0  0
    1.7151   -1.9852    1.3070 H   0  0  0  0  0  0  0  0  0  0  0  0
   -0.0000   -2.2766    0.0002 C   0  0  0  0  0  0  0  0  0  0  0  0
   -0.8805   -1.3808   -0.9011 C   0  0  0  0  0  0  0  0  0  0  0  0
   -0.2709   -1.0437   -1.7644 H   0  0  0  0  0  0  0  0  0  0  0  0
   -1.7150   -1.9854   -1.3068 H   0  0  0  0  0  0  0  0  0  0  0  0
   -2.6679   -0.0067   -0.0158 C   0  0  0  0  0  0  0  0  0  0  0  0
   -3.6437   -1.0710   -0.4378 C   0  0  0  0  0  0  0  0  0  0  0  0
   -4.1007   -2.0449    0.4710 C   0  0  0  0  0  0  0  0  0  0  0  0
   -3.7335   -2.0321    1.5077 H   0  0  0  0  0  0  0  0  0  0  0  0
   -5.0278   -3.0169    0.0642 C   0  0  0  0  0  0  0  0  0  0  0  0
   -5.3776   -3.7720    0.7845 H   0  0  0  0  0  0  0  0  0  0  0  0
   -5.5106   -3.0232   -1.2535 C   0  0  0  0  0  0  0  0  0  0  0  0
   -6.2365   -3.7864   -1.5723 H   0  0  0  0  0  0  0  0  0  0  0  0
   -5.0717   -2.0452   -2.1606 C   0  0  0  0  0  0  0  0  0  0  0  0
   -5.4549   -2.0370   -3.1923 H   0  0  0  0  0  0  0  0  0  0  0  0
   -4.1495   -1.0700   -1.7541 C   0  0  0  0  0  0  0  0  0  0  0  0
   -3.8122   -0.2952   -2.4592 H   0  0  0  0  0  0  0  0  0  0  0  0
   -3.2355    1.2038    0.5351 C   0  0  0  0  0  0  0  0  0  0  0  0
   -4.6096    1.2594    0.9176 C   0  0  0  0  0  0  0  0  0  0  0  0
   -5.2155    0.3456    0.8418 H   0  0  0  0  0  0  0  0  0  0  0  0
   -5.1926    2.4290    1.3858 C   0  0  0  0  0  0  0  0  0  0  0  0
   -6.2501    2.4396    1.6867 H   0  0  0  0  0  0  0  0  0  0  0  0
   -4.4109    3.6090    1.4612 C   0  0  0  0  0  0  0  0  0  0  0  0
   -4.8652    4.5445    1.8244 H   0  0  0  0  0  0  0  0  0  0  0  0
   -3.0777    3.6031    1.0785 C   0  0  0  0  0  0  0  0  0  0  0  0
   -2.4558    4.5086    1.1217 H   0  0  0  0  0  0  0  0  0  0  0  0
   -2.4376    2.4074    0.6154 C   0  0  2  0  0  3  0  0  0  0  0  0
    0.8524   -3.1608   -0.9217 C   0  0  0  0  0  0  0  0  0  0  0  0
    1.5035   -3.8413   -0.3375 H   0  0  0  0  0  0  0  0  0  0  0  0
    1.5002   -2.5470   -1.5777 H   0  0  0  0  0  0  0  0  0  0  0  0
    0.2044   -3.7810   -1.5749 H   0  0  0  0  0  0  0  0  0  0  0  0
   -0.8525   -3.1606    0.9221 C   0  0  0  0  0  0  0  0  0  0  0  0
   -1.5003   -2.5466    1.5780 H   0  0  0  0  0  0  0  0  0  0  0  0
   -0.2045   -3.7807    1.5755 H   0  0  0  0  0  0  0  0  0  0  0  0
   -1.5036   -3.8412    0.3381 H   0  0  0  0  0  0  0  0  0  0  0  0
  3 27  1  0  0  0  0
  4 34  1  0  0  0  0
  5 14  1  0  0  0  0
  5  1  1  0  0  0  0
  6  5  2  0  0  0  0
  7  6  1  0  0  0  0
  8 10  2  0  0  0  0
  8  6  1  0  0  0  0
  9  8  1  0  0  0  0
 10 12  1  0  0  0  0
 11 10  1  0  0  0  0
 12 13  1  0  0  0  0
 12 14  1  0  0  0  0
 14 15  2  0  0  0  0
 15  3  1  0  0  0  0
 15 16  1  0  0  0  0
 16 25  1  0  0  0  0
 17 19  1  0  0  0  0
 17 16  2  0  0  0  0
 18 17  1  0  0  0  0
 19 21  2  0  0  0  0
 20 19  1  0  0  0  0
 21 22  1  0  0  0  0
 21 23  1  0  0  0  0
 23 24  1  0  0  0  0
 25 23  2  0  0  0  0
 25 26  1  0  0  0  0
 27 29  1  0  0  0  0
 27 28  1  0  0  0  0
 30 27  1  0  0  0  0
 30 60  1  0  0  0  0
 31  4  1  0  0  0  0
 31 30  1  0  0  0  0
 32 31  1  0  0  0  0
 33 31  1  0  0  0  0
 34 46  2  0  0  0  0
 35 34  1  0  0  0  0
 35 36  1  0  0  0  0
 36 37  1  0  0  0  0
 38 36  2  0  0  0  0
 38 39  1  0  0  0  0
 40 38  1  0  0  0  0
 41 40  1  0  0  0  0
 42 44  1  0  0  0  0
 42 40  2  0  0  0  0
 43 42  1  0  0  0  0
 44 35  2  0  0  0  0
 45 44  1  0  0  0  0
 46 55  1  0  0  0  0
 46 47  1  0  0  0  0
 47 49  2  0  0  0  0
 48 47  1  0  0  0  0
 49 51  1  0  0  0  0
 49 50  1  0  0  0  0
 51 52  1  0  0  0  0
 53 54  1  0  0  0  0
 53 51  2  0  0  0  0
 55  2  1  6  0  0  0
 55 53  1  0  0  0  0
 56 57  1  0  0  0  0
 56 30  1  0  0  0  0
 58 56  1  0  0  0  0
 59 56  1  0  0  0  0
 60 62  1  0  0  0  0
 60 61  1  0  0  0  0
 63 60  1  0  0  0  0
M  CHG  1   1  -1
M  END
