1,3,6,11
q = -2.0, confidence = 0.948

 51 53  0  0  1  0  0  0  0  0999 V2000
    1.1034   -2.3514    0.8982 O   0  0  0  0  0  1  0  0  0  0  0  0
   -4.6618   -1.1976   -0.0717 O   0  0  0  0  0  0  0  0  0  0  0  0
    2.4445    1.1692    1.7787 O   0  0  0  0  0  1  0  0  0  0  0  0
    0.5948   -4.3378   -0.1112 N   0  0  0  0  0  0  0  0  0  0  0  0
    0.1507   -4.7850   -0.9127 H   0  0  0  0  0  0  0  0  0  0  0  0
    0.1935   -0.8411   -1.0419 N   0  0  0  0  0  0  0  0  0  0  0  0
   -2.7538    0.5039   -1.0630 N   0  0  0  0  0  0  0  0  0  0  0  0
   -2.6630   -0.4905   -1.2923 H   0  0  0  0  0  0  0  0  0  0  0  0
   -5.8415    0.5230    0.8931 N   0  0  0  0  0  0  0  0  0  0  0  0
   -5.8875    1.5311    1.0352 H   0  0  0  0  0  0  0  0  0  0  0  0
    1.1156    1.5975   -0.4188 N   0  0  0  0  0  0  0  0  0  0  0  0
    3.5490    3.1707    1.7786 N   0  0  0  0  0  0  0  0  0  0  0  0
    3.6750    4.0630    1.3017 H   0  0  0  0  0  0  0  0  0  0  0  0
    0.6278   -2.9805   -0.0979 C   0  0  2  0  0  3  0  0  0  0  0  0
    0.1325   -2.2147   -1.2183 C   0  0  0  0  0  3  0  0  0  0  0  0
   -0.4394   -2.5129   -2.4709 C   0  0  0  0  0  0  0  0  0  0  0  0
   -0.6234   -3.5042   -2.9044 H   0  0  0  0  0  0  0  0  0  0  0  0
   -0.7392   -1.2646   -3.0649 C   0  0  0  0  0  0  0  0  0  0  0  0
   -1.2081   -1.1031   -4.0417 H   0  0  0  0  0  0  0  0  0  0  0  0
   -0.3333   -0.2599   -2.1522 C   0  0  0  0  0  0  0  0  0  0  0  0
   -0.6087    1.2326   -2.2035 C   0  0  2  0  0  0  0  0  0  0  0  0
    0.5218    2.0205   -1.5656 C   0  0  0  0  0  0  0  0  0  0  0  0
    1.0209    3.2982   -1.9145 C   0  0  0  0  0  0  0  0  0  0  0  0
    0.7231    3.8956   -2.7831 H   0  0  0  0  0  0  0  0  0  0  0  0
    1.9606    3.6633   -0.9228 C   0  0  0  0  0  0  0  0  0  0  0  0
    2.5386    4.5956   -0.8806 H   0  0  0  0  0  0  0  0  0  0  0  0
    1.9935    2.5900   -0.0112 C   0  0  0  0  0  3  0  0  0  0  0  0
    2.6822    2.2893    1.2203 C   0  0  2  0  0  3  0  0  0  0  0  0
   -1.8695    1.4962   -1.3747 C   0  0  0  0  0  0  0  0  0  0  0  0
   -2.3641    2.6843   -0.8143 C   0  0  0  0  0  0  0  0  0  0  0  0
   -1.8678    3.6594   -0.8694 H   0  0  0  0  0  0  0  0  0  0  0  0
   -3.5782    2.3682   -0.1481 C   0  0  0  0  0  0  0  0  0  0  0  0
   -4.2114    3.0696    0.4094 H   0  0  0  0  0  0  0  0  0  0  0  0
   -3.7996    0.9910   -0.3134 C   0  0  0  0  0  0  0  0  0  0  0  0
   -4.7920    0.0142    0.1651 C   0  0  0  0  0  0  0  0  0  0  0  0
    1.0609   -5.1561    0.9868 C   0  0  0  0  0  0  0  0  0  0  0  0
    1.7846   -5.9209    0.6366 H   0  0  0  0  0  0  0  0  0  0  0  0
    0.2236   -5.6719    1.5049 H   0  0  0  0  0  0  0  0  0  0  0  0
    1.5658   -4.4914    1.7115 H   0  0  0  0  0  0  0  0  0  0  0  0
   -6.8654   -0.3213    1.4595 C   0  0  0  0  0  0  0  0  0  0  0  0
   -7.8750   -0.0810    1.0604 H   0  0  0  0  0  0  0  0  0  0  0  0
   -6.9018   -0.2470    2.5684 H   0  0  0  0  0  0  0  0  0  0  0  0
   -6.6128   -1.3624    1.1811 H   0  0  0  0  0  0  0  0  0  0  0  0
    4.2511    2.9257    3.0188 C   0  0  0  0  0  0  0  0  0  0  0  0
    3.9942    1.9044    3.3546 H   0  0  0  0  0  0  0  0  0  0  0  0
    3.9511    3.6451    3.8108 H   0  0  0  0  0  0  0  0  0  0  0  0
    5.3512    2.9910    2.8821 H   0  0  0  0  0  0  0  0  0  0  0  0
   -0.8469    1.6950   -3.6564 C   0  0  0  0  0  0  0  0  0  0  0  0
   -1.0931    2.7731   -3.6807 H   0  0  0  0  0  0  0  0  0  0  0  0
   -1.7048    1.1536   -4.0981 H   0  0  0  0  0  0  0  0  0  0  0  0
    0.0522    1.5154   -4.2785 H   0  0  0  0  0  0  0  0  0  0  0  0
  2 35  2  0  0  0  0
  4 14  1  0  0  0  0
  4 36  1  0  0  0  0
  5  4  1  0  0  0  0
  7 34  1  0  0  0  0
  8  7  1  0  0  0  0
  9 10  1  0  0  0  0
  9 40  1  0  0  0  0
 11 27  1  0  0  0  0
 12 44  1  0  0  0  0
 13 12  1  0  0  0  0
 14  1  1  6  0  0  0
 15  6  1  0  0  0  0
 15 14  1  0  0  0  0
 16 15  1  0  0  0  0
 17 16  1  0  0  0  0
 18 16  2  0  0  0  0
 18 20  1  0  0  0  0
 19 18  1  0  0  0  0
 20  6  2  0  0  0  0
 21 48  1  6  0  0  0
 21 20  1  0  0  0  0
 21 22  1  0  0  0  0
 21 29  1  0  0  0  0
 22 11  2  0  0  0  0
 23 22  1  0  0  0  0
 23 25  2  0  0  0  0
 24 23  1  0  0  0  0
 25 26  1  0  0  0  0
 25 27  1  0  0  0  0
 27 28  1  0  0  0  0
 28 12  1  0  0  0  0
 28  3  1  1  0  0  0
 29  7  1  0  0  0  0
 29 30  2  0  0  0  0
 30 32  1  0  0  0  0
 31 30  1  0  0  0  0
 32 33  1  0  0  0  0
 34 32  2  0  0  0  0
 34 35  1  0  0  0  0
 35  9  1  0  0  0  0
 36 38  1  0  0  0  0
 36 39  1  0  0  0  0
 37 36  1  0  0  0  0
 40 42  1  0  0  0  0
 41 40  1  0  0  0  0
 43 40  1  0  0  0  0
 44 45  1  0  0  0  0
 44 46  1  0  0  0  0
 47 44  1  0  0  0  0
 49 48  1  0  0  0  0
 50 48  1  0  0  0  0
 51 48  1  0  0  0  0
M  END
