31,32,33,34
q = -2.0, confidence = 0.924

 34 35  0  0  0  0  0  0  0  0999 V2000
    2.6870   -0.7743   -1.2987 C   0  0  0  0  0  0  0  0  0  0  0  0
    3.0548   -1.7128   -2.3196 C   0  0  0  0  0  0  0  0  0  0  0  0
    4.3736   -1.8736   -2.7199 C   0  0  0  0  0  0  0  0  0  0  0  0
    5.4191   -1.1141   -2.1334 C   0  0  0  0  0  0  0  0  0  0  0  0
    5.1006   -0.1951   -1.1443 C   0  0  0  0  0  0  0  0  0  0  0  0
    3.7585    0.0043   -0.7080 C   0  0  0  0  0  0  0  0  0  0  0  0
    3.5157    0.9704    0.3187 C   0  0  0  0  0  3  0  0  0  0  0  0
   -1.0037    2.1662   -0.9176 C   0  0  0  0  0  0  0  0  0  0  0  0
   -1.6409    2.5037   -2.1527 C   0  0  0  0  0  0  0  0  0  0  0  0
   -2.9323    3.0197   -2.1832 C   0  0  0  0  0  0  0  0  0  0  0  0
   -3.6606    3.2595   -0.9910 C   0  0  0  0  0  0  0  0  0  0  0  0
   -3.0573    2.9831    0.2315 C   0  0  0  0  0  0  0  0  0  0  0  0
   -1.7521    2.4297    0.2995 C   0  0  0  0  0  0  0  0  0  0  0  0
   -1.0684    2.2986    1.5536 C   0  0  0  0  0  3  0  0  0  0  0  0
    2.2183    2.2619    1.8968 C   0  0  0  0  0  0  0  0  0  0  0  0
    0.9974    1.8280    2.7295 C   0  0  0  0  0  0  0  0  0  0  0  0
    2.2399   -2.2986   -2.7687 H   0  0  0  0  0  0  0  0  0  0  0  0
    4.6103   -2.6063   -3.5078 H   0  0  0  0  0  0  0  0  0  0  0  0
    6.4602   -1.2517   -2.4585 H   0  0  0  0  0  0  0  0  0  0  0  0
    5.8940    0.4090   -0.6741 H   0  0  0  0  0  0  0  0  0  0  0  0
    4.4070    1.4912    0.7265 H   0  0  0  0  0  0  0  0  0  0  0  0
   -1.0750    2.3102   -3.0751 H   0  0  0  0  0  0  0  0  0  0  0  0
   -3.3980    3.2411   -3.1567 H   0  0  0  0  0  0  0  0  0  0  0  0
   -4.6805    3.6679   -1.0332 H   0  0  0  0  0  0  0  0  0  0  0  0
   -3.5931    3.1833    1.1735 H   0  0  0  0  0  0  0  0  0  0  0  0
   -1.3969    2.9341    2.4028 H   0  0  0  0  0  0  0  0  0  0  0  0
    3.1436    2.3224    2.5089 H   0  0  0  0  0  0  0  0  0  0  0  0
    2.0136    3.2678    1.4656 H   0  0  0  0  0  0  0  0  0  0  0  0
    1.2376    0.8972    3.2811 H   0  0  0  0  0  0  0  0  0  0  0  0
    0.6796    2.6221    3.4387 H   0  0  0  0  0  0  0  0  0  0  0  0
    2.3527    1.2907    0.8153 N   0  0  0  0  0  2  0  0  0  0  0  0
   -0.0106    1.5498    1.7224 N   0  0  0  0  0  2  0  0  0  0  0  0
    1.4364   -0.6854   -0.9763 O   0  5  0  0  0  0  0  0  0  0  0  0
    0.2105    1.7006   -0.9378 O   0  5  0  0  0  0  0  0  0  0  0  0
  1 33  1  0  0  0  0
  1  6  1  0  0  0  0
  2  1  2  0  0  0  0
  3  2  1  0  0  0  0
  3  4  2  0  0  0  0
  4  5  1  0  0  0  0
  5  6  2  0  0  0  0
  5 20  1  0  0  0  0
  6  7  1  0  0  0  0
  7 21  1  0  0  0  0
  7 31  1  0  0  0  0
  8 13  1  0  0  0  0
  9  8  2  0  0  0  0
 10  9  1  0  0  0  0
 10 11  2  0  0  0  0
 11 12  1  0  0  0  0
 12 13  2  0  0  0  0
 12 25  1  0  0  0  0
 13 14  1  0  0  0  0
 14 32  1  0  0  0  0
 14 26  1  0  0  0  0
 15 27  1  0  0  0  0
 15 16  1  0  0  0  0
 16 29  1  0  0  0  0
 16 30  1  0  0  0  0
 17  2  1  0  0  0  0
 18  3  1  0  0  0  0
 19  4  1  0  0  0  0
 22  9  1  0  0  0  0
 23 10  1  0  0  0  0
 24 11  1  0  0  0  0
 28 15  1  0  0  0  0
 31 15  1  0  0  0  0
 32 16  1  0  0  0  0
 34  8  1  0  0  0  0
M  CHG  2  33  -1  34  -1
M  END
