1,2,3,4
q = -2.0, confidence = 0.87

 56 57  0  0  0  0  0  0  0  0999 V2000
    0.0362   -1.1325   -0.1761 N   0  0  0  0  0  0  0  0  0  0  0  0
   -0.0984    1.1149    1.7166 N   0  0  0  0  0  0  0  0  0  0  0  0
   -1.8270    1.0427   -0.4889 O   0  5  0  0  0  0  0  0  0  0  0  0
    1.8350    1.0605   -0.4301 O   0  5  0  0  0  0  0  0  0  0  0  0
   -1.1555   -1.7359   -0.8207 C   0  0  0  0  0  0  0  0  0  0  0  0
   -1.1078   -2.8470   -0.7109 H   0  0  0  0  0  0  0  0  0  0  0  0
   -1.0512   -1.5033   -1.9024 H   0  0  0  0  0  0  0  0  0  0  0  0
   -2.5026   -1.2575   -0.3590 C   0  0  0  0  0  0  0  0  0  0  0  0
   -3.5294   -2.1713   -0.0732 C   0  0  0  0  0  0  0  0  0  0  0  0
   -3.3014   -3.2498   -0.1039 H   0  0  0  0  0  0  0  0  0  0  0  0
   -4.8380   -1.7502    0.2277 C   0  0  0  0  0  0  0  0  0  0  0  0
   -5.0974   -0.3630    0.2303 C   0  0  0  0  0  0  0  0  0  0  0  0
   -6.1197   -0.0090    0.4443 H   0  0  0  0  0  0  0  0  0  0  0  0
   -4.1025    0.5897   -0.0289 C   0  0  0  0  0  0  0  0  0  0  0  0
   -2.7782    0.1346   -0.3100 C   0  0  0  0  0  0  0  0  0  0  0  0
    2.7932    0.1590   -0.2614 C   0  0  0  0  0  0  0  0  0  0  0  0
    4.1009    0.6290    0.0735 C   0  0  0  0  0  0  0  0  0  0  0  0
    5.1158   -0.3105    0.2948 C   0  0  0  0  0  0  0  0  0  0  0  0
    6.1243    0.0559    0.5493 H   0  0  0  0  0  0  0  0  0  0  0  0
    4.8927   -1.7018    0.2047 C   0  0  0  0  0  0  0  0  0  0  0  0
    3.5996   -2.1372   -0.1360 C   0  0  0  0  0  0  0  0  0  0  0  0
    3.3987   -3.2178   -0.2261 H   0  0  0  0  0  0  0  0  0  0  0  0
    2.5517   -1.2347   -0.3850 C   0  0  0  0  0  0  0  0  0  0  0  0
    1.2144   -1.7234   -0.8618 C   0  0  0  0  0  0  0  0  0  0  0  0
    1.0928   -1.4664   -1.9356 H   0  0  0  0  0  0  0  0  0  0  0  0
    1.1788   -2.8367   -0.7766 H   0  0  0  0  0  0  0  0  0  0  0  0
    0.0873   -1.3447    1.2822 C   0  0  0  0  0  0  0  0  0  0  0  0
   -0.3666   -2.3234    1.5661 H   0  0  0  0  0  0  0  0  0  0  0  0
    1.1559   -1.3965    1.5740 H   0  0  0  0  0  0  0  0  0  0  0  0
   -0.6090   -0.2335    2.0622 C   0  0  0  0  0  0  0  0  0  0  0  0
   -0.4836   -0.4171    3.1558 H   0  0  0  0  0  0  0  0  0  0  0  0
   -1.6945   -0.2463    1.8573 H   0  0  0  0  0  0  0  0  0  0  0  0
   -5.9384   -2.7407    0.5129 C   0  0  0  0  0  0  0  0  0  0  0  0
   -6.4576   -2.5105    1.4666 H   0  0  0  0  0  0  0  0  0  0  0  0
   -5.5501   -3.7756    0.5784 H   0  0  0  0  0  0  0  0  0  0  0  0
   -6.7134   -2.7242   -0.2830 H   0  0  0  0  0  0  0  0  0  0  0  0
   -4.3863    2.0667   -0.0294 C   0  0  0  0  0  0  0  0  0  0  0  0
   -3.9358    2.5557   -0.9161 H   0  0  0  0  0  0  0  0  0  0  0  0
   -3.9403    2.5718    0.8545 H   0  0  0  0  0  0  0  0  0  0  0  0
   -5.4746    2.2669   -0.0164 H   0  0  0  0  0  0  0  0  0  0  0  0
    4.3395    2.1101    0.1673 C   0  0  0  0  0  0  0  0  0  0  0  0
    5.4158    2.3391    0.2835 H   0  0  0  0  0  0  0  0  0  0  0  0
    3.7981    2.5540    1.0295 H   0  0  0  0  0  0  0  0  0  0  0  0
    3.9518    2.6306   -0.7316 H   0  0  0  0  0  0  0  0  0  0  0  0
    6.0144   -2.6788    0.4501 C   0  0  0  0  0  0  0  0  0  0  0  0
    6.8090   -2.5832   -0.3204 H   0  0  0  0  0  0  0  0  0  0  0  0
    5.6560   -3.7262    0.4319 H   0  0  0  0  0  0  0  0  0  0  0  0
    6.5014   -2.5022    1.4319 H   0  0  0  0  0  0  0  0  0  0  0  0
   -1.0420    2.1456    2.1949 C   0  0  0  0  0  0  0  0  0  0  0  0
   -1.1746    2.0734    3.2984 H   0  0  0  0  0  0  0  0  0  0  0  0
   -2.0158    2.0157    1.6927 H   0  0  0  0  0  0  0  0  0  0  0  0
   -0.6484    3.1438    1.9307 H   0  0  0  0  0  0  0  0  0  0  0  0
    1.2182    1.3619    2.3339 C   0  0  0  0  0  0  0  0  0  0  0  0
    1.6176    2.3220    1.9609 H   0  0  0  0  0  0  0  0  0  0  0  0
    1.9356    0.5656    2.0703 H   0  0  0  0  0  0  0  0  0  0  0  0
    1.1207    1.4057    3.4428 H   0  0  0  0  0  0  0  0  0  0  0  0
  1 27  1  0  0  0  0
  2 30  1  0  0  0  0
  2 49  1  0  0  0  0
  2 53  1  0  0  0  0
  3 15  1  0  0  0  0
  4 16  1  0  0  0  0
  5  6  1  0  0  0  0
  5  8  1  0  0  0  0
  5  1  1  0  0  0  0
  7  5  1  0  0  0  0
  8 15  2  0  0  0  0
  8  9  1  0  0  0  0
  9 11  2  0  0  0  0
 10  9  1  0  0  0  0
 11 12  1  0  0  0  0
 11 33  1  0  0  0  0
 12 13  1  0  0  0  0
 14 12  2  0  0  0  0
 15 14  1  0  0  0  0
 16 17  1  0  0  0  0
 17 41  1  0  0  0  0
 17 18  2  0  0  0  0
 18 19  1  0  0  0  0
 20 18  1  0  0  0  0
 20 45  1  0  0  0  0
 21 20  2  0  0  0  0
 22 21  1  0  0  0  0
 23 16  2  0  0  0  0
 23 21  1  0  0  0  0
 24 26  1  0  0  0  0
 24 23  1  0  0  0  0
 24  1  1  0  0  0  0
 25 24  1  0  0  0  0
 27 28  1  0  0  0  0
 27 29  1  0  0  0  0
 27 30  1  0  0  0  0
 30 31  1  0  0  0  0
 32 30  1  0  0  0  0
 33 35  1  0  0  0  0
 33 34  1  0  0  0  0
 36 33  1  0  0  0  0
 37 14  1  0  0  0  0
 37 40  1  0  0  0  0
 37 39  1  0  0  0  0
 38 37  1  0  0  0  0
 41 42  1  0  0  0  0
 41 43  1  0  0  0  0
 44 41  1  0  0  0  0
 45 48  1  0  0  0  0
 46 45  1  0  0  0  0
 47 45  1  0  0  0  0
 49 50  1  0  0  0  0
 51 49  1  0  0  0  0
 52 49  1  0  0  0  0
 53 56  1  0  0  0  0
 54 53  1  0  0  0  0
 55 53  1  0  0  0  0
M  CHG  2   3  -1   4  -1
M  END
