1,2,24,25
q = 0.0, confidence = 0.774

 43 46  0  0  0  0  0  0  0  0999 V2000
   -1.3933   -1.1263    1.1876 O   0  5  0  0  0  0  0  0  0  0  0  0
   -1.1340    0.6572   -0.9406 N   0  0  0  0  0  2  0  0  0  0  0  0
   -3.2770   -0.0676    0.0130 C   0  0  0  0  0  0  0  0  0  0  0  0
   -2.6503   -0.9759    1.0163 C   0  0  0  0  0  0  0  0  0  0  0  0
   -3.6907   -1.6382    1.7225 C   0  0  0  0  0  3  0  0  0  0  0  0
   -4.9261   -1.5070    1.5551 C   0  0  0  0  0  3  0  0  0  0  0  0
   -5.6609   -0.7108    0.6448 C   0  0  0  0  0  0  0  0  0  0  0  0
   -7.0566   -0.5866    0.4605 C   0  0  0  0  0  0  0  0  0  0  0  0
   -7.5549    0.2834   -0.5060 C   0  0  0  0  0  0  0  0  0  0  0  0
   -6.6612    1.0438   -1.2960 C   0  0  0  0  0  0  0  0  0  0  0  0
   -5.2826    0.9346   -1.1280 C   0  0  0  0  0  0  0  0  0  0  0  0
   -4.7233    0.0559   -0.1636 C   0  0  0  0  0  0  0  0  0  0  0  0
   -2.3806    0.6855   -0.7476 C   0  0  0  0  0  2  0  0  0  0  0  0
   -0.2733    1.8050   -1.2568 C   0  0  0  0  0  0  0  0  0  0  0  0
    0.0005    2.6537   -0.0002 C   0  0  0  0  0  0  0  0  0  0  0  0
   -7.7303   -1.1848    1.0902 H   0  0  0  0  0  0  0  0  0  0  0  0
   -8.6406    0.3819   -0.6533 H   0  0  0  0  0  0  0  0  0  0  0  0
   -7.0590    1.7342   -2.0553 H   0  0  0  0  0  0  0  0  0  0  0  0
   -4.5928    1.5326   -1.7442 H   0  0  0  0  0  0  0  0  0  0  0  0
   -0.7635    2.4176   -2.0392 H   0  0  0  0  0  0  0  0  0  0  0  0
    0.6714    1.4066   -1.6747 H   0  0  0  0  0  0  0  0  0  0  0  0
   -0.8710    3.3084    0.2092 H   0  0  0  0  0  0  0  0  0  0  0  0
    0.8723    3.3077   -0.2101 H   0  0  0  0  0  0  0  0  0  0  0  0
    1.3926   -1.1272   -1.1856 O   0  5  0  0  0  0  0  0  0  0  0  0
    1.1347    0.6578    0.9419 N   0  0  0  0  0  2  0  0  0  0  0  0
    0.2738    1.8059    1.2568 C   0  0  0  0  0  0  0  0  0  0  0  0
    2.6497   -0.9771   -1.0149 C   0  0  0  0  0  0  0  0  0  0  0  0
    2.3809    0.6860    0.7473 C   0  0  0  0  0  2  0  0  0  0  0  0
   -0.6709    1.4076    1.6750 H   0  0  0  0  0  0  0  0  0  0  0  0
    0.7636    2.4189    2.0391 H   0  0  0  0  0  0  0  0  0  0  0  0
    3.2771   -0.0676   -0.0129 C   0  0  0  0  0  0  0  0  0  0  0  0
    3.6897   -1.6407   -1.7203 C   0  0  0  0  0  3  0  0  0  0  0  0
    4.7235    0.0560    0.1628 C   0  0  0  0  0  0  0  0  0  0  0  0
    4.9253   -1.5092   -1.5543 C   0  0  0  0  0  3  0  0  0  0  0  0
    5.6605   -0.7119   -0.6452 C   0  0  0  0  0  0  0  0  0  0  0  0
    5.2833    0.9360    1.1256 C   0  0  0  0  0  0  0  0  0  0  0  0
    7.0563   -0.5874   -0.4617 C   0  0  0  0  0  0  0  0  0  0  0  0
    6.6620    1.0453    1.2927 C   0  0  0  0  0  0  0  0  0  0  0  0
    4.5939    1.5349    1.7414 H   0  0  0  0  0  0  0  0  0  0  0  0
    7.5552    0.2838    0.5033 C   0  0  0  0  0  0  0  0  0  0  0  0
    7.7297   -1.1865   -1.0911 H   0  0  0  0  0  0  0  0  0  0  0  0
    7.0603    1.7367    2.0509 H   0  0  0  0  0  0  0  0  0  0  0  0
    8.6410    0.3824    0.6498 H   0  0  0  0  0  0  0  0  0  0  0  0
  2 13  1  0  0  0  0
  3  4  1  0  0  0  0
  4  1  1  0  0  0  0
  4  5  2  0  0  0  0
  6  5  1  0  0  0  0
  7  6  2  0  0  0  0
  8  7  1  0  0  0  0
  8 16  1  0  0  0  0
  9  8  2  0  0  0  0
 10 11  2  0  0  0  0
 10  9  1  0  0  0  0
 11 12  1  0  0  0  0
 12  3  2  0  0  0  0
 12  7  1  0  0  0  0
 13  3  1  0  0  0  0
 14  2  1  0  0  0  0
 14 15  1  0  0  0  0
 15 22  1  0  0  0  0
 15 26  1  0  0  0  0
 17  9  1  0  0  0  0
 18 10  1  0  0  0  0
 19 11  1  0  0  0  0
 20 14  1  0  0  0  0
 21 14  1  0  0  0  0
 23 15  1  0  0  0  0
 24 27  1  0  0  0  0
 25 26  1  0  0  0  0
 26 29  1  0  0  0  0
 26 30  1  0  0  0  0
 27 31  1  0  0  0  0
 28 25  1  0  0  0  0
 31 33  2  0  0  0  0
 31 28  1  0  0  0  0
 32 34  1  0  0  0  0
 32 27  2  0  0  0  0
 33 36  1  0  0  0  0
 34 35  2  0  0  0  0
 35 37  1  0  0  0  0
 35 33  1  0  0  0  0
 36 38  2  0  0  0  0
 36 39  1  0  0  0  0
 37 40  2  0  0  0  0
 38 42  1  0  0  0  0
 40 43  1  0  0  0  0
 40 38  1  0  0  0  0
 41 37  1  0  0  0  0
M  CHG  2   1  -1  24  -1
M  END
