1,2,3,4
q = -2.0, confidence = 0.842

 40 41  0  0  0  0  0  0  0  0999 V2000
    1.3057   -1.6341   -0.4167 O   0  5  0  0  0  0  0  0  0  0  0  0
   -0.5913   -0.3343    1.0726 O   0  5  0  0  0  0  0  0  0  0  0  0
    1.5392    1.2942    0.0825 N   0  0  0  0  0  2  0  0  0  0  0  0
   -0.9695    1.7018   -0.5903 N   0  0  0  0  0  2  0  0  0  0  0  0
    2.4791   -1.6246    0.1771 C   0  0  0  0  0  0  0  0  0  0  0  0
    3.1275   -2.8840    0.3304 C   0  0  0  0  0  0  0  0  0  0  0  0
    2.5957   -3.7609   -0.0651 H   0  0  0  0  0  0  0  0  0  0  0  0
    4.3672   -2.9983    0.9487 C   0  0  0  0  0  0  0  0  0  0  0  0
    4.8328   -3.9915    1.0447 H   0  0  0  0  0  0  0  0  0  0  0  0
    5.0331   -1.8579    1.4589 C   0  0  0  0  0  0  0  0  0  0  0  0
    6.0118   -1.9543    1.9498 H   0  0  0  0  0  0  0  0  0  0  0  0
    4.4271   -0.6171    1.3296 C   0  0  0  0  0  0  0  0  0  0  0  0
    4.9283    0.2828    1.7213 H   0  0  0  0  0  0  0  0  0  0  0  0
    3.1581   -0.4523    0.6955 C   0  0  0  0  0  0  0  0  0  0  0  0
    2.6578    0.8935    0.6298 C   0  0  0  0  0  3  0  0  0  0  0  0
    3.3107    1.6561    1.1020 H   0  0  0  0  0  0  0  0  0  0  0  0
    1.1360    2.7411    0.1033 C   0  0  0  0  0  0  0  0  0  0  0  0
   -0.1005    2.8472   -0.8540 C   0  0  0  0  0  0  0  0  0  0  0  0
   -0.6257    3.8097   -0.6796 H   0  0  0  0  0  0  0  0  0  0  0  0
    0.2460    2.8038   -1.9057 H   0  0  0  0  0  0  0  0  0  0  0  0
   -2.0785    1.8689    0.1109 C   0  0  0  0  0  3  0  0  0  0  0  0
   -2.4881    2.8966    0.1738 H   0  0  0  0  0  0  0  0  0  0  0  0
   -2.6832    0.8456    0.9138 C   0  0  0  0  0  0  0  0  0  0  0  0
   -4.0291    0.9536    1.3536 C   0  0  0  0  0  0  0  0  0  0  0  0
   -4.6565    1.7594    0.9412 H   0  0  0  0  0  0  0  0  0  0  0  0
   -4.5583    0.0497    2.2694 C   0  0  0  0  0  0  0  0  0  0  0  0
   -5.6114    0.1235    2.5761 H   0  0  0  0  0  0  0  0  0  0  0  0
   -3.7289   -0.9608    2.8094 C   0  0  0  0  0  0  0  0  0  0  0  0
   -4.1444   -1.6738    3.5380 H   0  0  0  0  0  0  0  0  0  0  0  0
   -2.3927   -1.0724    2.4293 C   0  0  0  0  0  0  0  0  0  0  0  0
   -1.7385   -1.8554    2.8378 H   0  0  0  0  0  0  0  0  0  0  0  0
   -1.8452   -0.2039    1.4507 C   0  0  0  0  0  0  0  0  0  0  0  0
    2.2552    3.6442   -0.4295 C   0  0  0  0  0  0  0  0  0  0  0  0
    3.1248    3.6687    0.2563 H   0  0  0  0  0  0  0  0  0  0  0  0
    1.8882    4.6852   -0.5285 H   0  0  0  0  0  0  0  0  0  0  0  0
    2.5992    3.2974   -1.4238 H   0  0  0  0  0  0  0  0  0  0  0  0
    0.7349    3.1208    1.5376 C   0  0  0  0  0  0  0  0  0  0  0  0
   -0.0720    2.4623    1.9132 H   0  0  0  0  0  0  0  0  0  0  0  0
    0.3905    4.1733    1.5803 H   0  0  0  0  0  0  0  0  0  0  0  0
    1.6002    3.0162    2.2223 H   0  0  0  0  0  0  0  0  0  0  0  0
  1  5  1  0  0  0  0
  2 32  1  0  0  0  0
  3 17  1  0  0  0  0
  3 15  1  0  0  0  0
  4 21  1  0  0  0  0
  5  6  2  0  0  0  0
  5 14  1  0  0  0  0
  6  8  1  0  0  0  0
  7  6  1  0  0  0  0
  8  9  1  0  0  0  0
  8 10  2  0  0  0  0
 10 11  1  0  0  0  0
 12 10  1  0  0  0  0
 12 13  1  0  0  0  0
 14 12  2  0  0  0  0
 15 14  1  0  0  0  0
 15 16  1  0  0  0  0
 17 37  1  0  0  0  0
 18 19  1  0  0  0  0
 18  4  1  0  0  0  0
 18 17  1  0  0  0  0
 20 18  1  0  0  0  0
 21 22  1  0  0  0  0
 21 23  1  0  0  0  0
 23 24  2  0  0  0  0
 23 32  1  0  0  0  0
 24 26  1  0  0  0  0
 25 24  1  0  0  0  0
 26 27  1  0  0  0  0
 26 28  2  0  0  0  0
 28 29  1  0  0  0  0
 30 28  1  0  0  0  0
 30 31  1  0  0  0  0
 32 30  2  0  0  0  0
 33 17  1  0  0  0  0
 33 34  1  0  0  0  0
 35 33  1  0  0  0  0
 36 33  1  0  0  0  0
 37 39  1  0  0  0  0
 37 38  1  0  0  0  0
 37 40  1  0  0  0  0
M  CHG  2   1  -1   2  -1
M  END
