1,4,9,10
q = -2.0, confidence = 0.762

 34 33  0  0  0  0  0  0  0  0999 V2000
    0.4076    1.0237    1.7625 O   0  5  0  0  0  0  0  0  0  0  0  0
   -0.1643    0.2350    3.7903 O   0  0  0  0  0  0  0  0  0  0  0  0
    0.0250   -0.6186   -3.6965 O   0  5  0  0  0  0  0  0  0  0  0  0
   -0.4009    0.6793   -1.9085 O   0  0  0  0  0  0  0  0  0  0  0  0
    3.5004   -2.5466   -0.2981 O   0  0  0  0  0  0  0  0  0  0  0  0
    4.8056   -1.1207    0.8898 O   0  0  0  0  0  0  0  0  0  0  0  0
   -3.5488   -2.3211    0.8515 O   0  0  0  0  0  0  0  0  0  0  0  0
   -4.7366   -1.5173   -0.8572 O   0  0  0  0  0  0  0  0  0  0  0  0
   -1.3761   -0.5367    0.4293 N   0  0  0  0  0  0  0  0  0  0  0  0
    1.3620   -0.6300   -0.3011 N   0  0  0  0  0  0  0  0  0  0  0  0
   -1.5368   -0.3958    1.9127 C   0  0  0  0  0  0  0  0  0  0  0  0
   -0.3449    0.3104    2.5918 C   0  0  0  0  0  0  0  0  0  0  0  0
    1.4808   -0.8179   -1.7824 C   0  0  0  0  0  0  0  0  0  0  0  0
    0.2777   -0.2532   -2.5656 C   0  0  0  0  0  0  0  0  0  0  0  0
   -0.7437   -1.8425    0.0502 C   0  0  0  0  0  0  0  0  0  0  0  0
    0.7248   -1.8085    0.3715 C   0  0  0  0  0  0  0  0  0  0  0  0
   -2.6524   -0.3840   -0.3078 C   0  0  0  0  0  0  0  0  0  0  0  0
   -3.6671   -1.5140   -0.0417 C   0  0  0  0  0  0  0  0  0  0  0  0
    2.6627   -0.3394    0.3423 C   0  0  0  0  0  0  0  0  0  0  0  0
    3.6782   -1.4832    0.2611 C   0  0  0  0  0  0  0  0  0  0  0  0
   -2.4406    0.2143    2.1171 H   0  0  0  0  0  0  0  0  0  0  0  0
   -1.7304   -1.3763    2.3872 H   0  0  0  0  0  0  0  0  0  0  0  0
    1.6479   -1.8817   -2.0378 H   0  0  0  0  0  0  0  0  0  0  0  0
    2.3814   -0.2758   -2.1374 H   0  0  0  0  0  0  0  0  0  0  0  0
   -1.2519   -2.6730    0.5785 H   0  0  0  0  0  0  0  0  0  0  0  0
   -0.9075   -1.9947   -1.0353 H   0  0  0  0  0  0  0  0  0  0  0  0
    0.8905   -1.7028    1.4619 H   0  0  0  0  0  0  0  0  0  0  0  0
    1.2285   -2.7412    0.0498 H   0  0  0  0  0  0  0  0  0  0  0  0
   -2.4107   -0.2932   -1.3884 H   0  0  0  0  0  0  0  0  0  0  0  0
   -3.1465    0.5607   -0.0008 H   0  0  0  0  0  0  0  0  0  0  0  0
    2.4830   -0.0628    1.4016 H   0  0  0  0  0  0  0  0  0  0  0  0
    3.1416    0.5349   -0.1397 H   0  0  0  0  0  0  0  0  0  0  0  0
    5.4404   -1.8692    0.8184 H   0  0  0  0  0  0  0  0  0  0  0  0
   -4.6585   -0.8487   -1.5676 H   0  0  0  0  0  0  0  0  0  0  0  0
  1 12  1  0  0  0  0
  3 14  1  0  0  0  0
  5 20  2  0  0  0  0
  8 18  1  0  0  0  0
  9 11  1  0  0  0  0
 10 19  1  0  0  0  0
 10 16  1  0  0  0  0
 11 21  1  0  0  0  0
 11 22  1  0  0  0  0
 11 12  1  0  0  0  0
 12  2  2  0  0  0  0
 13 10  1  0  0  0  0
 14  4  2  0  0  0  0
 14 13  1  0  0  0  0
 15 16  1  0  0  0  0
 15  9  1  0  0  0  0
 15 25  1  0  0  0  0
 16 27  1  0  0  0  0
 17 18  1  0  0  0  0
 17 30  1  0  0  0  0
 17  9  1  0  0  0  0
 18  7  2  0  0  0  0
 19 31  1  0  0  0  0
 20 19  1  0  0  0  0
 20  6  1  0  0  0  0
 23 13  1  0  0  0  0
 24 13  1  0  0  0  0
 26 15  1  0  0  0  0
 28 16  1  0  0  0  0
 29 17  1  0  0  0  0
 32 19  1  0  0  0  0
 33  6  1  0  0  0  0
 34  8  1  0  0  0  0
M  CHG  2   1  -1   3  -1
M  END
