3,4,6,7
q = -2.0, confidence = 0.808

 74 78  0  0  0  0  0  0  0  0999 V2000
   -1.1136    0.6467    2.4021 O   0  0  0  0  0  0  0  0  0  0  0  0
    1.4660    0.9256    0.3650 O   0  0  0  0  0  0  0  0  0  0  0  0
   -1.9040   -0.8281   -0.7835 O   0  5  0  0  0  0  0  0  0  0  0  0
    0.3291    0.2590   -1.9534 N   0  0  0  0  0  2  0  0  0  0  0  0
   -4.4886   -1.0870   -0.6916 O   0  0  0  0  0  0  0  0  0  0  0  0
    1.6785   -1.6120   -0.7264 O   0  5  0  0  0  0  0  0  0  0  0  0
   -0.3446   -1.7328    1.1253 N   0  0  0  0  0  2  0  0  0  0  0  0
    2.2257    1.1906   -0.7292 C   0  0  0  0  0  0  0  0  0  0  0  0
    1.0030    2.7932    1.8403 C   0  0  0  0  0  0  0  0  0  0  0  0
   -1.6394   -1.6155    1.7163 C   0  0  0  0  0  0  0  0  0  0  0  0
    1.6582    0.7689   -1.9679 C   0  0  0  0  0  0  0  0  0  0  0  0
   -3.2926   -0.2630    2.8888 C   0  0  0  0  0  0  0  0  0  0  0  0
   -3.5556    0.6910    3.3700 H   0  0  0  0  0  0  0  0  0  0  0  0
   -2.0138   -0.3912    2.3211 C   0  0  0  0  0  0  0  0  0  0  0  0
   -1.9598    0.5463   -2.7808 C   0  0  0  0  0  0  0  0  0  0  0  0
    2.4006    0.9046   -3.1499 C   0  0  0  0  0  0  0  0  0  0  0  0
    1.9640    0.5389   -4.0913 H   0  0  0  0  0  0  0  0  0  0  0  0
   -0.4123    2.8715    1.7233 C   0  0  0  0  0  0  0  0  0  0  0  0
    4.4266   -1.6648   -1.2023 O   0  0  0  0  0  0  0  0  0  0  0  0
   -4.0009   -0.3551   -1.7272 C   0  0  0  0  0  0  0  0  0  0  0  0
    1.7267    1.4790    1.6584 C   0  0  0  0  0  0  0  0  0  0  0  0
    2.8146    1.5874    1.8432 H   0  0  0  0  0  0  0  0  0  0  0  0
    1.3298    0.7194    2.3579 H   0  0  0  0  0  0  0  0  0  0  0  0
   -1.0318    4.1237    1.8872 C   0  0  0  0  0  0  0  0  0  0  0  0
   -2.1284    4.1873    1.8034 H   0  0  0  0  0  0  0  0  0  0  0  0
    4.2239    1.9117   -1.9113 C   0  0  0  0  0  0  0  0  0  0  0  0
    5.2286    2.3589   -1.8818 H   0  0  0  0  0  0  0  0  0  0  0  0
    3.4975    1.7813   -0.7160 C   0  0  0  0  0  0  0  0  0  0  0  0
    3.9369    2.1259    0.2294 H   0  0  0  0  0  0  0  0  0  0  0  0
    1.7377    3.9600    2.1116 C   0  0  0  0  0  0  0  0  0  0  0  0
    2.8340    3.8906    2.1969 H   0  0  0  0  0  0  0  0  0  0  0  0
   -4.7668    0.2495   -2.7239 C   0  0  0  0  0  0  0  0  0  0  0  0
   -5.8605    0.1453   -2.7143 H   0  0  0  0  0  0  0  0  0  0  0  0
   -2.5493   -2.6834    1.6848 C   0  0  0  0  0  0  0  0  0  0  0  0
   -2.2453   -3.6154    1.1871 H   0  0  0  0  0  0  0  0  0  0  0  0
   -1.2730    1.6734    1.3982 C   0  0  0  0  0  0  0  0  0  0  0  0
   -2.3401    1.9822    1.3508 H   0  0  0  0  0  0  0  0  0  0  0  0
   -0.9997    1.2470    0.4089 H   0  0  0  0  0  0  0  0  0  0  0  0
   -0.5545    0.8035   -2.7676 C   0  0  0  0  0  3  0  0  0  0  0  0
   -0.1876    1.5826   -3.4637 H   0  0  0  0  0  0  0  0  0  0  0  0
    1.1046    5.2022    2.2718 C   0  0  0  0  0  0  0  0  0  0  0  0
    1.7012    6.1025    2.4828 H   0  0  0  0  0  0  0  0  0  0  0  0
   -2.5583   -0.2398   -1.7390 C   0  0  0  0  0  0  0  0  0  0  0  0
    2.4667   -1.9802    0.2401 C   0  0  0  0  0  0  0  0  0  0  0  0
    0.6216   -2.1730    1.9041 C   0  0  0  0  0  3  0  0  0  0  0  0
    0.3445   -2.4425    2.9419 H   0  0  0  0  0  0  0  0  0  0  0  0
    3.8875   -2.0485   -0.0081 C   0  0  0  0  0  0  0  0  0  0  0  0
   -3.8196   -2.5499    2.2604 C   0  0  0  0  0  0  0  0  0  0  0  0
   -4.5213   -3.3972    2.2360 H   0  0  0  0  0  0  0  0  0  0  0  0
    2.0063   -2.2979    1.5658 C   0  0  0  0  0  0  0  0  0  0  0  0
   -4.1525    1.0110   -3.7544 C   0  0  0  0  0  0  0  0  0  0  0  0
   -4.7807    1.4810   -4.5247 H   0  0  0  0  0  0  0  0  0  0  0  0
    3.6853    1.4705   -3.1269 C   0  0  0  0  0  0  0  0  0  0  0  0
    4.2622    1.5622   -4.0586 H   0  0  0  0  0  0  0  0  0  0  0  0
   -2.7775    1.1651   -3.7764 C   0  0  0  0  0  0  0  0  0  0  0  0
   -2.2909    1.7670   -4.5593 H   0  0  0  0  0  0  0  0  0  0  0  0
   -4.1934   -1.3372    2.8607 C   0  0  0  0  0  0  0  0  0  0  0  0
   -5.1885   -1.2277    3.3182 H   0  0  0  0  0  0  0  0  0  0  0  0
   -0.2885    5.2840    2.1546 C   0  0  0  0  0  0  0  0  0  0  0  0
   -0.8020    6.2497    2.2760 H   0  0  0  0  0  0  0  0  0  0  0  0
   -5.8864   -1.2355   -0.5831 C   0  0  0  0  0  0  0  0  0  0  0  0
   -6.0646   -1.8352    0.3287 H   0  0  0  0  0  0  0  0  0  0  0  0
   -6.3195   -1.7666   -1.4618 H   0  0  0  0  0  0  0  0  0  0  0  0
   -6.4023   -0.2534   -0.4765 H   0  0  0  0  0  0  0  0  0  0  0  0
    2.9305   -2.6812    2.5809 C   0  0  0  0  0  0  0  0  0  0  0  0
    2.5434   -2.9163    3.5848 H   0  0  0  0  0  0  0  0  0  0  0  0
    4.7588   -2.4219    1.0169 C   0  0  0  0  0  0  0  0  0  0  0  0
    5.8326   -2.4441    0.7777 H   0  0  0  0  0  0  0  0  0  0  0  0
    4.2914   -2.7372    2.3148 C   0  0  0  0  0  0  0  0  0  0  0  0
    5.0055   -3.0233    3.1004 H   0  0  0  0  0  0  0  0  0  0  0  0
    3.9440   -2.2849   -2.3915 C   0  0  0  0  0  0  0  0  0  0  0  0
    4.5176   -1.8372   -3.2250 H   0  0  0  0  0  0  0  0  0  0  0  0
    2.8628   -2.0988   -2.5450 H   0  0  0  0  0  0  0  0  0  0  0  0
    4.1310   -3.3829   -2.3703 H   0  0  0  0  0  0  0  0  0  0  0  0
  2 21  1  0  0  0  0
  5 61  1  0  0  0  0
  6 44  1  0  0  0  0
  7 10  1  0  0  0  0
  7 45  1  0  0  0  0
  8 28  1  0  0  0  0
  8  2  1  0  0  0  0
  9 30  1  0  0  0  0
 10 14  1  0  0  0  0
 11  4  1  0  0  0  0
 11  8  2  0  0  0  0
 12 13  1  0  0  0  0
 14  1  1  0  0  0  0
 14 12  2  0  0  0  0
 15 39  1  0  0  0  0
 15 43  1  0  0  0  0
 16 53  2  0  0  0  0
 16 11  1  0  0  0  0
 17 16  1  0  0  0  0
 18  9  2  0  0  0  0
 18 24  1  0  0  0  0
 19 47  1  0  0  0  0
 20  5  1  0  0  0  0
 21  9  1  0  0  0  0
 21 22  1  0  0  0  0
 21 23  1  0  0  0  0
 24 59  2  0  0  0  0
 25 24  1  0  0  0  0
 26 27  1  0  0  0  0
 26 28  2  0  0  0  0
 28 29  1  0  0  0  0
 30 31  1  0  0  0  0
 30 41  2  0  0  0  0
 32 33  1  0  0  0  0
 32 20  1  0  0  0  0
 34 10  2  0  0  0  0
 34 48  1  0  0  0  0
 35 34  1  0  0  0  0
 36 18  1  0  0  0  0
 36  1  1  0  0  0  0
 37 36  1  0  0  0  0
 38 36  1  0  0  0  0
 39  4  1  0  0  0  0
 40 39  1  0  0  0  0
 41 42  1  0  0  0  0
 43 20  2  0  0  0  0
 43  3  1  0  0  0  0
 44 50  1  0  0  0  0
 45 46  1  0  0  0  0
 47 44  2  0  0  0  0
 47 67  1  0  0  0  0
 48 57  2  0  0  0  0
 49 48  1  0  0  0  0
 50 45  1  0  0  0  0
 50 65  2  0  0  0  0
 51 32  2  0  0  0  0
 52 51  1  0  0  0  0
 53 26  1  0  0  0  0
 54 53  1  0  0  0  0
 55 51  1  0  0  0  0
 55 15  2  0  0  0  0
 56 55  1  0  0  0  0
 57 12  1  0  0  0  0
 57 58  1  0  0  0  0
 59 41  1  0  0  0  0
 59 60  1  0  0  0  0
 61 64  1  0  0  0  0
 61 62  1  0  0  0  0
 63 61  1  0  0  0  0
 65 66  1  0  0  0  0
 67 69  2  0  0  0  0
 68 67  1  0  0  0  0
 69 65  1  0  0  0  0
 69 70  1  0  0  0  0
 71 74  1  0  0  0  0
 71 19  1  0  0  0  0
 72 71  1  0  0  0  0
 73 71  1  0  0  0  0
M  CHG  2   3  -1   6  -1
M  END
