2,3,5,6
q = -2.0, confidence = 0.892

 29 29  0  0  1  0  0  0  0  0999 V2000
   -4.2384    0.5392   -0.0312 O   0  5  0  0  0  0  0  0  0  0  0  0
   -2.5083   -0.9071    0.0842 O   0  0  0  0  0  0  0  0  0  0  0  0
   -0.1496   -0.9426    1.6080 O   0  5  0  0  0  0  0  0  0  0  0  0
    0.3266    0.4410    3.3374 O   0  0  0  0  0  0  0  0  0  0  0  0
    1.3999   -0.6145   -0.4263 N   0  0  0  0  0  2  0  0  0  0  0  0
   -0.7038    1.1216   -0.0926 N   0  0  0  0  0  0  0  0  0  0  0  0
    2.3977   -1.4625   -0.1332 C   0  0  0  0  0  3  0  0  0  0  0  0
    3.7205   -1.0246    0.0118 C   0  0  0  0  0  0  0  0  0  0  0  0
    3.9932    0.3406   -0.1465 C   0  0  0  0  0  0  0  0  0  0  0  0
    2.9403    1.2168   -0.4491 C   0  0  0  0  0  0  0  0  0  0  0  0
    1.6389    0.7082   -0.5900 C   0  0  0  0  0  0  0  0  0  0  0  0
    0.4141    1.5356   -0.9547 C   0  0  2  0  0  0  0  0  0  0  0  0
   -2.0460    1.3510   -0.6266 C   0  0  0  0  0  0  0  0  0  0  0  0
   -3.0456    0.2654   -0.1394 C   0  0  0  0  0  0  0  0  0  0  0  0
   -0.5538    1.4109    1.3354 C   0  0  0  0  0  0  0  0  0  0  0  0
   -0.0633    0.2026    2.1879 C   0  0  0  0  0  0  0  0  0  0  0  0
    0.6554    3.0456   -1.0325 C   0  0  0  0  0  0  0  0  0  0  0  0
    2.0864   -2.5116   -0.0057 H   0  0  0  0  0  0  0  0  0  0  0  0
    4.5139   -1.7447    0.2588 H   0  0  0  0  0  0  0  0  0  0  0  0
    5.0173    0.7264   -0.0251 H   0  0  0  0  0  0  0  0  0  0  0  0
    3.1245    2.2930   -0.5677 H   0  0  0  0  0  0  0  0  0  0  0  0
    0.1267    1.1426   -1.9582 H   0  0  0  0  0  0  0  0  0  0  0  0
   -1.9980    1.2330   -1.7291 H   0  0  0  0  0  0  0  0  0  0  0  0
   -2.4611    2.3575   -0.3869 H   0  0  0  0  0  0  0  0  0  0  0  0
   -1.5400    1.7032    1.7513 H   0  0  0  0  0  0  0  0  0  0  0  0
    0.1255    2.2688    1.5319 H   0  0  0  0  0  0  0  0  0  0  0  0
   -0.2871    3.5558   -1.3133 H   0  0  0  0  0  0  0  0  0  0  0  0
    0.9964    3.4684   -0.0653 H   0  0  0  0  0  0  0  0  0  0  0  0
    1.4125    3.2951   -1.8036 H   0  0  0  0  0  0  0  0  0  0  0  0
  3 16  1  0  0  0  0
  5  7  1  0  0  0  0
  6 15  1  0  0  0  0
  7 18  1  0  0  0  0
  7  8  1  0  0  0  0
  8 19  1  0  0  0  0
  9 20  1  0  0  0  0
  9  8  2  0  0  0  0
 10  9  1  0  0  0  0
 11 10  2  0  0  0  0
 11  5  1  0  0  0  0
 12 22  1  6  0  0  0
 12 11  1  0  0  0  0
 12  6  1  0  0  0  0
 13 24  1  0  0  0  0
 13 14  1  0  0  0  0
 13  6  1  0  0  0  0
 14  1  1  0  0  0  0
 14  2  2  0  0  0  0
 15 26  1  0  0  0  0
 15 25  1  0  0  0  0
 15 16  1  0  0  0  0
 16  4  2  0  0  0  0
 17 12  1  0  0  0  0
 17 28  1  0  0  0  0
 21 10  1  0  0  0  0
 23 13  1  0  0  0  0
 27 17  1  0  0  0  0
 29 17  1  0  0  0  0
M  CHG  2   1  -1   3  -1
M  END
