1,2,3,4
q = -2.0, confidence = 0.828

 34 34  0  0  1  0  0  0  0  0999 V2000
   -1.2893    1.7068    0.0460 O   0  5  0  0  0  0  0  0  0  0  0  0
    1.1257    1.1158    0.0929 O   0  5  0  0  0  0  0  0  0  0  0  0
   -1.9700   -0.9554   -0.0588 N   0  0  0  0  0  2  0  0  0  0  0  0
    0.5113   -1.5212    0.1890 N   0  0  0  0  0  2  0  0  0  0  0  0
   -4.3703   -1.4593   -0.3227 C   0  0  0  0  0  0  0  0  0  0  0  0
   -4.4246   -2.2053    0.4976 H   0  0  0  0  0  0  0  0  0  0  0  0
   -4.2648   -2.0265   -1.2710 H   0  0  0  0  0  0  0  0  0  0  0  0
   -5.3318   -0.9171   -0.3540 H   0  0  0  0  0  0  0  0  0  0  0  0
   -3.2202   -0.4941   -0.1268 C   0  0  2  0  0  3  0  0  0  0  0  0
   -3.5282    0.8863   -0.0358 C   0  0  0  0  0  0  0  0  0  0  0  0
   -4.5862    1.1770   -0.0540 H   0  0  0  0  0  0  0  0  0  0  0  0
   -2.5603    1.8997    0.0434 C   0  0  0  0  0  0  0  0  0  0  0  0
   -2.9747    3.3514    0.1210 C   0  0  0  0  0  0  0  0  0  0  0  0
   -2.5785    3.7994    1.0553 H   0  0  0  0  0  0  0  0  0  0  0  0
   -4.0721    3.4805    0.0915 H   0  0  0  0  0  0  0  0  0  0  0  0
   -2.5153    3.9125   -0.7181 H   0  0  0  0  0  0  0  0  0  0  0  0
   -1.6788   -2.3724   -0.2690 C   0  0  0  0  0  0  0  0  0  0  0  0
   -1.5699   -2.5833   -1.3590 H   0  0  0  0  0  0  0  0  0  0  0  0
   -2.4801   -3.0354    0.1169 H   0  0  0  0  0  0  0  0  0  0  0  0
   -0.3694   -2.6587    0.4460 C   0  0  0  0  0  0  0  0  0  0  0  0
   -0.5536   -2.7274    1.5417 H   0  0  0  0  0  0  0  0  0  0  0  0
    0.0898   -3.6153    0.1149 H   0  0  0  0  0  0  0  0  0  0  0  0
    1.8123   -1.6967    0.1340 C   0  0  0  0  0  0  0  0  0  0  0  0
    2.1896   -2.7369    0.2062 H   0  0  0  0  0  0  0  0  0  0  0  0
    2.7802   -0.6569    0.0061 C   0  0  0  0  0  0  0  0  0  0  0  0
    4.1634   -0.9831   -0.0891 C   0  0  0  0  0  3  0  0  0  0  0  0
    4.4517   -2.0471   -0.0825 H   0  0  0  0  0  0  0  0  0  0  0  0
    5.1331    0.0049   -0.1862 C   0  0  0  0  0  0  0  0  0  0  0  0
    6.1978   -0.2592   -0.2603 H   0  0  0  0  0  0  0  0  0  0  0  0
    4.7284    1.3656   -0.1847 C   0  0  0  0  0  0  0  0  0  0  0  0
    5.4905    2.1577   -0.2593 H   0  0  0  0  0  0  0  0  0  0  0  0
    3.3894    1.7208   -0.0900 C   0  0  0  0  0  0  0  0  0  0  0  0
    3.0684    2.7724   -0.0871 H   0  0  0  0  0  0  0  0  0  0  0  0
    2.3601    0.7283    0.0052 C   0  0  0  0  0  0  0  0  0  0  0  0
  4 20  1  0  0  0  0
  5  9  1  0  0  0  0
  5  6  1  0  0  0  0
  7  5  1  0  0  0  0
  8  5  1  0  0  0  0
  9  3  1  6  0  0  0
  9 10  1  0  0  0  0
 10 12  2  0  0  0  0
 11 10  1  0  0  0  0
 12  1  1  0  0  0  0
 12 13  1  0  0  0  0
 13 14  1  0  0  0  0
 15 13  1  0  0  0  0
 16 13  1  0  0  0  0
 17  3  1  0  0  0  0
 17 19  1  0  0  0  0
 17 20  1  0  0  0  0
 18 17  1  0  0  0  0
 20 21  1  0  0  0  0
 22 20  1  0  0  0  0
 23  4  1  0  0  0  0
 23 24  1  0  0  0  0
 25 23  2  0  0  0  0
 26 27  1  0  0  0  0
 26 25  1  0  0  0  0
 28 30  2  0  0  0  0
 28 26  1  0  0  0  0
 29 28  1  0  0  0  0
 30 32  1  0  0  0  0
 31 30  1  0  0  0  0
 32 33  1  0  0  0  0
 32 34  2  0  0  0  0
 34 25  1  0  0  0  0
 34  2  1  0  0  0  0
M  CHG  2   1  -1   2  -1
M  END
