1,2,3,4
q = -2.0, confidence = 0.848

 41 42  0  0  1  0  0  0  0  0999 V2000
    1.0579   -0.2899   -0.0114 O   0  0  0  0  0  1  0  0  0  0  0  0
   -1.2757   -1.1223    0.0654 O   0  5  0  0  0  0  0  0  0  0  0  0
    0.1888    2.3004   -0.0526 N   0  0  0  0  0  2  0  0  0  0  0  0
   -2.1979    1.4242    0.2186 N   0  0  0  0  0  2  0  0  0  0  0  0
    2.9979   -2.1588    0.0075 C   0  0  0  0  0  0  0  0  0  0  0  0
    1.9286   -2.4132   -0.0198 H   0  0  0  0  0  0  0  0  0  0  0  0
    3.9875   -3.1482    0.0415 C   0  0  0  0  0  0  0  0  0  0  0  0
    3.6980   -4.2103    0.0389 H   0  0  0  0  0  0  0  0  0  0  0  0
    5.3451   -2.7897    0.0796 C   0  0  0  0  0  0  0  0  0  0  0  0
    6.1240   -3.5669    0.1069 H   0  0  0  0  0  0  0  0  0  0  0  0
    5.7040   -1.4316    0.0849 C   0  0  0  0  0  0  0  0  0  0  0  0
    6.7653   -1.1417    0.1182 H   0  0  0  0  0  0  0  0  0  0  0  0
    4.7154   -0.4396    0.0500 C   0  0  0  0  0  0  0  0  0  0  0  0
    5.0198    0.6166    0.0613 H   0  0  0  0  0  0  0  0  0  0  0  0
    3.3475   -0.7890    0.0088 C   0  0  0  0  0  0  0  0  0  0  0  0
    2.2425    0.2177   -0.0295 C   0  0  1  0  0  3  0  0  0  0  0  0
    2.5002    1.5983   -0.0982 C   0  0  0  0  0  0  0  0  0  0  0  0
    3.5383    1.9447   -0.1456 H   0  0  0  0  0  0  0  0  0  0  0  0
    1.4899    2.5883   -0.1496 C   0  0  0  0  0  0  0  0  0  0  0  0
    1.9266    4.0263   -0.3349 C   0  0  0  0  0  0  0  0  0  0  0  0
    1.5893    4.6691    0.5050 H   0  0  0  0  0  0  0  0  0  0  0  0
    1.5048    4.4601   -1.2656 H   0  0  0  0  0  0  0  0  0  0  0  0
    3.0271    4.0947   -0.3947 H   0  0  0  0  0  0  0  0  0  0  0  0
   -0.8271    3.3376   -0.2237 C   0  0  0  0  0  0  0  0  0  0  0  0
   -0.5066    4.3201    0.1798 H   0  0  0  0  0  0  0  0  0  0  0  0
   -1.0489    3.4809   -1.3076 H   0  0  0  0  0  0  0  0  0  0  0  0
   -2.0723    2.8530    0.4998 C   0  0  0  0  0  0  0  0  0  0  0  0
   -1.9401    2.9902    1.5965 H   0  0  0  0  0  0  0  0  0  0  0  0
   -2.9818    3.4126    0.1914 H   0  0  0  0  0  0  0  0  0  0  0  0
   -3.3842    0.8618    0.1731 C   0  0  0  0  0  0  0  0  0  0  0  0
   -4.2669    1.5257    0.2708 H   0  0  0  0  0  0  0  0  0  0  0  0
   -3.6299   -0.5357    0.0251 C   0  0  0  0  0  0  0  0  0  0  0  0
   -4.9690   -1.0141   -0.0575 C   0  0  0  0  0  3  0  0  0  0  0  0
   -5.7899   -0.2791   -0.0257 H   0  0  0  0  0  0  0  0  0  0  0  0
   -5.2459   -2.3690   -0.1736 C   0  0  0  0  0  0  0  0  0  0  0  0
   -6.2837   -2.7260   -0.2379 H   0  0  0  0  0  0  0  0  0  0  0  0
   -4.1659   -3.2894   -0.2045 C   0  0  0  0  0  0  0  0  0  0  0  0
   -4.3748   -4.3673   -0.2943 H   0  0  0  0  0  0  0  0  0  0  0  0
   -2.8480   -2.8596   -0.1228 C   0  0  0  0  0  0  0  0  0  0  0  0
   -2.0068   -3.5674   -0.1451 H   0  0  0  0  0  0  0  0  0  0  0  0
   -2.5237   -1.4688   -0.0089 C   0  0  0  0  0  0  0  0  0  0  0  0
  4 27  1  0  0  0  0
  5 15  2  0  0  0  0
  5  7  1  0  0  0  0
  6  5  1  0  0  0  0
  7  9  2  0  0  0  0
  8  7  1  0  0  0  0
  9 11  1  0  0  0  0
  9 10  1  0  0  0  0
 11 12  1  0  0  0  0
 13 14  1  0  0  0  0
 13 11  2  0  0  0  0
 15 13  1  0  0  0  0
 16  1  1  6  0  0  0
 16 15  1  0  0  0  0
 17 16  1  0  0  0  0
 18 17  1  0  0  0  0
 19 17  2  0  0  0  0
 19  3  1  0  0  0  0
 20 19  1  0  0  0  0
 20 21  1  0  0  0  0
 22 20  1  0  0  0  0
 23 20  1  0  0  0  0
 24  3  1  0  0  0  0
 24 25  1  0  0  0  0
 24 27  1  0  0  0  0
 26 24  1  0  0  0  0
 27 28  1  0  0  0  0
 29 27  1  0  0  0  0
 30  4  1  0  0  0  0
 30 31  1  0  0  0  0
 32 30  2  0  0  0  0
 33 34  1  0  0  0  0
 33 32  1  0  0  0  0
 35 33  1  0  0  0  0
 36 35  1  0  0  0  0
 37 35  2  0  0  0  0
 37 39  1  0  0  0  0
 38 37  1  0  0  0  0
 39 41  2  0  0  0  0
 40 39  1  0  0  0  0
 41 32  1  0  0  0  0
 41  2  1  0  0  0  0
M  CHG  1   2  -1
M  END
