21,22,23,25
q = -2.0, confidence = 0.802

 26 26  0  0  1  0  0  0  0  0999 V2000
   -2.8648   -0.9589    0.2931 C   0  0  0  0  0  0  0  0  0  0  0  0
   -1.7976   -1.6235    1.2226 C   0  0  0  0  0  0  0  0  0  0  0  0
   -1.8155   -1.0901    2.1955 H   0  0  0  0  0  0  0  0  0  0  0  0
   -2.0718   -2.6837    1.3981 H   0  0  0  0  0  0  0  0  0  0  0  0
    0.2758   -1.7100   -1.8029 C   0  0  0  0  0  0  0  0  0  0  0  0
   -0.2393   -2.4102   -0.5235 C   0  0  0  0  0  0  0  0  0  0  0  0
   -1.2186   -2.8557   -0.7896 H   0  0  0  0  0  0  0  0  0  0  0  0
    0.4400   -3.2427   -0.2528 H   0  0  0  0  0  0  0  0  0  0  0  0
    0.7031   -1.5051    1.5801 C   0  0  0  0  0  0  0  0  0  0  0  0
    0.9687   -2.5408    1.8852 H   0  0  0  0  0  0  0  0  0  0  0  0
    0.3879   -0.9571    2.4935 H   0  0  0  0  0  0  0  0  0  0  0  0
    1.9091   -0.8044    0.9834 C   0  0  2  0  0  3  0  0  0  0  0  0
    3.2185   -1.2595    1.1735 C   0  0  0  0  0  0  0  0  0  0  0  0
    3.3941   -2.1736    1.7586 H   0  0  0  0  0  0  0  0  0  0  0  0
    4.2861   -0.5500    0.6041 C   0  0  0  0  0  0  0  0  0  0  0  0
    5.3207   -0.8968    0.7422 H   0  0  0  0  0  0  0  0  0  0  0  0
    4.0099    0.5946   -0.1548 C   0  0  0  0  0  0  0  0  0  0  0  0
    4.8118    1.1756   -0.6311 H   0  0  0  0  0  0  0  0  0  0  0  0
    2.6802    0.9964   -0.3141 C   0  0  0  0  0  0  0  0  0  0  0  0
    2.4042    1.8797   -0.9067 H   0  0  0  0  0  0  0  0  0  0  0  0
   -0.4390   -1.4870    0.6317 N   0  0  0  0  0  0  0  0  0  0  0  0
    1.6531    0.3203    0.2477 N   0  0  0  0  0  2  0  0  0  0  0  0
   -2.4269    0.0647   -0.4233 O   0  5  0  0  0  0  0  0  0  0  0  0
   -4.0065   -1.3805    0.2963 O   0  0  0  0  0  0  0  0  0  0  0  0
    0.0359   -0.4103   -1.8186 O   0  5  0  0  0  0  0  0  0  0  0  0
    0.7922   -2.3564   -2.6941 O   0  0  0  0  0  0  0  0  0  0  0  0
  1 24  2  0  0  0  0
  1  2  1  0  0  0  0
  2  4  1  0  0  0  0
  2  3  1  0  0  0  0
  5  6  1  0  0  0  0
  6  8  1  0  0  0  0
  6 21  1  0  0  0  0
  7  6  1  0  0  0  0
  9 10  1  0  0  0  0
  9 11  1  0  0  0  0
 12 13  1  0  0  0  0
 12  9  1  1  0  0  0
 13 14  1  0  0  0  0
 15 16  1  0  0  0  0
 15 13  2  0  0  0  0
 17 15  1  0  0  0  0
 18 17  1  0  0  0  0
 19 17  2  0  0  0  0
 19 22  1  0  0  0  0
 20 19  1  0  0  0  0
 21  2  1  0  0  0  0
 21  9  1  0  0  0  0
 22 12  1  0  0  0  0
 23  1  1  0  0  0  0
 25  5  1  0  0  0  0
 26  5  2  0  0  0  0
M  CHG  2  23  -1  25  -1
M  END
