1,2,3,4
q = -2.0, confidence = 0.978

 44 46  0  0  1  0  0  0  0  0999 V2000
    1.2803    1.1326   -0.0943 N   0  0  0  0  0  2  0  0  0  0  0  0
   -1.3860    1.2071   -0.3320 N   0  0  0  0  0  2  0  0  0  0  0  0
    1.1670   -1.5006   -1.2312 O   0  5  0  0  0  0  0  0  0  0  0  0
   -1.7377   -1.6442   -0.1647 O   0  5  0  0  0  0  0  0  0  0  0  0
    2.4007   -1.2579   -1.5261 C   0  0  0  0  0  0  0  0  0  0  0  0
    3.1606   -2.2687   -2.2117 C   0  0  0  0  0  0  0  0  0  0  0  0
    2.6271   -3.2023   -2.4442 H   0  0  0  0  0  0  0  0  0  0  0  0
    4.4921   -2.0888   -2.5585 C   0  0  0  0  0  0  0  0  0  0  0  0
    5.0290   -2.8995   -3.0773 H   0  0  0  0  0  0  0  0  0  0  0  0
    5.1711   -0.8791   -2.2612 C   0  0  0  0  0  0  0  0  0  0  0  0
    6.2245   -0.7427   -2.5451 H   0  0  0  0  0  0  0  0  0  0  0  0
    4.4723    0.1300   -1.6138 C   0  0  0  0  0  0  0  0  0  0  0  0
    4.9728    1.0858   -1.3819 H   0  0  0  0  0  0  0  0  0  0  0  0
    3.1082   -0.0166   -1.2267 C   0  0  0  0  0  0  0  0  0  0  0  0
    2.4836    1.1151   -0.5919 C   0  0  0  0  0  3  0  0  0  0  0  0
    3.1172    2.0291   -0.5361 H   0  0  0  0  0  0  0  0  0  0  0  0
    0.6488    2.3099    0.4661 C   0  0  1  0  0  0  0  0  0  0  0  0
    0.3803    2.0506    1.5207 H   0  0  0  0  0  0  0  0  0  0  0  0
    1.4497    3.6144    0.4900 C   0  0  0  0  0  0  0  0  0  0  0  0
    1.7126    3.9045   -0.5518 H   0  0  0  0  0  0  0  0  0  0  0  0
    2.4087    3.4617    1.0283 H   0  0  0  0  0  0  0  0  0  0  0  0
    0.6413    4.7380    1.1509 C   0  0  0  0  0  0  0  0  0  0  0  0
    0.4737    4.4846    2.2214 H   0  0  0  0  0  0  0  0  0  0  0  0
    1.2222    5.6834    1.1418 H   0  0  0  0  0  0  0  0  0  0  0  0
   -0.7134    4.9336    0.4607 C   0  0  0  0  0  0  0  0  0  0  0  0
   -0.5452    5.3040   -0.5752 H   0  0  0  0  0  0  0  0  0  0  0  0
   -1.3038    5.7171    0.9792 H   0  0  0  0  0  0  0  0  0  0  0  0
   -1.5138    3.6270    0.4017 C   0  0  0  0  0  0  0  0  0  0  0  0
   -2.4681    3.7935   -0.1380 H   0  0  0  0  0  0  0  0  0  0  0  0
   -1.7852    3.2932    1.4280 H   0  0  0  0  0  0  0  0  0  0  0  0
   -0.7079    2.5038   -0.2702 C   0  0  2  0  0  0  0  0  0  0  0  0
   -0.4534    2.8220   -1.3112 H   0  0  0  0  0  0  0  0  0  0  0  0
   -2.6162    1.1341   -0.7651 C   0  0  0  0  0  3  0  0  0  0  0  0
   -3.1375    2.0729   -1.0620 H   0  0  0  0  0  0  0  0  0  0  0  0
   -3.4128   -0.0517   -0.9185 C   0  0  0  0  0  0  0  0  0  0  0  0
   -4.7451    0.1189   -1.3964 C   0  0  0  0  0  0  0  0  0  0  0  0
   -5.0833    1.1435   -1.6269 H   0  0  0  0  0  0  0  0  0  0  0  0
   -5.6092   -0.9529   -1.5714 C   0  0  0  0  0  0  0  0  0  0  0  0
   -6.6328   -0.7964   -1.9408 H   0  0  0  0  0  0  0  0  0  0  0  0
   -5.1436   -2.2572   -1.2641 C   0  0  0  0  0  0  0  0  0  0  0  0
   -5.8165   -3.1194   -1.3993 H   0  0  0  0  0  0  0  0  0  0  0  0
   -3.8519   -2.4677   -0.8011 C   0  0  0  0  0  0  0  0  0  0  0  0
   -3.4812   -3.4773   -0.5691 H   0  0  0  0  0  0  0  0  0  0  0  0
   -2.9253   -1.3873   -0.6071 C   0  0  0  0  0  0  0  0  0  0  0  0
  1 17  1  0  0  0  0
  2 31  1  0  0  0  0
  5  3  1  0  0  0  0
  5 14  1  0  0  0  0
  6  5  2  0  0  0  0
  7  6  1  0  0  0  0
  8 10  2  0  0  0  0
  8  6  1  0  0  0  0
  9  8  1  0  0  0  0
 10 12  1  0  0  0  0
 11 10  1  0  0  0  0
 12 13  1  0  0  0  0
 12 14  2  0  0  0  0
 14 15  1  0  0  0  0
 15 16  1  0  0  0  0
 15  1  1  0  0  0  0
 17 19  1  0  0  0  0
 17 18  1  1  0  0  0
 19 21  1  0  0  0  0
 19 22  1  0  0  0  0
 20 19  1  0  0  0  0
 22 23  1  0  0  0  0
 24 22  1  0  0  0  0
 25 27  1  0  0  0  0
 25 22  1  0  0  0  0
 26 25  1  0  0  0  0
 28 25  1  0  0  0  0
 28 30  1  0  0  0  0
 29 28  1  0  0  0  0
 31 32  1  6  0  0  0
 31 28  1  0  0  0  0
 31 17  1  0  0  0  0
 33  2  1  0  0  0  0
 34 33  1  0  0  0  0
 35 33  1  0  0  0  0
 35 44  1  0  0  0  0
 36 35  2  0  0  0  0
 37 36  1  0  0  0  0
 38 36  1  0  0  0  0
 38 40  2  0  0  0  0
 39 38  1  0  0  0  0
 40 42  1  0  0  0  0
 41 40  1  0  0  0  0
 42 44  2  0  0  0  0
 42 43  1  0  0  0  0
 44  4  1  0  0  0  0
M  CHG  2   3  -1   4  -1
M  END
