1,2,3,4
q = -2.0, confidence = 0.854

 44 46  0  0  1  0  0  0  0  0999 V2000
    1.3803   -1.9205   -0.0671 O   0  0  0  0  0  1  0  0  0  0  0  0
   -1.3803   -1.9205    0.0671 O   0  5  0  0  0  0  0  0  0  0  0  0
    1.3205    1.0163   -0.1287 N   0  0  0  0  0  2  0  0  0  0  0  0
   -1.3205    1.0163    0.1287 N   0  0  0  0  0  2  0  0  0  0  0  0
    2.6670   -1.7069   -0.0145 C   0  0  1  0  0  3  0  0  0  0  0  0
    3.5133   -2.8597    0.0510 C   0  0  0  0  0  0  0  0  0  0  0  0
    3.0098   -3.8370    0.0590 H   0  0  0  0  0  0  0  0  0  0  0  0
    4.8956   -2.7526    0.1032 C   0  0  0  0  0  0  0  0  0  0  0  0
    5.5058   -3.6681    0.1541 H   0  0  0  0  0  0  0  0  0  0  0  0
    5.5305   -1.4844    0.0907 C   0  0  0  0  0  0  0  0  0  0  0  0
    6.6263   -1.4065    0.1305 H   0  0  0  0  0  0  0  0  0  0  0  0
    4.7427   -0.3458    0.0239 C   0  0  0  0  0  0  0  0  0  0  0  0
    5.2162    0.6496    0.0077 H   0  0  0  0  0  0  0  0  0  0  0  0
    3.3162   -0.4072   -0.0276 C   0  0  0  0  0  0  0  0  0  0  0  0
    2.6216    0.8451   -0.1200 C   0  0  0  0  0  0  0  0  0  0  0  0
    3.2580    1.7445   -0.2030 H   0  0  0  0  0  0  0  0  0  0  0  0
    0.6734    2.3209   -0.3774 C   0  0  2  0  0  0  0  0  0  0  0  0
    0.4273    2.3449   -1.4655 H   0  0  0  0  0  0  0  0  0  0  0  0
    1.4900    3.5700   -0.0392 C   0  0  0  0  0  0  0  0  0  0  0  0
    1.7673    3.5455    1.0376 H   0  0  0  0  0  0  0  0  0  0  0  0
    2.4361    3.5836   -0.6170 H   0  0  0  0  0  0  0  0  0  0  0  0
    0.6790    4.8357   -0.3548 C   0  0  0  0  0  0  0  0  0  0  0  0
    1.2629    5.7358   -0.0739 H   0  0  0  0  0  0  0  0  0  0  0  0
    0.5187    4.8980   -1.4539 H   0  0  0  0  0  0  0  0  0  0  0  0
   -0.6790    4.8357    0.3548 C   0  0  0  0  0  0  0  0  0  0  0  0
   -1.2628    5.7358    0.0739 H   0  0  0  0  0  0  0  0  0  0  0  0
   -0.5187    4.8980    1.4539 H   0  0  0  0  0  0  0  0  0  0  0  0
   -1.4900    3.5701    0.0392 C   0  0  0  0  0  0  0  0  0  0  0  0
   -2.4361    3.5836    0.6170 H   0  0  0  0  0  0  0  0  0  0  0  0
   -1.7672    3.5455   -1.0376 H   0  0  0  0  0  0  0  0  0  0  0  0
   -0.6734    2.3209    0.3774 C   0  0  1  0  0  0  0  0  0  0  0  0
   -0.4273    2.3449    1.4655 H   0  0  0  0  0  0  0  0  0  0  0  0
   -2.6216    0.8451    0.1200 C   0  0  0  0  0  0  0  0  0  0  0  0
   -3.2580    1.7445    0.2029 H   0  0  0  0  0  0  0  0  0  0  0  0
   -3.3162   -0.4071    0.0276 C   0  0  0  0  0  0  0  0  0  0  0  0
   -4.7427   -0.3458   -0.0239 C   0  0  0  0  0  3  0  0  0  0  0  0
   -5.2162    0.6496   -0.0077 H   0  0  0  0  0  0  0  0  0  0  0  0
   -5.5305   -1.4844   -0.0907 C   0  0  0  0  0  0  0  0  0  0  0  0
   -6.6263   -1.4065   -0.1305 H   0  0  0  0  0  0  0  0  0  0  0  0
   -4.8956   -2.7526   -0.1031 C   0  0  0  0  0  0  0  0  0  0  0  0
   -5.5058   -3.6681   -0.1540 H   0  0  0  0  0  0  0  0  0  0  0  0
   -3.5134   -2.8597   -0.0510 C   0  0  0  0  0  0  0  0  0  0  0  0
   -3.0098   -3.8370   -0.0590 H   0  0  0  0  0  0  0  0  0  0  0  0
   -2.6670   -1.7069    0.0145 C   0  0  0  0  0  0  0  0  0  0  0  0
  3 15  1  0  0  0  0
  4 31  1  0  0  0  0
  5  1  1  6  0  0  0
  5  6  1  0  0  0  0
  6  7  1  0  0  0  0
  6  8  2  0  0  0  0
  8  9  1  0  0  0  0
 10  8  1  0  0  0  0
 10 11  1  0  0  0  0
 12 10  2  0  0  0  0
 13 12  1  0  0  0  0
 14  5  1  0  0  0  0
 14 12  1  0  0  0  0
 15 14  2  0  0  0  0
 16 15  1  0  0  0  0
 17 18  1  6  0  0  0
 17  3  1  0  0  0  0
 17 19  1  0  0  0  0
 17 31  1  0  0  0  0
 19 20  1  0  0  0  0
 21 19  1  0  0  0  0
 22 23  1  0  0  0  0
 22 19  1  0  0  0  0
 22 25  1  0  0  0  0
 24 22  1  0  0  0  0
 25 27  1  0  0  0  0
 26 25  1  0  0  0  0
 28 25  1  0  0  0  0
 28 31  1  0  0  0  0
 28 29  1  0  0  0  0
 30 28  1  0  0  0  0
 31 32  1  1  0  0  0
 33  4  1  0  0  0  0
 33 34  1  0  0  0  0
 35 33  2  0  0  0  0
 36 37  1  0  0  0  0
 36 35  1  0  0  0  0
 38 36  1  0  0  0  0
 39 38  1  0  0  0  0
 40 38  2  0  0  0  0
 40 42  1  0  0  0  0
 41 40  1  0  0  0  0
 42 44  2  0  0  0  0
 43 42  1  0  0  0  0
 44 35  1  0  0  0  0
 44  2  1  0  0  0  0
M  CHG  1   2  -1
M  END
