1,2,3,4
q = -2.0, confidence = 0.87

 60 62  0  0  1  0  0  0  0  0999 V2000
    1.9058   -0.3889   -0.4152 O   0  5  0  0  0  0  0  0  0  0  0  0
   -1.7872   -1.0955    0.2968 O   0  5  0  0  0  0  0  0  0  0  0  0
    0.2023    0.9158    1.4099 N   0  0  0  0  0  0  0  0  0  0  0  0
   -0.6246    0.8668   -1.3654 N   0  0  0  0  0  0  0  0  0  0  0  0
    0.4375    1.1390   -2.3487 C   0  0  0  0  0  0  0  0  0  0  0  0
    0.7581    0.1824   -2.7992 H   0  0  0  0  0  0  0  0  0  0  0  0
    1.3191    1.5934   -1.8631 H   0  0  0  0  0  0  0  0  0  0  0  0
    0.0825    1.8078   -3.1646 H   0  0  0  0  0  0  0  0  0  0  0  0
   -0.8700    0.7201    2.4050 C   0  0  0  0  0  0  0  0  0  0  0  0
   -0.8195   -0.3234    2.7661 H   0  0  0  0  0  0  0  0  0  0  0  0
   -1.8632    0.8769    1.9476 H   0  0  0  0  0  0  0  0  0  0  0  0
   -0.7542    1.4056    3.2738 H   0  0  0  0  0  0  0  0  0  0  0  0
    0.0790    2.1877    0.6312 C   0  0  2  0  0  0  0  0  0  0  0  0
    1.0750    2.3430    0.1655 H   0  0  0  0  0  0  0  0  0  0  0  0
   -0.2097    3.4195    1.5088 C   0  0  0  0  0  0  0  0  0  0  0  0
   -1.1560    3.2629    2.0687 H   0  0  0  0  0  0  0  0  0  0  0  0
    0.5954    3.5285    2.2647 H   0  0  0  0  0  0  0  0  0  0  0  0
   -0.3499    4.7009    0.6834 C   0  0  0  0  0  0  0  0  0  0  0  0
   -0.5617    5.5605    1.3524 H   0  0  0  0  0  0  0  0  0  0  0  0
    0.6128    4.9276    0.1735 H   0  0  0  0  0  0  0  0  0  0  0  0
   -1.4547    4.5358   -0.3628 C   0  0  0  0  0  0  0  0  0  0  0  0
   -1.5743    5.4612   -0.9634 H   0  0  0  0  0  0  0  0  0  0  0  0
   -2.4276    4.3639    0.1493 H   0  0  0  0  0  0  0  0  0  0  0  0
   -1.1372    3.3535   -1.2813 C   0  0  0  0  0  0  0  0  0  0  0  0
   -0.2063    3.5884   -1.8395 H   0  0  0  0  0  0  0  0  0  0  0  0
   -1.9390    3.2198   -2.0368 H   0  0  0  0  0  0  0  0  0  0  0  0
   -0.9527    2.0398   -0.4993 C   0  0  1  0  0  0  0  0  0  0  0  0
   -1.9312    1.7972   -0.0341 H   0  0  0  0  0  0  0  0  0  0  0  0
   -1.8197    0.3665   -2.1112 C   0  0  0  0  0  0  0  0  0  0  0  0
   -2.0506    1.0514   -2.9599 H   0  0  0  0  0  0  0  0  0  0  0  0
   -1.5115   -0.6079   -2.5456 H   0  0  0  0  0  0  0  0  0  0  0  0
   -3.0493    0.1933   -1.2656 C   0  0  0  0  0  0  0  0  0  0  0  0
   -4.2797    0.7620   -1.6330 C   0  0  0  0  0  0  0  0  0  0  0  0
   -4.3359    1.3650   -2.5541 H   0  0  0  0  0  0  0  0  0  0  0  0
   -5.4234    0.5647   -0.8461 C   0  0  0  0  0  0  0  0  0  0  0  0
   -6.3853    1.0094   -1.1405 H   0  0  0  0  0  0  0  0  0  0  0  0
   -5.3273   -0.2070    0.3231 C   0  0  0  0  0  0  0  0  0  0  0  0
   -6.2221   -0.3683    0.9459 H   0  0  0  0  0  0  0  0  0  0  0  0
   -4.1128   -0.7854    0.7306 C   0  0  0  0  0  0  0  0  0  0  0  0
   -4.0096   -1.6290    1.9710 C   0  0  0  0  0  0  0  0  0  0  0  0
   -4.9656   -1.6453    2.5286 H   0  0  0  0  0  0  0  0  0  0  0  0
   -3.2119   -1.2632    2.6490 H   0  0  0  0  0  0  0  0  0  0  0  0
   -3.7389   -2.6762    1.7191 H   0  0  0  0  0  0  0  0  0  0  0  0
   -2.9529   -0.5798   -0.0744 C   0  0  0  0  0  0  0  0  0  0  0  0
    1.5130    0.8289    2.1242 C   0  0  0  0  0  0  0  0  0  0  0  0
    1.5591   -0.2053    2.5243 H   0  0  0  0  0  0  0  0  0  0  0  0
    1.5128    1.5243    2.9951 H   0  0  0  0  0  0  0  0  0  0  0  0
    2.7132    1.1128    1.2633 C   0  0  0  0  0  0  0  0  0  0  0  0
    3.7095    2.0108    1.6819 C   0  0  0  0  0  0  0  0  0  0  0  0
    3.5828    2.5365    2.6427 H   0  0  0  0  0  0  0  0  0  0  0  0
    4.8528    2.2328    0.9016 C   0  0  0  0  0  0  0  0  0  0  0  0
    5.6306    2.9331    1.2398 H   0  0  0  0  0  0  0  0  0  0  0  0
    4.9944    1.5487   -0.3165 C   0  0  0  0  0  0  0  0  0  0  0  0
    5.8926    1.7122   -0.9339 H   0  0  0  0  0  0  0  0  0  0  0  0
    4.0151    0.6538   -0.7793 C   0  0  0  0  0  0  0  0  0  0  0  0
    4.1676   -0.0920   -2.0769 C   0  0  0  0  0  0  0  0  0  0  0  0
    5.1301    0.1477   -2.5682 H   0  0  0  0  0  0  0  0  0  0  0  0
    3.3481    0.1487   -2.7863 H   0  0  0  0  0  0  0  0  0  0  0  0
    4.1193   -1.1893   -1.9162 H   0  0  0  0  0  0  0  0  0  0  0  0
    2.8521    0.4340    0.0189 C   0  0  0  0  0  0  0  0  0  0  0  0
  1 60  1  0  0  0  0
  3 45  1  0  0  0  0
  3  9  1  0  0  0  0
  4 27  1  0  0  0  0
  5  7  1  0  0  0  0
  5  4  1  0  0  0  0
  6  5  1  0  0  0  0
  8  5  1  0  0  0  0
  9 10  1  0  0  0  0
  9 12  1  0  0  0  0
 11  9  1  0  0  0  0
 13 14  1  6  0  0  0
 13  3  1  0  0  0  0
 13 15  1  0  0  0  0
 15 16  1  0  0  0  0
 15 17  1  0  0  0  0
 18 19  1  0  0  0  0
 18 15  1  0  0  0  0
 20 18  1  0  0  0  0
 21 23  1  0  0  0  0
 21 18  1  0  0  0  0
 22 21  1  0  0  0  0
 24 27  1  0  0  0  0
 24 21  1  0  0  0  0
 25 24  1  0  0  0  0
 26 24  1  0  0  0  0
 27 28  1  1  0  0  0
 27 13  1  0  0  0  0
 29  4  1  0  0  0  0
 29 32  1  0  0  0  0
 30 29  1  0  0  0  0
 31 29  1  0  0  0  0
 32 44  1  0  0  0  0
 33 32  2  0  0  0  0
 33 35  1  0  0  0  0
 34 33  1  0  0  0  0
 35 37  2  0  0  0  0
 36 35  1  0  0  0  0
 37 39  1  0  0  0  0
 37 38  1  0  0  0  0
 39 40  1  0  0  0  0
 40 41  1  0  0  0  0
 40 42  1  0  0  0  0
 43 40  1  0  0  0  0
 44  2  1  0  0  0  0
 44 39  2  0  0  0  0
 45 46  1  0  0  0  0
 45 47  1  0  0  0  0
 48 49  1  0  0  0  0
 48 45  1  0  0  0  0
 49 50  1  0  0  0  0
 51 52  1  0  0  0  0
 51 49  2  0  0  0  0
 53 51  1  0  0  0  0
 54 53  1  0  0  0  0
 55 53  2  0  0  0  0
 55 60  1  0  0  0  0
 56 59  1  0  0  0  0
 56 55  1  0  0  0  0
 57 56  1  0  0  0  0
 58 56  1  0  0  0  0
 60 48  2  0  0  0  0
M  CHG  2   1  -1   2  -1
M  END
