1,2,14,15
q = -2.0, confidence = 0.776

 34 35  0  0  0  0  0  0  0  0999 V2000
    1.3570    0.9594   -1.6287 N   0  0  0  0  0  2  0  0  0  0  0  0
    1.4149   -0.9202    0.4474 O   0  5  0  0  0  0  0  0  0  0  0  0
    3.4251    1.5024   -2.4874 O   0  0  0  0  0  0  0  0  0  0  0  0
    0.7292    1.7439   -2.6935 C   0  0  0  0  0  0  0  0  0  0  0  0
    2.7406    0.8896   -1.6533 C   0  0  0  0  0  0  0  0  0  0  0  0
    3.3964   -0.0589   -0.6827 C   0  0  0  0  0  0  0  0  0  0  0  0
    4.8006   -0.1441   -0.8001 C   0  0  0  0  0  0  0  0  0  0  0  0
    5.5344   -1.0392   -0.0225 C   0  0  0  0  0  0  0  0  0  0  0  0
    4.8909   -1.9073    0.8837 C   0  0  0  0  0  0  0  0  0  0  0  0
    3.5047   -1.8467    0.9986 C   0  0  0  0  0  0  0  0  0  0  0  0
    2.7163   -0.9141    0.2468 C   0  0  0  0  0  0  0  0  0  0  0  0
    7.2720   -1.1071   -0.1680 Cl  0  0  0  0  0  0  0  0  0  0  0  0
    2.6778   -2.9036    2.1072 Cl  0  0  0  0  0  0  0  0  0  0  0  0
   -1.1811    1.5639   -1.1965 N   0  0  0  0  0  2  0  0  0  0  0  0
   -1.3630    0.0973    1.1904 O   0  5  0  0  0  0  0  0  0  0  0  0
   -3.1905    1.9283   -2.2657 O   0  0  0  0  0  0  0  0  0  0  0  0
   -0.4906    2.4814   -2.1033 C   0  0  0  0  0  0  0  0  0  0  0  0
   -2.5522    1.3835   -1.3542 C   0  0  0  0  0  0  0  0  0  0  0  0
   -3.2418    0.5376   -0.3185 C   0  0  0  0  0  0  0  0  0  0  0  0
   -4.6257    0.3611   -0.5382 C   0  0  0  0  0  0  0  0  0  0  0  0
   -5.4133   -0.3495    0.3652 C   0  0  0  0  0  0  0  0  0  0  0  0
   -4.8523   -0.8967    1.5373 C   0  0  0  0  0  0  0  0  0  0  0  0
   -3.4934   -0.7138    1.7792 C   0  0  0  0  0  0  0  0  0  0  0  0
   -2.6393   -0.0080    0.8680 C   0  0  0  0  0  0  0  0  0  0  0  0
   -7.1165   -0.5748    0.0576 Cl  0  0  0  0  0  0  0  0  0  0  0  0
   -2.7674   -1.4033    3.2020 Cl  0  0  0  0  0  0  0  0  0  0  0  0
    5.2807    0.5144   -1.5371 H   0  0  0  0  0  0  0  0  0  0  0  0
    5.4666   -2.6183    1.4903 H   0  0  0  0  0  0  0  0  0  0  0  0
    0.3952    1.0766   -3.5210 H   0  0  0  0  0  0  0  0  0  0  0  0
    1.4817    2.4335   -3.1251 H   0  0  0  0  0  0  0  0  0  0  0  0
   -5.0520    0.8144   -1.4435 H   0  0  0  0  0  0  0  0  0  0  0  0
   -5.4687   -1.4638    2.2469 H   0  0  0  0  0  0  0  0  0  0  0  0
   -0.1313    3.3621   -1.5265 H   0  0  0  0  0  0  0  0  0  0  0  0
   -1.1943    2.8311   -2.8836 H   0  0  0  0  0  0  0  0  0  0  0  0
  3  5  2  0  0  0  0
  4 17  1  0  0  0  0
  4  1  1  0  0  0  0
  5  1  1  0  0  0  0
  5  6  1  0  0  0  0
  6 11  1  0  0  0  0
  7  6  2  0  0  0  0
  7  8  1  0  0  0  0
  8  9  2  0  0  0  0
  9 10  1  0  0  0  0
  9 28  1  0  0  0  0
 10 13  1  0  0  0  0
 11  2  1  0  0  0  0
 11 10  2  0  0  0  0
 12  8  1  0  0  0  0
 16 18  2  0  0  0  0
 17 33  1  0  0  0  0
 17 14  1  0  0  0  0
 18 14  1  0  0  0  0
 18 19  1  0  0  0  0
 19 24  1  0  0  0  0
 20 19  2  0  0  0  0
 20 21  1  0  0  0  0
 21 22  2  0  0  0  0
 22 23  1  0  0  0  0
 22 32  1  0  0  0  0
 23 26  1  0  0  0  0
 24 15  1  0  0  0  0
 24 23  2  0  0  0  0
 25 21  1  0  0  0  0
 27  7  1  0  0  0  0
 29  4  1  0  0  0  0
 30  4  1  0  0  0  0
 31 20  1  0  0  0  0
 34 17  1  0  0  0  0
M  CHG  2   2  -1  15  -1
M  END
