1,2,3,4
q = -2.0, confidence = 0.828

 34 35  0  0  1  0  0  0  0  0999 V2000
    1.2701   -1.1160    0.0142 O   0  0  0  0  0  1  0  0  0  0  0  0
   -1.2701   -1.1160   -0.0143 O   0  5  0  0  0  0  0  0  0  0  0  0
    1.2517    1.5815    0.1287 N   0  0  0  0  0  2  0  0  0  0  0  0
   -1.2518    1.5815   -0.1288 N   0  0  0  0  0  2  0  0  0  0  0  0
    2.5629   -1.0238   -0.0093 C   0  0  2  0  0  3  0  0  0  0  0  0
    3.3522   -2.2182   -0.0868 C   0  0  0  0  0  0  0  0  0  0  0  0
    4.7469   -2.1880   -0.1097 C   0  0  0  0  0  0  0  0  0  0  0  0
    5.4442   -0.9585   -0.0534 C   0  0  0  0  0  0  0  0  0  0  0  0
    4.7101    0.2273    0.0248 C   0  0  0  0  0  0  0  0  0  0  0  0
    3.2894    0.2363    0.0476 C   0  0  0  0  0  0  0  0  0  0  0  0
    2.5771    1.4748    0.1456 C   0  0  0  0  0  0  0  0  0  0  0  0
    0.6768    2.9124    0.3469 C   0  0  0  0  0  0  0  0  0  0  0  0
   -0.6768    2.9124   -0.3470 C   0  0  0  0  0  0  0  0  0  0  0  0
   -2.5771    1.4748   -0.1455 C   0  0  0  0  0  0  0  0  0  0  0  0
   -3.2894    0.2363   -0.0475 C   0  0  0  0  0  0  0  0  0  0  0  0
   -4.7101    0.2273   -0.0247 C   0  0  0  0  0  3  0  0  0  0  0  0
   -5.4442   -0.9585    0.0536 C   0  0  0  0  0  0  0  0  0  0  0  0
   -4.7469   -2.1880    0.1097 C   0  0  0  0  0  0  0  0  0  0  0  0
   -3.3521   -2.2182    0.0867 C   0  0  0  0  0  0  0  0  0  0  0  0
   -2.5629   -1.0238    0.0092 C   0  0  0  0  0  0  0  0  0  0  0  0
    2.7962   -3.1675   -0.1273 H   0  0  0  0  0  0  0  0  0  0  0  0
    5.3094   -3.1350   -0.1711 H   0  0  0  0  0  0  0  0  0  0  0  0
    6.5451   -0.9356   -0.0696 H   0  0  0  0  0  0  0  0  0  0  0  0
    5.2346    1.1981    0.0725 H   0  0  0  0  0  0  0  0  0  0  0  0
    3.1718    2.4049    0.2530 H   0  0  0  0  0  0  0  0  0  0  0  0
   -3.1718    2.4049   -0.2529 H   0  0  0  0  0  0  0  0  0  0  0  0
   -5.2346    1.1981   -0.0723 H   0  0  0  0  0  0  0  0  0  0  0  0
   -6.5451   -0.9356    0.0698 H   0  0  0  0  0  0  0  0  0  0  0  0
   -5.3094   -3.1351    0.1711 H   0  0  0  0  0  0  0  0  0  0  0  0
   -2.7962   -3.1675    0.1271 H   0  0  0  0  0  0  0  0  0  0  0  0
    0.5391    3.0783    1.4399 H   0  0  0  0  0  0  0  0  0  0  0  0
    1.3419    3.7204   -0.0373 H   0  0  0  0  0  0  0  0  0  0  0  0
   -1.3419    3.7204    0.0372 H   0  0  0  0  0  0  0  0  0  0  0  0
   -0.5391    3.0783   -1.4400 H   0  0  0  0  0  0  0  0  0  0  0  0
  2 20  1  0  0  0  0
  3 11  1  0  0  0  0
  3 12  1  0  0  0  0
  5  1  1  1  0  0  0
  5 10  1  0  0  0  0
  6  5  1  0  0  0  0
  7  6  2  0  0  0  0
  7  8  1  0  0  0  0
  8  9  2  0  0  0  0
  9 10  1  0  0  0  0
  9 24  1  0  0  0  0
 10 11  2  0  0  0  0
 11 25  1  0  0  0  0
 12 31  1  0  0  0  0
 13  4  1  0  0  0  0
 13 33  1  0  0  0  0
 13 12  1  0  0  0  0
 14  4  1  0  0  0  0
 14 15  2  0  0  0  0
 15 16  1  0  0  0  0
 15 20  1  0  0  0  0
 16 17  1  0  0  0  0
 17 28  1  0  0  0  0
 17 18  2  0  0  0  0
 18 29  1  0  0  0  0
 19 18  1  0  0  0  0
 19 30  1  0  0  0  0
 20 19  2  0  0  0  0
 21  6  1  0  0  0  0
 22  7  1  0  0  0  0
 23  8  1  0  0  0  0
 26 14  1  0  0  0  0
 27 16  1  0  0  0  0
 32 12  1  0  0  0  0
 34 13  1  0  0  0  0
M  CHG  1   2  -1
M  END
