1,2,3,4
q = -2.0, confidence = 0.706

 50 54  0  0  1  0  0  0  0  0999 V2000
    1.2365   -1.6521   -0.0005 O   0  5  0  0  0  0  0  0  0  0  0  0
   -1.2365   -1.6521    0.0002 O   0  5  0  0  0  0  0  0  0  0  0  0
    1.2739    1.0633   -0.0000 N   0  0  0  0  0  2  0  0  0  0  0  0
   -1.2739    1.0633   -0.0001 N   0  0  0  0  0  2  0  0  0  0  0  0
    3.2778   -0.3536   -0.0000 C   0  0  0  0  0  0  0  0  0  0  0  0
    2.5245   -1.5844   -0.0004 C   0  0  0  0  0  0  0  0  0  0  0  0
    3.2419   -2.8367   -0.0009 C   0  0  0  0  0  0  0  0  0  0  0  0
    2.6321   -3.7511   -0.0013 H   0  0  0  0  0  0  0  0  0  0  0  0
    4.6126   -2.8707   -0.0009 C   0  0  0  0  0  0  0  0  0  0  0  0
    5.1390   -3.8386   -0.0013 H   0  0  0  0  0  0  0  0  0  0  0  0
    5.4027   -1.6703   -0.0003 C   0  0  0  0  0  0  0  0  0  0  0  0
    6.8204   -1.7363   -0.0002 C   0  0  0  0  0  3  0  0  0  0  0  0
    7.2978   -2.7288   -0.0006 H   0  0  0  0  0  0  0  0  0  0  0  0
    7.5953   -0.5814    0.0005 C   0  0  0  0  0  0  0  0  0  0  0  0
    8.6935   -0.6446    0.0006 H   0  0  0  0  0  0  0  0  0  0  0  0
    6.9527    0.6761    0.0011 C   0  0  0  0  0  0  0  0  0  0  0  0
    7.5523    1.5991    0.0018 H   0  0  0  0  0  0  0  0  0  0  0  0
    5.5617    0.7642    0.0010 C   0  0  0  0  0  0  0  0  0  0  0  0
    5.1086    1.7657    0.0017 H   0  0  0  0  0  0  0  0  0  0  0  0
    4.7396   -0.3950    0.0002 C   0  0  0  0  0  0  0  0  0  0  0  0
    2.5913    0.8810   -0.0001 C   0  0  0  0  0  0  0  0  0  0  0  0
    3.2072    1.7932   -0.0003 H   0  0  0  0  0  0  0  0  0  0  0  0
   -3.2778   -0.3536    0.0001 C   0  0  0  0  0  0  0  0  0  0  0  0
   -2.5245   -1.5844    0.0002 C   0  0  0  0  0  0  0  0  0  0  0  0
   -3.2419   -2.8367    0.0005 C   0  0  0  0  0  0  0  0  0  0  0  0
   -2.6321   -3.7511    0.0007 H   0  0  0  0  0  0  0  0  0  0  0  0
   -4.6126   -2.8707    0.0006 C   0  0  0  0  0  0  0  0  0  0  0  0
   -5.1390   -3.8386    0.0008 H   0  0  0  0  0  0  0  0  0  0  0  0
   -5.4027   -1.6703    0.0003 C   0  0  0  0  0  0  0  0  0  0  0  0
   -6.8204   -1.7363    0.0004 C   0  0  0  0  0  0  0  0  0  0  0  0
   -7.2978   -2.7288    0.0006 H   0  0  0  0  0  0  0  0  0  0  0  0
   -7.5953   -0.5814    0.0001 C   0  0  0  0  0  0  0  0  0  0  0  0
   -8.6935   -0.6446    0.0001 H   0  0  0  0  0  0  0  0  0  0  0  0
   -6.9527    0.6761   -0.0002 C   0  0  0  0  0  0  0  0  0  0  0  0
   -7.5523    1.5991   -0.0005 H   0  0  0  0  0  0  0  0  0  0  0  0
   -5.5617    0.7642   -0.0003 C   0  0  0  0  0  0  0  0  0  0  0  0
   -5.1086    1.7657   -0.0006 H   0  0  0  0  0  0  0  0  0  0  0  0
   -4.7396   -0.3950    0.0001 C   0  0  2  0  0  3  0  0  0  0  0  0
   -2.5913    0.8810    0.0000 C   0  0  0  0  0  0  0  0  0  0  0  0
   -3.2072    1.7932    0.0001 H   0  0  0  0  0  0  0  0  0  0  0  0
    0.7104    2.3567   -0.0001 C   0  0  0  0  0  0  0  0  0  0  0  0
   -0.7104    2.3567   -0.0002 C   0  0  0  0  0  0  0  0  0  0  0  0
   -1.4094    3.5811   -0.0003 C   0  0  0  0  0  0  0  0  0  0  0  0
   -2.5077    3.6027   -0.0005 H   0  0  0  0  0  0  0  0  0  0  0  0
   -0.7037    4.7892   -0.0003 C   0  0  0  0  0  0  0  0  0  0  0  0
   -1.2561    5.7404   -0.0005 H   0  0  0  0  0  0  0  0  0  0  0  0
    0.7037    4.7892   -0.0001 C   0  0  0  0  0  0  0  0  0  0  0  0
    1.2561    5.7404   -0.0001 H   0  0  0  0  0  0  0  0  0  0  0  0
    1.4094    3.5811   -0.0000 C   0  0  0  0  0  0  0  0  0  0  0  0
    2.5077    3.6027    0.0002 H   0  0  0  0  0  0  0  0  0  0  0  0
  1  6  1  0  0  0  0
  2 24  1  0  0  0  0
  4 39  1  0  0  0  0
  5 20  1  0  0  0  0
  6  5  1  0  0  0  0
  7  6  2  0  0  0  0
  8  7  1  0  0  0  0
  9  7  1  0  0  0  0
  9 11  2  0  0  0  0
 10  9  1  0  0  0  0
 11 12  1  0  0  0  0
 11 20  1  0  0  0  0
 12 14  1  0  0  0  0
 13 12  1  0  0  0  0
 14 15  1  0  0  0  0
 14 16  2  0  0  0  0
 16 17  1  0  0  0  0
 18 16  1  0  0  0  0
 18 19  1  0  0  0  0
 20 18  2  0  0  0  0
 21  5  2  0  0  0  0
 21  3  1  0  0  0  0
 22 21  1  0  0  0  0
 23 24  1  0  0  0  0
 24 25  2  0  0  0  0
 25 27  1  0  0  0  0
 25 26  1  0  0  0  0
 27 28  1  0  0  0  0
 29 30  1  0  0  0  0
 29 27  2  0  0  0  0
 30 31  1  0  0  0  0
 32 33  1  0  0  0  0
 32 30  2  0  0  0  0
 34 32  1  0  0  0  0
 35 34  1  0  0  0  0
 36 34  2  0  0  0  0
 37 36  1  0  0  0  0
 38 36  1  6  0  0  0
 38 23  1  0  0  0  0
 38 29  1  0  0  0  0
 39 23  2  0  0  0  0
 39 40  1  0  0  0  0
 41  3  1  0  0  0  0
 41 49  1  0  0  0  0
 42  4  1  0  0  0  0
 42 41  2  0  0  0  0
 43 45  2  0  0  0  0
 43 42  1  0  0  0  0
 44 43  1  0  0  0  0
 45 47  1  0  0  0  0
 46 45  1  0  0  0  0
 47 48  1  0  0  0  0
 47 49  2  0  0  0  0
 49 50  1  0  0  0  0
M  CHG  2   1  -1   2  -1
M  END
