1,2,3,4
q = -2.0, confidence = 0.854

 58 59  0  0  0  0  0  0  0  0999 V2000
    1.5435    0.1735   -0.2269 O   0  5  0  0  0  0  0  0  0  0  0  0
   -1.5435    0.1736    0.2266 O   0  5  0  0  0  0  0  0  0  0  0  0
    1.3121   -2.5309   -0.2809 N   0  0  0  0  0  2  0  0  0  0  0  0
   -1.3120   -2.5309    0.2809 N   0  0  0  0  0  2  0  0  0  0  0  0
    2.6091   -2.4758   -0.2731 C   0  0  0  0  0  3  0  0  0  0  0  0
    3.1746   -3.4282   -0.3682 H   0  0  0  0  0  0  0  0  0  0  0  0
    3.4226   -1.2840   -0.1561 C   0  0  0  0  0  0  0  0  0  0  0  0
    4.8291   -1.4361   -0.0880 C   0  0  0  0  0  0  0  0  0  0  0  0
    5.2583   -2.4502   -0.1087 H   0  0  0  0  0  0  0  0  0  0  0  0
    5.6512   -0.3187    0.0085 C   0  0  0  0  0  0  0  0  0  0  0  0
    6.7434   -0.4323    0.0656 H   0  0  0  0  0  0  0  0  0  0  0  0
    5.0770    0.9687    0.0346 C   0  0  0  0  0  0  0  0  0  0  0  0
    5.7490    1.8336    0.1156 H   0  0  0  0  0  0  0  0  0  0  0  0
    3.6919    1.1894   -0.0370 C   0  0  0  0  0  0  0  0  0  0  0  0
    3.0758    2.5996    0.0101 C   0  0  0  0  0  0  0  0  0  0  0  0
    4.1593    3.6893    0.1057 C   0  0  0  0  0  0  0  0  0  0  0  0
    3.6740    4.6851    0.1371 H   0  0  0  0  0  0  0  0  0  0  0  0
    4.8397    3.6792   -0.7702 H   0  0  0  0  0  0  0  0  0  0  0  0
    4.7715    3.5910    1.0252 H   0  0  0  0  0  0  0  0  0  0  0  0
    2.1702    2.7224    1.2606 C   0  0  0  0  0  0  0  0  0  0  0  0
    1.6965    3.7256    1.2867 H   0  0  0  0  0  0  0  0  0  0  0  0
    2.7665    2.6006    2.1875 H   0  0  0  0  0  0  0  0  0  0  0  0
    1.3692    1.9616    1.2726 H   0  0  0  0  0  0  0  0  0  0  0  0
    2.2569    2.8620   -1.2775 C   0  0  0  0  0  0  0  0  0  0  0  0
    1.8106    3.8772   -1.2378 H   0  0  0  0  0  0  0  0  0  0  0  0
    1.4392    2.1303   -1.4052 H   0  0  0  0  0  0  0  0  0  0  0  0
    2.9092    2.8111   -2.1730 H   0  0  0  0  0  0  0  0  0  0  0  0
    2.8540    0.0344   -0.1388 C   0  0  0  0  0  0  0  0  0  0  0  0
   -2.8540    0.0344    0.1388 C   0  0  0  0  0  0  0  0  0  0  0  0
   -3.6919    1.1894    0.0371 C   0  0  0  0  0  0  0  0  0  0  0  0
   -3.0758    2.5996   -0.0102 C   0  0  0  0  0  0  0  0  0  0  0  0
   -2.2567    2.8621    1.2772 C   0  0  0  0  0  0  0  0  0  0  0  0
   -1.8103    3.8772    1.2374 H   0  0  0  0  0  0  0  0  0  0  0  0
   -1.4390    2.1303    1.4049 H   0  0  0  0  0  0  0  0  0  0  0  0
   -2.9088    2.8113    2.1728 H   0  0  0  0  0  0  0  0  0  0  0  0
   -2.1705    2.7223   -1.2609 C   0  0  0  0  0  0  0  0  0  0  0  0
   -1.6967    3.7255   -1.2870 H   0  0  0  0  0  0  0  0  0  0  0  0
   -2.7669    2.6005   -2.1876 H   0  0  0  0  0  0  0  0  0  0  0  0
   -1.3695    1.9615   -1.2729 H   0  0  0  0  0  0  0  0  0  0  0  0
   -4.1594    3.6893   -0.1056 C   0  0  0  0  0  0  0  0  0  0  0  0
   -3.6741    4.6851   -0.1373 H   0  0  0  0  0  0  0  0  0  0  0  0
   -4.8395    3.6793    0.7704 H   0  0  0  0  0  0  0  0  0  0  0  0
   -4.7717    3.5909   -1.0250 H   0  0  0  0  0  0  0  0  0  0  0  0
   -5.0770    0.9687   -0.0342 C   0  0  0  0  0  0  0  0  0  0  0  0
   -5.7491    1.8335   -0.1151 H   0  0  0  0  0  0  0  0  0  0  0  0
   -5.6512   -0.3187   -0.0079 C   0  0  0  0  0  0  0  0  0  0  0  0
   -6.7434   -0.4324   -0.0648 H   0  0  0  0  0  0  0  0  0  0  0  0
   -4.8291   -1.4361    0.0885 C   0  0  0  0  0  0  0  0  0  0  0  0
   -5.2582   -2.4503    0.1094 H   0  0  0  0  0  0  0  0  0  0  0  0
   -3.4226   -1.2840    0.1563 C   0  0  0  0  0  0  0  0  0  0  0  0
   -2.6090   -2.4758    0.2733 C   0  0  0  0  0  3  0  0  0  0  0  0
   -3.1745   -3.4282    0.3685 H   0  0  0  0  0  0  0  0  0  0  0  0
   -0.6124   -3.7939    0.4610 C   0  0  0  0  0  0  0  0  0  0  0  0
   -0.2699   -3.8373    1.5176 H   0  0  0  0  0  0  0  0  0  0  0  0
   -1.2695   -4.6677    0.2591 H   0  0  0  0  0  0  0  0  0  0  0  0
    0.6125   -3.7939   -0.4611 C   0  0  0  0  0  0  0  0  0  0  0  0
    1.2695   -4.6676   -0.2591 H   0  0  0  0  0  0  0  0  0  0  0  0
    0.2700   -3.8373   -1.5176 H   0  0  0  0  0  0  0  0  0  0  0  0
  1 28  1  0  0  0  0
  3  5  1  0  0  0  0
  4 53  1  0  0  0  0
  5  7  1  0  0  0  0
  6  5  1  0  0  0  0
  7 28  2  0  0  0  0
  7  8  1  0  0  0  0
  8 10  2  0  0  0  0
  9  8  1  0  0  0  0
 10 12  1  0  0  0  0
 10 11  1  0  0  0  0
 12 13  1  0  0  0  0
 14 15  1  0  0  0  0
 14 12  2  0  0  0  0
 15 16  1  0  0  0  0
 15 20  1  0  0  0  0
 16 17  1  0  0  0  0
 16 19  1  0  0  0  0
 18 16  1  0  0  0  0
 20 23  1  0  0  0  0
 20 21  1  0  0  0  0
 20 22  1  0  0  0  0
 24 25  1  0  0  0  0
 24 15  1  0  0  0  0
 26 24  1  0  0  0  0
 27 24  1  0  0  0  0
 28 14  1  0  0  0  0
 29 50  1  0  0  0  0
 29  2  1  0  0  0  0
 30 29  2  0  0  0  0
 31 30  1  0  0  0  0
 31 32  1  0  0  0  0
 32 34  1  0  0  0  0
 32 35  1  0  0  0  0
 33 32  1  0  0  0  0
 36 31  1  0  0  0  0
 37 36  1  0  0  0  0
 38 36  1  0  0  0  0
 39 36  1  0  0  0  0
 40 31  1  0  0  0  0
 40 42  1  0  0  0  0
 41 40  1  0  0  0  0
 43 40  1  0  0  0  0
 44 46  2  0  0  0  0
 44 30  1  0  0  0  0
 45 44  1  0  0  0  0
 46 48  1  0  0  0  0
 47 46  1  0  0  0  0
 48 49  1  0  0  0  0
 48 50  2  0  0  0  0
 50 51  1  0  0  0  0
 51  4  1  0  0  0  0
 51 52  1  0  0  0  0
 53 54  1  0  0  0  0
 55 53  1  0  0  0  0
 56  3  1  0  0  0  0
 56 57  1  0  0  0  0
 56 53  1  0  0  0  0
 58 56  1  0  0  0  0
M  CHG  2   1  -1   2  -1
M  END
