5,6,7,13
q = -2.0, confidence = 0.912

 74 79  0  0  0  0  0  0  0  0999 V2000
   -0.4496   -1.0333   -1.6785 O   0  0  0  0  0  0  0  0  0  0  0  0
   -1.4274    3.4906   -2.1646 O   0  0  0  0  0  0  0  0  0  0  0  0
   -0.7129   -2.7394    0.4552 O   0  0  0  0  0  0  0  0  0  0  0  0
    4.3180    2.9890    1.8408 O   0  0  0  0  0  0  0  0  0  0  0  0
   -0.1009    1.7138   -0.7994 O   0  5  0  0  0  0  0  0  0  0  0  0
    2.5577    1.1296    0.7476 O   0  5  0  0  0  0  0  0  0  0  0  0
    2.1971   -0.9997   -1.2215 N   0  0  0  0  0  2  0  0  0  0  0  0
   -3.9318   -0.2893   -0.7211 C   0  0  0  0  0  0  0  0  0  0  0  0
   -1.6535    1.7815    1.0766 C   0  0  0  0  0  0  0  0  0  0  0  0
   -4.0784   -1.1445    0.4335 C   0  0  0  0  0  0  0  0  0  0  0  0
    6.5091    1.2776   -0.5714 C   0  0  0  0  0  0  0  0  0  0  0  0
    7.5635    1.3246   -0.8798 H   0  0  0  0  0  0  0  0  0  0  0  0
   -0.1828   -0.1689    1.4485 N   0  0  0  0  0  2  0  0  0  0  0  0
   -1.1472    2.1900   -0.2198 C   0  0  0  0  0  0  0  0  0  0  0  0
   -1.8129   -1.9886    0.0924 C   0  0  0  0  0  0  0  0  0  0  0  0
    1.6486   -2.1281   -1.8605 C   0  0  0  0  0  0  0  0  0  0  0  0
   -2.9953   -1.9921    0.8113 C   0  0  0  0  0  0  0  0  0  0  0  0
   -3.0740   -2.6207    1.7110 H   0  0  0  0  0  0  0  0  0  0  0  0
    0.2454   -2.1630   -2.0652 C   0  0  0  0  0  0  0  0  0  0  0  0
   -1.6830   -1.1604   -1.0674 C   0  0  0  0  0  0  0  0  0  0  0  0
    4.2681    0.2927   -0.7527 C   0  0  0  0  0  0  0  0  0  0  0  0
   -0.1980   -2.5894    1.7305 C   0  0  0  0  0  0  0  0  0  0  0  0
   -3.0370    3.7954   -0.3514 C   0  0  0  0  0  0  0  0  0  0  0  0
   -3.5951    4.5681   -0.8983 H   0  0  0  0  0  0  0  0  0  0  0  0
    6.0216    2.1663    0.4211 C   0  0  0  0  0  0  0  0  0  0  0  0
    6.6827    2.9110    0.8898 H   0  0  0  0  0  0  0  0  0  0  0  0
    2.3902   -3.2642   -2.2567 C   0  0  0  0  0  0  0  0  0  0  0  0
    3.4693   -3.3029   -2.0506 H   0  0  0  0  0  0  0  0  0  0  0  0
    0.3753   -4.3602   -3.0693 C   0  0  0  0  0  0  0  0  0  0  0  0
   -0.1187   -5.2232   -3.5394 H   0  0  0  0  0  0  0  0  0  0  0  0
   -2.8099    2.4213    1.6328 C   0  0  0  0  0  0  0  0  0  0  0  0
   -3.1681    2.0846    2.6181 H   0  0  0  0  0  0  0  0  0  0  0  0
   -3.4852    3.4061    0.9413 C   0  0  0  0  0  0  0  0  0  0  0  0
   -4.3787    3.8815    1.3702 H   0  0  0  0  0  0  0  0  0  0  0  0
   -4.9950    0.5920   -1.0680 C   0  0  0  0  0  0  0  0  0  0  0  0
   -4.8658    1.2568   -1.9355 H   0  0  0  0  0  0  0  0  0  0  0  0
   -2.7144   -0.3278   -1.4594 C   0  0  0  0  0  0  0  0  0  0  0  0
   -2.5490    0.3493   -2.3095 H   0  0  0  0  0  0  0  0  0  0  0  0
    0.0714   -1.3001    2.2584 C   0  0  0  0  0  0  0  0  0  0  0  0
    3.7627    1.1735    0.2891 C   0  0  0  0  0  0  0  0  0  0  0  0
    0.1110   -3.7412    2.4646 C   0  0  0  0  0  0  0  0  0  0  0  0
   -0.1075   -4.7203    2.0146 H   0  0  0  0  0  0  0  0  0  0  0  0
   -5.2925   -1.0898    1.1775 C   0  0  0  0  0  0  0  0  0  0  0  0
   -5.4049   -1.7438    2.0562 H   0  0  0  0  0  0  0  0  0  0  0  0
   -1.1364    0.6687    1.8078 C   0  0  0  0  0  3  0  0  0  0  0  0
   -1.6650    0.4435    2.7583 H   0  0  0  0  0  0  0  0  0  0  0  0
    5.6422    0.3703   -1.1525 C   0  0  0  0  0  0  0  0  0  0  0  0
    5.9974   -0.3211   -1.9334 H   0  0  0  0  0  0  0  0  0  0  0  0
    0.6819   -3.6229    3.7412 C   0  0  0  0  0  0  0  0  0  0  0  0
    0.9274   -4.5298    4.3134 H   0  0  0  0  0  0  0  0  0  0  0  0
    0.9331   -2.3534    4.2848 C   0  0  0  0  0  0  0  0  0  0  0  0
    1.3830   -2.2573    5.2839 H   0  0  0  0  0  0  0  0  0  0  0  0
   -0.3878   -3.2556   -2.6661 C   0  0  0  0  0  0  0  0  0  0  0  0
   -1.4781   -3.2295   -2.8079 H   0  0  0  0  0  0  0  0  0  0  0  0
   -6.3128   -0.2240    0.8092 C   0  0  0  0  0  0  0  0  0  0  0  0
   -7.2428   -0.1900    1.3968 H   0  0  0  0  0  0  0  0  0  0  0  0
    4.6953    2.1370    0.8426 C   0  0  0  0  0  0  0  0  0  0  0  0
    3.4796   -0.7125   -1.3883 C   0  0  0  0  0  3  0  0  0  0  0  0
    4.0364   -1.3219   -2.1298 H   0  0  0  0  0  0  0  0  0  0  0  0
    0.6301   -1.1998    3.5456 C   0  0  0  0  0  0  0  0  0  0  0  0
    0.8614   -0.1973    3.9347 H   0  0  0  0  0  0  0  0  0  0  0  0
   -1.9140    3.2068   -0.9260 C   0  0  0  0  0  0  0  0  0  0  0  0
   -6.1623    0.6252   -0.3191 C   0  0  0  0  0  0  0  0  0  0  0  0
   -6.9735    1.3159   -0.5941 H   0  0  0  0  0  0  0  0  0  0  0  0
    1.7638   -4.3629   -2.8587 C   0  0  0  0  0  0  0  0  0  0  0  0
    2.3653   -5.2372   -3.1483 H   0  0  0  0  0  0  0  0  0  0  0  0
    3.1692    3.8075    1.6182 C   0  0  0  0  0  0  0  0  0  0  0  0
    3.3051    4.4440    0.7143 H   0  0  0  0  0  0  0  0  0  0  0  0
    3.0833    4.4644    2.5049 H   0  0  0  0  0  0  0  0  0  0  0  0
    2.2468    3.2057    1.5002 H   0  0  0  0  0  0  0  0  0  0  0  0
   -2.1000    4.4670   -2.9278 C   0  0  0  0  0  0  0  0  0  0  0  0
   -3.1580    4.1814   -3.1342 H   0  0  0  0  0  0  0  0  0  0  0  0
   -1.5562    4.5485   -3.8875 H   0  0  0  0  0  0  0  0  0  0  0  0
   -2.1000    5.4622   -2.4263 H   0  0  0  0  0  0  0  0  0  0  0  0
  1 20  1  0  0  0  0
  2 62  1  0  0  0  0
  3 22  1  0  0  0  0
  5 14  1  0  0  0  0
  8 10  1  0  0  0  0
  9 31  1  0  0  0  0
  9 45  1  0  0  0  0
 10 17  2  0  0  0  0
 10 43  1  0  0  0  0
 11 25  1  0  0  0  0
 12 11  1  0  0  0  0
 13 45  1  0  0  0  0
 13 39  1  0  0  0  0
 14  9  2  0  0  0  0
 15  3  1  0  0  0  0
 15 17  1  0  0  0  0
 16  7  1  0  0  0  0
 17 18  1  0  0  0  0
 19 16  1  0  0  0  0
 19  1  1  0  0  0  0
 20 15  2  0  0  0  0
 21 40  2  0  0  0  0
 22 39  2  0  0  0  0
 22 41  1  0  0  0  0
 23 33  1  0  0  0  0
 24 23  1  0  0  0  0
 25 57  2  0  0  0  0
 25 26  1  0  0  0  0
 27 28  1  0  0  0  0
 27 16  2  0  0  0  0
 29 65  2  0  0  0  0
 29 53  1  0  0  0  0
 30 29  1  0  0  0  0
 31 32  1  0  0  0  0
 33 34  1  0  0  0  0
 33 31  2  0  0  0  0
 35  8  1  0  0  0  0
 35 63  2  0  0  0  0
 36 35  1  0  0  0  0
 37 20  1  0  0  0  0
 37  8  2  0  0  0  0
 38 37  1  0  0  0  0
 39 60  1  0  0  0  0
 40  6  1  0  0  0  0
 40 57  1  0  0  0  0
 41 49  2  0  0  0  0
 42 41  1  0  0  0  0
 43 44  1  0  0  0  0
 45 46  1  0  0  0  0
 47 21  1  0  0  0  0
 47 11  2  0  0  0  0
 48 47  1  0  0  0  0
 49 51  1  0  0  0  0
 49 50  1  0  0  0  0
 51 52  1  0  0  0  0
 53 19  2  0  0  0  0
 54 53  1  0  0  0  0
 55 43  2  0  0  0  0
 55 56  1  0  0  0  0
 57  4  1  0  0  0  0
 58  7  1  0  0  0  0
 58 21  1  0  0  0  0
 59 58  1  0  0  0  0
 60 61  1  0  0  0  0
 60 51  2  0  0  0  0
 62 23  2  0  0  0  0
 62 14  1  0  0  0  0
 63 55  1  0  0  0  0
 64 63  1  0  0  0  0
 65 27  1  0  0  0  0
 66 65  1  0  0  0  0
 67  4  1  0  0  0  0
 67 69  1  0  0  0  0
 68 67  1  0  0  0  0
 70 67  1  0  0  0  0
 71 74  1  0  0  0  0
 71  2  1  0  0  0  0
 72 71  1  0  0  0  0
 73 71  1  0  0  0  0
M  CHG  2   5  -1   6  -1
M  END
