1,2,21,22
q = -2.0, confidence = 0.86

 37 38  0  0  1  0  0  0  0  0999 V2000
   -1.2039   -1.0243   -0.7050 O   0  0  0  0  0  1  0  0  0  0  0  0
   -1.4314    1.6078   -0.0906 N   0  0  0  0  0  2  0  0  0  0  0  0
   -2.6462    1.2318    0.2639 C   0  0  0  0  0  0  0  0  0  0  0  0
   -3.1730   -0.0896    0.3104 C   0  0  0  0  0  0  0  0  0  0  0  0
   -2.4046   -1.1739   -0.2482 C   0  0  1  0  0  3  0  0  0  0  0  0
   -3.0299   -2.4608   -0.3151 C   0  0  0  0  0  0  0  0  0  0  0  0
   -4.3132   -2.6552    0.1788 C   0  0  0  0  0  0  0  0  0  0  0  0
   -5.0590   -1.5880    0.7467 C   0  0  0  0  0  0  0  0  0  0  0  0
   -4.4909   -0.3228    0.7973 C   0  0  0  0  0  0  0  0  0  0  0  0
   -1.2573    3.0515   -0.2569 C   0  0  0  0  0  0  0  0  0  0  0  0
   -0.0004    3.5845    0.4089 C   0  0  0  0  0  0  0  0  0  0  0  0
   -3.3585    2.0430    0.5181 H   0  0  0  0  0  0  0  0  0  0  0  0
   -2.4455   -3.2812   -0.7556 H   0  0  0  0  0  0  0  0  0  0  0  0
   -4.7608   -3.6605    0.1286 H   0  0  0  0  0  0  0  0  0  0  0  0
   -6.0741   -1.7628    1.1307 H   0  0  0  0  0  0  0  0  0  0  0  0
   -5.0565    0.5269    1.2135 H   0  0  0  0  0  0  0  0  0  0  0  0
   -2.1535    3.5777    0.1377 H   0  0  0  0  0  0  0  0  0  0  0  0
   -1.2123    3.2771   -1.3472 H   0  0  0  0  0  0  0  0  0  0  0  0
   -0.0005    4.6915    0.3296 H   0  0  0  0  0  0  0  0  0  0  0  0
   -0.0009    3.3297    1.4898 H   0  0  0  0  0  0  0  0  0  0  0  0
    1.2050   -1.0230   -0.7081 O   0  0  0  0  0  1  0  0  0  0  0  0
    1.4312    1.6081   -0.0899 N   0  0  0  0  0  2  0  0  0  0  0  0
    1.2573    3.0518   -0.2557 C   0  0  0  0  0  0  0  0  0  0  0  0
    2.4051   -1.1731   -0.2499 C   0  0  2  0  0  3  0  0  0  0  0  0
    2.6457    1.2319    0.2654 C   0  0  0  0  0  0  0  0  0  0  0  0
    2.1530    3.5779    0.1399 H   0  0  0  0  0  0  0  0  0  0  0  0
    1.2134    3.2778   -1.3460 H   0  0  0  0  0  0  0  0  0  0  0  0
    3.1726   -0.0896    0.3112 C   0  0  0  0  0  0  0  0  0  0  0  0
    3.0307   -2.4599   -0.3180 C   0  0  0  0  0  0  0  0  0  0  0  0
    3.3578    2.0430    0.5210 H   0  0  0  0  0  0  0  0  0  0  0  0
    4.4900   -0.3232    0.7995 C   0  0  0  0  0  0  0  0  0  0  0  0
    4.3134   -2.6547    0.1773 C   0  0  0  0  0  0  0  0  0  0  0  0
    2.4471   -3.2796   -0.7605 H   0  0  0  0  0  0  0  0  0  0  0  0
    5.0583   -1.5882    0.7477 C   0  0  0  0  0  0  0  0  0  0  0  0
    5.0549    0.5260    1.2176 H   0  0  0  0  0  0  0  0  0  0  0  0
    4.7613   -3.6599    0.1261 H   0  0  0  0  0  0  0  0  0  0  0  0
    6.0729   -1.7635    1.1329 H   0  0  0  0  0  0  0  0  0  0  0  0
  2  3  1  0  0  0  0
  3  4  2  0  0  0  0
  3 12  1  0  0  0  0
  4  9  1  0  0  0  0
  5  1  1  6  0  0  0
  5  4  1  0  0  0  0
  6  5  1  0  0  0  0
  6  7  2  0  0  0  0
  7  8  1  0  0  0  0
  8  9  2  0  0  0  0
  8 15  1  0  0  0  0
  9 16  1  0  0  0  0
 10  2  1  0  0  0  0
 10 17  1  0  0  0  0
 10 11  1  0  0  0  0
 11 20  1  0  0  0  0
 13  6  1  0  0  0  0
 14  7  1  0  0  0  0
 18 10  1  0  0  0  0
 19 11  1  0  0  0  0
 22 25  1  0  0  0  0
 23 22  1  0  0  0  0
 23 26  1  0  0  0  0
 23 11  1  0  0  0  0
 24 21  1  6  0  0  0
 24 28  1  0  0  0  0
 25 28  2  0  0  0  0
 25 30  1  0  0  0  0
 27 23  1  0  0  0  0
 28 31  1  0  0  0  0
 29 24  1  0  0  0  0
 29 32  2  0  0  0  0
 31 35  1  0  0  0  0
 32 34  1  0  0  0  0
 33 29  1  0  0  0  0
 34 31  2  0  0  0  0
 34 37  1  0  0  0  0
 36 32  1  0  0  0  0
M  END
