1,2,5,6
q = -2.0, confidence = 0.782

 38 40  0  0  0  0  0  0  0  0999 V2000
   -0.8712   -1.1353   -1.8209 O   0  5  0  0  0  0  0  0  0  0  0  0
    1.6989    0.7382    0.6987 O   0  5  0  0  0  0  0  0  0  0  0  0
   -1.0123   -3.1257    2.0154 O   0  0  0  0  0  0  0  0  0  0  0  0
    4.0254   -0.8397   -2.4641 O   0  0  0  0  0  0  0  0  0  0  0  0
    0.3713   -2.0582    0.4847 N   0  0  0  0  0  2  0  0  0  0  0  0
    2.3151   -1.2116   -0.9253 N   0  0  0  0  0  2  0  0  0  0  0  0
   -1.8245   -1.9673   -1.4195 C   0  0  0  0  0  0  0  0  0  0  0  0
   -2.8537   -2.2195   -2.3721 C   0  0  0  0  0  0  0  0  0  0  0  0
   -3.9413   -3.0281   -2.0651 C   0  0  0  0  0  0  0  0  0  0  0  0
   -4.0492   -3.6209   -0.7871 C   0  0  0  0  0  0  0  0  0  0  0  0
   -3.0449   -3.4031    0.1520 C   0  0  0  0  0  0  0  0  0  0  0  0
   -1.9198   -2.5887   -0.1283 C   0  0  0  0  0  0  0  0  0  0  0  0
   -0.8605   -2.5893    0.9154 C   0  0  0  0  0  0  0  0  0  0  0  0
    1.5559   -2.6890    0.7597 C   0  0  0  0  0  0  0  0  0  0  0  0
    1.7874   -3.7506    1.6797 C   0  0  0  0  0  0  0  0  0  0  0  0
    3.0661   -4.2852    1.7902 C   0  0  0  0  0  0  0  0  0  0  0  0
    4.1478   -3.7937    1.0089 C   0  0  0  0  0  0  0  0  0  0  0  0
    3.9542   -2.7615    0.1013 C   0  0  0  0  0  0  0  0  0  0  0  0
    2.6522   -2.2096   -0.0483 C   0  0  0  0  0  0  0  0  0  0  0  0
    3.3897   -0.4277   -1.5086 C   0  0  0  0  0  0  0  0  0  0  0  0
    3.6788    0.8040   -0.7395 C   0  0  0  0  0  0  0  0  0  0  0  0
    4.8894    1.4750   -1.0393 C   0  0  0  0  0  0  0  0  0  0  0  0
    5.3488    2.5294   -0.2537 C   0  0  0  0  0  0  0  0  0  0  0  0
    4.5996    2.9200    0.8785 C   0  0  0  0  0  0  0  0  0  0  0  0
    3.4000    2.2848    1.1957 C   0  0  0  0  0  0  0  0  0  0  0  0
    2.8895    1.2346    0.3818 C   0  0  0  0  0  0  0  0  0  0  0  0
   -2.7554   -1.7297   -3.3510 H   0  0  0  0  0  0  0  0  0  0  0  0
   -4.7242   -3.1959   -2.8208 H   0  0  0  0  0  0  0  0  0  0  0  0
   -4.9128   -4.2555   -0.5388 H   0  0  0  0  0  0  0  0  0  0  0  0
   -3.0757   -3.8668    1.1489 H   0  0  0  0  0  0  0  0  0  0  0  0
    0.9534   -4.0999    2.2993 H   0  0  0  0  0  0  0  0  0  0  0  0
    3.2477   -5.0972    2.5106 H   0  0  0  0  0  0  0  0  0  0  0  0
    5.1486   -4.2355    1.1248 H   0  0  0  0  0  0  0  0  0  0  0  0
    4.7769   -2.3886   -0.5235 H   0  0  0  0  0  0  0  0  0  0  0  0
    5.4595    1.1122   -1.9078 H   0  0  0  0  0  0  0  0  0  0  0  0
    6.2878    3.0435   -0.5049 H   0  0  0  0  0  0  0  0  0  0  0  0
    4.9589    3.7422    1.5172 H   0  0  0  0  0  0  0  0  0  0  0  0
    2.7978    2.5907    2.0637 H   0  0  0  0  0  0  0  0  0  0  0  0
  1  7  1  0  0  0  0
  4 20  2  0  0  0  0
  5 14  1  0  0  0  0
  5 13  1  0  0  0  0
  6 19  1  0  0  0  0
  7 12  1  0  0  0  0
  8  9  1  0  0  0  0
  8  7  2  0  0  0  0
  9 10  2  0  0  0  0
 10 29  1  0  0  0  0
 10 11  1  0  0  0  0
 11 30  1  0  0  0  0
 12 11  2  0  0  0  0
 12 13  1  0  0  0  0
 13  3  2  0  0  0  0
 14 15  1  0  0  0  0
 15 16  2  0  0  0  0
 15 31  1  0  0  0  0
 16 32  1  0  0  0  0
 17 33  1  0  0  0  0
 17 16  1  0  0  0  0
 18 17  2  0  0  0  0
 19 18  1  0  0  0  0
 19 14  2  0  0  0  0
 20  6  1  0  0  0  0
 20 21  1  0  0  0  0
 21 26  1  0  0  0  0
 22 21  2  0  0  0  0
 22 23  1  0  0  0  0
 23 24  2  0  0  0  0
 24 25  1  0  0  0  0
 24 37  1  0  0  0  0
 25 38  1  0  0  0  0
 26  2  1  0  0  0  0
 26 25  2  0  0  0  0
 27  8  1  0  0  0  0
 28  9  1  0  0  0  0
 34 18  1  0  0  0  0
 35 22  1  0  0  0  0
 36 23  1  0  0  0  0
M  CHG  2   1  -1   2  -1
M  END
