2,4,5,6
q = -2.0, confidence = 0.836

 49 49  0  0  1  0  0  0  0  0999 V2000
   -3.1760    3.2316    0.0490 S   0  0  0  0  0  0  0  0  0  0  0  0
   -2.8034   -0.6428   -0.0539 N   0  0  0  0  0  2  0  0  0  0  0  0
   -3.4586    0.5559   -0.0182 N   0  0  0  0  0  0  0  0  0  0  0  0
   -1.2496    1.2707   -0.0148 N   0  0  0  0  0  2  0  0  0  0  0  0
   -0.6881   -2.3906   -0.1000 O   0  5  0  0  0  0  0  0  0  0  0  0
    0.8805   -0.4276   -0.1140 O   0  0  0  0  0  1  0  0  0  0  0  0
    4.9514   -0.8491   -0.5155 O   0  0  0  0  0  0  0  0  0  0  0  0
    3.4157   -1.5514    1.0868 O   0  0  0  0  0  0  0  0  0  0  0  0
   -2.6169    1.5551    0.0020 C   0  0  0  0  0  0  0  0  0  0  0  0
   -3.5646   -1.7532   -0.0711 C   0  0  2  0  0  3  0  0  0  0  0  0
   -5.0614   -1.5983   -0.0585 C   0  0  0  0  0  0  0  0  0  0  0  0
   -5.3962   -0.9969   -0.9272 H   0  0  0  0  0  0  0  0  0  0  0  0
   -5.3854   -1.0378    0.8412 H   0  0  0  0  0  0  0  0  0  0  0  0
   -5.5586   -2.5845   -0.0781 H   0  0  0  0  0  0  0  0  0  0  0  0
   -2.9868   -3.0398   -0.0979 C   0  0  0  0  0  0  0  0  0  0  0  0
   -3.6704   -3.8982   -0.1092 H   0  0  0  0  0  0  0  0  0  0  0  0
   -1.6028   -3.2965   -0.1045 C   0  0  0  0  0  0  0  0  0  0  0  0
   -1.0844   -4.7146   -0.1114 C   0  0  0  0  0  0  0  0  0  0  0  0
   -0.3999   -4.8563   -0.9724 H   0  0  0  0  0  0  0  0  0  0  0  0
   -1.8975   -5.4613   -0.1628 H   0  0  0  0  0  0  0  0  0  0  0  0
   -0.4847   -4.8948    0.8049 H   0  0  0  0  0  0  0  0  0  0  0  0
   -4.9702    2.9538    0.0723 C   0  0  0  0  0  0  0  0  0  0  0  0
   -5.4272    3.9608    0.1024 H   0  0  0  0  0  0  0  0  0  0  0  0
   -5.2598    2.3718    0.9668 H   0  0  0  0  0  0  0  0  0  0  0  0
   -5.2890    2.4124   -0.8375 H   0  0  0  0  0  0  0  0  0  0  0  0
   -0.3117    2.2183    0.0219 C   0  0  0  0  0  0  0  0  0  0  0  0
   -0.6516    3.2705    0.0734 H   0  0  0  0  0  0  0  0  0  0  0  0
    1.0812    1.9864    0.0006 C   0  0  0  0  0  0  0  0  0  0  0  0
    1.6131    0.6402   -0.0724 C   0  0  2  0  0  3  0  0  0  0  0  0
    3.0431    0.4892   -0.1144 C   0  0  0  0  0  0  0  0  0  0  0  0
    3.8638    1.6037   -0.0700 C   0  0  0  0  0  0  0  0  0  0  0  0
    4.9504    1.4347   -0.1130 H   0  0  0  0  0  0  0  0  0  0  0  0
    3.3542    2.9369    0.0196 C   0  0  0  0  0  0  0  0  0  0  0  0
    1.9795    3.1014    0.0512 C   0  0  0  0  0  0  0  0  0  0  0  0
    1.5474    4.1136    0.1147 H   0  0  0  0  0  0  0  0  0  0  0  0
    3.5917   -0.9226   -0.1737 C   0  0  0  0  0  0  0  0  0  0  0  0
    3.0275   -1.5093   -0.9446 H   0  0  0  0  0  0  0  0  0  0  0  0
    4.3080    4.1021    0.0737 C   0  0  0  0  0  0  0  0  0  0  0  0
    4.9652    4.1279   -0.8211 H   0  0  0  0  0  0  0  0  0  0  0  0
    4.9778    4.0342    0.9569 H   0  0  0  0  0  0  0  0  0  0  0  0
    3.7711    5.0690    0.1289 H   0  0  0  0  0  0  0  0  0  0  0  0
    5.5761   -2.1081   -0.6410 C   0  0  0  0  0  0  0  0  0  0  0  0
    6.6186   -1.9289   -0.9673 H   0  0  0  0  0  0  0  0  0  0  0  0
    5.0670   -2.7474   -1.4036 H   0  0  0  0  0  0  0  0  0  0  0  0
    5.5908   -2.6609    0.3245 H   0  0  0  0  0  0  0  0  0  0  0  0
    2.6806   -2.7663    1.0703 C   0  0  0  0  0  0  0  0  0  0  0  0
    2.6349   -3.1219    2.1187 H   0  0  0  0  0  0  0  0  0  0  0  0
    3.1822   -3.5555    0.4599 H   0  0  0  0  0  0  0  0  0  0  0  0
    1.6468   -2.6180    0.6909 H   0  0  0  0  0  0  0  0  0  0  0  0
  1 22  1  0  0  0  0
  2  3  1  0  0  0  0
  3  9  2  0  0  0  0
  4  9  1  0  0  0  0
  4 26  1  0  0  0  0
  7 36  1  0  0  0  0
  9  1  1  0  0  0  0
 10 15  1  1  0  0  0
 10 11  1  0  0  0  0
 10  2  1  0  0  0  0
 11 13  1  0  0  0  0
 12 11  1  0  0  0  0
 14 11  1  0  0  0  0
 16 15  1  0  0  0  0
 17  5  1  0  0  0  0
 17 15  2  0  0  0  0
 18 17  1  0  0  0  0
 18 21  1  0  0  0  0
 19 18  1  0  0  0  0
 20 18  1  0  0  0  0
 22 23  1  0  0  0  0
 22 24  1  0  0  0  0
 25 22  1  0  0  0  0
 26 27  1  0  0  0  0
 28 26  2  0  0  0  0
 28 34  1  0  0  0  0
 29  6  1  6  0  0  0
 29 28  1  0  0  0  0
 30 29  1  0  0  0  0
 30 31  2  0  0  0  0
 31 33  1  0  0  0  0
 32 31  1  0  0  0  0
 33 34  2  0  0  0  0
 33 38  1  0  0  0  0
 34 35  1  0  0  0  0
 36 30  1  0  0  0  0
 36  8  1  0  0  0  0
 37 36  1  0  0  0  0
 38 41  1  0  0  0  0
 38 40  1  0  0  0  0
 39 38  1  0  0  0  0
 42  7  1  0  0  0  0
 42 45  1  0  0  0  0
 43 42  1  0  0  0  0
 44 42  1  0  0  0  0
 46  8  1  0  0  0  0
 46 47  1  0  0  0  0
 48 46  1  0  0  0  0
 49 46  1  0  0  0  0
M  CHG  1   5  -1
M  END
