1,2,4,5
q = -2.0, confidence = 0.8

 52 53  0  0  1  0  0  0  0  0999 V2000
   -1.2376   -0.6310    0.2642 N   0  0  0  0  0  2  0  0  0  0  0  0
    1.2377   -0.6310   -0.2642 N   0  0  0  0  0  2  0  0  0  0  0  0
   -5.3781    1.6816    0.9501 O   0  0  0  0  0  0  0  0  0  0  0  0
   -1.2496    2.0590    0.2234 O   0  0  0  0  0  1  0  0  0  0  0  0
    1.2496    2.0590   -0.2234 O   0  5  0  0  0  0  0  0  0  0  0  0
    5.3783    1.6817   -0.9498 O   0  0  0  0  0  0  0  0  0  0  0  0
   -6.6571   -0.8397    0.7200 C   0  0  0  0  0  0  0  0  0  0  0  0
   -6.9467   -0.2294    1.5884 H   0  0  0  0  0  0  0  0  0  0  0  0
   -7.4351   -1.9257    0.3014 C   0  0  0  0  0  0  0  0  0  0  0  0
   -8.3430   -2.1992    0.8605 H   0  0  0  0  0  0  0  0  0  0  0  0
   -7.0639   -2.6601   -0.8386 C   0  0  0  0  0  0  0  0  0  0  0  0
   -7.6805   -3.5081   -1.1739 H   0  0  0  0  0  0  0  0  0  0  0  0
   -5.9128   -2.3006   -1.5569 C   0  0  0  0  0  0  0  0  0  0  0  0
   -5.6338   -2.8558   -2.4656 H   0  0  0  0  0  0  0  0  0  0  0  0
   -5.1207   -1.2262   -1.1238 C   0  0  0  0  0  0  0  0  0  0  0  0
   -4.2304   -0.9340   -1.7017 H   0  0  0  0  0  0  0  0  0  0  0  0
   -5.4792   -0.4911    0.0265 C   0  0  0  0  0  0  0  0  0  0  0  0
   -4.7254    0.7375    0.4885 C   0  0  0  0  0  0  0  0  0  0  0  0
   -3.2500    0.7585    0.3601 C   0  0  0  0  0  0  0  0  0  0  0  0
   -2.5224    1.9958    0.3361 C   0  0  2  0  0  3  0  0  0  0  0  0
   -3.2069    3.3331    0.4347 C   0  0  0  0  0  0  0  0  0  0  0  0
   -2.4613    4.1255    0.2425 H   0  0  0  0  0  0  0  0  0  0  0  0
   -3.6572    3.4554    1.4390 H   0  0  0  0  0  0  0  0  0  0  0  0
   -4.0569    3.4053   -0.2708 H   0  0  0  0  0  0  0  0  0  0  0  0
   -2.5408   -0.4754    0.3701 C   0  0  0  0  0  0  0  0  0  0  0  0
   -3.1357   -1.3963    0.5208 H   0  0  0  0  0  0  0  0  0  0  0  0
   -0.6236   -1.9491    0.4364 C   0  0  0  0  0  0  0  0  0  0  0  0
   -1.3280   -2.7642    0.1645 H   0  0  0  0  0  0  0  0  0  0  0  0
   -0.3353   -2.0850    1.5030 H   0  0  0  0  0  0  0  0  0  0  0  0
    0.6238   -1.9491   -0.4364 C   0  0  0  0  0  0  0  0  0  0  0  0
    1.3282   -2.7642   -0.1646 H   0  0  0  0  0  0  0  0  0  0  0  0
    0.3354   -2.0850   -1.5031 H   0  0  0  0  0  0  0  0  0  0  0  0
    2.5410   -0.4753   -0.3701 C   0  0  0  0  0  3  0  0  0  0  0  0
    3.1358   -1.3962   -0.5207 H   0  0  0  0  0  0  0  0  0  0  0  0
    3.2501    0.7586   -0.3600 C   0  0  0  0  0  0  0  0  0  0  0  0
    2.5225    1.9958   -0.3361 C   0  0  0  0  0  0  0  0  0  0  0  0
    3.2069    3.3332   -0.4346 C   0  0  0  0  0  0  0  0  0  0  0  0
    2.4612    4.1256   -0.2425 H   0  0  0  0  0  0  0  0  0  0  0  0
    3.6572    3.4556   -1.4390 H   0  0  0  0  0  0  0  0  0  0  0  0
    4.0568    3.4055    0.2709 H   0  0  0  0  0  0  0  0  0  0  0  0
    4.7255    0.7376   -0.4884 C   0  0  0  0  0  0  0  0  0  0  0  0
    5.4792   -0.4911   -0.0265 C   0  0  0  0  0  0  0  0  0  0  0  0
    5.1203   -1.2265    1.1235 C   0  0  0  0  0  0  0  0  0  0  0  0
    4.2300   -0.9344    1.7013 H   0  0  0  0  0  0  0  0  0  0  0  0
    5.9123   -2.3010    1.5566 C   0  0  0  0  0  0  0  0  0  0  0  0
    5.6331   -2.8564    2.4651 H   0  0  0  0  0  0  0  0  0  0  0  0
    7.0636   -2.6604    0.8385 C   0  0  0  0  0  0  0  0  0  0  0  0
    7.6801   -3.5084    1.1737 H   0  0  0  0  0  0  0  0  0  0  0  0
    7.4351   -1.9257   -0.3013 C   0  0  0  0  0  0  0  0  0  0  0  0
    8.3431   -2.1991   -0.8602 H   0  0  0  0  0  0  0  0  0  0  0  0
    6.6572   -0.8396   -0.7198 C   0  0  0  0  0  0  0  0  0  0  0  0
    6.9470   -0.2292   -1.5880 H   0  0  0  0  0  0  0  0  0  0  0  0
  1 25  1  0  0  0  0
  1 27  1  0  0  0  0
  6 41  2  0  0  0  0
  7  8  1  0  0  0  0
  9  7  1  0  0  0  0
  9 10  1  0  0  0  0
 11  9  2  0  0  0  0
 12 11  1  0  0  0  0
 13 15  2  0  0  0  0
 13 11  1  0  0  0  0
 14 13  1  0  0  0  0
 15 17  1  0  0  0  0
 16 15  1  0  0  0  0
 17 18  1  0  0  0  0
 17  7  2  0  0  0  0
 18  3  2  0  0  0  0
 19 25  2  0  0  0  0
 19 18  1  0  0  0  0
 20  4  1  6  0  0  0
 20 19  1  0  0  0  0
 20 21  1  0  0  0  0
 21 23  1  0  0  0  0
 22 21  1  0  0  0  0
 24 21  1  0  0  0  0
 25 26  1  0  0  0  0
 27 29  1  0  0  0  0
 28 27  1  0  0  0  0
 30  2  1  0  0  0  0
 30 31  1  0  0  0  0
 30 27  1  0  0  0  0
 32 30  1  0  0  0  0
 33 35  1  0  0  0  0
 33  2  1  0  0  0  0
 34 33  1  0  0  0  0
 35 36  2  0  0  0  0
 36  5  1  0  0  0  0
 37 36  1  0  0  0  0
 37 38  1  0  0  0  0
 37 40  1  0  0  0  0
 39 37  1  0  0  0  0
 41 35  1  0  0  0  0
 41 42  1  0  0  0  0
 42 43  1  0  0  0  0
 43 45  2  0  0  0  0
 43 44  1  0  0  0  0
 45 46  1  0  0  0  0
 47 48  1  0  0  0  0
 47 45  1  0  0  0  0
 49 47  2  0  0  0  0
 50 49  1  0  0  0  0
 51 49  1  0  0  0  0
 51 42  2  0  0  0  0
 52 51  1  0  0  0  0
M  CHG  1   5  -1
M  END
