1,2,5,6
q = -2.0, confidence = 0.826

 42 43  0  0  1  0  0  0  0  0999 V2000
    1.2508    0.4553    0.0660 O   0  0  0  0  0  1  0  0  0  0  0  0
   -1.2508    0.4553   -0.0658 O   0  5  0  0  0  0  0  0  0  0  0  0
    5.4877    2.6471   -0.1026 O   0  0  0  0  0  0  0  0  0  0  0  0
   -5.4877    2.6471    0.1026 O   0  0  0  0  0  0  0  0  0  0  0  0
    1.2581   -2.2626    0.1664 N   0  0  0  0  0  2  0  0  0  0  0  0
   -1.2581   -2.2625   -0.1664 N   0  0  0  0  0  2  0  0  0  0  0  0
    2.5441    0.3626    0.0433 C   0  0  1  0  0  3  0  0  0  0  0  0
    3.3063    1.5702   -0.0184 C   0  0  0  0  0  0  0  0  0  0  0  0
    2.7324    2.5043   -0.0482 H   0  0  0  0  0  0  0  0  0  0  0  0
    4.7019    1.5409   -0.0415 C   0  0  0  0  0  0  0  0  0  0  0  0
    5.4103    0.3017    0.0004 C   0  0  0  0  0  0  0  0  0  0  0  0
    6.5081    0.3227   -0.0172 H   0  0  0  0  0  0  0  0  0  0  0  0
    4.6931   -0.8769    0.0647 C   0  0  0  0  0  0  0  0  0  0  0  0
    5.2276   -1.8399    0.1016 H   0  0  0  0  0  0  0  0  0  0  0  0
    3.2670   -0.8919    0.0865 C   0  0  0  0  0  0  0  0  0  0  0  0
    2.5673   -2.1255    0.1777 C   0  0  0  0  0  0  0  0  0  0  0  0
    3.1746   -3.0480    0.2771 H   0  0  0  0  0  0  0  0  0  0  0  0
    0.6551   -3.5769    0.3862 C   0  0  0  0  0  0  0  0  0  0  0  0
    0.4487   -3.7086    1.4724 H   0  0  0  0  0  0  0  0  0  0  0  0
    1.3319   -4.3974    0.0638 H   0  0  0  0  0  0  0  0  0  0  0  0
   -0.6551   -3.5769   -0.3863 C   0  0  0  0  0  0  0  0  0  0  0  0
   -0.4487   -3.7086   -1.4724 H   0  0  0  0  0  0  0  0  0  0  0  0
   -1.3319   -4.3974   -0.0638 H   0  0  0  0  0  0  0  0  0  0  0  0
   -2.5673   -2.1255   -0.1778 C   0  0  0  0  0  0  0  0  0  0  0  0
   -3.1745   -3.0480   -0.2771 H   0  0  0  0  0  0  0  0  0  0  0  0
   -3.2670   -0.8919   -0.0865 C   0  0  0  0  0  0  0  0  0  0  0  0
   -4.6931   -0.8770   -0.0648 C   0  0  0  0  0  3  0  0  0  0  0  0
   -5.2276   -1.8399   -0.1017 H   0  0  0  0  0  0  0  0  0  0  0  0
   -5.4103    0.3017   -0.0005 C   0  0  0  0  0  0  0  0  0  0  0  0
   -6.5081    0.3227    0.0170 H   0  0  0  0  0  0  0  0  0  0  0  0
   -4.7019    1.5408    0.0414 C   0  0  0  0  0  0  0  0  0  0  0  0
   -3.3064    1.5702    0.0185 C   0  0  0  0  0  0  0  0  0  0  0  0
   -2.7324    2.5043    0.0483 H   0  0  0  0  0  0  0  0  0  0  0  0
   -2.5441    0.3626   -0.0432 C   0  0  0  0  0  0  0  0  0  0  0  0
    4.8604    3.9161   -0.1446 C   0  0  0  0  0  0  0  0  0  0  0  0
    5.6723    4.6653   -0.1907 H   0  0  0  0  0  0  0  0  0  0  0  0
    4.2435    4.1007    0.7629 H   0  0  0  0  0  0  0  0  0  0  0  0
    4.2110    4.0250   -1.0416 H   0  0  0  0  0  0  0  0  0  0  0  0
   -4.8604    3.9161    0.1446 C   0  0  0  0  0  0  0  0  0  0  0  0
   -5.6723    4.6653    0.1905 H   0  0  0  0  0  0  0  0  0  0  0  0
   -4.2435    4.1007   -0.7629 H   0  0  0  0  0  0  0  0  0  0  0  0
   -4.2111    4.0250    1.0416 H   0  0  0  0  0  0  0  0  0  0  0  0
  2 34  1  0  0  0  0
  3 10  1  0  0  0  0
  4 39  1  0  0  0  0
  5 16  1  0  0  0  0
  5 18  1  0  0  0  0
  7  1  1  1  0  0  0
  7 15  1  0  0  0  0
  8  7  1  0  0  0  0
  9  8  1  0  0  0  0
 10  8  2  0  0  0  0
 10 11  1  0  0  0  0
 11 13  2  0  0  0  0
 12 11  1  0  0  0  0
 13 15  1  0  0  0  0
 13 14  1  0  0  0  0
 15 16  2  0  0  0  0
 16 17  1  0  0  0  0
 18 19  1  0  0  0  0
 20 18  1  0  0  0  0
 21  6  1  0  0  0  0
 21 23  1  0  0  0  0
 21 18  1  0  0  0  0
 22 21  1  0  0  0  0
 24  6  1  0  0  0  0
 24 26  2  0  0  0  0
 25 24  1  0  0  0  0
 26 27  1  0  0  0  0
 26 34  1  0  0  0  0
 27 29  1  0  0  0  0
 28 27  1  0  0  0  0
 29 30  1  0  0  0  0
 29 31  2  0  0  0  0
 31  4  1  0  0  0  0
 32 31  1  0  0  0  0
 32 33  1  0  0  0  0
 34 32  2  0  0  0  0
 35  3  1  0  0  0  0
 35 37  1  0  0  0  0
 36 35  1  0  0  0  0
 38 35  1  0  0  0  0
 39 40  1  0  0  0  0
 39 42  1  0  0  0  0
 41 39  1  0  0  0  0
M  CHG  1   2  -1
M  END
