1,2,3,4
q = -2.0, confidence = 0.84

 74 75  0  0  0  0  0  0  0  0999 V2000
   -1.8536    0.4977    0.0398 O   0  5  0  0  0  0  0  0  0  0  0  0
    1.7547   -0.0105   -0.6785 O   0  5  0  0  0  0  0  0  0  0  0  0
   -0.2221   -1.3560    1.1370 N   0  0  0  0  0  0  0  0  0  0  0  0
    0.4877    1.4531    1.4503 N   0  0  0  0  0  0  0  0  0  0  0  0
   -2.9107   -0.3216    0.1620 C   0  0  0  0  0  0  0  0  0  0  0  0
   -4.2271    0.1480   -0.1563 C   0  0  0  0  0  0  0  0  0  0  0  0
   -5.2999   -0.7255    0.0835 C   0  0  0  0  0  0  0  0  0  0  0  0
   -6.3196   -0.3906   -0.1522 H   0  0  0  0  0  0  0  0  0  0  0  0
   -5.1448   -2.0223    0.6149 C   0  0  0  0  0  0  0  0  0  0  0  0
   -3.8427   -2.4600    0.8856 C   0  0  0  0  0  0  0  0  0  0  0  0
   -3.6827   -3.4767    1.2826 H   0  0  0  0  0  0  0  0  0  0  0  0
   -2.7242   -1.6413    0.6483 C   0  0  0  0  0  0  0  0  0  0  0  0
   -1.3568   -2.2609    0.8274 C   0  0  0  0  0  0  0  0  0  0  0  0
   -1.4199   -3.0371    1.6277 H   0  0  0  0  0  0  0  0  0  0  0  0
   -1.0762   -2.7862   -0.1092 H   0  0  0  0  0  0  0  0  0  0  0  0
   -0.4489   -0.6234    2.4018 C   0  0  0  0  0  0  0  0  0  0  0  0
   -0.3849   -1.3250    3.2673 H   0  0  0  0  0  0  0  0  0  0  0  0
   -1.4817   -0.2262    2.3806 H   0  0  0  0  0  0  0  0  0  0  0  0
    0.5585    0.5059    2.5739 C   0  0  0  0  0  0  0  0  0  0  0  0
    0.3857    1.0172    3.5508 H   0  0  0  0  0  0  0  0  0  0  0  0
    1.5886    0.0986    2.6121 H   0  0  0  0  0  0  0  0  0  0  0  0
    1.7787    2.1305    1.1977 C   0  0  0  0  0  0  0  0  0  0  0  0
    2.0145    2.8219    2.0434 H   0  0  0  0  0  0  0  0  0  0  0  0
    1.6149    2.7614    0.2980 H   0  0  0  0  0  0  0  0  0  0  0  0
    2.9589    1.2219    0.9696 C   0  0  0  0  0  0  0  0  0  0  0  0
    4.1453    1.4082    1.6959 C   0  0  0  0  0  0  0  0  0  0  0  0
    4.1644    2.1639    2.4992 H   0  0  0  0  0  0  0  0  0  0  0  0
    5.3036    0.6693    1.4077 C   0  0  0  0  0  0  0  0  0  0  0  0
    5.2504   -0.2346    0.3260 C   0  0  0  0  0  0  0  0  0  0  0  0
    6.1732   -0.7739    0.0704 H   0  0  0  0  0  0  0  0  0  0  0  0
    4.0941   -0.4676   -0.4376 C   0  0  0  0  0  0  0  0  0  0  0  0
    2.9015    0.2387   -0.0589 C   0  0  0  0  0  0  0  0  0  0  0  0
   -4.4533    1.5464   -0.7652 C   0  0  0  0  0  0  0  0  0  0  0  0
   -5.9290    1.7734   -1.1436 C   0  0  0  0  0  0  0  0  0  0  0  0
   -6.6008    1.7291   -0.2625 H   0  0  0  0  0  0  0  0  0  0  0  0
   -6.2847    1.0338   -1.8892 H   0  0  0  0  0  0  0  0  0  0  0  0
   -6.0398    2.7807   -1.5929 H   0  0  0  0  0  0  0  0  0  0  0  0
   -4.0555    2.6318    0.2594 C   0  0  0  0  0  0  0  0  0  0  0  0
   -4.6578    2.5415    1.1866 H   0  0  0  0  0  0  0  0  0  0  0  0
   -4.2274    3.6430   -0.1651 H   0  0  0  0  0  0  0  0  0  0  0  0
   -2.9873    2.5465    0.5217 H   0  0  0  0  0  0  0  0  0  0  0  0
   -3.6065    1.7099   -2.0503 C   0  0  0  0  0  0  0  0  0  0  0  0
   -3.8302    2.6884   -2.5246 H   0  0  0  0  0  0  0  0  0  0  0  0
   -3.8458    0.9123   -2.7827 H   0  0  0  0  0  0  0  0  0  0  0  0
   -2.5231    1.6729   -1.8338 H   0  0  0  0  0  0  0  0  0  0  0  0
   -6.3470   -2.8967    0.8722 C   0  0  0  0  0  0  0  0  0  0  0  0
   -7.0198   -2.4514    1.6358 H   0  0  0  0  0  0  0  0  0  0  0  0
   -6.0515   -3.9016    1.2322 H   0  0  0  0  0  0  0  0  0  0  0  0
   -6.9551   -3.0333   -0.0467 H   0  0  0  0  0  0  0  0  0  0  0  0
    0.9939   -2.1825    1.2218 C   0  0  0  0  0  0  0  0  0  0  0  0
    1.8875   -1.5640    1.4126 H   0  0  0  0  0  0  0  0  0  0  0  0
    1.1463   -2.7048    0.2629 H   0  0  0  0  0  0  0  0  0  0  0  0
    0.8940   -2.9386    2.0353 H   0  0  0  0  0  0  0  0  0  0  0  0
   -0.5427    2.4735    1.6719 C   0  0  0  0  0  0  0  0  0  0  0  0
   -0.2481    3.1641    2.4985 H   0  0  0  0  0  0  0  0  0  0  0  0
   -1.5045    1.9958    1.9227 H   0  0  0  0  0  0  0  0  0  0  0  0
   -0.6863    3.0542    0.7413 H   0  0  0  0  0  0  0  0  0  0  0  0
    6.5680    0.8338    2.2129 C   0  0  0  0  0  0  0  0  0  0  0  0
    7.4603    0.9225    1.5595 H   0  0  0  0  0  0  0  0  0  0  0  0
    6.7446   -0.0409    2.8759 H   0  0  0  0  0  0  0  0  0  0  0  0
    6.5278    1.7335    2.8578 H   0  0  0  0  0  0  0  0  0  0  0  0
    4.1267   -1.3608   -1.6954 C   0  0  0  0  0  0  0  0  0  0  0  0
    3.7936   -0.4832   -2.9259 C   0  0  0  0  0  0  0  0  0  0  0  0
    3.8325   -1.0930   -3.8524 H   0  0  0  0  0  0  0  0  0  0  0  0
    4.5227    0.3461   -3.0286 H   0  0  0  0  0  0  0  0  0  0  0  0
    2.7784   -0.0538   -2.8395 H   0  0  0  0  0  0  0  0  0  0  0  0
    5.5175   -1.9835   -1.9178 C   0  0  0  0  0  0  0  0  0  0  0  0
    5.8169   -2.6442   -1.0787 H   0  0  0  0  0  0  0  0  0  0  0  0
    6.3044   -1.2140   -2.0511 H   0  0  0  0  0  0  0  0  0  0  0  0
    5.4995   -2.6015   -2.8379 H   0  0  0  0  0  0  0  0  0  0  0  0
    3.1036   -2.5158   -1.6111 C   0  0  0  0  0  0  0  0  0  0  0  0
    3.2917   -3.1482   -0.7193 H   0  0  0  0  0  0  0  0  0  0  0  0
    3.1966   -3.1627   -2.5080 H   0  0  0  0  0  0  0  0  0  0  0  0
    2.0683   -2.1308   -1.5730 H   0  0  0  0  0  0  0  0  0  0  0  0
  1  5  1  0  0  0  0
  2 32  1  0  0  0  0
  3 50  1  0  0  0  0
  3 16  1  0  0  0  0
  4 54  1  0  0  0  0
  4 19  1  0  0  0  0
  5 12  1  0  0  0  0
  6  7  1  0  0  0  0
  6  5  2  0  0  0  0
  7  9  2  0  0  0  0
  8  7  1  0  0  0  0
  9 46  1  0  0  0  0
  9 10  1  0  0  0  0
 10 11  1  0  0  0  0
 12 13  1  0  0  0  0
 12 10  2  0  0  0  0
 13  3  1  0  0  0  0
 13 14  1  0  0  0  0
 15 13  1  0  0  0  0
 16 19  1  0  0  0  0
 16 17  1  0  0  0  0
 18 16  1  0  0  0  0
 19 21  1  0  0  0  0
 19 20  1  0  0  0  0
 22  4  1  0  0  0  0
 22 23  1  0  0  0  0
 24 22  1  0  0  0  0
 25 22  1  0  0  0  0
 25 26  1  0  0  0  0
 26 27  1  0  0  0  0
 28 26  2  0  0  0  0
 28 58  1  0  0  0  0
 29 28  1  0  0  0  0
 30 29  1  0  0  0  0
 31 32  1  0  0  0  0
 31 29  2  0  0  0  0
 32 25  2  0  0  0  0
 33  6  1  0  0  0  0
 33 38  1  0  0  0  0
 34 33  1  0  0  0  0
 34 35  1  0  0  0  0
 36 34  1  0  0  0  0
 37 34  1  0  0  0  0
 38 41  1  0  0  0  0
 38 39  1  0  0  0  0
 40 38  1  0  0  0  0
 42 45  1  0  0  0  0
 42 33  1  0  0  0  0
 43 42  1  0  0  0  0
 44 42  1  0  0  0  0
 46 48  1  0  0  0  0
 46 47  1  0  0  0  0
 49 46  1  0  0  0  0
 50 51  1  0  0  0  0
 50 53  1  0  0  0  0
 52 50  1  0  0  0  0
 54 56  1  0  0  0  0
 54 55  1  0  0  0  0
 57 54  1  0  0  0  0
 58 61  1  0  0  0  0
 58 60  1  0  0  0  0
 59 58  1  0  0  0  0
 62 71  1  0  0  0  0
 62 31  1  0  0  0  0
 63 66  1  0  0  0  0
 63 62  1  0  0  0  0
 64 63  1  0  0  0  0
 65 63  1  0  0  0  0
 67 62  1  0  0  0  0
 67 68  1  0  0  0  0
 69 67  1  0  0  0  0
 70 67  1  0  0  0  0
 71 74  1  0  0  0  0
 71 72  1  0  0  0  0
 73 71  1  0  0  0  0
M  CHG  2   1  -1   2  -1
M  END
