1,2,3,4
q = -2.0, confidence = 0.816

 35 35  0  0  1  0  0  0  0  0999 V2000
   -2.3423   -0.8348    0.0719 N   0  0  0  0  0  2  0  0  0  0  0  0
    0.0637   -1.6577   -0.1871 N   0  0  0  0  0  2  0  0  0  0  0  0
   -1.3922    1.7427   -0.0630 O   0  0  0  0  0  1  0  0  0  0  0  0
    0.9507    0.9047   -0.1284 O   0  0  0  0  0  1  0  0  0  0  0  0
    5.6449    1.6072    0.2021 O   0  0  0  0  0  0  0  0  0  0  0  0
    5.3265    2.5294    0.1798 H   0  0  0  0  0  0  0  0  0  0  0  0
   -2.1976   -2.2732    0.2919 C   0  0  0  0  0  0  0  0  0  0  0  0
   -3.0670   -2.8519   -0.0823 H   0  0  0  0  0  0  0  0  0  0  0  0
   -2.1025   -2.4850    1.3830 H   0  0  0  0  0  0  0  0  0  0  0  0
   -0.9304   -2.6991   -0.4296 C   0  0  0  0  0  0  0  0  0  0  0  0
   -0.5713   -3.6958   -0.0924 H   0  0  0  0  0  0  0  0  0  0  0  0
   -1.1309   -2.7595   -1.5233 H   0  0  0  0  0  0  0  0  0  0  0  0
    1.3421   -1.9636   -0.1384 C   0  0  0  0  0  0  0  0  0  0  0  0
    1.6102   -3.0379   -0.1998 H   0  0  0  0  0  0  0  0  0  0  0  0
    2.4096   -1.0304   -0.0292 C   0  0  0  0  0  0  0  0  0  0  0  0
    3.7554   -1.4883    0.0609 C   0  0  0  0  0  0  0  0  0  0  0  0
    3.9385   -2.5751    0.0659 H   0  0  0  0  0  0  0  0  0  0  0  0
    4.8254   -0.6143    0.1395 C   0  0  0  0  0  0  0  0  0  0  0  0
    5.8645   -0.9624    0.2096 H   0  0  0  0  0  0  0  0  0  0  0  0
    4.5645    0.7862    0.1246 C   0  0  0  0  0  0  0  0  0  0  0  0
    3.2601    1.2736    0.0337 C   0  0  0  0  0  0  0  0  0  0  0  0
    3.0530    2.3553    0.0211 H   0  0  0  0  0  0  0  0  0  0  0  0
    2.1388    0.3942   -0.0426 C   0  0  1  0  0  3  0  0  0  0  0  0
   -2.6367    2.0654   -0.0508 C   0  0  1  0  0  3  0  0  0  0  0  0
   -3.7027    1.1577    0.0464 C   0  0  0  0  0  0  0  0  0  0  0  0
   -4.7251    1.5558    0.0711 H   0  0  0  0  0  0  0  0  0  0  0  0
   -3.5376   -0.2466    0.1469 C   0  0  0  0  0  0  0  0  0  0  0  0
   -4.7792   -1.0862    0.3616 C   0  0  0  0  0  0  0  0  0  0  0  0
   -4.7239   -1.6538    1.3139 H   0  0  0  0  0  0  0  0  0  0  0  0
   -4.9182   -1.8294   -0.4514 H   0  0  0  0  0  0  0  0  0  0  0  0
   -5.6793   -0.4474    0.3963 H   0  0  0  0  0  0  0  0  0  0  0  0
   -2.9010    3.5515   -0.1378 C   0  0  0  0  0  0  0  0  0  0  0  0
   -2.4689    3.9495   -1.0788 H   0  0  0  0  0  0  0  0  0  0  0  0
   -2.3804    4.0694    0.6933 H   0  0  0  0  0  0  0  0  0  0  0  0
   -3.9792    3.7925   -0.1014 H   0  0  0  0  0  0  0  0  0  0  0  0
  1 27  1  0  0  0  0
  1  7  1  0  0  0  0
  2 13  1  0  0  0  0
  6  5  1  0  0  0  0
  7  9  1  0  0  0  0
  8  7  1  0  0  0  0
 10  2  1  0  0  0  0
 10 11  1  0  0  0  0
 10  7  1  0  0  0  0
 12 10  1  0  0  0  0
 13 15  2  0  0  0  0
 14 13  1  0  0  0  0
 15 16  1  0  0  0  0
 16 17  1  0  0  0  0
 16 18  2  0  0  0  0
 18 19  1  0  0  0  0
 20 18  1  0  0  0  0
 20  5  1  0  0  0  0
 21 20  2  0  0  0  0
 22 21  1  0  0  0  0
 23  4  1  6  0  0  0
 23 15  1  0  0  0  0
 23 21  1  0  0  0  0
 24  3  1  1  0  0  0
 24 25  1  0  0  0  0
 25 26  1  0  0  0  0
 25 27  2  0  0  0  0
 27 28  1  0  0  0  0
 28 31  1  0  0  0  0
 28 29  1  0  0  0  0
 30 28  1  0  0  0  0
 32 35  1  0  0  0  0
 32 24  1  0  0  0  0
 32 34  1  0  0  0  0
 33 32  1  0  0  0  0
M  END
