1,3,5,7
q = -2.0, confidence = 0.776

 51 53  0  0  1  0  0  0  0  0999 V2000
   -2.0867   -1.2231    1.1465 N   0  0  0  0  0  0  0  0  0  0  0  0
   -2.4148   -2.1956    1.2197 H   0  0  0  0  0  0  0  0  0  0  0  0
    0.9329   -0.4816    1.0412 N   0  0  0  0  0  0  0  0  0  0  0  0
    0.7703    0.3877    0.5108 H   0  0  0  0  0  0  0  0  0  0  0  0
   -1.8471   -1.7660   -1.4926 O   0  5  0  0  0  0  0  0  0  0  0  0
   -3.8425   -0.8206   -2.0003 O   0  0  0  0  0  0  0  0  0  0  0  0
    1.2648   -2.4630   -0.8319 O   0  5  0  0  0  0  0  0  0  0  0  0
    3.5235   -2.3400   -0.7671 O   0  0  0  0  0  0  0  0  0  0  0  0
   -0.9041    0.8803   -0.9445 O   0  0  0  0  0  0  0  0  0  0  0  0
    1.8043    0.8047   -1.2655 O   0  0  0  0  0  0  0  0  0  0  0  0
   -2.9260   -1.0824   -1.2327 C   0  0  0  0  0  0  0  0  0  0  0  0
   -3.0517   -0.5269    0.2453 C   0  0  2  0  0  0  0  0  0  0  0  0
   -4.0908   -0.7644    0.5605 H   0  0  0  0  0  0  0  0  0  0  0  0
   -1.9201   -0.6931    2.5194 C   0  0  0  0  0  0  0  0  0  0  0  0
   -1.7260   -1.5650    3.1793 H   0  0  0  0  0  0  0  0  0  0  0  0
   -2.8681   -0.2302    2.8750 H   0  0  0  0  0  0  0  0  0  0  0  0
   -0.7736    0.3099    2.6929 C   0  0  0  0  0  0  0  0  0  0  0  0
   -0.9411    1.2020    2.0536 H   0  0  0  0  0  0  0  0  0  0  0  0
   -0.8247    0.6820    3.7376 H   0  0  0  0  0  0  0  0  0  0  0  0
    0.6371   -0.2408    2.4640 C   0  0  0  0  0  0  0  0  0  0  0  0
    1.3831    0.4662    2.8961 H   0  0  0  0  0  0  0  0  0  0  0  0
    0.7619   -1.2034    3.0070 H   0  0  0  0  0  0  0  0  0  0  0  0
    2.3245   -0.9281    0.7526 C   0  0  1  0  0  0  0  0  0  0  0  0
    2.6898   -1.4709    1.6485 H   0  0  0  0  0  0  0  0  0  0  0  0
    2.4055   -1.9999   -0.4058 C   0  0  0  0  0  0  0  0  0  0  0  0
   -2.9427    0.9843    0.2625 C   0  0  0  0  0  0  0  0  0  0  0  0
   -3.9364    1.7633    0.8823 C   0  0  0  0  0  0  0  0  0  0  0  0
   -4.7732    1.2459    1.3770 H   0  0  0  0  0  0  0  0  0  0  0  0
   -3.9035    3.1659    0.8535 C   0  0  0  0  0  0  0  0  0  0  0  0
   -4.7006    3.7464    1.3401 H   0  0  0  0  0  0  0  0  0  0  0  0
   -2.8563    3.8172    0.1879 C   0  0  0  0  0  0  0  0  0  0  0  0
   -2.8179    4.9163    0.1513 H   0  0  0  0  0  0  0  0  0  0  0  0
   -1.8451    3.0695   -0.4349 C   0  0  0  0  0  0  0  0  0  0  0  0
   -1.0168    3.5813   -0.9449 H   0  0  0  0  0  0  0  0  0  0  0  0
   -1.8866    1.6656   -0.3932 C   0  0  0  0  0  0  0  0  0  0  0  0
   -0.3076    1.2244   -2.2034 C   0  0  0  0  0  0  0  0  0  0  0  0
   -0.9480    1.9416   -2.7567 H   0  0  0  0  0  0  0  0  0  0  0  0
   -0.2655    0.2738   -2.7740 H   0  0  0  0  0  0  0  0  0  0  0  0
    1.0960    1.7801   -2.0120 C   0  0  0  0  0  0  0  0  0  0  0  0
    1.5662    1.9548   -3.0072 H   0  0  0  0  0  0  0  0  0  0  0  0
    1.0835    2.7490   -1.4622 H   0  0  0  0  0  0  0  0  0  0  0  0
    2.9391    1.1300   -0.5682 C   0  0  0  0  0  0  0  0  0  0  0  0
    3.7458    2.2423   -0.8488 C   0  0  0  0  0  0  0  0  0  0  0  0
    3.4947    2.9211   -1.6760 H   0  0  0  0  0  0  0  0  0  0  0  0
    4.8998    2.4634   -0.0763 C   0  0  0  0  0  0  0  0  0  0  0  0
    5.5394    3.3308   -0.2987 H   0  0  0  0  0  0  0  0  0  0  0  0
    5.2393    1.5833    0.9593 C   0  0  0  0  0  0  0  0  0  0  0  0
    6.1468    1.7542    1.5565 H   0  0  0  0  0  0  0  0  0  0  0  0
    4.4143    0.4786    1.2336 C   0  0  0  0  0  0  0  0  0  0  0  0
    4.6770   -0.2187    2.0442 H   0  0  0  0  0  0  0  0  0  0  0  0
    3.2530    0.2353    0.4876 C   0  0  0  0  0  0  0  0  0  0  0  0
  1  2  1  0  0  0  0
  1 14  1  0  0  0  0
  3 20  1  0  0  0  0
  4  3  1  0  0  0  0
  5 11  1  0  0  0  0
  6 11  2  0  0  0  0
  7 25  1  0  0  0  0
  8 25  2  0  0  0  0
  9 35  1  0  0  0  0
 10 42  1  0  0  0  0
 11 12  1  0  0  0  0
 12 26  1  0  0  0  0
 12 13  1  1  0  0  0
 12  1  1  0  0  0  0
 14 17  1  0  0  0  0
 14 16  1  0  0  0  0
 14 15  1  0  0  0  0
 17 19  1  0  0  0  0
 18 17  1  0  0  0  0
 20 17  1  0  0  0  0
 20 21  1  0  0  0  0
 20 22  1  0  0  0  0
 23  3  1  0  0  0  0
 23 24  1  1  0  0  0
 25 23  1  0  0  0  0
 26 27  1  0  0  0  0
 27 28  1  0  0  0  0
 29 27  2  0  0  0  0
 29 30  1  0  0  0  0
 31 29  1  0  0  0  0
 32 31  1  0  0  0  0
 33 35  1  0  0  0  0
 33 31  2  0  0  0  0
 34 33  1  0  0  0  0
 35 26  2  0  0  0  0
 36 39  1  0  0  0  0
 36  9  1  0  0  0  0
 37 36  1  0  0  0  0
 38 36  1  0  0  0  0
 39 41  1  0  0  0  0
 39 10  1  0  0  0  0
 40 39  1  0  0  0  0
 42 51  1  0  0  0  0
 43 42  2  0  0  0  0
 43 45  1  0  0  0  0
 44 43  1  0  0  0  0
 45 47  2  0  0  0  0
 46 45  1  0  0  0  0
 47 49  1  0  0  0  0
 47 48  1  0  0  0  0
 49 50  1  0  0  0  0
 51 23  1  0  0  0  0
 51 49  2  0  0  0  0
M  CHG  2   5  -1   7  -1
M  END
