1,2,3,4
q = -2.0, confidence = 0.856

 44 45  0  0  0  0  0  0  0  0999 V2000
   -1.9147   -0.8370   -0.2119 O   0  5  0  0  0  0  0  0  0  0  0  0
    1.9088   -0.8034   -0.4068 O   0  5  0  0  0  0  0  0  0  0  0  0
   -0.0412    1.3383   -0.2780 N   0  0  0  0  0  0  0  0  0  0  0  0
    0.1570   -0.6817    1.8818 N   0  0  0  0  0  0  0  0  0  0  0  0
    2.8212    0.1584   -0.2376 C   0  0  0  0  0  0  0  0  0  0  0  0
    4.1176   -0.1930    0.2001 C   0  0  0  0  0  0  0  0  0  0  0  0
    4.3461   -1.2596    0.3394 H   0  0  0  0  0  0  0  0  0  0  0  0
    5.0753    0.8006    0.4400 C   0  0  0  0  0  0  0  0  0  0  0  0
    6.0827    0.5118    0.7768 H   0  0  0  0  0  0  0  0  0  0  0  0
    4.7546    2.1560    0.2588 C   0  0  0  0  0  0  0  0  0  0  0  0
    5.5026    2.9380    0.4543 H   0  0  0  0  0  0  0  0  0  0  0  0
    3.4675    2.5042   -0.1788 C   0  0  0  0  0  0  0  0  0  0  0  0
    3.2066    3.5642   -0.3313 H   0  0  0  0  0  0  0  0  0  0  0  0
    2.4941    1.5253   -0.4429 C   0  0  0  0  0  0  0  0  0  0  0  0
    1.1460    1.8974   -0.9930 C   0  0  0  0  0  0  0  0  0  0  0  0
    1.0575    1.5424   -2.0416 H   0  0  0  0  0  0  0  0  0  0  0  0
    1.0573    3.0090   -1.0120 H   0  0  0  0  0  0  0  0  0  0  0  0
   -1.2411    1.8628   -1.0043 C   0  0  0  0  0  0  0  0  0  0  0  0
   -1.1791    2.9753   -1.0483 H   0  0  0  0  0  0  0  0  0  0  0  0
   -1.1519    1.4864   -2.0447 H   0  0  0  0  0  0  0  0  0  0  0  0
   -2.5692    1.4723   -0.4173 C   0  0  0  0  0  0  0  0  0  0  0  0
   -3.5798    2.4328   -0.2249 C   0  0  0  0  0  0  0  0  0  0  0  0
   -3.3610    3.4847   -0.4702 H   0  0  0  0  0  0  0  0  0  0  0  0
   -4.8474    2.0773    0.2575 C   0  0  0  0  0  0  0  0  0  0  0  0
   -5.6228    2.8452    0.3926 H   0  0  0  0  0  0  0  0  0  0  0  0
   -5.1122    0.7326    0.5672 C   0  0  0  0  0  0  0  0  0  0  0  0
   -6.1025    0.4373    0.9463 H   0  0  0  0  0  0  0  0  0  0  0  0
   -4.1194   -0.2395    0.4015 C   0  0  0  0  0  0  0  0  0  0  0  0
   -4.3008   -1.2973    0.6404 H   0  0  0  0  0  0  0  0  0  0  0  0
   -2.8440    0.1168   -0.0931 C   0  0  0  0  0  0  0  0  0  0  0  0
   -0.0765    1.7067    1.1597 C   0  0  0  0  0  0  0  0  0  0  0  0
   -1.1435    1.7777    1.4513 H   0  0  0  0  0  0  0  0  0  0  0  0
    0.3658    2.7170    1.3140 H   0  0  0  0  0  0  0  0  0  0  0  0
    0.6414    0.7053    2.0650 C   0  0  0  0  0  0  0  0  0  0  0  0
    1.7275    0.7176    1.8637 H   0  0  0  0  0  0  0  0  0  0  0  0
    0.5096    1.0264    3.1259 H   0  0  0  0  0  0  0  0  0  0  0  0
    1.1403   -1.6445    2.4216 C   0  0  0  0  0  0  0  0  0  0  0  0
    0.7731   -2.6716    2.2416 H   0  0  0  0  0  0  0  0  0  0  0  0
    1.2893   -1.4877    3.5151 H   0  0  0  0  0  0  0  0  0  0  0  0
    2.1063   -1.5269    1.8995 H   0  0  0  0  0  0  0  0  0  0  0  0
   -1.1313   -0.8874    2.5716 C   0  0  0  0  0  0  0  0  0  0  0  0
   -1.5305   -1.8868    2.3189 H   0  0  0  0  0  0  0  0  0  0  0  0
   -1.8760   -0.1360    2.2557 H   0  0  0  0  0  0  0  0  0  0  0  0
   -0.9954   -0.8137    3.6757 H   0  0  0  0  0  0  0  0  0  0  0  0
  1 30  1  0  0  0  0
  2  5  1  0  0  0  0
  3 31  1  0  0  0  0
  4 34  1  0  0  0  0
  4 37  1  0  0  0  0
  4 41  1  0  0  0  0
  5  6  1  0  0  0  0
  6  7  1  0  0  0  0
  6  8  2  0  0  0  0
  8  9  1  0  0  0  0
 10  8  1  0  0  0  0
 10 11  1  0  0  0  0
 12 10  2  0  0  0  0
 13 12  1  0  0  0  0
 14  5  2  0  0  0  0
 14 12  1  0  0  0  0
 15 14  1  0  0  0  0
 15  3  1  0  0  0  0
 16 15  1  0  0  0  0
 17 15  1  0  0  0  0
 18 21  1  0  0  0  0
 18  3  1  0  0  0  0
 19 18  1  0  0  0  0
 20 18  1  0  0  0  0
 21 22  2  0  0  0  0
 21 30  1  0  0  0  0
 22 24  1  0  0  0  0
 23 22  1  0  0  0  0
 24 25  1  0  0  0  0
 24 26  2  0  0  0  0
 26 27  1  0  0  0  0
 28 26  1  0  0  0  0
 28 29  1  0  0  0  0
 30 28  2  0  0  0  0
 31 33  1  0  0  0  0
 31 32  1  0  0  0  0
 31 34  1  0  0  0  0
 34 36  1  0  0  0  0
 35 34  1  0  0  0  0
 37 39  1  0  0  0  0
 38 37  1  0  0  0  0
 40 37  1  0  0  0  0
 41 44  1  0  0  0  0
 42 41  1  0  0  0  0
 43 41  1  0  0  0  0
M  CHG  2   1  -1   2  -1
M  END
