1,2,7,8
q = -2.0, confidence = 0.816

 46 48  0  0  1  0  0  0  0  0999 V2000
   -1.6855   -1.6448   -1.1441 O   0  5  0  0  0  0  0  0  0  0  0  0
    1.8908   -1.5432    0.2849 O   0  5  0  0  0  0  0  0  0  0  0  0
   -4.9123    3.6546   -0.3712 O   0  0  0  0  0  0  0  0  0  0  0  0
   -6.4243    2.1992    0.2461 O   0  0  0  0  0  0  0  0  0  0  0  0
    5.9780    3.1597   -0.4345 O   0  0  0  0  0  0  0  0  0  0  0  0
    7.1160    1.8471    0.8948 O   0  0  0  0  0  0  0  0  0  0  0  0
    0.2760    0.5102   -0.8015 N   0  0  0  0  0  0  0  0  0  0  0  0
   -0.7375   -1.0166    1.3116 N   0  0  0  0  0  2  0  0  0  0  0  0
   -5.3079    2.5017   -0.1795 N   0  0  0  0  0  0  0  0  0  0  0  0
    6.1190    2.1287    0.2277 N   0  0  0  0  0  0  0  0  0  0  0  0
    2.8778   -0.6557    0.2168 C   0  0  0  0  0  0  0  0  0  0  0  0
    4.0474   -0.9132    0.9792 C   0  0  0  0  0  0  0  0  0  0  0  0
    4.0807   -1.8452    1.5607 H   0  0  0  0  0  0  0  0  0  0  0  0
    5.1145   -0.0189    0.9792 C   0  0  0  0  0  0  0  0  0  0  0  0
    6.0310   -0.2018    1.5557 H   0  0  0  0  0  0  0  0  0  0  0  0
    5.0084    1.1593    0.2236 C   0  0  0  0  0  0  0  0  0  0  0  0
    3.8612    1.4441   -0.5258 C   0  0  0  0  0  0  0  0  0  0  0  0
    3.8300    2.3867   -1.0908 H   0  0  0  0  0  0  0  0  0  0  0  0
    2.7874    0.5438   -0.5538 C   0  0  0  0  0  0  0  0  0  0  0  0
    1.5889    0.8540   -1.4143 C   0  0  0  0  0  0  0  0  0  0  0  0
    1.6050    1.9387   -1.6707 H   0  0  0  0  0  0  0  0  0  0  0  0
    1.6387    0.2866   -2.3665 H   0  0  0  0  0  0  0  0  0  0  0  0
   -0.8007    0.9422   -1.7408 C   0  0  0  0  0  0  0  0  0  0  0  0
   -0.6784    2.0277   -1.9603 H   0  0  0  0  0  0  0  0  0  0  0  0
   -0.6346    0.3832   -2.6851 H   0  0  0  0  0  0  0  0  0  0  0  0
   -2.1824    0.6833   -1.2142 C   0  0  0  0  0  0  0  0  0  0  0  0
   -3.0940    1.7130   -0.9639 C   0  0  0  0  0  0  0  0  0  0  0  0
   -2.8371    2.7677   -1.1367 H   0  0  0  0  0  0  0  0  0  0  0  0
   -4.3694    1.4037   -0.4713 C   0  0  0  0  0  0  0  0  0  0  0  0
   -4.7670    0.0763   -0.2391 C   0  0  0  0  0  0  0  0  0  0  0  0
   -5.7799   -0.1117    0.1412 H   0  0  0  0  0  0  0  0  0  0  0  0
   -3.8644   -0.9574   -0.4844 C   0  0  0  0  0  0  0  0  0  0  0  0
   -4.1328   -2.0080   -0.3052 H   0  0  0  0  0  0  0  0  0  0  0  0
   -2.5599   -0.6697   -0.9610 C   0  0  0  0  0  0  0  0  0  0  0  0
    0.1053    1.1264    0.5287 C   0  0  0  0  0  0  0  0  0  0  0  0
   -0.2522    2.1769    0.4483 H   0  0  0  0  0  0  0  0  0  0  0  0
    1.1052    1.1655    1.0118 H   0  0  0  0  0  0  0  0  0  0  0  0
   -0.8099    0.3271    1.4255 C   0  0  2  0  0  3  0  0  0  0  0  0
   -1.6447    0.9339    2.3782 C   0  0  0  0  0  0  0  0  0  0  0  0
   -1.7044    2.0305    2.4321 H   0  0  0  0  0  0  0  0  0  0  0  0
   -2.4027    0.1245    3.2320 C   0  0  0  0  0  0  0  0  0  0  0  0
   -3.0714    0.5792    3.9780 H   0  0  0  0  0  0  0  0  0  0  0  0
   -2.3053   -1.2706    3.1153 C   0  0  0  0  0  0  0  0  0  0  0  0
   -2.8816   -1.9428    3.7662 H   0  0  0  0  0  0  0  0  0  0  0  0
   -1.4641   -1.8022    2.1331 C   0  0  0  0  0  0  0  0  0  0  0  0
   -1.3596   -2.8862    1.9688 H   0  0  0  0  0  0  0  0  0  0  0  0
  1 34  1  0  0  0  0
  3  9  2  0  0  0  0
  5 10  2  0  0  0  0
  7 35  1  0  0  0  0
  8 38  1  0  0  0  0
  8 45  1  0  0  0  0
  9  4  2  0  0  0  0
 10  6  2  0  0  0  0
 11  2  1  0  0  0  0
 11 12  1  0  0  0  0
 12 13  1  0  0  0  0
 14 12  2  0  0  0  0
 14 15  1  0  0  0  0
 16 10  1  0  0  0  0
 16 14  1  0  0  0  0
 17 16  2  0  0  0  0
 18 17  1  0  0  0  0
 19 17  1  0  0  0  0
 19 11  2  0  0  0  0
 20  7  1  0  0  0  0
 20 19  1  0  0  0  0
 21 20  1  0  0  0  0
 22 20  1  0  0  0  0
 23 26  1  0  0  0  0
 23  7  1  0  0  0  0
 24 23  1  0  0  0  0
 25 23  1  0  0  0  0
 26 27  2  0  0  0  0
 26 34  1  0  0  0  0
 27 29  1  0  0  0  0
 28 27  1  0  0  0  0
 29 30  2  0  0  0  0
 29  9  1  0  0  0  0
 30 31  1  0  0  0  0
 32 33  1  0  0  0  0
 32 30  1  0  0  0  0
 34 32  2  0  0  0  0
 35 37  1  0  0  0  0
 36 35  1  0  0  0  0
 38 35  1  1  0  0  0
 38 39  1  0  0  0  0
 39 40  1  0  0  0  0
 39 41  2  0  0  0  0
 41 42  1  0  0  0  0
 43 41  1  0  0  0  0
 43 44  1  0  0  0  0
 45 43  2  0  0  0  0
 46 45  1  0  0  0  0
M  CHG  2   1  -1   2  -1
M  END
