3,4,25,26
q = -2.0, confidence = 0.802

 44 45  0  0  0  0  0  0  0  0999 V2000
    3.9198   -2.5848   -1.1085 Cl  0  0  0  0  0  0  0  0  0  0  0  0
    6.8396    1.0399    1.7084 Cl  0  0  0  0  0  0  0  0  0  0  0  0
    1.8182   -0.5848   -0.9219 O   0  5  0  0  0  0  0  0  0  0  0  0
    0.5405    1.3763    0.6629 N   0  0  0  0  0  0  0  0  0  0  0  0
   -0.4612    2.4521    0.8039 C   0  0  0  0  0  0  0  0  0  0  0  0
   -0.1565    3.1600    1.6089 H   0  0  0  0  0  0  0  0  0  0  0  0
   -1.4532    2.0359    1.0459 H   0  0  0  0  0  0  0  0  0  0  0  0
   -0.5551    2.9983   -0.1523 H   0  0  0  0  0  0  0  0  0  0  0  0
    1.8609    2.0156    0.3996 C   0  0  0  0  0  0  0  0  0  0  0  0
    2.0585    2.7833    1.1836 H   0  0  0  0  0  0  0  0  0  0  0  0
    1.7545    2.5496   -0.5675 H   0  0  0  0  0  0  0  0  0  0  0  0
    3.0341    1.0677    0.3523 C   0  0  0  0  0  0  0  0  0  0  0  0
    2.9311   -0.1754   -0.3276 C   0  0  0  0  0  0  0  0  0  0  0  0
    4.0633   -1.0386   -0.3266 C   0  0  0  0  0  0  0  0  0  0  0  0
    5.2685   -0.6724    0.2834 C   0  0  0  0  0  0  0  0  0  0  0  0
    6.1286   -1.3537    0.2570 H   0  0  0  0  0  0  0  0  0  0  0  0
    5.3492    0.5686    0.9333 C   0  0  0  0  0  0  0  0  0  0  0  0
    4.2393    1.4245    0.9805 C   0  0  0  0  0  0  0  0  0  0  0  0
    4.3174    2.3822    1.5151 H   0  0  0  0  0  0  0  0  0  0  0  0
    0.5701    0.5078    1.8603 C   0  0  0  0  0  0  0  0  0  0  0  0
    0.5179    1.1188    2.7915 H   0  0  0  0  0  0  0  0  0  0  0  0
    1.5479   -0.0120    1.8806 H   0  0  0  0  0  0  0  0  0  0  0  0
   -3.9245    2.5875   -1.0951 Cl  0  0  0  0  0  0  0  0  0  0  0  0
   -6.8390   -1.0563    1.7024 Cl  0  0  0  0  0  0  0  0  0  0  0  0
   -1.8185    0.5919   -0.9148 O   0  5  0  0  0  0  0  0  0  0  0  0
   -0.5373   -1.3740    0.6596 N   0  0  0  0  0  0  0  0  0  0  0  0
    0.4662   -2.4486    0.7975 C   0  0  0  0  0  0  0  0  0  0  0  0
    0.1628   -3.1590    1.6008 H   0  0  0  0  0  0  0  0  0  0  0  0
    1.4576   -2.0314    1.0406 H   0  0  0  0  0  0  0  0  0  0  0  0
    0.5610   -2.9921   -0.1600 H   0  0  0  0  0  0  0  0  0  0  0  0
   -1.8567   -2.0150    0.3956 C   0  0  0  0  0  0  0  0  0  0  0  0
   -2.0525   -2.7846    1.1781 H   0  0  0  0  0  0  0  0  0  0  0  0
   -1.7499   -2.5468   -0.5727 H   0  0  0  0  0  0  0  0  0  0  0  0
   -3.0318   -1.0693    0.3508 C   0  0  0  0  0  0  0  0  0  0  0  0
   -2.9311    0.1770   -0.3236 C   0  0  0  0  0  0  0  0  0  0  0  0
   -4.0653    1.0375   -0.3202 C   0  0  0  0  0  0  0  0  0  0  0  0
   -5.2703    0.6658    0.2868 C   0  0  0  0  0  0  0  0  0  0  0  0
   -6.1320    1.3452    0.2622 H   0  0  0  0  0  0  0  0  0  0  0  0
   -5.3488   -0.5782    0.9311 C   0  0  0  0  0  0  0  0  0  0  0  0
   -4.2369   -1.4316    0.9760 C   0  0  0  0  0  0  0  0  0  0  0  0
   -4.3133   -2.3917    1.5065 H   0  0  0  0  0  0  0  0  0  0  0  0
   -0.5676   -0.5082    1.8589 C   0  0  0  0  0  0  0  0  0  0  0  0
   -0.5158   -1.1215    2.7887 H   0  0  0  0  0  0  0  0  0  0  0  0
   -1.5455    0.0114    1.8798 H   0  0  0  0  0  0  0  0  0  0  0  0
  1 14  1  0  0  0  0
  3 13  1  0  0  0  0
  4  5  1  0  0  0  0
  4 20  1  0  0  0  0
  5  7  1  0  0  0  0
  5  6  1  0  0  0  0
  8  5  1  0  0  0  0
  9  4  1  0  0  0  0
  9 10  1  0  0  0  0
 11  9  1  0  0  0  0
 12  9  1  0  0  0  0
 12 18  1  0  0  0  0
 13 14  1  0  0  0  0
 13 12  2  0  0  0  0
 14 15  2  0  0  0  0
 15 17  1  0  0  0  0
 16 15  1  0  0  0  0
 17 18  2  0  0  0  0
 17  2  1  0  0  0  0
 18 19  1  0  0  0  0
 20 22  1  0  0  0  0
 20 21  1  0  0  0  0
 23 36  1  0  0  0  0
 25 35  1  0  0  0  0
 26 27  1  0  0  0  0
 26 42  1  0  0  0  0
 27 29  1  0  0  0  0
 27 28  1  0  0  0  0
 30 27  1  0  0  0  0
 31 26  1  0  0  0  0
 31 32  1  0  0  0  0
 33 31  1  0  0  0  0
 34 31  1  0  0  0  0
 34 40  1  0  0  0  0
 35 36  1  0  0  0  0
 35 34  2  0  0  0  0
 36 37  2  0  0  0  0
 37 39  1  0  0  0  0
 38 37  1  0  0  0  0
 39 40  2  0  0  0  0
 39 24  1  0  0  0  0
 40 41  1  0  0  0  0
 42 20  1  0  0  0  0
 42 44  1  0  0  0  0
 42 43  1  0  0  0  0
M  CHG  2   3  -1  25  -1
M  END
