5,6,7,8
q = -2.0, confidence = 0.84

 42 44  0  0  1  0  0  0  0  0999 V2000
   -4.1352    0.4464   -2.4086 Cl  0  0  0  0  0  0  0  0  0  0  0  0
   -5.0650   -3.7289    0.9567 Cl  0  0  0  0  0  0  0  0  0  0  0  0
    5.0065   -4.0585    0.5591 Cl  0  0  0  0  0  0  0  0  0  0  0  0
    4.4168    0.7680   -1.8726 Cl  0  0  0  0  0  0  0  0  0  0  0  0
   -2.0181    1.1344   -0.4262 O   0  5  0  0  0  0  0  0  0  0  0  0
    1.7923    0.7500   -0.6377 O   0  5  0  0  0  0  0  0  0  0  0  0
   -0.0013   -0.0246    1.2844 N   0  0  0  0  0  0  0  0  0  0  0  0
    0.1640    2.6673    0.7085 N   0  0  0  0  0  2  0  0  0  0  0  0
   -2.7242    0.0365   -0.1211 C   0  0  0  0  0  0  0  0  0  0  0  0
   -2.4169   -0.6920    1.0535 C   0  0  0  0  0  0  0  0  0  0  0  0
   -3.1349   -1.8502    1.3875 C   0  0  0  0  0  0  0  0  0  0  0  0
   -2.8967   -2.4127    2.3017 H   0  0  0  0  0  0  0  0  0  0  0  0
   -4.1692   -2.2874    0.5458 C   0  0  0  0  0  0  0  0  0  0  0  0
   -4.4935   -1.5833   -0.6247 C   0  0  0  0  0  0  0  0  0  0  0  0
   -5.2985   -1.9326   -1.2841 H   0  0  0  0  0  0  0  0  0  0  0  0
   -3.7686   -0.4298   -0.9575 C   0  0  0  0  0  0  0  0  0  0  0  0
   -1.3417   -0.1188    1.9313 C   0  0  0  0  0  0  0  0  0  0  0  0
   -1.6245    0.9183    2.2084 H   0  0  0  0  0  0  0  0  0  0  0  0
   -1.2524   -0.7086    2.8730 H   0  0  0  0  0  0  0  0  0  0  0  0
    0.5634   -1.3752    1.0625 C   0  0  0  0  0  0  0  0  0  0  0  0
   -0.1476   -1.9036    0.3928 H   0  0  0  0  0  0  0  0  0  0  0  0
    0.5792   -1.9346    2.0287 H   0  0  0  0  0  0  0  0  0  0  0  0
    1.9566   -1.4063    0.4688 C   0  0  0  0  0  0  0  0  0  0  0  0
    2.7559   -2.5316    0.7457 C   0  0  0  0  0  0  0  0  0  0  0  0
    2.3690   -3.3333    1.3914 H   0  0  0  0  0  0  0  0  0  0  0  0
    4.0420   -2.6473    0.2056 C   0  0  0  0  0  0  0  0  0  0  0  0
    4.5711   -1.6338   -0.6087 C   0  0  0  0  0  0  0  0  0  0  0  0
    5.5810   -1.7155   -1.0306 H   0  0  0  0  0  0  0  0  0  0  0  0
    3.7878   -0.5069   -0.8758 C   0  0  0  0  0  0  0  0  0  0  0  0
    2.4680   -0.3678   -0.3581 C   0  0  0  0  0  0  0  0  0  0  0  0
    0.8680    0.8188    2.1236 C   0  0  0  0  0  0  0  0  0  0  0  0
    1.9222    0.6442    1.8267 H   0  0  0  0  0  0  0  0  0  0  0  0
    0.7866    0.5365    3.1983 H   0  0  0  0  0  0  0  0  0  0  0  0
    0.5574    2.2861    1.9418 C   0  0  1  0  0  3  0  0  0  0  0  0
    0.7128    3.2207    2.9776 C   0  0  0  0  0  0  0  0  0  0  0  0
    1.0235    2.8832    3.9772 H   0  0  0  0  0  0  0  0  0  0  0  0
    0.4668    4.5752    2.7144 C   0  0  0  0  0  0  0  0  0  0  0  0
    0.5830    5.3251    3.5113 H   0  0  0  0  0  0  0  0  0  0  0  0
    0.0658    4.9580    1.4268 C   0  0  0  0  0  0  0  0  0  0  0  0
   -0.1380    6.0086    1.1770 H   0  0  0  0  0  0  0  0  0  0  0  0
   -0.0764    3.9662    0.4487 C   0  0  0  0  0  0  0  0  0  0  0  0
   -0.3830    4.1931   -0.5846 H   0  0  0  0  0  0  0  0  0  0  0  0
  1 16  1  0  0  0  0
  4 29  1  0  0  0  0
  5  9  1  0  0  0  0
  6 30  1  0  0  0  0
  7 17  1  0  0  0  0
  7 31  1  0  0  0  0
  8 34  1  0  0  0  0
  9 10  1  0  0  0  0
 10 11  2  0  0  0  0
 10 17  1  0  0  0  0
 11 12  1  0  0  0  0
 13  2  1  0  0  0  0
 13 11  1  0  0  0  0
 14 13  2  0  0  0  0
 15 14  1  0  0  0  0
 16 14  1  0  0  0  0
 16  9  2  0  0  0  0
 17 18  1  0  0  0  0
 17 19  1  0  0  0  0
 20  7  1  0  0  0  0
 20 22  1  0  0  0  0
 21 20  1  0  0  0  0
 23 24  1  0  0  0  0
 23 20  1  0  0  0  0
 24 25  1  0  0  0  0
 26  3  1  0  0  0  0
 26 24  2  0  0  0  0
 27 26  1  0  0  0  0
 28 27  1  0  0  0  0
 29 27  2  0  0  0  0
 29 30  1  0  0  0  0
 30 23  2  0  0  0  0
 31 33  1  0  0  0  0
 32 31  1  0  0  0  0
 34 31  1  6  0  0  0
 34 35  1  0  0  0  0
 35 36  1  0  0  0  0
 37 35  2  0  0  0  0
 37 38  1  0  0  0  0
 39 37  1  0  0  0  0
 40 39  1  0  0  0  0
 41  8  1  0  0  0  0
 41 39  2  0  0  0  0
 42 41  1  0  0  0  0
M  CHG  2   5  -1   6  -1
M  END
