2,4,5,7
q = -2.0, confidence = 0.81

 22 21  0  0  1  0  0  0  0  0999 V2000
    3.7740    1.8459    0.0536 O   0  5  0  0  0  0  0  0  0  0  0  0
    1.6760    1.3522   -0.5968 O   0  0  0  0  0  0  0  0  0  0  0  0
    0.9974   -0.0722    3.6065 O   0  5  0  0  0  0  0  0  0  0  0  0
    0.3207    0.1920    1.5190 O   0  0  0  0  0  0  0  0  0  0  0  0
    1.9147   -1.1774   -0.3350 N   0  0  0  0  0  0  0  0  0  0  0  0
    1.7145   -2.0548    0.1680 H   0  0  0  0  0  0  0  0  0  0  0  0
    0.3973   -0.1675   -2.3527 N   0  0  0  0  0  0  0  0  0  0  0  0
   -0.5130   -0.1333   -2.8325 H   0  0  0  0  0  0  0  0  0  0  0  0
    0.9410    0.6611   -2.6486 H   0  0  0  0  0  0  0  0  0  0  0  0
    2.3406   -1.4652   -1.7370 C   0  0  0  0  0  0  0  0  0  0  0  0
    3.0646   -0.6788   -2.0319 H   0  0  0  0  0  0  0  0  0  0  0  0
    2.8711   -2.4366   -1.8046 H   0  0  0  0  0  0  0  0  0  0  0  0
    1.1293   -1.4174   -2.6575 C   0  0  0  0  0  0  0  0  0  0  0  0
    0.4457   -2.2697   -2.4693 H   0  0  0  0  0  0  0  0  0  0  0  0
    1.4419   -1.4764   -3.7219 H   0  0  0  0  0  0  0  0  0  0  0  0
    1.2505   -0.1024    2.4121 C   0  0  0  0  0  0  0  0  0  0  0  0
    2.6559   -0.5022    1.9379 C   0  0  0  0  0  0  0  0  0  0  0  0
    3.3805    0.1429    2.4739 H   0  0  0  0  0  0  0  0  0  0  0  0
    2.8532   -1.5333    2.3057 H   0  0  0  0  0  0  0  0  0  0  0  0
    2.9334   -0.4000    0.4415 C   0  0  2  0  0  0  0  0  0  0  0  0
    3.9525   -0.7844    0.2231 H   0  0  0  0  0  0  0  0  0  0  0  0
    2.8534    1.0622   -0.0542 C   0  0  0  0  0  0  0  0  0  0  0  0
  2 22  2  0  0  0  0
  4 16  2  0  0  0  0
  5  6  1  0  0  0  0
  5 20  1  0  0  0  0
  8  7  1  0  0  0  0
  9  7  1  0  0  0  0
 10  5  1  0  0  0  0
 11 10  1  0  0  0  0
 12 10  1  0  0  0  0
 13 14  1  0  0  0  0
 13  7  1  0  0  0  0
 13 10  1  0  0  0  0
 15 13  1  0  0  0  0
 16  3  1  0  0  0  0
 17 19  1  0  0  0  0
 17 16  1  0  0  0  0
 17 18  1  0  0  0  0
 20 21  1  6  0  0  0
 20 17  1  0  0  0  0
 22  1  1  0  0  0  0
 22 20  1  0  0  0  0
M  CHG  2   1  -1   3  -1
M  END
