1,2,5,6
q = -2.0, confidence = 0.864

 48 49  0  0  1  0  0  0  0  0999 V2000
    1.6610   -1.2397   -0.1621 O   0  5  0  0  0  0  0  0  0  0  0  0
   -1.6940    0.9332   -0.7607 O   0  0  0  0  0  1  0  0  0  0  0  0
    0.8373    2.2657    1.9121 O   0  0  0  0  0  0  0  0  0  0  0  0
    0.2765   -0.6103    2.8434 O   0  0  0  0  0  0  0  0  0  0  0  0
    1.0725    1.5653   -0.7083 N   0  0  0  0  0  2  0  0  0  0  0  0
   -1.0686   -1.6683    0.3752 N   0  0  0  0  0  2  0  0  0  0  0  0
    3.2493    0.4318   -0.9632 C   0  0  0  0  0  0  0  0  0  0  0  0
    2.8559   -0.9004   -0.5744 C   0  0  0  0  0  0  0  0  0  0  0  0
    3.8537   -1.9225   -0.6099 C   0  0  0  0  0  0  0  0  0  0  0  0
    5.1550   -1.6525   -1.0146 C   0  0  0  0  0  0  0  0  0  0  0  0
    5.5444   -0.3447   -1.3948 C   0  0  0  0  0  0  0  0  0  0  0  0
    4.5988    0.6710   -1.3540 C   0  0  0  0  0  3  0  0  0  0  0  0
    2.3705    1.5634   -0.8838 C   0  0  0  0  0  0  0  0  0  0  0  0
    0.4342    2.8463   -0.3937 C   0  0  0  0  0  0  0  0  0  0  0  0
   -0.1151    2.8446    1.0429 C   0  0  0  0  0  0  0  0  0  0  0  0
    0.3104    1.7967    3.1397 C   0  0  0  0  0  0  0  0  0  0  0  0
   -0.5382    0.5265    3.0763 C   0  0  0  0  0  0  0  0  0  0  0  0
   -0.4146   -1.8424    2.7757 C   0  0  0  0  0  0  0  0  0  0  0  0
   -0.4000   -2.4965    1.3790 C   0  0  0  0  0  0  0  0  0  0  0  0
   -3.2437   -0.9485   -0.5266 C   0  0  0  0  0  0  0  0  0  0  0  0
   -2.8773    0.3920   -0.9238 C   0  0  1  0  0  3  0  0  0  0  0  0
   -3.8927    1.2065   -1.5121 C   0  0  0  0  0  0  0  0  0  0  0  0
   -5.1802    0.7276   -1.7220 C   0  0  0  0  0  0  0  0  0  0  0  0
   -5.5389   -0.5886   -1.3415 C   0  0  0  0  0  0  0  0  0  0  0  0
   -4.5791   -1.3960   -0.7462 C   0  0  0  0  0  0  0  0  0  0  0  0
   -2.3563   -1.8250    0.1859 C   0  0  0  0  0  0  0  0  0  0  0  0
    3.5455   -2.9343   -0.3094 H   0  0  0  0  0  0  0  0  0  0  0  0
    5.8928   -2.4701   -1.0357 H   0  0  0  0  0  0  0  0  0  0  0  0
    6.5773   -0.1372   -1.7083 H   0  0  0  0  0  0  0  0  0  0  0  0
    4.8822    1.6997   -1.6296 H   0  0  0  0  0  0  0  0  0  0  0  0
    2.8600    2.5547   -0.9552 H   0  0  0  0  0  0  0  0  0  0  0  0
   -0.4158    3.0192   -1.0830 H   0  0  0  0  0  0  0  0  0  0  0  0
    1.1805    3.6574   -0.5263 H   0  0  0  0  0  0  0  0  0  0  0  0
   -0.3483    3.8982    1.3410 H   0  0  0  0  0  0  0  0  0  0  0  0
   -1.0702    2.2776    1.0455 H   0  0  0  0  0  0  0  0  0  0  0  0
   -0.3051    2.5887    3.6345 H   0  0  0  0  0  0  0  0  0  0  0  0
    1.1860    1.5945    3.7904 H   0  0  0  0  0  0  0  0  0  0  0  0
   -1.0647    0.4322    4.0596 H   0  0  0  0  0  0  0  0  0  0  0  0
   -1.3260    0.6244    2.2921 H   0  0  0  0  0  0  0  0  0  0  0  0
   -1.4719   -1.7253    3.1120 H   0  0  0  0  0  0  0  0  0  0  0  0
    0.0753   -2.5587    3.4752 H   0  0  0  0  0  0  0  0  0  0  0  0
    0.6460   -2.6482    1.0537 H   0  0  0  0  0  0  0  0  0  0  0  0
   -0.9063   -3.4842    1.4585 H   0  0  0  0  0  0  0  0  0  0  0  0
   -3.6060    2.2268   -1.8054 H   0  0  0  0  0  0  0  0  0  0  0  0
   -5.9294    1.3844   -2.1915 H   0  0  0  0  0  0  0  0  0  0  0  0
   -6.5598   -0.9606   -1.5077 H   0  0  0  0  0  0  0  0  0  0  0  0
   -4.8405   -2.4175   -0.4254 H   0  0  0  0  0  0  0  0  0  0  0  0
   -2.8258   -2.7107    0.6610 H   0  0  0  0  0  0  0  0  0  0  0  0
  3 16  1  0  0  0  0
  4 17  1  0  0  0  0
  5 14  1  0  0  0  0
  6 19  1  0  0  0  0
  7 13  2  0  0  0  0
  7  8  1  0  0  0  0
  8  1  1  0  0  0  0
  9  8  2  0  0  0  0
  9 27  1  0  0  0  0
 10  9  1  0  0  0  0
 11 12  1  0  0  0  0
 11 10  2  0  0  0  0
 12  7  1  0  0  0  0
 13  5  1  0  0  0  0
 14 15  1  0  0  0  0
 15 35  1  0  0  0  0
 15 34  1  0  0  0  0
 15  3  1  0  0  0  0
 16 36  1  0  0  0  0
 16 37  1  0  0  0  0
 17 16  1  0  0  0  0
 17 38  1  0  0  0  0
 18  4  1  0  0  0  0
 18 40  1  0  0  0  0
 18 41  1  0  0  0  0
 19 43  1  0  0  0  0
 19 18  1  0  0  0  0
 20 26  2  0  0  0  0
 21  2  1  1  0  0  0
 21 20  1  0  0  0  0
 22 21  1  0  0  0  0
 23 22  2  0  0  0  0
 23 24  1  0  0  0  0
 24 25  2  0  0  0  0
 25 20  1  0  0  0  0
 25 47  1  0  0  0  0
 26  6  1  0  0  0  0
 26 48  1  0  0  0  0
 28 10  1  0  0  0  0
 29 11  1  0  0  0  0
 30 12  1  0  0  0  0
 31 13  1  0  0  0  0
 32 14  1  0  0  0  0
 33 14  1  0  0  0  0
 39 17  1  0  0  0  0
 42 19  1  0  0  0  0
 44 22  1  0  0  0  0
 45 23  1  0  0  0  0
 46 24  1  0  0  0  0
M  CHG  1   1  -1
M  END
