5,8,9,10
q = -2.0, confidence = 0.802

 38 37  0  0  0  0  0  0  0  0999 V2000
   -2.7860   -0.8254    0.0256 P   0  0  1  0  0  0  0  0  0  0  0  0
    2.3977   -0.9153    0.8300 P   0  0  2  0  0  0  0  0  0  0  0  0
   -3.1933   -0.3168   -1.5359 O   0  0  0  0  0  0  0  0  0  0  0  0
   -3.9433   -1.5255    0.6904 O   0  0  0  0  0  0  0  0  0  0  0  0
   -1.4385   -1.6382   -0.1548 O   0  0  0  0  0  1  0  0  0  0  0  0
    2.4072   -2.0630   -0.3776 O   0  0  0  0  0  0  0  0  0  0  0  0
    3.3279   -1.1575    1.9832 O   0  0  0  0  0  0  0  0  0  0  0  0
    0.8587   -0.6728    1.1463 O   0  0  0  0  0  1  0  0  0  0  0  0
   -1.2705    1.3718   -0.0950 N   0  0  0  0  0  0  0  0  0  0  0  0
    1.5540    0.9045   -0.9542 N   0  0  0  0  0  0  0  0  0  0  0  0
   -2.3342    0.8497    0.7797 C   0  0  0  0  0  0  0  0  0  0  0  0
   -0.2071    2.2726    0.2864 C   0  0  0  0  0  0  0  0  0  0  0  0
    0.8918    2.2201   -0.8031 C   0  0  0  0  0  0  0  0  0  0  0  0
    2.8272    0.5882   -0.2255 C   0  0  0  0  0  0  0  0  0  0  0  0
   -1.8506    0.5950    2.2097 C   0  0  0  0  0  0  0  0  0  0  0  0
   -3.5854    1.7429    0.7656 C   0  0  0  0  0  0  0  0  0  0  0  0
    3.2779    1.6814    0.7469 C   0  0  0  0  0  0  0  0  0  0  0  0
    3.9257    0.2662   -1.2426 C   0  0  0  0  0  0  0  0  0  0  0  0
   -4.0491   -0.7334   -1.7602 H   0  0  0  0  0  0  0  0  0  0  0  0
    1.9207   -2.8588   -0.0791 H   0  0  0  0  0  0  0  0  0  0  0  0
   -1.6377    1.5746   -1.0326 H   0  0  0  0  0  0  0  0  0  0  0  0
    1.6242    0.6610   -1.9521 H   0  0  0  0  0  0  0  0  0  0  0  0
    0.2051    1.9519    1.2635 H   0  0  0  0  0  0  0  0  0  0  0  0
   -0.5152    3.3426    0.3862 H   0  0  0  0  0  0  0  0  0  0  0  0
    1.6430    3.0098   -0.6088 H   0  0  0  0  0  0  0  0  0  0  0  0
    0.4173    2.4377   -1.7802 H   0  0  0  0  0  0  0  0  0  0  0  0
   -0.9238   -0.0088    2.2268 H   0  0  0  0  0  0  0  0  0  0  0  0
   -1.6723    1.5541    2.7397 H   0  0  0  0  0  0  0  0  0  0  0  0
   -2.6390    0.0448    2.7580 H   0  0  0  0  0  0  0  0  0  0  0  0
   -3.9382    1.9129   -0.2710 H   0  0  0  0  0  0  0  0  0  0  0  0
   -4.4070    1.2610    1.3306 H   0  0  0  0  0  0  0  0  0  0  0  0
   -3.3617    2.7235    1.2353 H   0  0  0  0  0  0  0  0  0  0  0  0
    4.1235    1.2808    1.3370 H   0  0  0  0  0  0  0  0  0  0  0  0
    2.4870    1.9574    1.4702 H   0  0  0  0  0  0  0  0  0  0  0  0
    3.6185    2.5916    0.2126 H   0  0  0  0  0  0  0  0  0  0  0  0
    4.8274   -0.1014   -0.7147 H   0  0  0  0  0  0  0  0  0  0  0  0
    4.2055    1.1754   -1.8155 H   0  0  0  0  0  0  0  0  0  0  0  0
    3.6037   -0.5293   -1.9419 H   0  0  0  0  0  0  0  0  0  0  0  0
  1  5  1  6  0  0  0
  1  4  2  0  0  0  0
  1 11  1  0  0  0  0
  2  8  1  1  0  0  0
  2  7  2  0  0  0  0
  3  1  1  0  0  0  0
  6 20  1  0  0  0  0
  6  2  1  0  0  0  0
  9 12  1  0  0  0  0
  9 11  1  0  0  0  0
 10 13  1  0  0  0  0
 10 14  1  0  0  0  0
 11 15  1  0  0  0  0
 12 24  1  0  0  0  0
 12 23  1  0  0  0  0
 13 25  1  0  0  0  0
 13 12  1  0  0  0  0
 14 17  1  0  0  0  0
 14  2  1  0  0  0  0
 15 27  1  0  0  0  0
 15 28  1  0  0  0  0
 15 29  1  0  0  0  0
 16 11  1  0  0  0  0
 16 32  1  0  0  0  0
 16 31  1  0  0  0  0
 17 33  1  0  0  0  0
 17 34  1  0  0  0  0
 18 36  1  0  0  0  0
 18 14  1  0  0  0  0
 19  3  1  0  0  0  0
 21  9  1  0  0  0  0
 22 10  1  0  0  0  0
 26 13  1  0  0  0  0
 30 16  1  0  0  0  0
 35 17  1  0  0  0  0
 37 18  1  0  0  0  0
 38 18  1  0  0  0  0
M  END
