3,4,5,6
q = -2.0, confidence = 0.726

 36 36  0  0  0  0  0  0  0  0999 V2000
    3.5504    0.8513   -0.0010 O   0  0  0  0  0  0  0  0  0  0  0  0
   -3.5504    0.8513   -0.0009 O   0  0  0  0  0  0  0  0  0  0  0  0
    1.4328   -2.0850   -0.0002 O   0  0  0  0  0  1  0  0  0  0  0  0
   -1.4328   -2.0850    0.0010 O   0  0  0  0  0  1  0  0  0  0  0  0
    1.2655    0.4764    0.0006 N   0  0  0  0  0  2  0  0  0  0  0  0
   -1.2655    0.4764    0.0008 N   0  0  0  0  0  2  0  0  0  0  0  0
    2.5766    0.0884   -0.0003 C   0  0  0  0  0  0  0  0  0  0  0  0
   -2.5766    0.0884   -0.0002 C   0  0  0  0  0  0  0  0  0  0  0  0
    2.6866   -1.4663   -0.0001 C   0  0  0  0  0  0  0  0  0  0  0  0
   -2.6866   -1.4663   -0.0002 C   0  0  0  0  0  0  0  0  0  0  0  0
    3.4658   -1.8654    1.2696 C   0  0  0  0  0  0  0  0  0  0  0  0
   -3.4648   -1.8656   -1.2705 C   0  0  0  0  0  0  0  0  0  0  0  0
    3.4659   -1.8657   -1.2697 C   0  0  0  0  0  0  0  0  0  0  0  0
   -3.4670   -1.8655    1.2688 C   0  0  0  0  0  0  0  0  0  0  0  0
    0.7163    1.7686    0.0003 C   0  0  0  0  0  0  0  0  0  0  0  0
   -0.7163    1.7686    0.0005 C   0  0  0  0  0  0  0  0  0  0  0  0
    1.4211    2.9885   -0.0001 C   0  0  0  0  0  0  0  0  0  0  0  0
   -1.4211    2.9885    0.0003 C   0  0  0  0  0  0  0  0  0  0  0  0
    0.7023    4.1979   -0.0003 C   0  0  0  0  0  0  0  0  0  0  0  0
   -0.7023    4.1979   -0.0001 C   0  0  0  0  0  0  0  0  0  0  0  0
    2.5176    2.9579   -0.0002 H   0  0  0  0  0  0  0  0  0  0  0  0
    1.2538    5.1519   -0.0005 H   0  0  0  0  0  0  0  0  0  0  0  0
   -2.5176    2.9579    0.0003 H   0  0  0  0  0  0  0  0  0  0  0  0
   -1.2538    5.1519   -0.0003 H   0  0  0  0  0  0  0  0  0  0  0  0
    2.8648   -1.6016    2.1629 H   0  0  0  0  0  0  0  0  0  0  0  0
    3.6344   -2.9617    1.2770 H   0  0  0  0  0  0  0  0  0  0  0  0
    4.4399   -1.3366    1.3207 H   0  0  0  0  0  0  0  0  0  0  0  0
    3.6347   -2.9620   -1.2768 H   0  0  0  0  0  0  0  0  0  0  0  0
    2.8649   -1.6023   -2.1631 H   0  0  0  0  0  0  0  0  0  0  0  0
    4.4399   -1.3367   -1.3209 H   0  0  0  0  0  0  0  0  0  0  0  0
   -3.6335   -2.9619   -1.2779 H   0  0  0  0  0  0  0  0  0  0  0  0
   -4.4387   -1.3367   -1.3225 H   0  0  0  0  0  0  0  0  0  0  0  0
   -2.8630   -1.6021   -2.1633 H   0  0  0  0  0  0  0  0  0  0  0  0
   -4.4410   -1.3366    1.3191 H   0  0  0  0  0  0  0  0  0  0  0  0
   -3.6356   -2.9618    1.2760 H   0  0  0  0  0  0  0  0  0  0  0  0
   -2.8667   -1.6018    2.1626 H   0  0  0  0  0  0  0  0  0  0  0  0
  1  7  2  0  0  0  0
  2  8  2  0  0  0  0
  3  9  1  0  0  0  0
  7  9  1  0  0  0  0
  7  5  1  0  0  0  0
  8  6  1  0  0  0  0
  9 11  1  0  0  0  0
 10  8  1  0  0  0  0
 10  4  1  0  0  0  0
 10 14  1  0  0  0  0
 11 26  1  0  0  0  0
 11 27  1  0  0  0  0
 11 25  1  0  0  0  0
 12 10  1  0  0  0  0
 13  9  1  0  0  0  0
 14 35  1  0  0  0  0
 14 34  1  0  0  0  0
 14 36  1  0  0  0  0
 15 16  1  0  0  0  0
 15  5  1  0  0  0  0
 16  6  1  0  0  0  0
 17 15  2  0  0  0  0
 18 23  1  0  0  0  0
 18 16  2  0  0  0  0
 19 20  2  0  0  0  0
 19 17  1  0  0  0  0
 20 18  1  0  0  0  0
 21 17  1  0  0  0  0
 22 19  1  0  0  0  0
 24 20  1  0  0  0  0
 28 13  1  0  0  0  0
 29 13  1  0  0  0  0
 30 13  1  0  0  0  0
 31 12  1  0  0  0  0
 32 12  1  0  0  0  0
 33 12  1  0  0  0  0
M  END
