1,2,3,4
q = -2.0, confidence = 0.856

 58 59  0  0  1  0  0  0  0  0999 V2000
   -1.3621   -0.9566   -1.2846 O   0  5  0  0  0  0  0  0  0  0  0  0
    1.4370    1.6763   -0.1142 O   0  0  0  0  0  1  0  0  0  0  0  0
   -1.6283    1.3789   -0.2389 N   0  0  0  0  0  2  0  0  0  0  0  0
    1.6895   -0.7321   -0.9852 N   0  0  0  0  0  2  0  0  0  0  0  0
   -2.7880    0.7930   -0.5796 C   0  0  0  0  0  0  0  0  0  0  0  0
    2.8524   -0.0767   -0.8337 C   0  0  0  0  0  0  0  0  0  0  0  0
   -2.5972   -0.5388   -1.1936 C   0  0  0  0  0  0  0  0  0  0  0  0
   -4.0616    1.4029   -0.3379 C   0  0  0  0  0  3  0  0  0  0  0  0
    3.6882    2.2184    0.0190 C   0  0  0  0  0  0  0  0  0  0  0  0
   -3.6037   -1.4089   -1.6682 C   0  0  0  0  0  0  0  0  0  0  0  0
    4.1163   -0.6669   -1.1564 C   0  0  0  0  0  0  0  0  0  0  0  0
    5.0848    2.1257   -0.0868 C   0  0  0  0  0  0  0  0  0  0  0  0
   -1.5560    2.5913    0.5605 C   0  0  0  0  0  0  0  0  0  0  0  0
   -5.7987   -0.2162   -1.2515 C   0  0  0  0  0  0  0  0  0  0  0  0
   -5.3509    0.9734   -0.6375 C   0  0  0  0  0  0  0  0  0  0  0  0
    5.8724    1.0747   -0.5631 C   0  0  0  0  0  0  0  0  0  0  0  0
   -1.8479    2.3828    2.0624 C   0  0  0  0  0  0  0  0  0  0  0  0
   -5.0003   -1.2700   -1.7015 C   0  0  0  0  0  0  0  0  0  0  0  0
   -1.1976   -0.0708    2.6026 C   0  0  0  0  0  0  0  0  0  0  0  0
    5.4111   -0.1680   -1.0477 C   0  0  0  0  0  0  0  0  0  0  0  0
    2.0880   -3.0560   -0.1100 C   0  0  0  0  0  0  0  0  0  0  0  0
    1.5780   -2.6748    1.2860 C   0  0  0  0  0  0  0  0  0  0  0  0
    1.6030   -2.1559   -1.2708 C   0  0  0  0  0  0  0  0  0  0  0  0
   -0.3755   -2.4827    2.9447 C   0  0  0  0  0  0  0  0  0  0  0  0
    0.0716   -2.8401    1.5151 C   0  0  0  0  0  0  0  0  0  0  0  0
   -0.9015    1.4209    2.8021 C   0  0  0  0  0  0  0  0  0  0  0  0
   -0.2270   -1.0018    3.3343 C   0  0  0  0  0  0  0  0  0  0  0  0
    2.6706    1.2966   -0.3146 C   0  0  2  0  0  3  0  0  0  0  0  0
   -4.0096    2.3844    0.1539 H   0  0  0  0  0  0  0  0  0  0  0  0
    3.2809    3.1560    0.4298 H   0  0  0  0  0  0  0  0  0  0  0  0
   -3.1871   -2.3467   -2.0690 H   0  0  0  0  0  0  0  0  0  0  0  0
    4.0483   -1.6807   -1.5763 H   0  0  0  0  0  0  0  0  0  0  0  0
    5.6325    3.0195    0.2556 H   0  0  0  0  0  0  0  0  0  0  0  0
   -2.2421    3.3684    0.1520 H   0  0  0  0  0  0  0  0  0  0  0  0
   -0.5273    2.9875    0.4451 H   0  0  0  0  0  0  0  0  0  0  0  0
   -6.8867   -0.3249   -1.3789 H   0  0  0  0  0  0  0  0  0  0  0  0
   -6.1464    1.6788   -0.3438 H   0  0  0  0  0  0  0  0  0  0  0  0
    6.9624    1.2289   -0.5627 H   0  0  0  0  0  0  0  0  0  0  0  0
   -1.7885    3.3887    2.5310 H   0  0  0  0  0  0  0  0  0  0  0  0
   -2.8989    2.0450    2.1983 H   0  0  0  0  0  0  0  0  0  0  0  0
   -5.5375   -2.1250   -2.1448 H   0  0  0  0  0  0  0  0  0  0  0  0
   -2.2417   -0.2925    2.9201 H   0  0  0  0  0  0  0  0  0  0  0  0
   -1.1535   -0.2982    1.5186 H   0  0  0  0  0  0  0  0  0  0  0  0
    6.1975   -0.8590   -1.3950 H   0  0  0  0  0  0  0  0  0  0  0  0
    3.1979   -3.0546   -0.0832 H   0  0  0  0  0  0  0  0  0  0  0  0
    1.7898   -4.0989   -0.3559 H   0  0  0  0  0  0  0  0  0  0  0  0
    2.1230   -3.2918    2.0342 H   0  0  0  0  0  0  0  0  0  0  0  0
    1.8753   -1.6243    1.4930 H   0  0  0  0  0  0  0  0  0  0  0  0
    2.1717   -2.4076   -2.1962 H   0  0  0  0  0  0  0  0  0  0  0  0
    0.5392   -2.3652   -1.4963 H   0  0  0  0  0  0  0  0  0  0  0  0
    0.2035   -3.1058    3.6623 H   0  0  0  0  0  0  0  0  0  0  0  0
   -1.4392   -2.7809    3.0756 H   0  0  0  0  0  0  0  0  0  0  0  0
   -0.2092   -3.8962    1.3067 H   0  0  0  0  0  0  0  0  0  0  0  0
   -0.4922   -2.2315    0.7759 H   0  0  0  0  0  0  0  0  0  0  0  0
   -0.9430    1.6514    3.8897 H   0  0  0  0  0  0  0  0  0  0  0  0
    0.1458    1.6289    2.4873 H   0  0  0  0  0  0  0  0  0  0  0  0
   -0.3645   -0.8954    4.4330 H   0  0  0  0  0  0  0  0  0  0  0  0
    0.8150   -0.6666    3.1345 H   0  0  0  0  0  0  0  0  0  0  0  0
  1  7  1  0  0  0  0
  3 13  1  0  0  0  0
  4  6  1  0  0  0  0
  5  8  1  0  0  0  0
  5  3  1  0  0  0  0
  6 28  1  0  0  0  0
  7  5  2  0  0  0  0
  8 29  1  0  0  0  0
  9 30  1  0  0  0  0
 10  7  1  0  0  0  0
 11 20  1  0  0  0  0
 11  6  2  0  0  0  0
 12  9  2  0  0  0  0
 12 33  1  0  0  0  0
 13 17  1  0  0  0  0
 14 15  2  0  0  0  0
 15 37  1  0  0  0  0
 15  8  1  0  0  0  0
 16 38  1  0  0  0  0
 16 12  1  0  0  0  0
 17 40  1  0  0  0  0
 17 39  1  0  0  0  0
 17 26  1  0  0  0  0
 18 10  2  0  0  0  0
 18 14  1  0  0  0  0
 19 26  1  0  0  0  0
 19 42  1  0  0  0  0
 19 27  1  0  0  0  0
 20 16  2  0  0  0  0
 21 45  1  0  0  0  0
 21 22  1  0  0  0  0
 22 48  1  0  0  0  0
 22 25  1  0  0  0  0
 22 47  1  0  0  0  0
 23  4  1  0  0  0  0
 23 21  1  0  0  0  0
 24 52  1  0  0  0  0
 24 27  1  0  0  0  0
 24 51  1  0  0  0  0
 25 24  1  0  0  0  0
 26 55  1  0  0  0  0
 27 57  1  0  0  0  0
 28  2  1  1  0  0  0
 28  9  1  0  0  0  0
 31 10  1  0  0  0  0
 32 11  1  0  0  0  0
 34 13  1  0  0  0  0
 35 13  1  0  0  0  0
 36 14  1  0  0  0  0
 41 18  1  0  0  0  0
 43 19  1  0  0  0  0
 44 20  1  0  0  0  0
 46 21  1  0  0  0  0
 49 23  1  0  0  0  0
 50 23  1  0  0  0  0
 53 25  1  0  0  0  0
 54 25  1  0  0  0  0
 56 26  1  0  0  0  0
 58 27  1  0  0  0  0
M  CHG  1   1  -1
M  END
