19,20,21,23
q = -2.0, confidence = 0.81

 24 25  0  0  1  0  0  0  0  0999 V2000
    0.0004    3.1705    0.2118 C   0  0  0  0  0  0  0  0  0  0  0  0
    0.0005    2.4166    1.5503 C   0  0  1  0  0  3  0  0  0  0  0  0
    0.0006    2.9802    2.8262 C   0  0  0  0  0  0  0  0  0  0  0  0
    0.0008    4.0766    2.9103 H   0  0  0  0  0  0  0  0  0  0  0  0
    0.0006    2.1235    3.9487 C   0  0  0  0  0  0  0  0  0  0  0  0
    0.0008    2.5454    4.9644 H   0  0  0  0  0  0  0  0  0  0  0  0
    0.0004    0.7287    3.7786 C   0  0  0  0  0  0  0  0  0  0  0  0
    0.0004    0.0582    4.6501 H   0  0  0  0  0  0  0  0  0  0  0  0
    0.0003    0.1907    2.4789 C   0  0  0  0  0  0  0  0  0  0  0  0
   -0.0000   -1.2177    2.0465 C   0  0  1  0  0  3  0  0  0  0  0  0
   -0.0004   -2.3942    2.8162 C   0  0  0  0  0  0  0  0  0  0  0  0
   -0.0003   -2.3303    3.9140 H   0  0  0  0  0  0  0  0  0  0  0  0
   -0.0008   -3.6445    2.1709 C   0  0  0  0  0  0  0  0  0  0  0  0
   -0.0010   -4.5648    2.7733 H   0  0  0  0  0  0  0  0  0  0  0  0
   -0.0009   -3.7189    0.7615 C   0  0  0  0  0  0  0  0  0  0  0  0
   -0.0013   -4.6708    0.2106 H   0  0  0  0  0  0  0  0  0  0  0  0
   -0.0006   -2.5347    0.0222 C   0  0  0  0  0  0  0  0  0  0  0  0
   -0.0007   -2.3991   -1.5092 C   0  0  0  0  0  0  0  0  0  0  0  0
    0.0003    1.0693    1.4107 N   0  0  0  0  0  2  0  0  0  0  0  0
   -0.0002   -1.3406    0.6645 N   0  0  0  0  0  2  0  0  0  0  0  0
    0.0002    2.3883   -0.8467 O   0  5  0  0  0  0  0  0  0  0  0  0
    0.0005    4.3991    0.2165 O   0  0  0  0  0  0  0  0  0  0  0  0
   -0.0004   -1.1593   -1.9371 O   0  5  0  0  0  0  0  0  0  0  0  0
   -0.0010   -3.4209   -2.1939 O   0  0  0  0  0  0  0  0  0  0  0  0
  1 22  2  0  0  0  0
  2  1  1  1  0  0  0
  2  3  1  0  0  0  0
  3  4  1  0  0  0  0
  3  5  2  0  0  0  0
  5  6  1  0  0  0  0
  7  5  1  0  0  0  0
  7  8  1  0  0  0  0
  9  7  2  0  0  0  0
 10  9  1  1  0  0  0
 10 11  1  0  0  0  0
 11 12  1  0  0  0  0
 13 14  1  0  0  0  0
 13 11  2  0  0  0  0
 15 13  1  0  0  0  0
 16 15  1  0  0  0  0
 17 20  1  0  0  0  0
 17 15  2  0  0  0  0
 18 17  1  0  0  0  0
 19  2  1  0  0  0  0
 19  9  1  0  0  0  0
 20 10  1  0  0  0  0
 21  1  1  0  0  0  0
 23 18  1  0  0  0  0
 24 18  2  0  0  0  0
M  CHG  2  21  -1  23  -1
M  END
