24,25,26,27
q = -1.0, confidence = 0.418

 30 30  0  0  1  0  0  0  0  0999 V2000
    1.7165    0.1209   -0.0008 C   0  0  2  0  0  3  0  0  0  0  0  0
    3.0013    0.7627   -0.0007 C   0  0  0  0  0  0  0  0  0  0  0  0
    2.9827    1.8599   -0.0015 H   0  0  0  0  0  0  0  0  0  0  0  0
    4.1857    0.0276    0.0003 C   0  0  0  0  0  0  0  0  0  0  0  0
    4.1616   -1.3957    0.0011 C   0  0  0  0  0  0  0  0  0  0  0  0
    5.1141   -1.9436    0.0019 H   0  0  0  0  0  0  0  0  0  0  0  0
    2.9324   -2.0392    0.0010 C   0  0  0  0  0  0  0  0  0  0  0  0
    2.8984   -3.1419    0.0017 H   0  0  0  0  0  0  0  0  0  0  0  0
    1.6977   -1.3335    0.0001 C   0  0  0  0  0  0  0  0  0  0  0  0
    0.4657   -2.0625   -0.0001 C   0  0  0  0  0  0  0  0  0  0  0  0
    0.5386   -3.1707    0.0001 H   0  0  0  0  0  0  0  0  0  0  0  0
   -1.9170   -2.3885   -0.0013 C   0  0  0  0  0  0  0  0  0  0  0  0
   -1.9282   -3.0533    0.8913 H   0  0  0  0  0  0  0  0  0  0  0  0
   -1.9290   -3.0505   -0.8960 H   0  0  0  0  0  0  0  0  0  0  0  0
   -3.1992   -1.5350    0.0003 C   0  0  0  0  0  0  0  0  0  0  0  0
   -3.8367    0.8424    0.0018 C   0  0  0  0  0  0  0  0  0  0  0  0
   -4.5097    0.8119    0.8904 H   0  0  0  0  0  0  0  0  0  0  0  0
   -4.5121    0.8111   -0.8848 H   0  0  0  0  0  0  0  0  0  0  0  0
   -3.0561    2.1755    0.0004 C   0  0  0  0  0  0  0  0  0  0  0  0
    5.5257    1.9951    0.0005 C   0  0  0  0  0  0  0  0  0  0  0  0
    5.0490    2.4452   -0.9006 H   0  0  0  0  0  0  0  0  0  0  0  0
    6.6041    2.2470    0.0015 H   0  0  0  0  0  0  0  0  0  0  0  0
    5.0473    2.4452    0.9006 H   0  0  0  0  0  0  0  0  0  0  0  0
   -0.7347   -1.5258   -0.0006 N   0  0  0  0  0  2  0  0  0  0  0  0
   -2.8734   -0.2289    0.0010 N   0  0  0  0  0  2  0  0  0  0  0  0
    0.6588    0.8625   -0.0018 O   0  0  0  0  0  1  0  0  0  0  0  0
   -1.7489    2.0272   -0.0005 O   0  5  0  0  0  0  0  0  0  0  0  0
   -3.6308    3.2628    0.0003 O   0  0  0  0  0  0  0  0  0  0  0  0
   -4.3361   -2.0345    0.0006 O   0  0  0  0  0  0  0  0  0  0  0  0
    5.4386    0.5883    0.0005 O   0  0  0  0  0  0  0  0  0  0  0  0
  1 26  1  6  0  0  0
  1  2  1  0  0  0  0
  1  9  1  0  0  0  0
  2  4  2  0  0  0  0
  3  2  1  0  0  0  0
  4 30  1  0  0  0  0
  4  5  1  0  0  0  0
  5  6  1  0  0  0  0
  7  5  2  0  0  0  0
  7  8  1  0  0  0  0
  9  7  1  0  0  0  0
 10  9  2  0  0  0  0
 10 11  1  0  0  0  0
 12 24  1  0  0  0  0
 12 15  1  0  0  0  0
 12 13  1  0  0  0  0
 14 12  1  0  0  0  0
 15 29  2  0  0  0  0
 15 25  1  0  0  0  0
 16 17  1  0  0  0  0
 18 16  1  0  0  0  0
 19 16  1  0  0  0  0
 20 22  1  0  0  0  0
 20 23  1  0  0  0  0
 21 20  1  0  0  0  0
 24 10  1  0  0  0  0
 25 16  1  0  0  0  0
 27 19  1  0  0  0  0
 28 19  2  0  0  0  0
 30 20  1  0  0  0  0
M  CHG  1  27  -1
M  END
