1,2,25,41
q = -2.0, confidence = 0.858

 45 46  0  0  0  0  0  0  0  0999 V2000
    1.1637    0.2978    0.6721 O   0  5  0  0  0  0  0  0  0  0  0  0
    1.4940   -2.3102    0.0251 N   0  0  0  0  0  2  0  0  0  0  0  0
    2.0117    2.7732    0.6425 O   0  0  0  0  0  0  0  0  0  0  0  0
    2.2806    0.5167    0.0381 C   0  0  0  0  0  0  0  0  0  0  0  0
    2.7787    1.8691   -0.0204 C   0  0  0  0  0  0  0  0  0  0  0  0
    3.9406    2.1578   -0.7364 C   0  0  0  0  0  0  0  0  0  0  0  0
    4.2896    3.1968   -0.8153 H   0  0  0  0  0  0  0  0  0  0  0  0
    4.6885    1.1251   -1.3609 C   0  0  0  0  0  0  0  0  0  0  0  0
    5.6075    1.3809   -1.9077 H   0  0  0  0  0  0  0  0  0  0  0  0
    4.2632   -0.1908   -1.2748 C   0  0  0  0  0  3  0  0  0  0  0  0
    4.8423   -1.0026   -1.7415 H   0  0  0  0  0  0  0  0  0  0  0  0
    3.0538   -0.5107   -0.5886 C   0  0  0  0  0  0  0  0  0  0  0  0
    2.6477   -1.8726   -0.4306 C   0  0  0  0  0  0  0  0  0  0  0  0
    3.4042   -2.6410   -0.6902 H   0  0  0  0  0  0  0  0  0  0  0  0
    1.3909   -3.7428    0.2912 C   0  0  0  0  0  0  0  0  0  0  0  0
    2.3280   -4.2479   -0.0300 H   0  0  0  0  0  0  0  0  0  0  0  0
    1.3080   -3.8828    1.3925 H   0  0  0  0  0  0  0  0  0  0  0  0
    0.1892   -4.3823   -0.3920 C   0  0  0  0  0  0  0  0  0  0  0  0
    0.2414   -4.2079   -1.4877 H   0  0  0  0  0  0  0  0  0  0  0  0
    0.2312   -5.4794   -0.2298 H   0  0  0  0  0  0  0  0  0  0  0  0
    2.1941    4.1436    0.3418 C   0  0  0  0  0  0  0  0  0  0  0  0
    3.1916    4.5148    0.6695 H   0  0  0  0  0  0  0  0  0  0  0  0
    1.4093    4.6908    0.8963 H   0  0  0  0  0  0  0  0  0  0  0  0
    2.0649    4.3300   -0.7465 H   0  0  0  0  0  0  0  0  0  0  0  0
   -1.2983    0.0786    0.8554 O   0  5  0  0  0  0  0  0  0  0  0  0
   -2.3454    0.2953    0.1150 C   0  0  0  0  0  0  0  0  0  0  0  0
   -2.9393    1.6108    0.1241 C   0  0  0  0  0  0  0  0  0  0  0  0
   -2.3525    2.4821    0.9811 O   0  0  0  0  0  0  0  0  0  0  0  0
   -2.5389    3.8661    0.7475 C   0  0  0  0  0  0  0  0  0  0  0  0
   -3.6007    4.1781    0.8707 H   0  0  0  0  0  0  0  0  0  0  0  0
   -1.9273    4.3925    1.5042 H   0  0  0  0  0  0  0  0  0  0  0  0
   -2.1713    4.1346   -0.2667 H   0  0  0  0  0  0  0  0  0  0  0  0
   -4.0085    1.8965   -0.7290 C   0  0  0  0  0  0  0  0  0  0  0  0
   -4.4185    2.9154   -0.7653 H   0  0  0  0  0  0  0  0  0  0  0  0
   -4.5835    0.8875   -1.5448 C   0  0  0  0  0  0  0  0  0  0  0  0
   -5.4340    1.1406   -2.1941 H   0  0  0  0  0  0  0  0  0  0  0  0
   -4.0788   -0.4044   -1.5170 C   0  0  0  0  0  3  0  0  0  0  0  0
   -4.5289   -1.1993   -2.1317 H   0  0  0  0  0  0  0  0  0  0  0  0
   -2.9493   -0.7122   -0.7043 C   0  0  0  0  0  0  0  0  0  0  0  0
   -2.4582   -2.0534   -0.5948 C   0  0  0  0  0  0  0  0  0  0  0  0
   -1.3166   -2.4317   -0.0618 N   0  0  0  0  0  2  0  0  0  0  0  0
   -1.1328   -3.8639    0.1566 C   0  0  0  0  0  0  0  0  0  0  0  0
   -1.9832   -4.4223   -0.2930 H   0  0  0  0  0  0  0  0  0  0  0  0
   -1.1695   -4.0482    1.2541 H   0  0  0  0  0  0  0  0  0  0  0  0
   -3.1293   -2.8559   -0.9636 H   0  0  0  0  0  0  0  0  0  0  0  0
  2 15  1  0  0  0  0
  4  1  1  0  0  0  0
  5  4  2  0  0  0  0
  5  3  1  0  0  0  0
  6  5  1  0  0  0  0
  7  6  1  0  0  0  0
  8 10  1  0  0  0  0
  8  6  2  0  0  0  0
  9  8  1  0  0  0  0
 10 12  1  0  0  0  0
 11 10  1  0  0  0  0
 12 13  2  0  0  0  0
 12  4  1  0  0  0  0
 13  2  1  0  0  0  0
 14 13  1  0  0  0  0
 15 17  1  0  0  0  0
 16 15  1  0  0  0  0
 18 20  1  0  0  0  0
 18 42  1  0  0  0  0
 18 15  1  0  0  0  0
 19 18  1  0  0  0  0
 21  3  1  0  0  0  0
 21 22  1  0  0  0  0
 21 23  1  0  0  0  0
 24 21  1  0  0  0  0
 26 27  2  0  0  0  0
 26 25  1  0  0  0  0
 27 28  1  0  0  0  0
 29 30  1  0  0  0  0
 29 28  1  0  0  0  0
 29 31  1  0  0  0  0
 32 29  1  0  0  0  0
 33 27  1  0  0  0  0
 34 33  1  0  0  0  0
 35 37  1  0  0  0  0
 35 33  2  0  0  0  0
 36 35  1  0  0  0  0
 37 39  1  0  0  0  0
 38 37  1  0  0  0  0
 39 40  2  0  0  0  0
 39 26  1  0  0  0  0
 40 41  1  0  0  0  0
 41 42  1  0  0  0  0
 42 44  1  0  0  0  0
 43 42  1  0  0  0  0
 45 40  1  0  0  0  0
M  CHG  2   1  -1  25  -1
M  END
