1,2,3,4
q = -2.0, confidence = 0.816

 82 84  0  0  1  0  0  0  0  0999 V2000
    1.8497   -1.7786    1.1964 N   0  0  0  0  0  2  0  0  0  0  0  0
   -0.7228   -2.0253    1.2570 N   0  0  0  0  0  2  0  0  0  0  0  0
   -0.6000   -3.2039   -1.1681 O   0  5  0  0  0  0  0  0  0  0  0  0
    1.8690   -2.8723   -1.2521 O   0  5  0  0  0  0  0  0  0  0  0  0
    5.9185   -1.5939   -1.3196 O   0  0  0  0  0  0  0  0  0  0  0  0
    3.4376    3.5519    0.4535 O   0  0  0  0  0  0  0  0  0  0  0  0
   -4.1312    2.2474    0.1013 O   0  0  0  0  0  0  0  0  0  0  0  0
   -4.7887   -3.6008   -0.6708 O   0  0  0  0  0  0  0  0  0  0  0  0
   -2.9138   -1.7959    2.3089 C   0  0  0  0  0  0  0  0  0  0  0  0
   -2.0435   -2.1479    1.1173 C   0  0  2  0  0  3  0  0  0  0  0  0
   -2.6570   -2.6809   -0.0674 C   0  0  0  0  0  0  0  0  0  0  0  0
   -1.8781   -3.2569   -1.1147 C   0  0  0  0  0  0  0  0  0  0  0  0
   -2.5093   -3.9743   -2.2851 C   0  0  0  0  0  0  0  0  0  0  0  0
   -0.1589   -1.3998    2.4546 C   0  0  0  0  0  0  0  0  0  0  0  0
    1.3027   -1.7974    2.5513 C   0  0  0  0  0  0  0  0  0  0  0  0
    4.0150   -1.1394    2.1340 C   0  0  0  0  0  0  0  0  0  0  0  0
    3.1276   -1.5042    0.9581 C   0  0  1  0  0  3  0  0  0  0  0  0
    3.7194   -1.6593   -0.3460 C   0  0  0  0  0  0  0  0  0  0  0  0
    3.0715   -2.4419   -1.3477 C   0  0  0  0  0  0  0  0  0  0  0  0
    3.7685   -2.8385   -2.6270 C   0  0  0  0  0  0  0  0  0  0  0  0
    5.0388   -1.0414   -0.6511 C   0  0  0  0  0  0  0  0  0  0  0  0
    5.2608    0.3779   -0.1788 C   0  0  0  0  0  0  0  0  0  0  0  0
    6.5734    0.8120    0.0800 C   0  0  0  0  0  0  0  0  0  0  0  0
    6.7934    2.1279    0.5143 C   0  0  0  0  0  0  0  0  0  0  0  0
    5.7253    3.0228    0.6496 C   0  0  0  0  0  0  0  0  0  0  0  0
    4.4106    2.6062    0.3435 C   0  0  0  0  0  0  0  0  0  0  0  0
    4.1786    1.2756   -0.0545 C   0  0  0  0  0  0  0  0  0  0  0  0
    2.1371    3.2589   -0.0501 C   0  0  0  0  0  0  0  0  0  0  0  0
    1.3121    4.5356    0.0077 C   0  0  0  0  0  0  0  0  0  0  0  0
   -0.0389    4.4169   -0.7019 C   0  0  0  0  0  0  0  0  0  0  0  0
   -0.8580    5.7114   -0.6355 C   0  0  0  0  0  0  0  0  0  0  0  0
   -2.0922    5.7379   -1.5492 C   0  0  0  0  0  0  0  0  0  0  0  0
   -3.1163    4.6182   -1.3221 C   0  0  0  0  0  0  0  0  0  0  0  0
   -3.7381    4.6008    0.0773 C   0  0  0  0  0  0  0  0  0  0  0  0
   -4.7794    3.5073    0.2588 C   0  0  0  0  0  0  0  0  0  0  0  0
   -4.8792    1.1104    0.1525 C   0  0  0  0  0  0  0  0  0  0  0  0
   -6.2693    1.0781    0.3902 C   0  0  0  0  0  0  0  0  0  0  0  0
   -6.9394   -0.1594    0.4090 C   0  0  0  0  0  0  0  0  0  0  0  0
   -6.2489   -1.3560    0.2032 C   0  0  0  0  0  0  0  0  0  0  0  0
   -4.8524   -1.3282   -0.0079 C   0  0  0  0  0  0  0  0  0  0  0  0
   -4.1786   -0.0970   -0.0468 C   0  0  0  0  0  0  0  0  0  0  0  0
   -4.1382   -2.6393   -0.2508 C   0  0  0  0  0  0  0  0  0  0  0  0
   -3.9739   -2.0378    2.1365 H   0  0  0  0  0  0  0  0  0  0  0  0
   -2.8514   -0.7181    2.5624 H   0  0  0  0  0  0  0  0  0  0  0  0
   -2.5796   -2.3671    3.1996 H   0  0  0  0  0  0  0  0  0  0  0  0
   -3.0209   -4.8934   -1.9417 H   0  0  0  0  0  0  0  0  0  0  0  0
   -1.7148   -4.2204   -3.0120 H   0  0  0  0  0  0  0  0  0  0  0  0
   -3.2921   -3.3573   -2.7681 H   0  0  0  0  0  0  0  0  0  0  0  0
   -0.2439   -0.2914    2.3650 H   0  0  0  0  0  0  0  0  0  0  0  0
   -0.6926   -1.6914    3.3821 H   0  0  0  0  0  0  0  0  0  0  0  0
    1.3901   -2.8267    2.9701 H   0  0  0  0  0  0  0  0  0  0  0  0
    1.8362   -1.1132    3.2407 H   0  0  0  0  0  0  0  0  0  0  0  0
    5.0693   -1.0314    1.8346 H   0  0  0  0  0  0  0  0  0  0  0  0
    3.9624   -1.9355    2.9051 H   0  0  0  0  0  0  0  0  0  0  0  0
    3.7049   -0.1866    2.6096 H   0  0  0  0  0  0  0  0  0  0  0  0
    4.6342   -3.4920   -2.4086 H   0  0  0  0  0  0  0  0  0  0  0  0
    4.1900   -1.9561   -3.1472 H   0  0  0  0  0  0  0  0  0  0  0  0
    3.0399   -3.3565   -3.2760 H   0  0  0  0  0  0  0  0  0  0  0  0
    7.3999    0.1009   -0.0618 H   0  0  0  0  0  0  0  0  0  0  0  0
    7.8148    2.4699    0.7420 H   0  0  0  0  0  0  0  0  0  0  0  0
    5.8805    4.0630    0.9710 H   0  0  0  0  0  0  0  0  0  0  0  0
    3.1663    0.9212   -0.2899 H   0  0  0  0  0  0  0  0  0  0  0  0
    2.2133    2.8910   -1.1005 H   0  0  0  0  0  0  0  0  0  0  0  0
    1.6594    2.4442    0.5454 H   0  0  0  0  0  0  0  0  0  0  0  0
   -5.5919    3.6120   -0.4990 H   0  0  0  0  0  0  0  0  0  0  0  0
   -5.2516    3.5689    1.2670 H   0  0  0  0  0  0  0  0  0  0  0  0
   -4.2255    5.5766    0.2935 H   0  0  0  0  0  0  0  0  0  0  0  0
   -2.9528    4.4662    0.8520 H   0  0  0  0  0  0  0  0  0  0  0  0
    1.9106    5.3470   -0.4595 H   0  0  0  0  0  0  0  0  0  0  0  0
    1.1690    4.8311    1.0697 H   0  0  0  0  0  0  0  0  0  0  0  0
    0.1309    4.1461   -1.7688 H   0  0  0  0  0  0  0  0  0  0  0  0
   -0.6216    3.5739   -0.2679 H   0  0  0  0  0  0  0  0  0  0  0  0
   -0.2005    6.5642   -0.9125 H   0  0  0  0  0  0  0  0  0  0  0  0
   -1.1547    5.9023    0.4199 H   0  0  0  0  0  0  0  0  0  0  0  0
   -2.5975    6.7226   -1.4365 H   0  0  0  0  0  0  0  0  0  0  0  0
   -1.7518    5.6930   -2.6070 H   0  0  0  0  0  0  0  0  0  0  0  0
   -2.6543    3.6276   -1.5171 H   0  0  0  0  0  0  0  0  0  0  0  0
   -3.9302    4.7196   -2.0735 H   0  0  0  0  0  0  0  0  0  0  0  0
   -6.8363    2.0038    0.5548 H   0  0  0  0  0  0  0  0  0  0  0  0
   -8.0257   -0.1742    0.5880 H   0  0  0  0  0  0  0  0  0  0  0  0
   -6.7578   -2.3304    0.1972 H   0  0  0  0  0  0  0  0  0  0  0  0
   -3.0976   -0.0485   -0.2431 H   0  0  0  0  0  0  0  0  0  0  0  0
  1 15  1  0  0  0  0
  2 14  1  0  0  0  0
  3 12  1  0  0  0  0
  5 21  2  0  0  0  0
  7 36  1  0  0  0  0
  7 35  1  0  0  0  0
  8 42  2  0  0  0  0
  9 44  1  0  0  0  0
  9 45  1  0  0  0  0
 10  2  1  0  0  0  0
 10  9  1  1  0  0  0
 11 10  1  0  0  0  0
 12 11  2  0  0  0  0
 13 46  1  0  0  0  0
 13 12  1  0  0  0  0
 14 15  1  0  0  0  0
 14 50  1  0  0  0  0
 15 51  1  0  0  0  0
 15 52  1  0  0  0  0
 16 55  1  0  0  0  0
 16 54  1  0  0  0  0
 17  1  1  0  0  0  0
 17 16  1  1  0  0  0
 18 17  1  0  0  0  0
 19  4  1  0  0  0  0
 19 18  2  0  0  0  0
 20 56  1  0  0  0  0
 20 19  1  0  0  0  0
 21 18  1  0  0  0  0
 21 22  1  0  0  0  0
 22 27  2  0  0  0  0
 22 23  1  0  0  0  0
 23 24  2  0  0  0  0
 24 25  1  0  0  0  0
 24 60  1  0  0  0  0
 25 61  1  0  0  0  0
 26  6  1  0  0  0  0
 26 25  2  0  0  0  0
 27 26  1  0  0  0  0
 28 29  1  0  0  0  0
 28  6  1  0  0  0  0
 28 64  1  0  0  0  0
 29 70  1  0  0  0  0
 30 31  1  0  0  0  0
 30 72  1  0  0  0  0
 30 29  1  0  0  0  0
 31 74  1  0  0  0  0
 32 75  1  0  0  0  0
 32 33  1  0  0  0  0
 32 31  1  0  0  0  0
 33 34  1  0  0  0  0
 34 35  1  0  0  0  0
 34 67  1  0  0  0  0
 34 68  1  0  0  0  0
 35 66  1  0  0  0  0
 36 37  1  0  0  0  0
 37 38  2  0  0  0  0
 37 79  1  0  0  0  0
 38 80  1  0  0  0  0
 39 38  1  0  0  0  0
 40 39  2  0  0  0  0
 41 40  1  0  0  0  0
 41 36  2  0  0  0  0
 42 11  1  0  0  0  0
 42 40  1  0  0  0  0
 43  9  1  0  0  0  0
 47 13  1  0  0  0  0
 48 13  1  0  0  0  0
 49 14  1  0  0  0  0
 53 16  1  0  0  0  0
 57 20  1  0  0  0  0
 58 20  1  0  0  0  0
 59 23  1  0  0  0  0
 62 27  1  0  0  0  0
 63 28  1  0  0  0  0
 65 35  1  0  0  0  0
 69 29  1  0  0  0  0
 71 30  1  0  0  0  0
 73 31  1  0  0  0  0
 76 32  1  0  0  0  0
 77 33  1  0  0  0  0
 78 33  1  0  0  0  0
 81 39  1  0  0  0  0
 82 41  1  0  0  0  0
M  CHG  2   3  -1   4  -1
M  END
