1,17,29,45
q = -2.0, confidence = 0.878

 54 55  0  0  1  0  0  0  0  0999 V2000
    1.3264    0.4327   -1.1913 O   0  0  0  0  0  1  0  0  0  0  0  0
    2.2277   -0.5094   -1.2975 C   0  0  1  0  0  3  0  0  0  0  0  0
    2.7533   -0.8112   -2.5909 C   0  0  0  0  0  0  0  0  0  0  0  0
    2.3504   -0.2397   -3.4401 H   0  0  0  0  0  0  0  0  0  0  0  0
    3.7122   -1.8022   -2.7753 C   0  0  0  0  0  0  0  0  0  0  0  0
    4.0764   -2.0224   -3.7913 H   0  0  0  0  0  0  0  0  0  0  0  0
    4.2100   -2.5343   -1.6744 C   0  0  0  0  0  0  0  0  0  0  0  0
    4.9507   -3.3334   -1.8215 H   0  0  0  0  0  0  0  0  0  0  0  0
    3.7519   -2.2263   -0.3951 C   0  0  0  0  0  0  0  0  0  0  0  0
    4.1443   -2.7970    0.4598 H   0  0  0  0  0  0  0  0  0  0  0  0
    2.7747   -1.2220   -0.1652 C   0  0  0  0  0  0  0  0  0  0  0  0
    2.3866   -0.8197    1.1827 C   0  0  0  0  0  0  0  0  0  0  0  0
    3.3361   -1.0828    2.3338 C   0  0  0  0  0  0  0  0  0  0  0  0
    4.2874   -1.5173    1.9866 H   0  0  0  0  0  0  0  0  0  0  0  0
    2.8865   -1.7735    3.0775 H   0  0  0  0  0  0  0  0  0  0  0  0
    3.5783   -0.1427    2.8676 H   0  0  0  0  0  0  0  0  0  0  0  0
    1.2438   -0.2016    1.3959 N   0  0  0  0  0  2  0  0  0  0  0  0
    0.9311    0.3869    2.6973 C   0  0  0  0  0  0  0  0  0  0  0  0
    1.3397   -0.2212    3.5302 H   0  0  0  0  0  0  0  0  0  0  0  0
   -0.1699    0.3527    2.7864 H   0  0  0  0  0  0  0  0  0  0  0  0
    1.4354    1.8439    2.8258 C   0  0  0  0  0  0  0  0  0  0  0  0
    2.4775    1.8676    3.2098 H   0  0  0  0  0  0  0  0  0  0  0  0
    0.8173    2.3470    3.6011 H   0  0  0  0  0  0  0  0  0  0  0  0
    1.4256    2.6600    1.5306 C   0  0  0  0  0  0  0  0  0  0  0  0
    1.7258    3.7120    1.7759 H   0  0  0  0  0  0  0  0  0  0  0  0
    2.2097    2.2653    0.8471 H   0  0  0  0  0  0  0  0  0  0  0  0
    0.1707    2.5909    0.7954 N   0  0  0  0  0  0  0  0  0  0  0  0
   -0.6393    2.7699    1.4027 H   0  0  0  0  0  0  0  0  0  0  0  0
   -1.4322   -0.1114    1.3061 O   0  5  0  0  0  0  0  0  0  0  0  0
   -2.4175   -0.8889    0.9420 C   0  0  0  0  0  0  0  0  0  0  0  0
   -2.9847   -1.7833    1.8997 C   0  0  0  0  0  0  0  0  0  0  0  0
   -2.5397   -1.7883    2.9056 H   0  0  0  0  0  0  0  0  0  0  0  0
   -4.0365   -2.6318    1.5675 C   0  0  0  0  0  0  0  0  0  0  0  0
   -4.4342   -3.3256    2.3250 H   0  0  0  0  0  0  0  0  0  0  0  0
   -4.5867   -2.6192    0.2665 C   0  0  0  0  0  0  0  0  0  0  0  0
   -5.4016   -3.3062   -0.0037 H   0  0  0  0  0  0  0  0  0  0  0  0
   -4.0852   -1.7191   -0.6722 C   0  0  0  0  0  3  0  0  0  0  0  0
   -4.5189   -1.7115   -1.6835 H   0  0  0  0  0  0  0  0  0  0  0  0
   -3.0134   -0.8383   -0.3717 C   0  0  0  0  0  0  0  0  0  0  0  0
   -2.5646    0.1858   -1.3103 C   0  0  0  0  0  0  0  0  0  0  0  0
   -3.5424    0.6853   -2.3556 C   0  0  0  0  0  0  0  0  0  0  0  0
   -4.5273    0.2031   -2.2469 H   0  0  0  0  0  0  0  0  0  0  0  0
   -3.1755    0.5007   -3.3866 H   0  0  0  0  0  0  0  0  0  0  0  0
   -3.6995    1.7784   -2.2558 H   0  0  0  0  0  0  0  0  0  0  0  0
   -1.3534    0.6988   -1.2222 N   0  0  0  0  0  2  0  0  0  0  0  0
   -0.9600    1.8224   -2.0697 C   0  0  0  0  0  0  0  0  0  0  0  0
   -1.5901    1.8746   -2.9783 H   0  0  0  0  0  0  0  0  0  0  0  0
    0.0809    1.6253   -2.3939 H   0  0  0  0  0  0  0  0  0  0  0  0
   -1.0180    3.1759   -1.3334 C   0  0  0  0  0  0  0  0  0  0  0  0
   -1.0123    3.9782   -2.1013 H   0  0  0  0  0  0  0  0  0  0  0  0
   -1.9880    3.2715   -0.7955 H   0  0  0  0  0  0  0  0  0  0  0  0
    0.1494    3.4485   -0.3819 C   0  0  0  0  0  0  0  0  0  0  0  0
    1.0972    3.2605   -0.9309 H   0  0  0  0  0  0  0  0  0  0  0  0
    0.1582    4.5372   -0.1125 H   0  0  0  0  0  0  0  0  0  0  0  0
  2  1  1  1  0  0  0
  2 11  1  0  0  0  0
  3  2  1  0  0  0  0
  4  3  1  0  0  0  0
  5  3  2  0  0  0  0
  5  7  1  0  0  0  0
  6  5  1  0  0  0  0
  7  9  2  0  0  0  0
  8  7  1  0  0  0  0
  9 11  1  0  0  0  0
  9 10  1  0  0  0  0
 11 12  2  0  0  0  0
 12 17  1  0  0  0  0
 12 13  1  0  0  0  0
 13 16  1  0  0  0  0
 13 15  1  0  0  0  0
 14 13  1  0  0  0  0
 17 18  1  0  0  0  0
 18 20  1  0  0  0  0
 18 21  1  0  0  0  0
 18 19  1  0  0  0  0
 21 22  1  0  0  0  0
 21 23  1  0  0  0  0
 24 25  1  0  0  0  0
 24 21  1  0  0  0  0
 26 24  1  0  0  0  0
 27 28  1  0  0  0  0
 27 24  1  0  0  0  0
 30 29  1  0  0  0  0
 30 31  2  0  0  0  0
 31 32  1  0  0  0  0
 33 31  1  0  0  0  0
 33 34  1  0  0  0  0
 35 33  2  0  0  0  0
 36 35  1  0  0  0  0
 37 39  1  0  0  0  0
 37 35  1  0  0  0  0
 38 37  1  0  0  0  0
 39 30  1  0  0  0  0
 40 45  1  0  0  0  0
 40 39  2  0  0  0  0
 41 44  1  0  0  0  0
 41 42  1  0  0  0  0
 41 40  1  0  0  0  0
 43 41  1  0  0  0  0
 46 49  1  0  0  0  0
 46 45  1  0  0  0  0
 47 46  1  0  0  0  0
 48 46  1  0  0  0  0
 49 51  1  0  0  0  0
 49 52  1  0  0  0  0
 50 49  1  0  0  0  0
 52 54  1  0  0  0  0
 52 27  1  0  0  0  0
 53 52  1  0  0  0  0
M  CHG  1  29  -1
M  END
