1,2,3,4
q = 0.0, confidence = 0.994

 58 60  0  0  0  0  0  0  0  0999 V2000
    0.0130    1.6859    0.8474 O   0  5  0  0  0  0  0  0  0  0  0  0
    0.8569   -0.5471   -0.5364 O   0  5  0  0  0  0  0  0  0  0  0  0
   -0.6919   -2.4692    1.0429 N   0  0  0  0  0  2  0  0  0  0  0  0
   -1.1618   -0.2153    2.6518 N   0  0  0  0  0  2  0  0  0  0  0  0
    2.0041    0.6500   -2.5754 N   0  0  0  0  0  0  0  0  0  0  0  0
    1.1978    0.5747   -1.9091 H   0  0  0  0  0  0  0  0  0  0  0  0
    1.3492    3.1720   -0.8062 N   0  0  0  0  0  0  0  0  0  0  0  0
    0.4943    2.6174   -0.5422 H   0  0  0  0  0  0  0  0  0  0  0  0
   -1.7094   -3.1213    1.8709 C   0  0  0  0  0  0  0  0  0  0  0  0
   -1.2316   -3.7339    2.6733 H   0  0  0  0  0  0  0  0  0  0  0  0
   -2.2654   -3.8227    1.2100 H   0  0  0  0  0  0  0  0  0  0  0  0
   -2.7299   -2.1455    2.4545 C   0  0  0  0  0  0  0  0  0  0  0  0
   -3.4562   -2.7247    3.0610 H   0  0  0  0  0  0  0  0  0  0  0  0
   -3.3376   -1.7104    1.6357 H   0  0  0  0  0  0  0  0  0  0  0  0
   -2.1656   -1.0262    3.3345 C   0  0  0  0  0  0  0  0  0  0  0  0
   -3.0125   -0.3519    3.5895 H   0  0  0  0  0  0  0  0  0  0  0  0
   -1.7596   -1.4349    4.2923 H   0  0  0  0  0  0  0  0  0  0  0  0
   -0.1156    0.1197    3.3331 C   0  0  0  0  0  3  0  0  0  0  0  0
   -0.0136   -0.2605    4.3794 H   0  0  0  0  0  0  0  0  0  0  0  0
    1.0013    0.9546    2.9035 C   0  0  0  0  0  0  0  0  0  0  0  0
    2.1039    1.0636    3.7607 C   0  0  0  0  0  0  0  0  0  0  0  0
    2.0700    0.5039    4.7117 H   0  0  0  0  0  0  0  0  0  0  0  0
    3.2571    1.8434    3.4809 C   0  0  0  0  0  0  0  0  0  0  0  0
    3.2763    2.5408    2.2759 C   0  0  0  0  0  0  0  0  0  0  0  0
    4.1573    3.1508    2.0137 H   0  0  0  0  0  0  0  0  0  0  0  0
    2.1903    2.4892    1.3584 C   0  0  0  0  0  0  0  0  0  0  0  0
    0.9965    1.6988    1.6548 C   0  0  0  0  0  0  0  0  0  0  0  0
    2.2890    3.1787    0.1196 C   0  0  0  0  0  3  0  0  0  0  0  0
    3.2131    3.7462   -0.1006 H   0  0  0  0  0  0  0  0  0  0  0  0
    4.4000    1.8965    4.4624 C   0  0  0  0  0  0  0  0  0  0  0  0
    5.2251    2.5346    4.0917 H   0  0  0  0  0  0  0  0  0  0  0  0
    4.8159    0.8858    4.6574 H   0  0  0  0  0  0  0  0  0  0  0  0
    4.0739    2.3039    5.4424 H   0  0  0  0  0  0  0  0  0  0  0  0
    1.4508    3.7859   -2.1240 C   0  0  0  0  0  0  0  0  0  0  0  0
    1.7714    4.8423   -2.0036 H   0  0  0  0  0  0  0  0  0  0  0  0
    0.4318    3.7778   -2.5563 H   0  0  0  0  0  0  0  0  0  0  0  0
    2.4205    3.0762   -3.0836 C   0  0  0  0  0  0  0  0  0  0  0  0
    2.5252    3.7282   -3.9759 H   0  0  0  0  0  0  0  0  0  0  0  0
    3.4321    3.0105   -2.6253 H   0  0  0  0  0  0  0  0  0  0  0  0
    1.9869    1.6914   -3.5902 C   0  0  0  0  0  0  0  0  0  0  0  0
    0.9492    1.7545   -3.9815 H   0  0  0  0  0  0  0  0  0  0  0  0
    2.6566    1.3808   -4.4182 H   0  0  0  0  0  0  0  0  0  0  0  0
    2.8994   -0.3140   -2.4742 C   0  0  0  0  0  3  0  0  0  0  0  0
    3.7391   -0.2879   -3.1940 H   0  0  0  0  0  0  0  0  0  0  0  0
    2.8325   -1.3889   -1.5474 C   0  0  0  0  0  0  0  0  0  0  0  0
    2.6505   -3.6512    0.0791 C   0  0  0  0  0  0  0  0  0  0  0  0
    2.5648   -4.5605    0.6993 H   0  0  0  0  0  0  0  0  0  0  0  0
    3.8475   -2.3861   -1.5699 C   0  0  0  0  0  0  0  0  0  0  0  0
    4.6934   -2.2594   -2.2667 H   0  0  0  0  0  0  0  0  0  0  0  0
    3.7926   -3.5113   -0.7524 C   0  0  0  0  0  0  0  0  0  0  0  0
    1.6031   -2.7225    0.1417 C   0  0  0  0  0  0  0  0  0  0  0  0
    1.6979   -1.4980   -0.6332 C   0  0  0  0  0  0  0  0  0  0  0  0
    0.4523   -3.0661    0.9708 C   0  0  0  0  0  3  0  0  0  0  0  0
    0.6072   -3.9962    1.5712 H   0  0  0  0  0  0  0  0  0  0  0  0
    4.8680   -4.5676   -0.7582 C   0  0  0  0  0  0  0  0  0  0  0  0
    4.4574   -5.5627   -1.0291 H   0  0  0  0  0  0  0  0  0  0  0  0
    5.3371   -4.6750    0.2424 H   0  0  0  0  0  0  0  0  0  0  0  0
    5.6706   -4.3265   -1.4815 H   0  0  0  0  0  0  0  0  0  0  0  0
  1 27  1  0  0  0  0
  3  9  1  0  0  0  0
  4 18  1  0  0  0  0
  4 15  1  0  0  0  0
  5 43  1  0  0  0  0
  5  6  1  0  0  0  0
  7  8  1  0  0  0  0
  7 28  1  0  0  0  0
  9 12  1  0  0  0  0
  9 10  1  0  0  0  0
 11  9  1  0  0  0  0
 12 13  1  0  0  0  0
 12 15  1  0  0  0  0
 14 12  1  0  0  0  0
 15 16  1  0  0  0  0
 15 17  1  0  0  0  0
 18 19  1  0  0  0  0
 20 18  1  0  0  0  0
 20 21  1  0  0  0  0
 21 22  1  0  0  0  0
 23 21  2  0  0  0  0
 23 30  1  0  0  0  0
 24 23  1  0  0  0  0
 25 24  1  0  0  0  0
 26 27  1  0  0  0  0
 26 24  2  0  0  0  0
 27 20  2  0  0  0  0
 28 26  1  0  0  0  0
 29 28  1  0  0  0  0
 30 32  1  0  0  0  0
 30 33  1  0  0  0  0
 31 30  1  0  0  0  0
 34 35  1  0  0  0  0
 34  7  1  0  0  0  0
 36 34  1  0  0  0  0
 37 39  1  0  0  0  0
 37 34  1  0  0  0  0
 38 37  1  0  0  0  0
 40 37  1  0  0  0  0
 40  5  1  0  0  0  0
 41 40  1  0  0  0  0
 42 40  1  0  0  0  0
 43 45  1  0  0  0  0
 44 43  1  0  0  0  0
 45 52  1  0  0  0  0
 46 51  1  0  0  0  0
 46 47  1  0  0  0  0
 48 45  2  0  0  0  0
 48 50  1  0  0  0  0
 49 48  1  0  0  0  0
 50 46  2  0  0  0  0
 51 53  1  0  0  0  0
 52  2  1  0  0  0  0
 52 51  2  0  0  0  0
 53  3  1  0  0  0  0
 53 54  1  0  0  0  0
 55 50  1  0  0  0  0
 55 57  1  0  0  0  0
 56 55  1  0  0  0  0
 58 55  1  0  0  0  0
M  CHG  2   1  -1   2  -1
M  END
