1,2,5,6
q = -2.0, confidence = 0.834

 75 76  0  0  1  0  0  0  0  0999 V2000
   -1.4531   -0.2949   -1.0367 O   0  5  0  0  0  0  0  0  0  0  0  0
    2.4756    0.2255   -0.3664 O   0  0  0  0  0  1  0  0  0  0  0  0
   -3.8615   -1.1365   -1.4458 O   0  0  0  0  0  0  0  0  0  0  0  0
    4.8797    1.1050   -0.0886 O   0  0  0  0  0  0  0  0  0  0  0  0
    0.3668    1.9825   -0.8283 N   0  0  0  0  0  2  0  0  0  0  0  0
    0.6799   -2.0609   -0.5562 N   0  0  0  0  0  2  0  0  0  0  0  0
   -2.0085    2.0274   -1.5351 C   0  0  0  0  0  0  0  0  0  0  0  0
   -2.3015    0.6317   -1.3923 C   0  0  0  0  0  0  0  0  0  0  0  0
   -3.6582    0.1983   -1.6384 C   0  0  0  0  0  0  0  0  0  0  0  0
   -4.6381    1.1088   -2.0314 C   0  0  0  0  0  0  0  0  0  0  0  0
   -4.3261    2.4833   -2.1900 C   0  0  0  0  0  0  0  0  0  0  0  0
   -3.0396    2.9296   -1.9420 C   0  0  0  0  0  3  0  0  0  0  0  0
   -0.7267    2.5935   -1.2159 C   0  0  0  0  0  0  0  0  0  0  0  0
    1.4843    2.8122   -0.3514 C   0  0  0  0  0  0  0  0  0  0  0  0
    1.5316    2.8208    1.1850 C   0  0  0  0  0  0  0  0  0  0  0  0
    0.3535    3.5476    1.8443 C   0  0  0  0  0  0  0  0  0  0  0  0
    0.0843    3.1433    3.3019 C   0  0  0  0  0  0  0  0  0  0  0  0
   -1.6336    1.3143    2.6822 C   0  0  0  0  0  0  0  0  0  0  0  0
   -2.2542   -0.0289    3.0811 C   0  0  0  0  0  0  0  0  0  0  0  0
   -3.3776   -0.4706    2.1366 C   0  0  0  0  0  0  0  0  0  0  0  0
   -4.0640   -1.7974    2.4930 C   0  0  0  0  0  0  0  0  0  0  0  0
   -3.2015   -3.0732    2.4541 C   0  0  0  0  0  0  0  0  0  0  0  0
   -2.5288   -3.3755    1.0995 C   0  0  0  0  0  0  0  0  0  0  0  0
   -1.1425   -2.7442    0.9493 C   0  0  0  0  0  0  0  0  0  0  0  0
   -0.5438   -2.8697   -0.4546 C   0  0  0  0  0  0  0  0  0  0  0  0
    3.1494   -2.1170   -0.3569 C   0  0  0  0  0  0  0  0  0  0  0  0
    3.3869   -0.7054   -0.3006 C   0  0  2  0  0  3  0  0  0  0  0  0
    4.7506   -0.2505   -0.1484 C   0  0  0  0  0  0  0  0  0  0  0  0
    5.8010   -1.1645   -0.0795 C   0  0  0  0  0  0  0  0  0  0  0  0
    5.5506   -2.5600   -0.1464 C   0  0  0  0  0  0  0  0  0  0  0  0
    4.2529   -3.0228   -0.2781 C   0  0  0  0  0  0  0  0  0  0  0  0
    1.8304   -2.6797   -0.4414 C   0  0  0  0  0  0  0  0  0  0  0  0
   -5.1732   -1.6353   -1.6075 C   0  0  0  0  0  0  0  0  0  0  0  0
    6.1787    1.6374    0.0591 C   0  0  0  0  0  0  0  0  0  0  0  0
   -5.6643    0.7658   -2.2211 H   0  0  0  0  0  0  0  0  0  0  0  0
   -5.1129    3.1850   -2.5018 H   0  0  0  0  0  0  0  0  0  0  0  0
   -2.7897    3.9969   -2.0448 H   0  0  0  0  0  0  0  0  0  0  0  0
   -0.6732    3.6979   -1.2816 H   0  0  0  0  0  0  0  0  0  0  0  0
    1.3555    3.8434   -0.7468 H   0  0  0  0  0  0  0  0  0  0  0  0
    2.4279    2.3868   -0.7380 H   0  0  0  0  0  0  0  0  0  0  0  0
    2.4955    3.2760    1.4983 H   0  0  0  0  0  0  0  0  0  0  0  0
    1.5809    1.7626    1.5133 H   0  0  0  0  0  0  0  0  0  0  0  0
   -0.5727    3.3617    1.2592 H   0  0  0  0  0  0  0  0  0  0  0  0
    0.5209    4.6456    1.7899 H   0  0  0  0  0  0  0  0  0  0  0  0
   -2.6397    0.0294    4.1246 H   0  0  0  0  0  0  0  0  0  0  0  0
   -1.4516   -0.7985    3.1048 H   0  0  0  0  0  0  0  0  0  0  0  0
   -4.1519    0.3277    2.1103 H   0  0  0  0  0  0  0  0  0  0  0  0
   -2.9841   -0.5262    1.0996 H   0  0  0  0  0  0  0  0  0  0  0  0
   -4.9188   -1.9407    1.7945 H   0  0  0  0  0  0  0  0  0  0  0  0
   -4.5170   -1.7125    3.5064 H   0  0  0  0  0  0  0  0  0  0  0  0
   -3.8581   -3.9246    2.7330 H   0  0  0  0  0  0  0  0  0  0  0  0
   -2.4230   -3.0340    3.2485 H   0  0  0  0  0  0  0  0  0  0  0  0
   -3.1783   -3.0088    0.2747 H   0  0  0  0  0  0  0  0  0  0  0  0
   -2.4433   -4.4756    0.9604 H   0  0  0  0  0  0  0  0  0  0  0  0
   -1.1949   -1.6635    1.1795 H   0  0  0  0  0  0  0  0  0  0  0  0
   -0.4392   -3.1852    1.6905 H   0  0  0  0  0  0  0  0  0  0  0  0
   -0.3017   -3.9274   -0.6965 H   0  0  0  0  0  0  0  0  0  0  0  0
   -1.2748   -2.4906   -1.1933 H   0  0  0  0  0  0  0  0  0  0  0  0
    6.8350   -0.8094    0.0287 H   0  0  0  0  0  0  0  0  0  0  0  0
    6.3931   -3.2640   -0.0884 H   0  0  0  0  0  0  0  0  0  0  0  0
    4.0471   -4.1036   -0.3210 H   0  0  0  0  0  0  0  0  0  0  0  0
    1.7862   -3.7855   -0.3844 H   0  0  0  0  0  0  0  0  0  0  0  0
   -5.1285   -2.7156   -1.3743 H   0  0  0  0  0  0  0  0  0  0  0  0
   -5.5428   -1.5034   -2.6496 H   0  0  0  0  0  0  0  0  0  0  0  0
   -5.8904   -1.1452   -0.9104 H   0  0  0  0  0  0  0  0  0  0  0  0
    6.0669    2.7372    0.0900 H   0  0  0  0  0  0  0  0  0  0  0  0
    6.8405    1.3648   -0.7947 H   0  0  0  0  0  0  0  0  0  0  0  0
    6.6633    1.2962    1.0025 H   0  0  0  0  0  0  0  0  0  0  0  0
   -0.3927    1.6938    3.4990 C   0  0  0  0  0  0  0  0  0  0  0  0
    1.0000    3.3130    3.9107 H   0  0  0  0  0  0  0  0  0  0  0  0
   -0.6875    3.8282    3.7176 H   0  0  0  0  0  0  0  0  0  0  0  0
   -1.3659    1.2686    1.6039 H   0  0  0  0  0  0  0  0  0  0  0  0
   -2.4028    2.1156    2.7700 H   0  0  0  0  0  0  0  0  0  0  0  0
    0.4262    0.9819    3.2518 H   0  0  0  0  0  0  0  0  0  0  0  0
   -0.6024    1.5392    4.5805 H   0  0  0  0  0  0  0  0  0  0  0  0
  4 34  1  0  0  0  0
  5 14  1  0  0  0  0
  6 25  1  0  0  0  0
  6 32  1  0  0  0  0
  7  8  1  0  0  0  0
  7 13  2  0  0  0  0
  8  1  1  0  0  0  0
  9  3  1  0  0  0  0
  9  8  2  0  0  0  0
 10  9  1  0  0  0  0
 11 10  2  0  0  0  0
 11 12  1  0  0  0  0
 12  7  1  0  0  0  0
 13  5  1  0  0  0  0
 14 15  1  0  0  0  0
 15 41  1  0  0  0  0
 15 42  1  0  0  0  0
 15 16  1  0  0  0  0
 16 17  1  0  0  0  0
 17 69  1  0  0  0  0
 17 71  1  0  0  0  0
 17 70  1  0  0  0  0
 18 73  1  0  0  0  0
 18 19  1  0  0  0  0
 18 69  1  0  0  0  0
 19 46  1  0  0  0  0
 19 45  1  0  0  0  0
 20 21  1  0  0  0  0
 20 19  1  0  0  0  0
 21 50  1  0  0  0  0
 22 21  1  0  0  0  0
 22 51  1  0  0  0  0
 22 52  1  0  0  0  0
 23 22  1  0  0  0  0
 24 23  1  0  0  0  0
 24 55  1  0  0  0  0
 24 56  1  0  0  0  0
 25 24  1  0  0  0  0
 26 27  1  0  0  0  0
 26 31  1  0  0  0  0
 27  2  1  1  0  0  0
 27 28  1  0  0  0  0
 28  4  1  0  0  0  0
 28 29  2  0  0  0  0
 29 59  1  0  0  0  0
 30 60  1  0  0  0  0
 30 29  1  0  0  0  0
 31 30  2  0  0  0  0
 32 62  1  0  0  0  0
 32 26  2  0  0  0  0
 33  3  1  0  0  0  0
 33 63  1  0  0  0  0
 33 65  1  0  0  0  0
 34 66  1  0  0  0  0
 34 68  1  0  0  0  0
 35 10  1  0  0  0  0
 36 11  1  0  0  0  0
 37 12  1  0  0  0  0
 38 13  1  0  0  0  0
 39 14  1  0  0  0  0
 40 14  1  0  0  0  0
 43 16  1  0  0  0  0
 44 16  1  0  0  0  0
 47 20  1  0  0  0  0
 48 20  1  0  0  0  0
 49 21  1  0  0  0  0
 53 23  1  0  0  0  0
 54 23  1  0  0  0  0
 57 25  1  0  0  0  0
 58 25  1  0  0  0  0
 61 31  1  0  0  0  0
 64 33  1  0  0  0  0
 67 34  1  0  0  0  0
 69 75  1  0  0  0  0
 72 18  1  0  0  0  0
 74 69  1  0  0  0  0
M  CHG  1   1  -1
M  END
