1,2,5,6
q = -2.0, confidence = 0.828

 69 70  0  0  1  0  0  0  0  0999 V2000
    1.7170   -1.1288    0.0029 O   0  5  0  0  0  0  0  0  0  0  0  0
   -2.1021   -0.0251   -0.7148 O   0  0  0  0  0  1  0  0  0  0  0  0
    6.3698   -1.7771   -0.7908 O   0  0  0  0  0  0  0  0  0  0  0  0
   -6.8400   -0.5101   -0.8620 O   0  0  0  0  0  0  0  0  0  0  0  0
    0.3638    0.6943   -1.8492 N   0  0  0  0  0  2  0  0  0  0  0  0
   -0.7296   -1.6476    1.2882 N   0  0  0  0  0  2  0  0  0  0  0  0
    2.7470    0.0343   -1.8743 C   0  0  0  0  0  0  0  0  0  0  0  0
    2.7603   -0.8495   -0.7353 C   0  0  0  0  0  0  0  0  0  0  0  0
    3.9934   -1.4626   -0.3642 C   0  0  0  0  0  0  0  0  0  0  0  0
    5.1654   -1.2250   -1.0867 C   0  0  0  0  0  0  0  0  0  0  0  0
    5.1566   -0.3554   -2.2153 C   0  0  0  0  0  0  0  0  0  0  0  0
    3.9695    0.2500   -2.5796 C   0  0  0  0  0  3  0  0  0  0  0  0
    1.5915    0.7548   -2.3117 C   0  0  0  0  0  0  0  0  0  0  0  0
    6.4573   -2.6484    0.3219 C   0  0  0  0  0  0  0  0  0  0  0  0
    0.2626   -1.9979    2.3171 C   0  0  0  0  0  0  0  0  0  0  0  0
    0.4500   -0.8666    3.3447 C   0  0  0  0  0  0  0  0  0  0  0  0
    1.1546    0.3806    2.8046 C   0  0  0  0  0  0  0  0  0  0  0  0
    1.0898    1.5900    3.7379 C   0  0  0  0  0  0  0  0  0  0  0  0
    1.9580    2.7721    3.2783 C   0  0  0  0  0  0  0  0  0  0  0  0
    1.7124    3.2748    1.8465 C   0  0  0  0  0  0  0  0  0  0  0  0
    0.2954    3.7966    1.5732 C   0  0  0  0  0  0  0  0  0  0  0  0
    0.1575    4.5461    0.2364 C   0  0  0  0  0  0  0  0  0  0  0  0
    0.3343    3.6758   -1.0192 C   0  0  0  0  0  0  0  0  0  0  0  0
   -0.8720    2.7821   -1.3220 C   0  0  0  0  0  0  0  0  0  0  0  0
   -0.6040    1.6769   -2.3544 C   0  0  0  0  0  0  0  0  0  0  0  0
   -3.1590   -1.5819    0.8334 C   0  0  0  0  0  0  0  0  0  0  0  0
   -3.1682   -0.6124   -0.2332 C   0  0  1  0  0  3  0  0  0  0  0  0
   -4.4209   -0.2397   -0.8031 C   0  0  0  0  0  0  0  0  0  0  0  0
   -5.6160   -0.8105   -0.3574 C   0  0  0  0  0  0  0  0  0  0  0  0
   -5.6112   -1.7752    0.6910 C   0  0  0  0  0  0  0  0  0  0  0  0
   -4.4046   -2.1322    1.2616 C   0  0  0  0  0  0  0  0  0  0  0  0
   -1.9785   -1.9658    1.5425 C   0  0  0  0  0  0  0  0  0  0  0  0
   -6.9245    0.4450   -1.9040 C   0  0  0  0  0  0  0  0  0  0  0  0
    3.9673   -2.1281    0.5073 H   0  0  0  0  0  0  0  0  0  0  0  0
    6.0945   -0.1871   -2.7610 H   0  0  0  0  0  0  0  0  0  0  0  0
    3.9529    0.9310   -3.4456 H   0  0  0  0  0  0  0  0  0  0  0  0
    1.7668    1.4710   -3.1389 H   0  0  0  0  0  0  0  0  0  0  0  0
    5.8049   -3.5414    0.1984 H   0  0  0  0  0  0  0  0  0  0  0  0
    6.1806   -2.1352    1.2698 H   0  0  0  0  0  0  0  0  0  0  0  0
    7.5118   -2.9756    0.3815 H   0  0  0  0  0  0  0  0  0  0  0  0
    1.2196   -2.2176    1.8091 H   0  0  0  0  0  0  0  0  0  0  0  0
   -0.0815   -2.9182    2.8359 H   0  0  0  0  0  0  0  0  0  0  0  0
   -0.5517   -0.5915    3.7460 H   0  0  0  0  0  0  0  0  0  0  0  0
    1.0214   -1.2785    4.2060 H   0  0  0  0  0  0  0  0  0  0  0  0
    2.2132    0.1308    2.5714 H   0  0  0  0  0  0  0  0  0  0  0  0
    0.6993    0.6489    1.8262 H   0  0  0  0  0  0  0  0  0  0  0  0
    1.4069    1.2956    4.7635 H   0  0  0  0  0  0  0  0  0  0  0  0
    0.0287    1.9121    3.8374 H   0  0  0  0  0  0  0  0  0  0  0  0
    3.0277    2.4786    3.3639 H   0  0  0  0  0  0  0  0  0  0  0  0
    1.8184    3.6181    3.9876 H   0  0  0  0  0  0  0  0  0  0  0  0
    2.4372    4.0933    1.6381 H   0  0  0  0  0  0  0  0  0  0  0  0
    1.9621    2.4680    1.1236 H   0  0  0  0  0  0  0  0  0  0  0  0
    0.0010    4.4847    2.3966 H   0  0  0  0  0  0  0  0  0  0  0  0
   -0.4316    2.9553    1.6124 H   0  0  0  0  0  0  0  0  0  0  0  0
   -0.8359    5.0453    0.1936 H   0  0  0  0  0  0  0  0  0  0  0  0
    0.9085    5.3663    0.2180 H   0  0  0  0  0  0  0  0  0  0  0  0
    0.5366    4.3264   -1.8983 H   0  0  0  0  0  0  0  0  0  0  0  0
    1.2433    3.0483   -0.8969 H   0  0  0  0  0  0  0  0  0  0  0  0
   -1.2372    2.2902   -0.3974 H   0  0  0  0  0  0  0  0  0  0  0  0
   -1.7172    3.4023   -1.6928 H   0  0  0  0  0  0  0  0  0  0  0  0
   -1.5492    1.1479   -2.5747 H   0  0  0  0  0  0  0  0  0  0  0  0
   -0.2089    2.1129   -3.2981 H   0  0  0  0  0  0  0  0  0  0  0  0
   -4.3908    0.5053   -1.6074 H   0  0  0  0  0  0  0  0  0  0  0  0
   -6.5674   -2.2025    1.0210 H   0  0  0  0  0  0  0  0  0  0  0  0
   -4.3904   -2.8672    2.0823 H   0  0  0  0  0  0  0  0  0  0  0  0
   -2.1492   -2.5965    2.4385 H   0  0  0  0  0  0  0  0  0  0  0  0
   -6.3616    0.1201   -2.8073 H   0  0  0  0  0  0  0  0  0  0  0  0
   -6.5395    1.4389   -1.5843 H   0  0  0  0  0  0  0  0  0  0  0  0
   -7.9965    0.5366   -2.1587 H   0  0  0  0  0  0  0  0  0  0  0  0
  3 14  1  0  0  0  0
  4 29  1  0  0  0  0
  6 32  1  0  0  0  0
  6 15  1  0  0  0  0
  7  8  1  0  0  0  0
  8  9  2  0  0  0  0
  8  1  1  0  0  0  0
  9 34  1  0  0  0  0
 10  3  1  0  0  0  0
 10  9  1  0  0  0  0
 11 10  2  0  0  0  0
 12 11  1  0  0  0  0
 12  7  1  0  0  0  0
 13  7  2  0  0  0  0
 13  5  1  0  0  0  0
 14 40  1  0  0  0  0
 14 39  1  0  0  0  0
 15 42  1  0  0  0  0
 15 16  1  0  0  0  0
 16 43  1  0  0  0  0
 16 44  1  0  0  0  0
 17 16  1  0  0  0  0
 17 18  1  0  0  0  0
 18 48  1  0  0  0  0
 18 47  1  0  0  0  0
 19 49  1  0  0  0  0
 19 18  1  0  0  0  0
 19 50  1  0  0  0  0
 20 19  1  0  0  0  0
 21 54  1  0  0  0  0
 21 20  1  0  0  0  0
 21 53  1  0  0  0  0
 22 21  1  0  0  0  0
 23 58  1  0  0  0  0
 23 22  1  0  0  0  0
 24 23  1  0  0  0  0
 24 59  1  0  0  0  0
 25  5  1  0  0  0  0
 25 24  1  0  0  0  0
 26 31  1  0  0  0  0
 26 32  2  0  0  0  0
 27  2  1  1  0  0  0
 27 26  1  0  0  0  0
 28 29  2  0  0  0  0
 28 27  1  0  0  0  0
 29 30  1  0  0  0  0
 30 64  1  0  0  0  0
 30 31  2  0  0  0  0
 31 65  1  0  0  0  0
 32 66  1  0  0  0  0
 33 68  1  0  0  0  0
 33  4  1  0  0  0  0
 35 11  1  0  0  0  0
 36 12  1  0  0  0  0
 37 13  1  0  0  0  0
 38 14  1  0  0  0  0
 41 15  1  0  0  0  0
 45 17  1  0  0  0  0
 46 17  1  0  0  0  0
 51 20  1  0  0  0  0
 52 20  1  0  0  0  0
 55 22  1  0  0  0  0
 56 22  1  0  0  0  0
 57 23  1  0  0  0  0
 60 24  1  0  0  0  0
 61 25  1  0  0  0  0
 62 25  1  0  0  0  0
 63 28  1  0  0  0  0
 67 33  1  0  0  0  0
 69 33  1  0  0  0  0
M  CHG  1   1  -1
M  END
