3,4,5,6
q = -2.0, confidence = 0.844

 38 40  0  0  0  0  0  0  0  0999 V2000
    6.8767   -2.1082   -0.6226 Cl  0  0  0  0  0  0  0  0  0  0  0  0
   -7.0393   -1.8079   -0.7024 Cl  0  0  0  0  0  0  0  0  0  0  0  0
    1.0305   -1.5671   -0.0510 O   0  5  0  0  0  0  0  0  0  0  0  0
   -1.3980   -1.3075    0.8892 O   0  5  0  0  0  0  0  0  0  0  0  0
    1.3002    1.0430   -0.5199 N   0  0  0  0  0  2  0  0  0  0  0  0
   -1.2224    0.9548   -0.6858 N   0  0  0  0  0  2  0  0  0  0  0  0
    2.3411   -1.6382   -0.1876 C   0  0  0  0  0  0  0  0  0  0  0  0
    2.9657   -2.9069   -0.0616 C   0  0  0  0  0  0  0  0  0  0  0  0
    2.3232   -3.7732    0.1497 H   0  0  0  0  0  0  0  0  0  0  0  0
    4.3464   -3.0463   -0.1849 C   0  0  0  0  0  0  0  0  0  0  0  0
    4.8212   -4.0313   -0.0715 H   0  0  0  0  0  0  0  0  0  0  0  0
    5.1506   -1.9175   -0.4637 C   0  0  0  0  0  0  0  0  0  0  0  0
    4.5681   -0.6620   -0.6199 C   0  0  0  0  0  0  0  0  0  0  0  0
    5.1966    0.2097   -0.8540 H   0  0  0  0  0  0  0  0  0  0  0  0
    3.1663   -0.4994   -0.4757 C   0  0  0  0  0  0  0  0  0  0  0  0
    2.5692    0.7807   -0.7255 C   0  0  0  0  0  3  0  0  0  0  0  0
    3.2136    1.5557   -1.1826 H   0  0  0  0  0  0  0  0  0  0  0  0
    0.7349    2.2699   -0.9186 C   0  0  0  0  0  0  0  0  0  0  0  0
    1.4174    3.4713   -1.1762 C   0  0  0  0  0  0  0  0  0  0  0  0
    2.5067    3.5330   -1.0434 H   0  0  0  0  0  0  0  0  0  0  0  0
    0.6933    4.6067   -1.5620 C   0  0  0  0  0  0  0  0  0  0  0  0
    1.2220    5.5535   -1.7453 H   0  0  0  0  0  0  0  0  0  0  0  0
   -0.7066    4.5466   -1.6855 C   0  0  0  0  0  0  0  0  0  0  0  0
   -1.2712    5.4463   -1.9714 H   0  0  0  0  0  0  0  0  0  0  0  0
   -1.3970    3.3570   -1.4174 C   0  0  0  0  0  0  0  0  0  0  0  0
   -2.4938    3.3378   -1.4736 H   0  0  0  0  0  0  0  0  0  0  0  0
   -0.6763    2.2077   -1.0402 C   0  0  0  0  0  0  0  0  0  0  0  0
   -2.5139    0.6725   -0.9296 C   0  0  0  0  0  3  0  0  0  0  0  0
   -3.0625    1.3605   -1.5967 H   0  0  0  0  0  0  0  0  0  0  0  0
   -3.2387   -0.4240   -0.4072 C   0  0  0  0  0  0  0  0  0  0  0  0
   -4.6124   -0.5831   -0.7725 C   0  0  0  0  0  0  0  0  0  0  0  0
   -5.0742    0.1327   -1.4680 H   0  0  0  0  0  0  0  0  0  0  0  0
   -5.3638   -1.6228   -0.2524 C   0  0  0  0  0  0  0  0  0  0  0  0
   -4.7889   -2.5541    0.6594 C   0  0  0  0  0  0  0  0  0  0  0  0
   -5.4114   -3.3673    1.0585 H   0  0  0  0  0  0  0  0  0  0  0  0
   -3.4622   -2.4246    1.0323 C   0  0  0  0  0  0  0  0  0  0  0  0
   -2.9935   -3.1293    1.7338 H   0  0  0  0  0  0  0  0  0  0  0  0
   -2.6403   -1.3732    0.5179 C   0  0  0  0  0  0  0  0  0  0  0  0
  1 12  1  0  0  0  0
  2 33  1  0  0  0  0
  7  8  1  0  0  0  0
  7  3  1  0  0  0  0
  8  9  1  0  0  0  0
 10 11  1  0  0  0  0
 10  8  2  0  0  0  0
 12 10  1  0  0  0  0
 13 15  1  0  0  0  0
 13 12  2  0  0  0  0
 14 13  1  0  0  0  0
 15  7  2  0  0  0  0
 16  5  1  0  0  0  0
 16 15  1  0  0  0  0
 17 16  1  0  0  0  0
 18  5  1  0  0  0  0
 19 20  1  0  0  0  0
 19 18  2  0  0  0  0
 21 19  1  0  0  0  0
 22 21  1  0  0  0  0
 23 21  2  0  0  0  0
 23 25  1  0  0  0  0
 24 23  1  0  0  0  0
 25 27  2  0  0  0  0
 26 25  1  0  0  0  0
 27 18  1  0  0  0  0
 27  6  1  0  0  0  0
 28  6  1  0  0  0  0
 28 30  1  0  0  0  0
 29 28  1  0  0  0  0
 30 38  1  0  0  0  0
 31 30  2  0  0  0  0
 31 33  1  0  0  0  0
 32 31  1  0  0  0  0
 33 34  2  0  0  0  0
 34 36  1  0  0  0  0
 34 35  1  0  0  0  0
 36 37  1  0  0  0  0
 38  4  1  0  0  0  0
 38 36  2  0  0  0  0
M  CHG  2   3  -1   4  -1
M  END
