7,10,19,22
q = -2.0, confidence = 0.826

 27 26  0  0  1  0  0  0  0  0999 V2000
   -0.2096    2.7760   -0.9929 C   0  0  0  0  0  0  0  0  0  0  0  0
   -0.2714    3.7705   -1.4792 H   0  0  0  0  0  0  0  0  0  0  0  0
   -0.1965    2.9288    0.1071 H   0  0  0  0  0  0  0  0  0  0  0  0
   -1.4452    1.9701   -1.3812 C   0  0  0  0  0  0  0  0  0  0  0  0
   -2.3618    2.5616   -1.1755 H   0  0  0  0  0  0  0  0  0  0  0  0
   -1.4382    1.7568   -2.4751 H   0  0  0  0  0  0  0  0  0  0  0  0
   -1.5126    0.6987   -0.6682 N   0  0  0  0  0  2  0  0  0  0  0  0
   -2.6564    0.1056   -0.4552 C   0  0  1  0  0  3  0  0  0  0  0  0
   -2.5287   -1.1796    0.3423 C   0  0  0  0  0  0  0  0  0  0  0  0
   -1.2838   -1.4105    0.7074 O   0  5  0  0  0  0  0  0  0  0  0  0
   -3.4968   -1.8855    0.5960 O   0  0  0  0  0  0  0  0  0  0  0  0
   -3.9972    0.5721   -0.9045 C   0  0  0  0  0  0  0  0  0  0  0  0
   -4.2769    1.5368   -0.4279 H   0  0  0  0  0  0  0  0  0  0  0  0
   -4.7359   -0.1971   -0.6096 H   0  0  0  0  0  0  0  0  0  0  0  0
   -4.0374    0.7241   -2.0032 H   0  0  0  0  0  0  0  0  0  0  0  0
    1.0985    2.1046   -1.4046 C   0  0  0  0  0  0  0  0  0  0  0  0
    1.0619    1.8005   -2.4759 H   0  0  0  0  0  0  0  0  0  0  0  0
    1.9429    2.8160   -1.2958 H   0  0  0  0  0  0  0  0  0  0  0  0
    1.3429    0.9200   -0.5938 N   0  0  0  0  0  2  0  0  0  0  0  0
    2.5474    0.5371   -0.2730 C   0  0  2  0  0  3  0  0  0  0  0  0
    2.5620   -0.6570    0.6676 C   0  0  0  0  0  0  0  0  0  0  0  0
    1.3471   -1.0083    1.0339 O   0  5  0  0  0  0  0  0  0  0  0  0
    3.6076   -1.1781    1.0374 O   0  0  0  0  0  0  0  0  0  0  0  0
    3.8285    1.1639   -0.7021 C   0  0  0  0  0  0  0  0  0  0  0  0
    3.9032    1.2480   -1.8058 H   0  0  0  0  0  0  0  0  0  0  0  0
    4.6535    0.5334   -0.3195 H   0  0  0  0  0  0  0  0  0  0  0  0
    3.9425    2.1867   -0.2817 H   0  0  0  0  0  0  0  0  0  0  0  0
  1  3  1  0  0  0  0
  2  1  1  0  0  0  0
  4  5  1  0  0  0  0
  4  1  1  0  0  0  0
  4  7  1  0  0  0  0
  6  4  1  0  0  0  0
  8  7  1  1  0  0  0
  8  9  1  0  0  0  0
  9 11  2  0  0  0  0
  9 10  1  0  0  0  0
 12 14  1  0  0  0  0
 12  8  1  0  0  0  0
 12 13  1  0  0  0  0
 15 12  1  0  0  0  0
 16 18  1  0  0  0  0
 16  1  1  0  0  0  0
 16 19  1  0  0  0  0
 17 16  1  0  0  0  0
 20 19  1  1  0  0  0
 20 21  1  0  0  0  0
 21 22  1  0  0  0  0
 21 23  2  0  0  0  0
 24 26  1  0  0  0  0
 24 27  1  0  0  0  0
 24 20  1  0  0  0  0
 25 24  1  0  0  0  0
M  CHG  2  10  -1  22  -1
M  END
