1,6,7,8
q = -2.0, confidence = 0.868

 46 48  0  0  1  0  0  0  0  0999 V2000
   -1.2316   -1.0404    0.0020 O   0  5  0  0  0  0  0  0  0  0  0  0
    2.5179   -0.9630   -0.0008 C   0  0  1  0  0  3  0  0  0  0  0  0
    3.2659    0.2709   -0.0004 C   0  0  0  0  0  0  0  0  0  0  0  0
    2.5877    1.5140   -0.0002 C   0  0  0  0  0  0  0  0  0  0  0  0
    3.2294    2.4128   -0.0000 H   0  0  0  0  0  0  0  0  0  0  0  0
    1.2735    1.6969   -0.0003 N   0  0  0  0  0  2  0  0  0  0  0  0
   -1.2736    1.6968   -0.0000 N   0  0  0  0  0  2  0  0  0  0  0  0
    1.2316   -1.0403   -0.0013 O   0  0  0  0  0  1  0  0  0  0  0  0
    2.5068   -3.3203   -0.0013 O   0  0  0  0  0  0  0  0  0  0  0  0
   -2.5066   -3.3205    0.0036 O   0  0  0  0  0  0  0  0  0  0  0  0
   -2.5178   -0.9632    0.0004 C   0  0  0  0  0  0  0  0  0  0  0  0
    0.7097    2.9908    0.0001 C   0  0  0  0  0  0  0  0  0  0  0  0
   -3.2659    0.2707   -0.0020 C   0  0  0  0  0  0  0  0  0  0  0  0
   -4.6677   -2.1800   -0.0010 C   0  0  0  0  0  0  0  0  0  0  0  0
   -5.2320   -3.1226   -0.0006 H   0  0  0  0  0  0  0  0  0  0  0  0
   -3.2755   -2.2037    0.0011 C   0  0  0  0  0  0  0  0  0  0  0  0
    3.2757   -2.2035   -0.0009 C   0  0  0  0  0  0  0  0  0  0  0  0
    4.6996    0.2514   -0.0001 C   0  0  0  0  0  0  0  0  0  0  0  0
    5.2411    1.2100    0.0002 H   0  0  0  0  0  0  0  0  0  0  0  0
   -2.5878    1.5138   -0.0020 C   0  0  0  0  0  0  0  0  0  0  0  0
   -3.2296    2.4126   -0.0038 H   0  0  0  0  0  0  0  0  0  0  0  0
   -0.7099    2.9907    0.0007 C   0  0  0  0  0  0  0  0  0  0  0  0
   -4.6996    0.2511   -0.0041 C   0  0  0  0  0  3  0  0  0  0  0  0
   -5.2411    1.2096   -0.0060 H   0  0  0  0  0  0  0  0  0  0  0  0
    1.4095    4.2143    0.0000 C   0  0  0  0  0  0  0  0  0  0  0  0
    2.5077    4.2343   -0.0008 H   0  0  0  0  0  0  0  0  0  0  0  0
    4.6678   -2.1797   -0.0005 C   0  0  0  0  0  0  0  0  0  0  0  0
    5.2322   -3.1222   -0.0006 H   0  0  0  0  0  0  0  0  0  0  0  0
    0.7034    5.4226    0.0010 C   0  0  0  0  0  0  0  0  0  0  0  0
    1.2556    6.3739    0.0010 H   0  0  0  0  0  0  0  0  0  0  0  0
    5.3828   -0.9474   -0.0001 C   0  0  0  0  0  0  0  0  0  0  0  0
    6.4823   -0.9651    0.0002 H   0  0  0  0  0  0  0  0  0  0  0  0
   -3.1585   -4.5715    0.0042 C   0  0  0  0  0  0  0  0  0  0  0  0
   -2.3635   -5.3402    0.0062 H   0  0  0  0  0  0  0  0  0  0  0  0
   -3.7947   -4.7100   -0.9002 H   0  0  0  0  0  0  0  0  0  0  0  0
   -3.7973   -4.7079    0.9071 H   0  0  0  0  0  0  0  0  0  0  0  0
   -5.3827   -0.9478   -0.0036 C   0  0  0  0  0  0  0  0  0  0  0  0
   -6.4822   -0.9655   -0.0052 H   0  0  0  0  0  0  0  0  0  0  0  0
   -1.4099    4.2142    0.0021 C   0  0  0  0  0  0  0  0  0  0  0  0
   -2.5081    4.2340    0.0033 H   0  0  0  0  0  0  0  0  0  0  0  0
    3.1589   -4.5713   -0.0009 C   0  0  0  0  0  0  0  0  0  0  0  0
    2.3639   -5.3400   -0.0009 H   0  0  0  0  0  0  0  0  0  0  0  0
    3.7962   -4.7085    0.9029 H   0  0  0  0  0  0  0  0  0  0  0  0
    3.7966   -4.7089   -0.9044 H   0  0  0  0  0  0  0  0  0  0  0  0
   -0.7039    5.4225    0.0022 C   0  0  0  0  0  0  0  0  0  0  0  0
   -1.2562    6.3737    0.0033 H   0  0  0  0  0  0  0  0  0  0  0  0
  2  8  1  6  0  0  0
  2  3  1  0  0  0  0
  3  4  2  0  0  0  0
  3 18  1  0  0  0  0
  4  5  1  0  0  0  0
  6  4  1  0  0  0  0
  6 12  1  0  0  0  0
  7 22  1  0  0  0  0
  9 41  1  0  0  0  0
  9 17  1  0  0  0  0
 10 33  1  0  0  0  0
 11 16  2  0  0  0  0
 11  1  1  0  0  0  0
 12 22  1  0  0  0  0
 13 11  1  0  0  0  0
 14 15  1  0  0  0  0
 14 16  1  0  0  0  0
 16 10  1  0  0  0  0
 17  2  1  0  0  0  0
 17 27  2  0  0  0  0
 18 19  1  0  0  0  0
 20 13  2  0  0  0  0
 20  7  1  0  0  0  0
 21 20  1  0  0  0  0
 22 39  2  0  0  0  0
 23 37  1  0  0  0  0
 23 13  1  0  0  0  0
 24 23  1  0  0  0  0
 25 12  2  0  0  0  0
 25 29  1  0  0  0  0
 26 25  1  0  0  0  0
 27 31  1  0  0  0  0
 28 27  1  0  0  0  0
 29 30  1  0  0  0  0
 29 45  2  0  0  0  0
 31 18  2  0  0  0  0
 31 32  1  0  0  0  0
 33 34  1  0  0  0  0
 33 36  1  0  0  0  0
 35 33  1  0  0  0  0
 37 14  2  0  0  0  0
 38 37  1  0  0  0  0
 39 45  1  0  0  0  0
 39 40  1  0  0  0  0
 41 43  1  0  0  0  0
 42 41  1  0  0  0  0
 44 41  1  0  0  0  0
 45 46  1  0  0  0  0
M  CHG  1   1  -1
M  END
