5,6,7,8
q = -2.0, confidence = 0.832

 34 35  0  0  1  0  0  0  0  0999 V2000
    2.5425   -3.0588   -0.8366 Cl  0  0  0  0  0  0  0  0  0  0  0  0
    7.0903   -0.3632    0.3708 Cl  0  0  0  0  0  0  0  0  0  0  0  0
   -2.5424   -3.0589    0.8361 Cl  0  0  0  0  0  0  0  0  0  0  0  0
   -7.0905   -0.3632   -0.3698 Cl  0  0  0  0  0  0  0  0  0  0  0  0
   -1.2757   -0.4517    0.5246 O   0  5  0  0  0  0  0  0  0  0  0  0
    1.2758   -0.4516   -0.5252 O   0  0  0  0  0  1  0  0  0  0  0  0
    1.2579    2.2219   -0.1827 N   0  0  0  0  0  2  0  0  0  0  0  0
   -1.2579    2.2218    0.1825 N   0  0  0  0  0  2  0  0  0  0  0  0
    2.5634    2.1012   -0.0749 C   0  0  0  0  0  0  0  0  0  0  0  0
    0.6535    3.5373   -0.3947 C   0  0  0  0  0  0  0  0  0  0  0  0
   -0.6535    3.5373    0.3945 C   0  0  0  0  0  0  0  0  0  0  0  0
   -2.5634    2.1011    0.0750 C   0  0  0  0  0  0  0  0  0  0  0  0
    3.2579    0.8401   -0.0141 C   0  0  0  0  0  0  0  0  0  0  0  0
    2.5671   -0.3943   -0.3153 C   0  0  2  0  0  3  0  0  0  0  0  0
    3.3556   -1.5861   -0.4381 C   0  0  0  0  0  0  0  0  0  0  0  0
    4.7295   -1.5749   -0.2117 C   0  0  0  0  0  0  0  0  0  0  0  0
    5.3809   -0.3570    0.1037 C   0  0  0  0  0  0  0  0  0  0  0  0
    4.6634    0.8358    0.1842 C   0  0  0  0  0  0  0  0  0  0  0  0
   -3.2580    0.8401    0.0141 C   0  0  0  0  0  0  0  0  0  0  0  0
   -2.5671   -0.3944    0.3151 C   0  0  0  0  0  0  0  0  0  0  0  0
   -3.3555   -1.5862    0.4380 C   0  0  0  0  0  0  0  0  0  0  0  0
   -4.7295   -1.5749    0.2119 C   0  0  0  0  0  0  0  0  0  0  0  0
   -5.3810   -0.3570   -0.1032 C   0  0  0  0  0  0  0  0  0  0  0  0
   -4.6635    0.8358   -0.1837 C   0  0  0  0  0  3  0  0  0  0  0  0
    3.1833    3.0190   -0.0818 H   0  0  0  0  0  0  0  0  0  0  0  0
    1.3300    4.3612   -0.0862 H   0  0  0  0  0  0  0  0  0  0  0  0
    0.4391    3.6515   -1.4794 H   0  0  0  0  0  0  0  0  0  0  0  0
   -1.3300    4.3612    0.0861 H   0  0  0  0  0  0  0  0  0  0  0  0
   -0.4392    3.6514    1.4793 H   0  0  0  0  0  0  0  0  0  0  0  0
   -3.1833    3.0189    0.0820 H   0  0  0  0  0  0  0  0  0  0  0  0
    5.3043   -2.5083   -0.2796 H   0  0  0  0  0  0  0  0  0  0  0  0
    5.1914    1.7777    0.3897 H   0  0  0  0  0  0  0  0  0  0  0  0
   -5.3043   -2.5083    0.2799 H   0  0  0  0  0  0  0  0  0  0  0  0
   -5.1915    1.7778   -0.3890 H   0  0  0  0  0  0  0  0  0  0  0  0
  1 15  1  0  0  0  0
  4 23  1  0  0  0  0
  7  9  1  0  0  0  0
  8 11  1  0  0  0  0
  9 13  2  0  0  0  0
 10  7  1  0  0  0  0
 10 26  1  0  0  0  0
 10 11  1  0  0  0  0
 11 29  1  0  0  0  0
 12 30  1  0  0  0  0
 12  8  1  0  0  0  0
 13 18  1  0  0  0  0
 14  6  1  6  0  0  0
 14 13  1  0  0  0  0
 15 14  1  0  0  0  0
 15 16  2  0  0  0  0
 16 17  1  0  0  0  0
 17 18  2  0  0  0  0
 17  2  1  0  0  0  0
 18 32  1  0  0  0  0
 19 12  2  0  0  0  0
 19 20  1  0  0  0  0
 20 21  2  0  0  0  0
 20  5  1  0  0  0  0
 21  3  1  0  0  0  0
 22 33  1  0  0  0  0
 22 21  1  0  0  0  0
 23 22  2  0  0  0  0
 24 23  1  0  0  0  0
 24 19  1  0  0  0  0
 25  9  1  0  0  0  0
 27 10  1  0  0  0  0
 28 11  1  0  0  0  0
 31 16  1  0  0  0  0
 34 24  1  0  0  0  0
M  CHG  1   5  -1
M  END
