1,2,3,4
q = -2.0, confidence = 0.856

 44 45  0  0  0  0  0  0  0  0999 V2000
   -1.3663   -1.4225   -0.4193 O   0  5  0  0  0  0  0  0  0  0  0  0
    1.3203   -1.4876   -0.5932 O   0  5  0  0  0  0  0  0  0  0  0  0
   -1.4433    1.5432   -0.4268 N   0  0  0  0  0  0  0  0  0  0  0  0
    1.5290    1.4962   -0.6778 N   0  0  0  0  0  0  0  0  0  0  0  0
   -2.6358   -1.2405   -0.1167 C   0  0  0  0  0  0  0  0  0  0  0  0
   -3.3710   -0.0396   -0.3918 C   0  0  0  0  0  0  0  0  0  0  0  0
   -2.6967    1.0881   -1.1135 C   0  0  0  0  0  0  0  0  0  0  0  0
   -1.6995    2.0535    0.9465 C   0  0  0  0  0  0  0  0  0  0  0  0
   -0.4410    2.1915    1.7996 C   0  0  0  0  0  0  0  0  0  0  0  0
    0.7150    3.0161    1.1941 C   0  0  0  0  0  0  0  0  0  0  0  0
    1.8650    2.2210    0.5736 C   0  0  0  0  0  0  0  0  0  0  0  0
    2.7489    0.8770   -1.3001 C   0  0  0  0  0  0  0  0  0  0  0  0
    3.3522   -0.1886   -0.4393 C   0  0  0  0  0  0  0  0  0  0  0  0
    2.5584   -1.3488   -0.1605 C   0  0  0  0  0  0  0  0  0  0  0  0
    3.1684   -2.4016    0.5810 C   0  0  0  0  0  0  0  0  0  0  0  0
    4.4864   -2.2956    1.0315 C   0  0  0  0  0  0  0  0  0  0  0  0
    5.2501   -1.1395    0.7764 C   0  0  0  0  0  0  0  0  0  0  0  0
    4.6710   -0.0968    0.0405 C   0  0  0  0  0  0  0  0  0  0  0  0
   -4.7280    0.0573   -0.0270 C   0  0  0  0  0  0  0  0  0  0  0  0
   -5.4037   -1.0078    0.5804 C   0  0  0  0  0  0  0  0  0  0  0  0
   -4.6954   -2.1994    0.8320 C   0  0  0  0  0  0  0  0  0  0  0  0
   -3.3449   -2.3141    0.5003 C   0  0  0  0  0  0  0  0  0  0  0  0
   -1.0678    2.3219   -0.9876 H   0  0  0  0  0  0  0  0  0  0  0  0
    1.1799    2.1916   -1.3561 H   0  0  0  0  0  0  0  0  0  0  0  0
   -2.3828    0.7899   -2.1375 H   0  0  0  0  0  0  0  0  0  0  0  0
   -3.3990    1.9469   -1.2014 H   0  0  0  0  0  0  0  0  0  0  0  0
   -2.3973    1.3367    1.4231 H   0  0  0  0  0  0  0  0  0  0  0  0
   -2.2373    3.0271    0.8693 H   0  0  0  0  0  0  0  0  0  0  0  0
   -0.0715    1.1758    2.0582 H   0  0  0  0  0  0  0  0  0  0  0  0
   -0.7629    2.6561    2.7546 H   0  0  0  0  0  0  0  0  0  0  0  0
    1.1775    3.6287    1.9948 H   0  0  0  0  0  0  0  0  0  0  0  0
    0.3277    3.7639    0.4617 H   0  0  0  0  0  0  0  0  0  0  0  0
    2.7146    2.9104    0.3612 H   0  0  0  0  0  0  0  0  0  0  0  0
    2.2469    1.4634    1.2877 H   0  0  0  0  0  0  0  0  0  0  0  0
    3.4972    1.6761   -1.4993 H   0  0  0  0  0  0  0  0  0  0  0  0
    2.4090    0.4570   -2.2707 H   0  0  0  0  0  0  0  0  0  0  0  0
    2.5616   -3.2966    0.7815 H   0  0  0  0  0  0  0  0  0  0  0  0
    4.9279   -3.1265    1.6045 H   0  0  0  0  0  0  0  0  0  0  0  0
    6.2833   -1.0565    1.1435 H   0  0  0  0  0  0  0  0  0  0  0  0
    5.2578    0.8098   -0.1855 H   0  0  0  0  0  0  0  0  0  0  0  0
   -5.2656    0.9966   -0.2414 H   0  0  0  0  0  0  0  0  0  0  0  0
   -6.4645   -0.9135    0.8540 H   0  0  0  0  0  0  0  0  0  0  0  0
   -5.2068   -3.0513    1.3077 H   0  0  0  0  0  0  0  0  0  0  0  0
   -2.7807   -3.2367    0.7001 H   0  0  0  0  0  0  0  0  0  0  0  0
  1  5  1  0  0  0  0
  2 14  1  0  0  0  0
  3  8  1  0  0  0  0
  4 11  1  0  0  0  0
  5 22  1  0  0  0  0
  6  5  2  0  0  0  0
  6 19  1  0  0  0  0
  7  3  1  0  0  0  0
  7  6  1  0  0  0  0
  8 27  1  0  0  0  0
  8  9  1  0  0  0  0
  9 29  1  0  0  0  0
  9 30  1  0  0  0  0
 10  9  1  0  0  0  0
 10 31  1  0  0  0  0
 11 10  1  0  0  0  0
 11 34  1  0  0  0  0
 12  4  1  0  0  0  0
 12 13  1  0  0  0  0
 13 14  2  0  0  0  0
 13 18  1  0  0  0  0
 14 15  1  0  0  0  0
 15 37  1  0  0  0  0
 15 16  2  0  0  0  0
 16 38  1  0  0  0  0
 17 16  1  0  0  0  0
 17 39  1  0  0  0  0
 18 17  2  0  0  0  0
 19 20  2  0  0  0  0
 20 21  1  0  0  0  0
 20 42  1  0  0  0  0
 21 43  1  0  0  0  0
 22 44  1  0  0  0  0
 22 21  2  0  0  0  0
 23  3  1  0  0  0  0
 24  4  1  0  0  0  0
 25  7  1  0  0  0  0
 26  7  1  0  0  0  0
 28  8  1  0  0  0  0
 32 10  1  0  0  0  0
 33 11  1  0  0  0  0
 35 12  1  0  0  0  0
 36 12  1  0  0  0  0
 40 18  1  0  0  0  0
 41 19  1  0  0  0  0
M  CHG  2   1  -1   2  -1
M  END
