10,29,37
q = -2.0, confidence = 0.818

 54 54  0  0  0  0  0  0  0  0999 V2000
    3.6745   -0.7581    0.8700 O   0  0  0  0  0  0  0  0  0  0  0  0
    0.8212   -1.7731    0.2350 N   0  0  0  0  0  0  0  0  0  0  0  0
    4.2768    0.4920    0.5837 C   0  0  0  0  0  0  0  0  0  0  0  0
    5.3115    0.2735    0.2457 H   0  0  0  0  0  0  0  0  0  0  0  0
    4.3469    1.1231    1.5009 H   0  0  0  0  0  0  0  0  0  0  0  0
   -2.3145   -1.7083    0.0264 O   0  0  0  0  0  0  0  0  0  0  0  0
    2.5645   -0.7197    1.7704 C   0  0  0  0  0  0  0  0  0  0  0  0
    2.0150    0.2380    1.7002 H   0  0  0  0  0  0  0  0  0  0  0  0
    2.9305   -0.8326    2.8197 H   0  0  0  0  0  0  0  0  0  0  0  0
    0.3640   -0.1943   -1.8199 O   0  5  0  0  0  0  0  0  0  0  0  0
    1.5987   -1.8652    1.5067 C   0  0  0  0  0  0  0  0  0  0  0  0
    2.1401   -2.8393    1.5167 H   0  0  0  0  0  0  0  0  0  0  0  0
    0.8681   -1.8566    2.3368 H   0  0  0  0  0  0  0  0  0  0  0  0
    1.5481   -1.4081   -3.3041 O   0  0  0  0  0  0  0  0  0  0  0  0
   -0.2429   -2.8248    0.2114 C   0  0  0  0  0  0  0  0  0  0  0  0
    0.1904   -3.7650    0.6214 H   0  0  0  0  0  0  0  0  0  0  0  0
   -0.5000   -3.0143   -0.8494 H   0  0  0  0  0  0  0  0  0  0  0  0
   -1.5442   -2.4900    0.9213 C   0  0  0  0  0  0  0  0  0  0  0  0
   -2.0775   -3.4447    1.1542 H   0  0  0  0  0  0  0  0  0  0  0  0
   -1.3690   -1.9475    1.8785 H   0  0  0  0  0  0  0  0  0  0  0  0
   -3.5711   -1.2825    0.5136 C   0  0  0  0  0  0  0  0  0  0  0  0
   -3.4549   -0.6570    1.4318 H   0  0  0  0  0  0  0  0  0  0  0  0
   -4.2082   -2.1607    0.7915 H   0  0  0  0  0  0  0  0  0  0  0  0
    1.6950   -1.9724   -0.9625 C   0  0  0  0  0  0  0  0  0  0  0  0
    1.7957   -3.0497   -1.2116 H   0  0  0  0  0  0  0  0  0  0  0  0
    2.7037   -1.5944   -0.7112 H   0  0  0  0  0  0  0  0  0  0  0  0
    1.1743   -1.1769   -2.1628 C   0  0  0  0  0  0  0  0  0  0  0  0
   -3.6744    0.7582   -0.8699 O   0  0  0  0  0  0  0  0  0  0  0  0
   -0.8212    1.7730   -0.2350 N   0  0  0  0  0  0  0  0  0  0  0  0
   -4.2767   -0.4919   -0.5835 C   0  0  0  0  0  0  0  0  0  0  0  0
   -5.3114   -0.2732   -0.2454 H   0  0  0  0  0  0  0  0  0  0  0  0
   -4.3470   -1.1230   -1.5006 H   0  0  0  0  0  0  0  0  0  0  0  0
    2.3145    1.7084   -0.0263 O   0  0  0  0  0  0  0  0  0  0  0  0
   -2.5646    0.7198   -1.7704 C   0  0  0  0  0  0  0  0  0  0  0  0
   -2.0150   -0.2380   -1.7003 H   0  0  0  0  0  0  0  0  0  0  0  0
   -2.9306    0.8327   -2.8196 H   0  0  0  0  0  0  0  0  0  0  0  0
   -0.3642    0.1941    1.8198 O   0  5  0  0  0  0  0  0  0  0  0  0
   -1.5987    1.8652   -1.5068 C   0  0  0  0  0  0  0  0  0  0  0  0
   -2.1400    2.8393   -1.5168 H   0  0  0  0  0  0  0  0  0  0  0  0
   -0.8681    1.8565   -2.3369 H   0  0  0  0  0  0  0  0  0  0  0  0
   -1.5481    1.4081    3.3040 O   0  0  0  0  0  0  0  0  0  0  0  0
    0.2429    2.8247   -0.2114 C   0  0  0  0  0  0  0  0  0  0  0  0
   -0.1904    3.7650   -0.6215 H   0  0  0  0  0  0  0  0  0  0  0  0
    0.5000    3.0142    0.8494 H   0  0  0  0  0  0  0  0  0  0  0  0
    1.5443    2.4901   -0.9213 C   0  0  0  0  0  0  0  0  0  0  0  0
    2.0775    3.4447   -1.1541 H   0  0  0  0  0  0  0  0  0  0  0  0
    1.3691    1.9476   -1.8784 H   0  0  0  0  0  0  0  0  0  0  0  0
    3.5712    1.2827   -0.5134 C   0  0  0  0  0  0  0  0  0  0  0  0
    3.4552    0.6572   -1.4316 H   0  0  0  0  0  0  0  0  0  0  0  0
    4.2083    2.1609   -0.7912 H   0  0  0  0  0  0  0  0  0  0  0  0
   -1.6951    1.9723    0.9624 C   0  0  0  0  0  0  0  0  0  0  0  0
   -1.7958    3.0496    1.2115 H   0  0  0  0  0  0  0  0  0  0  0  0
   -2.7037    1.5942    0.7110 H   0  0  0  0  0  0  0  0  0  0  0  0
   -1.1745    1.1768    2.1627 C   0  0  0  0  0  0  0  0  0  0  0  0
  1  7  1  0  0  0  0
  2 11  1  0  0  0  0
  3  1  1  0  0  0  0
  3  5  1  0  0  0  0
  4  3  1  0  0  0  0
  6 21  1  0  0  0  0
  6 18  1  0  0  0  0
  7  9  1  0  0  0  0
  8  7  1  0  0  0  0
 11 12  1  0  0  0  0
 11  7  1  0  0  0  0
 11 13  1  0  0  0  0
 14 27  2  0  0  0  0
 15  2  1  0  0  0  0
 15 16  1  0  0  0  0
 15 18  1  0  0  0  0
 17 15  1  0  0  0  0
 18 19  1  0  0  0  0
 18 20  1  0  0  0  0
 21 23  1  0  0  0  0
 21 22  1  0  0  0  0
 24 26  1  0  0  0  0
 24  2  1  0  0  0  0
 25 24  1  0  0  0  0
 27 10  1  0  0  0  0
 27 24  1  0  0  0  0
 28 30  1  0  0  0  0
 29 42  1  0  0  0  0
 29 51  1  0  0  0  0
 30 31  1  0  0  0  0
 30 21  1  0  0  0  0
 32 30  1  0  0  0  0
 34 35  1  0  0  0  0
 34 38  1  0  0  0  0
 34 28  1  0  0  0  0
 36 34  1  0  0  0  0
 37 54  1  0  0  0  0
 38 29  1  0  0  0  0
 39 38  1  0  0  0  0
 40 38  1  0  0  0  0
 42 44  1  0  0  0  0
 43 42  1  0  0  0  0
 45 42  1  0  0  0  0
 45 33  1  0  0  0  0
 46 45  1  0  0  0  0
 47 45  1  0  0  0  0
 48 33  1  0  0  0  0
 48  3  1  0  0  0  0
 49 48  1  0  0  0  0
 50 48  1  0  0  0  0
 51 52  1  0  0  0  0
 51 54  1  0  0  0  0
 53 51  1  0  0  0  0
 54 41  2  0  0  0  0
M  CHG  2  10  -1  37  -1
M  END
