3,4,5,6
q = -2.0, confidence = 0.798

 58 61  0  0  0  0  0  0  0  0999 V2000
   -6.9377   -0.1493   -0.2058 Cl  0  0  0  0  0  0  0  0  0  0  0  0
    6.9375    0.1495   -0.2053 Cl  0  0  0  0  0  0  0  0  0  0  0  0
    1.7708   -0.6771   -0.9837 O   0  5  0  0  0  0  0  0  0  0  0  0
   -1.7705    0.6775   -0.9844 O   0  5  0  0  0  0  0  0  0  0  0  0
   -0.2835   -1.4830    0.5855 N   0  0  0  0  0  0  0  0  0  0  0  0
    0.2835    1.4829    0.5853 N   0  0  0  0  0  0  0  0  0  0  0  0
    2.0426   -1.6649   -0.1242 C   0  0  0  0  0  0  0  0  0  0  0  0
    3.3446   -2.1989   -0.0160 C   0  0  0  0  0  0  0  0  0  0  0  0
    3.5996   -3.2133    0.9139 C   0  0  0  0  0  0  0  0  0  0  0  0
    2.5760   -3.6988    1.7472 C   0  0  0  0  0  0  0  0  0  0  0  0
    1.2842   -3.1588    1.6500 C   0  0  0  0  0  0  0  0  0  0  0  0
    1.0105   -2.1505    0.7126 C   0  0  0  0  0  0  0  0  0  0  0  0
   -1.3812   -2.5044    0.4394 C   0  0  0  0  0  0  0  0  0  0  0  0
   -2.7800   -1.9582    0.2761 C   0  0  0  0  0  0  0  0  0  0  0  0
   -3.3322   -1.7531   -1.0032 C   0  0  0  0  0  0  0  0  0  0  0  0
   -4.6175   -1.2220   -1.1582 C   0  0  0  0  0  0  0  0  0  0  0  0
   -5.3646   -0.8848   -0.0187 C   0  0  0  0  0  0  0  0  0  0  0  0
   -4.8559   -1.1119    1.2691 C   0  0  0  0  0  0  0  0  0  0  0  0
   -3.5716   -1.6561    1.4033 C   0  0  0  0  0  0  0  0  0  0  0  0
   -2.0425    1.6647   -0.1245 C   0  0  0  0  0  0  0  0  0  0  0  0
   -3.3446    2.1986   -0.0161 C   0  0  0  0  0  0  0  0  0  0  0  0
   -3.5998    3.2124    0.9142 C   0  0  0  0  0  0  0  0  0  0  0  0
   -2.5765    3.6976    1.7479 C   0  0  0  0  0  0  0  0  0  0  0  0
   -1.2846    3.1579    1.6505 C   0  0  0  0  0  0  0  0  0  0  0  0
   -1.0106    2.1502    0.7126 C   0  0  0  0  0  0  0  0  0  0  0  0
    1.3810    2.5048    0.4389 C   0  0  0  0  0  0  0  0  0  0  0  0
    2.7799    1.9588    0.2759 C   0  0  0  0  0  0  0  0  0  0  0  0
    3.3323    1.7537   -1.0034 C   0  0  0  0  0  0  0  0  0  0  0  0
    4.6176    1.2224   -1.1581 C   0  0  0  0  0  0  0  0  0  0  0  0
    5.3645    0.8852   -0.0185 C   0  0  0  0  0  0  0  0  0  0  0  0
    4.8556    1.1125    1.2692 C   0  0  0  0  0  0  0  0  0  0  0  0
    3.5713    1.6569    1.4032 C   0  0  0  0  0  0  0  0  0  0  0  0
    0.4969    0.5767    1.7429 C   0  0  0  0  0  0  0  0  0  0  0  0
   -0.4964   -0.5766    1.7431 C   0  0  0  0  0  0  0  0  0  0  0  0
    4.1356   -1.7968   -0.6636 H   0  0  0  0  0  0  0  0  0  0  0  0
    4.6155   -3.6290    0.9921 H   0  0  0  0  0  0  0  0  0  0  0  0
    2.7828   -4.4963    2.4755 H   0  0  0  0  0  0  0  0  0  0  0  0
    0.4884   -3.5292    2.3137 H   0  0  0  0  0  0  0  0  0  0  0  0
   -1.1016   -3.1158   -0.4385 H   0  0  0  0  0  0  0  0  0  0  0  0
   -1.3653   -3.1662    1.3338 H   0  0  0  0  0  0  0  0  0  0  0  0
   -2.7262   -1.9781   -1.8932 H   0  0  0  0  0  0  0  0  0  0  0  0
   -5.0360   -1.0467   -2.1589 H   0  0  0  0  0  0  0  0  0  0  0  0
   -5.4616   -0.8598    2.1504 H   0  0  0  0  0  0  0  0  0  0  0  0
   -3.1793   -1.8492    2.4146 H   0  0  0  0  0  0  0  0  0  0  0  0
   -4.1356    1.7967   -0.6640 H   0  0  0  0  0  0  0  0  0  0  0  0
   -4.6159    3.6279    0.9926 H   0  0  0  0  0  0  0  0  0  0  0  0
   -2.7834    4.4948    2.4766 H   0  0  0  0  0  0  0  0  0  0  0  0
   -0.4888    3.5281    2.3145 H   0  0  0  0  0  0  0  0  0  0  0  0
    1.1011    3.1157   -0.4392 H   0  0  0  0  0  0  0  0  0  0  0  0
    1.3647    3.1668    1.3330 H   0  0  0  0  0  0  0  0  0  0  0  0
    2.7264    1.9785   -1.8935 H   0  0  0  0  0  0  0  0  0  0  0  0
    5.0362    1.0470   -2.1588 H   0  0  0  0  0  0  0  0  0  0  0  0
    5.4612    0.8606    2.1506 H   0  0  0  0  0  0  0  0  0  0  0  0
    3.1789    1.8502    2.4144 H   0  0  0  0  0  0  0  0  0  0  0  0
    1.5320    0.1874    1.6912 H   0  0  0  0  0  0  0  0  0  0  0  0
    0.3985    1.1390    2.6995 H   0  0  0  0  0  0  0  0  0  0  0  0
   -1.5315   -0.1873    1.6916 H   0  0  0  0  0  0  0  0  0  0  0  0
   -0.3977   -1.1389    2.6997 H   0  0  0  0  0  0  0  0  0  0  0  0
  1 17  1  0  0  0  0
  2 30  1  0  0  0  0
  3  7  1  0  0  0  0
  4 20  1  0  0  0  0
  5 12  1  0  0  0  0
  5 34  1  0  0  0  0
  6 25  1  0  0  0  0
  6 33  1  0  0  0  0
  7  8  2  0  0  0  0
  7 12  1  0  0  0  0
  8  9  1  0  0  0  0
  9 36  1  0  0  0  0
  9 10  2  0  0  0  0
 10 37  1  0  0  0  0
 11 10  1  0  0  0  0
 11 38  1  0  0  0  0
 12 11  2  0  0  0  0
 13  5  1  0  0  0  0
 13 40  1  0  0  0  0
 14 13  1  0  0  0  0
 14 19  1  0  0  0  0
 15 14  2  0  0  0  0
 16 15  1  0  0  0  0
 16 17  2  0  0  0  0
 17 18  1  0  0  0  0
 18 19  2  0  0  0  0
 18 43  1  0  0  0  0
 19 44  1  0  0  0  0
 20 21  2  0  0  0  0
 20 25  1  0  0  0  0
 21 22  1  0  0  0  0
 22 46  1  0  0  0  0
 22 23  2  0  0  0  0
 23 47  1  0  0  0  0
 24 23  1  0  0  0  0
 24 48  1  0  0  0  0
 25 24  2  0  0  0  0
 26  6  1  0  0  0  0
 26 50  1  0  0  0  0
 27 26  1  0  0  0  0
 27 32  1  0  0  0  0
 28 27  2  0  0  0  0
 29 28  1  0  0  0  0
 29 30  2  0  0  0  0
 30 31  1  0  0  0  0
 31 32  2  0  0  0  0
 31 53  1  0  0  0  0
 32 54  1  0  0  0  0
 33 34  1  0  0  0  0
 33 56  1  0  0  0  0
 34 58  1  0  0  0  0
 35  8  1  0  0  0  0
 39 13  1  0  0  0  0
 41 15  1  0  0  0  0
 42 16  1  0  0  0  0
 45 21  1  0  0  0  0
 49 26  1  0  0  0  0
 51 28  1  0  0  0  0
 52 29  1  0  0  0  0
 55 33  1  0  0  0  0
 57 34  1  0  0  0  0
M  CHG  2   3  -1   4  -1
M  END
