1,17,27,43
q = -2.0, confidence = 0.858

 43 44  0  0  1  0  0  0  0  0999 V2000
    1.2821    0.2084   -1.3845 O   0  5  0  0  0  0  0  0  0  0  0  0
    2.3374   -0.5413   -1.2063 C   0  0  0  0  0  0  0  0  0  0  0  0
    2.8866   -1.2025   -2.3452 C   0  0  0  0  0  0  0  0  0  0  0  0
    2.4105   -1.0057   -3.3166 H   0  0  0  0  0  0  0  0  0  0  0  0
    3.9467   -2.0918   -2.2170 C   0  0  0  0  0  0  0  0  0  0  0  0
    4.3293   -2.6112   -3.1092 H   0  0  0  0  0  0  0  0  0  0  0  0
    4.5185   -2.3523   -0.9497 C   0  0  0  0  0  0  0  0  0  0  0  0
    5.3321   -3.0834   -0.8441 H   0  0  0  0  0  0  0  0  0  0  0  0
    4.0501   -1.6617    0.1612 C   0  0  0  0  0  0  0  0  0  0  0  0
    4.5086   -1.8696    1.1380 H   0  0  0  0  0  0  0  0  0  0  0  0
    2.9797   -0.7235    0.0726 C   0  0  0  0  0  0  0  0  0  0  0  0
    2.6119    0.1206    1.1994 C   0  0  1  0  0  3  0  0  0  0  0  0
    3.6150    0.3045    2.3137 C   0  0  0  0  0  0  0  0  0  0  0  0
    3.1906    0.0104    3.2957 H   0  0  0  0  0  0  0  0  0  0  0  0
    3.8993    1.3731    2.4050 H   0  0  0  0  0  0  0  0  0  0  0  0
    4.5414   -0.2629    2.1420 H   0  0  0  0  0  0  0  0  0  0  0  0
    1.4606    0.7808    1.2648 N   0  0  0  0  0  2  0  0  0  0  0  0
    1.2760    1.6900    2.4025 C   0  0  0  0  0  0  0  0  0  0  0  0
    2.1409    2.3854    2.4659 H   0  0  0  0  0  0  0  0  0  0  0  0
    1.2985    1.1005    3.3493 H   0  0  0  0  0  0  0  0  0  0  0  0
   -0.0000    2.5124    2.3770 C   0  0  0  0  0  0  0  0  0  0  0  0
   -0.0000    3.1370    3.2937 H   0  0  0  0  0  0  0  0  0  0  0  0
   -0.0002    3.2233    1.5318 H   0  0  0  0  0  0  0  0  0  0  0  0
   -1.2758    1.6897    2.4027 C   0  0  0  0  0  0  0  0  0  0  0  0
   -1.2979    1.1000    3.3494 H   0  0  0  0  0  0  0  0  0  0  0  0
   -2.1409    2.3848    2.4666 H   0  0  0  0  0  0  0  0  0  0  0  0
   -1.4606    0.7807    1.2649 N   0  0  0  0  0  2  0  0  0  0  0  0
   -3.6148    0.3043    2.3139 C   0  0  0  0  0  0  0  0  0  0  0  0
   -3.8991    1.3728    2.4054 H   0  0  0  0  0  0  0  0  0  0  0  0
   -3.1903    0.0099    3.2959 H   0  0  0  0  0  0  0  0  0  0  0  0
   -4.5413   -0.2632    2.1423 H   0  0  0  0  0  0  0  0  0  0  0  0
   -2.6119    0.1205    1.1995 C   0  0  1  0  0  3  0  0  0  0  0  0
   -2.9797   -0.7235    0.0727 C   0  0  0  0  0  0  0  0  0  0  0  0
   -4.0502   -1.6617    0.1612 C   0  0  0  0  0  0  0  0  0  0  0  0
   -4.5087   -1.8696    1.1380 H   0  0  0  0  0  0  0  0  0  0  0  0
   -4.5187   -2.3522   -0.9497 C   0  0  0  0  0  0  0  0  0  0  0  0
   -5.3323   -3.0833   -0.8441 H   0  0  0  0  0  0  0  0  0  0  0  0
   -3.9469   -2.0916   -2.2170 C   0  0  0  0  0  0  0  0  0  0  0  0
   -4.3295   -2.6110   -3.1092 H   0  0  0  0  0  0  0  0  0  0  0  0
   -2.8867   -1.2024   -2.3452 C   0  0  0  0  0  0  0  0  0  0  0  0
   -2.4106   -1.0055   -3.3166 H   0  0  0  0  0  0  0  0  0  0  0  0
   -2.3375   -0.5413   -1.2062 C   0  0  0  0  0  0  0  0  0  0  0  0
   -1.2822    0.2085   -1.3844 O   0  5  0  0  0  0  0  0  0  0  0  0
  1  2  1  0  0  0  0
  2 11  1  0  0  0  0
  3  5  1  0  0  0  0
  3  2  2  0  0  0  0
  4  3  1  0  0  0  0
  5  7  2  0  0  0  0
  6  5  1  0  0  0  0
  7  8  1  0  0  0  0
  7  9  1  0  0  0  0
  9 10  1  0  0  0  0
 11  9  2  0  0  0  0
 11 12  1  0  0  0  0
 12 17  1  6  0  0  0
 12 13  1  0  0  0  0
 13 15  1  0  0  0  0
 13 14  1  0  0  0  0
 16 13  1  0  0  0  0
 17 18  1  0  0  0  0
 18 19  1  0  0  0  0
 18 20  1  0  0  0  0
 21 18  1  0  0  0  0
 21 24  1  0  0  0  0
 21 22  1  0  0  0  0
 23 21  1  0  0  0  0
 24 26  1  0  0  0  0
 24 25  1  0  0  0  0
 27 24  1  0  0  0  0
 28 29  1  0  0  0  0
 28 30  1  0  0  0  0
 31 28  1  0  0  0  0
 32 27  1  6  0  0  0
 32 28  1  0  0  0  0
 33 34  1  0  0  0  0
 33 32  1  0  0  0  0
 34 35  1  0  0  0  0
 36 37  1  0  0  0  0
 36 34  2  0  0  0  0
 38 36  1  0  0  0  0
 39 38  1  0  0  0  0
 40 38  2  0  0  0  0
 40 42  1  0  0  0  0
 41 40  1  0  0  0  0
 42 33  2  0  0  0  0
 43 42  1  0  0  0  0
M  CHG  2   1  -1  43  -1
M  END
