43,44,45,47
q = -2.0, confidence = 0.798

 48 49  0  0  0  0  0  0  0  0999 V2000
   -0.1807    1.2891    0.1776 C   0  0  0  0  0  0  0  0  0  0  0  0
    0.3024    1.5214    1.1474 H   0  0  0  0  0  0  0  0  0  0  0  0
   -0.5748    2.2572   -0.2062 H   0  0  0  0  0  0  0  0  0  0  0  0
    0.8590    0.7440   -0.8043 C   0  0  0  0  0  0  0  0  0  0  0  0
    0.3561    0.4091   -1.7355 H   0  0  0  0  0  0  0  0  0  0  0  0
    1.5457    1.5692   -1.1033 H   0  0  0  0  0  0  0  0  0  0  0  0
   -2.3066    0.2862   -0.6321 C   0  0  0  0  0  0  0  0  0  0  0  0
   -2.9893   -0.5453   -0.3651 H   0  0  0  0  0  0  0  0  0  0  0  0
   -1.7942   -0.0104   -1.5712 H   0  0  0  0  0  0  0  0  0  0  0  0
   -3.0700    1.5738   -0.8570 C   0  0  0  0  0  0  0  0  0  0  0  0
   -2.6618    2.4851   -1.8531 C   0  0  0  0  0  0  0  0  0  0  0  0
   -1.8144    2.2258   -2.5086 H   0  0  0  0  0  0  0  0  0  0  0  0
   -3.3305    3.7059   -2.0319 C   0  0  0  0  0  0  0  0  0  0  0  0
   -2.9994    4.4027   -2.8169 H   0  0  0  0  0  0  0  0  0  0  0  0
   -4.4237    4.0323   -1.2150 C   0  0  0  0  0  0  0  0  0  0  0  0
   -4.9511    4.9883   -1.3534 H   0  0  0  0  0  0  0  0  0  0  0  0
   -4.8490    3.1291   -0.2275 C   0  0  0  0  0  0  0  0  0  0  0  0
   -5.7139    3.3738    0.4076 H   0  0  0  0  0  0  0  0  0  0  0  0
   -4.1787    1.9100   -0.0524 C   0  0  0  0  0  0  0  0  0  0  0  0
   -4.5264    1.2017    0.7152 H   0  0  0  0  0  0  0  0  0  0  0  0
   -1.8260    0.4911    1.8024 C   0  0  0  0  0  0  0  0  0  0  0  0
   -2.7479   -0.1251    1.8651 H   0  0  0  0  0  0  0  0  0  0  0  0
   -2.1066    1.5403    2.0357 H   0  0  0  0  0  0  0  0  0  0  0  0
   -0.8788   -0.0090    2.9393 C   0  0  0  0  0  0  0  0  0  0  0  0
    2.5840   -0.0461    0.8007 C   0  0  0  0  0  0  0  0  0  0  0  0
    3.0861   -0.9881    1.0997 H   0  0  0  0  0  0  0  0  0  0  0  0
    2.0028    0.2823    1.6852 H   0  0  0  0  0  0  0  0  0  0  0  0
    3.6053    1.0046    0.4173 C   0  0  0  0  0  0  0  0  0  0  0  0
    3.4120    2.3531    0.7815 C   0  0  0  0  0  0  0  0  0  0  0  0
    2.5405    2.6267    1.3980 H   0  0  0  0  0  0  0  0  0  0  0  0
    4.3218    3.3452    0.3853 C   0  0  0  0  0  0  0  0  0  0  0  0
    4.1556    4.3915    0.6837 H   0  0  0  0  0  0  0  0  0  0  0  0
    5.4446    3.0011   -0.3829 C   0  0  0  0  0  0  0  0  0  0  0  0
    6.1611    3.7766   -0.6935 H   0  0  0  0  0  0  0  0  0  0  0  0
    5.6564    1.6605   -0.7432 C   0  0  0  0  0  0  0  0  0  0  0  0
    6.5428    1.3815   -1.3329 H   0  0  0  0  0  0  0  0  0  0  0  0
    4.7453    0.6719   -0.3442 C   0  0  0  0  0  0  0  0  0  0  0  0
    4.9302   -0.3782   -0.6179 H   0  0  0  0  0  0  0  0  0  0  0  0
    2.1864   -1.2217   -1.3588 C   0  0  0  0  0  0  0  0  0  0  0  0
    2.9721   -1.8750   -0.9251 H   0  0  0  0  0  0  0  0  0  0  0  0
    2.6655   -0.6117   -2.1550 H   0  0  0  0  0  0  0  0  0  0  0  0
    1.1673   -2.1730   -2.0339 C   0  0  0  0  0  0  0  0  0  0  0  0
   -1.2782    0.3386    0.4427 N   0  0  0  0  0  0  0  0  0  0  0  0
    1.6179   -0.4065   -0.2746 N   0  0  0  0  0  0  0  0  0  0  0  0
   -0.1455   -1.0679    2.6878 O   0  5  0  0  0  0  0  0  0  0  0  0
   -0.9123    0.5841    4.0111 O   0  0  0  0  0  0  0  0  0  0  0  0
    0.3203   -2.7649   -1.2149 O   0  5  0  0  0  0  0  0  0  0  0  0
    1.2252   -2.3798   -3.2388 O   0  0  0  0  0  0  0  0  0  0  0  0
  1 43  1  0  0  0  0
  1  2  1  0  0  0  0
  3  1  1  0  0  0  0
  4 44  1  0  0  0  0
  4  1  1  0  0  0  0
  5  4  1  0  0  0  0
  6  4  1  0  0  0  0
  7  8  1  0  0  0  0
  7 43  1  0  0  0  0
  9  7  1  0  0  0  0
 10  7  1  0  0  0  0
 10 19  1  0  0  0  0
 11 10  2  0  0  0  0
 12 11  1  0  0  0  0
 13 11  1  0  0  0  0
 13 15  2  0  0  0  0
 14 13  1  0  0  0  0
 15 17  1  0  0  0  0
 16 15  1  0  0  0  0
 17 19  2  0  0  0  0
 17 18  1  0  0  0  0
 19 20  1  0  0  0  0
 21 22  1  0  0  0  0
 21 23  1  0  0  0  0
 21 24  1  0  0  0  0
 24 46  2  0  0  0  0
 25 26  1  0  0  0  0
 25 27  1  0  0  0  0
 28 29  1  0  0  0  0
 28 25  1  0  0  0  0
 29 30  1  0  0  0  0
 31 32  1  0  0  0  0
 31 29  2  0  0  0  0
 33 31  1  0  0  0  0
 34 33  1  0  0  0  0
 35 33  2  0  0  0  0
 35 37  1  0  0  0  0
 36 35  1  0  0  0  0
 37 28  2  0  0  0  0
 38 37  1  0  0  0  0
 39 40  1  0  0  0  0
 39 44  1  0  0  0  0
 41 39  1  0  0  0  0
 42 39  1  0  0  0  0
 42 47  1  0  0  0  0
 43 21  1  0  0  0  0
 44 25  1  0  0  0  0
 45 24  1  0  0  0  0
 48 42  2  0  0  0  0
M  CHG  2  45  -1  47  -1
M  END
