1,2,5,6
q = -1.0, confidence = 0.108

 41 42  0  0  0  0  0  0  0  0999 V2000
   -1.3077   -0.0048   -1.0849 O   0  5  0  0  0  0  0  0  0  0  0  0
    1.2619    0.0292   -1.1455 O   0  5  0  0  0  0  0  0  0  0  0  0
   -6.7716   -0.4793   -1.0127 O   0  0  0  0  0  0  0  0  0  0  0  0
    6.7632   -0.4493   -0.9643 O   0  0  0  0  0  0  0  0  0  0  0  0
   -1.3000    0.2830    1.6845 N   0  0  0  0  0  2  0  0  0  0  0  0
    1.2655    0.3315    1.6254 N   0  0  0  0  0  2  0  0  0  0  0  0
   -2.5835   -0.1079   -0.9807 C   0  0  0  0  0  0  0  0  0  0  0  0
   -3.3542   -0.2893   -2.1838 C   0  0  0  0  0  0  0  0  0  0  0  0
   -4.7214   -0.4065   -2.1466 C   0  0  0  0  0  0  0  0  0  0  0  0
   -5.4336   -0.3477   -0.8947 C   0  0  0  0  0  0  0  0  0  0  0  0
   -4.7389   -0.1679    0.2918 C   0  0  0  0  0  0  0  0  0  0  0  0
   -3.3067   -0.0423    0.2982 C   0  0  0  0  0  0  0  0  0  0  0  0
   -2.6511    0.1534    1.5202 C   0  0  0  0  0  3  0  0  0  0  0  0
   -0.7698    0.4771    2.8846 C   0  0  0  0  0  3  0  0  0  0  0  0
    0.7079    0.6165    2.9420 C   0  0  0  0  0  0  0  0  0  0  0  0
    2.5733    0.2353    1.4826 C   0  0  0  0  0  3  0  0  0  0  0  0
    3.2592    0.0131    0.2522 C   0  0  0  0  0  0  0  0  0  0  0  0
    4.6865   -0.1089    0.2841 C   0  0  0  0  0  0  0  0  0  0  0  0
    5.4142   -0.3167   -0.8833 C   0  0  0  0  0  0  0  0  0  0  0  0
    4.7182   -0.4020   -2.1287 C   0  0  0  0  0  0  0  0  0  0  0  0
    3.3438   -0.2853   -2.1890 C   0  0  0  0  0  0  0  0  0  0  0  0
    2.5494   -0.0797   -1.0106 C   0  0  0  0  0  0  0  0  0  0  0  0
   -7.5653   -0.4336    0.1643 C   0  0  0  0  0  0  0  0  0  0  0  0
    7.5145   -0.3774    0.2336 C   0  0  0  0  0  0  0  0  0  0  0  0
   -2.7968   -0.3272   -3.1305 H   0  0  0  0  0  0  0  0  0  0  0  0
   -5.3146   -0.5463   -3.0622 H   0  0  0  0  0  0  0  0  0  0  0  0
   -5.2646   -0.1188    1.2547 H   0  0  0  0  0  0  0  0  0  0  0  0
   -3.2682    0.2126    2.4365 H   0  0  0  0  0  0  0  0  0  0  0  0
   -1.3977    0.5636    3.7885 H   0  0  0  0  0  0  0  0  0  0  0  0
    0.9723    1.6596    3.2481 H   0  0  0  0  0  0  0  0  0  0  0  0
    1.1477   -0.0399    3.7306 H   0  0  0  0  0  0  0  0  0  0  0  0
    3.1995    0.3342    2.3928 H   0  0  0  0  0  0  0  0  0  0  0  0
    5.1890   -0.0365    1.2588 H   0  0  0  0  0  0  0  0  0  0  0  0
    5.3167   -0.5626   -3.0379 H   0  0  0  0  0  0  0  0  0  0  0  0
    2.8096   -0.3459   -3.1484 H   0  0  0  0  0  0  0  0  0  0  0  0
   -8.6133   -0.5607   -0.1606 H   0  0  0  0  0  0  0  0  0  0  0  0
   -7.2961   -1.2531    0.8664 H   0  0  0  0  0  0  0  0  0  0  0  0
   -7.4584    0.5422    0.6872 H   0  0  0  0  0  0  0  0  0  0  0  0
    8.5741   -0.5108   -0.0502 H   0  0  0  0  0  0  0  0  0  0  0  0
    7.3945    0.6091    0.7360 H   0  0  0  0  0  0  0  0  0  0  0  0
    7.2257   -1.1803    0.9489 H   0  0  0  0  0  0  0  0  0  0  0  0
  1  7  1  0  0  0  0
  2 22  1  0  0  0  0
  3 10  1  0  0  0  0
  3 23  1  0  0  0  0
  4 19  1  0  0  0  0
  4 24  1  0  0  0  0
  5 14  1  0  0  0  0
  6 15  1  0  0  0  0
  7 12  1  0  0  0  0
  8  9  1  0  0  0  0
  8  7  2  0  0  0  0
  9 10  2  0  0  0  0
 10 11  1  0  0  0  0
 11 12  2  0  0  0  0
 11 27  1  0  0  0  0
 12 13  1  0  0  0  0
 13  5  1  0  0  0  0
 13 28  1  0  0  0  0
 14 15  1  0  0  0  0
 14 29  1  0  0  0  0
 15 30  1  0  0  0  0
 15 31  1  0  0  0  0
 16  6  1  0  0  0  0
 16 32  1  0  0  0  0
 17 18  1  0  0  0  0
 17 16  1  0  0  0  0
 18 33  1  0  0  0  0
 19 18  2  0  0  0  0
 20 19  1  0  0  0  0
 21 20  2  0  0  0  0
 21 22  1  0  0  0  0
 22 17  2  0  0  0  0
 23 38  1  0  0  0  0
 23 37  1  0  0  0  0
 24 40  1  0  0  0  0
 24 41  1  0  0  0  0
 25  8  1  0  0  0  0
 26  9  1  0  0  0  0
 34 20  1  0  0  0  0
 35 21  1  0  0  0  0
 36 23  1  0  0  0  0
 39 24  1  0  0  0  0
M  CHG  2   1  -1   2  -1
M  END
