1,2,3,4
q = -2.0, confidence = 0.76

 52 54  0  0  1  0  0  0  0  0999 V2000
    0.8226    1.2304   -0.2091 O   0  0  0  0  0  1  0  0  0  0  0  0
    0.8225   -1.2304   -0.2095 O   0  5  0  0  0  0  0  0  0  0  0  0
   -1.9085    1.2751    0.1020 N   0  0  0  0  0  2  0  0  0  0  0  0
   -1.9083   -1.2752    0.1025 N   0  0  0  0  0  2  0  0  0  0  0  0
    4.5478    4.5307   -0.2180 C   0  0  0  0  0  0  0  0  0  0  0  0
    3.3707    5.2756   -0.0378 C   0  0  0  0  0  0  0  0  0  0  0  0
    2.1343    4.6260    0.0724 C   0  0  0  0  0  0  0  0  0  0  0  0
    2.0543    3.2170    0.0074 C   0  0  0  0  0  0  0  0  0  0  0  0
    3.2444    2.4788   -0.1845 C   0  0  0  0  0  0  0  0  0  0  0  0
    4.4787    3.1294   -0.2932 C   0  0  0  0  0  0  0  0  0  0  0  0
    0.7668    2.4721    0.1219 C   0  0  2  0  0  3  0  0  0  0  0  0
   -0.4072    3.1015    0.5878 C   0  0  0  0  0  0  0  0  0  0  0  0
   -1.6938    2.5261    0.5587 C   0  0  0  0  0  0  0  0  0  0  0  0
   -2.8204    3.3800    1.1028 C   0  0  0  0  0  0  0  0  0  0  0  0
   -3.1611    0.7153   -0.1931 C   0  0  0  0  0  0  0  0  0  0  0  0
   -4.3267    1.4061   -0.5853 C   0  0  0  0  0  0  0  0  0  0  0  0
   -5.4851    0.7008   -0.9421 C   0  0  0  0  0  0  0  0  0  0  0  0
   -5.4851   -0.7019   -0.9417 C   0  0  0  0  0  0  0  0  0  0  0  0
   -4.3265   -1.4068   -0.5847 C   0  0  0  0  0  0  0  0  0  0  0  0
   -3.1610   -0.7157   -0.1927 C   0  0  0  0  0  0  0  0  0  0  0  0
   -1.6934   -2.5259    0.5597 C   0  0  2  0  0  3  0  0  0  0  0  0
   -2.8199   -3.3796    1.1045 C   0  0  0  0  0  0  0  0  0  0  0  0
   -0.4067   -3.1012    0.5888 C   0  0  0  0  0  0  0  0  0  0  0  0
    0.7670   -2.4720    0.1221 C   0  0  0  0  0  0  0  0  0  0  0  0
    2.0545   -3.2169    0.0069 C   0  0  0  0  0  0  0  0  0  0  0  0
    2.1351   -4.6257    0.0750 C   0  0  0  0  0  0  0  0  0  0  0  0
    3.3714   -5.2752   -0.0360 C   0  0  0  0  0  0  0  0  0  0  0  0
    4.5479   -4.5304   -0.2201 C   0  0  0  0  0  0  0  0  0  0  0  0
    4.4783   -3.1293   -0.2984 C   0  0  0  0  0  0  0  0  0  0  0  0
    3.2441   -2.4788   -0.1889 C   0  0  0  0  0  0  0  0  0  0  0  0
    5.5180    5.0433   -0.3044 H   0  0  0  0  0  0  0  0  0  0  0  0
    3.4152    6.3743    0.0101 H   0  0  0  0  0  0  0  0  0  0  0  0
    1.2201    5.2256    0.1885 H   0  0  0  0  0  0  0  0  0  0  0  0
    3.1669    1.3839   -0.2437 H   0  0  0  0  0  0  0  0  0  0  0  0
    5.3970    2.5398   -0.4375 H   0  0  0  0  0  0  0  0  0  0  0  0
   -0.3318    4.1224    0.9800 H   0  0  0  0  0  0  0  0  0  0  0  0
   -2.4175    4.0559    1.8803 H   0  0  0  0  0  0  0  0  0  0  0  0
   -3.6274    2.7665    1.5456 H   0  0  0  0  0  0  0  0  0  0  0  0
   -3.2745    4.0224    0.3201 H   0  0  0  0  0  0  0  0  0  0  0  0
   -4.3202    2.4977   -0.6728 H   0  0  0  0  0  0  0  0  0  0  0  0
   -6.3796    1.2562   -1.2610 H   0  0  0  0  0  0  0  0  0  0  0  0
   -6.3794   -1.2575   -1.2604 H   0  0  0  0  0  0  0  0  0  0  0  0
   -4.3198   -2.4985   -0.6715 H   0  0  0  0  0  0  0  0  0  0  0  0
   -2.4168   -4.0551    1.8823 H   0  0  0  0  0  0  0  0  0  0  0  0
   -3.2739   -4.0225    0.3222 H   0  0  0  0  0  0  0  0  0  0  0  0
   -3.6268   -2.7660    1.5470 H   0  0  0  0  0  0  0  0  0  0  0  0
   -0.3312   -4.1220    0.9814 H   0  0  0  0  0  0  0  0  0  0  0  0
    1.2213   -5.2254    0.1942 H   0  0  0  0  0  0  0  0  0  0  0  0
    3.4163   -6.3737    0.0143 H   0  0  0  0  0  0  0  0  0  0  0  0
    5.5181   -5.0429   -0.3072 H   0  0  0  0  0  0  0  0  0  0  0  0
    5.3961   -2.5397   -0.4459 H   0  0  0  0  0  0  0  0  0  0  0  0
    3.1661   -1.3841   -0.2505 H   0  0  0  0  0  0  0  0  0  0  0  0
  2 24  1  0  0  0  0
  3 13  1  0  0  0  0
  5  6  1  0  0  0  0
  6 32  1  0  0  0  0
  6  7  2  0  0  0  0
  7 33  1  0  0  0  0
  8  7  1  0  0  0  0
  8 11  1  0  0  0  0
  9  8  2  0  0  0  0
 10  5  2  0  0  0  0
 10  9  1  0  0  0  0
 11  1  1  1  0  0  0
 11 12  1  0  0  0  0
 12 36  1  0  0  0  0
 13 12  2  0  0  0  0
 13 14  1  0  0  0  0
 14 38  1  0  0  0  0
 14 37  1  0  0  0  0
 15 20  1  0  0  0  0
 15  3  1  0  0  0  0
 16 15  2  0  0  0  0
 17 18  2  0  0  0  0
 17 16  1  0  0  0  0
 18 19  1  0  0  0  0
 19 20  2  0  0  0  0
 20  4  1  0  0  0  0
 21  4  1  1  0  0  0
 21 23  1  0  0  0  0
 21 22  1  0  0  0  0
 22 46  1  0  0  0  0
 22 44  1  0  0  0  0
 23 47  1  0  0  0  0
 24 23  2  0  0  0  0
 25 26  1  0  0  0  0
 25 24  1  0  0  0  0
 26 48  1  0  0  0  0
 27 49  1  0  0  0  0
 27 26  2  0  0  0  0
 28 27  1  0  0  0  0
 29 28  2  0  0  0  0
 29 30  1  0  0  0  0
 30 25  2  0  0  0  0
 31  5  1  0  0  0  0
 34  9  1  0  0  0  0
 35 10  1  0  0  0  0
 39 14  1  0  0  0  0
 40 16  1  0  0  0  0
 41 17  1  0  0  0  0
 42 18  1  0  0  0  0
 43 19  1  0  0  0  0
 45 22  1  0  0  0  0
 50 28  1  0  0  0  0
 51 29  1  0  0  0  0
 52 30  1  0  0  0  0
M  CHG  1   2  -1
M  END
