3,4,7,8
q = -2.0, confidence = 0.866

 64 68  0  0  0  0  0  0  0  0999 V2000
    1.5941    6.1415    0.0121 Cl  0  0  0  0  0  0  0  0  0  0  0  0
   -1.5942    6.1414    0.0122 Cl  0  0  0  0  0  0  0  0  0  0  0  0
    1.2621   -1.5140    0.2005 O   0  0  0  0  0  1  0  0  0  0  0  0
   -1.2620   -1.5140    0.2005 O   0  0  0  0  0  1  0  0  0  0  0  0
    3.4810    1.2962    0.2289 O   0  0  0  0  0  0  0  0  0  0  0  0
   -3.4812    1.2960    0.2278 O   0  0  0  0  0  0  0  0  0  0  0  0
    1.2296    0.9245   -0.2138 N   0  0  0  0  0  2  0  0  0  0  0  0
   -1.2295    0.9244   -0.2135 N   0  0  0  0  0  2  0  0  0  0  0  0
    3.3231   -1.4303    1.4212 C   0  0  0  0  0  0  0  0  0  0  0  0
    2.6261   -2.1174    2.4317 C   0  0  0  0  0  0  0  0  0  0  0  0
    3.2809   -2.5021    3.6121 C   0  0  0  0  0  0  0  0  0  0  0  0
    4.6380   -2.1983    3.8006 C   0  0  0  0  0  0  0  0  0  0  0  0
    5.3354   -1.5070    2.7963 C   0  0  0  0  0  0  0  0  0  0  0  0
    4.6853   -1.1278    1.6129 C   0  0  0  0  0  0  0  0  0  0  0  0
    3.2880   -1.5597   -1.1105 C   0  0  0  0  0  0  0  0  0  0  0  0
    4.3813   -0.9093   -1.7144 C   0  0  0  0  0  0  0  0  0  0  0  0
    5.0073   -1.4710   -2.8387 C   0  0  0  0  0  0  0  0  0  0  0  0
    4.5486   -2.6840   -3.3748 C   0  0  0  0  0  0  0  0  0  0  0  0
    3.4494   -3.3277   -2.7829 C   0  0  0  0  0  0  0  0  0  0  0  0
    2.8220   -2.7686   -1.6613 C   0  0  0  0  0  0  0  0  0  0  0  0
    2.5717   -1.0134    0.1450 C   0  0  0  0  0  0  0  0  0  0  0  0
    2.5157    0.5468    0.0670 C   0  0  0  0  0  0  0  0  0  0  0  0
    0.7138    2.2206   -0.1879 C   0  0  0  0  0  0  0  0  0  0  0  0
    1.4226    3.4300   -0.1159 C   0  0  0  0  0  0  0  0  0  0  0  0
    0.7057    4.6382   -0.0591 C   0  0  0  0  0  0  0  0  0  0  0  0
   -0.7058    4.6382   -0.0591 C   0  0  0  0  0  0  0  0  0  0  0  0
   -1.4226    3.4299   -0.1158 C   0  0  0  0  0  0  0  0  0  0  0  0
   -0.7137    2.2206   -0.1879 C   0  0  0  0  0  0  0  0  0  0  0  0
   -2.5157    0.5467    0.0665 C   0  0  0  0  0  0  0  0  0  0  0  0
   -2.5716   -1.0136    0.1448 C   0  0  0  0  0  0  0  0  0  0  0  0
   -3.2880   -1.5602   -1.1103 C   0  0  0  0  0  0  0  0  0  0  0  0
   -4.3816   -0.9101   -1.7142 C   0  0  0  0  0  0  0  0  0  0  0  0
   -5.0078   -1.4722   -2.8382 C   0  0  0  0  0  0  0  0  0  0  0  0
   -4.5491   -2.6853   -3.3741 C   0  0  0  0  0  0  0  0  0  0  0  0
   -3.4498   -3.3287   -2.7823 C   0  0  0  0  0  0  0  0  0  0  0  0
   -2.8221   -2.7692   -1.6609 C   0  0  0  0  0  0  0  0  0  0  0  0
   -3.3229   -1.4299    1.4212 C   0  0  0  0  0  0  0  0  0  0  0  0
   -4.6851   -1.1276    1.6129 C   0  0  0  0  0  0  0  0  0  0  0  0
   -5.3351   -1.5063    2.7965 C   0  0  0  0  0  0  0  0  0  0  0  0
   -4.6374   -2.1969    3.8011 C   0  0  0  0  0  0  0  0  0  0  0  0
   -3.2803   -2.5003    3.6129 C   0  0  0  0  0  0  0  0  0  0  0  0
   -2.6256   -2.1162    2.4322 C   0  0  0  0  0  0  0  0  0  0  0  0
    1.5634   -2.3409    2.2632 H   0  0  0  0  0  0  0  0  0  0  0  0
    2.7221   -3.0421    4.3930 H   0  0  0  0  0  0  0  0  0  0  0  0
    5.1521   -2.4980    4.7275 H   0  0  0  0  0  0  0  0  0  0  0  0
    6.3998   -1.2593    2.9342 H   0  0  0  0  0  0  0  0  0  0  0  0
    5.2364   -0.5828    0.8359 H   0  0  0  0  0  0  0  0  0  0  0  0
    4.7223    0.0562   -1.3127 H   0  0  0  0  0  0  0  0  0  0  0  0
    5.8568   -0.9473   -3.3050 H   0  0  0  0  0  0  0  0  0  0  0  0
    5.0389   -3.1212   -4.2589 H   0  0  0  0  0  0  0  0  0  0  0  0
    3.0711   -4.2727   -3.2040 H   0  0  0  0  0  0  0  0  0  0  0  0
    1.9481   -3.2458   -1.1954 H   0  0  0  0  0  0  0  0  0  0  0  0
    2.5182    3.4169   -0.0934 H   0  0  0  0  0  0  0  0  0  0  0  0
   -2.5182    3.4168   -0.0934 H   0  0  0  0  0  0  0  0  0  0  0  0
   -4.7226    0.0555   -1.3127 H   0  0  0  0  0  0  0  0  0  0  0  0
   -5.8574   -0.9486   -3.3045 H   0  0  0  0  0  0  0  0  0  0  0  0
   -5.0396   -3.1227   -4.2580 H   0  0  0  0  0  0  0  0  0  0  0  0
   -3.0714   -4.2737   -3.2032 H   0  0  0  0  0  0  0  0  0  0  0  0
   -1.9481   -3.2463   -1.1951 H   0  0  0  0  0  0  0  0  0  0  0  0
   -5.2364   -0.5832    0.8355 H   0  0  0  0  0  0  0  0  0  0  0  0
   -6.3996   -1.2588    2.9343 H   0  0  0  0  0  0  0  0  0  0  0  0
   -5.1514   -2.4962    4.7283 H   0  0  0  0  0  0  0  0  0  0  0  0
   -2.7214   -3.0397    4.3940 H   0  0  0  0  0  0  0  0  0  0  0  0
   -1.5629   -2.3394    2.2637 H   0  0  0  0  0  0  0  0  0  0  0  0
  7 23  1  0  0  0  0
  7 22  1  0  0  0  0
  8 28  1  0  0  0  0
  8 29  1  0  0  0  0
  9 14  2  0  0  0  0
  9 10  1  0  0  0  0
 10 11  2  0  0  0  0
 11 12  1  0  0  0  0
 11 44  1  0  0  0  0
 12 45  1  0  0  0  0
 13 46  1  0  0  0  0
 13 12  2  0  0  0  0
 14 13  1  0  0  0  0
 15 21  1  0  0  0  0
 16 48  1  0  0  0  0
 16 15  2  0  0  0  0
 17 16  1  0  0  0  0
 18 17  2  0  0  0  0
 18 19  1  0  0  0  0
 19 20  2  0  0  0  0
 20 52  1  0  0  0  0
 20 15  1  0  0  0  0
 21  3  1  0  0  0  0
 21  9  1  0  0  0  0
 22 21  1  0  0  0  0
 22  5  2  0  0  0  0
 23 28  2  0  0  0  0
 23 24  1  0  0  0  0
 24 53  1  0  0  0  0
 24 25  2  0  0  0  0
 25 26  1  0  0  0  0
 25  1  1  0  0  0  0
 26  2  1  0  0  0  0
 27 54  1  0  0  0  0
 27 26  2  0  0  0  0
 28 27  1  0  0  0  0
 29 30  1  0  0  0  0
 29  6  2  0  0  0  0
 30  4  1  0  0  0  0
 30 37  1  0  0  0  0
 31 30  1  0  0  0  0
 32 55  1  0  0  0  0
 32 31  2  0  0  0  0
 33 32  1  0  0  0  0
 34 33  2  0  0  0  0
 34 35  1  0  0  0  0
 35 36  2  0  0  0  0
 36 59  1  0  0  0  0
 36 31  1  0  0  0  0
 37 38  2  0  0  0  0
 37 42  1  0  0  0  0
 38 39  1  0  0  0  0
 39 61  1  0  0  0  0
 39 40  2  0  0  0  0
 40 62  1  0  0  0  0
 41 40  1  0  0  0  0
 41 63  1  0  0  0  0
 42 41  2  0  0  0  0
 43 10  1  0  0  0  0
 47 14  1  0  0  0  0
 49 17  1  0  0  0  0
 50 18  1  0  0  0  0
 51 19  1  0  0  0  0
 56 33  1  0  0  0  0
 57 34  1  0  0  0  0
 58 35  1  0  0  0  0
 60 38  1  0  0  0  0
 64 42  1  0  0  0  0
M  END
