1,17,34,50
q = -2.0, confidence = 0.872

 50 52  0  0  1  0  0  0  0  0999 V2000
    1.2961   -1.7017   -0.8886 O   0  0  0  0  0  1  0  0  0  0  0  0
    2.4807   -1.7782   -0.3672 C   0  0  1  0  0  3  0  0  0  0  0  0
    3.2117   -2.9929   -0.5825 C   0  0  0  0  0  0  0  0  0  0  0  0
    2.7111   -3.7613   -1.1888 H   0  0  0  0  0  0  0  0  0  0  0  0
    4.4648   -3.1978   -0.0271 C   0  0  0  0  0  0  0  0  0  0  0  0
    4.9855   -4.1535   -0.1971 H   0  0  0  0  0  0  0  0  0  0  0  0
    5.0723   -2.1929    0.7649 C   0  0  0  0  0  0  0  0  0  0  0  0
    6.0619   -2.3567    1.2150 H   0  0  0  0  0  0  0  0  0  0  0  0
    4.4059   -0.9903    0.9612 C   0  0  0  0  0  0  0  0  0  0  0  0
    4.9045   -0.2162    1.5600 H   0  0  0  0  0  0  0  0  0  0  0  0
    3.1180   -0.7274    0.4044 C   0  0  0  0  0  0  0  0  0  0  0  0
    2.5260    0.6010    0.4778 C   0  0  0  0  0  0  0  0  0  0  0  0
    3.3534    1.6938    1.1205 C   0  0  0  0  0  0  0  0  0  0  0  0
    2.7461    2.5574    1.4228 H   0  0  0  0  0  0  0  0  0  0  0  0
    4.1727    2.0411    0.4582 H   0  0  0  0  0  0  0  0  0  0  0  0
    3.8279    1.2977    2.0370 H   0  0  0  0  0  0  0  0  0  0  0  0
    1.3170    0.8294   -0.0060 N   0  0  0  0  0  2  0  0  0  0  0  0
    0.6929    2.1000   -0.4063 C   0  0  2  0  0  0  0  0  0  0  0  0
    0.5216    1.9571   -1.4994 H   0  0  0  0  0  0  0  0  0  0  0  0
    1.3802    3.4707   -0.2994 C   0  0  0  0  0  0  0  0  0  0  0  0
    1.4689    3.7961    0.7586 H   0  0  0  0  0  0  0  0  0  0  0  0
    2.4028    3.4276   -0.7219 H   0  0  0  0  0  0  0  0  0  0  0  0
    0.5359    4.5044   -1.0616 C   0  0  0  0  0  0  0  0  0  0  0  0
    1.0104    5.5043   -0.9873 H   0  0  0  0  0  0  0  0  0  0  0  0
    0.5261    4.2410   -2.1423 H   0  0  0  0  0  0  0  0  0  0  0  0
   -0.9027    4.5524   -0.5356 C   0  0  0  0  0  0  0  0  0  0  0  0
   -1.5107    5.2641   -1.1312 H   0  0  0  0  0  0  0  0  0  0  0  0
   -0.8971    4.9455    0.5059 H   0  0  0  0  0  0  0  0  0  0  0  0
   -1.5634    3.1680   -0.5444 C   0  0  0  0  0  0  0  0  0  0  0  0
   -2.5845    3.2318   -0.1248 H   0  0  0  0  0  0  0  0  0  0  0  0
   -1.6749    2.7970   -1.5865 H   0  0  0  0  0  0  0  0  0  0  0  0
   -0.7112    2.1421    0.2252 C   0  0  1  0  0  0  0  0  0  0  0  0
   -0.5945    2.4724    1.2855 H   0  0  0  0  0  0  0  0  0  0  0  0
   -1.2452    0.7726    0.1780 N   0  0  0  0  0  2  0  0  0  0  0  0
   -2.4307    0.4692    0.6961 C   0  0  0  0  0  0  0  0  0  0  0  0
   -3.1605    1.4573    1.5829 C   0  0  0  0  0  0  0  0  0  0  0  0
   -2.5125    2.2855    1.9162 H   0  0  0  0  0  0  0  0  0  0  0  0
   -3.5270    0.9360    2.4880 H   0  0  0  0  0  0  0  0  0  0  0  0
   -4.0490    1.8919    1.0810 H   0  0  0  0  0  0  0  0  0  0  0  0
   -3.0732   -0.8052    0.4394 C   0  0  0  0  0  0  0  0  0  0  0  0
   -4.4000   -1.0546    0.9050 C   0  0  0  0  0  0  0  0  0  0  0  0
   -4.9033   -0.3022    1.5275 H   0  0  0  0  0  0  0  0  0  0  0  0
   -5.0973   -2.2100    0.5783 C   0  0  0  0  0  0  0  0  0  0  0  0
   -6.1203   -2.3633    0.9511 H   0  0  0  0  0  0  0  0  0  0  0  0
   -4.4793   -3.1798   -0.2496 C   0  0  0  0  0  0  0  0  0  0  0  0
   -5.0238   -4.0983   -0.5203 H   0  0  0  0  0  0  0  0  0  0  0  0
   -3.1892   -2.9860   -0.7175 C   0  0  0  0  0  0  0  0  0  0  0  0
   -2.6814   -3.7294   -1.3486 H   0  0  0  0  0  0  0  0  0  0  0  0
   -2.4304   -1.8194   -0.3722 C   0  0  2  0  0  3  0  0  0  0  0  0
   -1.2064   -1.7616   -0.7953 O   0  0  0  0  0  1  0  0  0  0  0  0
  2  1  1  6  0  0  0
  2 11  1  0  0  0  0
  3  2  1  0  0  0  0
  3  5  2  0  0  0  0
  4  3  1  0  0  0  0
  5  7  1  0  0  0  0
  6  5  1  0  0  0  0
  7  9  2  0  0  0  0
  7  8  1  0  0  0  0
  9 10  1  0  0  0  0
 11 12  2  0  0  0  0
 11  9  1  0  0  0  0
 12 13  1  0  0  0  0
 13 14  1  0  0  0  0
 13 16  1  0  0  0  0
 15 13  1  0  0  0  0
 17 12  1  0  0  0  0
 18 19  1  6  0  0  0
 18 20  1  0  0  0  0
 18 17  1  0  0  0  0
 18 32  1  0  0  0  0
 20 21  1  0  0  0  0
 22 20  1  0  0  0  0
 23 24  1  0  0  0  0
 23 26  1  0  0  0  0
 23 20  1  0  0  0  0
 25 23  1  0  0  0  0
 26 28  1  0  0  0  0
 27 26  1  0  0  0  0
 29 26  1  0  0  0  0
 29 30  1  0  0  0  0
 29 32  1  0  0  0  0
 31 29  1  0  0  0  0
 32 33  1  1  0  0  0
 34 32  1  0  0  0  0
 34 35  1  0  0  0  0
 35 36  1  0  0  0  0
 36 37  1  0  0  0  0
 36 38  1  0  0  0  0
 39 36  1  0  0  0  0
 40 35  2  0  0  0  0
 40 41  1  0  0  0  0
 41 42  1  0  0  0  0
 43 41  2  0  0  0  0
 43 44  1  0  0  0  0
 45 43  1  0  0  0  0
 46 45  1  0  0  0  0
 47 49  1  0  0  0  0
 47 45  2  0  0  0  0
 48 47  1  0  0  0  0
 49 50  1  1  0  0  0
 49 40  1  0  0  0  0
M  END
