1,2,5,6
q = -2.0, confidence = 0.826

 60 61  0  0  1  0  0  0  0  0999 V2000
    1.8234    0.6358   -0.6023 O   0  0  0  0  0  1  0  0  0  0  0  0
   -1.9360   -0.7180    0.0327 O   0  5  0  0  0  0  0  0  0  0  0  0
    6.3403    0.3796   -1.7569 O   0  0  0  0  0  0  0  0  0  0  0  0
   -6.4950   -1.3182   -1.2279 O   0  0  0  0  0  0  0  0  0  0  0  0
    0.6456   -1.6791    0.7306 N   0  0  0  0  0  2  0  0  0  0  0  0
   -0.7356    1.8066   -0.7797 N   0  0  0  0  0  2  0  0  0  0  0  0
    2.9831   -1.4346   -0.0145 C   0  0  0  0  0  0  0  0  0  0  0  0
    2.9034   -0.1081   -0.5891 C   0  0  2  0  0  3  0  0  0  0  0  0
    4.0813    0.4453   -1.1528 C   0  0  0  0  0  0  0  0  0  0  0  0
    5.2896   -0.2594   -1.1774 C   0  0  0  0  0  0  0  0  0  0  0  0
    5.3741   -1.5652   -0.6168 C   0  0  0  0  0  0  0  0  0  0  0  0
    4.2323   -2.1124   -0.0474 C   0  0  0  0  0  0  0  0  0  0  0  0
   -3.0605    1.0836   -1.1685 C   0  0  0  0  0  0  0  0  0  0  0  0
   -2.9935   -0.2259   -0.5672 C   0  0  0  0  0  0  0  0  0  0  0  0
   -4.1643   -1.0384   -0.5798 C   0  0  0  0  0  0  0  0  0  0  0  0
   -5.3501   -0.5906   -1.1695 C   0  0  0  0  0  0  0  0  0  0  0  0
   -5.4211    0.7028   -1.7609 C   0  0  0  0  0  0  0  0  0  0  0  0
   -4.2969    1.5069   -1.7397 C   0  0  0  0  0  3  0  0  0  0  0  0
    1.8961   -2.0703    0.6679 C   0  0  0  0  0  0  0  0  0  0  0  0
   -1.9839    2.0269   -1.1169 C   0  0  0  0  0  0  0  0  0  0  0  0
    7.5887   -0.2837   -1.8264 C   0  0  0  0  0  0  0  0  0  0  0  0
   -6.5020   -2.6129   -0.6548 C   0  0  0  0  0  0  0  0  0  0  0  0
   -0.2347   -2.3552    1.6924 C   0  0  0  0  0  0  0  0  0  0  0  0
   -0.2026   -1.7399    3.1074 C   0  0  0  0  0  0  0  0  0  0  0  0
   -0.6284   -0.2613    3.2523 C   0  0  0  0  0  0  0  0  0  0  0  0
    0.5356    0.7439    3.2474 C   0  0  0  0  0  0  0  0  0  0  0  0
    0.1103    2.2231    3.3236 C   0  0  0  0  0  0  0  0  0  0  0  0
   -0.4577    2.8088    2.0161 C   0  0  0  0  0  0  0  0  0  0  0  0
    0.6173    3.0157    0.9349 C   0  0  0  0  0  0  0  0  0  0  0  0
    0.1317    2.9665   -0.5289 C   0  0  0  0  0  0  0  0  0  0  0  0
    7.5270   -1.2274   -2.4130 H   0  0  0  0  0  0  0  0  0  0  0  0
    7.9935   -0.5172   -0.8163 H   0  0  0  0  0  0  0  0  0  0  0  0
    8.2818    0.4103   -2.3372 H   0  0  0  0  0  0  0  0  0  0  0  0
   -6.2866   -2.5820    0.4365 H   0  0  0  0  0  0  0  0  0  0  0  0
   -5.7613   -3.2841   -1.1438 H   0  0  0  0  0  0  0  0  0  0  0  0
   -7.5183   -3.0194   -0.8119 H   0  0  0  0  0  0  0  0  0  0  0  0
    0.0667   -3.4237    1.7606 H   0  0  0  0  0  0  0  0  0  0  0  0
   -1.2623   -2.3084    1.2867 H   0  0  0  0  0  0  0  0  0  0  0  0
    0.8149   -1.8788    3.5378 H   0  0  0  0  0  0  0  0  0  0  0  0
   -0.8761   -2.3771    3.7196 H   0  0  0  0  0  0  0  0  0  0  0  0
   -1.3567   -0.0140    2.4507 H   0  0  0  0  0  0  0  0  0  0  0  0
   -1.1800   -0.1415    4.2101 H   0  0  0  0  0  0  0  0  0  0  0  0
    1.1595    0.5828    2.3418 H   0  0  0  0  0  0  0  0  0  0  0  0
    1.1972    0.5145    4.1115 H   0  0  0  0  0  0  0  0  0  0  0  0
   -0.6436    2.3375    4.1337 H   0  0  0  0  0  0  0  0  0  0  0  0
    0.9845    2.8344    3.6393 H   0  0  0  0  0  0  0  0  0  0  0  0
   -0.9731    3.7698    2.2309 H   0  0  0  0  0  0  0  0  0  0  0  0
   -1.2456    2.1246    1.6367 H   0  0  0  0  0  0  0  0  0  0  0  0
    1.1329    3.9889    1.0852 H   0  0  0  0  0  0  0  0  0  0  0  0
    1.4007    2.2399    1.0380 H   0  0  0  0  0  0  0  0  0  0  0  0
   -0.4320    3.8871   -0.7952 H   0  0  0  0  0  0  0  0  0  0  0  0
    1.0186    2.8922   -1.1889 H   0  0  0  0  0  0  0  0  0  0  0  0
    4.0345    1.4517   -1.5896 H   0  0  0  0  0  0  0  0  0  0  0  0
    6.3127   -2.1323   -0.6200 H   0  0  0  0  0  0  0  0  0  0  0  0
    4.2873   -3.1163    0.4035 H   0  0  0  0  0  0  0  0  0  0  0  0
   -4.0791   -2.0272   -0.1131 H   0  0  0  0  0  0  0  0  0  0  0  0
   -6.3690    1.0284   -2.2096 H   0  0  0  0  0  0  0  0  0  0  0  0
   -4.3449    2.5157   -2.1802 H   0  0  0  0  0  0  0  0  0  0  0  0
    2.1548   -2.9882    1.2344 H   0  0  0  0  0  0  0  0  0  0  0  0
   -2.2507    3.0750   -1.3605 H   0  0  0  0  0  0  0  0  0  0  0  0
  3 10  1  0  0  0  0
  4 16  1  0  0  0  0
  4 22  1  0  0  0  0
  5 23  1  0  0  0  0
  6 30  1  0  0  0  0
  7 19  2  0  0  0  0
  8  1  1  1  0  0  0
  8  7  1  0  0  0  0
  9  8  1  0  0  0  0
 10  9  2  0  0  0  0
 10 11  1  0  0  0  0
 11 12  2  0  0  0  0
 12  7  1  0  0  0  0
 12 55  1  0  0  0  0
 13 20  2  0  0  0  0
 13 14  1  0  0  0  0
 14  2  1  0  0  0  0
 15 14  2  0  0  0  0
 15 56  1  0  0  0  0
 16 15  1  0  0  0  0
 17 18  1  0  0  0  0
 17 16  2  0  0  0  0
 18 13  1  0  0  0  0
 19  5  1  0  0  0  0
 19 59  1  0  0  0  0
 20  6  1  0  0  0  0
 21  3  1  0  0  0  0
 21 32  1  0  0  0  0
 22 34  1  0  0  0  0
 23 37  1  0  0  0  0
 23 24  1  0  0  0  0
 24 25  1  0  0  0  0
 24 39  1  0  0  0  0
 24 40  1  0  0  0  0
 25 42  1  0  0  0  0
 26 25  1  0  0  0  0
 26 27  1  0  0  0  0
 26 44  1  0  0  0  0
 27 46  1  0  0  0  0
 27 45  1  0  0  0  0
 28 47  1  0  0  0  0
 28 27  1  0  0  0  0
 29 50  1  0  0  0  0
 29 49  1  0  0  0  0
 29 28  1  0  0  0  0
 30 29  1  0  0  0  0
 31 21  1  0  0  0  0
 33 21  1  0  0  0  0
 35 22  1  0  0  0  0
 36 22  1  0  0  0  0
 38 23  1  0  0  0  0
 41 25  1  0  0  0  0
 43 26  1  0  0  0  0
 48 28  1  0  0  0  0
 51 30  1  0  0  0  0
 52 30  1  0  0  0  0
 53  9  1  0  0  0  0
 54 11  1  0  0  0  0
 57 17  1  0  0  0  0
 58 18  1  0  0  0  0
 60 20  1  0  0  0  0
M  CHG  1   2  -1
M  END
