1,3,5,6
q = -2.0, confidence = 0.736

 44 45  0  0  1  0  0  0  0  0999 V2000
    1.1841   -0.7572   -0.4075 O   0  5  0  0  0  0  0  0  0  0  0  0
    3.1983   -4.2624   -0.3797 O   0  0  0  0  0  0  0  0  0  0  0  0
   -1.1835   -0.7575    0.4077 O   0  0  0  0  0  1  0  0  0  0  0  0
   -3.1973   -4.2629    0.3780 O   0  0  0  0  0  0  0  0  0  0  0  0
    1.2238    1.9798   -0.3513 N   0  0  0  0  0  2  0  0  0  0  0  0
   -1.2235    1.9795    0.3524 N   0  0  0  0  0  2  0  0  0  0  0  0
    2.1040    5.3740   -0.6113 N   0  0  0  0  0  0  0  0  0  0  0  0
   -2.1048    5.3735    0.6117 N   0  0  0  0  0  0  0  0  0  0  0  0
    2.4528   -0.6778   -0.6189 C   0  0  0  0  0  0  0  0  0  0  0  0
    3.2337   -1.8898   -0.6706 C   0  0  0  0  0  0  0  0  0  0  0  0
    2.5907   -3.2001   -0.4063 C   0  0  0  0  0  0  0  0  0  0  0  0
    4.6038   -1.8363   -0.9235 C   0  0  0  0  0  0  0  0  0  0  0  0
    5.3017   -0.6193   -1.1423 C   0  0  0  0  0  0  0  0  0  0  0  0
    6.7817   -0.6258   -1.4254 C   0  0  0  0  0  0  0  0  0  0  0  0
    4.5634    0.5598   -1.0776 C   0  0  0  0  0  3  0  0  0  0  0  0
    3.1627    0.5751   -0.8058 C   0  0  0  0  0  0  0  0  0  0  0  0
    2.4999    1.8191   -0.6930 C   0  0  0  0  0  0  0  0  0  0  0  0
    0.6686    3.2475   -0.1989 C   0  0  0  0  0  0  0  0  0  0  0  0
    1.4297    4.4296   -0.4195 C   0  0  0  0  0  0  0  0  0  0  0  0
   -0.6688    3.2474    0.1997 C   0  0  0  0  0  0  0  0  0  0  0  0
   -1.4301    4.4293    0.4200 C   0  0  0  0  0  0  0  0  0  0  0  0
   -2.4996    1.8185    0.6939 C   0  0  0  0  0  0  0  0  0  0  0  0
   -3.1623    0.5745    0.8064 C   0  0  0  0  0  0  0  0  0  0  0  0
   -4.5630    0.5589    1.0782 C   0  0  0  0  0  0  0  0  0  0  0  0
   -5.3012   -0.6204    1.1423 C   0  0  0  0  0  0  0  0  0  0  0  0
   -6.7811   -0.6272    1.4254 C   0  0  0  0  0  0  0  0  0  0  0  0
   -4.6031   -1.8372    0.9229 C   0  0  0  0  0  0  0  0  0  0  0  0
   -3.2331   -1.8905    0.6699 C   0  0  0  0  0  0  0  0  0  0  0  0
   -2.5899   -3.2005    0.4048 C   0  0  0  0  0  0  0  0  0  0  0  0
   -2.4522   -0.6783    0.6190 C   0  0  1  0  0  3  0  0  0  0  0  0
    1.4824   -3.1477   -0.2177 H   0  0  0  0  0  0  0  0  0  0  0  0
    5.1361   -2.8024   -0.9381 H   0  0  0  0  0  0  0  0  0  0  0  0
    7.0080   -1.1762   -2.3625 H   0  0  0  0  0  0  0  0  0  0  0  0
    7.3445   -1.1333   -0.6146 H   0  0  0  0  0  0  0  0  0  0  0  0
    7.1838    0.4001   -1.5296 H   0  0  0  0  0  0  0  0  0  0  0  0
    5.0701    1.5274   -1.2272 H   0  0  0  0  0  0  0  0  0  0  0  0
    3.0948    2.7353   -0.8690 H   0  0  0  0  0  0  0  0  0  0  0  0
   -3.0948    2.7346    0.8699 H   0  0  0  0  0  0  0  0  0  0  0  0
   -5.0698    1.5262    1.2282 H   0  0  0  0  0  0  0  0  0  0  0  0
   -7.1832    0.3986    1.5308 H   0  0  0  0  0  0  0  0  0  0  0  0
   -7.0075   -1.1786    2.3619 H   0  0  0  0  0  0  0  0  0  0  0  0
   -7.3439   -1.1338    0.6140 H   0  0  0  0  0  0  0  0  0  0  0  0
   -5.1353   -2.8034    0.9370 H   0  0  0  0  0  0  0  0  0  0  0  0
   -1.4817   -3.1478    0.2157 H   0  0  0  0  0  0  0  0  0  0  0  0
  4 29  2  0  0  0  0
  5 18  1  0  0  0  0
  6 22  1  0  0  0  0
  7 19  3  0  0  0  0
  9  1  1  0  0  0  0
 10  9  2  0  0  0  0
 10 11  1  0  0  0  0
 11  2  2  0  0  0  0
 11 31  1  0  0  0  0
 12 10  1  0  0  0  0
 13 15  1  0  0  0  0
 13 12  2  0  0  0  0
 14 13  1  0  0  0  0
 14 34  1  0  0  0  0
 15 16  1  0  0  0  0
 16 17  2  0  0  0  0
 16  9  1  0  0  0  0
 17  5  1  0  0  0  0
 18 20  2  0  0  0  0
 19 18  1  0  0  0  0
 20  6  1  0  0  0  0
 20 21  1  0  0  0  0
 21  8  3  0  0  0  0
 22 23  2  0  0  0  0
 22 38  1  0  0  0  0
 23 24  1  0  0  0  0
 24 25  2  0  0  0  0
 24 39  1  0  0  0  0
 25 26  1  0  0  0  0
 26 40  1  0  0  0  0
 26 41  1  0  0  0  0
 27 43  1  0  0  0  0
 27 25  1  0  0  0  0
 28 27  2  0  0  0  0
 29 28  1  0  0  0  0
 30  3  1  6  0  0  0
 30 28  1  0  0  0  0
 30 23  1  0  0  0  0
 32 12  1  0  0  0  0
 33 14  1  0  0  0  0
 35 14  1  0  0  0  0
 36 15  1  0  0  0  0
 37 17  1  0  0  0  0
 42 26  1  0  0  0  0
 44 29  1  0  0  0  0
M  CHG  1   1  -1
M  END
