1,2,3,5
q = -2.0, confidence = 0.942

 40 42  0  0  0  0  0  0  0  0999 V2000
    0.0371    2.2083   -0.4996 O   0  5  0  0  0  0  0  0  0  0  0  0
    0.9914    0.5562    1.4665 O   0  5  0  0  0  0  0  0  0  0  0  0
    0.9171   -1.8680   -0.2576 N   0  0  0  0  0  0  0  0  0  0  0  0
    0.1799   -2.4900   -0.6285 H   0  0  0  0  0  0  0  0  0  0  0  0
    2.3129    0.3203   -0.9856 N   0  0  0  0  0  2  0  0  0  0  0  0
    1.1207   -2.2461    1.2001 C   0  0  0  0  0  0  0  0  0  0  0  0
    0.1458   -2.0520    1.6908 H   0  0  0  0  0  0  0  0  0  0  0  0
    1.3314   -3.3348    1.2539 H   0  0  0  0  0  0  0  0  0  0  0  0
    2.9725    1.4561   -0.9367 C   0  0  0  0  0  3  0  0  0  0  0  0
    4.0673    1.4229   -1.0995 H   0  0  0  0  0  0  0  0  0  0  0  0
    1.0179    3.0600   -0.4976 C   0  0  0  0  0  0  0  0  0  0  0  0
    0.6726    4.4396   -0.3067 C   0  0  0  0  0  0  0  0  0  0  0  0
   -0.3962    4.6629   -0.1755 H   0  0  0  0  0  0  0  0  0  0  0  0
    1.6294    5.4408   -0.2619 C   0  0  0  0  0  0  0  0  0  0  0  0
    1.3127    6.4832   -0.0987 H   0  0  0  0  0  0  0  0  0  0  0  0
    3.0083    5.1403   -0.4172 C   0  0  0  0  0  0  0  0  0  0  0  0
    3.7634    5.9382   -0.3785 H   0  0  0  0  0  0  0  0  0  0  0  0
    3.3808    3.8232   -0.6228 C   0  0  0  0  0  0  0  0  0  0  0  0
    4.4449    3.5680   -0.7547 H   0  0  0  0  0  0  0  0  0  0  0  0
    2.4316    2.7526   -0.6740 C   0  0  0  0  0  0  0  0  0  0  0  0
    2.9006   -0.9105   -1.3331 C   0  0  0  0  0  0  0  0  0  0  0  0
    4.1263   -1.0684   -2.0140 C   0  0  0  0  0  0  0  0  0  0  0  0
    4.7125   -0.1850   -2.3026 H   0  0  0  0  0  0  0  0  0  0  0  0
    4.5785   -2.3475   -2.3625 C   0  0  0  0  0  0  0  0  0  0  0  0
    5.5305   -2.4538   -2.9038 H   0  0  0  0  0  0  0  0  0  0  0  0
    3.8185   -3.4870   -2.0519 C   0  0  0  0  0  0  0  0  0  0  0  0
    4.1700   -4.4871   -2.3445 H   0  0  0  0  0  0  0  0  0  0  0  0
    2.5996   -3.3413   -1.3703 C   0  0  0  0  0  0  0  0  0  0  0  0
    1.9941   -4.2232   -1.1089 H   0  0  0  0  0  0  0  0  0  0  0  0
    2.1455   -2.0665   -1.0199 C   0  0  0  0  0  0  0  0  0  0  0  0
    2.0563   -0.0508    1.9589 C   0  0  0  0  0  0  0  0  0  0  0  0
    3.0726    0.6883    2.6244 C   0  0  0  0  0  0  0  0  0  0  0  0
    2.9369    1.7766    2.7136 H   0  0  0  0  0  0  0  0  0  0  0  0
    4.2101    0.0492    3.1271 C   0  0  0  0  0  0  0  0  0  0  0  0
    4.9860    0.6461    3.6329 H   0  0  0  0  0  0  0  0  0  0  0  0
    4.3828   -1.3414    2.9825 C   0  0  0  0  0  0  0  0  0  0  0  0
    5.2847   -1.8372    3.3702 H   0  0  0  0  0  0  0  0  0  0  0  0
    3.3848   -2.0856    2.3382 C   0  0  0  0  0  0  0  0  0  0  0  0
    3.4988   -3.1762    2.2201 H   0  0  0  0  0  0  0  0  0  0  0  0
    2.2245   -1.4662    1.8418 C   0  0  0  0  0  0  0  0  0  0  0  0
  1 11  1  0  0  0  0
  2 31  1  0  0  0  0
  3  6  1  0  0  0  0
  4  3  1  0  0  0  0
  5  9  1  0  0  0  0
  6  8  1  0  0  0  0
  6  7  1  0  0  0  0
  6 40  1  0  0  0  0
  9 20  1  0  0  0  0
 10  9  1  0  0  0  0
 11 12  1  0  0  0  0
 12 14  2  0  0  0  0
 12 13  1  0  0  0  0
 14 15  1  0  0  0  0
 16 17  1  0  0  0  0
 16 14  1  0  0  0  0
 18 16  2  0  0  0  0
 19 18  1  0  0  0  0
 20 18  1  0  0  0  0
 20 11  2  0  0  0  0
 21 30  1  0  0  0  0
 21  5  1  0  0  0  0
 22 21  2  0  0  0  0
 23 22  1  0  0  0  0
 24 26  2  0  0  0  0
 24 22  1  0  0  0  0
 25 24  1  0  0  0  0
 26 28  1  0  0  0  0
 27 26  1  0  0  0  0
 28 29  1  0  0  0  0
 28 30  2  0  0  0  0
 30  3  1  0  0  0  0
 31 32  1  0  0  0  0
 32 33  1  0  0  0  0
 32 34  2  0  0  0  0
 34 35  1  0  0  0  0
 36 34  1  0  0  0  0
 36 37  1  0  0  0  0
 38 36  2  0  0  0  0
 39 38  1  0  0  0  0
 40 31  2  0  0  0  0
 40 38  1  0  0  0  0
M  CHG  2   1  -1   2  -1
M  END
