1,2,3,4
q = -2.0, confidence = 0.808

 45 47  0  0  0  0  0  0  0  0999 V2000
   -0.9727    1.1199    0.9764 N   0  0  0  0  0  0  0  0  0  0  0  0
    1.2515    1.4759   -0.4281 N   0  0  0  0  0  0  0  0  0  0  0  0
   -1.4473   -1.6395   -0.0721 O   0  5  0  0  0  0  0  0  0  0  0  0
    1.2695   -0.8715    0.7866 O   0  5  0  0  0  0  0  0  0  0  0  0
   -2.7483   -1.2897    0.0869 C   0  0  0  0  0  0  0  0  0  0  0  0
   -3.7518   -1.9715   -0.6261 C   0  0  0  0  0  0  0  0  0  0  0  0
   -3.4531   -2.7786   -1.3100 H   0  0  0  0  0  0  0  0  0  0  0  0
   -5.0941   -1.6055   -0.4582 C   0  0  0  0  0  0  0  0  0  0  0  0
   -5.8751   -2.1382   -1.0221 H   0  0  0  0  0  0  0  0  0  0  0  0
   -5.4446   -0.5644    0.4172 C   0  0  0  0  0  0  0  0  0  0  0  0
   -6.4984   -0.2766    0.5447 H   0  0  0  0  0  0  0  0  0  0  0  0
   -4.4403    0.1069    1.1311 C   0  0  0  0  0  0  0  0  0  0  0  0
   -4.7058    0.9191    1.8270 H   0  0  0  0  0  0  0  0  0  0  0  0
   -3.0875   -0.2427    0.9821 C   0  0  0  0  0  0  0  0  0  0  0  0
   -1.9932    0.4058    1.7885 C   0  0  0  0  0  0  0  0  0  0  0  0
   -2.4421    1.1077    2.5308 H   0  0  0  0  0  0  0  0  0  0  0  0
   -1.4439   -0.3763    2.3539 H   0  0  0  0  0  0  0  0  0  0  0  0
    0.1442    1.5486    1.8337 C   0  0  0  0  0  0  0  0  0  0  0  0
    0.3717    0.7057    2.5103 H   0  0  0  0  0  0  0  0  0  0  0  0
   -0.1544    2.4213    2.4615 H   0  0  0  0  0  0  0  0  0  0  0  0
    1.4013    1.8712    1.0025 C   0  0  0  0  0  0  0  0  0  0  0  0
    1.6573    2.9512    1.0374 H   0  0  0  0  0  0  0  0  0  0  0  0
    2.2666    1.3305    1.4212 H   0  0  0  0  0  0  0  0  0  0  0  0
   -1.5822    2.2639    0.2508 C   0  0  0  0  0  0  0  0  0  0  0  0
   -2.1867    2.8654    0.9727 H   0  0  0  0  0  0  0  0  0  0  0  0
   -2.2719    1.8411   -0.5008 H   0  0  0  0  0  0  0  0  0  0  0  0
   -0.5636    3.2106   -0.4064 C   0  0  0  0  0  0  0  0  0  0  0  0
   -0.1661    3.8985    0.3684 H   0  0  0  0  0  0  0  0  0  0  0  0
   -1.1211    3.8605   -1.1108 H   0  0  0  0  0  0  0  0  0  0  0  0
    0.6180    2.5979   -1.1760 C   0  0  0  0  0  0  0  0  0  0  0  0
    0.3011    2.2123   -2.1615 H   0  0  0  0  0  0  0  0  0  0  0  0
    1.3845    3.3915   -1.3363 H   0  0  0  0  0  0  0  0  0  0  0  0
    2.5809    1.1072   -0.9952 C   0  0  0  0  0  0  0  0  0  0  0  0
    3.2251    2.0181   -1.0173 H   0  0  0  0  0  0  0  0  0  0  0  0
    2.4095    0.8024   -2.0489 H   0  0  0  0  0  0  0  0  0  0  0  0
    3.2917    0.0174   -0.2137 C   0  0  0  0  0  0  0  0  0  0  0  0
    4.6933   -0.0689   -0.3113 C   0  0  0  0  0  0  0  0  0  0  0  0
    5.2229    0.6529   -0.9551 H   0  0  0  0  0  0  0  0  0  0  0  0
    5.4240   -1.0406    0.3838 C   0  0  0  0  0  0  0  0  0  0  0  0
    6.5178   -1.0897    0.2807 H   0  0  0  0  0  0  0  0  0  0  0  0
    4.7414   -1.9396    1.2214 C   0  0  0  0  0  0  0  0  0  0  0  0
    5.2992   -2.7062    1.7813 H   0  0  0  0  0  0  0  0  0  0  0  0
    3.3516   -1.8675    1.3499 C   0  0  0  0  0  0  0  0  0  0  0  0
    2.7975   -2.5628    1.9972 H   0  0  0  0  0  0  0  0  0  0  0  0
    2.5999   -0.9069    0.6304 C   0  0  0  0  0  0  0  0  0  0  0  0
  1 15  1  0  0  0  0
  1 18  1  0  0  0  0
  2 21  1  0  0  0  0
  3  5  1  0  0  0  0
  5 14  1  0  0  0  0
  6  8  1  0  0  0  0
  6  5  2  0  0  0  0
  7  6  1  0  0  0  0
  8 10  2  0  0  0  0
  9  8  1  0  0  0  0
 10 11  1  0  0  0  0
 10 12  1  0  0  0  0
 12 13  1  0  0  0  0
 14 12  2  0  0  0  0
 14 15  1  0  0  0  0
 15 17  1  0  0  0  0
 15 16  1  0  0  0  0
 18 20  1  0  0  0  0
 18 19  1  0  0  0  0
 21 22  1  0  0  0  0
 21 23  1  0  0  0  0
 21 18  1  0  0  0  0
 24 25  1  0  0  0  0
 24  1  1  0  0  0  0
 26 24  1  0  0  0  0
 27 24  1  0  0  0  0
 27 28  1  0  0  0  0
 29 27  1  0  0  0  0
 30  2  1  0  0  0  0
 30 27  1  0  0  0  0
 31 30  1  0  0  0  0
 32 30  1  0  0  0  0
 33  2  1  0  0  0  0
 33 36  1  0  0  0  0
 34 33  1  0  0  0  0
 35 33  1  0  0  0  0
 36 45  1  0  0  0  0
 37 36  2  0  0  0  0
 37 39  1  0  0  0  0
 38 37  1  0  0  0  0
 39 41  2  0  0  0  0
 40 39  1  0  0  0  0
 41 43  1  0  0  0  0
 41 42  1  0  0  0  0
 43 44  1  0  0  0  0
 45  4  1  0  0  0  0
 45 43  2  0  0  0  0
M  CHG  2   3  -1   4  -1
M  END
