1,2,3,4
q = -2.0, confidence = 0.82

 57 59  0  0  0  0  0  0  0  0999 V2000
   -0.9523    1.2990    1.0039 N   0  0  0  0  0  0  0  0  0  0  0  0
    1.2165    1.7397   -0.4647 N   0  0  0  0  0  0  0  0  0  0  0  0
   -1.3966   -1.4370   -0.0827 O   0  5  0  0  0  0  0  0  0  0  0  0
    1.3355   -0.6322    0.6894 O   0  5  0  0  0  0  0  0  0  0  0  0
   -2.7024   -1.1060    0.1100 C   0  0  0  0  0  0  0  0  0  0  0  0
   -3.7020   -1.7781   -0.6340 C   0  0  0  0  0  0  0  0  0  0  0  0
   -5.0397   -1.4175   -0.4052 C   0  0  0  0  0  0  0  0  0  0  0  0
   -5.8251   -1.9330   -0.9826 H   0  0  0  0  0  0  0  0  0  0  0  0
   -5.4117   -0.4213    0.5219 C   0  0  0  0  0  0  0  0  0  0  0  0
   -4.3897    0.2273    1.2373 C   0  0  0  0  0  0  0  0  0  0  0  0
   -4.6485    1.0105    1.9689 H   0  0  0  0  0  0  0  0  0  0  0  0
   -3.0370   -0.1017    1.0449 C   0  0  0  0  0  0  0  0  0  0  0  0
   -1.9296    0.5450    1.8344 C   0  0  0  0  0  0  0  0  0  0  0  0
   -2.3650    1.2200    2.6089 H   0  0  0  0  0  0  0  0  0  0  0  0
   -1.3449   -0.2392    2.3599 H   0  0  0  0  0  0  0  0  0  0  0  0
    0.1818    1.7375    1.8325 C   0  0  0  0  0  0  0  0  0  0  0  0
    0.4503    0.8870    2.4842 H   0  0  0  0  0  0  0  0  0  0  0  0
   -0.1158    2.5903    2.4880 H   0  0  0  0  0  0  0  0  0  0  0  0
    1.4042    2.1060    0.9687 C   0  0  0  0  0  0  0  0  0  0  0  0
    1.6380    3.1906    1.0204 H   0  0  0  0  0  0  0  0  0  0  0  0
    2.2939    1.5740    1.3452 H   0  0  0  0  0  0  0  0  0  0  0  0
   -1.6121    2.4409    0.3208 C   0  0  0  0  0  0  0  0  0  0  0  0
   -2.2110    3.0116    1.0719 H   0  0  0  0  0  0  0  0  0  0  0  0
   -2.3129    2.0151   -0.4189 H   0  0  0  0  0  0  0  0  0  0  0  0
   -0.6382    3.4273   -0.3451 C   0  0  0  0  0  0  0  0  0  0  0  0
   -1.2333    4.0795   -1.0159 H   0  0  0  0  0  0  0  0  0  0  0  0
   -0.2324    4.1066    0.4330 H   0  0  0  0  0  0  0  0  0  0  0  0
    0.5319    2.8610   -1.1658 C   0  0  0  0  0  0  0  0  0  0  0  0
    0.1916    2.4890   -2.1487 H   0  0  0  0  0  0  0  0  0  0  0  0
    1.2733    3.6769   -1.3333 H   0  0  0  0  0  0  0  0  0  0  0  0
    2.5345    1.4167   -1.0843 C   0  0  0  0  0  0  0  0  0  0  0  0
    3.1544    2.3443   -1.1087 H   0  0  0  0  0  0  0  0  0  0  0  0
    2.3339    1.1317   -2.1386 H   0  0  0  0  0  0  0  0  0  0  0  0
    3.3005    0.3287   -0.3542 C   0  0  0  0  0  0  0  0  0  0  0  0
    4.7003    0.2861   -0.5044 C   0  0  0  0  0  0  0  0  0  0  0  0
    5.1864    1.0409   -1.1458 H   0  0  0  0  0  0  0  0  0  0  0  0
    5.4922   -0.6813    0.1314 C   0  0  0  0  0  0  0  0  0  0  0  0
    4.8380   -1.6151    0.9637 C   0  0  0  0  0  0  0  0  0  0  0  0
    5.4351   -2.3837    1.4826 H   0  0  0  0  0  0  0  0  0  0  0  0
    3.4514   -1.6058    1.1587 C   0  0  0  0  0  0  0  0  0  0  0  0
    2.6631   -0.6296    0.4833 C   0  0  0  0  0  0  0  0  0  0  0  0
   -3.2986   -2.8188   -1.6407 C   0  0  0  0  0  0  0  0  0  0  0  0
   -4.1822   -3.2956   -2.1054 H   0  0  0  0  0  0  0  0  0  0  0  0
   -2.6720   -3.6063   -1.1740 H   0  0  0  0  0  0  0  0  0  0  0  0
   -2.6786   -2.3690   -2.4448 H   0  0  0  0  0  0  0  0  0  0  0  0
   -6.8645   -0.0737    0.7345 C   0  0  0  0  0  0  0  0  0  0  0  0
   -6.9826    0.7794    1.4305 H   0  0  0  0  0  0  0  0  0  0  0  0
   -7.4291   -0.9316    1.1571 H   0  0  0  0  0  0  0  0  0  0  0  0
   -7.3619    0.1964   -0.2203 H   0  0  0  0  0  0  0  0  0  0  0  0
    2.7528   -2.6046    2.0393 C   0  0  0  0  0  0  0  0  0  0  0  0
    3.4699   -3.3127    2.4968 H   0  0  0  0  0  0  0  0  0  0  0  0
    2.0006   -3.1819    1.4621 H   0  0  0  0  0  0  0  0  0  0  0  0
    2.1876   -2.1005    2.8516 H   0  0  0  0  0  0  0  0  0  0  0  0
    6.9873   -0.7336   -0.0641 C   0  0  0  0  0  0  0  0  0  0  0  0
    7.2923   -1.6429   -0.6254 H   0  0  0  0  0  0  0  0  0  0  0  0
    7.5271   -0.7618    0.9055 H   0  0  0  0  0  0  0  0  0  0  0  0
    7.3557    0.1440   -0.6308 H   0  0  0  0  0  0  0  0  0  0  0  0
  1 16  1  0  0  0  0
  1 13  1  0  0  0  0
  2 19  1  0  0  0  0
  3  5  1  0  0  0  0
  5 12  1  0  0  0  0
  6  7  1  0  0  0  0
  6  5  2  0  0  0  0
  7  9  2  0  0  0  0
  8  7  1  0  0  0  0
  9 46  1  0  0  0  0
  9 10  1  0  0  0  0
 10 11  1  0  0  0  0
 12 10  2  0  0  0  0
 12 13  1  0  0  0  0
 13 15  1  0  0  0  0
 13 14  1  0  0  0  0
 16 17  1  0  0  0  0
 16 18  1  0  0  0  0
 19 20  1  0  0  0  0
 19 21  1  0  0  0  0
 19 16  1  0  0  0  0
 22  1  1  0  0  0  0
 22 23  1  0  0  0  0
 24 22  1  0  0  0  0
 25 22  1  0  0  0  0
 25 27  1  0  0  0  0
 26 25  1  0  0  0  0
 28  2  1  0  0  0  0
 28 25  1  0  0  0  0
 29 28  1  0  0  0  0
 30 28  1  0  0  0  0
 31  2  1  0  0  0  0
 31 34  1  0  0  0  0
 32 31  1  0  0  0  0
 33 31  1  0  0  0  0
 34 41  1  0  0  0  0
 35 34  2  0  0  0  0
 35 37  1  0  0  0  0
 36 35  1  0  0  0  0
 37 38  2  0  0  0  0
 38 40  1  0  0  0  0
 38 39  1  0  0  0  0
 40 50  1  0  0  0  0
 41  4  1  0  0  0  0
 41 40  2  0  0  0  0
 42 44  1  0  0  0  0
 42  6  1  0  0  0  0
 43 42  1  0  0  0  0
 45 42  1  0  0  0  0
 46 48  1  0  0  0  0
 46 47  1  0  0  0  0
 49 46  1  0  0  0  0
 50 51  1  0  0  0  0
 50 53  1  0  0  0  0
 52 50  1  0  0  0  0
 54 37  1  0  0  0  0
 54 56  1  0  0  0  0
 55 54  1  0  0  0  0
 57 54  1  0  0  0  0
M  CHG  2   3  -1   4  -1
M  END
