1,16,27,32
q = -2.0, confidence = 0.852

 40 41  0  0  1  0  0  0  0  0999 V2000
   -0.9072   -1.9126   -0.0003 O   0  0  0  0  0  1  0  0  0  0  0  0
   -2.1800   -2.0320    0.0003 C   0  0  1  0  0  3  0  0  0  0  0  0
   -2.6274   -3.4774    0.0010 C   0  0  0  0  0  0  0  0  0  0  0  0
   -1.7217   -4.1090    0.0014 H   0  0  0  0  0  0  0  0  0  0  0  0
   -3.2363   -3.7189   -0.8914 H   0  0  0  0  0  0  0  0  0  0  0  0
   -3.2367   -3.7181    0.8933 H   0  0  0  0  0  0  0  0  0  0  0  0
   -3.0620   -0.9024    0.0003 C   0  0  0  0  0  0  0  0  0  0  0  0
   -4.5599   -0.8978    0.0001 C   0  0  0  0  0  0  0  0  0  0  0  0
   -5.1736    0.1740   -0.0003 O   0  0  0  0  0  0  0  0  0  0  0  0
   -5.3696   -2.1846    0.0003 C   0  0  0  0  0  0  0  0  0  0  0  0
   -6.4371   -1.9016    0.0003 H   0  0  0  0  0  0  0  0  0  0  0  0
   -5.1590   -2.8068    0.8923 H   0  0  0  0  0  0  0  0  0  0  0  0
   -5.1591   -2.8069   -0.8916 H   0  0  0  0  0  0  0  0  0  0  0  0
   -2.5175    0.4067    0.0002 C   0  0  0  0  0  0  0  0  0  0  0  0
   -3.2921    1.1953   -0.0001 H   0  0  0  0  0  0  0  0  0  0  0  0
   -1.2423    0.7605    0.0003 N   0  0  0  0  0  2  0  0  0  0  0  0
   -0.8510    2.1177    0.0003 C   0  0  0  0  0  0  0  0  0  0  0  0
    0.5556    2.2993   -0.0003 C   0  0  0  0  0  0  0  0  0  0  0  0
    1.0951    3.6010   -0.0009 C   0  0  0  0  0  0  0  0  0  0  0  0
    2.1819    3.7611   -0.0017 H   0  0  0  0  0  0  0  0  0  0  0  0
    0.2385    4.7077   -0.0006 C   0  0  0  0  0  0  0  0  0  0  0  0
    0.6631    5.7223   -0.0011 H   0  0  0  0  0  0  0  0  0  0  0  0
   -1.1573    4.5260    0.0003 C   0  0  0  0  0  0  0  0  0  0  0  0
   -1.8267    5.3988    0.0006 H   0  0  0  0  0  0  0  0  0  0  0  0
   -1.7048    3.2380    0.0007 C   0  0  0  0  0  0  0  0  0  0  0  0
   -2.7958    3.1105    0.0014 H   0  0  0  0  0  0  0  0  0  0  0  0
    1.2804    1.0851   -0.0002 N   0  0  0  0  0  2  0  0  0  0  0  0
    2.6049    1.0609    0.0007 C   0  0  0  0  0  0  0  0  0  0  0  0
    3.1359    2.0296    0.0017 H   0  0  0  0  0  0  0  0  0  0  0  0
    3.4206   -0.0995    0.0006 C   0  0  0  0  0  0  0  0  0  0  0  0
    2.8352   -1.4250   -0.0008 C   0  0  2  0  0  3  0  0  0  0  0  0
    1.5596   -1.6487   -0.0017 O   0  0  0  0  0  1  0  0  0  0  0  0
    3.7313   -2.5427   -0.0011 C   0  0  0  0  0  0  0  0  0  0  0  0
    3.2788   -3.5446   -0.0021 H   0  0  0  0  0  0  0  0  0  0  0  0
    5.1062   -2.3607   -0.0001 C   0  0  0  0  0  0  0  0  0  0  0  0
    5.7662   -3.2425   -0.0003 H   0  0  0  0  0  0  0  0  0  0  0  0
    5.6788   -1.0589    0.0013 C   0  0  0  0  0  0  0  0  0  0  0  0
    6.7709   -0.9337    0.0021 H   0  0  0  0  0  0  0  0  0  0  0  0
    4.8425    0.0447    0.0016 C   0  0  0  0  0  0  0  0  0  0  0  0
    5.2640    1.0629    0.0026 H   0  0  0  0  0  0  0  0  0  0  0  0
  2  1  1  1  0  0  0
  2  7  1  0  0  0  0
  2  3  1  0  0  0  0
  3  4  1  0  0  0  0
  3  6  1  0  0  0  0
  5  3  1  0  0  0  0
  8  7  1  0  0  0  0
  8 10  1  0  0  0  0
  9  8  2  0  0  0  0
 10 12  1  0  0  0  0
 11 10  1  0  0  0  0
 13 10  1  0  0  0  0
 14 16  1  0  0  0  0
 14  7  2  0  0  0  0
 15 14  1  0  0  0  0
 17 16  1  0  0  0  0
 17 25  1  0  0  0  0
 18 27  1  0  0  0  0
 18 17  2  0  0  0  0
 19 21  2  0  0  0  0
 19 18  1  0  0  0  0
 20 19  1  0  0  0  0
 21 23  1  0  0  0  0
 22 21  1  0  0  0  0
 23 24  1  0  0  0  0
 23 25  2  0  0  0  0
 25 26  1  0  0  0  0
 27 28  1  0  0  0  0
 28 29  1  0  0  0  0
 30 28  2  0  0  0  0
 30 39  1  0  0  0  0
 31 32  1  1  0  0  0
 31 30  1  0  0  0  0
 33 31  1  0  0  0  0
 33 35  2  0  0  0  0
 34 33  1  0  0  0  0
 35 37  1  0  0  0  0
 36 35  1  0  0  0  0
 37 39  2  0  0  0  0
 37 38  1  0  0  0  0
 39 40  1  0  0  0  0
M  END
