1,2,3,4
q = -2.0, confidence = 0.844

 44 45  0  0  0  0  0  0  0  0999 V2000
   -2.1511   -0.8644    0.4525 O   0  5  0  0  0  0  0  0  0  0  0  0
    1.4014    0.3905   -0.0989 O   0  5  0  0  0  0  0  0  0  0  0  0
   -1.1167    1.8293    0.2811 N   0  0  0  0  0  0  0  0  0  0  0  0
   -0.6827    0.0702   -2.1086 N   0  0  0  0  0  0  0  0  0  0  0  0
   -3.3435   -0.2772    0.4383 C   0  0  0  0  0  0  0  0  0  0  0  0
   -4.4949   -1.0207    0.0688 C   0  0  0  0  0  0  0  0  0  0  0  0
   -5.7634   -0.4283    0.0293 C   0  0  0  0  0  0  0  0  0  0  0  0
   -6.6406   -1.0221   -0.2584 H   0  0  0  0  0  0  0  0  0  0  0  0
   -5.8881    0.9317    0.3538 C   0  0  0  0  0  0  0  0  0  0  0  0
   -4.7636    1.6917    0.7103 C   0  0  0  0  0  0  0  0  0  0  0  0
   -4.8836    2.7568    0.9554 H   0  0  0  0  0  0  0  0  0  0  0  0
   -3.4915    1.0970    0.7594 C   0  0  0  0  0  0  0  0  0  0  0  0
   -2.2868    1.8901    1.1964 C   0  0  0  0  0  0  0  0  0  0  0  0
   -2.5937    2.9524    1.3533 H   0  0  0  0  0  0  0  0  0  0  0  0
   -1.9335    1.5131    2.1808 H   0  0  0  0  0  0  0  0  0  0  0  0
   -1.4723    2.2408   -1.0957 C   0  0  0  0  0  0  0  0  0  0  0  0
   -1.3741    3.3448   -1.2213 H   0  0  0  0  0  0  0  0  0  0  0  0
   -2.5453    2.0059   -1.2429 H   0  0  0  0  0  0  0  0  0  0  0  0
   -0.6472    1.5509   -2.1829 C   0  0  0  0  0  0  0  0  0  0  0  0
   -1.0183    1.8945   -3.1786 H   0  0  0  0  0  0  0  0  0  0  0  0
    0.4102    1.8649   -2.1187 H   0  0  0  0  0  0  0  0  0  0  0  0
   -0.0567    2.6653    0.8940 C   0  0  0  0  0  0  0  0  0  0  0  0
    0.1276    2.2368    1.9034 H   0  0  0  0  0  0  0  0  0  0  0  0
   -0.4473    3.6996    1.0544 H   0  0  0  0  0  0  0  0  0  0  0  0
   -1.9785   -0.4535   -2.5823 C   0  0  0  0  0  0  0  0  0  0  0  0
   -2.8156    0.0070   -2.0280 H   0  0  0  0  0  0  0  0  0  0  0  0
   -2.0202   -1.5459   -2.4168 H   0  0  0  0  0  0  0  0  0  0  0  0
   -2.1148   -0.2401   -3.6681 H   0  0  0  0  0  0  0  0  0  0  0  0
    0.3956   -0.4970   -2.9505 C   0  0  0  0  0  0  0  0  0  0  0  0
    0.2895   -0.1559   -4.0068 H   0  0  0  0  0  0  0  0  0  0  0  0
    0.3455   -1.6001   -2.9088 H   0  0  0  0  0  0  0  0  0  0  0  0
    1.3852   -0.1900   -2.5652 H   0  0  0  0  0  0  0  0  0  0  0  0
    1.2595    2.7670    0.1657 C   0  0  0  0  0  0  0  0  0  0  0  0
    1.8400    4.0295   -0.0367 C   0  0  0  0  0  0  0  0  0  0  0  0
    1.3032    4.9369    0.2751 H   0  0  0  0  0  0  0  0  0  0  0  0
    3.1084    4.1433   -0.6247 C   0  0  0  0  0  0  0  0  0  0  0  0
    3.8116    3.0002   -1.0298 C   0  0  0  0  0  0  0  0  0  0  0  0
    4.8017    3.0821   -1.4963 H   0  0  0  0  0  0  0  0  0  0  0  0
    3.2292    1.7395   -0.8420 C   0  0  0  0  0  0  0  0  0  0  0  0
    1.9520    1.5941   -0.2402 C   0  0  0  0  0  0  0  0  0  0  0  0
   -4.2971   -2.6935   -0.3589 Cl  0  0  0  0  0  0  0  0  0  0  0  0
   -7.4596    1.6860    0.3029 Cl  0  0  0  0  0  0  0  0  0  0  0  0
    3.8141    5.7204   -0.8621 Cl  0  0  0  0  0  0  0  0  0  0  0  0
    4.0750    0.3226   -1.3822 Cl  0  0  0  0  0  0  0  0  0  0  0  0
  3 22  1  0  0  0  0
  3 13  1  0  0  0  0
  5  1  1  0  0  0  0
  5 12  1  0  0  0  0
  6  5  2  0  0  0  0
  7  6  1  0  0  0  0
  7  9  2  0  0  0  0
  8  7  1  0  0  0  0
  9 10  1  0  0  0  0
 10 12  2  0  0  0  0
 10 11  1  0  0  0  0
 12 13  1  0  0  0  0
 13 14  1  0  0  0  0
 13 15  1  0  0  0  0
 16  3  1  0  0  0  0
 17 16  1  0  0  0  0
 18 16  1  0  0  0  0
 19 21  1  0  0  0  0
 19  4  1  0  0  0  0
 19 16  1  0  0  0  0
 20 19  1  0  0  0  0
 22 24  1  0  0  0  0
 22 23  1  0  0  0  0
 25 27  1  0  0  0  0
 25  4  1  0  0  0  0
 25 26  1  0  0  0  0
 28 25  1  0  0  0  0
 29 31  1  0  0  0  0
 29 32  1  0  0  0  0
 29  4  1  0  0  0  0
 30 29  1  0  0  0  0
 33 22  1  0  0  0  0
 34 33  1  0  0  0  0
 34 35  1  0  0  0  0
 36 34  2  0  0  0  0
 37 39  2  0  0  0  0
 37 36  1  0  0  0  0
 38 37  1  0  0  0  0
 39 40  1  0  0  0  0
 40  2  1  0  0  0  0
 40 33  2  0  0  0  0
 41  6  1  0  0  0  0
 42  9  1  0  0  0  0
 43 36  1  0  0  0  0
 44 39  1  0  0  0  0
M  CHG  2   1  -1   2  -1
M  END
