1,2,3,4
q = -2.0, confidence = 0.814

 57 60  0  0  1  0  0  0  0  0999 V2000
    1.2063   -1.9852    0.6648 O   0  5  0  0  0  0  0  0  0  0  0  0
   -1.3399   -2.0206    0.5209 O   0  5  0  0  0  0  0  0  0  0  0  0
    1.2417    0.7227   -0.0108 N   0  0  0  0  0  2  0  0  0  0  0  0
   -1.3684    0.6805   -0.1916 N   0  0  0  0  0  2  0  0  0  0  0  0
    2.4675   -1.9471    0.3386 C   0  0  0  0  0  0  0  0  0  0  0  0
    3.2052   -3.1687    0.4437 C   0  0  0  0  0  0  0  0  0  0  0  0
    4.5581   -3.2296    0.1391 C   0  0  0  0  0  0  0  0  0  0  0  0
    5.2578   -2.0731   -0.2838 C   0  0  0  0  0  0  0  0  0  0  0  0
    4.5758   -0.8692   -0.3820 C   0  0  0  0  0  0  0  0  0  0  0  0
    3.1828   -0.7595   -0.0800 C   0  0  0  0  0  0  0  0  0  0  0  0
    2.5385    0.5369   -0.1700 C   0  0  1  0  0  3  0  0  0  0  0  0
    3.4071    1.7260   -0.4708 C   0  0  0  0  0  0  0  0  0  0  0  0
    4.0669    2.4130    0.5665 C   0  0  0  0  0  0  0  0  0  0  0  0
    4.8725    3.5246    0.2766 C   0  0  0  0  0  0  0  0  0  0  0  0
    5.0300    3.9543   -1.0503 C   0  0  0  0  0  0  0  0  0  0  0  0
    4.3864    3.2643   -2.0900 C   0  0  0  0  0  0  0  0  0  0  0  0
    3.5793    2.1534   -1.8033 C   0  0  0  0  0  0  0  0  0  0  0  0
   -2.6374   -1.8942    0.5211 C   0  0  0  0  0  0  0  0  0  0  0  0
   -3.4026   -3.0493    0.8776 C   0  0  0  0  0  0  0  0  0  0  0  0
   -4.7904   -3.0252    0.8965 C   0  0  0  0  0  0  0  0  0  0  0  0
   -5.4993   -1.8453    0.5637 C   0  0  0  0  0  0  0  0  0  0  0  0
   -4.7880   -0.7071    0.2140 C   0  0  0  0  0  0  0  0  0  0  0  0
   -3.3587   -0.6860    0.1829 C   0  0  0  0  0  0  0  0  0  0  0  0
   -2.6784    0.5337   -0.2041 C   0  0  1  0  0  3  0  0  0  0  0  0
   -3.5159    1.6995   -0.6441 C   0  0  0  0  0  0  0  0  0  0  0  0
   -3.9394    2.6638    0.2921 C   0  0  0  0  0  0  0  0  0  0  0  0
   -4.7067    3.7609   -0.1272 C   0  0  0  0  0  0  0  0  0  0  0  0
   -5.0548    3.9012   -1.4803 C   0  0  0  0  0  0  0  0  0  0  0  0
   -4.6364    2.9403   -2.4146 C   0  0  0  0  0  0  0  0  0  0  0  0
   -3.8688    1.8415   -2.0000 C   0  0  0  0  0  0  0  0  0  0  0  0
    0.6353    2.0691   -0.0592 C   0  0  1  0  0  0  0  0  0  0  0  0
   -0.7396    1.9000   -0.7061 C   0  0  0  0  0  0  0  0  0  0  0  0
    0.5528    2.7423    1.3172 C   0  0  0  0  0  0  0  0  0  0  0  0
    1.5429    2.7546    1.8105 H   0  0  0  0  0  0  0  0  0  0  0  0
   -0.1702    2.2347    1.9818 H   0  0  0  0  0  0  0  0  0  0  0  0
    0.2259    3.7931    1.1887 H   0  0  0  0  0  0  0  0  0  0  0  0
    2.6473   -4.0564    0.7747 H   0  0  0  0  0  0  0  0  0  0  0  0
    5.0890   -4.1903    0.2263 H   0  0  0  0  0  0  0  0  0  0  0  0
    6.3278   -2.1261   -0.5286 H   0  0  0  0  0  0  0  0  0  0  0  0
    5.1151    0.0325   -0.7036 H   0  0  0  0  0  0  0  0  0  0  0  0
    3.9591    2.0632    1.6045 H   0  0  0  0  0  0  0  0  0  0  0  0
    5.3856    4.0548    1.0928 H   0  0  0  0  0  0  0  0  0  0  0  0
    5.6637    4.8247   -1.2762 H   0  0  0  0  0  0  0  0  0  0  0  0
    4.5189    3.5888   -3.1329 H   0  0  0  0  0  0  0  0  0  0  0  0
    3.0903    1.5990   -2.6193 H   0  0  0  0  0  0  0  0  0  0  0  0
   -2.8389   -3.9557    1.1418 H   0  0  0  0  0  0  0  0  0  0  0  0
   -5.3424   -3.9356    1.1774 H   0  0  0  0  0  0  0  0  0  0  0  0
   -6.5980   -1.8300    0.5806 H   0  0  0  0  0  0  0  0  0  0  0  0
   -5.3305    0.2117   -0.0491 H   0  0  0  0  0  0  0  0  0  0  0  0
   -3.6683    2.5481    1.3530 H   0  0  0  0  0  0  0  0  0  0  0  0
   -5.0391    4.5084    0.6086 H   0  0  0  0  0  0  0  0  0  0  0  0
   -5.6588    4.7607   -1.8070 H   0  0  0  0  0  0  0  0  0  0  0  0
   -4.9138    3.0441   -3.4743 H   0  0  0  0  0  0  0  0  0  0  0  0
   -3.5469    1.0807   -2.7275 H   0  0  0  0  0  0  0  0  0  0  0  0
    1.2521    2.7157   -0.7155 H   0  0  0  0  0  0  0  0  0  0  0  0
   -0.6407    1.8085   -1.8095 H   0  0  0  0  0  0  0  0  0  0  0  0
   -1.3677    2.7926   -0.5209 H   0  0  0  0  0  0  0  0  0  0  0  0
  2 18  1  0  0  0  0
  5  6  1  0  0  0  0
  5  1  1  0  0  0  0
  6 37  1  0  0  0  0
  7 38  1  0  0  0  0
  7  6  2  0  0  0  0
  8  7  1  0  0  0  0
  9  8  2  0  0  0  0
  9 10  1  0  0  0  0
 10  5  2  0  0  0  0
 11 10  1  0  0  0  0
 11  3  1  6  0  0  0
 12 11  1  0  0  0  0
 12 13  1  0  0  0  0
 13 41  1  0  0  0  0
 14 13  2  0  0  0  0
 14 42  1  0  0  0  0
 15 14  1  0  0  0  0
 16 17  1  0  0  0  0
 16 15  2  0  0  0  0
 17 12  2  0  0  0  0
 18 19  1  0  0  0  0
 19 20  2  0  0  0  0
 19 46  1  0  0  0  0
 20 47  1  0  0  0  0
 21 48  1  0  0  0  0
 21 20  1  0  0  0  0
 22 21  2  0  0  0  0
 23 22  1  0  0  0  0
 23 18  2  0  0  0  0
 24  4  1  1  0  0  0
 24 23  1  0  0  0  0
 25 24  1  0  0  0  0
 25 26  1  0  0  0  0
 26 50  1  0  0  0  0
 27 26  2  0  0  0  0
 27 51  1  0  0  0  0
 28 27  1  0  0  0  0
 29 30  1  0  0  0  0
 29 28  2  0  0  0  0
 30 25  2  0  0  0  0
 31 55  1  6  0  0  0
 31  3  1  0  0  0  0
 31 33  1  0  0  0  0
 32 57  1  0  0  0  0
 32  4  1  0  0  0  0
 32 31  1  0  0  0  0
 33 34  1  0  0  0  0
 33 35  1  0  0  0  0
 36 33  1  0  0  0  0
 39  8  1  0  0  0  0
 40  9  1  0  0  0  0
 43 15  1  0  0  0  0
 44 16  1  0  0  0  0
 45 17  1  0  0  0  0
 49 22  1  0  0  0  0
 52 28  1  0  0  0  0
 53 29  1  0  0  0  0
 54 30  1  0  0  0  0
 56 32  1  0  0  0  0
M  CHG  2   1  -1   2  -1
M  END
