1,2,3,4
q = -2.0, confidence = 0.776

 34 33  0  0  1  0  0  0  0  0999 V2000
    1.2040   -1.0761    0.4528 N   0  0  0  0  0  0  0  0  0  0  0  0
   -1.0820   -0.8419   -1.0189 N   0  0  0  0  0  0  0  0  0  0  0  0
    1.1965    0.7597   -1.4660 O   0  5  0  0  0  0  0  0  0  0  0  0
   -1.1314    0.1338    1.4418 O   0  5  0  0  0  0  0  0  0  0  0  0
    3.3063    0.3797   -2.1520 O   0  0  0  0  0  0  0  0  0  0  0  0
   -3.0794   -0.8205    2.0253 O   0  0  0  0  0  0  0  0  0  0  0  0
    0.4555   -2.3202    0.1287 C   0  0  0  0  0  0  0  0  0  0  0  0
   -0.2715   -2.0796   -1.1803 C   0  0  0  0  0  0  0  0  0  0  0  0
    2.4976   -0.9207   -0.2923 C   0  0  1  0  0  0  0  0  0  0  0  0
    2.3692    0.1500   -1.4100 C   0  0  0  0  0  0  0  0  0  0  0  0
   -2.3716   -1.0453   -0.2768 C   0  0  1  0  0  0  0  0  0  0  0  0
   -2.2263   -0.5679    1.1933 C   0  0  0  0  0  0  0  0  0  0  0  0
    3.6778   -0.6178    0.6391 C   0  0  0  0  0  0  0  0  0  0  0  0
    3.9966   -1.7291    1.6383 C   0  0  0  0  0  0  0  0  0  0  0  0
   -3.5468   -0.3654   -1.0062 C   0  0  0  0  0  0  0  0  0  0  0  0
   -4.9200   -0.7861   -0.4838 C   0  0  0  0  0  0  0  0  0  0  0  0
    1.3887   -1.0775    1.4670 H   0  0  0  0  0  0  0  0  0  0  0  0
   -1.2835   -0.4714   -1.9599 H   0  0  0  0  0  0  0  0  0  0  0  0
    1.1401   -3.1915    0.0631 H   0  0  0  0  0  0  0  0  0  0  0  0
   -0.2620   -2.5144    0.9504 H   0  0  0  0  0  0  0  0  0  0  0  0
   -0.9118   -2.9426   -1.4589 H   0  0  0  0  0  0  0  0  0  0  0  0
    0.4487   -1.9088   -2.0047 H   0  0  0  0  0  0  0  0  0  0  0  0
    2.7191   -1.8806   -0.8081 H   0  0  0  0  0  0  0  0  0  0  0  0
   -2.5893   -2.1346   -0.2412 H   0  0  0  0  0  0  0  0  0  0  0  0
    4.5411   -0.4287   -0.0304 H   0  0  0  0  0  0  0  0  0  0  0  0
    3.5015    0.3442    1.1726 H   0  0  0  0  0  0  0  0  0  0  0  0
    4.2299   -2.6803    1.1182 H   0  0  0  0  0  0  0  0  0  0  0  0
    4.8750   -1.4630    2.2572 H   0  0  0  0  0  0  0  0  0  0  0  0
    3.1620   -1.9311    2.3450 H   0  0  0  0  0  0  0  0  0  0  0  0
   -3.4451    0.7416   -0.9413 H   0  0  0  0  0  0  0  0  0  0  0  0
   -3.4655   -0.6193   -2.0878 H   0  0  0  0  0  0  0  0  0  0  0  0
   -5.0192   -0.5717    0.5965 H   0  0  0  0  0  0  0  0  0  0  0  0
   -5.7211   -0.2534   -1.0312 H   0  0  0  0  0  0  0  0  0  0  0  0
   -5.0783   -1.8742   -0.6250 H   0  0  0  0  0  0  0  0  0  0  0  0
  1 17  1  0  0  0  0
  2 11  1  0  0  0  0
  3 10  1  0  0  0  0
  5 10  2  0  0  0  0
  7  1  1  0  0  0  0
  7 20  1  0  0  0  0
  8  2  1  0  0  0  0
  8  7  1  0  0  0  0
  9 23  1  6  0  0  0
  9  1  1  0  0  0  0
  9 13  1  0  0  0  0
 10  9  1  0  0  0  0
 11 24  1  1  0  0  0
 11 12  1  0  0  0  0
 12  4  1  0  0  0  0
 12  6  2  0  0  0  0
 13 26  1  0  0  0  0
 13 14  1  0  0  0  0
 14 28  1  0  0  0  0
 14 29  1  0  0  0  0
 15 30  1  0  0  0  0
 15 16  1  0  0  0  0
 15 11  1  0  0  0  0
 16 32  1  0  0  0  0
 18  2  1  0  0  0  0
 19  7  1  0  0  0  0
 21  8  1  0  0  0  0
 22  8  1  0  0  0  0
 25 13  1  0  0  0  0
 27 14  1  0  0  0  0
 31 15  1  0  0  0  0
 33 16  1  0  0  0  0
 34 16  1  0  0  0  0
M  CHG  2   3  -1   4  -1
M  END
