3,4,5,6
q = -2.0, confidence = 0.852

 37 38  0  0  1  0  0  0  0  0999 V2000
    2.5558   -3.2320    0.2511 Cl  0  0  0  0  0  0  0  0  0  0  0  0
   -2.4259   -3.3193    0.0445 Cl  0  0  0  0  0  0  0  0  0  0  0  0
    1.2775   -0.6425   -0.0821 O   0  5  0  0  0  0  0  0  0  0  0  0
   -1.2256   -0.6718    0.0179 O   0  5  0  0  0  0  0  0  0  0  0  0
    1.2444    2.0509   -0.3841 N   0  0  0  0  0  2  0  0  0  0  0  0
   -1.2711    2.0376   -0.0646 N   0  0  0  0  0  2  0  0  0  0  0  0
   -2.5759    1.8848   -0.0589 C   0  0  0  0  0  0  0  0  0  0  0  0
   -3.1957    2.8035   -0.0241 H   0  0  0  0  0  0  0  0  0  0  0  0
    2.5636   -0.5256   -0.0552 C   0  0  0  0  0  0  0  0  0  0  0  0
    3.3753   -1.7071    0.1010 C   0  0  0  0  0  0  0  0  0  0  0  0
    4.7640   -1.6449    0.1359 C   0  0  0  0  0  0  0  0  0  0  0  0
    5.3270   -2.5813    0.2608 H   0  0  0  0  0  0  0  0  0  0  0  0
    5.4403   -0.4062    0.0126 C   0  0  0  0  0  0  0  0  0  0  0  0
    6.5388   -0.3788    0.0409 H   0  0  0  0  0  0  0  0  0  0  0  0
    4.7035    0.7580   -0.1455 C   0  0  0  0  0  3  0  0  0  0  0  0
    5.2101    1.7308   -0.2478 H   0  0  0  0  0  0  0  0  0  0  0  0
    3.2796    0.7250   -0.1811 C   0  0  0  0  0  0  0  0  0  0  0  0
    2.5530    1.9389   -0.3701 C   0  0  0  0  0  0  0  0  0  0  0  0
    3.1451    2.8621   -0.5304 H   0  0  0  0  0  0  0  0  0  0  0  0
    0.6159    3.3356   -0.6944 C   0  0  0  0  0  0  0  0  0  0  0  0
    1.2848    4.1873   -0.4465 H   0  0  0  0  0  0  0  0  0  0  0  0
    0.3949    3.3752   -1.7836 H   0  0  0  0  0  0  0  0  0  0  0  0
   -0.6926    3.3846    0.0944 C   0  0  2  0  0  0  0  0  0  0  0  0
   -1.3773    4.1360   -0.3579 H   0  0  0  0  0  0  0  0  0  0  0  0
   -0.4787    3.7105    1.5758 C   0  0  0  0  0  0  0  0  0  0  0  0
   -1.4378    3.6693    2.1280 H   0  0  0  0  0  0  0  0  0  0  0  0
   -0.0501    4.7258    1.6942 H   0  0  0  0  0  0  0  0  0  0  0  0
    0.2133    2.9756    2.0335 H   0  0  0  0  0  0  0  0  0  0  0  0
   -3.2668    0.6362   -0.0804 C   0  0  0  0  0  0  0  0  0  0  0  0
   -2.5143   -0.5981   -0.0295 C   0  0  0  0  0  0  0  0  0  0  0  0
   -3.2902   -1.8134   -0.0217 C   0  0  0  0  0  0  0  0  0  0  0  0
   -4.6799   -1.7977   -0.0681 C   0  0  0  0  0  0  0  0  0  0  0  0
   -5.2148   -2.7585   -0.0627 H   0  0  0  0  0  0  0  0  0  0  0  0
   -5.3925   -0.5743   -0.1198 C   0  0  0  0  0  0  0  0  0  0  0  0
   -6.4911   -0.5837   -0.1543 H   0  0  0  0  0  0  0  0  0  0  0  0
   -4.6908    0.6218   -0.1235 C   0  0  0  0  0  3  0  0  0  0  0  0
   -5.2260    1.5839   -0.1588 H   0  0  0  0  0  0  0  0  0  0  0  0
  3  9  1  0  0  0  0
  5 18  1  0  0  0  0
  6  7  1  0  0  0  0
  6 23  1  0  0  0  0
  7  8  1  0  0  0  0
  9 10  2  0  0  0  0
 10 11  1  0  0  0  0
 10  1  1  0  0  0  0
 11 12  1  0  0  0  0
 13 14  1  0  0  0  0
 13 11  2  0  0  0  0
 15 13  1  0  0  0  0
 16 15  1  0  0  0  0
 17 15  1  0  0  0  0
 17  9  1  0  0  0  0
 18 17  2  0  0  0  0
 19 18  1  0  0  0  0
 20 21  1  0  0  0  0
 20  5  1  0  0  0  0
 20 23  1  0  0  0  0
 22 20  1  0  0  0  0
 23 24  1  6  0  0  0
 23 25  1  0  0  0  0
 25 27  1  0  0  0  0
 25 28  1  0  0  0  0
 25 26  1  0  0  0  0
 29  7  2  0  0  0  0
 29 30  1  0  0  0  0
 30 31  2  0  0  0  0
 30  4  1  0  0  0  0
 31  2  1  0  0  0  0
 32 33  1  0  0  0  0
 32 31  1  0  0  0  0
 34 32  2  0  0  0  0
 35 34  1  0  0  0  0
 36 34  1  0  0  0  0
 36 29  1  0  0  0  0
 37 36  1  0  0  0  0
M  CHG  2   3  -1   4  -1
M  END
