1,2,4,5
q = -2.0, confidence = 0.84

 37 39  0  0  1  0  0  0  0  0999 V2000
    1.1579   -1.8008    0.0001 O   0  5  0  0  0  0  0  0  0  0  0  0
   -1.3303   -1.7121   -0.0007 O   0  0  0  0  0  1  0  0  0  0  0  0
    2.5841    0.7554   -0.0001 N   0  0  0  0  0  0  0  0  0  0  0  0
    1.3065    0.8872   -0.0001 N   0  0  0  0  0  2  0  0  0  0  0  0
   -1.2305    1.0421   -0.0001 N   0  0  0  0  0  2  0  0  0  0  0  0
    2.4456   -1.7228    0.0001 C   0  0  0  0  0  0  0  0  0  0  0  0
    3.2194   -2.9286    0.0003 C   0  0  0  0  0  0  0  0  0  0  0  0
    2.6616   -3.8759    0.0004 H   0  0  0  0  0  0  0  0  0  0  0  0
    4.6048   -2.8939    0.0002 C   0  0  0  0  0  0  0  0  0  0  0  0
    5.1663   -3.8413    0.0003 H   0  0  0  0  0  0  0  0  0  0  0  0
    5.3157   -1.6596    0.0001 C   0  0  0  0  0  0  0  0  0  0  0  0
    6.4151   -1.6558    0.0000 H   0  0  0  0  0  0  0  0  0  0  0  0
    4.6092   -0.4714   -0.0001 C   0  0  0  0  0  3  0  0  0  0  0  0
    5.1129    0.5062   -0.0002 H   0  0  0  0  0  0  0  0  0  0  0  0
    3.1788   -0.4619   -0.0000 C   0  0  0  0  0  0  0  0  0  0  0  0
    0.8185    2.2173   -0.0000 C   0  0  0  0  0  0  0  0  0  0  0  0
    1.6192    3.3723    0.0001 C   0  0  0  0  0  0  0  0  0  0  0  0
    2.7107    3.2559    0.0001 H   0  0  0  0  0  0  0  0  0  0  0  0
    0.9988    4.6261    0.0002 C   0  0  0  0  0  0  0  0  0  0  0  0
    1.6122    5.5392    0.0003 H   0  0  0  0  0  0  0  0  0  0  0  0
   -0.4073    4.7226    0.0003 C   0  0  0  0  0  0  0  0  0  0  0  0
   -0.8896    5.7114    0.0004 H   0  0  0  0  0  0  0  0  0  0  0  0
   -1.2049    3.5709    0.0002 C   0  0  0  0  0  0  0  0  0  0  0  0
   -2.2989    3.6717    0.0003 H   0  0  0  0  0  0  0  0  0  0  0  0
   -0.5943    2.3010   -0.0000 C   0  0  0  0  0  0  0  0  0  0  0  0
   -2.5510    0.9291   -0.0004 C   0  0  0  0  0  0  0  0  0  0  0  0
   -3.1456    1.8608   -0.0006 H   0  0  0  0  0  0  0  0  0  0  0  0
   -3.2865   -0.2820   -0.0002 C   0  0  0  0  0  0  0  0  0  0  0  0
   -4.7154   -0.2286   -0.0000 C   0  0  0  0  0  0  0  0  0  0  0  0
   -5.2005    0.7610   -0.0001 H   0  0  0  0  0  0  0  0  0  0  0  0
   -5.4796   -1.3824    0.0003 C   0  0  0  0  0  0  0  0  0  0  0  0
   -6.5775   -1.3278    0.0005 H   0  0  0  0  0  0  0  0  0  0  0  0
   -4.8239   -2.6453    0.0005 C   0  0  0  0  0  0  0  0  0  0  0  0
   -5.4269   -3.5672    0.0008 H   0  0  0  0  0  0  0  0  0  0  0  0
   -3.4410   -2.7407    0.0002 C   0  0  0  0  0  0  0  0  0  0  0  0
   -2.9260   -3.7119    0.0003 H   0  0  0  0  0  0  0  0  0  0  0  0
   -2.6144   -1.5689   -0.0002 C   0  0  1  0  0  3  0  0  0  0  0  0
  3  4  1  0  0  0  0
  3 15  2  0  0  0  0
  4 16  1  0  0  0  0
  5 25  1  0  0  0  0
  6  1  1  0  0  0  0
  6  7  2  0  0  0  0
  7  8  1  0  0  0  0
  9  7  1  0  0  0  0
  9 10  1  0  0  0  0
 11  9  2  0  0  0  0
 12 11  1  0  0  0  0
 13 15  1  0  0  0  0
 13 11  1  0  0  0  0
 14 13  1  0  0  0  0
 15  6  1  0  0  0  0
 16 17  1  0  0  0  0
 17 19  2  0  0  0  0
 18 17  1  0  0  0  0
 19 21  1  0  0  0  0
 19 20  1  0  0  0  0
 21 22  1  0  0  0  0
 23 21  2  0  0  0  0
 23 24  1  0  0  0  0
 25 16  2  0  0  0  0
 25 23  1  0  0  0  0
 26 28  2  0  0  0  0
 26  5  1  0  0  0  0
 27 26  1  0  0  0  0
 28 37  1  0  0  0  0
 28 29  1  0  0  0  0
 29 31  2  0  0  0  0
 30 29  1  0  0  0  0
 31 33  1  0  0  0  0
 31 32  1  0  0  0  0
 33 34  1  0  0  0  0
 35 36  1  0  0  0  0
 35 33  2  0  0  0  0
 37  2  1  6  0  0  0
 37 35  1  0  0  0  0
M  CHG  1   1  -1
M  END
