3,4,28,29
q = -2.0, confidence = 0.846

 50 51  0  0  0  0  0  0  0  0999 V2000
   -4.6664   -2.1300    2.4400 O   0  0  0  0  0  0  0  0  0  0  0  0
   -4.8470   -1.3269    2.9640 H   0  0  0  0  0  0  0  0  0  0  0  0
   -1.5420    1.1120   -0.6321 O   0  5  0  0  0  0  0  0  0  0  0  0
   -0.8745   -1.1187    0.7736 N   0  0  0  0  0  0  0  0  0  0  0  0
   -5.0886    1.6391   -0.2956 N   0  0  0  0  0  0  0  0  0  0  0  0
   -0.6883   -0.3258    1.9992 C   0  0  0  0  0  0  0  0  0  0  0  0
   -0.8252   -0.9417    2.9165 H   0  0  0  0  0  0  0  0  0  0  0  0
   -1.4806    0.4511    2.0152 H   0  0  0  0  0  0  0  0  0  0  0  0
   -5.4767    0.4650    0.2251 C   0  0  0  0  0  0  0  0  0  0  0  0
   -6.5581    0.3483    0.4267 H   0  0  0  0  0  0  0  0  0  0  0  0
   -2.8145    0.8053   -0.3181 C   0  0  0  0  0  0  0  0  0  0  0  0
   -3.2228   -0.4253    0.2478 C   0  0  0  0  0  0  0  0  0  0  0  0
   -4.6065   -0.5959    0.5176 C   0  0  0  0  0  0  0  0  0  0  0  0
   -3.3521    3.1276   -1.1632 C   0  0  0  0  0  0  0  0  0  0  0  0
   -4.2313    3.7827   -1.2968 H   0  0  0  0  0  0  0  0  0  0  0  0
   -2.8509    2.9673   -2.1402 H   0  0  0  0  0  0  0  0  0  0  0  0
   -2.6054    3.6351   -0.5168 H   0  0  0  0  0  0  0  0  0  0  0  0
   -5.1537   -1.8705    1.1223 C   0  0  0  0  0  0  0  0  0  0  0  0
   -6.2683   -1.8292    1.0996 H   0  0  0  0  0  0  0  0  0  0  0  0
   -4.8581   -2.7544    0.5187 H   0  0  0  0  0  0  0  0  0  0  0  0
   -3.7920    1.8215   -0.5660 C   0  0  0  0  0  0  0  0  0  0  0  0
   -2.2663   -1.5599    0.5561 C   0  0  0  0  0  0  0  0  0  0  0  0
   -2.6472   -2.0976    1.4508 H   0  0  0  0  0  0  0  0  0  0  0  0
   -2.2488   -2.2678   -0.2987 H   0  0  0  0  0  0  0  0  0  0  0  0
   -0.2603   -1.9444    0.8027 H   0  0  0  0  0  0  0  0  0  0  0  0
    4.6663    2.1299    2.4400 O   0  0  0  0  0  0  0  0  0  0  0  0
    4.8470    1.3268    2.9641 H   0  0  0  0  0  0  0  0  0  0  0  0
    1.5420   -1.1120   -0.6321 O   0  5  0  0  0  0  0  0  0  0  0  0
    0.8744    1.1186    0.7737 N   0  0  0  0  0  0  0  0  0  0  0  0
    5.0886   -1.6390   -0.2956 N   0  0  0  0  0  0  0  0  0  0  0  0
    0.6883    0.3255    1.9992 C   0  0  0  0  0  0  0  0  0  0  0  0
    0.8252    0.9413    2.9165 H   0  0  0  0  0  0  0  0  0  0  0  0
    1.4807   -0.4514    2.0151 H   0  0  0  0  0  0  0  0  0  0  0  0
    5.4767   -0.4650    0.2251 C   0  0  0  0  0  0  0  0  0  0  0  0
    6.5581   -0.3483    0.4267 H   0  0  0  0  0  0  0  0  0  0  0  0
    2.8145   -0.8053   -0.3181 C   0  0  0  0  0  0  0  0  0  0  0  0
    3.2228    0.4253    0.2478 C   0  0  0  0  0  0  0  0  0  0  0  0
    4.6065    0.5960    0.5177 C   0  0  0  0  0  0  0  0  0  0  0  0
    3.3522   -3.1276   -1.1633 C   0  0  0  0  0  0  0  0  0  0  0  0
    4.2314   -3.7826   -1.2969 H   0  0  0  0  0  0  0  0  0  0  0  0
    2.8510   -2.9671   -2.1403 H   0  0  0  0  0  0  0  0  0  0  0  0
    2.6055   -3.6351   -0.5169 H   0  0  0  0  0  0  0  0  0  0  0  0
    5.1537    1.8705    1.1224 C   0  0  0  0  0  0  0  0  0  0  0  0
    6.2683    1.8292    1.0997 H   0  0  0  0  0  0  0  0  0  0  0  0
    4.8580    2.7545    0.5188 H   0  0  0  0  0  0  0  0  0  0  0  0
    3.7920   -1.8214   -0.5660 C   0  0  0  0  0  0  0  0  0  0  0  0
    2.2662    1.5598    0.5563 C   0  0  0  0  0  0  0  0  0  0  0  0
    2.6471    2.0975    1.4510 H   0  0  0  0  0  0  0  0  0  0  0  0
    2.2487    2.2678   -0.2985 H   0  0  0  0  0  0  0  0  0  0  0  0
    0.2602    1.9443    0.8029 H   0  0  0  0  0  0  0  0  0  0  0  0
  1  2  1  0  0  0  0
  3 11  1  0  0  0  0
  4 25  1  0  0  0  0
  4  6  1  0  0  0  0
  5  9  1  0  0  0  0
  6 31  1  0  0  0  0
  6  8  1  0  0  0  0
  6  7  1  0  0  0  0
  9 10  1  0  0  0  0
  9 13  2  0  0  0  0
 11 12  2  0  0  0  0
 12 13  1  0  0  0  0
 12 22  1  0  0  0  0
 13 18  1  0  0  0  0
 14 21  1  0  0  0  0
 14 17  1  0  0  0  0
 15 14  1  0  0  0  0
 16 14  1  0  0  0  0
 18  1  1  0  0  0  0
 19 18  1  0  0  0  0
 20 18  1  0  0  0  0
 21 11  1  0  0  0  0
 21  5  2  0  0  0  0
 22  4  1  0  0  0  0
 22 23  1  0  0  0  0
 24 22  1  0  0  0  0
 26 27  1  0  0  0  0
 28 36  1  0  0  0  0
 29 50  1  0  0  0  0
 29 31  1  0  0  0  0
 30 34  1  0  0  0  0
 31 33  1  0  0  0  0
 31 32  1  0  0  0  0
 34 35  1  0  0  0  0
 34 38  2  0  0  0  0
 36 37  2  0  0  0  0
 37 38  1  0  0  0  0
 37 47  1  0  0  0  0
 38 43  1  0  0  0  0
 39 46  1  0  0  0  0
 39 42  1  0  0  0  0
 40 39  1  0  0  0  0
 41 39  1  0  0  0  0
 43 26  1  0  0  0  0
 44 43  1  0  0  0  0
 45 43  1  0  0  0  0
 46 36  1  0  0  0  0
 46 30  2  0  0  0  0
 47 29  1  0  0  0  0
 47 48  1  0  0  0  0
 49 47  1  0  0  0  0
M  CHG  2   3  -1  28  -1
M  END
