1,2,5,6
q = -2.0, confidence = 0.784

 65 68  0  0  1  0  0  0  0  0999 V2000
   -1.2322    1.7843    0.0826 O   0  5  0  0  0  0  0  0  0  0  0  0
    1.2321    1.7844   -0.0839 O   0  0  0  0  0  1  0  0  0  0  0  0
   -5.2859    4.0339   -1.0225 O   0  0  0  0  0  0  0  0  0  0  0  0
    5.2852    4.0343    1.0232 O   0  0  0  0  0  0  0  0  0  0  0  0
    1.3072   -0.8949   -0.3798 N   0  0  0  0  0  2  0  0  0  0  0  0
   -1.3070   -0.8950    0.3794 N   0  0  0  0  0  2  0  0  0  0  0  0
   -4.6285    5.2870   -0.9793 C   0  0  0  0  0  0  0  0  0  0  0  0
   -5.3900    6.0495   -1.2279 H   0  0  0  0  0  0  0  0  0  0  0  0
   -3.7997    5.3437   -1.7198 H   0  0  0  0  0  0  0  0  0  0  0  0
   -4.2137    5.5005    0.0310 H   0  0  0  0  0  0  0  0  0  0  0  0
   -4.5620    2.9176   -0.7453 C   0  0  0  0  0  0  0  0  0  0  0  0
   -3.2031    2.9208   -0.4297 C   0  0  0  0  0  0  0  0  0  0  0  0
   -2.6043    3.8386   -0.3869 H   0  0  0  0  0  0  0  0  0  0  0  0
   -2.4995    1.7022   -0.1760 C   0  0  0  0  0  0  0  0  0  0  0  0
   -3.2468    0.4620   -0.1938 C   0  0  0  0  0  0  0  0  0  0  0  0
   -4.6357    0.5076   -0.5240 C   0  0  0  0  0  3  0  0  0  0  0  0
   -5.1995   -0.4357   -0.5600 H   0  0  0  0  0  0  0  0  0  0  0  0
   -5.2893    1.6929   -0.8040 C   0  0  0  0  0  0  0  0  0  0  0  0
   -6.3552    1.7240   -1.0670 H   0  0  0  0  0  0  0  0  0  0  0  0
   -2.6182   -0.7662    0.2133 C   0  0  0  0  0  0  0  0  0  0  0  0
   -3.5113   -1.9403    0.4926 C   0  0  0  0  0  0  0  0  0  0  0  0
   -4.3135   -1.9717    1.6515 C   0  0  0  0  0  0  0  0  0  0  0  0
   -4.2763   -1.1241    2.3522 H   0  0  0  0  0  0  0  0  0  0  0  0
   -5.1471   -3.0703    1.9064 C   0  0  0  0  0  0  0  0  0  0  0  0
   -5.7628   -3.0885    2.8186 H   0  0  0  0  0  0  0  0  0  0  0  0
   -5.2023   -4.1405    0.9985 C   0  0  0  0  0  0  0  0  0  0  0  0
   -5.8616   -4.9991    1.1967 H   0  0  0  0  0  0  0  0  0  0  0  0
   -4.4209   -4.1075   -0.1671 C   0  0  0  0  0  0  0  0  0  0  0  0
   -4.4707   -4.9367   -0.8892 H   0  0  0  0  0  0  0  0  0  0  0  0
   -3.5776   -3.0144   -0.4182 C   0  0  0  0  0  0  0  0  0  0  0  0
   -2.9739   -2.9787   -1.3378 H   0  0  0  0  0  0  0  0  0  0  0  0
    4.6278    5.2874    0.9794 C   0  0  0  0  0  0  0  0  0  0  0  0
    5.3892    6.0499    1.2282 H   0  0  0  0  0  0  0  0  0  0  0  0
    3.7986    5.3442    1.7194 H   0  0  0  0  0  0  0  0  0  0  0  0
    4.2136    5.5006   -0.0312 H   0  0  0  0  0  0  0  0  0  0  0  0
    4.5615    2.9179    0.7458 C   0  0  0  0  0  0  0  0  0  0  0  0
    5.2888    1.6933    0.8051 C   0  0  0  0  0  0  0  0  0  0  0  0
    6.3545    1.7244    1.0687 H   0  0  0  0  0  0  0  0  0  0  0  0
    4.6354    0.5078    0.5250 C   0  0  0  0  0  0  0  0  0  0  0  0
    5.1992   -0.4354    0.5613 H   0  0  0  0  0  0  0  0  0  0  0  0
    3.2467    0.4622    0.1940 C   0  0  0  0  0  0  0  0  0  0  0  0
    2.4993    1.7024    0.1756 C   0  0  1  0  0  3  0  0  0  0  0  0
    3.2028    2.9210    0.4294 C   0  0  0  0  0  0  0  0  0  0  0  0
    2.6039    3.8388    0.3862 H   0  0  0  0  0  0  0  0  0  0  0  0
    2.6183   -0.7660   -0.2133 C   0  0  0  0  0  0  0  0  0  0  0  0
    3.5116   -1.9400   -0.4925 C   0  0  0  0  0  0  0  0  0  0  0  0
    4.3144   -1.9711   -1.6510 C   0  0  0  0  0  0  0  0  0  0  0  0
    4.2775   -1.1233   -2.3515 H   0  0  0  0  0  0  0  0  0  0  0  0
    5.1482   -3.0696   -1.9058 C   0  0  0  0  0  0  0  0  0  0  0  0
    5.7643   -3.0875   -2.8176 H   0  0  0  0  0  0  0  0  0  0  0  0
    5.2030   -4.1400   -0.9981 C   0  0  0  0  0  0  0  0  0  0  0  0
    5.8624   -4.9985   -1.1963 H   0  0  0  0  0  0  0  0  0  0  0  0
    4.4210   -4.1074    0.1671 C   0  0  0  0  0  0  0  0  0  0  0  0
    4.4705   -4.9368    0.8890 H   0  0  0  0  0  0  0  0  0  0  0  0
    3.5775   -3.0144    0.4181 C   0  0  0  0  0  0  0  0  0  0  0  0
    2.9734   -2.9789    1.3375 H   0  0  0  0  0  0  0  0  0  0  0  0
    0.7548   -2.0989   -1.0110 C   0  0  0  0  0  0  0  0  0  0  0  0
    1.5460   -2.6877   -1.5149 H   0  0  0  0  0  0  0  0  0  0  0  0
    0.0500   -1.7566   -1.7964 H   0  0  0  0  0  0  0  0  0  0  0  0
    0.0000   -2.9685   -0.0005 C   0  0  0  0  0  0  0  0  0  0  0  0
    0.7055   -3.6272    0.5469 H   0  0  0  0  0  0  0  0  0  0  0  0
   -0.7055   -3.6268   -0.5482 H   0  0  0  0  0  0  0  0  0  0  0  0
   -0.7545   -2.0990    1.0102 C   0  0  0  0  0  0  0  0  0  0  0  0
   -1.5455   -2.6879    1.5143 H   0  0  0  0  0  0  0  0  0  0  0  0
   -0.0495   -1.7569    1.7956 H   0  0  0  0  0  0  0  0  0  0  0  0
  3  7  1  0  0  0  0
  3 11  1  0  0  0  0
  5 45  1  0  0  0  0
  6 63  1  0  0  0  0
  7 10  1  0  0  0  0
  8  7  1  0  0  0  0
  9  7  1  0  0  0  0
 11 12  1  0  0  0  0
 12 13  1  0  0  0  0
 12 14  2  0  0  0  0
 14  1  1  0  0  0  0
 15 14  1  0  0  0  0
 15 20  2  0  0  0  0
 16 15  1  0  0  0  0
 17 16  1  0  0  0  0
 18 11  2  0  0  0  0
 18 16  1  0  0  0  0
 19 18  1  0  0  0  0
 20  6  1  0  0  0  0
 20 21  1  0  0  0  0
 21 22  1  0  0  0  0
 22 24  2  0  0  0  0
 22 23  1  0  0  0  0
 24 25  1  0  0  0  0
 26 27  1  0  0  0  0
 26 24  1  0  0  0  0
 28 26  2  0  0  0  0
 29 28  1  0  0  0  0
 30 28  1  0  0  0  0
 30 21  2  0  0  0  0
 31 30  1  0  0  0  0
 32  4  1  0  0  0  0
 32 33  1  0  0  0  0
 32 34  1  0  0  0  0
 35 32  1  0  0  0  0
 36 37  1  0  0  0  0
 36  4  1  0  0  0  0
 37 38  1  0  0  0  0
 39 40  1  0  0  0  0
 39 37  2  0  0  0  0
 41 39  1  0  0  0  0
 42  2  1  6  0  0  0
 42 41  1  0  0  0  0
 42 43  1  0  0  0  0
 43 36  2  0  0  0  0
 44 43  1  0  0  0  0
 45 41  2  0  0  0  0
 46 45  1  0  0  0  0
 46 55  1  0  0  0  0
 47 46  2  0  0  0  0
 48 47  1  0  0  0  0
 49 47  1  0  0  0  0
 49 51  2  0  0  0  0
 50 49  1  0  0  0  0
 51 53  1  0  0  0  0
 52 51  1  0  0  0  0
 53 55  2  0  0  0  0
 53 54  1  0  0  0  0
 55 56  1  0  0  0  0
 57  5  1  0  0  0  0
 57 60  1  0  0  0  0
 58 57  1  0  0  0  0
 59 57  1  0  0  0  0
 60 61  1  0  0  0  0
 60 63  1  0  0  0  0
 62 60  1  0  0  0  0
 63 64  1  0  0  0  0
 63 65  1  0  0  0  0
M  CHG  1   1  -1
M  END
