1,2,3,4
q = -2.0, confidence = 0.974

 42 41  0  0  0  0  0  0  0  0999 V2000
    1.5044   -0.2001   -1.1165 O   0  0  0  0  0  1  0  0  0  0  0  0
   -1.5054   -0.1975    1.1165 O   0  0  0  0  0  1  0  0  0  0  0  0
    1.1318   -1.6748    0.9546 N   0  0  0  0  0  0  0  0  0  0  0  0
   -1.1340   -1.6733   -0.9540 N   0  0  0  0  0  0  0  0  0  0  0  0
    2.7616   -0.6023   -0.6324 C   0  0  0  0  0  0  0  0  0  0  0  0
    3.6364    0.6464   -0.4105 C   0  0  0  0  0  0  0  0  0  0  0  0
    3.8116    1.1594   -1.3771 H   0  0  0  0  0  0  0  0  0  0  0  0
    4.6211    0.3849    0.0310 H   0  0  0  0  0  0  0  0  0  0  0  0
    3.1072    1.3417    0.2703 H   0  0  0  0  0  0  0  0  0  0  0  0
    3.4448   -1.5206   -1.6642 C   0  0  0  0  0  0  0  0  0  0  0  0
    2.8599   -2.4427   -1.8560 H   0  0  0  0  0  0  0  0  0  0  0  0
    4.4587   -1.8236   -1.3310 H   0  0  0  0  0  0  0  0  0  0  0  0
    3.5397   -0.9790   -2.6260 H   0  0  0  0  0  0  0  0  0  0  0  0
    2.5479   -1.3154    0.7567 C   0  0  0  0  0  0  0  0  0  0  0  0
    3.2089   -2.2078    0.8694 H   0  0  0  0  0  0  0  0  0  0  0  0
    2.8035   -0.6057    1.5656 H   0  0  0  0  0  0  0  0  0  0  0  0
    0.8015   -1.8384    2.3747 C   0  0  0  0  0  0  0  0  0  0  0  0
   -0.2887   -1.9798    2.4893 H   0  0  0  0  0  0  0  0  0  0  0  0
    1.0652   -0.9091    2.9123 H   0  0  0  0  0  0  0  0  0  0  0  0
    1.3478   -2.6973    2.8315 H   0  0  0  0  0  0  0  0  0  0  0  0
    0.7420   -2.8559    0.1602 C   0  0  0  0  0  0  0  0  0  0  0  0
    1.0148   -3.7980    0.6940 H   0  0  0  0  0  0  0  0  0  0  0  0
    1.3196   -2.8432   -0.7803 H   0  0  0  0  0  0  0  0  0  0  0  0
   -0.7460   -2.8548   -0.1592 C   0  0  0  0  0  0  0  0  0  0  0  0
   -1.0203   -3.7966   -0.6927 H   0  0  0  0  0  0  0  0  0  0  0  0
   -1.3235   -2.8408    0.7813 H   0  0  0  0  0  0  0  0  0  0  0  0
   -0.8036   -1.8378   -2.3740 C   0  0  0  0  0  0  0  0  0  0  0  0
    0.2866   -1.9799   -2.4883 H   0  0  0  0  0  0  0  0  0  0  0  0
   -1.0666   -0.9087   -2.9122 H   0  0  0  0  0  0  0  0  0  0  0  0
   -1.3504   -2.6966   -2.8304 H   0  0  0  0  0  0  0  0  0  0  0  0
   -2.5497   -1.3120   -0.7565 C   0  0  0  0  0  0  0  0  0  0  0  0
   -3.2118   -2.2036   -0.8692 H   0  0  0  0  0  0  0  0  0  0  0  0
   -2.8043   -0.6023   -1.5657 H   0  0  0  0  0  0  0  0  0  0  0  0
   -2.7629   -0.5983    0.6323 C   0  0  0  0  0  0  0  0  0  0  0  0
   -3.4475   -1.5155    1.6642 C   0  0  0  0  0  0  0  0  0  0  0  0
   -2.8637   -2.4383    1.8564 H   0  0  0  0  0  0  0  0  0  0  0  0
   -4.4616   -1.8175    1.3307 H   0  0  0  0  0  0  0  0  0  0  0  0
   -3.5420   -0.9736    2.6257 H   0  0  0  0  0  0  0  0  0  0  0  0
   -3.6362    0.6514    0.4098 C   0  0  0  0  0  0  0  0  0  0  0  0
   -3.8110    1.1648    1.3761 H   0  0  0  0  0  0  0  0  0  0  0  0
   -4.6210    0.3909   -0.0320 H   0  0  0  0  0  0  0  0  0  0  0  0
   -3.1059    1.3459   -0.2711 H   0  0  0  0  0  0  0  0  0  0  0  0
  1  5  1  0  0  0  0
  3 17  1  0  0  0  0
  4 31  1  0  0  0  0
  4 24  1  0  0  0  0
  5  6  1  0  0  0  0
  5 14  1  0  0  0  0
  6  8  1  0  0  0  0
  6  9  1  0  0  0  0
  7  6  1  0  0  0  0
 10 12  1  0  0  0  0
 10  5  1  0  0  0  0
 11 10  1  0  0  0  0
 13 10  1  0  0  0  0
 14 15  1  0  0  0  0
 14  3  1  0  0  0  0
 14 16  1  0  0  0  0
 17 18  1  0  0  0  0
 17 20  1  0  0  0  0
 17 19  1  0  0  0  0
 21 22  1  0  0  0  0
 21  3  1  0  0  0  0
 23 21  1  0  0  0  0
 24 21  1  0  0  0  0
 24 26  1  0  0  0  0
 25 24  1  0  0  0  0
 27  4  1  0  0  0  0
 28 27  1  0  0  0  0
 29 27  1  0  0  0  0
 30 27  1  0  0  0  0
 31 34  1  0  0  0  0
 32 31  1  0  0  0  0
 33 31  1  0  0  0  0
 34  2  1  0  0  0  0
 34 35  1  0  0  0  0
 35 36  1  0  0  0  0
 35 38  1  0  0  0  0
 37 35  1  0  0  0  0
 39 34  1  0  0  0  0
 39 40  1  0  0  0  0
 41 39  1  0  0  0  0
 42 39  1  0  0  0  0
M  END
