1,2,8,10
q = -2.0, confidence = 0.798

 50 53  0  0  1  0  0  0  0  0999 V2000
    1.1879   -1.4943    0.1397 O   0  5  0  0  0  0  0  0  0  0  0  0
   -1.2981   -1.4540   -0.0785 O   0  5  0  0  0  0  0  0  0  0  0  0
    1.0155    4.0400   -0.5762 O   0  0  0  0  0  0  0  0  0  0  0  0
    4.6757   -0.2040    0.0464 C   0  0  0  0  0  0  0  0  0  0  0  0
    2.5408    0.9889    0.5793 C   0  0  0  0  0  0  0  0  0  0  0  0
   -2.5771    1.0814   -0.4301 C   0  0  0  0  0  0  0  0  0  0  0  0
    3.2293   -0.1923    0.1866 C   0  0  0  0  0  0  0  0  0  0  0  0
   -1.2664    1.2287   -0.3846 N   0  0  0  0  0  2  0  0  0  0  0  0
    2.4768   -1.4119    0.0659 C   0  0  0  0  0  0  0  0  0  0  0  0
    1.2332    1.1482    0.6196 N   0  0  0  0  0  2  0  0  0  0  0  0
   -3.3064   -0.1052   -0.1416 C   0  0  0  0  0  0  0  0  0  0  0  0
   -0.6953    2.4636   -0.9119 C   0  0  0  0  0  0  0  0  0  0  0  0
   -5.4675   -1.3383    0.0380 C   0  0  0  0  0  0  0  0  0  0  0  0
    3.2036   -2.6478   -0.1071 C   0  0  0  0  0  0  0  0  0  0  0  0
   -4.7587   -0.0911   -0.0689 C   0  0  1  0  0  3  0  0  0  0  0  0
    5.3519   -1.4592   -0.1438 C   0  0  0  0  0  0  0  0  0  0  0  0
   -2.5862   -1.3463   -0.0476 C   0  0  0  0  0  0  0  0  0  0  0  0
    5.4738    0.9735    0.0706 C   0  0  0  0  0  0  0  0  0  0  0  0
   -3.3445   -2.5720    0.0445 C   0  0  0  0  0  0  0  0  0  0  0  0
    4.5726   -2.6631   -0.2073 C   0  0  0  0  0  0  0  0  0  0  0  0
    0.0553    3.2857    0.1463 C   0  0  1  0  0  0  0  0  0  0  0  0
    0.6926    2.3670    1.2021 C   0  0  0  0  0  0  0  0  0  0  0  0
   -4.7164   -2.5609    0.0856 C   0  0  0  0  0  0  0  0  0  0  0  0
   -5.5330    1.1024   -0.0825 C   0  0  0  0  0  0  0  0  0  0  0  0
    7.5191   -0.3231   -0.2225 C   0  0  0  0  0  0  0  0  0  0  0  0
   -6.9244    1.0694   -0.0240 C   0  0  0  0  0  0  0  0  0  0  0  0
    6.8601    0.9162   -0.0536 C   0  0  0  0  0  0  0  0  0  0  0  0
   -7.6141   -0.1613    0.0654 C   0  0  0  0  0  0  0  0  0  0  0  0
   -6.8856   -1.3454    0.1011 C   0  0  0  0  0  0  0  0  0  0  0  0
    6.7654   -1.4909   -0.2721 C   0  0  0  0  0  3  0  0  0  0  0  0
    2.6029   -3.5668   -0.1638 H   0  0  0  0  0  0  0  0  0  0  0  0
    5.1022   -3.6190   -0.3487 H   0  0  0  0  0  0  0  0  0  0  0  0
   -2.7655   -3.5055    0.0862 H   0  0  0  0  0  0  0  0  0  0  0  0
   -5.2713   -3.5097    0.1634 H   0  0  0  0  0  0  0  0  0  0  0  0
    4.9947    1.9589    0.1650 H   0  0  0  0  0  0  0  0  0  0  0  0
    7.4447    1.8488   -0.0313 H   0  0  0  0  0  0  0  0  0  0  0  0
    8.6139   -0.3601   -0.3240 H   0  0  0  0  0  0  0  0  0  0  0  0
    7.2564   -2.4664   -0.4158 H   0  0  0  0  0  0  0  0  0  0  0  0
   -5.0330    2.0811   -0.1202 H   0  0  0  0  0  0  0  0  0  0  0  0
   -7.4892    2.0142   -0.0376 H   0  0  0  0  0  0  0  0  0  0  0  0
   -8.7129   -0.1794    0.1151 H   0  0  0  0  0  0  0  0  0  0  0  0
   -7.4011   -2.3156    0.1818 H   0  0  0  0  0  0  0  0  0  0  0  0
    1.3650    4.7263    0.0200 H   0  0  0  0  0  0  0  0  0  0  0  0
    3.1453    1.8388    0.9476 H   0  0  0  0  0  0  0  0  0  0  0  0
   -3.1497    1.9596   -0.7843 H   0  0  0  0  0  0  0  0  0  0  0  0
    0.0521    2.2145   -1.6936 H   0  0  0  0  0  0  0  0  0  0  0  0
   -1.4781    3.0867   -1.3926 H   0  0  0  0  0  0  0  0  0  0  0  0
   -0.6651    3.9518    0.6809 H   0  0  0  0  0  0  0  0  0  0  0  0
   -0.0749    2.0934    1.9556 H   0  0  0  0  0  0  0  0  0  0  0  0
    1.4882    2.9341    1.7347 H   0  0  0  0  0  0  0  0  0  0  0  0
  2 17  1  0  0  0  0
  3 43  1  0  0  0  0
  3 21  1  0  0  0  0
  4 18  2  0  0  0  0
  4  7  1  0  0  0  0
  5 10  1  0  0  0  0
  5 44  1  0  0  0  0
  6  8  1  0  0  0  0
  6 11  2  0  0  0  0
  7  5  2  0  0  0  0
  9  1  1  0  0  0  0
  9  7  1  0  0  0  0
 10 22  1  0  0  0  0
 11 17  1  0  0  0  0
 12  8  1  0  0  0  0
 12 21  1  0  0  0  0
 13 23  2  0  0  0  0
 13 29  1  0  0  0  0
 14  9  2  0  0  0  0
 15 11  1  1  0  0  0
 15 13  1  0  0  0  0
 16  4  1  0  0  0  0
 17 19  2  0  0  0  0
 18 35  1  0  0  0  0
 19 23  1  0  0  0  0
 19 33  1  0  0  0  0
 20 16  2  0  0  0  0
 20 14  1  0  0  0  0
 21 48  1  1  0  0  0
 21 22  1  0  0  0  0
 22 50  1  0  0  0  0
 22 49  1  0  0  0  0
 23 34  1  0  0  0  0
 24 15  1  0  0  0  0
 24 26  2  0  0  0  0
 25 27  2  0  0  0  0
 26 28  1  0  0  0  0
 27 36  1  0  0  0  0
 27 18  1  0  0  0  0
 28 29  2  0  0  0  0
 28 41  1  0  0  0  0
 29 42  1  0  0  0  0
 30 25  1  0  0  0  0
 30 16  1  0  0  0  0
 31 14  1  0  0  0  0
 32 20  1  0  0  0  0
 37 25  1  0  0  0  0
 38 30  1  0  0  0  0
 39 24  1  0  0  0  0
 40 26  1  0  0  0  0
 45  6  1  0  0  0  0
 46 12  1  0  0  0  0
 47 12  1  0  0  0  0
M  CHG  2   1  -1   2  -1
M  END
