5,6,7,8
q = -2.0, confidence = 0.83

 43 44  0  0  0  0  0  0  0  0999 V2000
    3.1258   -2.1649    2.3622 Cl  0  0  0  0  0  0  0  0  0  0  0  0
    5.9522   -1.4410   -2.2154 Cl  0  0  0  0  0  0  0  0  0  0  0  0
   -0.7126   -3.5127   -0.0173 Cl  0  0  0  0  0  0  0  0  0  0  0  0
   -6.0396   -2.8558   -0.9084 Cl  0  0  0  0  0  0  0  0  0  0  0  0
    1.5030    0.0454    1.3203 O   0  5  0  0  0  0  0  0  0  0  0  0
   -0.7610   -0.6262    0.4536 O   0  5  0  0  0  0  0  0  0  0  0  0
    0.7596    1.9636   -0.4647 N   0  0  0  0  0  2  0  0  0  0  0  0
   -1.8194    1.7906    0.4895 N   0  0  0  0  0  2  0  0  0  0  0  0
    2.4632   -0.2731    0.5220 C   0  0  0  0  0  0  0  0  0  0  0  0
    3.3819   -1.3261    0.8697 C   0  0  0  0  0  0  0  0  0  0  0  0
    4.4282   -1.6824    0.0300 C   0  0  0  0  0  0  0  0  0  0  0  0
    5.1030   -2.5025    0.3076 H   0  0  0  0  0  0  0  0  0  0  0  0
    4.6203   -0.9787   -1.1900 C   0  0  0  0  0  0  0  0  0  0  0  0
    3.7781    0.0566   -1.5660 C   0  0  0  0  0  0  0  0  0  0  0  0
    3.9547    0.5965   -2.5069 H   0  0  0  0  0  0  0  0  0  0  0  0
    2.6810    0.4216   -0.7322 C   0  0  0  0  0  0  0  0  0  0  0  0
    1.8770    1.5393   -1.0766 C   0  0  0  0  0  3  0  0  0  0  0  0
    2.2335    2.1572   -1.9221 H   0  0  0  0  0  0  0  0  0  0  0  0
    0.3951    3.3650   -0.7325 C   0  0  0  0  0  0  0  0  0  0  0  0
    0.9422    3.7125   -1.6363 H   0  0  0  0  0  0  0  0  0  0  0  0
    0.7803    3.9473    0.1344 H   0  0  0  0  0  0  0  0  0  0  0  0
   -1.0971    3.6758   -0.9111 C   0  0  0  0  0  0  0  0  0  0  0  0
   -1.2446    5.2001   -1.0494 C   0  0  0  0  0  0  0  0  0  0  0  0
   -0.8844    5.7255   -0.1414 H   0  0  0  0  0  0  0  0  0  0  0  0
   -2.3066    5.4771   -1.2052 H   0  0  0  0  0  0  0  0  0  0  0  0
   -0.6673    5.5799   -1.9168 H   0  0  0  0  0  0  0  0  0  0  0  0
   -1.6365    2.9702   -2.1646 C   0  0  0  0  0  0  0  0  0  0  0  0
   -1.1445    3.3679   -3.0755 H   0  0  0  0  0  0  0  0  0  0  0  0
   -2.7288    3.1284   -2.2756 H   0  0  0  0  0  0  0  0  0  0  0  0
   -1.4513    1.8788   -2.1275 H   0  0  0  0  0  0  0  0  0  0  0  0
   -1.8681    3.2401    0.3581 C   0  0  0  0  0  0  0  0  0  0  0  0
   -1.4053    3.6965    1.2550 H   0  0  0  0  0  0  0  0  0  0  0  0
   -2.9220    3.5894    0.2803 H   0  0  0  0  0  0  0  0  0  0  0  0
   -2.9316    1.1674    0.1853 C   0  0  0  0  0  3  0  0  0  0  0  0
   -3.8342    1.7833    0.0001 H   0  0  0  0  0  0  0  0  0  0  0  0
   -3.0896   -0.2540    0.0149 C   0  0  0  0  0  0  0  0  0  0  0  0
   -4.3557   -0.8023   -0.2966 C   0  0  0  0  0  0  0  0  0  0  0  0
   -5.2364   -0.1483   -0.3703 H   0  0  0  0  0  0  0  0  0  0  0  0
   -4.4815   -2.1749   -0.5187 C   0  0  0  0  0  0  0  0  0  0  0  0
   -3.3598   -3.0251   -0.4375 C   0  0  0  0  0  0  0  0  0  0  0  0
   -3.4620   -4.1031   -0.6184 H   0  0  0  0  0  0  0  0  0  0  0  0
   -2.1079   -2.4873   -0.1235 C   0  0  0  0  0  0  0  0  0  0  0  0
   -1.9409   -1.0918    0.1175 C   0  0  0  0  0  0  0  0  0  0  0  0
  2 13  1  0  0  0  0
  4 39  1  0  0  0  0
  9 10  1  0  0  0  0
  9  5  1  0  0  0  0
 10  1  1  0  0  0  0
 11 12  1  0  0  0  0
 11 10  2  0  0  0  0
 13 11  1  0  0  0  0
 14 13  2  0  0  0  0
 14 16  1  0  0  0  0
 15 14  1  0  0  0  0
 16  9  2  0  0  0  0
 17 16  1  0  0  0  0
 17  7  1  0  0  0  0
 18 17  1  0  0  0  0
 19  7  1  0  0  0  0
 19 21  1  0  0  0  0
 20 19  1  0  0  0  0
 22 19  1  0  0  0  0
 22 31  1  0  0  0  0
 23 22  1  0  0  0  0
 23 24  1  0  0  0  0
 25 23  1  0  0  0  0
 26 23  1  0  0  0  0
 27 30  1  0  0  0  0
 27 22  1  0  0  0  0
 28 27  1  0  0  0  0
 29 27  1  0  0  0  0
 31  8  1  0  0  0  0
 31 32  1  0  0  0  0
 33 31  1  0  0  0  0
 34  8  1  0  0  0  0
 35 34  1  0  0  0  0
 36 43  1  0  0  0  0
 36 34  1  0  0  0  0
 37 36  2  0  0  0  0
 38 37  1  0  0  0  0
 39 40  2  0  0  0  0
 39 37  1  0  0  0  0
 40 42  1  0  0  0  0
 41 40  1  0  0  0  0
 42  3  1  0  0  0  0
 42 43  2  0  0  0  0
 43  6  1  0  0  0  0
M  CHG  2   5  -1   6  -1
M  END
