1,2,5,6
q = -2.0, confidence = 0.824

 68 71  0  0  1  0  0  0  0  0999 V2000
    1.9629   -0.9430   -0.2447 O   0  5  0  0  0  0  0  0  0  0  0  0
    1.2194    1.4269   -0.1807 O   0  5  0  0  0  0  0  0  0  0  0  0
    4.5012   -1.4822   -0.0814 O   0  0  0  0  0  0  0  0  0  0  0  0
    2.9327    3.2957    0.4028 O   0  0  0  0  0  0  0  0  0  0  0  0
   -0.5850   -1.7633   -0.6267 N   0  0  0  0  0  2  0  0  0  0  0  0
   -1.3383    0.6671   -0.7392 N   0  0  0  0  0  2  0  0  0  0  0  0
    2.2791   -2.1866   -0.4023 C   0  0  0  0  0  0  0  0  0  0  0  0
    3.6849   -2.5391   -0.3162 C   0  0  0  0  0  0  0  0  0  0  0  0
    5.8987   -1.7060    0.0229 C   0  0  0  0  0  0  0  0  0  0  0  0
    6.5625   -0.3656    0.2812 C   0  0  0  0  0  0  0  0  0  0  0  0
    4.0933   -3.8627   -0.4724 C   0  0  0  0  0  0  0  0  0  0  0  0
    3.1477   -4.8983   -0.7128 C   0  0  0  0  0  0  0  0  0  0  0  0
    1.7998   -4.6017   -0.7952 C   0  0  0  0  0  3  0  0  0  0  0  0
    1.3442   -3.2544   -0.6450 C   0  0  0  0  0  0  0  0  0  0  0  0
   -0.0492   -2.9638   -0.6967 C   0  0  0  0  0  0  0  0  0  0  0  0
   -2.0426   -1.6349   -0.5256 C   0  0  1  0  0  0  0  0  0  0  0  0
   -2.5232   -1.7371    0.9140 C   0  0  0  0  0  0  0  0  0  0  0  0
   -1.7775   -1.1946    1.9789 C   0  0  0  0  0  0  0  0  0  0  0  0
   -2.2818   -1.2298    3.2869 C   0  0  0  0  0  0  0  0  0  0  0  0
   -3.5329   -1.8120    3.5487 C   0  0  0  0  0  0  0  0  0  0  0  0
   -4.2742   -2.3682    2.4947 C   0  0  0  0  0  0  0  0  0  0  0  0
   -3.7704   -2.3302    1.1864 C   0  0  0  0  0  0  0  0  0  0  0  0
   -2.3720   -0.2792   -1.2105 C   0  0  1  0  0  0  0  0  0  0  0  0
   -3.8141    0.1582   -1.0609 C   0  0  0  0  0  0  0  0  0  0  0  0
   -4.3240    0.6495    0.1607 C   0  0  0  0  0  0  0  0  0  0  0  0
   -5.6765    0.9965    0.2773 C   0  0  0  0  0  0  0  0  0  0  0  0
   -6.5435    0.8517   -0.8184 C   0  0  0  0  0  0  0  0  0  0  0  0
   -6.0474    0.3649   -2.0369 C   0  0  0  0  0  0  0  0  0  0  0  0
   -4.6903    0.0266   -2.1550 C   0  0  0  0  0  0  0  0  0  0  0  0
   -1.5748    1.9613   -0.7148 C   0  0  0  0  0  0  0  0  0  0  0  0
   -0.6291    2.9791   -0.3931 C   0  0  0  0  0  0  0  0  0  0  0  0
   -1.0521    4.3443   -0.3416 C   0  0  0  0  0  3  0  0  0  0  0  0
   -0.1492    5.3470   -0.0390 C   0  0  0  0  0  0  0  0  0  0  0  0
    1.2122    5.0263    0.2209 C   0  0  0  0  0  0  0  0  0  0  0  0
    1.6603    3.7070    0.1756 C   0  0  0  0  0  0  0  0  0  0  0  0
    3.9222    4.2669    0.7049 C   0  0  0  0  0  0  0  0  0  0  0  0
    5.2396    3.5383    0.8995 C   0  0  0  0  0  0  0  0  0  0  0  0
    0.7420    2.6278   -0.1384 C   0  0  0  0  0  0  0  0  0  0  0  0
    6.1111   -2.4248    0.8504 H   0  0  0  0  0  0  0  0  0  0  0  0
    6.2843   -2.1692   -0.9170 H   0  0  0  0  0  0  0  0  0  0  0  0
    6.3516    0.3383   -0.5480 H   0  0  0  0  0  0  0  0  0  0  0  0
    6.1758    0.0863    1.2158 H   0  0  0  0  0  0  0  0  0  0  0  0
    7.6598   -0.4876    0.3730 H   0  0  0  0  0  0  0  0  0  0  0  0
    5.1600   -4.1182   -0.4089 H   0  0  0  0  0  0  0  0  0  0  0  0
    3.5013   -5.9331   -0.8289 H   0  0  0  0  0  0  0  0  0  0  0  0
    1.0575   -5.3948   -0.9753 H   0  0  0  0  0  0  0  0  0  0  0  0
   -0.7430   -3.8234   -0.7865 H   0  0  0  0  0  0  0  0  0  0  0  0
   -2.5368   -2.4391   -1.1127 H   0  0  0  0  0  0  0  0  0  0  0  0
   -0.7919   -0.7475    1.7732 H   0  0  0  0  0  0  0  0  0  0  0  0
   -1.6886   -0.8017    4.1093 H   0  0  0  0  0  0  0  0  0  0  0  0
   -3.9256   -1.8404    4.5766 H   0  0  0  0  0  0  0  0  0  0  0  0
   -5.2518   -2.8342    2.6910 H   0  0  0  0  0  0  0  0  0  0  0  0
   -4.3614   -2.7533    0.3587 H   0  0  0  0  0  0  0  0  0  0  0  0
   -2.1778   -0.4445   -2.2944 H   0  0  0  0  0  0  0  0  0  0  0  0
   -3.6558    0.7612    1.0267 H   0  0  0  0  0  0  0  0  0  0  0  0
   -6.0578    1.3785    1.2363 H   0  0  0  0  0  0  0  0  0  0  0  0
   -7.6058    1.1234   -0.7228 H   0  0  0  0  0  0  0  0  0  0  0  0
   -6.7170    0.2542   -2.9032 H   0  0  0  0  0  0  0  0  0  0  0  0
   -4.2995   -0.3469   -3.1152 H   0  0  0  0  0  0  0  0  0  0  0  0
   -2.5992    2.2962   -0.9633 H   0  0  0  0  0  0  0  0  0  0  0  0
   -2.1087    4.5781   -0.5451 H   0  0  0  0  0  0  0  0  0  0  0  0
   -0.4721    6.3974    0.0029 H   0  0  0  0  0  0  0  0  0  0  0  0
    1.9156    5.8363    0.4585 H   0  0  0  0  0  0  0  0  0  0  0  0
    3.9948    5.0111   -0.1244 H   0  0  0  0  0  0  0  0  0  0  0  0
    3.6375    4.8323    1.6247 H   0  0  0  0  0  0  0  0  0  0  0  0
    6.0489    4.2569    1.1364 H   0  0  0  0  0  0  0  0  0  0  0  0
    5.1606    2.8068    1.7278 H   0  0  0  0  0  0  0  0  0  0  0  0
    5.5153    2.9823   -0.0181 H   0  0  0  0  0  0  0  0  0  0  0  0
  2 38  1  0  0  0  0
  3  9  1  0  0  0  0
  4 36  1  0  0  0  0
  5 16  1  0  0  0  0
  6 30  1  0  0  0  0
  7  8  2  0  0  0  0
  7  1  1  0  0  0  0
  8  3  1  0  0  0  0
  9 10  1  0  0  0  0
  9 39  1  0  0  0  0
 10 43  1  0  0  0  0
 10 42  1  0  0  0  0
 11 44  1  0  0  0  0
 11  8  1  0  0  0  0
 12 11  2  0  0  0  0
 13 12  1  0  0  0  0
 13 14  1  0  0  0  0
 14  7  1  0  0  0  0
 15 14  2  0  0  0  0
 15  5  1  0  0  0  0
 16 48  1  6  0  0  0
 16 17  1  0  0  0  0
 17 22  2  0  0  0  0
 17 18  1  0  0  0  0
 18 19  2  0  0  0  0
 19 20  1  0  0  0  0
 19 50  1  0  0  0  0
 20 51  1  0  0  0  0
 21 52  1  0  0  0  0
 21 20  2  0  0  0  0
 22 21  1  0  0  0  0
 23 54  1  6  0  0  0
 23 24  1  0  0  0  0
 23  6  1  0  0  0  0
 23 16  1  0  0  0  0
 24 25  1  0  0  0  0
 25 26  2  0  0  0  0
 25 55  1  0  0  0  0
 26 56  1  0  0  0  0
 27 57  1  0  0  0  0
 27 26  1  0  0  0  0
 28 27  2  0  0  0  0
 29 28  1  0  0  0  0
 29 24  2  0  0  0  0
 30 31  2  0  0  0  0
 31 32  1  0  0  0  0
 31 38  1  0  0  0  0
 32 33  1  0  0  0  0
 33 62  1  0  0  0  0
 33 34  2  0  0  0  0
 34 63  1  0  0  0  0
 35 34  1  0  0  0  0
 35  4  1  0  0  0  0
 36 37  1  0  0  0  0
 36 65  1  0  0  0  0
 37 66  1  0  0  0  0
 37 67  1  0  0  0  0
 38 35  2  0  0  0  0
 40  9  1  0  0  0  0
 41 10  1  0  0  0  0
 45 12  1  0  0  0  0
 46 13  1  0  0  0  0
 47 15  1  0  0  0  0
 49 18  1  0  0  0  0
 53 22  1  0  0  0  0
 58 28  1  0  0  0  0
 59 29  1  0  0  0  0
 60 30  1  0  0  0  0
 61 32  1  0  0  0  0
 64 36  1  0  0  0  0
 68 37  1  0  0  0  0
M  CHG  2   1  -1   2  -1
M  END
