1,2,3,4
q = -2.0, confidence = 0.824

 54 57  0  0  1  0  0  0  0  0999 V2000
    1.8794   -2.4319   -0.1518 O   0  5  0  0  0  0  0  0  0  0  0  0
    3.0916   -0.2541    0.0575 O   0  5  0  0  0  0  0  0  0  0  0  0
   -0.5726   -1.1598   -0.2088 N   0  0  0  0  0  2  0  0  0  0  0  0
    0.6611    1.0635    0.2185 N   0  0  0  0  0  2  0  0  0  0  0  0
    1.1827   -3.5263   -0.1233 C   0  0  0  0  0  0  0  0  0  0  0  0
    1.8753   -4.7772   -0.0472 C   0  0  0  0  0  0  0  0  0  0  0  0
    1.1871   -5.9824   -0.0040 C   0  0  0  0  0  0  0  0  0  0  0  0
   -0.2317   -6.0240   -0.0213 C   0  0  0  0  0  0  0  0  0  0  0  0
   -0.9358   -4.8304   -0.0769 C   0  0  0  0  0  0  0  0  0  0  0  0
   -0.2637   -3.5744   -0.1300 C   0  0  0  0  0  0  0  0  0  0  0  0
   -1.0445   -2.3800   -0.1436 C   0  0  0  0  0  3  0  0  0  0  0  0
    3.6139    0.9092    0.2837 C   0  0  0  0  0  0  0  0  0  0  0  0
    5.0394    1.0179    0.3805 C   0  0  0  0  0  0  0  0  0  0  0  0
    5.6545    2.2365    0.6307 C   0  0  0  0  0  0  0  0  0  0  0  0
    4.8962    3.4227    0.8203 C   0  0  0  0  0  0  0  0  0  0  0  0
    3.5132    3.3511    0.7587 C   0  0  0  0  0  0  0  0  0  0  0  0
    2.8453    2.1199    0.4889 C   0  0  0  0  0  0  0  0  0  0  0  0
    1.4211    2.0914    0.5172 C   0  0  0  0  0  3  0  0  0  0  0  0
   -1.4710    0.0026   -0.3288 C   0  0  1  0  0  0  0  0  0  0  0  0
   -2.9031   -0.1926    0.1245 C   0  0  0  0  0  0  0  0  0  0  0  0
   -3.9653    0.0372   -0.7687 C   0  0  0  0  0  0  0  0  0  0  0  0
   -5.2977   -0.0942   -0.3474 C   0  0  0  0  0  0  0  0  0  0  0  0
   -5.5831   -0.4641    0.9752 C   0  0  0  0  0  0  0  0  0  0  0  0
   -4.5302   -0.7009    1.8750 C   0  0  0  0  0  0  0  0  0  0  0  0
   -3.2007   -0.5629    1.4534 C   0  0  0  0  0  0  0  0  0  0  0  0
   -0.7999    1.1800    0.4203 C   0  0  2  0  0  0  0  0  0  0  0  0
   -1.3947    2.5025   -0.0221 C   0  0  0  0  0  0  0  0  0  0  0  0
   -1.0978    3.0159   -1.3023 C   0  0  0  0  0  0  0  0  0  0  0  0
   -1.6911    4.2067   -1.7422 C   0  0  0  0  0  0  0  0  0  0  0  0
   -2.5917    4.8959   -0.9119 C   0  0  0  0  0  0  0  0  0  0  0  0
   -2.8932    4.3893    0.3611 C   0  0  0  0  0  0  0  0  0  0  0  0
   -2.2957    3.1982    0.8032 C   0  0  0  0  0  0  0  0  0  0  0  0
    2.9739   -4.7362   -0.0339 H   0  0  0  0  0  0  0  0  0  0  0  0
    1.7556   -6.9249    0.0434 H   0  0  0  0  0  0  0  0  0  0  0  0
   -0.7609   -6.9871    0.0119 H   0  0  0  0  0  0  0  0  0  0  0  0
   -2.0381   -4.8326   -0.0830 H   0  0  0  0  0  0  0  0  0  0  0  0
   -2.1439   -2.5068   -0.0837 H   0  0  0  0  0  0  0  0  0  0  0  0
    5.6186    0.0949    0.2346 H   0  0  0  0  0  0  0  0  0  0  0  0
    6.7539    2.2834    0.6835 H   0  0  0  0  0  0  0  0  0  0  0  0
    5.4005    4.3791    1.0188 H   0  0  0  0  0  0  0  0  0  0  0  0
    2.9001    4.2535    0.9164 H   0  0  0  0  0  0  0  0  0  0  0  0
    0.9160    3.0264    0.8352 H   0  0  0  0  0  0  0  0  0  0  0  0
   -1.4757    0.2690   -1.4094 H   0  0  0  0  0  0  0  0  0  0  0  0
   -3.7407    0.3332   -1.8053 H   0  0  0  0  0  0  0  0  0  0  0  0
   -6.1169    0.0942   -1.0577 H   0  0  0  0  0  0  0  0  0  0  0  0
   -6.6271   -0.5697    1.3071 H   0  0  0  0  0  0  0  0  0  0  0  0
   -4.7470   -0.9944    2.9133 H   0  0  0  0  0  0  0  0  0  0  0  0
   -2.3815   -0.7576    2.1637 H   0  0  0  0  0  0  0  0  0  0  0  0
   -1.0022    1.0417    1.5060 H   0  0  0  0  0  0  0  0  0  0  0  0
   -0.3859    2.4796   -1.9499 H   0  0  0  0  0  0  0  0  0  0  0  0
   -1.4491    4.6008   -2.7409 H   0  0  0  0  0  0  0  0  0  0  0  0
   -3.0569    5.8310   -1.2587 H   0  0  0  0  0  0  0  0  0  0  0  0
   -3.5974    4.9240    1.0164 H   0  0  0  0  0  0  0  0  0  0  0  0
   -2.5379    2.7949    1.7989 H   0  0  0  0  0  0  0  0  0  0  0  0
  1  5  1  0  0  0  0
  2 12  1  0  0  0  0
  3 11  1  0  0  0  0
  4 26  1  0  0  0  0
  4 18  1  0  0  0  0
  5  6  1  0  0  0  0
  6 33  1  0  0  0  0
  6  7  2  0  0  0  0
  7 34  1  0  0  0  0
  8  7  1  0  0  0  0
  8 35  1  0  0  0  0
  9  8  2  0  0  0  0
 10  5  2  0  0  0  0
 10  9  1  0  0  0  0
 11 10  1  0  0  0  0
 11 37  1  0  0  0  0
 12 13  2  0  0  0  0
 12 17  1  0  0  0  0
 13 14  1  0  0  0  0
 14 39  1  0  0  0  0
 14 15  2  0  0  0  0
 15 40  1  0  0  0  0
 16 15  1  0  0  0  0
 16 41  1  0  0  0  0
 17 18  1  0  0  0  0
 17 16  2  0  0  0  0
 18 42  1  0  0  0  0
 19 43  1  6  0  0  0
 19  3  1  0  0  0  0
 19 20  1  0  0  0  0
 19 26  1  0  0  0  0
 20 25  1  0  0  0  0
 21 22  1  0  0  0  0
 21 20  2  0  0  0  0
 22 23  2  0  0  0  0
 23 46  1  0  0  0  0
 23 24  1  0  0  0  0
 24 47  1  0  0  0  0
 25 24  2  0  0  0  0
 25 48  1  0  0  0  0
 26 49  1  1  0  0  0
 27 26  1  0  0  0  0
 27 32  1  0  0  0  0
 28 27  2  0  0  0  0
 29 28  1  0  0  0  0
 29 30  2  0  0  0  0
 30 31  1  0  0  0  0
 31 32  2  0  0  0  0
 31 53  1  0  0  0  0
 32 54  1  0  0  0  0
 36  9  1  0  0  0  0
 38 13  1  0  0  0  0
 44 21  1  0  0  0  0
 45 22  1  0  0  0  0
 50 28  1  0  0  0  0
 51 29  1  0  0  0  0
 52 30  1  0  0  0  0
M  CHG  2   1  -1   2  -1
M  END
