1,14,22,36
q = -2.0, confidence = 0.848

 62 63  0  0  0  0  0  0  0  0999 V2000
   -1.2409    0.1454   -0.3560 O   0  5  0  0  0  0  0  0  0  0  0  0
   -2.5582    0.0228   -0.3001 C   0  0  0  0  0  0  0  0  0  0  0  0
   -3.3597    1.1119    0.1965 C   0  0  0  0  0  0  0  0  0  0  0  0
   -4.7554    0.9522    0.1909 C   0  0  0  0  0  0  0  0  0  0  0  0
   -5.3851    1.7718    0.5635 H   0  0  0  0  0  0  0  0  0  0  0  0
   -5.3913   -0.2211   -0.2549 C   0  0  0  0  0  0  0  0  0  0  0  0
   -6.4880   -0.3000   -0.2284 H   0  0  0  0  0  0  0  0  0  0  0  0
   -4.6122   -1.2834   -0.7216 C   0  0  0  0  0  0  0  0  0  0  0  0
   -5.0868   -2.2140   -1.0749 H   0  0  0  0  0  0  0  0  0  0  0  0
   -3.2129   -1.1671   -0.7543 C   0  0  0  0  0  0  0  0  0  0  0  0
   -2.3498   -2.2795   -1.2724 C   0  0  0  0  0  0  0  0  0  0  0  0
   -1.7867   -1.9863   -2.1861 H   0  0  0  0  0  0  0  0  0  0  0  0
   -2.9701   -3.1703   -1.5159 H   0  0  0  0  0  0  0  0  0  0  0  0
   -1.3295   -2.6356   -0.2427 N   0  0  0  0  0  0  0  0  0  0  0  0
   -1.8358   -2.6970    0.6585 H   0  0  0  0  0  0  0  0  0  0  0  0
   -0.5995   -3.9045   -0.4695 C   0  0  0  0  0  0  0  0  0  0  0  0
   -1.2509   -4.7936   -0.3190 H   0  0  0  0  0  0  0  0  0  0  0  0
   -0.2628   -3.9158   -1.5274 H   0  0  0  0  0  0  0  0  0  0  0  0
    0.5998   -3.9045    0.4695 C   0  0  0  0  0  0  0  0  0  0  0  0
    1.2513   -4.7935    0.3189 H   0  0  0  0  0  0  0  0  0  0  0  0
    0.2631   -3.9158    1.5274 H   0  0  0  0  0  0  0  0  0  0  0  0
    1.3297   -2.6355    0.2427 N   0  0  0  0  0  0  0  0  0  0  0  0
    1.8361   -2.6968   -0.6585 H   0  0  0  0  0  0  0  0  0  0  0  0
    2.3499   -2.2793    1.2724 C   0  0  0  0  0  0  0  0  0  0  0  0
    1.7868   -1.9862    2.1861 H   0  0  0  0  0  0  0  0  0  0  0  0
    2.9702   -3.1700    1.5160 H   0  0  0  0  0  0  0  0  0  0  0  0
    3.2130   -1.1669    0.7543 C   0  0  0  0  0  0  0  0  0  0  0  0
    4.6123   -1.2831    0.7218 C   0  0  0  0  0  0  0  0  0  0  0  0
    5.0870   -2.2137    1.0751 H   0  0  0  0  0  0  0  0  0  0  0  0
    5.3914   -0.2208    0.2550 C   0  0  0  0  0  0  0  0  0  0  0  0
    6.4881   -0.2996    0.2285 H   0  0  0  0  0  0  0  0  0  0  0  0
    4.7554    0.9524   -0.1909 C   0  0  0  0  0  0  0  0  0  0  0  0
    5.3851    1.7721   -0.5635 H   0  0  0  0  0  0  0  0  0  0  0  0
    3.3597    1.1120   -0.1965 C   0  0  0  0  0  0  0  0  0  0  0  0
    2.5582    0.0229    0.3002 C   0  0  0  0  0  0  0  0  0  0  0  0
    1.2410    0.1455    0.3559 O   0  5  0  0  0  0  0  0  0  0  0  0
   -2.6857    2.3969    0.7095 C   0  0  0  0  0  0  0  0  0  0  0  0
   -1.7267    2.0499    1.8745 C   0  0  0  0  0  0  0  0  0  0  0  0
   -0.9394    1.3475    1.5454 H   0  0  0  0  0  0  0  0  0  0  0  0
   -2.2871    1.5946    2.7172 H   0  0  0  0  0  0  0  0  0  0  0  0
   -1.2364    2.9721    2.2500 H   0  0  0  0  0  0  0  0  0  0  0  0
   -1.8961    3.0615   -0.4430 C   0  0  0  0  0  0  0  0  0  0  0  0
   -1.1226    2.3773   -0.8353 H   0  0  0  0  0  0  0  0  0  0  0  0
   -1.3961    3.9845   -0.0818 H   0  0  0  0  0  0  0  0  0  0  0  0
   -2.5777    3.3418   -1.2723 H   0  0  0  0  0  0  0  0  0  0  0  0
   -3.7135    3.4173    1.2305 C   0  0  0  0  0  0  0  0  0  0  0  0
   -4.3074    3.0165    2.0775 H   0  0  0  0  0  0  0  0  0  0  0  0
   -4.4171    3.7441    0.4377 H   0  0  0  0  0  0  0  0  0  0  0  0
   -3.1818    4.3198    1.5940 H   0  0  0  0  0  0  0  0  0  0  0  0
    2.6855    2.3970   -0.7095 C   0  0  0  0  0  0  0  0  0  0  0  0
    1.7263    2.0496   -1.8742 C   0  0  0  0  0  0  0  0  0  0  0  0
    0.9393    1.3471   -1.5450 H   0  0  0  0  0  0  0  0  0  0  0  0
    2.2867    1.5944   -2.7171 H   0  0  0  0  0  0  0  0  0  0  0  0
    1.2357    2.9718   -2.2498 H   0  0  0  0  0  0  0  0  0  0  0  0
    1.8960    3.0615    0.4430 C   0  0  0  0  0  0  0  0  0  0  0  0
    1.1226    2.3772    0.8356 H   0  0  0  0  0  0  0  0  0  0  0  0
    1.3957    3.9844    0.0818 H   0  0  0  0  0  0  0  0  0  0  0  0
    2.5777    3.3421    1.2721 H   0  0  0  0  0  0  0  0  0  0  0  0
    3.7130    3.4175   -1.2308 C   0  0  0  0  0  0  0  0  0  0  0  0
    4.3068    3.0167   -2.0779 H   0  0  0  0  0  0  0  0  0  0  0  0
    4.4168    3.7444   -0.4382 H   0  0  0  0  0  0  0  0  0  0  0  0
    3.1812    4.3198   -1.5944 H   0  0  0  0  0  0  0  0  0  0  0  0
  1  2  1  0  0  0  0
  2  3  1  0  0  0  0
  3 37  1  0  0  0  0
  4  3  2  0  0  0  0
  4  5  1  0  0  0  0
  6  7  1  0  0  0  0
  6  4  1  0  0  0  0
  8  6  2  0  0  0  0
  9  8  1  0  0  0  0
 10  8  1  0  0  0  0
 10  2  2  0  0  0  0
 11 10  1  0  0  0  0
 11 14  1  0  0  0  0
 12 11  1  0  0  0  0
 13 11  1  0  0  0  0
 14 15  1  0  0  0  0
 16 17  1  0  0  0  0
 16 14  1  0  0  0  0
 16 19  1  0  0  0  0
 18 16  1  0  0  0  0
 19 21  1  0  0  0  0
 20 19  1  0  0  0  0
 22 19  1  0  0  0  0
 22 24  1  0  0  0  0
 23 22  1  0  0  0  0
 24 26  1  0  0  0  0
 24 25  1  0  0  0  0
 27 24  1  0  0  0  0
 28 27  1  0  0  0  0
 28 29  1  0  0  0  0
 30 28  2  0  0  0  0
 31 30  1  0  0  0  0
 32 30  1  0  0  0  0
 33 32  1  0  0  0  0
 34 32  2  0  0  0  0
 34 35  1  0  0  0  0
 35 36  1  0  0  0  0
 35 27  2  0  0  0  0
 37 46  1  0  0  0  0
 37 38  1  0  0  0  0
 38 41  1  0  0  0  0
 38 40  1  0  0  0  0
 39 38  1  0  0  0  0
 42 44  1  0  0  0  0
 42 37  1  0  0  0  0
 43 42  1  0  0  0  0
 45 42  1  0  0  0  0
 46 49  1  0  0  0  0
 46 47  1  0  0  0  0
 48 46  1  0  0  0  0
 50 34  1  0  0  0  0
 50 55  1  0  0  0  0
 51 52  1  0  0  0  0
 51 50  1  0  0  0  0
 53 51  1  0  0  0  0
 54 51  1  0  0  0  0
 55 56  1  0  0  0  0
 55 58  1  0  0  0  0
 57 55  1  0  0  0  0
 59 50  1  0  0  0  0
 59 61  1  0  0  0  0
 60 59  1  0  0  0  0
 62 59  1  0  0  0  0
M  CHG  2   1  -1  36  -1
M  END
