1,2,5,6
q = -2.0, confidence = 0.898

 42 43  0  0  1  0  0  0  0  0999 V2000
   -1.3663   -1.0641   -0.0003 O   0  5  0  0  0  0  0  0  0  0  0  0
    1.3663   -1.0641   -0.0006 O   0  5  0  0  0  0  0  0  0  0  0  0
    0.0000    4.6968    0.0000 O   0  0  0  0  0  0  0  0  0  0  0  0
   -2.6248    0.8715    0.0000 N   0  0  0  0  0  0  0  0  0  0  0  0
   -1.3867    1.4314   -0.0000 N   0  0  0  0  0  2  0  0  0  0  0  0
    1.3867    1.4314    0.0000 N   0  0  0  0  0  2  0  0  0  0  0  0
    2.6248    0.8715    0.0002 N   0  0  0  0  0  0  0  0  0  0  0  0
   -3.6407   -2.6875    0.0005 C   0  0  0  0  0  0  0  0  0  0  0  0
   -2.6386   -3.1394    0.0007 H   0  0  0  0  0  0  0  0  0  0  0  0
   -4.7982   -3.4744    0.0007 C   0  0  0  0  0  0  0  0  0  0  0  0
   -4.7154   -4.5718    0.0011 H   0  0  0  0  0  0  0  0  0  0  0  0
   -6.0645   -2.8645    0.0005 C   0  0  0  0  0  0  0  0  0  0  0  0
   -6.9736   -3.4851    0.0006 H   0  0  0  0  0  0  0  0  0  0  0  0
   -6.1719   -1.4626    0.0000 C   0  0  0  0  0  0  0  0  0  0  0  0
   -7.1640   -0.9865   -0.0002 H   0  0  0  0  0  0  0  0  0  0  0  0
   -5.0188   -0.6697   -0.0001 C   0  0  0  0  0  0  0  0  0  0  0  0
   -5.0783    0.4276   -0.0005 H   0  0  0  0  0  0  0  0  0  0  0  0
   -3.7443   -1.2795    0.0001 C   0  0  0  0  0  0  0  0  0  0  0  0
   -2.5129   -0.4639   -0.0001 C   0  0  0  0  0  0  0  0  0  0  0  0
   -1.3135    2.7498   -0.0003 C   0  0  2  0  0  3  0  0  0  0  0  0
    0.0000    3.4583    0.0001 C   0  0  0  0  0  0  0  0  0  0  0  0
    1.3135    2.7498    0.0003 C   0  0  1  0  0  3  0  0  0  0  0  0
    2.5128   -0.4639   -0.0002 C   0  0  0  0  0  0  0  0  0  0  0  0
    3.7443   -1.2795   -0.0001 C   0  0  0  0  0  0  0  0  0  0  0  0
    5.0188   -0.6697    0.0006 C   0  0  0  0  0  0  0  0  0  0  0  0
    5.0783    0.4276    0.0010 H   0  0  0  0  0  0  0  0  0  0  0  0
    6.1719   -1.4626    0.0006 C   0  0  0  0  0  0  0  0  0  0  0  0
    7.1640   -0.9864    0.0011 H   0  0  0  0  0  0  0  0  0  0  0  0
    6.0645   -2.8645    0.0000 C   0  0  0  0  0  0  0  0  0  0  0  0
    6.9736   -3.4851    0.0001 H   0  0  0  0  0  0  0  0  0  0  0  0
    4.7982   -3.4744   -0.0006 C   0  0  0  0  0  0  0  0  0  0  0  0
    4.7154   -4.5718   -0.0011 H   0  0  0  0  0  0  0  0  0  0  0  0
    3.6407   -2.6875   -0.0007 C   0  0  0  0  0  0  0  0  0  0  0  0
    2.6386   -3.1394   -0.0011 H   0  0  0  0  0  0  0  0  0  0  0  0
   -2.5575    3.5767   -0.0007 C   0  0  0  0  0  0  0  0  0  0  0  0
   -3.1803    3.3307   -0.8851 H   0  0  0  0  0  0  0  0  0  0  0  0
   -2.2885    4.6466   -0.0009 H   0  0  0  0  0  0  0  0  0  0  0  0
   -3.1806    3.3311    0.8837 H   0  0  0  0  0  0  0  0  0  0  0  0
    2.5575    3.5767    0.0009 C   0  0  0  0  0  0  0  0  0  0  0  0
    3.1796    3.3316    0.8861 H   0  0  0  0  0  0  0  0  0  0  0  0
    2.2885    4.6466    0.0000 H   0  0  0  0  0  0  0  0  0  0  0  0
    3.1813    3.3302   -0.8827 H   0  0  0  0  0  0  0  0  0  0  0  0
  1 19  1  0  0  0  0
  2 23  1  0  0  0  0
  3 21  2  0  0  0  0
  5  4  1  0  0  0  0
  6  7  1  0  0  0  0
  8  9  1  0  0  0  0
  8 10  1  0  0  0  0
 10 11  1  0  0  0  0
 12 13  1  0  0  0  0
 12 10  2  0  0  0  0
 14 12  1  0  0  0  0
 15 14  1  0  0  0  0
 16 14  2  0  0  0  0
 16 18  1  0  0  0  0
 17 16  1  0  0  0  0
 18  8  2  0  0  0  0
 19  4  2  0  0  0  0
 19 18  1  0  0  0  0
 20  5  1  1  0  0  0
 20 21  1  0  0  0  0
 21 22  1  0  0  0  0
 22  6  1  1  0  0  0
 22 39  1  0  0  0  0
 23 24  1  0  0  0  0
 23  7  2  0  0  0  0
 24 25  1  0  0  0  0
 25 27  2  0  0  0  0
 25 26  1  0  0  0  0
 27 28  1  0  0  0  0
 29 30  1  0  0  0  0
 29 27  1  0  0  0  0
 31 29  2  0  0  0  0
 32 31  1  0  0  0  0
 33 31  1  0  0  0  0
 33 24  2  0  0  0  0
 34 33  1  0  0  0  0
 35 20  1  0  0  0  0
 35 38  1  0  0  0  0
 36 35  1  0  0  0  0
 37 35  1  0  0  0  0
 39 40  1  0  0  0  0
 41 39  1  0  0  0  0
 42 39  1  0  0  0  0
M  CHG  2   1  -1   2  -1
M  END
