1,6,11,14
q = -2.0, confidence = 0.794

 38 39  0  0  1  0  0  0  0  0999 V2000
   -1.7457   -2.1859    0.4036 O   0  5  0  0  0  0  0  0  0  0  0  0
   -3.9793   -2.3285    0.7025 O   0  0  0  0  0  0  0  0  0  0  0  0
   -5.2497   -1.5361    0.5721 H   0  0  0  0  0  0  0  0  0  0  0  0
   -6.4434    1.2354   -0.1685 O   0  0  0  0  0  0  0  0  0  0  0  0
   -6.0765   -0.9081    0.4432 O   0  0  0  0  0  0  0  0  0  0  0  0
    1.7458   -2.1862   -0.4032 O   0  5  0  0  0  0  0  0  0  0  0  0
    3.9793   -2.3285   -0.7028 O   0  0  0  0  0  0  0  0  0  0  0  0
    6.0765   -0.9078   -0.4442 O   0  0  0  0  0  0  0  0  0  0  0  0
    5.2497   -1.5359   -0.5729 H   0  0  0  0  0  0  0  0  0  0  0  0
    6.4432    1.2357    0.1675 O   0  0  0  0  0  0  0  0  0  0  0  0
   -1.9678    0.5408   -0.2688 N   0  0  0  0  0  2  0  0  0  0  0  0
   -3.7886    1.7484   -0.5107 N   0  0  0  0  0  0  0  0  0  0  0  0
   -4.4628    2.5012   -0.6938 H   0  0  0  0  0  0  0  0  0  0  0  0
    1.9677    0.5406    0.2691 N   0  0  0  0  0  2  0  0  0  0  0  0
    3.7885    1.7484    0.5105 N   0  0  0  0  0  0  0  0  0  0  0  0
    4.4626    2.5012    0.6935 H   0  0  0  0  0  0  0  0  0  0  0  0
   -3.0626   -0.2545    0.0310 C   0  0  0  0  0  0  0  0  0  0  0  0
   -4.2208    0.5035   -0.1164 C   0  0  0  0  0  0  0  0  0  0  0  0
   -5.6951    0.2896    0.0570 C   0  0  0  0  0  0  0  0  0  0  0  0
   -2.4304    1.7542   -0.6037 C   0  0  2  0  0  3  0  0  0  0  0  0
   -1.6469    2.9396   -1.0781 C   0  0  0  0  0  0  0  0  0  0  0  0
   -2.1077    3.8573   -0.6522 H   0  0  0  0  0  0  0  0  0  0  0  0
   -1.7772    3.0214   -2.1801 H   0  0  0  0  0  0  0  0  0  0  0  0
   -0.1526    2.8955   -0.7504 C   0  0  0  0  0  0  0  0  0  0  0  0
    0.3009    2.0042   -1.2332 H   0  0  0  0  0  0  0  0  0  0  0  0
    0.3319    3.7732   -1.2270 H   0  0  0  0  0  0  0  0  0  0  0  0
    0.1525    2.8953    0.7510 C   0  0  0  0  0  0  0  0  0  0  0  0
   -0.3010    2.0039    1.2336 H   0  0  0  0  0  0  0  0  0  0  0  0
   -0.3319    3.7730    1.2278 H   0  0  0  0  0  0  0  0  0  0  0  0
    1.6468    2.9392    1.0787 C   0  0  0  0  0  0  0  0  0  0  0  0
    2.1077    3.8571    0.6531 H   0  0  0  0  0  0  0  0  0  0  0  0
    1.7771    3.0206    2.1808 H   0  0  0  0  0  0  0  0  0  0  0  0
    2.4303    1.7540    0.6039 C   0  0  2  0  0  3  0  0  0  0  0  0
    4.2207    0.5035    0.1160 C   0  0  0  0  0  0  0  0  0  0  0  0
    5.6950    0.2899   -0.0578 C   0  0  0  0  0  0  0  0  0  0  0  0
    3.0625   -0.2546   -0.0311 C   0  0  0  0  0  0  0  0  0  0  0  0
    2.9344   -1.6998   -0.4152 C   0  0  0  0  0  0  0  0  0  0  0  0
   -2.9344   -1.6996    0.4150 C   0  0  0  0  0  0  0  0  0  0  0  0
  1 38  1  0  0  0  0
  4 19  2  0  0  0  0
  5  3  1  0  0  0  0
  7 37  2  0  0  0  0
  8 35  1  0  0  0  0
  9  8  1  0  0  0  0
 11 17  1  0  0  0  0
 12 18  1  0  0  0  0
 13 12  1  0  0  0  0
 14 33  1  0  0  0  0
 15 33  1  0  0  0  0
 15 16  1  0  0  0  0
 17 38  1  0  0  0  0
 18 17  2  0  0  0  0
 18 19  1  0  0  0  0
 19  5  1  0  0  0  0
 20 21  1  6  0  0  0
 20 12  1  0  0  0  0
 20 11  1  0  0  0  0
 21 24  1  0  0  0  0
 21 22  1  0  0  0  0
 23 21  1  0  0  0  0
 24 27  1  0  0  0  0
 25 24  1  0  0  0  0
 26 24  1  0  0  0  0
 27 30  1  0  0  0  0
 27 29  1  0  0  0  0
 27 28  1  0  0  0  0
 30 32  1  0  0  0  0
 31 30  1  0  0  0  0
 33 30  1  1  0  0  0
 34 15  1  0  0  0  0
 35 34  1  0  0  0  0
 35 10  2  0  0  0  0
 36 34  2  0  0  0  0
 36 14  1  0  0  0  0
 37  6  1  0  0  0  0
 37 36  1  0  0  0  0
 38  2  2  0  0  0  0
M  CHG  2   1  -1   6  -1
M  END
