3,4,22,23
q = -2.0, confidence = 0.834

 37 38  0  0  1  0  0  0  0  0999 V2000
    2.2716   -2.7273    0.5472 I   0  0  0  0  0  0  0  0  0  0  0  0
    7.5130    0.3254   -0.0818 I   0  0  0  0  0  0  0  0  0  0  0  0
    1.2499    2.8516   -0.5326 N   0  0  0  0  0  2  0  0  0  0  0  0
    1.2377    0.1805   -0.0330 O   0  5  0  0  0  0  0  0  0  0  0  0
    2.5257    0.2576   -0.0411 C   0  0  0  0  0  0  0  0  0  0  0  0
    3.3144   -0.9249    0.1838 C   0  0  0  0  0  0  0  0  0  0  0  0
    4.7053   -0.9003    0.1809 C   0  0  0  0  0  0  0  0  0  0  0  0
    5.2677   -1.8252    0.3698 H   0  0  0  0  0  0  0  0  0  0  0  0
    5.3905    0.3158   -0.0705 C   0  0  0  0  0  0  0  0  0  0  0  0
    4.6834    1.4845   -0.3142 C   0  0  0  0  0  3  0  0  0  0  0  0
    5.2086    2.4283   -0.5225 H   0  0  0  0  0  0  0  0  0  0  0  0
    3.2604    1.4756   -0.2939 C   0  0  0  0  0  0  0  0  0  0  0  0
    2.5494    2.6729   -0.6159 C   0  0  0  0  0  0  0  0  0  0  0  0
    3.1506    3.5180   -1.0077 H   0  0  0  0  0  0  0  0  0  0  0  0
    0.6842    4.0897   -1.0733 C   0  0  0  0  0  0  0  0  0  0  0  0
   -0.0581    3.8029   -1.8465 H   0  0  0  0  0  0  0  0  0  0  0  0
    1.4741    4.6769   -1.5879 H   0  0  0  0  0  0  0  0  0  0  0  0
   -0.0000    4.9449    0.0002 C   0  0  0  0  0  0  0  0  0  0  0  0
   -0.7384    5.6044   -0.4998 H   0  0  0  0  0  0  0  0  0  0  0  0
   -2.2716   -2.7274   -0.5471 I   0  0  0  0  0  0  0  0  0  0  0  0
   -7.5130    0.3254    0.0815 I   0  0  0  0  0  0  0  0  0  0  0  0
   -1.2499    2.8516    0.5328 N   0  0  0  0  0  2  0  0  0  0  0  0
   -1.2377    0.1805    0.0333 O   0  0  0  0  0  1  0  0  0  0  0  0
   -2.5257    0.2576    0.0412 C   0  0  1  0  0  3  0  0  0  0  0  0
   -3.3144   -0.9250   -0.1838 C   0  0  0  0  0  0  0  0  0  0  0  0
   -4.7053   -0.9003   -0.1810 C   0  0  0  0  0  0  0  0  0  0  0  0
   -5.2677   -1.8252   -0.3699 H   0  0  0  0  0  0  0  0  0  0  0  0
   -5.3905    0.3157    0.0704 C   0  0  0  0  0  0  0  0  0  0  0  0
   -4.6834    1.4845    0.3141 C   0  0  0  0  0  0  0  0  0  0  0  0
   -5.2086    2.4283    0.5224 H   0  0  0  0  0  0  0  0  0  0  0  0
   -3.2604    1.4755    0.2939 C   0  0  0  0  0  0  0  0  0  0  0  0
   -2.5495    2.6729    0.6160 C   0  0  0  0  0  0  0  0  0  0  0  0
   -3.1507    3.5179    1.0078 H   0  0  0  0  0  0  0  0  0  0  0  0
   -0.6843    4.0896    1.0735 C   0  0  0  0  0  0  0  0  0  0  0  0
    0.0580    3.8028    1.8468 H   0  0  0  0  0  0  0  0  0  0  0  0
   -1.4741    4.6768    1.5882 H   0  0  0  0  0  0  0  0  0  0  0  0
    0.7384    5.6044    0.5002 H   0  0  0  0  0  0  0  0  0  0  0  0
  2  9  1  0  0  0  0
  5  4  1  0  0  0  0
  5  6  2  0  0  0  0
  6  1  1  0  0  0  0
  7  6  1  0  0  0  0
  7  8  1  0  0  0  0
  9  7  2  0  0  0  0
 10 12  1  0  0  0  0
 10  9  1  0  0  0  0
 11 10  1  0  0  0  0
 12  5  1  0  0  0  0
 13  3  1  0  0  0  0
 13 12  2  0  0  0  0
 14 13  1  0  0  0  0
 15  3  1  0  0  0  0
 15 18  1  0  0  0  0
 16 15  1  0  0  0  0
 17 15  1  0  0  0  0
 18 37  1  0  0  0  0
 18 34  1  0  0  0  0
 19 18  1  0  0  0  0
 20 25  1  0  0  0  0
 22 32  1  0  0  0  0
 22 34  1  0  0  0  0
 24 23  1  1  0  0  0
 24 31  1  0  0  0  0
 25 26  2  0  0  0  0
 25 24  1  0  0  0  0
 26 28  1  0  0  0  0
 27 26  1  0  0  0  0
 28 21  1  0  0  0  0
 28 29  2  0  0  0  0
 29 30  1  0  0  0  0
 31 29  1  0  0  0  0
 31 32  2  0  0  0  0
 32 33  1  0  0  0  0
 34 36  1  0  0  0  0
 34 35  1  0  0  0  0
M  CHG  1   4  -1
M  END
