2,4,6,7
q = -2.0, confidence = 0.848

 48 49  0  0  1  0  0  0  0  0999 V2000
    5.0921    0.3403   -0.8301 O   0  0  0  0  0  0  0  0  0  0  0  0
    1.2451   -0.9933    0.1913 O   0  5  0  0  0  0  0  0  0  0  0  0
   -5.2387    0.3978   -0.6196 O   0  0  0  0  0  0  0  0  0  0  0  0
   -1.3640   -0.9762    0.2381 O   0  5  0  0  0  0  0  0  0  0  0  0
    2.6197    0.7654   -0.3493 N   0  0  0  0  0  0  0  0  0  0  0  0
    1.5262    1.5046   -0.0414 N   0  0  0  0  0  2  0  0  0  0  0  0
   -1.6166    1.5433   -0.2799 N   0  0  0  0  0  2  0  0  0  0  0  0
   -2.7420    0.7890   -0.2791 N   0  0  0  0  0  0  0  0  0  0  0  0
    2.4015   -0.5411   -0.1816 C   0  0  0  0  0  0  0  0  0  0  0  0
    3.5214   -1.4630   -0.3781 C   0  0  0  0  0  0  0  0  0  0  0  0
    4.8300   -0.9627   -0.6866 C   0  0  0  0  0  0  0  0  0  0  0  0
    5.8861   -1.8902   -0.8488 C   0  0  0  0  0  0  0  0  0  0  0  0
    5.6567   -3.2594   -0.7105 C   0  0  0  0  0  0  0  0  0  0  0  0
    4.3695   -3.7542   -0.4082 C   0  0  0  0  0  0  0  0  0  0  0  0
    3.3165   -2.8565   -0.2435 C   0  0  0  0  0  0  0  0  0  0  0  0
    1.6411    2.7827    0.1765 C   0  0  2  0  0  3  0  0  0  0  0  0
    2.9898    3.4301    0.0663 C   0  0  0  0  0  0  0  0  0  0  0  0
    0.4141    3.5464    0.5700 C   0  0  0  0  0  0  0  0  0  0  0  0
   -0.5931    3.7713   -0.5741 C   0  0  0  0  0  0  0  0  0  0  0  0
   -1.7038    2.7714   -0.7135 C   0  0  2  0  0  3  0  0  0  0  0  0
   -2.9891    3.2372   -1.3365 C   0  0  0  0  0  0  0  0  0  0  0  0
   -2.5377   -0.5025   -0.0147 C   0  0  0  0  0  0  0  0  0  0  0  0
   -3.7050   -1.3928   -0.0173 C   0  0  0  0  0  0  0  0  0  0  0  0
   -5.0102   -0.8879   -0.3305 C   0  0  0  0  0  0  0  0  0  0  0  0
   -6.1011   -1.7891   -0.3312 C   0  0  0  0  0  0  0  0  0  0  0  0
   -5.9088   -3.1388   -0.0344 C   0  0  0  0  0  0  0  0  0  0  0  0
   -4.6256   -3.6380    0.2755 C   0  0  0  0  0  0  0  0  0  0  0  0
   -3.5387   -2.7652    0.2811 C   0  0  0  0  0  0  0  0  0  0  0  0
    4.2065    0.8252   -0.6979 H   0  0  0  0  0  0  0  0  0  0  0  0
   -4.3356    0.8654   -0.5397 H   0  0  0  0  0  0  0  0  0  0  0  0
    6.8836   -1.4931   -1.0856 H   0  0  0  0  0  0  0  0  0  0  0  0
    6.4954   -3.9605   -0.8423 H   0  0  0  0  0  0  0  0  0  0  0  0
    4.1992   -4.8354   -0.3053 H   0  0  0  0  0  0  0  0  0  0  0  0
    2.3005   -3.2034   -0.0063 H   0  0  0  0  0  0  0  0  0  0  0  0
    2.9404    4.5049    0.3156 H   0  0  0  0  0  0  0  0  0  0  0  0
    3.3971    3.3123   -0.9603 H   0  0  0  0  0  0  0  0  0  0  0  0
    3.7147    2.9270    0.7411 H   0  0  0  0  0  0  0  0  0  0  0  0
    0.7338    4.5318    0.9569 H   0  0  0  0  0  0  0  0  0  0  0  0
   -0.0701    2.9824    1.3987 H   0  0  0  0  0  0  0  0  0  0  0  0
   -1.0929    4.7500   -0.4166 H   0  0  0  0  0  0  0  0  0  0  0  0
   -0.0706    3.8759   -1.5535 H   0  0  0  0  0  0  0  0  0  0  0  0
   -2.8457    4.2026   -1.8567 H   0  0  0  0  0  0  0  0  0  0  0  0
   -3.7739    3.3736   -0.5606 H   0  0  0  0  0  0  0  0  0  0  0  0
   -3.3734    2.4792   -2.0475 H   0  0  0  0  0  0  0  0  0  0  0  0
   -7.0955   -1.3874   -0.5732 H   0  0  0  0  0  0  0  0  0  0  0  0
   -6.7743   -3.8195   -0.0425 H   0  0  0  0  0  0  0  0  0  0  0  0
   -4.4844   -4.7028    0.5102 H   0  0  0  0  0  0  0  0  0  0  0  0
   -2.5240   -3.1174    0.5166 H   0  0  0  0  0  0  0  0  0  0  0  0
  1 29  1  0  0  0  0
  1 11  1  0  0  0  0
  3 30  1  0  0  0  0
  3 24  1  0  0  0  0
  5  9  2  0  0  0  0
  5  6  1  0  0  0  0
  7  8  1  0  0  0  0
  8 22  2  0  0  0  0
  9  2  1  0  0  0  0
 10 15  1  0  0  0  0
 10  9  1  0  0  0  0
 11 10  2  0  0  0  0
 12 13  2  0  0  0  0
 12 11  1  0  0  0  0
 13 14  1  0  0  0  0
 14 33  1  0  0  0  0
 14 15  2  0  0  0  0
 15 34  1  0  0  0  0
 16  6  1  1  0  0  0
 16 18  1  0  0  0  0
 17 16  1  0  0  0  0
 17 35  1  0  0  0  0
 17 37  1  0  0  0  0
 18 38  1  0  0  0  0
 18 39  1  0  0  0  0
 19 40  1  0  0  0  0
 19 18  1  0  0  0  0
 20 19  1  0  0  0  0
 20  7  1  1  0  0  0
 21 20  1  0  0  0  0
 21 43  1  0  0  0  0
 22  4  1  0  0  0  0
 23 22  1  0  0  0  0
 23 28  1  0  0  0  0
 24 23  2  0  0  0  0
 25 24  1  0  0  0  0
 25 26  2  0  0  0  0
 26 27  1  0  0  0  0
 27 28  2  0  0  0  0
 27 47  1  0  0  0  0
 28 48  1  0  0  0  0
 31 12  1  0  0  0  0
 32 13  1  0  0  0  0
 36 17  1  0  0  0  0
 41 19  1  0  0  0  0
 42 21  1  0  0  0  0
 44 21  1  0  0  0  0
 45 25  1  0  0  0  0
 46 26  1  0  0  0  0
M  CHG  2   2  -1   4  -1
M  END
