1,2,3,4
q = -2.0, confidence = 0.86

 40 41  0  0  1  0  0  0  0  0999 V2000
   -1.4027    0.9879    0.0745 O   0  5  0  0  0  0  0  0  0  0  0  0
    1.4027    0.9879   -0.0750 O   0  0  0  0  0  1  0  0  0  0  0  0
   -1.3154   -1.9145    0.1263 N   0  0  0  0  0  2  0  0  0  0  0  0
    1.3155   -1.9145   -0.1265 N   0  0  0  0  0  2  0  0  0  0  0  0
   -3.3320   -0.5243    0.0400 C   0  0  0  0  0  0  0  0  0  0  0  0
   -2.6861    0.7756    0.0273 C   0  0  0  0  0  0  0  0  0  0  0  0
   -3.5268    1.9496   -0.0333 C   0  0  0  0  0  0  0  0  0  0  0  0
   -4.9104    1.8060   -0.0801 C   0  0  0  0  0  0  0  0  0  0  0  0
   -5.5300    2.7165   -0.1276 H   0  0  0  0  0  0  0  0  0  0  0  0
   -5.5423    0.5364   -0.0675 C   0  0  0  0  0  0  0  0  0  0  0  0
   -6.6386    0.4625   -0.1040 H   0  0  0  0  0  0  0  0  0  0  0  0
   -4.7582   -0.6023   -0.0061 C   0  0  0  0  0  3  0  0  0  0  0  0
   -5.2264   -1.5998    0.0091 H   0  0  0  0  0  0  0  0  0  0  0  0
   -2.8494    3.2900   -0.0439 C   0  0  0  0  0  0  0  0  0  0  0  0
   -3.5856    4.1146   -0.0995 H   0  0  0  0  0  0  0  0  0  0  0  0
   -2.1486    3.3726   -0.9007 H   0  0  0  0  0  0  0  0  0  0  0  0
   -2.2243    3.4257    0.8633 H   0  0  0  0  0  0  0  0  0  0  0  0
   -2.6160   -1.7615    0.1225 C   0  0  0  0  0  0  0  0  0  0  0  0
   -3.2311   -2.6815    0.1988 H   0  0  0  0  0  0  0  0  0  0  0  0
   -0.6785   -3.2142    0.3530 C   0  0  0  0  0  0  0  0  0  0  0  0
   -1.3200   -4.0469   -0.0079 H   0  0  0  0  0  0  0  0  0  0  0  0
   -0.5254   -3.3485    1.4472 H   0  0  0  0  0  0  0  0  0  0  0  0
    0.6786   -3.2142   -0.3532 C   0  0  0  0  0  0  0  0  0  0  0  0
    1.3201   -4.0468    0.0077 H   0  0  0  0  0  0  0  0  0  0  0  0
    0.5254   -3.3484   -1.4473 H   0  0  0  0  0  0  0  0  0  0  0  0
    3.3320   -0.5242   -0.0397 C   0  0  0  0  0  0  0  0  0  0  0  0
    2.6861    0.7756   -0.0275 C   0  0  1  0  0  3  0  0  0  0  0  0
    3.5267    1.9496    0.0334 C   0  0  0  0  0  0  0  0  0  0  0  0
    4.9104    1.8060    0.0806 C   0  0  0  0  0  0  0  0  0  0  0  0
    5.5299    2.7166    0.1282 H   0  0  0  0  0  0  0  0  0  0  0  0
    5.5422    0.5365    0.0684 C   0  0  0  0  0  0  0  0  0  0  0  0
    6.6385    0.4625    0.1051 H   0  0  0  0  0  0  0  0  0  0  0  0
    4.7582   -0.6023    0.0068 C   0  0  0  0  0  0  0  0  0  0  0  0
    5.2264   -1.5997   -0.0081 H   0  0  0  0  0  0  0  0  0  0  0  0
    2.8494    3.2900    0.0437 C   0  0  0  0  0  0  0  0  0  0  0  0
    3.5855    4.1146    0.0991 H   0  0  0  0  0  0  0  0  0  0  0  0
    2.1486    3.3729    0.9004 H   0  0  0  0  0  0  0  0  0  0  0  0
    2.2243    3.4255   -0.8635 H   0  0  0  0  0  0  0  0  0  0  0  0
    2.6160   -1.7615   -0.1223 C   0  0  0  0  0  0  0  0  0  0  0  0
    3.2312   -2.6815   -0.1982 H   0  0  0  0  0  0  0  0  0  0  0  0
  3 20  1  0  0  0  0
  4 39  1  0  0  0  0
  5 18  2  0  0  0  0
  6  5  1  0  0  0  0
  6  1  1  0  0  0  0
  7  6  2  0  0  0  0
  8 10  2  0  0  0  0
  8  7  1  0  0  0  0
  9  8  1  0  0  0  0
 10 12  1  0  0  0  0
 11 10  1  0  0  0  0
 12 13  1  0  0  0  0
 12  5  1  0  0  0  0
 14  7  1  0  0  0  0
 14 17  1  0  0  0  0
 15 14  1  0  0  0  0
 16 14  1  0  0  0  0
 18  3  1  0  0  0  0
 18 19  1  0  0  0  0
 20 22  1  0  0  0  0
 21 20  1  0  0  0  0
 23  4  1  0  0  0  0
 23 24  1  0  0  0  0
 23 20  1  0  0  0  0
 25 23  1  0  0  0  0
 26 27  1  0  0  0  0
 26 33  1  0  0  0  0
 27  2  1  6  0  0  0
 27 28  1  0  0  0  0
 28 35  1  0  0  0  0
 28 29  2  0  0  0  0
 29 30  1  0  0  0  0
 31 29  1  0  0  0  0
 31 32  1  0  0  0  0
 33 31  2  0  0  0  0
 34 33  1  0  0  0  0
 35 36  1  0  0  0  0
 35 37  1  0  0  0  0
 38 35  1  0  0  0  0
 39 26  2  0  0  0  0
 40 39  1  0  0  0  0
M  CHG  1   1  -1
M  END
