1,2,3,4
q = -2.0, confidence = 0.864

 46 47  0  0  1  0  0  0  0  0999 V2000
   -1.2285   -1.3699    0.0547 O   0  5  0  0  0  0  0  0  0  0  0  0
    1.5559   -1.1834   -0.0953 O   0  0  0  0  0  1  0  0  0  0  0  0
   -1.3494    1.5509   -0.0393 N   0  0  0  0  0  2  0  0  0  0  0  0
    1.2757    1.6959   -0.2957 N   0  0  0  0  0  2  0  0  0  0  0  0
   -3.2563   -0.0016   -0.0202 C   0  0  0  0  0  0  0  0  0  0  0  0
   -2.5238   -1.2525    0.0143 C   0  0  0  0  0  0  0  0  0  0  0  0
   -3.2799   -2.4839    0.0164 C   0  0  0  0  0  0  0  0  0  0  0  0
   -4.6708   -2.4393   -0.0147 C   0  0  0  0  0  0  0  0  0  0  0  0
   -5.2257   -3.3918   -0.0133 H   0  0  0  0  0  0  0  0  0  0  0  0
   -5.3891   -1.2171   -0.0462 C   0  0  0  0  0  0  0  0  0  0  0  0
   -6.4883   -1.2203   -0.0683 H   0  0  0  0  0  0  0  0  0  0  0  0
   -4.6850   -0.0254   -0.0461 C   0  0  0  0  0  3  0  0  0  0  0  0
   -5.2217    0.9369   -0.0669 H   0  0  0  0  0  0  0  0  0  0  0  0
   -2.6323    1.2887   -0.0050 C   0  0  0  0  0  0  0  0  0  0  0  0
   -3.3275    2.1482    0.0464 H   0  0  0  0  0  0  0  0  0  0  0  0
   -0.8045    2.9297    0.1439 C   0  0  0  0  0  0  0  0  0  0  0  0
    0.5543    2.9284   -0.5927 C   0  0  0  0  0  0  0  0  0  0  0  0
    0.3643    2.9748   -1.6883 H   0  0  0  0  0  0  0  0  0  0  0  0
    1.1516    3.8223   -0.3102 H   0  0  0  0  0  0  0  0  0  0  0  0
    2.5830    1.6341   -0.2595 C   0  0  0  0  0  0  0  0  0  0  0  0
    3.1342    2.5904   -0.3708 H   0  0  0  0  0  0  0  0  0  0  0  0
    3.3796    0.4544   -0.1034 C   0  0  0  0  0  0  0  0  0  0  0  0
    2.8213   -0.8839   -0.0398 C   0  0  2  0  0  3  0  0  0  0  0  0
    3.7374   -1.9945    0.0881 C   0  0  0  0  0  0  0  0  0  0  0  0
    5.1073   -1.7557    0.1509 C   0  0  0  0  0  0  0  0  0  0  0  0
    5.7851   -2.6192    0.2508 H   0  0  0  0  0  0  0  0  0  0  0  0
    5.6532   -0.4483    0.0901 C   0  0  0  0  0  0  0  0  0  0  0  0
    6.7412   -0.2988    0.1412 H   0  0  0  0  0  0  0  0  0  0  0  0
    4.7959    0.6310   -0.0375 C   0  0  0  0  0  0  0  0  0  0  0  0
    5.1965    1.6561   -0.0921 H   0  0  0  0  0  0  0  0  0  0  0  0
   -0.5913    3.1614    1.6515 C   0  0  0  0  0  0  0  0  0  0  0  0
   -1.5552    3.0856    2.1922 H   0  0  0  0  0  0  0  0  0  0  0  0
   -0.1643    4.1681    1.8339 H   0  0  0  0  0  0  0  0  0  0  0  0
    0.0977    2.4004    2.0676 H   0  0  0  0  0  0  0  0  0  0  0  0
   -1.7049    4.0173   -0.4548 C   0  0  0  0  0  0  0  0  0  0  0  0
   -1.9618    3.7910   -1.5087 H   0  0  0  0  0  0  0  0  0  0  0  0
   -1.1804    4.9928   -0.4265 H   0  0  0  0  0  0  0  0  0  0  0  0
   -2.6433    4.1410    0.1198 H   0  0  0  0  0  0  0  0  0  0  0  0
   -2.5098   -3.7728    0.0533 C   0  0  0  0  0  0  0  0  0  0  0  0
   -3.1865   -4.6486    0.0473 H   0  0  0  0  0  0  0  0  0  0  0  0
   -1.8634   -3.8229    0.9542 H   0  0  0  0  0  0  0  0  0  0  0  0
   -1.8175   -3.8454   -0.8113 H   0  0  0  0  0  0  0  0  0  0  0  0
    3.1509   -3.3757    0.1500 C   0  0  0  0  0  0  0  0  0  0  0  0
    3.9390   -4.1453    0.2581 H   0  0  0  0  0  0  0  0  0  0  0  0
    2.5558   -3.5951   -0.7610 H   0  0  0  0  0  0  0  0  0  0  0  0
    2.4387   -3.4658    0.9965 H   0  0  0  0  0  0  0  0  0  0  0  0
  3 14  1  0  0  0  0
  3 16  1  0  0  0  0
  4 20  1  0  0  0  0
  5 14  2  0  0  0  0
  5  6  1  0  0  0  0
  6  7  2  0  0  0  0
  6  1  1  0  0  0  0
  7 39  1  0  0  0  0
  8  9  1  0  0  0  0
  8  7  1  0  0  0  0
 10 12  1  0  0  0  0
 10  8  2  0  0  0  0
 11 10  1  0  0  0  0
 12  5  1  0  0  0  0
 13 12  1  0  0  0  0
 14 15  1  0  0  0  0
 16 31  1  0  0  0  0
 17 19  1  0  0  0  0
 17  4  1  0  0  0  0
 17 16  1  0  0  0  0
 18 17  1  0  0  0  0
 20 22  2  0  0  0  0
 21 20  1  0  0  0  0
 22 23  1  0  0  0  0
 22 29  1  0  0  0  0
 23  2  1  6  0  0  0
 23 24  1  0  0  0  0
 24 43  1  0  0  0  0
 24 25  2  0  0  0  0
 25 26  1  0  0  0  0
 27 28  1  0  0  0  0
 27 25  1  0  0  0  0
 29 27  2  0  0  0  0
 30 29  1  0  0  0  0
 31 33  1  0  0  0  0
 31 34  1  0  0  0  0
 31 32  1  0  0  0  0
 35 37  1  0  0  0  0
 35 38  1  0  0  0  0
 35 16  1  0  0  0  0
 36 35  1  0  0  0  0
 39 41  1  0  0  0  0
 40 39  1  0  0  0  0
 42 39  1  0  0  0  0
 43 44  1  0  0  0  0
 43 46  1  0  0  0  0
 45 43  1  0  0  0  0
M  CHG  1   1  -1
M  END
