1,2,3,5
q = -2.0, confidence = 0.866

 48 50  0  0  0  0  0  0  0  0999 V2000
   -1.5187    0.2103    0.3880 O   0  5  0  0  0  0  0  0  0  0  0  0
    1.6671   -1.7006   -0.3239 O   0  5  0  0  0  0  0  0  0  0  0  0
    0.6805    0.8765   -1.0050 N   0  0  0  0  0  0  0  0  0  0  0  0
    1.5822    0.5665   -1.4025 H   0  0  0  0  0  0  0  0  0  0  0  0
    1.0155    0.1969    1.6582 N   0  0  0  0  0  0  0  0  0  0  0  0
    0.3800    0.0644    2.4561 H   0  0  0  0  0  0  0  0  0  0  0  0
   -2.1399    1.1434   -0.3331 C   0  0  0  0  0  0  0  0  0  0  0  0
   -3.3965    1.6275    0.1456 C   0  0  0  0  0  0  0  0  0  0  0  0
   -4.0918    2.5905   -0.5999 C   0  0  0  0  0  0  0  0  0  0  0  0
   -5.0646    2.9482   -0.2253 H   0  0  0  0  0  0  0  0  0  0  0  0
   -3.5726    3.1036   -1.8001 C   0  0  0  0  0  0  0  0  0  0  0  0
   -4.1285    3.8632   -2.3690 H   0  0  0  0  0  0  0  0  0  0  0  0
   -2.3301    2.6466   -2.2536 C   0  0  0  0  0  0  0  0  0  0  0  0
   -1.8994    3.0558   -3.1826 H   0  0  0  0  0  0  0  0  0  0  0  0
   -1.6051    1.6695   -1.5470 C   0  0  0  0  0  0  0  0  0  0  0  0
   -0.2745    1.2025   -2.0906 C   0  0  0  0  0  0  0  0  0  0  0  0
    0.1342    1.9767   -2.7778 H   0  0  0  0  0  0  0  0  0  0  0  0
   -0.3879    0.2676   -2.6771 H   0  0  0  0  0  0  0  0  0  0  0  0
    1.0547    1.5930    1.3055 C   0  0  0  0  0  0  0  0  0  0  0  0
    1.2257    2.5961    2.2737 C   0  0  0  0  0  0  0  0  0  0  0  0
    1.3314    2.3083    3.3314 H   0  0  0  0  0  0  0  0  0  0  0  0
    1.2469    3.9466    1.8999 C   0  0  0  0  0  0  0  0  0  0  0  0
    1.3680    4.7277    2.6650 H   0  0  0  0  0  0  0  0  0  0  0  0
    1.1047    4.2946    0.5482 C   0  0  0  0  0  0  0  0  0  0  0  0
    1.1143    5.3520    0.2450 H   0  0  0  0  0  0  0  0  0  0  0  0
    0.9330    3.2972   -0.4214 C   0  0  0  0  0  0  0  0  0  0  0  0
    0.7982    3.5790   -1.4745 H   0  0  0  0  0  0  0  0  0  0  0  0
    0.9132    1.9412   -0.0532 C   0  0  0  0  0  0  0  0  0  0  0  0
    2.3475   -0.3803    2.0069 C   0  0  0  0  0  0  0  0  0  0  0  0
    2.8080    0.1705    2.8568 H   0  0  0  0  0  0  0  0  0  0  0  0
    2.1443   -1.4229    2.3315 H   0  0  0  0  0  0  0  0  0  0  0  0
    3.2744   -0.3719    0.8223 C   0  0  0  0  0  0  0  0  0  0  0  0
    4.5036    0.3036    0.8085 C   0  0  0  0  0  0  0  0  0  0  0  0
    4.8229    0.8602    1.7043 H   0  0  0  0  0  0  0  0  0  0  0  0
    5.3135    0.2796   -0.3378 C   0  0  0  0  0  0  0  0  0  0  0  0
    6.2757    0.8124   -0.3470 H   0  0  0  0  0  0  0  0  0  0  0  0
    4.8833   -0.4182   -1.4787 C   0  0  0  0  0  0  0  0  0  0  0  0
    5.5146   -0.4290   -2.3821 H   0  0  0  0  0  0  0  0  0  0  0  0
    3.6553   -1.1047   -1.5047 C   0  0  0  0  0  0  0  0  0  0  0  0
    2.8470   -1.0847   -0.3319 C   0  0  0  0  0  0  0  0  0  0  0  0
   -3.9369    1.0719    1.4339 C   0  0  0  0  0  0  0  0  0  0  0  0
   -4.9246    1.5073    1.6790 H   0  0  0  0  0  0  0  0  0  0  0  0
   -3.2463    1.2751    2.2797 H   0  0  0  0  0  0  0  0  0  0  0  0
   -4.0402   -0.0325    1.3835 H   0  0  0  0  0  0  0  0  0  0  0  0
    3.1669   -1.8693   -2.7055 C   0  0  0  0  0  0  0  0  0  0  0  0
    3.2042   -2.9642   -2.5205 H   0  0  0  0  0  0  0  0  0  0  0  0
    3.7747   -1.6506   -3.6044 H   0  0  0  0  0  0  0  0  0  0  0  0
    2.1014   -1.6447   -2.9200 H   0  0  0  0  0  0  0  0  0  0  0  0
  3 28  1  0  0  0  0
  4  3  1  0  0  0  0
  5 29  1  0  0  0  0
  5  6  1  0  0  0  0
  7  8  1  0  0  0  0
  7  1  1  0  0  0  0
  8 41  1  0  0  0  0
  9 10  1  0  0  0  0
  9  8  2  0  0  0  0
 11  9  1  0  0  0  0
 12 11  1  0  0  0  0
 13 11  2  0  0  0  0
 13 15  1  0  0  0  0
 14 13  1  0  0  0  0
 15  7  2  0  0  0  0
 16 15  1  0  0  0  0
 16  3  1  0  0  0  0
 17 16  1  0  0  0  0
 18 16  1  0  0  0  0
 19  5  1  0  0  0  0
 19 20  1  0  0  0  0
 20 21  1  0  0  0  0
 22 20  2  0  0  0  0
 22 23  1  0  0  0  0
 24 22  1  0  0  0  0
 25 24  1  0  0  0  0
 26 28  1  0  0  0  0
 26 24  2  0  0  0  0
 27 26  1  0  0  0  0
 28 19  2  0  0  0  0
 29 31  1  0  0  0  0
 29 30  1  0  0  0  0
 32 29  1  0  0  0  0
 33 32  1  0  0  0  0
 33 34  1  0  0  0  0
 35 33  2  0  0  0  0
 36 35  1  0  0  0  0
 37 35  1  0  0  0  0
 38 37  1  0  0  0  0
 39 37  2  0  0  0  0
 39 40  1  0  0  0  0
 40  2  1  0  0  0  0
 40 32  2  0  0  0  0
 41 42  1  0  0  0  0
 41 43  1  0  0  0  0
 44 41  1  0  0  0  0
 45 46  1  0  0  0  0
 45 39  1  0  0  0  0
 47 45  1  0  0  0  0
 48 45  1  0  0  0  0
M  CHG  2   1  -1   2  -1
M  END
