1,2,25,32
q = -2.0, confidence = 0.82

 53 54  0  0  1  0  0  0  0  0999 V2000
   -1.6845   -1.1188   -0.2036 O   0  5  0  0  0  0  0  0  0  0  0  0
    1.7471   -0.0270    1.0336 O   0  5  0  0  0  0  0  0  0  0  0  0
   -3.0895    0.7511    0.4863 C   0  0  0  0  0  0  0  0  0  0  0  0
   -2.8857   -0.5103   -0.1305 C   0  0  0  0  0  0  0  0  0  0  0  0
   -3.9785   -1.1853   -0.7465 C   0  0  0  0  0  0  0  0  0  0  0  0
   -5.2461   -0.5893   -0.7193 C   0  0  0  0  0  0  0  0  0  0  0  0
   -6.0870   -1.1238   -1.1919 H   0  0  0  0  0  0  0  0  0  0  0  0
   -5.4776    0.6644   -0.1157 C   0  0  0  0  0  0  0  0  0  0  0  0
   -4.3798    1.3151    0.4685 C   0  0  0  0  0  0  0  0  0  0  0  0
   -4.5268    2.3030    0.9367 H   0  0  0  0  0  0  0  0  0  0  0  0
   -1.9704    1.5006    1.1750 C   0  0  0  0  0  0  0  0  0  0  0  0
   -2.2555    2.5733    1.2575 H   0  0  0  0  0  0  0  0  0  0  0  0
   -1.8233    1.1153    2.2048 H   0  0  0  0  0  0  0  0  0  0  0  0
    3.1058   -0.2950   -0.9759 C   0  0  0  0  0  0  0  0  0  0  0  0
    2.9358    0.0207    0.3964 C   0  0  0  0  0  0  0  0  0  0  0  0
    4.0517    0.4506    1.1711 C   0  0  0  0  0  0  0  0  0  0  0  0
    5.3087    0.5385    0.5599 C   0  0  0  0  0  0  0  0  0  0  0  0
    6.1674    0.8634    1.1706 H   0  0  0  0  0  0  0  0  0  0  0  0
    5.5075    0.2305   -0.8024 C   0  0  0  0  0  0  0  0  0  0  0  0
    4.3880   -0.1716   -1.5463 C   0  0  0  0  0  0  0  0  0  0  0  0
    4.5102   -0.4046   -2.6175 H   0  0  0  0  0  0  0  0  0  0  0  0
    1.9663   -0.7784   -1.8480 C   0  0  0  0  0  0  0  0  0  0  0  0
    2.2070   -0.5452   -2.9109 H   0  0  0  0  0  0  0  0  0  0  0  0
    1.8541   -1.8787   -1.7592 H   0  0  0  0  0  0  0  0  0  0  0  0
   -0.6701    1.3400    0.4881 N   0  0  0  0  0  0  0  0  0  0  0  0
    0.0686    1.8084    1.0337 H   0  0  0  0  0  0  0  0  0  0  0  0
   -0.6397    1.8337   -0.9080 C   0  0  2  0  0  0  0  0  0  0  0  0
   -1.5456    1.4110   -1.3941 H   0  0  0  0  0  0  0  0  0  0  0  0
    0.5980    1.2640   -1.6032 C   0  0  0  0  0  0  0  0  0  0  0  0
    0.6092    1.5809   -2.6711 H   0  0  0  0  0  0  0  0  0  0  0  0
    1.5163    1.6816   -1.1390 H   0  0  0  0  0  0  0  0  0  0  0  0
    0.6625   -0.1964   -1.4691 N   0  0  0  0  0  0  0  0  0  0  0  0
   -0.0860   -0.6348   -2.0232 H   0  0  0  0  0  0  0  0  0  0  0  0
   -3.7303   -2.5202   -1.3928 C   0  0  0  0  0  0  0  0  0  0  0  0
   -4.6627   -2.9480   -1.8076 H   0  0  0  0  0  0  0  0  0  0  0  0
   -3.2988   -3.2392   -0.6661 H   0  0  0  0  0  0  0  0  0  0  0  0
   -2.9855   -2.4392   -2.2127 H   0  0  0  0  0  0  0  0  0  0  0  0
   -6.8583    1.2714   -0.0973 C   0  0  0  0  0  0  0  0  0  0  0  0
   -7.5452    0.6946    0.5584 H   0  0  0  0  0  0  0  0  0  0  0  0
   -7.3152    1.2797   -1.1086 H   0  0  0  0  0  0  0  0  0  0  0  0
   -6.8412    2.3139    0.2763 H   0  0  0  0  0  0  0  0  0  0  0  0
    3.8370    0.7813    2.6223 C   0  0  0  0  0  0  0  0  0  0  0  0
    4.7843    1.0726    3.1145 H   0  0  0  0  0  0  0  0  0  0  0  0
    3.4014   -0.0822    3.1661 H   0  0  0  0  0  0  0  0  0  0  0  0
    3.1083    1.6106    2.7431 H   0  0  0  0  0  0  0  0  0  0  0  0
    6.8778    0.3280   -1.4254 C   0  0  0  0  0  0  0  0  0  0  0  0
    7.3466    1.3150   -1.2303 H   0  0  0  0  0  0  0  0  0  0  0  0
    6.8391    0.1817   -2.5225 H   0  0  0  0  0  0  0  0  0  0  0  0
    7.5661   -0.4394   -1.0112 H   0  0  0  0  0  0  0  0  0  0  0  0
   -0.6896    3.3585   -1.0167 C   0  0  0  0  0  0  0  0  0  0  0  0
   -1.6083    3.7684   -0.5545 H   0  0  0  0  0  0  0  0  0  0  0  0
   -0.6836    3.6776   -2.0779 H   0  0  0  0  0  0  0  0  0  0  0  0
    0.1889    3.8215   -0.5194 H   0  0  0  0  0  0  0  0  0  0  0  0
  1  4  1  0  0  0  0
  3 11  1  0  0  0  0
  4  3  2  0  0  0  0
  5  6  2  0  0  0  0
  5  4  1  0  0  0  0
  6  8  1  0  0  0  0
  7  6  1  0  0  0  0
  8 38  1  0  0  0  0
  8  9  2  0  0  0  0
  9  3  1  0  0  0  0
  9 10  1  0  0  0  0
 11 12  1  0  0  0  0
 11 13  1  0  0  0  0
 14 15  1  0  0  0  0
 15  2  1  0  0  0  0
 15 16  2  0  0  0  0
 16 42  1  0  0  0  0
 17 18  1  0  0  0  0
 17 16  1  0  0  0  0
 19 17  2  0  0  0  0
 20 14  2  0  0  0  0
 20 19  1  0  0  0  0
 21 20  1  0  0  0  0
 22 24  1  0  0  0  0
 22 32  1  0  0  0  0
 22 14  1  0  0  0  0
 23 22  1  0  0  0  0
 25 26  1  0  0  0  0
 25 11  1  0  0  0  0
 27 28  1  6  0  0  0
 27 25  1  0  0  0  0
 29 32  1  0  0  0  0
 29 31  1  0  0  0  0
 29 27  1  0  0  0  0
 30 29  1  0  0  0  0
 33 32  1  0  0  0  0
 34  5  1  0  0  0  0
 34 36  1  0  0  0  0
 35 34  1  0  0  0  0
 37 34  1  0  0  0  0
 38 41  1  0  0  0  0
 38 39  1  0  0  0  0
 40 38  1  0  0  0  0
 42 45  1  0  0  0  0
 42 43  1  0  0  0  0
 42 44  1  0  0  0  0
 46 47  1  0  0  0  0
 46 49  1  0  0  0  0
 46 19  1  0  0  0  0
 48 46  1  0  0  0  0
 50 27  1  0  0  0  0
 50 51  1  0  0  0  0
 50 53  1  0  0  0  0
 52 50  1  0  0  0  0
M  CHG  2   1  -1   2  -1
M  END
