1,2,5,6
q = -2.0, confidence = 0.85

 53 55  0  0  1  0  0  0  0  0999 V2000
   -1.0511   -0.3519   -0.1730 O   0  0  0  0  0  1  0  0  0  0  0  0
    0.6820    1.3913   -0.0968 O   0  0  0  0  0  1  0  0  0  0  0  0
   -7.3287    0.3447   -0.2197 O   0  0  0  0  0  0  0  0  0  0  0  0
    2.0716    5.9504    0.1547 O   0  0  0  0  0  0  0  0  0  0  0  0
    0.8429   -2.3302    0.1225 N   0  0  0  0  0  2  0  0  0  0  0  0
    2.6417   -0.5261   -0.0316 N   0  0  0  0  0  2  0  0  0  0  0  0
   -7.6807    1.6999   -0.4290 C   0  0  0  0  0  0  0  0  0  0  0  0
   -7.2757    2.0898   -1.3896 H   0  0  0  0  0  0  0  0  0  0  0  0
   -7.3245    2.3533    0.3987 H   0  0  0  0  0  0  0  0  0  0  0  0
   -8.7853    1.7344   -0.4640 H   0  0  0  0  0  0  0  0  0  0  0  0
   -6.0116    0.0218   -0.1395 C   0  0  0  0  0  0  0  0  0  0  0  0
   -5.7207   -1.3472    0.0601 C   0  0  0  0  0  0  0  0  0  0  0  0
   -6.5610   -2.0531    0.1275 H   0  0  0  0  0  0  0  0  0  0  0  0
   -4.3996   -1.7782    0.1573 C   0  0  0  0  0  0  0  0  0  0  0  0
   -4.2016   -2.8515    0.2900 H   0  0  0  0  0  0  0  0  0  0  0  0
   -3.3242   -0.8622    0.0613 C   0  0  0  0  0  0  0  0  0  0  0  0
   -3.6290    0.5002   -0.1467 C   0  0  0  0  0  0  0  0  0  0  0  0
   -2.7885    1.2049   -0.2271 H   0  0  0  0  0  0  0  0  0  0  0  0
   -4.9508    0.9477   -0.2448 C   0  0  0  0  0  0  0  0  0  0  0  0
   -5.1472    2.0168   -0.4012 H   0  0  0  0  0  0  0  0  0  0  0  0
   -1.8969   -1.2618    0.1574 C   0  0  2  0  0  3  0  0  0  0  0  0
   -1.5150   -2.5438    0.6141 C   0  0  0  0  0  0  0  0  0  0  0  0
   -2.2910   -3.2052    1.0169 H   0  0  0  0  0  0  0  0  0  0  0  0
   -0.2019   -3.0495    0.5923 C   0  0  0  0  0  0  0  0  0  0  0  0
   -0.0197   -4.4375    1.1731 C   0  0  0  0  0  0  0  0  0  0  0  0
   -0.1167   -5.2311    0.4037 H   0  0  0  0  0  0  0  0  0  0  0  0
   -0.8092   -4.6199    1.9258 H   0  0  0  0  0  0  0  0  0  0  0  0
    0.9678   -4.5566    1.6573 H   0  0  0  0  0  0  0  0  0  0  0  0
    2.1258   -2.8375   -0.1328 C   0  0  0  0  0  0  0  0  0  0  0  0
    2.4875   -4.1747   -0.4170 C   0  0  0  0  0  0  0  0  0  0  0  0
    1.7220   -4.9532   -0.4945 H   0  0  0  0  0  0  0  0  0  0  0  0
    3.8261   -4.5129   -0.6561 C   0  0  0  0  0  0  0  0  0  0  0  0
    4.0847   -5.5579   -0.8830 H   0  0  0  0  0  0  0  0  0  0  0  0
    4.8272   -3.5273   -0.6353 C   0  0  0  0  0  0  0  0  0  0  0  0
    5.8756   -3.7950   -0.8326 H   0  0  0  0  0  0  0  0  0  0  0  0
    4.4821   -2.1884   -0.4119 C   0  0  0  0  0  0  0  0  0  0  0  0
    5.2615   -1.4153   -0.4601 H   0  0  0  0  0  0  0  0  0  0  0  0
    3.1403   -1.8357   -0.1777 C   0  0  0  0  0  0  0  0  0  0  0  0
    3.4435    0.5244    0.0880 C   0  0  0  0  0  0  0  0  0  0  0  0
    4.5308    0.3348    0.1459 H   0  0  0  0  0  0  0  0  0  0  0  0
    3.0390    1.8785    0.1366 C   0  0  0  0  0  0  0  0  0  0  0  0
    1.6430    2.2509    0.0113 C   0  0  1  0  0  3  0  0  0  0  0  0
    1.3149    3.6423    0.0049 C   0  0  0  0  0  0  0  0  0  0  0  0
    0.2517    3.8909   -0.0990 H   0  0  0  0  0  0  0  0  0  0  0  0
    2.3066    4.6138    0.1403 C   0  0  0  0  0  0  0  0  0  0  0  0
    3.6817    4.2449    0.2773 C   0  0  0  0  0  0  0  0  0  0  0  0
    4.4303    5.0420    0.3795 H   0  0  0  0  0  0  0  0  0  0  0  0
    4.0218    2.9087    0.2705 C   0  0  0  0  0  0  0  0  0  0  0  0
    5.0787    2.6130    0.3671 H   0  0  0  0  0  0  0  0  0  0  0  0
    0.7355    6.4002    0.0172 C   0  0  0  0  0  0  0  0  0  0  0  0
    0.7719    7.5047    0.0513 H   0  0  0  0  0  0  0  0  0  0  0  0
    0.0900    6.0297    0.8442 H   0  0  0  0  0  0  0  0  0  0  0  0
    0.2912    6.0782   -0.9507 H   0  0  0  0  0  0  0  0  0  0  0  0
  3 11  1  0  0  0  0
  5 24  1  0  0  0  0
  6 39  1  0  0  0  0
  7  3  1  0  0  0  0
  7  9  1  0  0  0  0
  8  7  1  0  0  0  0
 10  7  1  0  0  0  0
 11 12  1  0  0  0  0
 12 13  1  0  0  0  0
 12 14  2  0  0  0  0
 14 15  1  0  0  0  0
 16 14  1  0  0  0  0
 16 21  1  0  0  0  0
 17 16  2  0  0  0  0
 18 17  1  0  0  0  0
 19 17  1  0  0  0  0
 19 11  2  0  0  0  0
 20 19  1  0  0  0  0
 21  1  1  1  0  0  0
 21 22  1  0  0  0  0
 22 23  1  0  0  0  0
 24 22  2  0  0  0  0
 24 25  1  0  0  0  0
 25 28  1  0  0  0  0
 25 27  1  0  0  0  0
 26 25  1  0  0  0  0
 29  5  1  0  0  0  0
 30 29  2  0  0  0  0
 31 30  1  0  0  0  0
 32 34  2  0  0  0  0
 32 30  1  0  0  0  0
 33 32  1  0  0  0  0
 34 36  1  0  0  0  0
 35 34  1  0  0  0  0
 36 38  2  0  0  0  0
 37 36  1  0  0  0  0
 38 29  1  0  0  0  0
 38  6  1  0  0  0  0
 39 41  2  0  0  0  0
 39 40  1  0  0  0  0
 41 48  1  0  0  0  0
 42  2  1  6  0  0  0
 42 41  1  0  0  0  0
 43 42  1  0  0  0  0
 43 45  2  0  0  0  0
 44 43  1  0  0  0  0
 45  4  1  0  0  0  0
 45 46  1  0  0  0  0
 46 47  1  0  0  0  0
 48 46  2  0  0  0  0
 48 49  1  0  0  0  0
 50 51  1  0  0  0  0
 50  4  1  0  0  0  0
 50 52  1  0  0  0  0
 53 50  1  0  0  0  0
M  END
