1,2,3,4
q = -2.0, confidence = 0.842

 55 57  0  0  0  0  0  0  0  0999 V2000
    1.0181   -2.0414   -0.7965 N   0  0  0  0  0  2  0  0  0  0  0  0
    2.3547    0.2707   -0.0811 N   0  0  0  0  0  2  0  0  0  0  0  0
   -1.2609   -0.7172   -0.0908 O   0  5  0  0  0  0  0  0  0  0  0  0
   -0.0946    1.4443   -0.1170 O   0  5  0  0  0  0  0  0  0  0  0  0
   -3.8550   -0.7373    0.3679 O   0  0  0  0  0  0  0  0  0  0  0  0
   -1.5965    3.7952   -0.2546 O   0  0  0  0  0  0  0  0  0  0  0  0
    4.3025   -2.8715    0.3502 C   0  0  0  0  0  0  0  0  0  0  0  0
    4.3436   -3.8783   -0.0946 H   0  0  0  0  0  0  0  0  0  0  0  0
   -1.8520   -1.8641   -0.1907 C   0  0  0  0  0  0  0  0  0  0  0  0
   -2.2182    3.0008    0.7782 C   0  0  0  0  0  0  0  0  0  0  0  0
   -1.5325    2.9257    1.6504 H   0  0  0  0  0  0  0  0  0  0  0  0
   -2.3962    1.9684    0.4134 H   0  0  0  0  0  0  0  0  0  0  0  0
    0.3909    4.9853   -0.7050 C   0  0  0  0  0  0  0  0  0  0  0  0
   -0.2422    5.8819   -0.7823 H   0  0  0  0  0  0  0  0  0  0  0  0
    3.3047   -0.6539    0.4261 C   0  0  0  0  0  0  0  0  0  0  0  0
    0.2004   -3.0723   -0.8526 C   0  0  0  0  0  0  0  0  0  0  0  0
    0.6323   -4.0313   -1.2019 H   0  0  0  0  0  0  0  0  0  0  0  0
   -0.2471    3.7850   -0.3938 C   0  0  0  0  0  0  0  0  0  0  0  0
    1.7929    5.0623   -0.9093 C   0  0  0  0  0  0  0  0  0  0  0  0
    2.2546    6.0313   -1.1479 H   0  0  0  0  0  0  0  0  0  0  0  0
    3.3669   -1.9492   -0.1371 C   0  0  0  0  0  0  0  0  0  0  0  0
    1.9557    2.6671   -0.4786 C   0  0  0  0  0  0  0  0  0  0  0  0
    0.5246    2.5607   -0.3233 C   0  0  0  0  0  0  0  0  0  0  0  0
    2.5687    3.9241   -0.7762 C   0  0  0  0  0  3  0  0  0  0  0  0
    3.6623    3.9654   -0.8968 H   0  0  0  0  0  0  0  0  0  0  0  0
   -3.2809   -1.9278    0.0516 C   0  0  0  0  0  0  0  0  0  0  0  0
    2.7639    1.5242   -0.2509 C   0  0  0  0  0  0  0  0  0  0  0  0
    3.8557    1.6953   -0.1836 H   0  0  0  0  0  0  0  0  0  0  0  0
    2.4012   -2.2652   -1.2425 C   0  0  0  0  0  0  0  0  0  0  0  0
    2.5944   -1.6029   -2.1153 H   0  0  0  0  0  0  0  0  0  0  0  0
    2.5311   -3.3135   -1.5824 H   0  0  0  0  0  0  0  0  0  0  0  0
   -3.5042    3.7082    1.1642 C   0  0  0  0  0  0  0  0  0  0  0  0
   -3.2994    4.7325    1.5349 H   0  0  0  0  0  0  0  0  0  0  0  0
   -4.0284    3.1443    1.9608 H   0  0  0  0  0  0  0  0  0  0  0  0
   -4.1857    3.7879    0.2933 H   0  0  0  0  0  0  0  0  0  0  0  0
   -1.1901   -3.0890   -0.5429 C   0  0  0  0  0  0  0  0  0  0  0  0
    5.1845   -2.5220    1.3860 C   0  0  0  0  0  0  0  0  0  0  0  0
    5.9142   -3.2552    1.7599 H   0  0  0  0  0  0  0  0  0  0  0  0
   -3.9574   -3.1443   -0.0438 C   0  0  0  0  0  0  0  0  0  0  0  0
   -5.0386   -3.1854    0.1448 H   0  0  0  0  0  0  0  0  0  0  0  0
   -3.2756   -4.3433   -0.3860 C   0  0  0  0  0  0  0  0  0  0  0  0
   -3.8408   -5.2840   -0.4542 H   0  0  0  0  0  0  0  0  0  0  0  0
    5.1153   -1.2395    1.9507 C   0  0  0  0  0  0  0  0  0  0  0  0
    5.7866   -0.9614    2.7772 H   0  0  0  0  0  0  0  0  0  0  0  0
    4.1760   -0.3106    1.4814 C   0  0  0  0  0  0  0  0  0  0  0  0
    4.0906    0.6807    1.9505 H   0  0  0  0  0  0  0  0  0  0  0  0
   -1.9162   -4.3162   -0.6358 C   0  0  0  0  0  3  0  0  0  0  0  0
   -1.3737   -5.2340   -0.9111 H   0  0  0  0  0  0  0  0  0  0  0  0
   -5.2609   -0.7111    0.5790 C   0  0  0  0  0  0  0  0  0  0  0  0
   -5.5343   -1.4025    1.4115 H   0  0  0  0  0  0  0  0  0  0  0  0
   -5.7874   -1.0776   -0.3343 H   0  0  0  0  0  0  0  0  0  0  0  0
   -5.6676    0.7119    0.9059 C   0  0  0  0  0  0  0  0  0  0  0  0
   -5.1633    1.0605    1.8280 H   0  0  0  0  0  0  0  0  0  0  0  0
   -6.7628    0.7714    1.0617 H   0  0  0  0  0  0  0  0  0  0  0  0
   -5.3910    1.3993    0.0829 H   0  0  0  0  0  0  0  0  0  0  0  0
  2 15  1  0  0  0  0
  5 49  1  0  0  0  0
  6 10  1  0  0  0  0
  7 37  1  0  0  0  0
  8  7  1  0  0  0  0
  9  3  1  0  0  0  0
  9 26  2  0  0  0  0
 10 32  1  0  0  0  0
 10 11  1  0  0  0  0
 12 10  1  0  0  0  0
 13 18  1  0  0  0  0
 14 13  1  0  0  0  0
 15 45  2  0  0  0  0
 16  1  1  0  0  0  0
 16 36  2  0  0  0  0
 17 16  1  0  0  0  0
 18 23  2  0  0  0  0
 18  6  1  0  0  0  0
 19 24  1  0  0  0  0
 19 13  2  0  0  0  0
 20 19  1  0  0  0  0
 21  7  2  0  0  0  0
 21 15  1  0  0  0  0
 22 23  1  0  0  0  0
 22 27  2  0  0  0  0
 23  4  1  0  0  0  0
 24 22  1  0  0  0  0
 25 24  1  0  0  0  0
 26  5  1  0  0  0  0
 27 28  1  0  0  0  0
 27  2  1  0  0  0  0
 29  1  1  0  0  0  0
 29 21  1  0  0  0  0
 30 29  1  0  0  0  0
 31 29  1  0  0  0  0
 32 33  1  0  0  0  0
 32 34  1  0  0  0  0
 35 32  1  0  0  0  0
 36  9  1  0  0  0  0
 37 38  1  0  0  0  0
 37 43  2  0  0  0  0
 39 26  1  0  0  0  0
 39 40  1  0  0  0  0
 41 39  2  0  0  0  0
 42 41  1  0  0  0  0
 43 44  1  0  0  0  0
 45 46  1  0  0  0  0
 45 43  1  0  0  0  0
 47 36  1  0  0  0  0
 47 41  1  0  0  0  0
 48 47  1  0  0  0  0
 49 52  1  0  0  0  0
 49 50  1  0  0  0  0
 51 49  1  0  0  0  0
 52 54  1  0  0  0  0
 52 53  1  0  0  0  0
 55 52  1  0  0  0  0
M  CHG  2   3  -1   4  -1
M  END
