1,2,3,4
q = -2.0, confidence = 0.89

 56 58  0  0  1  0  0  0  0  0999 V2000
   -0.8347    1.3817   -0.5215 N   0  0  0  0  0  2  0  0  0  0  0  0
    1.5709    1.2469    0.2927 N   0  0  0  0  0  2  0  0  0  0  0  0
   -1.4448   -0.9261    0.9494 O   0  5  0  0  0  0  0  0  0  0  0  0
    0.5846   -1.0274   -0.7289 O   0  5  0  0  0  0  0  0  0  0  0  0
   -0.0012    2.5276   -0.9122 C   0  0  2  0  0  0  0  0  0  0  0  0
    0.4958    2.2690   -1.8790 H   0  0  0  0  0  0  0  0  0  0  0  0
    1.1287    2.6247    0.1448 C   0  0  2  0  0  0  0  0  0  0  0  0
    0.6495    2.9109    1.1069 H   0  0  0  0  0  0  0  0  0  0  0  0
    2.1582    3.6823   -0.2437 C   0  0  0  0  0  0  0  0  0  0  0  0
    2.6414    3.4041   -1.2065 H   0  0  0  0  0  0  0  0  0  0  0  0
    2.9609    3.7348    0.5211 H   0  0  0  0  0  0  0  0  0  0  0  0
    1.4576    5.0418   -0.3917 C   0  0  0  0  0  0  0  0  0  0  0  0
    1.0613    5.3557    0.5990 H   0  0  0  0  0  0  0  0  0  0  0  0
    2.1910    5.8168   -0.6950 H   0  0  0  0  0  0  0  0  0  0  0  0
    0.3045    4.9770   -1.4027 C   0  0  0  0  0  0  0  0  0  0  0  0
    0.7204    4.7827   -2.4163 H   0  0  0  0  0  0  0  0  0  0  0  0
   -0.2109    5.9575   -1.4617 H   0  0  0  0  0  0  0  0  0  0  0  0
   -0.7123    3.8761   -1.0608 C   0  0  0  0  0  0  0  0  0  0  0  0
   -1.2345    4.1089   -0.1073 H   0  0  0  0  0  0  0  0  0  0  0  0
   -1.4893    3.8278   -1.8507 H   0  0  0  0  0  0  0  0  0  0  0  0
   -2.0513    1.2125   -0.9721 C   0  0  0  0  0  3  0  0  0  0  0  0
   -2.4609    1.9846   -1.6525 H   0  0  0  0  0  0  0  0  0  0  0  0
   -2.9242    0.1221   -0.6673 C   0  0  0  0  0  0  0  0  0  0  0  0
   -2.5624   -0.8917    0.2932 C   0  0  0  0  0  0  0  0  0  0  0  0
   -3.5214   -1.9369    0.5619 C   0  0  0  0  0  0  0  0  0  0  0  0
   -4.7412   -1.9355   -0.1052 C   0  0  0  0  0  0  0  0  0  0  0  0
   -5.4533   -2.7504    0.1116 H   0  0  0  0  0  0  0  0  0  0  0  0
   -5.1151   -0.9385   -1.0530 C   0  0  0  0  0  0  0  0  0  0  0  0
   -4.1974    0.0717   -1.3092 C   0  0  0  0  0  0  0  0  0  0  0  0
   -4.4465    0.8648   -2.0344 H   0  0  0  0  0  0  0  0  0  0  0  0
   -3.1350   -2.9942    1.5559 C   0  0  0  0  0  0  0  0  0  0  0  0
   -3.9327   -3.7520    1.6765 H   0  0  0  0  0  0  0  0  0  0  0  0
   -2.9131   -2.5451    2.5467 H   0  0  0  0  0  0  0  0  0  0  0  0
   -2.1973   -3.5018    1.2455 H   0  0  0  0  0  0  0  0  0  0  0  0
   -6.4575   -1.0018   -1.7364 C   0  0  0  0  0  0  0  0  0  0  0  0
   -6.6001   -0.1523   -2.4328 H   0  0  0  0  0  0  0  0  0  0  0  0
   -7.2917   -0.9794   -1.0030 H   0  0  0  0  0  0  0  0  0  0  0  0
   -6.5748   -1.9389   -2.3217 H   0  0  0  0  0  0  0  0  0  0  0  0
    2.7288    0.7808   -0.0916 C   0  0  0  0  0  3  0  0  0  0  0  0
    3.5605    1.4929   -0.2604 H   0  0  0  0  0  0  0  0  0  0  0  0
    2.9569   -0.6043   -0.3889 C   0  0  0  0  0  0  0  0  0  0  0  0
    1.8276   -1.4307   -0.7402 C   0  0  0  0  0  0  0  0  0  0  0  0
    2.0879   -2.7690   -1.2002 C   0  0  0  0  0  0  0  0  0  0  0  0
    3.4047   -3.2170   -1.2780 C   0  0  0  0  0  0  0  0  0  0  0  0
    3.5810   -4.2531   -1.6147 H   0  0  0  0  0  0  0  0  0  0  0  0
    4.5286   -2.4109   -0.9408 C   0  0  0  0  0  0  0  0  0  0  0  0
    4.2794   -1.1095   -0.5146 C   0  0  0  0  0  0  0  0  0  0  0  0
    5.1220   -0.4466   -0.2563 H   0  0  0  0  0  0  0  0  0  0  0  0
    0.9068   -3.6253   -1.5576 C   0  0  0  0  0  0  0  0  0  0  0  0
    1.2133   -4.6581   -1.8113 H   0  0  0  0  0  0  0  0  0  0  0  0
    0.3490   -3.1982   -2.4174 H   0  0  0  0  0  0  0  0  0  0  0  0
    0.1813   -3.6518   -0.7179 H   0  0  0  0  0  0  0  0  0  0  0  0
    5.9254   -2.9684   -1.0467 C   0  0  0  0  0  0  0  0  0  0  0  0
    6.6883   -2.2066   -0.7927 H   0  0  0  0  0  0  0  0  0  0  0  0
    6.1427   -3.3358   -2.0721 H   0  0  0  0  0  0  0  0  0  0  0  0
    6.0729   -3.8312   -0.3623 H   0  0  0  0  0  0  0  0  0  0  0  0
  5  6  1  6  0  0  0
  5  1  1  0  0  0  0
  5  7  1  0  0  0  0
  7  2  1  0  0  0  0
  7  8  1  1  0  0  0
  9  7  1  0  0  0  0
  9 11  1  0  0  0  0
 10  9  1  0  0  0  0
 12  9  1  0  0  0  0
 12 13  1  0  0  0  0
 14 12  1  0  0  0  0
 15 18  1  0  0  0  0
 15 12  1  0  0  0  0
 16 15  1  0  0  0  0
 17 15  1  0  0  0  0
 18  5  1  0  0  0  0
 18 19  1  0  0  0  0
 20 18  1  0  0  0  0
 21 23  1  0  0  0  0
 21  1  1  0  0  0  0
 22 21  1  0  0  0  0
 23 24  1  0  0  0  0
 24 25  2  0  0  0  0
 24  3  1  0  0  0  0
 25 31  1  0  0  0  0
 26 27  1  0  0  0  0
 26 25  1  0  0  0  0
 28 26  2  0  0  0  0
 29 28  1  0  0  0  0
 29 23  2  0  0  0  0
 30 29  1  0  0  0  0
 31 32  1  0  0  0  0
 31 33  1  0  0  0  0
 34 31  1  0  0  0  0
 35 28  1  0  0  0  0
 35 37  1  0  0  0  0
 36 35  1  0  0  0  0
 38 35  1  0  0  0  0
 39  2  1  0  0  0  0
 40 39  1  0  0  0  0
 41 39  1  0  0  0  0
 42  4  1  0  0  0  0
 42 41  2  0  0  0  0
 43 42  1  0  0  0  0
 44 43  2  0  0  0  0
 44 46  1  0  0  0  0
 45 44  1  0  0  0  0
 46 47  2  0  0  0  0
 47 41  1  0  0  0  0
 47 48  1  0  0  0  0
 49 43  1  0  0  0  0
 49 52  1  0  0  0  0
 50 49  1  0  0  0  0
 51 49  1  0  0  0  0
 53 46  1  0  0  0  0
 53 54  1  0  0  0  0
 53 56  1  0  0  0  0
 55 53  1  0  0  0  0
M  CHG  2   3  -1   4  -1
M  END
