1,2,5,6
q = -2.0, confidence = 0.808

 48 48  0  0  1  0  0  0  0  0999 V2000
    0.5892    1.6194   -0.0935 O   0  5  0  0  0  0  0  0  0  0  0  0
   -1.7513    0.6596    0.0221 O   0  0  0  0  0  1  0  0  0  0  0  0
    2.0719    3.2872    0.1244 O   0  0  0  0  0  0  0  0  0  0  0  0
   -3.9837    0.8646    0.0450 O   0  0  0  0  0  0  0  0  0  0  0  0
    1.5948   -0.8957   -0.5193 N   0  0  0  0  0  2  0  0  0  0  0  0
   -0.7370   -1.8484   -0.2376 N   0  0  0  0  0  2  0  0  0  0  0  0
    5.3532    2.0778   -0.2105 N   0  0  0  0  0  0  0  0  0  0  0  0
   -5.5240   -2.2793   -0.2417 N   0  0  0  0  0  0  0  0  0  0  0  0
    2.7443   -0.2478   -0.5138 C   0  0  0  0  0  3  0  0  0  0  0  0
    3.6610   -0.8247   -0.7285 H   0  0  0  0  0  0  0  0  0  0  0  0
    2.9300    1.1347   -0.2632 C   0  0  0  0  0  0  0  0  0  0  0  0
    1.8011    1.9935   -0.0742 C   0  0  0  0  0  0  0  0  0  0  0  0
   -2.8893    0.1009   -0.0320 C   0  0  2  0  0  3  0  0  0  0  0  0
   -3.1132   -1.3078   -0.1603 C   0  0  0  0  0  0  0  0  0  0  0  0
   -2.0109   -2.1953   -0.2164 C   0  0  0  0  0  0  0  0  0  0  0  0
   -2.2404   -3.2778   -0.2436 H   0  0  0  0  0  0  0  0  0  0  0  0
    0.3085   -2.8707   -0.1428 C   0  0  2  0  0  0  0  0  0  0  0  0
   -0.0428   -3.8119   -0.6228 H   0  0  0  0  0  0  0  0  0  0  0  0
    0.6762   -3.1554    1.3245 C   0  0  0  0  0  0  0  0  0  0  0  0
    0.8735   -2.1797    1.8191 H   0  0  0  0  0  0  0  0  0  0  0  0
   -0.2030   -3.5989    1.8358 H   0  0  0  0  0  0  0  0  0  0  0  0
    1.9084   -4.0578    1.4415 C   0  0  0  0  0  0  0  0  0  0  0  0
    1.6824   -5.0582    1.0082 H   0  0  0  0  0  0  0  0  0  0  0  0
    2.1511   -4.2294    2.5100 H   0  0  0  0  0  0  0  0  0  0  0  0
    3.1067   -3.4450    0.7069 C   0  0  0  0  0  0  0  0  0  0  0  0
    3.4021   -2.4991    1.2105 H   0  0  0  0  0  0  0  0  0  0  0  0
    3.9874   -4.1167    0.7644 H   0  0  0  0  0  0  0  0  0  0  0  0
    2.7591   -3.1720   -0.7613 C   0  0  0  0  0  0  0  0  0  0  0  0
    2.5547   -4.1365   -1.2744 H   0  0  0  0  0  0  0  0  0  0  0  0
    3.6152   -2.7296   -1.3110 H   0  0  0  0  0  0  0  0  0  0  0  0
    1.4989   -2.3129   -0.9361 C   0  0  2  0  0  0  0  0  0  0  0  0
    1.2122   -2.3119   -2.0125 H   0  0  0  0  0  0  0  0  0  0  0  0
    4.2511    1.6669   -0.2316 C   0  0  0  0  0  0  0  0  0  0  0  0
    0.9521    4.1824    0.3101 C   0  0  0  0  0  0  0  0  0  0  0  0
    0.3033    4.1342   -0.5901 H   0  0  0  0  0  0  0  0  0  0  0  0
    0.3436    3.8217    1.1662 H   0  0  0  0  0  0  0  0  0  0  0  0
    1.5125    5.5693    0.5427 C   0  0  0  0  0  0  0  0  0  0  0  0
    0.6839    6.2900    0.6885 H   0  0  0  0  0  0  0  0  0  0  0  0
    2.1175    5.9030   -0.3230 H   0  0  0  0  0  0  0  0  0  0  0  0
    2.1567    5.5908    1.4434 H   0  0  0  0  0  0  0  0  0  0  0  0
   -3.7939    2.2914    0.1782 C   0  0  0  0  0  0  0  0  0  0  0  0
   -3.2145    2.4897    1.1049 H   0  0  0  0  0  0  0  0  0  0  0  0
   -3.1762    2.6513   -0.6716 H   0  0  0  0  0  0  0  0  0  0  0  0
   -5.1653    2.9316    0.2082 C   0  0  0  0  0  0  0  0  0  0  0  0
   -5.0654    4.0300    0.3119 H   0  0  0  0  0  0  0  0  0  0  0  0
   -5.7614    2.5530    1.0615 H   0  0  0  0  0  0  0  0  0  0  0  0
   -5.7230    2.7181   -0.7247 H   0  0  0  0  0  0  0  0  0  0  0  0
   -4.4394   -1.8253   -0.2046 C   0  0  0  0  0  0  0  0  0  0  0  0
  1 12  1  0  0  0  0
  3 34  1  0  0  0  0
  4 41  1  0  0  0  0
  5  9  1  0  0  0  0
  6 15  1  0  0  0  0
  6 17  1  0  0  0  0
  8 48  3  0  0  0  0
  9 11  1  0  0  0  0
 10  9  1  0  0  0  0
 11 33  1  0  0  0  0
 11 12  2  0  0  0  0
 12  3  1  0  0  0  0
 13  2  1  1  0  0  0
 13  4  1  0  0  0  0
 14 13  1  0  0  0  0
 15 14  2  0  0  0  0
 16 15  1  0  0  0  0
 17 18  1  6  0  0  0
 17 19  1  0  0  0  0
 19 22  1  0  0  0  0
 19 20  1  0  0  0  0
 19 21  1  0  0  0  0
 22 24  1  0  0  0  0
 23 22  1  0  0  0  0
 25 27  1  0  0  0  0
 25 26  1  0  0  0  0
 25 22  1  0  0  0  0
 28 25  1  0  0  0  0
 29 28  1  0  0  0  0
 30 28  1  0  0  0  0
 31 32  1  6  0  0  0
 31 28  1  0  0  0  0
 31  5  1  0  0  0  0
 31 17  1  0  0  0  0
 33  7  3  0  0  0  0
 34 37  1  0  0  0  0
 34 36  1  0  0  0  0
 35 34  1  0  0  0  0
 37 38  1  0  0  0  0
 37 40  1  0  0  0  0
 39 37  1  0  0  0  0
 41 44  1  0  0  0  0
 41 42  1  0  0  0  0
 43 41  1  0  0  0  0
 44 45  1  0  0  0  0
 44 46  1  0  0  0  0
 47 44  1  0  0  0  0
 48 14  1  0  0  0  0
M  CHG  1   1  -1
M  END
