1,2,4,5
q = -2.0, confidence = 0.81

 30 31  0  0  1  0  0  0  0  0999 V2000
   -0.6620    0.0278   -1.1097 O   0  5  0  0  0  0  0  0  0  0  0  0
    2.0263    0.3801    1.5726 O   0  5  0  0  0  0  0  0  0  0  0  0
    3.0624   -0.7893    3.1961 O   0  0  0  0  0  0  0  0  0  0  0  0
    0.2747   -1.4451    1.0655 N   0  0  0  0  0  2  0  0  0  0  0  0
    1.9062   -0.8976   -0.8782 N   0  0  0  0  0  2  0  0  0  0  0  0
    3.0563   -1.6025   -2.6059 N   0  0  0  0  0  0  0  0  0  0  0  0
    3.4460   -1.6500   -3.5492 H   0  0  0  0  0  0  0  0  0  0  0  0
   -1.6676   -0.8123   -1.0646 C   0  0  0  0  0  0  0  0  0  0  0  0
   -2.7072   -0.6597   -2.0312 C   0  0  0  0  0  0  0  0  0  0  0  0
   -2.6080    0.1580   -2.7589 H   0  0  0  0  0  0  0  0  0  0  0  0
   -3.8091   -1.5082   -2.0511 C   0  0  0  0  0  0  0  0  0  0  0  0
   -4.5899   -1.3527   -2.8115 H   0  0  0  0  0  0  0  0  0  0  0  0
   -3.9426   -2.5638   -1.1147 C   0  0  0  0  0  0  0  0  0  0  0  0
   -4.8146   -3.2316   -1.1478 H   0  0  0  0  0  0  0  0  0  0  0  0
   -2.9485   -2.7430   -0.1637 C   0  0  0  0  0  0  0  0  0  0  0  0
   -3.0224   -3.5637    0.5676 H   0  0  0  0  0  0  0  0  0  0  0  0
   -1.8083   -1.8880   -0.1059 C   0  0  0  0  0  0  0  0  0  0  0  0
   -0.7840   -2.1807    0.8494 C   0  0  0  0  0  3  0  0  0  0  0  0
   -0.8779   -3.1224    1.4285 H   0  0  0  0  0  0  0  0  0  0  0  0
    1.4477   -1.9280    1.7872 C   0  0  2  0  0  0  0  0  0  0  0  0
    1.1668   -2.5641    2.6520 H   0  0  0  0  0  0  0  0  0  0  0  0
    2.2563   -0.7073    2.2876 C   0  0  0  0  0  0  0  0  0  0  0  0
    2.3370   -2.7478    0.8267 C   0  0  0  0  0  0  0  0  0  0  0  0
    3.3049   -2.9447    1.3323 H   0  0  0  0  0  0  0  0  0  0  0  0
    1.8593   -3.7354    0.6495 H   0  0  0  0  0  0  0  0  0  0  0  0
    2.5486   -2.0711   -0.5021 C   0  0  0  0  0  0  0  0  0  0  0  0
    2.2168   -0.6401   -2.1509 C   0  0  0  0  0  3  0  0  0  0  0  0
    1.8347    0.1969   -2.7430 H   0  0  0  0  0  0  0  0  0  0  0  0
    3.2823   -2.5120   -1.5924 C   0  0  0  0  0  0  0  0  0  0  0  0
    3.9222   -3.3899   -1.7219 H   0  0  0  0  0  0  0  0  0  0  0  0
  1  8  1  0  0  0  0
  2 22  1  0  0  0  0
  4 20  1  0  0  0  0
  5 26  1  0  0  0  0
  6 27  1  0  0  0  0
  6 29  1  0  0  0  0
  7  6  1  0  0  0  0
  8 17  1  0  0  0  0
  9  8  2  0  0  0  0
 10  9  1  0  0  0  0
 11  9  1  0  0  0  0
 11 13  2  0  0  0  0
 12 11  1  0  0  0  0
 13 15  1  0  0  0  0
 14 13  1  0  0  0  0
 15 17  2  0  0  0  0
 15 16  1  0  0  0  0
 17 18  1  0  0  0  0
 18  4  1  0  0  0  0
 18 19  1  0  0  0  0
 20 22  1  0  0  0  0
 20 21  1  1  0  0  0
 22  3  2  0  0  0  0
 23 24  1  0  0  0  0
 23 20  1  0  0  0  0
 25 23  1  0  0  0  0
 26 23  1  0  0  0  0
 27  5  1  0  0  0  0
 28 27  1  0  0  0  0
 29 26  2  0  0  0  0
 30 29  1  0  0  0  0
M  CHG  2   1  -1   2  -1
M  END
