1,2,4,5
q = -2.0, confidence = 0.816

 39 38  0  0  1  0  0  0  0  0999 V2000
    0.9055    1.3383   -0.4591 O   0  0  0  0  0  1  0  0  0  0  0  0
   -1.4897    1.7309   -0.4006 O   0  5  0  0  0  0  0  0  0  0  0  0
    4.9989    0.9323    0.3068 O   0  0  0  0  0  0  0  0  0  0  0  0
    0.6991   -1.2921    0.0353 N   0  0  0  0  0  2  0  0  0  0  0  0
   -2.1186   -0.9090   -0.0534 N   0  0  0  0  0  2  0  0  0  0  0  0
    2.9112    2.5491   -0.4531 C   0  0  0  0  0  0  0  0  0  0  0  0
    2.1626    1.2578   -0.2558 C   0  0  2  0  0  3  0  0  0  0  0  0
    2.7983    0.0287    0.1111 C   0  0  0  0  0  0  0  0  0  0  0  0
    2.0067   -1.1499    0.1780 C   0  0  0  0  0  0  0  0  0  0  0  0
    0.1973   -2.6648    0.0789 C   0  0  0  0  0  0  0  0  0  0  0  0
   -0.8727   -2.8652   -0.9860 C   0  0  0  0  0  0  0  0  0  0  0  0
   -2.2011   -2.2965   -0.5194 C   0  0  0  0  0  0  0  0  0  0  0  0
   -3.2468   -0.3935    0.4595 C   0  0  1  0  0  3  0  0  0  0  0  0
   -3.4562    0.9884    0.6925 C   0  0  0  0  0  0  0  0  0  0  0  0
   -2.6160    1.9766    0.1624 C   0  0  0  0  0  0  0  0  0  0  0  0
   -3.0199    3.4324    0.1759 C   0  0  0  0  0  0  0  0  0  0  0  0
    4.2529   -0.0504    0.3652 C   0  0  0  0  0  0  0  0  0  0  0  0
    4.8632   -1.4092    0.7241 C   0  0  0  0  0  0  0  0  0  0  0  0
   -4.4234   -1.3026    0.7503 C   0  0  0  0  0  0  0  0  0  0  0  0
    3.7228    2.4272   -1.1958 H   0  0  0  0  0  0  0  0  0  0  0  0
    3.4260    2.8445    0.4817 H   0  0  0  0  0  0  0  0  0  0  0  0
    2.1906    3.3249   -0.7704 H   0  0  0  0  0  0  0  0  0  0  0  0
    2.5561   -2.0909    0.3632 H   0  0  0  0  0  0  0  0  0  0  0  0
   -0.2350   -2.8793    1.0839 H   0  0  0  0  0  0  0  0  0  0  0  0
    1.0405   -3.3719   -0.0718 H   0  0  0  0  0  0  0  0  0  0  0  0
   -0.5359   -2.3901   -1.9316 H   0  0  0  0  0  0  0  0  0  0  0  0
   -1.0115   -3.9464   -1.1926 H   0  0  0  0  0  0  0  0  0  0  0  0
   -2.9512   -2.3757   -1.3398 H   0  0  0  0  0  0  0  0  0  0  0  0
   -2.5717   -2.9524    0.3015 H   0  0  0  0  0  0  0  0  0  0  0  0
   -4.3997    1.2949    1.1611 H   0  0  0  0  0  0  0  0  0  0  0  0
   -3.9778    3.5984    0.7020 H   0  0  0  0  0  0  0  0  0  0  0  0
   -3.1100    3.7998   -0.8671 H   0  0  0  0  0  0  0  0  0  0  0  0
   -2.2224    4.0343    0.6567 H   0  0  0  0  0  0  0  0  0  0  0  0
    4.7340   -2.1500   -0.0922 H   0  0  0  0  0  0  0  0  0  0  0  0
    4.4107   -1.8412    1.6403 H   0  0  0  0  0  0  0  0  0  0  0  0
    5.9431   -1.2527    0.8953 H   0  0  0  0  0  0  0  0  0  0  0  0
   -5.2321   -0.7408    1.2497 H   0  0  0  0  0  0  0  0  0  0  0  0
   -4.1359   -2.1556    1.3991 H   0  0  0  0  0  0  0  0  0  0  0  0
   -4.8385   -1.7385   -0.1827 H   0  0  0  0  0  0  0  0  0  0  0  0
  2 15  1  0  0  0  0
  3 17  2  0  0  0  0
  4 10  1  0  0  0  0
  4  9  1  0  0  0  0
  6  7  1  0  0  0  0
  6 21  1  0  0  0  0
  7  1  1  6  0  0  0
  7  8  1  0  0  0  0
  8  9  2  0  0  0  0
  8 17  1  0  0  0  0
  9 23  1  0  0  0  0
 10 24  1  0  0  0  0
 11 12  1  0  0  0  0
 11 10  1  0  0  0  0
 12  5  1  0  0  0  0
 12 29  1  0  0  0  0
 13  5  1  6  0  0  0
 13 14  1  0  0  0  0
 13 19  1  0  0  0  0
 14 30  1  0  0  0  0
 15 16  1  0  0  0  0
 15 14  2  0  0  0  0
 16 33  1  0  0  0  0
 16 31  1  0  0  0  0
 17 18  1  0  0  0  0
 18 36  1  0  0  0  0
 18 35  1  0  0  0  0
 19 37  1  0  0  0  0
 19 38  1  0  0  0  0
 20  6  1  0  0  0  0
 22  6  1  0  0  0  0
 25 10  1  0  0  0  0
 26 11  1  0  0  0  0
 27 11  1  0  0  0  0
 28 12  1  0  0  0  0
 32 16  1  0  0  0  0
 34 18  1  0  0  0  0
 39 19  1  0  0  0  0
M  CHG  1   2  -1
M  END
