1,2,5,6
q = -2.0, confidence = 0.812

 39 40  0  0  1  0  0  0  0  0999 V2000
    0.5220   -1.1041   -0.0398 O   0  5  0  0  0  0  0  0  0  0  0  0
   -1.9532   -1.2811   -0.0447 O   0  0  0  0  0  1  0  0  0  0  0  0
    6.5644    0.6044   -0.0820 O   0  0  0  0  0  0  0  0  0  0  0  0
    6.7432   -1.5360    0.3399 O   0  0  0  0  0  0  0  0  0  0  0  0
    0.3367    1.5794   -0.5025 N   0  0  0  0  0  2  0  0  0  0  0  0
   -2.1738    1.3764    0.5091 N   0  0  0  0  0  2  0  0  0  0  0  0
    6.0831   -0.5172    0.1126 N   0  0  0  0  0  0  0  0  0  0  0  0
   -1.7093    2.6399    1.0841 C   0  0  0  0  0  0  0  0  0  0  0  0
   -0.9614    2.3947    1.8664 H   0  0  0  0  0  0  0  0  0  0  0  0
   -2.5489    3.1579    1.5945 H   0  0  0  0  0  0  0  0  0  0  0  0
   -1.0712    3.5645    0.0397 C   0  0  0  0  0  0  0  0  0  0  0  0
   -1.8468    4.1790   -0.4616 H   0  0  0  0  0  0  0  0  0  0  0  0
   -0.3892    4.2654    0.5632 H   0  0  0  0  0  0  0  0  0  0  0  0
   -0.3109    2.7801   -1.0364 C   0  0  0  0  0  0  0  0  0  0  0  0
   -1.0202    2.4478   -1.8221 H   0  0  0  0  0  0  0  0  0  0  0  0
    0.4397    3.4316   -1.5321 H   0  0  0  0  0  0  0  0  0  0  0  0
    1.6465    1.5092   -0.5494 C   0  0  0  0  0  0  0  0  0  0  0  0
    2.1925    2.4016   -0.9162 H   0  0  0  0  0  0  0  0  0  0  0  0
    2.4359    0.3630   -0.2159 C   0  0  0  0  0  0  0  0  0  0  0  0
    3.8444    0.4713   -0.1842 C   0  0  0  0  0  3  0  0  0  0  0  0
    4.3473    1.4336   -0.3571 H   0  0  0  0  0  0  0  0  0  0  0  0
    4.6240   -0.6508    0.0718 C   0  0  0  0  0  0  0  0  0  0  0  0
    4.0297   -1.9209    0.2813 C   0  0  0  0  0  0  0  0  0  0  0  0
    4.6892   -2.7780    0.4740 H   0  0  0  0  0  0  0  0  0  0  0  0
    2.6538   -2.0532    0.2340 C   0  0  0  0  0  0  0  0  0  0  0  0
    2.1641   -3.0254    0.3856 H   0  0  0  0  0  0  0  0  0  0  0  0
    1.7983   -0.9230   -0.0033 C   0  0  0  0  0  0  0  0  0  0  0  0
   -3.2514   -1.2912   -0.0673 C   0  0  1  0  0  3  0  0  0  0  0  0
   -3.9259   -2.5260   -0.3308 C   0  0  0  0  0  0  0  0  0  0  0  0
   -3.2985   -3.4098   -0.5144 H   0  0  0  0  0  0  0  0  0  0  0  0
   -5.3126   -2.5931   -0.3628 C   0  0  0  0  0  0  0  0  0  0  0  0
   -5.7978   -3.5577   -0.5806 H   0  0  0  0  0  0  0  0  0  0  0  0
   -6.1147   -1.4483   -0.1152 C   0  0  0  0  0  0  0  0  0  0  0  0
   -7.2112   -1.5223   -0.1376 H   0  0  0  0  0  0  0  0  0  0  0  0
   -5.4925   -0.2406    0.1650 C   0  0  0  0  0  0  0  0  0  0  0  0
   -6.0924    0.6599    0.3746 H   0  0  0  0  0  0  0  0  0  0  0  0
   -4.0722   -0.1291    0.1865 C   0  0  0  0  0  0  0  0  0  0  0  0
   -3.4609    1.1065    0.5480 C   0  0  0  0  0  0  0  0  0  0  0  0
   -4.1298    1.9028    0.9334 H   0  0  0  0  0  0  0  0  0  0  0  0
  1 27  1  0  0  0  0
  3  7  2  0  0  0  0
  6 38  1  0  0  0  0
  6  8  1  0  0  0  0
  7  4  2  0  0  0  0
  8 10  1  0  0  0  0
  8  9  1  0  0  0  0
 11 13  1  0  0  0  0
 11  8  1  0  0  0  0
 12 11  1  0  0  0  0
 14  5  1  0  0  0  0
 14 11  1  0  0  0  0
 15 14  1  0  0  0  0
 16 14  1  0  0  0  0
 17  5  1  0  0  0  0
 17 19  2  0  0  0  0
 18 17  1  0  0  0  0
 19 20  1  0  0  0  0
 19 27  1  0  0  0  0
 20 22  1  0  0  0  0
 21 20  1  0  0  0  0
 22  7  1  0  0  0  0
 22 23  2  0  0  0  0
 23 24  1  0  0  0  0
 25 23  1  0  0  0  0
 25 26  1  0  0  0  0
 27 25  2  0  0  0  0
 28  2  1  1  0  0  0
 28 37  1  0  0  0  0
 29 28  1  0  0  0  0
 30 29  1  0  0  0  0
 31 29  2  0  0  0  0
 31 33  1  0  0  0  0
 32 31  1  0  0  0  0
 33 35  2  0  0  0  0
 34 33  1  0  0  0  0
 35 37  1  0  0  0  0
 35 36  1  0  0  0  0
 37 38  2  0  0  0  0
 38 39  1  0  0  0  0
M  CHG  1   1  -1
M  END
