1,2,3,5
q = -2.0, confidence = 0.85

 37 39  0  0  1  0  0  0  0  0999 V2000
   -1.2731   -1.7026   -0.0006 O   0  0  0  0  0  1  0  0  0  0  0  0
    1.2025   -1.7324    0.0001 O   0  0  0  0  0  1  0  0  0  0  0  0
   -1.2748    1.0405   -0.0000 N   0  0  0  0  0  2  0  0  0  0  0  0
    1.5129    3.3707    0.0001 N   0  0  0  0  0  0  0  0  0  0  0  0
    1.2776    0.9846    0.0001 N   0  0  0  0  0  2  0  0  0  0  0  0
   -2.5620   -1.6082   -0.0003 C   0  0  2  0  0  3  0  0  0  0  0  0
   -3.3398   -2.8131   -0.0006 C   0  0  0  0  0  0  0  0  0  0  0  0
   -4.7249   -2.7733   -0.0002 C   0  0  0  0  0  0  0  0  0  0  0  0
   -5.4303   -1.5368    0.0005 C   0  0  0  0  0  0  0  0  0  0  0  0
   -4.7143   -0.3530    0.0007 C   0  0  0  0  0  0  0  0  0  0  0  0
   -3.2839   -0.3487    0.0003 C   0  0  0  0  0  0  0  0  0  0  0  0
   -2.5931    0.8866    0.0004 C   0  0  0  0  0  0  0  0  0  0  0  0
   -0.6831    2.3145   -0.0001 C   0  0  0  0  0  0  0  0  0  0  0  0
   -1.3055    3.5753   -0.0003 C   0  0  0  0  0  0  0  0  0  0  0  0
   -0.4928    4.7181   -0.0003 C   0  0  0  0  0  0  0  0  0  0  0  0
    0.9066    4.5664   -0.0001 C   0  0  0  0  0  0  0  0  0  0  0  0
    0.7375    2.2857    0.0001 C   0  0  0  0  0  0  0  0  0  0  0  0
    2.5944    0.8181    0.0002 C   0  0  0  0  0  0  0  0  0  0  0  0
    3.2531   -0.4333    0.0001 C   0  0  0  0  0  0  0  0  0  0  0  0
    4.6825   -0.4763    0.0002 C   0  0  0  0  0  0  0  0  0  0  0  0
    5.3647   -1.6802    0.0001 C   0  0  0  0  0  0  0  0  0  0  0  0
    4.6242   -2.8957    0.0001 C   0  0  0  0  0  0  0  0  0  0  0  0
    3.2380   -2.8975    0.0001 C   0  0  0  0  0  0  0  0  0  0  0  0
    2.4952   -1.6713    0.0001 C   0  0  1  0  0  3  0  0  0  0  0  0
   -2.7854   -3.7623   -0.0010 H   0  0  0  0  0  0  0  0  0  0  0  0
   -5.2907   -3.7183   -0.0003 H   0  0  0  0  0  0  0  0  0  0  0  0
   -6.5296   -1.5265    0.0008 H   0  0  0  0  0  0  0  0  0  0  0  0
   -5.2391    0.6160    0.0012 H   0  0  0  0  0  0  0  0  0  0  0  0
   -3.2173    1.7990    0.0008 H   0  0  0  0  0  0  0  0  0  0  0  0
   -2.4000    3.6770   -0.0006 H   0  0  0  0  0  0  0  0  0  0  0  0
   -0.9405    5.7223   -0.0005 H   0  0  0  0  0  0  0  0  0  0  0  0
    1.5644    5.4526   -0.0000 H   0  0  0  0  0  0  0  0  0  0  0  0
    3.1942    1.7472    0.0002 H   0  0  0  0  0  0  0  0  0  0  0  0
    5.2308    0.4791    0.0002 H   0  0  0  0  0  0  0  0  0  0  0  0
    6.4639   -1.7018    0.0001 H   0  0  0  0  0  0  0  0  0  0  0  0
    5.1628   -3.8565    0.0000 H   0  0  0  0  0  0  0  0  0  0  0  0
    2.6583   -3.8315    0.0000 H   0  0  0  0  0  0  0  0  0  0  0  0
  3 12  1  0  0  0  0
  5 18  1  0  0  0  0
  6  1  1  6  0  0  0
  6 11  1  0  0  0  0
  7  6  1  0  0  0  0
  7  8  2  0  0  0  0
  8  9  1  0  0  0  0
  9 10  2  0  0  0  0
  9 27  1  0  0  0  0
 10 28  1  0  0  0  0
 11 12  2  0  0  0  0
 11 10  1  0  0  0  0
 12 29  1  0  0  0  0
 13  3  1  0  0  0  0
 13 17  2  0  0  0  0
 14 15  2  0  0  0  0
 14 13  1  0  0  0  0
 15 16  1  0  0  0  0
 16 32  1  0  0  0  0
 16  4  2  0  0  0  0
 17  4  1  0  0  0  0
 17  5  1  0  0  0  0
 18 33  1  0  0  0  0
 19 20  1  0  0  0  0
 19 18  2  0  0  0  0
 20 34  1  0  0  0  0
 21 35  1  0  0  0  0
 21 20  2  0  0  0  0
 22 21  1  0  0  0  0
 23 22  2  0  0  0  0
 23 24  1  0  0  0  0
 24  2  1  1  0  0  0
 24 19  1  0  0  0  0
 25  7  1  0  0  0  0
 26  8  1  0  0  0  0
 30 14  1  0  0  0  0
 31 15  1  0  0  0  0
 36 22  1  0  0  0  0
 37 23  1  0  0  0  0
M  END
