1,2,7,8
q = -2.0, confidence = 0.844

 44 44  0  0  1  0  0  0  0  0999 V2000
    1.3666   -1.9612    0.2728 O   0  5  0  0  0  0  0  0  0  0  0  0
   -1.2532   -1.9655    0.0958 O   0  0  0  0  0  1  0  0  0  0  0  0
    5.5476   -1.5702   -0.1917 O   0  0  0  0  0  0  0  0  0  0  0  0
    5.2869    0.6712   -0.3408 O   0  0  0  0  0  0  0  0  0  0  0  0
   -5.4403   -1.5617   -0.3215 O   0  0  0  0  0  0  0  0  0  0  0  0
   -5.1905    0.6857   -0.2865 O   0  0  0  0  0  0  0  0  0  0  0  0
   -1.2326    0.8166    0.0707 N   0  0  0  0  0  2  0  0  0  0  0  0
    1.3398    0.8179    0.0818 N   0  0  0  0  0  2  0  0  0  0  0  0
   -2.5300   -1.8783   -0.0400 C   0  0  2  0  0  3  0  0  0  0  0  0
   -3.2192   -0.6186   -0.1026 C   0  0  0  0  0  0  0  0  0  0  0  0
   -2.5437    0.6378   -0.0356 C   0  0  0  0  0  0  0  0  0  0  0  0
   -3.1939    1.5255   -0.0878 H   0  0  0  0  0  0  0  0  0  0  0  0
   -0.6594    2.1071    0.1312 C   0  0  0  0  0  0  0  0  0  0  0  0
   -1.3553    3.3318    0.1870 C   0  0  0  0  0  0  0  0  0  0  0  0
   -2.4543    3.3456    0.1948 H   0  0  0  0  0  0  0  0  0  0  0  0
   -0.6501    4.5408    0.2446 C   0  0  0  0  0  0  0  0  0  0  0  0
   -1.2023    5.4912    0.2936 H   0  0  0  0  0  0  0  0  0  0  0  0
    0.7574    4.5396    0.2514 C   0  0  0  0  0  0  0  0  0  0  0  0
    1.3099    5.4895    0.3070 H   0  0  0  0  0  0  0  0  0  0  0  0
    1.4630    3.3309    0.2005 C   0  0  0  0  0  0  0  0  0  0  0  0
    2.5616    3.3431    0.2239 H   0  0  0  0  0  0  0  0  0  0  0  0
    0.7684    2.1053    0.1358 C   0  0  0  0  0  0  0  0  0  0  0  0
    2.6479    0.6326   -0.0205 C   0  0  0  0  0  3  0  0  0  0  0  0
    3.2968    1.5180   -0.1184 H   0  0  0  0  0  0  0  0  0  0  0  0
    3.3254   -0.6206   -0.0186 C   0  0  0  0  0  0  0  0  0  0  0  0
    2.6427   -1.8711    0.1701 C   0  0  0  0  0  0  0  0  0  0  0  0
   -3.2459   -3.2048   -0.1151 C   0  0  0  0  0  0  0  0  0  0  0  0
   -2.4891   -4.0084   -0.0502 H   0  0  0  0  0  0  0  0  0  0  0  0
   -3.8357   -3.2973   -1.0478 H   0  0  0  0  0  0  0  0  0  0  0  0
   -3.9903   -3.3080    0.6986 H   0  0  0  0  0  0  0  0  0  0  0  0
    3.3737   -3.1870    0.2719 C   0  0  0  0  0  0  0  0  0  0  0  0
    2.6294   -3.9817    0.4644 H   0  0  0  0  0  0  0  0  0  0  0  0
    4.1448   -3.1668    1.0660 H   0  0  0  0  0  0  0  0  0  0  0  0
    3.9327   -3.4018   -0.6599 H   0  0  0  0  0  0  0  0  0  0  0  0
   -4.6901   -0.5953   -0.2447 C   0  0  0  0  0  0  0  0  0  0  0  0
   -6.6074    0.7730   -0.4211 C   0  0  0  0  0  0  0  0  0  0  0  0
   -6.9536    0.2867   -1.3564 H   0  0  0  0  0  0  0  0  0  0  0  0
   -6.8487    1.8515   -0.4388 H   0  0  0  0  0  0  0  0  0  0  0  0
   -7.1236    0.2778    0.4271 H   0  0  0  0  0  0  0  0  0  0  0  0
    4.7935   -0.6038   -0.1829 C   0  0  0  0  0  0  0  0  0  0  0  0
    6.7006    0.7514   -0.5042 C   0  0  0  0  0  0  0  0  0  0  0  0
    7.2324    0.3354    0.3763 H   0  0  0  0  0  0  0  0  0  0  0  0
    6.9363    1.8251   -0.6208 H   0  0  0  0  0  0  0  0  0  0  0  0
    7.0352    0.1857   -1.3981 H   0  0  0  0  0  0  0  0  0  0  0  0
  3 40  2  0  0  0  0
  4 40  1  0  0  0  0
  5 35  2  0  0  0  0
  6 35  1  0  0  0  0
  7 13  1  0  0  0  0
  8 22  1  0  0  0  0
  9  2  1  1  0  0  0
 10  9  1  0  0  0  0
 10 11  2  0  0  0  0
 11  7  1  0  0  0  0
 12 11  1  0  0  0  0
 13 22  2  0  0  0  0
 13 14  1  0  0  0  0
 14 15  1  0  0  0  0
 14 16  2  0  0  0  0
 16 18  1  0  0  0  0
 16 17  1  0  0  0  0
 18 19  1  0  0  0  0
 20 21  1  0  0  0  0
 20 18  2  0  0  0  0
 22 20  1  0  0  0  0
 23 25  1  0  0  0  0
 23  8  1  0  0  0  0
 24 23  1  0  0  0  0
 25 26  2  0  0  0  0
 26 31  1  0  0  0  0
 26  1  1  0  0  0  0
 27 28  1  0  0  0  0
 27  9  1  0  0  0  0
 27 30  1  0  0  0  0
 29 27  1  0  0  0  0
 31 32  1  0  0  0  0
 31 33  1  0  0  0  0
 34 31  1  0  0  0  0
 35 10  1  0  0  0  0
 36  6  1  0  0  0  0
 36 39  1  0  0  0  0
 37 36  1  0  0  0  0
 38 36  1  0  0  0  0
 40 25  1  0  0  0  0
 41  4  1  0  0  0  0
 41 42  1  0  0  0  0
 43 41  1  0  0  0  0
 44 41  1  0  0  0  0
M  CHG  1   1  -1
M  END
