2,3,5,6
q = -2.0, confidence = 0.846

 46 48  0  0  0  0  0  0  0  0999 V2000
    4.8726   -3.8929   -0.3550 O   0  0  0  0  0  0  0  0  0  0  0  0
    1.0339   -1.2104   -0.3527 O   0  5  0  0  0  0  0  0  0  0  0  0
   -1.4692   -1.0993    0.4399 O   0  5  0  0  0  0  0  0  0  0  0  0
   -5.6781   -3.3295    0.0689 O   0  0  0  0  0  0  0  0  0  0  0  0
    1.2887    1.4461   -0.4529 N   0  0  0  0  0  2  0  0  0  0  0  0
   -1.2140    1.3662   -0.8011 N   0  0  0  0  0  2  0  0  0  0  0  0
    6.2768   -4.0856   -0.3647 C   0  0  0  0  0  0  0  0  0  0  0  0
    6.7428   -3.6877   -1.2933 H   0  0  0  0  0  0  0  0  0  0  0  0
    6.4401   -5.1780   -0.3208 H   0  0  0  0  0  0  0  0  0  0  0  0
    6.7654   -3.6111    0.5149 H   0  0  0  0  0  0  0  0  0  0  0  0
    4.3831   -2.6298   -0.3917 C   0  0  0  0  0  0  0  0  0  0  0  0
    5.1973   -1.4674   -0.4559 C   0  0  0  0  0  0  0  0  0  0  0  0
    6.2916   -1.5384   -0.4815 H   0  0  0  0  0  0  0  0  0  0  0  0
    4.5822   -0.2195   -0.4960 C   0  0  0  0  0  0  0  0  0  0  0  0
    5.2033    0.6879   -0.5619 H   0  0  0  0  0  0  0  0  0  0  0  0
    3.1739   -0.0713   -0.4492 C   0  0  0  0  0  0  0  0  0  0  0  0
    2.3551   -1.2551   -0.3842 C   0  0  0  0  0  0  0  0  0  0  0  0
    2.9819   -2.5162   -0.3697 C   0  0  0  0  0  0  0  0  0  0  0  0
    2.3619   -3.4212   -0.3268 H   0  0  0  0  0  0  0  0  0  0  0  0
    2.5778    1.2214   -0.5722 C   0  0  0  0  0  3  0  0  0  0  0  0
    3.2475    2.0581   -0.8499 H   0  0  0  0  0  0  0  0  0  0  0  0
    0.7352    2.7085   -0.7336 C   0  0  0  0  0  0  0  0  0  0  0  0
    1.4155    3.9375   -0.7981 C   0  0  0  0  0  0  0  0  0  0  0  0
    2.4938    3.9882   -0.5913 H   0  0  0  0  0  0  0  0  0  0  0  0
    0.7038    5.1087   -1.0887 C   0  0  0  0  0  0  0  0  0  0  0  0
    1.2317    6.0731   -1.1205 H   0  0  0  0  0  0  0  0  0  0  0  0
   -0.6842    5.0581   -1.3103 C   0  0  0  0  0  0  0  0  0  0  0  0
   -1.2411    5.9834   -1.5199 H   0  0  0  0  0  0  0  0  0  0  0  0
   -1.3737    3.8403   -1.2364 C   0  0  0  0  0  0  0  0  0  0  0  0
   -2.4642    3.8220   -1.3678 H   0  0  0  0  0  0  0  0  0  0  0  0
   -0.6649    2.6563   -0.9558 C   0  0  0  0  0  0  0  0  0  0  0  0
   -2.4852    1.1078   -1.1582 C   0  0  0  0  0  3  0  0  0  0  0  0
   -3.0035    1.8782   -1.7568 H   0  0  0  0  0  0  0  0  0  0  0  0
   -3.2252   -0.0492   -0.8411 C   0  0  0  0  0  0  0  0  0  0  0  0
   -4.5751   -0.1713   -1.3086 C   0  0  0  0  0  0  0  0  0  0  0  0
   -4.9885    0.6389   -1.9298 H   0  0  0  0  0  0  0  0  0  0  0  0
   -5.3575   -1.2608   -0.9969 C   0  0  0  0  0  0  0  0  0  0  0  0
   -6.3930   -1.3563   -1.3513 H   0  0  0  0  0  0  0  0  0  0  0  0
   -4.8222   -2.3085   -0.1797 C   0  0  0  0  0  0  0  0  0  0  0  0
   -5.2265   -4.4019    0.8790 C   0  0  0  0  0  0  0  0  0  0  0  0
   -4.3526   -4.9187    0.4243 H   0  0  0  0  0  0  0  0  0  0  0  0
   -6.0701   -5.1121    0.9564 H   0  0  0  0  0  0  0  0  0  0  0  0
   -4.9443   -4.0547    1.8974 H   0  0  0  0  0  0  0  0  0  0  0  0
   -3.5157   -2.2349    0.2997 C   0  0  0  0  0  0  0  0  0  0  0  0
   -3.0664   -3.0142    0.9272 H   0  0  0  0  0  0  0  0  0  0  0  0
   -2.6832   -1.1198   -0.0172 C   0  0  0  0  0  0  0  0  0  0  0  0
  4 40  1  0  0  0  0
  7  1  1  0  0  0  0
  7  9  1  0  0  0  0
  7 10  1  0  0  0  0
  8  7  1  0  0  0  0
 11 18  1  0  0  0  0
 11  1  1  0  0  0  0
 12 11  2  0  0  0  0
 13 12  1  0  0  0  0
 14 12  1  0  0  0  0
 14 16  2  0  0  0  0
 15 14  1  0  0  0  0
 16 17  1  0  0  0  0
 17 18  2  0  0  0  0
 17  2  1  0  0  0  0
 18 19  1  0  0  0  0
 20  5  1  0  0  0  0
 20 16  1  0  0  0  0
 21 20  1  0  0  0  0
 22  5  1  0  0  0  0
 23 22  1  0  0  0  0
 23 24  1  0  0  0  0
 25 23  2  0  0  0  0
 26 25  1  0  0  0  0
 27 29  2  0  0  0  0
 27 25  1  0  0  0  0
 28 27  1  0  0  0  0
 29 31  1  0  0  0  0
 30 29  1  0  0  0  0
 31  6  1  0  0  0  0
 31 22  2  0  0  0  0
 32 34  1  0  0  0  0
 32  6  1  0  0  0  0
 33 32  1  0  0  0  0
 34 46  1  0  0  0  0
 35 37  1  0  0  0  0
 35 34  2  0  0  0  0
 36 35  1  0  0  0  0
 37 39  2  0  0  0  0
 38 37  1  0  0  0  0
 39  4  1  0  0  0  0
 39 44  1  0  0  0  0
 40 42  1  0  0  0  0
 40 43  1  0  0  0  0
 41 40  1  0  0  0  0
 44 45  1  0  0  0  0
 46 44  2  0  0  0  0
 46  3  1  0  0  0  0
M  CHG  2   2  -1   3  -1
M  END
