6,7,10,11
q = -2.0, confidence = 0.86

 48 49  0  0  1  0  0  0  0  0999 V2000
    2.1871   -3.0135   -1.4339 Br  0  0  0  0  0  0  0  0  0  0  0  0
    6.9560   -0.6226    0.6314 Br  0  0  0  0  0  0  0  0  0  0  0  0
   -3.4525   -2.9204    1.0331 Br  0  0  0  0  0  0  0  0  0  0  0  0
   -7.5989    0.7087   -0.4585 Br  0  0  0  0  0  0  0  0  0  0  0  0
    1.4383    2.3109    0.6013 N   0  0  0  0  0  0  0  0  0  0  0  0
   -1.2091    2.1522   -0.4419 N   0  0  0  0  0  2  0  0  0  0  0  0
    0.6053   -0.0743    1.9158 N   0  0  0  0  0  0  0  0  0  0  0  0
   -0.1679   -0.6415    2.2894 H   0  0  0  0  0  0  0  0  0  0  0  0
    1.4376   -0.6788    1.8504 H   0  0  0  0  0  0  0  0  0  0  0  0
    1.2196   -0.1048   -1.3160 O   0  5  0  0  0  0  0  0  0  0  0  0
   -1.7175   -0.5714    0.3235 O   0  5  0  0  0  0  0  0  0  0  0  0
    3.3676    3.3555   -0.2309 O   0  0  0  0  0  0  0  0  0  0  0  0
    2.4920    2.2527   -0.4196 C   0  0  1  0  0  0  0  0  0  0  0  0
    1.9743    2.3488   -1.4057 H   0  0  0  0  0  0  0  0  0  0  0  0
    3.2014    0.9111   -0.4174 C   0  0  0  0  0  0  0  0  0  0  0  0
    2.4569   -0.2174   -0.8952 C   0  0  0  0  0  0  0  0  0  0  0  0
    3.1465   -1.4718   -0.8707 C   0  0  0  0  0  0  0  0  0  0  0  0
    4.4699   -1.6005   -0.4305 C   0  0  0  0  0  0  0  0  0  0  0  0
    4.9571   -2.5848   -0.4329 H   0  0  0  0  0  0  0  0  0  0  0  0
    5.1544   -0.4602    0.0215 C   0  0  0  0  0  0  0  0  0  0  0  0
    4.5258    0.7922    0.0323 C   0  0  0  0  0  0  0  0  0  0  0  0
    5.0553    1.6861    0.3918 H   0  0  0  0  0  0  0  0  0  0  0  0
   -2.5116    2.1636   -0.5221 C   0  0  0  0  0  3  0  0  0  0  0  0
   -3.0071    3.1260   -0.7857 H   0  0  0  0  0  0  0  0  0  0  0  0
   -3.4078    1.0612   -0.2909 C   0  0  0  0  0  0  0  0  0  0  0  0
   -2.9483   -0.2477    0.1474 C   0  0  0  0  0  0  0  0  0  0  0  0
   -3.9940   -1.2108    0.4118 C   0  0  0  0  0  0  0  0  0  0  0  0
   -5.3440   -0.9358    0.2336 C   0  0  0  0  0  0  0  0  0  0  0  0
   -6.0951   -1.7100    0.4421 H   0  0  0  0  0  0  0  0  0  0  0  0
   -5.7446    0.3460   -0.2154 C   0  0  0  0  0  0  0  0  0  0  0  0
   -4.7968    1.3266   -0.4649 C   0  0  0  0  0  0  0  0  0  0  0  0
   -5.1118    2.3264   -0.7997 H   0  0  0  0  0  0  0  0  0  0  0  0
    0.5901    3.5100    0.4845 C   0  0  0  0  0  0  0  0  0  0  0  0
    1.2140    4.4177    0.3267 H   0  0  0  0  0  0  0  0  0  0  0  0
    0.0469    3.6384    1.4425 H   0  0  0  0  0  0  0  0  0  0  0  0
   -0.4460    3.3687   -0.6395 C   0  0  0  0  0  0  0  0  0  0  0  0
   -1.0958    4.2726   -0.6652 H   0  0  0  0  0  0  0  0  0  0  0  0
    0.0727    3.3144   -1.6231 H   0  0  0  0  0  0  0  0  0  0  0  0
    1.8805    2.0225    1.9735 C   0  0  0  0  0  0  0  0  0  0  0  0
    2.0674    2.9512    2.5565 H   0  0  0  0  0  0  0  0  0  0  0  0
    2.8488    1.4871    1.9130 H   0  0  0  0  0  0  0  0  0  0  0  0
    0.8732    1.1327    2.7121 C   0  0  0  0  0  0  0  0  0  0  0  0
    1.2612    0.9084    3.7304 H   0  0  0  0  0  0  0  0  0  0  0  0
   -0.0938    1.6644    2.8422 H   0  0  0  0  0  0  0  0  0  0  0  0
    4.0618    3.7420   -1.4035 C   0  0  0  0  0  0  0  0  0  0  0  0
    4.7519    2.9473   -1.7670 H   0  0  0  0  0  0  0  0  0  0  0  0
    4.6542    4.6429   -1.1534 H   0  0  0  0  0  0  0  0  0  0  0  0
    3.3562    3.9924   -2.2312 H   0  0  0  0  0  0  0  0  0  0  0  0
  1 17  1  0  0  0  0
  4 30  1  0  0  0  0
  5 39  1  0  0  0  0
  7  8  1  0  0  0  0
  7 42  1  0  0  0  0
  9  7  1  0  0  0  0
 10 16  1  0  0  0  0
 13 14  1  6  0  0  0
 13 15  1  0  0  0  0
 13 12  1  0  0  0  0
 13  5  1  0  0  0  0
 15 21  1  0  0  0  0
 16 17  1  0  0  0  0
 16 15  2  0  0  0  0
 17 18  2  0  0  0  0
 18 20  1  0  0  0  0
 19 18  1  0  0  0  0
 20 21  2  0  0  0  0
 20  2  1  0  0  0  0
 21 22  1  0  0  0  0
 23  6  1  0  0  0  0
 23 25  1  0  0  0  0
 24 23  1  0  0  0  0
 25 26  1  0  0  0  0
 26 11  1  0  0  0  0
 26 27  2  0  0  0  0
 27  3  1  0  0  0  0
 28 27  1  0  0  0  0
 28 29  1  0  0  0  0
 30 28  2  0  0  0  0
 31 25  2  0  0  0  0
 31 30  1  0  0  0  0
 32 31  1  0  0  0  0
 33  5  1  0  0  0  0
 33 35  1  0  0  0  0
 34 33  1  0  0  0  0
 36  6  1  0  0  0  0
 36 33  1  0  0  0  0
 37 36  1  0  0  0  0
 38 36  1  0  0  0  0
 39 40  1  0  0  0  0
 39 42  1  0  0  0  0
 41 39  1  0  0  0  0
 42 44  1  0  0  0  0
 42 43  1  0  0  0  0
 45 47  1  0  0  0  0
 45 12  1  0  0  0  0
 46 45  1  0  0  0  0
 48 45  1  0  0  0  0
M  CHG  2  10  -1  11  -1
M  END
