1,2,3,4
q = -2.0, confidence = 0.842

 37 38  0  0  1  0  0  0  0  0999 V2000
    0.9363   -0.9254   -0.5072 O   0  5  0  0  0  0  0  0  0  0  0  0
   -1.5767   -1.0496    0.7595 O   0  5  0  0  0  0  0  0  0  0  0  0
    1.4399    1.4994    0.5213 N   0  0  0  0  0  2  0  0  0  0  0  0
   -0.9766    1.3935   -0.5245 N   0  0  0  0  0  2  0  0  0  0  0  0
    2.6676    1.2386    0.1301 C   0  0  0  0  0  3  0  0  0  0  0  0
    0.8373    2.7961    0.2648 C   0  0  0  0  0  0  0  0  0  0  0  0
   -0.1781    2.5697   -0.8885 C   0  0  1  0  0  0  0  0  0  0  0  0
    0.5175    2.3354   -2.2344 C   0  0  0  0  0  0  0  0  0  0  0  0
   -2.1751    1.2600   -0.9947 C   0  0  0  0  0  3  0  0  0  0  0  0
    2.2218   -1.0843   -0.6095 C   0  0  0  0  0  0  0  0  0  0  0  0
    3.1658   -0.0592   -0.1965 C   0  0  0  0  0  0  0  0  0  0  0  0
    4.5643   -0.2710   -0.3638 C   0  0  0  0  0  0  0  0  0  0  0  0
    5.0515   -1.4580   -0.8901 C   0  0  0  0  0  0  0  0  0  0  0  0
    4.1322   -2.4540   -1.3123 C   0  0  0  0  0  0  0  0  0  0  0  0
    2.7598   -2.2669   -1.2046 C   0  0  0  0  0  0  0  0  0  0  0  0
   -2.7317   -0.9541    0.1181 C   0  0  0  0  0  0  0  0  0  0  0  0
   -3.0697    0.1495   -0.7354 C   0  0  0  0  0  0  0  0  0  0  0  0
   -4.3394    0.1585   -1.3695 C   0  0  0  0  0  0  0  0  0  0  0  0
   -5.2563   -0.8746   -1.1899 C   0  0  0  0  0  0  0  0  0  0  0  0
   -4.9111   -1.9588   -0.3559 C   0  0  0  0  0  0  0  0  0  0  0  0
   -3.6724   -2.0005    0.2849 C   0  0  0  0  0  0  0  0  0  0  0  0
    3.3359    2.1072   -0.0513 H   0  0  0  0  0  0  0  0  0  0  0  0
    0.2997    3.1344    1.1718 H   0  0  0  0  0  0  0  0  0  0  0  0
    1.5982    3.5489   -0.0322 H   0  0  0  0  0  0  0  0  0  0  0  0
   -0.8329    3.4681   -0.9604 H   0  0  0  0  0  0  0  0  0  0  0  0
    1.1339    1.4154   -2.2018 H   0  0  0  0  0  0  0  0  0  0  0  0
   -0.2330    2.2053   -3.0387 H   0  0  0  0  0  0  0  0  0  0  0  0
    1.1637    3.1962   -2.4992 H   0  0  0  0  0  0  0  0  0  0  0  0
   -2.5879    2.0498   -1.6631 H   0  0  0  0  0  0  0  0  0  0  0  0
    5.2576    0.5283   -0.0563 H   0  0  0  0  0  0  0  0  0  0  0  0
    6.1335   -1.6231   -0.9924 H   0  0  0  0  0  0  0  0  0  0  0  0
    4.5141   -3.3952   -1.7384 H   0  0  0  0  0  0  0  0  0  0  0  0
    2.0448   -3.0336   -1.5352 H   0  0  0  0  0  0  0  0  0  0  0  0
   -4.5899    1.0121   -2.0199 H   0  0  0  0  0  0  0  0  0  0  0  0
   -6.2343   -0.8453   -1.6912 H   0  0  0  0  0  0  0  0  0  0  0  0
   -5.6245   -2.7836   -0.2047 H   0  0  0  0  0  0  0  0  0  0  0  0
   -3.3886   -2.8369    0.9391 H   0  0  0  0  0  0  0  0  0  0  0  0
  5  3  1  0  0  0  0
  6  3  1  0  0  0  0
  6 23  1  0  0  0  0
  7 25  1  6  0  0  0
  7  4  1  0  0  0  0
  7  6  1  0  0  0  0
  8 26  1  0  0  0  0
  8  7  1  0  0  0  0
  9 17  1  0  0  0  0
  9  4  1  0  0  0  0
 10  1  1  0  0  0  0
 10 11  1  0  0  0  0
 11  5  1  0  0  0  0
 12 11  2  0  0  0  0
 12 30  1  0  0  0  0
 13 12  1  0  0  0  0
 14 15  1  0  0  0  0
 14 13  2  0  0  0  0
 15 10  2  0  0  0  0
 16 21  1  0  0  0  0
 16  2  1  0  0  0  0
 17 16  2  0  0  0  0
 18 19  2  0  0  0  0
 18 17  1  0  0  0  0
 19 20  1  0  0  0  0
 20 36  1  0  0  0  0
 20 21  2  0  0  0  0
 21 37  1  0  0  0  0
 22  5  1  0  0  0  0
 24  6  1  0  0  0  0
 27  8  1  0  0  0  0
 28  8  1  0  0  0  0
 29  9  1  0  0  0  0
 31 13  1  0  0  0  0
 32 14  1  0  0  0  0
 33 15  1  0  0  0  0
 34 18  1  0  0  0  0
 35 19  1  0  0  0  0
M  CHG  2   1  -1   2  -1
M  END
