1,4,6,7
q = -2.0, confidence = 0.798

 56 57  0  0  1  0  0  0  0  0999 V2000
    1.2276   -0.8523   -0.0118 O   0  0  0  0  0  1  0  0  0  0  0  0
    5.6523    0.9134   -0.0609 O   0  0  0  0  0  0  0  0  0  0  0  0
   -5.6524    0.9134    0.0586 O   0  0  0  0  0  0  0  0  0  0  0  0
   -1.2275   -0.8524    0.0134 O   0  5  0  0  0  0  0  0  0  0  0  0
    4.7386   -1.2140    0.0817 N   0  0  0  0  0  0  0  0  0  0  0  0
    1.2882    1.9221   -0.1366 N   0  0  0  0  0  2  0  0  0  0  0  0
   -1.2883    1.9221    0.1373 N   0  0  0  0  0  2  0  0  0  0  0  0
   -4.7385   -1.2141   -0.0827 N   0  0  0  0  0  0  0  0  0  0  0  0
    2.4879   -0.6738    0.0107 C   0  0  1  0  0  3  0  0  0  0  0  0
    3.4327   -1.8754    0.1085 C   0  0  0  0  0  0  0  0  0  0  0  0
    3.2212   -2.8011   -1.1022 C   0  0  0  0  0  0  0  0  0  0  0  0
    3.1824   -2.6209    1.4314 C   0  0  0  0  0  0  0  0  0  0  0  0
    5.9959   -1.9124    0.1456 C   0  0  0  0  0  0  0  0  0  0  0  0
    4.6661    0.1714   -0.0166 C   0  0  0  0  0  0  0  0  0  0  0  0
    3.2202    0.5163   -0.0541 C   0  0  0  0  0  0  0  0  0  0  0  0
    2.6139    1.8011   -0.1732 C   0  0  0  0  0  0  0  0  0  0  0  0
    3.5024    3.0064   -0.3645 C   0  0  0  0  0  0  0  0  0  0  0  0
    0.6639    3.2242   -0.3640 C   0  0  0  0  0  0  0  0  0  0  0  0
   -0.6640    3.2241    0.3650 C   0  0  0  0  0  0  0  0  0  0  0  0
   -2.6140    1.8011    0.1731 C   0  0  2  0  0  3  0  0  0  0  0  0
   -3.5026    3.0064    0.3637 C   0  0  0  0  0  0  0  0  0  0  0  0
   -3.2203    0.5162    0.0538 C   0  0  0  0  0  0  0  0  0  0  0  0
   -4.6661    0.1714    0.0153 C   0  0  0  0  0  0  0  0  0  0  0  0
   -5.9958   -1.9125   -0.1472 C   0  0  0  0  0  0  0  0  0  0  0  0
   -3.4326   -1.8755   -0.1083 C   0  0  0  0  0  0  0  0  0  0  0  0
   -3.1813   -2.6214   -1.4308 C   0  0  0  0  0  0  0  0  0  0  0  0
   -3.2220   -2.8009    1.1029 C   0  0  0  0  0  0  0  0  0  0  0  0
   -2.4879   -0.6739   -0.0101 C   0  0  0  0  0  0  0  0  0  0  0  0
    3.4389   -2.2623   -2.0452 H   0  0  0  0  0  0  0  0  0  0  0  0
    3.8790   -3.6913   -1.0414 H   0  0  0  0  0  0  0  0  0  0  0  0
    2.1681   -3.1423   -1.1267 H   0  0  0  0  0  0  0  0  0  0  0  0
    3.3677   -1.9520    2.2946 H   0  0  0  0  0  0  0  0  0  0  0  0
    2.1299   -2.9629    1.4702 H   0  0  0  0  0  0  0  0  0  0  0  0
    3.8441   -3.5060    1.5194 H   0  0  0  0  0  0  0  0  0  0  0  0
    6.7912   -1.1430    0.1041 H   0  0  0  0  0  0  0  0  0  0  0  0
    6.1067   -2.4905    1.0893 H   0  0  0  0  0  0  0  0  0  0  0  0
    6.1310   -2.6116   -0.7088 H   0  0  0  0  0  0  0  0  0  0  0  0
    3.2851    3.5067   -1.3311 H   0  0  0  0  0  0  0  0  0  0  0  0
    3.3383    3.7560    0.4374 H   0  0  0  0  0  0  0  0  0  0  0  0
    4.5609    2.6859   -0.3448 H   0  0  0  0  0  0  0  0  0  0  0  0
    0.4961    3.3680   -1.4566 H   0  0  0  0  0  0  0  0  0  0  0  0
    1.2982    4.0631   -0.0147 H   0  0  0  0  0  0  0  0  0  0  0  0
   -0.4962    3.3675    1.4576 H   0  0  0  0  0  0  0  0  0  0  0  0
   -1.2983    4.0632    0.0160 H   0  0  0  0  0  0  0  0  0  0  0  0
   -3.3380    3.7561   -0.4379 H   0  0  0  0  0  0  0  0  0  0  0  0
   -4.5612    2.6858    0.3431 H   0  0  0  0  0  0  0  0  0  0  0  0
   -3.2863    3.5065    1.3305 H   0  0  0  0  0  0  0  0  0  0  0  0
   -6.7911   -1.1431   -0.1065 H   0  0  0  0  0  0  0  0  0  0  0  0
   -6.1059   -2.4908   -1.0909 H   0  0  0  0  0  0  0  0  0  0  0  0
   -6.1315   -2.6115    0.7072 H   0  0  0  0  0  0  0  0  0  0  0  0
   -3.8429   -3.5065   -1.5190 H   0  0  0  0  0  0  0  0  0  0  0  0
   -3.3659   -1.9526   -2.2943 H   0  0  0  0  0  0  0  0  0  0  0  0
   -2.1288   -2.9634   -1.4687 H   0  0  0  0  0  0  0  0  0  0  0  0
   -3.4404   -2.2618    2.0456 H   0  0  0  0  0  0  0  0  0  0  0  0
   -3.8798   -3.6911    1.0418 H   0  0  0  0  0  0  0  0  0  0  0  0
   -2.1689   -3.1421    1.1282 H   0  0  0  0  0  0  0  0  0  0  0  0
  2 14  2  0  0  0  0
  5 10  1  0  0  0  0
  5 13  1  0  0  0  0
  7 19  1  0  0  0  0
  8 23  1  0  0  0  0
  9  1  1  6  0  0  0
  9 10  1  0  0  0  0
 10 12  1  0  0  0  0
 11 30  1  0  0  0  0
 11 10  1  0  0  0  0
 12 33  1  0  0  0  0
 12 34  1  0  0  0  0
 12 32  1  0  0  0  0
 13 36  1  0  0  0  0
 14  5  1  0  0  0  0
 15 14  1  0  0  0  0
 15  9  1  0  0  0  0
 16  6  1  0  0  0  0
 16 15  2  0  0  0  0
 17 40  1  0  0  0  0
 17 16  1  0  0  0  0
 17 39  1  0  0  0  0
 18  6  1  0  0  0  0
 18 42  1  0  0  0  0
 18 19  1  0  0  0  0
 19 43  1  0  0  0  0
 20  7  1  1  0  0  0
 20 21  1  0  0  0  0
 21 47  1  0  0  0  0
 22 20  1  0  0  0  0
 23 22  1  0  0  0  0
 23  3  2  0  0  0  0
 24 48  1  0  0  0  0
 24  8  1  0  0  0  0
 24 50  1  0  0  0  0
 25  8  1  0  0  0  0
 25 28  1  0  0  0  0
 25 27  1  0  0  0  0
 26 25  1  0  0  0  0
 27 56  1  0  0  0  0
 27 54  1  0  0  0  0
 28  4  1  0  0  0  0
 28 22  2  0  0  0  0
 29 11  1  0  0  0  0
 31 11  1  0  0  0  0
 35 13  1  0  0  0  0
 37 13  1  0  0  0  0
 38 17  1  0  0  0  0
 41 18  1  0  0  0  0
 44 19  1  0  0  0  0
 45 21  1  0  0  0  0
 46 21  1  0  0  0  0
 49 24  1  0  0  0  0
 51 26  1  0  0  0  0
 52 26  1  0  0  0  0
 53 26  1  0  0  0  0
 55 27  1  0  0  0  0
M  CHG  1   4  -1
M  END
