1,4,18,21
q = -2.0, confidence = 0.814

 34 33  0  0  0  0  0  0  0  0999 V2000
    1.2581    1.4696   -0.0381 O   0  0  0  0  0  1  0  0  0  0  0  0
    5.3824   -0.9564   -0.0495 O   0  0  0  0  0  0  0  0  0  0  0  0
    5.2826    1.3100    0.0764 O   0  0  0  0  0  0  0  0  0  0  0  0
    1.2588   -1.2643   -0.1501 N   0  0  0  0  0  2  0  0  0  0  0  0
    2.5260    1.3383   -0.0109 C   0  0  0  0  0  3  0  0  0  0  0  0
    3.2442    0.1253   -0.0398 C   0  0  0  0  0  0  0  0  0  0  0  0
    2.5650   -1.1185   -0.1411 C   0  0  0  0  0  0  0  0  0  0  0  0
    0.6598   -2.5814   -0.3774 C   0  0  0  0  0  0  0  0  0  0  0  0
    4.7181    0.0711   -0.0070 C   0  0  0  0  0  0  0  0  0  0  0  0
    6.7111    1.3254    0.1084 C   0  0  0  0  0  0  0  0  0  0  0  0
    3.1075    2.2838    0.0329 H   0  0  0  0  0  0  0  0  0  0  0  0
    3.2060   -2.0178   -0.2272 H   0  0  0  0  0  0  0  0  0  0  0  0
    1.3360   -3.3973   -0.0456 H   0  0  0  0  0  0  0  0  0  0  0  0
    0.4700   -2.7122   -1.4663 H   0  0  0  0  0  0  0  0  0  0  0  0
    7.0966    0.7590    0.9806 H   0  0  0  0  0  0  0  0  0  0  0  0
    7.1358    0.8702   -0.8096 H   0  0  0  0  0  0  0  0  0  0  0  0
    7.0049    2.3880    0.1806 H   0  0  0  0  0  0  0  0  0  0  0  0
   -1.2581    1.4696    0.0377 O   0  0  0  0  0  1  0  0  0  0  0  0
   -5.3824   -0.9564    0.0498 O   0  0  0  0  0  0  0  0  0  0  0  0
   -5.2826    1.3100   -0.0762 O   0  0  0  0  0  0  0  0  0  0  0  0
   -1.2588   -1.2643    0.1501 N   0  0  0  0  0  2  0  0  0  0  0  0
   -2.5260    1.3383    0.0106 C   0  0  0  0  0  3  0  0  0  0  0  0
   -3.2442    0.1253    0.0396 C   0  0  0  0  0  0  0  0  0  0  0  0
   -2.5649   -1.1185    0.1410 C   0  0  0  0  0  0  0  0  0  0  0  0
   -0.6598   -2.5813    0.3775 C   0  0  0  0  0  0  0  0  0  0  0  0
   -4.7181    0.0711    0.0068 C   0  0  0  0  0  0  0  0  0  0  0  0
   -6.7111    1.3255   -0.1076 C   0  0  0  0  0  0  0  0  0  0  0  0
   -3.1075    2.2838   -0.0333 H   0  0  0  0  0  0  0  0  0  0  0  0
   -3.2060   -2.0178    0.2272 H   0  0  0  0  0  0  0  0  0  0  0  0
   -1.3359   -3.3973    0.0458 H   0  0  0  0  0  0  0  0  0  0  0  0
   -0.4699   -2.7120    1.4664 H   0  0  0  0  0  0  0  0  0  0  0  0
   -7.0970    0.7592   -0.9798 H   0  0  0  0  0  0  0  0  0  0  0  0
   -7.1354    0.8700    0.8104 H   0  0  0  0  0  0  0  0  0  0  0  0
   -7.0049    2.3881   -0.1795 H   0  0  0  0  0  0  0  0  0  0  0  0
  1  5  1  0  0  0  0
  2  9  2  0  0  0  0
  3 10  1  0  0  0  0
  4  7  1  0  0  0  0
  5 11  1  0  0  0  0
  6  5  1  0  0  0  0
  6  9  1  0  0  0  0
  7  6  2  0  0  0  0
  8  4  1  0  0  0  0
  8 13  1  0  0  0  0
  8 25  1  0  0  0  0
  9  3  1  0  0  0  0
 10 17  1  0  0  0  0
 10 15  1  0  0  0  0
 12  7  1  0  0  0  0
 14  8  1  0  0  0  0
 16 10  1  0  0  0  0
 20 26  1  0  0  0  0
 21 25  1  0  0  0  0
 22 18  1  0  0  0  0
 22 23  1  0  0  0  0
 23 24  2  0  0  0  0
 24 21  1  0  0  0  0
 24 29  1  0  0  0  0
 25 31  1  0  0  0  0
 26 23  1  0  0  0  0
 26 19  2  0  0  0  0
 27 20  1  0  0  0  0
 27 33  1  0  0  0  0
 28 22  1  0  0  0  0
 30 25  1  0  0  0  0
 32 27  1  0  0  0  0
 34 27  1  0  0  0  0
M  END
