1,2,3,28
q = -2.0, confidence = 0.848

 46 47  0  0  1  0  0  0  0  0999 V2000
    1.3087    1.1211   -0.2073 N   0  0  0  0  0  2  0  0  0  0  0  0
    0.9976   -1.4776   -0.4092 O   0  5  0  0  0  0  0  0  0  0  0  0
   -1.2766    1.1688    0.0126 N   0  0  0  0  0  2  0  0  0  0  0  0
    2.5961    0.9447   -0.4133 C   0  0  1  0  0  3  0  0  0  0  0  0
    4.5730   -0.6150   -0.4662 C   0  0  0  0  0  0  0  0  0  0  0  0
    5.2544    0.2401   -0.3546 H   0  0  0  0  0  0  0  0  0  0  0  0
    2.3113   -1.5414   -0.5364 C   0  0  0  0  0  0  0  0  0  0  0  0
   -2.5955   -1.4424    0.3118 C   0  0  0  0  0  0  0  0  0  0  0  0
    4.2627   -2.9933   -0.8079 C   0  0  0  0  0  0  0  0  0  0  0  0
    4.6822   -3.9999   -0.9589 H   0  0  0  0  0  0  0  0  0  0  0  0
    2.8796   -2.8193   -0.7782 C   0  0  0  0  0  0  0  0  0  0  0  0
    2.1848   -3.6636   -0.8920 H   0  0  0  0  0  0  0  0  0  0  0  0
    3.1712   -0.3997   -0.4236 C   0  0  0  0  0  0  0  0  0  0  0  0
   -3.3262   -2.6704    0.3633 C   0  0  0  0  0  0  0  0  0  0  0  0
   -2.7740   -3.5534    0.7155 H   0  0  0  0  0  0  0  0  0  0  0  0
   -2.6123    1.0493   -0.1232 C   0  0  2  0  0  3  0  0  0  0  0  0
    3.5152    2.1259   -0.6670 C   0  0  0  0  0  0  0  0  0  0  0  0
    2.9874    2.8972   -1.2611 H   0  0  0  0  0  0  0  0  0  0  0  0
    4.3685    1.8055   -1.2937 H   0  0  0  0  0  0  0  0  0  0  0  0
   -3.2719   -0.2334   -0.1244 C   0  0  0  0  0  0  0  0  0  0  0  0
   -0.6574    2.4789    0.2147 C   0  0  0  0  0  0  0  0  0  0  0  0
   -0.5747    2.6276    1.3156 H   0  0  0  0  0  0  0  0  0  0  0  0
   -1.2298    3.3226   -0.2157 H   0  0  0  0  0  0  0  0  0  0  0  0
   -4.6457   -0.3579   -0.5094 C   0  0  0  0  0  0  0  0  0  0  0  0
   -5.1868    0.5289   -0.8666 H   0  0  0  0  0  0  0  0  0  0  0  0
   -4.6535   -2.7387   -0.0267 C   0  0  0  0  0  0  0  0  0  0  0  0
   -5.1898   -3.6992    0.0108 H   0  0  0  0  0  0  0  0  0  0  0  0
   -1.3481   -1.4709    0.6876 O   0  5  0  0  0  0  0  0  0  0  0  0
   -5.3199   -1.5694   -0.4759 C   0  0  0  0  0  0  0  0  0  0  0  0
   -6.3708   -1.6197   -0.7964 H   0  0  0  0  0  0  0  0  0  0  0  0
   -3.4546    2.3017   -0.3026 C   0  0  0  0  0  0  0  0  0  0  0  0
   -3.0881    3.0964    0.3771 H   0  0  0  0  0  0  0  0  0  0  0  0
   -4.4859    2.0945    0.0363 H   0  0  0  0  0  0  0  0  0  0  0  0
    0.7296    2.4521   -0.3970 C   0  0  0  0  0  0  0  0  0  0  0  0
    0.6656    2.6574   -1.4901 H   0  0  0  0  0  0  0  0  0  0  0  0
    1.3453    3.2547    0.0552 H   0  0  0  0  0  0  0  0  0  0  0  0
    4.0278    2.7324    0.6516 C   0  0  0  0  0  0  0  0  0  0  0  0
    3.1889    3.0241    1.3152 H   0  0  0  0  0  0  0  0  0  0  0  0
    4.6529    3.6278    0.4627 H   0  0  0  0  0  0  0  0  0  0  0  0
    4.6358    1.9978    1.2157 H   0  0  0  0  0  0  0  0  0  0  0  0
   -3.4774    2.8150   -1.7514 C   0  0  0  0  0  0  0  0  0  0  0  0
   -4.1024    3.7262   -1.8415 H   0  0  0  0  0  0  0  0  0  0  0  0
   -3.8871    2.0467   -2.4371 H   0  0  0  0  0  0  0  0  0  0  0  0
   -2.4590    3.0636   -2.1137 H   0  0  0  0  0  0  0  0  0  0  0  0
    5.1196   -1.8882   -0.6351 C   0  0  0  0  0  0  0  0  0  0  0  0
    6.2111   -2.0215   -0.6447 H   0  0  0  0  0  0  0  0  0  0  0  0
  3 21  1  0  0  0  0
  4  1  1  6  0  0  0
  5 13  1  0  0  0  0
  5  6  1  0  0  0  0
  7 13  2  0  0  0  0
  7  2  1  0  0  0  0
  8 14  1  0  0  0  0
  8 28  1  0  0  0  0
  9 11  2  0  0  0  0
  9 45  1  0  0  0  0
 10  9  1  0  0  0  0
 11  7  1  0  0  0  0
 12 11  1  0  0  0  0
 13  4  1  0  0  0  0
 14 15  1  0  0  0  0
 16  3  1  6  0  0  0
 17  4  1  0  0  0  0
 17 37  1  0  0  0  0
 18 17  1  0  0  0  0
 19 17  1  0  0  0  0
 20 16  1  0  0  0  0
 20  8  2  0  0  0  0
 21 22  1  0  0  0  0
 23 21  1  0  0  0  0
 24 29  2  0  0  0  0
 24 20  1  0  0  0  0
 25 24  1  0  0  0  0
 26 27  1  0  0  0  0
 26 14  2  0  0  0  0
 29 26  1  0  0  0  0
 30 29  1  0  0  0  0
 31 16  1  0  0  0  0
 31 33  1  0  0  0  0
 31 32  1  0  0  0  0
 34  1  1  0  0  0  0
 34 36  1  0  0  0  0
 34 21  1  0  0  0  0
 35 34  1  0  0  0  0
 37 40  1  0  0  0  0
 37 38  1  0  0  0  0
 39 37  1  0  0  0  0
 41 31  1  0  0  0  0
 42 41  1  0  0  0  0
 43 41  1  0  0  0  0
 44 41  1  0  0  0  0
 45  5  2  0  0  0  0
 46 45  1  0  0  0  0
M  CHG  2   2  -1  28  -1
M  END
