1,3,5,6
q = -2.0, confidence = 0.758

 42 42  0  0  0  0  0  0  0  0999 V2000
    1.7678   -0.3088   -0.4738 O   0  5  0  0  0  0  0  0  0  0  0  0
    3.6984   -1.4504   -0.6911 O   0  0  0  0  0  0  0  0  0  0  0  0
    0.1488    1.7518   -0.7483 O   0  5  0  0  0  0  0  0  0  0  0  0
   -0.4639    3.8127   -1.4453 O   0  0  0  0  0  0  0  0  0  0  0  0
   -0.3511   -1.7656    0.7862 N   0  0  0  0  0  2  0  0  0  0  0  0
   -1.9360    0.2408    0.4976 N   0  0  0  0  0  2  0  0  0  0  0  0
    3.4859   -4.6294    0.6156 N   0  0  0  0  0  0  0  0  0  0  0  0
   -3.7713    4.4803   -0.7640 N   0  0  0  0  0  0  0  0  0  0  0  0
    2.4120   -1.3761   -0.2820 C   0  0  0  0  0  0  0  0  0  0  0  0
    1.9164   -2.5702    0.3469 C   0  0  0  0  0  0  0  0  0  0  0  0
    0.5916   -2.6987    0.8396 C   0  0  0  0  0  3  0  0  0  0  0  0
    0.3518   -3.6732    1.3003 H   0  0  0  0  0  0  0  0  0  0  0  0
    2.7907   -3.6883    0.4854 C   0  0  0  0  0  0  0  0  0  0  0  0
    4.2481   -0.2998   -1.3484 C   0  0  0  0  0  0  0  0  0  0  0  0
    4.2089    0.5730   -0.6596 H   0  0  0  0  0  0  0  0  0  0  0  0
    3.6171   -0.0400   -2.2261 H   0  0  0  0  0  0  0  0  0  0  0  0
    5.6698   -0.6380   -1.7505 C   0  0  0  0  0  0  0  0  0  0  0  0
    6.2811   -0.8937   -0.8627 H   0  0  0  0  0  0  0  0  0  0  0  0
    6.1378    0.2259   -2.2625 H   0  0  0  0  0  0  0  0  0  0  0  0
    5.6880   -1.5057   -2.4388 H   0  0  0  0  0  0  0  0  0  0  0  0
   -1.6446   -1.9816    1.2951 C   0  0  0  0  0  0  0  0  0  0  0  0
   -2.1195   -3.1556    1.9195 C   0  0  0  0  0  0  0  0  0  0  0  0
   -1.4548   -4.0206    2.0521 H   0  0  0  0  0  0  0  0  0  0  0  0
   -3.4399   -3.2292    2.3801 C   0  0  0  0  0  0  0  0  0  0  0  0
   -3.7951   -4.1497    2.8670 H   0  0  0  0  0  0  0  0  0  0  0  0
   -4.3062   -2.1305    2.2251 C   0  0  0  0  0  0  0  0  0  0  0  0
   -5.3424   -2.1867    2.5906 H   0  0  0  0  0  0  0  0  0  0  0  0
   -3.8530   -0.9578    1.6081 C   0  0  0  0  0  0  0  0  0  0  0  0
   -4.5402   -0.1070    1.4995 H   0  0  0  0  0  0  0  0  0  0  0  0
   -2.5258   -0.8661    1.1351 C   0  0  0  0  0  0  0  0  0  0  0  0
   -0.7512    2.6272   -0.8572 C   0  0  0  0  0  0  0  0  0  0  0  0
   -2.1132    2.5046   -0.4125 C   0  0  0  0  0  0  0  0  0  0  0  0
   -2.6208    1.3468    0.2318 C   0  0  0  0  0  3  0  0  0  0  0  0
   -3.6841    1.3983    0.5253 H   0  0  0  0  0  0  0  0  0  0  0  0
   -3.0060    3.5984   -0.6146 C   0  0  0  0  0  0  0  0  0  0  0  0
    0.8937    4.0515   -1.8482 C   0  0  0  0  0  0  0  0  0  0  0  0
    0.8144    4.7615   -2.6951 H   0  0  0  0  0  0  0  0  0  0  0  0
    1.3442    3.1054   -2.2113 H   0  0  0  0  0  0  0  0  0  0  0  0
    1.7133    4.6461   -0.7121 C   0  0  0  0  0  0  0  0  0  0  0  0
    1.2462    5.5775   -0.3353 H   0  0  0  0  0  0  0  0  0  0  0  0
    2.7380    4.8859   -1.0622 H   0  0  0  0  0  0  0  0  0  0  0  0
    1.7912    3.9303    0.1299 H   0  0  0  0  0  0  0  0  0  0  0  0
  1  9  1  0  0  0  0
  2  9  1  0  0  0  0
  4 31  1  0  0  0  0
  5 11  1  0  0  0  0
  5 21  1  0  0  0  0
  6 30  1  0  0  0  0
  8 35  3  0  0  0  0
  9 10  2  0  0  0  0
 10 13  1  0  0  0  0
 10 11  1  0  0  0  0
 11 12  1  0  0  0  0
 13  7  3  0  0  0  0
 14  2  1  0  0  0  0
 14 15  1  0  0  0  0
 16 14  1  0  0  0  0
 17 14  1  0  0  0  0
 17 18  1  0  0  0  0
 19 17  1  0  0  0  0
 20 17  1  0  0  0  0
 21 22  1  0  0  0  0
 22 23  1  0  0  0  0
 22 24  2  0  0  0  0
 24 25  1  0  0  0  0
 26 24  1  0  0  0  0
 26 27  1  0  0  0  0
 28 26  2  0  0  0  0
 29 28  1  0  0  0  0
 30 21  2  0  0  0  0
 30 28  1  0  0  0  0
 31  3  1  0  0  0  0
 31 32  2  0  0  0  0
 32 33  1  0  0  0  0
 33  6  1  0  0  0  0
 33 34  1  0  0  0  0
 35 32  1  0  0  0  0
 36  4  1  0  0  0  0
 36 39  1  0  0  0  0
 37 36  1  0  0  0  0
 38 36  1  0  0  0  0
 39 40  1  0  0  0  0
 39 42  1  0  0  0  0
 41 39  1  0  0  0  0
M  CHG  2   1  -1   3  -1
M  END
