1,2,3,4
q = -2.0, confidence = 0.862

 72 74  0  0  1  0  0  0  0  0999 V2000
   -1.2732   -0.4664    0.3797 O   0  5  0  0  0  0  0  0  0  0  0  0
    1.1980   -0.4244   -0.3669 O   0  5  0  0  0  0  0  0  0  0  0  0
   -1.1905    2.2514   -0.0967 N   0  0  0  0  0  2  0  0  0  0  0  0
    1.3443    2.2444   -0.2533 N   0  0  0  0  0  2  0  0  0  0  0  0
   -5.4324   -2.7767   -0.1181 N   0  0  0  0  0  0  0  0  0  0  0  0
    5.2363   -2.9800   -0.5985 N   0  0  0  0  0  0  0  0  0  0  0  0
   -0.6116    3.5845    0.1027 C   0  0  1  0  0  0  0  0  0  0  0  0
    0.7556    3.5493   -0.5856 C   0  0  1  0  0  0  0  0  0  0  0  0
    1.5690    4.8027   -0.2490 C   0  0  0  0  0  0  0  0  0  0  0  0
    0.7793    6.0619   -0.6377 C   0  0  0  0  0  0  0  0  0  0  0  0
   -0.6173    6.0859   -0.0051 C   0  0  0  0  0  0  0  0  0  0  0  0
   -1.4161    4.8125   -0.3246 C   0  0  0  0  0  0  0  0  0  0  0  0
   -2.5442   -0.3962    0.0981 C   0  0  0  0  0  0  0  0  0  0  0  0
   -3.1996    0.8579   -0.2287 C   0  0  0  0  0  0  0  0  0  0  0  0
   -4.6015    0.8224   -0.4875 C   0  0  0  0  0  0  0  0  0  0  0  0
   -5.3330   -0.3485   -0.4576 C   0  0  0  0  0  0  0  0  0  0  0  0
   -4.6957   -1.6055   -0.1538 C   0  0  0  0  0  0  0  0  0  0  0  0
   -3.3134   -1.5895    0.1161 C   0  0  0  0  0  0  0  0  0  0  0  0
    2.5185   -0.4181   -0.3792 C   0  0  0  0  0  0  0  0  0  0  0  0
    3.2845    0.7945   -0.2803 C   0  0  0  0  0  0  0  0  0  0  0  0
    4.6964    0.6844   -0.2943 C   0  0  0  0  0  0  0  0  0  0  0  0
    5.3485   -0.5385   -0.3735 C   0  0  0  0  0  0  0  0  0  0  0  0
    4.5991   -1.7553   -0.4890 C   0  0  0  0  0  0  0  0  0  0  0  0
    3.1860   -1.6541   -0.5061 C   0  0  0  0  0  0  0  0  0  0  0  0
   -2.5039    2.0909   -0.2619 C   0  0  0  0  0  3  0  0  0  0  0  0
   -6.8397   -2.8212   -0.4924 C   0  0  0  0  0  0  0  0  0  0  0  0
   -7.7990   -2.5360    0.6677 C   0  0  0  0  0  0  0  0  0  0  0  0
   -4.8255   -4.0360    0.2931 C   0  0  0  0  0  0  0  0  0  0  0  0
   -4.1442   -4.7956   -0.8497 C   0  0  0  0  0  0  0  0  0  0  0  0
    2.6411    2.0721   -0.3327 C   0  0  0  0  0  3  0  0  0  0  0  0
    6.6835   -3.0899   -0.4568 C   0  0  0  0  0  0  0  0  0  0  0  0
    7.2004   -3.0267    0.9856 C   0  0  0  0  0  0  0  0  0  0  0  0
    4.4643   -4.2146   -0.6842 C   0  0  0  0  0  0  0  0  0  0  0  0
    3.9396   -4.7462    0.6551 C   0  0  0  0  0  0  0  0  0  0  0  0
   -0.4144    3.6504    1.2012 H   0  0  0  0  0  0  0  0  0  0  0  0
    0.5601    3.5446   -1.6862 H   0  0  0  0  0  0  0  0  0  0  0  0
    1.7916    4.7991    0.8403 H   0  0  0  0  0  0  0  0  0  0  0  0
    2.5429    4.8006   -0.7794 H   0  0  0  0  0  0  0  0  0  0  0  0
    1.3488    6.9696   -0.3497 H   0  0  0  0  0  0  0  0  0  0  0  0
    0.6782    6.0960   -1.7456 H   0  0  0  0  0  0  0  0  0  0  0  0
   -0.5161    6.1760    1.0989 H   0  0  0  0  0  0  0  0  0  0  0  0
   -1.1783    6.9821   -0.3419 H   0  0  0  0  0  0  0  0  0  0  0  0
   -2.3918    4.8442    0.2022 H   0  0  0  0  0  0  0  0  0  0  0  0
   -1.6352    4.7588   -1.4147 H   0  0  0  0  0  0  0  0  0  0  0  0
   -5.1156    1.7708   -0.7139 H   0  0  0  0  0  0  0  0  0  0  0  0
   -6.4121   -0.3034   -0.6491 H   0  0  0  0  0  0  0  0  0  0  0  0
   -2.7523   -2.5021    0.3493 H   0  0  0  0  0  0  0  0  0  0  0  0
    5.2955    1.6076   -0.2346 H   0  0  0  0  0  0  0  0  0  0  0  0
    6.4447   -0.5549   -0.3588 H   0  0  0  0  0  0  0  0  0  0  0  0
    2.5376   -2.5348   -0.5771 H   0  0  0  0  0  0  0  0  0  0  0  0
   -3.1174    2.9956   -0.4282 H   0  0  0  0  0  0  0  0  0  0  0  0
    3.2935    2.9447   -0.5307 H   0  0  0  0  0  0  0  0  0  0  0  0
   -5.6235   -4.6641    0.7430 H   0  0  0  0  0  0  0  0  0  0  0  0
   -4.1029   -3.8392    1.1119 H   0  0  0  0  0  0  0  0  0  0  0  0
   -3.7088   -5.7480   -0.4848 H   0  0  0  0  0  0  0  0  0  0  0  0
   -4.8681   -5.0376   -1.6545 H   0  0  0  0  0  0  0  0  0  0  0  0
   -3.3298   -4.1923   -1.2970 H   0  0  0  0  0  0  0  0  0  0  0  0
   -7.0441   -3.8295   -0.9112 H   0  0  0  0  0  0  0  0  0  0  0  0
   -7.0218   -2.1161   -1.3292 H   0  0  0  0  0  0  0  0  0  0  0  0
   -8.8548   -2.6067    0.3352 H   0  0  0  0  0  0  0  0  0  0  0  0
   -7.6518   -3.2624    1.4927 H   0  0  0  0  0  0  0  0  0  0  0  0
   -7.6323   -1.5215    1.0815 H   0  0  0  0  0  0  0  0  0  0  0  0
    6.9842   -4.0515   -0.9211 H   0  0  0  0  0  0  0  0  0  0  0  0
    7.1700   -2.2998   -1.0681 H   0  0  0  0  0  0  0  0  0  0  0  0
    8.3082   -3.0802    1.0044 H   0  0  0  0  0  0  0  0  0  0  0  0
    6.8071   -3.8658    1.5926 H   0  0  0  0  0  0  0  0  0  0  0  0
    6.8938   -2.0827    1.4781 H   0  0  0  0  0  0  0  0  0  0  0  0
    5.1149   -4.9761   -1.1623 H   0  0  0  0  0  0  0  0  0  0  0  0
    3.6185   -4.0571   -1.3862 H   0  0  0  0  0  0  0  0  0  0  0  0
    3.3256   -5.6562    0.4965 H   0  0  0  0  0  0  0  0  0  0  0  0
    4.7703   -5.0112    1.3388 H   0  0  0  0  0  0  0  0  0  0  0  0
    3.3079   -3.9921    1.1646 H   0  0  0  0  0  0  0  0  0  0  0  0
  3  7  1  0  0  0  0
  5 28  1  0  0  0  0
  6 23  1  0  0  0  0
  6 31  1  0  0  0  0
  7 35  1  1  0  0  0
  8 36  1  6  0  0  0
  8  4  1  0  0  0  0
  8  9  1  0  0  0  0
  8  7  1  0  0  0  0
  9 37  1  0  0  0  0
 10 39  1  0  0  0  0
 10  9  1  0  0  0  0
 10 11  1  0  0  0  0
 11 41  1  0  0  0  0
 12 11  1  0  0  0  0
 12  7  1  0  0  0  0
 12 43  1  0  0  0  0
 13 18  1  0  0  0  0
 13  1  1  0  0  0  0
 14 13  2  0  0  0  0
 15 16  2  0  0  0  0
 15 14  1  0  0  0  0
 16 17  1  0  0  0  0
 17  5  1  0  0  0  0
 17 18  2  0  0  0  0
 18 47  1  0  0  0  0
 19  2  1  0  0  0  0
 19 20  1  0  0  0  0
 21 20  2  0  0  0  0
 21 48  1  0  0  0  0
 22 49  1  0  0  0  0
 22 21  1  0  0  0  0
 23 22  2  0  0  0  0
 24 23  1  0  0  0  0
 24 19  2  0  0  0  0
 25 14  1  0  0  0  0
 25  3  1  0  0  0  0
 26  5  1  0  0  0  0
 26 27  1  0  0  0  0
 27 62  1  0  0  0  0
 27 61  1  0  0  0  0
 28 53  1  0  0  0  0
 28 54  1  0  0  0  0
 29 55  1  0  0  0  0
 29 28  1  0  0  0  0
 30 20  1  0  0  0  0
 30  4  1  0  0  0  0
 31 32  1  0  0  0  0
 32 65  1  0  0  0  0
 32 67  1  0  0  0  0
 32 66  1  0  0  0  0
 33  6  1  0  0  0  0
 33 34  1  0  0  0  0
 34 72  1  0  0  0  0
 34 71  1  0  0  0  0
 38  9  1  0  0  0  0
 40 10  1  0  0  0  0
 42 11  1  0  0  0  0
 44 12  1  0  0  0  0
 45 15  1  0  0  0  0
 46 16  1  0  0  0  0
 50 24  1  0  0  0  0
 51 25  1  0  0  0  0
 52 30  1  0  0  0  0
 56 29  1  0  0  0  0
 57 29  1  0  0  0  0
 58 26  1  0  0  0  0
 59 26  1  0  0  0  0
 60 27  1  0  0  0  0
 63 31  1  0  0  0  0
 64 31  1  0  0  0  0
 68 33  1  0  0  0  0
 69 33  1  0  0  0  0
 70 34  1  0  0  0  0
M  CHG  2   1  -1   2  -1
M  END
