1,2,5,6
q = -2.0, confidence = 0.832

 52 54  0  0  0  0  0  0  0  0999 V2000
   -1.2263   -1.6125    0.0007 O   0  5  0  0  0  0  0  0  0  0  0  0
    1.2324   -1.4920    0.0008 O   0  5  0  0  0  0  0  0  0  0  0  0
   -5.3114   -4.0754   -0.0007 O   0  0  0  0  0  0  0  0  0  0  0  0
    5.3899   -3.6397    0.0001 O   0  0  0  0  0  0  0  0  0  0  0  0
   -1.4050    1.1253    0.0003 N   0  0  0  0  0  2  0  0  0  0  0  0
    1.1409    1.2524   -0.0000 N   0  0  0  0  0  2  0  0  0  0  0  0
   -2.5188   -1.6085    0.0003 C   0  0  0  0  0  0  0  0  0  0  0  0
   -3.2011   -2.8648   -0.0001 C   0  0  0  0  0  0  0  0  0  0  0  0
   -2.5681   -3.7604   -0.0002 H   0  0  0  0  0  0  0  0  0  0  0  0
   -4.5946   -2.9236   -0.0003 C   0  0  0  0  0  0  0  0  0  0  0  0
   -5.3808   -1.7281   -0.0002 C   0  0  0  0  0  0  0  0  0  0  0  0
   -6.4751   -1.8210   -0.0003 H   0  0  0  0  0  0  0  0  0  0  0  0
   -4.7432   -0.5059    0.0001 C   0  0  0  0  0  3  0  0  0  0  0  0
   -5.3380    0.4215    0.0002 H   0  0  0  0  0  0  0  0  0  0  0  0
   -3.3169   -0.3974    0.0003 C   0  0  0  0  0  0  0  0  0  0  0  0
   -2.7094    0.8783    0.0005 C   0  0  0  0  0  0  0  0  0  0  0  0
   -3.3955    1.7443    0.0006 H   0  0  0  0  0  0  0  0  0  0  0  0
   -0.9037    2.4436    0.0002 C   0  0  0  0  0  0  0  0  0  0  0  0
   -1.6545    3.6348    0.0002 C   0  0  0  0  0  0  0  0  0  0  0  0
   -2.7532    3.6002    0.0004 H   0  0  0  0  0  0  0  0  0  0  0  0
   -1.0308    4.8915   -0.0001 C   0  0  0  0  0  0  0  0  0  0  0  0
    0.3928    4.9631   -0.0004 C   0  0  0  0  0  0  0  0  0  0  0  0
    1.1383    3.7746   -0.0004 C   0  0  0  0  0  0  0  0  0  0  0  0
    2.2351    3.8495   -0.0007 H   0  0  0  0  0  0  0  0  0  0  0  0
    0.5096    2.5151   -0.0001 C   0  0  0  0  0  0  0  0  0  0  0  0
    2.4618    1.1374   -0.0001 C   0  0  0  0  0  0  0  0  0  0  0  0
    3.0586    2.0671   -0.0003 H   0  0  0  0  0  0  0  0  0  0  0  0
    3.1935   -0.0737   -0.0001 C   0  0  0  0  0  0  0  0  0  0  0  0
    4.6179   -0.0356   -0.0004 C   0  0  0  0  0  3  0  0  0  0  0  0
    5.1146    0.9481   -0.0008 H   0  0  0  0  0  0  0  0  0  0  0  0
    5.3877   -1.1868   -0.0004 C   0  0  0  0  0  0  0  0  0  0  0  0
    6.4822   -1.1154   -0.0007 H   0  0  0  0  0  0  0  0  0  0  0  0
    4.7256   -2.4538    0.0000 C   0  0  0  0  0  0  0  0  0  0  0  0
    3.3312   -2.5307    0.0004 C   0  0  0  0  0  0  0  0  0  0  0  0
    2.8383   -3.5117    0.0008 H   0  0  0  0  0  0  0  0  0  0  0  0
    2.5202   -1.3618    0.0004 C   0  0  0  0  0  0  0  0  0  0  0  0
   -4.6081   -5.3058   -0.0009 C   0  0  0  0  0  0  0  0  0  0  0  0
   -5.3737   -6.1035   -0.0013 H   0  0  0  0  0  0  0  0  0  0  0  0
   -3.9678   -5.4127    0.9024 H   0  0  0  0  0  0  0  0  0  0  0  0
   -3.9675   -5.4122   -0.9042 H   0  0  0  0  0  0  0  0  0  0  0  0
    6.8052   -3.6362   -0.0004 C   0  0  0  0  0  0  0  0  0  0  0  0
    7.1183   -4.6969   -0.0003 H   0  0  0  0  0  0  0  0  0  0  0  0
    7.2218   -3.1390    0.9039 H   0  0  0  0  0  0  0  0  0  0  0  0
    7.2211   -3.1393   -0.9051 H   0  0  0  0  0  0  0  0  0  0  0  0
   -1.8566    6.1515   -0.0000 C   0  0  0  0  0  0  0  0  0  0  0  0
   -2.9404    5.9278    0.0001 H   0  0  0  0  0  0  0  0  0  0  0  0
   -1.6411    6.7828   -0.8883 H   0  0  0  0  0  0  0  0  0  0  0  0
   -1.6409    6.7828    0.8883 H   0  0  0  0  0  0  0  0  0  0  0  0
    1.0887    6.2992   -0.0007 C   0  0  0  0  0  0  0  0  0  0  0  0
    2.1894    6.1847   -0.0009 H   0  0  0  0  0  0  0  0  0  0  0  0
    0.8116    6.9062    0.8875 H   0  0  0  0  0  0  0  0  0  0  0  0
    0.8112    6.9059   -0.8891 H   0  0  0  0  0  0  0  0  0  0  0  0
  3 10  1  0  0  0  0
  5 16  1  0  0  0  0
  7 15  1  0  0  0  0
  7  1  1  0  0  0  0
  8  7  2  0  0  0  0
  9  8  1  0  0  0  0
 10 11  2  0  0  0  0
 10  8  1  0  0  0  0
 11 13  1  0  0  0  0
 12 11  1  0  0  0  0
 13 14  1  0  0  0  0
 13 15  1  0  0  0  0
 15 16  2  0  0  0  0
 16 17  1  0  0  0  0
 18 19  1  0  0  0  0
 18  5  1  0  0  0  0
 19 20  1  0  0  0  0
 21 45  1  0  0  0  0
 21 19  2  0  0  0  0
 22 21  1  0  0  0  0
 23 22  2  0  0  0  0
 23 25  1  0  0  0  0
 24 23  1  0  0  0  0
 25  6  1  0  0  0  0
 25 18  2  0  0  0  0
 26 28  2  0  0  0  0
 26  6  1  0  0  0  0
 27 26  1  0  0  0  0
 28 36  1  0  0  0  0
 29 31  1  0  0  0  0
 29 28  1  0  0  0  0
 30 29  1  0  0  0  0
 31 33  2  0  0  0  0
 32 31  1  0  0  0  0
 33  4  1  0  0  0  0
 33 34  1  0  0  0  0
 34 35  1  0  0  0  0
 36 34  2  0  0  0  0
 36  2  1  0  0  0  0
 37  3  1  0  0  0  0
 37 39  1  0  0  0  0
 38 37  1  0  0  0  0
 40 37  1  0  0  0  0
 41 42  1  0  0  0  0
 41  4  1  0  0  0  0
 41 43  1  0  0  0  0
 44 41  1  0  0  0  0
 45 46  1  0  0  0  0
 45 48  1  0  0  0  0
 47 45  1  0  0  0  0
 49 22  1  0  0  0  0
 49 51  1  0  0  0  0
 50 49  1  0  0  0  0
 52 49  1  0  0  0  0
M  CHG  2   1  -1   2  -1
M  END
