1,2,5,6
q = -2.0, confidence = 0.86

 48 49  0  0  1  0  0  0  0  0999 V2000
    0.8488   -2.0262   -0.3010 O   0  5  0  0  0  0  0  0  0  0  0  0
   -1.6331   -1.7405   -0.1673 O   0  0  0  0  0  1  0  0  0  0  0  0
    2.0921    1.9593    2.4830 O   0  0  0  0  0  0  0  0  0  0  0  0
    0.2153    3.7960   -1.7140 O   0  0  0  0  0  0  0  0  0  0  0  0
    1.1944    0.6448    0.0751 N   0  0  0  0  0  2  0  0  0  0  0  0
   -1.3220    0.9509    0.0248 N   0  0  0  0  0  2  0  0  0  0  0  0
    0.7714    2.0912    2.0206 C   0  0  0  0  0  0  0  0  0  0  0  0
    0.3304    3.0753    2.3217 H   0  0  0  0  0  0  0  0  0  0  0  0
    0.1129    1.2858    2.4306 H   0  0  0  0  0  0  0  0  0  0  0  0
    0.7858    1.9909    0.4935 C   0  0  2  0  0  0  0  0  0  0  0  0
    1.4918    2.7527    0.0999 H   0  0  0  0  0  0  0  0  0  0  0  0
   -0.5957    2.2159   -0.1204 C   0  0  1  0  0  0  0  0  0  0  0  0
   -1.1264    3.0398    0.4058 H   0  0  0  0  0  0  0  0  0  0  0  0
   -0.4959    2.5870   -1.6061 C   0  0  0  0  0  0  0  0  0  0  0  0
    0.0143    1.7544   -2.1516 H   0  0  0  0  0  0  0  0  0  0  0  0
   -1.5267    2.6765   -2.0311 H   0  0  0  0  0  0  0  0  0  0  0  0
    2.1852    1.7622    3.8752 C   0  0  0  0  0  0  0  0  0  0  0  0
    3.2574    1.6478    4.1256 H   0  0  0  0  0  0  0  0  0  0  0  0
    1.6413    0.8435    4.2020 H   0  0  0  0  0  0  0  0  0  0  0  0
    1.7757    2.6277    4.4508 H   0  0  0  0  0  0  0  0  0  0  0  0
    0.4548    4.1796   -3.0494 C   0  0  0  0  0  0  0  0  0  0  0  0
    1.0273    5.1269   -3.0288 H   0  0  0  0  0  0  0  0  0  0  0  0
   -0.4948    4.3489   -3.6125 H   0  0  0  0  0  0  0  0  0  0  0  0
    1.0480    3.4127   -3.6036 H   0  0  0  0  0  0  0  0  0  0  0  0
    2.4752    0.3639   -0.0156 C   0  0  0  0  0  0  0  0  0  0  0  0
    3.1883    1.1941    0.1446 H   0  0  0  0  0  0  0  0  0  0  0  0
    3.0145   -0.9281   -0.2879 C   0  0  0  0  0  0  0  0  0  0  0  0
    4.4240   -1.0890   -0.4164 C   0  0  0  0  0  3  0  0  0  0  0  0
    5.0625   -0.1970   -0.3097 H   0  0  0  0  0  0  0  0  0  0  0  0
    4.9895   -2.3312   -0.6674 C   0  0  0  0  0  0  0  0  0  0  0  0
    6.0789   -2.4423   -0.7654 H   0  0  0  0  0  0  0  0  0  0  0  0
    4.1376   -3.4593   -0.7936 C   0  0  0  0  0  0  0  0  0  0  0  0
    4.5760   -4.4504   -0.9917 H   0  0  0  0  0  0  0  0  0  0  0  0
    2.7594   -3.3411   -0.6708 C   0  0  0  0  0  0  0  0  0  0  0  0
    2.0931   -4.2106   -0.7650 H   0  0  0  0  0  0  0  0  0  0  0  0
    2.1413   -2.0747   -0.4142 C   0  0  0  0  0  0  0  0  0  0  0  0
   -2.6332    0.9655    0.1393 C   0  0  0  0  0  0  0  0  0  0  0  0
   -3.1272    1.9556    0.2120 H   0  0  0  0  0  0  0  0  0  0  0  0
   -3.4692   -0.1877    0.1711 C   0  0  0  0  0  0  0  0  0  0  0  0
   -4.8758   -0.0366    0.3455 C   0  0  0  0  0  0  0  0  0  0  0  0
   -5.2810    0.9809    0.4702 H   0  0  0  0  0  0  0  0  0  0  0  0
   -5.7232   -1.1346    0.3577 C   0  0  0  0  0  0  0  0  0  0  0  0
   -6.8065   -1.0056    0.4937 H   0  0  0  0  0  0  0  0  0  0  0  0
   -5.1694   -2.4313    0.1884 C   0  0  0  0  0  0  0  0  0  0  0  0
   -5.8346   -3.3093    0.1948 H   0  0  0  0  0  0  0  0  0  0  0  0
   -3.8049   -2.6171    0.0135 C   0  0  0  0  0  0  0  0  0  0  0  0
   -3.3690   -3.6177   -0.1191 H   0  0  0  0  0  0  0  0  0  0  0  0
   -2.8975   -1.5080    0.0009 C   0  0  1  0  0  3  0  0  0  0  0  0
  3 17  1  0  0  0  0
  4 14  1  0  0  0  0
  5 10  1  0  0  0  0
  6 37  1  0  0  0  0
  7  8  1  0  0  0  0
  7  9  1  0  0  0  0
  7  3  1  0  0  0  0
 10 11  1  6  0  0  0
 10  7  1  0  0  0  0
 12  6  1  0  0  0  0
 12 13  1  1  0  0  0
 12 10  1  0  0  0  0
 14 12  1  0  0  0  0
 15 14  1  0  0  0  0
 16 14  1  0  0  0  0
 17 18  1  0  0  0  0
 17 19  1  0  0  0  0
 17 20  1  0  0  0  0
 21 22  1  0  0  0  0
 21  4  1  0  0  0  0
 23 21  1  0  0  0  0
 24 21  1  0  0  0  0
 25  5  1  0  0  0  0
 25 26  1  0  0  0  0
 27 25  2  0  0  0  0
 28 29  1  0  0  0  0
 28 27  1  0  0  0  0
 30 28  1  0  0  0  0
 31 30  1  0  0  0  0
 32 34  1  0  0  0  0
 32 30  2  0  0  0  0
 33 32  1  0  0  0  0
 34 36  2  0  0  0  0
 35 34  1  0  0  0  0
 36  1  1  0  0  0  0
 36 27  1  0  0  0  0
 37 39  2  0  0  0  0
 37 38  1  0  0  0  0
 39 40  1  0  0  0  0
 40 42  2  0  0  0  0
 40 41  1  0  0  0  0
 42 43  1  0  0  0  0
 44 45  1  0  0  0  0
 44 42  1  0  0  0  0
 46 44  2  0  0  0  0
 47 46  1  0  0  0  0
 48  2  1  6  0  0  0
 48 46  1  0  0  0  0
 48 39  1  0  0  0  0
M  CHG  1   1  -1
M  END
