1,2,6,7
q = -2.0, confidence = 0.816

 52 53  0  0  1  0  0  0  0  0999 V2000
   -1.4280   -1.6490   -0.1100 O   0  0  0  0  0  1  0  0  0  0  0  0
   -1.3482    1.0686   -0.1044 N   0  0  0  0  0  2  0  0  0  0  0  0
   -0.5808    2.6589   -1.8240 C   0  0  0  0  0  0  0  0  0  0  0  0
    0.0022    1.8286   -2.2738 H   0  0  0  0  0  0  0  0  0  0  0  0
   -1.5976    2.6542   -2.2863 H   0  0  0  0  0  0  0  0  0  0  0  0
    1.0668   -1.7343   -0.0873 O   0  0  0  0  0  1  0  0  0  0  0  0
    1.1793    0.9790    0.0771 N   0  0  0  0  0  2  0  0  0  0  0  0
   -0.7212    2.3776   -0.3058 C   0  0  2  0  0  0  0  0  0  0  0  0
   -1.3464    3.1717    0.1588 H   0  0  0  0  0  0  0  0  0  0  0  0
   -7.0043   -1.3082    0.2320 N   0  0  0  0  0  0  0  0  0  0  0  0
    0.1119    3.8509   -2.0989 O   0  0  0  0  0  0  0  0  0  0  0  0
    0.6473    2.3127    0.3685 C   0  0  1  0  0  0  0  0  0  0  0  0
    1.3005    3.0920   -0.0808 H   0  0  0  0  0  0  0  0  0  0  0  0
    1.8114    2.4533    2.5332 O   0  0  0  0  0  0  0  0  0  0  0  0
    6.6607   -1.7704   -0.2694 N   0  0  0  0  0  0  0  0  0  0  0  0
    0.5611    2.5221    1.8966 C   0  0  0  0  0  0  0  0  0  0  0  0
    0.0547    3.4994    2.0924 H   0  0  0  0  0  0  0  0  0  0  0  0
   -0.0660    1.7135    2.3268 H   0  0  0  0  0  0  0  0  0  0  0  0
   -7.5263   -0.1893    0.2624 O   0  0  0  0  0  0  0  0  0  0  0  0
   -0.6573    5.0278   -1.9459 C   0  0  0  0  0  0  0  0  0  0  0  0
   -0.0346    5.8752   -2.2907 H   0  0  0  0  0  0  0  0  0  0  0  0
   -0.9523    5.2226   -0.8872 H   0  0  0  0  0  0  0  0  0  0  0  0
   -1.5866    4.9939   -2.5622 H   0  0  0  0  0  0  0  0  0  0  0  0
   -7.6216   -2.3759    0.2711 O   0  0  0  0  0  0  0  0  0  0  0  0
    2.5840    3.6323    2.4358 C   0  0  0  0  0  0  0  0  0  0  0  0
    3.5137    3.4647    3.0121 H   0  0  0  0  0  0  0  0  0  0  0  0
    2.0494    4.5125    2.8655 H   0  0  0  0  0  0  0  0  0  0  0  0
    2.8664    3.8851    1.3853 H   0  0  0  0  0  0  0  0  0  0  0  0
   -2.6582    0.9780   -0.0595 C   0  0  0  0  0  0  0  0  0  0  0  0
   -3.2397    1.9212   -0.0810 H   0  0  0  0  0  0  0  0  0  0  0  0
    7.2604   -0.6925   -0.2078 O   0  0  0  0  0  0  0  0  0  0  0  0
   -3.3967   -0.2428    0.0104 C   0  0  0  0  0  0  0  0  0  0  0  0
    7.2033   -2.8744   -0.3683 O   0  0  0  0  0  0  0  0  0  0  0  0
   -4.8083   -0.1972    0.0961 C   0  0  0  0  0  0  0  0  0  0  0  0
   -5.3484    0.7600    0.1253 H   0  0  0  0  0  0  0  0  0  0  0  0
   -5.5404   -1.3759    0.1426 C   0  0  0  0  0  0  0  0  0  0  0  0
   -4.8982   -2.6395    0.1019 C   0  0  0  0  0  0  0  0  0  0  0  0
   -5.5229   -3.5423    0.1401 H   0  0  0  0  0  0  0  0  0  0  0  0
   -3.5195   -2.7076    0.0158 C   0  0  0  0  0  0  0  0  0  0  0  0
   -2.9929   -3.6717   -0.0180 H   0  0  0  0  0  0  0  0  0  0  0  0
   -2.7103   -1.5217   -0.0298 C   0  0  1  0  0  3  0  0  0  0  0  0
    2.4786    0.7981    0.0659 C   0  0  0  0  0  0  0  0  0  0  0  0
    3.1235    1.6915    0.1602 H   0  0  0  0  0  0  0  0  0  0  0  0
    3.1312   -0.4672   -0.0650 C   0  0  0  0  0  0  0  0  0  0  0  0
    4.5435   -0.5166   -0.1119 C   0  0  0  0  0  0  0  0  0  0  0  0
    5.1481    0.4000   -0.0601 H   0  0  0  0  0  0  0  0  0  0  0  0
    5.1938   -1.7390   -0.2220 C   0  0  0  0  0  0  0  0  0  0  0  0
    4.4646   -2.9526   -0.2861 C   0  0  0  0  0  0  0  0  0  0  0  0
    5.0255   -3.8933   -0.3712 H   0  0  0  0  0  0  0  0  0  0  0  0
    3.0822   -2.9272   -0.2395 C   0  0  0  0  0  0  0  0  0  0  0  0
    2.4889   -3.8512   -0.2856 H   0  0  0  0  0  0  0  0  0  0  0  0
    2.3582   -1.6924   -0.1293 C   0  0  1  0  0  3  0  0  0  0  0  0
  2 29  1  0  0  0  0
  3  8  1  0  0  0  0
  4  3  1  0  0  0  0
  5  3  1  0  0  0  0
  7 12  1  0  0  0  0
  8  2  1  0  0  0  0
  8  9  1  1  0  0  0
  8 12  1  0  0  0  0
 10 19  2  0  0  0  0
 10 24  2  0  0  0  0
 11 20  1  0  0  0  0
 11  3  1  0  0  0  0
 12 13  1  6  0  0  0
 12 16  1  0  0  0  0
 15 47  1  0  0  0  0
 15 31  2  0  0  0  0
 16 17  1  0  0  0  0
 16 18  1  0  0  0  0
 16 14  1  0  0  0  0
 20 22  1  0  0  0  0
 21 20  1  0  0  0  0
 23 20  1  0  0  0  0
 25 14  1  0  0  0  0
 25 27  1  0  0  0  0
 25 26  1  0  0  0  0
 28 25  1  0  0  0  0
 29 32  2  0  0  0  0
 30 29  1  0  0  0  0
 32 34  1  0  0  0  0
 33 15  2  0  0  0  0
 34 35  1  0  0  0  0
 34 36  2  0  0  0  0
 36 10  1  0  0  0  0
 37 38  1  0  0  0  0
 37 36  1  0  0  0  0
 39 37  2  0  0  0  0
 40 39  1  0  0  0  0
 41  1  1  6  0  0  0
 41 32  1  0  0  0  0
 41 39  1  0  0  0  0
 42  7  1  0  0  0  0
 42 43  1  0  0  0  0
 44 42  2  0  0  0  0
 45 44  1  0  0  0  0
 45 46  1  0  0  0  0
 47 45  2  0  0  0  0
 48 50  2  0  0  0  0
 48 47  1  0  0  0  0
 49 48  1  0  0  0  0
 50 52  1  0  0  0  0
 51 50  1  0  0  0  0
 52  6  1  1  0  0  0
 52 44  1  0  0  0  0
M  END
