59,60,61,62
q = -2.0, confidence = 0.868

 62 64  0  0  1  0  0  0  0  0999 V2000
    3.5191   -3.7916    0.0007 C   0  0  0  0  0  0  0  0  0  0  0  0
    4.1441   -3.6121    0.8996 H   0  0  0  0  0  0  0  0  0  0  0  0
    4.1440   -3.6126   -0.8983 H   0  0  0  0  0  0  0  0  0  0  0  0
    3.2388   -4.8639    0.0011 H   0  0  0  0  0  0  0  0  0  0  0  0
    1.4236   -3.2885   -1.2641 C   0  0  0  0  0  0  0  0  0  0  0  0
    0.4587   -2.7496   -1.2778 H   0  0  0  0  0  0  0  0  0  0  0  0
    1.2150   -4.3786   -1.2806 H   0  0  0  0  0  0  0  0  0  0  0  0
    1.9896   -3.0361   -2.1843 H   0  0  0  0  0  0  0  0  0  0  0  0
    1.4235   -3.2879    1.2652 C   0  0  0  0  0  0  0  0  0  0  0  0
    0.4587   -2.7489    1.2786 H   0  0  0  0  0  0  0  0  0  0  0  0
    1.9895   -3.0350    2.1853 H   0  0  0  0  0  0  0  0  0  0  0  0
    1.2149   -4.3780    1.2822 H   0  0  0  0  0  0  0  0  0  0  0  0
    2.2426   -2.9316    0.0005 C   0  0  0  0  0  0  0  0  0  0  0  0
    2.5721   -1.4280    0.0001 C   0  0  0  0  0  0  0  0  0  0  0  0
    3.8791   -0.9514    0.0000 C   0  0  0  0  0  0  0  0  0  0  0  0
    4.6917   -1.6904    0.0001 H   0  0  0  0  0  0  0  0  0  0  0  0
    4.2484    0.4307   -0.0003 C   0  0  0  0  0  0  0  0  0  0  0  0
    5.7375    0.8107   -0.0002 C   0  0  0  0  0  0  0  0  0  0  0  0
    6.4139    0.2275   -1.2619 C   0  0  0  0  0  0  0  0  0  0  0  0
    7.4946    0.4796   -1.2761 H   0  0  0  0  0  0  0  0  0  0  0  0
    5.9511    0.6362   -2.1829 H   0  0  0  0  0  0  0  0  0  0  0  0
    6.3272   -0.8766   -1.3034 H   0  0  0  0  0  0  0  0  0  0  0  0
    6.4132    0.2286    1.2625 C   0  0  0  0  0  0  0  0  0  0  0  0
    7.4940    0.4806    1.2770 H   0  0  0  0  0  0  0  0  0  0  0  0
    6.3264   -0.8755    1.3047 H   0  0  0  0  0  0  0  0  0  0  0  0
    5.9498    0.6380    2.1828 H   0  0  0  0  0  0  0  0  0  0  0  0
    5.9409    2.3350   -0.0008 C   0  0  0  0  0  0  0  0  0  0  0  0
    7.0239    2.5719   -0.0008 H   0  0  0  0  0  0  0  0  0  0  0  0
    5.4958    2.8093    0.8972 H   0  0  0  0  0  0  0  0  0  0  0  0
    5.4959    2.8086   -0.8993 H   0  0  0  0  0  0  0  0  0  0  0  0
    3.2202    1.3574   -0.0004 C   0  0  0  0  0  3  0  0  0  0  0  0
    3.4300    2.4368   -0.0007 H   0  0  0  0  0  0  0  0  0  0  0  0
    1.8496    0.9508   -0.0003 C   0  0  0  0  0  0  0  0  0  0  0  0
    1.5024   -0.4514   -0.0000 C   0  0  0  0  0  0  0  0  0  0  0  0
    0.8444    1.9492   -0.0004 C   0  0  0  0  0  0  0  0  0  0  0  0
    1.2044    2.9935   -0.0006 H   0  0  0  0  0  0  0  0  0  0  0  0
   -1.3793    2.8318   -0.0000 C   0  0  0  0  0  0  0  0  0  0  0  0
   -1.0596    4.2047   -0.0001 C   0  0  0  0  0  0  0  0  0  0  0  0
   -0.0131    4.5382   -0.0003 H   0  0  0  0  0  0  0  0  0  0  0  0
   -2.0827    5.1594    0.0002 C   0  0  0  0  0  0  0  0  0  0  0  0
   -1.8264    6.2290    0.0001 H   0  0  0  0  0  0  0  0  0  0  0  0
   -3.4312    4.7567    0.0005 C   0  0  0  0  0  0  0  0  0  0  0  0
   -4.2325    5.5100    0.0007 H   0  0  0  0  0  0  0  0  0  0  0  0
   -3.7613    3.3966    0.0005 C   0  0  0  0  0  0  0  0  0  0  0  0
   -4.8191    3.1005    0.0008 H   0  0  0  0  0  0  0  0  0  0  0  0
   -2.7400    2.4259    0.0002 C   0  0  0  0  0  0  0  0  0  0  0  0
   -4.1132    0.4679    0.0002 C   0  0  0  0  0  0  0  0  0  0  0  0
   -4.9904    1.1395    0.0004 H   0  0  0  0  0  0  0  0  0  0  0  0
   -3.3243   -1.9012   -0.0004 C   0  0  1  0  0  3  0  0  0  0  0  0
   -4.3929   -0.9225    0.0000 C   0  0  0  0  0  0  0  0  0  0  0  0
   -5.7529   -1.3623    0.0002 C   0  0  0  0  0  0  0  0  0  0  0  0
   -6.5482   -0.5994    0.0006 H   0  0  0  0  0  0  0  0  0  0  0  0
   -6.0748   -2.7088    0.0000 C   0  0  0  0  0  0  0  0  0  0  0  0
   -7.1250   -3.0335    0.0002 H   0  0  0  0  0  0  0  0  0  0  0  0
   -5.0269   -3.6707   -0.0004 C   0  0  0  0  0  0  0  0  0  0  0  0
   -5.2767   -4.7434   -0.0006 H   0  0  0  0  0  0  0  0  0  0  0  0
   -3.6949   -3.2851   -0.0007 C   0  0  0  0  0  0  0  0  0  0  0  0
   -2.8778   -4.0207   -0.0011 H   0  0  0  0  0  0  0  0  0  0  0  0
   -0.4686    1.7544   -0.0002 N   0  0  0  0  0  2  0  0  0  0  0  0
   -2.9102    1.0236    0.0001 N   0  0  0  0  0  2  0  0  0  0  0  0
    0.2746   -0.8625    0.0001 O   0  5  0  0  0  0  0  0  0  0  0  0
   -2.0669   -1.5929   -0.0007 O   0  0  0  0  0  1  0  0  0  0  0  0
  1  4  1  0  0  0  0
  1  2  1  0  0  0  0
  3  1  1  0  0  0  0
  5 13  1  0  0  0  0
  6  5  1  0  0  0  0
  7  5  1  0  0  0  0
  8  5  1  0  0  0  0
  9 10  1  0  0  0  0
  9 12  1  0  0  0  0
  9 11  1  0  0  0  0
 13  1  1  0  0  0  0
 13  9  1  0  0  0  0
 14 13  1  0  0  0  0
 15 16  1  0  0  0  0
 15 14  1  0  0  0  0
 17 18  1  0  0  0  0
 17 15  2  0  0  0  0
 18 23  1  0  0  0  0
 19 18  1  0  0  0  0
 20 19  1  0  0  0  0
 21 19  1  0  0  0  0
 22 19  1  0  0  0  0
 23 24  1  0  0  0  0
 23 25  1  0  0  0  0
 23 26  1  0  0  0  0
 27 18  1  0  0  0  0
 27 29  1  0  0  0  0
 28 27  1  0  0  0  0
 30 27  1  0  0  0  0
 31 33  1  0  0  0  0
 31 17  1  0  0  0  0
 32 31  1  0  0  0  0
 33 34  1  0  0  0  0
 34 61  1  0  0  0  0
 34 14  2  0  0  0  0
 35 33  2  0  0  0  0
 35 59  1  0  0  0  0
 36 35  1  0  0  0  0
 37 46  1  0  0  0  0
 38 37  2  0  0  0  0
 38 40  1  0  0  0  0
 39 38  1  0  0  0  0
 40 42  2  0  0  0  0
 41 40  1  0  0  0  0
 42 44  1  0  0  0  0
 42 43  1  0  0  0  0
 44 45  1  0  0  0  0
 46 44  2  0  0  0  0
 47 48  1  0  0  0  0
 49 62  1  6  0  0  0
 49 50  1  0  0  0  0
 50 47  2  0  0  0  0
 50 51  1  0  0  0  0
 51 52  1  0  0  0  0
 53 54  1  0  0  0  0
 53 51  2  0  0  0  0
 55 53  1  0  0  0  0
 56 55  1  0  0  0  0
 57 49  1  0  0  0  0
 57 55  2  0  0  0  0
 58 57  1  0  0  0  0
 59 37  1  0  0  0  0
 60 47  1  0  0  0  0
 60 46  1  0  0  0  0
M  CHG  1  61  -1
M  END
