1,2,3,4
q = -2.0, confidence = 0.838

 43 44  0  0  1  0  0  0  0  0999 V2000
   -1.1832   -1.4001   -0.8731 N   0  0  0  0  0  2  0  0  0  0  0  0
    1.2967   -1.6465   -0.0445 N   0  0  0  0  0  2  0  0  0  0  0  0
   -1.1471    1.2860   -0.7619 O   0  5  0  0  0  0  0  0  0  0  0  0
    1.6760    1.0121    0.3001 O   0  5  0  0  0  0  0  0  0  0  0  0
   -3.1462   -0.0053   -0.4737 C   0  0  0  0  0  0  0  0  0  0  0  0
   -2.4430    1.2392   -0.4928 C   0  0  0  0  0  0  0  0  0  0  0  0
   -3.1351    2.4612   -0.2619 C   0  0  0  0  0  0  0  0  0  0  0  0
   -4.5112    2.4014   -0.0034 C   0  0  0  0  0  0  0  0  0  0  0  0
   -5.0484    3.3437    0.1899 H   0  0  0  0  0  0  0  0  0  0  0  0
   -5.2182    1.1810    0.0237 C   0  0  0  0  0  0  0  0  0  0  0  0
   -6.2968    1.1741    0.2364 H   0  0  0  0  0  0  0  0  0  0  0  0
   -4.5390   -0.0105   -0.2143 C   0  0  0  0  0  0  0  0  0  0  0  0
   -5.0688   -0.9750   -0.1875 H   0  0  0  0  0  0  0  0  0  0  0  0
   -2.3578    3.7467   -0.2824 C   0  0  0  0  0  0  0  0  0  0  0  0
   -1.5639    3.7384    0.4934 H   0  0  0  0  0  0  0  0  0  0  0  0
   -3.0145    4.6193   -0.1063 H   0  0  0  0  0  0  0  0  0  0  0  0
   -1.8381    3.8815   -1.2537 H   0  0  0  0  0  0  0  0  0  0  0  0
   -2.4667   -1.2539   -0.7214 C   0  0  0  0  0  3  0  0  0  0  0  0
   -3.1055   -2.1594   -0.7659 H   0  0  0  0  0  0  0  0  0  0  0  0
   -0.6172   -2.7400   -1.0475 C   0  0  2  0  0  0  0  0  0  0  0  0
   -1.3979   -3.4984   -0.8145 H   0  0  0  0  0  0  0  0  0  0  0  0
    0.4861   -2.8500    0.0187 C   0  0  0  0  0  0  0  0  0  0  0  0
    0.0029   -2.9082    1.0191 H   0  0  0  0  0  0  0  0  0  0  0  0
    1.1036   -3.7623   -0.1280 H   0  0  0  0  0  0  0  0  0  0  0  0
   -0.1024   -2.9420   -2.4751 C   0  0  0  0  0  0  0  0  0  0  0  0
   -0.9311   -2.8390   -3.2027 H   0  0  0  0  0  0  0  0  0  0  0  0
    0.3316   -3.9561   -2.5831 H   0  0  0  0  0  0  0  0  0  0  0  0
    0.6666   -2.1856   -2.7240 H   0  0  0  0  0  0  0  0  0  0  0  0
    2.5890   -1.6925    0.0905 C   0  0  0  0  0  3  0  0  0  0  0  0
    3.0625   -2.6897    0.2112 H   0  0  0  0  0  0  0  0  0  0  0  0
    3.4792   -0.5579    0.1345 C   0  0  0  0  0  0  0  0  0  0  0  0
    2.9728    0.7773    0.2637 C   0  0  0  0  0  0  0  0  0  0  0  0
    3.8737    1.8737    0.4106 C   0  0  0  0  0  0  0  0  0  0  0  0
    5.2481    1.6089    0.3972 C   0  0  0  0  0  0  0  0  0  0  0  0
    5.9455    2.4562    0.4955 H   0  0  0  0  0  0  0  0  0  0  0  0
    5.7613    0.2995    0.2674 C   0  0  0  0  0  0  0  0  0  0  0  0
    6.8478    0.1316    0.2670 H   0  0  0  0  0  0  0  0  0  0  0  0
    4.8823   -0.7722    0.1509 C   0  0  0  0  0  0  0  0  0  0  0  0
    5.2630   -1.8021    0.0657 H   0  0  0  0  0  0  0  0  0  0  0  0
    3.3036    3.2552    0.5625 C   0  0  0  0  0  0  0  0  0  0  0  0
    2.6311    3.3091    1.4438 H   0  0  0  0  0  0  0  0  0  0  0  0
    2.6802    3.5257   -0.3152 H   0  0  0  0  0  0  0  0  0  0  0  0
    4.1019    4.0124    0.6768 H   0  0  0  0  0  0  0  0  0  0  0  0
  1 18  1  0  0  0  0
  2 22  1  0  0  0  0
  2 29  1  0  0  0  0
  3  6  1  0  0  0  0
  5 12  1  0  0  0  0
  6  5  2  0  0  0  0
  6  7  1  0  0  0  0
  7  8  2  0  0  0  0
  8 10  1  0  0  0  0
  8  9  1  0  0  0  0
 10 11  1  0  0  0  0
 12 13  1  0  0  0  0
 12 10  2  0  0  0  0
 14  7  1  0  0  0  0
 14 16  1  0  0  0  0
 14 15  1  0  0  0  0
 17 14  1  0  0  0  0
 18  5  1  0  0  0  0
 19 18  1  0  0  0  0
 20  1  1  0  0  0  0
 20 21  1  1  0  0  0
 20 22  1  0  0  0  0
 22 23  1  0  0  0  0
 24 22  1  0  0  0  0
 25 20  1  0  0  0  0
 26 25  1  0  0  0  0
 27 25  1  0  0  0  0
 28 25  1  0  0  0  0
 29 31  1  0  0  0  0
 29 30  1  0  0  0  0
 31 38  2  0  0  0  0
 31 32  1  0  0  0  0
 32  4  1  0  0  0  0
 32 33  2  0  0  0  0
 33 40  1  0  0  0  0
 34 33  1  0  0  0  0
 34 35  1  0  0  0  0
 36 34  2  0  0  0  0
 37 36  1  0  0  0  0
 38 36  1  0  0  0  0
 39 38  1  0  0  0  0
 40 43  1  0  0  0  0
 40 41  1  0  0  0  0
 42 40  1  0  0  0  0
M  CHG  2   3  -1   4  -1
M  END
