1,2,3,4
q = -2.0, confidence = 0.828

 44 46  0  0  0  0  0  0  0  0999 V2000
    1.3814   -1.2711    0.6124 O   0  5  0  0  0  0  0  0  0  0  0  0
   -1.0911   -1.3165   -0.2440 O   0  5  0  0  0  0  0  0  0  0  0  0
    1.0925    1.2865   -0.3868 N   0  0  0  0  0  2  0  0  0  0  0  0
   -1.4000    1.3123   -0.0013 N   0  0  0  0  0  2  0  0  0  0  0  0
    2.5979   -1.2350    0.1548 C   0  0  0  0  0  0  0  0  0  0  0  0
    3.4495   -2.3623    0.3626 C   0  0  0  0  0  0  0  0  0  0  0  0
    3.0190   -3.2092    0.9173 H   0  0  0  0  0  0  0  0  0  0  0  0
    4.7553   -2.4007   -0.1132 C   0  0  0  0  0  0  0  0  0  0  0  0
    5.2623   -1.2685   -0.8297 C   0  0  0  0  0  0  0  0  0  0  0  0
    6.2965   -1.2901   -1.2066 H   0  0  0  0  0  0  0  0  0  0  0  0
    4.4734   -0.1558   -1.0453 C   0  0  0  0  0  0  0  0  0  0  0  0
    4.8777    0.7121   -1.5906 H   0  0  0  0  0  0  0  0  0  0  0  0
    3.1247   -0.0896   -0.5676 C   0  0  0  0  0  0  0  0  0  0  0  0
    2.3669    1.0823   -0.7757 C   0  0  0  0  0  3  0  0  0  0  0  0
    2.8686    1.9123   -1.3039 H   0  0  0  0  0  0  0  0  0  0  0  0
    0.5340    2.5822   -0.3998 C   0  0  0  0  0  0  0  0  0  0  0  0
    1.2322    3.7939   -0.5668 C   0  0  0  0  0  0  0  0  0  0  0  0
    2.3203    3.7975   -0.7169 H   0  0  0  0  0  0  0  0  0  0  0  0
    0.5339    5.0074   -0.5050 C   0  0  0  0  0  0  0  0  0  0  0  0
    1.0819    5.9535   -0.6280 H   0  0  0  0  0  0  0  0  0  0  0  0
   -0.8512    5.0254   -0.2602 C   0  0  0  0  0  0  0  0  0  0  0  0
   -1.3851    5.9843   -0.1872 H   0  0  0  0  0  0  0  0  0  0  0  0
   -1.5516    3.8252   -0.0816 C   0  0  0  0  0  0  0  0  0  0  0  0
   -2.6275    3.8447    0.1430 H   0  0  0  0  0  0  0  0  0  0  0  0
   -0.8616    2.6024   -0.1508 C   0  0  0  0  0  0  0  0  0  0  0  0
   -2.6832    1.0881   -0.1560 C   0  0  0  0  0  3  0  0  0  0  0  0
   -3.3639    1.9404   -0.3464 H   0  0  0  0  0  0  0  0  0  0  0  0
   -3.2563   -0.2235   -0.1929 C   0  0  0  0  0  0  0  0  0  0  0  0
   -4.6637   -0.3969   -0.2583 C   0  0  0  0  0  0  0  0  0  0  0  0
   -5.3062    0.4965   -0.2035 H   0  0  0  0  0  0  0  0  0  0  0  0
   -5.2314   -1.6588   -0.3857 C   0  0  0  0  0  0  0  0  0  0  0  0
   -6.3257   -1.7707   -0.4224 H   0  0  0  0  0  0  0  0  0  0  0  0
   -4.4046   -2.8107   -0.4799 C   0  0  0  0  0  0  0  0  0  0  0  0
   -3.0141   -2.6519   -0.4412 C   0  0  0  0  0  0  0  0  0  0  0  0
   -2.3417   -3.5189   -0.5183 H   0  0  0  0  0  0  0  0  0  0  0  0
   -2.4112   -1.3784   -0.2848 C   0  0  0  0  0  0  0  0  0  0  0  0
    5.6404   -3.5979    0.1096 C   0  0  0  0  0  0  0  0  0  0  0  0
    5.1216   -4.3933    0.6775 H   0  0  0  0  0  0  0  0  0  0  0  0
    6.5575   -3.3169    0.6696 H   0  0  0  0  0  0  0  0  0  0  0  0
    5.9797   -4.0288   -0.8562 H   0  0  0  0  0  0  0  0  0  0  0  0
   -5.0259   -4.1760   -0.6159 C   0  0  0  0  0  0  0  0  0  0  0  0
   -4.2626   -4.9640   -0.7588 H   0  0  0  0  0  0  0  0  0  0  0  0
   -5.7277   -4.2121   -1.4750 H   0  0  0  0  0  0  0  0  0  0  0  0
   -5.6172   -4.4327    0.2885 H   0  0  0  0  0  0  0  0  0  0  0  0
  5  6  1  0  0  0  0
  5  1  1  0  0  0  0
  6  7  1  0  0  0  0
  8 37  1  0  0  0  0
  8  6  2  0  0  0  0
  9  8  1  0  0  0  0
 10  9  1  0  0  0  0
 11  9  2  0  0  0  0
 11 13  1  0  0  0  0
 12 11  1  0  0  0  0
 13  5  2  0  0  0  0
 14 13  1  0  0  0  0
 14  3  1  0  0  0  0
 15 14  1  0  0  0  0
 16  3  1  0  0  0  0
 16 25  1  0  0  0  0
 17 19  1  0  0  0  0
 17 16  2  0  0  0  0
 18 17  1  0  0  0  0
 19 21  2  0  0  0  0
 20 19  1  0  0  0  0
 21 22  1  0  0  0  0
 21 23  1  0  0  0  0
 23 24  1  0  0  0  0
 25 23  2  0  0  0  0
 25  4  1  0  0  0  0
 26  4  1  0  0  0  0
 27 26  1  0  0  0  0
 28 26  1  0  0  0  0
 29 30  1  0  0  0  0
 29 28  1  0  0  0  0
 31 29  2  0  0  0  0
 32 31  1  0  0  0  0
 33 34  2  0  0  0  0
 33 31  1  0  0  0  0
 34 36  1  0  0  0  0
 35 34  1  0  0  0  0
 36  2  1  0  0  0  0
 36 28  2  0  0  0  0
 37 39  1  0  0  0  0
 37 38  1  0  0  0  0
 40 37  1  0  0  0  0
 41 33  1  0  0  0  0
 41 44  1  0  0  0  0
 42 41  1  0  0  0  0
 43 41  1  0  0  0  0
M  CHG  2   1  -1   2  -1
M  END
