1,2,3,4
q = -2.0, confidence = 0.826

 62 65  0  0  1  0  0  0  0  0999 V2000
    0.3531    2.1689   -0.0476 O   0  5  0  0  0  0  0  0  0  0  0  0
    2.4243    0.7830   -0.0950 O   0  5  0  0  0  0  0  0  0  0  0  0
   -1.1456   -0.0161   -0.7342 N   0  0  0  0  0  2  0  0  0  0  0  0
    0.9510   -1.4448   -0.5710 N   0  0  0  0  0  2  0  0  0  0  0  0
   -2.0486    2.2168   -0.3652 C   0  0  0  0  0  0  0  0  0  0  0  0
    3.4598    0.0150   -0.2332 C   0  0  0  0  0  0  0  0  0  0  0  0
   -1.8036    6.2570    0.6977 O   0  0  0  0  0  0  0  0  0  0  0  0
   -1.3427   -1.3891   -1.2452 C   0  0  2  0  0  0  0  0  0  0  0  0
    3.3824   -1.4055   -0.5051 C   0  0  0  0  0  0  0  0  0  0  0  0
   -2.1408    0.8443   -0.7290 C   0  0  0  0  0  0  0  0  0  0  0  0
   -3.1386    0.4726   -1.0290 H   0  0  0  0  0  0  0  0  0  0  0  0
   -0.6394   -2.6645    0.8850 C   0  0  0  0  0  0  0  0  0  0  0  0
    7.1737    0.3144   -0.1162 O   0  0  0  0  0  0  0  0  0  0  0  0
   -0.7715    2.8170   -0.0294 C   0  0  0  0  0  0  0  0  0  0  0  0
   -1.9418    4.9506    0.3438 C   0  0  0  0  0  0  0  0  0  0  0  0
   -0.4436   -1.7942    1.9753 C   0  0  0  0  0  0  0  0  0  0  0  0
    0.0515   -0.8245    1.8070 H   0  0  0  0  0  0  0  0  0  0  0  0
   -0.7661    4.1943    0.3244 C   0  0  0  0  0  0  0  0  0  0  0  0
    0.1903    4.6678    0.5825 H   0  0  0  0  0  0  0  0  0  0  0  0
    4.7569    0.5998   -0.0982 C   0  0  0  0  0  0  0  0  0  0  0  0
    4.7847    1.6763    0.1096 H   0  0  0  0  0  0  0  0  0  0  0  0
   -3.2228    3.0168   -0.3403 C   0  0  0  0  0  3  0  0  0  0  0  0
   -4.1829    2.5440   -0.6035 H   0  0  0  0  0  0  0  0  0  0  0  0
   -2.7475   -1.9495   -1.1673 C   0  0  0  0  0  0  0  0  0  0  0  0
    4.5870   -2.1605   -0.6255 C   0  0  0  0  0  3  0  0  0  0  0  0
    4.5098   -3.2412   -0.8262 H   0  0  0  0  0  0  0  0  0  0  0  0
   -0.2686   -2.2565   -0.5328 C   0  0  2  0  0  0  0  0  0  0  0  0
    2.1216   -2.0483   -0.6136 C   0  0  0  0  0  0  0  0  0  0  0  0
    2.1190   -3.1509   -0.7288 H   0  0  0  0  0  0  0  0  0  0  0  0
   -3.1959    4.3602    0.0059 C   0  0  0  0  0  0  0  0  0  0  0  0
   -4.1242    4.9442    0.0152 H   0  0  0  0  0  0  0  0  0  0  0  0
    5.9116   -0.1739   -0.2285 C   0  0  0  0  0  0  0  0  0  0  0  0
   -0.8684   -2.1615    3.2603 C   0  0  0  0  0  0  0  0  0  0  0  0
   -0.7096   -1.4712    4.1027 H   0  0  0  0  0  0  0  0  0  0  0  0
    5.8305   -1.5747   -0.4959 C   0  0  0  0  0  0  0  0  0  0  0  0
    6.7634   -2.1470   -0.5874 H   0  0  0  0  0  0  0  0  0  0  0  0
   -3.5026   -1.9129    0.0254 C   0  0  0  0  0  0  0  0  0  0  0  0
   -3.0864   -1.4298    0.9210 H   0  0  0  0  0  0  0  0  0  0  0  0
   -3.3044   -2.5722   -2.3006 C   0  0  0  0  0  0  0  0  0  0  0  0
   -2.7266   -2.5976   -3.2386 H   0  0  0  0  0  0  0  0  0  0  0  0
   -2.9523    7.0818    0.7358 C   0  0  0  0  0  0  0  0  0  0  0  0
   -2.6047    8.0855    1.0442 H   0  0  0  0  0  0  0  0  0  0  0  0
   -3.7028    6.7195    1.4736 H   0  0  0  0  0  0  0  0  0  0  0  0
   -3.4424    7.1621   -0.2604 H   0  0  0  0  0  0  0  0  0  0  0  0
   -1.2491   -3.9132    1.1096 C   0  0  0  0  0  0  0  0  0  0  0  0
   -1.4090   -4.5982    0.2618 H   0  0  0  0  0  0  0  0  0  0  0  0
    7.3392    1.6954    0.1517 C   0  0  0  0  0  0  0  0  0  0  0  0
    8.4290    1.8760    0.2021 H   0  0  0  0  0  0  0  0  0  0  0  0
    6.8752    1.9852    1.1205 H   0  0  0  0  0  0  0  0  0  0  0  0
    6.9007    2.3262   -0.6531 H   0  0  0  0  0  0  0  0  0  0  0  0
   -4.7793   -2.4881    0.0756 C   0  0  0  0  0  0  0  0  0  0  0  0
   -5.3544   -2.4512    1.0131 H   0  0  0  0  0  0  0  0  0  0  0  0
   -5.3206   -3.1154   -1.0589 C   0  0  0  0  0  0  0  0  0  0  0  0
   -6.3228   -3.5681   -1.0152 H   0  0  0  0  0  0  0  0  0  0  0  0
   -4.5795   -3.1567   -2.2491 C   0  0  0  0  0  0  0  0  0  0  0  0
   -4.9971   -3.6400   -3.1454 H   0  0  0  0  0  0  0  0  0  0  0  0
   -1.4875   -3.4041    3.4739 C   0  0  0  0  0  0  0  0  0  0  0  0
   -1.8178   -3.6913    4.4838 H   0  0  0  0  0  0  0  0  0  0  0  0
   -1.6714   -4.2829    2.3950 C   0  0  0  0  0  0  0  0  0  0  0  0
   -2.1476   -5.2623    2.5538 H   0  0  0  0  0  0  0  0  0  0  0  0
   -1.0415   -1.3744   -2.3171 H   0  0  0  0  0  0  0  0  0  0  0  0
   -0.1292   -3.1822   -1.1326 H   0  0  0  0  0  0  0  0  0  0  0  0
  1 14  1  0  0  0  0
  3 10  1  0  0  0  0
  4 27  1  0  0  0  0
  5 22  1  0  0  0  0
  5 14  1  0  0  0  0
  6 20  2  0  0  0  0
  6  2  1  0  0  0  0
  7 41  1  0  0  0  0
  8 61  1  6  0  0  0
  8 24  1  0  0  0  0
  8  3  1  0  0  0  0
  8 27  1  0  0  0  0
  9  6  1  0  0  0  0
 10  5  2  0  0  0  0
 11 10  1  0  0  0  0
 12 45  2  0  0  0  0
 12 16  1  0  0  0  0
 13 47  1  0  0  0  0
 14 18  2  0  0  0  0
 15  7  1  0  0  0  0
 16 33  2  0  0  0  0
 17 16  1  0  0  0  0
 18 15  1  0  0  0  0
 18 19  1  0  0  0  0
 20 21  1  0  0  0  0
 22 30  1  0  0  0  0
 23 22  1  0  0  0  0
 24 37  1  0  0  0  0
 25  9  1  0  0  0  0
 25 35  1  0  0  0  0
 26 25  1  0  0  0  0
 27 62  1  6  0  0  0
 27 12  1  0  0  0  0
 28  4  1  0  0  0  0
 28  9  2  0  0  0  0
 29 28  1  0  0  0  0
 30 31  1  0  0  0  0
 30 15  2  0  0  0  0
 32 13  1  0  0  0  0
 32 20  1  0  0  0  0
 33 57  1  0  0  0  0
 33 34  1  0  0  0  0
 35 32  2  0  0  0  0
 36 35  1  0  0  0  0
 37 51  2  0  0  0  0
 37 38  1  0  0  0  0
 39 55  1  0  0  0  0
 39 24  2  0  0  0  0
 40 39  1  0  0  0  0
 41 42  1  0  0  0  0
 41 43  1  0  0  0  0
 44 41  1  0  0  0  0
 45 59  1  0  0  0  0
 46 45  1  0  0  0  0
 47 48  1  0  0  0  0
 47 49  1  0  0  0  0
 50 47  1  0  0  0  0
 51 52  1  0  0  0  0
 53 54  1  0  0  0  0
 53 51  1  0  0  0  0
 55 53  2  0  0  0  0
 56 55  1  0  0  0  0
 57 58  1  0  0  0  0
 59 60  1  0  0  0  0
 59 57  2  0  0  0  0
M  CHG  2   1  -1   2  -1
M  END
