1,2,7,8
q = -2.0, confidence = 0.81

 57 58  0  0  1  0  0  0  0  0999 V2000
   -1.2579   -0.2995   -0.1578 O   0  5  0  0  0  0  0  0  0  0  0  0
    1.2381   -0.2983    0.0112 O   0  0  0  0  0  1  0  0  0  0  0  0
   -5.3146    1.9920    0.0447 O   0  0  0  0  0  0  0  0  0  0  0  0
   -7.5430    1.4233    0.0122 O   0  0  0  0  0  0  0  0  0  0  0  0
    5.2781    2.0313   -0.0108 O   0  0  0  0  0  0  0  0  0  0  0  0
    7.5105    1.4780   -0.0148 O   0  0  0  0  0  0  0  0  0  0  0  0
   -1.2526   -3.0096   -0.3871 N   0  0  0  0  0  2  0  0  0  0  0  0
    1.2514   -3.0187    0.0062 N   0  0  0  0  0  2  0  0  0  0  0  0
   -2.5513   -0.4022   -0.1639 C   0  0  0  0  0  0  0  0  0  0  0  0
   -3.3319    0.7861   -0.0622 C   0  0  0  0  0  0  0  0  0  0  0  0
   -2.8083    1.7474    0.0224 H   0  0  0  0  0  0  0  0  0  0  0  0
   -4.7253    0.7433   -0.0654 C   0  0  0  0  0  0  0  0  0  0  0  0
   -5.4371   -0.4844   -0.1751 C   0  0  0  0  0  0  0  0  0  0  0  0
   -6.5300   -0.4925   -0.1770 H   0  0  0  0  0  0  0  0  0  0  0  0
   -4.6914   -1.6497   -0.2805 C   0  0  0  0  0  3  0  0  0  0  0  0
   -5.2171   -2.6139   -0.3715 H   0  0  0  0  0  0  0  0  0  0  0  0
   -3.2694   -1.6549   -0.2776 C   0  0  0  0  0  0  0  0  0  0  0  0
   -6.6585    2.2580    0.0770 C   0  0  0  0  0  0  0  0  0  0  0  0
   -6.9267    3.7265    0.2039 C   0  0  0  0  0  0  0  0  0  0  0  0
   -5.9231    4.6292    0.2747 C   0  0  0  0  0  0  0  0  0  0  0  0
   -6.1405    5.7049    0.3679 H   0  0  0  0  0  0  0  0  0  0  0  0
   -4.8708    4.3150    0.2413 H   0  0  0  0  0  0  0  0  0  0  0  0
   -8.3862    4.0848    0.2436 C   0  0  0  0  0  0  0  0  0  0  0  0
   -8.8921    3.5794    1.0916 H   0  0  0  0  0  0  0  0  0  0  0  0
   -8.9030    3.7301   -0.6716 H   0  0  0  0  0  0  0  0  0  0  0  0
   -8.5288    5.1775    0.3379 H   0  0  0  0  0  0  0  0  0  0  0  0
   -2.5606   -2.8830   -0.4135 C   0  0  0  0  0  0  0  0  0  0  0  0
   -3.1601   -3.8030   -0.5655 H   0  0  0  0  0  0  0  0  0  0  0  0
   -0.6326   -4.3092   -0.6447 C   0  0  0  0  0  0  0  0  0  0  0  0
   -1.3197   -5.1458   -0.3945 H   0  0  0  0  0  0  0  0  0  0  0  0
   -0.3791   -4.3819   -1.7252 H   0  0  0  0  0  0  0  0  0  0  0  0
    0.6512   -4.3531    0.1839 C   0  0  2  0  0  0  0  0  0  0  0  0
    1.3388   -5.1253   -0.2270 H   0  0  0  0  0  0  0  0  0  0  0  0
    0.3888   -4.6368    1.6663 C   0  0  0  0  0  0  0  0  0  0  0  0
    1.3314   -4.5921    2.2459 H   0  0  0  0  0  0  0  0  0  0  0  0
   -0.0564   -5.6433    1.7989 H   0  0  0  0  0  0  0  0  0  0  0  0
   -0.3072   -3.8814    2.0828 H   0  0  0  0  0  0  0  0  0  0  0  0
    2.5584   -2.8838    0.0457 C   0  0  0  0  0  0  0  0  0  0  0  0
    3.1650   -3.8089    0.1233 H   0  0  0  0  0  0  0  0  0  0  0  0
    3.2592   -1.6443    0.0101 C   0  0  0  0  0  0  0  0  0  0  0  0
    2.5321   -0.3916    0.0038 C   0  0  2  0  0  3  0  0  0  0  0  0
    3.3041    0.8066   -0.0000 C   0  0  0  0  0  0  0  0  0  0  0  0
    2.7736    1.7678   -0.0025 H   0  0  0  0  0  0  0  0  0  0  0  0
    4.6977    0.7736   -0.0036 C   0  0  0  0  0  0  0  0  0  0  0  0
    5.4183   -0.4538    0.0011 C   0  0  0  0  0  0  0  0  0  0  0  0
    6.5113   -0.4541    0.0000 H   0  0  0  0  0  0  0  0  0  0  0  0
    4.6812   -1.6292    0.0100 C   0  0  0  0  0  0  0  0  0  0  0  0
    5.2138   -2.5939    0.0182 H   0  0  0  0  0  0  0  0  0  0  0  0
    6.6200    2.3088   -0.0163 C   0  0  0  0  0  0  0  0  0  0  0  0
    6.8774    3.7847   -0.0244 C   0  0  0  0  0  0  0  0  0  0  0  0
    5.8672    4.6828   -0.0262 C   0  0  0  0  0  0  0  0  0  0  0  0
    6.0769    5.7641   -0.0323 H   0  0  0  0  0  0  0  0  0  0  0  0
    4.8172    4.3593   -0.0218 H   0  0  0  0  0  0  0  0  0  0  0  0
    8.3343    4.1557   -0.0303 C   0  0  0  0  0  0  0  0  0  0  0  0
    8.8464    3.7235   -0.9143 H   0  0  0  0  0  0  0  0  0  0  0  0
    8.8512    3.7325    0.8554 H   0  0  0  0  0  0  0  0  0  0  0  0
    8.4689    5.2533   -0.0362 H   0  0  0  0  0  0  0  0  0  0  0  0
  3 18  1  0  0  0  0
  4 18  2  0  0  0  0
  5 44  1  0  0  0  0
  8 38  1  0  0  0  0
  8 32  1  0  0  0  0
  9  1  1  0  0  0  0
  9 10  2  0  0  0  0
 10 11  1  0  0  0  0
 12 10  1  0  0  0  0
 12  3  1  0  0  0  0
 13 12  2  0  0  0  0
 14 13  1  0  0  0  0
 15 17  1  0  0  0  0
 15 13  1  0  0  0  0
 16 15  1  0  0  0  0
 17  9  1  0  0  0  0
 18 19  1  0  0  0  0
 19 23  1  0  0  0  0
 19 20  2  0  0  0  0
 20 21  1  0  0  0  0
 22 20  1  0  0  0  0
 23 26  1  0  0  0  0
 23 24  1  0  0  0  0
 25 23  1  0  0  0  0
 27  7  1  0  0  0  0
 27 17  2  0  0  0  0
 28 27  1  0  0  0  0
 29 30  1  0  0  0  0
 29  7  1  0  0  0  0
 29 32  1  0  0  0  0
 31 29  1  0  0  0  0
 32 33  1  6  0  0  0
 32 34  1  0  0  0  0
 34 36  1  0  0  0  0
 34 37  1  0  0  0  0
 34 35  1  0  0  0  0
 38 39  1  0  0  0  0
 40 38  2  0  0  0  0
 41 40  1  0  0  0  0
 41  2  1  1  0  0  0
 42 41  1  0  0  0  0
 43 42  1  0  0  0  0
 44 42  2  0  0  0  0
 44 45  1  0  0  0  0
 45 47  2  0  0  0  0
 46 45  1  0  0  0  0
 47 40  1  0  0  0  0
 47 48  1  0  0  0  0
 49  6  2  0  0  0  0
 49  5  1  0  0  0  0
 50 49  1  0  0  0  0
 51 50  2  0  0  0  0
 51 53  1  0  0  0  0
 52 51  1  0  0  0  0
 54 50  1  0  0  0  0
 54 56  1  0  0  0  0
 55 54  1  0  0  0  0
 57 54  1  0  0  0  0
M  CHG  1   1  -1
M  END
