1,2,25,26
q = -2.0, confidence = 0.836

 48 50  0  0  1  0  0  0  0  0999 V2000
    1.8331   -0.8492   -0.5645 O   0  5  0  0  0  0  0  0  0  0  0  0
    0.5596    0.6978    1.2733 N   0  0  0  0  0  0  0  0  0  0  0  0
   -0.2332    0.6975    1.9318 H   0  0  0  0  0  0  0  0  0  0  0  0
    0.5744    1.9586    0.5029 C   0  0  2  0  0  0  0  0  0  0  0  0
    1.5289    1.9573   -0.0685 H   0  0  0  0  0  0  0  0  0  0  0  0
    0.5417    3.2257    1.3698 C   0  0  0  0  0  0  0  0  0  0  0  0
    1.3996    3.2221    2.0729 H   0  0  0  0  0  0  0  0  0  0  0  0
   -0.3843    3.2097    1.9891 H   0  0  0  0  0  0  0  0  0  0  0  0
    0.5678    4.4936    0.5074 C   0  0  0  0  0  0  0  0  0  0  0  0
    0.5118    5.3947    1.1519 H   0  0  0  0  0  0  0  0  0  0  0  0
    1.5438    4.5494   -0.0238 H   0  0  0  0  0  0  0  0  0  0  0  0
    1.8144    0.4161    2.0138 C   0  0  0  0  0  0  0  0  0  0  0  0
    1.6808   -0.5884    2.4646 H   0  0  0  0  0  0  0  0  0  0  0  0
    1.9768    1.1437    2.8388 H   0  0  0  0  0  0  0  0  0  0  0  0
    3.0164    0.4256    1.0989 C   0  0  0  0  0  0  0  0  0  0  0  0
    4.1968    1.0822    1.4788 C   0  0  0  0  0  0  0  0  0  0  0  0
    4.2536    1.5957    2.4499 H   0  0  0  0  0  0  0  0  0  0  0  0
    5.3113    1.0908    0.6265 C   0  0  0  0  0  0  0  0  0  0  0  0
    5.2551    0.4658   -0.6285 C   0  0  0  0  0  0  0  0  0  0  0  0
    6.1190    0.4816   -1.3054 H   0  0  0  0  0  0  0  0  0  0  0  0
    4.0709   -0.1740   -1.0133 C   0  0  0  0  0  0  0  0  0  0  0  0
    2.9261   -0.2313   -0.1656 C   0  0  0  0  0  0  0  0  0  0  0  0
    3.9677   -0.9260   -2.5840 Cl  0  0  0  0  0  0  0  0  0  0  0  0
    6.7778    1.9027    1.1222 Cl  0  0  0  0  0  0  0  0  0  0  0  0
   -1.8326   -0.8514    0.5644 O   0  5  0  0  0  0  0  0  0  0  0  0
   -0.5631    0.6953   -1.2770 N   0  0  0  0  0  0  0  0  0  0  0  0
    0.2285    0.6944   -1.9368 H   0  0  0  0  0  0  0  0  0  0  0  0
   -0.5775    1.9577   -0.5091 C   0  0  2  0  0  0  0  0  0  0  0  0
   -1.5320    1.9578    0.0624 H   0  0  0  0  0  0  0  0  0  0  0  0
   -0.5447    3.2229   -1.3786 C   0  0  0  0  0  0  0  0  0  0  0  0
   -1.4026    3.2179   -2.0818 H   0  0  0  0  0  0  0  0  0  0  0  0
    0.3813    3.2055   -1.9979 H   0  0  0  0  0  0  0  0  0  0  0  0
   -0.5706    4.4926   -0.5189 C   0  0  0  0  0  0  0  0  0  0  0  0
   -0.5145    5.3924   -1.1653 H   0  0  0  0  0  0  0  0  0  0  0  0
   -1.5466    4.5497    0.0121 H   0  0  0  0  0  0  0  0  0  0  0  0
   -1.8189    0.4112   -2.0148 C   0  0  0  0  0  0  0  0  0  0  0  0
   -1.6854   -0.5941   -2.4637 H   0  0  0  0  0  0  0  0  0  0  0  0
   -1.9833    1.1370   -2.8410 H   0  0  0  0  0  0  0  0  0  0  0  0
   -3.0193    0.4218   -1.0977 C   0  0  0  0  0  0  0  0  0  0  0  0
   -4.2004    1.0782   -1.4758 C   0  0  0  0  0  0  0  0  0  0  0  0
   -4.2593    1.5904   -2.4475 H   0  0  0  0  0  0  0  0  0  0  0  0
   -5.3129    1.0882   -0.6209 C   0  0  0  0  0  0  0  0  0  0  0  0
   -5.2539    0.4651    0.6349 C   0  0  0  0  0  0  0  0  0  0  0  0
   -6.1163    0.4822    1.3137 H   0  0  0  0  0  0  0  0  0  0  0  0
   -4.0690   -0.1745    1.0178 C   0  0  0  0  0  0  0  0  0  0  0  0
   -2.9263   -0.2335    0.1674 C   0  0  0  0  0  0  0  0  0  0  0  0
   -3.9620   -0.9239    2.5895 Cl  0  0  0  0  0  0  0  0  0  0  0  0
   -6.7804    1.8996   -1.1145 Cl  0  0  0  0  0  0  0  0  0  0  0  0
  1 22  1  0  0  0  0
  2  3  1  0  0  0  0
  2 12  1  0  0  0  0
  4  5  1  6  0  0  0
  4  2  1  0  0  0  0
  4  6  1  0  0  0  0
  6  8  1  0  0  0  0
  6  7  1  0  0  0  0
  9 10  1  0  0  0  0
  9  6  1  0  0  0  0
 11  9  1  0  0  0  0
 12 13  1  0  0  0  0
 12 14  1  0  0  0  0
 15 16  1  0  0  0  0
 15 12  1  0  0  0  0
 16 17  1  0  0  0  0
 18 24  1  0  0  0  0
 18 16  2  0  0  0  0
 19 18  1  0  0  0  0
 20 19  1  0  0  0  0
 21 19  2  0  0  0  0
 21 22  1  0  0  0  0
 22 15  2  0  0  0  0
 23 21  1  0  0  0  0
 26 28  1  0  0  0  0
 27 26  1  0  0  0  0
 28 29  1  1  0  0  0
 28  4  1  0  0  0  0
 30 33  1  0  0  0  0
 30 28  1  0  0  0  0
 31 30  1  0  0  0  0
 32 30  1  0  0  0  0
 33 35  1  0  0  0  0
 33  9  1  0  0  0  0
 34 33  1  0  0  0  0
 36 26  1  0  0  0  0
 36 39  1  0  0  0  0
 37 36  1  0  0  0  0
 38 36  1  0  0  0  0
 39 46  1  0  0  0  0
 40 39  2  0  0  0  0
 40 42  1  0  0  0  0
 41 40  1  0  0  0  0
 42 43  2  0  0  0  0
 43 45  1  0  0  0  0
 43 44  1  0  0  0  0
 45 47  1  0  0  0  0
 46 25  1  0  0  0  0
 46 45  2  0  0  0  0
 48 42  1  0  0  0  0
M  CHG  2   1  -1  25  -1
M  END
