1,2,5,6
q = -2.0, confidence = 0.856

 76 78  0  0  1  0  0  0  0  0999 V2000
   -1.6579   -0.8422   -0.6546 O   0  5  0  0  0  0  0  0  0  0  0  0
    0.8894   -1.0050   -0.8958 O   0  5  0  0  0  0  0  0  0  0  0  0
   -7.0575   -0.4583    0.4088 O   0  0  0  0  0  0  0  0  0  0  0  0
    6.3987   -1.1026   -1.0005 O   0  0  0  0  0  0  0  0  0  0  0  0
   -1.4942    1.8726   -0.5626 N   0  0  0  0  0  2  0  0  0  0  0  0
    0.9753    1.6800   -1.2538 N   0  0  0  0  0  2  0  0  0  0  0  0
   -2.9295   -0.7106   -0.4104 C   0  0  0  0  0  0  0  0  0  0  0  0
   -3.7826   -1.8869   -0.3835 C   0  0  0  0  0  0  0  0  0  0  0  0
   -5.1343   -1.7083   -0.1095 C   0  0  0  0  0  0  0  0  0  0  0  0
   -5.7220   -0.4385    0.1378 C   0  0  0  0  0  0  0  0  0  0  0  0
   -4.9279    0.7034    0.0825 C   0  0  0  0  0  0  0  0  0  0  0  0
   -3.5404    0.5803   -0.2025 C   0  0  0  0  0  0  0  0  0  0  0  0
   -2.7767    1.7873   -0.3193 C   0  0  0  0  0  3  0  0  0  0  0  0
    2.1897   -0.9806   -0.8826 C   0  0  0  0  0  0  0  0  0  0  0  0
    2.9310   -2.2008   -0.6134 C   0  0  0  0  0  0  0  0  0  0  0  0
    4.3181   -2.1493   -0.6814 C   0  0  0  0  0  0  0  0  0  0  0  0
    5.0434   -0.9639   -0.9818 C   0  0  0  0  0  0  0  0  0  0  0  0
    4.3521    0.2217   -1.2134 C   0  0  0  0  0  0  0  0  0  0  0  0
    2.9326    0.2261   -1.1591 C   0  0  0  0  0  0  0  0  0  0  0  0
    2.2562    1.4625   -1.4071 C   0  0  0  0  0  3  0  0  0  0  0  0
   -0.7901    3.1638   -0.5690 C   0  0  2  0  0  0  0  0  0  0  0  0
   -1.6061    4.4181   -0.8823 C   0  0  0  0  0  0  0  0  0  0  0  0
   -0.6879    5.6493   -0.8512 C   0  0  0  0  0  0  0  0  0  0  0  0
    0.5094    5.4920   -1.7952 C   0  0  0  0  0  0  0  0  0  0  0  0
    1.3063    4.2109   -1.5062 C   0  0  0  0  0  0  0  0  0  0  0  0
    0.3769    2.9964   -1.5509 C   0  0  1  0  0  0  0  0  0  0  0  0
   -3.1988   -3.2842   -0.6459 C   0  0  0  0  0  0  0  0  0  0  0  0
   -4.2805   -4.3778   -0.5946 C   0  0  0  0  0  0  0  0  0  0  0  0
   -2.1426   -3.6029    0.4367 C   0  0  0  0  0  0  0  0  0  0  0  0
   -2.5559   -3.3188   -2.0532 C   0  0  0  0  0  0  0  0  0  0  0  0
    2.1966   -3.4859   -0.2012 C   0  0  0  0  0  0  0  0  0  0  0  0
    1.2105   -3.9163   -1.3117 C   0  0  0  0  0  0  0  0  0  0  0  0
    1.4464   -3.2143    1.1256 C   0  0  0  0  0  0  0  0  0  0  0  0
    3.1726   -4.6518    0.0386 C   0  0  0  0  0  0  0  0  0  0  0  0
   -7.6975    0.7743    0.6699 C   0  0  0  0  0  0  0  0  0  0  0  0
    7.1774    0.0460   -1.2687 C   0  0  0  0  0  0  0  0  0  0  0  0
   -5.8150   -2.5682   -0.0655 H   0  0  0  0  0  0  0  0  0  0  0  0
   -5.3430    1.7062    0.2537 H   0  0  0  0  0  0  0  0  0  0  0  0
   -3.3451    2.7294   -0.2091 H   0  0  0  0  0  0  0  0  0  0  0  0
    4.9229   -3.0431   -0.4813 H   0  0  0  0  0  0  0  0  0  0  0  0
    4.8739    1.1652   -1.4236 H   0  0  0  0  0  0  0  0  0  0  0  0
    2.8882    2.3014   -1.7495 H   0  0  0  0  0  0  0  0  0  0  0  0
   -0.3381    3.2826    0.4413 H   0  0  0  0  0  0  0  0  0  0  0  0
   -2.4210    4.5480   -0.1413 H   0  0  0  0  0  0  0  0  0  0  0  0
   -2.0844    4.3133   -1.8819 H   0  0  0  0  0  0  0  0  0  0  0  0
   -1.2679    6.5588   -1.1095 H   0  0  0  0  0  0  0  0  0  0  0  0
   -0.3186    5.7945    0.1873 H   0  0  0  0  0  0  0  0  0  0  0  0
    1.1783    6.3734   -1.7187 H   0  0  0  0  0  0  0  0  0  0  0  0
    0.1461    5.4665   -2.8469 H   0  0  0  0  0  0  0  0  0  0  0  0
    2.1219    4.1113   -2.2512 H   0  0  0  0  0  0  0  0  0  0  0  0
    1.7744    4.2531   -0.4996 H   0  0  0  0  0  0  0  0  0  0  0  0
   -0.0680    2.9202   -2.5727 H   0  0  0  0  0  0  0  0  0  0  0  0
   -5.0694   -4.2229   -1.3587 H   0  0  0  0  0  0  0  0  0  0  0  0
   -4.7660   -4.4394    0.4006 H   0  0  0  0  0  0  0  0  0  0  0  0
   -3.8122   -5.3622   -0.7951 H   0  0  0  0  0  0  0  0  0  0  0  0
   -2.6044   -3.6061    1.4450 H   0  0  0  0  0  0  0  0  0  0  0  0
   -1.3258   -2.8617    0.4266 H   0  0  0  0  0  0  0  0  0  0  0  0
   -1.7050   -4.6063    0.2561 H   0  0  0  0  0  0  0  0  0  0  0  0
   -1.7528   -2.5656   -2.1443 H   0  0  0  0  0  0  0  0  0  0  0  0
   -3.3172   -3.1224   -2.8359 H   0  0  0  0  0  0  0  0  0  0  0  0
   -2.1183   -4.3201   -2.2443 H   0  0  0  0  0  0  0  0  0  0  0  0
    0.6869   -4.8473   -1.0112 H   0  0  0  0  0  0  0  0  0  0  0  0
    1.7530   -4.1203   -2.2578 H   0  0  0  0  0  0  0  0  0  0  0  0
    0.4536   -3.1357   -1.4995 H   0  0  0  0  0  0  0  0  0  0  0  0
    2.1633   -2.9721    1.9347 H   0  0  0  0  0  0  0  0  0  0  0  0
    0.8750   -4.1152    1.4296 H   0  0  0  0  0  0  0  0  0  0  0  0
    0.7404   -2.3699    1.0308 H   0  0  0  0  0  0  0  0  0  0  0  0
    2.5980   -5.5517    0.3362 H   0  0  0  0  0  0  0  0  0  0  0  0
    3.8918   -4.4347    0.8542 H   0  0  0  0  0  0  0  0  0  0  0  0
    3.7470   -4.9103   -0.8745 H   0  0  0  0  0  0  0  0  0  0  0  0
   -8.7590    0.5427    0.8752 H   0  0  0  0  0  0  0  0  0  0  0  0
   -7.6403    1.4643   -0.2028 H   0  0  0  0  0  0  0  0  0  0  0  0
   -7.2604    1.2879    1.5563 H   0  0  0  0  0  0  0  0  0  0  0  0
    8.2353   -0.2737   -1.2338 H   0  0  0  0  0  0  0  0  0  0  0  0
    7.0141    0.8432   -0.5083 H   0  0  0  0  0  0  0  0  0  0  0  0
    6.9596    0.4679   -2.2763 H   0  0  0  0  0  0  0  0  0  0  0  0
  1  7  1  0  0  0  0
  2 14  1  0  0  0  0
  3 35  1  0  0  0  0
  4 17  1  0  0  0  0
  5 13  1  0  0  0  0
  7  8  2  0  0  0  0
  7 12  1  0  0  0  0
  8  9  1  0  0  0  0
  9 37  1  0  0  0  0
  9 10  2  0  0  0  0
 10  3  1  0  0  0  0
 11 10  1  0  0  0  0
 11 38  1  0  0  0  0
 12 11  2  0  0  0  0
 13 39  1  0  0  0  0
 13 12  1  0  0  0  0
 14 15  1  0  0  0  0
 15 31  1  0  0  0  0
 16 15  2  0  0  0  0
 16 40  1  0  0  0  0
 17 16  1  0  0  0  0
 18 19  1  0  0  0  0
 18 17  2  0  0  0  0
 19 14  2  0  0  0  0
 20  6  1  0  0  0  0
 20 19  1  0  0  0  0
 21  5  1  0  0  0  0
 21 43  1  1  0  0  0
 22 23  1  0  0  0  0
 22 21  1  0  0  0  0
 22 44  1  0  0  0  0
 23 47  1  0  0  0  0
 24 48  1  0  0  0  0
 24 25  1  0  0  0  0
 24 23  1  0  0  0  0
 25 51  1  0  0  0  0
 26 52  1  6  0  0  0
 26 25  1  0  0  0  0
 26  6  1  0  0  0  0
 26 21  1  0  0  0  0
 27 28  1  0  0  0  0
 27  8  1  0  0  0  0
 27 29  1  0  0  0  0
 28 54  1  0  0  0  0
 29 56  1  0  0  0  0
 30 27  1  0  0  0  0
 31 34  1  0  0  0  0
 31 33  1  0  0  0  0
 32 62  1  0  0  0  0
 32 31  1  0  0  0  0
 33 66  1  0  0  0  0
 33 65  1  0  0  0  0
 34 68  1  0  0  0  0
 34 69  1  0  0  0  0
 35 71  1  0  0  0  0
 35 73  1  0  0  0  0
 36 74  1  0  0  0  0
 36  4  1  0  0  0  0
 36 75  1  0  0  0  0
 41 18  1  0  0  0  0
 42 20  1  0  0  0  0
 45 22  1  0  0  0  0
 46 23  1  0  0  0  0
 49 24  1  0  0  0  0
 50 25  1  0  0  0  0
 53 28  1  0  0  0  0
 55 28  1  0  0  0  0
 57 29  1  0  0  0  0
 58 29  1  0  0  0  0
 59 30  1  0  0  0  0
 60 30  1  0  0  0  0
 61 30  1  0  0  0  0
 63 32  1  0  0  0  0
 64 32  1  0  0  0  0
 67 33  1  0  0  0  0
 70 34  1  0  0  0  0
 72 35  1  0  0  0  0
 76 36  1  0  0  0  0
M  CHG  2   1  -1   2  -1
M  END
