3,4,5,6
q = -2.0, confidence = 0.838

 64 65  0  0  0  0  0  0  0  0999 V2000
   -7.1111    0.4935   -0.8088 Br  0  0  0  0  0  0  0  0  0  0  0  0
    7.1114   -0.4939   -0.8084 Br  0  0  0  0  0  0  0  0  0  0  0  0
   -1.9358    0.5530   -0.7426 O   0  5  0  0  0  0  0  0  0  0  0  0
    1.9360   -0.5536   -0.7418 O   0  5  0  0  0  0  0  0  0  0  0  0
   -0.4636   -1.9837   -0.6990 N   0  0  0  0  0  2  0  0  0  0  0  0
    0.4638    1.9831   -0.7001 N   0  0  0  0  0  2  0  0  0  0  0  0
   -2.9207   -1.6750   -0.7686 C   0  0  0  0  0  0  0  0  0  0  0  0
   -2.9773   -0.2360   -0.7605 C   0  0  0  0  0  0  0  0  0  0  0  0
   -4.2613    0.3891   -0.7713 C   0  0  0  0  0  0  0  0  0  0  0  0
   -5.4192   -0.3781   -0.7954 C   0  0  0  0  0  0  0  0  0  0  0  0
   -5.3842   -1.7939   -0.8092 C   0  0  0  0  0  0  0  0  0  0  0  0
   -4.1407   -2.4094   -0.7953 C   0  0  0  0  0  3  0  0  0  0  0  0
   -1.6985   -2.4248   -0.7339 C   0  0  0  0  0  0  0  0  0  0  0  0
    2.9209    1.6744   -0.7691 C   0  0  0  0  0  0  0  0  0  0  0  0
    2.9775    0.2355   -0.7603 C   0  0  0  0  0  0  0  0  0  0  0  0
    4.2616   -0.3897   -0.7709 C   0  0  0  0  0  0  0  0  0  0  0  0
    5.4195    0.3776   -0.7953 C   0  0  0  0  0  0  0  0  0  0  0  0
    5.3844    1.7934   -0.8097 C   0  0  0  0  0  0  0  0  0  0  0  0
    4.1409    2.4089   -0.7961 C   0  0  0  0  0  3  0  0  0  0  0  0
    1.6987    2.4242   -0.7350 C   0  0  0  0  0  0  0  0  0  0  0  0
    0.6004   -2.9950   -0.5755 C   0  0  0  0  0  0  0  0  0  0  0  0
    1.1918   -3.0498    0.8386 C   0  0  0  0  0  0  0  0  0  0  0  0
    0.2037   -3.4297    1.9444 C   0  0  0  0  0  0  0  0  0  0  0  0
    0.7346   -3.1497    3.3610 C   0  0  0  0  0  0  0  0  0  0  0  0
    1.0345   -1.6694    3.6498 C   0  0  0  0  0  0  0  0  0  0  0  0
   -0.1835   -0.7419    3.5809 C   0  0  0  0  0  0  0  0  0  0  0  0
    0.1821    0.7445    3.5806 C   0  0  0  0  0  0  0  0  0  0  0  0
   -1.0357    1.6723    3.6487 C   0  0  0  0  0  0  0  0  0  0  0  0
   -0.7353    3.1522    3.3589 C   0  0  0  0  0  0  0  0  0  0  0  0
   -0.2041    3.4310    1.9422 C   0  0  0  0  0  0  0  0  0  0  0  0
   -1.1919    3.0501    0.8365 C   0  0  0  0  0  0  0  0  0  0  0  0
   -0.6003    2.9945   -0.5775 C   0  0  0  0  0  0  0  0  0  0  0  0
   -4.2993    1.4863   -0.7617 H   0  0  0  0  0  0  0  0  0  0  0  0
   -6.3142   -2.3764   -0.8286 H   0  0  0  0  0  0  0  0  0  0  0  0
   -4.0847   -3.5097   -0.8017 H   0  0  0  0  0  0  0  0  0  0  0  0
   -1.8245   -3.5251   -0.7275 H   0  0  0  0  0  0  0  0  0  0  0  0
    4.2995   -1.4868   -0.7608 H   0  0  0  0  0  0  0  0  0  0  0  0
    6.3143    2.3759   -0.8292 H   0  0  0  0  0  0  0  0  0  0  0  0
    4.0849    3.5092   -0.8029 H   0  0  0  0  0  0  0  0  0  0  0  0
    1.8247    3.5245   -0.7292 H   0  0  0  0  0  0  0  0  0  0  0  0
    1.4017   -2.7373   -1.2923 H   0  0  0  0  0  0  0  0  0  0  0  0
    0.1760   -3.9819   -0.8606 H   0  0  0  0  0  0  0  0  0  0  0  0
    1.6374   -2.0574    1.0421 H   0  0  0  0  0  0  0  0  0  0  0  0
    2.0406   -3.7679    0.8210 H   0  0  0  0  0  0  0  0  0  0  0  0
   -0.7446   -2.8686    1.8001 H   0  0  0  0  0  0  0  0  0  0  0  0
   -0.0683   -4.5045    1.8560 H   0  0  0  0  0  0  0  0  0  0  0  0
    1.6593   -3.7448    3.5282 H   0  0  0  0  0  0  0  0  0  0  0  0
   -0.0059   -3.5234    4.1018 H   0  0  0  0  0  0  0  0  0  0  0  0
    1.8057   -1.2999    2.9383 H   0  0  0  0  0  0  0  0  0  0  0  0
    1.5026   -1.5838    4.6545 H   0  0  0  0  0  0  0  0  0  0  0  0
   -0.8741   -0.9697    4.4242 H   0  0  0  0  0  0  0  0  0  0  0  0
   -0.7618   -0.9440    2.6521 H   0  0  0  0  0  0  0  0  0  0  0  0
    0.7608    0.9461    2.6519 H   0  0  0  0  0  0  0  0  0  0  0  0
    0.8725    0.9726    4.4241 H   0  0  0  0  0  0  0  0  0  0  0  0
   -1.8069    1.3025    2.9373 H   0  0  0  0  0  0  0  0  0  0  0  0
   -1.5040    1.5875    4.6534 H   0  0  0  0  0  0  0  0  0  0  0  0
    0.0051    3.5263    4.0996 H   0  0  0  0  0  0  0  0  0  0  0  0
   -1.6599    3.7477    3.5255 H   0  0  0  0  0  0  0  0  0  0  0  0
    0.0678    4.5058    1.8529 H   0  0  0  0  0  0  0  0  0  0  0  0
    0.7442    2.8699    1.7987 H   0  0  0  0  0  0  0  0  0  0  0  0
   -1.6373    2.0577    1.0406 H   0  0  0  0  0  0  0  0  0  0  0  0
   -2.0409    3.7680    0.8183 H   0  0  0  0  0  0  0  0  0  0  0  0
   -1.4015    2.7362   -1.2942 H   0  0  0  0  0  0  0  0  0  0  0  0
   -0.1760    3.9812   -0.8633 H   0  0  0  0  0  0  0  0  0  0  0  0
  1 10  1  0  0  0  0
  2 17  1  0  0  0  0
  5 21  1  0  0  0  0
  6 32  1  0  0  0  0
  7  8  1  0  0  0  0
  7 13  2  0  0  0  0
  8  3  1  0  0  0  0
  9 33  1  0  0  0  0
  9  8  2  0  0  0  0
 10  9  1  0  0  0  0
 11 10  2  0  0  0  0
 11 12  1  0  0  0  0
 12  7  1  0  0  0  0
 13 36  1  0  0  0  0
 13  5  1  0  0  0  0
 14 15  1  0  0  0  0
 14 20  2  0  0  0  0
 15  4  1  0  0  0  0
 16 37  1  0  0  0  0
 16 15  2  0  0  0  0
 17 16  1  0  0  0  0
 18 19  1  0  0  0  0
 18 17  2  0  0  0  0
 19 14  1  0  0  0  0
 20 40  1  0  0  0  0
 20  6  1  0  0  0  0
 21 22  1  0  0  0  0
 22 43  1  0  0  0  0
 22 23  1  0  0  0  0
 23 24  1  0  0  0  0
 24 47  1  0  0  0  0
 24 25  1  0  0  0  0
 24 48  1  0  0  0  0
 25 50  1  0  0  0  0
 26 25  1  0  0  0  0
 26 51  1  0  0  0  0
 27 26  1  0  0  0  0
 27 28  1  0  0  0  0
 27 54  1  0  0  0  0
 28 56  1  0  0  0  0
 29 58  1  0  0  0  0
 29 28  1  0  0  0  0
 29 57  1  0  0  0  0
 30 29  1  0  0  0  0
 31 61  1  0  0  0  0
 31 30  1  0  0  0  0
 32 31  1  0  0  0  0
 34 11  1  0  0  0  0
 35 12  1  0  0  0  0
 38 18  1  0  0  0  0
 39 19  1  0  0  0  0
 41 21  1  0  0  0  0
 42 21  1  0  0  0  0
 44 22  1  0  0  0  0
 45 23  1  0  0  0  0
 46 23  1  0  0  0  0
 49 25  1  0  0  0  0
 52 26  1  0  0  0  0
 53 27  1  0  0  0  0
 55 28  1  0  0  0  0
 59 30  1  0  0  0  0
 60 30  1  0  0  0  0
 62 31  1  0  0  0  0
 63 32  1  0  0  0  0
 64 32  1  0  0  0  0
M  CHG  2   3  -1   4  -1
M  END
