3,4,5,6
q = -2.0, confidence = 0.878

 38 40  0  0  0  0  0  0  0  0999 V2000
    2.9831    0.0007   -3.5958 F   0  0  0  0  0  0  0  0  0  0  0  0
   -2.9831   -0.0005   -3.5958 F   0  0  0  0  0  0  0  0  0  0  0  0
    1.4055    0.0003   -1.4846 O   0  5  0  0  0  0  0  0  0  0  0  0
   -1.4055   -0.0003   -1.4846 O   0  5  0  0  0  0  0  0  0  0  0  0
    1.3144    0.0003    1.4986 N   0  0  0  0  0  2  0  0  0  0  0  0
   -1.3145   -0.0003    1.4986 N   0  0  0  0  0  2  0  0  0  0  0  0
    2.6780    0.0006   -1.2446 C   0  0  0  0  0  0  0  0  0  0  0  0
    3.5638    0.0008   -2.3812 C   0  0  0  0  0  0  0  0  0  0  0  0
    4.9421    0.0011   -2.2779 C   0  0  0  0  0  0  0  0  0  0  0  0
    5.5390    0.0012   -3.2019 H   0  0  0  0  0  0  0  0  0  0  0  0
    5.5516    0.0012   -0.9951 C   0  0  0  0  0  0  0  0  0  0  0  0
    6.6475    0.0014   -0.9089 H   0  0  0  0  0  0  0  0  0  0  0  0
    4.7531    0.0010    0.1348 C   0  0  0  0  0  0  0  0  0  0  0  0
    5.2172    0.0010    1.1339 H   0  0  0  0  0  0  0  0  0  0  0  0
    3.3198    0.0007    0.0638 C   0  0  0  0  0  0  0  0  0  0  0  0
    2.6282    0.0005    1.3165 C   0  0  0  0  0  3  0  0  0  0  0  0
    3.2801    0.0006    2.2095 H   0  0  0  0  0  0  0  0  0  0  0  0
    0.7169    0.0001    2.7823 C   0  0  0  0  0  0  0  0  0  0  0  0
    1.4066    0.0003    4.0129 C   0  0  0  0  0  0  0  0  0  0  0  0
    2.5050    0.0005    4.0294 H   0  0  0  0  0  0  0  0  0  0  0  0
    0.7036    0.0001    5.2234 C   0  0  0  0  0  0  0  0  0  0  0  0
    1.2572    0.0002    6.1740 H   0  0  0  0  0  0  0  0  0  0  0  0
   -0.7037   -0.0002    5.2234 C   0  0  0  0  0  0  0  0  0  0  0  0
   -1.2574   -0.0003    6.1740 H   0  0  0  0  0  0  0  0  0  0  0  0
   -1.4067   -0.0004    4.0129 C   0  0  0  0  0  0  0  0  0  0  0  0
   -2.5051   -0.0006    4.0293 H   0  0  0  0  0  0  0  0  0  0  0  0
   -0.7170   -0.0002    2.7823 C   0  0  0  0  0  0  0  0  0  0  0  0
   -2.6283   -0.0007    1.3164 C   0  0  0  0  0  3  0  0  0  0  0  0
   -3.2802   -0.0009    2.2095 H   0  0  0  0  0  0  0  0  0  0  0  0
   -3.3199   -0.0008    0.0637 C   0  0  0  0  0  0  0  0  0  0  0  0
   -4.7531   -0.0011    0.1347 C   0  0  0  0  0  0  0  0  0  0  0  0
   -5.2173   -0.0012    1.1338 H   0  0  0  0  0  0  0  0  0  0  0  0
   -5.5517   -0.0012   -0.9952 C   0  0  0  0  0  0  0  0  0  0  0  0
   -6.6476   -0.0014   -0.9089 H   0  0  0  0  0  0  0  0  0  0  0  0
   -4.9421   -0.0010   -2.2779 C   0  0  0  0  0  0  0  0  0  0  0  0
   -5.5390   -0.0010   -3.2020 H   0  0  0  0  0  0  0  0  0  0  0  0
   -3.5639   -0.0007   -2.3813 C   0  0  0  0  0  0  0  0  0  0  0  0
   -2.6781   -0.0006   -1.2447 C   0  0  0  0  0  0  0  0  0  0  0  0
  1  8  1  0  0  0  0
  2 37  1  0  0  0  0
  3  7  1  0  0  0  0
  4 38  1  0  0  0  0
  5 18  1  0  0  0  0
  6 27  1  0  0  0  0
  7 15  1  0  0  0  0
  8  9  1  0  0  0  0
  8  7  2  0  0  0  0
  9 11  2  0  0  0  0
 10  9  1  0  0  0  0
 11 12  1  0  0  0  0
 11 13  1  0  0  0  0
 13 14  1  0  0  0  0
 15 13  2  0  0  0  0
 15 16  1  0  0  0  0
 16  5  1  0  0  0  0
 16 17  1  0  0  0  0
 18 19  1  0  0  0  0
 19 20  1  0  0  0  0
 19 21  2  0  0  0  0
 21 22  1  0  0  0  0
 23 21  1  0  0  0  0
 23 24  1  0  0  0  0
 25 26  1  0  0  0  0
 25 23  2  0  0  0  0
 27 18  2  0  0  0  0
 27 25  1  0  0  0  0
 28  6  1  0  0  0  0
 28 29  1  0  0  0  0
 30 31  1  0  0  0  0
 30 28  1  0  0  0  0
 31 32  1  0  0  0  0
 33 34  1  0  0  0  0
 33 31  2  0  0  0  0
 35 33  1  0  0  0  0
 36 35  1  0  0  0  0
 37 35  2  0  0  0  0
 37 38  1  0  0  0  0
 38 30  2  0  0  0  0
M  CHG  2   3  -1   4  -1
M  END
