1,19,23,41
q = -2.0, confidence = 0.858

 44 43  0  0  1  0  0  0  0  0999 V2000
   -1.5005   -0.7711   -0.0212 O   0  0  0  0  0  1  0  0  0  0  0  0
   -2.8540   -0.6268    0.1756 C   0  0  0  0  0  0  0  0  0  0  0  0
   -3.5778   -0.6493   -1.2099 C   0  0  0  0  0  0  0  0  0  0  0  0
   -3.3258    0.4977   -1.8866 F   0  0  0  0  0  0  0  0  0  0  0  0
   -3.1792   -1.6741   -1.9666 F   0  0  0  0  0  0  0  0  0  0  0  0
   -4.9227   -0.7259   -1.0514 F   0  0  0  0  0  0  0  0  0  0  0  0
   -3.3194   -1.8338    1.0584 C   0  0  0  0  0  0  0  0  0  0  0  0
   -2.5762   -1.8798    2.1782 F   0  0  0  0  0  0  0  0  0  0  0  0
   -3.1804   -3.0002    0.4088 F   0  0  0  0  0  0  0  0  0  0  0  0
   -4.6161   -1.7090    1.4300 F   0  0  0  0  0  0  0  0  0  0  0  0
   -3.1903    0.6794    0.9307 C   0  0  0  0  0  0  0  0  0  0  0  0
   -2.7289    0.5736    1.9385 H   0  0  0  0  0  0  0  0  0  0  0  0
   -4.2857    0.7609    1.0519 H   0  0  0  0  0  0  0  0  0  0  0  0
   -2.6222    1.9566    0.3535 C   0  0  1  0  0  3  0  0  0  0  0  0
   -3.6022    3.0917    0.2571 C   0  0  0  0  0  0  0  0  0  0  0  0
   -4.1146    3.2423    1.2295 H   0  0  0  0  0  0  0  0  0  0  0  0
   -4.3859    2.7977   -0.4728 H   0  0  0  0  0  0  0  0  0  0  0  0
   -3.1642    4.0485   -0.0735 H   0  0  0  0  0  0  0  0  0  0  0  0
   -1.3700    2.0187    0.0397 N   0  0  0  0  0  2  0  0  0  0  0  0
   -0.6865    3.2473   -0.3409 C   0  0  0  0  0  0  0  0  0  0  0  0
   -1.2418    4.1630   -0.0556 H   0  0  0  0  0  0  0  0  0  0  0  0
   -0.5504    3.2322   -1.4432 H   0  0  0  0  0  0  0  0  0  0  0  0
    1.5007   -0.7709    0.0240 O   0  0  0  0  0  1  0  0  0  0  0  0
    2.8538   -0.6272   -0.1753 C   0  0  0  0  0  0  0  0  0  0  0  0
    3.3176   -1.8351   -1.0578 C   0  0  0  0  0  0  0  0  0  0  0  0
    2.5731   -1.8814   -2.1768 F   0  0  0  0  0  0  0  0  0  0  0  0
    3.1786   -3.0009   -0.4073 F   0  0  0  0  0  0  0  0  0  0  0  0
    4.6139   -1.7111   -1.4308 F   0  0  0  0  0  0  0  0  0  0  0  0
    3.5797   -0.6486    1.2092 C   0  0  0  0  0  0  0  0  0  0  0  0
    3.1830   -1.6735    1.9668 F   0  0  0  0  0  0  0  0  0  0  0  0
    4.9245   -0.7242    1.0488 F   0  0  0  0  0  0  0  0  0  0  0  0
    3.3275    0.4984    1.8857 F   0  0  0  0  0  0  0  0  0  0  0  0
    3.1895    0.6783   -0.9319 C   0  0  0  0  0  0  0  0  0  0  0  0
    4.2848    0.7595   -1.0543 H   0  0  0  0  0  0  0  0  0  0  0  0
    2.7270    0.5719   -1.9390 H   0  0  0  0  0  0  0  0  0  0  0  0
    2.6222    1.9561   -0.3551 C   0  0  1  0  0  3  0  0  0  0  0  0
    3.6025    3.0912   -0.2610 C   0  0  0  0  0  0  0  0  0  0  0  0
    3.1649    4.0484    0.0691 H   0  0  0  0  0  0  0  0  0  0  0  0
    4.1136    3.2407   -1.2342 H   0  0  0  0  0  0  0  0  0  0  0  0
    4.3871    2.7980    0.4683 H   0  0  0  0  0  0  0  0  0  0  0  0
    1.3704    2.0184   -0.0397 N   0  0  0  0  0  2  0  0  0  0  0  0
    0.6872    3.2473    0.3405 C   0  0  0  0  0  0  0  0  0  0  0  0
    1.2427    4.1629    0.0551 H   0  0  0  0  0  0  0  0  0  0  0  0
    0.5510    3.2324    1.4427 H   0  0  0  0  0  0  0  0  0  0  0  0
  1  2  1  0  0  0  0
  2 11  1  0  0  0  0
  2  7  1  0  0  0  0
  3  6  1  0  0  0  0
  3  2  1  0  0  0  0
  4  3  1  0  0  0  0
  5  3  1  0  0  0  0
  7 10  1  0  0  0  0
  7  8  1  0  0  0  0
  9  7  1  0  0  0  0
 11 13  1  0  0  0  0
 11 12  1  0  0  0  0
 14 19  1  1  0  0  0
 14 11  1  0  0  0  0
 15 14  1  0  0  0  0
 15 16  1  0  0  0  0
 17 15  1  0  0  0  0
 18 15  1  0  0  0  0
 20 21  1  0  0  0  0
 20 19  1  0  0  0  0
 20 42  1  0  0  0  0
 22 20  1  0  0  0  0
 24 23  1  0  0  0  0
 24 29  1  0  0  0  0
 25 27  1  0  0  0  0
 25 24  1  0  0  0  0
 26 25  1  0  0  0  0
 28 25  1  0  0  0  0
 29 32  1  0  0  0  0
 29 30  1  0  0  0  0
 31 29  1  0  0  0  0
 33 36  1  0  0  0  0
 33 24  1  0  0  0  0
 34 33  1  0  0  0  0
 35 33  1  0  0  0  0
 36 37  1  0  0  0  0
 36 41  1  6  0  0  0
 37 38  1  0  0  0  0
 37 40  1  0  0  0  0
 39 37  1  0  0  0  0
 41 42  1  0  0  0  0
 42 44  1  0  0  0  0
 43 42  1  0  0  0  0
M  END
