1,2,7,8
q = -2.0, confidence = 0.8

 44 44  0  0  0  0  0  0  0  0999 V2000
    1.3204   -1.8607   -0.6839 O   0  5  0  0  0  0  0  0  0  0  0  0
   -1.3202   -1.8605   -0.6846 O   0  5  0  0  0  0  0  0  0  0  0  0
    5.5234   -1.4306   -0.6613 O   0  0  0  0  0  0  0  0  0  0  0  0
    5.2583    0.8070   -0.4730 O   0  0  0  0  0  0  0  0  0  0  0  0
   -5.5232   -1.4307   -0.6613 O   0  0  0  0  0  0  0  0  0  0  0  0
   -5.2582    0.8070   -0.4731 O   0  0  0  0  0  0  0  0  0  0  0  0
    1.2822    0.8985   -0.3431 N   0  0  0  0  0  2  0  0  0  0  0  0
   -1.2820    0.8986   -0.3435 N   0  0  0  0  0  2  0  0  0  0  0  0
    2.5975   -1.7657   -0.7014 C   0  0  0  0  0  0  0  0  0  0  0  0
    3.2862   -0.5079   -0.5555 C   0  0  0  0  0  0  0  0  0  0  0  0
    2.6016    0.7297   -0.4251 C   0  0  0  0  0  3  0  0  0  0  0  0
    3.2445    1.6237   -0.3987 H   0  0  0  0  0  0  0  0  0  0  0  0
    0.7144    2.1837   -0.1704 C   0  0  0  0  0  0  0  0  0  0  0  0
    1.4106    3.3957    0.0137 C   0  0  0  0  0  0  0  0  0  0  0  0
    2.5093    3.4091    0.0271 H   0  0  0  0  0  0  0  0  0  0  0  0
    0.7040    4.5921    0.1890 C   0  0  0  0  0  0  0  0  0  0  0  0
    1.2558    5.5328    0.3338 H   0  0  0  0  0  0  0  0  0  0  0  0
   -0.7037    4.5921    0.1887 C   0  0  0  0  0  0  0  0  0  0  0  0
   -1.2556    5.5329    0.3331 H   0  0  0  0  0  0  0  0  0  0  0  0
   -1.4104    3.3959    0.0130 C   0  0  0  0  0  0  0  0  0  0  0  0
   -2.5091    3.4093    0.0258 H   0  0  0  0  0  0  0  0  0  0  0  0
   -0.7143    2.1838   -0.1707 C   0  0  0  0  0  0  0  0  0  0  0  0
   -2.6014    0.7298   -0.4253 C   0  0  0  0  0  3  0  0  0  0  0  0
   -3.2444    1.6237   -0.3987 H   0  0  0  0  0  0  0  0  0  0  0  0
   -3.2860   -0.5079   -0.5558 C   0  0  0  0  0  0  0  0  0  0  0  0
   -2.5973   -1.7656   -0.7020 C   0  0  0  0  0  0  0  0  0  0  0  0
    3.3247   -3.0699   -0.9163 C   0  0  0  0  0  0  0  0  0  0  0  0
    3.9945   -3.2988   -0.0644 H   0  0  0  0  0  0  0  0  0  0  0  0
    3.9920   -3.0225   -1.7986 H   0  0  0  0  0  0  0  0  0  0  0  0
    2.5689   -3.8667   -1.0428 H   0  0  0  0  0  0  0  0  0  0  0  0
   -3.3246   -3.0697   -0.9171 C   0  0  0  0  0  0  0  0  0  0  0  0
   -2.5688   -3.8665   -1.0439 H   0  0  0  0  0  0  0  0  0  0  0  0
   -3.9920   -3.0222   -1.7992 H   0  0  0  0  0  0  0  0  0  0  0  0
   -3.9941   -3.2989   -0.0652 H   0  0  0  0  0  0  0  0  0  0  0  0
    4.7649   -0.4724   -0.5740 C   0  0  0  0  0  0  0  0  0  0  0  0
    6.6807    0.9052   -0.4876 C   0  0  0  0  0  0  0  0  0  0  0  0
    7.1314    0.3411    0.3548 H   0  0  0  0  0  0  0  0  0  0  0  0
    6.9154    1.9815   -0.3968 H   0  0  0  0  0  0  0  0  0  0  0  0
    7.1025    0.4989   -1.4299 H   0  0  0  0  0  0  0  0  0  0  0  0
   -4.7647   -0.4724   -0.5741 C   0  0  0  0  0  0  0  0  0  0  0  0
   -6.6806    0.9051   -0.4874 C   0  0  0  0  0  0  0  0  0  0  0  0
   -7.1025    0.4992   -1.4299 H   0  0  0  0  0  0  0  0  0  0  0  0
   -6.9154    1.9814   -0.3961 H   0  0  0  0  0  0  0  0  0  0  0  0
   -7.1311    0.3406    0.3548 H   0  0  0  0  0  0  0  0  0  0  0  0
  3 35  2  0  0  0  0
  5 40  2  0  0  0  0
  7 13  1  0  0  0  0
  8 22  1  0  0  0  0
  9  1  1  0  0  0  0
  9 10  2  0  0  0  0
 10 11  1  0  0  0  0
 11 12  1  0  0  0  0
 11  7  1  0  0  0  0
 13 14  1  0  0  0  0
 14 15  1  0  0  0  0
 14 16  2  0  0  0  0
 16 17  1  0  0  0  0
 18 16  1  0  0  0  0
 18 19  1  0  0  0  0
 20 21  1  0  0  0  0
 20 18  2  0  0  0  0
 22 13  2  0  0  0  0
 22 20  1  0  0  0  0
 23 24  1  0  0  0  0
 23  8  1  0  0  0  0
 25 23  1  0  0  0  0
 26  2  1  0  0  0  0
 26 25  2  0  0  0  0
 27  9  1  0  0  0  0
 27 28  1  0  0  0  0
 29 27  1  0  0  0  0
 30 27  1  0  0  0  0
 31 26  1  0  0  0  0
 31 34  1  0  0  0  0
 32 31  1  0  0  0  0
 33 31  1  0  0  0  0
 35 10  1  0  0  0  0
 35  4  1  0  0  0  0
 36  4  1  0  0  0  0
 36 38  1  0  0  0  0
 36 37  1  0  0  0  0
 39 36  1  0  0  0  0
 40 25  1  0  0  0  0
 40  6  1  0  0  0  0
 41  6  1  0  0  0  0
 41 43  1  0  0  0  0
 41 44  1  0  0  0  0
 42 41  1  0  0  0  0
M  CHG  2   1  -1   2  -1
M  END
