5,6,7,8
q = -2.0, confidence = 0.858

 44 46  0  0  1  0  0  0  0  0999 V2000
   -2.8008   -3.6302    0.0226 Br  0  0  0  0  0  0  0  0  0  0  0  0
   -7.4535   -0.3346    0.2512 Br  0  0  0  0  0  0  0  0  0  0  0  0
    2.8490   -3.6112   -0.3387 Br  0  0  0  0  0  0  0  0  0  0  0  0
    7.4541   -0.2494   -0.3361 Br  0  0  0  0  0  0  0  0  0  0  0  0
   -1.4301   -0.9856   -0.1276 O   0  5  0  0  0  0  0  0  0  0  0  0
    1.4289   -0.9797   -0.4676 O   0  5  0  0  0  0  0  0  0  0  0  0
   -1.3300    1.9506   -0.2190 N   0  0  0  0  0  2  0  0  0  0  0  0
    1.2878    1.9282   -0.6492 N   0  0  0  0  0  2  0  0  0  0  0  0
   -2.7022   -0.7692   -0.0375 C   0  0  0  0  0  0  0  0  0  0  0  0
   -3.5915   -1.9033    0.0391 C   0  0  0  0  0  0  0  0  0  0  0  0
   -4.9735   -1.7860    0.1309 C   0  0  0  0  0  0  0  0  0  0  0  0
   -5.6001   -2.6851    0.2017 H   0  0  0  0  0  0  0  0  0  0  0  0
   -5.5570   -0.4979    0.1304 C   0  0  0  0  0  0  0  0  0  0  0  0
   -4.7610    0.6347    0.0398 C   0  0  0  0  0  0  0  0  0  0  0  0
   -5.2261    1.6318    0.0347 H   0  0  0  0  0  0  0  0  0  0  0  0
   -3.3407    0.5384   -0.0431 C   0  0  0  0  0  0  0  0  0  0  0  0
   -2.6312    1.7909   -0.1751 C   0  0  0  0  0  3  0  0  0  0  0  0
   -3.2742    2.6874   -0.2423 H   0  0  0  0  0  0  0  0  0  0  0  0
   -0.7075    3.2891   -0.2846 C   0  0  1  0  0  0  0  0  0  0  0  0
   -0.4182    3.5421    0.7581 H   0  0  0  0  0  0  0  0  0  0  0  0
    0.6026    3.1623   -1.0876 C   0  0  1  0  0  0  0  0  0  0  0  0
    0.3142    2.9861   -2.1519 H   0  0  0  0  0  0  0  0  0  0  0  0
    1.4071    4.4636   -1.0128 C   0  0  0  0  0  0  0  0  0  0  0  0
    1.7207    4.6315    0.0405 H   0  0  0  0  0  0  0  0  0  0  0  0
    2.3297    4.3890   -1.6235 H   0  0  0  0  0  0  0  0  0  0  0  0
    0.5604    5.6432   -1.5128 C   0  0  0  0  0  0  0  0  0  0  0  0
    1.1369    6.5865   -1.4202 H   0  0  0  0  0  0  0  0  0  0  0  0
    0.3557    5.5076   -2.5983 H   0  0  0  0  0  0  0  0  0  0  0  0
   -0.7684    5.7521   -0.7583 C   0  0  0  0  0  0  0  0  0  0  0  0
   -1.3783    6.5845   -1.1657 H   0  0  0  0  0  0  0  0  0  0  0  0
   -0.5656    6.0001    0.3068 H   0  0  0  0  0  0  0  0  0  0  0  0
   -1.5652    4.4403   -0.8138 C   0  0  0  0  0  0  0  0  0  0  0  0
   -2.4854    4.5470   -0.2047 H   0  0  0  0  0  0  0  0  0  0  0  0
   -1.8867    4.2229   -1.8570 H   0  0  0  0  0  0  0  0  0  0  0  0
    2.5885    1.7851   -0.7343 C   0  0  0  0  0  3  0  0  0  0  0  0
    3.1999    2.6676   -0.9995 H   0  0  0  0  0  0  0  0  0  0  0  0
    3.3245    0.5622   -0.5250 C   0  0  0  0  0  0  0  0  0  0  0  0
    2.7009   -0.7511   -0.4483 C   0  0  0  0  0  0  0  0  0  0  0  0
    3.6086   -1.8722   -0.3822 C   0  0  0  0  0  0  0  0  0  0  0  0
    4.9903   -1.7321   -0.3397 C   0  0  0  0  0  0  0  0  0  0  0  0
    5.6319   -2.6204   -0.2673 H   0  0  0  0  0  0  0  0  0  0  0  0
    5.5574   -0.4370   -0.3937 C   0  0  0  0  0  0  0  0  0  0  0  0
    4.7453    0.6817   -0.4991 C   0  0  0  0  0  0  0  0  0  0  0  0
    5.1959    1.6831   -0.5656 H   0  0  0  0  0  0  0  0  0  0  0  0
  1 10  1  0  0  0  0
  5  9  1  0  0  0  0
  6 38  1  0  0  0  0
  7 17  1  0  0  0  0
  9 10  1  0  0  0  0
 10 11  2  0  0  0  0
 11 12  1  0  0  0  0
 13 11  1  0  0  0  0
 13  2  1  0  0  0  0
 14 13  2  0  0  0  0
 15 14  1  0  0  0  0
 16  9  2  0  0  0  0
 16 14  1  0  0  0  0
 17 16  1  0  0  0  0
 18 17  1  0  0  0  0
 19  7  1  0  0  0  0
 19 20  1  1  0  0  0
 21 22  1  6  0  0  0
 21 23  1  0  0  0  0
 21  8  1  0  0  0  0
 21 19  1  0  0  0  0
 23 24  1  0  0  0  0
 25 23  1  0  0  0  0
 26 27  1  0  0  0  0
 26 23  1  0  0  0  0
 26 29  1  0  0  0  0
 28 26  1  0  0  0  0
 29 31  1  0  0  0  0
 30 29  1  0  0  0  0
 32 29  1  0  0  0  0
 32 19  1  0  0  0  0
 32 33  1  0  0  0  0
 34 32  1  0  0  0  0
 35  8  1  0  0  0  0
 35 37  1  0  0  0  0
 36 35  1  0  0  0  0
 37 43  2  0  0  0  0
 37 38  1  0  0  0  0
 38 39  2  0  0  0  0
 39 40  1  0  0  0  0
 39  3  1  0  0  0  0
 40 41  1  0  0  0  0
 42 40  2  0  0  0  0
 42  4  1  0  0  0  0
 43 42  1  0  0  0  0
 44 43  1  0  0  0  0
M  CHG  2   5  -1   6  -1
M  END
