3,4,5,6
q = -2.0, confidence = 0.924

 44 46  0  0  1  0  0  0  0  0999 V2000
    0.8881   -4.4157   -0.4141 Br  0  0  0  0  0  0  0  0  0  0  0  0
    4.2776   -0.0471   -0.6335 Br  0  0  0  0  0  0  0  0  0  0  0  0
   -0.3416   -1.7084   -0.3987 O   0  5  0  0  0  0  0  0  0  0  0  0
    1.3768    0.5801   -0.9481 O   0  5  0  0  0  0  0  0  0  0  0  0
   -2.5340    0.2122    0.1399 N   0  0  0  0  0  2  0  0  0  0  0  0
   -0.9785    2.3079   -0.4485 N   0  0  0  0  0  2  0  0  0  0  0  0
   -1.2753   -2.5616   -0.1289 C   0  0  0  0  0  0  0  0  0  0  0  0
   -0.9350   -3.9635   -0.1026 C   0  0  0  0  0  0  0  0  0  0  0  0
   -1.8642   -4.9677    0.1384 C   0  0  0  0  0  0  0  0  0  0  0  0
   -1.5348   -6.0169    0.1290 H   0  0  0  0  0  0  0  0  0  0  0  0
   -3.2153   -4.6387    0.3961 C   0  0  0  0  0  0  0  0  0  0  0  0
   -3.9497   -5.4349    0.5825 H   0  0  0  0  0  0  0  0  0  0  0  0
   -3.5883   -3.3022    0.4274 C   0  0  0  0  0  0  0  0  0  0  0  0
   -4.6319   -3.0306    0.6547 H   0  0  0  0  0  0  0  0  0  0  0  0
   -2.6621   -2.2458    0.1843 C   0  0  0  0  0  0  0  0  0  0  0  0
   -3.1772   -0.9068    0.3462 C   0  0  0  0  0  3  0  0  0  0  0  0
   -4.2223   -0.8513    0.7068 H   0  0  0  0  0  0  0  0  0  0  0  0
   -3.0886    1.5333    0.4971 C   0  0  1  0  0  0  0  0  0  0  0  0
   -2.7443    1.7456    1.5386 H   0  0  0  0  0  0  0  0  0  0  0  0
   -2.4205    2.6022   -0.4063 C   0  0  1  0  0  0  0  0  0  0  0  0
   -2.8032    2.4264   -1.4397 H   0  0  0  0  0  0  0  0  0  0  0  0
   -2.8324    4.0131    0.0210 C   0  0  0  0  0  0  0  0  0  0  0  0
   -2.3764    4.7662   -0.6535 H   0  0  0  0  0  0  0  0  0  0  0  0
   -2.4437    4.2177    1.0436 H   0  0  0  0  0  0  0  0  0  0  0  0
   -4.3609    4.1557   -0.0000 C   0  0  0  0  0  0  0  0  0  0  0  0
   -4.6506    5.1716    0.3382 H   0  0  0  0  0  0  0  0  0  0  0  0
   -4.7184    4.0621   -1.0492 H   0  0  0  0  0  0  0  0  0  0  0  0
   -5.0418    3.0888    0.8633 C   0  0  0  0  0  0  0  0  0  0  0  0
   -6.1451    3.1827    0.7974 H   0  0  0  0  0  0  0  0  0  0  0  0
   -4.7778    3.2582    1.9311 H   0  0  0  0  0  0  0  0  0  0  0  0
   -4.6142    1.6699    0.4618 C   0  0  0  0  0  0  0  0  0  0  0  0
   -5.0856    0.9350    1.1449 H   0  0  0  0  0  0  0  0  0  0  0  0
   -4.9727    1.4327   -0.5640 H   0  0  0  0  0  0  0  0  0  0  0  0
   -0.0447    3.2226   -0.4426 C   0  0  0  0  0  3  0  0  0  0  0  0
   -0.3474    4.2831   -0.3492 H   0  0  0  0  0  0  0  0  0  0  0  0
    1.3798    2.9946   -0.5087 C   0  0  0  0  0  0  0  0  0  0  0  0
    1.9950    1.6856   -0.7025 C   0  0  0  0  0  0  0  0  0  0  0  0
    3.4335    1.6613   -0.5758 C   0  0  0  0  0  0  0  0  0  0  0  0
    4.2052    2.8021   -0.3911 C   0  0  0  0  0  0  0  0  0  0  0  0
    5.2983    2.7043   -0.3181 H   0  0  0  0  0  0  0  0  0  0  0  0
    3.5870    4.0694   -0.2874 C   0  0  0  0  0  0  0  0  0  0  0  0
    4.1992    4.9722   -0.1528 H   0  0  0  0  0  0  0  0  0  0  0  0
    2.2012    4.1454   -0.3353 C   0  0  0  0  0  0  0  0  0  0  0  0
    1.7030    5.1223   -0.2236 H   0  0  0  0  0  0  0  0  0  0  0  0
  1  8  1  0  0  0  0
  2 38  1  0  0  0  0
  3  7  1  0  0  0  0
  4 37  1  0  0  0  0
  5 16  1  0  0  0  0
  5 18  1  0  0  0  0
  6 34  1  0  0  0  0
  6 20  1  0  0  0  0
  7  8  2  0  0  0  0
  7 15  1  0  0  0  0
  8  9  1  0  0  0  0
  9 11  2  0  0  0  0
 10  9  1  0  0  0  0
 11 13  1  0  0  0  0
 11 12  1  0  0  0  0
 13 14  1  0  0  0  0
 15 16  1  0  0  0  0
 15 13  2  0  0  0  0
 16 17  1  0  0  0  0
 18 19  1  1  0  0  0
 20 21  1  6  0  0  0
 20 22  1  0  0  0  0
 20 18  1  0  0  0  0
 22 24  1  0  0  0  0
 23 22  1  0  0  0  0
 25 22  1  0  0  0  0
 25 26  1  0  0  0  0
 25 28  1  0  0  0  0
 27 25  1  0  0  0  0
 28 30  1  0  0  0  0
 29 28  1  0  0  0  0
 31 18  1  0  0  0  0
 31 28  1  0  0  0  0
 31 32  1  0  0  0  0
 33 31  1  0  0  0  0
 34 35  1  0  0  0  0
 36 34  1  0  0  0  0
 36 43  1  0  0  0  0
 37 38  1  0  0  0  0
 37 36  2  0  0  0  0
 38 39  2  0  0  0  0
 39 40  1  0  0  0  0
 39 41  1  0  0  0  0
 41 42  1  0  0  0  0
 43 41  2  0  0  0  0
 43 44  1  0  0  0  0
M  CHG  2   3  -1   4  -1
M  END
