1,3,25,27
q = -2.0, confidence = 0.862

 45 46  0  0  0  0  0  0  0  0999 V2000
   -1.2996    0.5614    1.3610 O   0  5  0  0  0  0  0  0  0  0  0  0
   -2.2935   -1.7729    2.0551 O   0  0  0  0  0  0  0  0  0  0  0  0
   -1.3934    2.7832   -0.1212 N   0  0  0  0  0  2  0  0  0  0  0  0
   -2.5344    2.2705   -0.5254 C   0  0  0  0  0  0  0  0  0  0  0  0
   -3.2336    2.9514   -1.0517 H   0  0  0  0  0  0  0  0  0  0  0  0
   -1.2398    4.2310   -0.2418 C   0  0  0  0  0  0  0  0  0  0  0  0
   -1.2565    4.6598    0.7855 H   0  0  0  0  0  0  0  0  0  0  0  0
   -2.1134    4.6551   -0.7837 H   0  0  0  0  0  0  0  0  0  0  0  0
    0.0567    4.6328   -0.9307 C   0  0  0  0  0  0  0  0  0  0  0  0
    0.0887    4.2120   -1.9581 H   0  0  0  0  0  0  0  0  0  0  0  0
    0.0758    5.7382   -1.0264 H   0  0  0  0  0  0  0  0  0  0  0  0
   -3.9834   -1.6391    0.2961 C   0  0  0  0  0  0  0  0  0  0  0  0
   -4.3765   -2.6435    0.4977 H   0  0  0  0  0  0  0  0  0  0  0  0
   -4.5846   -0.8500   -0.7177 C   0  0  0  0  0  0  0  0  0  0  0  0
   -2.4654   -3.1758    2.1618 C   0  0  0  0  0  0  0  0  0  0  0  0
   -3.5201   -3.4556    2.3815 H   0  0  0  0  0  0  0  0  0  0  0  0
   -1.8299   -3.5013    3.0063 H   0  0  0  0  0  0  0  0  0  0  0  0
   -2.1177   -3.6731    1.2308 H   0  0  0  0  0  0  0  0  0  0  0  0
   -6.0630   -1.5760   -1.6800 Br  0  0  0  0  0  0  0  0  0  0  0  0
   -2.3491    0.1557    0.7098 C   0  0  0  0  0  0  0  0  0  0  0  0
   -2.9898    0.9282   -0.3095 C   0  0  0  0  0  0  0  0  0  0  0  0
   -2.9101   -1.1348    1.0347 C   0  0  0  0  0  0  0  0  0  0  0  0
   -4.1222    0.4229   -1.0125 C   0  0  0  0  0  3  0  0  0  0  0  0
   -4.6052    1.0336   -1.7883 H   0  0  0  0  0  0  0  0  0  0  0  0
    1.1656    0.3706    1.2059 O   0  5  0  0  0  0  0  0  0  0  0  0
    2.0814   -2.0221    1.7629 O   0  0  0  0  0  0  0  0  0  0  0  0
    1.4157    2.7373   -0.0762 N   0  0  0  0  0  2  0  0  0  0  0  0
    2.5668    2.2222   -0.4472 C   0  0  0  0  0  0  0  0  0  0  0  0
    3.3012    2.9163   -0.9037 H   0  0  0  0  0  0  0  0  0  0  0  0
    1.2880    4.1910   -0.1512 C   0  0  0  0  0  0  0  0  0  0  0  0
    1.2283    4.5826    0.8890 H   0  0  0  0  0  0  0  0  0  0  0  0
    2.2061    4.6209   -0.6078 H   0  0  0  0  0  0  0  0  0  0  0  0
    3.9392   -1.7449    0.2036 C   0  0  0  0  0  0  0  0  0  0  0  0
    4.3190   -2.7617    0.3638 H   0  0  0  0  0  0  0  0  0  0  0  0
    4.6297   -0.8790   -0.6832 C   0  0  0  0  0  0  0  0  0  0  0  0
    2.2922   -3.4223    1.8063 C   0  0  0  0  0  0  0  0  0  0  0  0
    3.3127   -3.6790    2.1695 H   0  0  0  0  0  0  0  0  0  0  0  0
    1.5476   -3.8261    2.5168 H   0  0  0  0  0  0  0  0  0  0  0  0
    2.1235   -3.8752    0.8057 H   0  0  0  0  0  0  0  0  0  0  0  0
    6.1998   -1.5280   -1.5509 Br  0  0  0  0  0  0  0  0  0  0  0  0
    2.2663    0.0180    0.6068 C   0  0  0  0  0  0  0  0  0  0  0  0
    2.9949    0.8664   -0.2829 C   0  0  0  0  0  0  0  0  0  0  0  0
    2.7966   -1.2990    0.8681 C   0  0  0  0  0  0  0  0  0  0  0  0
    4.1886    0.4118   -0.9191 C   0  0  0  0  0  3  0  0  0  0  0  0
    4.7381    1.0817   -1.5953 H   0  0  0  0  0  0  0  0  0  0  0  0
  2 15  1  0  0  0  0
  4 21  2  0  0  0  0
  4  3  1  0  0  0  0
  5  4  1  0  0  0  0
  6  3  1  0  0  0  0
  6  7  1  0  0  0  0
  8  6  1  0  0  0  0
  9  6  1  0  0  0  0
  9 30  1  0  0  0  0
 10  9  1  0  0  0  0
 11  9  1  0  0  0  0
 12 13  1  0  0  0  0
 12 22  1  0  0  0  0
 14 12  2  0  0  0  0
 15 16  1  0  0  0  0
 15 17  1  0  0  0  0
 18 15  1  0  0  0  0
 19 14  1  0  0  0  0
 20 22  2  0  0  0  0
 20  1  1  0  0  0  0
 21 20  1  0  0  0  0
 22  2  1  0  0  0  0
 23 14  1  0  0  0  0
 23 21  1  0  0  0  0
 24 23  1  0  0  0  0
 26 36  1  0  0  0  0
 28 42  2  0  0  0  0
 28 27  1  0  0  0  0
 29 28  1  0  0  0  0
 30 27  1  0  0  0  0
 30 31  1  0  0  0  0
 32 30  1  0  0  0  0
 33 34  1  0  0  0  0
 33 43  1  0  0  0  0
 35 33  2  0  0  0  0
 36 37  1  0  0  0  0
 36 38  1  0  0  0  0
 39 36  1  0  0  0  0
 40 35  1  0  0  0  0
 41 43  2  0  0  0  0
 41 25  1  0  0  0  0
 42 41  1  0  0  0  0
 43 26  1  0  0  0  0
 44 35  1  0  0  0  0
 44 42  1  0  0  0  0
 45 44  1  0  0  0  0
M  CHG  2   1  -1  25  -1
M  END
