1,2,3,4
q = -2.0, confidence = 0.838

 64 65  0  0  0  0  0  0  0  0999 V2000
    1.5421    0.2066   -0.2326 O   0  5  0  0  0  0  0  0  0  0  0  0
   -1.5420    0.2067    0.2320 O   0  5  0  0  0  0  0  0  0  0  0  0
    1.3109   -2.4982   -0.2873 N   0  0  0  0  0  2  0  0  0  0  0  0
   -1.3109   -2.4982    0.2873 N   0  0  0  0  0  2  0  0  0  0  0  0
    2.8529    0.0627   -0.1505 C   0  0  0  0  0  0  0  0  0  0  0  0
    3.6992    1.2118   -0.0518 C   0  0  0  0  0  0  0  0  0  0  0  0
    5.0809    0.9845    0.0132 C   0  0  0  0  0  0  0  0  0  0  0  0
    5.7537    1.8503    0.0919 H   0  0  0  0  0  0  0  0  0  0  0  0
    5.6755   -0.3018   -0.0146 C   0  0  0  0  0  0  0  0  0  0  0  0
    4.8291   -1.4057   -0.1089 C   0  0  0  0  0  0  0  0  0  0  0  0
    5.2524   -2.4233   -0.1323 H   0  0  0  0  0  0  0  0  0  0  0  0
    3.4219   -1.2524   -0.1707 C   0  0  0  0  0  0  0  0  0  0  0  0
    2.6084   -2.4440   -0.2847 C   0  0  0  0  0  3  0  0  0  0  0  0
    3.1727   -3.3969   -0.3823 H   0  0  0  0  0  0  0  0  0  0  0  0
    0.6101   -3.7607   -0.4643 C   0  0  0  0  0  0  0  0  0  0  0  0
    0.2615   -3.8038   -1.5189 H   0  0  0  0  0  0  0  0  0  0  0  0
    1.2679   -4.6348   -0.2660 H   0  0  0  0  0  0  0  0  0  0  0  0
   -0.6100   -3.7606    0.4644 C   0  0  0  0  0  0  0  0  0  0  0  0
   -0.2614   -3.8036    1.5191 H   0  0  0  0  0  0  0  0  0  0  0  0
   -1.2678   -4.6348    0.2663 H   0  0  0  0  0  0  0  0  0  0  0  0
   -2.6083   -2.4440    0.2848 C   0  0  0  0  0  3  0  0  0  0  0  0
   -3.1726   -3.3969    0.3826 H   0  0  0  0  0  0  0  0  0  0  0  0
   -3.4219   -1.2524    0.1708 C   0  0  0  0  0  0  0  0  0  0  0  0
   -4.8291   -1.4058    0.1094 C   0  0  0  0  0  0  0  0  0  0  0  0
   -5.2524   -2.4233    0.1330 H   0  0  0  0  0  0  0  0  0  0  0  0
   -5.6755   -0.3019    0.0152 C   0  0  0  0  0  0  0  0  0  0  0  0
   -5.0809    0.9844   -0.0128 C   0  0  0  0  0  0  0  0  0  0  0  0
   -5.7538    1.8503   -0.0913 H   0  0  0  0  0  0  0  0  0  0  0  0
   -3.6992    1.2118    0.0519 C   0  0  0  0  0  0  0  0  0  0  0  0
   -2.8529    0.0627    0.1503 C   0  0  0  0  0  0  0  0  0  0  0  0
    3.0918    2.6258   -0.0002 C   0  0  0  0  0  0  0  0  0  0  0  0
    4.1808    3.7103    0.0906 C   0  0  0  0  0  0  0  0  0  0  0  0
    3.7004    4.7085    0.1255 H   0  0  0  0  0  0  0  0  0  0  0  0
    4.8566    3.6977   -0.7887 H   0  0  0  0  0  0  0  0  0  0  0  0
    4.7974    3.6083    1.0067 H   0  0  0  0  0  0  0  0  0  0  0  0
    2.2671    2.8931   -1.2829 C   0  0  0  0  0  0  0  0  0  0  0  0
    1.4454    2.1649   -1.4061 H   0  0  0  0  0  0  0  0  0  0  0  0
    2.9141    2.8393   -2.1821 H   0  0  0  0  0  0  0  0  0  0  0  0
    1.8257    3.9103   -1.2403 H   0  0  0  0  0  0  0  0  0  0  0  0
    2.1934    2.7513    1.2552 C   0  0  0  0  0  0  0  0  0  0  0  0
    1.3898    1.9932    1.2706 H   0  0  0  0  0  0  0  0  0  0  0  0
    1.7237    3.7563    1.2847 H   0  0  0  0  0  0  0  0  0  0  0  0
    2.7942    2.6262    2.1787 H   0  0  0  0  0  0  0  0  0  0  0  0
   -3.0919    2.6258    0.0000 C   0  0  0  0  0  0  0  0  0  0  0  0
   -4.1809    3.7103   -0.0906 C   0  0  0  0  0  0  0  0  0  0  0  0
   -4.7977    3.6082   -1.0066 H   0  0  0  0  0  0  0  0  0  0  0  0
   -3.7005    4.7085   -0.1256 H   0  0  0  0  0  0  0  0  0  0  0  0
   -4.8566    3.6976    0.7889 H   0  0  0  0  0  0  0  0  0  0  0  0
   -2.2669    2.8931    1.2826 C   0  0  0  0  0  0  0  0  0  0  0  0
   -1.8256    3.9104    1.2399 H   0  0  0  0  0  0  0  0  0  0  0  0
   -1.4453    2.1650    1.4057 H   0  0  0  0  0  0  0  0  0  0  0  0
   -2.9138    2.8394    2.1819 H   0  0  0  0  0  0  0  0  0  0  0  0
   -2.1937    2.7513   -1.2555 C   0  0  0  0  0  0  0  0  0  0  0  0
   -2.7947    2.6262   -2.1789 H   0  0  0  0  0  0  0  0  0  0  0  0
   -1.3901    1.9933   -1.2710 H   0  0  0  0  0  0  0  0  0  0  0  0
   -1.7240    3.7563   -1.2851 H   0  0  0  0  0  0  0  0  0  0  0  0
    7.1743   -0.4476    0.0592 C   0  0  0  0  0  0  0  0  0  0  0  0
    7.4843   -1.5095    0.0140 H   0  0  0  0  0  0  0  0  0  0  0  0
    7.5765   -0.0181    1.0008 H   0  0  0  0  0  0  0  0  0  0  0  0
    7.6748    0.0871   -0.7752 H   0  0  0  0  0  0  0  0  0  0  0  0
   -7.1743   -0.4477   -0.0584 C   0  0  0  0  0  0  0  0  0  0  0  0
   -7.6747    0.0878    0.7755 H   0  0  0  0  0  0  0  0  0  0  0  0
   -7.4843   -1.5095   -0.0121 H   0  0  0  0  0  0  0  0  0  0  0  0
   -7.5766   -0.0192   -1.0004 H   0  0  0  0  0  0  0  0  0  0  0  0
  1  5  1  0  0  0  0
  3 13  1  0  0  0  0
  4 18  1  0  0  0  0
  5  6  1  0  0  0  0
  6 31  1  0  0  0  0
  6  7  2  0  0  0  0
  7  8  1  0  0  0  0
  9  7  1  0  0  0  0
  9 57  1  0  0  0  0
 10  9  2  0  0  0  0
 11 10  1  0  0  0  0
 12  5  2  0  0  0  0
 12 10  1  0  0  0  0
 13 12  1  0  0  0  0
 14 13  1  0  0  0  0
 15  3  1  0  0  0  0
 15 17  1  0  0  0  0
 15 18  1  0  0  0  0
 16 15  1  0  0  0  0
 18 19  1  0  0  0  0
 20 18  1  0  0  0  0
 21  4  1  0  0  0  0
 21 22  1  0  0  0  0
 23 21  1  0  0  0  0
 24 25  1  0  0  0  0
 24 23  2  0  0  0  0
 26 24  1  0  0  0  0
 27 26  2  0  0  0  0
 27 29  1  0  0  0  0
 28 27  1  0  0  0  0
 29 30  2  0  0  0  0
 30 23  1  0  0  0  0
 30  2  1  0  0  0  0
 31 32  1  0  0  0  0
 31 40  1  0  0  0  0
 32 33  1  0  0  0  0
 32 35  1  0  0  0  0
 34 32  1  0  0  0  0
 36 39  1  0  0  0  0
 36 31  1  0  0  0  0
 37 36  1  0  0  0  0
 38 36  1  0  0  0  0
 40 41  1  0  0  0  0
 40 42  1  0  0  0  0
 40 43  1  0  0  0  0
 44 29  1  0  0  0  0
 44 49  1  0  0  0  0
 45 44  1  0  0  0  0
 45 48  1  0  0  0  0
 46 45  1  0  0  0  0
 47 45  1  0  0  0  0
 49 51  1  0  0  0  0
 49 52  1  0  0  0  0
 50 49  1  0  0  0  0
 53 44  1  0  0  0  0
 54 53  1  0  0  0  0
 55 53  1  0  0  0  0
 56 53  1  0  0  0  0
 57 59  1  0  0  0  0
 58 57  1  0  0  0  0
 60 57  1  0  0  0  0
 61 63  1  0  0  0  0
 61 26  1  0  0  0  0
 61 62  1  0  0  0  0
 64 61  1  0  0  0  0
M  CHG  2   1  -1   2  -1
M  END
