1,2,3,4
q = -3.0, confidence = 0.466

 68 70  0  0  1  0  0  0  0  0999 V2000
    0.6915   -2.2447    0.7655 N   0  0  0  0  0  0  0  0  0  0  0  0
   -0.8578   -2.0486   -1.3710 N   0  0  0  0  0  2  0  0  0  0  0  0
    1.3717    0.3376    0.4095 O   0  5  0  0  0  0  0  0  0  0  0  0
   -1.1322    0.6975   -0.9119 O   0  5  0  0  0  0  0  0  0  0  0  0
    2.5768   -0.0686    0.0291 C   0  0  0  0  0  0  0  0  0  0  0  0
    3.5840    0.9308   -0.2452 C   0  0  0  0  0  0  0  0  0  0  0  0
    4.8880    0.4980   -0.5240 C   0  0  0  0  0  0  0  0  0  0  0  0
    5.6718    1.2431   -0.7144 H   0  0  0  0  0  0  0  0  0  0  0  0
    5.2341   -0.8636   -0.5790 C   0  0  0  0  0  0  0  0  0  0  0  0
    6.2683   -1.1624   -0.8052 H   0  0  0  0  0  0  0  0  0  0  0  0
    4.2515   -1.8315   -0.3588 C   0  0  0  0  0  0  0  0  0  0  0  0
    4.5091   -2.9016   -0.4228 H   0  0  0  0  0  0  0  0  0  0  0  0
    2.9274   -1.4648   -0.0653 C   0  0  0  0  0  0  0  0  0  0  0  0
    3.2114    2.4253   -0.2110 C   0  0  0  0  0  0  0  0  0  0  0  0
    4.4136    3.3198   -0.5661 C   0  0  0  0  0  0  0  0  0  0  0  0
    5.2459    3.2108    0.1589 H   0  0  0  0  0  0  0  0  0  0  0  0
    4.0964    4.3819   -0.5490 H   0  0  0  0  0  0  0  0  0  0  0  0
    4.8064    3.1065   -1.5811 H   0  0  0  0  0  0  0  0  0  0  0  0
    2.0922    2.7036   -1.2448 C   0  0  0  0  0  0  0  0  0  0  0  0
    1.8220    3.7801   -1.2287 H   0  0  0  0  0  0  0  0  0  0  0  0
    1.1830    2.1153   -1.0257 H   0  0  0  0  0  0  0  0  0  0  0  0
    2.4374    2.4551   -2.2693 H   0  0  0  0  0  0  0  0  0  0  0  0
    2.7312    2.8232    1.2056 C   0  0  0  0  0  0  0  0  0  0  0  0
    3.5268    2.6383    1.9566 H   0  0  0  0  0  0  0  0  0  0  0  0
    1.8315    2.2496    1.4935 H   0  0  0  0  0  0  0  0  0  0  0  0
    2.4824    3.9048    1.2313 H   0  0  0  0  0  0  0  0  0  0  0  0
    1.9067   -2.5894    0.0191 C   0  0  0  0  0  0  0  0  0  0  0  0
    1.5814   -2.8820   -1.0034 H   0  0  0  0  0  0  0  0  0  0  0  0
    2.3799   -3.4870    0.4843 H   0  0  0  0  0  0  0  0  0  0  0  0
    0.9138   -1.9236    2.1935 C   0  0  0  0  0  0  0  0  0  0  0  0
    1.4678   -2.7747    2.6546 H   0  0  0  0  0  0  0  0  0  0  0  0
    1.5248   -1.0078    2.2750 H   0  0  0  0  0  0  0  0  0  0  0  0
   -0.4972   -1.7836    2.7707 C   0  0  0  0  0  0  0  0  0  0  0  0
   -0.8151   -0.7227    2.7422 H   0  0  0  0  0  0  0  0  0  0  0  0
   -0.5336   -2.1118    3.8268 H   0  0  0  0  0  0  0  0  0  0  0  0
   -1.3891   -2.6397    1.8371 C   0  0  0  0  0  0  0  0  0  0  0  0
   -2.1681   -2.0128    1.3558 H   0  0  0  0  0  0  0  0  0  0  0  0
   -1.9129   -3.4602    2.3643 H   0  0  0  0  0  0  0  0  0  0  0  0
   -0.4503   -3.2131    0.7504 C   0  0  1  0  0  0  0  0  0  0  0  0
   -0.0634   -4.2133    1.0603 H   0  0  0  0  0  0  0  0  0  0  0  0
   -1.1205   -3.2747   -0.6299 C   0  0  0  0  0  0  0  0  0  0  0  0
   -0.7426   -4.1439   -1.2232 H   0  0  0  0  0  0  0  0  0  0  0  0
   -2.2081   -3.4686   -0.4654 H   0  0  0  0  0  0  0  0  0  0  0  0
   -1.9758   -1.5832   -2.1819 C   0  0  0  0  0  0  0  0  0  0  0  0
   -2.5071   -2.4524   -2.6310 H   0  0  0  0  0  0  0  0  0  0  0  0
   -1.5543   -0.9680   -3.0074 H   0  0  0  0  0  0  0  0  0  0  0  0
   -2.9817   -0.7232   -1.4322 C   0  0  0  0  0  0  0  0  0  0  0  0
   -4.3487   -1.0039   -1.3556 C   0  0  0  0  0  0  0  0  0  0  0  0
   -4.7468   -1.9110   -1.8386 H   0  0  0  0  0  0  0  0  0  0  0  0
   -5.2019   -0.1336   -0.6568 C   0  0  0  0  0  0  0  0  0  0  0  0
   -6.2766   -0.3544   -0.5763 H   0  0  0  0  0  0  0  0  0  0  0  0
   -4.6717    1.0093   -0.0399 C   0  0  0  0  0  0  0  0  0  0  0  0
   -5.3571    1.6692    0.5092 H   0  0  0  0  0  0  0  0  0  0  0  0
   -3.2992    1.3281   -0.0771 C   0  0  0  0  0  0  0  0  0  0  0  0
   -2.4372    0.4406   -0.8045 C   0  0  0  0  0  0  0  0  0  0  0  0
   -2.7228    2.5722    0.6217 C   0  0  0  0  0  0  0  0  0  0  0  0
   -3.8174    3.3894    1.3317 C   0  0  0  0  0  0  0  0  0  0  0  0
   -4.5836    3.7619    0.6218 H   0  0  0  0  0  0  0  0  0  0  0  0
   -3.3587    4.2726    1.8202 H   0  0  0  0  0  0  0  0  0  0  0  0
   -4.3313    2.8024    2.1201 H   0  0  0  0  0  0  0  0  0  0  0  0
   -2.0394    3.4916   -0.4177 C   0  0  0  0  0  0  0  0  0  0  0  0
   -2.7705    3.8340   -1.1783 H   0  0  0  0  0  0  0  0  0  0  0  0
   -1.2177    2.9613   -0.9337 H   0  0  0  0  0  0  0  0  0  0  0  0
   -1.6191    4.3887    0.0833 H   0  0  0  0  0  0  0  0  0  0  0  0
   -1.6896    2.1308    1.6879 C   0  0  0  0  0  0  0  0  0  0  0  0
   -1.2725    3.0190    2.2068 H   0  0  0  0  0  0  0  0  0  0  0  0
   -0.8482    1.5799    1.2290 H   0  0  0  0  0  0  0  0  0  0  0  0
   -2.1709    1.4865    2.4534 H   0  0  0  0  0  0  0  0  0  0  0  0
  1 30  1  0  0  0  0
  2 41  1  0  0  0  0
  4 55  1  0  0  0  0
  5  3  1  0  0  0  0
  6 14  1  0  0  0  0
  6  5  2  0  0  0  0
  7  6  1  0  0  0  0
  8  7  1  0  0  0  0
  9  7  2  0  0  0  0
  9 11  1  0  0  0  0
 10  9  1  0  0  0  0
 11 13  2  0  0  0  0
 12 11  1  0  0  0  0
 13 27  1  0  0  0  0
 13  5  1  0  0  0  0
 14 23  1  0  0  0  0
 15 17  1  0  0  0  0
 15 14  1  0  0  0  0
 15 16  1  0  0  0  0
 18 15  1  0  0  0  0
 19 20  1  0  0  0  0
 19 21  1  0  0  0  0
 19 14  1  0  0  0  0
 22 19  1  0  0  0  0
 23 26  1  0  0  0  0
 23 25  1  0  0  0  0
 23 24  1  0  0  0  0
 27 29  1  0  0  0  0
 27  1  1  0  0  0  0
 28 27  1  0  0  0  0
 30 32  1  0  0  0  0
 30 31  1  0  0  0  0
 30 33  1  0  0  0  0
 33 35  1  0  0  0  0
 34 33  1  0  0  0  0
 36 38  1  0  0  0  0
 36 33  1  0  0  0  0
 37 36  1  0  0  0  0
 39  1  1  0  0  0  0
 39 40  1  1  0  0  0
 39 36  1  0  0  0  0
 41 43  1  0  0  0  0
 41 39  1  0  0  0  0
 42 41  1  0  0  0  0
 44 47  1  0  0  0  0
 44  2  1  0  0  0  0
 45 44  1  0  0  0  0
 46 44  1  0  0  0  0
 47 48  2  0  0  0  0
 47 55  1  0  0  0  0
 48 50  1  0  0  0  0
 49 48  1  0  0  0  0
 50 51  1  0  0  0  0
 50 52  2  0  0  0  0
 52 53  1  0  0  0  0
 54 52  1  0  0  0  0
 54 56  1  0  0  0  0
 55 54  2  0  0  0  0
 56 57  1  0  0  0  0
 56 65  1  0  0  0  0
 57 59  1  0  0  0  0
 57 60  1  0  0  0  0
 58 57  1  0  0  0  0
 61 64  1  0  0  0  0
 61 56  1  0  0  0  0
 62 61  1  0  0  0  0
 63 61  1  0  0  0  0
 65 66  1  0  0  0  0
 65 68  1  0  0  0  0
 67 65  1  0  0  0  0
M  CHG  2   3  -1   4  -1
M  END
