1,2,4,5
q = -1.0, confidence = 0.288

 38 40  0  0  0  0  0  0  0  0999 V2000
    0.9436   -1.2027    1.3376 O   0  5  0  0  0  0  0  0  0  0  0  0
   -1.1941   -1.6585   -0.3657 O   0  5  0  0  0  0  0  0  0  0  0  0
    3.2764    2.1370    0.2307 O   0  0  0  0  0  0  0  0  0  0  0  0
    1.1111    1.2990    0.2544 N   0  0  0  0  0  2  0  0  0  0  0  0
   -1.2240    1.0488   -0.7924 N   0  0  0  0  0  2  0  0  0  0  0  0
    2.2661   -1.2173    1.3625 C   0  0  0  0  0  0  0  0  0  0  0  0
    2.9184   -2.3566    1.9104 C   0  0  0  0  0  0  0  0  0  0  0  0
    4.3098   -2.4365    1.9321 C   0  0  0  0  0  0  0  0  0  0  0  0
    5.0891   -1.3668    1.4429 C   0  0  0  0  0  0  0  0  0  0  0  0
    4.4551   -0.2238    0.9510 C   0  0  0  0  0  0  0  0  0  0  0  0
    3.0485   -0.1212    0.8897 C   0  0  0  0  0  0  0  0  0  0  0  0
    2.4963    1.1921    0.4279 C   0  0  0  0  0  0  0  0  0  0  0  0
    0.5724    2.4995   -0.2157 C   0  0  0  0  0  0  0  0  0  0  0  0
    1.1403    3.7961   -0.1256 C   0  0  0  0  0  0  0  0  0  0  0  0
    0.4921    4.8894   -0.7137 C   0  0  0  0  0  0  0  0  0  0  0  0
   -0.7182    4.7252   -1.4105 C   0  0  0  0  0  0  0  0  0  0  0  0
   -1.3077    3.4576   -1.4884 C   0  0  0  0  0  0  0  0  0  0  0  0
   -0.6884    2.3528   -0.8717 C   0  0  0  0  0  0  0  0  0  0  0  0
   -2.4903    0.8192   -1.1131 C   0  0  0  0  0  3  0  0  0  0  0  0
   -3.1487   -0.4511   -1.0870 C   0  0  0  0  0  0  0  0  0  0  0  0
   -4.5163   -0.5375   -1.4707 C   0  0  0  0  0  0  0  0  0  0  0  0
   -5.1946   -1.7528   -1.4921 C   0  0  0  0  0  0  0  0  0  0  0  0
   -4.5074   -2.9384   -1.1408 C   0  0  0  0  0  0  0  0  0  0  0  0
   -3.1623   -2.8956   -0.7768 C   0  0  0  0  0  0  0  0  0  0  0  0
   -2.4572   -1.6621   -0.7229 C   0  0  0  0  0  0  0  0  0  0  0  0
    2.2844   -3.1712    2.2907 H   0  0  0  0  0  0  0  0  0  0  0  0
    4.7979   -3.3373    2.3359 H   0  0  0  0  0  0  0  0  0  0  0  0
    6.1875   -1.4263    1.4616 H   0  0  0  0  0  0  0  0  0  0  0  0
    5.0251    0.6492    0.5998 H   0  0  0  0  0  0  0  0  0  0  0  0
    2.0971    3.9178    0.3898 H   0  0  0  0  0  0  0  0  0  0  0  0
    0.9503    5.8872   -0.6372 H   0  0  0  0  0  0  0  0  0  0  0  0
   -1.2042    5.5846   -1.8960 H   0  0  0  0  0  0  0  0  0  0  0  0
   -2.2476    3.3294   -2.0431 H   0  0  0  0  0  0  0  0  0  0  0  0
   -3.1138    1.6753   -1.4274 H   0  0  0  0  0  0  0  0  0  0  0  0
   -5.0363    0.3906   -1.7585 H   0  0  0  0  0  0  0  0  0  0  0  0
   -6.2534   -1.7920   -1.7870 H   0  0  0  0  0  0  0  0  0  0  0  0
   -5.0354   -3.9043   -1.1572 H   0  0  0  0  0  0  0  0  0  0  0  0
   -2.6094   -3.8076   -0.5073 H   0  0  0  0  0  0  0  0  0  0  0  0
  1  6  1  0  0  0  0
  3 12  2  0  0  0  0
  4 12  1  0  0  0  0
  6  7  1  0  0  0  0
  7  8  2  0  0  0  0
  7 26  1  0  0  0  0
  8 27  1  0  0  0  0
  9 28  1  0  0  0  0
  9  8  1  0  0  0  0
 10  9  2  0  0  0  0
 11 10  1  0  0  0  0
 11  6  2  0  0  0  0
 12 11  1  0  0  0  0
 13 14  1  0  0  0  0
 13  4  1  0  0  0  0
 14 30  1  0  0  0  0
 15 31  1  0  0  0  0
 15 14  2  0  0  0  0
 16 15  1  0  0  0  0
 17 16  2  0  0  0  0
 17 18  1  0  0  0  0
 18  5  1  0  0  0  0
 18 13  2  0  0  0  0
 19 20  1  0  0  0  0
 19  5  1  0  0  0  0
 20 25  1  0  0  0  0
 21 20  2  0  0  0  0
 22 21  1  0  0  0  0
 22 23  2  0  0  0  0
 23 24  1  0  0  0  0
 24 25  2  0  0  0  0
 24 38  1  0  0  0  0
 25  2  1  0  0  0  0
 29 10  1  0  0  0  0
 32 16  1  0  0  0  0
 33 17  1  0  0  0  0
 34 19  1  0  0  0  0
 35 21  1  0  0  0  0
 36 22  1  0  0  0  0
 37 23  1  0  0  0  0
M  CHG  2   1  -1   2  -1
M  END
