1,2,7,8
q = -2.0, confidence = 0.842

 50 51  0  0  1  0  0  0  0  0999 V2000
   -1.3648   -0.6164   -0.0007 O   0  5  0  0  0  0  0  0  0  0  0  0
    1.3648   -0.6164   -0.0001 O   0  5  0  0  0  0  0  0  0  0  0  0
   -0.0000    5.1476    0.0002 O   0  0  0  0  0  0  0  0  0  0  0  0
   -7.1323   -3.2614   -0.0001 O   0  0  0  0  0  0  0  0  0  0  0  0
    7.1323   -3.2614    0.0004 O   0  0  0  0  0  0  0  0  0  0  0  0
   -2.6235    1.3207    0.0002 N   0  0  0  0  0  0  0  0  0  0  0  0
   -1.3867    1.8792   -0.0000 N   0  0  0  0  0  2  0  0  0  0  0  0
    1.3867    1.8792   -0.0000 N   0  0  0  0  0  2  0  0  0  0  0  0
    2.6235    1.3207    0.0000 N   0  0  0  0  0  0  0  0  0  0  0  0
   -2.5561    4.0248    0.0006 C   0  0  0  0  0  0  0  0  0  0  0  0
   -3.1799    3.7787   -0.8831 H   0  0  0  0  0  0  0  0  0  0  0  0
   -2.2861    5.0947   -0.0003 H   0  0  0  0  0  0  0  0  0  0  0  0
   -3.1784    3.7801    0.8859 H   0  0  0  0  0  0  0  0  0  0  0  0
   -1.3109    3.1987    0.0002 C   0  0  1  0  0  3  0  0  0  0  0  0
   -0.0000    3.9072    0.0001 C   0  0  0  0  0  0  0  0  0  0  0  0
    1.3109    3.1987   -0.0003 C   0  0  1  0  0  3  0  0  0  0  0  0
    2.5561    4.0248   -0.0006 C   0  0  0  0  0  0  0  0  0  0  0  0
    3.1791    3.7798    0.8840 H   0  0  0  0  0  0  0  0  0  0  0  0
    2.2861    5.0947   -0.0010 H   0  0  0  0  0  0  0  0  0  0  0  0
    3.1792    3.7789   -0.8849 H   0  0  0  0  0  0  0  0  0  0  0  0
   -2.5134   -0.0169   -0.0002 C   0  0  0  0  0  0  0  0  0  0  0  0
    2.5134   -0.0169   -0.0000 C   0  0  0  0  0  0  0  0  0  0  0  0
   -3.7391   -0.8282   -0.0002 C   0  0  0  0  0  0  0  0  0  0  0  0
   -5.0156   -0.2269    0.0004 C   0  0  0  0  0  0  0  0  0  0  0  0
   -5.0792    0.8704    0.0007 H   0  0  0  0  0  0  0  0  0  0  0  0
   -6.1768   -1.0056    0.0004 C   0  0  0  0  0  0  0  0  0  0  0  0
   -7.1572   -0.5113    0.0008 H   0  0  0  0  0  0  0  0  0  0  0  0
   -6.0730   -2.4155   -0.0001 C   0  0  0  0  0  0  0  0  0  0  0  0
   -4.7956   -3.0252   -0.0006 C   0  0  0  0  0  0  0  0  0  0  0  0
   -4.7445   -4.1234   -0.0010 H   0  0  0  0  0  0  0  0  0  0  0  0
   -3.6467   -2.2411   -0.0006 C   0  0  0  0  0  0  0  0  0  0  0  0
   -2.6480   -2.7006   -0.0010 H   0  0  0  0  0  0  0  0  0  0  0  0
    3.7391   -0.8282    0.0001 C   0  0  0  0  0  0  0  0  0  0  0  0
    3.6467   -2.2411    0.0002 C   0  0  0  0  0  0  0  0  0  0  0  0
    2.6480   -2.7006    0.0001 H   0  0  0  0  0  0  0  0  0  0  0  0
    4.7956   -3.0252    0.0003 C   0  0  0  0  0  0  0  0  0  0  0  0
    4.7445   -4.1234    0.0003 H   0  0  0  0  0  0  0  0  0  0  0  0
    6.0730   -2.4155    0.0003 C   0  0  0  0  0  0  0  0  0  0  0  0
    6.1768   -1.0056    0.0002 C   0  0  0  0  0  0  0  0  0  0  0  0
    7.1572   -0.5113    0.0002 H   0  0  0  0  0  0  0  0  0  0  0  0
    5.0156   -0.2269    0.0001 C   0  0  0  0  0  0  0  0  0  0  0  0
    5.0792    0.8704    0.0001 H   0  0  0  0  0  0  0  0  0  0  0  0
   -8.4404   -2.7161    0.0006 C   0  0  0  0  0  0  0  0  0  0  0  0
   -8.6290   -2.0967    0.9055 H   0  0  0  0  0  0  0  0  0  0  0  0
   -9.1361   -3.5752    0.0006 H   0  0  0  0  0  0  0  0  0  0  0  0
   -8.6297   -2.0962   -0.9037 H   0  0  0  0  0  0  0  0  0  0  0  0
    8.4404   -2.7161    0.0001 C   0  0  0  0  0  0  0  0  0  0  0  0
    8.6291   -2.0964   -0.9046 H   0  0  0  0  0  0  0  0  0  0  0  0
    9.1361   -3.5752   -0.0001 H   0  0  0  0  0  0  0  0  0  0  0  0
    8.6296   -2.0965    0.9046 H   0  0  0  0  0  0  0  0  0  0  0  0
  1 21  1  0  0  0  0
  2 22  1  0  0  0  0
  4 28  1  0  0  0  0
  4 43  1  0  0  0  0
  7  6  1  0  0  0  0
  8  9  1  0  0  0  0
 10 13  1  0  0  0  0
 11 10  1  0  0  0  0
 12 10  1  0  0  0  0
 14  7  1  1  0  0  0
 14 10  1  0  0  0  0
 15 14  1  0  0  0  0
 15  3  2  0  0  0  0
 16  8  1  1  0  0  0
 16 15  1  0  0  0  0
 17 16  1  0  0  0  0
 17 18  1  0  0  0  0
 19 17  1  0  0  0  0
 20 17  1  0  0  0  0
 21 23  1  0  0  0  0
 21  6  2  0  0  0  0
 22  9  2  0  0  0  0
 22 33  1  0  0  0  0
 23 24  1  0  0  0  0
 24 26  2  0  0  0  0
 24 25  1  0  0  0  0
 26 27  1  0  0  0  0
 28 26  1  0  0  0  0
 29 28  2  0  0  0  0
 30 29  1  0  0  0  0
 31 29  1  0  0  0  0
 31 23  2  0  0  0  0
 32 31  1  0  0  0  0
 33 41  2  0  0  0  0
 33 34  1  0  0  0  0
 34 36  2  0  0  0  0
 35 34  1  0  0  0  0
 36 38  1  0  0  0  0
 36 37  1  0  0  0  0
 38  5  1  0  0  0  0
 39 40  1  0  0  0  0
 39 38  2  0  0  0  0
 41 39  1  0  0  0  0
 42 41  1  0  0  0  0
 43 45  1  0  0  0  0
 43 44  1  0  0  0  0
 46 43  1  0  0  0  0
 47  5  1  0  0  0  0
 47 50  1  0  0  0  0
 48 47  1  0  0  0  0
 49 47  1  0  0  0  0
M  CHG  2   1  -1   2  -1
M  END
