2,3,5,6
 OpenBabel05122313063D

 45 46  0  0  1  0  0  0  0  0999 V2000
    5.1950    0.8463   -0.9317 O   0  0  0  0  0  0  0  0  0  0  0  0
    1.2100   -1.2577    0.6328 O   0  5  0  0  0  0  0  0  0  0  0  0
   -1.2352   -1.2737    0.8193 O   0  5  0  0  0  0  0  0  0  0  0  0
   -5.1304    0.8316   -0.9449 O   0  0  0  0  0  0  0  0  0  0  0  0
    1.2914    1.3819   -0.0387 N   0  0  0  0  0  2  0  0  0  0  0  0
   -1.4319    1.4085    0.5680 N   0  0  0  0  0  2  0  0  0  0  0  0
    6.5675    0.7962   -1.2685 C   0  0  0  0  0  0  0  0  0  0  0  0
    6.8474    1.8142   -1.5978 H   0  0  0  0  0  0  0  0  0  0  0  0
    6.7628    0.0795   -2.0972 H   0  0  0  0  0  0  0  0  0  0  0  0
    7.1964    0.5099   -0.3961 H   0  0  0  0  0  0  0  0  0  0  0  0
    4.5923   -0.2937   -0.4858 C   0  0  1  0  0  3  0  0  0  0  0  0
    5.2460   -1.5182   -0.3424 C   0  0  0  0  0  0  0  0  0  0  0  0
    6.3079   -1.6325   -0.5905 H   0  0  0  0  0  0  0  0  0  0  0  0
    4.5095   -2.6330    0.1337 C   0  0  0  0  0  0  0  0  0  0  0  0
    5.0308   -3.5970    0.2449 H   0  0  0  0  0  0  0  0  0  0  0  0
    3.1643   -2.5502    0.4584 C   0  0  0  0  0  0  0  0  0  0  0  0
    2.5952   -3.4153    0.8247 H   0  0  0  0  0  0  0  0  0  0  0  0
    2.4650   -1.3087    0.3207 C   0  0  0  0  0  0  0  0  0  0  0  0
    3.1982   -0.1633   -0.1580 C   0  0  0  0  0  0  0  0  0  0  0  0
    2.5567    1.0974   -0.2883 C   0  0  0  0  0  0  0  0  0  0  0  0
    3.1974    1.9282   -0.6367 H   0  0  0  0  0  0  0  0  0  0  0  0
    0.9027    2.7832   -0.2029 C   0  0  0  0  0  0  0  0  0  0  0  0
    0.2316    2.8839   -1.0857 H   0  0  0  0  0  0  0  0  0  0  0  0
    1.8056    3.3978   -0.4015 H   0  0  0  0  0  0  0  0  0  0  0  0
    0.1850    3.2642    1.0543 C   0  0  0  0  0  0  0  0  0  0  0  0
    0.1864    4.3724    1.1031 H   0  0  0  0  0  0  0  0  0  0  0  0
    0.7496    2.9007    1.9378 H   0  0  0  0  0  0  0  0  0  0  0  0
   -1.2595    2.7774    1.0820 C   0  0  0  0  0  0  0  0  0  0  0  0
   -1.6532    2.8239    2.1211 H   0  0  0  0  0  0  0  0  0  0  0  0
   -1.8919    3.4633    0.4736 H   0  0  0  0  0  0  0  0  0  0  0  0
   -2.6655    1.1128    0.2018 C   0  0  0  0  0  0  0  0  0  0  0  0
   -3.3893    1.9492    0.1434 H   0  0  0  0  0  0  0  0  0  0  0  0
   -3.1909   -0.1817   -0.0533 C   0  0  0  0  0  0  0  0  0  0  0  0
   -2.4453   -1.3452    0.3705 C   0  0  0  0  0  0  0  0  0  0  0  0
   -3.1041   -2.6155    0.3215 C   0  0  0  0  0  0  0  0  0  0  0  0
   -2.5390   -3.4937    0.6623 H   0  0  0  0  0  0  0  0  0  0  0  0
   -4.3963   -2.7144   -0.1726 C   0  0  0  0  0  0  0  0  0  0  0  0
   -4.8745   -3.7053   -0.2272 H   0  0  0  0  0  0  0  0  0  0  0  0
   -5.1290   -1.5868   -0.6238 C   0  0  0  0  0  0  0  0  0  0  0  0
   -6.1442   -1.7175   -1.0173 H   0  0  0  0  0  0  0  0  0  0  0  0
   -4.5276   -0.3292   -0.5582 C   0  0  1  0  0  3  0  0  0  0  0  0
   -6.4727    0.7770   -1.3890 C   0  0  0  0  0  0  0  0  0  0  0  0
   -6.7695    1.8169   -1.6204 H   0  0  0  0  0  0  0  0  0  0  0  0
   -7.1506    0.3681   -0.6069 H   0  0  0  0  0  0  0  0  0  0  0  0
   -6.5764    0.1579   -2.3078 H   0  0  0  0  0  0  0  0  0  0  0  0
  6 28  1  0  0  0  0
  7  1  1  0  0  0  0
  7 10  1  0  0  0  0
  8  7  1  0  0  0  0
  9  7  1  0  0  0  0
 11  1  1  1  0  0  0
 11 12  1  0  0  0  0
 11 19  1  0  0  0  0
 12 14  2  0  0  0  0
 13 12  1  0  0  0  0
 14 15  1  0  0  0  0
 14 16  1  0  0  0  0
 16 17  1  0  0  0  0
 18 16  2  0  0  0  0
 18  2  1  0  0  0  0
 19 18  1  0  0  0  0
 20 19  2  0  0  0  0
 20  5  1  0  0  0  0
 21 20  1  0  0  0  0
 22  5  1  0  0  0  0
 22 25  1  0  0  0  0
 23 22  1  0  0  0  0
 24 22  1  0  0  0  0
 25 28  1  0  0  0  0
 25 26  1  0  0  0  0
 25 27  1  0  0  0  0
 28 29  1  0  0  0  0
 30 28  1  0  0  0  0
 31  6  1  0  0  0  0
 32 31  1  0  0  0  0
 33 31  2  0  0  0  0
 33 34  1  0  0  0  0
 34  3  1  0  0  0  0
 35 34  2  0  0  0  0
 35 36  1  0  0  0  0
 37 35  1  0  0  0  0
 38 37  1  0  0  0  0
 39 41  1  0  0  0  0
 39 37  2  0  0  0  0
 40 39  1  0  0  0  0
 41  4  1  1  0  0  0
 41 33  1  0  0  0  0
 42  4  1  0  0  0  0
 42 44  1  0  0  0  0
 43 42  1  0  0  0  0
 45 42  1  0  0  0  0
M  CHG  2   2  -1   3  -1
M  END
