1,2,11,12
 OpenBabel05122313063D

 52 52  0  0  1  0  0  0  0  0999 V2000
   -1.6470   -2.0328    0.0593 O   0  0  0  0  0  1  0  0  0  0  0  0
    0.9447   -2.4682   -0.1675 O   0  5  0  0  0  0  0  0  0  0  0  0
   -5.1647    1.1928   -0.2976 O   0  0  0  0  0  0  0  0  0  0  0  0
   -5.6769   -1.0128   -0.2337 O   0  0  0  0  0  0  0  0  0  0  0  0
    5.1555   -2.7526    0.0709 O   0  0  0  0  0  0  0  0  0  0  0  0
    5.2646   -0.4967    0.2062 O   0  0  0  0  0  0  0  0  0  0  0  0
   -0.3983    5.5950   -0.0677 O   0  0  0  0  0  0  0  0  0  0  0  0
   -1.3728    5.6044   -0.0939 H   0  0  0  0  0  0  0  0  0  0  0  0
    2.2213    5.1636   -0.0139 O   0  0  0  0  0  0  0  0  0  0  0  0
    3.1472    4.8598    0.0102 H   0  0  0  0  0  0  0  0  0  0  0  0
   -1.1630    0.7036   -0.0739 N   0  0  0  0  0  2  0  0  0  0  0  0
    1.3768    0.2828   -0.0268 N   0  0  0  0  0  2  0  0  0  0  0  0
   -2.8982   -1.7356    0.0185 C   0  0  2  0  0  3  0  0  0  0  0  0
   -3.3680   -0.3862   -0.1142 C   0  0  0  0  0  0  0  0  0  0  0  0
   -2.4840    0.7355   -0.1458 C   0  0  0  0  0  0  0  0  0  0  0  0
   -3.0025    1.7076   -0.2274 H   0  0  0  0  0  0  0  0  0  0  0  0
   -0.3835    1.8799   -0.0645 C   0  0  0  0  0  0  0  0  0  0  0  0
   -0.8672    3.2062   -0.0733 C   0  0  0  0  0  0  0  0  0  0  0  0
   -1.9500    3.4031   -0.0919 H   0  0  0  0  0  0  0  0  0  0  0  0
    0.0104    4.2962   -0.0575 C   0  0  0  0  0  0  0  0  0  0  0  0
    1.4174    4.0641   -0.0276 C   0  0  0  0  0  0  0  0  0  0  0  0
    1.8998    2.7502   -0.0161 C   0  0  0  0  0  0  0  0  0  0  0  0
    2.9891    2.5925    0.0007 H   0  0  0  0  0  0  0  0  0  0  0  0
    1.0172    1.6477   -0.0283 C   0  0  0  0  0  0  0  0  0  0  0  0
    2.6401   -0.1109    0.0472 C   0  0  0  0  0  3  0  0  0  0  0  0
    3.4265    0.6557    0.1372 H   0  0  0  0  0  0  0  0  0  0  0  0
    3.1074   -1.4594    0.0063 C   0  0  0  0  0  0  0  0  0  0  0  0
    2.2244   -2.5844   -0.1258 C   0  0  0  0  0  0  0  0  0  0  0  0
   -3.8117   -2.9353    0.1331 C   0  0  0  0  0  0  0  0  0  0  0  0
   -3.1814   -3.8291    0.2938 H   0  0  0  0  0  0  0  0  0  0  0  0
   -4.4156   -3.0640   -0.7863 H   0  0  0  0  0  0  0  0  0  0  0  0
   -4.5412   -2.8225    0.9577 H   0  0  0  0  0  0  0  0  0  0  0  0
   -4.7867    0.0257   -0.2187 C   0  0  0  0  0  0  0  0  0  0  0  0
   -7.0681   -0.6525   -0.3219 C   0  0  0  0  0  0  0  0  0  0  0  0
   -7.5614   -1.5465   -0.7531 H   0  0  0  0  0  0  0  0  0  0  0  0
   -7.1756    0.1988   -1.0242 H   0  0  0  0  0  0  0  0  0  0  0  0
   -7.6493   -0.2998    1.0389 C   0  0  0  0  0  0  0  0  0  0  0  0
   -7.5046   -1.1283    1.7612 H   0  0  0  0  0  0  0  0  0  0  0  0
   -8.7375   -0.1043    0.9511 H   0  0  0  0  0  0  0  0  0  0  0  0
   -7.1659    0.6127    1.4379 H   0  0  0  0  0  0  0  0  0  0  0  0
    2.7271   -4.0037   -0.2295 C   0  0  0  0  0  0  0  0  0  0  0  0
    1.8543   -4.6693   -0.3631 H   0  0  0  0  0  0  0  0  0  0  0  0
    3.2939   -4.2912    0.6778 H   0  0  0  0  0  0  0  0  0  0  0  0
    3.4469   -4.1251   -1.0619 H   0  0  0  0  0  0  0  0  0  0  0  0
    4.5656   -1.6776    0.0923 C   0  0  0  0  0  0  0  0  0  0  0  0
    6.6897   -0.6301    0.3018 C   0  0  0  0  0  0  0  0  0  0  0  0
    7.0703   -1.1683   -0.5932 H   0  0  0  0  0  0  0  0  0  0  0  0
    6.9421   -1.2670    1.1769 H   0  0  0  0  0  0  0  0  0  0  0  0
    7.2798    0.7613    0.4223 C   0  0  0  0  0  0  0  0  0  0  0  0
    7.0275    1.3788   -0.4632 H   0  0  0  0  0  0  0  0  0  0  0  0
    8.3839    0.7041    0.4992 H   0  0  0  0  0  0  0  0  0  0  0  0
    6.8974    1.2787    1.3251 H   0  0  0  0  0  0  0  0  0  0  0  0
  2 28  1  0  0  0  0
  3 33  2  0  0  0  0
  4 33  1  0  0  0  0
  5 45  2  0  0  0  0
  6 46  1  0  0  0  0
  7 20  1  0  0  0  0
  8  7  1  0  0  0  0
  9 10  1  0  0  0  0
 11 17  1  0  0  0  0
 12 25  1  0  0  0  0
 13  1  1  1  0  0  0
 13 29  1  0  0  0  0
 14 13  1  0  0  0  0
 15 14  2  0  0  0  0
 15 11  1  0  0  0  0
 16 15  1  0  0  0  0
 17 24  1  0  0  0  0
 18 17  2  0  0  0  0
 18 20  1  0  0  0  0
 19 18  1  0  0  0  0
 20 21  2  0  0  0  0
 21 22  1  0  0  0  0
 21  9  1  0  0  0  0
 22 23  1  0  0  0  0
 24 12  1  0  0  0  0
 24 22  2  0  0  0  0
 25 26  1  0  0  0  0
 27 25  1  0  0  0  0
 27 45  1  0  0  0  0
 28 27  2  0  0  0  0
 29 30  1  0  0  0  0
 29 32  1  0  0  0  0
 31 29  1  0  0  0  0
 33 14  1  0  0  0  0
 34  4  1  0  0  0  0
 34 37  1  0  0  0  0
 35 34  1  0  0  0  0
 36 34  1  0  0  0  0
 37 40  1  0  0  0  0
 37 38  1  0  0  0  0
 39 37  1  0  0  0  0
 41 28  1  0  0  0  0
 41 43  1  0  0  0  0
 42 41  1  0  0  0  0
 44 41  1  0  0  0  0
 45  6  1  0  0  0  0
 46 49  1  0  0  0  0
 46 48  1  0  0  0  0
 47 46  1  0  0  0  0
 49 51  1  0  0  0  0
 49 52  1  0  0  0  0
 50 49  1  0  0  0  0
M  CHG  1   2  -1
M  END
