2,3,4,5
 OpenBabel05122313063D

 57 58  0  0  1  0  0  0  0  0999 V2000
    2.9590   -2.4910   -0.0758 O   0  0  0  0  0  0  0  0  0  0  0  0
    0.6569   -1.3033   -0.2893 O   0  0  0  0  0  1  0  0  0  0  0  0
    0.6554    1.3041   -0.2891 O   0  0  0  0  0  1  0  0  0  0  0  0
   -2.2301   -1.5006   -0.2801 N   0  0  0  0  0  2  0  0  0  0  0  0
   -2.2318    1.4980   -0.2802 N   0  0  0  0  0  2  0  0  0  0  0  0
    2.9561    2.4944   -0.0751 O   0  0  0  0  0  0  0  0  0  0  0  0
   -1.8921   -2.7482   -0.0314 C   0  0  0  0  0  0  0  0  0  0  0  0
   -2.7328   -3.4693    0.0266 H   0  0  0  0  0  0  0  0  0  0  0  0
   -0.6017   -3.3290    0.1507 C   0  0  0  0  0  0  0  0  0  0  0  0
   -0.5348   -4.7275    0.4552 C   0  0  0  0  0  0  0  0  0  0  0  0
   -1.4765   -5.2848    0.5787 H   0  0  0  0  0  0  0  0  0  0  0  0
    0.6832   -5.3658    0.5860 C   0  0  0  0  0  0  0  0  0  0  0  0
    0.7320   -6.4388    0.8213 H   0  0  0  0  0  0  0  0  0  0  0  0
    1.8898   -4.6339    0.4099 C   0  0  0  0  0  0  0  0  0  0  0  0
    2.8506   -5.1562    0.5147 H   0  0  0  0  0  0  0  0  0  0  0  0
    1.8673   -3.2733    0.1101 C   0  0  0  0  0  0  0  0  0  0  0  0
    4.2447   -3.0843    0.0296 C   0  0  0  0  0  0  0  0  0  0  0  0
    4.3483   -3.9067   -0.7184 H   0  0  0  0  0  0  0  0  0  0  0  0
    4.3720   -3.5447    1.0387 H   0  0  0  0  0  0  0  0  0  0  0  0
    5.2790   -1.9997   -0.2051 C   0  0  0  0  0  0  0  0  0  0  0  0
    5.1472   -1.5444   -1.2063 H   0  0  0  0  0  0  0  0  0  0  0  0
    6.3018   -2.4198   -0.1375 H   0  0  0  0  0  0  0  0  0  0  0  0
    5.1753   -1.1955    0.5493 H   0  0  0  0  0  0  0  0  0  0  0  0
    0.6044   -2.5653   -0.0204 C   0  0  1  0  0  3  0  0  0  0  0  0
   -3.6395   -1.2578   -0.5653 C   0  0  0  0  0  0  0  0  0  0  0  0
   -4.2290   -2.1456   -0.2450 H   0  0  0  0  0  0  0  0  0  0  0  0
   -3.7698   -1.1671   -1.6680 H   0  0  0  0  0  0  0  0  0  0  0  0
   -4.2386   -0.0025    0.0936 C   0  0  0  0  0  0  0  0  0  0  0  0
   -5.7466   -0.0034   -0.2133 C   0  0  0  0  0  0  0  0  0  0  0  0
   -6.2380    0.8915    0.2191 H   0  0  0  0  0  0  0  0  0  0  0  0
   -6.2370   -0.8988    0.2192 H   0  0  0  0  0  0  0  0  0  0  0  0
   -5.9411   -0.0036   -1.3061 H   0  0  0  0  0  0  0  0  0  0  0  0
   -3.6409    1.2534   -0.5655 C   0  0  0  0  0  0  0  0  0  0  0  0
   -3.7711    1.1624   -1.6682 H   0  0  0  0  0  0  0  0  0  0  0  0
   -4.2315    2.1406   -0.2454 H   0  0  0  0  0  0  0  0  0  0  0  0
   -1.8953    2.7461   -0.0319 C   0  0  0  0  0  0  0  0  0  0  0  0
   -2.7369    3.4662    0.0258 H   0  0  0  0  0  0  0  0  0  0  0  0
   -0.6056    3.3285    0.1501 C   0  0  0  0  0  0  0  0  0  0  0  0
   -0.5404    4.7271    0.4541 C   0  0  0  0  0  0  0  0  0  0  0  0
   -1.4828    5.2834    0.5772 H   0  0  0  0  0  0  0  0  0  0  0  0
    0.6768    5.3669    0.5850 C   0  0  0  0  0  0  0  0  0  0  0  0
    0.7243    6.4400    0.8199 H   0  0  0  0  0  0  0  0  0  0  0  0
    1.8843    4.6363    0.4095 C   0  0  0  0  0  0  0  0  0  0  0  0
    2.8444    5.1598    0.5142 H   0  0  0  0  0  0  0  0  0  0  0  0
    1.8634    3.2756    0.1101 C   0  0  0  0  0  0  0  0  0  0  0  0
    4.2410    3.0890    0.0312 C   0  0  0  0  0  0  0  0  0  0  0  0
    4.3670    3.5503    1.0401 H   0  0  0  0  0  0  0  0  0  0  0  0
    4.3446    3.9110   -0.7173 H   0  0  0  0  0  0  0  0  0  0  0  0
    5.2766    2.0053   -0.2018 C   0  0  0  0  0  0  0  0  0  0  0  0
    5.1733    1.2016    0.5532 H   0  0  0  0  0  0  0  0  0  0  0  0
    6.2990    2.4266   -0.1338 H   0  0  0  0  0  0  0  0  0  0  0  0
    5.1461    1.5491   -1.2027 H   0  0  0  0  0  0  0  0  0  0  0  0
    0.6014    2.5661   -0.0206 C   0  0  2  0  0  3  0  0  0  0  0  0
   -4.0043   -0.0022    1.6105 C   0  0  0  0  0  0  0  0  0  0  0  0
   -2.9228   -0.0016    1.8507 H   0  0  0  0  0  0  0  0  0  0  0  0
   -4.4597   -0.8991    2.0780 H   0  0  0  0  0  0  0  0  0  0  0  0
   -4.4607    0.8942    2.0779 H   0  0  0  0  0  0  0  0  0  0  0  0
  1 17  1  0  0  0  0
  1 16  1  0  0  0  0
  4  7  1  0  0  0  0
  5 36  1  0  0  0  0
  6 46  1  0  0  0  0
  6 45  1  0  0  0  0
  7  8  1  0  0  0  0
  7  9  2  0  0  0  0
  9 10  1  0  0  0  0
 10 11  1  0  0  0  0
 10 12  2  0  0  0  0
 12 13  1  0  0  0  0
 14 15  1  0  0  0  0
 14 12  1  0  0  0  0
 16 14  2  0  0  0  0
 17 19  1  0  0  0  0
 18 17  1  0  0  0  0
 20 22  1  0  0  0  0
 20 17  1  0  0  0  0
 20 23  1  0  0  0  0
 21 20  1  0  0  0  0
 24  2  1  6  0  0  0
 24 16  1  0  0  0  0
 24  9  1  0  0  0  0
 25  4  1  0  0  0  0
 25 26  1  0  0  0  0
 25 28  1  0  0  0  0
 27 25  1  0  0  0  0
 28 54  1  0  0  0  0
 29 28  1  0  0  0  0
 29 30  1  0  0  0  0
 29 31  1  0  0  0  0
 32 29  1  0  0  0  0
 33  5  1  0  0  0  0
 33 35  1  0  0  0  0
 33 28  1  0  0  0  0
 34 33  1  0  0  0  0
 36 37  1  0  0  0  0
 36 38  2  0  0  0  0
 38 39  1  0  0  0  0
 39 40  1  0  0  0  0
 39 41  2  0  0  0  0
 41 42  1  0  0  0  0
 43 44  1  0  0  0  0
 43 41  1  0  0  0  0
 45 43  2  0  0  0  0
 46 47  1  0  0  0  0
 48 46  1  0  0  0  0
 49 51  1  0  0  0  0
 49 46  1  0  0  0  0
 49 50  1  0  0  0  0
 52 49  1  0  0  0  0
 53  3  1  6  0  0  0
 53 45  1  0  0  0  0
 53 38  1  0  0  0  0
 54 55  1  0  0  0  0
 54 57  1  0  0  0  0
 54 56  1  0  0  0  0
M  END
