4,5,12,13
 OpenBabel05122313063D

 53 53  0  0  0  0  0  0  0  0999 V2000
    4.4743   -1.5277   -1.0826 F   0  0  0  0  0  0  0  0  0  0  0  0
   -3.2755   -3.3108    1.4978 F   0  0  0  0  0  0  0  0  0  0  0  0
    3.9185   -2.1373    0.9763 F   0  0  0  0  0  0  0  0  0  0  0  0
   -1.1137   -1.3019    0.1256 O   0  5  0  0  0  0  0  0  0  0  0  0
    1.3078   -0.8049   -0.0572 O   0  5  0  0  0  0  0  0  0  0  0  0
   -3.4783   -3.4367   -0.6893 F   0  0  0  0  0  0  0  0  0  0  0  0
   -1.5481   -3.7379    0.2556 F   0  0  0  0  0  0  0  0  0  0  0  0
    5.2117    0.3170    0.6528 O   0  0  0  0  0  0  0  0  0  0  0  0
   -5.5363    0.4000    0.1772 O   0  0  0  0  0  0  0  0  0  0  0  0
    4.8518    2.3758   -0.2390 O   0  0  0  0  0  0  0  0  0  0  0  0
   -5.3276   -1.8338    0.4827 O   0  0  0  0  0  0  0  0  0  0  0  0
    0.7892    1.8492   -0.1727 N   0  0  0  0  0  2  0  0  0  0  0  0
   -1.6962    1.3318   -0.0661 N   0  0  0  0  0  2  0  0  0  0  0  0
    3.4283   -4.0310   -0.8513 F   0  0  0  0  0  0  0  0  0  0  0  0
    2.2355   -2.6341   -2.0820 F   0  0  0  0  0  0  0  0  0  0  0  0
   -1.4144    2.7092   -0.2181 C   0  0  0  0  0  0  0  0  0  0  0  0
   -0.0272    2.9968   -0.2802 C   0  0  0  0  0  0  0  0  0  0  0  0
   -2.9355    0.8728    0.0375 C   0  0  0  0  0  3  0  0  0  0  0  0
   -3.7553    1.6075    0.0134 H   0  0  0  0  0  0  0  0  0  0  0  0
    3.0228    0.8389   -0.0469 C   0  0  0  0  0  0  0  0  0  0  0  0
   -2.3658   -1.5093    0.2043 C   0  0  0  0  0  0  0  0  0  0  0  0
   -2.3542    3.7539   -0.3118 C   0  0  0  0  0  0  0  0  0  0  0  0
   -3.4325    3.5473   -0.2703 H   0  0  0  0  0  0  0  0  0  0  0  0
    0.4115    4.3256   -0.4394 C   0  0  0  0  0  0  0  0  0  0  0  0
    1.4828    4.5604   -0.5006 H   0  0  0  0  0  0  0  0  0  0  0  0
   -3.3453   -0.4784    0.1789 C   0  0  0  0  0  0  0  0  0  0  0  0
   -1.9083    5.0715   -0.4650 C   0  0  0  0  0  0  0  0  0  0  0  0
   -2.6429    5.8865   -0.5400 H   0  0  0  0  0  0  0  0  0  0  0  0
   -4.8062   -0.7499    0.2975 C   0  0  0  0  0  0  0  0  0  0  0  0
    2.1120    1.9192   -0.1360 C   0  0  0  0  0  3  0  0  0  0  0  0
    2.5936    2.9122   -0.1843 H   0  0  0  0  0  0  0  0  0  0  0  0
    2.5478   -0.4945   -0.0837 C   0  0  0  0  0  0  0  0  0  0  0  0
    4.4467    1.2659    0.0803 C   0  0  0  0  0  0  0  0  0  0  0  0
   -0.5309    5.3561   -0.5294 C   0  0  0  0  0  0  0  0  0  0  0  0
   -0.1882    6.3934   -0.6561 H   0  0  0  0  0  0  0  0  0  0  0  0
    3.4305   -1.7537   -0.2388 C   0  0  0  0  0  0  0  0  0  0  0  0
   -2.6915   -3.0268    0.3207 C   0  0  0  0  0  0  0  0  0  0  0  0
   -7.5975    1.6104    0.1384 C   0  0  0  0  0  0  0  0  0  0  0  0
   -8.6995    1.5287    0.2188 H   0  0  0  0  0  0  0  0  0  0  0  0
   -7.3566    2.0537   -0.8484 H   0  0  0  0  0  0  0  0  0  0  0  0
   -7.2458    2.3043    0.9279 H   0  0  0  0  0  0  0  0  0  0  0  0
    6.6265    0.5868    0.7582 C   0  0  0  0  0  0  0  0  0  0  0  0
    6.9462    1.1668   -0.1309 H   0  0  0  0  0  0  0  0  0  0  0  0
    7.0976   -0.4150    0.7310 H   0  0  0  0  0  0  0  0  0  0  0  0
    6.9545    1.3312    2.0415 C   0  0  0  0  0  0  0  0  0  0  0  0
    8.0526    1.4471    2.1416 H   0  0  0  0  0  0  0  0  0  0  0  0
    6.5828    0.7781    2.9268 H   0  0  0  0  0  0  0  0  0  0  0  0
    6.5005    2.3410    2.0323 H   0  0  0  0  0  0  0  0  0  0  0  0
   -6.9649    0.2426    0.2916 C   0  0  0  0  0  0  0  0  0  0  0  0
   -7.1980   -0.2223    1.2729 H   0  0  0  0  0  0  0  0  0  0  0  0
   -7.3106   -0.4709   -0.4860 H   0  0  0  0  0  0  0  0  0  0  0  0
    2.6142   -2.9443   -0.8120 C   0  0  0  0  0  0  0  0  0  0  0  0
    1.7146   -3.1624   -0.1995 H   0  0  0  0  0  0  0  0  0  0  0  0
  1 36  1  0  0  0  0
  4 21  1  0  0  0  0
  6 37  1  0  0  0  0
  7 37  1  0  0  0  0
  8 42  1  0  0  0  0
  9 49  1  0  0  0  0
  9 29  1  0  0  0  0
 10 33  2  0  0  0  0
 12 30  1  0  0  0  0
 13 18  1  0  0  0  0
 14 52  1  0  0  0  0
 15 52  1  0  0  0  0
 16 13  1  0  0  0  0
 17 16  1  0  0  0  0
 17 12  1  0  0  0  0
 18 26  1  0  0  0  0
 19 18  1  0  0  0  0
 20 33  1  0  0  0  0
 21 37  1  0  0  0  0
 22 23  1  0  0  0  0
 22 16  2  0  0  0  0
 24 17  2  0  0  0  0
 25 24  1  0  0  0  0
 26 21  2  0  0  0  0
 26 29  1  0  0  0  0
 27 22  1  0  0  0  0
 28 27  1  0  0  0  0
 29 11  2  0  0  0  0
 30 20  1  0  0  0  0
 31 30  1  0  0  0  0
 32  5  1  0  0  0  0
 32 20  2  0  0  0  0
 33  8  1  0  0  0  0
 34 27  2  0  0  0  0
 34 24  1  0  0  0  0
 35 34  1  0  0  0  0
 36 32  1  0  0  0  0
 36  3  1  0  0  0  0
 37  2  1  0  0  0  0
 38 39  1  0  0  0  0
 38 49  1  0  0  0  0
 38 41  1  0  0  0  0
 40 38  1  0  0  0  0
 42 45  1  0  0  0  0
 43 42  1  0  0  0  0
 44 42  1  0  0  0  0
 45 46  1  0  0  0  0
 45 47  1  0  0  0  0
 48 45  1  0  0  0  0
 49 50  1  0  0  0  0
 51 49  1  0  0  0  0
 52 36  1  0  0  0  0
 52 53  1  0  0  0  0
M  CHG  2   4  -1   5  -1
M  END
