1,5,6,11
 OpenBabel05122313063D

 24 23  0  0  1  0  0  0  0  0999 V2000
    1.3860   -1.7547    0.0007 O   0  5  0  0  0  0  0  0  0  0  0  0
    3.6477   -1.8749   -0.0005 O   0  0  0  0  0  0  0  0  0  0  0  0
   -0.0004    4.0385    0.0001 O   0  0  0  0  0  0  0  0  0  0  0  0
   -3.6475   -1.8755   -0.0005 O   0  5  0  0  0  0  0  0  0  0  0  0
   -1.3858   -1.7548    0.0002 O   0  0  0  0  0  0  0  0  0  0  0  0
    1.3797    0.7676   -0.0001 N   0  0  0  0  0  2  0  0  0  0  0  0
    1.1984    2.1117   -0.0000 N   0  0  0  0  0  0  0  0  0  0  0  0
    2.0245    2.7199    0.0001 H   0  0  0  0  0  0  0  0  0  0  0  0
   -1.1989    2.1116   -0.0001 N   0  0  0  0  0  0  0  0  0  0  0  0
   -2.0251    2.7196   -0.0001 H   0  0  0  0  0  0  0  0  0  0  0  0
   -1.3801    0.7674   -0.0001 N   0  0  0  0  0  2  0  0  0  0  0  0
    2.6030   -1.2374   -0.0000 C   0  0  0  0  0  0  0  0  0  0  0  0
    2.5964    0.2717   -0.0003 C   0  0  2  0  0  3  0  0  0  0  0  0
    3.8557    1.0605   -0.0006 C   0  0  0  0  0  0  0  0  0  0  0  0
    3.9461    1.7070    0.9001 H   0  0  0  0  0  0  0  0  0  0  0  0
    3.9450    1.7082   -0.9006 H   0  0  0  0  0  0  0  0  0  0  0  0
    4.6956    0.3398   -0.0015 H   0  0  0  0  0  0  0  0  0  0  0  0
   -0.0003    2.8168    0.0001 C   0  0  0  0  0  0  0  0  0  0  0  0
   -2.5967    0.2713   -0.0003 C   0  0  1  0  0  3  0  0  0  0  0  0
   -3.8562    1.0598   -0.0006 C   0  0  0  0  0  0  0  0  0  0  0  0
   -3.9459    1.7069   -0.9009 H   0  0  0  0  0  0  0  0  0  0  0  0
   -3.9463    1.7069    0.8997 H   0  0  0  0  0  0  0  0  0  0  0  0
   -4.6958    0.3389   -0.0008 H   0  0  0  0  0  0  0  0  0  0  0  0
   -2.6028   -1.2378   -0.0002 C   0  0  0  0  0  0  0  0  0  0  0  0
  2 12  2  0  0  0  0
  3 18  2  0  0  0  0
  4 24  1  0  0  0  0
  6  7  1  0  0  0  0
  7  8  1  0  0  0  0
  7 18  1  0  0  0  0
  9 11  1  0  0  0  0
  9 10  1  0  0  0  0
  9 18  1  0  0  0  0
 12  1  1  0  0  0  0
 13  6  1  1  0  0  0
 13 12  1  0  0  0  0
 14 13  1  0  0  0  0
 14 15  1  0  0  0  0
 16 14  1  0  0  0  0
 17 14  1  0  0  0  0
 19 24  1  6  0  0  0
 19 11  1  0  0  0  0
 20 19  1  0  0  0  0
 20 22  1  0  0  0  0
 21 20  1  0  0  0  0
 23 20  1  0  0  0  0
 24  5  2  0  0  0  0
M  CHG  2   1  -1   4  -1
M  END
