3,4,5,6
 OpenBabel05122313063D

 48 49  0  0  1  0  0  0  0  0999 V2000
    2.5690    2.3188   -0.4289 O   0  0  0  0  0  0  0  0  0  0  0  0
   -2.5408    2.3690   -0.3151 O   0  0  0  0  0  0  0  0  0  0  0  0
    1.2505    0.1028   -0.0740 O   0  0  0  0  0  1  0  0  0  0  0  0
   -1.2542    0.1093   -0.2006 O   0  0  0  0  0  1  0  0  0  0  0  0
   -1.2808   -2.5971   -0.0509 N   0  0  0  0  0  2  0  0  0  0  0  0
    1.2377   -2.5852    0.2789 N   0  0  0  0  0  2  0  0  0  0  0  0
   -2.5442    0.0200   -0.1631 C   0  0  1  0  0  3  0  0  0  0  0  0
   -3.3094    1.2541   -0.2137 C   0  0  0  0  0  0  0  0  0  0  0  0
    2.5393   -0.0095   -0.0843 C   0  0  1  0  0  3  0  0  0  0  0  0
    3.6476    4.1500    0.8015 C   0  0  0  0  0  0  0  0  0  0  0  0
    4.0701    5.1671    0.6718 H   0  0  0  0  0  0  0  0  0  0  0  0
    2.7814    4.2163    1.4890 H   0  0  0  0  0  0  0  0  0  0  0  0
    4.4180    3.5165    1.2836 H   0  0  0  0  0  0  0  0  0  0  0  0
    3.3223    1.2011   -0.2636 C   0  0  0  0  0  0  0  0  0  0  0  0
    5.4049   -0.0898   -0.1164 C   0  0  0  0  0  0  0  0  0  0  0  0
    6.5044   -0.0971   -0.1289 H   0  0  0  0  0  0  0  0  0  0  0  0
    4.7156    1.1434   -0.2752 C   0  0  0  0  0  0  0  0  0  0  0  0
    5.3013    2.0635   -0.4094 H   0  0  0  0  0  0  0  0  0  0  0  0
   -4.7029    1.2209   -0.1723 C   0  0  0  0  0  0  0  0  0  0  0  0
   -5.2746    2.1589   -0.2014 H   0  0  0  0  0  0  0  0  0  0  0  0
   -0.6867   -3.9307   -0.1509 C   0  0  0  0  0  0  0  0  0  0  0  0
   -0.4835   -4.1599   -1.2211 H   0  0  0  0  0  0  0  0  0  0  0  0
   -1.3689   -4.7136    0.2447 H   0  0  0  0  0  0  0  0  0  0  0  0
   -3.5329    4.1083    1.1063 C   0  0  0  0  0  0  0  0  0  0  0  0
   -3.9396    5.1396    1.0791 H   0  0  0  0  0  0  0  0  0  0  0  0
   -4.2963    3.4497    1.5654 H   0  0  0  0  0  0  0  0  0  0  0  0
   -2.6390    4.1020    1.7607 H   0  0  0  0  0  0  0  0  0  0  0  0
    4.6934   -1.2623    0.0579 C   0  0  0  0  0  0  0  0  0  0  0  0
    5.2132   -2.2243    0.1886 H   0  0  0  0  0  0  0  0  0  0  0  0
   -2.5879   -2.4538   -0.0692 C   0  0  0  0  0  0  0  0  0  0  0  0
   -3.2005   -3.3778   -0.0830 H   0  0  0  0  0  0  0  0  0  0  0  0
   -3.2871   -1.2120   -0.0868 C   0  0  0  0  0  0  0  0  0  0  0  0
    0.6243   -3.8701    0.6173 C   0  0  0  0  0  0  0  0  0  0  0  0
    0.4189   -3.8993    1.7110 H   0  0  0  0  0  0  0  0  0  0  0  0
    1.2947   -4.7214    0.3707 H   0  0  0  0  0  0  0  0  0  0  0  0
    3.2641   -1.2442    0.0761 C   0  0  0  0  0  0  0  0  0  0  0  0
    3.2083    3.5847   -0.5449 C   0  0  0  0  0  0  0  0  0  0  0  0
    2.4432    4.2422   -1.0050 H   0  0  0  0  0  0  0  0  0  0  0  0
    4.0614    3.5281   -1.2603 H   0  0  0  0  0  0  0  0  0  0  0  0
    2.5467   -2.4584    0.2813 C   0  0  0  0  0  0  0  0  0  0  0  0
    3.1455   -3.3723    0.4693 H   0  0  0  0  0  0  0  0  0  0  0  0
   -3.1587    3.6506   -0.2993 C   0  0  0  0  0  0  0  0  0  0  0  0
   -4.0404    3.6685   -0.9813 H   0  0  0  0  0  0  0  0  0  0  0  0
   -2.3993    4.3316   -0.7340 H   0  0  0  0  0  0  0  0  0  0  0  0
   -5.4102   -0.0099   -0.0950 C   0  0  0  0  0  0  0  0  0  0  0  0
   -6.5094    0.0020   -0.0661 H   0  0  0  0  0  0  0  0  0  0  0  0
   -4.7163   -1.2050   -0.0549 C   0  0  0  0  0  0  0  0  0  0  0  0
   -5.2501   -2.1664    0.0041 H   0  0  0  0  0  0  0  0  0  0  0  0
  1 14  1  0  0  0  0
  2 42  1  0  0  0  0
  2  8  1  0  0  0  0
  6 40  1  0  0  0  0
  6 33  1  0  0  0  0
  7  4  1  6  0  0  0
  7 32  1  0  0  0  0
  8 19  2  0  0  0  0
  8  7  1  0  0  0  0
  9  3  1  1  0  0  0
  9 36  1  0  0  0  0
 10 13  1  0  0  0  0
 10 12  1  0  0  0  0
 11 10  1  0  0  0  0
 14  9  1  0  0  0  0
 15 28  2  0  0  0  0
 16 15  1  0  0  0  0
 17 14  2  0  0  0  0
 17 15  1  0  0  0  0
 18 17  1  0  0  0  0
 19 45  1  0  0  0  0
 20 19  1  0  0  0  0
 21  5  1  0  0  0  0
 21 23  1  0  0  0  0
 21 33  1  0  0  0  0
 22 21  1  0  0  0  0
 24 26  1  0  0  0  0
 24 27  1  0  0  0  0
 25 24  1  0  0  0  0
 28 36  1  0  0  0  0
 28 29  1  0  0  0  0
 30  5  1  0  0  0  0
 31 30  1  0  0  0  0
 32 30  2  0  0  0  0
 32 47  1  0  0  0  0
 33 34  1  0  0  0  0
 35 33  1  0  0  0  0
 36 40  2  0  0  0  0
 37  1  1  0  0  0  0
 37 10  1  0  0  0  0
 38 37  1  0  0  0  0
 39 37  1  0  0  0  0
 40 41  1  0  0  0  0
 42 24  1  0  0  0  0
 43 42  1  0  0  0  0
 44 42  1  0  0  0  0
 45 46  1  0  0  0  0
 45 47  2  0  0  0  0
 47 48  1  0  0  0  0
M  END
