1,2,3,4
 OpenBabel05122313063D

 48 49  0  0  0  0  0  0  0  0999 V2000
    1.3863   -2.5228    0.5330 N   0  0  0  0  0  2  0  0  0  0  0  0
   -1.1350   -2.5582   -0.3960 N   0  0  0  0  0  2  0  0  0  0  0  0
    1.5417    0.2772   -0.1272 O   0  5  0  0  0  0  0  0  0  0  0  0
   -1.5798    0.2232    0.0527 O   0  5  0  0  0  0  0  0  0  0  0  0
    3.0655    2.3511   -0.4851 O   0  0  0  0  0  0  0  0  0  0  0  0
   -3.2998    2.1591    0.3303 O   0  0  0  0  0  0  0  0  0  0  0  0
    3.4371   -1.2430    0.1342 C   0  0  0  0  0  0  0  0  0  0  0  0
    2.8171    0.0431   -0.0965 C   0  0  0  0  0  0  0  0  0  0  0  0
    3.7123    1.1676   -0.3117 C   0  0  0  0  0  0  0  0  0  0  0  0
    5.0968    1.0009   -0.3227 C   0  0  0  0  0  0  0  0  0  0  0  0
    5.7551    1.8647   -0.4896 H   0  0  0  0  0  0  0  0  0  0  0  0
    5.6767   -0.2793   -0.1214 C   0  0  0  0  0  0  0  0  0  0  0  0
    6.7707   -0.3881   -0.1415 H   0  0  0  0  0  0  0  0  0  0  0  0
    4.8610   -1.3740    0.1003 C   0  0  0  0  0  0  0  0  0  0  0  0
    5.2976   -2.3723    0.2639 H   0  0  0  0  0  0  0  0  0  0  0  0
    2.6767   -2.4416    0.3662 C   0  0  0  0  0  3  0  0  0  0  0  0
    3.2708   -3.3855    0.3952 H   0  0  0  0  0  0  0  0  0  0  0  0
    0.7083   -3.7989    0.6056 C   0  0  0  0  0  0  0  0  0  0  0  0
    0.2317   -3.9041    1.6066 H   0  0  0  0  0  0  0  0  0  0  0  0
    1.3992   -4.6610    0.4617 H   0  0  0  0  0  0  0  0  0  0  0  0
   -0.3951   -3.8063   -0.4731 C   0  0  0  0  0  0  0  0  0  0  0  0
    0.0978   -3.8774   -1.4702 H   0  0  0  0  0  0  0  0  0  0  0  0
   -1.0540   -4.6972   -0.3596 H   0  0  0  0  0  0  0  0  0  0  0  0
   -2.4122   -2.5276   -0.6655 C   0  0  0  0  0  3  0  0  0  0  0  0
   -2.9112   -3.4824   -0.9543 H   0  0  0  0  0  0  0  0  0  0  0  0
   -3.2780   -1.3819   -0.6158 C   0  0  0  0  0  0  0  0  0  0  0  0
   -2.8100   -0.0750   -0.2189 C   0  0  0  0  0  0  0  0  0  0  0  0
   -3.8070    0.9738   -0.1039 C   0  0  0  0  0  0  0  0  0  0  0  0
   -5.1434    0.7362   -0.4220 C   0  0  0  0  0  0  0  0  0  0  0  0
   -5.8824    1.5457   -0.3446 H   0  0  0  0  0  0  0  0  0  0  0  0
   -5.5714   -0.5504   -0.8458 C   0  0  0  0  0  0  0  0  0  0  0  0
   -6.6300   -0.7134   -1.0944 H   0  0  0  0  0  0  0  0  0  0  0  0
   -4.6581   -1.5858   -0.9311 C   0  0  0  0  0  0  0  0  0  0  0  0
   -4.9812   -2.5927   -1.2403 H   0  0  0  0  0  0  0  0  0  0  0  0
    3.8394    3.5189   -0.7153 C   0  0  0  0  0  0  0  0  0  0  0  0
    4.4693    3.3870   -1.6275 H   0  0  0  0  0  0  0  0  0  0  0  0
    4.5379    3.6916    0.1386 H   0  0  0  0  0  0  0  0  0  0  0  0
    2.8845    4.6869   -0.8798 C   0  0  0  0  0  0  0  0  0  0  0  0
    2.1999    4.5130   -1.7331 H   0  0  0  0  0  0  0  0  0  0  0  0
    3.4474    5.6233   -1.0632 H   0  0  0  0  0  0  0  0  0  0  0  0
    2.2689    4.8189    0.0319 H   0  0  0  0  0  0  0  0  0  0  0  0
   -4.1831    3.2626    0.4715 C   0  0  0  0  0  0  0  0  0  0  0  0
   -5.0022    3.0092    1.1866 H   0  0  0  0  0  0  0  0  0  0  0  0
   -4.6663    3.4918   -0.5082 H   0  0  0  0  0  0  0  0  0  0  0  0
   -3.3755    4.4473    0.9681 C   0  0  0  0  0  0  0  0  0  0  0  0
   -2.9088    4.2196    1.9469 H   0  0  0  0  0  0  0  0  0  0  0  0
   -4.0267    5.3355    1.0882 H   0  0  0  0  0  0  0  0  0  0  0  0
   -2.5680    4.6963    0.2516 H   0  0  0  0  0  0  0  0  0  0  0  0
  1 18  1  0  0  0  0
  3  8  1  0  0  0  0
  5  9  1  0  0  0  0
  6 42  1  0  0  0  0
  7 16  1  0  0  0  0
  8  7  2  0  0  0  0
  9  8  1  0  0  0  0
 10  9  2  0  0  0  0
 10 12  1  0  0  0  0
 11 10  1  0  0  0  0
 12 14  2  0  0  0  0
 13 12  1  0  0  0  0
 14  7  1  0  0  0  0
 14 15  1  0  0  0  0
 16 17  1  0  0  0  0
 16  1  1  0  0  0  0
 18 19  1  0  0  0  0
 20 18  1  0  0  0  0
 21  2  1  0  0  0  0
 21 23  1  0  0  0  0
 21 18  1  0  0  0  0
 22 21  1  0  0  0  0
 24 26  1  0  0  0  0
 24  2  1  0  0  0  0
 25 24  1  0  0  0  0
 26 27  1  0  0  0  0
 27 28  2  0  0  0  0
 27  4  1  0  0  0  0
 28  6  1  0  0  0  0
 29 30  1  0  0  0  0
 29 28  1  0  0  0  0
 31 29  2  0  0  0  0
 32 31  1  0  0  0  0
 33 31  1  0  0  0  0
 33 26  2  0  0  0  0
 34 33  1  0  0  0  0
 35  5  1  0  0  0  0
 35 37  1  0  0  0  0
 36 35  1  0  0  0  0
 38 35  1  0  0  0  0
 38 41  1  0  0  0  0
 39 38  1  0  0  0  0
 40 38  1  0  0  0  0
 42 45  1  0  0  0  0
 42 43  1  0  0  0  0
 44 42  1  0  0  0  0
 45 47  1  0  0  0  0
 45 46  1  0  0  0  0
 48 45  1  0  0  0  0
M  CHG  2   3  -1   4  -1
M  END
