1,2,3,4
 OpenBabel05122313063D

 43 45  0  0  0  0  0  0  0  0999 V2000
   -0.1370    0.0424   -1.5781 O   0  5  0  0  0  0  0  0  0  0  0  0
   -0.2467   -1.9985    0.4918 O   0  5  0  0  0  0  0  0  0  0  0  0
    2.2304    1.4181   -0.5236 N   0  0  0  0  0  0  0  0  0  0  0  0
    0.2025    0.6800    1.2128 N   0  0  0  0  0  2  0  0  0  0  0  0
   -1.9466   -4.3394    0.0627 Cl  0  0  0  0  0  0  0  0  0  0  0  0
   -5.8744   -1.1591    2.0610 Cl  0  0  0  0  0  0  0  0  0  0  0  0
   -2.5525    5.4183   -1.3552 Cl  0  0  0  0  0  0  0  0  0  0  0  0
   -3.1328    0.0160   -1.7658 Cl  0  0  0  0  0  0  0  0  0  0  0  0
    2.0639    2.1475    0.7295 C   0  0  0  0  0  0  0  0  0  0  0  0
    0.9961    1.7779    1.5886 C   0  0  0  0  0  0  0  0  0  0  0  0
   -1.0434    0.5932    1.6081 C   0  0  0  0  0  3  0  0  0  0  0  0
   -1.4936    1.4558    2.1424 H   0  0  0  0  0  0  0  0  0  0  0  0
   -1.9275   -0.5254    1.4034 C   0  0  0  0  0  0  0  0  0  0  0  0
   -1.4799   -1.7815    0.8572 C   0  0  0  0  0  0  0  0  0  0  0  0
   -2.4575   -2.8175    0.7266 C   0  0  0  0  0  0  0  0  0  0  0  0
   -3.7904   -2.6267    1.0878 C   0  0  0  0  0  0  0  0  0  0  0  0
   -4.5155   -3.4404    0.9536 H   0  0  0  0  0  0  0  0  0  0  0  0
   -4.2015   -1.3844    1.6186 C   0  0  0  0  0  0  0  0  0  0  0  0
   -3.2860   -0.3523    1.7831 C   0  0  0  0  0  0  0  0  0  0  0  0
   -3.6159    0.6136    2.1916 H   0  0  0  0  0  0  0  0  0  0  0  0
    0.8368    2.4656    2.8125 C   0  0  0  0  0  0  0  0  0  0  0  0
    0.0570    2.1384    3.5152 H   0  0  0  0  0  0  0  0  0  0  0  0
    1.6920    3.5173    3.1600 C   0  0  0  0  0  0  0  0  0  0  0  0
    1.5590    4.0319    4.1231 H   0  0  0  0  0  0  0  0  0  0  0  0
    2.7295    3.8949    2.2940 C   0  0  0  0  0  0  0  0  0  0  0  0
    3.4101    4.7152    2.5648 H   0  0  0  0  0  0  0  0  0  0  0  0
    2.9102    3.2078    1.0842 C   0  0  0  0  0  0  0  0  0  0  0  0
    3.7300    3.4999    0.4130 H   0  0  0  0  0  0  0  0  0  0  0  0
    3.6530    1.1554   -0.8566 C   0  0  0  0  0  0  0  0  0  0  0  0
    4.1885    2.0811   -1.1604 H   0  0  0  0  0  0  0  0  0  0  0  0
    3.6887    0.4391   -1.7001 H   0  0  0  0  0  0  0  0  0  0  0  0
    4.1513    0.6980    0.0151 H   0  0  0  0  0  0  0  0  0  0  0  0
    1.6016    2.1807   -1.6639 C   0  0  0  0  0  0  0  0  0  0  0  0
    2.1273    3.1565   -1.7614 H   0  0  0  0  0  0  0  0  0  0  0  0
    1.8180    1.5820   -2.5738 H   0  0  0  0  0  0  0  0  0  0  0  0
    0.1193    2.3985   -1.5500 C   0  0  0  0  0  0  0  0  0  0  0  0
   -0.4467    3.6795   -1.4746 C   0  0  0  0  0  0  0  0  0  0  0  0
    0.1950    4.5713   -1.4253 H   0  0  0  0  0  0  0  0  0  0  0  0
   -1.8429    3.8226   -1.4675 C   0  0  0  0  0  0  0  0  0  0  0  0
   -2.6797    2.6981   -1.5587 C   0  0  0  0  0  0  0  0  0  0  0  0
   -3.7717    2.8124   -1.5724 H   0  0  0  0  0  0  0  0  0  0  0  0
   -2.1086    1.4201   -1.6300 C   0  0  0  0  0  0  0  0  0  0  0  0
   -0.6982    1.2314   -1.5941 C   0  0  0  0  0  0  0  0  0  0  0  0
  2 14  1  0  0  0  0
  3  9  1  0  0  0  0
  4 10  1  0  0  0  0
  4 11  1  0  0  0  0
  5 15  1  0  0  0  0
  8 42  1  0  0  0  0
  9 27  2  0  0  0  0
  9 10  1  0  0  0  0
 10 21  2  0  0  0  0
 11 12  1  0  0  0  0
 13 11  1  0  0  0  0
 13 19  1  0  0  0  0
 14 13  2  0  0  0  0
 15 14  1  0  0  0  0
 15 16  2  0  0  0  0
 16 18  1  0  0  0  0
 17 16  1  0  0  0  0
 18 19  2  0  0  0  0
 18  6  1  0  0  0  0
 19 20  1  0  0  0  0
 21 23  1  0  0  0  0
 21 22  1  0  0  0  0
 23 24  1  0  0  0  0
 25 26  1  0  0  0  0
 25 23  2  0  0  0  0
 27 25  1  0  0  0  0
 28 27  1  0  0  0  0
 29  3  1  0  0  0  0
 29 32  1  0  0  0  0
 30 29  1  0  0  0  0
 31 29  1  0  0  0  0
 33 36  1  0  0  0  0
 33  3  1  0  0  0  0
 34 33  1  0  0  0  0
 35 33  1  0  0  0  0
 36 37  1  0  0  0  0
 37 39  2  0  0  0  0
 37 38  1  0  0  0  0
 39  7  1  0  0  0  0
 40 39  1  0  0  0  0
 41 40  1  0  0  0  0
 42 43  1  0  0  0  0
 42 40  2  0  0  0  0
 43  1  1  0  0  0  0
 43 36  2  0  0  0  0
M  CHG  2   1  -1   2  -1
M  END
