1,6,17,25
 OpenBabel05122313063D

 42 41  0  0  0  0  0  0  0  0999 V2000
   -1.7473   -0.4153   -0.5830 O   0  0  0  0  0  1  0  0  0  0  0  0
   -2.7904    0.2342    0.0215 C   0  0  0  0  0  0  0  0  0  0  0  0
   -2.2511    1.3134    1.0191 C   0  0  0  0  0  0  0  0  0  0  0  0
   -2.4263    2.3230    0.6009 H   0  0  0  0  0  0  0  0  0  0  0  0
   -2.8145    1.2729    1.9693 H   0  0  0  0  0  0  0  0  0  0  0  0
   -0.8028    1.1216    1.2804 N   0  0  0  0  0  0  0  0  0  0  0  0
   -0.5177    0.9198    2.7176 C   0  0  0  0  0  0  0  0  0  0  0  0
    0.5539    0.6763    2.8365 H   0  0  0  0  0  0  0  0  0  0  0  0
   -1.1110    0.0670    3.0897 H   0  0  0  0  0  0  0  0  0  0  0  0
   -0.7565    1.8345    3.3068 H   0  0  0  0  0  0  0  0  0  0  0  0
   -0.0308    2.2747    0.7641 C   0  0  0  0  0  0  0  0  0  0  0  0
    0.9845    2.2195    1.1941 H   0  0  0  0  0  0  0  0  0  0  0  0
   -0.4789    3.2315    1.1218 H   0  0  0  0  0  0  0  0  0  0  0  0
    0.0307    2.2785   -0.7526 C   0  0  0  0  0  0  0  0  0  0  0  0
   -0.9846    2.2254   -1.1829 H   0  0  0  0  0  0  0  0  0  0  0  0
    0.4787    3.2372   -1.1054 H   0  0  0  0  0  0  0  0  0  0  0  0
    0.8029    1.1282   -1.2747 N   0  0  0  0  0  0  0  0  0  0  0  0
    0.5179    0.9336   -2.7129 C   0  0  0  0  0  0  0  0  0  0  0  0
   -0.5537    0.6903   -2.8330 H   0  0  0  0  0  0  0  0  0  0  0  0
    1.1115    0.0827   -3.0891 H   0  0  0  0  0  0  0  0  0  0  0  0
    0.7565    1.8512   -3.2974 H   0  0  0  0  0  0  0  0  0  0  0  0
    2.2511    1.3189   -1.0122 C   0  0  0  0  0  0  0  0  0  0  0  0
    2.4260    2.3261   -0.5884 H   0  0  0  0  0  0  0  0  0  0  0  0
    2.8146    1.2836   -1.9625 H   0  0  0  0  0  0  0  0  0  0  0  0
    1.7474   -0.4182    0.5808 O   0  0  0  0  0  1  0  0  0  0  0  0
    2.7905    0.2343   -0.0204 C   0  0  0  0  0  0  0  0  0  0  0  0
   -4.5102    1.8305   -0.5592 F   0  0  0  0  0  0  0  0  0  0  0  0
   -3.6684    0.9110   -1.0833 C   0  0  0  0  0  0  0  0  0  0  0  0
   -2.8752    1.5681   -1.9730 F   0  0  0  0  0  0  0  0  0  0  0  0
   -3.6900   -0.7952    0.7974 C   0  0  0  0  0  0  0  0  0  0  0  0
   -4.3886    0.0186   -1.7755 F   0  0  0  0  0  0  0  0  0  0  0  0
   -4.9108   -0.2603    1.0554 F   0  0  0  0  0  0  0  0  0  0  0  0
   -3.8536   -1.9246    0.1065 F   0  0  0  0  0  0  0  0  0  0  0  0
   -3.1440   -1.1045    1.9950 F   0  0  0  0  0  0  0  0  0  0  0  0
    2.8753    1.5578    1.9810 F   0  0  0  0  0  0  0  0  0  0  0  0
    3.6686    0.9053    1.0878 C   0  0  0  0  0  0  0  0  0  0  0  0
    4.3888    0.0092    1.7754 F   0  0  0  0  0  0  0  0  0  0  0  0
    3.6899   -0.7911   -0.8018 C   0  0  0  0  0  0  0  0  0  0  0  0
    4.5103    1.8275    0.5685 F   0  0  0  0  0  0  0  0  0  0  0  0
    3.8533   -1.9242   -0.1169 F   0  0  0  0  0  0  0  0  0  0  0  0
    3.1437   -1.0939   -2.0010 F   0  0  0  0  0  0  0  0  0  0  0  0
    4.9107   -0.2550   -1.0570 F   0  0  0  0  0  0  0  0  0  0  0  0
  1  2  1  0  0  0  0
  2 30  1  0  0  0  0
  2  3  1  0  0  0  0
  3  6  1  0  0  0  0
  3  5  1  0  0  0  0
  4  3  1  0  0  0  0
  6  7  1  0  0  0  0
  7  8  1  0  0  0  0
  7  9  1  0  0  0  0
  7 10  1  0  0  0  0
 11 13  1  0  0  0  0
 11 12  1  0  0  0  0
 11  6  1  0  0  0  0
 14 11  1  0  0  0  0
 15 14  1  0  0  0  0
 16 14  1  0  0  0  0
 17 22  1  0  0  0  0
 17 14  1  0  0  0  0
 18 17  1  0  0  0  0
 19 18  1  0  0  0  0
 20 18  1  0  0  0  0
 21 18  1  0  0  0  0
 22 23  1  0  0  0  0
 22 26  1  0  0  0  0
 24 22  1  0  0  0  0
 26 25  1  0  0  0  0
 26 36  1  0  0  0  0
 28 27  1  0  0  0  0
 28  2  1  0  0  0  0
 29 28  1  0  0  0  0
 30 32  1  0  0  0  0
 30 34  1  0  0  0  0
 31 28  1  0  0  0  0
 33 30  1  0  0  0  0
 36 37  1  0  0  0  0
 36 35  1  0  0  0  0
 38 40  1  0  0  0  0
 38 26  1  0  0  0  0
 39 36  1  0  0  0  0
 41 38  1  0  0  0  0
 42 38  1  0  0  0  0
M  END
