3,8,41,46
 OpenBabel05122313063D

 76 79  0  0  1  0  0  0  0  0999 V2000
    3.7268    1.2702    0.2547 O   0  0  0  0  0  0  0  0  0  0  0  0
    1.5334    3.9238    0.6703 O   0  0  0  0  0  0  0  0  0  0  0  0
   -3.6478   -1.2676   -1.2206 O   0  5  0  0  0  0  0  0  0  0  0  0
   -4.3618   -3.4241   -1.3679 O   0  0  0  0  0  0  0  0  0  0  0  0
    1.9017    2.1314    2.0570 N   0  0  0  0  0  0  0  0  0  0  0  0
    2.5112    1.3233    2.1950 H   0  0  0  0  0  0  0  0  0  0  0  0
   -0.6384    0.2557    1.5210 N   0  0  0  0  0  0  0  0  0  0  0  0
   -2.3907   -1.7620    1.0646 N   0  0  0  0  0  2  0  0  0  0  0  0
    7.4017    0.6944    0.0738 C   0  0  0  0  0  0  0  0  0  0  0  0
    8.3490    1.2504    0.1257 H   0  0  0  0  0  0  0  0  0  0  0  0
    6.1835    1.3951    0.1630 C   0  0  0  0  0  0  0  0  0  0  0  0
    6.1934    2.4871    0.2813 H   0  0  0  0  0  0  0  0  0  0  0  0
    4.9650    0.7051    0.1073 C   0  0  0  0  0  0  0  0  0  0  0  0
    3.5953    2.6789    0.4057 C   0  0  0  0  0  0  0  0  0  0  0  0
    3.6496    3.2025   -0.5718 H   0  0  0  0  0  0  0  0  0  0  0  0
    4.3877    3.0904    1.0719 H   0  0  0  0  0  0  0  0  0  0  0  0
    2.2283    2.9793    1.0385 C   0  0  0  0  0  0  0  0  0  0  0  0
    0.6036    2.1734    2.7188 C   0  0  0  0  0  0  0  0  0  0  0  0
    0.3922    3.2283    2.9911 H   0  0  0  0  0  0  0  0  0  0  0  0
    0.6815    1.5992    3.6641 H   0  0  0  0  0  0  0  0  0  0  0  0
   -0.5720    1.6837    1.8542 C   0  0  0  0  0  0  0  0  0  0  0  0
   -1.5235    1.9376    2.3619 H   0  0  0  0  0  0  0  0  0  0  0  0
   -0.5682    2.2756    0.9182 H   0  0  0  0  0  0  0  0  0  0  0  0
    0.4601   -0.2849    0.7087 C   0  0  0  0  0  0  0  0  0  0  0  0
    0.3324   -1.3853    0.6603 H   0  0  0  0  0  0  0  0  0  0  0  0
    1.4627   -0.1268    1.1596 H   0  0  0  0  0  0  0  0  0  0  0  0
   -0.9901   -0.6055    2.6488 C   0  0  0  0  0  0  0  0  0  0  0  0
   -1.7299   -0.0539    3.2683 H   0  0  0  0  0  0  0  0  0  0  0  0
   -0.1242   -0.8542    3.3106 H   0  0  0  0  0  0  0  0  0  0  0  0
   -1.6488   -1.8904    2.1745 C   0  0  1  0  0  3  0  0  0  0  0  0
   -1.5439   -3.1359    2.8098 C   0  0  0  0  0  0  0  0  0  0  0  0
   -0.9223   -3.2489    3.7105 H   0  0  0  0  0  0  0  0  0  0  0  0
   -2.2405   -4.2306    2.2649 C   0  0  0  0  0  0  0  0  0  0  0  0
   -2.1694   -5.2175    2.7474 H   0  0  0  0  0  0  0  0  0  0  0  0
   -3.0030   -4.0661    1.1001 C   0  0  0  0  0  0  0  0  0  0  0  0
   -3.5530   -4.8834    0.6131 H   0  0  0  0  0  0  0  0  0  0  0  0
   -3.0491   -2.7937    0.5118 C   0  0  0  0  0  0  0  0  0  0  0  0
   -3.7767   -2.4911   -0.8137 C   0  0  0  0  0  0  0  0  0  0  0  0
    3.7268   -1.2707   -0.2544 O   0  0  0  0  0  0  0  0  0  0  0  0
    1.5332   -3.9241   -0.6701 O   0  0  0  0  0  0  0  0  0  0  0  0
   -3.6478    1.2682    1.2200 O   0  5  0  0  0  0  0  0  0  0  0  0
   -4.3612    3.4248    1.3672 O   0  0  0  0  0  0  0  0  0  0  0  0
    1.9018   -2.1319   -2.0569 N   0  0  0  0  0  0  0  0  0  0  0  0
    2.5113   -1.3239   -2.1950 H   0  0  0  0  0  0  0  0  0  0  0  0
   -0.6380   -0.2558   -1.5208 N   0  0  0  0  0  0  0  0  0  0  0  0
   -2.3899    1.7623   -1.0648 N   0  0  0  0  0  2  0  0  0  0  0  0
    7.4017   -0.6950   -0.0735 C   0  0  0  0  0  0  0  0  0  0  0  0
    8.3489   -1.2510   -0.1254 H   0  0  0  0  0  0  0  0  0  0  0  0
    6.1835   -1.3957   -0.1627 C   0  0  0  0  0  0  0  0  0  0  0  0
    6.1933   -2.4877   -0.2810 H   0  0  0  0  0  0  0  0  0  0  0  0
    4.9650   -0.7056   -0.1070 C   0  0  0  0  0  0  0  0  0  0  0  0
    3.5953   -2.6795   -0.4055 C   0  0  0  0  0  0  0  0  0  0  0  0
    3.6496   -3.2031    0.5719 H   0  0  0  0  0  0  0  0  0  0  0  0
    4.3876   -3.0909   -1.0718 H   0  0  0  0  0  0  0  0  0  0  0  0
    2.2282   -2.9797   -1.0383 C   0  0  0  0  0  0  0  0  0  0  0  0
    0.6037   -2.1737   -2.7186 C   0  0  0  0  0  0  0  0  0  0  0  0
    0.3921   -3.2285   -2.9910 H   0  0  0  0  0  0  0  0  0  0  0  0
    0.6816   -1.5996   -3.6640 H   0  0  0  0  0  0  0  0  0  0  0  0
   -0.5719   -1.6838   -1.8541 C   0  0  0  0  0  0  0  0  0  0  0  0
   -1.5234   -1.9375   -2.3618 H   0  0  0  0  0  0  0  0  0  0  0  0
   -0.5682   -2.2758   -0.9181 H   0  0  0  0  0  0  0  0  0  0  0  0
    0.4604    0.2845   -0.7081 C   0  0  0  0  0  0  0  0  0  0  0  0
    0.3330    1.3849   -0.6598 H   0  0  0  0  0  0  0  0  0  0  0  0
    1.4631    0.1260   -1.1587 H   0  0  0  0  0  0  0  0  0  0  0  0
   -0.9892    0.6056   -2.6486 C   0  0  0  0  0  0  0  0  0  0  0  0
   -1.7289    0.0542   -3.2684 H   0  0  0  0  0  0  0  0  0  0  0  0
   -0.1229    0.8541   -3.3102 H   0  0  0  0  0  0  0  0  0  0  0  0
   -1.6475    1.8906   -2.1745 C   0  0  1  0  0  3  0  0  0  0  0  0
   -1.5420    3.1362   -2.8096 C   0  0  0  0  0  0  0  0  0  0  0  0
   -0.9201    3.2491   -3.7100 H   0  0  0  0  0  0  0  0  0  0  0  0
   -2.2384    4.2311   -2.2648 C   0  0  0  0  0  0  0  0  0  0  0  0
   -2.1668    5.2180   -2.7471 H   0  0  0  0  0  0  0  0  0  0  0  0
   -3.0014    4.0667   -1.1002 C   0  0  0  0  0  0  0  0  0  0  0  0
   -3.5512    4.8841   -0.6133 H   0  0  0  0  0  0  0  0  0  0  0  0
   -3.0481    2.7942   -0.5121 C   0  0  0  0  0  0  0  0  0  0  0  0
   -3.7762    2.4917    0.8132 C   0  0  0  0  0  0  0  0  0  0  0  0
  1 14  1  0  0  0  0
  2 17  2  0  0  0  0
  3 38  1  0  0  0  0
  4 38  2  0  0  0  0
  5  6  1  0  0  0  0
  5 18  1  0  0  0  0
  7 21  1  0  0  0  0
  7 27  1  0  0  0  0
  8 30  1  0  0  0  0
  9 10  1  0  0  0  0
  9 11  1  0  0  0  0
 11 12  1  0  0  0  0
 13 11  2  0  0  0  0
 13  1  1  0  0  0  0
 14 17  1  0  0  0  0
 14 16  1  0  0  0  0
 15 14  1  0  0  0  0
 17  5  1  0  0  0  0
 18 19  1  0  0  0  0
 18 20  1  0  0  0  0
 21 22  1  0  0  0  0
 21 18  1  0  0  0  0
 23 21  1  0  0  0  0
 24 26  1  0  0  0  0
 24  7  1  0  0  0  0
 25 24  1  0  0  0  0
 27 28  1  0  0  0  0
 27 29  1  0  0  0  0
 30 27  1  1  0  0  0
 30 31  1  0  0  0  0
 31 32  1  0  0  0  0
 33 34  1  0  0  0  0
 33 31  2  0  0  0  0
 35 33  1  0  0  0  0
 36 35  1  0  0  0  0
 37  8  1  0  0  0  0
 37 35  2  0  0  0  0
 38 37  1  0  0  0  0
 39 51  1  0  0  0  0
 43 55  1  0  0  0  0
 44 43  1  0  0  0  0
 45 62  1  0  0  0  0
 46 75  1  0  0  0  0
 47  9  2  0  0  0  0
 48 47  1  0  0  0  0
 49 51  2  0  0  0  0
 49 47  1  0  0  0  0
 50 49  1  0  0  0  0
 51 13  1  0  0  0  0
 52 39  1  0  0  0  0
 52 53  1  0  0  0  0
 54 52  1  0  0  0  0
 55 40  2  0  0  0  0
 55 52  1  0  0  0  0
 56 43  1  0  0  0  0
 56 59  1  0  0  0  0
 57 56  1  0  0  0  0
 58 56  1  0  0  0  0
 59 45  1  0  0  0  0
 59 61  1  0  0  0  0
 60 59  1  0  0  0  0
 62 63  1  0  0  0  0
 62 24  1  0  0  0  0
 64 62  1  0  0  0  0
 65 45  1  0  0  0  0
 66 65  1  0  0  0  0
 67 65  1  0  0  0  0
 68 65  1  6  0  0  0
 68 46  1  0  0  0  0
 69 71  2  0  0  0  0
 69 68  1  0  0  0  0
 70 69  1  0  0  0  0
 71 73  1  0  0  0  0
 72 71  1  0  0  0  0
 73 74  1  0  0  0  0
 73 75  2  0  0  0  0
 75 76  1  0  0  0  0
 76 41  1  0  0  0  0
 76 42  2  0  0  0  0
M  CHG  2   3  -1  41  -1
M  END
