1,2,3,4
 OpenBabel05122313063D

 52 54  0  0  1  0  0  0  0  0999 V2000
   -1.3338   -1.1886   -0.7796 N   0  0  0  0  0  2  0  0  0  0  0  0
   -0.8967    1.2489    0.2279 O   0  5  0  0  0  0  0  0  0  0  0  0
    1.6827    0.6745   -0.2988 O   0  5  0  0  0  0  0  0  0  0  0  0
    0.9234   -1.8223    0.1612 N   0  0  0  0  0  2  0  0  0  0  0  0
   -2.5658   -0.7404   -1.0055 C   0  0  0  0  0  3  0  0  0  0  0  0
   -3.3102   -1.4299   -1.4403 H   0  0  0  0  0  0  0  0  0  0  0  0
   -2.1534    1.5014   -0.0173 C   0  0  0  0  0  0  0  0  0  0  0  0
   -2.6951    2.7724    0.4067 C   0  0  0  0  0  0  0  0  0  0  0  0
    2.9066    0.2707   -0.0921 C   0  0  0  0  0  0  0  0  0  0  0  0
    3.5815    2.4596   -0.6470 O   0  0  0  0  0  0  0  0  0  0  0  0
    3.9814    1.2206   -0.2695 C   0  0  0  0  0  0  0  0  0  0  0  0
   -1.8111    3.5764    1.0467 O   0  0  0  0  0  0  0  0  0  0  0  0
   -1.0031   -2.6203   -1.0047 C   0  0  1  0  0  0  0  0  0  0  0  0
   -0.4466   -2.6735   -1.9665 H   0  0  0  0  0  0  0  0  0  0  0  0
    2.2163   -2.0663    0.3622 C   0  0  0  0  0  3  0  0  0  0  0  0
    2.5220   -3.1116    0.5610 H   0  0  0  0  0  0  0  0  0  0  0  0
   -3.0283    0.5705   -0.6810 C   0  0  0  0  0  0  0  0  0  0  0  0
   -4.8651    2.1746   -0.5436 C   0  0  0  0  0  0  0  0  0  0  0  0
   -5.9105    2.4513   -0.7464 H   0  0  0  0  0  0  0  0  0  0  0  0
    3.2422   -1.0788    0.2862 C   0  0  0  0  0  0  0  0  0  0  0  0
   -4.3837    0.9347   -0.9356 C   0  0  0  0  0  0  0  0  0  0  0  0
   -5.0425    0.2109   -1.4400 H   0  0  0  0  0  0  0  0  0  0  0  0
   -0.0092   -2.9559    0.1277 C   0  0  2  0  0  0  0  0  0  0  0  0
    0.5385   -3.8906   -0.1330 H   0  0  0  0  0  0  0  0  0  0  0  0
   -0.7182   -3.1485    1.4785 C   0  0  0  0  0  0  0  0  0  0  0  0
   -1.1400   -2.1662    1.7809 H   0  0  0  0  0  0  0  0  0  0  0  0
    0.0357   -3.4221    2.2453 H   0  0  0  0  0  0  0  0  0  0  0  0
   -4.0258    3.0990    0.1292 C   0  0  0  0  0  0  0  0  0  0  0  0
   -4.4325    4.0737    0.4299 H   0  0  0  0  0  0  0  0  0  0  0  0
   -2.1664   -3.6222   -1.0481 C   0  0  0  0  0  0  0  0  0  0  0  0
   -2.8942   -3.3457   -1.8386 H   0  0  0  0  0  0  0  0  0  0  0  0
   -1.7331   -4.5911   -1.3798 H   0  0  0  0  0  0  0  0  0  0  0  0
   -2.8538   -3.8197    0.3094 C   0  0  0  0  0  0  0  0  0  0  0  0
   -3.6369   -4.6012    0.2229 H   0  0  0  0  0  0  0  0  0  0  0  0
   -3.3742   -2.8845    0.6088 H   0  0  0  0  0  0  0  0  0  0  0  0
   -1.8324   -4.1960    1.3899 C   0  0  0  0  0  0  0  0  0  0  0  0
   -2.3306   -4.3037    2.3754 H   0  0  0  0  0  0  0  0  0  0  0  0
   -1.3931   -5.1913    1.1518 H   0  0  0  0  0  0  0  0  0  0  0  0
    5.3057    0.8395   -0.0341 C   0  0  0  0  0  0  0  0  0  0  0  0
    6.1208    1.5666   -0.1470 H   0  0  0  0  0  0  0  0  0  0  0  0
    4.5695    3.4528   -0.8199 C   0  0  0  0  0  0  0  0  0  0  0  0
    5.1263    3.6537    0.1239 H   0  0  0  0  0  0  0  0  0  0  0  0
    4.0388    4.3730   -1.1273 H   0  0  0  0  0  0  0  0  0  0  0  0
    5.3045    3.1766   -1.6102 H   0  0  0  0  0  0  0  0  0  0  0  0
    5.6113   -0.4908    0.3512 C   0  0  0  0  0  0  0  0  0  0  0  0
    6.6616   -0.7690    0.5246 H   0  0  0  0  0  0  0  0  0  0  0  0
    4.6064   -1.4342    0.5022 C   0  0  0  0  0  0  0  0  0  0  0  0
    4.8472   -2.4709    0.7840 H   0  0  0  0  0  0  0  0  0  0  0  0
   -2.2552    4.8476    1.4704 C   0  0  0  0  0  0  0  0  0  0  0  0
   -2.5850    5.4792    0.6140 H   0  0  0  0  0  0  0  0  0  0  0  0
   -1.3927    5.3327    1.9641 H   0  0  0  0  0  0  0  0  0  0  0  0
   -3.0958    4.7745    2.1980 H   0  0  0  0  0  0  0  0  0  0  0  0
  3  9  1  0  0  0  0
  4 15  1  0  0  0  0
  5  1  1  0  0  0  0
  5 17  1  0  0  0  0
  6  5  1  0  0  0  0
  7  2  1  0  0  0  0
  7  8  1  0  0  0  0
  8 12  1  0  0  0  0
  9 20  1  0  0  0  0
 10 11  1  0  0  0  0
 11  9  2  0  0  0  0
 11 39  1  0  0  0  0
 12 49  1  0  0  0  0
 13 14  1  6  0  0  0
 13  1  1  0  0  0  0
 13 23  1  0  0  0  0
 15 16  1  0  0  0  0
 17  7  2  0  0  0  0
 18 28  1  0  0  0  0
 19 18  1  0  0  0  0
 20 15  1  0  0  0  0
 20 47  2  0  0  0  0
 21 17  1  0  0  0  0
 21 18  2  0  0  0  0
 22 21  1  0  0  0  0
 23 24  1  6  0  0  0
 23  4  1  0  0  0  0
 23 25  1  0  0  0  0
 25 26  1  0  0  0  0
 25 27  1  0  0  0  0
 28  8  2  0  0  0  0
 28 29  1  0  0  0  0
 30 13  1  0  0  0  0
 30 33  1  0  0  0  0
 31 30  1  0  0  0  0
 32 30  1  0  0  0  0
 33 35  1  0  0  0  0
 33 36  1  0  0  0  0
 34 33  1  0  0  0  0
 36 25  1  0  0  0  0
 36 37  1  0  0  0  0
 38 36  1  0  0  0  0
 39 45  2  0  0  0  0
 40 39  1  0  0  0  0
 41 10  1  0  0  0  0
 41 42  1  0  0  0  0
 43 41  1  0  0  0  0
 44 41  1  0  0  0  0
 45 47  1  0  0  0  0
 45 46  1  0  0  0  0
 47 48  1  0  0  0  0
 49 51  1  0  0  0  0
 49 52  1  0  0  0  0
 50 49  1  0  0  0  0
M  CHG  2   2  -1   3  -1
M  END
