1,3,4,5
 OpenBabel05122313063D

 53 54  0  0  1  0  0  0  0  0999 V2000
    0.1125   -1.4801    1.5193 O   0  0  0  0  0  1  0  0  0  0  0  0
   -1.8984    1.6511   -0.8831 O   0  0  0  0  0  0  0  0  0  0  0  0
    1.9446    0.6348   -1.5836 O   0  0  0  0  0  1  0  0  0  0  0  0
   -1.4972   -0.8833    0.1603 N   0  0  0  0  0  2  0  0  0  0  0  0
    0.6410    1.2898    0.0749 N   0  0  0  0  0  2  0  0  0  0  0  0
   -1.1496   -1.2342    1.3926 C   0  0  1  0  0  3  0  0  0  0  0  0
   -2.7257   -0.5803   -0.4289 C   0  0  0  0  0  0  0  0  0  0  0  0
   -2.9011    0.7049   -1.0074 C   0  0  0  0  0  0  0  0  0  0  0  0
   -4.0387    1.0116   -1.7641 C   0  0  0  0  0  0  0  0  0  0  0  0
   -4.1173    2.0166   -2.2036 H   0  0  0  0  0  0  0  0  0  0  0  0
   -5.0408    0.0456   -1.9467 C   0  0  0  0  0  0  0  0  0  0  0  0
   -5.9344    0.2879   -2.5408 H   0  0  0  0  0  0  0  0  0  0  0  0
   -4.8938   -1.2262   -1.3703 C   0  0  0  0  0  0  0  0  0  0  0  0
   -5.6704   -1.9920   -1.5149 H   0  0  0  0  0  0  0  0  0  0  0  0
   -3.7434   -1.5368   -0.6315 C   0  0  0  0  0  0  0  0  0  0  0  0
   -3.5970   -2.5476   -0.2225 H   0  0  0  0  0  0  0  0  0  0  0  0
   -1.6133    2.1184    0.3867 C   0  0  0  0  0  0  0  0  0  0  0  0
   -0.2658    2.0299    0.8310 C   0  0  0  0  0  0  0  0  0  0  0  0
    0.0430    2.5477    2.1075 C   0  0  0  0  0  0  0  0  0  0  0  0
    1.0774    2.4527    2.4692 H   0  0  0  0  0  0  0  0  0  0  0  0
   -0.9442    3.1451    2.9066 C   0  0  0  0  0  0  0  0  0  0  0  0
   -0.6766    3.5427    3.8971 H   0  0  0  0  0  0  0  0  0  0  0  0
   -2.2684    3.2264    2.4479 C   0  0  0  0  0  0  0  0  0  0  0  0
   -3.0466    3.6907    3.0715 H   0  0  0  0  0  0  0  0  0  0  0  0
   -2.6018    2.7097    1.1853 C   0  0  0  0  0  0  0  0  0  0  0  0
   -3.6325    2.7571    0.8037 H   0  0  0  0  0  0  0  0  0  0  0  0
    1.4247    1.6299   -0.9377 C   0  0  1  0  0  3  0  0  0  0  0  0
    1.7706    3.0609   -1.3830 C   0  0  0  0  0  0  0  0  0  0  0  0
    2.4473    3.7975   -0.2068 C   0  0  0  0  0  0  0  0  0  0  0  0
    1.7568    3.9264    0.6479 H   0  0  0  0  0  0  0  0  0  0  0  0
    2.7733    4.8058   -0.5352 H   0  0  0  0  0  0  0  0  0  0  0  0
    3.3433    3.2478    0.1477 H   0  0  0  0  0  0  0  0  0  0  0  0
    0.4817    3.7994   -1.8030 C   0  0  0  0  0  0  0  0  0  0  0  0
   -0.0706    3.2336   -2.5789 H   0  0  0  0  0  0  0  0  0  0  0  0
    0.7456    4.7940   -2.2174 H   0  0  0  0  0  0  0  0  0  0  0  0
   -0.2012    3.9600   -0.9476 H   0  0  0  0  0  0  0  0  0  0  0  0
    2.7395    3.0022   -2.5757 C   0  0  0  0  0  0  0  0  0  0  0  0
    3.6674    2.4571   -2.3160 H   0  0  0  0  0  0  0  0  0  0  0  0
    3.0096    4.0322   -2.8851 H   0  0  0  0  0  0  0  0  0  0  0  0
    2.2827    2.4860   -3.4419 H   0  0  0  0  0  0  0  0  0  0  0  0
   -2.0248   -1.3832    2.6486 C   0  0  0  0  0  0  0  0  0  0  0  0
   -3.3680   -0.6402    2.5729 C   0  0  0  0  0  0  0  0  0  0  0  0
   -3.8623   -0.6897    3.5646 H   0  0  0  0  0  0  0  0  0  0  0  0
   -4.0600   -1.0770    1.8312 H   0  0  0  0  0  0  0  0  0  0  0  0
   -3.2237    0.4278    2.3203 H   0  0  0  0  0  0  0  0  0  0  0  0
   -1.2172   -0.8294    3.8424 C   0  0  0  0  0  0  0  0  0  0  0  0
   -1.0303    0.2568    3.7193 H   0  0  0  0  0  0  0  0  0  0  0  0
   -0.2423   -1.3434    3.9334 H   0  0  0  0  0  0  0  0  0  0  0  0
   -1.7893   -0.9785    4.7805 H   0  0  0  0  0  0  0  0  0  0  0  0
   -2.2588   -2.8994    2.8443 C   0  0  0  0  0  0  0  0  0  0  0  0
   -2.8267   -3.0752    3.7810 H   0  0  0  0  0  0  0  0  0  0  0  0
   -1.2957   -3.4428    2.9107 H   0  0  0  0  0  0  0  0  0  0  0  0
   -2.8430   -3.3297    2.0058 H   0  0  0  0  0  0  0  0  0  0  0  0
  2 17  1  0  0  0  0
  4  6  1  0  0  0  0
  5 18  1  0  0  0  0
  6  1  1  6  0  0  0
  6 41  1  0  0  0  0
  7  4  1  0  0  0  0
  8  2  1  0  0  0  0
  8  7  2  0  0  0  0
  9  8  1  0  0  0  0
 10  9  1  0  0  0  0
 11  9  2  0  0  0  0
 11 13  1  0  0  0  0
 12 11  1  0  0  0  0
 13 15  2  0  0  0  0
 14 13  1  0  0  0  0
 15  7  1  0  0  0  0
 15 16  1  0  0  0  0
 17 18  2  0  0  0  0
 17 25  1  0  0  0  0
 18 19  1  0  0  0  0
 19 20  1  0  0  0  0
 19 21  2  0  0  0  0
 21 22  1  0  0  0  0
 23 21  1  0  0  0  0
 23 24  1  0  0  0  0
 25 23  2  0  0  0  0
 26 25  1  0  0  0  0
 27  3  1  1  0  0  0
 27  5  1  0  0  0  0
 28 27  1  0  0  0  0
 28 29  1  0  0  0  0
 29 32  1  0  0  0  0
 29 30  1  0  0  0  0
 31 29  1  0  0  0  0
 33 28  1  0  0  0  0
 33 36  1  0  0  0  0
 34 33  1  0  0  0  0
 35 33  1  0  0  0  0
 37 38  1  0  0  0  0
 37 28  1  0  0  0  0
 39 37  1  0  0  0  0
 40 37  1  0  0  0  0
 41 50  1  0  0  0  0
 41 46  1  0  0  0  0
 42 41  1  0  0  0  0
 42 43  1  0  0  0  0
 44 42  1  0  0  0  0
 45 42  1  0  0  0  0
 46 48  1  0  0  0  0
 46 49  1  0  0  0  0
 47 46  1  0  0  0  0
 50 52  1  0  0  0  0
 50 51  1  0  0  0  0
 53 50  1  0  0  0  0
M  END
