1,9,12,22
 OpenBabel05122313063D

 57 60  0  0  1  0  0  0  0  0999 V2000
    1.0253   -2.2260   -0.5900 O   0  5  0  0  0  0  0  0  0  0  0  0
    2.3446   -2.2453   -0.6351 C   0  0  0  0  0  0  0  0  0  0  0  0
    2.9726   -3.4436   -1.0647 C   0  0  0  0  0  0  0  0  0  0  0  0
    4.3589   -3.5843   -1.0052 C   0  0  0  0  0  0  0  0  0  0  0  0
    5.1662   -2.5199   -0.5528 C   0  0  0  0  0  0  0  0  0  0  0  0
    4.5714   -1.3100   -0.1944 C   0  0  0  0  0  0  0  0  0  0  0  0
    3.1645   -1.1321   -0.2430 C   0  0  0  0  0  0  0  0  0  0  0  0
    2.5648    0.1839   -0.0690 C   0  0  2  0  0  3  0  0  0  0  0  0
    1.2585    0.3411   -0.0436 N   0  0  0  0  0  2  0  0  0  0  0  0
   -0.6862    1.6378    0.4475 C   0  0  0  0  0  0  0  0  0  0  0  0
    0.6682    1.6776   -0.2421 C   0  0  2  0  0  0  0  0  0  0  0  0
   -1.2989    0.3458    0.1257 N   0  0  0  0  0  2  0  0  0  0  0  0
   -2.6302    0.2409   -0.0421 C   0  0  2  0  0  3  0  0  0  0  0  0
   -3.4353    1.4985   -0.1812 C   0  0  0  0  0  0  0  0  0  0  0  0
   -3.4253    2.2185   -1.3941 C   0  0  0  0  0  0  0  0  0  0  0  0
   -4.1682    3.4013   -1.5236 C   0  0  0  0  0  0  0  0  0  0  0  0
   -4.9267    3.8787   -0.4426 C   0  0  0  0  0  0  0  0  0  0  0  0
   -4.9441    3.1653    0.7666 C   0  0  0  0  0  0  0  0  0  0  0  0
   -4.2055    1.9796    0.8967 C   0  0  0  0  0  0  0  0  0  0  0  0
   -3.3261   -1.0159   -0.0863 C   0  0  0  0  0  0  0  0  0  0  0  0
   -2.6535   -2.2744    0.1844 C   0  0  0  0  0  0  0  0  0  0  0  0
   -1.3794   -2.3645    0.4429 O   0  5  0  0  0  0  0  0  0  0  0  0
   -3.4207   -3.4805    0.1774 C   0  0  0  0  0  0  0  0  0  0  0  0
   -4.7781   -3.4697   -0.1023 C   0  0  0  0  0  0  0  0  0  0  0  0
   -5.4399   -2.2454   -0.3835 C   0  0  0  0  0  0  0  0  0  0  0  0
   -4.7285   -1.0554   -0.3709 C   0  0  0  0  0  0  0  0  0  0  0  0
    3.4739    1.3670    0.0545 C   0  0  0  0  0  0  0  0  0  0  0  0
    3.5679    2.0031    1.3111 C   0  0  0  0  0  0  0  0  0  0  0  0
    4.4135    3.1088    1.4794 C   0  0  0  0  0  0  0  0  0  0  0  0
    5.1669    3.5910    0.3963 C   0  0  0  0  0  0  0  0  0  0  0  0
    5.0806    2.9581   -0.8541 C   0  0  0  0  0  0  0  0  0  0  0  0
    4.2430    1.8452   -1.0243 C   0  0  0  0  0  0  0  0  0  0  0  0
    0.5463    1.9606   -1.7456 C   0  0  0  0  0  0  0  0  0  0  0  0
    2.3187   -4.2654   -1.3897 H   0  0  0  0  0  0  0  0  0  0  0  0
    4.8210   -4.5384   -1.3026 H   0  0  0  0  0  0  0  0  0  0  0  0
    6.2580   -2.6362   -0.4924 H   0  0  0  0  0  0  0  0  0  0  0  0
    5.1984   -0.4674    0.1302 H   0  0  0  0  0  0  0  0  0  0  0  0
   -0.5426    1.6556    1.5510 H   0  0  0  0  0  0  0  0  0  0  0  0
   -1.3096    2.5039    0.1546 H   0  0  0  0  0  0  0  0  0  0  0  0
    1.2955    2.4623    0.2256 H   0  0  0  0  0  0  0  0  0  0  0  0
   -2.8301    1.8403   -2.2395 H   0  0  0  0  0  0  0  0  0  0  0  0
   -4.1569    3.9523   -2.4764 H   0  0  0  0  0  0  0  0  0  0  0  0
   -5.5083    4.8074   -0.5441 H   0  0  0  0  0  0  0  0  0  0  0  0
   -5.5384    3.5341    1.6164 H   0  0  0  0  0  0  0  0  0  0  0  0
   -4.2193    1.4145    1.8410 H   0  0  0  0  0  0  0  0  0  0  0  0
   -2.8767   -4.4105    0.3963 H   0  0  0  0  0  0  0  0  0  0  0  0
   -5.3441   -4.4140   -0.1075 H   0  0  0  0  0  0  0  0  0  0  0  0
   -6.5160   -2.2387   -0.6111 H   0  0  0  0  0  0  0  0  0  0  0  0
   -5.2467   -0.1110   -0.5887 H   0  0  0  0  0  0  0  0  0  0  0  0
    2.9714    1.6081    2.1488 H   0  0  0  0  0  0  0  0  0  0  0  0
    4.4869    3.5957    2.4637 H   0  0  0  0  0  0  0  0  0  0  0  0
    5.8282    4.4607    0.5287 H   0  0  0  0  0  0  0  0  0  0  0  0
    5.6733    3.3310   -1.7032 H   0  0  0  0  0  0  0  0  0  0  0  0
    4.1841    1.3363   -1.9986 H   0  0  0  0  0  0  0  0  0  0  0  0
    0.0510    2.9375   -1.9155 H   0  0  0  0  0  0  0  0  0  0  0  0
   -0.0528    1.1675   -2.2365 H   0  0  0  0  0  0  0  0  0  0  0  0
    1.5447    1.9879   -2.2235 H   0  0  0  0  0  0  0  0  0  0  0  0
  2  1  1  0  0  0  0
  2  7  1  0  0  0  0
  3  4  1  0  0  0  0
  3  2  2  0  0  0  0
  4  5  2  0  0  0  0
  5 36  1  0  0  0  0
  5  6  1  0  0  0  0
  6 37  1  0  0  0  0
  7  6  2  0  0  0  0
  7  8  1  0  0  0  0
  8  9  1  6  0  0  0
  8 27  1  0  0  0  0
 10 38  1  0  0  0  0
 11  9  1  0  0  0  0
 11 40  1  1  0  0  0
 11 10  1  0  0  0  0
 12 10  1  0  0  0  0
 13 12  1  1  0  0  0
 14 13  1  0  0  0  0
 14 19  1  0  0  0  0
 15 14  2  0  0  0  0
 16 15  1  0  0  0  0
 16 17  2  0  0  0  0
 17 18  1  0  0  0  0
 18 19  2  0  0  0  0
 18 44  1  0  0  0  0
 19 45  1  0  0  0  0
 20 13  1  0  0  0  0
 20 21  1  0  0  0  0
 21 22  1  0  0  0  0
 23 21  2  0  0  0  0
 23 46  1  0  0  0  0
 24 23  1  0  0  0  0
 25 26  1  0  0  0  0
 25 24  2  0  0  0  0
 26 20  2  0  0  0  0
 27 28  1  0  0  0  0
 28 29  2  0  0  0  0
 28 50  1  0  0  0  0
 29 51  1  0  0  0  0
 30 52  1  0  0  0  0
 30 29  1  0  0  0  0
 31 30  2  0  0  0  0
 32 31  1  0  0  0  0
 32 27  2  0  0  0  0
 33 11  1  0  0  0  0
 34  3  1  0  0  0  0
 35  4  1  0  0  0  0
 39 10  1  0  0  0  0
 41 15  1  0  0  0  0
 42 16  1  0  0  0  0
 43 17  1  0  0  0  0
 47 24  1  0  0  0  0
 48 25  1  0  0  0  0
 49 26  1  0  0  0  0
 53 31  1  0  0  0  0
 54 32  1  0  0  0  0
 55 33  1  0  0  0  0
 56 33  1  0  0  0  0
 57 33  1  0  0  0  0
M  CHG  2   1  -1  22  -1
M  END
