2,3,4,6
 OpenBabel05122313063D

 54 56  0  0  1  0  0  0  0  0999 V2000
    0.0767    4.4978   -0.1577 S   0  0  0  0  0  0  0  0  0  0  0  0
    3.1132   -1.1020   -0.2183 O   0  5  0  0  0  0  0  0  0  0  0  0
    0.1060   -1.0840    0.3564 O   0  5  0  0  0  0  0  0  0  0  0  0
    2.8909    1.7747   -0.1134 N   0  0  0  0  0  2  0  0  0  0  0  0
    2.2966    2.9935   -0.1630 N   0  0  0  0  0  0  0  0  0  0  0  0
    0.2960    1.7716   -0.0027 N   0  0  0  0  0  2  0  0  0  0  0  0
   -5.3911   -0.3157   -0.1295 N   0  0  0  0  0  2  0  0  0  0  0  0
   -6.1300   -1.3476   -0.0516 N   0  0  0  0  0  2  0  0  0  0  0  0
    0.9825    2.9665   -0.1026 C   0  0  0  0  0  0  0  0  0  0  0  0
   -1.0150    1.6682   -0.0637 C   0  0  0  0  0  3  0  0  0  0  0  0
   -1.6189    2.5901   -0.2123 H   0  0  0  0  0  0  0  0  0  0  0  0
   -1.7625    0.4510    0.0262 C   0  0  0  0  0  0  0  0  0  0  0  0
   -1.1626   -0.8660    0.2302 C   0  0  0  0  0  0  0  0  0  0  0  0
    4.3620   -0.8133   -0.3523 C   0  0  0  0  0  0  0  0  0  0  0  0
    4.9081    0.4944   -0.3752 C   0  0  0  0  0  0  0  0  0  0  0  0
    5.9883    0.5771   -0.5438 H   0  0  0  0  0  0  0  0  0  0  0  0
    4.2158    1.7304   -0.3175 C   0  0  1  0  0  3  0  0  0  0  0  0
    1.4472    5.6681   -0.3641 C   0  0  0  0  0  0  0  0  0  0  0  0
    0.9808    6.6705   -0.4057 H   0  0  0  0  0  0  0  0  0  0  0  0
    1.9989    5.4596   -1.2996 H   0  0  0  0  0  0  0  0  0  0  0  0
    2.1441    5.6013    0.4917 H   0  0  0  0  0  0  0  0  0  0  0  0
   -3.1746    0.5560   -0.0840 C   0  0  0  0  0  0  0  0  0  0  0  0
   -3.6425    1.5418   -0.2350 H   0  0  0  0  0  0  0  0  0  0  0  0
   -4.0168   -0.5551   -0.0066 C   0  0  0  0  0  0  0  0  0  0  0  0
   -3.4315   -1.8465    0.1911 C   0  0  0  0  0  0  0  0  0  0  0  0
   -4.1125   -2.7082    0.2466 H   0  0  0  0  0  0  0  0  0  0  0  0
   -2.0640   -1.9872    0.3034 C   0  0  0  0  0  0  0  0  0  0  0  0
   -1.5980   -2.9733    0.4512 H   0  0  0  0  0  0  0  0  0  0  0  0
    4.9737    3.0161   -0.5253 C   0  0  0  0  0  0  0  0  0  0  0  0
    4.7790    3.7198    0.3085 H   0  0  0  0  0  0  0  0  0  0  0  0
    4.6164    3.5294   -1.4413 H   0  0  0  0  0  0  0  0  0  0  0  0
    6.0595    2.8321   -0.6138 H   0  0  0  0  0  0  0  0  0  0  0  0
    5.2733   -1.9949   -0.5159 C   0  0  0  0  0  0  0  0  0  0  0  0
    4.6838   -3.2524   -0.7795 C   0  0  0  0  0  0  0  0  0  0  0  0
    3.5883   -3.2975   -0.8580 H   0  0  0  0  0  0  0  0  0  0  0  0
    5.4738   -4.3975   -0.9369 C   0  0  0  0  0  0  0  0  0  0  0  0
    4.9964   -5.3662   -1.1510 H   0  0  0  0  0  0  0  0  0  0  0  0
    6.8710   -4.3126   -0.8217 C   0  0  0  0  0  0  0  0  0  0  0  0
    7.4937   -5.2122   -0.9418 H   0  0  0  0  0  0  0  0  0  0  0  0
    7.4694   -3.0719   -0.5464 C   0  0  0  0  0  0  0  0  0  0  0  0
    8.5627   -2.9980   -0.4428 H   0  0  0  0  0  0  0  0  0  0  0  0
    6.6798   -1.9244   -0.3969 C   0  0  0  0  0  0  0  0  0  0  0  0
    7.1689   -0.9680   -0.1628 H   0  0  0  0  0  0  0  0  0  0  0  0
   -7.5144   -1.0997   -0.1758 C   0  0  0  0  0  0  0  0  0  0  0  0
   -8.3546   -2.2313   -0.0935 C   0  0  0  0  0  0  0  0  0  0  0  0
   -7.8797   -3.2118    0.0589 H   0  0  0  0  0  0  0  0  0  0  0  0
  -10.3057   -0.8175   -0.3987 C   0  0  0  0  0  0  0  0  0  0  0  0
  -11.3970   -0.7040   -0.4863 H   0  0  0  0  0  0  0  0  0  0  0  0
   -9.4708    0.3145   -0.4816 C   0  0  0  0  0  0  0  0  0  0  0  0
   -9.9149    1.3108   -0.6340 H   0  0  0  0  0  0  0  0  0  0  0  0
   -9.7438   -2.0901   -0.2045 C   0  0  0  0  0  0  0  0  0  0  0  0
  -10.3934   -2.9761   -0.1396 H   0  0  0  0  0  0  0  0  0  0  0  0
   -8.0846    0.1814   -0.3718 C   0  0  0  0  0  0  0  0  0  0  0  0
   -7.4066    1.0442   -0.4322 H   0  0  0  0  0  0  0  0  0  0  0  0
  1  9  1  0  0  0  0
  5  4  1  0  0  0  0
  5  9  2  0  0  0  0
  7  8  1  0  0  0  0
  7 24  1  0  0  0  0
  9  6  1  0  0  0  0
 10  6  1  0  0  0  0
 10 12  1  0  0  0  0
 11 10  1  0  0  0  0
 12 13  1  0  0  0  0
 13 27  2  0  0  0  0
 13  3  1  0  0  0  0
 14  2  1  0  0  0  0
 15 14  2  0  0  0  0
 16 15  1  0  0  0  0
 17 15  1  6  0  0  0
 17  4  1  0  0  0  0
 18  1  1  0  0  0  0
 18 21  1  0  0  0  0
 19 18  1  0  0  0  0
 20 18  1  0  0  0  0
 22 24  1  0  0  0  0
 22 12  2  0  0  0  0
 23 22  1  0  0  0  0
 24 25  2  0  0  0  0
 25 26  1  0  0  0  0
 25 27  1  0  0  0  0
 27 28  1  0  0  0  0
 29 17  1  0  0  0  0
 29 30  1  0  0  0  0
 31 29  1  0  0  0  0
 32 29  1  0  0  0  0
 33 42  1  0  0  0  0
 33 14  1  0  0  0  0
 34 33  2  0  0  0  0
 35 34  1  0  0  0  0
 36 38  2  0  0  0  0
 36 34  1  0  0  0  0
 37 36  1  0  0  0  0
 38 40  1  0  0  0  0
 39 38  1  0  0  0  0
 40 41  1  0  0  0  0
 40 42  2  0  0  0  0
 42 43  1  0  0  0  0
 44 45  1  0  0  0  0
 44  8  1  0  0  0  0
 45 46  1  0  0  0  0
 47 51  1  0  0  0  0
 48 47  1  0  0  0  0
 49 47  2  0  0  0  0
 49 53  1  0  0  0  0
 50 49  1  0  0  0  0
 51 52  1  0  0  0  0
 51 45  2  0  0  0  0
 53 44  2  0  0  0  0
 54 53  1  0  0  0  0
M  CHG  2   2  -1   3  -1
M  END
