1,4,7,11
 OpenBabel05122313063D

 63 66  0  0  0  0  0  0  0  0999 V2000
    1.4272    1.4182   -0.1188 O   0  5  0  0  0  0  0  0  0  0  0  0
    2.6374    0.9476   -0.1211 C   0  0  0  0  0  0  0  0  0  0  0  0
    2.8289   -0.4591   -0.0078 C   0  0  0  0  0  0  0  0  0  0  0  0
    1.6014   -1.1023   -0.0251 N   0  0  0  0  0  2  0  0  0  0  0  0
    1.4406   -2.3689    0.0219 N   0  0  0  0  0  2  0  0  0  0  0  0
    0.0464   -2.7565    0.0274 C   0  0  0  0  0  0  0  0  0  0  0  0
   -0.7991   -1.4928   -0.0078 N   0  0  0  0  0  2  0  0  0  0  0  0
   -2.0612   -1.6629   -0.0510 N   0  0  0  0  0  2  0  0  0  0  0  0
   -2.9466   -0.6382   -0.0665 C   0  0  0  0  0  0  0  0  0  0  0  0
   -2.5403    0.7346    0.0610 C   0  0  0  0  0  0  0  0  0  0  0  0
   -1.3095    1.1182    0.0315 O   0  5  0  0  0  0  0  0  0  0  0  0
   -0.2563   -3.5209    1.3248 C   0  0  0  0  0  0  0  0  0  0  0  0
   -0.2494   -3.5949   -1.2247 C   0  0  0  0  0  0  0  0  0  0  0  0
    3.7267    1.9434   -0.2732 C   0  0  0  0  0  0  0  0  0  0  0  0
    3.5039    3.2539    0.2062 C   0  0  0  0  0  0  0  0  0  0  0  0
    4.4866    4.2402    0.0592 C   0  0  0  0  0  0  0  0  0  0  0  0
    5.6966    3.9379   -0.5875 C   0  0  0  0  0  0  0  0  0  0  0  0
    5.9148    2.6451   -1.0922 C   0  0  0  0  0  0  0  0  0  0  0  0
    4.9403    1.6514   -0.9359 C   0  0  0  0  0  0  0  0  0  0  0  0
    4.0920   -1.1952    0.2006 C   0  0  0  0  0  0  0  0  0  0  0  0
    5.0265   -0.7392    1.1602 C   0  0  0  0  0  0  0  0  0  0  0  0
    6.2383   -1.4129    1.3585 C   0  0  0  0  0  0  0  0  0  0  0  0
    6.5361   -2.5656    0.6137 C   0  0  0  0  0  0  0  0  0  0  0  0
    5.6082   -3.0401   -0.3275 C   0  0  0  0  0  0  0  0  0  0  0  0
    4.3968   -2.3657   -0.5322 C   0  0  0  0  0  0  0  0  0  0  0  0
   -4.3624   -1.0613   -0.2500 C   0  0  0  0  0  0  0  0  0  0  0  0
   -4.8639   -2.1796    0.4517 C   0  0  0  0  0  0  0  0  0  0  0  0
   -6.1850   -2.6095    0.2662 C   0  0  0  0  0  0  0  0  0  0  0  0
   -7.0299   -1.9319   -0.6277 C   0  0  0  0  0  0  0  0  0  0  0  0
   -6.5368   -0.8294   -1.3443 C   0  0  0  0  0  0  0  0  0  0  0  0
   -5.2151   -0.4016   -1.1630 C   0  0  0  0  0  0  0  0  0  0  0  0
   -3.5140    1.8419    0.2818 C   0  0  0  0  0  0  0  0  0  0  0  0
   -4.6540    1.6954    1.1028 C   0  0  0  0  0  0  0  0  0  0  0  0
   -5.5044    2.7847    1.3293 C   0  0  0  0  0  0  0  0  0  0  0  0
   -5.2365    4.0290    0.7348 C   0  0  0  0  0  0  0  0  0  0  0  0
   -4.0964    4.1866   -0.0703 C   0  0  0  0  0  0  0  0  0  0  0  0
   -3.2329    3.1051   -0.2845 C   0  0  0  0  0  0  0  0  0  0  0  0
   -1.3209   -3.8225    1.3416 H   0  0  0  0  0  0  0  0  0  0  0  0
   -0.0457   -2.8756    2.1999 H   0  0  0  0  0  0  0  0  0  0  0  0
    0.3841   -4.4208    1.3867 H   0  0  0  0  0  0  0  0  0  0  0  0
    0.3764   -4.5072   -1.2214 H   0  0  0  0  0  0  0  0  0  0  0  0
   -0.0175   -3.0067   -2.1341 H   0  0  0  0  0  0  0  0  0  0  0  0
   -1.3191   -3.8768   -1.2402 H   0  0  0  0  0  0  0  0  0  0  0  0
    2.5431    3.4758    0.6921 H   0  0  0  0  0  0  0  0  0  0  0  0
    4.3069    5.2542    0.4477 H   0  0  0  0  0  0  0  0  0  0  0  0
    6.4684    4.7138   -0.7063 H   0  0  0  0  0  0  0  0  0  0  0  0
    6.8526    2.4088   -1.6174 H   0  0  0  0  0  0  0  0  0  0  0  0
    5.1126    0.6462   -1.3443 H   0  0  0  0  0  0  0  0  0  0  0  0
    4.7922    0.1569    1.7535 H   0  0  0  0  0  0  0  0  0  0  0  0
    6.9523   -1.0394    2.1085 H   0  0  0  0  0  0  0  0  0  0  0  0
    7.4864   -3.0979    0.7723 H   0  0  0  0  0  0  0  0  0  0  0  0
    5.8307   -3.9466   -0.9111 H   0  0  0  0  0  0  0  0  0  0  0  0
    3.6726   -2.7451   -1.2654 H   0  0  0  0  0  0  0  0  0  0  0  0
   -4.1990   -2.7072    1.1515 H   0  0  0  0  0  0  0  0  0  0  0  0
   -6.5600   -3.4787    0.8282 H   0  0  0  0  0  0  0  0  0  0  0  0
   -8.0684   -2.2669   -0.7713 H   0  0  0  0  0  0  0  0  0  0  0  0
   -7.1852   -0.3020   -2.0605 H   0  0  0  0  0  0  0  0  0  0  0  0
   -4.8330    0.4541   -1.7390 H   0  0  0  0  0  0  0  0  0  0  0  0
   -4.8669    0.7268    1.5759 H   0  0  0  0  0  0  0  0  0  0  0  0
   -6.3843    2.6610    1.9785 H   0  0  0  0  0  0  0  0  0  0  0  0
   -5.9132    4.8798    0.9071 H   0  0  0  0  0  0  0  0  0  0  0  0
   -3.8753    5.1619   -0.5299 H   0  0  0  0  0  0  0  0  0  0  0  0
   -2.3241    3.2196   -0.8927 H   0  0  0  0  0  0  0  0  0  0  0  0
  2  1  1  0  0  0  0
  2  3  2  0  0  0  0
  3 20  1  0  0  0  0
  4  3  1  0  0  0  0
  4  5  1  0  0  0  0
  5  6  1  0  0  0  0
  6 12  1  0  0  0  0
  7  6  1  0  0  0  0
  8  7  1  0  0  0  0
  9  8  1  0  0  0  0
  9 10  2  0  0  0  0
 10 32  1  0  0  0  0
 11 10  1  0  0  0  0
 12 38  1  0  0  0  0
 12 40  1  0  0  0  0
 12 39  1  0  0  0  0
 13 41  1  0  0  0  0
 13  6  1  0  0  0  0
 14  2  1  0  0  0  0
 14 15  1  0  0  0  0
 15 44  1  0  0  0  0
 16 15  2  0  0  0  0
 16 45  1  0  0  0  0
 17 16  1  0  0  0  0
 18 19  1  0  0  0  0
 18 17  2  0  0  0  0
 19 14  2  0  0  0  0
 20 21  1  0  0  0  0
 21 22  2  0  0  0  0
 21 49  1  0  0  0  0
 22 50  1  0  0  0  0
 23 51  1  0  0  0  0
 23 22  1  0  0  0  0
 24 23  2  0  0  0  0
 25 24  1  0  0  0  0
 25 20  2  0  0  0  0
 26  9  1  0  0  0  0
 26 27  1  0  0  0  0
 27 54  1  0  0  0  0
 28 27  2  0  0  0  0
 28 55  1  0  0  0  0
 29 28  1  0  0  0  0
 30 31  1  0  0  0  0
 30 29  2  0  0  0  0
 31 26  2  0  0  0  0
 32 33  1  0  0  0  0
 33 34  2  0  0  0  0
 33 59  1  0  0  0  0
 34 60  1  0  0  0  0
 35 61  1  0  0  0  0
 35 34  1  0  0  0  0
 36 35  2  0  0  0  0
 37 36  1  0  0  0  0
 37 32  2  0  0  0  0
 42 13  1  0  0  0  0
 43 13  1  0  0  0  0
 46 17  1  0  0  0  0
 47 18  1  0  0  0  0
 48 19  1  0  0  0  0
 52 24  1  0  0  0  0
 53 25  1  0  0  0  0
 56 29  1  0  0  0  0
 57 30  1  0  0  0  0
 58 31  1  0  0  0  0
 62 36  1  0  0  0  0
 63 37  1  0  0  0  0
M  CHG  2   1  -1  11  -1
M  END
