3,4,5,6
 OpenBabel05122313063D

 76 81  0  0  0  0  0  0  0  0999 V2000
   -2.8730    0.2947   -0.0576 P   0  0  0  0  0  4  0  0  0  0  0  0
    2.8731    0.2946    0.0576 P   0  0  0  0  0  4  0  0  0  0  0  0
   -1.3077   -2.4065    0.3085 O   0  5  0  0  0  0  0  0  0  0  0  0
    1.3074   -2.4068   -0.3073 O   0  5  0  0  0  0  0  0  0  0  0  0
   -1.3060    0.6550    0.3303 N   0  0  0  0  0  2  0  0  0  0  0  0
    1.3061    0.6546   -0.3305 N   0  0  0  0  0  2  0  0  0  0  0  0
   -0.7322    1.8987   -0.2037 C   0  0  0  0  0  0  0  0  0  0  0  0
   -1.2557    2.7940    0.2035 H   0  0  0  0  0  0  0  0  0  0  0  0
   -0.7862    1.9506   -1.3186 H   0  0  0  0  0  0  0  0  0  0  0  0
    0.7325    1.8987    0.2030 C   0  0  0  0  0  0  0  0  0  0  0  0
    1.2562    2.7937   -0.2046 H   0  0  0  0  0  0  0  0  0  0  0  0
    0.7866    1.9509    1.3179 H   0  0  0  0  0  0  0  0  0  0  0  0
   -3.3874   -1.2104    0.7558 C   0  0  0  0  0  0  0  0  0  0  0  0
   -2.5100   -2.3553    0.7963 C   0  0  0  0  0  0  0  0  0  0  0  0
   -3.0521   -3.5436    1.3925 C   0  0  0  0  0  0  0  0  0  0  0  0
   -2.3873   -4.4189    1.4282 H   0  0  0  0  0  0  0  0  0  0  0  0
   -4.3456   -3.5900    1.8975 C   0  0  0  0  0  0  0  0  0  0  0  0
   -4.7139   -4.5261    2.3470 H   0  0  0  0  0  0  0  0  0  0  0  0
   -5.1889   -2.4559    1.8518 C   0  0  0  0  0  0  0  0  0  0  0  0
   -6.2074   -2.4931    2.2637 H   0  0  0  0  0  0  0  0  0  0  0  0
   -4.7030   -1.2809    1.2814 C   0  0  0  0  0  0  0  0  0  0  0  0
   -5.3478   -0.3898    1.2431 H   0  0  0  0  0  0  0  0  0  0  0  0
   -3.9425    1.6523    0.5350 C   0  0  0  0  0  0  0  0  0  0  0  0
   -3.5722    2.2876    1.7385 C   0  0  0  0  0  0  0  0  0  0  0  0
   -2.6463    1.9728    2.2448 H   0  0  0  0  0  0  0  0  0  0  0  0
   -4.3830    3.2983    2.2729 C   0  0  0  0  0  0  0  0  0  0  0  0
   -4.0909    3.7954    3.2104 H   0  0  0  0  0  0  0  0  0  0  0  0
   -5.5685    3.6711    1.6174 C   0  0  0  0  0  0  0  0  0  0  0  0
   -6.2053    4.4628    2.0405 H   0  0  0  0  0  0  0  0  0  0  0  0
   -5.9448    3.0311    0.4258 C   0  0  0  0  0  0  0  0  0  0  0  0
   -6.8769    3.3173   -0.0844 H   0  0  0  0  0  0  0  0  0  0  0  0
   -5.1347    2.0223   -0.1182 C   0  0  0  0  0  0  0  0  0  0  0  0
   -5.4310    1.5182   -1.0502 H   0  0  0  0  0  0  0  0  0  0  0  0
   -3.1364    0.1668   -1.8627 C   0  0  0  0  0  0  0  0  0  0  0  0
   -3.1558    1.3240   -2.6730 C   0  0  0  0  0  0  0  0  0  0  0  0
   -3.1515    2.3233   -2.2115 H   0  0  0  0  0  0  0  0  0  0  0  0
   -3.1971    1.2019   -4.0699 C   0  0  0  0  0  0  0  0  0  0  0  0
   -3.2181    2.1061   -4.6971 H   0  0  0  0  0  0  0  0  0  0  0  0
   -3.2110   -0.0697   -4.6651 C   0  0  0  0  0  0  0  0  0  0  0  0
   -3.2418   -0.1632   -5.7613 H   0  0  0  0  0  0  0  0  0  0  0  0
   -3.1838   -1.2219   -3.8621 C   0  0  0  0  0  0  0  0  0  0  0  0
   -3.1910   -2.2194   -4.3264 H   0  0  0  0  0  0  0  0  0  0  0  0
   -3.1446   -1.1085   -2.4657 C   0  0  0  0  0  0  0  0  0  0  0  0
   -3.1115   -2.0097   -1.8358 H   0  0  0  0  0  0  0  0  0  0  0  0
    3.3874   -1.2112   -0.7547 C   0  0  0  0  0  0  0  0  0  0  0  0
    2.5098   -2.3559   -0.7949 C   0  0  0  0  0  0  0  0  0  0  0  0
    3.0518   -3.5445   -1.3906 C   0  0  0  0  0  0  0  0  0  0  0  0
    2.3867   -4.4197   -1.4262 H   0  0  0  0  0  0  0  0  0  0  0  0
    4.3454   -3.5915   -1.8952 C   0  0  0  0  0  0  0  0  0  0  0  0
    4.7136   -4.5278   -2.3443 H   0  0  0  0  0  0  0  0  0  0  0  0
    5.1890   -2.4576   -1.8496 C   0  0  0  0  0  0  0  0  0  0  0  0
    6.2076   -2.4952   -2.2611 H   0  0  0  0  0  0  0  0  0  0  0  0
    4.7032   -1.2822   -1.2799 C   0  0  0  0  0  0  0  0  0  0  0  0
    5.3482   -0.3913   -1.2418 H   0  0  0  0  0  0  0  0  0  0  0  0
    3.9426    1.6517   -0.5363 C   0  0  0  0  0  0  0  0  0  0  0  0
    5.1351    2.0218    0.1163 C   0  0  0  0  0  0  0  0  0  0  0  0
    5.4317    1.5183    1.0484 H   0  0  0  0  0  0  0  0  0  0  0  0
    5.9452    3.0302   -0.4287 C   0  0  0  0  0  0  0  0  0  0  0  0
    6.8776    3.3164    0.0810 H   0  0  0  0  0  0  0  0  0  0  0  0
    5.5685    3.6696   -1.6204 C   0  0  0  0  0  0  0  0  0  0  0  0
    6.2054    4.4609   -2.0443 H   0  0  0  0  0  0  0  0  0  0  0  0
    4.3827    3.2967   -2.2753 C   0  0  0  0  0  0  0  0  0  0  0  0
    4.0903    3.7933   -3.2129 H   0  0  0  0  0  0  0  0  0  0  0  0
    3.5719    2.2864   -1.7400 C   0  0  0  0  0  0  0  0  0  0  0  0
    2.6458    1.9715   -2.2457 H   0  0  0  0  0  0  0  0  0  0  0  0
    3.1366    0.1682    1.8628 C   0  0  0  0  0  0  0  0  0  0  0  0
    3.1566    1.3261    2.6721 C   0  0  0  0  0  0  0  0  0  0  0  0
    3.1529    2.3251    2.2097 H   0  0  0  0  0  0  0  0  0  0  0  0
    3.1978    1.2052    4.0691 C   0  0  0  0  0  0  0  0  0  0  0  0
    3.2193    2.1099    4.6955 H   0  0  0  0  0  0  0  0  0  0  0  0
    3.2109   -0.0658    4.6653 C   0  0  0  0  0  0  0  0  0  0  0  0
    3.2416   -0.1584    5.7616 H   0  0  0  0  0  0  0  0  0  0  0  0
    3.1831   -1.2187    3.8633 C   0  0  0  0  0  0  0  0  0  0  0  0
    3.1896   -2.2159    4.3285 H   0  0  0  0  0  0  0  0  0  0  0  0
    3.1440   -1.1065    2.4668 C   0  0  0  0  0  0  0  0  0  0  0  0
    3.1103   -2.0083    1.8377 H   0  0  0  0  0  0  0  0  0  0  0  0
  1  5  1  0  0  0  0
  1 23  1  0  0  0  0
  1 13  1  0  0  0  0
  2 66  1  0  0  0  0
  3 14  1  0  0  0  0
  6  2  1  0  0  0  0
  6 10  1  0  0  0  0
  7 10  1  0  0  0  0
  7  8  1  0  0  0  0
  7  5  1  0  0  0  0
  9  7  1  0  0  0  0
 10 12  1  0  0  0  0
 11 10  1  0  0  0  0
 13 14  2  0  0  0  0
 13 21  1  0  0  0  0
 14 15  1  0  0  0  0
 15 16  1  0  0  0  0
 15 17  2  0  0  0  0
 17 18  1  0  0  0  0
 19 17  1  0  0  0  0
 19 20  1  0  0  0  0
 21 19  2  0  0  0  0
 22 21  1  0  0  0  0
 23 24  1  0  0  0  0
 24 25  1  0  0  0  0
 24 26  2  0  0  0  0
 26 27  1  0  0  0  0
 28 29  1  0  0  0  0
 28 26  1  0  0  0  0
 30 28  2  0  0  0  0
 31 30  1  0  0  0  0
 32 30  1  0  0  0  0
 32 23  2  0  0  0  0
 33 32  1  0  0  0  0
 34  1  1  0  0  0  0
 35 36  1  0  0  0  0
 35 34  2  0  0  0  0
 37 35  1  0  0  0  0
 38 37  1  0  0  0  0
 39 37  2  0  0  0  0
 39 41  1  0  0  0  0
 40 39  1  0  0  0  0
 41 43  2  0  0  0  0
 42 41  1  0  0  0  0
 43 34  1  0  0  0  0
 43 44  1  0  0  0  0
 45  2  1  0  0  0  0
 46 45  1  0  0  0  0
 46  4  1  0  0  0  0
 47 46  2  0  0  0  0
 48 47  1  0  0  0  0
 49 51  2  0  0  0  0
 49 47  1  0  0  0  0
 50 49  1  0  0  0  0
 51 53  1  0  0  0  0
 52 51  1  0  0  0  0
 53 54  1  0  0  0  0
 53 45  2  0  0  0  0
 55  2  1  0  0  0  0
 55 56  1  0  0  0  0
 56 57  1  0  0  0  0
 58 59  1  0  0  0  0
 58 56  2  0  0  0  0
 60 58  1  0  0  0  0
 61 60  1  0  0  0  0
 62 64  1  0  0  0  0
 62 60  2  0  0  0  0
 63 62  1  0  0  0  0
 64 55  2  0  0  0  0
 65 64  1  0  0  0  0
 66 75  2  0  0  0  0
 66 67  1  0  0  0  0
 67 69  2  0  0  0  0
 68 67  1  0  0  0  0
 69 71  1  0  0  0  0
 69 70  1  0  0  0  0
 71 72  1  0  0  0  0
 73 74  1  0  0  0  0
 73 71  2  0  0  0  0
 75 73  1  0  0  0  0
 76 75  1  0  0  0  0
M  CHG  2   3  -1   4  -1
M  END
