1,18,28,44
 OpenBabel05122313063D

 44 45  0  0  0  0  0  0  0  0999 V2000
   -1.3647    0.6586    0.0839 O   0  5  0  0  0  0  0  0  0  0  0  0
   -2.5767    0.2304   -0.0562 C   0  0  0  0  0  0  0  0  0  0  0  0
   -3.6613    1.1781    0.1235 C   0  0  0  0  0  0  0  0  0  0  0  0
   -3.2536    2.4342    0.4407 O   0  0  0  0  0  0  0  0  0  0  0  0
   -4.2428    3.4197    0.6357 C   0  0  0  0  0  0  0  0  0  0  0  0
   -4.8591    3.5797   -0.2792 H   0  0  0  0  0  0  0  0  0  0  0  0
   -3.7096    4.3578    0.8785 H   0  0  0  0  0  0  0  0  0  0  0  0
   -4.9269    3.1640    1.4778 H   0  0  0  0  0  0  0  0  0  0  0  0
   -4.9874    0.7731   -0.0216 C   0  0  0  0  0  0  0  0  0  0  0  0
   -5.8003    1.4976    0.1249 H   0  0  0  0  0  0  0  0  0  0  0  0
   -5.3127   -0.5686   -0.3630 C   0  0  0  0  0  0  0  0  0  0  0  0
   -6.3683   -0.8553   -0.4756 H   0  0  0  0  0  0  0  0  0  0  0  0
   -4.3052   -1.4959   -0.5547 C   0  0  0  0  0  3  0  0  0  0  0  0
   -4.5409   -2.5367   -0.8267 H   0  0  0  0  0  0  0  0  0  0  0  0
   -2.9345   -1.1194   -0.4003 C   0  0  0  0  0  0  0  0  0  0  0  0
   -1.9084   -2.0764   -0.6491 C   0  0  0  0  0  0  0  0  0  0  0  0
   -2.2364   -3.0572   -1.0500 H   0  0  0  0  0  0  0  0  0  0  0  0
   -0.6128   -1.9048   -0.4810 N   0  0  0  0  0  2  0  0  0  0  0  0
    0.2785   -2.9831   -0.9061 C   0  0  0  0  0  0  0  0  0  0  0  0
    0.9826   -2.5649   -1.6556 H   0  0  0  0  0  0  0  0  0  0  0  0
   -0.2992   -3.7847   -1.4142 H   0  0  0  0  0  0  0  0  0  0  0  0
    1.0801   -3.5653    0.2657 C   0  0  0  0  0  0  0  0  0  0  0  0
    0.4758   -4.3129    0.8199 H   0  0  0  0  0  0  0  0  0  0  0  0
    1.9646   -4.0973   -0.1435 H   0  0  0  0  0  0  0  0  0  0  0  0
    1.5120   -2.4616    1.2394 C   0  0  0  0  0  0  0  0  0  0  0  0
    0.6798   -2.2448    1.9384 H   0  0  0  0  0  0  0  0  0  0  0  0
    2.3616   -2.7965    1.8663 H   0  0  0  0  0  0  0  0  0  0  0  0
    1.8035   -1.2066    0.5404 N   0  0  0  0  0  2  0  0  0  0  0  0
    3.0361   -0.7752    0.3319 C   0  0  0  0  0  0  0  0  0  0  0  0
    4.2324   -1.6592    0.6064 C   0  0  0  0  0  0  0  0  0  0  0  0
    4.8379   -1.2623    1.4467 H   0  0  0  0  0  0  0  0  0  0  0  0
    4.8935   -1.6725   -0.2820 H   0  0  0  0  0  0  0  0  0  0  0  0
    3.9625   -2.7056    0.8258 H   0  0  0  0  0  0  0  0  0  0  0  0
    3.2870    0.5842   -0.1096 C   0  0  0  0  0  0  0  0  0  0  0  0
    4.5850    1.0054   -0.5197 C   0  0  0  0  0  3  0  0  0  0  0  0
    5.3791    0.2556   -0.6457 H   0  0  0  0  0  0  0  0  0  0  0  0
    4.8833    2.3383   -0.7743 C   0  0  0  0  0  0  0  0  0  0  0  0
    5.8905    2.6286   -1.1059 H   0  0  0  0  0  0  0  0  0  0  0  0
    3.8745    3.3160   -0.5924 C   0  0  0  0  0  0  0  0  0  0  0  0
    4.1006    4.3777   -0.7796 H   0  0  0  0  0  0  0  0  0  0  0  0
    2.5980    2.9514   -0.1905 C   0  0  0  0  0  0  0  0  0  0  0  0
    1.7975    3.6923   -0.0531 H   0  0  0  0  0  0  0  0  0  0  0  0
    2.2422    1.5802    0.0283 C   0  0  0  0  0  0  0  0  0  0  0  0
    1.0155    1.3255    0.3658 O   0  5  0  0  0  0  0  0  0  0  0  0
  2  1  1  0  0  0  0
  2  3  2  0  0  0  0
  3  4  1  0  0  0  0
  4  5  1  0  0  0  0
  5  7  1  0  0  0  0
  5  8  1  0  0  0  0
  6  5  1  0  0  0  0
  9  3  1  0  0  0  0
  9 10  1  0  0  0  0
 11  9  2  0  0  0  0
 12 11  1  0  0  0  0
 13 15  1  0  0  0  0
 13 11  1  0  0  0  0
 14 13  1  0  0  0  0
 15  2  1  0  0  0  0
 16 18  1  0  0  0  0
 16 15  2  0  0  0  0
 17 16  1  0  0  0  0
 19 18  1  0  0  0  0
 19 22  1  0  0  0  0
 20 19  1  0  0  0  0
 21 19  1  0  0  0  0
 22 23  1  0  0  0  0
 22 25  1  0  0  0  0
 24 22  1  0  0  0  0
 25 27  1  0  0  0  0
 25 26  1  0  0  0  0
 28 25  1  0  0  0  0
 29 28  1  0  0  0  0
 29 30  1  0  0  0  0
 30 33  1  0  0  0  0
 30 31  1  0  0  0  0
 32 30  1  0  0  0  0
 34 43  1  0  0  0  0
 34 29  2  0  0  0  0
 35 34  1  0  0  0  0
 36 35  1  0  0  0  0
 37 39  2  0  0  0  0
 37 35  1  0  0  0  0
 38 37  1  0  0  0  0
 39 41  1  0  0  0  0
 40 39  1  0  0  0  0
 41 42  1  0  0  0  0
 41 43  2  0  0  0  0
 43 44  1  0  0  0  0
M  CHG  2   1  -1  44  -1
M  END
