1,2,3,4
 OpenBabel05122313063D

 44 46  0  0  1  0  0  0  0  0999 V2000
   -1.3878   -1.9753   -0.0752 O   0  0  0  0  0  1  0  0  0  0  0  0
    1.3877   -1.9753    0.0768 O   0  5  0  0  0  0  0  0  0  0  0  0
   -1.3185    0.9442   -0.1440 N   0  0  0  0  0  2  0  0  0  0  0  0
    1.3186    0.9442    0.1442 N   0  0  0  0  0  2  0  0  0  0  0  0
   -2.6688   -1.7673   -0.0163 C   0  0  2  0  0  3  0  0  0  0  0  0
   -3.5205   -2.9194    0.0580 C   0  0  0  0  0  0  0  0  0  0  0  0
   -3.0208   -3.8986    0.0677 H   0  0  0  0  0  0  0  0  0  0  0  0
   -4.9016   -2.8077    0.1156 C   0  0  0  0  0  0  0  0  0  0  0  0
   -5.5135   -3.7219    0.1730 H   0  0  0  0  0  0  0  0  0  0  0  0
   -5.5361   -1.5385    0.1004 C   0  0  0  0  0  0  0  0  0  0  0  0
   -6.6316   -1.4597    0.1446 H   0  0  0  0  0  0  0  0  0  0  0  0
   -4.7471   -0.4016    0.0252 C   0  0  0  0  0  0  0  0  0  0  0  0
   -5.2185    0.5948    0.0069 H   0  0  0  0  0  0  0  0  0  0  0  0
   -3.3212   -0.4681   -0.0313 C   0  0  0  0  0  0  0  0  0  0  0  0
   -2.6169    0.7762   -0.1323 C   0  0  0  0  0  0  0  0  0  0  0  0
   -3.2531    1.6772   -0.2184 H   0  0  0  0  0  0  0  0  0  0  0  0
   -0.6652    2.2418   -0.3908 C   0  0  1  0  0  0  0  0  0  0  0  0
   -0.3944    2.2583   -1.4736 H   0  0  0  0  0  0  0  0  0  0  0  0
   -1.4876    3.4954   -0.0799 C   0  0  0  0  0  0  0  0  0  0  0  0
   -1.7938    3.4743    0.9892 H   0  0  0  0  0  0  0  0  0  0  0  0
   -2.4183    3.5077   -0.6826 H   0  0  0  0  0  0  0  0  0  0  0  0
   -0.6677    4.7598   -0.3750 C   0  0  0  0  0  0  0  0  0  0  0  0
   -0.4743    4.8196   -1.4689 H   0  0  0  0  0  0  0  0  0  0  0  0
   -1.2593    5.6608   -0.1138 H   0  0  0  0  0  0  0  0  0  0  0  0
    0.6681    4.7597    0.3752 C   0  0  0  0  0  0  0  0  0  0  0  0
    0.4747    4.8195    1.4691 H   0  0  0  0  0  0  0  0  0  0  0  0
    1.2597    5.6608    0.1140 H   0  0  0  0  0  0  0  0  0  0  0  0
    1.4879    3.4953    0.0800 C   0  0  0  0  0  0  0  0  0  0  0  0
    1.7941    3.4743   -0.9891 H   0  0  0  0  0  0  0  0  0  0  0  0
    2.4185    3.5075    0.6827 H   0  0  0  0  0  0  0  0  0  0  0  0
    0.6654    2.2418    0.3907 C   0  0  2  0  0  0  0  0  0  0  0  0
    0.3945    2.2584    1.4736 H   0  0  0  0  0  0  0  0  0  0  0  0
    2.6169    0.7761    0.1316 C   0  0  0  0  0  0  0  0  0  0  0  0
    3.2532    1.6771    0.2169 H   0  0  0  0  0  0  0  0  0  0  0  0
    3.3212   -0.4683    0.0307 C   0  0  0  0  0  0  0  0  0  0  0  0
    4.7470   -0.4018   -0.0269 C   0  0  0  0  0  3  0  0  0  0  0  0
    5.2185    0.5946   -0.0093 H   0  0  0  0  0  0  0  0  0  0  0  0
    5.5359   -1.5387   -0.1022 C   0  0  0  0  0  0  0  0  0  0  0  0
    6.6314   -1.4601   -0.1473 H   0  0  0  0  0  0  0  0  0  0  0  0
    4.9014   -2.8079   -0.1164 C   0  0  0  0  0  0  0  0  0  0  0  0
    5.5132   -3.7222   -0.1740 H   0  0  0  0  0  0  0  0  0  0  0  0
    3.5203   -2.9195   -0.0577 C   0  0  0  0  0  0  0  0  0  0  0  0
    3.0206   -3.8988   -0.0667 H   0  0  0  0  0  0  0  0  0  0  0  0
    2.6687   -1.7675    0.0167 C   0  0  0  0  0  0  0  0  0  0  0  0
  3 15  1  0  0  0  0
  4 31  1  0  0  0  0
  5  1  1  6  0  0  0
  5  6  1  0  0  0  0
  6  7  1  0  0  0  0
  6  8  2  0  0  0  0
  8  9  1  0  0  0  0
 10  8  1  0  0  0  0
 10 11  1  0  0  0  0
 12 10  2  0  0  0  0
 13 12  1  0  0  0  0
 14  5  1  0  0  0  0
 14 12  1  0  0  0  0
 15 14  2  0  0  0  0
 16 15  1  0  0  0  0
 17 18  1  6  0  0  0
 17  3  1  0  0  0  0
 17 19  1  0  0  0  0
 17 31  1  0  0  0  0
 19 20  1  0  0  0  0
 21 19  1  0  0  0  0
 22 24  1  0  0  0  0
 22 19  1  0  0  0  0
 22 25  1  0  0  0  0
 23 22  1  0  0  0  0
 25 26  1  0  0  0  0
 27 25  1  0  0  0  0
 28 25  1  0  0  0  0
 28 31  1  0  0  0  0
 28 30  1  0  0  0  0
 29 28  1  0  0  0  0
 31 32  1  1  0  0  0
 33  4  1  0  0  0  0
 33 34  1  0  0  0  0
 35 33  2  0  0  0  0
 36 37  1  0  0  0  0
 36 35  1  0  0  0  0
 38 36  1  0  0  0  0
 39 38  1  0  0  0  0
 40 38  2  0  0  0  0
 40 42  1  0  0  0  0
 41 40  1  0  0  0  0
 42 44  2  0  0  0  0
 43 42  1  0  0  0  0
 44 35  1  0  0  0  0
 44  2  1  0  0  0  0
M  CHG  1   2  -1
M  END
