1,2,3,4
 OpenBabel05122313063D

 74 75  0  0  0  0  0  0  0  0999 V2000
   -0.1924   -0.1910   -2.1323 O   0  5  0  0  0  0  0  0  0  0  0  0
    2.1451   -0.5804    1.2064 O   0  5  0  0  0  0  0  0  0  0  0  0
    0.2930   -2.3235   -0.0279 N   0  0  0  0  0  0  0  0  0  0  0  0
    1.7093    1.5485   -0.9195 N   0  0  0  0  0  0  0  0  0  0  0  0
   -1.4470   -0.6278   -2.0587 C   0  0  0  0  0  0  0  0  0  0  0  0
   -1.7613   -1.9060   -1.5025 C   0  0  0  0  0  0  0  0  0  0  0  0
   -3.0991   -2.3279   -1.4202 C   0  0  0  0  0  0  0  0  0  0  0  0
   -4.1468   -1.5191   -1.8867 C   0  0  0  0  0  0  0  0  0  0  0  0
   -3.8391   -0.2765   -2.4701 C   0  0  0  0  0  0  0  0  0  0  0  0
   -2.5134    0.1638   -2.5594 C   0  0  0  0  0  0  0  0  0  0  0  0
   -0.6208   -2.8045   -1.1287 C   0  0  0  0  0  0  0  0  0  0  0  0
    1.4715   -3.2320    0.0050 C   0  0  0  0  0  0  0  0  0  0  0  0
   -0.3692   -2.3742    1.3210 C   0  0  0  0  0  0  0  0  0  0  0  0
   -1.3807   -1.2670    1.5997 C   0  0  0  0  0  0  0  0  0  0  0  0
   -2.2673   -1.5581    2.8162 C   0  0  0  0  0  0  0  0  0  0  0  0
   -3.3108   -0.4557    3.0522 C   0  0  0  0  0  0  0  0  0  0  0  0
   -4.4087   -0.4043    1.9795 C   0  0  0  0  0  0  0  0  0  0  0  0
   -5.2713    0.8671    1.9925 C   0  0  0  0  0  0  0  0  0  0  0  0
   -4.4910    2.1829    1.8272 C   0  0  0  0  0  0  0  0  0  0  0  0
   -3.5326    2.2067    0.6335 C   0  0  0  0  0  0  0  0  0  0  0  0
   -2.7849    3.5342    0.4662 C   0  0  0  0  0  0  0  0  0  0  0  0
   -1.6582    3.4870   -0.5764 C   0  0  0  0  0  0  0  0  0  0  0  0
   -0.4618    2.6353   -0.1333 C   0  0  0  0  0  0  0  0  0  0  0  0
    0.5896    2.4983   -1.2279 C   0  0  0  0  0  0  0  0  0  0  0  0
    3.3861   -0.0989    1.1681 C   0  0  0  0  0  0  0  0  0  0  0  0
    3.6739    1.1962    0.6380 C   0  0  0  0  0  0  0  0  0  0  0  0
    5.0011    1.6574    0.5984 C   0  0  0  0  0  0  0  0  0  0  0  0
    6.0575    0.8832    1.1009 C   0  0  0  0  0  0  0  0  0  0  0  0
    5.7719   -0.3745    1.6620 C   0  0  0  0  0  0  0  0  0  0  0  0
    4.4607   -0.8618    1.6952 C   0  0  0  0  0  0  0  0  0  0  0  0
    2.5243    2.0696    0.2338 C   0  0  0  0  0  0  0  0  0  0  0  0
    2.5623    1.4161   -2.1278 C   0  0  0  0  0  0  0  0  0  0  0  0
   -3.3192   -3.3158   -0.9828 H   0  0  0  0  0  0  0  0  0  0  0  0
   -5.1896   -1.8589   -1.8083 H   0  0  0  0  0  0  0  0  0  0  0  0
   -4.6482    0.3643   -2.8548 H   0  0  0  0  0  0  0  0  0  0  0  0
   -2.2683    1.1352   -3.0142 H   0  0  0  0  0  0  0  0  0  0  0  0
    0.0410   -2.9244   -2.0116 H   0  0  0  0  0  0  0  0  0  0  0  0
   -0.9976   -3.8106   -0.8414 H   0  0  0  0  0  0  0  0  0  0  0  0
    1.1481   -4.2661    0.2565 H   0  0  0  0  0  0  0  0  0  0  0  0
    2.1808   -2.8551    0.7620 H   0  0  0  0  0  0  0  0  0  0  0  0
    1.9607   -3.2279   -0.9857 H   0  0  0  0  0  0  0  0  0  0  0  0
   -0.8496   -3.3762    1.4114 H   0  0  0  0  0  0  0  0  0  0  0  0
    0.4496   -2.3241    2.0647 H   0  0  0  0  0  0  0  0  0  0  0  0
   -2.0185   -1.1190    0.7097 H   0  0  0  0  0  0  0  0  0  0  0  0
   -0.8307   -0.3150    1.7518 H   0  0  0  0  0  0  0  0  0  0  0  0
   -1.6336   -1.6762    3.7224 H   0  0  0  0  0  0  0  0  0  0  0  0
   -2.7854   -2.5342    2.6744 H   0  0  0  0  0  0  0  0  0  0  0  0
   -3.7792   -0.5849    4.0520 H   0  0  0  0  0  0  0  0  0  0  0  0
   -2.7774    0.5191    3.0961 H   0  0  0  0  0  0  0  0  0  0  0  0
   -5.0676   -1.2925    2.0951 H   0  0  0  0  0  0  0  0  0  0  0  0
   -3.9560   -0.5136    0.9711 H   0  0  0  0  0  0  0  0  0  0  0  0
   -6.0196    0.7855    1.1737 H   0  0  0  0  0  0  0  0  0  0  0  0
   -5.8577    0.9150    2.9367 H   0  0  0  0  0  0  0  0  0  0  0  0
   -3.9105    2.3950    2.7531 H   0  0  0  0  0  0  0  0  0  0  0  0
   -5.2154    3.0227    1.7405 H   0  0  0  0  0  0  0  0  0  0  0  0
   -2.7932    1.3862    0.7446 H   0  0  0  0  0  0  0  0  0  0  0  0
   -4.0839    1.9679   -0.3031 H   0  0  0  0  0  0  0  0  0  0  0  0
   -2.3561    3.8402    1.4479 H   0  0  0  0  0  0  0  0  0  0  0  0
   -3.5089    4.3329    0.1944 H   0  0  0  0  0  0  0  0  0  0  0  0
   -2.0612    3.0850   -1.5321 H   0  0  0  0  0  0  0  0  0  0  0  0
   -1.3121    4.5204   -0.7988 H   0  0  0  0  0  0  0  0  0  0  0  0
   -0.0292    3.0797    0.7885 H   0  0  0  0  0  0  0  0  0  0  0  0
   -0.7960    1.6114    0.1373 H   0  0  0  0  0  0  0  0  0  0  0  0
    0.1081    2.0999   -2.1407 H   0  0  0  0  0  0  0  0  0  0  0  0
    1.0451    3.4858   -1.4727 H   0  0  0  0  0  0  0  0  0  0  0  0
    5.2028    2.6580    0.1808 H   0  0  0  0  0  0  0  0  0  0  0  0
    7.0900    1.2597    1.0647 H   0  0  0  0  0  0  0  0  0  0  0  0
    6.5877   -0.9905    2.0722 H   0  0  0  0  0  0  0  0  0  0  0  0
    4.2320   -1.8468    2.1297 H   0  0  0  0  0  0  0  0  0  0  0  0
    2.8897    3.0846   -0.0390 H   0  0  0  0  0  0  0  0  0  0  0  0
    1.8199    2.1712    1.0826 H   0  0  0  0  0  0  0  0  0  0  0  0
    2.9553    2.4122   -2.4312 H   0  0  0  0  0  0  0  0  0  0  0  0
    1.9512    0.9889   -2.9431 H   0  0  0  0  0  0  0  0  0  0  0  0
    3.4104    0.7456   -1.9003 H   0  0  0  0  0  0  0  0  0  0  0  0
  1  5  1  0  0  0  0
  3 12  1  0  0  0  0
  3 13  1  0  0  0  0
  4 31  1  0  0  0  0
  5  6  1  0  0  0  0
  6  7  2  0  0  0  0
  6 11  1  0  0  0  0
  7 33  1  0  0  0  0
  8 34  1  0  0  0  0
  8  7  1  0  0  0  0
  9  8  2  0  0  0  0
 10  9  1  0  0  0  0
 10  5  2  0  0  0  0
 11 38  1  0  0  0  0
 11  3  1  0  0  0  0
 12 39  1  0  0  0  0
 12 40  1  0  0  0  0
 13 42  1  0  0  0  0
 13 14  1  0  0  0  0
 13 43  1  0  0  0  0
 14 45  1  0  0  0  0
 14 15  1  0  0  0  0
 15 16  1  0  0  0  0
 15 46  1  0  0  0  0
 16 49  1  0  0  0  0
 16 48  1  0  0  0  0
 17 18  1  0  0  0  0
 17 50  1  0  0  0  0
 17 16  1  0  0  0  0
 18 53  1  0  0  0  0
 19 18  1  0  0  0  0
 19 54  1  0  0  0  0
 20 56  1  0  0  0  0
 20 19  1  0  0  0  0
 21 20  1  0  0  0  0
 21 58  1  0  0  0  0
 22 23  1  0  0  0  0
 22 21  1  0  0  0  0
 23 63  1  0  0  0  0
 23 62  1  0  0  0  0
 24  4  1  0  0  0  0
 24 23  1  0  0  0  0
 25  2  1  0  0  0  0
 25 30  1  0  0  0  0
 26 25  2  0  0  0  0
 27 26  1  0  0  0  0
 27 28  2  0  0  0  0
 28 29  1  0  0  0  0
 29 30  2  0  0  0  0
 29 68  1  0  0  0  0
 30 69  1  0  0  0  0
 31 26  1  0  0  0  0
 31 71  1  0  0  0  0
 32 74  1  0  0  0  0
 32  4  1  0  0  0  0
 35  9  1  0  0  0  0
 36 10  1  0  0  0  0
 37 11  1  0  0  0  0
 41 12  1  0  0  0  0
 44 14  1  0  0  0  0
 47 15  1  0  0  0  0
 51 17  1  0  0  0  0
 52 18  1  0  0  0  0
 55 19  1  0  0  0  0
 57 20  1  0  0  0  0
 59 21  1  0  0  0  0
 60 22  1  0  0  0  0
 61 22  1  0  0  0  0
 64 24  1  0  0  0  0
 65 24  1  0  0  0  0
 66 27  1  0  0  0  0
 67 28  1  0  0  0  0
 70 31  1  0  0  0  0
 72 32  1  0  0  0  0
 73 32  1  0  0  0  0
M  CHG  2   1  -1   2  -1
M  END
