1,3,4
 OpenBabel05122313063D

 54 56  0  0  0  0  0  0  0  0999 V2000
   -0.9725   -0.2829    1.7522 N   0  0  0  0  0  0  0  0  0  0  0  0
    1.3252   -1.0990    1.5783 N   0  0  0  0  0  0  0  0  0  0  0  0
   -0.2761    1.2385   -0.2978 O   0  5  0  0  0  0  0  0  0  0  0  0
    1.6387   -0.6123   -1.1980 O   0  5  0  0  0  0  0  0  0  0  0  0
   -1.3742    1.9750   -0.0810 C   0  0  0  0  0  0  0  0  0  0  0  0
   -1.4912    3.2244   -0.7555 C   0  0  0  0  0  0  0  0  0  0  0  0
   -2.6201    4.0191   -0.5214 C   0  0  0  0  0  0  0  0  0  0  0  0
   -2.7052    4.9824   -1.0516 H   0  0  0  0  0  0  0  0  0  0  0  0
   -3.6445    3.6302    0.3684 C   0  0  0  0  0  0  0  0  0  0  0  0
   -3.5004    2.4020    1.0330 C   0  0  0  0  0  0  0  0  0  0  0  0
   -4.2816    2.0806    1.7423 H   0  0  0  0  0  0  0  0  0  0  0  0
   -2.3924    1.5607    0.8207 C   0  0  0  0  0  0  0  0  0  0  0  0
   -4.8508    4.5090    0.5873 C   0  0  0  0  0  0  0  0  0  0  0  0
   -4.5581    5.5459    0.8544 H   0  0  0  0  0  0  0  0  0  0  0  0
   -5.4983    4.1202    1.3973 H   0  0  0  0  0  0  0  0  0  0  0  0
   -5.4720    4.5798   -0.3311 H   0  0  0  0  0  0  0  0  0  0  0  0
   -0.3995    3.6310   -1.7065 C   0  0  0  0  0  0  0  0  0  0  0  0
    0.5926    3.6147   -1.2096 H   0  0  0  0  0  0  0  0  0  0  0  0
   -0.5759    4.6430   -2.1180 H   0  0  0  0  0  0  0  0  0  0  0  0
   -0.3280    2.9153   -2.5526 H   0  0  0  0  0  0  0  0  0  0  0  0
   -2.3411    0.2331    1.5481 C   0  0  0  0  0  0  0  0  0  0  0  0
   -2.8510    0.3355    2.5357 H   0  0  0  0  0  0  0  0  0  0  0  0
   -2.8921   -0.5457    0.9774 H   0  0  0  0  0  0  0  0  0  0  0  0
   -0.0953    0.6502    2.4997 C   0  0  0  0  0  0  0  0  0  0  0  0
   -0.3738    0.6259    3.5779 H   0  0  0  0  0  0  0  0  0  0  0  0
   -0.2625    1.6770    2.1322 H   0  0  0  0  0  0  0  0  0  0  0  0
    1.3660    0.2049    2.2717 C   0  0  0  0  0  0  0  0  0  0  0  0
    1.9126    0.9201    1.6281 H   0  0  0  0  0  0  0  0  0  0  0  0
    1.9244    0.1173    3.2328 H   0  0  0  0  0  0  0  0  0  0  0  0
   -0.9194   -1.5850    2.4428 C   0  0  0  0  0  0  0  0  0  0  0  0
   -1.5797   -2.2962    1.9129 H   0  0  0  0  0  0  0  0  0  0  0  0
   -1.2891   -1.4746    3.4888 H   0  0  0  0  0  0  0  0  0  0  0  0
    0.5561   -2.0562    2.4045 C   0  0  0  0  0  0  0  0  0  0  0  0
    1.0036   -2.1104    3.4242 H   0  0  0  0  0  0  0  0  0  0  0  0
    0.6247   -3.0483    1.9259 H   0  0  0  0  0  0  0  0  0  0  0  0
    2.6656   -1.6231    1.2106 C   0  0  0  0  0  0  0  0  0  0  0  0
    2.4713   -2.5668    0.6571 H   0  0  0  0  0  0  0  0  0  0  0  0
    3.2384   -1.8749    2.1330 H   0  0  0  0  0  0  0  0  0  0  0  0
    3.4503   -0.6586    0.3616 C   0  0  0  0  0  0  0  0  0  0  0  0
    4.7339   -0.2137    0.7229 C   0  0  0  0  0  0  0  0  0  0  0  0
    5.1795   -0.5768    1.6642 H   0  0  0  0  0  0  0  0  0  0  0  0
    5.4575    0.6779   -0.0881 C   0  0  0  0  0  0  0  0  0  0  0  0
    4.8455    1.1303   -1.2774 C   0  0  0  0  0  0  0  0  0  0  0  0
    5.3891    1.8418   -1.9214 H   0  0  0  0  0  0  0  0  0  0  0  0
    3.5638    0.7205   -1.6742 C   0  0  0  0  0  0  0  0  0  0  0  0
    2.8650   -0.1968   -0.8441 C   0  0  0  0  0  0  0  0  0  0  0  0
    2.8955    1.2172   -2.9258 C   0  0  0  0  0  0  0  0  0  0  0  0
    2.6509    0.3767   -3.6082 H   0  0  0  0  0  0  0  0  0  0  0  0
    3.5338    1.9398   -3.4687 H   0  0  0  0  0  0  0  0  0  0  0  0
    1.9278    1.7042   -2.6843 H   0  0  0  0  0  0  0  0  0  0  0  0
    6.8452    1.1364    0.2872 C   0  0  0  0  0  0  0  0  0  0  0  0
    7.6109    0.7196   -0.4017 H   0  0  0  0  0  0  0  0  0  0  0  0
    7.1160    0.8200    1.3135 H   0  0  0  0  0  0  0  0  0  0  0  0
    6.9386    2.2410    0.2366 H   0  0  0  0  0  0  0  0  0  0  0  0
  1 30  1  0  0  0  0
  1 24  1  0  0  0  0
  2 27  1  0  0  0  0
  2 33  1  0  0  0  0
  3  5  1  0  0  0  0
  4 46  1  0  0  0  0
  5 12  1  0  0  0  0
  6  7  1  0  0  0  0
  6  5  2  0  0  0  0
  7  9  2  0  0  0  0
  8  7  1  0  0  0  0
  9 13  1  0  0  0  0
  9 10  1  0  0  0  0
 10 11  1  0  0  0  0
 12 10  2  0  0  0  0
 12 21  1  0  0  0  0
 13 14  1  0  0  0  0
 13 15  1  0  0  0  0
 16 13  1  0  0  0  0
 17 18  1  0  0  0  0
 17  6  1  0  0  0  0
 19 17  1  0  0  0  0
 20 17  1  0  0  0  0
 21  1  1  0  0  0  0
 21 22  1  0  0  0  0
 23 21  1  0  0  0  0
 24 25  1  0  0  0  0
 26 24  1  0  0  0  0
 27 24  1  0  0  0  0
 27 29  1  0  0  0  0
 28 27  1  0  0  0  0
 30 32  1  0  0  0  0
 31 30  1  0  0  0  0
 33 30  1  0  0  0  0
 33 34  1  0  0  0  0
 35 33  1  0  0  0  0
 36  2  1  0  0  0  0
 36 38  1  0  0  0  0
 37 36  1  0  0  0  0
 39 40  1  0  0  0  0
 39 36  1  0  0  0  0
 40 41  1  0  0  0  0
 42 51  1  0  0  0  0
 42 40  2  0  0  0  0
 43 42  1  0  0  0  0
 44 43  1  0  0  0  0
 45 43  2  0  0  0  0
 45 46  1  0  0  0  0
 46 39  2  0  0  0  0
 47 50  1  0  0  0  0
 47 45  1  0  0  0  0
 48 47  1  0  0  0  0
 49 47  1  0  0  0  0
 51 53  1  0  0  0  0
 52 51  1  0  0  0  0
 54 51  1  0  0  0  0
M  CHG  2   3  -1   4  -1
M  END
