1,3,5,6
 OpenBabel05122313063D

 49 51  0  0  1  0  0  0  0  0999 V2000
    1.4971   -1.9137   -0.0005 O   0  0  0  0  0  1  0  0  0  0  0  0
    6.9995   -1.3465    0.0003 O   0  0  0  0  0  0  0  0  0  0  0  0
   -1.2503   -2.0145   -0.0001 O   0  0  0  0  0  1  0  0  0  0  0  0
   -6.7789   -1.8522    0.0003 O   0  0  0  0  0  0  0  0  0  0  0  0
    1.3329    1.0180   -0.0001 N   0  0  0  0  0  2  0  0  0  0  0  0
   -1.3014    0.9225   -0.0001 N   0  0  0  0  0  2  0  0  0  0  0  0
    2.7699   -1.6646   -0.0003 C   0  0  1  0  0  3  0  0  0  0  0  0
    3.6583   -2.7944   -0.0005 C   0  0  0  0  0  0  0  0  0  0  0  0
    3.1899   -3.7888   -0.0007 H   0  0  0  0  0  0  0  0  0  0  0  0
    5.0302   -2.6484   -0.0002 C   0  0  0  0  0  0  0  0  0  0  0  0
    5.6956   -3.5248   -0.0003 H   0  0  0  0  0  0  0  0  0  0  0  0
    5.6332   -1.3545    0.0001 C   0  0  0  0  0  0  0  0  0  0  0  0
    4.8172   -0.2330    0.0002 C   0  0  0  0  0  0  0  0  0  0  0  0
    5.2475    0.7781    0.0004 H   0  0  0  0  0  0  0  0  0  0  0  0
    3.3832   -0.3471   -0.0000 C   0  0  0  0  0  0  0  0  0  0  0  0
    2.6484    0.8709    0.0001 C   0  0  0  0  0  0  0  0  0  0  0  0
    3.2591    1.7921    0.0003 H   0  0  0  0  0  0  0  0  0  0  0  0
    7.6460   -0.0925    0.0011 C   0  0  0  0  0  0  0  0  0  0  0  0
    7.3903    0.5082   -0.9024 H   0  0  0  0  0  0  0  0  0  0  0  0
    8.7333   -0.2946    0.0015 H   0  0  0  0  0  0  0  0  0  0  0  0
    7.3895    0.5075    0.9048 H   0  0  0  0  0  0  0  0  0  0  0  0
    0.6808    2.2682   -0.0002 C   0  0  0  0  0  0  0  0  0  0  0  0
    1.3202    3.5260   -0.0003 C   0  0  0  0  0  0  0  0  0  0  0  0
    2.4168    3.5920   -0.0005 H   0  0  0  0  0  0  0  0  0  0  0  0
    0.5696    4.7024   -0.0002 C   0  0  0  0  0  0  0  0  0  0  0  0
    1.0896    5.6729   -0.0004 H   0  0  0  0  0  0  0  0  0  0  0  0
   -0.8454    4.6706    0.0000 C   0  0  0  0  0  0  0  0  0  0  0  0
   -1.4817    3.4208    0.0001 C   0  0  0  0  0  0  0  0  0  0  0  0
   -2.5804    3.3924    0.0003 H   0  0  0  0  0  0  0  0  0  0  0  0
   -0.7436    2.2184   -0.0000 C   0  0  0  0  0  0  0  0  0  0  0  0
   -1.6387    5.9524    0.0002 C   0  0  0  0  0  0  0  0  0  0  0  0
   -2.7290    5.7611    0.0001 H   0  0  0  0  0  0  0  0  0  0  0  0
   -1.4028    6.5718   -0.8904 H   0  0  0  0  0  0  0  0  0  0  0  0
   -1.4029    6.5715    0.8911 H   0  0  0  0  0  0  0  0  0  0  0  0
   -2.6027    0.6783   -0.0001 C   0  0  0  0  0  0  0  0  0  0  0  0
   -3.2802    1.5513   -0.0002 H   0  0  0  0  0  0  0  0  0  0  0  0
   -3.2457   -0.5901    0.0000 C   0  0  0  0  0  0  0  0  0  0  0  0
   -2.5375   -1.8596    0.0001 C   0  0  1  0  0  3  0  0  0  0  0  0
   -3.3409   -3.0516    0.0002 C   0  0  0  0  0  0  0  0  0  0  0  0
   -2.8008   -4.0089    0.0003 H   0  0  0  0  0  0  0  0  0  0  0  0
   -4.7196   -3.0063    0.0003 C   0  0  0  0  0  0  0  0  0  0  0  0
   -5.3192   -3.9290    0.0005 H   0  0  0  0  0  0  0  0  0  0  0  0
   -5.4158   -1.7598    0.0002 C   0  0  0  0  0  0  0  0  0  0  0  0
   -4.6844   -0.5816    0.0001 C   0  0  0  0  0  0  0  0  0  0  0  0
   -5.1877    0.3952    0.0000 H   0  0  0  0  0  0  0  0  0  0  0  0
   -7.5159   -0.6491    0.0003 C   0  0  0  0  0  0  0  0  0  0  0  0
   -7.3045   -0.0316    0.9039 H   0  0  0  0  0  0  0  0  0  0  0  0
   -8.5854   -0.9306    0.0004 H   0  0  0  0  0  0  0  0  0  0  0  0
   -7.3047   -0.0317   -0.9034 H   0  0  0  0  0  0  0  0  0  0  0  0
  2 18  1  0  0  0  0
  5 16  1  0  0  0  0
  6 30  1  0  0  0  0
  7  1  1  6  0  0  0
  7 15  1  0  0  0  0
  8  7  1  0  0  0  0
  8 10  2  0  0  0  0
  9  8  1  0  0  0  0
 10 12  1  0  0  0  0
 11 10  1  0  0  0  0
 12 13  2  0  0  0  0
 12  2  1  0  0  0  0
 13 14  1  0  0  0  0
 15 16  2  0  0  0  0
 15 13  1  0  0  0  0
 16 17  1  0  0  0  0
 18 20  1  0  0  0  0
 18 21  1  0  0  0  0
 19 18  1  0  0  0  0
 22  5  1  0  0  0  0
 22 30  1  0  0  0  0
 23 25  1  0  0  0  0
 23 22  2  0  0  0  0
 24 23  1  0  0  0  0
 25 27  2  0  0  0  0
 26 25  1  0  0  0  0
 27 28  1  0  0  0  0
 27 31  1  0  0  0  0
 28 29  1  0  0  0  0
 30 28  2  0  0  0  0
 31 34  1  0  0  0  0
 32 31  1  0  0  0  0
 33 31  1  0  0  0  0
 35  6  1  0  0  0  0
 35 37  2  0  0  0  0
 36 35  1  0  0  0  0
 37 38  1  0  0  0  0
 37 44  1  0  0  0  0
 38  3  1  6  0  0  0
 38 39  1  0  0  0  0
 39 40  1  0  0  0  0
 39 41  2  0  0  0  0
 41 42  1  0  0  0  0
 43  4  1  0  0  0  0
 43 41  1  0  0  0  0
 44 43  2  0  0  0  0
 45 44  1  0  0  0  0
 46  4  1  0  0  0  0
 46 48  1  0  0  0  0
 46 47  1  0  0  0  0
 49 46  1  0  0  0  0
M  END
