1,4,7,8
 OpenBabel05122313063D

 43 44  0  0  1  0  0  0  0  0999 V2000
    1.2811    1.1333   -0.4225 O   0  5  0  0  0  0  0  0  0  0  0  0
    5.2756    1.0771    0.4630 O   0  0  0  0  0  0  0  0  0  0  0  0
    5.3708   -1.1306    0.7184 O   0  0  0  0  0  0  0  0  0  0  0  0
   -1.3781    1.0442   -0.6867 O   0  5  0  0  0  0  0  0  0  0  0  0
   -5.3766    1.1633    0.1657 O   0  0  0  0  0  0  0  0  0  0  0  0
   -5.5864   -1.0206    0.3960 O   0  0  0  0  0  0  0  0  0  0  0  0
    1.3091   -1.6514   -0.2609 N   0  0  0  0  0  2  0  0  0  0  0  0
   -1.3979   -1.6527   -0.1643 N   0  0  0  0  0  2  0  0  0  0  0  0
    2.5306    1.0108   -0.1614 C   0  0  0  0  0  0  0  0  0  0  0  0
    3.2819    2.2436   -0.0529 C   0  0  0  0  0  0  0  0  0  0  0  0
    4.6130    2.2312    0.2431 C   0  0  1  0  0  3  0  0  0  0  0  0
    4.6522   -0.1998    0.4054 C   0  0  0  0  0  0  0  0  0  0  0  0
    3.2495   -0.2296   -0.0023 C   0  0  0  0  0  0  0  0  0  0  0  0
    2.6231   -1.5184   -0.2306 C   0  0  0  0  0  0  0  0  0  0  0  0
    3.4758   -2.7410   -0.4986 C   0  0  0  0  0  0  0  0  0  0  0  0
    5.4922    3.4312    0.3730 C   0  0  0  0  0  0  0  0  0  0  0  0
    0.6430   -2.9253   -0.5177 C   0  0  0  0  0  0  0  0  0  0  0  0
   -0.7122   -2.8953    0.1782 C   0  0  0  0  0  0  0  0  0  0  0  0
   -2.5947    1.0101   -0.2481 C   0  0  0  0  0  0  0  0  0  0  0  0
   -3.2590    2.2507   -0.1290 C   0  0  0  0  0  0  0  0  0  0  0  0
   -4.6685    2.3254    0.0102 C   0  0  0  0  0  0  0  0  0  0  0  0
   -4.7957   -0.1068    0.2365 C   0  0  0  0  0  0  0  0  0  0  0  0
   -3.3340   -0.2041    0.0650 C   0  0  0  0  0  0  0  0  0  0  0  0
   -2.6640   -1.4599    0.2369 C   0  0  0  0  0  0  0  0  0  0  0  0
   -3.3436   -2.6102    0.9491 C   0  0  0  0  0  0  0  0  0  0  0  0
   -5.3883    3.4973    0.0312 C   0  0  0  0  0  0  0  0  0  0  0  0
    2.7435    3.1854   -0.2143 H   0  0  0  0  0  0  0  0  0  0  0  0
    3.0311   -3.3416   -1.3150 H   0  0  0  0  0  0  0  0  0  0  0  0
    3.5392   -3.3819    0.4057 H   0  0  0  0  0  0  0  0  0  0  0  0
    4.5112   -2.4678   -0.7511 H   0  0  0  0  0  0  0  0  0  0  0  0
    5.9374    3.4710    1.3886 H   0  0  0  0  0  0  0  0  0  0  0  0
    4.9281    4.3622    0.1854 H   0  0  0  0  0  0  0  0  0  0  0  0
    6.3364    3.3643   -0.3440 H   0  0  0  0  0  0  0  0  0  0  0  0
    1.2276   -3.7918   -0.1482 H   0  0  0  0  0  0  0  0  0  0  0  0
    0.4995   -3.0610   -1.6146 H   0  0  0  0  0  0  0  0  0  0  0  0
   -1.3118   -3.7762   -0.1365 H   0  0  0  0  0  0  0  0  0  0  0  0
   -0.5574   -2.9915    1.2793 H   0  0  0  0  0  0  0  0  0  0  0  0
   -2.6722    3.1685   -0.2639 H   0  0  0  0  0  0  0  0  0  0  0  0
   -4.3464   -2.3372    1.3069 H   0  0  0  0  0  0  0  0  0  0  0  0
   -2.7092   -2.9516    1.7924 H   0  0  0  0  0  0  0  0  0  0  0  0
   -3.4619   -3.4747    0.2624 H   0  0  0  0  0  0  0  0  0  0  0  0
   -4.8760    4.4561   -0.1179 H   0  0  0  0  0  0  0  0  0  0  0  0
   -6.4715    3.4794    0.2112 H   0  0  0  0  0  0  0  0  0  0  0  0
  1  9  1  0  0  0  0
  4 19  1  0  0  0  0
  5 22  1  0  0  0  0
  7 14  1  0  0  0  0
  8 18  1  0  0  0  0
  8 24  1  0  0  0  0
  9 10  2  0  0  0  0
  9 13  1  0  0  0  0
 10 11  1  0  0  0  0
 11 16  1  1  0  0  0
 11  2  1  0  0  0  0
 12  2  1  0  0  0  0
 12  3  2  0  0  0  0
 13 12  1  0  0  0  0
 14 13  2  0  0  0  0
 15 14  1  0  0  0  0
 15 29  1  0  0  0  0
 16 31  1  0  0  0  0
 17  7  1  0  0  0  0
 17 34  1  0  0  0  0
 17 18  1  0  0  0  0
 18 37  1  0  0  0  0
 19 20  2  0  0  0  0
 19 23  1  0  0  0  0
 20 21  1  0  0  0  0
 21 26  2  0  0  0  0
 21  5  1  0  0  0  0
 22  6  2  0  0  0  0
 23 22  1  0  0  0  0
 23 24  2  0  0  0  0
 24 25  1  0  0  0  0
 25 39  1  0  0  0  0
 25 40  1  0  0  0  0
 26 43  1  0  0  0  0
 27 10  1  0  0  0  0
 28 15  1  0  0  0  0
 30 15  1  0  0  0  0
 32 16  1  0  0  0  0
 33 16  1  0  0  0  0
 35 17  1  0  0  0  0
 36 18  1  0  0  0  0
 38 20  1  0  0  0  0
 41 25  1  0  0  0  0
 42 26  1  0  0  0  0
M  CHG  2   1  -1   4  -1
M  END
