1,2,5,6
 OpenBabel05122313063D

 38 39  0  0  1  0  0  0  0  0999 V2000
   -1.5376    1.0574   -0.0054 O   0  0  0  0  0  1  0  0  0  0  0  0
    0.9676    0.7523   -0.1166 O   0  5  0  0  0  0  0  0  0  0  0  0
    2.6319   -3.1623   -0.2977 O   0  0  0  0  0  0  0  0  0  0  0  0
    2.4978    2.8555    0.0373 O   0  0  0  0  0  0  0  0  0  0  0  0
   -1.8077   -1.6395    0.2182 N   0  0  0  0  0  2  0  0  0  0  0  0
    0.6984   -1.9503   -0.1029 N   0  0  0  0  0  2  0  0  0  0  0  0
   -2.8271    1.0930   -0.0300 C   0  0  2  0  0  3  0  0  0  0  0  0
   -3.4933    2.3614   -0.1481 C   0  0  0  0  0  0  0  0  0  0  0  0
   -2.8469    3.2492   -0.2162 H   0  0  0  0  0  0  0  0  0  0  0  0
   -4.8795    2.4623   -0.1777 C   0  0  0  0  0  0  0  0  0  0  0  0
   -5.3463    3.4570   -0.2719 H   0  0  0  0  0  0  0  0  0  0  0  0
   -5.7011    1.3095   -0.0881 C   0  0  0  0  0  0  0  0  0  0  0  0
   -6.7976    1.3994   -0.1112 H   0  0  0  0  0  0  0  0  0  0  0  0
   -5.0919    0.0630    0.0319 C   0  0  0  0  0  0  0  0  0  0  0  0
   -5.7081   -0.8496    0.1075 H   0  0  0  0  0  0  0  0  0  0  0  0
   -3.6787   -0.0807    0.0631 C   0  0  0  0  0  0  0  0  0  0  0  0
   -3.0961   -1.3808    0.2117 C   0  0  0  0  0  0  0  0  0  0  0  0
   -3.7918   -2.2357    0.3448 H   0  0  0  0  0  0  0  0  0  0  0  0
   -1.3474   -3.0075    0.4803 C   0  0  0  0  0  0  0  0  0  0  0  0
   -2.1260   -3.7527    0.1998 H   0  0  0  0  0  0  0  0  0  0  0  0
   -1.1518   -3.1027    1.5724 H   0  0  0  0  0  0  0  0  0  0  0  0
   -0.0472   -3.1858   -0.2815 C   0  0  0  0  0  0  0  0  0  0  0  0
    0.5504   -4.0484    0.0810 H   0  0  0  0  0  0  0  0  0  0  0  0
   -0.2670   -3.3783   -1.3617 H   0  0  0  0  0  0  0  0  0  0  0  0
    2.0591   -2.0535   -0.1620 C   0  0  0  0  0  0  0  0  0  0  0  0
    2.2475    0.4985   -0.0432 C   0  0  0  0  0  0  0  0  0  0  0  0
    3.1378    1.6389    0.0369 C   0  0  0  0  0  0  0  0  0  0  0  0
    4.5241    1.4777    0.1073 C   0  0  0  0  0  0  0  0  0  0  0  0
    5.1804    2.3581    0.1707 H   0  0  0  0  0  0  0  0  0  0  0  0
    5.0937    0.1813    0.0969 C   0  0  0  0  0  0  0  0  0  0  0  0
    6.1878    0.0655    0.1497 H   0  0  0  0  0  0  0  0  0  0  0  0
    4.2591   -0.9292    0.0151 C   0  0  0  0  0  0  0  0  0  0  0  0
    4.6448   -1.9599   -0.0099 H   0  0  0  0  0  0  0  0  0  0  0  0
    2.8521   -0.7938   -0.0480 C   0  0  0  0  0  0  0  0  0  0  0  0
    3.2914    4.0049    0.1122 C   0  0  0  0  0  0  0  0  0  0  0  0
    2.6029    4.8732    0.0999 H   0  0  0  0  0  0  0  0  0  0  0  0
    3.9973    4.0971   -0.7500 H   0  0  0  0  0  0  0  0  0  0  0  0
    3.9010    4.0465    1.0485 H   0  0  0  0  0  0  0  0  0  0  0  0
  2 26  1  0  0  0  0
  3 25  2  0  0  0  0
  4 35  1  0  0  0  0
  5 19  1  0  0  0  0
  7  1  1  1  0  0  0
  7 16  1  0  0  0  0
  8  7  1  0  0  0  0
  9  8  1  0  0  0  0
 10  8  2  0  0  0  0
 10 12  1  0  0  0  0
 11 10  1  0  0  0  0
 12 14  2  0  0  0  0
 13 12  1  0  0  0  0
 14 16  1  0  0  0  0
 14 15  1  0  0  0  0
 16 17  2  0  0  0  0
 17  5  1  0  0  0  0
 17 18  1  0  0  0  0
 19 21  1  0  0  0  0
 20 19  1  0  0  0  0
 22  6  1  0  0  0  0
 22 23  1  0  0  0  0
 22 19  1  0  0  0  0
 24 22  1  0  0  0  0
 25  6  1  0  0  0  0
 25 34  1  0  0  0  0
 26 27  1  0  0  0  0
 27  4  1  0  0  0  0
 27 28  2  0  0  0  0
 28 29  1  0  0  0  0
 30 28  1  0  0  0  0
 30 31  1  0  0  0  0
 32 30  2  0  0  0  0
 33 32  1  0  0  0  0
 34 26  2  0  0  0  0
 34 32  1  0  0  0  0
 35 38  1  0  0  0  0
 36 35  1  0  0  0  0
 37 35  1  0  0  0  0
M  CHG  1   2  -1
M  END
