1,2,3,4
 OpenBabel05122313063D

 46 49  0  0  0  0  0  0  0  0999 V2000
    1.4731   -1.1312   -0.1619 O   0  5  0  0  0  0  0  0  0  0  0  0
   -1.4732   -1.1312   -0.1615 O   0  5  0  0  0  0  0  0  0  0  0  0
    1.3032    1.8229   -0.3167 N   0  0  0  0  0  2  0  0  0  0  0  0
   -1.3033    1.8230   -0.3162 N   0  0  0  0  0  2  0  0  0  0  0  0
    3.2727    0.4204   -0.2756 N   0  0  0  0  0  0  0  0  0  0  0  0
   -3.2728    0.4205   -0.2746 N   0  0  0  0  0  0  0  0  0  0  0  0
    0.7379    3.0742   -0.3676 C   0  0  0  0  0  0  0  0  0  0  0  0
   -0.7380    3.0742   -0.3672 C   0  0  0  0  0  0  0  0  0  0  0  0
    1.5375    4.2220   -0.4174 C   0  0  0  0  0  0  0  0  0  0  0  0
   -1.5376    4.2220   -0.4164 C   0  0  0  0  0  0  0  0  0  0  0  0
    2.9355    4.0726   -0.4203 C   0  0  0  0  0  0  0  0  0  0  0  0
   -2.9355    4.0727   -0.4185 C   0  0  0  0  0  0  0  0  0  0  0  0
    3.4941    2.7972   -0.3715 C   0  0  0  0  0  0  0  0  0  0  0  0
   -3.4942    2.7973   -0.3697 C   0  0  0  0  0  0  0  0  0  0  0  0
    2.6660    1.6392   -0.3196 C   0  0  0  0  0  0  0  0  0  0  0  0
   -2.6661    1.6392   -0.3185 C   0  0  0  0  0  0  0  0  0  0  0  0
    2.7201   -0.7922   -0.2052 C   0  0  0  0  0  0  0  0  0  0  0  0
   -2.7201   -0.7922   -0.2046 C   0  0  0  0  0  0  0  0  0  0  0  0
    3.6839   -1.9424   -0.1812 C   0  0  0  0  0  0  0  0  0  0  0  0
   -3.6839   -1.9423   -0.1809 C   0  0  0  0  0  0  0  0  0  0  0  0
    5.0761   -1.7249   -0.2500 C   0  0  0  0  0  0  0  0  0  0  0  0
   -5.0762   -1.7249   -0.2495 C   0  0  0  0  0  0  0  0  0  0  0  0
    5.9638   -2.8083   -0.2360 C   0  0  0  0  0  0  0  0  0  0  0  0
   -5.9639   -2.8082   -0.2359 C   0  0  0  0  0  0  0  0  0  0  0  0
    5.4733   -4.1228   -0.1522 C   0  0  0  0  0  0  0  0  0  0  0  0
   -5.4734   -4.1228   -0.1525 C   0  0  0  0  0  0  0  0  0  0  0  0
    4.0881   -4.3471   -0.0816 C   0  0  0  0  0  0  0  0  0  0  0  0
   -4.0882   -4.3471   -0.0822 C   0  0  0  0  0  0  0  0  0  0  0  0
    3.1979   -3.2649   -0.0961 C   0  0  0  0  0  0  0  0  0  0  0  0
   -3.1980   -3.2649   -0.0964 C   0  0  0  0  0  0  0  0  0  0  0  0
    1.0765    5.2171   -0.4602 H   0  0  0  0  0  0  0  0  0  0  0  0
    3.5844    4.9599   -0.4637 H   0  0  0  0  0  0  0  0  0  0  0  0
    4.5798    2.6325   -0.3751 H   0  0  0  0  0  0  0  0  0  0  0  0
    5.4287   -0.6860   -0.3147 H   0  0  0  0  0  0  0  0  0  0  0  0
    7.0486   -2.6284   -0.2915 H   0  0  0  0  0  0  0  0  0  0  0  0
    6.1720   -4.9737   -0.1414 H   0  0  0  0  0  0  0  0  0  0  0  0
    3.6997   -5.3751   -0.0141 H   0  0  0  0  0  0  0  0  0  0  0  0
    2.1110   -3.4190   -0.0385 H   0  0  0  0  0  0  0  0  0  0  0  0
   -1.0766    5.2172   -0.4593 H   0  0  0  0  0  0  0  0  0  0  0  0
   -3.5844    4.9600   -0.4614 H   0  0  0  0  0  0  0  0  0  0  0  0
   -4.5799    2.6326   -0.3728 H   0  0  0  0  0  0  0  0  0  0  0  0
   -5.4288   -0.6859   -0.3138 H   0  0  0  0  0  0  0  0  0  0  0  0
   -7.0487   -2.6283   -0.2912 H   0  0  0  0  0  0  0  0  0  0  0  0
   -6.1721   -4.9737   -0.1420 H   0  0  0  0  0  0  0  0  0  0  0  0
   -3.6998   -5.3751   -0.0150 H   0  0  0  0  0  0  0  0  0  0  0  0
   -2.1110   -3.4191   -0.0389 H   0  0  0  0  0  0  0  0  0  0  0  0
  5 17  2  0  0  0  0
  6 18  2  0  0  0  0
  7  8  2  0  0  0  0
  7  3  1  0  0  0  0
  8  4  1  0  0  0  0
  9  7  1  0  0  0  0
 10  8  1  0  0  0  0
 11  9  2  0  0  0  0
 11 13  1  0  0  0  0
 12 10  2  0  0  0  0
 12 14  1  0  0  0  0
 13 15  2  0  0  0  0
 14 16  2  0  0  0  0
 15  3  1  0  0  0  0
 15  5  1  0  0  0  0
 16  4  1  0  0  0  0
 16  6  1  0  0  0  0
 17 19  1  0  0  0  0
 17  1  1  0  0  0  0
 18 20  1  0  0  0  0
 18  2  1  0  0  0  0
 19 29  1  0  0  0  0
 20 30  1  0  0  0  0
 21 23  1  0  0  0  0
 21 19  2  0  0  0  0
 22 24  1  0  0  0  0
 22 20  2  0  0  0  0
 23 25  2  0  0  0  0
 24 26  2  0  0  0  0
 25 36  1  0  0  0  0
 25 27  1  0  0  0  0
 26 44  1  0  0  0  0
 26 28  1  0  0  0  0
 27 37  1  0  0  0  0
 28 45  1  0  0  0  0
 29 27  2  0  0  0  0
 29 38  1  0  0  0  0
 30 28  2  0  0  0  0
 30 46  1  0  0  0  0
 31  9  1  0  0  0  0
 32 11  1  0  0  0  0
 33 13  1  0  0  0  0
 34 21  1  0  0  0  0
 35 23  1  0  0  0  0
 39 10  1  0  0  0  0
 40 12  1  0  0  0  0
 41 14  1  0  0  0  0
 42 22  1  0  0  0  0
 43 24  1  0  0  0  0
M  CHG  2   1  -1   2  -1
M  END
