2,3,5,6
 OpenBabel05122313063D

 64 66  0  0  1  0  0  0  0  0999 V2000
    3.6517   -0.2658   -0.8808 Si  0  0  0  0  0  0  0  0  0  0  0  0
    0.1232   -1.7151   -0.3768 O   0  0  0  0  0  1  0  0  0  0  0  0
   -3.2453   -0.4161   -1.0402 O   0  5  0  0  0  0  0  0  0  0  0  0
    2.5751    0.1694    0.3875 O   0  0  0  0  0  0  0  0  0  0  0  0
   -1.9597   -2.0462    1.1194 N   0  0  0  0  0  2  0  0  0  0  0  0
   -1.0685    0.4363    0.3137 N   0  0  0  0  0  2  0  0  0  0  0  0
    0.5491    3.0927   -0.2843 N   0  0  0  0  0  0  0  0  0  0  0  0
   -3.0558   -2.5095    1.7325 C   0  0  0  0  0  3  0  0  0  0  0  0
   -3.9674   -2.5665    1.1142 H   0  0  0  0  0  0  0  0  0  0  0  0
   -3.0459   -2.9001    3.0804 C   0  0  0  0  0  0  0  0  0  0  0  0
   -3.9605   -3.2856    3.5535 H   0  0  0  0  0  0  0  0  0  0  0  0
   -1.8449   -2.7909    3.7990 C   0  0  0  0  0  0  0  0  0  0  0  0
   -1.7987   -3.0945    4.8561 H   0  0  0  0  0  0  0  0  0  0  0  0
   -0.7014   -2.2961    3.1533 C   0  0  0  0  0  0  0  0  0  0  0  0
    0.2583   -2.1986    3.6830 H   0  0  0  0  0  0  0  0  0  0  0  0
   -0.8031   -1.9362    1.8013 C   0  0  0  0  0  0  0  0  0  0  0  0
    0.3159   -1.3519    0.9520 C   0  0  2  0  0  0  0  0  0  0  0  0
    1.3179   -1.6635    1.3176 H   0  0  0  0  0  0  0  0  0  0  0  0
    0.2127    0.2006    0.9554 C   0  0  1  0  0  0  0  0  0  0  0  0
    0.2536    0.6180    1.9868 H   0  0  0  0  0  0  0  0  0  0  0  0
    1.3611    0.8207    0.0905 C   0  0  1  0  0  0  0  0  0  0  0  0
    1.0449    0.6752   -0.9667 H   0  0  0  0  0  0  0  0  0  0  0  0
    1.4616    2.3195    0.3352 C   0  0  0  0  0  0  0  0  0  0  0  0
    2.4551    2.8475    1.1837 C   0  0  0  0  0  0  0  0  0  0  0  0
    3.1795    2.1667    1.6517 H   0  0  0  0  0  0  0  0  0  0  0  0
    2.4962    4.2324    1.3878 C   0  0  0  0  0  0  0  0  0  0  0  0
    3.2637    4.6779    2.0396 H   0  0  0  0  0  0  0  0  0  0  0  0
    1.5468    5.0417    0.7450 C   0  0  0  0  0  0  0  0  0  0  0  0
    1.5452    6.1346    0.8712 H   0  0  0  0  0  0  0  0  0  0  0  0
    0.5947    4.4177   -0.0769 C   0  0  0  0  0  0  0  0  0  0  0  0
   -0.1698    5.0185   -0.6019 H   0  0  0  0  0  0  0  0  0  0  0  0
   -1.8203    1.4332    0.6645 C   0  0  0  0  0  3  0  0  0  0  0  0
   -1.4505    2.1412    1.4352 H   0  0  0  0  0  0  0  0  0  0  0  0
   -3.1380    1.6863    0.1430 C   0  0  0  0  0  0  0  0  0  0  0  0
   -3.8135    2.8785    0.5085 C   0  0  0  0  0  0  0  0  0  0  0  0
   -3.2862    3.5991    1.1548 H   0  0  0  0  0  0  0  0  0  0  0  0
   -5.1043    3.1465    0.0607 C   0  0  0  0  0  0  0  0  0  0  0  0
   -5.6131    4.0794    0.3426 H   0  0  0  0  0  0  0  0  0  0  0  0
   -5.7527    2.1959   -0.7608 C   0  0  0  0  0  0  0  0  0  0  0  0
   -6.7748    2.3938   -1.1202 H   0  0  0  0  0  0  0  0  0  0  0  0
   -5.1216    1.0081   -1.1260 C   0  0  0  0  0  0  0  0  0  0  0  0
   -5.6207    0.2624   -1.7616 H   0  0  0  0  0  0  0  0  0  0  0  0
   -3.7964    0.7187   -0.6924 C   0  0  0  0  0  0  0  0  0  0  0  0
    4.2148    1.3147   -1.7476 C   0  0  0  0  0  0  0  0  0  0  0  0
    3.3409    1.8393   -2.1864 H   0  0  0  0  0  0  0  0  0  0  0  0
    4.9166    1.0885   -2.5765 H   0  0  0  0  0  0  0  0  0  0  0  0
    4.7133    2.0167   -1.0500 H   0  0  0  0  0  0  0  0  0  0  0  0
    2.7813   -1.3958   -2.1052 C   0  0  0  0  0  0  0  0  0  0  0  0
    1.9247   -0.8799   -2.5853 H   0  0  0  0  0  0  0  0  0  0  0  0
    2.3641   -2.2900   -1.6034 H   0  0  0  0  0  0  0  0  0  0  0  0
    3.4807   -1.7158   -2.9049 H   0  0  0  0  0  0  0  0  0  0  0  0
    5.0775   -1.1347    0.0552 C   0  0  0  0  0  0  0  0  0  0  0  0
    5.6710   -0.1694    1.0981 C   0  0  0  0  0  0  0  0  0  0  0  0
    6.4992   -0.6600    1.6569 H   0  0  0  0  0  0  0  0  0  0  0  0
    4.9060    0.1448    1.8372 H   0  0  0  0  0  0  0  0  0  0  0  0
    6.0873    0.7463    0.6291 H   0  0  0  0  0  0  0  0  0  0  0  0
    4.5261   -2.3843    0.7671 C   0  0  0  0  0  0  0  0  0  0  0  0
    5.3384   -2.9098    1.3174 H   0  0  0  0  0  0  0  0  0  0  0  0
    4.0851   -3.1098    0.0531 H   0  0  0  0  0  0  0  0  0  0  0  0
    3.7412   -2.1163    1.5039 H   0  0  0  0  0  0  0  0  0  0  0  0
    6.1634   -1.5458   -0.9571 C   0  0  0  0  0  0  0  0  0  0  0  0
    7.0037   -2.0599   -0.4391 H   0  0  0  0  0  0  0  0  0  0  0  0
    6.5915   -0.6695   -1.4871 H   0  0  0  0  0  0  0  0  0  0  0  0
    5.7727   -2.2467   -1.7239 H   0  0  0  0  0  0  0  0  0  0  0  0
  1 52  1  0  0  0  0
  1  4  1  0  0  0  0
  2 17  1  0  0  0  0
  3 43  1  0  0  0  0
  5  8  1  0  0  0  0
  5 16  1  0  0  0  0
  6 32  1  0  0  0  0
  6 19  1  0  0  0  0
  7 30  2  0  0  0  0
  7 23  1  0  0  0  0
  8 10  1  0  0  0  0
  9  8  1  0  0  0  0
 10 11  1  0  0  0  0
 10 12  2  0  0  0  0
 12 13  1  0  0  0  0
 14 15  1  0  0  0  0
 14 12  1  0  0  0  0
 16 14  2  0  0  0  0
 17 19  1  0  0  0  0
 17 18  1  1  0  0  0
 17 16  1  0  0  0  0
 19 20  1  1  0  0  0
 21 22  1  6  0  0  0
 21 23  1  0  0  0  0
 21  4  1  0  0  0  0
 21 19  1  0  0  0  0
 23 24  2  0  0  0  0
 24 26  1  0  0  0  0
 24 25  1  0  0  0  0
 26 27  1  0  0  0  0
 28 29  1  0  0  0  0
 28 26  2  0  0  0  0
 30 28  1  0  0  0  0
 31 30  1  0  0  0  0
 32 33  1  0  0  0  0
 34 35  1  0  0  0  0
 34 32  1  0  0  0  0
 35 36  1  0  0  0  0
 37 38  1  0  0  0  0
 37 35  2  0  0  0  0
 39 37  1  0  0  0  0
 40 39  1  0  0  0  0
 41 39  2  0  0  0  0
 41 43  1  0  0  0  0
 42 41  1  0  0  0  0
 43 34  2  0  0  0  0
 44 47  1  0  0  0  0
 44  1  1  0  0  0  0
 45 44  1  0  0  0  0
 46 44  1  0  0  0  0
 48 50  1  0  0  0  0
 48  1  1  0  0  0  0
 49 48  1  0  0  0  0
 51 48  1  0  0  0  0
 52 57  1  0  0  0  0
 52 53  1  0  0  0  0
 53 54  1  0  0  0  0
 53 55  1  0  0  0  0
 56 53  1  0  0  0  0
 57 58  1  0  0  0  0
 57 60  1  0  0  0  0
 59 57  1  0  0  0  0
 61 62  1  0  0  0  0
 61 52  1  0  0  0  0
 63 61  1  0  0  0  0
 64 61  1  0  0  0  0
M  CHG  1   3  -1
M  END
