3,4,5,6
 OpenBabel05122313063D

 38 38  0  0  1  0  0  0  0  0999 V2000
   -1.4160    3.8011   -0.4906 C   0  0  0  0  0  0  0  0  0  0  0  0
   -2.5073    3.7933   -0.5800 H   0  0  0  0  0  0  0  0  0  0  0  0
   -1.2797    1.3654    0.1308 N   0  0  0  0  0  2  0  0  0  0  0  0
    1.2355   -1.3558   -0.3031 O   0  5  0  0  0  0  0  0  0  0  0  0
   -1.2289   -1.3618   -0.3032 O   0  0  0  0  0  1  0  0  0  0  0  0
    1.2731    1.3717    0.1307 N   0  0  0  0  0  2  0  0  0  0  0  0
   -2.4507   -1.2762    0.0598 C   0  0  1  0  0  3  0  0  0  0  0  0
   -0.7204    2.6300   -0.1275 C   0  0  0  0  0  0  0  0  0  0  0  0
    2.5210    1.1563    0.5807 C   0  0  2  0  0  3  0  0  0  0  0  0
    2.6203   -3.5895    0.5176 F   0  0  0  0  0  0  0  0  0  0  0  0
    3.3265   -2.8939   -1.4258 F   0  0  0  0  0  0  0  0  0  0  0  0
    0.7076    2.6335   -0.1276 C   0  0  0  0  0  0  0  0  0  0  0  0
   -3.1023   -0.1503    0.5661 C   0  0  0  0  0  0  0  0  0  0  0  0
   -4.1342   -0.2613    0.9183 H   0  0  0  0  0  0  0  0  0  0  0  0
    2.4570   -1.2643    0.0597 C   0  0  0  0  0  0  0  0  0  0  0  0
    4.4978   -2.4859    0.3723 F   0  0  0  0  0  0  0  0  0  0  0  0
   -3.3129   -2.9094   -1.4261 F   0  0  0  0  0  0  0  0  0  0  0  0
    3.2379   -2.5753   -0.1174 C   0  0  0  0  0  0  0  0  0  0  0  0
    3.1032   -0.1351    0.5658 C   0  0  0  0  0  0  0  0  0  0  0  0
    4.1356   -0.2411    0.9178 H   0  0  0  0  0  0  0  0  0  0  0  0
   -4.4855   -2.5078    0.3726 F   0  0  0  0  0  0  0  0  0  0  0  0
   -2.5265    1.1440    0.5811 C   0  0  0  0  0  0  0  0  0  0  0  0
    1.3973    3.8080   -0.4908 C   0  0  0  0  0  0  0  0  0  0  0  0
    2.4886    3.8057   -0.5804 H   0  0  0  0  0  0  0  0  0  0  0  0
   -3.2254   -2.5910   -0.1177 C   0  0  0  0  0  0  0  0  0  0  0  0
    0.6888    4.9731   -0.8183 C   0  0  0  0  0  0  0  0  0  0  0  0
    1.2419    5.8762   -1.1155 H   0  0  0  0  0  0  0  0  0  0  0  0
   -0.7134    4.9696   -0.8182 C   0  0  0  0  0  0  0  0  0  0  0  0
   -1.2709    5.8700   -1.1153 H   0  0  0  0  0  0  0  0  0  0  0  0
   -2.6027   -3.6024    0.5167 F   0  0  0  0  0  0  0  0  0  0  0  0
   -3.3882    2.2478    1.1527 C   0  0  0  0  0  0  0  0  0  0  0  0
    3.3776    2.2644    1.1520 C   0  0  0  0  0  0  0  0  0  0  0  0
   -2.7833    3.0560    1.6041 H   0  0  0  0  0  0  0  0  0  0  0  0
    2.7689    3.0696    1.6036 H   0  0  0  0  0  0  0  0  0  0  0  0
    4.0437    1.8393    1.9261 H   0  0  0  0  0  0  0  0  0  0  0  0
    4.0321    2.7223    0.3815 H   0  0  0  0  0  0  0  0  0  0  0  0
   -4.0519    1.8194    1.9271 H   0  0  0  0  0  0  0  0  0  0  0  0
   -4.0453    2.7024    0.3825 H   0  0  0  0  0  0  0  0  0  0  0  0
  1  8  1  0  0  0  0
  2  1  1  0  0  0  0
  3 22  1  0  0  0  0
  4 15  1  0  0  0  0
  7  5  1  6  0  0  0
  7 13  1  0  0  0  0
  8  3  1  0  0  0  0
  9  6  1  1  0  0  0
  9 32  1  0  0  0  0
 11 18  1  0  0  0  0
 12  8  2  0  0  0  0
 12  6  1  0  0  0  0
 13 22  2  0  0  0  0
 13 14  1  0  0  0  0
 15 19  2  0  0  0  0
 17 25  1  0  0  0  0
 18 15  1  0  0  0  0
 18 16  1  0  0  0  0
 18 10  1  0  0  0  0
 19  9  1  0  0  0  0
 19 20  1  0  0  0  0
 22 31  1  0  0  0  0
 23 12  1  0  0  0  0
 24 23  1  0  0  0  0
 25  7  1  0  0  0  0
 25 21  1  0  0  0  0
 25 30  1  0  0  0  0
 26 28  1  0  0  0  0
 26 23  2  0  0  0  0
 27 26  1  0  0  0  0
 28  1  2  0  0  0  0
 29 28  1  0  0  0  0
 31 33  1  0  0  0  0
 31 37  1  0  0  0  0
 32 34  1  0  0  0  0
 32 35  1  0  0  0  0
 36 32  1  0  0  0  0
 38 31  1  0  0  0  0
M  CHG  1   4  -1
M  END
