3,4,5,6
 OpenBabel05122313063D

 38 38  0  0  1  0  0  0  0  0999 V2000
   -1.4015    3.8596   -0.4283 C   0  0  0  0  0  0  0  0  0  0  0  0
   -2.4915    3.8579   -0.5254 H   0  0  0  0  0  0  0  0  0  0  0  0
   -1.3239    1.4150    0.1100 N   0  0  0  0  0  2  0  0  0  0  0  0
    1.3653   -1.5388   -0.2475 O   0  0  0  0  0  1  0  0  0  0  0  0
    1.3241    1.4148    0.1102 N   0  0  0  0  0  2  0  0  0  0  0  0
   -1.3655   -1.5386   -0.2475 O   0  0  0  0  0  1  0  0  0  0  0  0
   -0.7173    2.6700   -0.0984 C   0  0  0  0  0  0  0  0  0  0  0  0
    2.9566   -3.5830    0.6208 F   0  0  0  0  0  0  0  0  0  0  0  0
   -4.7364   -2.3508    0.3425 F   0  0  0  0  0  0  0  0  0  0  0  0
   -3.5335   -2.9391   -1.3820 F   0  0  0  0  0  0  0  0  0  0  0  0
    0.7176    2.6699   -0.0983 C   0  0  0  0  0  0  0  0  0  0  0  0
    3.5340   -2.9385   -1.3825 F   0  0  0  0  0  0  0  0  0  0  0  0
   -2.9573   -3.5822    0.6221 F   0  0  0  0  0  0  0  0  0  0  0  0
    4.7359   -2.3515    0.3433 F   0  0  0  0  0  0  0  0  0  0  0  0
   -2.5864   -1.3059    0.0505 C   0  0  1  0  0  3  0  0  0  0  0  0
    2.5862   -1.3062    0.0506 C   0  0  1  0  0  3  0  0  0  0  0  0
    3.1759   -0.1086    0.4702 C   0  0  0  0  0  0  0  0  0  0  0  0
    4.2281   -0.1680    0.7727 H   0  0  0  0  0  0  0  0  0  0  0  0
    2.5847    1.1834    0.5072 C   0  0  0  0  0  0  0  0  0  0  0  0
   -2.5847    1.1838    0.5069 C   0  0  0  0  0  0  0  0  0  0  0  0
    1.4021    3.8595   -0.4280 C   0  0  0  0  0  0  0  0  0  0  0  0
    2.4920    3.8576   -0.5248 H   0  0  0  0  0  0  0  0  0  0  0  0
    0.7012    5.0373   -0.7164 C   0  0  0  0  0  0  0  0  0  0  0  0
    1.2589    5.9462   -0.9855 H   0  0  0  0  0  0  0  0  0  0  0  0
   -3.4679    2.2821    1.0598 C   0  0  0  0  0  0  0  0  0  0  0  0
   -2.8795    3.0740    1.5591 H   0  0  0  0  0  0  0  0  0  0  0  0
   -4.1718    1.8435    1.7911 H   0  0  0  0  0  0  0  0  0  0  0  0
   -4.0814    2.7589    0.2674 H   0  0  0  0  0  0  0  0  0  0  0  0
    3.4680    2.2816    1.0603 C   0  0  0  0  0  0  0  0  0  0  0  0
    2.8797    3.0735    1.5596 H   0  0  0  0  0  0  0  0  0  0  0  0
    4.0817    2.7584    0.2680 H   0  0  0  0  0  0  0  0  0  0  0  0
    4.1718    1.8428    1.7916 H   0  0  0  0  0  0  0  0  0  0  0  0
   -3.4694   -2.5600   -0.0887 C   0  0  0  0  0  0  0  0  0  0  0  0
   -0.7004    5.0374   -0.7166 C   0  0  0  0  0  0  0  0  0  0  0  0
   -1.2580    5.9464   -0.9858 H   0  0  0  0  0  0  0  0  0  0  0  0
    3.4691   -2.5603   -0.0889 C   0  0  0  0  0  0  0  0  0  0  0  0
   -3.1760   -0.1082    0.4699 C   0  0  0  0  0  0  0  0  0  0  0  0
   -4.2282   -0.1675    0.7723 H   0  0  0  0  0  0  0  0  0  0  0  0
  1  7  1  0  0  0  0
  2  1  1  0  0  0  0
  3 20  1  0  0  0  0
  5 19  1  0  0  0  0
  7 11  2  0  0  0  0
  7  3  1  0  0  0  0
 10 33  1  0  0  0  0
 11  5  1  0  0  0  0
 12 36  1  0  0  0  0
 15  6  1  1  0  0  0
 15 37  1  0  0  0  0
 16  4  1  1  0  0  0
 16 17  1  0  0  0  0
 17 19  2  0  0  0  0
 17 18  1  0  0  0  0
 19 29  1  0  0  0  0
 20 25  1  0  0  0  0
 21 11  1  0  0  0  0
 22 21  1  0  0  0  0
 23 21  2  0  0  0  0
 24 23  1  0  0  0  0
 25 26  1  0  0  0  0
 25 27  1  0  0  0  0
 28 25  1  0  0  0  0
 29 30  1  0  0  0  0
 29 32  1  0  0  0  0
 31 29  1  0  0  0  0
 33 15  1  0  0  0  0
 33  9  1  0  0  0  0
 33 13  1  0  0  0  0
 34 23  1  0  0  0  0
 34  1  2  0  0  0  0
 35 34  1  0  0  0  0
 36 16  1  0  0  0  0
 36 14  1  0  0  0  0
 36  8  1  0  0  0  0
 37 20  2  0  0  0  0
 37 38  1  0  0  0  0
M  END
