1,2,3,4
 OpenBabel05122313063D

 52 53  0  0  0  0  0  0  0  0999 V2000
   -1.7148    1.0215   -0.5872 O   0  5  0  0  0  0  0  0  0  0  0  0
    1.6484   -1.2105   -0.3514 O   0  5  0  0  0  0  0  0  0  0  0  0
   -1.0863   -1.7319    0.1055 N   0  0  0  0  0  2  0  0  0  0  0  0
    1.0534    1.6438   -0.4842 N   0  0  0  0  0  2  0  0  0  0  0  0
   -3.2665   -0.8647   -0.6561 C   0  0  0  0  0  0  0  0  0  0  0  0
   -2.8983    0.5169   -0.8453 C   0  0  0  0  0  0  0  0  0  0  0  0
   -3.9080    1.4133   -1.3091 C   0  0  0  0  0  0  0  0  0  0  0  0
   -5.1964    0.9730   -1.5897 C   0  0  0  0  0  0  0  0  0  0  0  0
   -5.5590   -0.3835   -1.4081 C   0  0  0  0  0  0  0  0  0  0  0  0
   -4.6022   -1.2727   -0.9361 C   0  0  0  0  0  3  0  0  0  0  0  0
   -2.3779   -1.8373   -0.0808 C   0  0  0  0  0  0  0  0  0  0  0  0
   -0.4230   -2.7315    0.9567 C   0  0  0  0  0  0  0  0  0  0  0  0
    0.1871   -2.0920    2.2215 C   0  0  0  0  0  0  0  0  0  0  0  0
   -0.7203   -1.1245    3.0010 C   0  0  0  0  0  0  0  0  0  0  0  0
    0.0711   -0.0694    3.7981 C   0  0  0  0  0  0  0  0  0  0  0  0
    0.7525    1.0183    2.9454 C   0  0  0  0  0  0  0  0  0  0  0  0
   -0.2012    2.0858    2.3824 C   0  0  0  0  0  0  0  0  0  0  0  0
    0.4720    3.1336    1.4675 C   0  0  0  0  0  0  0  0  0  0  0  0
    0.4100    2.8940   -0.0557 C   0  0  0  0  0  0  0  0  0  0  0  0
    3.2235    0.5625   -0.9471 C   0  0  0  0  0  0  0  0  0  0  0  0
    2.8421   -0.8101   -0.7166 C   0  0  0  0  0  0  0  0  0  0  0  0
    3.8472   -1.8128   -0.8723 C   0  0  0  0  0  0  0  0  0  0  0  0
    5.1437   -1.4886   -1.2526 C   0  0  0  0  0  0  0  0  0  0  0  0
    5.5193   -0.1432   -1.4868 C   0  0  0  0  0  0  0  0  0  0  0  0
    4.5671    0.8537   -1.3245 C   0  0  0  0  0  3  0  0  0  0  0  0
    2.3402    1.6737   -0.7307 C   0  0  0  0  0  0  0  0  0  0  0  0
   -3.6206    2.4659   -1.4447 H   0  0  0  0  0  0  0  0  0  0  0  0
   -5.9434    1.6940   -1.9571 H   0  0  0  0  0  0  0  0  0  0  0  0
   -6.5808   -0.7239   -1.6279 H   0  0  0  0  0  0  0  0  0  0  0  0
   -4.8662   -2.3293   -0.7680 H   0  0  0  0  0  0  0  0  0  0  0  0
   -2.8553   -2.7702    0.2804 H   0  0  0  0  0  0  0  0  0  0  0  0
    0.3925   -3.2019    0.3728 H   0  0  0  0  0  0  0  0  0  0  0  0
   -1.1677   -3.5132    1.2209 H   0  0  0  0  0  0  0  0  0  0  0  0
    0.5280   -2.9179    2.8825 H   0  0  0  0  0  0  0  0  0  0  0  0
    1.1055   -1.5625    1.9019 H   0  0  0  0  0  0  0  0  0  0  0  0
   -1.3827   -1.6931    3.6888 H   0  0  0  0  0  0  0  0  0  0  0  0
   -1.3994   -0.5969    2.2987 H   0  0  0  0  0  0  0  0  0  0  0  0
    0.8435   -0.5869    4.4088 H   0  0  0  0  0  0  0  0  0  0  0  0
   -0.6087    0.4222    4.5287 H   0  0  0  0  0  0  0  0  0  0  0  0
    1.5222    1.5303    3.5636 H   0  0  0  0  0  0  0  0  0  0  0  0
    1.3101    0.5410    2.1107 H   0  0  0  0  0  0  0  0  0  0  0  0
   -0.6706    2.6121    3.2417 H   0  0  0  0  0  0  0  0  0  0  0  0
   -1.0370    1.6066    1.8293 H   0  0  0  0  0  0  0  0  0  0  0  0
    1.5359    3.2643    1.7687 H   0  0  0  0  0  0  0  0  0  0  0  0
   -0.0081    4.1225    1.6271 H   0  0  0  0  0  0  0  0  0  0  0  0
   -0.6440    2.8519   -0.3871 H   0  0  0  0  0  0  0  0  0  0  0  0
    0.9067    3.7437   -0.5728 H   0  0  0  0  0  0  0  0  0  0  0  0
    3.5467   -2.8544   -0.6882 H   0  0  0  0  0  0  0  0  0  0  0  0
    5.8869   -2.2925   -1.3721 H   0  0  0  0  0  0  0  0  0  0  0  0
    6.5475    0.1068   -1.7846 H   0  0  0  0  0  0  0  0  0  0  0  0
    4.8406    1.9090   -1.4861 H   0  0  0  0  0  0  0  0  0  0  0  0
    2.8168    2.6749   -0.7435 H   0  0  0  0  0  0  0  0  0  0  0  0
  3 12  1  0  0  0  0
  4 19  1  0  0  0  0
  5 11  2  0  0  0  0
  6  5  1  0  0  0  0
  6  1  1  0  0  0  0
  7  6  2  0  0  0  0
  8  9  2  0  0  0  0
  8  7  1  0  0  0  0
  9 10  1  0  0  0  0
 10 30  1  0  0  0  0
 10  5  1  0  0  0  0
 11  3  1  0  0  0  0
 11 31  1  0  0  0  0
 12 33  1  0  0  0  0
 12 13  1  0  0  0  0
 13 34  1  0  0  0  0
 13 14  1  0  0  0  0
 14 36  1  0  0  0  0
 14 15  1  0  0  0  0
 15 38  1  0  0  0  0
 15 39  1  0  0  0  0
 16 40  1  0  0  0  0
 16 15  1  0  0  0  0
 17 16  1  0  0  0  0
 17 42  1  0  0  0  0
 18 45  1  0  0  0  0
 18 44  1  0  0  0  0
 18 17  1  0  0  0  0
 19 18  1  0  0  0  0
 20 26  2  0  0  0  0
 20 21  1  0  0  0  0
 21  2  1  0  0  0  0
 22 21  2  0  0  0  0
 22 48  1  0  0  0  0
 23 22  1  0  0  0  0
 24 25  1  0  0  0  0
 24 23  2  0  0  0  0
 25 20  1  0  0  0  0
 26  4  1  0  0  0  0
 27  7  1  0  0  0  0
 28  8  1  0  0  0  0
 29  9  1  0  0  0  0
 32 12  1  0  0  0  0
 35 13  1  0  0  0  0
 37 14  1  0  0  0  0
 41 16  1  0  0  0  0
 43 17  1  0  0  0  0
 46 19  1  0  0  0  0
 47 19  1  0  0  0  0
 49 23  1  0  0  0  0
 50 24  1  0  0  0  0
 51 25  1  0  0  0  0
 52 26  1  0  0  0  0
M  CHG  2   1  -1   2  -1
M  END
