2,3,5,7
 OpenBabel05122313063D

 61 61  0  0  0  0  0  0  0  0999 V2000
    3.7643    3.4249   -0.1711 S   0  0  0  0  0  0  0  0  0  0  0  0
   -0.7020   -0.9963   -0.2610 O   0  5  0  0  0  0  0  0  0  0  0  0
    2.2372   -1.8867    0.1149 O   0  5  0  0  0  0  0  0  0  0  0  0
    6.3516   -2.3173   -0.5012 O   0  0  0  0  0  0  0  0  0  0  0  0
    0.2907    1.6496    0.0171 N   0  0  0  0  0  2  0  0  0  0  0  0
    1.2048    2.6629   -0.0375 N   0  0  0  0  0  0  0  0  0  0  0  0
    2.7514    0.8829   -0.1053 N   0  0  0  0  0  2  0  0  0  0  0  0
   -1.8725   -0.4244   -0.2324 C   0  0  0  0  0  0  0  0  0  0  0  0
   -3.0609   -1.2498   -0.3170 C   0  0  0  0  0  0  0  0  0  0  0  0
   -4.3102   -0.6313   -0.2809 C   0  0  0  0  0  0  0  0  0  0  0  0
   -5.2023   -1.2699   -0.3351 H   0  0  0  0  0  0  0  0  0  0  0  0
   -4.5149    0.7743   -0.1835 C   0  0  0  0  0  0  0  0  0  0  0  0
   -3.3771    1.5659   -0.1166 C   0  0  0  0  0  0  0  0  0  0  0  0
   -3.4593    2.6608   -0.0488 H   0  0  0  0  0  0  0  0  0  0  0  0
   -2.0612    1.0146   -0.1268 C   0  0  0  0  0  0  0  0  0  0  0  0
   -0.9825    1.9619   -0.0823 C   0  0  0  0  0  3  0  0  0  0  0  0
   -1.2339    3.0407   -0.1560 H   0  0  0  0  0  0  0  0  0  0  0  0
    2.4477    2.2305   -0.0990 C   0  0  0  0  0  0  0  0  0  0  0  0
    3.9847    0.4188   -0.2659 C   0  0  0  0  0  3  0  0  0  0  0  0
    4.7783    1.1738   -0.4280 H   0  0  0  0  0  0  0  0  0  0  0  0
    4.4092   -0.9335   -0.2666 C   0  0  0  0  0  0  0  0  0  0  0  0
    3.4874   -2.0414   -0.0577 C   0  0  0  0  0  0  0  0  0  0  0  0
    3.9612   -3.4721   -0.0295 C   0  0  0  0  0  0  0  0  0  0  0  0
    3.0837   -4.1182    0.1577 H   0  0  0  0  0  0  0  0  0  0  0  0
    4.7448   -3.6235    0.7376 H   0  0  0  0  0  0  0  0  0  0  0  0
    4.4551   -3.7445   -0.9822 H   0  0  0  0  0  0  0  0  0  0  0  0
    5.8632   -1.1857   -0.4841 C   0  0  0  0  0  0  0  0  0  0  0  0
    6.7987    0.0079   -0.6973 C   0  0  0  0  0  0  0  0  0  0  0  0
    7.8162   -0.3968   -0.8395 H   0  0  0  0  0  0  0  0  0  0  0  0
    6.8034    0.6970    0.1719 H   0  0  0  0  0  0  0  0  0  0  0  0
    6.5202    0.6042   -1.5901 H   0  0  0  0  0  0  0  0  0  0  0  0
    2.8023    4.9637   -0.2042 C   0  0  0  0  0  0  0  0  0  0  0  0
    3.5481    5.7797   -0.2488 H   0  0  0  0  0  0  0  0  0  0  0  0
    2.1847    5.0513    0.7082 H   0  0  0  0  0  0  0  0  0  0  0  0
    2.1444    4.9900   -1.0921 H   0  0  0  0  0  0  0  0  0  0  0  0
   -2.9226   -2.7807   -0.4413 C   0  0  0  0  0  0  0  0  0  0  0  0
   -2.1519   -3.3457    0.7768 C   0  0  0  0  0  0  0  0  0  0  0  0
   -2.0516   -4.4476    0.6889 H   0  0  0  0  0  0  0  0  0  0  0  0
   -2.6976   -3.1297    1.7191 H   0  0  0  0  0  0  0  0  0  0  0  0
   -1.1397   -2.9053    0.8345 H   0  0  0  0  0  0  0  0  0  0  0  0
   -2.1665   -3.1276   -1.7462 C   0  0  0  0  0  0  0  0  0  0  0  0
   -2.0578   -4.2281   -1.8444 H   0  0  0  0  0  0  0  0  0  0  0  0
   -1.1603   -2.6710   -1.7515 H   0  0  0  0  0  0  0  0  0  0  0  0
   -2.7273   -2.7597   -2.6296 H   0  0  0  0  0  0  0  0  0  0  0  0
   -4.2923   -3.4818   -0.4898 C   0  0  0  0  0  0  0  0  0  0  0  0
   -4.1423   -4.5766   -0.5793 H   0  0  0  0  0  0  0  0  0  0  0  0
   -4.8954   -3.1581   -1.3623 H   0  0  0  0  0  0  0  0  0  0  0  0
   -4.8878   -3.3014    0.4287 H   0  0  0  0  0  0  0  0  0  0  0  0
   -5.9465    1.3339   -0.1631 C   0  0  0  0  0  0  0  0  0  0  0  0
   -6.7051    0.7553    1.0532 C   0  0  0  0  0  0  0  0  0  0  0  0
   -7.7474    1.1360    1.0815 H   0  0  0  0  0  0  0  0  0  0  0  0
   -6.2068    1.0415    2.0016 H   0  0  0  0  0  0  0  0  0  0  0  0
   -6.7534   -0.3515    1.0191 H   0  0  0  0  0  0  0  0  0  0  0  0
   -6.6751    0.9259   -1.4640 C   0  0  0  0  0  0  0  0  0  0  0  0
   -7.7167    1.3096   -1.4656 H   0  0  0  0  0  0  0  0  0  0  0  0
   -6.7232   -0.1752   -1.5803 H   0  0  0  0  0  0  0  0  0  0  0  0
   -6.1539    1.3354   -2.3528 H   0  0  0  0  0  0  0  0  0  0  0  0
   -5.9625    2.8682   -0.0592 C   0  0  0  0  0  0  0  0  0  0  0  0
   -7.0085    3.2358   -0.0471 H   0  0  0  0  0  0  0  0  0  0  0  0
   -5.4513    3.3435   -0.9207 H   0  0  0  0  0  0  0  0  0  0  0  0
   -5.4731    3.2223    0.8706 H   0  0  0  0  0  0  0  0  0  0  0  0
  1 18  1  0  0  0  0
  2  8  1  0  0  0  0
  4 27  2  0  0  0  0
  6  5  1  0  0  0  0
  7 18  1  0  0  0  0
  8 15  1  0  0  0  0
  9 10  1  0  0  0  0
  9  8  2  0  0  0  0
 10 12  2  0  0  0  0
 11 10  1  0  0  0  0
 12 49  1  0  0  0  0
 12 13  1  0  0  0  0
 13 14  1  0  0  0  0
 15 13  2  0  0  0  0
 15 16  1  0  0  0  0
 16  5  1  0  0  0  0
 17 16  1  0  0  0  0
 18  6  2  0  0  0  0
 19  7  1  0  0  0  0
 20 19  1  0  0  0  0
 21 19  1  0  0  0  0
 21 22  2  0  0  0  0
 22 23  1  0  0  0  0
 22  3  1  0  0  0  0
 23 24  1  0  0  0  0
 23 25  1  0  0  0  0
 26 23  1  0  0  0  0
 27 21  1  0  0  0  0
 28 27  1  0  0  0  0
 28 30  1  0  0  0  0
 29 28  1  0  0  0  0
 31 28  1  0  0  0  0
 32  1  1  0  0  0  0
 32 34  1  0  0  0  0
 33 32  1  0  0  0  0
 35 32  1  0  0  0  0
 36  9  1  0  0  0  0
 36 37  1  0  0  0  0
 37 40  1  0  0  0  0
 37 39  1  0  0  0  0
 38 37  1  0  0  0  0
 41 36  1  0  0  0  0
 42 41  1  0  0  0  0
 43 41  1  0  0  0  0
 44 41  1  0  0  0  0
 45 36  1  0  0  0  0
 45 48  1  0  0  0  0
 46 45  1  0  0  0  0
 47 45  1  0  0  0  0
 49 58  1  0  0  0  0
 49 50  1  0  0  0  0
 50 51  1  0  0  0  0
 50 52  1  0  0  0  0
 53 50  1  0  0  0  0
 54 49  1  0  0  0  0
 55 54  1  0  0  0  0
 56 54  1  0  0  0  0
 57 54  1  0  0  0  0
 58 59  1  0  0  0  0
 58 61  1  0  0  0  0
 60 58  1  0  0  0  0
M  CHG  2   2  -1   3  -1
M  END
