5,8,9,10
 OpenBabel05122313063D

 32 34  0  0  1  0  0  0  0  0999 V2000
    2.4222   -2.6070    2.8151 Cl  0  0  0  0  0  0  0  0  0  0  0  0
    6.9220   -1.6976   -0.0863 Cl  0  0  0  0  0  0  0  0  0  0  0  0
   -7.7679   -0.2409   -0.0008 Cl  0  0  0  0  0  0  0  0  0  0  0  0
   -3.4286   -0.8565    3.4166 Cl  0  0  0  0  0  0  0  0  0  0  0  0
    1.0671   -1.5458    0.4901 O   0  5  0  0  0  0  0  0  0  0  0  0
    2.9485   -0.7216   -3.2853 O   0  0  0  0  0  0  0  0  0  0  0  0
   -3.5371    0.5546   -2.8556 O   0  0  0  0  0  0  0  0  0  0  0  0
   -1.5697   -0.3217    0.9807 O   0  5  0  0  0  0  0  0  0  0  0  0
    0.9598   -0.5610   -2.1496 N   0  0  0  0  0  2  0  0  0  0  0  0
   -1.4715    0.3833   -1.8223 N   0  0  0  0  0  2  0  0  0  0  0  0
    2.3605   -1.6097    0.2723 C   0  0  0  0  0  0  0  0  0  0  0  0
    3.1933   -2.0928    1.3381 C   0  0  0  0  0  0  0  0  0  0  0  0
    4.5817   -2.1289    1.2402 C   0  0  0  0  0  0  0  0  0  0  0  0
    5.1813   -1.7271    0.0300 C   0  0  0  0  0  0  0  0  0  0  0  0
    4.4051   -1.3322   -1.0593 C   0  0  0  0  0  0  0  0  0  0  0  0
    3.0044   -1.2451   -0.9580 C   0  0  0  0  0  0  0  0  0  0  0  0
    2.3130   -0.8160   -2.2201 C   0  0  0  0  0  0  0  0  0  0  0  0
    0.3031   -0.1555   -3.3858 C   0  0  0  0  0  0  0  0  0  0  0  0
   -0.8092    0.8542   -3.0277 C   0  0  0  0  0  0  0  0  0  0  0  0
   -2.8761    0.3082   -1.8386 C   0  0  0  0  0  0  0  0  0  0  0  0
   -3.4884   -0.0424   -0.5468 C   0  0  2  0  0  3  0  0  0  0  0  0
   -4.8602   -0.1098   -0.3199 C   0  0  1  0  0  3  0  0  0  0  0  0
   -6.0738   -0.2540    0.2536 C   0  0  2  0  0  3  0  0  0  0  0  0
   -5.0914   -0.4267    1.1953 C   0  0  2  0  0  3  0  0  0  0  0  0
   -3.8486   -0.5144    1.7656 C   0  0  0  0  0  0  0  0  0  0  0  0
   -2.8348   -0.2974    0.7417 C   0  0  0  0  0  0  0  0  0  0  0  0
    5.1907   -2.4595    2.0914 H   0  0  0  0  0  0  0  0  0  0  0  0
    4.8541   -1.0592   -2.0236 H   0  0  0  0  0  0  0  0  0  0  0  0
    1.0594    0.2500   -4.0887 H   0  0  0  0  0  0  0  0  0  0  0  0
   -0.1561   -1.0355   -3.8918 H   0  0  0  0  0  0  0  0  0  0  0  0
   -1.5541    0.9788   -3.8385 H   0  0  0  0  0  0  0  0  0  0  0  0
   -0.3446    1.8460   -2.8242 H   0  0  0  0  0  0  0  0  0  0  0  0
  2 14  1  0  0  0  0
  3 23  1  0  0  0  0
  6 17  2  0  0  0  0
  7 20  2  0  0  0  0
 11  5  1  0  0  0  0
 11 12  1  0  0  0  0
 12  1  1  0  0  0  0
 13 12  2  0  0  0  0
 13 27  1  0  0  0  0
 14 13  1  0  0  0  0
 15 16  1  0  0  0  0
 15 14  2  0  0  0  0
 16 11  2  0  0  0  0
 17  9  1  0  0  0  0
 17 16  1  0  0  0  0
 18 19  1  0  0  0  0
 18  9  1  0  0  0  0
 19 32  1  0  0  0  0
 19 10  1  0  0  0  0
 20 10  1  0  0  0  0
 21 20  1  1  0  0  0
 21 22  1  0  0  0  0
 21 26  1  0  0  0  0
 22 23  1  0  0  0  0
 22 24  1  0  0  0  0
 23 24  1  0  0  0  0
 24 25  1  0  0  0  0
 25  4  1  0  0  0  0
 26  8  1  0  0  0  0
 26 25  2  0  0  0  0
 28 15  1  0  0  0  0
 29 18  1  0  0  0  0
 30 18  1  0  0  0  0
 31 19  1  0  0  0  0
M  CHG  2   5  -1   8  -1
M  END
