1,2,3,4
 OpenBabel05122313063D

 42 44  0  0  1  0  0  0  0  0999 V2000
   -1.2352   -1.8261   -0.0027 O   0  0  0  0  0  1  0  0  0  0  0  0
    1.2352   -1.8261    0.0027 O   0  5  0  0  0  0  0  0  0  0  0  0
   -1.2624    0.9215   -0.0174 N   0  0  0  0  0  2  0  0  0  0  0  0
    1.2624    0.9214    0.0174 N   0  0  0  0  0  2  0  0  0  0  0  0
   -2.5261   -1.7444    0.0064 C   0  0  1  0  0  3  0  0  0  0  0  0
   -3.2920   -2.9563    0.0142 C   0  0  0  0  0  0  0  0  0  0  0  0
   -2.7281   -3.9001    0.0105 H   0  0  0  0  0  0  0  0  0  0  0  0
   -4.6782   -2.9314    0.0270 C   0  0  0  0  0  0  0  0  0  0  0  0
   -5.2341   -3.8823    0.0332 H   0  0  0  0  0  0  0  0  0  0  0  0
   -5.3946   -1.7023    0.0327 C   0  0  0  0  0  0  0  0  0  0  0  0
   -6.4940   -1.7014    0.0431 H   0  0  0  0  0  0  0  0  0  0  0  0
   -4.6882   -0.5115    0.0245 C   0  0  0  0  0  0  0  0  0  0  0  0
   -5.2222    0.4527    0.0281 H   0  0  0  0  0  0  0  0  0  0  0  0
   -3.2591   -0.4928    0.0102 C   0  0  0  0  0  0  0  0  0  0  0  0
   -2.5805    0.7521   -0.0016 C   0  0  0  0  0  0  0  0  0  0  0  0
   -3.2145    1.6566    0.0056 H   0  0  0  0  0  0  0  0  0  0  0  0
   -0.6877    2.1983   -0.0277 C   0  0  0  0  0  0  0  0  0  0  0  0
   -1.5087    3.4572   -0.0869 C   0  0  0  0  0  0  0  0  0  0  0  0
   -2.3099    3.3510   -0.8497 H   0  0  0  0  0  0  0  0  0  0  0  0
   -2.0370    3.6065    0.8839 H   0  0  0  0  0  0  0  0  0  0  0  0
   -0.6438    4.6830   -0.4127 C   0  0  0  0  0  0  0  0  0  0  0  0
   -0.3854    4.6723   -1.4942 H   0  0  0  0  0  0  0  0  0  0  0  0
   -1.2263    5.6095   -0.2356 H   0  0  0  0  0  0  0  0  0  0  0  0
    0.6438    4.6830    0.4126 C   0  0  0  0  0  0  0  0  0  0  0  0
    0.3855    4.6724    1.4941 H   0  0  0  0  0  0  0  0  0  0  0  0
    1.2264    5.6095    0.2355 H   0  0  0  0  0  0  0  0  0  0  0  0
    1.5087    3.4572    0.0869 C   0  0  0  0  0  0  0  0  0  0  0  0
    2.0371    3.6064   -0.8839 H   0  0  0  0  0  0  0  0  0  0  0  0
    2.3099    3.3510    0.8497 H   0  0  0  0  0  0  0  0  0  0  0  0
    0.6877    2.1983    0.0277 C   0  0  0  0  0  0  0  0  0  0  0  0
    2.5805    0.7521    0.0017 C   0  0  0  0  0  0  0  0  0  0  0  0
    3.2145    1.6566   -0.0055 H   0  0  0  0  0  0  0  0  0  0  0  0
    3.2590   -0.4929   -0.0102 C   0  0  0  0  0  0  0  0  0  0  0  0
    4.6882   -0.5115   -0.0245 C   0  0  0  0  0  3  0  0  0  0  0  0
    5.2222    0.4527   -0.0280 H   0  0  0  0  0  0  0  0  0  0  0  0
    5.3946   -1.7024   -0.0326 C   0  0  0  0  0  0  0  0  0  0  0  0
    6.4940   -1.7014   -0.0430 H   0  0  0  0  0  0  0  0  0  0  0  0
    4.6782   -2.9314   -0.0270 C   0  0  0  0  0  0  0  0  0  0  0  0
    5.2341   -3.8823   -0.0332 H   0  0  0  0  0  0  0  0  0  0  0  0
    3.2920   -2.9563   -0.0142 C   0  0  0  0  0  0  0  0  0  0  0  0
    2.7281   -3.9001   -0.0106 H   0  0  0  0  0  0  0  0  0  0  0  0
    2.5261   -1.7444   -0.0064 C   0  0  0  0  0  0  0  0  0  0  0  0
  3 15  1  0  0  0  0
  4 30  1  0  0  0  0
  5  1  1  1  0  0  0
  5 14  1  0  0  0  0
  5  6  1  0  0  0  0
  6  8  2  0  0  0  0
  7  6  1  0  0  0  0
  8 10  1  0  0  0  0
  8  9  1  0  0  0  0
 10 11  1  0  0  0  0
 12 13  1  0  0  0  0
 12 10  2  0  0  0  0
 14 12  1  0  0  0  0
 15 16  1  0  0  0  0
 15 14  2  0  0  0  0
 17  3  1  0  0  0  0
 17 30  2  0  0  0  0
 18 17  1  0  0  0  0
 18 20  1  0  0  0  0
 19 18  1  0  0  0  0
 21 23  1  0  0  0  0
 21 18  1  0  0  0  0
 21 24  1  0  0  0  0
 22 21  1  0  0  0  0
 24 25  1  0  0  0  0
 26 24  1  0  0  0  0
 27 24  1  0  0  0  0
 27 29  1  0  0  0  0
 28 27  1  0  0  0  0
 30 27  1  0  0  0  0
 31  4  1  0  0  0  0
 32 31  1  0  0  0  0
 33 42  1  0  0  0  0
 33 31  2  0  0  0  0
 34 33  1  0  0  0  0
 35 34  1  0  0  0  0
 36 38  2  0  0  0  0
 36 34  1  0  0  0  0
 37 36  1  0  0  0  0
 38 40  1  0  0  0  0
 39 38  1  0  0  0  0
 40 41  1  0  0  0  0
 40 42  2  0  0  0  0
 42  2  1  0  0  0  0
M  CHG  1   2  -1
M  END
