1,2,3,4
 OpenBabel05122313063D

 64 65  0  0  1  0  0  0  0  0999 V2000
   -1.0741   -0.2026   -1.7824 O   0  5  0  0  0  0  0  0  0  0  0  0
    1.6743   -1.5945    0.7934 O   0  0  0  0  0  1  0  0  0  0  0  0
   -1.3621   -1.6485    0.3270 N   0  0  0  0  0  2  0  0  0  0  0  0
    1.9676   -0.1251   -1.2992 N   0  0  0  0  0  2  0  0  0  0  0  0
   -1.5692    2.2305    2.9427 C   0  0  0  0  0  0  0  0  0  0  0  0
   -1.8713    0.8615    2.3218 C   0  0  0  0  0  0  0  0  0  0  0  0
   -1.3366   -0.3121    3.1564 C   0  0  0  0  0  0  0  0  0  0  0  0
   -1.9106   -1.6931    2.8019 C   0  0  0  0  0  0  0  0  0  0  0  0
   -1.3074   -2.3992    1.5718 C   0  0  0  0  0  0  0  0  0  0  0  0
   -2.1456    3.4275    2.1674 C   0  0  0  0  0  0  0  0  0  0  0  0
   -1.5281    3.6578    0.7793 C   0  0  0  0  0  0  0  0  0  0  0  0
    3.1149   -0.4097   -0.6613 C   0  0  0  0  0  0  0  0  0  0  0  0
    4.3855    0.0913   -1.0939 C   0  0  0  0  0  0  0  0  0  0  0  0
   -0.0783    4.1624    0.8229 C   0  0  0  0  0  0  0  0  0  0  0  0
    0.6926    4.0252   -0.4981 C   0  0  0  0  0  0  0  0  0  0  0  0
    0.8078    2.5650   -0.9459 C   0  0  0  0  0  0  0  0  0  0  0  0
    1.8777    2.2743   -1.9985 C   0  0  0  0  0  0  0  0  0  0  0  0
    1.8877    0.7924   -2.4259 C   0  0  0  0  0  0  0  0  0  0  0  0
   -2.5001   -1.4305   -0.3513 C   0  0  0  0  0  0  0  0  0  0  0  0
   -2.3052   -0.5581   -1.5293 C   0  0  0  0  0  0  0  0  0  0  0  0
   -3.3086   -0.0521   -2.3856 C   0  0  0  0  0  0  0  0  0  0  0  0
   -4.6959   -0.2660   -2.4048 C   0  0  0  0  0  0  0  0  0  0  0  0
   -5.4819   -1.0707   -1.5768 C   0  0  0  0  0  0  0  0  0  0  0  0
   -5.0289   -1.8608   -0.4983 C   0  0  0  0  0  0  0  0  0  0  0  0
   -3.7514   -2.0127    0.0321 C   0  0  0  0  0  3  0  0  0  0  0  0
    2.9117   -1.2764    0.5208 C   0  0  1  0  0  3  0  0  0  0  0  0
    3.9083   -1.7846    1.3836 C   0  0  0  0  0  0  0  0  0  0  0  0
    5.3022   -1.6194    1.3797 C   0  0  0  0  0  0  0  0  0  0  0  0
    6.1066   -0.8826    0.5072 C   0  0  0  0  0  0  0  0  0  0  0  0
    5.6678   -0.1189   -0.5956 C   0  0  0  0  0  0  0  0  0  0  0  0
   -0.4679    2.3449    3.0578 H   0  0  0  0  0  0  0  0  0  0  0  0
   -1.9742    2.2492    3.9789 H   0  0  0  0  0  0  0  0  0  0  0  0
   -1.4512    0.8048    1.2960 H   0  0  0  0  0  0  0  0  0  0  0  0
   -2.9740    0.7542    2.2047 H   0  0  0  0  0  0  0  0  0  0  0  0
   -0.2255   -0.3411    3.0960 H   0  0  0  0  0  0  0  0  0  0  0  0
   -1.5762   -0.1131    4.2245 H   0  0  0  0  0  0  0  0  0  0  0  0
   -3.0134   -1.6040    2.6917 H   0  0  0  0  0  0  0  0  0  0  0  0
   -1.7484   -2.3856    3.6559 H   0  0  0  0  0  0  0  0  0  0  0  0
   -0.2358   -2.6021    1.7671 H   0  0  0  0  0  0  0  0  0  0  0  0
   -1.7981   -3.3923    1.4417 H   0  0  0  0  0  0  0  0  0  0  0  0
   -3.2428    3.2805    2.0580 H   0  0  0  0  0  0  0  0  0  0  0  0
   -2.0227    4.3495    2.7781 H   0  0  0  0  0  0  0  0  0  0  0  0
   -2.1493    4.3833    0.2102 H   0  0  0  0  0  0  0  0  0  0  0  0
   -1.5818    2.7098    0.2038 H   0  0  0  0  0  0  0  0  0  0  0  0
    4.3394    0.7493   -1.9731 H   0  0  0  0  0  0  0  0  0  0  0  0
    0.4827    3.5945    1.5983 H   0  0  0  0  0  0  0  0  0  0  0  0
   -0.0706    5.2210    1.1633 H   0  0  0  0  0  0  0  0  0  0  0  0
    0.2096    4.6343   -1.2954 H   0  0  0  0  0  0  0  0  0  0  0  0
    1.7111    4.4525   -0.3640 H   0  0  0  0  0  0  0  0  0  0  0  0
    1.0247    1.9406   -0.0511 H   0  0  0  0  0  0  0  0  0  0  0  0
   -0.1691    2.1966   -1.3236 H   0  0  0  0  0  0  0  0  0  0  0  0
    2.8770    2.5643   -1.6045 H   0  0  0  0  0  0  0  0  0  0  0  0
    1.7107    2.8919   -2.9084 H   0  0  0  0  0  0  0  0  0  0  0  0
    0.9396    0.5651   -2.9528 H   0  0  0  0  0  0  0  0  0  0  0  0
    2.7116    0.5992   -3.1488 H   0  0  0  0  0  0  0  0  0  0  0  0
   -2.8974    0.6184   -3.1571 H   0  0  0  0  0  0  0  0  0  0  0  0
   -5.2345    0.2774   -3.1990 H   0  0  0  0  0  0  0  0  0  0  0  0
   -6.5619   -1.0986   -1.7879 H   0  0  0  0  0  0  0  0  0  0  0  0
   -5.8090   -2.4486    0.0142 H   0  0  0  0  0  0  0  0  0  0  0  0
   -3.6892   -2.6987    0.8886 H   0  0  0  0  0  0  0  0  0  0  0  0
    3.4834   -2.4094    2.1854 H   0  0  0  0  0  0  0  0  0  0  0  0
    5.8308   -2.1487    2.1900 H   0  0  0  0  0  0  0  0  0  0  0  0
    7.1904   -0.8919    0.6998 H   0  0  0  0  0  0  0  0  0  0  0  0
    6.4648    0.3992   -1.1552 H   0  0  0  0  0  0  0  0  0  0  0  0
  1 20  1  0  0  0  0
  3  9  1  0  0  0  0
  4 12  1  0  0  0  0
  5 31  1  0  0  0  0
  5 32  1  0  0  0  0
  6  5  1  0  0  0  0
  6  7  1  0  0  0  0
  7 36  1  0  0  0  0
  8  7  1  0  0  0  0
  8 38  1  0  0  0  0
  9 39  1  0  0  0  0
  9  8  1  0  0  0  0
 10 42  1  0  0  0  0
 10  5  1  0  0  0  0
 11 14  1  0  0  0  0
 11 10  1  0  0  0  0
 12 26  1  0  0  0  0
 13 12  2  0  0  0  0
 13 30  1  0  0  0  0
 14 47  1  0  0  0  0
 14 46  1  0  0  0  0
 15 49  1  0  0  0  0
 15 14  1  0  0  0  0
 16 15  1  0  0  0  0
 16 50  1  0  0  0  0
 17 52  1  0  0  0  0
 17 16  1  0  0  0  0
 18 17  1  0  0  0  0
 18  4  1  0  0  0  0
 19 25  1  0  0  0  0
 19  3  1  0  0  0  0
 20 19  2  0  0  0  0
 21 20  1  0  0  0  0
 22 21  2  0  0  0  0
 22 23  1  0  0  0  0
 23 24  2  0  0  0  0
 24 59  1  0  0  0  0
 24 25  1  0  0  0  0
 25 60  1  0  0  0  0
 26  2  1  1  0  0  0
 26 27  1  0  0  0  0
 27 61  1  0  0  0  0
 28 27  2  0  0  0  0
 28 62  1  0  0  0  0
 29 63  1  0  0  0  0
 29 28  1  0  0  0  0
 30 29  2  0  0  0  0
 33  6  1  0  0  0  0
 34  6  1  0  0  0  0
 35  7  1  0  0  0  0
 37  8  1  0  0  0  0
 40  9  1  0  0  0  0
 41 10  1  0  0  0  0
 43 11  1  0  0  0  0
 44 11  1  0  0  0  0
 45 13  1  0  0  0  0
 48 15  1  0  0  0  0
 51 16  1  0  0  0  0
 53 17  1  0  0  0  0
 54 18  1  0  0  0  0
 55 18  1  0  0  0  0
 56 21  1  0  0  0  0
 57 22  1  0  0  0  0
 58 23  1  0  0  0  0
 64 30  1  0  0  0  0
M  CHG  1   1  -1
M  END
