5,8,9,10
 OpenBabel05122313063D

 40 41  0  0  1  0  0  0  0  0999 V2000
    2.1916   -0.5555   -2.3138 S   0  0  0  0  0  0  0  0  0  0  0  0
   -2.1916   -0.5566    2.3134 S   0  0  0  0  0  0  0  0  0  0  0  0
    1.6285   -1.9052   -2.6017 O   0  0  0  0  0  1  0  0  0  0  0  0
    3.0347    0.0823   -3.3500 O   0  0  0  0  0  1  0  0  0  0  0  0
    1.0958    0.4194   -1.8109 O   0  0  0  0  0  1  0  0  0  0  0  0
   -1.6287   -1.9065    2.6007 O   0  0  0  0  0  1  0  0  0  0  0  0
   -3.0347    0.0808    3.3499 O   0  0  0  0  0  1  0  0  0  0  0  0
   -1.0958    0.4184    1.8111 O   0  0  0  0  0  1  0  0  0  0  0  0
    1.2653   -1.3819    0.3933 N   0  0  0  0  0  2  0  0  0  0  0  0
   -1.2653   -1.3818   -0.3938 N   0  0  0  0  0  2  0  0  0  0  0  0
    1.5157   -3.7830   -0.1669 C   0  0  0  0  0  0  0  0  0  0  0  0
    1.1110   -4.6164    0.4407 H   0  0  0  0  0  0  0  0  0  0  0  0
    2.5883   -3.6479    0.0589 H   0  0  0  0  0  0  0  0  0  0  0  0
    1.4185   -4.0462   -1.2404 H   0  0  0  0  0  0  0  0  0  0  0  0
    0.7499   -2.5226    0.0741 C   0  0  2  0  0  3  0  0  0  0  0  0
    2.6568   -1.1509    0.3804 C   0  0  0  0  0  0  0  0  0  0  0  0
    3.2394   -0.7298   -0.8372 C   0  0  0  0  0  0  0  0  0  0  0  0
    4.5940   -0.3828   -0.8899 C   0  0  0  0  0  0  0  0  0  0  0  0
    5.0015   -0.0505   -1.8565 H   0  0  0  0  0  0  0  0  0  0  0  0
    5.3785   -0.4505    0.2722 C   0  0  0  0  0  0  0  0  0  0  0  0
    6.4441   -0.1794    0.2324 H   0  0  0  0  0  0  0  0  0  0  0  0
    4.7979   -0.8538    1.4861 C   0  0  0  0  0  0  0  0  0  0  0  0
    5.4070   -0.8974    2.4015 H   0  0  0  0  0  0  0  0  0  0  0  0
    3.4382   -1.1979    1.5476 C   0  0  0  0  0  0  0  0  0  0  0  0
    2.9656   -1.4961    2.4948 H   0  0  0  0  0  0  0  0  0  0  0  0
   -1.5156   -3.7832    0.1658 C   0  0  0  0  0  0  0  0  0  0  0  0
   -2.5889   -3.6468   -0.0558 H   0  0  0  0  0  0  0  0  0  0  0  0
   -1.4146   -4.0501    1.2379 H   0  0  0  0  0  0  0  0  0  0  0  0
   -1.1135   -4.6148   -0.4461 H   0  0  0  0  0  0  0  0  0  0  0  0
   -0.7498   -2.5225   -0.0745 C   0  0  1  0  0  3  0  0  0  0  0  0
   -2.6567   -1.1509   -0.3809 C   0  0  0  0  0  0  0  0  0  0  0  0
   -3.4380   -1.1974   -1.5482 C   0  0  0  0  0  0  0  0  0  0  0  0
   -2.9654   -1.4952   -2.4955 H   0  0  0  0  0  0  0  0  0  0  0  0
   -4.7977   -0.8532   -1.4866 C   0  0  0  0  0  0  0  0  0  0  0  0
   -5.4068   -0.8965   -2.4021 H   0  0  0  0  0  0  0  0  0  0  0  0
   -5.3784   -0.4503   -0.2727 C   0  0  0  0  0  0  0  0  0  0  0  0
   -6.4440   -0.1791   -0.2329 H   0  0  0  0  0  0  0  0  0  0  0  0
   -4.5940   -0.3831    0.8896 C   0  0  0  0  0  0  0  0  0  0  0  0
   -5.0016   -0.0512    1.8563 H   0  0  0  0  0  0  0  0  0  0  0  0
   -3.2394   -0.7302    0.8368 C   0  0  0  0  0  0  0  0  0  0  0  0
  1  5  1  0  0  0  0
  1 17  1  0  0  0  0
  2  6  1  0  0  0  0
  2  7  1  0  0  0  0
  3  1  1  0  0  0  0
  4  1  1  0  0  0  0
  8  2  1  0  0  0  0
 10 31  1  0  0  0  0
 11 13  1  0  0  0  0
 11 15  1  0  0  0  0
 11 12  1  0  0  0  0
 14 11  1  0  0  0  0
 15  9  1  6  0  0  0
 16  9  1  0  0  0  0
 16 24  1  0  0  0  0
 17 16  2  0  0  0  0
 18 17  1  0  0  0  0
 18 20  2  0  0  0  0
 19 18  1  0  0  0  0
 20 22  1  0  0  0  0
 21 20  1  0  0  0  0
 22 24  2  0  0  0  0
 22 23  1  0  0  0  0
 24 25  1  0  0  0  0
 26 28  1  0  0  0  0
 27 26  1  0  0  0  0
 29 26  1  0  0  0  0
 30 10  1  1  0  0  0
 30 15  1  0  0  0  0
 30 26  1  0  0  0  0
 31 40  1  0  0  0  0
 32 34  1  0  0  0  0
 32 31  2  0  0  0  0
 33 32  1  0  0  0  0
 34 36  2  0  0  0  0
 35 34  1  0  0  0  0
 36 37  1  0  0  0  0
 36 38  1  0  0  0  0
 38 39  1  0  0  0  0
 40 38  2  0  0  0  0
 40  2  1  0  0  0  0
M  END
