1,2,3,4
 OpenBabel05122313063D

 43 44  0  0  1  0  0  0  0  0999 V2000
   -1.2531   -1.4309    0.0686 O   0  5  0  0  0  0  0  0  0  0  0  0
   -1.2805    1.2369   -0.3467 N   0  0  0  0  0  2  0  0  0  0  0  0
    1.2084   -1.4361    0.2371 O   0  5  0  0  0  0  0  0  0  0  0  0
    1.2920    1.2493    0.0552 N   0  0  0  0  0  2  0  0  0  0  0  0
   -2.5459   -1.3323    0.0839 C   0  0  0  0  0  0  0  0  0  0  0  0
   -3.2872   -2.5286    0.3584 C   0  0  0  0  0  0  0  0  0  0  0  0
   -2.6958   -3.4372    0.5414 H   0  0  0  0  0  0  0  0  0  0  0  0
   -4.6724   -2.5344    0.3975 C   0  0  0  0  0  0  0  0  0  0  0  0
   -5.2066   -3.4722    0.6174 H   0  0  0  0  0  0  0  0  0  0  0  0
   -5.4026   -1.3433    0.1622 C   0  0  0  0  0  0  0  0  0  0  0  0
   -6.5011   -1.3422    0.2081 H   0  0  0  0  0  0  0  0  0  0  0  0
   -4.7144   -0.1724   -0.1254 C   0  0  0  0  0  3  0  0  0  0  0  0
   -5.2965    0.7450   -0.2895 H   0  0  0  0  0  0  0  0  0  0  0  0
   -3.2887   -0.1170   -0.1811 C   0  0  0  0  0  0  0  0  0  0  0  0
   -2.5952    1.1185   -0.4855 C   0  0  0  0  0  0  0  0  0  0  0  0
   -3.3839    2.3137   -0.9796 C   0  0  0  0  0  0  0  0  0  0  0  0
   -2.8648    2.8108   -1.8215 H   0  0  0  0  0  0  0  0  0  0  0  0
   -3.5216    3.0731   -0.1804 H   0  0  0  0  0  0  0  0  0  0  0  0
   -4.3831    2.0211   -1.3396 H   0  0  0  0  0  0  0  0  0  0  0  0
   -0.6163    2.5125   -0.6202 C   0  0  0  0  0  0  0  0  0  0  0  0
   -1.2571    3.3856   -0.3851 H   0  0  0  0  0  0  0  0  0  0  0  0
   -0.3445    2.5713   -1.6985 H   0  0  0  0  0  0  0  0  0  0  0  0
    0.6484    2.5619    0.2313 C   0  0  1  0  0  0  0  0  0  0  0  0
    1.2922    3.3739   -0.1640 H   0  0  0  0  0  0  0  0  0  0  0  0
    0.3389    2.8269    1.7101 C   0  0  0  0  0  0  0  0  0  0  0  0
   -0.1322    3.8221    1.8395 H   0  0  0  0  0  0  0  0  0  0  0  0
    1.2599    2.7942    2.3244 H   0  0  0  0  0  0  0  0  0  0  0  0
   -0.3525    2.0509    2.0948 H   0  0  0  0  0  0  0  0  0  0  0  0
    3.4722    2.3714    0.1778 C   0  0  0  0  0  0  0  0  0  0  0  0
    3.0741    3.0624    0.9439 H   0  0  0  0  0  0  0  0  0  0  0  0
    3.5242    2.9306   -0.7806 H   0  0  0  0  0  0  0  0  0  0  0  0
    4.5026    2.1183    0.4748 H   0  0  0  0  0  0  0  0  0  0  0  0
    2.6130    1.1292    0.0461 C   0  0  0  0  0  0  0  0  0  0  0  0
    3.2583   -0.1621   -0.0889 C   0  0  0  0  0  0  0  0  0  0  0  0
    2.4893   -1.3829    0.0417 C   0  0  0  0  0  0  0  0  0  0  0  0
    3.1926   -2.6308   -0.0213 C   0  0  0  0  0  0  0  0  0  0  0  0
    2.5860   -3.5391    0.1037 H   0  0  0  0  0  0  0  0  0  0  0  0
    4.5588   -2.6860   -0.2476 C   0  0  0  0  0  0  0  0  0  0  0  0
    5.0619   -3.6643   -0.3026 H   0  0  0  0  0  0  0  0  0  0  0  0
    5.3082   -1.4956   -0.4170 C   0  0  0  0  0  0  0  0  0  0  0  0
    6.3886   -1.5381   -0.6162 H   0  0  0  0  0  0  0  0  0  0  0  0
    4.6615   -0.2700   -0.3284 C   0  0  0  0  0  3  0  0  0  0  0  0
    5.2554    0.6433   -0.4726 H   0  0  0  0  0  0  0  0  0  0  0  0
  1  5  1  0  0  0  0
  4 23  1  0  0  0  0
  5  6  2  0  0  0  0
  6  8  1  0  0  0  0
  6  7  1  0  0  0  0
  8  9  1  0  0  0  0
 10 11  1  0  0  0  0
 10  8  2  0  0  0  0
 12 10  1  0  0  0  0
 13 12  1  0  0  0  0
 14 12  1  0  0  0  0
 14  5  1  0  0  0  0
 15  2  1  0  0  0  0
 15 14  2  0  0  0  0
 16 15  1  0  0  0  0
 16 18  1  0  0  0  0
 17 16  1  0  0  0  0
 19 16  1  0  0  0  0
 20 21  1  0  0  0  0
 20  2  1  0  0  0  0
 20 23  1  0  0  0  0
 22 20  1  0  0  0  0
 23 24  1  6  0  0  0
 23 25  1  0  0  0  0
 25 26  1  0  0  0  0
 25 28  1  0  0  0  0
 25 27  1  0  0  0  0
 29 32  1  0  0  0  0
 29 30  1  0  0  0  0
 31 29  1  0  0  0  0
 33  4  1  0  0  0  0
 33 29  1  0  0  0  0
 34 35  1  0  0  0  0
 34 33  2  0  0  0  0
 35  3  1  0  0  0  0
 36 35  2  0  0  0  0
 36 37  1  0  0  0  0
 38 36  1  0  0  0  0
 39 38  1  0  0  0  0
 40 42  1  0  0  0  0
 40 38  2  0  0  0  0
 41 40  1  0  0  0  0
 42 34  1  0  0  0  0
 43 42  1  0  0  0  0
M  CHG  2   1  -1   3  -1
M  END
