1,2,3,4
 OpenBabel05122313063D

 37 38  0  0  0  0  0  0  0  0999 V2000
   -1.6353    1.9074   -0.2066 N   0  0  0  0  0  2  0  0  0  0  0  0
    0.9770    1.1425   -1.1371 N   0  0  0  0  0  2  0  0  0  0  0  0
   -0.7963   -0.6830    0.0863 O   0  5  0  0  0  0  0  0  0  0  0  0
    1.5653    0.0374    1.4088 O   0  5  0  0  0  0  0  0  0  0  0  0
   -6.4153   -2.3779   -0.4756 Cl  0  0  0  0  0  0  0  0  0  0  0  0
    6.5233   -2.0663   -0.9906 Cl  0  0  0  0  0  0  0  0  0  0  0  0
   -3.0948   -0.0685   -0.2274 C   0  0  0  0  0  0  0  0  0  0  0  0
   -2.0411   -1.0369   -0.0295 C   0  0  0  0  0  0  0  0  0  0  0  0
   -2.4072   -2.4172   -0.0199 C   0  0  0  0  0  0  0  0  0  0  0  0
   -1.6046   -3.1560    0.1145 H   0  0  0  0  0  0  0  0  0  0  0  0
   -3.7331   -2.8116   -0.1391 C   0  0  0  0  0  0  0  0  0  0  0  0
   -4.0042   -3.8768   -0.0995 H   0  0  0  0  0  0  0  0  0  0  0  0
   -4.7590   -1.8477   -0.3178 C   0  0  0  0  0  0  0  0  0  0  0  0
   -4.4429   -0.4979   -0.3812 C   0  0  0  0  0  0  0  0  0  0  0  0
   -5.2371    0.2455   -0.5448 H   0  0  0  0  0  0  0  0  0  0  0  0
   -2.7758    1.3084   -0.4548 C   0  0  0  0  0  3  0  0  0  0  0  0
   -3.5645    1.9204   -0.9413 H   0  0  0  0  0  0  0  0  0  0  0  0
   -1.4100    3.2426   -0.7621 C   0  0  0  0  0  0  0  0  0  0  0  0
   -1.2401    3.9456    0.0763 H   0  0  0  0  0  0  0  0  0  0  0  0
   -2.3257    3.5586   -1.3063 H   0  0  0  0  0  0  0  0  0  0  0  0
   -0.1812    3.2649   -1.7126 C   0  0  0  0  0  0  0  0  0  0  0  0
   -0.4338    3.8698   -2.6069 H   0  0  0  0  0  0  0  0  0  0  0  0
    0.6718    3.7596   -1.2096 H   0  0  0  0  0  0  0  0  0  0  0  0
    0.2815    1.8809   -2.1881 C   0  0  0  0  0  0  0  0  0  0  0  0
   -0.5950    1.2747   -2.5082 H   0  0  0  0  0  0  0  0  0  0  0  0
    0.9411    1.9921   -3.0779 H   0  0  0  0  0  0  0  0  0  0  0  0
    2.1193    0.6068   -1.4287 C   0  0  0  0  0  3  0  0  0  0  0  0
    2.5150    0.7341   -2.4621 H   0  0  0  0  0  0  0  0  0  0  0  0
    2.9737   -0.1653   -0.5455 C   0  0  0  0  0  0  0  0  0  0  0  0
    2.6629   -0.4161    0.8294 C   0  0  0  0  0  0  0  0  0  0  0  0
    3.5681   -1.1823    1.6048 C   0  0  0  0  0  0  0  0  0  0  0  0
    3.3112   -1.3657    2.6574 H   0  0  0  0  0  0  0  0  0  0  0  0
    4.7451   -1.6855    1.0527 C   0  0  0  0  0  0  0  0  0  0  0  0
    5.4408   -2.2780    1.6637 H   0  0  0  0  0  0  0  0  0  0  0  0
    5.0497   -1.4351   -0.3019 C   0  0  0  0  0  0  0  0  0  0  0  0
    4.1757   -0.6850   -1.0877 C   0  0  0  0  0  0  0  0  0  0  0  0
    4.4200   -0.4944   -2.1432 H   0  0  0  0  0  0  0  0  0  0  0  0
  5 13  1  0  0  0  0
  6 35  1  0  0  0  0
  7  8  1  0  0  0  0
  8  9  2  0  0  0  0
  8  3  1  0  0  0  0
  9 10  1  0  0  0  0
 11 12  1  0  0  0  0
 11  9  1  0  0  0  0
 13 11  2  0  0  0  0
 14 13  1  0  0  0  0
 14  7  2  0  0  0  0
 15 14  1  0  0  0  0
 16  7  1  0  0  0  0
 16  1  1  0  0  0  0
 17 16  1  0  0  0  0
 18  1  1  0  0  0  0
 18 19  1  0  0  0  0
 20 18  1  0  0  0  0
 21 23  1  0  0  0  0
 21 18  1  0  0  0  0
 22 21  1  0  0  0  0
 24 21  1  0  0  0  0
 24  2  1  0  0  0  0
 25 24  1  0  0  0  0
 26 24  1  0  0  0  0
 27  2  1  0  0  0  0
 27 29  1  0  0  0  0
 28 27  1  0  0  0  0
 29 30  1  0  0  0  0
 30  4  1  0  0  0  0
 30 31  2  0  0  0  0
 31 32  1  0  0  0  0
 33 31  1  0  0  0  0
 33 34  1  0  0  0  0
 35 33  2  0  0  0  0
 36 29  2  0  0  0  0
 36 35  1  0  0  0  0
 37 36  1  0  0  0  0
M  CHG  2   3  -1   4  -1
M  END
