1,2,3,4
 OpenBabel05122313063D

 38 37  0  0  1  0  0  0  0  0999 V2000
   -1.2604    1.3145    0.1354 N   0  0  0  0  0  2  0  0  0  0  0  0
    1.2603    1.3145   -0.1352 N   0  0  0  0  0  2  0  0  0  0  0  0
   -1.2684   -1.3681    0.0568 O   0  0  0  0  0  1  0  0  0  0  0  0
    1.2684   -1.3681   -0.0567 O   0  5  0  0  0  0  0  0  0  0  0  0
   -5.4474   -1.0686   -0.1055 O   0  0  0  0  0  0  0  0  0  0  0  0
    5.4472   -1.0687    0.1055 O   0  0  0  0  0  0  0  0  0  0  0  0
   -2.5461   -1.3095    0.0192 C   0  0  2  0  0  3  0  0  0  0  0  0
   -3.2791   -0.0724    0.0267 C   0  0  0  0  0  0  0  0  0  0  0  0
   -2.5682    1.1564    0.1222 C   0  0  0  0  0  0  0  0  0  0  0  0
   -0.6666    2.6325    0.3676 C   0  0  0  0  0  0  0  0  0  0  0  0
    0.6665    2.6326   -0.3672 C   0  0  0  0  0  0  0  0  0  0  0  0
    2.5682    1.1565   -0.1222 C   0  0  0  0  0  3  0  0  0  0  0  0
    3.2791   -0.0723   -0.0268 C   0  0  0  0  0  0  0  0  0  0  0  0
    2.5461   -1.3095   -0.0192 C   0  0  0  0  0  0  0  0  0  0  0  0
   -3.2212   -2.6540   -0.0236 C   0  0  0  0  0  0  0  0  0  0  0  0
   -4.7596   -0.0466   -0.0367 C   0  0  0  0  0  0  0  0  0  0  0  0
   -5.4688    1.3110   -0.0195 C   0  0  0  0  0  0  0  0  0  0  0  0
    3.2213   -2.6538    0.0235 C   0  0  0  0  0  0  0  0  0  0  0  0
    4.7596   -0.0466    0.0364 C   0  0  0  0  0  0  0  0  0  0  0  0
    5.4689    1.3110    0.0188 C   0  0  0  0  0  0  0  0  0  0  0  0
   -3.1629    2.0847    0.2052 H   0  0  0  0  0  0  0  0  0  0  0  0
    3.1628    2.0848   -0.2053 H   0  0  0  0  0  0  0  0  0  0  0  0
   -1.3363    3.4488    0.0209 H   0  0  0  0  0  0  0  0  0  0  0  0
   -0.4930    2.7705    1.4587 H   0  0  0  0  0  0  0  0  0  0  0  0
    1.3361    3.4488   -0.0205 H   0  0  0  0  0  0  0  0  0  0  0  0
    0.4928    2.7707   -1.4583 H   0  0  0  0  0  0  0  0  0  0  0  0
   -2.4413   -3.4366    0.0038 H   0  0  0  0  0  0  0  0  0  0  0  0
   -3.9314   -2.7670    0.8179 H   0  0  0  0  0  0  0  0  0  0  0  0
   -3.8461   -2.7480   -0.9327 H   0  0  0  0  0  0  0  0  0  0  0  0
   -5.2651    1.8737    0.9151 H   0  0  0  0  0  0  0  0  0  0  0  0
   -5.1611    1.9534   -0.8701 H   0  0  0  0  0  0  0  0  0  0  0  0
   -6.5540    1.1186   -0.0892 H   0  0  0  0  0  0  0  0  0  0  0  0
    2.4416   -3.4365   -0.0041 H   0  0  0  0  0  0  0  0  0  0  0  0
    3.9318   -2.7666   -0.8177 H   0  0  0  0  0  0  0  0  0  0  0  0
    3.8459   -2.7479    0.9329 H   0  0  0  0  0  0  0  0  0  0  0  0
    5.1617    1.9534    0.8695 H   0  0  0  0  0  0  0  0  0  0  0  0
    6.5542    1.1184    0.0881 H   0  0  0  0  0  0  0  0  0  0  0  0
    5.2649    1.8736   -0.9158 H   0  0  0  0  0  0  0  0  0  0  0  0
  1 10  1  0  0  0  0
  2 12  1  0  0  0  0
  4 14  1  0  0  0  0
  5 16  2  0  0  0  0
  7  8  1  0  0  0  0
  7  3  1  1  0  0  0
  8  9  2  0  0  0  0
  9  1  1  0  0  0  0
  9 21  1  0  0  0  0
 10 24  1  0  0  0  0
 11  2  1  0  0  0  0
 11 25  1  0  0  0  0
 11 10  1  0  0  0  0
 12 13  1  0  0  0  0
 13 14  2  0  0  0  0
 13 19  1  0  0  0  0
 14 18  1  0  0  0  0
 15 27  1  0  0  0  0
 15  7  1  0  0  0  0
 15 28  1  0  0  0  0
 16 17  1  0  0  0  0
 16  8  1  0  0  0  0
 17 30  1  0  0  0  0
 18 35  1  0  0  0  0
 19  6  2  0  0  0  0
 20 19  1  0  0  0  0
 20 37  1  0  0  0  0
 20 36  1  0  0  0  0
 22 12  1  0  0  0  0
 23 10  1  0  0  0  0
 26 11  1  0  0  0  0
 29 15  1  0  0  0  0
 31 17  1  0  0  0  0
 32 17  1  0  0  0  0
 33 18  1  0  0  0  0
 34 18  1  0  0  0  0
 38 20  1  0  0  0  0
M  CHG  1   4  -1
M  END
