5,6,9,10
 OpenBabel05122313063D

 36 37  0  0  0  0  0  0  0  0999 V2000
   -2.2143   -3.3040    0.7145 Cl  0  0  0  0  0  0  0  0  0  0  0  0
   -6.6589   -1.2955   -1.7043 Cl  0  0  0  0  0  0  0  0  0  0  0  0
    2.8509   -2.8535    1.6549 Cl  0  0  0  0  0  0  0  0  0  0  0  0
    6.6910   -1.0981   -1.7752 Cl  0  0  0  0  0  0  0  0  0  0  0  0
   -1.7373    2.2125    0.4046 N   0  0  0  0  0  2  0  0  0  0  0  0
    1.3408    2.1388   -0.3633 N   0  0  0  0  0  2  0  0  0  0  0  0
   -1.6364    3.5947    0.5109 O   0  0  0  0  0  0  0  0  0  0  0  0
    0.9065    3.3329   -0.9797 O   0  0  0  0  0  0  0  0  0  0  0  0
   -1.4834   -0.4964    1.0455 O   0  5  0  0  0  0  0  0  0  0  0  0
    1.5028   -0.3631    0.9616 O   0  5  0  0  0  0  0  0  0  0  0  0
   -0.3774    3.9862    1.0602 C   0  0  0  0  0  0  0  0  0  0  0  0
   -0.0096    3.1966    1.7490 H   0  0  0  0  0  0  0  0  0  0  0  0
   -0.5771    4.8935    1.6678 H   0  0  0  0  0  0  0  0  0  0  0  0
    0.6350    4.3506   -0.0193 C   0  0  0  0  0  0  0  0  0  0  0  0
    0.2472    5.1863   -0.6356 H   0  0  0  0  0  0  0  0  0  0  0  0
    1.5763    4.6877    0.4785 H   0  0  0  0  0  0  0  0  0  0  0  0
   -2.9298    1.8406    0.0259 C   0  0  0  0  0  0  0  0  0  0  0  0
   -3.6558    2.6471   -0.1958 H   0  0  0  0  0  0  0  0  0  0  0  0
   -3.3734    0.4715   -0.1162 C   0  0  0  0  0  0  0  0  0  0  0  0
   -2.6063   -0.6352    0.4151 C   0  0  0  0  0  0  0  0  0  0  0  0
   -3.1627   -1.9428    0.1840 C   0  0  0  0  0  0  0  0  0  0  0  0
   -4.3834   -2.1483   -0.4559 C   0  0  0  0  0  0  0  0  0  0  0  0
   -4.7622   -3.1681   -0.6052 H   0  0  0  0  0  0  0  0  0  0  0  0
   -5.1212   -1.0358   -0.9161 C   0  0  0  0  0  0  0  0  0  0  0  0
   -4.6255    0.2542   -0.7515 C   0  0  0  0  0  3  0  0  0  0  0  0
   -5.2037    1.1122   -1.1243 H   0  0  0  0  0  0  0  0  0  0  0  0
    2.4743    1.7289   -0.8742 C   0  0  0  0  0  0  0  0  0  0  0  0
    2.9446    2.4080   -1.6120 H   0  0  0  0  0  0  0  0  0  0  0  0
    3.1620    0.5019   -0.5736 C   0  0  0  0  0  0  0  0  0  0  0  0
    2.6325   -0.4812    0.3474 C   0  0  0  0  0  0  0  0  0  0  0  0
    3.4551   -1.6468    0.5574 C   0  0  0  0  0  0  0  0  0  0  0  0
    4.6788   -1.8308   -0.0775 C   0  0  0  0  0  0  0  0  0  0  0  0
    5.2678   -2.7369    0.1181 H   0  0  0  0  0  0  0  0  0  0  0  0
    5.1556   -0.8501   -0.9785 C   0  0  0  0  0  0  0  0  0  0  0  0
    4.4109    0.2951   -1.2255 C   0  0  0  0  0  3  0  0  0  0  0  0
    4.7900    1.0533   -1.9261 H   0  0  0  0  0  0  0  0  0  0  0  0
  2 24  1  0  0  0  0
  4 34  1  0  0  0  0
  5  7  1  0  0  0  0
  7 11  1  0  0  0  0
  8  6  1  0  0  0  0
  8 14  1  0  0  0  0
 11 13  1  0  0  0  0
 11 12  1  0  0  0  0
 14 16  1  0  0  0  0
 14 11  1  0  0  0  0
 15 14  1  0  0  0  0
 17  5  1  0  0  0  0
 18 17  1  0  0  0  0
 19 17  2  0  0  0  0
 19 20  1  0  0  0  0
 20  9  1  0  0  0  0
 21 20  2  0  0  0  0
 21  1  1  0  0  0  0
 22 21  1  0  0  0  0
 23 22  1  0  0  0  0
 24 25  1  0  0  0  0
 24 22  2  0  0  0  0
 25 19  1  0  0  0  0
 26 25  1  0  0  0  0
 27 29  2  0  0  0  0
 27  6  1  0  0  0  0
 28 27  1  0  0  0  0
 29 30  1  0  0  0  0
 30 31  2  0  0  0  0
 30 10  1  0  0  0  0
 31  3  1  0  0  0  0
 32 33  1  0  0  0  0
 32 31  1  0  0  0  0
 34 32  2  0  0  0  0
 35 34  1  0  0  0  0
 35 29  1  0  0  0  0
 36 35  1  0  0  0  0
M  CHG  2   9  -1  10  -1
M  END
