1,20,33,49
 OpenBabel05122313063D

 49 51  0  0  0  0  0  0  0  0999 V2000
    0.4957   -1.4979    0.0648 O   0  5  0  0  0  0  0  0  0  0  0  0
    1.7848   -1.4081    0.0276 C   0  0  0  0  0  0  0  0  0  0  0  0
    2.5245   -2.6484    0.0263 C   0  0  0  0  0  0  0  0  0  0  0  0
    1.9310   -3.5733    0.0538 H   0  0  0  0  0  0  0  0  0  0  0  0
    3.8962   -2.6603   -0.0076 C   0  0  0  0  0  0  0  0  0  0  0  0
    4.4382   -3.6197   -0.0075 H   0  0  0  0  0  0  0  0  0  0  0  0
    4.6641   -1.4482   -0.0495 C   0  0  0  0  0  0  0  0  0  0  0  0
    6.0827   -1.4841   -0.0965 C   0  0  0  0  0  3  0  0  0  0  0  0
    6.5809   -2.4665   -0.0943 H   0  0  0  0  0  0  0  0  0  0  0  0
    6.8324   -0.3142   -0.1466 C   0  0  0  0  0  0  0  0  0  0  0  0
    7.9311   -0.3547   -0.1830 H   0  0  0  0  0  0  0  0  0  0  0  0
    6.1630    0.9308   -0.1568 C   0  0  0  0  0  0  0  0  0  0  0  0
    6.7435    1.8649   -0.2053 H   0  0  0  0  0  0  0  0  0  0  0  0
    4.7722    0.9914   -0.1126 C   0  0  0  0  0  0  0  0  0  0  0  0
    4.2953    1.9818   -0.1385 H   0  0  0  0  0  0  0  0  0  0  0  0
    3.9740   -0.1853   -0.0494 C   0  0  0  0  0  0  0  0  0  0  0  0
    2.5194   -0.1729    0.0079 C   0  0  0  0  0  0  0  0  0  0  0  0
    1.8022    1.0539    0.0853 C   0  0  0  0  0  0  0  0  0  0  0  0
    2.3981    1.9759    0.1829 H   0  0  0  0  0  0  0  0  0  0  0  0
    0.4927    1.1975    0.0718 N   0  0  0  0  0  2  0  0  0  0  0  0
   -0.1240    2.5291    0.3023 C   0  0  0  0  0  0  0  0  0  0  0  0
    0.7263    3.7087   -0.1865 C   0  0  0  0  0  0  0  0  0  0  0  0
    1.6155    3.8757    0.4522 H   0  0  0  0  0  0  0  0  0  0  0  0
    0.1253    4.6387   -0.1465 H   0  0  0  0  0  0  0  0  0  0  0  0
    1.0628    3.5585   -1.2317 H   0  0  0  0  0  0  0  0  0  0  0  0
   -0.4308    2.6699    1.8053 C   0  0  0  0  0  0  0  0  0  0  0  0
    0.5060    2.6172    2.3943 H   0  0  0  0  0  0  0  0  0  0  0  0
   -1.0956    1.8497    2.1400 H   0  0  0  0  0  0  0  0  0  0  0  0
   -0.9250    3.6399    2.0158 H   0  0  0  0  0  0  0  0  0  0  0  0
   -1.4287    2.4699   -0.5032 C   0  0  0  0  0  0  0  0  0  0  0  0
   -2.0818    3.3126   -0.2026 H   0  0  0  0  0  0  0  0  0  0  0  0
   -1.1972    2.5905   -1.5864 H   0  0  0  0  0  0  0  0  0  0  0  0
   -2.0588    1.1686   -0.2784 N   0  0  0  0  0  2  0  0  0  0  0  0
   -3.3756    1.0330   -0.3788 C   0  0  0  0  0  0  0  0  0  0  0  0
   -4.2021    2.2437   -0.7611 C   0  0  0  0  0  0  0  0  0  0  0  0
   -3.7374    2.7876   -1.6061 H   0  0  0  0  0  0  0  0  0  0  0  0
   -4.2943    2.9605    0.0826 H   0  0  0  0  0  0  0  0  0  0  0  0
   -5.2191    1.9609   -1.0752 H   0  0  0  0  0  0  0  0  0  0  0  0
   -4.0368   -0.2354   -0.1443 C   0  0  0  0  0  0  0  0  0  0  0  0
   -5.4576   -0.3193   -0.0282 C   0  0  0  0  0  3  0  0  0  0  0  0
   -6.0581    0.5995   -0.0798 H   0  0  0  0  0  0  0  0  0  0  0  0
   -6.1174   -1.5224    0.1826 C   0  0  0  0  0  0  0  0  0  0  0  0
   -7.2123   -1.5431    0.2802 H   0  0  0  0  0  0  0  0  0  0  0  0
   -5.3628   -2.7183    0.2720 C   0  0  0  0  0  0  0  0  0  0  0  0
   -5.8748   -3.6808    0.4283 H   0  0  0  0  0  0  0  0  0  0  0  0
   -3.9812   -2.6862    0.1706 C   0  0  0  0  0  0  0  0  0  0  0  0
   -3.3710   -3.5979    0.2423 H   0  0  0  0  0  0  0  0  0  0  0  0
   -3.2679   -1.4576   -0.0227 C   0  0  0  0  0  0  0  0  0  0  0  0
   -1.9756   -1.5318   -0.1002 O   0  5  0  0  0  0  0  0  0  0  0  0
  2  1  1  0  0  0  0
  3  2  2  0  0  0  0
  3  4  1  0  0  0  0
  5  6  1  0  0  0  0
  5  3  1  0  0  0  0
  7 16  1  0  0  0  0
  7  5  2  0  0  0  0
  8  9  1  0  0  0  0
  8  7  1  0  0  0  0
 10  8  1  0  0  0  0
 11 10  1  0  0  0  0
 12 10  2  0  0  0  0
 12 14  1  0  0  0  0
 13 12  1  0  0  0  0
 14 16  2  0  0  0  0
 15 14  1  0  0  0  0
 16 17  1  0  0  0  0
 17  2  1  0  0  0  0
 17 18  2  0  0  0  0
 18 19  1  0  0  0  0
 20 18  1  0  0  0  0
 20 21  1  0  0  0  0
 21 26  1  0  0  0  0
 22 24  1  0  0  0  0
 22 21  1  0  0  0  0
 22 23  1  0  0  0  0
 25 22  1  0  0  0  0
 26 29  1  0  0  0  0
 26 28  1  0  0  0  0
 26 27  1  0  0  0  0
 30 33  1  0  0  0  0
 30 31  1  0  0  0  0
 30 21  1  0  0  0  0
 32 30  1  0  0  0  0
 34 33  1  0  0  0  0
 34 39  2  0  0  0  0
 35 34  1  0  0  0  0
 35 37  1  0  0  0  0
 36 35  1  0  0  0  0
 38 35  1  0  0  0  0
 39 40  1  0  0  0  0
 39 48  1  0  0  0  0
 40 42  1  0  0  0  0
 41 40  1  0  0  0  0
 42 44  2  0  0  0  0
 42 43  1  0  0  0  0
 44 45  1  0  0  0  0
 46 47  1  0  0  0  0
 46 44  1  0  0  0  0
 48 46  2  0  0  0  0
 49 48  1  0  0  0  0
M  CHG  2   1  -1  49  -1
M  END
