1,2,3,60
 OpenBabel05122313063D

 60 63  0  0  1  0  0  0  0  0999 V2000
   -1.2763   -0.4093   -0.2533 N   0  0  0  0  0  2  0  0  0  0  0  0
    1.2763   -0.4092    0.2535 N   0  0  0  0  0  2  0  0  0  0  0  0
    1.2257    2.2825    0.1776 O   0  5  0  0  0  0  0  0  0  0  0  0
    0.2264   -1.9299    1.9211 C   0  0  0  0  0  0  0  0  0  0  0  0
   -0.0186   -0.8583    2.8006 C   0  0  0  0  0  0  0  0  0  0  0  0
    0.1273    0.1732    2.4429 H   0  0  0  0  0  0  0  0  0  0  0  0
   -0.4355   -1.1040    4.1173 C   0  0  0  0  0  0  0  0  0  0  0  0
   -0.6227   -0.2565    4.7940 H   0  0  0  0  0  0  0  0  0  0  0  0
   -0.6135   -2.4203    4.5709 C   0  0  0  0  0  0  0  0  0  0  0  0
   -0.9390   -2.6103    5.6050 H   0  0  0  0  0  0  0  0  0  0  0  0
   -0.3658   -3.4947    3.7014 C   0  0  0  0  0  0  0  0  0  0  0  0
   -0.4924   -4.5305    4.0516 H   0  0  0  0  0  0  0  0  0  0  0  0
    0.0525   -3.2487    2.3854 C   0  0  0  0  0  0  0  0  0  0  0  0
    0.2519   -4.0945    1.7067 H   0  0  0  0  0  0  0  0  0  0  0  0
    0.6168   -1.6992    0.4662 C   0  0  1  0  0  0  0  0  0  0  0  0
    1.2618   -2.5386    0.1396 H   0  0  0  0  0  0  0  0  0  0  0  0
   -0.6167   -1.6994   -0.4654 C   0  0  2  0  0  0  0  0  0  0  0  0
   -1.2618   -2.5387   -0.1382 H   0  0  0  0  0  0  0  0  0  0  0  0
   -0.2263   -1.9309   -1.9201 C   0  0  0  0  0  0  0  0  0  0  0  0
    0.0191   -0.8598   -2.8000 C   0  0  0  0  0  0  0  0  0  0  0  0
   -0.1263    0.1719   -2.4428 H   0  0  0  0  0  0  0  0  0  0  0  0
    0.4361   -1.1062   -4.1166 C   0  0  0  0  0  0  0  0  0  0  0  0
    0.6237   -0.2590   -4.7936 H   0  0  0  0  0  0  0  0  0  0  0  0
    0.6137   -2.4227   -4.5696 C   0  0  0  0  0  0  0  0  0  0  0  0
    0.9392   -2.6133   -5.6035 H   0  0  0  0  0  0  0  0  0  0  0  0
    0.3655   -3.4967   -3.6996 C   0  0  0  0  0  0  0  0  0  0  0  0
    0.4917   -4.5327   -4.0494 H   0  0  0  0  0  0  0  0  0  0  0  0
   -0.0529   -3.2500   -2.3839 C   0  0  0  0  0  0  0  0  0  0  0  0
   -0.2527   -4.0955   -1.7047 H   0  0  0  0  0  0  0  0  0  0  0  0
    2.5201    2.1969    0.1267 C   0  0  0  0  0  0  0  0  0  0  0  0
    3.2495    3.4253    0.0106 C   0  0  0  0  0  0  0  0  0  0  0  0
    2.6521    4.3473   -0.0282 H   0  0  0  0  0  0  0  0  0  0  0  0
    4.6335    3.4455   -0.0622 C   0  0  0  0  0  0  0  0  0  0  0  0
    5.1588    4.4085   -0.1608 H   0  0  0  0  0  0  0  0  0  0  0  0
    5.3734    2.2382   -0.0185 C   0  0  0  0  0  0  0  0  0  0  0  0
    6.4701    2.2511   -0.0945 H   0  0  0  0  0  0  0  0  0  0  0  0
    4.6967    1.0340    0.1205 C   0  0  0  0  0  3  0  0  0  0  0  0
    5.2843    0.1057    0.1399 H   0  0  0  0  0  0  0  0  0  0  0  0
    3.2736    0.9623    0.2062 C   0  0  0  0  0  0  0  0  0  0  0  0
    2.5925   -0.3043    0.3818 C   0  0  0  0  0  0  0  0  0  0  0  0
    3.3866   -1.5432    0.7362 C   0  0  0  0  0  0  0  0  0  0  0  0
    2.9076   -2.0823    1.5772 H   0  0  0  0  0  0  0  0  0  0  0  0
    4.4146   -1.2982    1.0454 H   0  0  0  0  0  0  0  0  0  0  0  0
    3.4442   -2.2451   -0.1224 H   0  0  0  0  0  0  0  0  0  0  0  0
   -2.5202    2.1968   -0.1274 C   0  0  1  0  0  3  0  0  0  0  0  0
   -3.2497    3.4252   -0.0118 C   0  0  0  0  0  0  0  0  0  0  0  0
   -2.6523    4.3473    0.0272 H   0  0  0  0  0  0  0  0  0  0  0  0
   -4.6337    3.4454    0.0604 C   0  0  0  0  0  0  0  0  0  0  0  0
   -5.1591    4.4085    0.1587 H   0  0  0  0  0  0  0  0  0  0  0  0
   -5.3736    2.2381    0.0166 C   0  0  0  0  0  0  0  0  0  0  0  0
   -6.4703    2.2509    0.0921 H   0  0  0  0  0  0  0  0  0  0  0  0
   -4.6968    1.0339   -0.1219 C   0  0  0  0  0  0  0  0  0  0  0  0
   -5.2843    0.1056   -0.1414 H   0  0  0  0  0  0  0  0  0  0  0  0
   -3.2737    0.9622   -0.2070 C   0  0  0  0  0  0  0  0  0  0  0  0
   -2.5925   -0.3044   -0.3821 C   0  0  0  0  0  0  0  0  0  0  0  0
   -3.3864   -1.5435   -0.7362 C   0  0  0  0  0  0  0  0  0  0  0  0
   -2.9072   -2.0829   -1.5767 H   0  0  0  0  0  0  0  0  0  0  0  0
   -4.4143   -1.2985   -1.0460 H   0  0  0  0  0  0  0  0  0  0  0  0
   -3.4445   -2.2450    0.1226 H   0  0  0  0  0  0  0  0  0  0  0  0
   -1.2258    2.2825   -0.1777 O   0  0  0  0  0  1  0  0  0  0  0  0
  2 40  1  0  0  0  0
  2 15  1  0  0  0  0
  4 13  2  0  0  0  0
  4  5  1  0  0  0  0
  5  7  2  0  0  0  0
  6  5  1  0  0  0  0
  7  9  1  0  0  0  0
  7  8  1  0  0  0  0
  9 10  1  0  0  0  0
 11 12  1  0  0  0  0
 11  9  2  0  0  0  0
 13 11  1  0  0  0  0
 14 13  1  0  0  0  0
 15 16  1  6  0  0  0
 15  4  1  0  0  0  0
 17  1  1  0  0  0  0
 17 18  1  1  0  0  0
 17 15  1  0  0  0  0
 19 17  1  0  0  0  0
 20 21  1  0  0  0  0
 20 19  2  0  0  0  0
 22 20  1  0  0  0  0
 23 22  1  0  0  0  0
 24 22  2  0  0  0  0
 24 26  1  0  0  0  0
 25 24  1  0  0  0  0
 26 28  2  0  0  0  0
 27 26  1  0  0  0  0
 28 19  1  0  0  0  0
 28 29  1  0  0  0  0
 30  3  1  0  0  0  0
 30 39  1  0  0  0  0
 31 30  2  0  0  0  0
 32 31  1  0  0  0  0
 33 35  2  0  0  0  0
 33 31  1  0  0  0  0
 34 33  1  0  0  0  0
 35 37  1  0  0  0  0
 36 35  1  0  0  0  0
 37 38  1  0  0  0  0
 37 39  1  0  0  0  0
 39 40  2  0  0  0  0
 40 41  1  0  0  0  0
 41 43  1  0  0  0  0
 41 42  1  0  0  0  0
 44 41  1  0  0  0  0
 45 60  1  6  0  0  0
 45 46  1  0  0  0  0
 46 47  1  0  0  0  0
 46 48  2  0  0  0  0
 48 49  1  0  0  0  0
 50 48  1  0  0  0  0
 50 51  1  0  0  0  0
 52 50  2  0  0  0  0
 53 52  1  0  0  0  0
 54 45  1  0  0  0  0
 54 52  1  0  0  0  0
 55  1  1  0  0  0  0
 55 54  2  0  0  0  0
 56 55  1  0  0  0  0
 56 59  1  0  0  0  0
 57 56  1  0  0  0  0
 58 56  1  0  0  0  0
M  CHG  1   3  -1
M  END
