1,2,5,6
 OpenBabel05122313063D

 81 83  0  0  0  0  0  0  0  0999 V2000
    1.9873    0.2774   -0.0953 O   0  5  0  0  0  0  0  0  0  0  0  0
   -0.4032    1.0397   -0.2422 O   0  5  0  0  0  0  0  0  0  0  0  0
    7.2594   -1.3825    0.0581 O   0  0  0  0  0  0  0  0  0  0  0  0
   -5.6872    2.6174   -0.8472 O   0  0  0  0  0  0  0  0  0  0  0  0
    1.2159   -2.2952   -0.3348 N   0  0  0  0  0  2  0  0  0  0  0  0
   -1.3002   -1.5656   -0.5560 N   0  0  0  0  0  0  0  0  0  0  0  0
    2.5091   -2.5431   -0.2483 C   0  0  0  0  0  0  0  0  0  0  0  0
    3.5405   -1.5701   -0.1315 C   0  0  0  0  0  0  0  0  0  0  0  0
    4.8975   -2.0201   -0.0852 C   0  0  0  0  0  3  0  0  0  0  0  0
    5.9228   -1.0916    0.0027 C   0  0  0  0  0  0  0  0  0  0  0  0
    5.6052    0.2949    0.0329 C   0  0  0  0  0  0  0  0  0  0  0  0
    4.3062    0.7885   -0.0101 C   0  0  0  0  0  0  0  0  0  0  0  0
    3.2139   -0.1665   -0.0803 C   0  0  0  0  0  0  0  0  0  0  0  0
    0.2803   -3.4154   -0.4181 C   0  0  0  0  0  0  0  0  0  0  0  0
   -0.9467   -2.8899   -1.1370 C   0  0  0  0  0  0  0  0  0  0  0  0
   -2.1451   -0.8042   -1.5335 C   0  0  0  0  0  0  0  0  0  0  0  0
   -2.6173    0.5202   -1.0189 C   0  0  0  0  0  0  0  0  0  0  0  0
   -3.9634    0.9018   -1.2081 C   0  0  0  0  0  0  0  0  0  0  0  0
   -4.4070    2.1369   -0.7232 C   0  0  0  0  0  0  0  0  0  0  0  0
   -3.4983    2.9650   -0.0299 C   0  0  0  0  0  0  0  0  0  0  0  0
   -2.1590    2.6202    0.1764 C   0  0  0  0  0  0  0  0  0  0  0  0
   -1.6801    1.3673   -0.3655 C   0  0  0  0  0  0  0  0  0  0  0  0
   -1.9169   -1.6737    0.8169 C   0  0  0  0  0  0  0  0  0  0  0  0
   -3.1927   -2.4834    0.9059 C   0  0  0  0  0  0  0  0  0  0  0  0
   -3.1520   -3.8711    1.1587 C   0  0  0  0  0  0  0  0  0  0  0  0
   -4.3319   -4.6267    1.2301 C   0  0  0  0  0  0  0  0  0  0  0  0
   -5.5766   -4.0013    1.0564 C   0  0  0  0  0  0  0  0  0  0  0  0
   -5.6320   -2.6176    0.8261 C   0  0  0  0  0  0  0  0  0  0  0  0
   -4.4508   -1.8645    0.7548 C   0  0  0  0  0  0  0  0  0  0  0  0
    7.6297   -2.7421    0.0261 C   0  0  0  0  0  0  0  0  0  0  0  0
   -6.6260    1.8036   -1.5078 C   0  0  0  0  0  0  0  0  0  0  0  0
    4.0198    2.2993    0.0100 C   0  0  0  0  0  0  0  0  0  0  0  0
    5.3160    3.1275    0.0593 C   0  0  0  0  0  0  0  0  0  0  0  0
    3.1843    2.6481    1.2641 C   0  0  0  0  0  0  0  0  0  0  0  0
    3.2533    2.6920   -1.2760 C   0  0  0  0  0  0  0  0  0  0  0  0
   -1.2078    3.5461    0.9533 C   0  0  0  0  0  0  0  0  0  0  0  0
   -0.6191    2.7771    2.1606 C   0  0  0  0  0  0  0  0  0  0  0  0
   -0.0749    4.0134    0.0115 C   0  0  0  0  0  0  0  0  0  0  0  0
   -1.9255    4.7956    1.4934 C   0  0  0  0  0  0  0  0  0  0  0  0
    2.8230   -3.6059   -0.2814 H   0  0  0  0  0  0  0  0  0  0  0  0
    5.0925   -3.1007   -0.1242 H   0  0  0  0  0  0  0  0  0  0  0  0
    6.4608    0.9804    0.0903 H   0  0  0  0  0  0  0  0  0  0  0  0
    0.7177   -4.2809   -0.9611 H   0  0  0  0  0  0  0  0  0  0  0  0
    0.0207   -3.7750    0.6040 H   0  0  0  0  0  0  0  0  0  0  0  0
   -0.7017   -2.7146   -2.2029 H   0  0  0  0  0  0  0  0  0  0  0  0
   -1.8103   -3.5869   -1.0884 H   0  0  0  0  0  0  0  0  0  0  0  0
   -1.5032   -0.6904   -2.4356 H   0  0  0  0  0  0  0  0  0  0  0  0
   -3.0175   -1.4330   -1.8195 H   0  0  0  0  0  0  0  0  0  0  0  0
   -4.6408    0.2131   -1.7328 H   0  0  0  0  0  0  0  0  0  0  0  0
   -3.8994    3.9108    0.3570 H   0  0  0  0  0  0  0  0  0  0  0  0
   -1.1419   -2.1067    1.4774 H   0  0  0  0  0  0  0  0  0  0  0  0
   -2.0942   -0.6340    1.1487 H   0  0  0  0  0  0  0  0  0  0  0  0
   -2.1810   -4.3661    1.3219 H   0  0  0  0  0  0  0  0  0  0  0  0
   -4.2795   -5.7074    1.4320 H   0  0  0  0  0  0  0  0  0  0  0  0
   -6.5040   -4.5912    1.1142 H   0  0  0  0  0  0  0  0  0  0  0  0
   -6.6048   -2.1157    0.7086 H   0  0  0  0  0  0  0  0  0  0  0  0
   -4.4968   -0.7785    0.5827 H   0  0  0  0  0  0  0  0  0  0  0  0
    8.7340   -2.7743    0.0823 H   0  0  0  0  0  0  0  0  0  0  0  0
    7.2077   -3.3102    0.8877 H   0  0  0  0  0  0  0  0  0  0  0  0
    7.3019   -3.2422   -0.9150 H   0  0  0  0  0  0  0  0  0  0  0  0
   -6.7746    0.8254   -0.9904 H   0  0  0  0  0  0  0  0  0  0  0  0
   -6.3339    1.5933   -2.5634 H   0  0  0  0  0  0  0  0  0  0  0  0
   -7.5855    2.3547   -1.5069 H   0  0  0  0  0  0  0  0  0  0  0  0
    5.9083    2.9232    0.9746 H   0  0  0  0  0  0  0  0  0  0  0  0
    5.9636    2.9432   -0.8222 H   0  0  0  0  0  0  0  0  0  0  0  0
    5.0597    4.2060    0.0640 H   0  0  0  0  0  0  0  0  0  0  0  0
    3.7385    2.3811    2.1873 H   0  0  0  0  0  0  0  0  0  0  0  0
    2.9773    3.7378    1.2917 H   0  0  0  0  0  0  0  0  0  0  0  0
    2.2185    2.1133    1.2616 H   0  0  0  0  0  0  0  0  0  0  0  0
    3.8685    2.4799   -2.1745 H   0  0  0  0  0  0  0  0  0  0  0  0
    3.0244    3.7775   -1.2651 H   0  0  0  0  0  0  0  0  0  0  0  0
    2.3018    2.1363   -1.3582 H   0  0  0  0  0  0  0  0  0  0  0  0
   -0.0917    1.8654    1.8254 H   0  0  0  0  0  0  0  0  0  0  0  0
    0.1007    3.4184    2.7103 H   0  0  0  0  0  0  0  0  0  0  0  0
   -1.4253    2.4857    2.8655 H   0  0  0  0  0  0  0  0  0  0  0  0
    0.4847    3.1484   -0.3856 H   0  0  0  0  0  0  0  0  0  0  0  0
    0.6332    4.6713    0.5574 H   0  0  0  0  0  0  0  0  0  0  0  0
   -0.4912    4.5889   -0.8406 H   0  0  0  0  0  0  0  0  0  0  0  0
   -2.7519    4.5353    2.1860 H   0  0  0  0  0  0  0  0  0  0  0  0
   -1.2017    5.4194    2.0560 H   0  0  0  0  0  0  0  0  0  0  0  0
   -2.3409    5.4231    0.6788 H   0  0  0  0  0  0  0  0  0  0  0  0
  1 13  1  0  0  0  0
  4 19  1  0  0  0  0
  5  7  1  0  0  0  0
  6 23  1  0  0  0  0
  7  8  2  0  0  0  0
  8  9  1  0  0  0  0
  8 13  1  0  0  0  0
  9 10  1  0  0  0  0
 10 11  2  0  0  0  0
 10  3  1  0  0  0  0
 11 42  1  0  0  0  0
 12 32  1  0  0  0  0
 12 11  1  0  0  0  0
 13 12  2  0  0  0  0
 14  5  1  0  0  0  0
 14 44  1  0  0  0  0
 15 46  1  0  0  0  0
 15  6  1  0  0  0  0
 15 14  1  0  0  0  0
 16 17  1  0  0  0  0
 16  6  1  0  0  0  0
 17 22  1  0  0  0  0
 18 17  2  0  0  0  0
 18 19  1  0  0  0  0
 19 20  2  0  0  0  0
 20 21  1  0  0  0  0
 20 50  1  0  0  0  0
 21 36  1  0  0  0  0
 22  2  1  0  0  0  0
 22 21  2  0  0  0  0
 23 24  1  0  0  0  0
 23 52  1  0  0  0  0
 23 51  1  0  0  0  0
 24 25  1  0  0  0  0
 25 26  2  0  0  0  0
 25 53  1  0  0  0  0
 26 54  1  0  0  0  0
 27 55  1  0  0  0  0
 27 26  1  0  0  0  0
 28 27  2  0  0  0  0
 29 28  1  0  0  0  0
 29 24  2  0  0  0  0
 30  3  1  0  0  0  0
 30 58  1  0  0  0  0
 30 59  1  0  0  0  0
 31 63  1  0  0  0  0
 31 61  1  0  0  0  0
 31  4  1  0  0  0  0
 32 33  1  0  0  0  0
 32 34  1  0  0  0  0
 33 66  1  0  0  0  0
 33 64  1  0  0  0  0
 34 68  1  0  0  0  0
 34 67  1  0  0  0  0
 35 71  1  0  0  0  0
 35 32  1  0  0  0  0
 36 39  1  0  0  0  0
 36 37  1  0  0  0  0
 37 74  1  0  0  0  0
 37 75  1  0  0  0  0
 38 77  1  0  0  0  0
 38 36  1  0  0  0  0
 39 80  1  0  0  0  0
 39 79  1  0  0  0  0
 40  7  1  0  0  0  0
 41  9  1  0  0  0  0
 43 14  1  0  0  0  0
 45 15  1  0  0  0  0
 47 16  1  0  0  0  0
 48 16  1  0  0  0  0
 49 18  1  0  0  0  0
 56 28  1  0  0  0  0
 57 29  1  0  0  0  0
 60 30  1  0  0  0  0
 62 31  1  0  0  0  0
 65 33  1  0  0  0  0
 69 34  1  0  0  0  0
 70 35  1  0  0  0  0
 72 35  1  0  0  0  0
 73 37  1  0  0  0  0
 76 38  1  0  0  0  0
 78 38  1  0  0  0  0
 81 39  1  0  0  0  0
M  CHG  2   1  -1   2  -1
M  END
