1,4,7,9
 OpenBabel05122313063D

 46 47  0  0  1  0  0  0  0  0999 V2000
   -1.2436    1.0363   -0.6459 O   0  0  0  0  0  1  0  0  0  0  0  0
   -5.0452   -2.2821    1.1319 O   0  0  0  0  0  0  0  0  0  0  0  0
   -5.1844   -1.8394    1.9899 H   0  0  0  0  0  0  0  0  0  0  0  0
    1.2787    1.0385    0.7003 O   0  5  0  0  0  0  0  0  0  0  0  0
    4.7835   -2.1809   -1.3609 O   0  0  0  0  0  0  0  0  0  0  0  0
    5.3411   -2.9445   -1.5989 H   0  0  0  0  0  0  0  0  0  0  0  0
   -1.2474   -1.6094   -0.1948 N   0  0  0  0  0  2  0  0  0  0  0  0
   -4.6272    2.2247   -0.4892 N   0  0  0  0  0  0  0  0  0  0  0  0
    1.2492   -1.6146    0.3425 N   0  0  0  0  0  2  0  0  0  0  0  0
    4.6647    2.1883    0.3935 N   0  0  0  0  0  0  0  0  0  0  0  0
   -2.5544    0.9884   -0.4913 C   0  0  1  0  0  3  0  0  0  0  0  0
   -3.3069    2.2073   -0.6458 C   0  0  0  0  0  0  0  0  0  0  0  0
   -2.5827    3.4862   -0.9451 C   0  0  0  0  0  0  0  0  0  0  0  0
   -3.3140    4.3070   -1.0474 H   0  0  0  0  0  0  0  0  0  0  0  0
   -1.9938    3.3946   -1.8814 H   0  0  0  0  0  0  0  0  0  0  0  0
   -1.8575    3.7373   -0.1433 H   0  0  0  0  0  0  0  0  0  0  0  0
   -5.2896    1.0782   -0.2293 C   0  0  0  0  0  0  0  0  0  0  0  0
   -6.3870    1.1632   -0.1356 H   0  0  0  0  0  0  0  0  0  0  0  0
   -4.6810   -0.1726   -0.0941 C   0  0  0  0  0  0  0  0  0  0  0  0
   -5.5241   -1.4157    0.1143 C   0  0  0  0  0  0  0  0  0  0  0  0
   -6.5823   -1.1097    0.2799 H   0  0  0  0  0  0  0  0  0  0  0  0
   -5.5198   -2.0204   -0.8192 H   0  0  0  0  0  0  0  0  0  0  0  0
   -3.2568   -0.2321   -0.2084 C   0  0  0  0  0  0  0  0  0  0  0  0
   -2.5572   -1.4984   -0.1870 C   0  0  0  0  0  0  0  0  0  0  0  0
   -3.1635   -2.4208   -0.1764 H   0  0  0  0  0  0  0  0  0  0  0  0
   -0.6335   -2.9352   -0.3223 C   0  0  0  0  0  0  0  0  0  0  0  0
   -0.3434   -3.0816   -1.3851 H   0  0  0  0  0  0  0  0  0  0  0  0
   -1.3373   -3.7437   -0.0368 H   0  0  0  0  0  0  0  0  0  0  0  0
    2.5845    0.9740    0.5106 C   0  0  0  0  0  0  0  0  0  0  0  0
    3.3557    2.1830    0.6307 C   0  0  0  0  0  0  0  0  0  0  0  0
    2.6642    3.4685    0.9761 C   0  0  0  0  0  0  0  0  0  0  0  0
    3.4131    4.2747    1.0665 H   0  0  0  0  0  0  0  0  0  0  0  0
    2.1030    3.3729    1.9286 H   0  0  0  0  0  0  0  0  0  0  0  0
    1.9204    3.7460    0.2003 H   0  0  0  0  0  0  0  0  0  0  0  0
    5.2965    1.0433    0.0666 C   0  0  0  0  0  0  0  0  0  0  0  0
    6.3810    1.1245   -0.1251 H   0  0  0  0  0  0  0  0  0  0  0  0
    4.6693   -0.2023   -0.0281 C   0  0  1  0  0  3  0  0  0  0  0  0
    5.4671   -1.4391   -0.3565 C   0  0  0  0  0  0  0  0  0  0  0  0
    6.4845   -1.1245   -0.6837 H   0  0  0  0  0  0  0  0  0  0  0  0
    5.6054   -2.0440    0.5763 H   0  0  0  0  0  0  0  0  0  0  0  0
    3.2626   -0.2553    0.2099 C   0  0  0  0  0  0  0  0  0  0  0  0
    2.5568   -1.5177    0.2860 C   0  0  0  0  0  0  0  0  0  0  0  0
    3.1579   -2.4431    0.3140 H   0  0  0  0  0  0  0  0  0  0  0  0
    0.6159   -2.9187    0.5558 C   0  0  0  0  0  0  0  0  0  0  0  0
    0.3247   -2.9925    1.6258 H   0  0  0  0  0  0  0  0  0  0  0  0
    1.3051   -3.7559    0.3215 H   0  0  0  0  0  0  0  0  0  0  0  0
  2  3  1  0  0  0  0
  5 38  1  0  0  0  0
  6  5  1  0  0  0  0
  7 24  1  0  0  0  0
  8 17  1  0  0  0  0
  9 44  1  0  0  0  0
 10 30  1  0  0  0  0
 11  1  1  6  0  0  0
 11 23  1  0  0  0  0
 12 11  1  0  0  0  0
 12  8  2  0  0  0  0
 13 12  1  0  0  0  0
 13 16  1  0  0  0  0
 14 13  1  0  0  0  0
 15 13  1  0  0  0  0
 17 18  1  0  0  0  0
 17 19  2  0  0  0  0
 19 20  1  0  0  0  0
 20 21  1  0  0  0  0
 20  2  1  0  0  0  0
 22 20  1  0  0  0  0
 23 24  2  0  0  0  0
 23 19  1  0  0  0  0
 24 25  1  0  0  0  0
 26  7  1  0  0  0  0
 26 28  1  0  0  0  0
 26 44  1  0  0  0  0
 27 26  1  0  0  0  0
 29 30  2  0  0  0  0
 29  4  1  0  0  0  0
 30 31  1  0  0  0  0
 31 32  1  0  0  0  0
 31 33  1  0  0  0  0
 34 31  1  0  0  0  0
 35 10  2  0  0  0  0
 36 35  1  0  0  0  0
 37 38  1  1  0  0  0
 37 35  1  0  0  0  0
 37 41  1  0  0  0  0
 38 40  1  0  0  0  0
 39 38  1  0  0  0  0
 41 42  2  0  0  0  0
 41 29  1  0  0  0  0
 42 43  1  0  0  0  0
 42  9  1  0  0  0  0
 44 45  1  0  0  0  0
 46 44  1  0  0  0  0
M  CHG  1   4  -1
M  END
