1,2,5,6
 OpenBabel05122313063D

 75 76  0  0  1  0  0  0  0  0999 V2000
    1.1375   -1.1957    1.4434 O   0  5  0  0  0  0  0  0  0  0  0  0
   -1.4453   -0.6811   -1.6038 O   0  0  0  0  0  1  0  0  0  0  0  0
    5.2293   -1.6715   -1.0189 O   0  0  0  0  0  0  0  0  0  0  0  0
   -5.5982   -1.0502    0.7759 O   0  0  0  0  0  0  0  0  0  0  0  0
    1.3466   -0.8809   -1.4472 N   0  0  0  0  0  2  0  0  0  0  0  0
   -1.6493   -0.9340    1.2949 N   0  0  0  0  0  2  0  0  0  0  0  0
    3.1743   -1.4147    0.1335 C   0  0  0  0  0  0  0  0  0  0  0  0
    2.4253   -1.4116    1.3631 C   0  0  0  0  0  0  0  0  0  0  0  0
    3.1179   -1.6495    2.5887 C   0  0  0  0  0  0  0  0  0  0  0  0
    4.4831   -1.8928    2.5923 C   0  0  0  0  0  0  0  0  0  0  0  0
    5.2416   -1.9129    1.3989 C   0  0  0  0  0  0  0  0  0  0  0  0
    4.5912   -1.6768    0.1857 C   0  0  2  0  0  3  0  0  0  0  0  0
    2.6015   -1.1236   -1.1461 C   0  0  0  0  0  0  0  0  0  0  0  0
    1.0667   -0.4747   -2.8326 C   0  0  0  0  0  0  0  0  0  0  0  0
    0.7825    1.0296   -2.9567 C   0  0  0  0  0  0  0  0  0  0  0  0
    1.8363    1.9247   -2.3047 C   0  0  0  0  0  0  0  0  0  0  0  0
    1.5823    3.4220   -2.5111 C   0  0  0  0  0  0  0  0  0  0  0  0
    2.4405    4.3236   -1.6080 C   0  0  0  0  0  0  0  0  0  0  0  0
    2.0261    4.2971   -0.1275 C   0  0  0  0  0  0  0  0  0  0  0  0
    0.7228    5.0545    0.1652 C   0  0  0  0  0  0  0  0  0  0  0  0
    0.1002    4.7466    1.5344 C   0  0  0  0  0  0  0  0  0  0  0  0
   -0.5300    3.3526    1.6203 C   0  0  0  0  0  0  0  0  0  0  0  0
   -1.2188    3.0497    2.9555 C   0  0  0  0  0  0  0  0  0  0  0  0
   -1.8412    1.6463    3.0069 C   0  0  0  0  0  0  0  0  0  0  0  0
   -0.8073    0.5213    3.1290 C   0  0  0  0  0  0  0  0  0  0  0  0
   -1.3207   -0.8679    2.7270 C   0  0  0  0  0  0  0  0  0  0  0  0
   -3.5114   -0.8650   -0.3319 C   0  0  0  0  0  0  0  0  0  0  0  0
   -2.7518   -0.7216   -1.5472 C   0  0  1  0  0  3  0  0  0  0  0  0
   -3.4546   -0.6059   -2.7848 C   0  0  0  0  0  0  0  0  0  0  0  0
   -4.8403   -0.6449   -2.8167 C   0  0  0  0  0  0  0  0  0  0  0  0
   -5.6108   -0.7958   -1.6405 C   0  0  0  0  0  0  0  0  0  0  0  0
   -4.9504   -0.9045   -0.4147 C   0  0  0  0  0  0  0  0  0  0  0  0
   -2.9220   -0.9244    0.9720 C   0  0  0  0  0  0  0  0  0  0  0  0
    6.6254   -1.8962   -1.0513 C   0  0  0  0  0  0  0  0  0  0  0  0
   -7.0124   -1.0741    0.7839 C   0  0  0  0  0  0  0  0  0  0  0  0
    2.5288   -1.6363    3.5160 H   0  0  0  0  0  0  0  0  0  0  0  0
    4.9957   -2.0789    3.5491 H   0  0  0  0  0  0  0  0  0  0  0  0
    6.3187   -2.1133    1.4391 H   0  0  0  0  0  0  0  0  0  0  0  0
    3.3241   -1.0849   -1.9800 H   0  0  0  0  0  0  0  0  0  0  0  0
    0.1883   -1.0423   -3.1921 H   0  0  0  0  0  0  0  0  0  0  0  0
    1.9461   -0.7483   -3.4547 H   0  0  0  0  0  0  0  0  0  0  0  0
    0.6914    1.2625   -4.0409 H   0  0  0  0  0  0  0  0  0  0  0  0
   -0.2102    1.2368   -2.5067 H   0  0  0  0  0  0  0  0  0  0  0  0
    2.8528    1.6664   -2.6815 H   0  0  0  0  0  0  0  0  0  0  0  0
    1.8549    1.7000   -1.2167 H   0  0  0  0  0  0  0  0  0  0  0  0
    1.7574    3.6820   -3.5779 H   0  0  0  0  0  0  0  0  0  0  0  0
    0.5048    3.6335   -2.3295 H   0  0  0  0  0  0  0  0  0  0  0  0
    3.5049    4.0147   -1.7018 H   0  0  0  0  0  0  0  0  0  0  0  0
    2.3953    5.3718   -1.9775 H   0  0  0  0  0  0  0  0  0  0  0  0
    2.8387    4.7259    0.4980 H   0  0  0  0  0  0  0  0  0  0  0  0
    1.9289    3.2402    0.2031 H   0  0  0  0  0  0  0  0  0  0  0  0
    0.9164    6.1457    0.0747 H   0  0  0  0  0  0  0  0  0  0  0  0
   -0.0309    4.8195   -0.6193 H   0  0  0  0  0  0  0  0  0  0  0  0
   -0.6798    5.5064    1.7617 H   0  0  0  0  0  0  0  0  0  0  0  0
    0.8707    4.8591    2.3310 H   0  0  0  0  0  0  0  0  0  0  0  0
   -1.2770    3.2431    0.8013 H   0  0  0  0  0  0  0  0  0  0  0  0
    0.2388    2.5766    1.4139 H   0  0  0  0  0  0  0  0  0  0  0  0
   -2.0088    3.8120    3.1337 H   0  0  0  0  0  0  0  0  0  0  0  0
   -0.4908    3.1693    3.7900 H   0  0  0  0  0  0  0  0  0  0  0  0
   -2.5639    1.5779    3.8492 H   0  0  0  0  0  0  0  0  0  0  0  0
   -2.4400    1.5030    2.0803 H   0  0  0  0  0  0  0  0  0  0  0  0
   -0.4342    0.4598    4.1743 H   0  0  0  0  0  0  0  0  0  0  0  0
    0.0811    0.7352    2.5018 H   0  0  0  0  0  0  0  0  0  0  0  0
   -0.5352   -1.6177    2.9340 H   0  0  0  0  0  0  0  0  0  0  0  0
   -2.2297   -1.1322    3.3097 H   0  0  0  0  0  0  0  0  0  0  0  0
   -2.8566   -0.4918   -3.6994 H   0  0  0  0  0  0  0  0  0  0  0  0
   -5.3605   -0.5594   -3.7836 H   0  0  0  0  0  0  0  0  0  0  0  0
   -6.7048   -0.8273   -1.7038 H   0  0  0  0  0  0  0  0  0  0  0  0
   -3.6430   -0.9536    1.8077 H   0  0  0  0  0  0  0  0  0  0  0  0
    7.1812   -1.1251   -0.4728 H   0  0  0  0  0  0  0  0  0  0  0  0
    6.9263   -1.8388   -2.1138 H   0  0  0  0  0  0  0  0  0  0  0  0
    6.8903   -2.9007   -0.6525 H   0  0  0  0  0  0  0  0  0  0  0  0
   -7.4132   -1.9292    0.1954 H   0  0  0  0  0  0  0  0  0  0  0  0
   -7.4435   -0.1307    0.3809 H   0  0  0  0  0  0  0  0  0  0  0  0
   -7.3168   -1.1890    1.8407 H   0  0  0  0  0  0  0  0  0  0  0  0
  4 35  1  0  0  0  0
  5 13  1  0  0  0  0
  6 26  1  0  0  0  0
  7 12  1  0  0  0  0
  7  8  1  0  0  0  0
  8  1  1  0  0  0  0
  8  9  2  0  0  0  0
  9 10  1  0  0  0  0
  9 36  1  0  0  0  0
 10 37  1  0  0  0  0
 11 38  1  0  0  0  0
 11 10  2  0  0  0  0
 12  3  1  1  0  0  0
 12 11  1  0  0  0  0
 13  7  2  0  0  0  0
 14  5  1  0  0  0  0
 15 14  1  0  0  0  0
 15 43  1  0  0  0  0
 15 16  1  0  0  0  0
 16 45  1  0  0  0  0
 17 47  1  0  0  0  0
 17 16  1  0  0  0  0
 17 18  1  0  0  0  0
 18 19  1  0  0  0  0
 19 20  1  0  0  0  0
 19 51  1  0  0  0  0
 19 50  1  0  0  0  0
 20 21  1  0  0  0  0
 21 22  1  0  0  0  0
 21 54  1  0  0  0  0
 21 55  1  0  0  0  0
 22 23  1  0  0  0  0
 23 24  1  0  0  0  0
 23 58  1  0  0  0  0
 23 59  1  0  0  0  0
 24 25  1  0  0  0  0
 24 60  1  0  0  0  0
 25 62  1  0  0  0  0
 26 64  1  0  0  0  0
 26 25  1  0  0  0  0
 26 65  1  0  0  0  0
 27 33  2  0  0  0  0
 28  2  1  1  0  0  0
 28 27  1  0  0  0  0
 29 28  1  0  0  0  0
 30 29  2  0  0  0  0
 30 31  1  0  0  0  0
 31 32  2  0  0  0  0
 32 27  1  0  0  0  0
 32  4  1  0  0  0  0
 33  6  1  0  0  0  0
 33 69  1  0  0  0  0
 34  3  1  0  0  0  0
 34 72  1  0  0  0  0
 34 70  1  0  0  0  0
 35 75  1  0  0  0  0
 39 13  1  0  0  0  0
 40 14  1  0  0  0  0
 41 14  1  0  0  0  0
 42 15  1  0  0  0  0
 44 16  1  0  0  0  0
 46 17  1  0  0  0  0
 48 18  1  0  0  0  0
 49 18  1  0  0  0  0
 52 20  1  0  0  0  0
 53 20  1  0  0  0  0
 56 22  1  0  0  0  0
 57 22  1  0  0  0  0
 61 24  1  0  0  0  0
 63 25  1  0  0  0  0
 66 29  1  0  0  0  0
 67 30  1  0  0  0  0
 68 31  1  0  0  0  0
 71 34  1  0  0  0  0
 73 35  1  0  0  0  0
 74 35  1  0  0  0  0
M  CHG  1   1  -1
M  END
