1,2,5,6
 OpenBabel05122313063D

 72 73  0  0  0  0  0  0  0  0999 V2000
    1.9703    0.3723   -0.8287 O   0  5  0  0  0  0  0  0  0  0  0  0
   -1.9704   -0.3722   -0.8283 O   0  5  0  0  0  0  0  0  0  0  0  0
    4.3436    1.3714   -0.7793 O   0  0  0  0  0  0  0  0  0  0  0  0
   -4.3437   -1.3713   -0.7791 O   0  0  0  0  0  0  0  0  0  0  0  0
    0.2762   -2.0161   -0.8096 N   0  0  0  0  0  2  0  0  0  0  0  0
   -0.2763    2.0162   -0.8093 N   0  0  0  0  0  2  0  0  0  0  0  0
    2.7572   -1.9330   -0.8630 C   0  0  0  0  0  0  0  0  0  0  0  0
    2.9293   -0.5113   -0.8384 C   0  0  0  0  0  0  0  0  0  0  0  0
    4.2772    0.0110   -0.8199 C   0  0  0  0  0  0  0  0  0  0  0  0
    5.3735   -0.8498   -0.8419 C   0  0  0  0  0  0  0  0  0  0  0  0
    5.1870   -2.2564   -0.8775 C   0  0  0  0  0  0  0  0  0  0  0  0
    3.9071   -2.7829   -0.8867 C   0  0  0  0  0  3  0  0  0  0  0  0
    1.4676   -2.5654   -0.8466 C   0  0  0  0  0  0  0  0  0  0  0  0
    5.6216    1.9693   -0.7372 C   0  0  0  0  0  0  0  0  0  0  0  0
   -0.8806   -2.9235   -0.7082 C   0  0  0  0  0  0  0  0  0  0  0  0
   -1.4846   -2.9492    0.7018 C   0  0  0  0  0  0  0  0  0  0  0  0
   -0.5367   -3.4047    1.8138 C   0  0  0  0  0  0  0  0  0  0  0  0
   -1.0434   -3.0637    3.2259 C   0  0  0  0  0  0  0  0  0  0  0  0
   -1.1973   -1.5586    3.5008 C   0  0  0  0  0  0  0  0  0  0  0  0
    0.1078   -0.7579    3.4371 C   0  0  0  0  0  0  0  0  0  0  0  0
   -0.1074    0.7575    3.4372 C   0  0  0  0  0  0  0  0  0  0  0  0
    1.1976    1.5582    3.5010 C   0  0  0  0  0  0  0  0  0  0  0  0
    1.0437    3.0634    3.2262 C   0  0  0  0  0  0  0  0  0  0  0  0
    0.5369    3.4045    1.8143 C   0  0  0  0  0  0  0  0  0  0  0  0
    1.4847    2.9490    0.7022 C   0  0  0  0  0  0  0  0  0  0  0  0
    0.8806    2.9236   -0.7078 C   0  0  0  0  0  0  0  0  0  0  0  0
   -2.7572    1.9331   -0.8628 C   0  0  0  0  0  0  0  0  0  0  0  0
   -2.9294    0.5114   -0.8381 C   0  0  0  0  0  0  0  0  0  0  0  0
   -4.2773   -0.0108   -0.8197 C   0  0  0  0  0  0  0  0  0  0  0  0
   -5.3736    0.8500   -0.8418 C   0  0  0  0  0  0  0  0  0  0  0  0
   -5.1871    2.2566   -0.8774 C   0  0  0  0  0  0  0  0  0  0  0  0
   -3.9072    2.7830   -0.8866 C   0  0  0  0  0  3  0  0  0  0  0  0
   -1.4676    2.5656   -0.8463 C   0  0  0  0  0  0  0  0  0  0  0  0
   -5.6217   -1.9692   -0.7371 C   0  0  0  0  0  0  0  0  0  0  0  0
    6.3942   -0.4436   -0.8303 H   0  0  0  0  0  0  0  0  0  0  0  0
    6.0648   -2.9182   -0.8943 H   0  0  0  0  0  0  0  0  0  0  0  0
    3.7519   -3.8727   -0.9074 H   0  0  0  0  0  0  0  0  0  0  0  0
    1.4931   -3.6728   -0.8567 H   0  0  0  0  0  0  0  0  0  0  0  0
    6.2239    1.7297   -1.6433 H   0  0  0  0  0  0  0  0  0  0  0  0
    6.1985    1.6547    0.1624 H   0  0  0  0  0  0  0  0  0  0  0  0
    5.4564    3.0621   -0.6941 H   0  0  0  0  0  0  0  0  0  0  0  0
   -0.5494   -3.9403   -1.0129 H   0  0  0  0  0  0  0  0  0  0  0  0
   -1.6586   -2.5739   -1.4120 H   0  0  0  0  0  0  0  0  0  0  0  0
   -2.3830   -3.6033    0.6677 H   0  0  0  0  0  0  0  0  0  0  0  0
   -1.8688   -1.9317    0.9035 H   0  0  0  0  0  0  0  0  0  0  0  0
    0.4578   -2.9314    1.6682 H   0  0  0  0  0  0  0  0  0  0  0  0
   -0.3591   -4.5002    1.7375 H   0  0  0  0  0  0  0  0  0  0  0  0
   -2.0234   -3.5634    3.3927 H   0  0  0  0  0  0  0  0  0  0  0  0
   -0.3470   -3.5019    3.9744 H   0  0  0  0  0  0  0  0  0  0  0  0
   -1.9193   -1.1207    2.7768 H   0  0  0  0  0  0  0  0  0  0  0  0
   -1.6641   -1.4174    4.5001 H   0  0  0  0  0  0  0  0  0  0  0  0
    0.7693   -1.0543    4.2827 H   0  0  0  0  0  0  0  0  0  0  0  0
    0.6650   -1.0161    2.5096 H   0  0  0  0  0  0  0  0  0  0  0  0
   -0.7690    1.0538    4.2828 H   0  0  0  0  0  0  0  0  0  0  0  0
   -0.6646    1.0158    2.5097 H   0  0  0  0  0  0  0  0  0  0  0  0
    1.6644    1.4170    4.5003 H   0  0  0  0  0  0  0  0  0  0  0  0
    1.9197    1.1204    2.7770 H   0  0  0  0  0  0  0  0  0  0  0  0
    2.0236    3.5631    3.3931 H   0  0  0  0  0  0  0  0  0  0  0  0
    0.3472    3.5014    3.9748 H   0  0  0  0  0  0  0  0  0  0  0  0
   -0.4577    2.9311    1.6686 H   0  0  0  0  0  0  0  0  0  0  0  0
    0.3593    4.5000    1.7380 H   0  0  0  0  0  0  0  0  0  0  0  0
    1.8688    1.9314    0.9037 H   0  0  0  0  0  0  0  0  0  0  0  0
    2.3831    3.6029    0.6681 H   0  0  0  0  0  0  0  0  0  0  0  0
    0.5494    3.9404   -1.0123 H   0  0  0  0  0  0  0  0  0  0  0  0
    1.6585    2.5741   -1.4118 H   0  0  0  0  0  0  0  0  0  0  0  0
   -6.3942    0.4437   -0.8303 H   0  0  0  0  0  0  0  0  0  0  0  0
   -6.0648    2.9184   -0.8943 H   0  0  0  0  0  0  0  0  0  0  0  0
   -3.7520    3.8728   -0.9073 H   0  0  0  0  0  0  0  0  0  0  0  0
   -1.4931    3.6729   -0.8563 H   0  0  0  0  0  0  0  0  0  0  0  0
   -5.4565   -3.0620   -0.6939 H   0  0  0  0  0  0  0  0  0  0  0  0
   -6.2239   -1.7296   -1.6432 H   0  0  0  0  0  0  0  0  0  0  0  0
   -6.1986   -1.6545    0.1625 H   0  0  0  0  0  0  0  0  0  0  0  0
  3 14  1  0  0  0  0
  4 34  1  0  0  0  0
  5 15  1  0  0  0  0
  6 26  1  0  0  0  0
  7 13  2  0  0  0  0
  7  8  1  0  0  0  0
  8  1  1  0  0  0  0
  8  9  2  0  0  0  0
  9  3  1  0  0  0  0
 10 35  1  0  0  0  0
 10  9  1  0  0  0  0
 11 10  2  0  0  0  0
 12 11  1  0  0  0  0
 12  7  1  0  0  0  0
 13  5  1  0  0  0  0
 14 41  1  0  0  0  0
 14 40  1  0  0  0  0
 15 16  1  0  0  0  0
 16 45  1  0  0  0  0
 16 17  1  0  0  0  0
 17 18  1  0  0  0  0
 18 48  1  0  0  0  0
 18 19  1  0  0  0  0
 18 49  1  0  0  0  0
 19 51  1  0  0  0  0
 20 21  1  0  0  0  0
 20 19  1  0  0  0  0
 20 52  1  0  0  0  0
 21 22  1  0  0  0  0
 21 54  1  0  0  0  0
 22 56  1  0  0  0  0
 23 58  1  0  0  0  0
 23 22  1  0  0  0  0
 23 59  1  0  0  0  0
 24 23  1  0  0  0  0
 25 62  1  0  0  0  0
 25 24  1  0  0  0  0
 26 25  1  0  0  0  0
 27 33  2  0  0  0  0
 27 28  1  0  0  0  0
 28  2  1  0  0  0  0
 28 29  2  0  0  0  0
 29  4  1  0  0  0  0
 30 66  1  0  0  0  0
 30 29  1  0  0  0  0
 31 30  2  0  0  0  0
 32 31  1  0  0  0  0
 32 27  1  0  0  0  0
 33  6  1  0  0  0  0
 34 70  1  0  0  0  0
 34 72  1  0  0  0  0
 36 11  1  0  0  0  0
 37 12  1  0  0  0  0
 38 13  1  0  0  0  0
 39 14  1  0  0  0  0
 42 15  1  0  0  0  0
 43 15  1  0  0  0  0
 44 16  1  0  0  0  0
 46 17  1  0  0  0  0
 47 17  1  0  0  0  0
 50 19  1  0  0  0  0
 53 20  1  0  0  0  0
 55 21  1  0  0  0  0
 57 22  1  0  0  0  0
 60 24  1  0  0  0  0
 61 24  1  0  0  0  0
 63 25  1  0  0  0  0
 64 26  1  0  0  0  0
 65 26  1  0  0  0  0
 67 31  1  0  0  0  0
 68 32  1  0  0  0  0
 69 33  1  0  0  0  0
 71 34  1  0  0  0  0
M  CHG  2   1  -1   2  -1
M  END
