1,2,9,10
 OpenBabel05122313063D

 70 71  0  0  1  0  0  0  0  0999 V2000
    1.9276   -0.5564   -0.9253 O   0  0  0  0  0  1  0  0  0  0  0  0
   -1.9275    0.5561   -0.9242 O   0  0  0  0  0  1  0  0  0  0  0  0
    0.0020    4.2285    0.8298 O   0  0  0  0  0  0  0  0  0  0  0  0
   -0.0740    1.7921    2.6413 O   0  0  0  0  0  0  0  0  0  0  0  0
    0.0741   -1.7907    2.6415 O   0  0  0  0  0  0  0  0  0  0  0  0
   -0.0019   -4.2280    0.8310 O   0  0  0  0  0  0  0  0  0  0  0  0
    4.1560   -1.7755   -0.5108 O   0  0  0  0  0  0  0  0  0  0  0  0
   -4.1561    1.7751   -0.5107 O   0  0  0  0  0  0  0  0  0  0  0  0
    0.4659    1.9752   -1.0151 N   0  0  0  0  0  2  0  0  0  0  0  0
   -0.4658   -1.9756   -1.0147 N   0  0  0  0  0  2  0  0  0  0  0  0
    2.8999    1.6661   -0.6776 C   0  0  0  0  0  0  0  0  0  0  0  0
    2.9434    0.2339   -0.7058 C   0  0  2  0  0  3  0  0  0  0  0  0
    4.2158   -0.4138   -0.4825 C   0  0  0  0  0  0  0  0  0  0  0  0
    5.3672    0.3387   -0.2541 C   0  0  0  0  0  0  0  0  0  0  0  0
    5.3111    1.7565   -0.2398 C   0  0  0  0  0  0  0  0  0  0  0  0
    4.1046    2.4023   -0.4512 C   0  0  0  0  0  0  0  0  0  0  0  0
    1.6925    2.4219   -0.8799 C   0  0  0  0  0  0  0  0  0  0  0  0
   -0.5973    2.9848   -1.1266 C   0  0  0  0  0  0  0  0  0  0  0  0
   -1.0529    3.4708    0.2451 C   0  0  0  0  0  0  0  0  0  0  0  0
    0.1353    4.1474    2.2362 C   0  0  0  0  0  0  0  0  0  0  0  0
    0.8259    2.8790    2.7193 C   0  0  0  0  0  0  0  0  0  0  0  0
    0.5485    0.5268    2.7136 C   0  0  0  0  0  0  0  0  0  0  0  0
   -0.5484   -0.5253    2.7137 C   0  0  0  0  0  0  0  0  0  0  0  0
   -0.8260   -2.8775    2.7197 C   0  0  0  0  0  0  0  0  0  0  0  0
   -0.1353   -4.1461    2.2374 C   0  0  0  0  0  0  0  0  0  0  0  0
    1.0531   -3.4707    0.2459 C   0  0  0  0  0  0  0  0  0  0  0  0
    0.5974   -2.9851   -1.1259 C   0  0  0  0  0  0  0  0  0  0  0  0
   -2.8998   -1.6665   -0.6772 C   0  0  0  0  0  0  0  0  0  0  0  0
   -2.9434   -0.2343   -0.7053 C   0  0  2  0  0  3  0  0  0  0  0  0
   -4.2159    0.4133   -0.4824 C   0  0  0  0  0  0  0  0  0  0  0  0
   -5.3673   -0.3392   -0.2543 C   0  0  0  0  0  0  0  0  0  0  0  0
   -5.3111   -1.7571   -0.2401 C   0  0  0  0  0  0  0  0  0  0  0  0
   -4.1046   -2.4028   -0.4511 C   0  0  0  0  0  0  0  0  0  0  0  0
   -1.6924   -2.4223   -0.8793 C   0  0  0  0  0  0  0  0  0  0  0  0
    5.3500   -2.4935   -0.2849 C   0  0  0  0  0  0  0  0  0  0  0  0
   -5.3503    2.4929   -0.2853 C   0  0  0  0  0  0  0  0  0  0  0  0
    6.3292   -0.1628   -0.0808 H   0  0  0  0  0  0  0  0  0  0  0  0
    6.2303    2.3325   -0.0605 H   0  0  0  0  0  0  0  0  0  0  0  0
    4.0499    3.5019   -0.4415 H   0  0  0  0  0  0  0  0  0  0  0  0
    1.8182    3.5198   -0.9020 H   0  0  0  0  0  0  0  0  0  0  0  0
   -1.4659    2.5397   -1.6415 H   0  0  0  0  0  0  0  0  0  0  0  0
   -0.2206    3.8480   -1.7149 H   0  0  0  0  0  0  0  0  0  0  0  0
   -1.9607    4.1081    0.1106 H   0  0  0  0  0  0  0  0  0  0  0  0
   -1.3298    2.5990    0.8700 H   0  0  0  0  0  0  0  0  0  0  0  0
   -0.8522    4.2429    2.7487 H   0  0  0  0  0  0  0  0  0  0  0  0
    0.7534    5.0192    2.5381 H   0  0  0  0  0  0  0  0  0  0  0  0
    1.7283    2.6958    2.0866 H   0  0  0  0  0  0  0  0  0  0  0  0
    1.1823    3.0239    3.7722 H   0  0  0  0  0  0  0  0  0  0  0  0
    1.1720    0.4301    3.6363 H   0  0  0  0  0  0  0  0  0  0  0  0
    1.2156    0.3554    1.8343 H   0  0  0  0  0  0  0  0  0  0  0  0
   -1.1719   -0.4285    3.6364 H   0  0  0  0  0  0  0  0  0  0  0  0
   -1.2156   -0.3541    1.8344 H   0  0  0  0  0  0  0  0  0  0  0  0
   -1.7281   -2.6946    2.0867 H   0  0  0  0  0  0  0  0  0  0  0  0
   -1.1827   -3.0219    3.7725 H   0  0  0  0  0  0  0  0  0  0  0  0
    0.8522   -4.2413    2.7500 H   0  0  0  0  0  0  0  0  0  0  0  0
   -0.7533   -5.0179    2.5397 H   0  0  0  0  0  0  0  0  0  0  0  0
    1.9607   -4.1081    0.1117 H   0  0  0  0  0  0  0  0  0  0  0  0
    1.3300   -2.5986    0.8705 H   0  0  0  0  0  0  0  0  0  0  0  0
    1.4660   -2.5401   -1.6410 H   0  0  0  0  0  0  0  0  0  0  0  0
    0.2207   -3.8485   -1.7140 H   0  0  0  0  0  0  0  0  0  0  0  0
   -6.3294    0.1622   -0.0813 H   0  0  0  0  0  0  0  0  0  0  0  0
   -6.2304   -2.3330   -0.0611 H   0  0  0  0  0  0  0  0  0  0  0  0
   -4.0499   -3.5023   -0.4415 H   0  0  0  0  0  0  0  0  0  0  0  0
   -1.8181   -3.5202   -0.9011 H   0  0  0  0  0  0  0  0  0  0  0  0
    6.1224   -2.2714   -1.0564 H   0  0  0  0  0  0  0  0  0  0  0  0
    5.0868   -3.5665   -0.3380 H   0  0  0  0  0  0  0  0  0  0  0  0
    5.7826   -2.2767    0.7187 H   0  0  0  0  0  0  0  0  0  0  0  0
   -5.7833    2.2762    0.7181 H   0  0  0  0  0  0  0  0  0  0  0  0
   -6.1224    2.2707   -1.0571 H   0  0  0  0  0  0  0  0  0  0  0  0
   -5.0872    3.5660   -0.3384 H   0  0  0  0  0  0  0  0  0  0  0  0
  3 20  1  0  0  0  0
  4 22  1  0  0  0  0
  4 21  1  0  0  0  0
  5 23  1  0  0  0  0
  5 24  1  0  0  0  0
  6 25  1  0  0  0  0
  7 13  1  0  0  0  0
  7 35  1  0  0  0  0
  8 30  1  0  0  0  0
  8 36  1  0  0  0  0
  9 17  1  0  0  0  0
 10 34  1  0  0  0  0
 11 16  1  0  0  0  0
 12  1  1  6  0  0  0
 12 11  1  0  0  0  0
 12 13  1  0  0  0  0
 13 14  2  0  0  0  0
 14 15  1  0  0  0  0
 14 37  1  0  0  0  0
 15 38  1  0  0  0  0
 16 39  1  0  0  0  0
 16 15  2  0  0  0  0
 17 11  2  0  0  0  0
 18  9  1  0  0  0  0
 18 19  1  0  0  0  0
 19  3  1  0  0  0  0
 19 44  1  0  0  0  0
 20 46  1  0  0  0  0
 20 21  1  0  0  0  0
 20 45  1  0  0  0  0
 21 48  1  0  0  0  0
 22 23  1  0  0  0  0
 22 49  1  0  0  0  0
 23 51  1  0  0  0  0
 24 54  1  0  0  0  0
 25 56  1  0  0  0  0
 25 24  1  0  0  0  0
 25 55  1  0  0  0  0
 26  6  1  0  0  0  0
 26 58  1  0  0  0  0
 27 10  1  0  0  0  0
 27 26  1  0  0  0  0
 28 33  1  0  0  0  0
 29  2  1  6  0  0  0
 29 28  1  0  0  0  0
 29 30  1  0  0  0  0
 30 31  2  0  0  0  0
 31 32  1  0  0  0  0
 31 61  1  0  0  0  0
 32 62  1  0  0  0  0
 33 63  1  0  0  0  0
 33 32  2  0  0  0  0
 34 28  2  0  0  0  0
 35 67  1  0  0  0  0
 36 68  1  0  0  0  0
 40 17  1  0  0  0  0
 41 18  1  0  0  0  0
 42 18  1  0  0  0  0
 43 19  1  0  0  0  0
 47 21  1  0  0  0  0
 50 22  1  0  0  0  0
 52 23  1  0  0  0  0
 53 24  1  0  0  0  0
 57 26  1  0  0  0  0
 59 27  1  0  0  0  0
 60 27  1  0  0  0  0
 64 34  1  0  0  0  0
 65 35  1  0  0  0  0
 66 35  1  0  0  0  0
 69 36  1  0  0  0  0
 70 36  1  0  0  0  0
M  END
