1,2,9,10
 OpenBabel05122313063D

 70 71  0  0  1  0  0  0  0  0999 V2000
   -2.2239   -1.3301   -0.4363 O   0  0  0  0  0  1  0  0  0  0  0  0
    0.9459    1.0442   -1.1690 O   0  5  0  0  0  0  0  0  0  0  0  0
   -7.6089   -0.0974   -0.0137 O   0  0  0  0  0  0  0  0  0  0  0  0
    6.2926   -0.0910   -2.0205 O   0  0  0  0  0  0  0  0  0  0  0  0
    0.6092    3.9829    0.9431 O   0  0  0  0  0  0  0  0  0  0  0  0
    2.3064    1.7724    2.1493 O   0  0  0  0  0  0  0  0  0  0  0  0
    2.5561   -0.8882    3.4340 O   0  0  0  0  0  0  0  0  0  0  0  0
    1.0094   -2.9691    1.7185 O   0  0  0  0  0  0  0  0  0  0  0  0
   -1.7132    1.5526   -0.5232 N   0  0  0  0  0  2  0  0  0  0  0  0
    0.5147   -1.8268   -0.8417 N   0  0  0  0  0  2  0  0  0  0  0  0
   -3.9114    0.4371   -0.3217 C   0  0  0  0  0  0  0  0  0  0  0  0
   -3.4711   -0.9302   -0.3429 C   0  0  2  0  0  3  0  0  0  0  0  0
   -4.4739   -1.9441   -0.2403 C   0  0  0  0  0  0  0  0  0  0  0  0
   -5.8192   -1.6340   -0.1357 C   0  0  0  0  0  0  0  0  0  0  0  0
   -6.2582   -0.2817   -0.1201 C   0  0  0  0  0  0  0  0  0  0  0  0
   -5.3080    0.7315   -0.2076 C   0  0  0  0  0  0  0  0  0  0  0  0
   -3.0155    1.5566   -0.3608 C   0  0  0  0  0  0  0  0  0  0  0  0
   -8.0882    1.2292    0.0087 C   0  0  0  0  0  0  0  0  0  0  0  0
   -1.0062    2.8290   -0.3831 C   0  0  0  0  0  0  0  0  0  0  0  0
   -0.2910    2.8879    0.9685 C   0  0  0  0  0  0  0  0  0  0  0  0
    1.4773    4.0391    2.0592 C   0  0  0  0  0  0  0  0  0  0  0  0
    2.6893    3.1189    1.9701 C   0  0  0  0  0  0  0  0  0  0  0  0
    3.3825    0.8633    2.0095 C   0  0  0  0  0  0  0  0  0  0  0  0
    2.8720   -0.5584    2.0912 C   0  0  0  0  0  0  0  0  0  0  0  0
    2.2643   -2.2491    3.6537 C   0  0  0  0  0  0  0  0  0  0  0  0
    0.9204   -2.7236    3.1102 C   0  0  0  0  0  0  0  0  0  0  0  0
   -0.2445   -3.1522    1.0962 C   0  0  0  0  0  0  0  0  0  0  0  0
   -0.0627   -3.1062   -0.4190 C   0  0  0  0  0  0  0  0  0  0  0  0
    2.6528   -0.6873   -1.3511 C   0  0  0  0  0  0  0  0  0  0  0  0
    2.1818    0.6689   -1.3748 C   0  0  0  0  0  0  0  0  0  0  0  0
    3.1403    1.6993   -1.6337 C   0  0  0  0  0  0  0  0  0  0  0  0
    4.4780    1.4113   -1.8437 C   0  0  0  0  0  0  0  0  0  0  0  0
    4.9515    0.0698   -1.8075 C   0  0  0  0  0  0  0  0  0  0  0  0
    4.0429   -0.9569   -1.5654 C   0  0  0  0  0  3  0  0  0  0  0  0
    1.8074   -1.8117   -1.0743 C   0  0  0  0  0  0  0  0  0  0  0  0
    6.8073   -1.4039   -1.9837 C   0  0  0  0  0  0  0  0  0  0  0  0
   -4.1355   -2.9903   -0.2526 H   0  0  0  0  0  0  0  0  0  0  0  0
   -6.5805   -2.4250   -0.0623 H   0  0  0  0  0  0  0  0  0  0  0  0
   -5.6063    1.7891   -0.1906 H   0  0  0  0  0  0  0  0  0  0  0  0
   -3.4870    2.5501   -0.2259 H   0  0  0  0  0  0  0  0  0  0  0  0
   -7.8295    1.7822   -0.9239 H   0  0  0  0  0  0  0  0  0  0  0  0
   -7.6896    1.8025    0.8776 H   0  0  0  0  0  0  0  0  0  0  0  0
   -9.1892    1.1684    0.0951 H   0  0  0  0  0  0  0  0  0  0  0  0
   -0.2375    2.9038   -1.1730 H   0  0  0  0  0  0  0  0  0  0  0  0
   -1.7222    3.6701   -0.4925 H   0  0  0  0  0  0  0  0  0  0  0  0
    0.2444    1.9310    1.1386 H   0  0  0  0  0  0  0  0  0  0  0  0
   -1.0385    3.0080    1.7942 H   0  0  0  0  0  0  0  0  0  0  0  0
    0.9274    3.8246    3.0080 H   0  0  0  0  0  0  0  0  0  0  0  0
    1.8485    5.0846    2.1138 H   0  0  0  0  0  0  0  0  0  0  0  0
    3.1840    3.2602    0.9768 H   0  0  0  0  0  0  0  0  0  0  0  0
    3.4303    3.4291    2.7528 H   0  0  0  0  0  0  0  0  0  0  0  0
    3.8853    1.0014    1.0221 H   0  0  0  0  0  0  0  0  0  0  0  0
    3.6610   -1.2449    1.6945 H   0  0  0  0  0  0  0  0  0  0  0  0
    3.0650   -2.9095    3.2321 H   0  0  0  0  0  0  0  0  0  0  0  0
    2.2581   -2.3859    4.7554 H   0  0  0  0  0  0  0  0  0  0  0  0
    0.6093   -3.6525    3.6539 H   0  0  0  0  0  0  0  0  0  0  0  0
   -0.7005   -4.1359    1.3754 H   0  0  0  0  0  0  0  0  0  0  0  0
   -0.9603   -2.3541    1.3992 H   0  0  0  0  0  0  0  0  0  0  0  0
    0.6058   -3.9317   -0.7420 H   0  0  0  0  0  0  0  0  0  0  0  0
   -1.0547   -3.2319   -0.8901 H   0  0  0  0  0  0  0  0  0  0  0  0
    2.7705    2.7347   -1.6464 H   0  0  0  0  0  0  0  0  0  0  0  0
    5.2082    2.2112   -2.0372 H   0  0  0  0  0  0  0  0  0  0  0  0
    4.3699   -2.0055   -1.5305 H   0  0  0  0  0  0  0  0  0  0  0  0
    2.3222   -2.7902   -1.0260 H   0  0  0  0  0  0  0  0  0  0  0  0
    6.3518   -2.0530   -2.7670 H   0  0  0  0  0  0  0  0  0  0  0  0
    6.6465   -1.8871   -0.9920 H   0  0  0  0  0  0  0  0  0  0  0  0
    7.8944   -1.3251   -2.1718 H   0  0  0  0  0  0  0  0  0  0  0  0
    4.1483    1.0315    2.8076 H   0  0  0  0  0  0  0  0  0  0  0  0
    1.9878   -0.6648    1.4249 H   0  0  0  0  0  0  0  0  0  0  0  0
    0.1511   -1.9413    3.3230 H   0  0  0  0  0  0  0  0  0  0  0  0
  3 18  1  0  0  0  0
  4 36  1  0  0  0  0
  4 33  1  0  0  0  0
  5 20  1  0  0  0  0
  5 21  1  0  0  0  0
  7 25  1  0  0  0  0
  8 26  1  0  0  0  0
  9 19  1  0  0  0  0
  9 17  1  0  0  0  0
 10 28  1  0  0  0  0
 11 16  1  0  0  0  0
 12  1  1  1  0  0  0
 12 11  1  0  0  0  0
 12 13  1  0  0  0  0
 13 14  2  0  0  0  0
 14 15  1  0  0  0  0
 14 38  1  0  0  0  0
 15  3  1  0  0  0  0
 16 39  1  0  0  0  0
 16 15  2  0  0  0  0
 17 11  2  0  0  0  0
 17 40  1  0  0  0  0
 18 43  1  0  0  0  0
 18 42  1  0  0  0  0
 19 20  1  0  0  0  0
 20 46  1  0  0  0  0
 20 47  1  0  0  0  0
 21 49  1  0  0  0  0
 21 48  1  0  0  0  0
 22 21  1  0  0  0  0
 22  6  1  0  0  0  0
 22 51  1  0  0  0  0
 23 24  1  0  0  0  0
 23  6  1  0  0  0  0
 23 68  1  0  0  0  0
 24  7  1  0  0  0  0
 25 55  1  0  0  0  0
 26 70  1  0  0  0  0
 26 25  1  0  0  0  0
 26 56  1  0  0  0  0
 27 57  1  0  0  0  0
 27 58  1  0  0  0  0
 27  8  1  0  0  0  0
 28 27  1  0  0  0  0
 29 35  2  0  0  0  0
 30 29  1  0  0  0  0
 30  2  1  0  0  0  0
 31 30  2  0  0  0  0
 32 33  2  0  0  0  0
 32 31  1  0  0  0  0
 33 34  1  0  0  0  0
 34 63  1  0  0  0  0
 34 29  1  0  0  0  0
 35 64  1  0  0  0  0
 35 10  1  0  0  0  0
 36 66  1  0  0  0  0
 37 13  1  0  0  0  0
 41 18  1  0  0  0  0
 44 19  1  0  0  0  0
 45 19  1  0  0  0  0
 50 22  1  0  0  0  0
 52 23  1  0  0  0  0
 53 24  1  0  0  0  0
 54 25  1  0  0  0  0
 59 28  1  0  0  0  0
 60 28  1  0  0  0  0
 61 31  1  0  0  0  0
 62 32  1  0  0  0  0
 65 36  1  0  0  0  0
 67 36  1  0  0  0  0
 69 24  1  0  0  0  0
M  CHG  1   2  -1
M  END
