1,2,44,45
 OpenBabel05122313063D

 56 57  0  0  0  0  0  0  0  0999 V2000
   -1.5665    1.1775   -0.2046 O   0  5  0  0  0  0  0  0  0  0  0  0
   -1.3159   -1.8514    0.1114 N   0  0  0  0  0  2  0  0  0  0  0  0
   -2.7759    0.8002   -0.0957 C   0  0  0  0  0  0  0  0  0  0  0  0
   -3.9332    2.5436   -1.4827 C   0  0  0  0  0  0  0  0  0  0  0  0
   -4.0416    1.8132   -2.3077 H   0  0  0  0  0  0  0  0  0  0  0  0
   -2.9936    3.1090   -1.6374 H   0  0  0  0  0  0  0  0  0  0  0  0
   -4.7919    3.2428   -1.5170 H   0  0  0  0  0  0  0  0  0  0  0  0
   -5.4659   -0.9127    1.3842 C   0  0  0  0  0  0  0  0  0  0  0  0
   -4.9807   -0.4428    2.2613 H   0  0  0  0  0  0  0  0  0  0  0  0
   -5.3449   -2.0130    1.4603 H   0  0  0  0  0  0  0  0  0  0  0  0
   -6.5494   -0.6817    1.4155 H   0  0  0  0  0  0  0  0  0  0  0  0
   -5.5185   -1.0075   -1.1458 C   0  0  0  0  0  0  0  0  0  0  0  0
   -6.6058   -0.7922   -1.1447 H   0  0  0  0  0  0  0  0  0  0  0  0
   -5.3797   -2.1084   -1.1517 H   0  0  0  0  0  0  0  0  0  0  0  0
   -5.0790   -0.5983   -2.0760 H   0  0  0  0  0  0  0  0  0  0  0  0
   -0.6900   -3.1333    0.4790 C   0  0  0  0  0  0  0  0  0  0  0  0
   -1.3138   -3.9935    0.1534 H   0  0  0  0  0  0  0  0  0  0  0  0
   -0.5983   -3.1822    1.5879 H   0  0  0  0  0  0  0  0  0  0  0  0
    0.7057   -3.2018   -0.1521 C   0  0  0  0  0  0  0  0  0  0  0  0
    1.3272   -3.9724    0.3523 H   0  0  0  0  0  0  0  0  0  0  0  0
    0.6151   -3.4857   -1.2252 H   0  0  0  0  0  0  0  0  0  0  0  0
    2.6459   -1.7215    0.0107 C   0  0  0  0  0  3  0  0  0  0  0  0
    3.2495   -2.6497    0.0953 H   0  0  0  0  0  0  0  0  0  0  0  0
    3.3298   -0.4992   -0.0014 C   0  0  0  0  0  0  0  0  0  0  0  0
    2.7699    0.7951   -0.1547 C   0  0  0  0  0  0  0  0  0  0  0  0
    4.8429   -0.3670    0.1272 C   0  0  0  0  0  0  0  0  0  0  0  0
    3.8983    1.8229   -0.1425 C   0  0  0  0  0  0  0  0  0  0  0  0
    5.3653   -0.8766    1.4782 C   0  0  0  0  0  0  0  0  0  0  0  0
    6.4450   -0.6466    1.5781 H   0  0  0  0  0  0  0  0  0  0  0  0
    5.2332   -1.9741    1.5730 H   0  0  0  0  0  0  0  0  0  0  0  0
    4.8223   -0.3851    2.3085 H   0  0  0  0  0  0  0  0  0  0  0  0
    5.5928   -1.0279   -1.0398 C   0  0  0  0  0  0  0  0  0  0  0  0
    5.2150   -0.6435   -2.0069 H   0  0  0  0  0  0  0  0  0  0  0  0
    5.4656   -2.1302   -1.0284 H   0  0  0  0  0  0  0  0  0  0  0  0
    6.6757   -0.8029   -0.9698 H   0  0  0  0  0  0  0  0  0  0  0  0
    3.7111    2.8133    1.0150 C   0  0  0  0  0  0  0  0  0  0  0  0
    3.6655    2.2735    1.9812 H   0  0  0  0  0  0  0  0  0  0  0  0
    2.7742    3.3886    0.8816 H   0  0  0  0  0  0  0  0  0  0  0  0
    4.5672    3.5157    1.0479 H   0  0  0  0  0  0  0  0  0  0  0  0
    3.9699    2.5459   -1.4957 C   0  0  0  0  0  0  0  0  0  0  0  0
    4.8277    3.2471   -1.4984 H   0  0  0  0  0  0  0  0  0  0  0  0
    3.0351    3.1097   -1.6821 H   0  0  0  0  0  0  0  0  0  0  0  0
    4.1098    1.8168   -2.3173 H   0  0  0  0  0  0  0  0  0  0  0  0
    1.5636    1.1715   -0.2930 O   0  5  0  0  0  0  0  0  0  0  0  0
    1.3230   -1.8698   -0.0693 N   0  0  0  0  0  2  0  0  0  0  0  0
   -3.3350   -0.4949    0.0489 C   0  0  0  0  0  0  0  0  0  0  0  0
   -5.1036    1.0561    0.0519 O   0  0  0  0  0  0  0  0  0  0  0  0
   -2.6424   -1.7071    0.1581 C   0  0  0  0  0  3  0  0  0  0  0  0
   -3.2400   -2.6312    0.3067 H   0  0  0  0  0  0  0  0  0  0  0  0
    5.0913    1.0592    0.0710 O   0  0  0  0  0  0  0  0  0  0  0  0
   -3.9070    1.8241   -0.1257 C   0  0  0  0  0  0  0  0  0  0  0  0
   -4.8539   -0.3706    0.0852 C   0  0  0  0  0  0  0  0  0  0  0  0
   -3.7632    2.8173    1.0351 C   0  0  0  0  0  0  0  0  0  0  0  0
   -4.6240    3.5147    1.0398 H   0  0  0  0  0  0  0  0  0  0  0  0
   -2.8260    3.3983    0.9304 H   0  0  0  0  0  0  0  0  0  0  0  0
   -3.7445    2.2788    2.0029 H   0  0  0  0  0  0  0  0  0  0  0  0
  1  3  1  0  0  0  0
  2 48  1  0  0  0  0
  2 16  1  0  0  0  0
  3 46  2  0  0  0  0
  4 51  1  0  0  0  0
  5  4  1  0  0  0  0
  6  4  1  0  0  0  0
  7  4  1  0  0  0  0
  8 11  1  0  0  0  0
  8 10  1  0  0  0  0
  8  9  1  0  0  0  0
 12 13  1  0  0  0  0
 12 52  1  0  0  0  0
 14 12  1  0  0  0  0
 15 12  1  0  0  0  0
 16 18  1  0  0  0  0
 17 16  1  0  0  0  0
 19 45  1  0  0  0  0
 19 20  1  0  0  0  0
 19 16  1  0  0  0  0
 21 19  1  0  0  0  0
 22 23  1  0  0  0  0
 24 22  1  0  0  0  0
 24 26  1  0  0  0  0
 25 27  1  0  0  0  0
 25 24  2  0  0  0  0
 26 28  1  0  0  0  0
 27 50  1  0  0  0  0
 27 36  1  0  0  0  0
 28 30  1  0  0  0  0
 28 29  1  0  0  0  0
 28 31  1  0  0  0  0
 32 34  1  0  0  0  0
 32 35  1  0  0  0  0
 32 26  1  0  0  0  0
 33 32  1  0  0  0  0
 36 39  1  0  0  0  0
 36 37  1  0  0  0  0
 38 36  1  0  0  0  0
 40 27  1  0  0  0  0
 41 40  1  0  0  0  0
 42 40  1  0  0  0  0
 43 40  1  0  0  0  0
 44 25  1  0  0  0  0
 45 22  1  0  0  0  0
 46 52  1  0  0  0  0
 46 48  1  0  0  0  0
 47 52  1  0  0  0  0
 48 49  1  0  0  0  0
 50 26  1  0  0  0  0
 51  3  1  0  0  0  0
 51 47  1  0  0  0  0
 51 53  1  0  0  0  0
 52  8  1  0  0  0  0
 53 54  1  0  0  0  0
 53 56  1  0  0  0  0
 55 53  1  0  0  0  0
M  CHG  2   1  -1  44  -1
M  END
