1,2,3,4
 OpenBabel05122313063D

 44 46  0  0  1  0  0  0  0  0999 V2000
    1.6025   -1.6736    0.5908 O   0  5  0  0  0  0  0  0  0  0  0  0
   -0.8655   -1.8726   -0.3240 O   0  5  0  0  0  0  0  0  0  0  0  0
    1.1003    0.8433   -0.4533 N   0  0  0  0  0  2  0  0  0  0  0  0
   -1.3570    0.7100    0.0953 N   0  0  0  0  0  2  0  0  0  0  0  0
    2.8290   -1.5145    0.1982 C   0  0  0  0  0  0  0  0  0  0  0  0
    3.7851   -2.5494    0.4472 C   0  0  0  0  0  0  0  0  0  0  0  0
    3.4249   -3.4455    0.9725 H   0  0  0  0  0  0  0  0  0  0  0  0
    5.1032   -2.4186    0.0381 C   0  0  0  0  0  0  0  0  0  0  0  0
    5.8189   -3.2304    0.2408 H   0  0  0  0  0  0  0  0  0  0  0  0
    5.5441   -1.2471   -0.6391 C   0  0  0  0  0  0  0  0  0  0  0  0
    6.5933   -1.1561   -0.9561 H   0  0  0  0  0  0  0  0  0  0  0  0
    4.6459   -0.2243   -0.8932 C   0  0  0  0  0  0  0  0  0  0  0  0
    4.9766    0.6887   -1.4145 H   0  0  0  0  0  0  0  0  0  0  0  0
    3.2767   -0.3182   -0.4912 C   0  0  0  0  0  0  0  0  0  0  0  0
    2.3972    0.7602   -0.7668 C   0  0  0  0  0  3  0  0  0  0  0  0
    2.8450    1.6217   -1.2941 H   0  0  0  0  0  0  0  0  0  0  0  0
    0.3456    2.0584   -0.8398 C   0  0  1  0  0  0  0  0  0  0  0  0
   -0.0372    1.9000   -1.8770 H   0  0  0  0  0  0  0  0  0  0  0  0
   -0.8713    2.0920    0.0959 C   0  0  1  0  0  0  0  0  0  0  0  0
   -0.4853    2.3022    1.1190 H   0  0  0  0  0  0  0  0  0  0  0  0
   -1.8394    3.2158   -0.2690 C   0  0  0  0  0  0  0  0  0  0  0  0
   -2.2533    3.0455   -1.2875 H   0  0  0  0  0  0  0  0  0  0  0  0
   -2.6949    3.2270    0.4376 H   0  0  0  0  0  0  0  0  0  0  0  0
   -1.0975    4.5601   -0.2243 C   0  0  0  0  0  0  0  0  0  0  0  0
   -1.7823    5.3813   -0.5185 H   0  0  0  0  0  0  0  0  0  0  0  0
   -0.7904    4.7694    0.8239 H   0  0  0  0  0  0  0  0  0  0  0  0
    0.1427    4.5512   -1.1263 C   0  0  0  0  0  0  0  0  0  0  0  0
    0.6844    5.5160   -1.0479 H   0  0  0  0  0  0  0  0  0  0  0  0
   -0.1787    4.4601   -2.1878 H   0  0  0  0  0  0  0  0  0  0  0  0
    1.0973    3.3934   -0.7937 C   0  0  0  0  0  0  0  0  0  0  0  0
    1.5299    3.5260    0.2223 H   0  0  0  0  0  0  0  0  0  0  0  0
    1.9443    3.3999   -1.5089 H   0  0  0  0  0  0  0  0  0  0  0  0
   -2.6049    0.4308   -0.1599 C   0  0  0  0  0  3  0  0  0  0  0  0
   -3.3349    1.2525   -0.2846 H   0  0  0  0  0  0  0  0  0  0  0  0
   -3.0956   -0.9115   -0.3635 C   0  0  0  0  0  0  0  0  0  0  0  0
   -4.4800   -1.1433   -0.5450 C   0  0  0  0  0  0  0  0  0  0  0  0
   -5.1730   -0.2923   -0.4452 H   0  0  0  0  0  0  0  0  0  0  0  0
   -4.9673   -2.4163   -0.8463 C   0  0  0  0  0  0  0  0  0  0  0  0
   -6.0465   -2.5838   -0.9734 H   0  0  0  0  0  0  0  0  0  0  0  0
   -4.0559   -3.4815   -0.9960 C   0  0  0  0  0  0  0  0  0  0  0  0
   -4.4265   -4.4892   -1.2400 H   0  0  0  0  0  0  0  0  0  0  0  0
   -2.6822   -3.2777   -0.8397 C   0  0  0  0  0  0  0  0  0  0  0  0
   -1.9597   -4.0984   -0.9534 H   0  0  0  0  0  0  0  0  0  0  0  0
   -2.1725   -1.9994   -0.4990 C   0  0  0  0  0  0  0  0  0  0  0  0
  4 19  1  0  0  0  0
  5  6  1  0  0  0  0
  5  1  1  0  0  0  0
  6  7  1  0  0  0  0
  8  9  1  0  0  0  0
  8  6  2  0  0  0  0
 10  8  1  0  0  0  0
 11 10  1  0  0  0  0
 12 10  2  0  0  0  0
 12 14  1  0  0  0  0
 13 12  1  0  0  0  0
 14  5  2  0  0  0  0
 15 14  1  0  0  0  0
 15  3  1  0  0  0  0
 16 15  1  0  0  0  0
 17 18  1  6  0  0  0
 17 30  1  0  0  0  0
 17  3  1  0  0  0  0
 17 19  1  0  0  0  0
 19 20  1  1  0  0  0
 21 24  1  0  0  0  0
 21 19  1  0  0  0  0
 21 23  1  0  0  0  0
 22 21  1  0  0  0  0
 24 26  1  0  0  0  0
 25 24  1  0  0  0  0
 27 28  1  0  0  0  0
 27 30  1  0  0  0  0
 27 24  1  0  0  0  0
 29 27  1  0  0  0  0
 30 31  1  0  0  0  0
 32 30  1  0  0  0  0
 33  4  1  0  0  0  0
 34 33  1  0  0  0  0
 35 33  1  0  0  0  0
 36 37  1  0  0  0  0
 36 35  2  0  0  0  0
 38 36  1  0  0  0  0
 39 38  1  0  0  0  0
 40 38  2  0  0  0  0
 40 42  1  0  0  0  0
 41 40  1  0  0  0  0
 42 44  2  0  0  0  0
 43 42  1  0  0  0  0
 44 35  1  0  0  0  0
 44  2  1  0  0  0  0
M  CHG  2   1  -1   2  -1
M  END
