1,2,3,4
 OpenBabel05122313063D

 49 52  0  0  1  0  0  0  0  0999 V2000
    1.1739   -1.3618    0.1097 O   0  5  0  0  0  0  0  0  0  0  0  0
   -1.3262   -1.3218   -0.0800 O   0  5  0  0  0  0  0  0  0  0  0  0
    1.2280    1.3448    0.1701 N   0  0  0  0  0  2  0  0  0  0  0  0
   -1.2947    1.3630   -0.1594 N   0  0  0  0  0  2  0  0  0  0  0  0
    3.2223   -0.0706    0.0682 C   0  0  0  0  0  0  0  0  0  0  0  0
    2.4650   -1.2933    0.0742 C   0  0  0  0  0  0  0  0  0  0  0  0
    3.1820   -2.5465    0.0589 C   0  0  0  0  0  0  0  0  0  0  0  0
    2.5716   -3.4605    0.0780 H   0  0  0  0  0  0  0  0  0  0  0  0
    4.5530   -2.5838    0.0210 C   0  0  0  0  0  0  0  0  0  0  0  0
    5.0770   -3.5530    0.0095 H   0  0  0  0  0  0  0  0  0  0  0  0
    5.3432   -1.3859   -0.0112 C   0  0  0  0  0  0  0  0  0  0  0  0
    6.7606   -1.4485   -0.0640 C   0  0  0  0  0  3  0  0  0  0  0  0
    7.2398   -2.4402   -0.0738 H   0  0  0  0  0  0  0  0  0  0  0  0
    7.5323   -0.2927   -0.1050 C   0  0  0  0  0  0  0  0  0  0  0  0
    8.6299   -0.3537   -0.1462 H   0  0  0  0  0  0  0  0  0  0  0  0
    6.8866    0.9646   -0.1002 C   0  0  0  0  0  0  0  0  0  0  0  0
    7.4845    1.8880   -0.1420 H   0  0  0  0  0  0  0  0  0  0  0  0
    5.4974    1.0513   -0.0499 C   0  0  0  0  0  0  0  0  0  0  0  0
    5.0401    2.0510   -0.0650 H   0  0  0  0  0  0  0  0  0  0  0  0
    4.6771   -0.1104    0.0049 C   0  0  0  0  0  0  0  0  0  0  0  0
    2.5340    1.1714    0.1690 C   0  0  0  0  0  0  0  0  0  0  0  0
    3.1518    2.0775    0.2781 H   0  0  0  0  0  0  0  0  0  0  0  0
   -3.3389    0.0311   -0.0691 C   0  0  0  0  0  0  0  0  0  0  0  0
   -2.6153   -1.2133   -0.0578 C   0  0  0  0  0  0  0  0  0  0  0  0
   -3.3691   -2.4446   -0.0350 C   0  0  0  0  0  0  0  0  0  0  0  0
   -2.7854   -3.3761   -0.0386 H   0  0  0  0  0  0  0  0  0  0  0  0
   -4.7409   -2.4420   -0.0086 C   0  0  0  0  0  0  0  0  0  0  0  0
   -5.2925   -3.3957    0.0092 H   0  0  0  0  0  0  0  0  0  0  0  0
   -5.4969   -1.2218    0.0024 C   0  0  0  0  0  0  0  0  0  0  0  0
   -6.9160   -1.2431    0.0410 C   0  0  0  0  0  0  0  0  0  0  0  0
   -7.4237   -2.2204    0.0579 H   0  0  0  0  0  0  0  0  0  0  0  0
   -7.6542   -0.0651    0.0593 C   0  0  0  0  0  0  0  0  0  0  0  0
   -8.7534   -0.0940    0.0896 H   0  0  0  0  0  0  0  0  0  0  0  0
   -6.9727    1.1731    0.0439 C   0  0  0  0  0  0  0  0  0  0  0  0
   -7.5442    2.1137    0.0655 H   0  0  0  0  0  0  0  0  0  0  0  0
   -5.5811    1.2193    0.0070 C   0  0  0  0  0  0  0  0  0  0  0  0
   -5.0948    2.2053    0.0095 H   0  0  0  0  0  0  0  0  0  0  0  0
   -4.7946    0.0338   -0.0218 C   0  0  1  0  0  3  0  0  0  0  0  0
   -2.6073    1.2473   -0.1635 C   0  0  0  0  0  0  0  0  0  0  0  0
   -3.1752    2.1898   -0.2704 H   0  0  0  0  0  0  0  0  0  0  0  0
   -0.6746    2.6648   -0.3776 C   0  0  0  0  0  0  0  0  0  0  0  0
   -0.4488    2.7941   -1.4614 H   0  0  0  0  0  0  0  0  0  0  0  0
   -1.3467    3.4939   -0.0670 H   0  0  0  0  0  0  0  0  0  0  0  0
    0.6353    2.6799    0.4072 C   0  0  2  0  0  0  0  0  0  0  0  0
    0.3724    2.7260    1.4900 H   0  0  0  0  0  0  0  0  0  0  0  0
    1.5128    3.8782    0.0573 C   0  0  0  0  0  0  0  0  0  0  0  0
    2.3960    3.9621    0.7196 H   0  0  0  0  0  0  0  0  0  0  0  0
    0.9295    4.8121    0.1796 H   0  0  0  0  0  0  0  0  0  0  0  0
    1.8640    3.8255   -0.9935 H   0  0  0  0  0  0  0  0  0  0  0  0
  2 24  1  0  0  0  0
  3 44  1  0  0  0  0
  5  6  1  0  0  0  0
  5 21  2  0  0  0  0
  6  1  1  0  0  0  0
  7  6  2  0  0  0  0
  7  8  1  0  0  0  0
  9  7  1  0  0  0  0
 10  9  1  0  0  0  0
 11 20  1  0  0  0  0
 11  9  2  0  0  0  0
 12 11  1  0  0  0  0
 13 12  1  0  0  0  0
 14 16  2  0  0  0  0
 14 12  1  0  0  0  0
 15 14  1  0  0  0  0
 16 18  1  0  0  0  0
 17 16  1  0  0  0  0
 18 20  2  0  0  0  0
 19 18  1  0  0  0  0
 20  5  1  0  0  0  0
 21  3  1  0  0  0  0
 21 22  1  0  0  0  0
 23 24  1  0  0  0  0
 24 25  2  0  0  0  0
 25 27  1  0  0  0  0
 26 25  1  0  0  0  0
 27 29  2  0  0  0  0
 27 28  1  0  0  0  0
 29 30  1  0  0  0  0
 30 31  1  0  0  0  0
 30 32  2  0  0  0  0
 32 33  1  0  0  0  0
 34 32  1  0  0  0  0
 34 35  1  0  0  0  0
 36 37  1  0  0  0  0
 36 34  2  0  0  0  0
 38 23  1  1  0  0  0
 38 29  1  0  0  0  0
 38 36  1  0  0  0  0
 39  4  1  0  0  0  0
 39 23  2  0  0  0  0
 40 39  1  0  0  0  0
 41  4  1  0  0  0  0
 41 43  1  0  0  0  0
 41 44  1  0  0  0  0
 42 41  1  0  0  0  0
 44 45  1  1  0  0  0
 46 48  1  0  0  0  0
 46 44  1  0  0  0  0
 46 47  1  0  0  0  0
 49 46  1  0  0  0  0
M  CHG  2   1  -1   2  -1
M  END
