1,2,5,6
 OpenBabel05122313063D

 52 55  0  0  0  0  0  0  0  0999 V2000
    1.9523   -1.2474   -0.3206 O   0  5  0  0  0  0  0  0  0  0  0  0
    1.9539    1.2481   -0.3177 O   0  5  0  0  0  0  0  0  0  0  0  0
    4.2217   -2.5344   -0.1627 O   0  0  0  0  0  0  0  0  0  0  0  0
    4.2249    2.5321   -0.1579 O   0  0  0  0  0  0  0  0  0  0  0  0
   -0.7971   -1.2816   -0.4658 N   0  0  0  0  0  2  0  0  0  0  0  0
   -0.7955    1.2860   -0.4634 N   0  0  0  0  0  2  0  0  0  0  0  0
   -3.2960   -1.4089   -0.4983 C   0  0  0  0  0  0  0  0  0  0  0  0
   -2.0882   -0.7152   -0.5010 C   0  0  0  0  0  0  0  0  0  0  0  0
   -2.0873    0.7214   -0.4996 C   0  0  0  0  0  0  0  0  0  0  0  0
   -3.2942    1.4165   -0.4956 C   0  0  0  0  0  0  0  0  0  0  0  0
   -5.7837    1.4167   -0.5191 C   0  0  0  0  0  0  0  0  0  0  0  0
   -6.9803    0.7177   -0.5270 C   0  0  0  0  0  0  0  0  0  0  0  0
   -6.9812   -0.7054   -0.5283 C   0  0  0  0  0  0  0  0  0  0  0  0
   -5.7855   -1.4059   -0.5217 C   0  0  0  0  0  0  0  0  0  0  0  0
   -4.5351   -0.7181   -0.5159 C   0  0  0  0  0  0  0  0  0  0  0  0
   -4.5342    0.7273   -0.5146 C   0  0  0  0  0  0  0  0  0  0  0  0
   -0.6113   -2.5934   -0.4665 C   0  0  0  0  0  3  0  0  0  0  0  0
    0.6283   -3.2701   -0.3426 C   0  0  0  0  0  0  0  0  0  0  0  0
    0.6394   -4.7008   -0.3134 C   0  0  0  0  0  0  0  0  0  0  0  0
    1.8336   -5.3902   -0.2247 C   0  0  0  0  0  0  0  0  0  0  0  0
    3.0692   -4.6869   -0.1702 C   0  0  0  0  0  0  0  0  0  0  0  0
    3.1037   -3.2944   -0.2028 C   0  0  0  0  0  0  0  0  0  0  0  0
    1.8684   -2.5306   -0.2793 C   0  0  0  0  0  0  0  0  0  0  0  0
    5.4685   -3.1909   -0.0660 C   0  0  0  0  0  0  0  0  0  0  0  0
   -0.6079    2.5976   -0.4628 C   0  0  0  0  0  3  0  0  0  0  0  0
    0.6325    3.2725   -0.3380 C   0  0  0  0  0  0  0  0  0  0  0  0
    0.6455    4.7032   -0.3074 C   0  0  0  0  0  0  0  0  0  0  0  0
    1.8405    5.3910   -0.2178 C   0  0  0  0  0  0  0  0  0  0  0  0
    3.0752    4.6861   -0.1637 C   0  0  0  0  0  0  0  0  0  0  0  0
    3.1079    3.2936   -0.1976 C   0  0  0  0  0  0  0  0  0  0  0  0
    1.8716    2.5314   -0.2752 C   0  0  0  0  0  0  0  0  0  0  0  0
    5.4725    3.1869   -0.0602 C   0  0  0  0  0  0  0  0  0  0  0  0
   -3.3190   -2.5070   -0.4729 H   0  0  0  0  0  0  0  0  0  0  0  0
   -3.3158    2.5146   -0.4682 H   0  0  0  0  0  0  0  0  0  0  0  0
   -5.7802    2.5177   -0.5142 H   0  0  0  0  0  0  0  0  0  0  0  0
   -7.9362    1.2628   -0.5297 H   0  0  0  0  0  0  0  0  0  0  0  0
   -7.9377   -1.2493   -0.5320 H   0  0  0  0  0  0  0  0  0  0  0  0
   -5.7833   -2.5070   -0.5189 H   0  0  0  0  0  0  0  0  0  0  0  0
   -1.5012   -3.2374   -0.5824 H   0  0  0  0  0  0  0  0  0  0  0  0
   -0.3199   -5.2389   -0.3564 H   0  0  0  0  0  0  0  0  0  0  0  0
    1.8413   -6.4894   -0.1943 H   0  0  0  0  0  0  0  0  0  0  0  0
    4.0043   -5.2584   -0.0962 H   0  0  0  0  0  0  0  0  0  0  0  0
    6.2386   -2.3981   -0.0416 H   0  0  0  0  0  0  0  0  0  0  0  0
    5.6569   -3.8545   -0.9407 H   0  0  0  0  0  0  0  0  0  0  0  0
    5.5446   -3.8001    0.8634 H   0  0  0  0  0  0  0  0  0  0  0  0
   -1.4970    3.2429   -0.5784 H   0  0  0  0  0  0  0  0  0  0  0  0
   -0.3131    5.2425   -0.3502 H   0  0  0  0  0  0  0  0  0  0  0  0
    1.8496    6.4901   -0.1864 H   0  0  0  0  0  0  0  0  0  0  0  0
    4.0110    5.2563   -0.0888 H   0  0  0  0  0  0  0  0  0  0  0  0
    6.2416    2.3931   -0.0363 H   0  0  0  0  0  0  0  0  0  0  0  0
    5.5491    3.7951    0.8697 H   0  0  0  0  0  0  0  0  0  0  0  0
    5.6620    3.8510   -0.9343 H   0  0  0  0  0  0  0  0  0  0  0  0
  1 23  1  0  0  0  0
  2 31  1  0  0  0  0
  3 24  1  0  0  0  0
  4 32  1  0  0  0  0
  6 25  1  0  0  0  0
  7 33  1  0  0  0  0
  8  9  2  0  0  0  0
  8  7  1  0  0  0  0
  8  5  1  0  0  0  0
  9 10  1  0  0  0  0
  9  6  1  0  0  0  0
 10 34  1  0  0  0  0
 11 16  1  0  0  0  0
 11 35  1  0  0  0  0
 12 11  2  0  0  0  0
 13 12  1  0  0  0  0
 13 14  2  0  0  0  0
 14 38  1  0  0  0  0
 14 15  1  0  0  0  0
 15 16  1  0  0  0  0
 15  7  2  0  0  0  0
 16 10  2  0  0  0  0
 17  5  1  0  0  0  0
 17 18  1  0  0  0  0
 18 19  2  0  0  0  0
 18 23  1  0  0  0  0
 19 20  1  0  0  0  0
 20 41  1  0  0  0  0
 20 21  2  0  0  0  0
 21 42  1  0  0  0  0
 22 21  1  0  0  0  0
 22  3  1  0  0  0  0
 23 22  2  0  0  0  0
 24 43  1  0  0  0  0
 24 45  1  0  0  0  0
 25 26  1  0  0  0  0
 26 27  2  0  0  0  0
 26 31  1  0  0  0  0
 27 28  1  0  0  0  0
 28 48  1  0  0  0  0
 28 29  2  0  0  0  0
 29 49  1  0  0  0  0
 30 29  1  0  0  0  0
 30  4  1  0  0  0  0
 31 30  2  0  0  0  0
 32 50  1  0  0  0  0
 32 51  1  0  0  0  0
 36 12  1  0  0  0  0
 37 13  1  0  0  0  0
 39 17  1  0  0  0  0
 40 19  1  0  0  0  0
 44 24  1  0  0  0  0
 46 25  1  0  0  0  0
 47 27  1  0  0  0  0
 52 32  1  0  0  0  0
M  CHG  2   1  -1   2  -1
M  END
