1,2,20,21
 OpenBabel05122313063D

 37 38  0  0  0  0  0  0  0  0999 V2000
   -1.2382   -0.9610    0.7293 O   0  5  0  0  0  0  0  0  0  0  0  0
   -1.4227    1.6183   -0.1028 N   0  0  0  0  0  2  0  0  0  0  0  0
   -2.3888   -1.1634    0.1571 C   0  0  0  0  0  0  0  0  0  0  0  0
   -3.0033   -2.4506    0.2413 C   0  0  0  0  0  0  0  0  0  0  0  0
   -4.2318   -2.6957   -0.3625 C   0  0  0  0  0  0  0  0  0  0  0  0
   -4.9267   -1.6768   -1.0624 C   0  0  0  0  0  0  0  0  0  0  0  0
   -4.3678   -0.4067   -1.1322 C   0  0  0  0  0  3  0  0  0  0  0  0
   -3.1060   -0.1254   -0.5384 C   0  0  0  0  0  0  0  0  0  0  0  0
   -2.6073    1.2130   -0.5103 C   0  0  0  0  0  0  0  0  0  0  0  0
   -1.2613    3.0637    0.0526 C   0  0  0  0  0  0  0  0  0  0  0  0
    0.0004    3.5975   -0.6076 C   0  0  0  0  0  0  0  0  0  0  0  0
   -2.4580   -3.2349    0.7855 H   0  0  0  0  0  0  0  0  0  0  0  0
   -4.6716   -3.7034   -0.2950 H   0  0  0  0  0  0  0  0  0  0  0  0
   -5.8977   -1.8882   -1.5325 H   0  0  0  0  0  0  0  0  0  0  0  0
   -4.8997    0.4082   -1.6497 H   0  0  0  0  0  0  0  0  0  0  0  0
   -3.3192    2.0024   -0.8272 H   0  0  0  0  0  0  0  0  0  0  0  0
   -1.2259    3.2886    1.1426 H   0  0  0  0  0  0  0  0  0  0  0  0
   -2.1573    3.5814   -0.3540 H   0  0  0  0  0  0  0  0  0  0  0  0
    0.0004    4.7041   -0.5240 H   0  0  0  0  0  0  0  0  0  0  0  0
    1.2382   -0.9611    0.7295 O   0  5  0  0  0  0  0  0  0  0  0  0
    1.4229    1.6182   -0.1020 N   0  0  0  0  0  2  0  0  0  0  0  0
    1.2615    3.0635    0.0538 C   0  0  0  0  0  0  0  0  0  0  0  0
    0.0010    3.3480   -1.6899 H   0  0  0  0  0  0  0  0  0  0  0  0
    2.3887   -1.1636    0.1571 C   0  0  0  0  0  0  0  0  0  0  0  0
    2.6075    1.2130   -0.5096 C   0  0  0  0  0  0  0  0  0  0  0  0
    1.2249    3.2879    1.1439 H   0  0  0  0  0  0  0  0  0  0  0  0
    2.1579    3.5813   -0.3516 H   0  0  0  0  0  0  0  0  0  0  0  0
    3.0030   -2.4509    0.2408 C   0  0  0  0  0  0  0  0  0  0  0  0
    3.1060   -0.1256   -0.5383 C   0  0  0  0  0  0  0  0  0  0  0  0
    3.3196    2.0025   -0.8260 H   0  0  0  0  0  0  0  0  0  0  0  0
    4.2314   -2.6961   -0.3631 C   0  0  0  0  0  0  0  0  0  0  0  0
    2.4576   -3.2353    0.7848 H   0  0  0  0  0  0  0  0  0  0  0  0
    4.3677   -0.4069   -1.1322 C   0  0  0  0  0  3  0  0  0  0  0  0
    4.9264   -1.6771   -1.0628 C   0  0  0  0  0  0  0  0  0  0  0  0
    4.6710   -3.7039   -0.2960 H   0  0  0  0  0  0  0  0  0  0  0  0
    4.8997    0.4081   -1.6495 H   0  0  0  0  0  0  0  0  0  0  0  0
    5.8973   -1.8885   -1.5330 H   0  0  0  0  0  0  0  0  0  0  0  0
  2 10  1  0  0  0  0
  3  4  2  0  0  0  0
  3  1  1  0  0  0  0
  4 12  1  0  0  0  0
  5 13  1  0  0  0  0
  5  4  1  0  0  0  0
  6  5  2  0  0  0  0
  7  6  1  0  0  0  0
  7  8  1  0  0  0  0
  8  9  2  0  0  0  0
  8  3  1  0  0  0  0
  9  2  1  0  0  0  0
 10 17  1  0  0  0  0
 11 19  1  0  0  0  0
 11 10  1  0  0  0  0
 11 22  1  0  0  0  0
 14  6  1  0  0  0  0
 15  7  1  0  0  0  0
 16  9  1  0  0  0  0
 18 10  1  0  0  0  0
 21 22  1  0  0  0  0
 22 26  1  0  0  0  0
 23 11  1  0  0  0  0
 24 28  2  0  0  0  0
 24 20  1  0  0  0  0
 25 21  1  0  0  0  0
 27 22  1  0  0  0  0
 28 32  1  0  0  0  0
 29 25  2  0  0  0  0
 29 24  1  0  0  0  0
 30 25  1  0  0  0  0
 31 35  1  0  0  0  0
 31 28  1  0  0  0  0
 33 34  1  0  0  0  0
 33 29  1  0  0  0  0
 34 31  2  0  0  0  0
 36 33  1  0  0  0  0
 37 34  1  0  0  0  0
M  CHG  2   1  -1  20  -1
M  END
