1,2,3,4
 OpenBabel05122313063D

 40 41  0  0  1  0  0  0  0  0999 V2000
   -1.2286   -1.3218    0.0639 O   0  5  0  0  0  0  0  0  0  0  0  0
    1.2285   -1.3218   -0.0639 O   0  0  0  0  0  1  0  0  0  0  0  0
   -1.2925    1.3718    0.1784 N   0  0  0  0  0  2  0  0  0  0  0  0
    1.2925    1.3718   -0.1785 N   0  0  0  0  0  2  0  0  0  0  0  0
   -2.6115    1.2529    0.2709 C   0  0  0  0  0  0  0  0  0  0  0  0
   -2.5189   -1.2414   -0.0335 C   0  0  0  0  0  0  0  0  0  0  0  0
   -3.2818   -0.0132    0.0546 C   0  0  0  0  0  0  0  0  0  0  0  0
   -4.7016   -0.0898   -0.0749 C   0  0  0  0  0  3  0  0  0  0  0  0
   -5.3663   -1.2930   -0.2694 C   0  0  0  0  0  0  0  0  0  0  0  0
   -4.6179   -2.4948   -0.3281 C   0  0  0  0  0  0  0  0  0  0  0  0
   -3.2372   -2.4694   -0.2123 C   0  0  0  0  0  0  0  0  0  0  0  0
   -3.4289    2.4787    0.6233 C   0  0  0  0  0  0  0  0  0  0  0  0
   -0.6506    2.6699    0.3902 C   0  0  0  0  0  0  0  0  0  0  0  0
    2.6115    1.2529   -0.2709 C   0  0  0  0  0  0  0  0  0  0  0  0
    2.5189   -1.2414    0.0335 C   0  0  2  0  0  3  0  0  0  0  0  0
    3.2818   -0.0132   -0.0546 C   0  0  0  0  0  0  0  0  0  0  0  0
    4.7016   -0.0898    0.0749 C   0  0  0  0  0  0  0  0  0  0  0  0
    5.3663   -1.2930    0.2694 C   0  0  0  0  0  0  0  0  0  0  0  0
    4.6179   -2.4948    0.3281 C   0  0  0  0  0  0  0  0  0  0  0  0
    3.2372   -2.4694    0.2123 C   0  0  0  0  0  0  0  0  0  0  0  0
    3.4290    2.4786   -0.6233 C   0  0  0  0  0  0  0  0  0  0  0  0
    0.6506    2.6699   -0.3902 C   0  0  0  0  0  0  0  0  0  0  0  0
   -5.2963    0.8339   -0.0476 H   0  0  0  0  0  0  0  0  0  0  0  0
   -6.4602   -1.3094   -0.3783 H   0  0  0  0  0  0  0  0  0  0  0  0
   -5.1343   -3.4570   -0.4719 H   0  0  0  0  0  0  0  0  0  0  0  0
   -2.6318   -3.3858   -0.2596 H   0  0  0  0  0  0  0  0  0  0  0  0
   -4.4524    2.2116    0.9301 H   0  0  0  0  0  0  0  0  0  0  0  0
   -3.5044    3.1830   -0.2324 H   0  0  0  0  0  0  0  0  0  0  0  0
   -2.9682    3.0313    1.4652 H   0  0  0  0  0  0  0  0  0  0  0  0
   -0.4388    2.8089    1.4754 H   0  0  0  0  0  0  0  0  0  0  0  0
   -1.2827    3.5189    0.0617 H   0  0  0  0  0  0  0  0  0  0  0  0
    5.2963    0.8339    0.0475 H   0  0  0  0  0  0  0  0  0  0  0  0
    6.4602   -1.3094    0.3783 H   0  0  0  0  0  0  0  0  0  0  0  0
    5.1343   -3.4570    0.4719 H   0  0  0  0  0  0  0  0  0  0  0  0
    2.6318   -3.3858    0.2596 H   0  0  0  0  0  0  0  0  0  0  0  0
    4.4525    2.2115   -0.9300 H   0  0  0  0  0  0  0  0  0  0  0  0
    3.5045    3.1830    0.2324 H   0  0  0  0  0  0  0  0  0  0  0  0
    2.9685    3.0312   -1.4653 H   0  0  0  0  0  0  0  0  0  0  0  0
    0.4388    2.8089   -1.4754 H   0  0  0  0  0  0  0  0  0  0  0  0
    1.2827    3.5189   -0.0617 H   0  0  0  0  0  0  0  0  0  0  0  0
  3  5  1  0  0  0  0
  3 13  1  0  0  0  0
  5 12  1  0  0  0  0
  6  7  1  0  0  0  0
  6  1  1  0  0  0  0
  7  5  2  0  0  0  0
  8 23  1  0  0  0  0
  8  7  1  0  0  0  0
  9  8  1  0  0  0  0
 10  9  2  0  0  0  0
 10 11  1  0  0  0  0
 11  6  2  0  0  0  0
 12 27  1  0  0  0  0
 12 29  1  0  0  0  0
 13 30  1  0  0  0  0
 14  4  1  0  0  0  0
 14 16  2  0  0  0  0
 15  2  1  6  0  0  0
 15 20  1  0  0  0  0
 16 15  1  0  0  0  0
 16 17  1  0  0  0  0
 17 18  2  0  0  0  0
 18 19  1  0  0  0  0
 18 33  1  0  0  0  0
 19 34  1  0  0  0  0
 20 35  1  0  0  0  0
 20 19  2  0  0  0  0
 21 14  1  0  0  0  0
 21 37  1  0  0  0  0
 22  4  1  0  0  0  0
 22 40  1  0  0  0  0
 22 13  1  0  0  0  0
 24  9  1  0  0  0  0
 25 10  1  0  0  0  0
 26 11  1  0  0  0  0
 28 12  1  0  0  0  0
 31 13  1  0  0  0  0
 32 17  1  0  0  0  0
 36 21  1  0  0  0  0
 38 21  1  0  0  0  0
 39 22  1  0  0  0  0
M  CHG  1   1  -1
M  END
