1,2,3,4
 OpenBabel05122313063D

 38 40  0  0  0  0  0  0  0  0999 V2000
    1.2279   -0.9658    0.0005 O   0  5  0  0  0  0  0  0  0  0  0  0
   -1.2279   -0.9658    0.0016 O   0  5  0  0  0  0  0  0  0  0  0  0
    1.2744    1.7702    0.0002 N   0  0  0  0  0  2  0  0  0  0  0  0
   -1.2744    1.7702    0.0001 N   0  0  0  0  0  2  0  0  0  0  0  0
    7.1229   -0.8988   -0.0028 Cl  0  0  0  0  0  0  0  0  0  0  0  0
    2.4177   -3.6163    0.0023 Cl  0  0  0  0  0  0  0  0  0  0  0  0
   -7.1229   -0.8988   -0.0031 Cl  0  0  0  0  0  0  0  0  0  0  0  0
   -2.4177   -3.6163    0.0024 Cl  0  0  0  0  0  0  0  0  0  0  0  0
    2.5869    1.5888   -0.0012 C   0  0  0  0  0  0  0  0  0  0  0  0
   -2.5869    1.5888   -0.0007 C   0  0  0  0  0  0  0  0  0  0  0  0
    0.7093    3.0655    0.0007 C   0  0  0  0  0  0  0  0  0  0  0  0
   -0.7093    3.0655    0.0006 C   0  0  0  0  0  0  0  0  0  0  0  0
   -1.4103    4.2879    0.0010 C   0  0  0  0  0  0  0  0  0  0  0  0
   -0.7037    5.4955    0.0016 C   0  0  0  0  0  0  0  0  0  0  0  0
    0.7037    5.4955    0.0019 C   0  0  0  0  0  0  0  0  0  0  0  0
    1.4103    4.2879    0.0015 C   0  0  0  0  0  0  0  0  0  0  0  0
    2.5128   -0.8956    0.0001 C   0  0  0  0  0  0  0  0  0  0  0  0
    3.2856   -2.1157    0.0006 C   0  0  0  0  0  0  0  0  0  0  0  0
    4.6733   -2.1054   -0.0003 C   0  0  0  0  0  0  0  0  0  0  0  0
    5.3773   -0.8716   -0.0017 C   0  0  0  0  0  0  0  0  0  0  0  0
    4.6914    0.3302   -0.0022 C   0  0  0  0  0  3  0  0  0  0  0  0
    3.2631    0.3409   -0.0012 C   0  0  0  0  0  0  0  0  0  0  0  0
   -2.5128   -0.8956    0.0006 C   0  0  0  0  0  0  0  0  0  0  0  0
   -3.2856   -2.1157    0.0008 C   0  0  0  0  0  0  0  0  0  0  0  0
   -4.6733   -2.1054   -0.0004 C   0  0  0  0  0  0  0  0  0  0  0  0
   -5.3773   -0.8716   -0.0017 C   0  0  0  0  0  0  0  0  0  0  0  0
   -4.6914    0.3302   -0.0019 C   0  0  0  0  0  3  0  0  0  0  0  0
   -3.2631    0.3409   -0.0007 C   0  0  0  0  0  0  0  0  0  0  0  0
    3.2296    2.4865   -0.0024 H   0  0  0  0  0  0  0  0  0  0  0  0
    5.2251   -3.0549    0.0002 H   0  0  0  0  0  0  0  0  0  0  0  0
    5.2435    1.2809   -0.0032 H   0  0  0  0  0  0  0  0  0  0  0  0
   -3.2296    2.4865   -0.0014 H   0  0  0  0  0  0  0  0  0  0  0  0
   -5.2251   -3.0549   -0.0003 H   0  0  0  0  0  0  0  0  0  0  0  0
   -5.2435    1.2809   -0.0029 H   0  0  0  0  0  0  0  0  0  0  0  0
   -2.5084    4.3088    0.0010 H   0  0  0  0  0  0  0  0  0  0  0  0
   -1.2555    6.4468    0.0020 H   0  0  0  0  0  0  0  0  0  0  0  0
    1.2555    6.4468    0.0026 H   0  0  0  0  0  0  0  0  0  0  0  0
    2.5084    4.3088    0.0020 H   0  0  0  0  0  0  0  0  0  0  0  0
  3 11  1  0  0  0  0
  4 12  1  0  0  0  0
  5 20  1  0  0  0  0
  7 26  1  0  0  0  0
  9 22  2  0  0  0  0
  9  3  1  0  0  0  0
 10  4  1  0  0  0  0
 11 16  1  0  0  0  0
 12 11  2  0  0  0  0
 12 13  1  0  0  0  0
 13 35  1  0  0  0  0
 13 14  2  0  0  0  0
 14 15  1  0  0  0  0
 14 36  1  0  0  0  0
 15 37  1  0  0  0  0
 16 15  2  0  0  0  0
 16 38  1  0  0  0  0
 17  1  1  0  0  0  0
 17 18  2  0  0  0  0
 18  6  1  0  0  0  0
 19 30  1  0  0  0  0
 19 18  1  0  0  0  0
 20 19  2  0  0  0  0
 21 20  1  0  0  0  0
 21 22  1  0  0  0  0
 22 17  1  0  0  0  0
 23 24  2  0  0  0  0
 23  2  1  0  0  0  0
 24  8  1  0  0  0  0
 25 33  1  0  0  0  0
 25 24  1  0  0  0  0
 26 25  2  0  0  0  0
 27 26  1  0  0  0  0
 27 28  1  0  0  0  0
 28 10  2  0  0  0  0
 28 23  1  0  0  0  0
 29  9  1  0  0  0  0
 31 21  1  0  0  0  0
 32 10  1  0  0  0  0
 34 27  1  0  0  0  0
M  CHG  2   1  -1   2  -1
M  END
