1,2,3,4
 OpenBabel05122313063D

 38 39  0  0  0  0  0  0  0  0999 V2000
   -1.5605   -0.6507    1.0949 O   0  5  0  0  0  0  0  0  0  0  0  0
    1.5606   -0.6507   -1.0950 O   0  5  0  0  0  0  0  0  0  0  0  0
   -0.9924    0.8134   -1.1069 N   0  0  0  0  0  0  0  0  0  0  0  0
    0.9927    0.8126    1.1074 N   0  0  0  0  0  0  0  0  0  0  0  0
    2.5556    0.1216   -0.6204 C   0  0  0  0  0  0  0  0  0  0  0  0
    3.8076    0.1789   -1.2653 C   0  0  0  0  0  0  0  0  0  0  0  0
    4.8165    1.0015   -0.7477 C   0  0  0  0  0  0  0  0  0  0  0  0
    4.5946    1.7753    0.4051 C   0  0  0  0  0  0  0  0  0  0  0  0
    3.3458    1.7289    1.0442 C   0  0  0  0  0  0  0  0  0  0  0  0
    2.3310    0.9042    0.5376 C   0  0  0  0  0  0  0  0  0  0  0  0
    0.9935    0.6013    2.5715 C   0  0  0  0  0  0  0  0  0  0  0  0
    0.1736    1.9986    0.7411 C   0  0  0  0  0  0  0  0  0  0  0  0
   -0.1732    1.9991   -0.7398 C   0  0  0  0  0  0  0  0  0  0  0  0
   -0.9929    0.6027   -2.5710 C   0  0  0  0  0  0  0  0  0  0  0  0
   -2.3309    0.9048   -0.5373 C   0  0  0  0  0  0  0  0  0  0  0  0
   -3.3456    1.7295   -1.0438 C   0  0  0  0  0  0  0  0  0  0  0  0
   -4.5946    1.7755   -0.4049 C   0  0  0  0  0  0  0  0  0  0  0  0
   -4.8167    1.0011    0.7475 C   0  0  0  0  0  0  0  0  0  0  0  0
   -3.8078    0.1785    1.2650 C   0  0  0  0  0  0  0  0  0  0  0  0
   -2.5556    0.1217    0.6204 C   0  0  0  0  0  0  0  0  0  0  0  0
    3.9657   -0.4396   -2.1601 H   0  0  0  0  0  0  0  0  0  0  0  0
    5.7956    1.0348   -1.2493 H   0  0  0  0  0  0  0  0  0  0  0  0
    5.3945    2.4127    0.8089 H   0  0  0  0  0  0  0  0  0  0  0  0
    3.1648    2.3337    1.9457 H   0  0  0  0  0  0  0  0  0  0  0  0
   -3.1645    2.3348   -1.9449 H   0  0  0  0  0  0  0  0  0  0  0  0
   -5.3945    2.4130   -0.8086 H   0  0  0  0  0  0  0  0  0  0  0  0
   -5.7959    1.0341    1.2488 H   0  0  0  0  0  0  0  0  0  0  0  0
   -3.9660   -0.4406    2.1594 H   0  0  0  0  0  0  0  0  0  0  0  0
   -0.7537    1.9707    1.3483 H   0  0  0  0  0  0  0  0  0  0  0  0
    0.7134    2.9376    0.9982 H   0  0  0  0  0  0  0  0  0  0  0  0
    0.7540    1.9715   -1.3470 H   0  0  0  0  0  0  0  0  0  0  0  0
   -0.7130    2.9383   -0.9963 H   0  0  0  0  0  0  0  0  0  0  0  0
    1.6328   -0.2677    2.8069 H   0  0  0  0  0  0  0  0  0  0  0  0
    1.3576    1.4988    3.1184 H   0  0  0  0  0  0  0  0  0  0  0  0
   -0.0403    0.3751    2.8940 H   0  0  0  0  0  0  0  0  0  0  0  0
   -1.6324   -0.2660   -2.8070 H   0  0  0  0  0  0  0  0  0  0  0  0
   -1.3567    1.5005   -3.1176 H   0  0  0  0  0  0  0  0  0  0  0  0
    0.0409    0.3764   -2.8934 H   0  0  0  0  0  0  0  0  0  0  0  0
  2  5  1  0  0  0  0
  3 13  1  0  0  0  0
  3 15  1  0  0  0  0
  4 11  1  0  0  0  0
  5 10  1  0  0  0  0
  6  7  1  0  0  0  0
  6  5  2  0  0  0  0
  7  8  2  0  0  0  0
  8 23  1  0  0  0  0
  8  9  1  0  0  0  0
  9 24  1  0  0  0  0
 10  9  2  0  0  0  0
 10  4  1  0  0  0  0
 11 33  1  0  0  0  0
 11 35  1  0  0  0  0
 11 34  1  0  0  0  0
 12 30  1  0  0  0  0
 12  4  1  0  0  0  0
 12 29  1  0  0  0  0
 13 12  1  0  0  0  0
 14  3  1  0  0  0  0
 15 20  1  0  0  0  0
 16 15  2  0  0  0  0
 16 17  1  0  0  0  0
 17 18  2  0  0  0  0
 18 27  1  0  0  0  0
 18 19  1  0  0  0  0
 19 28  1  0  0  0  0
 20  1  1  0  0  0  0
 20 19  2  0  0  0  0
 21  6  1  0  0  0  0
 22  7  1  0  0  0  0
 25 16  1  0  0  0  0
 26 17  1  0  0  0  0
 31 13  1  0  0  0  0
 32 13  1  0  0  0  0
 36 14  1  0  0  0  0
 37 14  1  0  0  0  0
 38 14  1  0  0  0  0
M  CHG  2   1  -1   2  -1
M  END
