1,2,4,7
 OpenBabel05122313063D

 49 50  0  0  0  0  0  0  0  0999 V2000
   -1.4139    1.7991    0.4462 N   0  0  0  0  0  2  0  0  0  0  0  0
    1.4085    1.7978   -0.4630 N   0  0  0  0  0  2  0  0  0  0  0  0
   -1.9743   -0.5311   -1.1013 O   0  0  0  0  0  0  0  0  0  0  0  0
    0.6381   -0.7073   -1.5792 O   0  5  0  0  0  0  0  0  0  0  0  0
    0.3278   -2.2571   -3.1967 O   0  0  0  0  0  0  0  0  0  0  0  0
    1.9783   -0.5129    1.1094 O   0  0  0  0  0  0  0  0  0  0  0  0
   -0.6313   -0.6779    1.6029 O   0  5  0  0  0  0  0  0  0  0  0  0
   -0.3156   -2.2113    3.2349 O   0  0  0  0  0  0  0  0  0  0  0  0
   -1.5665   -1.6377   -1.9307 C   0  0  0  0  0  0  0  0  0  0  0  0
   -2.1635   -1.6550   -2.8652 H   0  0  0  0  0  0  0  0  0  0  0  0
   -1.7272   -2.5930   -1.3850 H   0  0  0  0  0  0  0  0  0  0  0  0
   -0.0673   -1.5299   -2.2916 C   0  0  0  0  0  0  0  0  0  0  0  0
    1.5727   -1.6117    1.9500 C   0  0  0  0  0  0  0  0  0  0  0  0
    2.1755   -1.6239    2.8807 H   0  0  0  0  0  0  0  0  0  0  0  0
    1.7266   -2.5716    1.4103 H   0  0  0  0  0  0  0  0  0  0  0  0
    0.0762   -1.4954    2.3195 C   0  0  0  0  0  0  0  0  0  0  0  0
   -2.6812    1.6667    0.6696 C   0  0  0  0  0  3  0  0  0  0  0  0
   -3.1864    2.4522    1.2781 H   0  0  0  0  0  0  0  0  0  0  0  0
   -0.7286    2.9367    1.0435 C   0  0  0  0  0  0  0  0  0  0  0  0
    0.0218    2.5230    1.7530 H   0  0  0  0  0  0  0  0  0  0  0  0
   -1.4263    3.5704    1.6367 H   0  0  0  0  0  0  0  0  0  0  0  0
   -0.0032    3.7832   -0.0128 C   0  0  0  0  0  0  0  0  0  0  0  0
    0.7205    4.4437    0.5086 H   0  0  0  0  0  0  0  0  0  0  0  0
   -0.7264    4.4420   -0.5372 H   0  0  0  0  0  0  0  0  0  0  0  0
    0.7213    2.9315   -1.0654 C   0  0  0  0  0  0  0  0  0  0  0  0
   -0.0302    2.5137   -1.7713 H   0  0  0  0  0  0  0  0  0  0  0  0
    1.4175    3.5627   -1.6630 H   0  0  0  0  0  0  0  0  0  0  0  0
    2.6758    1.6655   -0.6876 C   0  0  0  0  0  3  0  0  0  0  0  0
    3.1789    2.4475   -1.3023 H   0  0  0  0  0  0  0  0  0  0  0  0
   -3.2277   -0.5005   -0.5925 C   0  0  0  0  0  0  0  0  0  0  0  0
   -4.1939   -1.4833   -0.8873 C   0  0  0  0  0  0  0  0  0  0  0  0
   -3.9359   -2.3291   -1.5357 H   0  0  0  0  0  0  0  0  0  0  0  0
   -5.4880   -1.3888   -0.3592 C   0  0  0  0  0  0  0  0  0  0  0  0
   -6.2219   -2.1720   -0.6031 H   0  0  0  0  0  0  0  0  0  0  0  0
   -5.8524   -0.3138    0.4666 C   0  0  0  0  0  0  0  0  0  0  0  0
   -6.8687   -0.2412    0.8787 H   0  0  0  0  0  0  0  0  0  0  0  0
   -4.8978    0.6611    0.7587 C   0  0  0  0  0  0  0  0  0  0  0  0
   -5.1608    1.5089    1.4108 H   0  0  0  0  0  0  0  0  0  0  0  0
   -3.5754    0.5975    0.2549 C   0  0  0  0  0  0  0  0  0  0  0  0
    3.2281   -0.4898    0.5918 C   0  0  0  0  0  0  0  0  0  0  0  0
    4.1946   -1.4713    0.8893 C   0  0  0  0  0  0  0  0  0  0  0  0
    3.9394   -2.3109    1.5468 H   0  0  0  0  0  0  0  0  0  0  0  0
    5.4856   -1.3833    0.3524 C   0  0  0  0  0  0  0  0  0  0  0  0
    6.2199   -2.1653    0.5985 H   0  0  0  0  0  0  0  0  0  0  0  0
    5.8464   -0.3160   -0.4850 C   0  0  0  0  0  0  0  0  0  0  0  0
    6.8603   -0.2484   -0.9037 H   0  0  0  0  0  0  0  0  0  0  0  0
    4.8912    0.6576   -0.7800 C   0  0  0  0  0  0  0  0  0  0  0  0
    5.1514    1.4992   -1.4412 H   0  0  0  0  0  0  0  0  0  0  0  0
    3.5717    0.5997   -0.2680 C   0  0  0  0  0  0  0  0  0  0  0  0
  1 17  1  0  0  0  0
  1 19  1  0  0  0  0
  3 30  1  0  0  0  0
  5 12  2  0  0  0  0
  6 13  1  0  0  0  0
  7 16  1  0  0  0  0
  9 11  1  0  0  0  0
  9  3  1  0  0  0  0
 10  9  1  0  0  0  0
 12  9  1  0  0  0  0
 12  4  1  0  0  0  0
 13 16  1  0  0  0  0
 13 14  1  0  0  0  0
 15 13  1  0  0  0  0
 16  8  2  0  0  0  0
 17 18  1  0  0  0  0
 19 21  1  0  0  0  0
 19 20  1  0  0  0  0
 22 23  1  0  0  0  0
 22 19  1  0  0  0  0
 24 22  1  0  0  0  0
 25  2  1  0  0  0  0
 25 22  1  0  0  0  0
 26 25  1  0  0  0  0
 27 25  1  0  0  0  0
 28  2  1  0  0  0  0
 28 49  1  0  0  0  0
 29 28  1  0  0  0  0
 30 39  1  0  0  0  0
 31 30  2  0  0  0  0
 31 33  1  0  0  0  0
 32 31  1  0  0  0  0
 33 35  2  0  0  0  0
 34 33  1  0  0  0  0
 35 37  1  0  0  0  0
 35 36  1  0  0  0  0
 37 38  1  0  0  0  0
 39 17  1  0  0  0  0
 39 37  2  0  0  0  0
 40 41  1  0  0  0  0
 40  6  1  0  0  0  0
 41 42  1  0  0  0  0
 43 44  1  0  0  0  0
 43 41  2  0  0  0  0
 45 43  1  0  0  0  0
 46 45  1  0  0  0  0
 47 45  2  0  0  0  0
 47 49  1  0  0  0  0
 48 47  1  0  0  0  0
 49 40  2  0  0  0  0
M  CHG  2   4  -1   7  -1
M  END
