2,3,7,8
 OpenBabel05122313063D

 45 47  0  0  0  0  0  0  0  0999 V2000
   -6.2705   -0.2300    0.0005 Br  0  0  0  0  0  0  0  0  0  0  0  0
    1.6829    1.4843    0.0002 O   0  5  0  0  0  0  0  0  0  0  0  0
    2.2330   -0.9366    0.0006 O   0  5  0  0  0  0  0  0  0  0  0  0
    3.6140    3.2383    0.0009 O   0  0  0  0  0  0  0  0  0  0  0  0
    4.7337   -1.6775    0.0007 O   0  0  0  0  0  0  0  0  0  0  0  0
   -2.6893   -2.2988    0.0000 N   0  0  0  0  0  0  0  0  0  0  0  0
   -0.4025   -1.5760   -0.0001 N   0  0  0  0  0  2  0  0  0  0  0  0
   -0.9916    0.9103   -0.0003 N   0  0  0  0  0  2  0  0  0  0  0  0
   -1.7838   -1.3189   -0.0001 C   0  0  0  0  0  0  0  0  0  0  0  0
   -2.1097    0.0653   -0.0001 C   0  0  0  0  0  0  0  0  0  0  0  0
   -3.4713    0.4152    0.0001 C   0  0  0  0  0  0  0  0  0  0  0  0
   -3.8087    1.4600    0.0002 H   0  0  0  0  0  0  0  0  0  0  0  0
   -4.4125   -0.6249    0.0002 C   0  0  0  0  0  0  0  0  0  0  0  0
   -3.9855   -1.9697    0.0001 C   0  0  0  0  0  0  0  0  0  0  0  0
   -4.7238   -2.7886    0.0002 H   0  0  0  0  0  0  0  0  0  0  0  0
   -0.0577    3.1710   -0.0009 C   0  0  0  0  0  0  0  0  0  0  0  0
    1.3156    2.7184   -0.0002 C   0  0  0  0  0  0  0  0  0  0  0  0
    2.3544    3.7368    0.0001 C   0  0  0  0  0  0  0  0  0  0  0  0
    2.0176    5.0872   -0.0004 C   0  0  0  0  0  0  0  0  0  0  0  0
    2.8087    5.8494   -0.0001 H   0  0  0  0  0  0  0  0  0  0  0  0
    0.6553    5.5069   -0.0011 C   0  0  0  0  0  0  0  0  0  0  0  0
    0.4262    6.5824   -0.0015 H   0  0  0  0  0  0  0  0  0  0  0  0
   -0.3598    4.5738   -0.0014 C   0  0  0  0  0  3  0  0  0  0  0  0
   -1.4152    4.8869   -0.0020 H   0  0  0  0  0  0  0  0  0  0  0  0
   -1.1159    2.2340   -0.0009 C   0  0  0  0  0  0  0  0  0  0  0  0
   -2.1387    2.6526   -0.0015 H   0  0  0  0  0  0  0  0  0  0  0  0
    4.6880    4.1542    0.0012 C   0  0  0  0  0  0  0  0  0  0  0  0
    4.6790    4.8054   -0.9028 H   0  0  0  0  0  0  0  0  0  0  0  0
    5.6147    3.5510    0.0018 H   0  0  0  0  0  0  0  0  0  0  0  0
    4.6781    4.8059    0.9049 H   0  0  0  0  0  0  0  0  0  0  0  0
    1.3987   -3.2159   -0.0005 C   0  0  0  0  0  0  0  0  0  0  0  0
    2.4370   -2.2102    0.0001 C   0  0  0  0  0  0  0  0  0  0  0  0
    3.8147   -2.6741    0.0001 C   0  0  0  0  0  0  0  0  0  0  0  0
    4.0988   -4.0370   -0.0004 C   0  0  0  0  0  0  0  0  0  0  0  0
    5.1431   -4.3782   -0.0004 H   0  0  0  0  0  0  0  0  0  0  0  0
    3.0562   -5.0084   -0.0010 C   0  0  0  0  0  0  0  0  0  0  0  0
    3.3190   -6.0762   -0.0014 H   0  0  0  0  0  0  0  0  0  0  0  0
    1.7358   -4.6101   -0.0010 C   0  0  0  0  0  3  0  0  0  0  0  0
    0.9197   -5.3483   -0.0015 H   0  0  0  0  0  0  0  0  0  0  0  0
    6.0983   -2.0368    0.0008 C   0  0  0  0  0  0  0  0  0  0  0  0
    6.3728   -2.6283    0.9043 H   0  0  0  0  0  0  0  0  0  0  0  0
    6.6720   -1.0914    0.0013 H   0  0  0  0  0  0  0  0  0  0  0  0
    6.3732   -2.6276   -0.9031 H   0  0  0  0  0  0  0  0  0  0  0  0
    0.0397   -2.8293   -0.0005 C   0  0  0  0  0  0  0  0  0  0  0  0
   -0.7415   -3.6117   -0.0007 H   0  0  0  0  0  0  0  0  0  0  0  0
  4 27  1  0  0  0  0
  5 40  1  0  0  0  0
  6 14  1  0  0  0  0
  7  9  1  0  0  0  0
  8 10  1  0  0  0  0
  9  6  2  0  0  0  0
 10  9  1  0  0  0  0
 10 11  2  0  0  0  0
 11 12  1  0  0  0  0
 11 13  1  0  0  0  0
 13  1  1  0  0  0  0
 14 13  2  0  0  0  0
 14 15  1  0  0  0  0
 16 17  1  0  0  0  0
 17 18  2  0  0  0  0
 17  2  1  0  0  0  0
 18  4  1  0  0  0  0
 19 20  1  0  0  0  0
 19 18  1  0  0  0  0
 21 19  2  0  0  0  0
 22 21  1  0  0  0  0
 23 21  1  0  0  0  0
 23 16  1  0  0  0  0
 24 23  1  0  0  0  0
 25 16  2  0  0  0  0
 25  8  1  0  0  0  0
 26 25  1  0  0  0  0
 27 29  1  0  0  0  0
 27 30  1  0  0  0  0
 28 27  1  0  0  0  0
 31 44  2  0  0  0  0
 31 32  1  0  0  0  0
 32 33  2  0  0  0  0
 32  3  1  0  0  0  0
 33  5  1  0  0  0  0
 34 35  1  0  0  0  0
 34 33  1  0  0  0  0
 36 34  2  0  0  0  0
 37 36  1  0  0  0  0
 38 36  1  0  0  0  0
 38 31  1  0  0  0  0
 39 38  1  0  0  0  0
 40 42  1  0  0  0  0
 40 41  1  0  0  0  0
 43 40  1  0  0  0  0
 44  7  1  0  0  0  0
 45 44  1  0  0  0  0
M  CHG  2   2  -1   3  -1
M  END
