11,23,35,36
 OpenBabel05122313063D

 46 48  0  0  0  0  0  0  0  0999 V2000
    0.7489    3.0097   -0.0055 C   0  0  0  0  0  0  0  0  0  0  0  0
   -0.6694    3.0265   -0.0214 C   0  0  0  0  0  0  0  0  0  0  0  0
   -1.3563    4.2536   -0.0460 C   0  0  0  0  0  0  0  0  0  0  0  0
   -2.4521    4.2859   -0.1185 H   0  0  0  0  0  0  0  0  0  0  0  0
   -0.6333    5.4528    0.0097 C   0  0  0  0  0  0  0  0  0  0  0  0
   -1.1714    6.4116   -0.0035 H   0  0  0  0  0  0  0  0  0  0  0  0
    0.7702    5.4344    0.0876 C   0  0  0  0  0  0  0  0  0  0  0  0
    1.3304    6.3785    0.1503 H   0  0  0  0  0  0  0  0  0  0  0  0
    1.4648    4.2173    0.0818 C   0  0  0  0  0  0  0  0  0  0  0  0
    2.5608    4.2169    0.1577 H   0  0  0  0  0  0  0  0  0  0  0  0
    1.3071    1.7109   -0.0903 N   0  0  0  0  0  2  0  0  0  0  0  0
    2.5879    1.5443   -0.3894 C   0  0  0  0  0  3  0  0  0  0  0  0
    3.1917    2.4370   -0.6336 H   0  0  0  0  0  0  0  0  0  0  0  0
    3.2857    0.2922   -0.3930 C   0  0  0  0  0  0  0  0  0  0  0  0
    2.6416   -0.9196    0.0455 C   0  0  0  0  0  0  0  0  0  0  0  0
    3.4341   -2.1111    0.2180 C   0  0  0  0  0  0  0  0  0  0  0  0
    4.7943   -2.0920   -0.1172 C   0  0  0  0  0  0  0  0  0  0  0  0
    5.4000   -3.0024   -0.0164 H   0  0  0  0  0  0  0  0  0  0  0  0
    5.4053   -0.9047   -0.5841 C   0  0  0  0  0  0  0  0  0  0  0  0
    6.4760   -0.9170   -0.8333 H   0  0  0  0  0  0  0  0  0  0  0  0
    4.6750    0.2707   -0.7087 C   0  0  0  0  0  0  0  0  0  0  0  0
    5.1643    1.2017   -1.0314 H   0  0  0  0  0  0  0  0  0  0  0  0
   -1.2548    1.7353   -0.0008 N   0  0  0  0  0  2  0  0  0  0  0  0
   -2.5545    1.5816    0.2118 C   0  0  0  0  0  3  0  0  0  0  0  0
   -3.1654    2.4764    0.4296 H   0  0  0  0  0  0  0  0  0  0  0  0
   -3.2642    0.3353    0.1496 C   0  0  0  0  0  0  0  0  0  0  0  0
   -2.6172   -0.8679   -0.2969 C   0  0  0  0  0  0  0  0  0  0  0  0
   -3.4061   -2.0550   -0.4920 C   0  0  0  0  0  0  0  0  0  0  0  0
   -4.7773   -2.0318   -0.1991 C   0  0  0  0  0  0  0  0  0  0  0  0
   -5.3821   -2.9398   -0.3232 H   0  0  0  0  0  0  0  0  0  0  0  0
   -5.3979   -0.8463    0.2561 C   0  0  0  0  0  0  0  0  0  0  0  0
   -6.4763   -0.8542    0.4697 H   0  0  0  0  0  0  0  0  0  0  0  0
   -4.6631    0.3216    0.4186 C   0  0  0  0  0  0  0  0  0  0  0  0
   -5.1549    1.2519    0.7401 H   0  0  0  0  0  0  0  0  0  0  0  0
   -1.3292   -0.9262   -0.5673 O   0  5  0  0  0  0  0  0  0  0  0  0
    1.3654   -0.9772    0.3432 O   0  5  0  0  0  0  0  0  0  0  0  0
    2.7525   -3.1783    0.6821 O   0  0  0  0  0  0  0  0  0  0  0  0
    3.4604   -4.3947    0.8897 C   0  0  0  0  0  0  0  0  0  0  0  0
    3.8809   -4.7876   -0.0615 H   0  0  0  0  0  0  0  0  0  0  0  0
    2.7246   -5.1165    1.2868 H   0  0  0  0  0  0  0  0  0  0  0  0
    4.2831   -4.2667    1.6265 H   0  0  0  0  0  0  0  0  0  0  0  0
   -2.7140   -3.1277   -0.9285 O   0  0  0  0  0  0  0  0  0  0  0  0
   -3.4193   -4.3429   -1.1486 C   0  0  0  0  0  0  0  0  0  0  0  0
   -3.8734   -4.7266   -0.2089 H   0  0  0  0  0  0  0  0  0  0  0  0
   -2.6736   -5.0713   -1.5144 H   0  0  0  0  0  0  0  0  0  0  0  0
   -4.2164   -4.2196   -1.9138 H   0  0  0  0  0  0  0  0  0  0  0  0
  1  9  1  0  0  0  0
  2  1  2  0  0  0  0
  2 23  1  0  0  0  0
  3  2  1  0  0  0  0
  3  5  2  0  0  0  0
  4  3  1  0  0  0  0
  5  7  1  0  0  0  0
  6  5  1  0  0  0  0
  7  8  1  0  0  0  0
  9  7  2  0  0  0  0
  9 10  1  0  0  0  0
 11  1  1  0  0  0  0
 12 11  1  0  0  0  0
 13 12  1  0  0  0  0
 14 12  1  0  0  0  0
 14 15  1  0  0  0  0
 15 16  2  0  0  0  0
 15 36  1  0  0  0  0
 16 37  1  0  0  0  0
 17 18  1  0  0  0  0
 17 16  1  0  0  0  0
 19 17  2  0  0  0  0
 20 19  1  0  0  0  0
 21 19  1  0  0  0  0
 21 14  2  0  0  0  0
 22 21  1  0  0  0  0
 23 24  1  0  0  0  0
 24 25  1  0  0  0  0
 26 24  1  0  0  0  0
 26 33  1  0  0  0  0
 27 26  2  0  0  0  0
 28 27  1  0  0  0  0
 28 29  2  0  0  0  0
 29 31  1  0  0  0  0
 30 29  1  0  0  0  0
 31 33  2  0  0  0  0
 31 32  1  0  0  0  0
 33 34  1  0  0  0  0
 35 27  1  0  0  0  0
 37 38  1  0  0  0  0
 38 40  1  0  0  0  0
 38 41  1  0  0  0  0
 39 38  1  0  0  0  0
 42 28  1  0  0  0  0
 43 42  1  0  0  0  0
 43 44  1  0  0  0  0
 45 43  1  0  0  0  0
 46 43  1  0  0  0  0
M  CHG  2  35  -1  36  -1
M  END
