1,2,3,4
 OpenBabel05122313063D

 62 64  0  0  0  0  0  0  0  0999 V2000
    1.3360    2.1332    0.0350 N   0  0  0  0  0  2  0  0  0  0  0  0
    1.4092   -0.8482    0.1396 O   0  5  0  0  0  0  0  0  0  0  0  0
   -1.4095   -0.8477    0.1396 O   0  5  0  0  0  0  0  0  0  0  0  0
   -1.3353    2.1337    0.0348 N   0  0  0  0  0  2  0  0  0  0  0  0
    2.6895   -0.6567    0.0255 C   0  0  0  0  0  0  0  0  0  0  0  0
    3.5331   -1.8368   -0.0396 C   0  0  0  0  0  0  0  0  0  0  0  0
    4.9126   -1.6568   -0.1272 C   0  0  0  0  0  0  0  0  0  0  0  0
    5.5609   -2.5424   -0.1691 H   0  0  0  0  0  0  0  0  0  0  0  0
    5.5313   -0.3813   -0.1754 C   0  0  0  0  0  0  0  0  0  0  0  0
    6.6255   -0.3035   -0.2468 H   0  0  0  0  0  0  0  0  0  0  0  0
    4.7428    0.7495   -0.1473 C   0  0  0  0  0  0  0  0  0  0  0  0
    5.1994    1.7505   -0.2023 H   0  0  0  0  0  0  0  0  0  0  0  0
    3.3170    0.6593   -0.0486 C   0  0  0  0  0  0  0  0  0  0  0  0
    2.6318    1.9120   -0.0649 C   0  0  0  0  0  3  0  0  0  0  0  0
    3.2860    2.7946   -0.1924 H   0  0  0  0  0  0  0  0  0  0  0  0
   -2.6897   -0.6558    0.0253 C   0  0  0  0  0  0  0  0  0  0  0  0
   -3.5338   -1.8357   -0.0396 C   0  0  0  0  0  0  0  0  0  0  0  0
   -4.9131   -1.6551   -0.1276 C   0  0  0  0  0  0  0  0  0  0  0  0
   -5.5618   -2.5405   -0.1694 H   0  0  0  0  0  0  0  0  0  0  0  0
   -5.5313   -0.3794   -0.1764 C   0  0  0  0  0  0  0  0  0  0  0  0
   -6.6255   -0.3012   -0.2481 H   0  0  0  0  0  0  0  0  0  0  0  0
   -4.7425    0.7511   -0.1483 C   0  0  0  0  0  0  0  0  0  0  0  0
   -5.1986    1.7523   -0.2036 H   0  0  0  0  0  0  0  0  0  0  0  0
   -3.3167    0.6604   -0.0492 C   0  0  0  0  0  0  0  0  0  0  0  0
   -2.6311    1.9128   -0.0654 C   0  0  0  0  0  3  0  0  0  0  0  0
   -3.2849    2.7957   -0.1932 H   0  0  0  0  0  0  0  0  0  0  0  0
    0.7161    3.3991   -0.0377 C   0  0  0  0  0  0  0  0  0  0  0  0
    1.4067    4.6267   -0.1035 C   0  0  0  0  0  0  0  0  0  0  0  0
    2.5051    4.6423   -0.0973 H   0  0  0  0  0  0  0  0  0  0  0  0
    0.7044    5.8337   -0.1714 C   0  0  0  0  0  0  0  0  0  0  0  0
    1.2580    6.7827   -0.2208 H   0  0  0  0  0  0  0  0  0  0  0  0
   -0.7024    5.8339   -0.1715 C   0  0  0  0  0  0  0  0  0  0  0  0
   -1.2557    6.7831   -0.2210 H   0  0  0  0  0  0  0  0  0  0  0  0
   -1.4051    4.6272   -0.1037 C   0  0  0  0  0  0  0  0  0  0  0  0
   -2.5035    4.6432   -0.0976 H   0  0  0  0  0  0  0  0  0  0  0  0
   -0.7149    3.3993   -0.0378 C   0  0  0  0  0  0  0  0  0  0  0  0
    2.8971   -3.2408   -0.0336 C   0  0  0  0  0  0  0  0  0  0  0  0
    3.9653   -4.3480   -0.1037 C   0  0  0  0  0  0  0  0  0  0  0  0
    3.4644   -5.3366   -0.1055 H   0  0  0  0  0  0  0  0  0  0  0  0
    4.6509   -4.3250    0.7682 H   0  0  0  0  0  0  0  0  0  0  0  0
    4.5741   -4.2850   -1.0286 H   0  0  0  0  0  0  0  0  0  0  0  0
    2.0840   -3.4614    1.2652 C   0  0  0  0  0  0  0  0  0  0  0  0
    1.6566   -4.4856    1.2709 H   0  0  0  0  0  0  0  0  0  0  0  0
    1.2521   -2.7402    1.3470 H   0  0  0  0  0  0  0  0  0  0  0  0
    2.7340   -3.3584    2.1583 H   0  0  0  0  0  0  0  0  0  0  0  0
    1.9793   -3.3918   -1.2714 C   0  0  0  0  0  0  0  0  0  0  0  0
    1.4941   -4.3899   -1.2626 H   0  0  0  0  0  0  0  0  0  0  0  0
    2.5696   -3.3064   -2.2063 H   0  0  0  0  0  0  0  0  0  0  0  0
    1.1882   -2.6214   -1.2881 H   0  0  0  0  0  0  0  0  0  0  0  0
   -2.8983   -3.2399   -0.0327 C   0  0  0  0  0  0  0  0  0  0  0  0
   -2.0858   -3.4602    1.2665 C   0  0  0  0  0  0  0  0  0  0  0  0
   -1.6586   -4.4844    1.2727 H   0  0  0  0  0  0  0  0  0  0  0  0
   -2.7362   -3.3567    2.1593 H   0  0  0  0  0  0  0  0  0  0  0  0
   -1.2538   -2.7391    1.3483 H   0  0  0  0  0  0  0  0  0  0  0  0
   -1.9800   -3.3918   -1.2701 C   0  0  0  0  0  0  0  0  0  0  0  0
   -1.4954   -4.3902   -1.2607 H   0  0  0  0  0  0  0  0  0  0  0  0
   -1.1885   -2.6218   -1.2867 H   0  0  0  0  0  0  0  0  0  0  0  0
   -2.5699   -3.3064   -2.2053 H   0  0  0  0  0  0  0  0  0  0  0  0
   -3.9669   -4.3466   -0.1028 C   0  0  0  0  0  0  0  0  0  0  0  0
   -3.4664   -5.3355   -0.1039 H   0  0  0  0  0  0  0  0  0  0  0  0
   -4.5753   -4.2838   -1.0280 H   0  0  0  0  0  0  0  0  0  0  0  0
   -4.6528   -4.3230    0.7688 H   0  0  0  0  0  0  0  0  0  0  0  0
  5  2  1  0  0  0  0
  6 37  1  0  0  0  0
  6  5  1  0  0  0  0
  7  6  2  0  0  0  0
  8  7  1  0  0  0  0
  9 11  2  0  0  0  0
  9  7  1  0  0  0  0
 10  9  1  0  0  0  0
 11 13  1  0  0  0  0
 12 11  1  0  0  0  0
 13  5  2  0  0  0  0
 14 13  1  0  0  0  0
 14  1  1  0  0  0  0
 15 14  1  0  0  0  0
 16  3  1  0  0  0  0
 17 50  1  0  0  0  0
 17 16  1  0  0  0  0
 18 17  2  0  0  0  0
 19 18  1  0  0  0  0
 20 22  2  0  0  0  0
 20 18  1  0  0  0  0
 21 20  1  0  0  0  0
 22 24  1  0  0  0  0
 23 22  1  0  0  0  0
 24 16  2  0  0  0  0
 25 24  1  0  0  0  0
 25  4  1  0  0  0  0
 26 25  1  0  0  0  0
 27  1  1  0  0  0  0
 28 29  1  0  0  0  0
 28 27  2  0  0  0  0
 30 28  1  0  0  0  0
 31 30  1  0  0  0  0
 32 30  2  0  0  0  0
 32 34  1  0  0  0  0
 33 32  1  0  0  0  0
 34 35  1  0  0  0  0
 34 36  2  0  0  0  0
 36 27  1  0  0  0  0
 36  4  1  0  0  0  0
 37 42  1  0  0  0  0
 38 37  1  0  0  0  0
 38 40  1  0  0  0  0
 39 38  1  0  0  0  0
 41 38  1  0  0  0  0
 42 43  1  0  0  0  0
 42 44  1  0  0  0  0
 42 45  1  0  0  0  0
 46 47  1  0  0  0  0
 46 37  1  0  0  0  0
 48 46  1  0  0  0  0
 49 46  1  0  0  0  0
 50 51  1  0  0  0  0
 51 52  1  0  0  0  0
 51 54  1  0  0  0  0
 51 53  1  0  0  0  0
 55 56  1  0  0  0  0
 55 50  1  0  0  0  0
 57 55  1  0  0  0  0
 58 55  1  0  0  0  0
 59 50  1  0  0  0  0
 59 62  1  0  0  0  0
 60 59  1  0  0  0  0
 61 59  1  0  0  0  0
M  CHG  2   2  -1   3  -1
M  END
