1,2,3,5
 OpenBabel05122313063D

 28 27  0  0  0  0  0  0  0  0999 V2000
    1.3582   -1.5943   -0.0516 O   0  5  0  0  0  0  0  0  0  0  0  0
   -1.3582   -1.5942    0.0516 O   0  5  0  0  0  0  0  0  0  0  0  0
    1.3883    1.4745   -0.1926 N   0  0  0  0  0  0  0  0  0  0  0  0
    1.4784    1.5064   -1.2287 H   0  0  0  0  0  0  0  0  0  0  0  0
   -1.3883    1.4745    0.1926 N   0  0  0  0  0  0  0  0  0  0  0  0
   -1.4784    1.5064    1.2287 H   0  0  0  0  0  0  0  0  0  0  0  0
    3.3984   -2.4290   -0.0187 O   0  0  0  0  0  0  0  0  0  0  0  0
   -3.3984   -2.4290    0.0187 O   0  0  0  0  0  0  0  0  0  0  0  0
    2.6750   -1.4472   -0.0863 C   0  0  0  0  0  0  0  0  0  0  0  0
    3.3128   -0.0562   -0.2956 C   0  0  0  0  0  0  0  0  0  0  0  0
    4.3673   -0.1644    0.0203 H   0  0  0  0  0  0  0  0  0  0  0  0
    3.3367    0.1228   -1.3948 H   0  0  0  0  0  0  0  0  0  0  0  0
    2.7046    1.1555    0.4033 C   0  0  0  0  0  0  0  0  0  0  0  0
    2.5404    0.9691    1.4841 H   0  0  0  0  0  0  0  0  0  0  0  0
    3.3710    2.0405    0.2969 H   0  0  0  0  0  0  0  0  0  0  0  0
    0.7141    2.7126    0.2728 C   0  0  0  0  0  0  0  0  0  0  0  0
    0.7092    2.6870    1.3817 H   0  0  0  0  0  0  0  0  0  0  0  0
    1.2722    3.6131   -0.0596 H   0  0  0  0  0  0  0  0  0  0  0  0
   -0.7141    2.7126   -0.2729 C   0  0  0  0  0  0  0  0  0  0  0  0
   -1.2722    3.6131    0.0595 H   0  0  0  0  0  0  0  0  0  0  0  0
   -0.7092    2.6869   -1.3818 H   0  0  0  0  0  0  0  0  0  0  0  0
   -2.7046    1.1555   -0.4032 C   0  0  0  0  0  0  0  0  0  0  0  0
   -2.5404    0.9690   -1.4840 H   0  0  0  0  0  0  0  0  0  0  0  0
   -3.3710    2.0405   -0.2968 H   0  0  0  0  0  0  0  0  0  0  0  0
   -3.3128   -0.0562    0.2956 C   0  0  0  0  0  0  0  0  0  0  0  0
   -4.3673   -0.1644   -0.0202 H   0  0  0  0  0  0  0  0  0  0  0  0
   -3.3366    0.1228    1.3948 H   0  0  0  0  0  0  0  0  0  0  0  0
   -2.6750   -1.4472    0.0863 C   0  0  0  0  0  0  0  0  0  0  0  0
  2 28  1  0  0  0  0
  3 16  1  0  0  0  0
  3 13  1  0  0  0  0
  4  3  1  0  0  0  0
  5  6  1  0  0  0  0
  8 28  2  0  0  0  0
  9  1  1  0  0  0  0
  9  7  2  0  0  0  0
 10  9  1  0  0  0  0
 10 11  1  0  0  0  0
 10 13  1  0  0  0  0
 12 10  1  0  0  0  0
 13 14  1  0  0  0  0
 15 13  1  0  0  0  0
 16 17  1  0  0  0  0
 18 16  1  0  0  0  0
 19 20  1  0  0  0  0
 19  5  1  0  0  0  0
 19 16  1  0  0  0  0
 21 19  1  0  0  0  0
 22 24  1  0  0  0  0
 22  5  1  0  0  0  0
 22 25  1  0  0  0  0
 23 22  1  0  0  0  0
 25 27  1  0  0  0  0
 26 25  1  0  0  0  0
 28 25  1  0  0  0  0
M  CHG  2   1  -1   2  -1
M  END
