5,8,9,10
 OpenBabel05122313063D

 76 81  0  0  0  0  0  0  0  0999 V2000
   12.1188    0.6174   -0.3787 S   0  0  0  0  0  0  0  0  0  0  0  0
   -7.5297    0.3527   -0.2608 S   0  0  0  0  0  0  0  0  0  0  0  0
  -11.9201    0.4576    0.1767 S   0  0  0  0  0  0  0  0  0  0  0  0
    7.7490    0.4062    0.2206 S   0  0  0  0  0  0  0  0  0  0  0  0
    1.5337   -1.9375   -1.0733 O   0  5  0  0  0  0  0  0  0  0  0  0
   -0.2618    2.0376    1.4265 O   0  0  0  0  0  0  0  0  0  0  0  0
   -1.1912    2.7691   -1.3409 O   0  0  0  0  0  0  0  0  0  0  0  0
   -1.3461   -2.1184    0.9408 O   0  5  0  0  0  0  0  0  0  0  0  0
   -1.0463   -0.1449   -1.2301 N   0  0  0  0  0  2  0  0  0  0  0  0
    1.3181   -0.3446    1.4008 N   0  0  0  0  0  2  0  0  0  0  0  0
   12.7706    1.7860    0.7215 C   0  0  0  0  0  0  0  0  0  0  0  0
   13.8420    2.0180    0.6961 H   0  0  0  0  0  0  0  0  0  0  0  0
   11.7929    2.3125    1.5452 C   0  0  0  0  0  0  0  0  0  0  0  0
   11.9974    3.0700    2.3140 H   0  0  0  0  0  0  0  0  0  0  0  0
   10.5041    1.7628    1.2911 C   0  0  0  0  0  0  0  0  0  0  0  0
    9.5949    2.0384    1.8435 H   0  0  0  0  0  0  0  0  0  0  0  0
   10.5000    0.8139    0.2690 C   0  0  0  0  0  0  0  0  0  0  0  0
    9.3957    0.0479   -0.2647 C   0  0  0  0  0  0  0  0  0  0  0  0
    9.4063   -1.0079   -1.1744 C   0  0  0  0  0  0  0  0  0  0  0  0
   10.3355   -1.4050   -1.6069 H   0  0  0  0  0  0  0  0  0  0  0  0
    8.1162   -1.5231   -1.4608 C   0  0  0  0  0  0  0  0  0  0  0  0
    7.9405   -2.3709   -2.1362 H   0  0  0  0  0  0  0  0  0  0  0  0
    7.0879   -0.8775   -0.7757 C   0  0  0  0  0  0  0  0  0  0  0  0
    5.6506   -1.1372   -0.8105 C   0  0  0  0  0  0  0  0  0  0  0  0
    4.7699   -0.6201    0.1457 C   0  0  0  0  0  0  0  0  0  0  0  0
    5.1712   -0.0113    0.9735 H   0  0  0  0  0  0  0  0  0  0  0  0
    5.0786   -1.9509   -1.8377 C   0  0  0  0  0  0  0  0  0  0  0  0
    5.7325   -2.3694   -2.6176 H   0  0  0  0  0  0  0  0  0  0  0  0
    3.7213   -2.2121   -1.8905 C   0  0  0  0  0  0  0  0  0  0  0  0
    3.2933   -2.8350   -2.6895 H   0  0  0  0  0  0  0  0  0  0  0  0
    2.7966   -1.6740   -0.9353 C   0  0  0  0  0  0  0  0  0  0  0  0
    3.3680   -0.8555    0.1222 C   0  0  0  0  0  0  0  0  0  0  0  0
    2.6091   -0.2840    1.2041 C   0  0  0  0  0  3  0  0  0  0  0  0
    3.2146    0.2612    1.9631 H   0  0  0  0  0  0  0  0  0  0  0  0
    0.7605    0.2354    2.6147 C   0  0  0  0  0  0  0  0  0  0  0  0
    1.5063    0.9015    3.1049 H   0  0  0  0  0  0  0  0  0  0  0  0
    0.5169   -0.5831    3.3285 H   0  0  0  0  0  0  0  0  0  0  0  0
   -0.5263    1.0006    2.3461 C   0  0  0  0  0  0  0  0  0  0  0  0
   -1.3013    0.3047    1.9425 H   0  0  0  0  0  0  0  0  0  0  0  0
   -0.9192    1.3993    3.3139 H   0  0  0  0  0  0  0  0  0  0  0  0
   -1.4013    2.8164    1.1047 C   0  0  0  0  0  0  0  0  0  0  0  0
   -1.6377    3.5328    1.9322 H   0  0  0  0  0  0  0  0  0  0  0  0
   -2.2962    2.1631    0.9640 H   0  0  0  0  0  0  0  0  0  0  0  0
   -1.1494    3.5849   -0.1845 C   0  0  0  0  0  0  0  0  0  0  0  0
   -1.9552    4.3394   -0.3039 H   0  0  0  0  0  0  0  0  0  0  0  0
   -0.1830    4.1373   -0.1055 H   0  0  0  0  0  0  0  0  0  0  0  0
   -0.0081    2.0459   -1.6484 C   0  0  0  0  0  0  0  0  0  0  0  0
    0.6114    1.8800   -0.7417 H   0  0  0  0  0  0  0  0  0  0  0  0
    0.6053    2.5990   -2.4002 H   0  0  0  0  0  0  0  0  0  0  0  0
   -0.4179    0.6965   -2.2373 C   0  0  0  0  0  0  0  0  0  0  0  0
   -1.1080    0.8746   -3.0922 H   0  0  0  0  0  0  0  0  0  0  0  0
    0.4826    0.1736   -2.6206 H   0  0  0  0  0  0  0  0  0  0  0  0
   -2.3467   -0.1355   -1.1132 C   0  0  0  0  0  3  0  0  0  0  0  0
   -2.9216    0.5002   -1.8208 H   0  0  0  0  0  0  0  0  0  0  0  0
   -3.1429   -0.8799   -0.1667 C   0  0  0  0  0  0  0  0  0  0  0  0
   -2.6081   -1.8495    0.7758 C   0  0  0  0  0  0  0  0  0  0  0  0
   -3.5669   -2.5432    1.5846 C   0  0  0  0  0  0  0  0  0  0  0  0
   -3.1654   -3.2806    2.2950 H   0  0  0  0  0  0  0  0  0  0  0  0
   -4.9255   -2.2908    1.5085 C   0  0  0  0  0  0  0  0  0  0  0  0
   -5.6074   -2.8341    2.1799 H   0  0  0  0  0  0  0  0  0  0  0  0
   -4.5459   -0.6627   -0.2246 C   0  0  0  0  0  0  0  0  0  0  0  0
   -4.9182    0.0623   -0.9679 H   0  0  0  0  0  0  0  0  0  0  0  0
   -5.4620   -1.3306    0.5968 C   0  0  0  0  0  0  0  0  0  0  0  0
   -6.8997   -1.0784    0.5344 C   0  0  0  0  0  0  0  0  0  0  0  0
   -7.9504   -1.8366    1.0487 C   0  0  0  0  0  0  0  0  0  0  0  0
   -7.7951   -2.7864    1.5774 H   0  0  0  0  0  0  0  0  0  0  0  0
   -9.2324   -1.2875    0.7899 C   0  0  0  0  0  0  0  0  0  0  0  0
  -10.1759   -1.7583    1.1002 H   0  0  0  0  0  0  0  0  0  0  0  0
   -9.1927   -0.0925    0.0737 C   0  0  0  0  0  0  0  0  0  0  0  0
  -10.2806    0.7466   -0.3775 C   0  0  0  0  0  0  0  0  0  0  0  0
  -10.2526    1.8382   -1.2450 C   0  0  0  0  0  0  0  0  0  0  0  0
   -9.3260    2.1910   -1.7189 H   0  0  0  0  0  0  0  0  0  0  0  0
  -11.5340    2.4214   -1.4590 C   0  0  0  0  0  0  0  0  0  0  0  0
  -11.7147    3.2854   -2.1129 H   0  0  0  0  0  0  0  0  0  0  0  0
  -12.5380    1.7783   -0.7589 C   0  0  0  0  0  0  0  0  0  0  0  0
  -13.6107    2.0046   -0.7375 H   0  0  0  0  0  0  0  0  0  0  0  0
  1 17  1  0  0  0  0
  1 11  1  0  0  0  0
  2 69  1  0  0  0  0
  2 64  1  0  0  0  0
  5 31  1  0  0  0  0
  6 38  1  0  0  0  0
  7 44  1  0  0  0  0
  9 53  1  0  0  0  0
 10 35  1  0  0  0  0
 11 13  2  0  0  0  0
 12 11  1  0  0  0  0
 13 14  1  0  0  0  0
 15 13  1  0  0  0  0
 15 16  1  0  0  0  0
 17 15  2  0  0  0  0
 18  4  1  0  0  0  0
 18 17  1  0  0  0  0
 19 18  2  0  0  0  0
 20 19  1  0  0  0  0
 21 19  1  0  0  0  0
 21 23  2  0  0  0  0
 22 21  1  0  0  0  0
 23  4  1  0  0  0  0
 24 23  1  0  0  0  0
 24 25  1  0  0  0  0
 25 26  1  0  0  0  0
 27 24  2  0  0  0  0
 28 27  1  0  0  0  0
 29 27  1  0  0  0  0
 29 31  2  0  0  0  0
 30 29  1  0  0  0  0
 31 32  1  0  0  0  0
 32 25  2  0  0  0  0
 32 33  1  0  0  0  0
 33 10  1  0  0  0  0
 33 34  1  0  0  0  0
 35 36  1  0  0  0  0
 35 37  1  0  0  0  0
 38 35  1  0  0  0  0
 38 40  1  0  0  0  0
 39 38  1  0  0  0  0
 41  6  1  0  0  0  0
 41 42  1  0  0  0  0
 43 41  1  0  0  0  0
 44 46  1  0  0  0  0
 44 41  1  0  0  0  0
 45 44  1  0  0  0  0
 47  7  1  0  0  0  0
 47 48  1  0  0  0  0
 49 47  1  0  0  0  0
 50 47  1  0  0  0  0
 50  9  1  0  0  0  0
 51 50  1  0  0  0  0
 52 50  1  0  0  0  0
 53 55  1  0  0  0  0
 54 53  1  0  0  0  0
 55 56  1  0  0  0  0
 56  8  1  0  0  0  0
 56 57  2  0  0  0  0
 57 58  1  0  0  0  0
 59 57  1  0  0  0  0
 59 60  1  0  0  0  0
 61 55  2  0  0  0  0
 61 63  1  0  0  0  0
 62 61  1  0  0  0  0
 63 59  2  0  0  0  0
 64 63  1  0  0  0  0
 64 65  2  0  0  0  0
 65 66  1  0  0  0  0
 67 65  1  0  0  0  0
 67 68  1  0  0  0  0
 69 67  2  0  0  0  0
 70 69  1  0  0  0  0
 70  3  1  0  0  0  0
 71 70  2  0  0  0  0
 72 71  1  0  0  0  0
 73 71  1  0  0  0  0
 73 75  2  0  0  0  0
 74 73  1  0  0  0  0
 75 76  1  0  0  0  0
 75  3  1  0  0  0  0
M  CHG  2   5  -1   8  -1
M  END
