1,2,3,4
 OpenBabel05122313063D

 51 53  0  0  0  0  0  0  0  0999 V2000
   -1.4007   -1.6433   -0.1320 O   0  5  0  0  0  0  0  0  0  0  0  0
    1.2829   -0.8044    0.7656 O   0  5  0  0  0  0  0  0  0  0  0  0
   -1.0188    1.1205    0.9500 N   0  0  0  0  0  0  0  0  0  0  0  0
    1.2095    1.5553   -0.4264 N   0  0  0  0  0  0  0  0  0  0  0  0
   -2.7124   -1.3281    0.0189 C   0  0  0  0  0  0  0  0  0  0  0  0
   -3.6955   -2.0232   -0.7097 C   0  0  0  0  0  0  0  0  0  0  0  0
   -3.3751   -2.8152   -1.4015 H   0  0  0  0  0  0  0  0  0  0  0  0
   -5.0452   -1.6916   -0.5504 C   0  0  0  0  0  0  0  0  0  0  0  0
   -5.8044   -2.2395   -1.1313 H   0  0  0  0  0  0  0  0  0  0  0  0
   -5.4543   -0.6680    0.3314 C   0  0  0  0  0  0  0  0  0  0  0  0
   -4.4553    0.0091    1.0554 C   0  0  0  0  0  0  0  0  0  0  0  0
   -4.7455    0.8081    1.7581 H   0  0  0  0  0  0  0  0  0  0  0  0
   -3.0918   -0.3029    0.9188 C   0  0  0  0  0  0  0  0  0  0  0  0
   -2.0269    0.3698    1.7443 C   0  0  0  0  0  0  0  0  0  0  0  0
   -2.5041    1.0515    2.4879 H   0  0  0  0  0  0  0  0  0  0  0  0
   -1.4609   -0.4011    2.3086 H   0  0  0  0  0  0  0  0  0  0  0  0
    0.0756    1.5737    1.8232 C   0  0  0  0  0  0  0  0  0  0  0  0
    0.3203    0.7315    2.4947 H   0  0  0  0  0  0  0  0  0  0  0  0
   -0.2550    2.4316    2.4556 H   0  0  0  0  0  0  0  0  0  0  0  0
    1.3320    1.9404    1.0092 C   0  0  0  0  0  0  0  0  0  0  0  0
    1.5566    3.0270    1.0577 H   0  0  0  0  0  0  0  0  0  0  0  0
    2.2077    1.4198    1.4319 H   0  0  0  0  0  0  0  0  0  0  0  0
   -1.6536    2.2523    0.2276 C   0  0  0  0  0  0  0  0  0  0  0  0
   -2.2848    2.8288    0.9473 H   0  0  0  0  0  0  0  0  0  0  0  0
   -2.3210    1.8157   -0.5362 H   0  0  0  0  0  0  0  0  0  0  0  0
   -0.6563    3.2351   -0.4087 C   0  0  0  0  0  0  0  0  0  0  0  0
   -1.2250    3.8755   -1.1130 H   0  0  0  0  0  0  0  0  0  0  0  0
   -0.2874    3.9264    0.3772 H   0  0  0  0  0  0  0  0  0  0  0  0
    0.5507    2.6643   -1.1709 C   0  0  0  0  0  0  0  0  0  0  0  0
    0.2548    2.2780   -2.1626 H   0  0  0  0  0  0  0  0  0  0  0  0
    1.2948    3.4818   -1.3167 H   0  0  0  0  0  0  0  0  0  0  0  0
    2.5554    1.2327   -0.9827 C   0  0  0  0  0  0  0  0  0  0  0  0
    3.1723    2.1627   -0.9880 H   0  0  0  0  0  0  0  0  0  0  0  0
    2.4044    0.9346   -2.0414 H   0  0  0  0  0  0  0  0  0  0  0  0
    3.2890    0.1559   -0.2047 C   0  0  0  0  0  0  0  0  0  0  0  0
    4.6939    0.1148   -0.2874 C   0  0  0  0  0  0  0  0  0  0  0  0
    5.2034    0.8620   -0.9199 H   0  0  0  0  0  0  0  0  0  0  0  0
    5.4705   -0.8330    0.3990 C   0  0  0  0  0  0  0  0  0  0  0  0
    4.7878   -1.7542    1.2232 C   0  0  0  0  0  0  0  0  0  0  0  0
    5.3630   -2.5065    1.7869 H   0  0  0  0  0  0  0  0  0  0  0  0
    3.3972   -1.7314    1.3400 C   0  0  0  0  0  0  0  0  0  0  0  0
    2.8657   -2.4500    1.9809 H   0  0  0  0  0  0  0  0  0  0  0  0
    2.6162   -0.7941    0.6216 C   0  0  0  0  0  0  0  0  0  0  0  0
   -6.9138   -0.3206    0.4889 C   0  0  0  0  0  0  0  0  0  0  0  0
   -7.3698   -0.0335   -0.4817 H   0  0  0  0  0  0  0  0  0  0  0  0
   -7.0595    0.5221    1.1922 H   0  0  0  0  0  0  0  0  0  0  0  0
   -7.4974   -1.1837    0.8730 H   0  0  0  0  0  0  0  0  0  0  0  0
    6.9720   -0.8752    0.2597 C   0  0  0  0  0  0  0  0  0  0  0  0
    7.3009   -1.7606   -0.3260 H   0  0  0  0  0  0  0  0  0  0  0  0
    7.4737   -0.9416    1.2473 H   0  0  0  0  0  0  0  0  0  0  0  0
    7.3598    0.0244   -0.2576 H   0  0  0  0  0  0  0  0  0  0  0  0
  1  5  1  0  0  0  0
  3 14  1  0  0  0  0
  3 17  1  0  0  0  0
  4 20  1  0  0  0  0
  5 13  1  0  0  0  0
  6  8  1  0  0  0  0
  6  5  2  0  0  0  0
  7  6  1  0  0  0  0
  8 10  2  0  0  0  0
  9  8  1  0  0  0  0
 10 44  1  0  0  0  0
 10 11  1  0  0  0  0
 11 12  1  0  0  0  0
 13 11  2  0  0  0  0
 13 14  1  0  0  0  0
 14 16  1  0  0  0  0
 14 15  1  0  0  0  0
 17 19  1  0  0  0  0
 17 18  1  0  0  0  0
 20 21  1  0  0  0  0
 20 22  1  0  0  0  0
 20 17  1  0  0  0  0
 23 24  1  0  0  0  0
 23  3  1  0  0  0  0
 25 23  1  0  0  0  0
 26 23  1  0  0  0  0
 26 28  1  0  0  0  0
 27 26  1  0  0  0  0
 29  4  1  0  0  0  0
 29 26  1  0  0  0  0
 30 29  1  0  0  0  0
 31 29  1  0  0  0  0
 32  4  1  0  0  0  0
 32 35  1  0  0  0  0
 33 32  1  0  0  0  0
 34 32  1  0  0  0  0
 35 43  1  0  0  0  0
 36 35  2  0  0  0  0
 36 38  1  0  0  0  0
 37 36  1  0  0  0  0
 38 39  2  0  0  0  0
 39 41  1  0  0  0  0
 39 40  1  0  0  0  0
 41 42  1  0  0  0  0
 43  2  1  0  0  0  0
 43 41  2  0  0  0  0
 44 47  1  0  0  0  0
 44 46  1  0  0  0  0
 45 44  1  0  0  0  0
 48 38  1  0  0  0  0
 48 50  1  0  0  0  0
 49 48  1  0  0  0  0
 51 48  1  0  0  0  0
M  CHG  2   1  -1   2  -1
M  END
