5,6,7,8
 OpenBabel05122313063D

 38 40  0  0  1  0  0  0  0  0999 V2000
    5.3510   -3.5893   -0.0003 F   0  0  0  0  0  0  0  0  0  0  0  0
    6.7188   -1.2680    0.0020 F   0  0  0  0  0  0  0  0  0  0  0  0
   -6.7188   -1.2680    0.0004 F   0  0  0  0  0  0  0  0  0  0  0  0
   -5.3510   -3.5893    0.0011 F   0  0  0  0  0  0  0  0  0  0  0  0
    1.2283   -1.3212   -0.0021 O   0  0  0  0  0  1  0  0  0  0  0  0
   -1.2283   -1.3212   -0.0003 O   0  5  0  0  0  0  0  0  0  0  0  0
    1.2736    1.4213   -0.0003 N   0  0  0  0  0  2  0  0  0  0  0  0
   -1.2736    1.4213   -0.0000 N   0  0  0  0  0  2  0  0  0  0  0  0
   -2.5179   -1.2516    0.0001 C   0  0  0  0  0  0  0  0  0  0  0  0
    0.7095    2.7158   -0.0003 C   0  0  0  0  0  0  0  0  0  0  0  0
    2.5180   -1.2516   -0.0010 C   0  0  1  0  0  3  0  0  0  0  0  0
    2.5877    1.2410    0.0003 C   0  0  0  0  0  0  0  0  0  0  0  0
    3.2291    2.1397    0.0010 H   0  0  0  0  0  0  0  0  0  0  0  0
   -2.5877    1.2410   -0.0003 C   0  0  0  0  0  0  0  0  0  0  0  0
   -3.2291    2.1397   -0.0007 H   0  0  0  0  0  0  0  0  0  0  0  0
   -0.7095    2.7158    0.0001 C   0  0  0  0  0  0  0  0  0  0  0  0
    4.6502   -2.4500   -0.0002 C   0  0  0  0  0  0  0  0  0  0  0  0
    3.2683   -2.4715   -0.0012 C   0  0  0  0  0  0  0  0  0  0  0  0
    2.7283   -3.4274   -0.0021 H   0  0  0  0  0  0  0  0  0  0  0  0
   -3.2595   -0.0052   -0.0002 C   0  0  0  0  0  0  0  0  0  0  0  0
    4.6896   -0.0282    0.0012 C   0  0  0  0  0  0  0  0  0  0  0  0
    5.2605    0.9120    0.0021 H   0  0  0  0  0  0  0  0  0  0  0  0
    3.2595   -0.0052    0.0002 C   0  0  0  0  0  0  0  0  0  0  0  0
   -4.6502   -2.4500    0.0006 C   0  0  0  0  0  0  0  0  0  0  0  0
    5.3765   -1.2221    0.0010 C   0  0  0  0  0  0  0  0  0  0  0  0
   -4.6896   -0.0282   -0.0001 C   0  0  0  0  0  3  0  0  0  0  0  0
   -5.2605    0.9120   -0.0003 H   0  0  0  0  0  0  0  0  0  0  0  0
   -3.2683   -2.4715    0.0005 C   0  0  0  0  0  0  0  0  0  0  0  0
   -2.7283   -3.4274    0.0008 H   0  0  0  0  0  0  0  0  0  0  0  0
   -0.7036    5.1467    0.0006 C   0  0  0  0  0  0  0  0  0  0  0  0
   -1.2557    6.0979    0.0010 H   0  0  0  0  0  0  0  0  0  0  0  0
   -1.4099    3.9388    0.0007 C   0  0  0  0  0  0  0  0  0  0  0  0
   -2.5080    3.9598    0.0012 H   0  0  0  0  0  0  0  0  0  0  0  0
    0.7036    5.1467   -0.0001 C   0  0  0  0  0  0  0  0  0  0  0  0
    1.2556    6.0980   -0.0003 H   0  0  0  0  0  0  0  0  0  0  0  0
    1.4098    3.9388   -0.0005 C   0  0  0  0  0  0  0  0  0  0  0  0
    2.5080    3.9599   -0.0010 H   0  0  0  0  0  0  0  0  0  0  0  0
   -5.3765   -1.2221    0.0003 C   0  0  0  0  0  0  0  0  0  0  0  0
  1 17  1  0  0  0  0
  6  9  1  0  0  0  0
  7 10  1  0  0  0  0
  7 12  1  0  0  0  0
  8 16  1  0  0  0  0
  9 28  2  0  0  0  0
 10 16  1  0  0  0  0
 11  5  1  6  0  0  0
 11 23  1  0  0  0  0
 12 13  1  0  0  0  0
 14 20  2  0  0  0  0
 14  8  1  0  0  0  0
 15 14  1  0  0  0  0
 16 32  2  0  0  0  0
 17 25  1  0  0  0  0
 18 11  1  0  0  0  0
 18 17  2  0  0  0  0
 19 18  1  0  0  0  0
 20 26  1  0  0  0  0
 20  9  1  0  0  0  0
 21 22  1  0  0  0  0
 23 12  2  0  0  0  0
 23 21  1  0  0  0  0
 24  4  1  0  0  0  0
 25 21  2  0  0  0  0
 25  2  1  0  0  0  0
 26 38  1  0  0  0  0
 27 26  1  0  0  0  0
 28 24  1  0  0  0  0
 28 29  1  0  0  0  0
 30 32  1  0  0  0  0
 30 31  1  0  0  0  0
 32 33  1  0  0  0  0
 34 30  2  0  0  0  0
 35 34  1  0  0  0  0
 36 10  2  0  0  0  0
 36 34  1  0  0  0  0
 37 36  1  0  0  0  0
 38  3  1  0  0  0  0
 38 24  2  0  0  0  0
M  CHG  1   6  -1
M  END
