2,3,4,5
 OpenBabel05122313063D

 49 52  0  0  1  0  0  0  0  0999 V2000
   -5.1881   -3.7158    0.4636 Cl  0  0  0  0  0  0  0  0  0  0  0  0
   -0.5552    0.6924   -0.3788 N   0  0  0  0  0  2  0  0  0  0  0  0
    1.9009    1.3355   -0.1134 N   0  0  0  0  0  2  0  0  0  0  0  0
    0.2330   -1.8745   -0.8552 O   0  0  0  0  0  1  0  0  0  0  0  0
    2.5827   -1.3048   -0.3153 O   0  0  0  0  0  1  0  0  0  0  0  0
    7.0850   -2.4904    0.6420 O   0  0  0  0  0  0  0  0  0  0  0  0
    6.7307   -3.3620    0.3814 H   0  0  0  0  0  0  0  0  0  0  0  0
   -1.0033   -2.1834   -0.6428 C   0  0  1  0  0  3  0  0  0  0  0  0
   -1.3958   -3.5440   -0.8732 C   0  0  0  0  0  0  0  0  0  0  0  0
   -0.6264   -4.2166   -1.2781 H   0  0  0  0  0  0  0  0  0  0  0  0
   -2.6600   -4.0044   -0.5514 C   0  0  0  0  0  0  0  0  0  0  0  0
   -2.9338   -5.0580   -0.7069 H   0  0  0  0  0  0  0  0  0  0  0  0
   -3.6097   -3.1112    0.0102 C   0  0  0  0  0  0  0  0  0  0  0  0
   -3.2962   -1.7753    0.1963 C   0  0  0  0  0  0  0  0  0  0  0  0
   -4.0528   -1.1090    0.6280 H   0  0  0  0  0  0  0  0  0  0  0  0
   -2.0131   -1.2561   -0.1676 C   0  0  0  0  0  0  0  0  0  0  0  0
   -1.7554    0.1623   -0.1033 C   0  0  0  0  0  0  0  0  0  0  0  0
   -2.8729    1.0506    0.3455 C   0  0  0  0  0  0  0  0  0  0  0  0
   -4.0645    1.1751   -0.3995 C   0  0  0  0  0  0  0  0  0  0  0  0
   -4.1771    0.6097   -1.3366 H   0  0  0  0  0  0  0  0  0  0  0  0
   -5.0866    2.0287    0.0396 C   0  0  0  0  0  0  0  0  0  0  0  0
   -6.0079    2.1269   -0.5542 H   0  0  0  0  0  0  0  0  0  0  0  0
   -4.9361    2.7537    1.2329 C   0  0  0  0  0  0  0  0  0  0  0  0
   -5.7402    3.4211    1.5779 H   0  0  0  0  0  0  0  0  0  0  0  0
   -3.7599    2.6191    1.9880 C   0  0  0  0  0  0  0  0  0  0  0  0
   -3.6411    3.1769    2.9291 H   0  0  0  0  0  0  0  0  0  0  0  0
   -2.7319    1.7757    1.5463 C   0  0  0  0  0  0  0  0  0  0  0  0
   -1.8046    1.6755    2.1299 H   0  0  0  0  0  0  0  0  0  0  0  0
   -0.3083    2.0800   -0.5416 C   0  0  0  0  0  0  0  0  0  0  0  0
   -1.2264    3.0770   -0.9333 C   0  0  0  0  0  0  0  0  0  0  0  0
   -2.2647    2.8173   -1.1627 H   0  0  0  0  0  0  0  0  0  0  0  0
   -0.8094    4.4086   -1.0533 C   0  0  0  0  0  0  0  0  0  0  0  0
   -1.5357    5.1725   -1.3674 H   0  0  0  0  0  0  0  0  0  0  0  0
    0.5251    4.7655   -0.7945 C   0  0  0  0  0  0  0  0  0  0  0  0
    0.8493    5.8118   -0.8958 H   0  0  0  0  0  0  0  0  0  0  0  0
    1.4599    3.7809   -0.4539 C   0  0  0  0  0  0  0  0  0  0  0  0
    2.5144    4.0577   -0.3185 H   0  0  0  0  0  0  0  0  0  0  0  0
    1.0549    2.4366   -0.3444 C   0  0  0  0  0  0  0  0  0  0  0  0
    3.1682    1.4814    0.2511 C   0  0  0  0  0  0  0  0  0  0  0  0
    3.5269    2.5050    0.4641 H   0  0  0  0  0  0  0  0  0  0  0  0
    4.1143    0.4395    0.3799 C   0  0  0  0  0  0  0  0  0  0  0  0
    3.7663   -0.9325    0.0491 C   0  0  2  0  0  3  0  0  0  0  0  0
    4.7990   -1.9130    0.1309 C   0  0  0  0  0  0  0  0  0  0  0  0
    4.5310   -2.9490   -0.1283 H   0  0  0  0  0  0  0  0  0  0  0  0
    6.0885   -1.5765    0.5409 C   0  0  0  0  0  0  0  0  0  0  0  0
    6.4257   -0.2306    0.8796 C   0  0  0  0  0  0  0  0  0  0  0  0
    7.4528   -0.0045    1.1955 H   0  0  0  0  0  0  0  0  0  0  0  0
    5.4496    0.7411    0.7914 C   0  0  0  0  0  0  0  0  0  0  0  0
    5.6954    1.7859    1.0400 H   0  0  0  0  0  0  0  0  0  0  0  0
  2 17  1  0  0  0  0
  3 39  1  0  0  0  0
  7  6  1  0  0  0  0
  8  4  1  1  0  0  0
  8 16  1  0  0  0  0
  9  8  1  0  0  0  0
  9 11  2  0  0  0  0
 10  9  1  0  0  0  0
 11 13  1  0  0  0  0
 12 11  1  0  0  0  0
 13 14  2  0  0  0  0
 13  1  1  0  0  0  0
 14 15  1  0  0  0  0
 16 17  2  0  0  0  0
 16 14  1  0  0  0  0
 17 18  1  0  0  0  0
 18 27  1  0  0  0  0
 19 21  1  0  0  0  0
 19 18  2  0  0  0  0
 20 19  1  0  0  0  0
 21 23  2  0  0  0  0
 22 21  1  0  0  0  0
 23 24  1  0  0  0  0
 23 25  1  0  0  0  0
 25 26  1  0  0  0  0
 27 25  2  0  0  0  0
 27 28  1  0  0  0  0
 29  2  1  0  0  0  0
 29 38  1  0  0  0  0
 30 29  2  0  0  0  0
 31 30  1  0  0  0  0
 32 30  1  0  0  0  0
 32 34  2  0  0  0  0
 33 32  1  0  0  0  0
 34 36  1  0  0  0  0
 35 34  1  0  0  0  0
 36 38  2  0  0  0  0
 36 37  1  0  0  0  0
 38  3  1  0  0  0  0
 39 41  2  0  0  0  0
 39 40  1  0  0  0  0
 41 48  1  0  0  0  0
 42  5  1  6  0  0  0
 42 43  1  0  0  0  0
 42 41  1  0  0  0  0
 43 45  2  0  0  0  0
 44 43  1  0  0  0  0
 45  6  1  0  0  0  0
 45 46  1  0  0  0  0
 46 47  1  0  0  0  0
 48 46  2  0  0  0  0
 48 49  1  0  0  0  0
M  END
