3,4,5,6
 OpenBabel05122313063D

 69 72  0  0  0  0  0  0  0  0999 V2000
    1.7362   -0.6677    1.8298 S   0  0  0  0  0  0  0  0  0  0  0  0
   -1.7365    0.6663    1.8297 S   0  0  0  0  0  0  0  0  0  0  0  0
   -1.7142    0.0496   -1.2929 O   0  5  0  0  0  0  0  0  0  0  0  0
    1.7150   -0.0495   -1.2918 O   0  5  0  0  0  0  0  0  0  0  0  0
    0.1796    2.0553   -0.0583 N   0  0  0  0  0  2  0  0  0  0  0  0
   -0.1797   -2.0556   -0.0592 N   0  0  0  0  0  2  0  0  0  0  0  0
   -2.7167   -0.7189   -1.0517 C   0  0  0  0  0  0  0  0  0  0  0  0
   -1.0170    2.7577    0.1296 C   0  0  0  0  0  0  0  0  0  0  0  0
    2.5920    2.0752   -0.5223 C   0  0  0  0  0  0  0  0  0  0  0  0
   -2.5920   -2.0747   -0.5231 C   0  0  0  0  0  0  0  0  0  0  0  0
    1.3372    2.6707   -0.1686 C   0  0  0  0  0  3  0  0  0  0  0  0
    1.3668    3.7592    0.0598 H   0  0  0  0  0  0  0  0  0  0  0  0
    2.7172    0.7195   -1.0509 C   0  0  0  0  0  0  0  0  0  0  0  0
   -1.3375   -2.6707   -0.1696 C   0  0  0  0  0  3  0  0  0  0  0  0
   -1.3674   -3.7592    0.0587 H   0  0  0  0  0  0  0  0  0  0  0  0
   -2.0282    2.1969    0.9607 C   0  0  0  0  0  0  0  0  0  0  0  0
    1.0168   -2.7583    0.1287 C   0  0  0  0  0  0  0  0  0  0  0  0
    3.7566    2.8780   -0.3655 C   0  0  0  0  0  0  0  0  0  0  0  0
    3.6221    3.9083    0.0073 H   0  0  0  0  0  0  0  0  0  0  0  0
   -4.0625   -0.2539   -1.3087 C   0  0  0  0  0  0  0  0  0  0  0  0
   -5.0467   -2.4186   -0.6442 C   0  0  0  0  0  0  0  0  0  0  0  0
   -3.7570   -2.8770   -0.3662 C   0  0  0  0  0  0  0  0  0  0  0  0
   -3.6229   -3.9074    0.0065 H   0  0  0  0  0  0  0  0  0  0  0  0
   -1.3015    3.9590   -0.5575 C   0  0  0  0  0  0  0  0  0  0  0  0
   -0.5432    4.3759   -1.2366 H   0  0  0  0  0  0  0  0  0  0  0  0
    2.0279   -2.1980    0.9602 C   0  0  0  0  0  0  0  0  0  0  0  0
   -0.4742    1.1966    3.0642 C   0  0  0  0  0  0  0  0  0  0  0  0
    0.3704    1.6545    2.5095 H   0  0  0  0  0  0  0  0  0  0  0  0
   -0.9286    1.9712    3.7123 H   0  0  0  0  0  0  0  0  0  0  0  0
   -5.1665   -1.0858   -1.1019 C   0  0  0  0  0  0  0  0  0  0  0  0
   -6.1564   -0.6468   -1.3151 H   0  0  0  0  0  0  0  0  0  0  0  0
    0.4737   -1.1984    3.0640 C   0  0  0  0  0  0  0  0  0  0  0  0
   -0.3708   -1.6561    2.5090 H   0  0  0  0  0  0  0  0  0  0  0  0
    0.9280   -1.9732    3.7119 H   0  0  0  0  0  0  0  0  0  0  0  0
    5.0465    2.4202   -0.6437 C   0  0  0  0  0  0  0  0  0  0  0  0
    4.0632    0.2551   -1.3081 C   0  0  0  0  0  0  0  0  0  0  0  0
   -3.2868    2.8107    1.0599 C   0  0  0  0  0  0  0  0  0  0  0  0
   -4.0549    2.3444    1.6939 H   0  0  0  0  0  0  0  0  0  0  0  0
   -0.0003   -0.0010    3.8904 C   0  0  0  0  0  0  0  0  0  0  0  0
   -0.8187   -0.3518    4.5550 H   0  0  0  0  0  0  0  0  0  0  0  0
    0.8179    0.3497    4.5552 H   0  0  0  0  0  0  0  0  0  0  0  0
    1.3012   -3.9594   -0.5588 C   0  0  0  0  0  0  0  0  0  0  0  0
    0.5429   -4.3759   -1.2382 H   0  0  0  0  0  0  0  0  0  0  0  0
   -6.2650   -3.2888   -0.4633 C   0  0  0  0  0  0  0  0  0  0  0  0
   -6.9919   -2.8283    0.2381 H   0  0  0  0  0  0  0  0  0  0  0  0
   -5.9986   -4.2877   -0.0665 H   0  0  0  0  0  0  0  0  0  0  0  0
   -6.8012   -3.4395   -1.4238 H   0  0  0  0  0  0  0  0  0  0  0  0
   -5.3891    1.6391   -1.9343 O   0  0  0  0  0  0  0  0  0  0  0  0
    5.1668    1.0875   -1.1015 C   0  0  0  0  0  0  0  0  0  0  0  0
    6.1568    0.6488   -1.3149 H   0  0  0  0  0  0  0  0  0  0  0  0
   -3.5588    3.9926    0.3550 C   0  0  0  0  0  0  0  0  0  0  0  0
   -4.5559    4.4512    0.4170 H   0  0  0  0  0  0  0  0  0  0  0  0
   -2.5579    4.5682   -0.4430 C   0  0  0  0  0  0  0  0  0  0  0  0
   -2.7658    5.4889   -1.0085 H   0  0  0  0  0  0  0  0  0  0  0  0
    3.2864   -2.8120    1.0594 C   0  0  0  0  0  0  0  0  0  0  0  0
    4.0544   -2.3461    1.6938 H   0  0  0  0  0  0  0  0  0  0  0  0
    2.5574   -4.5688   -0.4443 C   0  0  0  0  0  0  0  0  0  0  0  0
    2.7653   -5.4894   -1.0102 H   0  0  0  0  0  0  0  0  0  0  0  0
   -4.2821    1.1400   -1.7593 C   0  0  0  0  0  0  0  0  0  0  0  0
   -3.3389    1.7293   -1.9236 H   0  0  0  0  0  0  0  0  0  0  0  0
    3.5583   -3.9937    0.3541 C   0  0  0  0  0  0  0  0  0  0  0  0
    4.5553   -4.4524    0.4161 H   0  0  0  0  0  0  0  0  0  0  0  0
    5.3905   -1.6373   -1.9341 O   0  0  0  0  0  0  0  0  0  0  0  0
    6.2645    3.2908   -0.4629 C   0  0  0  0  0  0  0  0  0  0  0  0
    6.9911    2.8310    0.2393 H   0  0  0  0  0  0  0  0  0  0  0  0
    5.9976    4.2899   -0.0669 H   0  0  0  0  0  0  0  0  0  0  0  0
    6.8011    3.4409   -1.4232 H   0  0  0  0  0  0  0  0  0  0  0  0
    4.2833   -1.1387   -1.7589 C   0  0  0  0  0  0  0  0  0  0  0  0
    3.3403   -1.7284   -1.9231 H   0  0  0  0  0  0  0  0  0  0  0  0
  1 32  1  0  0  0  0
  2 27  1  0  0  0  0
  3  7  1  0  0  0  0
  4 13  1  0  0  0  0
  5  8  1  0  0  0  0
  6 17  1  0  0  0  0
  7 10  1  0  0  0  0
  8 16  1  0  0  0  0
  9 18  1  0  0  0  0
  9 11  1  0  0  0  0
 10 22  2  0  0  0  0
 10 14  1  0  0  0  0
 11  5  1  0  0  0  0
 11 12  1  0  0  0  0
 13  9  2  0  0  0  0
 14  6  1  0  0  0  0
 14 15  1  0  0  0  0
 16 37  2  0  0  0  0
 16  2  1  0  0  0  0
 17 26  1  0  0  0  0
 18 19  1  0  0  0  0
 20 30  1  0  0  0  0
 20  7  2  0  0  0  0
 21 44  1  0  0  0  0
 21 22  1  0  0  0  0
 22 23  1  0  0  0  0
 24 53  1  0  0  0  0
 24  8  2  0  0  0  0
 25 24  1  0  0  0  0
 26 55  2  0  0  0  0
 26  1  1  0  0  0  0
 27 29  1  0  0  0  0
 27 39  1  0  0  0  0
 28 27  1  0  0  0  0
 30 21  2  0  0  0  0
 31 30  1  0  0  0  0
 32 34  1  0  0  0  0
 32 39  1  0  0  0  0
 33 32  1  0  0  0  0
 35 64  1  0  0  0  0
 35 18  2  0  0  0  0
 36 49  2  0  0  0  0
 36 13  1  0  0  0  0
 37 38  1  0  0  0  0
 39 40  1  0  0  0  0
 39 41  1  0  0  0  0
 42 57  1  0  0  0  0
 42 17  2  0  0  0  0
 43 42  1  0  0  0  0
 44 46  1  0  0  0  0
 44 45  1  0  0  0  0
 47 44  1  0  0  0  0
 48 59  2  0  0  0  0
 49 35  1  0  0  0  0
 50 49  1  0  0  0  0
 51 52  1  0  0  0  0
 51 37  1  0  0  0  0
 53 51  2  0  0  0  0
 54 53  1  0  0  0  0
 55 56  1  0  0  0  0
 57 61  2  0  0  0  0
 58 57  1  0  0  0  0
 59 20  1  0  0  0  0
 60 59  1  0  0  0  0
 61 62  1  0  0  0  0
 61 55  1  0  0  0  0
 63 68  2  0  0  0  0
 64 66  1  0  0  0  0
 64 65  1  0  0  0  0
 67 64  1  0  0  0  0
 68 36  1  0  0  0  0
 69 68  1  0  0  0  0
M  CHG  2   3  -1   4  -1
M  END
