3,20,36,61
 OpenBabel05122313063D

 84 93  0  0  0  0  0  0  0  0999 V2000
   -3.2661   -0.2807   -0.6869 C   0  0  0  0  0  0  0  0  0  0  0  0
   -2.2296    0.0507   -1.5731 C   0  0  0  0  0  0  0  0  0  0  0  0
   -1.1485    0.8652   -1.1342 N   0  0  0  0  0  2  0  0  0  0  0  0
   -2.2348   -0.4241   -2.9167 C   0  0  0  0  0  0  0  0  0  0  0  0
   -1.4061   -0.1312   -3.5781 H   0  0  0  0  0  0  0  0  0  0  0  0
   -3.2461   -1.2537   -3.3623 C   0  0  0  0  0  0  0  0  0  0  0  0
   -3.2432   -1.6252   -4.3986 H   0  0  0  0  0  0  0  0  0  0  0  0
   -4.2934   -1.6622   -2.4862 C   0  0  0  0  0  0  0  0  0  0  0  0
   -5.3254   -2.5458   -2.9166 C   0  0  0  0  0  0  0  0  0  0  0  0
   -5.3093   -2.9038   -3.9578 H   0  0  0  0  0  0  0  0  0  0  0  0
   -6.3239   -2.9549   -2.0460 C   0  0  0  0  0  0  0  0  0  0  0  0
   -7.1136   -3.6390   -2.3912 H   0  0  0  0  0  0  0  0  0  0  0  0
   -6.3210   -2.4979   -0.7014 C   0  0  0  0  0  0  0  0  0  0  0  0
   -7.1058   -2.8368   -0.0083 H   0  0  0  0  0  0  0  0  0  0  0  0
   -5.3349   -1.6323   -0.2522 C   0  0  0  0  0  0  0  0  0  0  0  0
   -5.3373   -1.2893    0.7918 H   0  0  0  0  0  0  0  0  0  0  0  0
   -4.2996   -1.1791   -1.1253 C   0  0  0  0  0  0  0  0  0  0  0  0
   -3.2661    0.2812    0.6870 C   0  0  0  0  0  0  0  0  0  0  0  0
   -2.2298   -0.0505    1.5733 C   0  0  0  0  0  0  0  0  0  0  0  0
   -1.1489   -0.8652    1.1344 N   0  0  0  0  0  2  0  0  0  0  0  0
   -2.2350    0.4243    2.9170 C   0  0  0  0  0  0  0  0  0  0  0  0
   -1.4065    0.1311    3.5783 H   0  0  0  0  0  0  0  0  0  0  0  0
   -3.2462    1.2541    3.3624 C   0  0  0  0  0  0  0  0  0  0  0  0
   -3.2433    1.6256    4.3987 H   0  0  0  0  0  0  0  0  0  0  0  0
   -4.2933    1.6629    2.4862 C   0  0  0  0  0  0  0  0  0  0  0  0
   -5.3251    2.5467    2.9165 C   0  0  0  0  0  0  0  0  0  0  0  0
   -5.3090    2.9048    3.9578 H   0  0  0  0  0  0  0  0  0  0  0  0
   -6.3234    2.9561    2.0459 C   0  0  0  0  0  0  0  0  0  0  0  0
   -7.1130    3.6404    2.3910 H   0  0  0  0  0  0  0  0  0  0  0  0
   -6.3206    2.4991    0.7013 C   0  0  0  0  0  0  0  0  0  0  0  0
   -7.1052    2.8381    0.0081 H   0  0  0  0  0  0  0  0  0  0  0  0
   -5.3346    1.6333    0.2521 C   0  0  0  0  0  0  0  0  0  0  0  0
   -5.3370    1.2903   -0.7919 H   0  0  0  0  0  0  0  0  0  0  0  0
   -4.2995    1.1798    1.1253 C   0  0  0  0  0  0  0  0  0  0  0  0
    1.2137    2.5460   -0.6337 C   0  0  0  0  0  0  0  0  0  0  0  0
    1.1979    1.3710   -0.0595 O   0  5  0  0  0  0  0  0  0  0  0  0
    0.1118    2.9430   -1.4723 C   0  0  0  0  0  0  0  0  0  0  0  0
    0.1109    4.2424   -2.0668 C   0  0  0  0  0  0  0  0  0  0  0  0
   -0.7429    4.5373   -2.6966 H   0  0  0  0  0  0  0  0  0  0  0  0
    1.1515    5.1119   -1.8404 C   0  0  0  0  0  0  0  0  0  0  0  0
    1.1441    6.1194   -2.2827 H   0  0  0  0  0  0  0  0  0  0  0  0
    2.2786    4.7295   -1.0432 C   0  0  0  0  0  0  0  0  0  0  0  0
    3.3505    5.6620   -0.8639 C   0  0  0  0  0  0  0  0  0  0  0  0
    3.2569    6.6568   -1.3260 H   0  0  0  0  0  0  0  0  0  0  0  0
    4.4695    5.3291   -0.1412 C   0  0  0  0  0  0  0  0  0  0  0  0
    5.2879    6.0538   -0.0089 H   0  0  0  0  0  0  0  0  0  0  0  0
    4.6098    4.0271    0.4384 C   0  0  0  0  0  0  0  0  0  0  0  0
    5.8012    3.6881    1.1367 C   0  0  0  0  0  0  0  0  0  0  0  0
    6.5861    4.4552    1.2306 H   0  0  0  0  0  0  0  0  0  0  0  0
    5.9838    2.4218    1.6761 C   0  0  0  0  0  0  0  0  0  0  0  0
    6.9154    2.1701    2.2053 H   0  0  0  0  0  0  0  0  0  0  0  0
    4.9617    1.4571    1.5294 C   0  0  0  0  0  0  0  0  0  0  0  0
    5.0976    0.4434    1.9361 H   0  0  0  0  0  0  0  0  0  0  0  0
    3.7765    1.7652    0.8672 C   0  0  0  0  0  0  0  0  0  0  0  0
    2.9990    1.0021    0.7743 H   0  0  0  0  0  0  0  0  0  0  0  0
    3.5515    3.0543    0.2969 C   0  0  0  0  0  0  0  0  0  0  0  0
    2.3483    3.4304   -0.4409 C   0  0  0  0  0  0  0  0  0  0  0  0
   -0.9713    2.0577   -1.7163 C   0  0  0  0  0  3  0  0  0  0  0  0
   -1.7482    2.3844   -2.4313 H   0  0  0  0  0  0  0  0  0  0  0  0
    1.2129   -2.5463    0.6336 C   0  0  0  0  0  0  0  0  0  0  0  0
    1.1976   -1.3710    0.0598 O   0  5  0  0  0  0  0  0  0  0  0  0
    0.1109   -2.9433    1.4718 C   0  0  0  0  0  0  0  0  0  0  0  0
    0.1096   -4.2429    2.0659 C   0  0  0  0  0  0  0  0  0  0  0  0
   -0.7444   -4.5379    2.6954 H   0  0  0  0  0  0  0  0  0  0  0  0
    1.1500   -5.1127    1.8392 C   0  0  0  0  0  0  0  0  0  0  0  0
    1.1422   -6.1204    2.2811 H   0  0  0  0  0  0  0  0  0  0  0  0
    2.2773   -4.7302    1.0424 C   0  0  0  0  0  0  0  0  0  0  0  0
    3.3489   -5.6629    0.8627 C   0  0  0  0  0  0  0  0  0  0  0  0
    3.2550   -6.6580    1.3243 H   0  0  0  0  0  0  0  0  0  0  0  0
    4.4681   -5.3300    0.1403 C   0  0  0  0  0  0  0  0  0  0  0  0
    5.2863   -6.0550    0.0077 H   0  0  0  0  0  0  0  0  0  0  0  0
    4.6089   -4.0278   -0.4385 C   0  0  0  0  0  0  0  0  0  0  0  0
    5.8006   -3.6888   -1.1365 C   0  0  0  0  0  0  0  0  0  0  0  0
    6.5852   -4.4560   -1.2307 H   0  0  0  0  0  0  0  0  0  0  0  0
    5.9837   -2.4222   -1.6751 C   0  0  0  0  0  0  0  0  0  0  0  0
    6.9155   -2.1705   -2.2040 H   0  0  0  0  0  0  0  0  0  0  0  0
    4.9619   -1.4572   -1.5279 C   0  0  0  0  0  0  0  0  0  0  0  0
    5.0982   -0.4433   -1.9340 H   0  0  0  0  0  0  0  0  0  0  0  0
    3.7765   -1.7654   -0.8662 C   0  0  0  0  0  0  0  0  0  0  0  0
    2.9992   -1.0019   -0.7729 H   0  0  0  0  0  0  0  0  0  0  0  0
    3.5509   -3.0547   -0.2967 C   0  0  0  0  0  0  0  0  0  0  0  0
    2.3475   -3.4309    0.4407 C   0  0  0  0  0  0  0  0  0  0  0  0
   -0.9720   -2.0579    1.7161 C   0  0  0  0  0  3  0  0  0  0  0  0
   -1.7491   -2.3846    2.4310 H   0  0  0  0  0  0  0  0  0  0  0  0
  1 18  1  0  0  0  0
  2  3  1  0  0  0  0
  2  1  2  0  0  0  0
  4  2  1  0  0  0  0
  5  4  1  0  0  0  0
  6  4  2  0  0  0  0
  6  8  1  0  0  0  0
  7  6  1  0  0  0  0
  8 17  1  0  0  0  0
  9  8  2  0  0  0  0
  9 11  1  0  0  0  0
 10  9  1  0  0  0  0
 11 13  2  0  0  0  0
 12 11  1  0  0  0  0
 13 15  1  0  0  0  0
 13 14  1  0  0  0  0
 15 16  1  0  0  0  0
 17  1  1  0  0  0  0
 17 15  2  0  0  0  0
 18 34  2  0  0  0  0
 18 19  1  0  0  0  0
 19 21  2  0  0  0  0
 20 19  1  0  0  0  0
 20 83  1  0  0  0  0
 21 23  1  0  0  0  0
 21 22  1  0  0  0  0
 23 24  1  0  0  0  0
 25 26  1  0  0  0  0
 25 23  2  0  0  0  0
 26 27  1  0  0  0  0
 28 29  1  0  0  0  0
 28 26  2  0  0  0  0
 30 28  1  0  0  0  0
 31 30  1  0  0  0  0
 32 30  2  0  0  0  0
 32 34  1  0  0  0  0
 33 32  1  0  0  0  0
 34 25  1  0  0  0  0
 35 57  1  0  0  0  0
 35 36  1  0  0  0  0
 37 35  2  0  0  0  0
 38 40  2  0  0  0  0
 38 37  1  0  0  0  0
 39 38  1  0  0  0  0
 40 42  1  0  0  0  0
 41 40  1  0  0  0  0
 42 43  2  0  0  0  0
 42 57  1  0  0  0  0
 43 45  1  0  0  0  0
 44 43  1  0  0  0  0
 45 46  1  0  0  0  0
 45 47  2  0  0  0  0
 47 48  1  0  0  0  0
 48 49  1  0  0  0  0
 48 50  2  0  0  0  0
 50 51  1  0  0  0  0
 52 50  1  0  0  0  0
 52 53  1  0  0  0  0
 54 52  2  0  0  0  0
 55 54  1  0  0  0  0
 56 47  1  0  0  0  0
 56 54  1  0  0  0  0
 57 56  2  0  0  0  0
 58 37  1  0  0  0  0
 58  3  1  0  0  0  0
 59 58  1  0  0  0  0
 60 62  1  0  0  0  0
 61 60  1  0  0  0  0
 62 83  1  0  0  0  0
 62 63  2  0  0  0  0
 63 64  1  0  0  0  0
 65 63  1  0  0  0  0
 65 66  1  0  0  0  0
 67 65  2  0  0  0  0
 68 67  1  0  0  0  0
 68 69  1  0  0  0  0
 70 68  2  0  0  0  0
 71 70  1  0  0  0  0
 72 81  1  0  0  0  0
 72 70  1  0  0  0  0
 73 72  2  0  0  0  0
 74 73  1  0  0  0  0
 75 77  2  0  0  0  0
 75 73  1  0  0  0  0
 76 75  1  0  0  0  0
 77 79  1  0  0  0  0
 78 77  1  0  0  0  0
 79 80  1  0  0  0  0
 79 81  2  0  0  0  0
 81 82  1  0  0  0  0
 82 60  2  0  0  0  0
 82 67  1  0  0  0  0
 83 84  1  0  0  0  0
M  CHG  2  36  -1  61  -1
M  END
