2,3,4,5
 OpenBabel05122313063D

 48 51  0  0  1  0  0  0  0  0999 V2000
    5.3541   -3.2208    0.4634 Cl  0  0  0  0  0  0  0  0  0  0  0  0
   -2.6388   -1.6958   -0.2397 O   0  0  0  0  0  1  0  0  0  0  0  0
   -0.2505   -2.0067   -0.8111 O   0  0  0  0  0  1  0  0  0  0  0  0
   -2.2566    1.0042   -0.0740 N   0  0  0  0  0  2  0  0  0  0  0  0
    0.2531    0.6368   -0.3696 N   0  0  0  0  0  2  0  0  0  0  0  0
   -3.8530   -1.4515    0.1356 C   0  0  1  0  0  3  0  0  0  0  0  0
   -4.3501   -0.1286    0.4614 C   0  0  0  0  0  0  0  0  0  0  0  0
   -5.7030    0.0333    0.8916 C   0  0  0  0  0  0  0  0  0  0  0  0
   -6.0554    1.0488    1.1348 H   0  0  0  0  0  0  0  0  0  0  0  0
   -6.5592   -1.0496    0.9989 C   0  0  0  0  0  0  0  0  0  0  0  0
   -7.5977   -0.9118    1.3320 H   0  0  0  0  0  0  0  0  0  0  0  0
   -6.0791   -2.3461    0.6645 C   0  0  0  0  0  0  0  0  0  0  0  0
   -6.7563   -3.2110    0.7443 H   0  0  0  0  0  0  0  0  0  0  0  0
   -4.7742   -2.5446    0.2393 C   0  0  0  0  0  0  0  0  0  0  0  0
   -4.3935   -3.5428   -0.0196 H   0  0  0  0  0  0  0  0  0  0  0  0
   -3.5248    1.0142    0.3083 C   0  0  0  0  0  0  0  0  0  0  0  0
   -3.9930    1.9940    0.5147 H   0  0  0  0  0  0  0  0  0  0  0  0
   -1.5407    2.1909   -0.3312 C   0  0  0  0  0  0  0  0  0  0  0  0
   -2.0967    3.4786   -0.4517 C   0  0  0  0  0  0  0  0  0  0  0  0
   -3.1741    3.6364   -0.3058 H   0  0  0  0  0  0  0  0  0  0  0  0
   -1.2832    4.5577   -0.8165 C   0  0  0  0  0  0  0  0  0  0  0  0
   -1.7242    5.5594   -0.9264 H   0  0  0  0  0  0  0  0  0  0  0  0
    0.0798    4.3491   -1.0884 C   0  0  0  0  0  0  0  0  0  0  0  0
    0.7116    5.1857   -1.4212 H   0  0  0  0  0  0  0  0  0  0  0  0
    0.6461    3.0749   -0.9586 C   0  0  0  0  0  0  0  0  0  0  0  0
    1.7042    2.9310   -1.1992 H   0  0  0  0  0  0  0  0  0  0  0  0
   -0.1491    1.9857   -0.5433 C   0  0  0  0  0  0  0  0  0  0  0  0
    1.5082    0.2464   -0.1052 C   0  0  0  0  0  0  0  0  0  0  0  0
    1.0142   -2.1739   -0.6100 C   0  0  1  0  0  3  0  0  0  0  0  0
    1.9202   -1.1349   -0.1561 C   0  0  0  0  0  0  0  0  0  0  0  0
    3.2570   -1.5044    0.1982 C   0  0  0  0  0  0  0  0  0  0  0  0
    3.9393   -0.7534    0.6146 H   0  0  0  0  0  0  0  0  0  0  0  0
    3.7145   -2.7991    0.0220 C   0  0  0  0  0  0  0  0  0  0  0  0
    2.8635   -3.7984   -0.5198 C   0  0  0  0  0  0  0  0  0  0  0  0
    3.2508   -4.8169   -0.6675 H   0  0  0  0  0  0  0  0  0  0  0  0
    1.5529   -3.4853   -0.8319 C   0  0  0  0  0  0  0  0  0  0  0  0
    0.8587   -4.2436   -1.2207 H   0  0  0  0  0  0  0  0  0  0  0  0
    2.5267    1.2590    0.3147 C   0  0  0  0  0  0  0  0  0  0  0  0
    2.3237    1.9827    1.5074 C   0  0  0  0  0  0  0  0  0  0  0  0
    1.4223    1.7896    2.1078 H   0  0  0  0  0  0  0  0  0  0  0  0
    3.2586    2.9414    1.9201 C   0  0  0  0  0  0  0  0  0  0  0  0
    3.0930    3.4973    2.8552 H   0  0  0  0  0  0  0  0  0  0  0  0
    4.4011    3.1934    1.1435 C   0  0  0  0  0  0  0  0  0  0  0  0
    5.1313    3.9510    1.4658 H   0  0  0  0  0  0  0  0  0  0  0  0
    4.6135    2.4707   -0.0418 C   0  0  0  0  0  0  0  0  0  0  0  0
    5.5093    2.6608   -0.6520 H   0  0  0  0  0  0  0  0  0  0  0  0
    3.6861    1.5023   -0.4517 C   0  0  0  0  0  0  0  0  0  0  0  0
    3.8467    0.9377   -1.3822 H   0  0  0  0  0  0  0  0  0  0  0  0
  4 16  1  0  0  0  0
  5 28  1  0  0  0  0
  6  2  1  6  0  0  0
  6 14  1  0  0  0  0
  6  7  1  0  0  0  0
  7  8  1  0  0  0  0
  8 10  2  0  0  0  0
  8  9  1  0  0  0  0
 10 11  1  0  0  0  0
 12 13  1  0  0  0  0
 12 10  1  0  0  0  0
 14 12  2  0  0  0  0
 15 14  1  0  0  0  0
 16  7  2  0  0  0  0
 16 17  1  0  0  0  0
 18  4  1  0  0  0  0
 19 18  1  0  0  0  0
 19 20  1  0  0  0  0
 21 19  2  0  0  0  0
 22 21  1  0  0  0  0
 23 25  2  0  0  0  0
 23 21  1  0  0  0  0
 24 23  1  0  0  0  0
 25 27  1  0  0  0  0
 26 25  1  0  0  0  0
 27  5  1  0  0  0  0
 27 18  2  0  0  0  0
 28 38  1  0  0  0  0
 29  3  1  1  0  0  0
 29 30  1  0  0  0  0
 30 28  2  0  0  0  0
 30 31  1  0  0  0  0
 31 32  1  0  0  0  0
 33 31  2  0  0  0  0
 33  1  1  0  0  0  0
 34 33  1  0  0  0  0
 35 34  1  0  0  0  0
 36 29  1  0  0  0  0
 36 34  2  0  0  0  0
 37 36  1  0  0  0  0
 38 39  1  0  0  0  0
 39 41  2  0  0  0  0
 39 40  1  0  0  0  0
 41 42  1  0  0  0  0
 43 44  1  0  0  0  0
 43 41  1  0  0  0  0
 45 43  2  0  0  0  0
 46 45  1  0  0  0  0
 47 45  1  0  0  0  0
 47 38  2  0  0  0  0
 48 47  1  0  0  0  0
M  END
