1,2,5,6
 OpenBabel05122313063D

 78 81  0  0  1  0  0  0  0  0999 V2000
   -2.1790   -1.2447    0.0789 O   0  5  0  0  0  0  0  0  0  0  0  0
   -2.1790    1.2447   -0.0793 O   0  0  0  0  0  1  0  0  0  0  0  0
    0.0766   -2.5278    0.0698 O   0  0  0  0  0  0  0  0  0  0  0  0
    0.0766    2.5279   -0.0702 O   0  0  0  0  0  0  0  0  0  0  0  0
   -4.8861   -1.2676    0.1084 N   0  0  0  0  0  2  0  0  0  0  0  0
   -4.8861    1.2676   -0.1084 N   0  0  0  0  0  2  0  0  0  0  0  0
    3.7348   -2.5476    0.3511 N   0  0  0  0  0  0  0  0  0  0  0  0
    3.7348    2.5476   -0.3512 N   0  0  0  0  0  0  0  0  0  0  0  0
   -2.2730   -2.5323    0.0079 C   0  0  0  0  0  0  0  0  0  0  0  0
   -1.0381   -3.2948   -0.0122 C   0  0  0  0  0  0  0  0  0  0  0  0
   -1.0627   -4.6846   -0.1083 C   0  0  0  0  0  0  0  0  0  0  0  0
   -2.2961   -5.3910   -0.1685 C   0  0  0  0  0  0  0  0  0  0  0  0
   -3.4941   -4.7008   -0.1264 C   0  0  0  0  0  3  0  0  0  0  0  0
   -3.5064   -3.2736   -0.0351 C   0  0  0  0  0  0  0  0  0  0  0  0
   -4.7461   -2.5750    0.0586 C   0  0  0  0  0  0  0  0  0  0  0  0
   -6.2022   -0.6752    0.3507 C   0  0  0  0  0  0  0  0  0  0  0  0
   -6.2022    0.6752   -0.3507 C   0  0  0  0  0  0  0  0  0  0  0  0
   -4.7461    2.5750   -0.0584 C   0  0  0  0  0  0  0  0  0  0  0  0
   -3.5064    3.2736    0.0353 C   0  0  0  0  0  0  0  0  0  0  0  0
   -3.4941    4.7008    0.1269 C   0  0  0  0  0  0  0  0  0  0  0  0
   -2.2961    5.3909    0.1690 C   0  0  0  0  0  0  0  0  0  0  0  0
   -1.0626    4.6845    0.1085 C   0  0  0  0  0  0  0  0  0  0  0  0
   -1.0381    3.2948    0.0121 C   0  0  0  0  0  0  0  0  0  0  0  0
   -2.2730    2.5323   -0.0080 C   0  0  2  0  0  3  0  0  0  0  0  0
    1.3475   -3.1514    0.1055 C   0  0  0  0  0  0  0  0  0  0  0  0
    2.3710   -2.0417    0.3412 C   0  0  0  0  0  0  0  0  0  0  0  0
    4.2995   -2.6755   -0.9904 C   0  0  0  0  0  0  0  0  0  0  0  0
    5.6552   -3.3841   -0.9649 C   0  0  0  0  0  0  0  0  0  0  0  0
    6.6263   -2.6590   -0.0271 C   0  0  0  0  0  0  0  0  0  0  0  0
    5.9904   -2.4906    1.3572 C   0  0  0  0  0  0  0  0  0  0  0  0
    4.6224   -1.8139    1.2491 C   0  0  0  0  0  0  0  0  0  0  0  0
    1.3475    3.1514   -0.1057 C   0  0  0  0  0  0  0  0  0  0  0  0
    2.3710    2.0418   -0.3418 C   0  0  0  0  0  0  0  0  0  0  0  0
    4.6226    1.8144   -1.2495 C   0  0  0  0  0  0  0  0  0  0  0  0
    5.9905    2.4913   -1.3570 C   0  0  0  0  0  0  0  0  0  0  0  0
    6.6262    2.6591    0.0274 C   0  0  0  0  0  0  0  0  0  0  0  0
    5.6550    3.3835    0.9655 C   0  0  0  0  0  0  0  0  0  0  0  0
    4.2993    2.6748    0.9905 C   0  0  0  0  0  0  0  0  0  0  0  0
   -0.1192   -5.2475   -0.1344 H   0  0  0  0  0  0  0  0  0  0  0  0
   -2.2849   -6.4881   -0.2422 H   0  0  0  0  0  0  0  0  0  0  0  0
   -4.4549   -5.2379   -0.1593 H   0  0  0  0  0  0  0  0  0  0  0  0
   -5.6686   -3.1877    0.1120 H   0  0  0  0  0  0  0  0  0  0  0  0
   -6.3376   -0.5283    1.4458 H   0  0  0  0  0  0  0  0  0  0  0  0
   -7.0211   -1.3341   -0.0103 H   0  0  0  0  0  0  0  0  0  0  0  0
   -6.3376    0.5283   -1.4458 H   0  0  0  0  0  0  0  0  0  0  0  0
   -7.0211    1.3341    0.0104 H   0  0  0  0  0  0  0  0  0  0  0  0
   -5.6686    3.1877   -0.1117 H   0  0  0  0  0  0  0  0  0  0  0  0
   -4.4549    5.2378    0.1600 H   0  0  0  0  0  0  0  0  0  0  0  0
   -2.2848    6.4880    0.2429 H   0  0  0  0  0  0  0  0  0  0  0  0
   -0.1192    5.2475    0.1347 H   0  0  0  0  0  0  0  0  0  0  0  0
    1.4096   -3.9016    0.9275 H   0  0  0  0  0  0  0  0  0  0  0  0
    1.5446   -3.6920   -0.8508 H   0  0  0  0  0  0  0  0  0  0  0  0
    2.1442   -1.5809    1.3241 H   0  0  0  0  0  0  0  0  0  0  0  0
    2.2098   -1.2362   -0.4201 H   0  0  0  0  0  0  0  0  0  0  0  0
    4.4204   -1.6637   -1.4708 H   0  0  0  0  0  0  0  0  0  0  0  0
    3.5870   -3.2387   -1.6277 H   0  0  0  0  0  0  0  0  0  0  0  0
    6.0634   -3.4413   -1.9954 H   0  0  0  0  0  0  0  0  0  0  0  0
    5.5051   -4.4274   -0.6118 H   0  0  0  0  0  0  0  0  0  0  0  0
    7.5914   -3.2027    0.0432 H   0  0  0  0  0  0  0  0  0  0  0  0
    6.8577   -1.6536   -0.4472 H   0  0  0  0  0  0  0  0  0  0  0  0
    6.6457   -1.8952    2.0267 H   0  0  0  0  0  0  0  0  0  0  0  0
    5.8567   -3.4885    1.8286 H   0  0  0  0  0  0  0  0  0  0  0  0
    4.1410   -1.7583    2.2476 H   0  0  0  0  0  0  0  0  0  0  0  0
    4.7677   -0.7515    0.9059 H   0  0  0  0  0  0  0  0  0  0  0  0
    1.5446    3.6917    0.8508 H   0  0  0  0  0  0  0  0  0  0  0  0
    1.4096    3.9020   -0.9275 H   0  0  0  0  0  0  0  0  0  0  0  0
    2.2096    1.2359    0.4190 H   0  0  0  0  0  0  0  0  0  0  0  0
    2.1443    1.5815   -1.3250 H   0  0  0  0  0  0  0  0  0  0  0  0
    4.7679    0.7518   -0.9067 H   0  0  0  0  0  0  0  0  0  0  0  0
    4.1413    1.7593   -2.2481 H   0  0  0  0  0  0  0  0  0  0  0  0
    6.6459    1.8962   -2.0268 H   0  0  0  0  0  0  0  0  0  0  0  0
    5.8568    3.4894   -1.8279 H   0  0  0  0  0  0  0  0  0  0  0  0
    6.8577    1.6534    0.4471 H   0  0  0  0  0  0  0  0  0  0  0  0
    7.5913    3.2029   -0.0425 H   0  0  0  0  0  0  0  0  0  0  0  0
    6.0630    3.4402    1.9961 H   0  0  0  0  0  0  0  0  0  0  0  0
    5.5048    4.4270    0.6129 H   0  0  0  0  0  0  0  0  0  0  0  0
    4.4203    1.6627    1.4703 H   0  0  0  0  0  0  0  0  0  0  0  0
    3.5867    3.2375    1.6280 H   0  0  0  0  0  0  0  0  0  0  0  0
  3 25  1  0  0  0  0
  4 23  1  0  0  0  0
  5 16  1  0  0  0  0
  6 18  1  0  0  0  0
  7 31  1  0  0  0  0
  8 33  1  0  0  0  0
  8 38  1  0  0  0  0
  9  1  1  0  0  0  0
 10  9  2  0  0  0  0
 10  3  1  0  0  0  0
 11 10  1  0  0  0  0
 12 13  1  0  0  0  0
 12 11  2  0  0  0  0
 13 14  1  0  0  0  0
 14  9  1  0  0  0  0
 14 15  2  0  0  0  0
 15  5  1  0  0  0  0
 15 42  1  0  0  0  0
 16 43  1  0  0  0  0
 17  6  1  0  0  0  0
 17 46  1  0  0  0  0
 17 16  1  0  0  0  0
 18 19  2  0  0  0  0
 19 20  1  0  0  0  0
 20 48  1  0  0  0  0
 20 21  2  0  0  0  0
 21 49  1  0  0  0  0
 22 50  1  0  0  0  0
 22 21  1  0  0  0  0
 23 22  2  0  0  0  0
 24  2  1  6  0  0  0
 24 23  1  0  0  0  0
 24 19  1  0  0  0  0
 25 26  1  0  0  0  0
 25 51  1  0  0  0  0
 26  7  1  0  0  0  0
 26 53  1  0  0  0  0
 27 28  1  0  0  0  0
 27  7  1  0  0  0  0
 28 58  1  0  0  0  0
 28 29  1  0  0  0  0
 29 59  1  0  0  0  0
 29 30  1  0  0  0  0
 30 62  1  0  0  0  0
 30 61  1  0  0  0  0
 31 30  1  0  0  0  0
 31 63  1  0  0  0  0
 32  4  1  0  0  0  0
 32 65  1  0  0  0  0
 33 32  1  0  0  0  0
 33 67  1  0  0  0  0
 34 69  1  0  0  0  0
 34  8  1  0  0  0  0
 35 34  1  0  0  0  0
 35 36  1  0  0  0  0
 36 73  1  0  0  0  0
 36 37  1  0  0  0  0
 37 38  1  0  0  0  0
 37 75  1  0  0  0  0
 38 77  1  0  0  0  0
 38 78  1  0  0  0  0
 39 11  1  0  0  0  0
 40 12  1  0  0  0  0
 41 13  1  0  0  0  0
 44 16  1  0  0  0  0
 45 17  1  0  0  0  0
 47 18  1  0  0  0  0
 52 25  1  0  0  0  0
 54 26  1  0  0  0  0
 55 27  1  0  0  0  0
 56 27  1  0  0  0  0
 57 28  1  0  0  0  0
 60 29  1  0  0  0  0
 64 31  1  0  0  0  0
 66 32  1  0  0  0  0
 68 33  1  0  0  0  0
 70 34  1  0  0  0  0
 71 35  1  0  0  0  0
 72 35  1  0  0  0  0
 74 36  1  0  0  0  0
 76 37  1  0  0  0  0
M  CHG  1   1  -1
M  END
