1,3,24,26
 OpenBabel05122313063D

 46 48  0  0  1  0  0  0  0  0999 V2000
   -1.2429   -1.5422    0.0583 O   0  0  0  0  0  1  0  0  0  0  0  0
   -5.4434   -3.7636   -0.1801 O   0  0  0  0  0  0  0  0  0  0  0  0
   -1.2635    1.1845    0.1819 N   0  0  0  0  0  2  0  0  0  0  0  0
   -2.5353   -1.4564    0.0196 C   0  0  1  0  0  3  0  0  0  0  0  0
   -3.3010   -2.6576   -0.0625 C   0  0  0  0  0  0  0  0  0  0  0  0
   -4.6958   -2.6318   -0.0989 C   0  0  0  0  0  0  0  0  0  0  0  0
   -5.4080   -1.3989   -0.0503 C   0  0  0  0  0  0  0  0  0  0  0  0
   -4.6875   -0.2206    0.0343 C   0  0  0  0  0  0  0  0  0  0  0  0
   -3.2633   -0.2044    0.0684 C   0  0  0  0  0  0  0  0  0  0  0  0
   -2.5706    1.0331    0.1841 C   0  0  0  0  0  0  0  0  0  0  0  0
   -0.6392    2.4937    0.4232 C   0  0  2  0  0  0  0  0  0  0  0  0
   -1.4841    3.7428    0.1640 C   0  0  0  0  0  0  0  0  0  0  0  0
   -0.6458    5.0058    0.4127 C   0  0  0  0  0  0  0  0  0  0  0  0
   -4.8360   -4.5271   -0.2037 H   0  0  0  0  0  0  0  0  0  0  0  0
   -2.7446   -3.6074   -0.0974 H   0  0  0  0  0  0  0  0  0  0  0  0
   -6.5057   -1.4158   -0.0780 H   0  0  0  0  0  0  0  0  0  0  0  0
   -5.2223    0.7421    0.0775 H   0  0  0  0  0  0  0  0  0  0  0  0
   -3.1978    1.9367    0.2971 H   0  0  0  0  0  0  0  0  0  0  0  0
   -0.3131    2.5082    1.4912 H   0  0  0  0  0  0  0  0  0  0  0  0
   -2.3785    3.7550    0.8197 H   0  0  0  0  0  0  0  0  0  0  0  0
   -1.8511    3.7250   -0.8860 H   0  0  0  0  0  0  0  0  0  0  0  0
   -1.2493    5.9088    0.1875 H   0  0  0  0  0  0  0  0  0  0  0  0
   -0.3895    5.0636    1.4938 H   0  0  0  0  0  0  0  0  0  0  0  0
    1.2429   -1.5422   -0.0583 O   0  5  0  0  0  0  0  0  0  0  0  0
    5.4434   -3.7636    0.1800 O   0  0  0  0  0  0  0  0  0  0  0  0
    1.2635    1.1845   -0.1818 N   0  0  0  0  0  2  0  0  0  0  0  0
    2.5353   -1.4564   -0.0196 C   0  0  0  0  0  0  0  0  0  0  0  0
    3.3010   -2.6576    0.0625 C   0  0  0  0  0  0  0  0  0  0  0  0
    4.6958   -2.6318    0.0988 C   0  0  0  0  0  0  0  0  0  0  0  0
    5.4080   -1.3989    0.0503 C   0  0  0  0  0  0  0  0  0  0  0  0
    4.6875   -0.2206   -0.0342 C   0  0  0  0  0  3  0  0  0  0  0  0
    3.2633   -0.2044   -0.0683 C   0  0  0  0  0  0  0  0  0  0  0  0
    2.5706    1.0331   -0.1841 C   0  0  0  0  0  0  0  0  0  0  0  0
    0.6392    2.4937   -0.4232 C   0  0  2  0  0  0  0  0  0  0  0  0
    1.4841    3.7428   -0.1640 C   0  0  0  0  0  0  0  0  0  0  0  0
    0.6458    5.0057   -0.4128 C   0  0  0  0  0  0  0  0  0  0  0  0
    4.8360   -4.5271    0.2037 H   0  0  0  0  0  0  0  0  0  0  0  0
    2.7446   -3.6074    0.0974 H   0  0  0  0  0  0  0  0  0  0  0  0
    6.5057   -1.4158    0.0780 H   0  0  0  0  0  0  0  0  0  0  0  0
    5.2223    0.7421   -0.0774 H   0  0  0  0  0  0  0  0  0  0  0  0
    3.1978    1.9367   -0.2971 H   0  0  0  0  0  0  0  0  0  0  0  0
    0.3131    2.5082   -1.4912 H   0  0  0  0  0  0  0  0  0  0  0  0
    2.3785    3.7550   -0.8197 H   0  0  0  0  0  0  0  0  0  0  0  0
    1.8511    3.7251    0.8860 H   0  0  0  0  0  0  0  0  0  0  0  0
    1.2493    5.9088   -0.1875 H   0  0  0  0  0  0  0  0  0  0  0  0
    0.3895    5.0636   -1.4939 H   0  0  0  0  0  0  0  0  0  0  0  0
  2  6  1  0  0  0  0
  3 10  1  0  0  0  0
  3 11  1  0  0  0  0
  4  1  1  1  0  0  0
  4  9  1  0  0  0  0
  5  4  1  0  0  0  0
  6  5  2  0  0  0  0
  6  7  1  0  0  0  0
  7  8  2  0  0  0  0
  8  9  1  0  0  0  0
  8 17  1  0  0  0  0
  9 10  2  0  0  0  0
 10 18  1  0  0  0  0
 11 19  1  1  0  0  0
 12 13  1  0  0  0  0
 12 11  1  0  0  0  0
 12 20  1  0  0  0  0
 13 23  1  0  0  0  0
 14  2  1  0  0  0  0
 15  5  1  0  0  0  0
 16  7  1  0  0  0  0
 21 12  1  0  0  0  0
 22 13  1  0  0  0  0
 24 27  1  0  0  0  0
 25 37  1  0  0  0  0
 27 28  2  0  0  0  0
 28 38  1  0  0  0  0
 28 29  1  0  0  0  0
 29 25  1  0  0  0  0
 30 39  1  0  0  0  0
 30 29  2  0  0  0  0
 31 30  1  0  0  0  0
 32 31  1  0  0  0  0
 32 27  1  0  0  0  0
 33 26  1  0  0  0  0
 33 32  2  0  0  0  0
 34 42  1  6  0  0  0
 34 26  1  0  0  0  0
 34 35  1  0  0  0  0
 34 11  1  0  0  0  0
 35 44  1  0  0  0  0
 36 45  1  0  0  0  0
 36 35  1  0  0  0  0
 36 13  1  0  0  0  0
 40 31  1  0  0  0  0
 41 33  1  0  0  0  0
 43 35  1  0  0  0  0
 46 36  1  0  0  0  0
M  CHG  1  24  -1
M  END
