1,2,4,5
 OpenBabel05122313063D

 45 48  0  0  1  0  0  0  0  0999 V2000
    1.9467   -1.4062   -0.0011 O   0  0  0  0  0  1  0  0  0  0  0  0
   -0.5143   -1.5767    0.0009 O   0  5  0  0  0  0  0  0  0  0  0  0
    6.2903   -3.3386   -0.0010 O   0  0  0  0  0  0  0  0  0  0  0  0
    1.7758    1.3356   -0.0001 N   0  0  0  0  0  2  0  0  0  0  0  0
   -0.7627    1.1260    0.0002 N   0  0  0  0  0  2  0  0  0  0  0  0
    3.2281   -1.2372   -0.0007 C   0  0  2  0  0  3  0  0  0  0  0  0
    4.0733   -2.3864   -0.0012 C   0  0  0  0  0  0  0  0  0  0  0  0
    5.4621   -2.2649   -0.0005 C   0  0  0  0  0  0  0  0  0  0  0  0
    6.0886   -0.9812    0.0007 C   0  0  0  0  0  0  0  0  0  0  0  0
    5.2936    0.1466    0.0011 C   0  0  0  0  0  0  0  0  0  0  0  0
    3.8658    0.0680    0.0004 C   0  0  0  0  0  0  0  0  0  0  0  0
    3.1010    1.2556    0.0007 C   0  0  0  0  0  0  0  0  0  0  0  0
    1.1091    2.5786   -0.0001 C   0  0  0  0  0  0  0  0  0  0  0  0
   -0.3063    2.4617    0.0003 C   0  0  0  0  0  0  0  0  0  0  0  0
   -2.0620    0.8419    0.0001 C   0  0  0  0  0  0  0  0  0  0  0  0
   -2.6509   -0.4424    0.0001 C   0  0  0  0  0  0  0  0  0  0  0  0
   -4.1046   -0.5979   -0.0002 C   0  0  1  0  0  3  0  0  0  0  0  0
   -5.0148    0.4936   -0.0012 C   0  0  0  0  0  0  0  0  0  0  0  0
   -6.3945    0.2975   -0.0014 C   0  0  0  0  0  0  0  0  0  0  0  0
   -6.9373   -1.0064   -0.0007 C   0  0  0  0  0  0  0  0  0  0  0  0
   -6.0747   -2.0973    0.0002 C   0  0  0  0  0  0  0  0  0  0  0  0
   -4.6663   -1.9212    0.0005 C   0  0  0  0  0  0  0  0  0  0  0  0
   -3.7849   -3.0562    0.0013 C   0  0  0  0  0  0  0  0  0  0  0  0
   -2.4210   -2.9146    0.0014 C   0  0  0  0  0  0  0  0  0  0  0  0
   -1.8037   -1.6100    0.0007 C   0  0  0  0  0  0  0  0  0  0  0  0
    1.7073    3.8548   -0.0005 C   0  0  0  0  0  0  0  0  0  0  0  0
    0.9058    5.0020   -0.0003 C   0  0  0  0  0  0  0  0  0  0  0  0
   -0.4967    4.8872    0.0004 C   0  0  0  0  0  0  0  0  0  0  0  0
   -1.1021    3.6256    0.0006 C   0  0  0  0  0  0  0  0  0  0  0  0
    5.7445   -4.1480   -0.0018 H   0  0  0  0  0  0  0  0  0  0  0  0
    3.5829   -3.3722   -0.0020 H   0  0  0  0  0  0  0  0  0  0  0  0
    7.1854   -0.9265    0.0012 H   0  0  0  0  0  0  0  0  0  0  0  0
    5.7613    1.1441    0.0020 H   0  0  0  0  0  0  0  0  0  0  0  0
    3.6717    2.2015    0.0016 H   0  0  0  0  0  0  0  0  0  0  0  0
   -2.7471    1.7033   -0.0001 H   0  0  0  0  0  0  0  0  0  0  0  0
   -4.6408    1.5273   -0.0019 H   0  0  0  0  0  0  0  0  0  0  0  0
   -7.0643    1.1709   -0.0022 H   0  0  0  0  0  0  0  0  0  0  0  0
   -8.0272   -1.1550   -0.0009 H   0  0  0  0  0  0  0  0  0  0  0  0
   -6.4733   -3.1241    0.0008 H   0  0  0  0  0  0  0  0  0  0  0  0
   -4.2339   -4.0623    0.0018 H   0  0  0  0  0  0  0  0  0  0  0  0
   -1.7413   -3.7784    0.0020 H   0  0  0  0  0  0  0  0  0  0  0  0
    2.8004    3.9633   -0.0011 H   0  0  0  0  0  0  0  0  0  0  0  0
    1.3789    5.9950   -0.0006 H   0  0  0  0  0  0  0  0  0  0  0  0
   -1.1247    5.7902    0.0006 H   0  0  0  0  0  0  0  0  0  0  0  0
   -2.1986    3.5587    0.0011 H   0  0  0  0  0  0  0  0  0  0  0  0
  3  8  1  0  0  0  0
  4 12  1  0  0  0  0
  5 14  1  0  0  0  0
  6  1  1  1  0  0  0
  6 11  1  0  0  0  0
  7  6  1  0  0  0  0
  7  8  2  0  0  0  0
  8  9  1  0  0  0  0
  9 10  2  0  0  0  0
  9 32  1  0  0  0  0
 10 33  1  0  0  0  0
 11 12  2  0  0  0  0
 11 10  1  0  0  0  0
 12 34  1  0  0  0  0
 13  4  1  0  0  0  0
 13 14  1  0  0  0  0
 14 29  2  0  0  0  0
 15 16  2  0  0  0  0
 15  5  1  0  0  0  0
 16 25  1  0  0  0  0
 17 18  1  6  0  0  0
 17 16  1  0  0  0  0
 17 22  1  0  0  0  0
 19 18  2  0  0  0  0
 19 20  1  0  0  0  0
 20 21  2  0  0  0  0
 21 22  1  0  0  0  0
 21 39  1  0  0  0  0
 22 23  2  0  0  0  0
 23 24  1  0  0  0  0
 23 40  1  0  0  0  0
 24 41  1  0  0  0  0
 25  2  1  0  0  0  0
 25 24  2  0  0  0  0
 26 27  1  0  0  0  0
 26 13  2  0  0  0  0
 27 28  2  0  0  0  0
 28 44  1  0  0  0  0
 28 29  1  0  0  0  0
 29 45  1  0  0  0  0
 30  3  1  0  0  0  0
 31  7  1  0  0  0  0
 35 15  1  0  0  0  0
 36 18  1  0  0  0  0
 37 19  1  0  0  0  0
 38 20  1  0  0  0  0
 42 26  1  0  0  0  0
 43 27  1  0  0  0  0
M  CHG  1   2  -1
M  END
