1,2,5,6
 OpenBabel05122313063D

 68 71  0  0  1  0  0  0  0  0999 V2000
   -1.9338   -0.9739    0.0176 O   0  0  0  0  0  1  0  0  0  0  0  0
   -1.6706    1.4575   -0.2975 O   0  5  0  0  0  0  0  0  0  0  0  0
   -4.3170   -2.0391   -0.1251 O   0  0  0  0  0  0  0  0  0  0  0  0
   -3.8974    3.1313   -0.1642 O   0  0  0  0  0  0  0  0  0  0  0  0
    0.7679   -1.2719    0.1904 N   0  0  0  0  0  2  0  0  0  0  0  0
    1.0268    1.2321   -0.2472 N   0  0  0  0  0  2  0  0  0  0  0  0
   -1.9822   -2.2619    0.1260 C   0  0  2  0  0  3  0  0  0  0  0  0
   -3.2840   -2.8998    0.0665 C   0  0  0  0  0  0  0  0  0  0  0  0
   -5.6264   -2.5749   -0.2607 C   0  0  0  0  0  0  0  0  0  0  0  0
   -6.5798   -1.4274   -0.5343 C   0  0  0  0  0  0  0  0  0  0  0  0
   -3.3988   -4.2833    0.1987 C   0  0  0  0  0  0  0  0  0  0  0  0
   -2.2508   -5.1004    0.3901 C   0  0  0  0  0  0  0  0  0  0  0  0
   -0.9936   -4.5272    0.4434 C   0  0  0  0  0  0  0  0  0  0  0  0
   -0.8364   -3.1125    0.3079 C   0  0  0  0  0  0  0  0  0  0  0  0
    0.4698   -2.5433    0.3626 C   0  0  0  0  0  0  0  0  0  0  0  0
    2.1524   -0.8056    0.4024 C   0  0  1  0  0  0  0  0  0  0  0  0
    3.2449   -1.7952    0.0522 C   0  0  0  0  0  0  0  0  0  0  0  0
    3.2881   -2.3984   -1.2223 C   0  0  0  0  0  0  0  0  0  0  0  0
    4.3359   -3.2637   -1.5646 C   0  0  0  0  0  0  0  0  0  0  0  0
    5.3589   -3.5335   -0.6398 C   0  0  0  0  0  0  0  0  0  0  0  0
    5.3248   -2.9364    0.6291 C   0  0  0  0  0  0  0  0  0  0  0  0
    4.2716   -2.0741    0.9718 C   0  0  0  0  0  0  0  0  0  0  0  0
    2.2992    0.5010   -0.4061 C   0  0  2  0  0  0  0  0  0  0  0  0
    3.5524    1.2560   -0.0126 C   0  0  0  0  0  0  0  0  0  0  0  0
    4.6402    1.3368   -0.9002 C   0  0  0  0  0  0  0  0  0  0  0  0
    5.8301    1.9759   -0.5181 C   0  0  0  0  0  0  0  0  0  0  0  0
    5.9422    2.5464    0.7584 C   0  0  0  0  0  0  0  0  0  0  0  0
    4.8597    2.4742    1.6515 C   0  0  0  0  0  0  0  0  0  0  0  0
    3.6746    1.8308    1.2700 C   0  0  0  0  0  0  0  0  0  0  0  0
    0.9935    2.5404   -0.3965 C   0  0  0  0  0  0  0  0  0  0  0  0
   -0.1758    3.3568   -0.3787 C   0  0  0  0  0  0  0  0  0  0  0  0
   -0.0468    4.7748   -0.4782 C   0  0  0  0  0  3  0  0  0  0  0  0
   -1.1739    5.5819   -0.4697 C   0  0  0  0  0  0  0  0  0  0  0  0
   -2.4562    4.9940   -0.3376 C   0  0  0  0  0  0  0  0  0  0  0  0
   -2.6288    3.6122   -0.2403 C   0  0  0  0  0  0  0  0  0  0  0  0
   -4.1927    2.0184    0.7062 C   0  0  0  0  0  0  0  0  0  0  0  0
   -5.6796    2.0691    1.0034 C   0  0  0  0  0  0  0  0  0  0  0  0
   -1.4759    2.7403   -0.2963 C   0  0  0  0  0  0  0  0  0  0  0  0
   -5.6472   -3.3178   -1.0934 H   0  0  0  0  0  0  0  0  0  0  0  0
   -5.9140   -3.1212    0.6695 H   0  0  0  0  0  0  0  0  0  0  0  0
   -6.5693   -0.6991    0.2995 H   0  0  0  0  0  0  0  0  0  0  0  0
   -6.2893   -0.8910   -1.4590 H   0  0  0  0  0  0  0  0  0  0  0  0
   -7.6133   -1.8073   -0.6563 H   0  0  0  0  0  0  0  0  0  0  0  0
   -4.3886   -4.7579    0.1560 H   0  0  0  0  0  0  0  0  0  0  0  0
   -2.3756   -6.1881    0.4926 H   0  0  0  0  0  0  0  0  0  0  0  0
   -0.0953   -5.1477    0.5863 H   0  0  0  0  0  0  0  0  0  0  0  0
    1.3075   -3.2383    0.5618 H   0  0  0  0  0  0  0  0  0  0  0  0
    2.2501   -0.5375    1.4784 H   0  0  0  0  0  0  0  0  0  0  0  0
    2.4834   -2.1985   -1.9472 H   0  0  0  0  0  0  0  0  0  0  0  0
    4.3549   -3.7320   -2.5604 H   0  0  0  0  0  0  0  0  0  0  0  0
    6.1820   -4.2123   -0.9095 H   0  0  0  0  0  0  0  0  0  0  0  0
    6.1223   -3.1426    1.3588 H   0  0  0  0  0  0  0  0  0  0  0  0
    4.2481   -1.5994    1.9652 H   0  0  0  0  0  0  0  0  0  0  0  0
    2.3825    0.2134   -1.4782 H   0  0  0  0  0  0  0  0  0  0  0  0
    4.5541    0.8828   -1.8997 H   0  0  0  0  0  0  0  0  0  0  0  0
    6.6735    2.0284   -1.2231 H   0  0  0  0  0  0  0  0  0  0  0  0
    6.8730    3.0507    1.0590 H   0  0  0  0  0  0  0  0  0  0  0  0
    4.9399    2.9232    2.6531 H   0  0  0  0  0  0  0  0  0  0  0  0
    2.8258    1.7862    1.9703 H   0  0  0  0  0  0  0  0  0  0  0  0
    1.9608    3.0589   -0.5372 H   0  0  0  0  0  0  0  0  0  0  0  0
    0.9611    5.2107   -0.5591 H   0  0  0  0  0  0  0  0  0  0  0  0
   -1.0812    6.6749   -0.5465 H   0  0  0  0  0  0  0  0  0  0  0  0
   -3.3641    5.6148   -0.3061 H   0  0  0  0  0  0  0  0  0  0  0  0
   -3.5986    2.1168    1.6425 H   0  0  0  0  0  0  0  0  0  0  0  0
   -3.8955    1.0618    0.2316 H   0  0  0  0  0  0  0  0  0  0  0  0
   -5.9608    1.2321    1.6737 H   0  0  0  0  0  0  0  0  0  0  0  0
   -5.9610    3.0223    1.4946 H   0  0  0  0  0  0  0  0  0  0  0  0
   -6.2686    1.9766    0.0687 H   0  0  0  0  0  0  0  0  0  0  0  0
  2 38  1  0  0  0  0
  3  8  1  0  0  0  0
  4 36  1  0  0  0  0
  5 15  1  0  0  0  0
  5 16  1  0  0  0  0
  7  1  1  1  0  0  0
  7 14  1  0  0  0  0
  8  7  1  0  0  0  0
  8 11  2  0  0  0  0
  9  3  1  0  0  0  0
  9 40  1  0  0  0  0
 10  9  1  0  0  0  0
 10 41  1  0  0  0  0
 11 12  1  0  0  0  0
 12 13  2  0  0  0  0
 12 45  1  0  0  0  0
 13 46  1  0  0  0  0
 14 15  2  0  0  0  0
 14 13  1  0  0  0  0
 15 47  1  0  0  0  0
 16 48  1  1  0  0  0
 17 16  1  0  0  0  0
 17 22  1  0  0  0  0
 18 17  2  0  0  0  0
 19 18  1  0  0  0  0
 19 20  2  0  0  0  0
 20 21  1  0  0  0  0
 21 22  2  0  0  0  0
 21 52  1  0  0  0  0
 22 53  1  0  0  0  0
 23 54  1  6  0  0  0
 23  6  1  0  0  0  0
 23 24  1  0  0  0  0
 23 16  1  0  0  0  0
 24 29  1  0  0  0  0
 25 26  1  0  0  0  0
 25 24  2  0  0  0  0
 26 27  2  0  0  0  0
 27 57  1  0  0  0  0
 27 28  1  0  0  0  0
 28 58  1  0  0  0  0
 29 28  2  0  0  0  0
 29 59  1  0  0  0  0
 30 31  2  0  0  0  0
 30  6  1  0  0  0  0
 31 38  1  0  0  0  0
 32 33  1  0  0  0  0
 32 31  1  0  0  0  0
 33 34  2  0  0  0  0
 34 63  1  0  0  0  0
 34 35  1  0  0  0  0
 35  4  1  0  0  0  0
 36 37  1  0  0  0  0
 36 64  1  0  0  0  0
 37 67  1  0  0  0  0
 37 66  1  0  0  0  0
 38 35  2  0  0  0  0
 39  9  1  0  0  0  0
 42 10  1  0  0  0  0
 43 10  1  0  0  0  0
 44 11  1  0  0  0  0
 49 18  1  0  0  0  0
 50 19  1  0  0  0  0
 51 20  1  0  0  0  0
 55 25  1  0  0  0  0
 56 26  1  0  0  0  0
 60 30  1  0  0  0  0
 61 32  1  0  0  0  0
 62 33  1  0  0  0  0
 65 36  1  0  0  0  0
 68 37  1  0  0  0  0
M  CHG  1   2  -1
M  END
