3,4,5,6
 OpenBabel05122313063D

 43 44  0  0  1  0  0  0  0  0999 V2000
   -7.3070   -0.9873   -0.1243 Br  0  0  0  0  0  0  0  0  0  0  0  0
    7.2164   -1.0911   -0.3385 Br  0  0  0  0  0  0  0  0  0  0  0  0
   -1.2684   -0.9940    0.3254 O   0  5  0  0  0  0  0  0  0  0  0  0
    1.2065   -1.0013    0.4102 O   0  5  0  0  0  0  0  0  0  0  0  0
   -1.2468    1.4056   -0.9731 N   0  0  0  0  0  2  0  0  0  0  0  0
    1.2712    1.6839   -0.0099 N   0  0  0  0  0  2  0  0  0  0  0  0
   -3.2669    0.1324   -0.4451 C   0  0  0  0  0  0  0  0  0  0  0  0
   -2.5579   -0.9430    0.2080 C   0  0  0  0  0  0  0  0  0  0  0  0
   -3.3441   -2.0185    0.7349 C   0  0  0  0  0  0  0  0  0  0  0  0
   -2.8057   -2.8416    1.2259 H   0  0  0  0  0  0  0  0  0  0  0  0
   -4.7284   -2.0211    0.6417 C   0  0  0  0  0  0  0  0  0  0  0  0
   -5.3095   -2.8541    1.0636 H   0  0  0  0  0  0  0  0  0  0  0  0
   -5.4053   -0.9532   -0.0027 C   0  0  0  0  0  0  0  0  0  0  0  0
   -4.6871    0.1019   -0.5453 C   0  0  0  0  0  3  0  0  0  0  0  0
   -5.2089    0.9256   -1.0552 H   0  0  0  0  0  0  0  0  0  0  0  0
   -2.5437    1.2008   -1.0544 C   0  0  0  0  0  0  0  0  0  0  0  0
   -3.1281    1.9112   -1.6733 H   0  0  0  0  0  0  0  0  0  0  0  0
   -0.6766    2.5130   -1.7384 C   0  0  0  0  0  0  0  0  0  0  0  0
   -1.4466    2.9507   -2.4091 H   0  0  0  0  0  0  0  0  0  0  0  0
    0.1256    2.1019   -2.3854 H   0  0  0  0  0  0  0  0  0  0  0  0
   -0.0961    3.5992   -0.8321 C   0  0  0  0  0  0  0  0  0  0  0  0
   -0.9169    4.2068   -0.3990 H   0  0  0  0  0  0  0  0  0  0  0  0
    0.5096    4.2800   -1.4641 H   0  0  0  0  0  0  0  0  0  0  0  0
    0.7656    3.0283    0.3166 C   0  0  1  0  0  0  0  0  0  0  0  0
    1.6505    3.6881    0.4596 H   0  0  0  0  0  0  0  0  0  0  0  0
    0.0062    2.9864    1.6599 C   0  0  0  0  0  0  0  0  0  0  0  0
   -0.2897    4.0311    1.8984 H   0  0  0  0  0  0  0  0  0  0  0  0
   -0.9374    2.4177    1.5152 H   0  0  0  0  0  0  0  0  0  0  0  0
    0.8125    2.3844    2.8075 C   0  0  0  0  0  0  0  0  0  0  0  0
    1.0369    1.3155    2.6173 H   0  0  0  0  0  0  0  0  0  0  0  0
    0.2519    2.4452    3.7608 H   0  0  0  0  0  0  0  0  0  0  0  0
    1.7785    2.9132    2.9496 H   0  0  0  0  0  0  0  0  0  0  0  0
    2.5727    1.4993   -0.0021 C   0  0  0  0  0  0  0  0  0  0  0  0
    3.2096    2.4029    0.0821 H   0  0  0  0  0  0  0  0  0  0  0  0
    3.2400    0.2369   -0.0274 C   0  0  0  0  0  0  0  0  0  0  0  0
    2.4905   -0.9706    0.2300 C   0  0  0  0  0  0  0  0  0  0  0  0
    3.2341   -2.1911    0.3261 C   0  0  0  0  0  0  0  0  0  0  0  0
    2.6683   -3.1103    0.5344 H   0  0  0  0  0  0  0  0  0  0  0  0
    4.6104   -2.2199    0.1500 C   0  0  0  0  0  0  0  0  0  0  0  0
    5.1557   -3.1729    0.2141 H   0  0  0  0  0  0  0  0  0  0  0  0
    5.3257   -1.0224   -0.1092 C   0  0  0  0  0  0  0  0  0  0  0  0
    4.6538    0.1891   -0.1840 C   0  0  0  0  0  3  0  0  0  0  0  0
    5.2081    1.1221   -0.3656 H   0  0  0  0  0  0  0  0  0  0  0  0
  1 13  1  0  0  0  0
  2 41  1  0  0  0  0
  6 33  1  0  0  0  0
  6 24  1  0  0  0  0
  7  8  1  0  0  0  0
  8  3  1  0  0  0  0
  8  9  2  0  0  0  0
  9 10  1  0  0  0  0
 11  9  1  0  0  0  0
 11 12  1  0  0  0  0
 13 11  2  0  0  0  0
 14  7  1  0  0  0  0
 14 13  1  0  0  0  0
 15 14  1  0  0  0  0
 16  5  1  0  0  0  0
 16  7  2  0  0  0  0
 17 16  1  0  0  0  0
 18  5  1  0  0  0  0
 18 21  1  0  0  0  0
 19 18  1  0  0  0  0
 20 18  1  0  0  0  0
 21 22  1  0  0  0  0
 21 24  1  0  0  0  0
 23 21  1  0  0  0  0
 24 25  1  1  0  0  0
 24 26  1  0  0  0  0
 26 27  1  0  0  0  0
 26 29  1  0  0  0  0
 28 26  1  0  0  0  0
 29 32  1  0  0  0  0
 29 31  1  0  0  0  0
 30 29  1  0  0  0  0
 33 34  1  0  0  0  0
 35 33  2  0  0  0  0
 35 36  1  0  0  0  0
 36 37  2  0  0  0  0
 36  4  1  0  0  0  0
 37 38  1  0  0  0  0
 39 40  1  0  0  0  0
 39 37  1  0  0  0  0
 41 39  2  0  0  0  0
 42 41  1  0  0  0  0
 42 35  1  0  0  0  0
 43 42  1  0  0  0  0
M  CHG  2   3  -1   4  -1
M  END
