6,8,13,14
 OpenBabel05122313063D

 38 40  0  0  0  0  0  0  0  0999 V2000
    2.3315   -3.2738    0.0016 Br  0  0  0  0  0  0  0  0  0  0  0  0
   -2.3315   -3.2738   -0.0002 Br  0  0  0  0  0  0  0  0  0  0  0  0
    7.1202   -0.4253   -0.0019 Cl  0  0  0  0  0  0  0  0  0  0  0  0
   -7.1202   -0.4253   -0.0012 Cl  0  0  0  0  0  0  0  0  0  0  0  0
    3.2621    0.8188   -0.0007 C   0  0  0  0  0  0  0  0  0  0  0  0
   -1.2263   -0.4830    0.0003 O   0  5  0  0  0  0  0  0  0  0  0  0
    4.6898    0.8061   -0.0013 C   0  0  0  0  0  3  0  0  0  0  0  0
   -1.2748    2.2511    0.0005 N   0  0  0  0  0  2  0  0  0  0  0  0
    2.5871    2.0679   -0.0008 C   0  0  0  0  0  0  0  0  0  0  0  0
    2.5113   -0.4186    0.0002 C   0  0  0  0  0  0  0  0  0  0  0  0
    5.3747   -0.3966   -0.0011 C   0  0  0  0  0  0  0  0  0  0  0  0
   -2.5113   -0.4186   -0.0000 C   0  0  0  0  0  0  0  0  0  0  0  0
    1.2263   -0.4831    0.0007 O   0  5  0  0  0  0  0  0  0  0  0  0
    1.2748    2.2511   -0.0002 N   0  0  0  0  0  2  0  0  0  0  0  0
   -4.6898    0.8061   -0.0005 C   0  0  0  0  0  3  0  0  0  0  0  0
    3.2820   -1.6381    0.0004 C   0  0  0  0  0  0  0  0  0  0  0  0
   -3.2820   -1.6381   -0.0003 C   0  0  0  0  0  0  0  0  0  0  0  0
    0.7094    3.5463    0.0000 C   0  0  0  0  0  0  0  0  0  0  0  0
    0.7037    5.9762    0.0004 C   0  0  0  0  0  0  0  0  0  0  0  0
   -1.4103    4.7686    0.0015 C   0  0  0  0  0  0  0  0  0  0  0  0
   -0.7036    5.9762    0.0013 C   0  0  0  0  0  0  0  0  0  0  0  0
   -0.7094    3.5463    0.0007 C   0  0  0  0  0  0  0  0  0  0  0  0
    4.6695   -1.6303   -0.0002 C   0  0  0  0  0  0  0  0  0  0  0  0
   -2.5871    2.0679    0.0001 C   0  0  0  0  0  0  0  0  0  0  0  0
   -4.6695   -1.6303   -0.0007 C   0  0  0  0  0  0  0  0  0  0  0  0
   -5.3748   -0.3966   -0.0008 C   0  0  0  0  0  0  0  0  0  0  0  0
   -3.2621    0.8188   -0.0001 C   0  0  0  0  0  0  0  0  0  0  0  0
    1.4104    4.7686   -0.0002 C   0  0  0  0  0  0  0  0  0  0  0  0
    3.2310    2.9647   -0.0012 H   0  0  0  0  0  0  0  0  0  0  0  0
   -5.2263   -2.5770   -0.0009 H   0  0  0  0  0  0  0  0  0  0  0  0
    5.2433    1.7561   -0.0020 H   0  0  0  0  0  0  0  0  0  0  0  0
    5.2263   -2.5770   -0.0000 H   0  0  0  0  0  0  0  0  0  0  0  0
   -3.2310    2.9647   -0.0000 H   0  0  0  0  0  0  0  0  0  0  0  0
    1.2555    6.9275    0.0003 H   0  0  0  0  0  0  0  0  0  0  0  0
   -1.2554    6.9275    0.0020 H   0  0  0  0  0  0  0  0  0  0  0  0
   -5.2433    1.7561   -0.0006 H   0  0  0  0  0  0  0  0  0  0  0  0
   -2.5085    4.7895    0.0023 H   0  0  0  0  0  0  0  0  0  0  0  0
    2.5085    4.7894   -0.0008 H   0  0  0  0  0  0  0  0  0  0  0  0
  3 11  1  0  0  0  0
  4 26  1  0  0  0  0
  5 10  1  0  0  0  0
  7 11  1  0  0  0  0
  7  5  1  0  0  0  0
  8 22  1  0  0  0  0
  9  5  2  0  0  0  0
  9 14  1  0  0  0  0
 10 16  2  0  0  0  0
 10 13  1  0  0  0  0
 11 23  2  0  0  0  0
 12  6  1  0  0  0  0
 14 18  1  0  0  0  0
 15 27  1  0  0  0  0
 16  1  1  0  0  0  0
 17  2  1  0  0  0  0
 17 12  2  0  0  0  0
 18 22  1  0  0  0  0
 19 21  2  0  0  0  0
 20 37  1  0  0  0  0
 21 20  1  0  0  0  0
 21 35  1  0  0  0  0
 22 20  2  0  0  0  0
 23 32  1  0  0  0  0
 23 16  1  0  0  0  0
 24  8  1  0  0  0  0
 25 17  1  0  0  0  0
 26 25  2  0  0  0  0
 26 15  1  0  0  0  0
 27 12  1  0  0  0  0
 27 24  2  0  0  0  0
 28 18  2  0  0  0  0
 28 19  1  0  0  0  0
 29  9  1  0  0  0  0
 30 25  1  0  0  0  0
 31  7  1  0  0  0  0
 33 24  1  0  0  0  0
 34 19  1  0  0  0  0
 36 15  1  0  0  0  0
 38 28  1  0  0  0  0
M  CHG  2   6  -1  13  -1
M  END
