3,5,7,8
 OpenBabel05122313063D

 64 66  0  0  1  0  0  0  0  0999 V2000
   -2.4251   -0.1938   -1.0117 S   0  0  0  0  0  0  0  0  0  0  0  0
    2.4251   -0.1924    1.0116 S   0  0  0  0  0  0  0  0  0  0  0  0
   -2.1194   -1.6825   -0.8342 O   0  0  0  0  0  1  0  0  0  0  0  0
   -2.3832    0.3444   -2.3970 O   0  0  0  0  0  1  0  0  0  0  0  0
    2.1192   -1.6812    0.8342 O   0  0  0  0  0  1  0  0  0  0  0  0
    2.3833    0.3457    2.3969 O   0  0  0  0  0  1  0  0  0  0  0  0
   -1.2472    0.3962   -0.0593 N   0  0  0  0  0  2  0  0  0  0  0  0
    1.2472    0.3973    0.0592 N   0  0  0  0  0  2  0  0  0  0  0  0
   -0.6695    1.7023   -0.3716 C   0  0  1  0  0  0  0  0  0  0  0  0
   -1.4978    2.9318    0.0098 C   0  0  0  0  0  0  0  0  0  0  0  0
   -0.6991    4.2030   -0.3234 C   0  0  0  0  0  0  0  0  0  0  0  0
    0.6960    4.2035    0.3237 C   0  0  0  0  0  0  0  0  0  0  0  0
    1.4957    2.9331   -0.0096 C   0  0  0  0  0  0  0  0  0  0  0  0
    0.6685    1.7028    0.3717 C   0  0  2  0  0  0  0  0  0  0  0  0
   -4.0741    0.1255   -0.3368 C   0  0  0  0  0  0  0  0  0  0  0  0
   -4.2771   -0.0418    1.0639 C   0  0  0  0  0  0  0  0  0  0  0  0
   -5.5651    0.1967    1.5741 C   0  0  0  0  0  0  0  0  0  0  0  0
   -6.6419    0.5831    0.7605 C   0  0  0  0  0  0  0  0  0  0  0  0
   -6.4052    0.7127   -0.6161 C   0  0  0  0  0  0  0  0  0  0  0  0
   -5.1443    0.4904   -1.2042 C   0  0  0  0  0  0  0  0  0  0  0  0
   -5.0541    0.6454   -2.7036 C   0  0  0  0  0  0  0  0  0  0  0  0
   -7.9994    0.8613    1.3517 C   0  0  0  0  0  0  0  0  0  0  0  0
   -3.2001   -0.4500    2.0312 C   0  0  0  0  0  0  0  0  0  0  0  0
    4.0742    0.1265    0.3367 C   0  0  0  0  0  0  0  0  0  0  0  0
    4.2770   -0.0403   -1.0641 C   0  0  0  0  0  0  0  0  0  0  0  0
    5.5651    0.1979   -1.5741 C   0  0  0  0  0  0  0  0  0  0  0  0
    6.6422    0.5834   -0.7604 C   0  0  0  0  0  0  0  0  0  0  0  0
    6.4055    0.7125    0.6162 C   0  0  0  0  0  0  0  0  0  0  0  0
    5.1445    0.4904    1.2043 C   0  0  0  0  0  0  0  0  0  0  0  0
    5.0545    0.6448    2.7038 C   0  0  0  0  0  0  0  0  0  0  0  0
    7.9997    0.8611   -1.3515 C   0  0  0  0  0  0  0  0  0  0  0  0
    3.1998   -0.4476   -2.0316 C   0  0  0  0  0  0  0  0  0  0  0  0
   -0.4490    1.7661   -1.4647 H   0  0  0  0  0  0  0  0  0  0  0  0
   -2.4638    2.9214   -0.5367 H   0  0  0  0  0  0  0  0  0  0  0  0
   -1.7368    2.8889    1.0949 H   0  0  0  0  0  0  0  0  0  0  0  0
   -1.2659    5.1046   -0.0116 H   0  0  0  0  0  0  0  0  0  0  0  0
   -0.5867    4.2733   -1.4283 H   0  0  0  0  0  0  0  0  0  0  0  0
    1.2620    5.1056    0.0119 H   0  0  0  0  0  0  0  0  0  0  0  0
    0.5835    4.2737    1.4286 H   0  0  0  0  0  0  0  0  0  0  0  0
    1.7348    2.8905   -1.0948 H   0  0  0  0  0  0  0  0  0  0  0  0
    2.4618    2.9234    0.5369 H   0  0  0  0  0  0  0  0  0  0  0  0
    0.4479    1.7664    1.4647 H   0  0  0  0  0  0  0  0  0  0  0  0
   -5.7249    0.0663    2.6565 H   0  0  0  0  0  0  0  0  0  0  0  0
   -7.2403    0.9906   -1.2787 H   0  0  0  0  0  0  0  0  0  0  0  0
   -4.6203   -0.2476   -3.1911 H   0  0  0  0  0  0  0  0  0  0  0  0
   -4.3931    1.4856   -2.9893 H   0  0  0  0  0  0  0  0  0  0  0  0
   -6.0644    0.8262   -3.1174 H   0  0  0  0  0  0  0  0  0  0  0  0
   -8.0284    1.8717    1.8133 H   0  0  0  0  0  0  0  0  0  0  0  0
   -8.2513    0.1356    2.1506 H   0  0  0  0  0  0  0  0  0  0  0  0
   -8.7964    0.8257    0.5839 H   0  0  0  0  0  0  0  0  0  0  0  0
   -2.5034    0.3892    2.2295 H   0  0  0  0  0  0  0  0  0  0  0  0
   -2.5632   -1.2658    1.6376 H   0  0  0  0  0  0  0  0  0  0  0  0
   -3.6519   -0.7656    2.9908 H   0  0  0  0  0  0  0  0  0  0  0  0
    5.7249    0.0679   -2.6566 H   0  0  0  0  0  0  0  0  0  0  0  0
    7.2408    0.9897    1.2790 H   0  0  0  0  0  0  0  0  0  0  0  0
    4.6201   -0.2482    3.1908 H   0  0  0  0  0  0  0  0  0  0  0  0
    4.3940    1.4853    2.9898 H   0  0  0  0  0  0  0  0  0  0  0  0
    6.0649    0.8248    3.1177 H   0  0  0  0  0  0  0  0  0  0  0  0
    8.0283    1.8702   -1.8160 H   0  0  0  0  0  0  0  0  0  0  0  0
    8.2526    0.1333   -2.1484 H   0  0  0  0  0  0  0  0  0  0  0  0
    8.7963    0.8281   -0.5833 H   0  0  0  0  0  0  0  0  0  0  0  0
    2.5034    0.3919   -2.2294 H   0  0  0  0  0  0  0  0  0  0  0  0
    2.5628   -1.2635   -1.6385 H   0  0  0  0  0  0  0  0  0  0  0  0
    3.6516   -0.7628   -2.9914 H   0  0  0  0  0  0  0  0  0  0  0  0
  1  3  1  0  0  0  0
  1 15  1  0  0  0  0
  1  7  1  0  0  0  0
  2  6  1  0  0  0  0
  4  1  1  0  0  0  0
  5  2  1  0  0  0  0
  8 14  1  0  0  0  0
  8  2  1  0  0  0  0
  9 33  1  6  0  0  0
  9  7  1  0  0  0  0
  9 10  1  0  0  0  0
  9 14  1  0  0  0  0
 10 35  1  0  0  0  0
 11 36  1  0  0  0  0
 11 10  1  0  0  0  0
 11 12  1  0  0  0  0
 12 39  1  0  0  0  0
 13 12  1  0  0  0  0
 13 14  1  0  0  0  0
 13 41  1  0  0  0  0
 14 42  1  1  0  0  0
 15 16  1  0  0  0  0
 16 17  2  0  0  0  0
 16 23  1  0  0  0  0
 17 43  1  0  0  0  0
 18 22  1  0  0  0  0
 18 17  1  0  0  0  0
 19 18  2  0  0  0  0
 20 19  1  0  0  0  0
 20 15  2  0  0  0  0
 21 20  1  0  0  0  0
 22 48  1  0  0  0  0
 22 49  1  0  0  0  0
 23 51  1  0  0  0  0
 23 53  1  0  0  0  0
 24  2  1  0  0  0  0
 24 29  1  0  0  0  0
 25 24  2  0  0  0  0
 26 25  1  0  0  0  0
 26 27  2  0  0  0  0
 27 28  1  0  0  0  0
 28 29  2  0  0  0  0
 28 55  1  0  0  0  0
 29 30  1  0  0  0  0
 30 57  1  0  0  0  0
 30 58  1  0  0  0  0
 30 56  1  0  0  0  0
 31 27  1  0  0  0  0
 31 61  1  0  0  0  0
 32 63  1  0  0  0  0
 32 25  1  0  0  0  0
 34 10  1  0  0  0  0
 37 11  1  0  0  0  0
 38 12  1  0  0  0  0
 40 13  1  0  0  0  0
 44 19  1  0  0  0  0
 45 21  1  0  0  0  0
 46 21  1  0  0  0  0
 47 21  1  0  0  0  0
 50 22  1  0  0  0  0
 52 23  1  0  0  0  0
 54 26  1  0  0  0  0
 59 31  1  0  0  0  0
 60 31  1  0  0  0  0
 62 32  1  0  0  0  0
 64 32  1  0  0  0  0
M  END
