3,5,7,8
 OpenBabel05122313063D

 46 48  0  0  0  0  0  0  0  0999 V2000
    7.2743   -0.7587   -0.0033 Br  0  0  0  0  0  0  0  0  0  0  0  0
   -7.2743   -0.7587   -0.0033 Br  0  0  0  0  0  0  0  0  0  0  0  0
    1.2309   -0.8104    0.0020 O   0  5  0  0  0  0  0  0  0  0  0  0
    2.5114   -3.0894    0.0033 O   0  0  0  0  0  0  0  0  0  0  0  0
   -1.2309   -0.8104    0.0024 O   0  5  0  0  0  0  0  0  0  0  0  0
   -2.5114   -3.0894    0.0027 O   0  0  0  0  0  0  0  0  0  0  0  0
    1.2736    1.9269    0.0005 N   0  0  0  0  0  2  0  0  0  0  0  0
   -1.2736    1.9269    0.0008 N   0  0  0  0  0  2  0  0  0  0  0  0
    0.7096    3.2212    0.0010 C   0  0  0  0  0  0  0  0  0  0  0  0
   -0.7096    3.2212    0.0012 C   0  0  0  0  0  0  0  0  0  0  0  0
   -1.4100    4.4442    0.0018 C   0  0  0  0  0  0  0  0  0  0  0  0
   -2.5082    4.4648    0.0022 H   0  0  0  0  0  0  0  0  0  0  0  0
   -0.7037    5.6521    0.0021 C   0  0  0  0  0  0  0  0  0  0  0  0
   -1.2558    6.6033    0.0027 H   0  0  0  0  0  0  0  0  0  0  0  0
    0.7037    5.6521    0.0019 C   0  0  0  0  0  0  0  0  0  0  0  0
    1.2558    6.6033    0.0022 H   0  0  0  0  0  0  0  0  0  0  0  0
    1.4100    4.4442    0.0013 C   0  0  0  0  0  0  0  0  0  0  0  0
    2.5082    4.4648    0.0014 H   0  0  0  0  0  0  0  0  0  0  0  0
    3.2644    0.4998   -0.0007 C   0  0  0  0  0  0  0  0  0  0  0  0
    2.5161   -0.7319    0.0010 C   0  0  0  0  0  0  0  0  0  0  0  0
    3.2748   -1.9730    0.0016 C   0  0  0  0  0  0  0  0  0  0  0  0
    4.6668   -1.9554    0.0002 C   0  0  0  0  0  0  0  0  0  0  0  0
    5.2413   -2.8899    0.0006 H   0  0  0  0  0  0  0  0  0  0  0  0
    5.3677   -0.7160   -0.0016 C   0  0  0  0  0  0  0  0  0  0  0  0
    4.6983    0.4891   -0.0021 C   0  0  0  0  0  3  0  0  0  0  0  0
    5.2478    1.4409   -0.0034 H   0  0  0  0  0  0  0  0  0  0  0  0
    2.5875    1.7450   -0.0008 C   0  0  0  0  0  0  0  0  0  0  0  0
    3.2291    2.6435   -0.0021 H   0  0  0  0  0  0  0  0  0  0  0  0
    3.1661   -4.3416    0.0042 C   0  0  0  0  0  0  0  0  0  0  0  0
    3.8017   -4.4767   -0.9004 H   0  0  0  0  0  0  0  0  0  0  0  0
    2.3716   -5.1102    0.0059 H   0  0  0  0  0  0  0  0  0  0  0  0
    3.8035   -4.4745    0.9079 H   0  0  0  0  0  0  0  0  0  0  0  0
   -3.2644    0.4998   -0.0002 C   0  0  0  0  0  0  0  0  0  0  0  0
   -2.5161   -0.7319    0.0012 C   0  0  0  0  0  0  0  0  0  0  0  0
   -3.2748   -1.9730    0.0013 C   0  0  0  0  0  0  0  0  0  0  0  0
   -4.6668   -1.9554   -0.0000 C   0  0  0  0  0  0  0  0  0  0  0  0
   -5.2413   -2.8899   -0.0000 H   0  0  0  0  0  0  0  0  0  0  0  0
   -5.3677   -0.7160   -0.0015 C   0  0  0  0  0  0  0  0  0  0  0  0
   -4.6983    0.4891   -0.0016 C   0  0  0  0  0  3  0  0  0  0  0  0
   -5.2478    1.4409   -0.0027 H   0  0  0  0  0  0  0  0  0  0  0  0
   -2.5875    1.7450   -0.0002 C   0  0  0  0  0  0  0  0  0  0  0  0
   -3.2291    2.6435   -0.0011 H   0  0  0  0  0  0  0  0  0  0  0  0
   -3.1661   -4.3416    0.0026 C   0  0  0  0  0  0  0  0  0  0  0  0
   -3.8034   -4.4753    0.9062 H   0  0  0  0  0  0  0  0  0  0  0  0
   -2.3716   -5.1102    0.0035 H   0  0  0  0  0  0  0  0  0  0  0  0
   -3.8018   -4.4759   -0.9021 H   0  0  0  0  0  0  0  0  0  0  0  0
  1 24  1  0  0  0  0
  2 38  1  0  0  0  0
  4 29  1  0  0  0  0
  7  9  1  0  0  0  0
  8 10  1  0  0  0  0
  9 10  2  0  0  0  0
  9 17  1  0  0  0  0
 10 11  1  0  0  0  0
 11 13  2  0  0  0  0
 11 12  1  0  0  0  0
 13 14  1  0  0  0  0
 15 13  1  0  0  0  0
 15 16  1  0  0  0  0
 17 18  1  0  0  0  0
 17 15  2  0  0  0  0
 19 20  1  0  0  0  0
 20 21  2  0  0  0  0
 20  3  1  0  0  0  0
 21  4  1  0  0  0  0
 22 23  1  0  0  0  0
 22 21  1  0  0  0  0
 24 22  2  0  0  0  0
 25 24  1  0  0  0  0
 25 19  1  0  0  0  0
 26 25  1  0  0  0  0
 27 19  2  0  0  0  0
 27  7  1  0  0  0  0
 28 27  1  0  0  0  0
 29 31  1  0  0  0  0
 29 32  1  0  0  0  0
 30 29  1  0  0  0  0
 33 41  2  0  0  0  0
 33 34  1  0  0  0  0
 34 35  2  0  0  0  0
 34  5  1  0  0  0  0
 35  6  1  0  0  0  0
 36 37  1  0  0  0  0
 36 35  1  0  0  0  0
 38 36  2  0  0  0  0
 39 38  1  0  0  0  0
 39 33  1  0  0  0  0
 40 39  1  0  0  0  0
 41  8  1  0  0  0  0
 42 41  1  0  0  0  0
 43  6  1  0  0  0  0
 43 45  1  0  0  0  0
 43 44  1  0  0  0  0
 46 43  1  0  0  0  0
M  CHG  2   3  -1   5  -1
M  END
