3,4,5,6
 OpenBabel05122313063D

 37 38  0  0  1  0  0  0  0  0999 V2000
   -7.0302   -0.3620   -0.8208 F   0  0  0  0  0  0  0  0  0  0  0  0
    6.7880   -0.7609   -0.6678 F   0  0  0  0  0  0  0  0  0  0  0  0
   -1.3122    1.5352   -0.3377 N   0  0  0  0  0  2  0  0  0  0  0  0
    1.2901    1.5210    0.3387 N   0  0  0  0  0  2  0  0  0  0  0  0
   -1.7133   -1.2381    0.3253 O   0  5  0  0  0  0  0  0  0  0  0  0
    1.2965   -1.2279   -0.5855 O   0  5  0  0  0  0  0  0  0  0  0  0
   -3.4437    0.3263   -0.3834 C   0  0  0  0  0  0  0  0  0  0  0  0
   -2.9561   -0.9759    0.0376 C   0  0  0  0  0  0  0  0  0  0  0  0
   -3.9306   -2.0206    0.1516 C   0  0  0  0  0  0  0  0  0  0  0  0
   -3.5629   -3.0070    0.4696 H   0  0  0  0  0  0  0  0  0  0  0  0
   -5.2749   -1.8188   -0.1349 C   0  0  0  0  0  0  0  0  0  0  0  0
   -6.0072   -2.6356   -0.0494 H   0  0  0  0  0  0  0  0  0  0  0  0
   -5.7197   -0.5443   -0.5467 C   0  0  0  0  0  0  0  0  0  0  0  0
   -4.8301    0.5085   -0.6645 C   0  0  0  0  0  0  0  0  0  0  0  0
   -5.2025    1.4952   -0.9800 H   0  0  0  0  0  0  0  0  0  0  0  0
   -2.6049    1.4912   -0.4965 C   0  0  0  0  0  3  0  0  0  0  0  0
   -3.1399    2.4385   -0.7409 H   0  0  0  0  0  0  0  0  0  0  0  0
   -0.5919    2.7893   -0.4415 C   0  0  0  0  0  0  0  0  0  0  0  0
   -0.1744    2.8938   -1.4703 H   0  0  0  0  0  0  0  0  0  0  0  0
   -1.2501    3.6674   -0.2532 H   0  0  0  0  0  0  0  0  0  0  0  0
    0.6037    2.7901    0.5484 C   0  0  2  0  0  0  0  0  0  0  0  0
    0.1646    2.7466    1.5734 H   0  0  0  0  0  0  0  0  0  0  0  0
    1.4394    4.0590    0.4196 C   0  0  0  0  0  0  0  0  0  0  0  0
    1.8919    4.1469   -0.5898 H   0  0  0  0  0  0  0  0  0  0  0  0
    2.2552    4.0922    1.1683 H   0  0  0  0  0  0  0  0  0  0  0  0
    0.8025    4.9500    0.5861 H   0  0  0  0  0  0  0  0  0  0  0  0
    2.5725    1.4048    0.1495 C   0  0  0  0  0  3  0  0  0  0  0  0
    3.2260    2.2994    0.2483 H   0  0  0  0  0  0  0  0  0  0  0  0
    3.2612    0.1882   -0.2083 C   0  0  0  0  0  0  0  0  0  0  0  0
    2.5832   -1.0441   -0.5850 C   0  0  0  0  0  0  0  0  0  0  0  0
    3.4239   -2.1329   -0.9968 C   0  0  0  0  0  0  0  0  0  0  0  0
    2.9124   -3.0604   -1.2930 H   0  0  0  0  0  0  0  0  0  0  0  0
    4.8092   -2.0430   -1.0177 C   0  0  0  0  0  0  0  0  0  0  0  0
    5.4335   -2.8944   -1.3281 H   0  0  0  0  0  0  0  0  0  0  0  0
    5.4380   -0.8373   -0.6394 C   0  0  0  0  0  0  0  0  0  0  0  0
    4.6855    0.2568   -0.2532 C   0  0  0  0  0  0  0  0  0  0  0  0
    5.1983    1.1912    0.0229 H   0  0  0  0  0  0  0  0  0  0  0  0
  1 13  1  0  0  0  0
  2 35  1  0  0  0  0
  4 21  1  0  0  0  0
  6 30  1  0  0  0  0
  7  8  1  0  0  0  0
  8  9  2  0  0  0  0
  8  5  1  0  0  0  0
  9 10  1  0  0  0  0
 11 12  1  0  0  0  0
 11  9  1  0  0  0  0
 13 11  2  0  0  0  0
 14 13  1  0  0  0  0
 14  7  2  0  0  0  0
 15 14  1  0  0  0  0
 16  7  1  0  0  0  0
 16  3  1  0  0  0  0
 17 16  1  0  0  0  0
 18  3  1  0  0  0  0
 18 20  1  0  0  0  0
 18 21  1  0  0  0  0
 19 18  1  0  0  0  0
 21 22  1  1  0  0  0
 23 21  1  0  0  0  0
 23 26  1  0  0  0  0
 23 25  1  0  0  0  0
 24 23  1  0  0  0  0
 27 28  1  0  0  0  0
 27  4  1  0  0  0  0
 29 27  1  0  0  0  0
 30 29  2  0  0  0  0
 31 30  1  0  0  0  0
 32 31  1  0  0  0  0
 33 31  2  0  0  0  0
 33 35  1  0  0  0  0
 34 33  1  0  0  0  0
 35 36  2  0  0  0  0
 36 29  1  0  0  0  0
 36 37  1  0  0  0  0
M  CHG  2   5  -1   6  -1
M  END
