1,4,5,6
 OpenBabel05122313063D

 48 49  0  0  0  0  0  0  0  0999 V2000
   -1.2386    1.8882    0.6228 O   0  5  0  0  0  0  0  0  0  0  0  0
   -1.1337   -3.0983   -1.4281 O   0  0  0  0  0  0  0  0  0  0  0  0
   -0.5833   -2.2933    1.4282 O   0  0  0  0  0  0  0  0  0  0  0  0
    1.8899    1.3944   -0.9234 O   0  5  0  0  0  0  0  0  0  0  0  0
   -0.7725   -0.1944   -1.4105 N   0  0  0  0  0  2  0  0  0  0  0  0
    1.1749   -0.0371    1.5538 N   0  0  0  0  0  2  0  0  0  0  0  0
   -2.4782    1.7318    0.2538 C   0  0  0  0  0  0  0  0  0  0  0  0
   -3.4808    2.5455    0.8739 C   0  0  0  0  0  0  0  0  0  0  0  0
   -3.1271    3.2717    1.6206 H   0  0  0  0  0  0  0  0  0  0  0  0
   -4.8290    2.4238    0.5622 C   0  0  0  0  0  0  0  0  0  0  0  0
   -5.5618    3.0690    1.0725 H   0  0  0  0  0  0  0  0  0  0  0  0
   -5.2729    1.4862   -0.4026 C   0  0  0  0  0  0  0  0  0  0  0  0
   -6.3409    1.3964   -0.6474 H   0  0  0  0  0  0  0  0  0  0  0  0
   -4.3299    0.6914   -1.0394 C   0  0  0  0  0  0  0  0  0  0  0  0
   -4.6489   -0.0364   -1.8038 H   0  0  0  0  0  0  0  0  0  0  0  0
   -2.9369    0.7771   -0.7445 C   0  0  0  0  0  0  0  0  0  0  0  0
   -2.0699   -0.0808   -1.5130 C   0  0  0  0  0  3  0  0  0  0  0  0
   -2.5782   -0.6977   -2.2861 H   0  0  0  0  0  0  0  0  0  0  0  0
   -0.0694   -1.1331   -2.2708 C   0  0  0  0  0  0  0  0  0  0  0  0
    0.9192   -0.6996   -2.5288 H   0  0  0  0  0  0  0  0  0  0  0  0
   -0.6322   -1.3053   -3.2157 H   0  0  0  0  0  0  0  0  0  0  0  0
    0.1358   -2.4756   -1.5707 C   0  0  0  0  0  0  0  0  0  0  0  0
    0.8145   -3.1100   -2.1907 H   0  0  0  0  0  0  0  0  0  0  0  0
    0.6160   -2.3062   -0.5838 H   0  0  0  0  0  0  0  0  0  0  0  0
   -1.3408   -3.8451   -0.2442 C   0  0  0  0  0  0  0  0  0  0  0  0
   -0.4492   -4.4651    0.0137 H   0  0  0  0  0  0  0  0  0  0  0  0
   -2.1796   -4.5411   -0.4565 H   0  0  0  0  0  0  0  0  0  0  0  0
   -1.7234   -2.9870    0.9535 C   0  0  0  0  0  0  0  0  0  0  0  0
   -2.5181   -2.2679    0.6394 H   0  0  0  0  0  0  0  0  0  0  0  0
   -2.1570   -3.6338    1.7587 H   0  0  0  0  0  0  0  0  0  0  0  0
   -0.8952   -1.1899    2.2515 C   0  0  0  0  0  0  0  0  0  0  0  0
   -1.4651   -1.5047    3.1606 H   0  0  0  0  0  0  0  0  0  0  0  0
   -1.5349   -0.4573    1.7025 H   0  0  0  0  0  0  0  0  0  0  0  0
    0.3954   -0.5137    2.6871 C   0  0  0  0  0  0  0  0  0  0  0  0
    0.1140    0.3539    3.3252 H   0  0  0  0  0  0  0  0  0  0  0  0
    1.0009   -1.2102    3.3109 H   0  0  0  0  0  0  0  0  0  0  0  0
    2.4743   -0.1871    1.5691 C   0  0  0  0  0  3  0  0  0  0  0  0
    2.9121   -0.7285    2.4387 H   0  0  0  0  0  0  0  0  0  0  0  0
    3.4335    0.2778    0.6041 C   0  0  0  0  0  0  0  0  0  0  0  0
    4.8000   -0.0402    0.8660 C   0  0  0  0  0  0  0  0  0  0  0  0
    5.0267   -0.6369    1.7653 H   0  0  0  0  0  0  0  0  0  0  0  0
    5.8288    0.3795    0.0358 C   0  0  0  0  0  0  0  0  0  0  0  0
    6.8733    0.1205    0.2601 H   0  0  0  0  0  0  0  0  0  0  0  0
    5.5063    1.1568   -1.1053 C   0  0  0  0  0  0  0  0  0  0  0  0
    6.3116    1.5034   -1.7725 H   0  0  0  0  0  0  0  0  0  0  0  0
    4.1906    1.4909   -1.3961 C   0  0  0  0  0  0  0  0  0  0  0  0
    3.9321    2.0939   -2.2790 H   0  0  0  0  0  0  0  0  0  0  0  0
    3.0969    1.0647   -0.5734 C   0  0  0  0  0  0  0  0  0  0  0  0
  2 25  1  0  0  0  0
  3 31  1  0  0  0  0
  4 48  1  0  0  0  0
  6 37  1  0  0  0  0
  6 34  1  0  0  0  0
  7  1  1  0  0  0  0
  7  8  1  0  0  0  0
  8  9  1  0  0  0  0
 10  8  2  0  0  0  0
 10 11  1  0  0  0  0
 12 10  1  0  0  0  0
 13 12  1  0  0  0  0
 14 16  1  0  0  0  0
 14 12  2  0  0  0  0
 15 14  1  0  0  0  0
 16  7  2  0  0  0  0
 17  5  1  0  0  0  0
 17 16  1  0  0  0  0
 18 17  1  0  0  0  0
 19 22  1  0  0  0  0
 19  5  1  0  0  0  0
 20 19  1  0  0  0  0
 21 19  1  0  0  0  0
 22  2  1  0  0  0  0
 22 24  1  0  0  0  0
 23 22  1  0  0  0  0
 25 26  1  0  0  0  0
 25 28  1  0  0  0  0
 27 25  1  0  0  0  0
 28  3  1  0  0  0  0
 28 30  1  0  0  0  0
 29 28  1  0  0  0  0
 31 34  1  0  0  0  0
 31 32  1  0  0  0  0
 33 31  1  0  0  0  0
 34 36  1  0  0  0  0
 34 35  1  0  0  0  0
 37 38  1  0  0  0  0
 39 40  1  0  0  0  0
 39 37  1  0  0  0  0
 40 41  1  0  0  0  0
 42 43  1  0  0  0  0
 42 40  2  0  0  0  0
 44 42  1  0  0  0  0
 45 44  1  0  0  0  0
 46 44  2  0  0  0  0
 46 48  1  0  0  0  0
 47 46  1  0  0  0  0
 48 39  2  0  0  0  0
M  CHG  2   1  -1   4  -1
M  END
