1,2,3,19
 OpenBabel05122313063D

 43 44  0  0  1  0  0  0  0  0999 V2000
    1.2466   -0.8319   -1.2992 O   0  0  0  0  0  1  0  0  0  0  0  0
   -1.2474   -0.8312   -1.3006 O   0  0  0  0  0  1  0  0  0  0  0  0
   -1.3979    1.4974   -0.0542 N   0  0  0  0  0  2  0  0  0  0  0  0
    2.2243   -1.2214   -0.5410 C   0  0  1  0  0  3  0  0  0  0  0  0
    2.7608   -2.5338   -0.7398 C   0  0  0  0  0  0  0  0  0  0  0  0
    2.3112   -3.1329   -1.5446 H   0  0  0  0  0  0  0  0  0  0  0  0
    3.7577   -3.0394    0.0832 C   0  0  0  0  0  0  0  0  0  0  0  0
    4.1194   -4.0681   -0.0731 H   0  0  0  0  0  0  0  0  0  0  0  0
    4.2983   -2.2552    1.1315 C   0  0  0  0  0  0  0  0  0  0  0  0
    5.0664   -2.6693    1.8004 H   0  0  0  0  0  0  0  0  0  0  0  0
    3.8503   -0.9502    1.3003 C   0  0  0  0  0  0  0  0  0  0  0  0
    4.2804   -0.3453    2.1124 H   0  0  0  0  0  0  0  0  0  0  0  0
    2.8357   -0.3878    0.4744 C   0  0  0  0  0  0  0  0  0  0  0  0
    2.5047    1.0245    0.5046 C   0  0  0  0  0  0  0  0  0  0  0  0
    3.4931    2.0015    1.0956 C   0  0  0  0  0  0  0  0  0  0  0  0
    3.0170    2.6559    1.8545 H   0  0  0  0  0  0  0  0  0  0  0  0
    3.8900    2.6725    0.3045 H   0  0  0  0  0  0  0  0  0  0  0  0
    4.3559    1.4943    1.5545 H   0  0  0  0  0  0  0  0  0  0  0  0
    1.3968    1.4975   -0.0535 N   0  0  0  0  0  2  0  0  0  0  0  0
    1.2595    2.9473   -0.1950 C   0  0  0  0  0  0  0  0  0  0  0  0
    2.1491    3.3563   -0.7238 H   0  0  0  0  0  0  0  0  0  0  0  0
    1.2423    3.4383    0.8066 H   0  0  0  0  0  0  0  0  0  0  0  0
   -0.0006    3.3280   -0.9545 C   0  0  0  0  0  0  0  0  0  0  0  0
   -0.0006    4.4264   -1.1139 H   0  0  0  0  0  0  0  0  0  0  0  0
    0.0002    2.8504   -1.9575 H   0  0  0  0  0  0  0  0  0  0  0  0
   -1.2616    2.9471   -0.1967 C   0  0  0  0  0  0  0  0  0  0  0  0
   -1.2464    3.4390    0.8044 H   0  0  0  0  0  0  0  0  0  0  0  0
   -2.1508    3.3549   -0.7273 H   0  0  0  0  0  0  0  0  0  0  0  0
   -3.4948    2.0001    1.0945 C   0  0  0  0  0  0  0  0  0  0  0  0
   -3.8923    2.6702    0.3029 H   0  0  0  0  0  0  0  0  0  0  0  0
   -3.0195    2.6554    1.8531 H   0  0  0  0  0  0  0  0  0  0  0  0
   -4.3572    1.4922    1.5536 H   0  0  0  0  0  0  0  0  0  0  0  0
   -2.5054    1.0237    0.5042 C   0  0  0  0  0  0  0  0  0  0  0  0
   -2.8352   -0.3888    0.4745 C   0  0  0  0  0  0  0  0  0  0  0  0
   -3.8486   -0.9519    1.3014 C   0  0  0  0  0  0  0  0  0  0  0  0
   -4.2786   -0.3473    2.1137 H   0  0  0  0  0  0  0  0  0  0  0  0
   -4.2956   -2.2574    1.1332 C   0  0  0  0  0  0  0  0  0  0  0  0
   -5.0627   -2.6721    1.8027 H   0  0  0  0  0  0  0  0  0  0  0  0
   -3.7551   -3.0412    0.0844 C   0  0  0  0  0  0  0  0  0  0  0  0
   -4.1159   -4.0702   -0.0714 H   0  0  0  0  0  0  0  0  0  0  0  0
   -2.7594   -2.5348   -0.7395 C   0  0  0  0  0  0  0  0  0  0  0  0
   -2.3100   -3.1336   -1.5447 H   0  0  0  0  0  0  0  0  0  0  0  0
   -2.2239   -1.2219   -0.5413 C   0  0  1  0  0  3  0  0  0  0  0  0
  3 33  1  0  0  0  0
  4  1  1  6  0  0  0
  4 13  1  0  0  0  0
  5  4  1  0  0  0  0
  5  7  2  0  0  0  0
  6  5  1  0  0  0  0
  7  9  1  0  0  0  0
  8  7  1  0  0  0  0
  9 11  2  0  0  0  0
  9 10  1  0  0  0  0
 11 12  1  0  0  0  0
 13 14  2  0  0  0  0
 13 11  1  0  0  0  0
 14 15  1  0  0  0  0
 15 18  1  0  0  0  0
 15 16  1  0  0  0  0
 17 15  1  0  0  0  0
 19 14  1  0  0  0  0
 20 19  1  0  0  0  0
 20 22  1  0  0  0  0
 21 20  1  0  0  0  0
 23 26  1  0  0  0  0
 23 20  1  0  0  0  0
 24 23  1  0  0  0  0
 25 23  1  0  0  0  0
 26  3  1  0  0  0  0
 26 27  1  0  0  0  0
 28 26  1  0  0  0  0
 29 32  1  0  0  0  0
 29 31  1  0  0  0  0
 30 29  1  0  0  0  0
 33 29  1  0  0  0  0
 34 33  2  0  0  0  0
 34 35  1  0  0  0  0
 35 36  1  0  0  0  0
 37 35  2  0  0  0  0
 37 38  1  0  0  0  0
 39 37  1  0  0  0  0
 40 39  1  0  0  0  0
 41 43  1  0  0  0  0
 41 39  2  0  0  0  0
 42 41  1  0  0  0  0
 43  2  1  6  0  0  0
 43 34  1  0  0  0  0
M  END
