2,3,5,6
 OpenBabel05122313063D

 38 39  0  0  1  0  0  0  0  0999 V2000
   -5.3000    1.7192   -0.4232 Cl  0  0  0  0  0  0  0  0  0  0  0  0
   -0.9236   -2.2245   -0.1208 O   0  5  0  0  0  0  0  0  0  0  0  0
    2.4087   -0.4682   -0.7894 O   0  5  0  0  0  0  0  0  0  0  0  0
    3.0321    3.6761   -0.9423 O   0  0  0  0  0  0  0  0  0  0  0  0
    0.8341   -0.6995    1.4325 N   0  0  0  0  0  2  0  0  0  0  0  0
   -0.2797    0.2868   -0.8411 N   0  0  0  0  0  0  0  0  0  0  0  0
   -0.1509    0.6142   -1.8093 H   0  0  0  0  0  0  0  0  0  0  0  0
    1.0898   -1.3445    2.5884 C   0  0  0  0  0  3  0  0  0  0  0  0
    1.3290   -2.4152    2.4913 H   0  0  0  0  0  0  0  0  0  0  0  0
    1.0529   -0.6887    3.8225 C   0  0  0  0  0  0  0  0  0  0  0  0
    1.2618   -1.2451    4.7469 H   0  0  0  0  0  0  0  0  0  0  0  0
    0.7378    0.6797    3.8461 C   0  0  0  0  0  0  0  0  0  0  0  0
    0.6877    1.2253    4.8003 H   0  0  0  0  0  0  0  0  0  0  0  0
    0.4797    1.3422    2.6410 C   0  0  0  0  0  0  0  0  0  0  0  0
    0.2268    2.4120    2.6225 H   0  0  0  0  0  0  0  0  0  0  0  0
    0.5415    0.6174    1.4391 C   0  0  0  0  0  0  0  0  0  0  0  0
    0.3528    1.2734    0.0804 C   0  0  1  0  0  0  0  0  0  0  0  0
   -0.3257    2.1361    0.2187 H   0  0  0  0  0  0  0  0  0  0  0  0
   -1.6692   -0.0118   -0.5631 C   0  0  0  0  0  0  0  0  0  0  0  0
   -1.9326   -1.3518   -0.1857 C   0  0  0  0  0  0  0  0  0  0  0  0
   -3.2605   -1.7230    0.1223 C   0  0  0  0  0  0  0  0  0  0  0  0
   -3.4645   -2.7634    0.4115 H   0  0  0  0  0  0  0  0  0  0  0  0
   -4.2890   -0.7783    0.0489 C   0  0  0  0  0  0  0  0  0  0  0  0
   -5.3245   -1.0631    0.2825 H   0  0  0  0  0  0  0  0  0  0  0  0
   -4.0079    0.5485   -0.3293 C   0  0  0  0  0  0  0  0  0  0  0  0
   -2.6953    0.9395   -0.6349 C   0  0  0  0  0  0  0  0  0  0  0  0
   -2.4861    1.9770   -0.9346 H   0  0  0  0  0  0  0  0  0  0  0  0
    4.0228    1.1591   -1.3331 C   0  0  0  0  0  0  0  0  0  0  0  0
    4.5597    0.2190   -1.5554 H   0  0  0  0  0  0  0  0  0  0  0  0
    4.5724    1.7643   -0.5869 H   0  0  0  0  0  0  0  0  0  0  0  0
    3.9696    1.8014   -2.2335 H   0  0  0  0  0  0  0  0  0  0  0  0
    2.6440    0.8255   -0.8400 C   0  0  0  0  0  0  0  0  0  0  0  0
    1.6809    1.7701   -0.4681 C   0  0  0  0  0  0  0  0  0  0  0  0
    1.9465    3.2184   -0.5724 C   0  0  0  0  0  0  0  0  0  0  0  0
    0.8219    4.1971   -0.2188 C   0  0  0  0  0  0  0  0  0  0  0  0
    1.1900    5.2167   -0.4300 H   0  0  0  0  0  0  0  0  0  0  0  0
    0.5408    4.1392    0.8535 H   0  0  0  0  0  0  0  0  0  0  0  0
   -0.0993    4.0168   -0.8118 H   0  0  0  0  0  0  0  0  0  0  0  0
  1 25  1  0  0  0  0
  4 34  2  0  0  0  0
  5 16  1  0  0  0  0
  5  8  1  0  0  0  0
  6 19  1  0  0  0  0
  6 17  1  0  0  0  0
  7  6  1  0  0  0  0
  8 10  1  0  0  0  0
  9  8  1  0  0  0  0
 10 12  2  0  0  0  0
 10 11  1  0  0  0  0
 12 13  1  0  0  0  0
 14 12  1  0  0  0  0
 15 14  1  0  0  0  0
 16 14  2  0  0  0  0
 17 18  1  1  0  0  0
 17 16  1  0  0  0  0
 19 20  1  0  0  0  0
 20  2  1  0  0  0  0
 20 21  2  0  0  0  0
 21 22  1  0  0  0  0
 23 21  1  0  0  0  0
 23 24  1  0  0  0  0
 25 23  2  0  0  0  0
 26 19  2  0  0  0  0
 26 25  1  0  0  0  0
 27 26  1  0  0  0  0
 28 32  1  0  0  0  0
 28 30  1  0  0  0  0
 29 28  1  0  0  0  0
 31 28  1  0  0  0  0
 32  3  1  0  0  0  0
 32 33  2  0  0  0  0
 33 17  1  0  0  0  0
 34 33  1  0  0  0  0
 34 35  1  0  0  0  0
 35 37  1  0  0  0  0
 36 35  1  0  0  0  0
 38 35  1  0  0  0  0
M  CHG  2   2  -1   3  -1
M  END
