1,2,4,5
 OpenBabel05122313063D

 38 39  0  0  1  0  0  0  0  0999 V2000
   -2.3181   -0.8706   -0.0952 O   0  5  0  0  0  0  0  0  0  0  0  0
    1.4130   -1.6069   -0.5051 O   0  5  0  0  0  0  0  0  0  0  0  0
    4.4497    1.2408   -1.0177 O   0  0  0  0  0  0  0  0  0  0  0  0
   -0.0557   -0.4718    1.5028 N   0  0  0  0  0  2  0  0  0  0  0  0
   -0.2458    0.5827   -0.9945 N   0  0  0  0  0  0  0  0  0  0  0  0
    0.0968    0.5972   -1.9658 H   0  0  0  0  0  0  0  0  0  0  0  0
   -0.2906   -0.9363    2.7461 C   0  0  0  0  0  3  0  0  0  0  0  0
   -0.7517   -1.9352    2.7994 H   0  0  0  0  0  0  0  0  0  0  0  0
    0.0347   -0.1933    3.8847 C   0  0  0  0  0  0  0  0  0  0  0  0
   -0.1745   -0.5992    4.8843 H   0  0  0  0  0  0  0  0  0  0  0  0
    0.6208    1.0718    3.7152 C   0  0  0  0  0  0  0  0  0  0  0  0
    0.8791    1.6894    4.5885 H   0  0  0  0  0  0  0  0  0  0  0  0
    0.8663    1.5432    2.4209 C   0  0  0  0  0  0  0  0  0  0  0  0
    1.3210    2.5297    2.2513 H   0  0  0  0  0  0  0  0  0  0  0  0
    0.5170    0.7364    1.3250 C   0  0  0  0  0  0  0  0  0  0  0  0
    0.8203    1.1338   -0.1111 C   0  0  1  0  0  0  0  0  0  0  0  0
    0.8047    2.2388   -0.1608 H   0  0  0  0  0  0  0  0  0  0  0  0
   -1.5369    1.2320   -0.8791 C   0  0  0  0  0  0  0  0  0  0  0  0
   -2.5812    0.4062   -0.3941 C   0  0  0  0  0  0  0  0  0  0  0  0
   -3.8716    0.9567   -0.2310 C   0  0  0  0  0  0  0  0  0  0  0  0
   -4.6767    0.3086    0.1428 H   0  0  0  0  0  0  0  0  0  0  0  0
   -4.0962    2.2998   -0.5563 C   0  0  0  0  0  0  0  0  0  0  0  0
   -5.1055    2.7210   -0.4328 H   0  0  0  0  0  0  0  0  0  0  0  0
   -3.0564    3.1150   -1.0419 C   0  0  0  0  0  0  0  0  0  0  0  0
   -3.2492    4.1659   -1.3013 H   0  0  0  0  0  0  0  0  0  0  0  0
   -1.7706    2.5762   -1.1995 C   0  0  0  0  0  0  0  0  0  0  0  0
   -0.9470    3.1987   -1.5848 H   0  0  0  0  0  0  0  0  0  0  0  0
    3.7055   -1.3892   -0.9996 C   0  0  0  0  0  0  0  0  0  0  0  0
    3.5631   -2.4843   -1.0446 H   0  0  0  0  0  0  0  0  0  0  0  0
    4.4800   -1.1188   -0.2565 H   0  0  0  0  0  0  0  0  0  0  0  0
    4.0926   -1.0051   -1.9633 H   0  0  0  0  0  0  0  0  0  0  0  0
    2.3921   -0.7429   -0.6624 C   0  0  0  0  0  0  0  0  0  0  0  0
    2.1959    0.6363   -0.5266 C   0  0  0  0  0  0  0  0  0  0  0  0
    3.2969    1.5931   -0.7482 C   0  0  0  0  0  0  0  0  0  0  0  0
    2.9949    3.0926   -0.6524 C   0  0  0  0  0  0  0  0  0  0  0  0
    2.6951    3.3922    0.3735 H   0  0  0  0  0  0  0  0  0  0  0  0
    2.1804    3.4056   -1.3389 H   0  0  0  0  0  0  0  0  0  0  0  0
    3.9188    3.6352   -0.9204 H   0  0  0  0  0  0  0  0  0  0  0  0
  3 34  2  0  0  0  0
  4  7  1  0  0  0  0
  5 18  1  0  0  0  0
  5 16  1  0  0  0  0
  6  5  1  0  0  0  0
  7  8  1  0  0  0  0
  7  9  1  0  0  0  0
  9 10  1  0  0  0  0
 11  9  2  0  0  0  0
 11 12  1  0  0  0  0
 13 11  1  0  0  0  0
 14 13  1  0  0  0  0
 15  4  1  0  0  0  0
 15 13  2  0  0  0  0
 16 17  1  6  0  0  0
 16 15  1  0  0  0  0
 18 19  1  0  0  0  0
 19 20  2  0  0  0  0
 19  1  1  0  0  0  0
 20 21  1  0  0  0  0
 22 23  1  0  0  0  0
 22 20  1  0  0  0  0
 24 22  2  0  0  0  0
 25 24  1  0  0  0  0
 26 24  1  0  0  0  0
 26 18  2  0  0  0  0
 27 26  1  0  0  0  0
 28 32  1  0  0  0  0
 28 30  1  0  0  0  0
 29 28  1  0  0  0  0
 31 28  1  0  0  0  0
 32 33  2  0  0  0  0
 32  2  1  0  0  0  0
 33 16  1  0  0  0  0
 34 35  1  0  0  0  0
 34 33  1  0  0  0  0
 35 36  1  0  0  0  0
 37 35  1  0  0  0  0
 38 35  1  0  0  0  0
M  CHG  2   1  -1   2  -1
M  END
