1,2,5,6
 OpenBabel05122313063D

 56 59  0  0  1  0  0  0  0  0999 V2000
    0.6843    2.3981    0.0581 O   0  5  0  0  0  0  0  0  0  0  0  0
    2.6346    0.8463   -0.0417 O   0  5  0  0  0  0  0  0  0  0  0  0
   -1.2744    6.6451    0.9294 O   0  0  0  0  0  0  0  0  0  0  0  0
    7.3160    0.0053   -0.0963 O   0  0  0  0  0  0  0  0  0  0  0  0
   -0.9923    0.3681   -0.6885 N   0  0  0  0  0  2  0  0  0  0  0  0
    0.9778   -1.2350   -0.5831 N   0  0  0  0  0  2  0  0  0  0  0  0
   -0.3830    3.1332    0.1040 C   0  0  0  0  0  0  0  0  0  0  0  0
   -0.2600    4.4969    0.5029 C   0  0  0  0  0  0  0  0  0  0  0  0
   -1.3690    5.3430    0.5540 C   0  0  0  0  0  0  0  0  0  0  0  0
   -2.6681    4.8718    0.2073 C   0  0  0  0  0  0  0  0  0  0  0  0
   -2.8124    3.5520   -0.1812 C   0  0  0  0  0  3  0  0  0  0  0  0
   -1.7063    2.6553   -0.2410 C   0  0  0  0  0  0  0  0  0  0  0  0
   -1.9121    1.3089   -0.6489 C   0  0  0  0  0  0  0  0  0  0  0  0
   -1.3040   -0.9641   -1.2472 C   0  0  1  0  0  0  0  0  0  0  0  0
   -0.3061   -1.9429   -0.5694 C   0  0  2  0  0  0  0  0  0  0  0  0
    2.0928   -1.9327   -0.6507 C   0  0  0  0  0  0  0  0  0  0  0  0
    3.4043   -1.4027   -0.5269 C   0  0  0  0  0  0  0  0  0  0  0  0
    4.5374   -2.2541   -0.6772 C   0  0  0  0  0  3  0  0  0  0  0  0
    5.8310   -1.7856   -0.5364 C   0  0  0  0  0  0  0  0  0  0  0  0
    6.0290   -0.4089   -0.2260 C   0  0  0  0  0  0  0  0  0  0  0  0
    4.9450    0.4553   -0.0656 C   0  0  0  0  0  0  0  0  0  0  0  0
    3.6013   -0.0012   -0.2098 C   0  0  0  0  0  0  0  0  0  0  0  0
   -2.7506   -1.4079   -1.1841 C   0  0  0  0  0  0  0  0  0  0  0  0
   -3.4998   -1.3508    0.0115 C   0  0  0  0  0  0  0  0  0  0  0  0
   -4.8202   -1.8184    0.0451 C   0  0  0  0  0  0  0  0  0  0  0  0
   -5.4123   -2.3571   -1.1092 C   0  0  0  0  0  0  0  0  0  0  0  0
   -4.6775   -2.4178   -2.3026 C   0  0  0  0  0  0  0  0  0  0  0  0
   -3.3579   -1.9407   -2.3372 C   0  0  0  0  0  0  0  0  0  0  0  0
   -0.7080   -2.3682    0.8346 C   0  0  0  0  0  0  0  0  0  0  0  0
   -0.4386   -1.5569    1.9542 C   0  0  0  0  0  0  0  0  0  0  0  0
   -0.8911   -1.9329    3.2271 C   0  0  0  0  0  0  0  0  0  0  0  0
   -1.6123   -3.1258    3.3989 C   0  0  0  0  0  0  0  0  0  0  0  0
   -1.8710   -3.9468    2.2903 C   0  0  0  0  0  0  0  0  0  0  0  0
   -1.4205   -3.5685    1.0172 C   0  0  0  0  0  0  0  0  0  0  0  0
    0.7472    4.8573    0.7646 H   0  0  0  0  0  0  0  0  0  0  0  0
   -0.3394    6.8348    1.1352 H   0  0  0  0  0  0  0  0  0  0  0  0
    7.3091    0.9578    0.1163 H   0  0  0  0  0  0  0  0  0  0  0  0
   -3.5175    5.5661    0.2566 H   0  0  0  0  0  0  0  0  0  0  0  0
   -3.8093    3.1689   -0.4528 H   0  0  0  0  0  0  0  0  0  0  0  0
   -2.9382    1.0314   -0.9551 H   0  0  0  0  0  0  0  0  0  0  0  0
   -1.0037   -0.9374   -2.3192 H   0  0  0  0  0  0  0  0  0  0  0  0
   -0.2442   -2.8551   -1.2018 H   0  0  0  0  0  0  0  0  0  0  0  0
    1.9973   -3.0267   -0.8021 H   0  0  0  0  0  0  0  0  0  0  0  0
    4.3649   -3.3169   -0.9116 H   0  0  0  0  0  0  0  0  0  0  0  0
    6.7075   -2.4371   -0.6517 H   0  0  0  0  0  0  0  0  0  0  0  0
    5.0925    1.5193    0.1769 H   0  0  0  0  0  0  0  0  0  0  0  0
   -3.0446   -0.9362    0.9224 H   0  0  0  0  0  0  0  0  0  0  0  0
   -5.3903   -1.7665    0.9850 H   0  0  0  0  0  0  0  0  0  0  0  0
   -6.4490   -2.7252   -1.0787 H   0  0  0  0  0  0  0  0  0  0  0  0
   -5.1344   -2.8317   -3.2143 H   0  0  0  0  0  0  0  0  0  0  0  0
   -2.7846   -1.9804   -3.2774 H   0  0  0  0  0  0  0  0  0  0  0  0
    0.1358   -0.6267    1.8182 H   0  0  0  0  0  0  0  0  0  0  0  0
   -0.6741   -1.2890    4.0929 H   0  0  0  0  0  0  0  0  0  0  0  0
   -1.9646   -3.4201    4.3993 H   0  0  0  0  0  0  0  0  0  0  0  0
   -2.4280   -4.8877    2.4161 H   0  0  0  0  0  0  0  0  0  0  0  0
   -1.6385   -4.2066    0.1461 H   0  0  0  0  0  0  0  0  0  0  0  0
  1  7  1  0  0  0  0
  3 36  1  0  0  0  0
  4 37  1  0  0  0  0
  5 13  1  0  0  0  0
  6 15  1  0  0  0  0
  7  8  2  0  0  0  0
  8  9  1  0  0  0  0
  8 35  1  0  0  0  0
  9  3  1  0  0  0  0
 10 38  1  0  0  0  0
 10  9  2  0  0  0  0
 11 10  1  0  0  0  0
 12 11  1  0  0  0  0
 12  7  1  0  0  0  0
 13 12  2  0  0  0  0
 14 41  1  6  0  0  0
 14 23  1  0  0  0  0
 14  5  1  0  0  0  0
 14 15  1  0  0  0  0
 15 42  1  6  0  0  0
 15 29  1  0  0  0  0
 16  6  1  0  0  0  0
 16 17  2  0  0  0  0
 17 22  1  0  0  0  0
 18 19  1  0  0  0  0
 18 17  1  0  0  0  0
 19 20  2  0  0  0  0
 20  4  1  0  0  0  0
 20 21  1  0  0  0  0
 21 46  1  0  0  0  0
 22 21  2  0  0  0  0
 22  2  1  0  0  0  0
 23 24  1  0  0  0  0
 24 25  2  0  0  0  0
 24 47  1  0  0  0  0
 25 48  1  0  0  0  0
 26 49  1  0  0  0  0
 26 25  1  0  0  0  0
 27 26  2  0  0  0  0
 28 27  1  0  0  0  0
 28 23  2  0  0  0  0
 29 34  2  0  0  0  0
 29 30  1  0  0  0  0
 30 31  2  0  0  0  0
 31 32  1  0  0  0  0
 31 53  1  0  0  0  0
 32 54  1  0  0  0  0
 33 55  1  0  0  0  0
 33 32  2  0  0  0  0
 34 33  1  0  0  0  0
 39 11  1  0  0  0  0
 40 13  1  0  0  0  0
 43 16  1  0  0  0  0
 44 18  1  0  0  0  0
 45 19  1  0  0  0  0
 50 27  1  0  0  0  0
 51 28  1  0  0  0  0
 52 30  1  0  0  0  0
 56 34  1  0  0  0  0
M  CHG  2   1  -1   2  -1
M  END
