47,48,49,50
 OpenBabel05122313063D

 50 52  0  0  1  0  0  0  0  0999 V2000
   -2.9146   -1.2094   -0.3549 C   0  0  0  0  0  0  0  0  0  0  0  0
   -2.0459   -2.1230    0.3477 C   0  0  0  0  0  0  0  0  0  0  0  0
   -2.5164   -3.4617    0.5438 C   0  0  0  0  0  0  0  0  0  0  0  0
   -1.8618   -4.1484    1.0992 H   0  0  0  0  0  0  0  0  0  0  0  0
   -3.7354   -3.8723    0.0196 C   0  0  0  0  0  0  0  0  0  0  0  0
   -4.0575   -4.9158    0.1648 H   0  0  0  0  0  0  0  0  0  0  0  0
   -4.5726   -2.9787   -0.6998 C   0  0  0  0  0  0  0  0  0  0  0  0
   -5.5344   -3.3235   -1.1057 H   0  0  0  0  0  0  0  0  0  0  0  0
   -4.1647   -1.6623   -0.8651 C   0  0  0  0  0  3  0  0  0  0  0  0
   -4.8107   -0.9407   -1.3917 H   0  0  0  0  0  0  0  0  0  0  0  0
   -2.5896    0.1785   -0.3900 C   0  0  0  0  0  0  0  0  0  0  0  0
   -3.4185    0.8303   -0.7261 H   0  0  0  0  0  0  0  0  0  0  0  0
   -1.5390    2.2747    0.0223 C   0  0  2  0  0  0  0  0  0  0  0  0
   -0.2003    2.8227    0.6267 C   0  0  0  0  0  0  0  0  0  0  0  0
    0.8027    2.4243   -0.4942 C   0  0  2  0  0  0  0  0  0  0  0  0
    1.6648    3.1237   -0.4790 H   0  0  0  0  0  0  0  0  0  0  0  0
    0.0080    2.5519   -1.8301 C   0  0  0  0  0  0  0  0  0  0  0  0
    0.4060    3.3746   -2.4555 H   0  0  0  0  0  0  0  0  0  0  0  0
    0.1330    1.6159   -2.4070 H   0  0  0  0  0  0  0  0  0  0  0  0
   -1.4660    2.7741   -1.4379 C   0  0  0  0  0  0  0  0  0  0  0  0
   -1.7480    3.8445   -1.4816 H   0  0  0  0  0  0  0  0  0  0  0  0
   -2.1758    2.2288   -2.0894 H   0  0  0  0  0  0  0  0  0  0  0  0
   -2.7752    2.7451    0.7960 C   0  0  0  0  0  0  0  0  0  0  0  0
   -2.7657    3.8452    0.9078 H   0  0  0  0  0  0  0  0  0  0  0  0
   -2.8040    2.2888    1.8050 H   0  0  0  0  0  0  0  0  0  0  0  0
   -3.7192    2.4856    0.2804 H   0  0  0  0  0  0  0  0  0  0  0  0
   -0.1881    4.3624    0.7206 C   0  0  0  0  0  0  0  0  0  0  0  0
    0.8024    4.6922    1.0932 H   0  0  0  0  0  0  0  0  0  0  0  0
   -0.9443    4.7378    1.4370 H   0  0  0  0  0  0  0  0  0  0  0  0
   -0.3570    4.8642   -0.2521 H   0  0  0  0  0  0  0  0  0  0  0  0
    0.1326    2.2674    2.0170 C   0  0  0  0  0  0  0  0  0  0  0  0
    0.0305    1.1651    2.0677 H   0  0  0  0  0  0  0  0  0  0  0  0
   -0.5405    2.7086    2.7795 H   0  0  0  0  0  0  0  0  0  0  0  0
    1.1742    2.5213    2.2994 H   0  0  0  0  0  0  0  0  0  0  0  0
    2.6269    0.9287   -0.4591 C   0  0  0  0  0  0  0  0  0  0  0  0
    3.1922    1.8382   -0.7458 H   0  0  0  0  0  0  0  0  0  0  0  0
    3.3949   -0.2609   -0.3091 C   0  0  0  0  0  0  0  0  0  0  0  0
    4.7950   -0.2441   -0.5701 C   0  0  0  0  0  3  0  0  0  0  0  0
    5.2563    0.7011   -0.9004 H   0  0  0  0  0  0  0  0  0  0  0  0
    5.5675   -1.3868   -0.4173 C   0  0  0  0  0  0  0  0  0  0  0  0
    6.6471   -1.3658   -0.6240 H   0  0  0  0  0  0  0  0  0  0  0  0
    4.9423   -2.5872    0.0124 C   0  0  0  0  0  0  0  0  0  0  0  0
    5.5486   -3.4985    0.1375 H   0  0  0  0  0  0  0  0  0  0  0  0
    3.5805   -2.6383    0.2801 C   0  0  0  0  0  0  0  0  0  0  0  0
    3.0890   -3.5627    0.6156 H   0  0  0  0  0  0  0  0  0  0  0  0
    2.7568   -1.4766    0.1296 C   0  0  0  0  0  0  0  0  0  0  0  0
   -1.4690    0.7676   -0.0196 N   0  0  0  0  0  2  0  0  0  0  0  0
    1.3264    1.0731   -0.2938 N   0  0  0  0  0  2  0  0  0  0  0  0
   -0.8967   -1.7689    0.8209 O   0  5  0  0  0  0  0  0  0  0  0  0
    1.4923   -1.5594    0.3989 O   0  5  0  0  0  0  0  0  0  0  0  0
  1  2  1  0  0  0  0
  2  3  2  0  0  0  0
  2 49  1  0  0  0  0
  3  4  1  0  0  0  0
  5  6  1  0  0  0  0
  5  3  1  0  0  0  0
  7  5  2  0  0  0  0
  8  7  1  0  0  0  0
  9  7  1  0  0  0  0
  9  1  1  0  0  0  0
 10  9  1  0  0  0  0
 11  1  2  0  0  0  0
 11 47  1  0  0  0  0
 12 11  1  0  0  0  0
 13 47  1  1  0  0  0
 13 14  1  0  0  0  0
 13 23  1  0  0  0  0
 14 27  1  0  0  0  0
 14 31  1  0  0  0  0
 15 16  1  6  0  0  0
 15 48  1  0  0  0  0
 15 14  1  0  0  0  0
 17 20  1  0  0  0  0
 17 15  1  0  0  0  0
 18 17  1  0  0  0  0
 19 17  1  0  0  0  0
 20 13  1  0  0  0  0
 21 20  1  0  0  0  0
 22 20  1  0  0  0  0
 23 24  1  0  0  0  0
 23 25  1  0  0  0  0
 26 23  1  0  0  0  0
 27 28  1  0  0  0  0
 27 29  1  0  0  0  0
 30 27  1  0  0  0  0
 31 32  1  0  0  0  0
 31 34  1  0  0  0  0
 31 33  1  0  0  0  0
 35 37  2  0  0  0  0
 35 48  1  0  0  0  0
 36 35  1  0  0  0  0
 37 46  1  0  0  0  0
 38 40  1  0  0  0  0
 38 37  1  0  0  0  0
 39 38  1  0  0  0  0
 40 42  2  0  0  0  0
 41 40  1  0  0  0  0
 42 43  1  0  0  0  0
 42 44  1  0  0  0  0
 44 45  1  0  0  0  0
 46 44  2  0  0  0  0
 46 50  1  0  0  0  0
M  CHG  2  49  -1  50  -1
M  END
