1,17,30,67
q = -2.0, confidence = 0.866

 67 68  0  0  1  0  0  0  0  0999 V2000
    2.1317    1.5362   -0.1376 O   0  0  0  0  0  1  0  0  0  0  0  0
    3.4313    1.5917   -0.0160 C   0  0  2  0  0  3  0  0  0  0  0  0
    3.9743    2.9048    0.1670 C   0  0  0  0  0  0  0  0  0  0  0  0
    3.2451    3.7275    0.1798 H   0  0  0  0  0  0  0  0  0  0  0  0
    5.3302    3.1286    0.3375 C   0  0  0  0  0  0  0  0  0  0  0  0
    5.6998    4.1552    0.4866 H   0  0  0  0  0  0  0  0  0  0  0  0
    6.2350    2.0404    0.3297 C   0  0  0  0  0  0  0  0  0  0  0  0
    7.3110    2.2024    0.4870 H   0  0  0  0  0  0  0  0  0  0  0  0
    5.7461    0.7591    0.1199 C   0  0  0  0  0  0  0  0  0  0  0  0
    6.4653   -0.0708    0.1295 H   0  0  0  0  0  0  0  0  0  0  0  0
    4.3575    0.4699   -0.0724 C   0  0  0  0  0  0  0  0  0  0  0  0
    3.9678   -0.9166   -0.3141 C   0  0  0  0  0  0  0  0  0  0  0  0
    5.0374   -1.9341   -0.6589 C   0  0  0  0  0  0  0  0  0  0  0  0
    5.3847   -2.4863    0.2406 H   0  0  0  0  0  0  0  0  0  0  0  0
    5.9170   -1.4505   -1.1144 H   0  0  0  0  0  0  0  0  0  0  0  0
    4.6643   -2.6789   -1.3852 H   0  0  0  0  0  0  0  0  0  0  0  0
    2.7093   -1.3268   -0.2539 N   0  0  0  0  0  2  0  0  0  0  0  0
    2.3201   -2.7229   -0.4981 C   0  0  0  0  0  0  0  0  0  0  0  0
    3.0981   -3.4324   -0.1565 H   0  0  0  0  0  0  0  0  0  0  0  0
    2.1779   -2.8695   -1.5925 H   0  0  0  0  0  0  0  0  0  0  0  0
    1.0002   -3.0627    0.2331 C   0  0  0  0  0  0  0  0  0  0  0  0
    1.2584   -3.2191    1.7443 C   0  0  0  0  0  0  0  0  0  0  0  0
    1.9317   -4.0785    1.9377 H   0  0  0  0  0  0  0  0  0  0  0  0
    0.3043   -3.3940    2.2793 H   0  0  0  0  0  0  0  0  0  0  0  0
    1.7200   -2.3004    2.1560 H   0  0  0  0  0  0  0  0  0  0  0  0
    0.4249   -4.3560   -0.3576 C   0  0  0  0  0  0  0  0  0  0  0  0
    0.1166   -4.2132   -1.4123 H   0  0  0  0  0  0  0  0  0  0  0  0
   -0.4461   -4.7216    0.2198 H   0  0  0  0  0  0  0  0  0  0  0  0
    1.1909   -5.1557   -0.3236 H   0  0  0  0  0  0  0  0  0  0  0  0
    0.1100   -1.8837    0.0351 N   0  0  0  0  0  2  0  0  0  0  0  0
   -1.1999   -1.9675    0.0720 C   0  0  0  0  0  0  0  0  0  0  0  0
   -1.6410   -2.9781    0.1461 H   0  0  0  0  0  0  0  0  0  0  0  0
   -2.1429   -0.8862    0.0309 C   0  0  0  0  0  0  0  0  0  0  0  0
   -3.5199   -1.2664    0.0212 C   0  0  0  0  0  0  0  0  0  0  0  0
   -3.7426   -2.3435    0.0346 H   0  0  0  0  0  0  0  0  0  0  0  0
   -4.5459   -0.3353   -0.0044 C   0  0  0  0  0  0  0  0  0  0  0  0
   -4.1630    1.0367   -0.0166 C   0  0  0  0  0  0  0  0  0  0  0  0
   -4.9654    1.7860   -0.0358 H   0  0  0  0  0  0  0  0  0  0  0  0
   -2.8474    1.4951   -0.0049 C   0  0  0  0  0  0  0  0  0  0  0  0
   -1.7808    0.5156    0.0189 C   0  0  1  0  0  3  0  0  0  0  0  0
   -6.0371   -0.7076   -0.0187 C   0  0  0  0  0  0  0  0  0  0  0  0
   -6.2495   -2.2307   -0.0005 C   0  0  0  0  0  0  0  0  0  0  0  0
   -5.7948   -2.7195   -0.8859 H   0  0  0  0  0  0  0  0  0  0  0  0
   -7.3338   -2.4619   -0.0118 H   0  0  0  0  0  0  0  0  0  0  0  0
   -5.8189   -2.6946    0.9101 H   0  0  0  0  0  0  0  0  0  0  0  0
   -6.6939   -0.1393   -1.2974 C   0  0  0  0  0  0  0  0  0  0  0  0
   -6.5985    0.9635   -1.3529 H   0  0  0  0  0  0  0  0  0  0  0  0
   -7.7763   -0.3845   -1.3231 H   0  0  0  0  0  0  0  0  0  0  0  0
   -6.2209   -0.5636   -2.2060 H   0  0  0  0  0  0  0  0  0  0  0  0
   -6.7276   -0.1044    1.2258 C   0  0  0  0  0  0  0  0  0  0  0  0
   -6.2790   -0.5030    2.1581 H   0  0  0  0  0  0  0  0  0  0  0  0
   -7.8103   -0.3494    1.2294 H   0  0  0  0  0  0  0  0  0  0  0  0
   -6.6335    0.9995    1.2532 H   0  0  0  0  0  0  0  0  0  0  0  0
   -2.5193    3.0016   -0.0171 C   0  0  0  0  0  0  0  0  0  0  0  0
   -3.7960    3.8624   -0.0485 C   0  0  0  0  0  0  0  0  0  0  0  0
   -4.4061    3.6745   -0.9558 H   0  0  0  0  0  0  0  0  0  0  0  0
   -3.5130    4.9341   -0.0561 H   0  0  0  0  0  0  0  0  0  0  0  0
   -4.4364    3.6956    0.8419 H   0  0  0  0  0  0  0  0  0  0  0  0
   -1.6862    3.3507   -1.2742 C   0  0  0  0  0  0  0  0  0  0  0  0
   -0.7212    2.8127   -1.2787 H   0  0  0  0  0  0  0  0  0  0  0  0
   -1.4787    4.4409   -1.2966 H   0  0  0  0  0  0  0  0  0  0  0  0
   -2.2435    3.0911   -2.1976 H   0  0  0  0  0  0  0  0  0  0  0  0
   -1.7297    3.3788    1.2597 C   0  0  0  0  0  0  0  0  0  0  0  0
   -2.3218    3.1471    2.1690 H   0  0  0  0  0  0  0  0  0  0  0  0
   -1.5144    4.4677    1.2613 H   0  0  0  0  0  0  0  0  0  0  0  0
   -0.7701    2.8337    1.3127 H   0  0  0  0  0  0  0  0  0  0  0  0
   -0.5501    0.9574    0.0380 O   0  0  0  0  0  1  0  0  0  0  0  0
  2  1  1  6  0  0  0
  2  3  1  0  0  0  0
  3  4  1  0  0  0  0
  3  5  2  0  0  0  0
  5  6  1  0  0  0  0
  7  5  1  0  0  0  0
  7  8  1  0  0  0  0
  9 10  1  0  0  0  0
  9  7  2  0  0  0  0
 11  2  1  0  0  0  0
 11  9  1  0  0  0  0
 12 17  1  0  0  0  0
 12 11  2  0  0  0  0
 13 12  1  0  0  0  0
 13 14  1  0  0  0  0
 15 13  1  0  0  0  0
 16 13  1  0  0  0  0
 18 17  1  0  0  0  0
 18 19  1  0  0  0  0
 18 21  1  0  0  0  0
 20 18  1  0  0  0  0
 21 22  1  0  0  0  0
 22 23  1  0  0  0  0
 22 25  1  0  0  0  0
 22 24  1  0  0  0  0
 26 29  1  0  0  0  0
 26 28  1  0  0  0  0
 26 21  1  0  0  0  0
 27 26  1  0  0  0  0
 30 31  1  0  0  0  0
 30 21  1  0  0  0  0
 31 32  1  0  0  0  0
 33 31  2  0  0  0  0
 34 33  1  0  0  0  0
 34 35  1  0  0  0  0
 36 34  2  0  0  0  0
 37 39  2  0  0  0  0
 37 36  1  0  0  0  0
 38 37  1  0  0  0  0
 39 40  1  0  0  0  0
 40 33  1  0  0  0  0
 40 67  1  1  0  0  0
 41 36  1  0  0  0  0
 41 42  1  0  0  0  0
 41 50  1  0  0  0  0
 42 45  1  0  0  0  0
 43 42  1  0  0  0  0
 44 42  1  0  0  0  0
 46 41  1  0  0  0  0
 47 46  1  0  0  0  0
 48 46  1  0  0  0  0
 49 46  1  0  0  0  0
 50 52  1  0  0  0  0
 50 53  1  0  0  0  0
 50 51  1  0  0  0  0
 54 39  1  0  0  0  0
 54 63  1  0  0  0  0
 55 54  1  0  0  0  0
 55 58  1  0  0  0  0
 56 55  1  0  0  0  0
 57 55  1  0  0  0  0
 59 54  1  0  0  0  0
 60 59  1  0  0  0  0
 61 59  1  0  0  0  0
 62 59  1  0  0  0  0
 63 65  1  0  0  0  0
 63 66  1  0  0  0  0
 63 64  1  0  0  0  0
M  END
