1,2,23,30
 OpenBabel05122313063D

 68 69  0  0  0  0  0  0  0  0999 V2000
    1.8323    0.5119    0.8630 O   0  5  0  0  0  0  0  0  0  0  0  0
   -1.8324   -0.5124    0.8625 O   0  5  0  0  0  0  0  0  0  0  0  0
    3.0379   -1.1230   -0.4311 C   0  0  0  0  0  0  0  0  0  0  0  0
    2.9616    0.1073    0.2699 C   0  0  0  0  0  0  0  0  0  0  0  0
    4.0839    0.9807    0.3508 C   0  0  0  0  0  0  0  0  0  0  0  0
    5.2668    0.5820   -0.2791 C   0  0  0  0  0  0  0  0  0  0  0  0
    6.1596    1.2201   -0.2405 H   0  0  0  0  0  0  0  0  0  0  0  0
    5.3454   -0.6368   -0.9706 C   0  0  0  0  0  0  0  0  0  0  0  0
    4.2464   -1.5171   -1.0677 C   0  0  0  0  0  0  0  0  0  0  0  0
    1.8351   -2.0377   -0.4668 C   0  0  0  0  0  0  0  0  0  0  0  0
    1.7281   -2.5685    0.5025 H   0  0  0  0  0  0  0  0  0  0  0  0
    1.9836   -2.8136   -1.2481 H   0  0  0  0  0  0  0  0  0  0  0  0
   -3.0377    1.1231   -0.4312 C   0  0  0  0  0  0  0  0  0  0  0  0
   -2.9616   -0.1074    0.2696 C   0  0  0  0  0  0  0  0  0  0  0  0
   -4.0840   -0.9806    0.3504 C   0  0  0  0  0  0  0  0  0  0  0  0
   -5.2670   -0.5814   -0.2793 C   0  0  0  0  0  0  0  0  0  0  0  0
   -6.1599   -1.2194   -0.2408 H   0  0  0  0  0  0  0  0  0  0  0  0
   -5.3453    0.6375   -0.9705 C   0  0  0  0  0  0  0  0  0  0  0  0
   -4.2462    1.5176   -1.0675 C   0  0  0  0  0  0  0  0  0  0  0  0
   -1.8347    2.0375   -0.4668 C   0  0  0  0  0  0  0  0  0  0  0  0
   -1.9831    2.8135   -1.2481 H   0  0  0  0  0  0  0  0  0  0  0  0
   -1.7277    2.5684    0.5025 H   0  0  0  0  0  0  0  0  0  0  0  0
    0.5218   -1.3747   -0.7187 N   0  0  0  0  0  0  0  0  0  0  0  0
    0.5634   -0.5134   -1.9193 C   0  0  0  0  0  0  0  0  0  0  0  0
    0.5052   -1.1286   -2.8478 H   0  0  0  0  0  0  0  0  0  0  0  0
    1.5486   -0.0073   -1.9376 H   0  0  0  0  0  0  0  0  0  0  0  0
   -0.5632    0.5130   -1.9192 C   0  0  0  0  0  0  0  0  0  0  0  0
   -0.5050    1.1282   -2.8477 H   0  0  0  0  0  0  0  0  0  0  0  0
   -1.5484    0.0069   -1.9374 H   0  0  0  0  0  0  0  0  0  0  0  0
   -0.5216    1.3743   -0.7187 N   0  0  0  0  0  0  0  0  0  0  0  0
    6.8838   -1.0278   -1.7251 Cl  0  0  0  0  0  0  0  0  0  0  0  0
   -6.8838    1.0290   -1.7247 Cl  0  0  0  0  0  0  0  0  0  0  0  0
    4.3536   -2.8298   -1.8036 C   0  0  0  0  0  0  0  0  0  0  0  0
    5.3636   -2.9544   -2.2316 H   0  0  0  0  0  0  0  0  0  0  0  0
    3.6238   -2.8955   -2.6377 H   0  0  0  0  0  0  0  0  0  0  0  0
    4.1617   -3.6931   -1.1336 H   0  0  0  0  0  0  0  0  0  0  0  0
    3.9653    2.2615    1.1606 C   0  0  0  0  0  0  0  0  0  0  0  0
    2.9517    2.6672    0.9514 H   0  0  0  0  0  0  0  0  0  0  0  0
    4.0096    1.9437    2.6685 C   0  0  0  0  0  0  0  0  0  0  0  0
    4.9936    1.5132    2.9475 H   0  0  0  0  0  0  0  0  0  0  0  0
    3.2205    1.2187    2.9459 H   0  0  0  0  0  0  0  0  0  0  0  0
    3.8539    2.8645    3.2671 H   0  0  0  0  0  0  0  0  0  0  0  0
    4.9990    3.3274    0.7859 C   0  0  0  0  0  0  0  0  0  0  0  0
    4.7918    4.2700    1.3308 H   0  0  0  0  0  0  0  0  0  0  0  0
    4.9904    3.5504   -0.3004 H   0  0  0  0  0  0  0  0  0  0  0  0
    6.0288    3.0165    1.0602 H   0  0  0  0  0  0  0  0  0  0  0  0
   -3.9656   -2.2616    1.1598 C   0  0  0  0  0  0  0  0  0  0  0  0
   -2.9522   -2.6674    0.9504 H   0  0  0  0  0  0  0  0  0  0  0  0
   -4.0098   -1.9443    2.6678 C   0  0  0  0  0  0  0  0  0  0  0  0
   -3.2205   -1.2195    2.9454 H   0  0  0  0  0  0  0  0  0  0  0  0
   -3.8542   -2.8653    3.2661 H   0  0  0  0  0  0  0  0  0  0  0  0
   -4.9937   -1.5137    2.9470 H   0  0  0  0  0  0  0  0  0  0  0  0
   -4.9996   -3.3272    0.7848 C   0  0  0  0  0  0  0  0  0  0  0  0
   -6.0293   -3.0163    1.0594 H   0  0  0  0  0  0  0  0  0  0  0  0
   -4.7925   -4.2701    1.3295 H   0  0  0  0  0  0  0  0  0  0  0  0
   -4.9910   -3.5499   -0.3015 H   0  0  0  0  0  0  0  0  0  0  0  0
   -4.3532    2.8305   -1.8030 C   0  0  0  0  0  0  0  0  0  0  0  0
   -4.1609    3.6936   -1.1329 H   0  0  0  0  0  0  0  0  0  0  0  0
   -5.3633    2.9555   -2.2308 H   0  0  0  0  0  0  0  0  0  0  0  0
   -3.6235    2.8962   -2.6373 H   0  0  0  0  0  0  0  0  0  0  0  0
   -0.4954   -2.4333   -0.8578 C   0  0  0  0  0  0  0  0  0  0  0  0
   -0.5733   -2.9914    0.0933 H   0  0  0  0  0  0  0  0  0  0  0  0
   -0.2139   -3.1375   -1.6750 H   0  0  0  0  0  0  0  0  0  0  0  0
   -1.4851   -1.9988   -1.0800 H   0  0  0  0  0  0  0  0  0  0  0  0
    0.4958    2.4327   -0.8577 C   0  0  0  0  0  0  0  0  0  0  0  0
    0.5738    2.9910    0.0934 H   0  0  0  0  0  0  0  0  0  0  0  0
    0.2145    3.1370   -1.6749 H   0  0  0  0  0  0  0  0  0  0  0  0
    1.4855    1.9982   -1.0798 H   0  0  0  0  0  0  0  0  0  0  0  0
  3  4  1  0  0  0  0
  4  5  2  0  0  0  0
  4  1  1  0  0  0  0
  5 37  1  0  0  0  0
  6  7  1  0  0  0  0
  6  5  1  0  0  0  0
  8  6  2  0  0  0  0
  9  8  1  0  0  0  0
  9  3  2  0  0  0  0
 10  3  1  0  0  0  0
 10 11  1  0  0  0  0
 12 10  1  0  0  0  0
 13 14  1  0  0  0  0
 14 15  2  0  0  0  0
 14  2  1  0  0  0  0
 15 47  1  0  0  0  0
 16 17  1  0  0  0  0
 16 15  1  0  0  0  0
 18 16  2  0  0  0  0
 19 18  1  0  0  0  0
 19 13  2  0  0  0  0
 20 13  1  0  0  0  0
 20 22  1  0  0  0  0
 21 20  1  0  0  0  0
 23 10  1  0  0  0  0
 24 27  1  0  0  0  0
 24 23  1  0  0  0  0
 25 24  1  0  0  0  0
 26 24  1  0  0  0  0
 27 30  1  0  0  0  0
 28 27  1  0  0  0  0
 29 27  1  0  0  0  0
 30 20  1  0  0  0  0
 31  8  1  0  0  0  0
 32 18  1  0  0  0  0
 33 36  1  0  0  0  0
 33  9  1  0  0  0  0
 34 33  1  0  0  0  0
 35 33  1  0  0  0  0
 37 39  1  0  0  0  0
 38 37  1  0  0  0  0
 39 41  1  0  0  0  0
 39 40  1  0  0  0  0
 39 42  1  0  0  0  0
 43 46  1  0  0  0  0
 43 37  1  0  0  0  0
 43 44  1  0  0  0  0
 45 43  1  0  0  0  0
 47 49  1  0  0  0  0
 48 47  1  0  0  0  0
 49 50  1  0  0  0  0
 49 52  1  0  0  0  0
 49 51  1  0  0  0  0
 53 54  1  0  0  0  0
 53 47  1  0  0  0  0
 53 55  1  0  0  0  0
 56 53  1  0  0  0  0
 57 58  1  0  0  0  0
 57 19  1  0  0  0  0
 59 57  1  0  0  0  0
 60 57  1  0  0  0  0
 61 23  1  0  0  0  0
 61 62  1  0  0  0  0
 63 61  1  0  0  0  0
 64 61  1  0  0  0  0
 65 30  1  0  0  0  0
 65 66  1  0  0  0  0
 67 65  1  0  0  0  0
 68 65  1  0  0  0  0
M  CHG  2   1  -1   2  -1
M  END
