1,2,25,32
 OpenBabel05122313063D

 65 66  0  0  1  0  0  0  0  0999 V2000
   -1.7061    0.6663   -0.8079 O   0  5  0  0  0  0  0  0  0  0  0  0
    1.7630   -0.8253   -0.4909 O   0  5  0  0  0  0  0  0  0  0  0  0
   -3.1421   -1.0255    0.1846 C   0  0  0  0  0  0  0  0  0  0  0  0
   -2.9161    0.2564   -0.3857 C   0  0  0  0  0  0  0  0  0  0  0  0
   -3.9818    1.1924   -0.5220 C   0  0  0  0  0  0  0  0  0  0  0  0
   -5.2585    0.8044   -0.1064 C   0  0  0  0  0  0  0  0  0  0  0  0
   -6.1094    1.4909   -0.2080 H   0  0  0  0  0  0  0  0  0  0  0  0
   -5.4855   -0.4673    0.4412 C   0  0  0  0  0  0  0  0  0  0  0  0
   -4.4468   -1.4071    0.6031 C   0  0  0  0  0  0  0  0  0  0  0  0
   -2.0003   -2.0097    0.3467 C   0  0  0  0  0  0  0  0  0  0  0  0
   -2.2726   -2.7694    1.1068 H   0  0  0  0  0  0  0  0  0  0  0  0
   -1.8156   -2.5498   -0.6052 H   0  0  0  0  0  0  0  0  0  0  0  0
    3.0297    1.0201    0.4743 C   0  0  0  0  0  0  0  0  0  0  0  0
    2.9332   -0.2745   -0.1005 C   0  0  0  0  0  0  0  0  0  0  0  0
    4.0929   -1.0844   -0.2748 C   0  0  0  0  0  0  0  0  0  0  0  0
    5.3297   -0.5597    0.1094 C   0  0  0  0  0  0  0  0  0  0  0  0
    6.2473   -1.1497   -0.0143 H   0  0  0  0  0  0  0  0  0  0  0  0
    5.4303    0.7322    0.6473 C   0  0  0  0  0  0  0  0  0  0  0  0
    4.2993    1.5491    0.8406 C   0  0  0  0  0  0  0  0  0  0  0  0
    1.8122    1.8989    0.6968 C   0  0  0  0  0  0  0  0  0  0  0  0
    1.9744    2.5190    1.6061 H   0  0  0  0  0  0  0  0  0  0  0  0
    1.6868    2.5954   -0.1588 H   0  0  0  0  0  0  0  0  0  0  0  0
   -7.1319   -0.8472    0.9256 Cl  0  0  0  0  0  0  0  0  0  0  0  0
    7.0367    1.2975    1.0828 Cl  0  0  0  0  0  0  0  0  0  0  0  0
   -0.7206   -1.3586    0.7087 N   0  0  0  0  0  0  0  0  0  0  0  0
    0.0203   -2.0741    0.7532 H   0  0  0  0  0  0  0  0  0  0  0  0
   -0.7462   -0.6062    1.9853 C   0  0  2  0  0  0  0  0  0  0  0  0
   -1.6615    0.0236    1.9446 H   0  0  0  0  0  0  0  0  0  0  0  0
    0.4734    0.3153    2.0327 C   0  0  0  0  0  0  0  0  0  0  0  0
    0.4473    0.9284    2.9624 H   0  0  0  0  0  0  0  0  0  0  0  0
    1.4034   -0.2892    2.0736 H   0  0  0  0  0  0  0  0  0  0  0  0
    0.5435    1.1577    0.8317 N   0  0  0  0  0  0  0  0  0  0  0  0
   -0.2351    1.8314    0.8366 H   0  0  0  0  0  0  0  0  0  0  0  0
   -3.6816    2.5695   -1.0928 C   0  0  0  0  0  0  0  0  0  0  0  0
   -2.9341    2.4110   -1.8995 H   0  0  0  0  0  0  0  0  0  0  0  0
   -3.0121    3.4568   -0.0252 C   0  0  0  0  0  0  0  0  0  0  0  0
   -3.7034    3.6435    0.8227 H   0  0  0  0  0  0  0  0  0  0  0  0
   -2.7152    4.4367   -0.4516 H   0  0  0  0  0  0  0  0  0  0  0  0
   -2.0992    2.9736    0.3772 H   0  0  0  0  0  0  0  0  0  0  0  0
   -4.9025    3.2701   -1.6965 C   0  0  0  0  0  0  0  0  0  0  0  0
   -5.4065    2.6351   -2.4521 H   0  0  0  0  0  0  0  0  0  0  0  0
   -4.5973    4.2134   -2.1920 H   0  0  0  0  0  0  0  0  0  0  0  0
   -5.6514    3.5385   -0.9221 H   0  0  0  0  0  0  0  0  0  0  0  0
   -4.7086   -2.7757    1.1816 C   0  0  0  0  0  0  0  0  0  0  0  0
   -4.1518   -2.9364    2.1297 H   0  0  0  0  0  0  0  0  0  0  0  0
   -4.4038   -3.5825    0.4842 H   0  0  0  0  0  0  0  0  0  0  0  0
   -5.7826   -2.9064    1.4018 H   0  0  0  0  0  0  0  0  0  0  0  0
    3.9448   -2.4529   -0.9207 C   0  0  0  0  0  0  0  0  0  0  0  0
    3.0000   -2.8824   -0.5212 H   0  0  0  0  0  0  0  0  0  0  0  0
    3.7593   -2.3080   -2.4444 C   0  0  0  0  0  0  0  0  0  0  0  0
    2.8957   -1.6586   -2.6842 H   0  0  0  0  0  0  0  0  0  0  0  0
    3.5827   -3.2977   -2.9134 H   0  0  0  0  0  0  0  0  0  0  0  0
    4.6663   -1.8653   -2.9057 H   0  0  0  0  0  0  0  0  0  0  0  0
    5.0889   -3.4171   -0.5922 C   0  0  0  0  0  0  0  0  0  0  0  0
    6.0462   -3.0910   -1.0500 H   0  0  0  0  0  0  0  0  0  0  0  0
    4.8675   -4.4254   -0.9958 H   0  0  0  0  0  0  0  0  0  0  0  0
    5.2509   -3.5124    0.5006 H   0  0  0  0  0  0  0  0  0  0  0  0
    4.4184    2.9443    1.3993 C   0  0  0  0  0  0  0  0  0  0  0  0
    5.4783    3.2199    1.5395 H   0  0  0  0  0  0  0  0  0  0  0  0
    3.9152    3.0390    2.3857 H   0  0  0  0  0  0  0  0  0  0  0  0
    3.9556    3.6955    0.7267 H   0  0  0  0  0  0  0  0  0  0  0  0
   -0.8216   -1.5044    3.2209 C   0  0  0  0  0  0  0  0  0  0  0  0
   -1.7282   -2.1399    3.2067 H   0  0  0  0  0  0  0  0  0  0  0  0
   -0.8598   -0.8973    4.1469 H   0  0  0  0  0  0  0  0  0  0  0  0
    0.0676   -2.1662    3.2863 H   0  0  0  0  0  0  0  0  0  0  0  0
  1  4  1  0  0  0  0
  2 14  1  0  0  0  0
  3 10  1  0  0  0  0
  3  9  1  0  0  0  0
  4  3  2  0  0  0  0
  5  4  1  0  0  0  0
  5  6  2  0  0  0  0
  6  8  1  0  0  0  0
  7  6  1  0  0  0  0
  8  9  2  0  0  0  0
  8 23  1  0  0  0  0
  9 44  1  0  0  0  0
 10 25  1  0  0  0  0
 10 11  1  0  0  0  0
 12 10  1  0  0  0  0
 13 20  1  0  0  0  0
 13 19  1  0  0  0  0
 14 13  2  0  0  0  0
 15 14  1  0  0  0  0
 15 16  2  0  0  0  0
 16 18  1  0  0  0  0
 17 16  1  0  0  0  0
 18 19  2  0  0  0  0
 18 24  1  0  0  0  0
 19 58  1  0  0  0  0
 20 32  1  0  0  0  0
 20 21  1  0  0  0  0
 22 20  1  0  0  0  0
 25 26  1  0  0  0  0
 25 27  1  0  0  0  0
 27 28  1  6  0  0  0
 27 29  1  0  0  0  0
 27 62  1  0  0  0  0
 29 31  1  0  0  0  0
 29 30  1  0  0  0  0
 32 33  1  0  0  0  0
 32 29  1  0  0  0  0
 34  5  1  0  0  0  0
 34 36  1  0  0  0  0
 35 34  1  0  0  0  0
 36 39  1  0  0  0  0
 36 37  1  0  0  0  0
 38 36  1  0  0  0  0
 40 34  1  0  0  0  0
 40 43  1  0  0  0  0
 41 40  1  0  0  0  0
 42 40  1  0  0  0  0
 44 47  1  0  0  0  0
 44 45  1  0  0  0  0
 46 44  1  0  0  0  0
 48 54  1  0  0  0  0
 48 49  1  0  0  0  0
 48 15  1  0  0  0  0
 50 48  1  0  0  0  0
 51 50  1  0  0  0  0
 52 50  1  0  0  0  0
 53 50  1  0  0  0  0
 54 57  1  0  0  0  0
 55 54  1  0  0  0  0
 56 54  1  0  0  0  0
 58 59  1  0  0  0  0
 58 60  1  0  0  0  0
 61 58  1  0  0  0  0
 62 65  1  0  0  0  0
 62 64  1  0  0  0  0
 63 62  1  0  0  0  0
M  CHG  2   1  -1   2  -1
M  END
