1,2,5,6
 OpenBabel05122313063D

 46 47  0  0  0  0  0  0  0  0999 V2000
    1.7019    0.1958    0.9246 O   0  5  0  0  0  0  0  0  0  0  0  0
   -0.9981    0.9294    0.1678 O   0  5  0  0  0  0  0  0  0  0  0  0
    3.4347    2.1765    1.0570 O   0  0  0  0  0  0  0  0  0  0  0  0
   -1.6492    3.3569   -0.5503 O   0  0  0  0  0  0  0  0  0  0  0  0
   -1.8754   -1.7823    0.7303 N   0  0  0  0  0  2  0  0  0  0  0  0
    0.9796   -2.3256   -0.1618 N   0  0  0  0  0  2  0  0  0  0  0  0
   -1.4060   -3.4035   -1.5513 O   0  0  0  0  0  0  0  0  0  0  0  0
   -2.3784   -3.4431   -1.6099 H   0  0  0  0  0  0  0  0  0  0  0  0
    4.3269    3.2654    1.1317 C   0  0  0  0  0  0  0  0  0  0  0  0
    3.9679    3.9142    1.9527 H   0  0  0  0  0  0  0  0  0  0  0  0
    4.3445    3.8560    0.1866 H   0  0  0  0  0  0  0  0  0  0  0  0
    5.3685    2.9389    1.3583 H   0  0  0  0  0  0  0  0  0  0  0  0
    2.0735   -2.0879   -0.8472 C   0  0  0  0  0  3  0  0  0  0  0  0
    2.4597   -2.9194   -1.4815 H   0  0  0  0  0  0  0  0  0  0  0  0
    2.8869   -0.9055   -0.8574 C   0  0  0  0  0  0  0  0  0  0  0  0
   -2.6661    2.4553   -0.5048 C   0  0  0  0  0  0  0  0  0  0  0  0
   -1.9529    4.6737   -0.9514 C   0  0  0  0  0  0  0  0  0  0  0  0
   -2.6785    5.1651   -0.2622 H   0  0  0  0  0  0  0  0  0  0  0  0
   -2.3732    4.7098   -1.9832 H   0  0  0  0  0  0  0  0  0  0  0  0
   -1.0014    5.2374   -0.9319 H   0  0  0  0  0  0  0  0  0  0  0  0
    2.6856    0.1627    0.0915 C   0  0  0  0  0  0  0  0  0  0  0  0
    4.8884    0.1895   -1.7443 C   0  0  0  0  0  0  0  0  0  0  0  0
    5.7332    0.2212   -2.4475 H   0  0  0  0  0  0  0  0  0  0  0  0
    3.9927   -0.8644   -1.7637 C   0  0  0  0  0  0  0  0  0  0  0  0
    4.1199   -1.6949   -2.4763 H   0  0  0  0  0  0  0  0  0  0  0  0
   -2.2462    1.1229   -0.0978 C   0  0  0  0  0  0  0  0  0  0  0  0
    3.6701    1.2281    0.1086 C   0  0  0  0  0  0  0  0  0  0  0  0
   -3.2788    0.1142   -0.0203 C   0  0  0  0  0  0  0  0  0  0  0  0
   -4.9914    1.7198   -0.7242 C   0  0  0  0  0  0  0  0  0  0  0  0
   -6.0353    1.9639   -0.9685 H   0  0  0  0  0  0  0  0  0  0  0  0
   -3.0043   -1.2459    0.3390 C   0  0  0  0  0  3  0  0  0  0  0  0
   -3.8864   -1.9268    0.2712 H   0  0  0  0  0  0  0  0  0  0  0  0
   -3.9984    2.7335   -0.8038 C   0  0  0  0  0  0  0  0  0  0  0  0
   -4.2948    3.7470   -1.1083 H   0  0  0  0  0  0  0  0  0  0  0  0
   -4.6353    0.4400   -0.3426 C   0  0  0  0  0  0  0  0  0  0  0  0
   -5.3946   -0.3560   -0.2781 H   0  0  0  0  0  0  0  0  0  0  0  0
    4.7278    1.2389   -0.7988 C   0  0  0  0  0  0  0  0  0  0  0  0
    5.4529    2.0648   -0.7917 H   0  0  0  0  0  0  0  0  0  0  0  0
   -1.8270   -3.2207    0.8665 C   0  0  0  0  0  0  0  0  0  0  0  0
   -2.8600   -3.6481    0.8558 H   0  0  0  0  0  0  0  0  0  0  0  0
   -1.3678   -3.5061    1.8385 H   0  0  0  0  0  0  0  0  0  0  0  0
    0.4978   -3.7000   -0.1611 C   0  0  0  0  0  0  0  0  0  0  0  0
    0.8095   -4.1877    0.7913 H   0  0  0  0  0  0  0  0  0  0  0  0
    0.9738   -4.2778   -0.9873 H   0  0  0  0  0  0  0  0  0  0  0  0
   -1.0162   -3.8773   -0.2789 C   0  0  0  0  0  0  0  0  0  0  0  0
   -1.1886   -4.9803   -0.1782 H   0  0  0  0  0  0  0  0  0  0  0  0
  3  9  1  0  0  0  0
  4 16  1  0  0  0  0
  5 39  1  0  0  0  0
  6 42  1  0  0  0  0
  7 45  1  0  0  0  0
  8  7  1  0  0  0  0
  9 12  1  0  0  0  0
  9 10  1  0  0  0  0
 11  9  1  0  0  0  0
 13  6  1  0  0  0  0
 14 13  1  0  0  0  0
 15 13  1  0  0  0  0
 15 21  1  0  0  0  0
 16 26  1  0  0  0  0
 17 20  1  0  0  0  0
 17  4  1  0  0  0  0
 17 18  1  0  0  0  0
 19 17  1  0  0  0  0
 21 27  2  0  0  0  0
 21  1  1  0  0  0  0
 22 37  2  0  0  0  0
 23 22  1  0  0  0  0
 24 22  1  0  0  0  0
 24 15  2  0  0  0  0
 25 24  1  0  0  0  0
 26 28  2  0  0  0  0
 26  2  1  0  0  0  0
 27  3  1  0  0  0  0
 28 31  1  0  0  0  0
 29 35  2  0  0  0  0
 30 29  1  0  0  0  0
 31  5  1  0  0  0  0
 32 31  1  0  0  0  0
 33 29  1  0  0  0  0
 33 16  2  0  0  0  0
 34 33  1  0  0  0  0
 35 36  1  0  0  0  0
 35 28  1  0  0  0  0
 37 38  1  0  0  0  0
 37 27  1  0  0  0  0
 39 41  1  0  0  0  0
 40 39  1  0  0  0  0
 42 43  1  0  0  0  0
 44 42  1  0  0  0  0
 45 46  1  0  0  0  0
 45 42  1  0  0  0  0
 45 39  1  0  0  0  0
M  CHG  2   1  -1   2  -1
M  END
