1,2,14,31
 OpenBabel05122313063D

 75 77  0  0  1  0  0  0  0  0999 V2000
    1.3444   -2.0804    0.1009 O   0  5  0  0  0  0  0  0  0  0  0  0
   -2.4183   -1.4991   -0.2981 O   0  5  0  0  0  0  0  0  0  0  0  0
    2.4350   -1.5356   -0.4552 C   0  0  0  0  0  0  0  0  0  0  0  0
    3.7024   -1.8479    0.1149 C   0  0  0  0  0  0  0  0  0  0  0  0
    4.8461   -1.2325   -0.4138 C   0  0  0  0  0  0  0  0  0  0  0  0
    5.8244   -1.4802    0.0308 H   0  0  0  0  0  0  0  0  0  0  0  0
    4.7905   -0.3144   -1.4834 C   0  0  0  0  0  0  0  0  0  0  0  0
    3.5288   -0.0388   -2.0364 C   0  0  0  0  0  0  0  0  0  0  0  0
    3.4496    0.6662   -2.8809 H   0  0  0  0  0  0  0  0  0  0  0  0
    2.3539   -0.6451   -1.5539 C   0  0  0  0  0  0  0  0  0  0  0  0
    1.0372   -0.3736   -2.2260 C   0  0  0  0  0  0  0  0  0  0  0  0
    0.7160   -1.2555   -2.8172 H   0  0  0  0  0  0  0  0  0  0  0  0
    1.1692    0.4687   -2.9441 H   0  0  0  0  0  0  0  0  0  0  0  0
   -0.1010   -0.0656   -1.3048 N   0  0  0  0  0  0  0  0  0  0  0  0
   -1.2530    0.2739   -2.1897 C   0  0  0  0  0  0  0  0  0  0  0  0
   -1.3633   -0.6035   -2.8619 H   0  0  0  0  0  0  0  0  0  0  0  0
   -0.9804    1.1367   -2.8380 H   0  0  0  0  0  0  0  0  0  0  0  0
   -2.5746    0.5474   -1.5291 C   0  0  0  0  0  0  0  0  0  0  0  0
   -3.3134    1.7059   -1.8239 C   0  0  0  0  0  0  0  0  0  0  0  0
   -2.8728    2.4602   -2.4974 H   0  0  0  0  0  0  0  0  0  0  0  0
   -4.6009    1.9154   -1.2978 C   0  0  0  0  0  0  0  0  0  0  0  0
   -5.1420    0.9086   -0.4707 C   0  0  0  0  0  0  0  0  0  0  0  0
   -6.1585    1.0387   -0.0634 H   0  0  0  0  0  0  0  0  0  0  0  0
   -4.4399   -0.2618   -0.1423 C   0  0  0  0  0  0  0  0  0  0  0  0
   -3.1255   -0.4259   -0.6623 C   0  0  0  0  0  0  0  0  0  0  0  0
    0.2775    0.9815   -0.3108 C   0  0  2  0  0  0  0  0  0  0  0  0
    1.3069    0.7082   -0.0053 H   0  0  0  0  0  0  0  0  0  0  0  0
   -0.5973    0.9364    0.9428 C   0  0  0  0  0  0  0  0  0  0  0  0
   -0.2696    1.7705    1.6039 H   0  0  0  0  0  0  0  0  0  0  0  0
   -1.6519    1.1332    0.6755 H   0  0  0  0  0  0  0  0  0  0  0  0
   -0.5236   -0.3557    1.6601 N   0  0  0  0  0  0  0  0  0  0  0  0
    0.7285   -0.4086    2.4666 C   0  0  0  0  0  0  0  0  0  0  0  0
    0.7781    0.5042    3.1064 H   0  0  0  0  0  0  0  0  0  0  0  0
    1.5790   -0.3372    1.7634 H   0  0  0  0  0  0  0  0  0  0  0  0
    0.8846   -1.6570    3.3241 C   0  0  0  0  0  0  0  0  0  0  0  0
    1.8879   -1.6485    3.7942 H   0  0  0  0  0  0  0  0  0  0  0  0
    0.7871   -2.5775    2.7185 H   0  0  0  0  0  0  0  0  0  0  0  0
    0.1420   -1.7034    4.1447 H   0  0  0  0  0  0  0  0  0  0  0  0
   -1.7317   -0.5520    2.5121 C   0  0  0  0  0  0  0  0  0  0  0  0
   -1.7096   -1.5976    2.8741 H   0  0  0  0  0  0  0  0  0  0  0  0
   -2.6025   -0.4827    1.8376 H   0  0  0  0  0  0  0  0  0  0  0  0
   -1.9072    0.4278    3.6733 C   0  0  0  0  0  0  0  0  0  0  0  0
   -2.8648    0.2101    4.1867 H   0  0  0  0  0  0  0  0  0  0  0  0
   -1.9522    1.4816    3.3317 H   0  0  0  0  0  0  0  0  0  0  0  0
   -1.1029    0.3478    4.4314 H   0  0  0  0  0  0  0  0  0  0  0  0
    0.3628    2.4140   -0.8831 C   0  0  0  0  0  0  0  0  0  0  0  0
    0.8234    2.3659   -1.8921 H   0  0  0  0  0  0  0  0  0  0  0  0
   -0.6544    2.8373   -1.0100 H   0  0  0  0  0  0  0  0  0  0  0  0
    1.1997    3.3142   -0.0023 C   0  0  0  0  0  0  0  0  0  0  0  0
    0.6215    4.3750    0.7216 C   0  0  0  0  0  0  0  0  0  0  0  0
   -0.4580    4.5711    0.6197 H   0  0  0  0  0  0  0  0  0  0  0  0
    1.4021    5.1805    1.5661 C   0  0  0  0  0  0  0  0  0  0  0  0
    0.9321    6.0059    2.1223 H   0  0  0  0  0  0  0  0  0  0  0  0
    2.7766    4.9335    1.7011 C   0  0  0  0  0  0  0  0  0  0  0  0
    3.3900    5.5631    2.3632 H   0  0  0  0  0  0  0  0  0  0  0  0
    3.3651    3.8785    0.9838 C   0  0  0  0  0  0  0  0  0  0  0  0
    4.4433    3.6788    1.0805 H   0  0  0  0  0  0  0  0  0  0  0  0
    2.5842    3.0765    0.1399 C   0  0  0  0  0  0  0  0  0  0  0  0
    3.0556    2.2510   -0.4192 H   0  0  0  0  0  0  0  0  0  0  0  0
    3.7764   -2.8320    1.2491 C   0  0  0  0  0  0  0  0  0  0  0  0
    4.8250   -3.0938    1.4859 H   0  0  0  0  0  0  0  0  0  0  0  0
    3.2196   -3.7596    1.0053 H   0  0  0  0  0  0  0  0  0  0  0  0
    3.3042   -2.4292    2.1681 H   0  0  0  0  0  0  0  0  0  0  0  0
    6.0460    0.3242   -2.0229 C   0  0  0  0  0  0  0  0  0  0  0  0
    6.6688    0.7517   -1.2101 H   0  0  0  0  0  0  0  0  0  0  0  0
    5.8153    1.1378   -2.7381 H   0  0  0  0  0  0  0  0  0  0  0  0
    6.6806   -0.4162   -2.5554 H   0  0  0  0  0  0  0  0  0  0  0  0
   -5.3943    3.1563   -1.6239 C   0  0  0  0  0  0  0  0  0  0  0  0
   -6.2915    2.9164   -2.2335 H   0  0  0  0  0  0  0  0  0  0  0  0
   -4.7905    3.8883   -2.1948 H   0  0  0  0  0  0  0  0  0  0  0  0
   -5.7594    3.6608   -0.7051 H   0  0  0  0  0  0  0  0  0  0  0  0
   -5.0385   -1.3513    0.7046 C   0  0  0  0  0  0  0  0  0  0  0  0
   -5.1102   -2.2993    0.1317 H   0  0  0  0  0  0  0  0  0  0  0  0
   -6.0500   -1.0772    1.0597 H   0  0  0  0  0  0  0  0  0  0  0  0
   -4.4048   -1.5859    1.5847 H   0  0  0  0  0  0  0  0  0  0  0  0
  3  1  1  0  0  0  0
  3  4  1  0  0  0  0
  4 60  1  0  0  0  0
  5  6  1  0  0  0  0
  5  4  2  0  0  0  0
  7  5  1  0  0  0  0
  8 10  1  0  0  0  0
  8  7  2  0  0  0  0
  9  8  1  0  0  0  0
 10  3  2  0  0  0  0
 11 10  1  0  0  0  0
 11 14  1  0  0  0  0
 12 11  1  0  0  0  0
 13 11  1  0  0  0  0
 14 26  1  0  0  0  0
 15 18  1  0  0  0  0
 15 14  1  0  0  0  0
 16 15  1  0  0  0  0
 17 15  1  0  0  0  0
 18 25  1  0  0  0  0
 19 18  2  0  0  0  0
 19 21  1  0  0  0  0
 20 19  1  0  0  0  0
 21 22  2  0  0  0  0
 22 24  1  0  0  0  0
 22 23  1  0  0  0  0
 24 72  1  0  0  0  0
 25  2  1  0  0  0  0
 25 24  2  0  0  0  0
 26 27  1  1  0  0  0
 26 28  1  0  0  0  0
 28 29  1  0  0  0  0
 28 31  1  0  0  0  0
 30 28  1  0  0  0  0
 31 32  1  0  0  0  0
 31 39  1  0  0  0  0
 32 33  1  0  0  0  0
 32 35  1  0  0  0  0
 34 32  1  0  0  0  0
 35 36  1  0  0  0  0
 35 38  1  0  0  0  0
 37 35  1  0  0  0  0
 39 40  1  0  0  0  0
 39 42  1  0  0  0  0
 41 39  1  0  0  0  0
 42 43  1  0  0  0  0
 42 45  1  0  0  0  0
 44 42  1  0  0  0  0
 46 26  1  0  0  0  0
 46 49  1  0  0  0  0
 47 46  1  0  0  0  0
 48 46  1  0  0  0  0
 49 58  2  0  0  0  0
 49 50  1  0  0  0  0
 50 52  2  0  0  0  0
 51 50  1  0  0  0  0
 52 54  1  0  0  0  0
 52 53  1  0  0  0  0
 54 55  1  0  0  0  0
 56 57  1  0  0  0  0
 56 54  2  0  0  0  0
 58 56  1  0  0  0  0
 59 58  1  0  0  0  0
 60 61  1  0  0  0  0
 60 63  1  0  0  0  0
 62 60  1  0  0  0  0
 64  7  1  0  0  0  0
 64 65  1  0  0  0  0
 66 64  1  0  0  0  0
 67 64  1  0  0  0  0
 68 21  1  0  0  0  0
 68 71  1  0  0  0  0
 69 68  1  0  0  0  0
 70 68  1  0  0  0  0
 72 74  1  0  0  0  0
 72 75  1  0  0  0  0
 73 72  1  0  0  0  0
M  CHG  2   1  -1   2  -1
M  END
