35,36,37,38
 OpenBabel05122313063D

 38 40  0  0  0  0  0  0  0  0999 V2000
    2.3311   -3.2272    0.0026 Br  0  0  0  0  0  0  0  0  0  0  0  0
    7.2764   -0.3785   -0.0041 Br  0  0  0  0  0  0  0  0  0  0  0  0
   -2.3311   -3.2272    0.0022 Br  0  0  0  0  0  0  0  0  0  0  0  0
   -7.2764   -0.3785   -0.0038 Br  0  0  0  0  0  0  0  0  0  0  0  0
    0.7093    3.5934    0.0018 C   0  0  0  0  0  0  0  0  0  0  0  0
   -0.7093    3.5934    0.0010 C   0  0  0  0  0  0  0  0  0  0  0  0
   -1.4104    4.8156    0.0009 C   0  0  0  0  0  0  0  0  0  0  0  0
   -2.5085    4.8364    0.0002 H   0  0  0  0  0  0  0  0  0  0  0  0
   -0.7037    6.0231    0.0019 C   0  0  0  0  0  0  0  0  0  0  0  0
   -1.2554    6.9745    0.0019 H   0  0  0  0  0  0  0  0  0  0  0  0
    0.7037    6.0231    0.0031 C   0  0  0  0  0  0  0  0  0  0  0  0
    1.2554    6.9745    0.0042 H   0  0  0  0  0  0  0  0  0  0  0  0
    1.4104    4.8156    0.0031 C   0  0  0  0  0  0  0  0  0  0  0  0
    2.5085    4.8364    0.0042 H   0  0  0  0  0  0  0  0  0  0  0  0
    3.2615    0.8653   -0.0005 C   0  0  0  0  0  0  0  0  0  0  0  0
    2.5110   -0.3722    0.0009 C   0  0  0  0  0  0  0  0  0  0  0  0
    3.2818   -1.5916    0.0008 C   0  0  0  0  0  0  0  0  0  0  0  0
    4.6698   -1.5843   -0.0007 C   0  0  0  0  0  0  0  0  0  0  0  0
    5.2212   -2.5344   -0.0008 H   0  0  0  0  0  0  0  0  0  0  0  0
    5.3735   -0.3502   -0.0021 C   0  0  0  0  0  0  0  0  0  0  0  0
    4.6896    0.8529   -0.0020 C   0  0  0  0  0  3  0  0  0  0  0  0
    5.2376    1.8062   -0.0031 H   0  0  0  0  0  0  0  0  0  0  0  0
    2.5869    2.1148   -0.0002 C   0  0  0  0  0  0  0  0  0  0  0  0
    3.2311    3.0114   -0.0013 H   0  0  0  0  0  0  0  0  0  0  0  0
   -3.2615    0.8653   -0.0006 C   0  0  0  0  0  0  0  0  0  0  0  0
   -2.5110   -0.3722    0.0007 C   0  0  0  0  0  0  0  0  0  0  0  0
   -3.2818   -1.5916    0.0006 C   0  0  0  0  0  0  0  0  0  0  0  0
   -4.6698   -1.5843   -0.0008 C   0  0  0  0  0  0  0  0  0  0  0  0
   -5.2212   -2.5344   -0.0009 H   0  0  0  0  0  0  0  0  0  0  0  0
   -5.3735   -0.3502   -0.0020 C   0  0  0  0  0  0  0  0  0  0  0  0
   -4.6896    0.8529   -0.0019 C   0  0  0  0  0  3  0  0  0  0  0  0
   -5.2376    1.8062   -0.0028 H   0  0  0  0  0  0  0  0  0  0  0  0
   -2.5869    2.1148   -0.0004 C   0  0  0  0  0  0  0  0  0  0  0  0
   -3.2311    3.0114   -0.0010 H   0  0  0  0  0  0  0  0  0  0  0  0
    1.2748    2.2980    0.0012 N   0  0  0  0  0  2  0  0  0  0  0  0
   -1.2748    2.2980    0.0005 N   0  0  0  0  0  2  0  0  0  0  0  0
    1.2263   -0.4364    0.0021 O   0  5  0  0  0  0  0  0  0  0  0  0
   -1.2263   -0.4364    0.0020 O   0  5  0  0  0  0  0  0  0  0  0  0
  2 20  1  0  0  0  0
  4 30  1  0  0  0  0
  5 13  1  0  0  0  0
  6  5  2  0  0  0  0
  7  6  1  0  0  0  0
  7  9  2  0  0  0  0
  8  7  1  0  0  0  0
  9 11  1  0  0  0  0
 10  9  1  0  0  0  0
 11 12  1  0  0  0  0
 13 11  2  0  0  0  0
 13 14  1  0  0  0  0
 15 23  2  0  0  0  0
 15 16  1  0  0  0  0
 16 37  1  0  0  0  0
 17 16  2  0  0  0  0
 17  1  1  0  0  0  0
 18 17  1  0  0  0  0
 19 18  1  0  0  0  0
 20 21  1  0  0  0  0
 20 18  2  0  0  0  0
 21 15  1  0  0  0  0
 22 21  1  0  0  0  0
 23 35  1  0  0  0  0
 24 23  1  0  0  0  0
 25 33  2  0  0  0  0
 25 26  1  0  0  0  0
 26 38  1  0  0  0  0
 27 26  2  0  0  0  0
 27  3  1  0  0  0  0
 28 27  1  0  0  0  0
 29 28  1  0  0  0  0
 30 31  1  0  0  0  0
 30 28  2  0  0  0  0
 31 25  1  0  0  0  0
 32 31  1  0  0  0  0
 33 36  1  0  0  0  0
 34 33  1  0  0  0  0
 35  5  1  0  0  0  0
 36  6  1  0  0  0  0
M  CHG  2  37  -1  38  -1
M  END
