5,6,7,8
 OpenBabel05122313063D

 44 46  0  0  1  0  0  0  0  0999 V2000
   -2.7718   -3.0979   -0.3105 Br  0  0  0  0  0  0  0  0  0  0  0  0
   -7.4162    0.1891   -0.6467 Br  0  0  0  0  0  0  0  0  0  0  0  0
    7.4153    0.1906    0.6463 Br  0  0  0  0  0  0  0  0  0  0  0  0
    2.7717   -3.0974    0.3090 Br  0  0  0  0  0  0  0  0  0  0  0  0
   -1.4028   -0.4632   -0.2665 O   0  5  0  0  0  0  0  0  0  0  0  0
    1.4021   -0.4630    0.2661 O   0  5  0  0  0  0  0  0  0  0  0  0
   -1.2997    2.4916   -0.2885 N   0  0  0  0  0  2  0  0  0  0  0  0
    1.2982    2.4918    0.2896 N   0  0  0  0  0  2  0  0  0  0  0  0
   -2.6806   -0.2380   -0.3505 C   0  0  0  0  0  0  0  0  0  0  0  0
   -3.5616   -1.3762   -0.3878 C   0  0  0  0  0  0  0  0  0  0  0  0
   -4.9428   -1.2580   -0.4724 C   0  0  0  0  0  0  0  0  0  0  0  0
   -5.5738   -2.1565   -0.4944 H   0  0  0  0  0  0  0  0  0  0  0  0
   -5.5243    0.0315   -0.5283 C   0  0  0  0  0  0  0  0  0  0  0  0
   -4.7285    1.1661   -0.5000 C   0  0  0  0  0  0  0  0  0  0  0  0
   -5.1937    2.1614   -0.5502 H   0  0  0  0  0  0  0  0  0  0  0  0
   -3.3070    1.0729   -0.4077 C   0  0  0  0  0  0  0  0  0  0  0  0
   -2.6007    2.3284   -0.4105 C   0  0  0  0  0  3  0  0  0  0  0  0
   -3.2319    3.2267   -0.5360 H   0  0  0  0  0  0  0  0  0  0  0  0
   -0.6334    3.8020   -0.4459 C   0  0  1  0  0  0  0  0  0  0  0  0
   -0.2753    3.8427   -1.5043 H   0  0  0  0  0  0  0  0  0  0  0  0
   -1.4792    5.0524   -0.1934 C   0  0  0  0  0  0  0  0  0  0  0  0
   -1.8680    5.0266    0.8485 H   0  0  0  0  0  0  0  0  0  0  0  0
   -2.3601    5.0662   -0.8662 H   0  0  0  0  0  0  0  0  0  0  0  0
   -0.6405    6.3189   -0.4206 C   0  0  0  0  0  0  0  0  0  0  0  0
   -0.3699    6.3845   -1.4976 H   0  0  0  0  0  0  0  0  0  0  0  0
   -1.2506    7.2179   -0.1991 H   0  0  0  0  0  0  0  0  0  0  0  0
    0.6381    6.3188    0.4239 C   0  0  0  0  0  0  0  0  0  0  0  0
    0.3674    6.3838    1.5010 H   0  0  0  0  0  0  0  0  0  0  0  0
    1.2479    7.2181    0.2029 H   0  0  0  0  0  0  0  0  0  0  0  0
    1.4771    5.0526    0.1960 C   0  0  0  0  0  0  0  0  0  0  0  0
    1.8659    5.0276   -0.8459 H   0  0  0  0  0  0  0  0  0  0  0  0
    2.3580    5.0663    0.8688 H   0  0  0  0  0  0  0  0  0  0  0  0
    0.6316    3.8019    0.4477 C   0  0  2  0  0  0  0  0  0  0  0  0
    0.2735    3.8419    1.5061 H   0  0  0  0  0  0  0  0  0  0  0  0
    2.5993    2.3289    0.4115 C   0  0  0  0  0  3  0  0  0  0  0  0
    3.2303    3.2272    0.5374 H   0  0  0  0  0  0  0  0  0  0  0  0
    3.3059    1.0735    0.4080 C   0  0  0  0  0  0  0  0  0  0  0  0
    4.7274    1.1670    0.5003 C   0  0  0  0  0  0  0  0  0  0  0  0
    5.1923    2.1624    0.5509 H   0  0  0  0  0  0  0  0  0  0  0  0
    5.5234    0.0326    0.5280 C   0  0  0  0  0  0  0  0  0  0  0  0
    4.9423   -1.2570    0.4715 C   0  0  0  0  0  0  0  0  0  0  0  0
    5.5735   -2.1554    0.4930 H   0  0  0  0  0  0  0  0  0  0  0  0
    3.5611   -1.3756    0.3868 C   0  0  0  0  0  0  0  0  0  0  0  0
    2.6798   -0.2376    0.3502 C   0  0  0  0  0  0  0  0  0  0  0  0
  2 13  1  0  0  0  0
  4 43  1  0  0  0  0
  6 44  1  0  0  0  0
  8 35  1  0  0  0  0
  8 33  1  0  0  0  0
  9  5  1  0  0  0  0
 10  9  1  0  0  0  0
 10  1  1  0  0  0  0
 11 10  2  0  0  0  0
 12 11  1  0  0  0  0
 13 14  2  0  0  0  0
 13 11  1  0  0  0  0
 14 16  1  0  0  0  0
 15 14  1  0  0  0  0
 16  9  2  0  0  0  0
 17 16  1  0  0  0  0
 17  7  1  0  0  0  0
 18 17  1  0  0  0  0
 19 20  1  6  0  0  0
 19  7  1  0  0  0  0
 19 21  1  0  0  0  0
 19 33  1  0  0  0  0
 21 22  1  0  0  0  0
 23 21  1  0  0  0  0
 24 26  1  0  0  0  0
 24 21  1  0  0  0  0
 24 27  1  0  0  0  0
 25 24  1  0  0  0  0
 27 28  1  0  0  0  0
 29 27  1  0  0  0  0
 30 27  1  0  0  0  0
 30 33  1  0  0  0  0
 30 32  1  0  0  0  0
 31 30  1  0  0  0  0
 33 34  1  1  0  0  0
 35 36  1  0  0  0  0
 37 35  1  0  0  0  0
 37 38  1  0  0  0  0
 38 40  2  0  0  0  0
 38 39  1  0  0  0  0
 40  3  1  0  0  0  0
 41 42  1  0  0  0  0
 41 40  1  0  0  0  0
 43 41  2  0  0  0  0
 44 43  1  0  0  0  0
 44 37  2  0  0  0  0
M  CHG  2   5  -1   6  -1
M  END
