1,2,3,4
q = -2.0, confidence = 0.872

 54 55  0  0  1  0  0  0  0  0999 V2000
    2.0212    1.8492    0.2046 O   0  5  0  0  0  0  0  0  0  0  0  0
    2.0882   -0.0703    1.8748 O   0  5  0  0  0  0  0  0  0  0  0  0
    0.0587   -1.4425    0.4054 N   0  0  0  0  0  2  0  0  0  0  0  0
    0.0602    0.4903   -1.3264 N   0  0  0  0  0  2  0  0  0  0  0  0
    2.2023   -1.2080    2.4685 C   0  0  0  0  0  0  0  0  0  0  0  0
    1.4929   -2.3680    2.1316 C   0  0  0  0  0  0  0  0  0  0  0  0
    1.7178   -3.2772    2.7024 H   0  0  0  0  0  0  0  0  0  0  0  0
    0.4722   -2.4735    1.1435 C   0  0  1  0  0  3  0  0  0  0  0  0
   -1.0064   -1.6422   -0.5869 C   0  0  2  0  0  0  0  0  0  0  0  0
   -0.7195   -2.5167   -1.2142 H   0  0  0  0  0  0  0  0  0  0  0  0
   -1.0645   -0.4226   -1.5885 C   0  0  1  0  0  0  0  0  0  0  0  0
   -0.9074   -0.8687   -2.5936 H   0  0  0  0  0  0  0  0  0  0  0  0
    0.5196    1.2779   -2.3001 C   0  0  2  0  0  3  0  0  0  0  0  0
    1.5843    2.2059   -2.1137 C   0  0  0  0  0  0  0  0  0  0  0  0
    1.8642    2.8149   -2.9818 H   0  0  0  0  0  0  0  0  0  0  0  0
    2.2208    2.4860   -0.8977 C   0  0  0  0  0  0  0  0  0  0  0  0
    3.1834    3.6448   -0.7907 C   0  0  0  0  0  0  0  0  0  0  0  0
    2.7545    4.4208   -0.1228 H   0  0  0  0  0  0  0  0  0  0  0  0
    3.4012    4.1034   -1.7720 H   0  0  0  0  0  0  0  0  0  0  0  0
    4.1287    3.3128   -0.3170 H   0  0  0  0  0  0  0  0  0  0  0  0
   -0.1053    1.2472   -3.6749 C   0  0  0  0  0  0  0  0  0  0  0  0
   -0.1012    0.2199   -4.0954 H   0  0  0  0  0  0  0  0  0  0  0  0
    0.4467    1.9047   -4.3684 H   0  0  0  0  0  0  0  0  0  0  0  0
   -1.1639    1.5722   -3.6427 H   0  0  0  0  0  0  0  0  0  0  0  0
   -2.4242    0.2650   -1.6821 C   0  0  0  0  0  0  0  0  0  0  0  0
   -3.2000    0.0933   -2.8449 C   0  0  0  0  0  0  0  0  0  0  0  0
   -2.8051   -0.5168   -3.6737 H   0  0  0  0  0  0  0  0  0  0  0  0
   -4.4681    0.6821   -2.9647 C   0  0  0  0  0  0  0  0  0  0  0  0
   -5.0556    0.5351   -3.8832 H   0  0  0  0  0  0  0  0  0  0  0  0
   -4.9828    1.4546   -1.9135 C   0  0  0  0  0  0  0  0  0  0  0  0
   -5.9767    1.9179   -2.0017 H   0  0  0  0  0  0  0  0  0  0  0  0
   -4.2235    1.6232   -0.7444 C   0  0  0  0  0  0  0  0  0  0  0  0
   -4.6294    2.2092    0.0947 H   0  0  0  0  0  0  0  0  0  0  0  0
   -2.9584    1.0318   -0.6302 C   0  0  0  0  0  0  0  0  0  0  0  0
   -2.3877    1.1391    0.2987 H   0  0  0  0  0  0  0  0  0  0  0  0
   -2.3750   -2.0024   -0.0157 C   0  0  0  0  0  0  0  0  0  0  0  0
   -2.8063   -1.5797    1.2530 C   0  0  0  0  0  0  0  0  0  0  0  0
   -2.1265   -0.9996    1.8899 H   0  0  0  0  0  0  0  0  0  0  0  0
   -4.0953   -1.8925    1.7096 C   0  0  0  0  0  0  0  0  0  0  0  0
   -4.4152   -1.5562    2.7076 H   0  0  0  0  0  0  0  0  0  0  0  0
   -4.9746   -2.6276    0.9002 C   0  0  0  0  0  0  0  0  0  0  0  0
   -5.9859   -2.8719    1.2578 H   0  0  0  0  0  0  0  0  0  0  0  0
   -4.5503   -3.0587   -0.3666 C   0  0  0  0  0  0  0  0  0  0  0  0
   -5.2274   -3.6440   -1.0067 H   0  0  0  0  0  0  0  0  0  0  0  0
   -3.2582   -2.7528   -0.8156 C   0  0  0  0  0  0  0  0  0  0  0  0
   -2.9313   -3.1032   -1.8081 H   0  0  0  0  0  0  0  0  0  0  0  0
   -0.1450   -3.8411    0.9619 C   0  0  0  0  0  0  0  0  0  0  0  0
   -1.2159   -3.8460    1.2441 H   0  0  0  0  0  0  0  0  0  0  0  0
    0.3881   -4.5929    1.5691 H   0  0  0  0  0  0  0  0  0  0  0  0
   -0.1010   -4.1568   -0.1014 H   0  0  0  0  0  0  0  0  0  0  0  0
    3.1694   -1.2136    3.6286 C   0  0  0  0  0  0  0  0  0  0  0  0
    4.1609   -0.8444    3.2969 H   0  0  0  0  0  0  0  0  0  0  0  0
    3.2825   -2.2161    4.0788 H   0  0  0  0  0  0  0  0  0  0  0  0
    2.8148   -0.5058    4.4059 H   0  0  0  0  0  0  0  0  0  0  0  0
  2  5  1  0  0  0  0
  5 51  1  0  0  0  0
  6  5  2  0  0  0  0
  6  7  1  0  0  0  0
  8  3  1  1  0  0  0
  8  6  1  0  0  0  0
  9 10  1  6  0  0  0
  9 36  1  0  0  0  0
  9  3  1  0  0  0  0
 11 12  1  6  0  0  0
 11  4  1  0  0  0  0
 11  9  1  0  0  0  0
 13 14  1  1  0  0  0
 13  4  1  0  0  0  0
 14 16  2  0  0  0  0
 15 14  1  0  0  0  0
 16 17  1  0  0  0  0
 16  1  1  0  0  0  0
 17 20  1  0  0  0  0
 17 18  1  0  0  0  0
 19 17  1  0  0  0  0
 21 24  1  0  0  0  0
 21 13  1  0  0  0  0
 22 21  1  0  0  0  0
 23 21  1  0  0  0  0
 25 11  1  0  0  0  0
 25 34  1  0  0  0  0
 26 25  2  0  0  0  0
 27 26  1  0  0  0  0
 28 26  1  0  0  0  0
 28 30  2  0  0  0  0
 29 28  1  0  0  0  0
 30 32  1  0  0  0  0
 31 30  1  0  0  0  0
 32 34  2  0  0  0  0
 32 33  1  0  0  0  0
 34 35  1  0  0  0  0
 36 37  1  0  0  0  0
 37 39  2  0  0  0  0
 37 38  1  0  0  0  0
 39 40  1  0  0  0  0
 41 42  1  0  0  0  0
 41 39  1  0  0  0  0
 43 41  2  0  0  0  0
 44 43  1  0  0  0  0
 45 43  1  0  0  0  0
 45 36  2  0  0  0  0
 46 45  1  0  0  0  0
 47  8  1  0  0  0  0
 47 48  1  0  0  0  0
 47 49  1  0  0  0  0
 50 47  1  0  0  0  0
 51 53  1  0  0  0  0
 51 54  1  0  0  0  0
 52 51  1  0  0  0  0
M  CHG  2   1  -1   2  -1
M  END
