1,2,25,26
 OpenBabel05122313063D

 45 46  0  0  0  0  0  0  0  0999 V2000
   -1.4197   -2.2978   -0.0740 N   0  0  0  0  0  2  0  0  0  0  0  0
   -1.2373    0.3065    0.6937 O   0  5  0  0  0  0  0  0  0  0  0  0
   -4.8711    3.2197   -0.3996 O   0  0  0  0  0  0  0  0  0  0  0  0
   -3.1073   -0.5664   -0.5385 C   0  0  0  0  0  0  0  0  0  0  0  0
   -2.3921    0.4933    0.1258 C   0  0  0  0  0  0  0  0  0  0  0  0
   -2.9969    1.7826    0.1922 C   0  0  0  0  0  0  0  0  0  0  0  0
   -2.4303    2.5644    0.7123 H   0  0  0  0  0  0  0  0  0  0  0  0
   -4.2405    2.0175   -0.4029 C   0  0  0  0  0  0  0  0  0  0  0  0
   -4.9414    0.9707   -1.0724 C   0  0  0  0  0  0  0  0  0  0  0  0
   -5.9175    1.1965   -1.5222 H   0  0  0  0  0  0  0  0  0  0  0  0
   -4.3784   -0.2913   -1.1197 C   0  0  0  0  0  3  0  0  0  0  0  0
   -4.9203   -1.1131   -1.6148 H   0  0  0  0  0  0  0  0  0  0  0  0
   -2.6071   -1.8981   -0.4870 C   0  0  0  0  0  0  0  0  0  0  0  0
   -3.3166   -2.6944   -0.7926 H   0  0  0  0  0  0  0  0  0  0  0  0
   -1.2601   -3.7391    0.1075 C   0  0  0  0  0  0  0  0  0  0  0  0
   -2.1567   -4.2626   -0.2909 H   0  0  0  0  0  0  0  0  0  0  0  0
   -1.2255   -3.9493    1.2009 H   0  0  0  0  0  0  0  0  0  0  0  0
    0.0008   -4.2868   -0.5431 C   0  0  0  0  0  0  0  0  0  0  0  0
    0.0013   -4.0558   -1.6295 H   0  0  0  0  0  0  0  0  0  0  0  0
    0.0008   -5.3918   -0.4391 H   0  0  0  0  0  0  0  0  0  0  0  0
   -4.2445    4.3078    0.2558 C   0  0  0  0  0  0  0  0  0  0  0  0
   -4.0910    4.1031    1.3387 H   0  0  0  0  0  0  0  0  0  0  0  0
   -4.9226    5.1738    0.1426 H   0  0  0  0  0  0  0  0  0  0  0  0
   -3.2602    4.5523   -0.2016 H   0  0  0  0  0  0  0  0  0  0  0  0
    1.4205   -2.2977   -0.0731 N   0  0  0  0  0  2  0  0  0  0  0  0
    1.2377    0.3063    0.6948 O   0  5  0  0  0  0  0  0  0  0  0  0
    4.8699    3.2208   -0.4005 O   0  0  0  0  0  0  0  0  0  0  0  0
    3.1078   -0.5661   -0.5375 C   0  0  0  0  0  0  0  0  0  0  0  0
    2.3923    0.4936    0.1265 C   0  0  0  0  0  0  0  0  0  0  0  0
    2.9965    1.7831    0.1922 C   0  0  0  0  0  0  0  0  0  0  0  0
    2.4296    2.5650    0.7120 H   0  0  0  0  0  0  0  0  0  0  0  0
    4.2399    2.0183   -0.4031 C   0  0  0  0  0  0  0  0  0  0  0  0
    4.9413    0.9716   -1.0722 C   0  0  0  0  0  0  0  0  0  0  0  0
    5.9172    1.1976   -1.5223 H   0  0  0  0  0  0  0  0  0  0  0  0
    4.3787   -0.2907   -1.1189 C   0  0  0  0  0  3  0  0  0  0  0  0
    4.9210   -1.1125   -1.6137 H   0  0  0  0  0  0  0  0  0  0  0  0
    2.6080   -1.8980   -0.4855 C   0  0  0  0  0  0  0  0  0  0  0  0
    3.3179   -2.6942   -0.7903 H   0  0  0  0  0  0  0  0  0  0  0  0
    1.2608   -3.7389    0.1088 C   0  0  0  0  0  0  0  0  0  0  0  0
    2.1579   -4.2625   -0.2883 H   0  0  0  0  0  0  0  0  0  0  0  0
    1.2250   -3.9486    1.2023 H   0  0  0  0  0  0  0  0  0  0  0  0
    4.2429    4.3089    0.2545 C   0  0  0  0  0  0  0  0  0  0  0  0
    4.0897    4.1047    1.3375 H   0  0  0  0  0  0  0  0  0  0  0  0
    4.9206    5.1752    0.1407 H   0  0  0  0  0  0  0  0  0  0  0  0
    3.2584    4.5528   -0.2029 H   0  0  0  0  0  0  0  0  0  0  0  0
  1 15  1  0  0  0  0
  3 21  1  0  0  0  0
  4 13  2  0  0  0  0
  4  5  1  0  0  0  0
  5  6  2  0  0  0  0
  5  2  1  0  0  0  0
  6  7  1  0  0  0  0
  8  3  1  0  0  0  0
  8  6  1  0  0  0  0
  9  8  2  0  0  0  0
 10  9  1  0  0  0  0
 11  9  1  0  0  0  0
 11  4  1  0  0  0  0
 12 11  1  0  0  0  0
 13  1  1  0  0  0  0
 14 13  1  0  0  0  0
 15 17  1  0  0  0  0
 16 15  1  0  0  0  0
 18 20  1  0  0  0  0
 18 15  1  0  0  0  0
 18 39  1  0  0  0  0
 19 18  1  0  0  0  0
 21 22  1  0  0  0  0
 23 21  1  0  0  0  0
 24 21  1  0  0  0  0
 25 39  1  0  0  0  0
 27 42  1  0  0  0  0
 28 37  2  0  0  0  0
 28 29  1  0  0  0  0
 29 30  2  0  0  0  0
 29 26  1  0  0  0  0
 30 31  1  0  0  0  0
 32 27  1  0  0  0  0
 32 30  1  0  0  0  0
 33 32  2  0  0  0  0
 34 33  1  0  0  0  0
 35 33  1  0  0  0  0
 35 28  1  0  0  0  0
 36 35  1  0  0  0  0
 37 25  1  0  0  0  0
 38 37  1  0  0  0  0
 39 41  1  0  0  0  0
 40 39  1  0  0  0  0
 42 43  1  0  0  0  0
 44 42  1  0  0  0  0
 45 42  1  0  0  0  0
M  CHG  2   2  -1  26  -1
M  END
