1,2,5,6
 OpenBabel05122313063D

 48 48  0  0  1  0  0  0  0  0999 V2000
   -1.2614   -2.0404    0.0536 O   0  5  0  0  0  0  0  0  0  0  0  0
    1.2615   -2.0403   -0.0518 O   0  0  0  0  0  1  0  0  0  0  0  0
    5.4402   -1.7521    0.1420 O   0  0  0  0  0  0  0  0  0  0  0  0
   -5.4401   -1.7522   -0.1442 O   0  0  0  0  0  0  0  0  0  0  0  0
   -1.2649    0.6497    0.1534 N   0  0  0  0  0  2  0  0  0  0  0  0
    1.2648    0.6497   -0.1529 N   0  0  0  0  0  2  0  0  0  0  0  0
   -0.6502    1.9619    0.4068 C   0  0  2  0  0  0  0  0  0  0  0  0
   -1.4901    3.2076    0.1199 C   0  0  0  0  0  0  0  0  0  0  0  0
   -0.6592    4.4712    0.3921 C   0  0  0  0  0  0  0  0  0  0  0  0
    0.6590    4.4713   -0.3912 C   0  0  0  0  0  0  0  0  0  0  0  0
    1.4899    3.2076   -0.1192 C   0  0  0  0  0  0  0  0  0  0  0  0
    0.6500    1.9620   -0.4062 C   0  0  1  0  0  0  0  0  0  0  0  0
   -2.5705    0.4782    0.1350 C   0  0  0  0  0  3  0  0  0  0  0  0
   -3.2741   -0.7541    0.0168 C   0  0  0  0  0  0  0  0  0  0  0  0
   -2.5385   -1.9880    0.0038 C   0  0  0  0  0  0  0  0  0  0  0  0
   -4.7530   -0.7308   -0.0566 C   0  0  0  0  0  0  0  0  0  0  0  0
   -5.4652    0.6262   -0.0264 C   0  0  0  0  0  0  0  0  0  0  0  0
   -3.2084   -3.3346   -0.0559 C   0  0  0  0  0  0  0  0  0  0  0  0
    2.5386   -1.9879   -0.0031 C   0  0  2  0  0  3  0  0  0  0  0  0
    3.2742   -0.7539   -0.0175 C   0  0  0  0  0  0  0  0  0  0  0  0
    2.5704    0.4783   -0.1354 C   0  0  0  0  0  0  0  0  0  0  0  0
    4.7531   -0.7306    0.0546 C   0  0  0  0  0  0  0  0  0  0  0  0
    5.4653    0.6263    0.0233 C   0  0  0  0  0  0  0  0  0  0  0  0
    3.2086   -3.3344    0.0570 C   0  0  0  0  0  0  0  0  0  0  0  0
   -0.3523    1.9825    1.4831 H   0  0  0  0  0  0  0  0  0  0  0  0
   -2.4037    3.2204    0.7490 H   0  0  0  0  0  0  0  0  0  0  0  0
   -1.8259    3.1870   -0.9404 H   0  0  0  0  0  0  0  0  0  0  0  0
   -0.4384    4.5314    1.4808 H   0  0  0  0  0  0  0  0  0  0  0  0
   -1.2549    5.3737    0.1457 H   0  0  0  0  0  0  0  0  0  0  0  0
    1.2546    5.3738   -0.1446 H   0  0  0  0  0  0  0  0  0  0  0  0
    0.4381    4.5316   -1.4798 H   0  0  0  0  0  0  0  0  0  0  0  0
    1.8257    3.1869    0.9412 H   0  0  0  0  0  0  0  0  0  0  0  0
    2.4035    3.2206   -0.7483 H   0  0  0  0  0  0  0  0  0  0  0  0
    0.3521    1.9827   -1.4825 H   0  0  0  0  0  0  0  0  0  0  0  0
   -3.1828    1.3896    0.2329 H   0  0  0  0  0  0  0  0  0  0  0  0
   -6.5493    0.4329   -0.1099 H   0  0  0  0  0  0  0  0  0  0  0  0
   -5.2725    1.1749    0.9190 H   0  0  0  0  0  0  0  0  0  0  0  0
   -5.1501    1.2827   -0.8635 H   0  0  0  0  0  0  0  0  0  0  0  0
   -2.4263   -4.1148   -0.0259 H   0  0  0  0  0  0  0  0  0  0  0  0
   -3.9277   -3.4562    0.7766 H   0  0  0  0  0  0  0  0  0  0  0  0
   -3.8227   -3.4239   -0.9728 H   0  0  0  0  0  0  0  0  0  0  0  0
    3.1826    1.3897   -0.2341 H   0  0  0  0  0  0  0  0  0  0  0  0
    6.5495    0.4331    0.1059 H   0  0  0  0  0  0  0  0  0  0  0  0
    5.2718    1.1746   -0.9222 H   0  0  0  0  0  0  0  0  0  0  0  0
    5.1510    1.2831    0.8604 H   0  0  0  0  0  0  0  0  0  0  0  0
    2.4265   -4.1147    0.0283 H   0  0  0  0  0  0  0  0  0  0  0  0
    3.9270   -3.4566   -0.7762 H   0  0  0  0  0  0  0  0  0  0  0  0
    3.8239   -3.4230    0.9733 H   0  0  0  0  0  0  0  0  0  0  0  0
  4 16  2  0  0  0  0
  5  7  1  0  0  0  0
  6 21  1  0  0  0  0
  7 25  1  1  0  0  0
  8  9  1  0  0  0  0
  8  7  1  0  0  0  0
  8 26  1  0  0  0  0
  9 28  1  0  0  0  0
 10 30  1  0  0  0  0
 10 11  1  0  0  0  0
 10  9  1  0  0  0  0
 11 32  1  0  0  0  0
 12 34  1  6  0  0  0
 12  6  1  0  0  0  0
 12 11  1  0  0  0  0
 12  7  1  0  0  0  0
 13  5  1  0  0  0  0
 13 35  1  0  0  0  0
 14 13  1  0  0  0  0
 15 14  2  0  0  0  0
 15  1  1  0  0  0  0
 16 17  1  0  0  0  0
 16 14  1  0  0  0  0
 17 37  1  0  0  0  0
 18 39  1  0  0  0  0
 18 15  1  0  0  0  0
 18 40  1  0  0  0  0
 19  2  1  6  0  0  0
 19 24  1  0  0  0  0
 20 19  1  0  0  0  0
 20 22  1  0  0  0  0
 21 20  2  0  0  0  0
 22  3  2  0  0  0  0
 23 22  1  0  0  0  0
 23 43  1  0  0  0  0
 23 45  1  0  0  0  0
 24 48  1  0  0  0  0
 27  8  1  0  0  0  0
 29  9  1  0  0  0  0
 31 10  1  0  0  0  0
 33 11  1  0  0  0  0
 36 17  1  0  0  0  0
 38 17  1  0  0  0  0
 41 18  1  0  0  0  0
 42 21  1  0  0  0  0
 44 23  1  0  0  0  0
 46 24  1  0  0  0  0
 47 24  1  0  0  0  0
M  CHG  1   1  -1
M  END
