1,2,3,4
 OpenBabel05122313063D

 82 83  0  0  1  0  0  0  0  0999 V2000
    3.1448   -1.2659    0.1519 O   0  5  0  0  0  0  0  0  0  0  0  0
    0.1338    1.0846    1.3894 O   0  0  0  0  0  1  0  0  0  0  0  0
    2.6870    1.6066    0.3635 N   0  0  0  0  0  2  0  0  0  0  0  0
    0.5519   -1.7898    1.0662 N   0  0  0  0  0  2  0  0  0  0  0  0
    3.9290    1.5979   -0.0455 C   0  0  0  0  0  0  0  0  0  0  0  0
    4.4017    2.5898   -0.2005 H   0  0  0  0  0  0  0  0  0  0  0  0
    4.3349   -0.8920   -0.2306 C   0  0  0  0  0  0  0  0  0  0  0  0
   -1.4737   -0.6586    1.9373 C   0  0  0  0  0  0  0  0  0  0  0  0
   -1.9019    1.7219    2.3554 C   0  0  0  0  0  0  0  0  0  0  0  0
   -1.5431    2.7607    2.3187 H   0  0  0  0  0  0  0  0  0  0  0  0
    1.1301   -3.0953    0.7243 C   0  0  0  0  0  0  0  0  0  0  0  0
    0.5847   -3.8794    1.2925 H   0  0  0  0  0  0  0  0  0  0  0  0
    2.1846   -3.0983    1.0554 H   0  0  0  0  0  0  0  0  0  0  0  0
   -1.0205    0.7078    1.8637 C   0  0  1  0  0  3  0  0  0  0  0  0
    6.1096    0.7492   -0.7567 C   0  0  0  0  0  3  0  0  0  0  0  0
    6.4244    1.8030   -0.8274 H   0  0  0  0  0  0  0  0  0  0  0  0
    5.2723   -1.9163   -0.5745 C   0  0  0  0  0  0  0  0  0  0  0  0
    4.9276   -2.9578   -0.4984 H   0  0  0  0  0  0  0  0  0  0  0  0
    0.3726    4.5475   -0.5263 C   0  0  0  0  0  0  0  0  0  0  0  0
   -0.2741    4.4768    0.3761 H   0  0  0  0  0  0  0  0  0  0  0  0
    1.0965    5.3640   -0.3091 H   0  0  0  0  0  0  0  0  0  0  0  0
   -0.3051   -3.3829   -1.4151 C   0  0  0  0  0  0  0  0  0  0  0  0
   -0.1967   -3.4512   -2.5193 H   0  0  0  0  0  0  0  0  0  0  0  0
   -0.7713   -2.3905   -1.2311 H   0  0  0  0  0  0  0  0  0  0  0  0
   -3.1586    1.4096    2.8608 C   0  0  0  0  0  0  0  0  0  0  0  0
   -3.8070    2.2206    3.2276 H   0  0  0  0  0  0  0  0  0  0  0  0
   -3.5630    2.5026   -1.5656 C   0  0  0  0  0  0  0  0  0  0  0  0
   -2.9734    1.5963   -1.8257 H   0  0  0  0  0  0  0  0  0  0  0  0
   -4.0828    2.8029   -2.5042 H   0  0  0  0  0  0  0  0  0  0  0  0
   -2.7742   -0.9365    2.4499 C   0  0  0  0  0  0  0  0  0  0  0  0
   -3.1028   -1.9877    2.4837 H   0  0  0  0  0  0  0  0  0  0  0  0
    1.1288    3.2274   -0.6962 C   0  0  0  0  0  0  0  0  0  0  0  0
    0.4147    2.3871   -0.8143 H   0  0  0  0  0  0  0  0  0  0  0  0
    1.7463    3.2557   -1.6219 H   0  0  0  0  0  0  0  0  0  0  0  0
   -3.6166    0.0702    2.9034 C   0  0  0  0  0  0  0  0  0  0  0  0
   -4.6158   -0.1677    3.2944 H   0  0  0  0  0  0  0  0  0  0  0  0
   -4.5903    2.1534   -0.4836 C   0  0  0  0  0  0  0  0  0  0  0  0
   -4.0444    1.9656    0.4660 H   0  0  0  0  0  0  0  0  0  0  0  0
   -5.2365    3.0387   -0.2929 H   0  0  0  0  0  0  0  0  0  0  0  0
   -0.4706    4.9508   -1.7470 C   0  0  0  0  0  0  0  0  0  0  0  0
    0.2122    5.1537   -2.6014 H   0  0  0  0  0  0  0  0  0  0  0  0
   -0.9747    5.9174   -1.5258 H   0  0  0  0  0  0  0  0  0  0  0  0
    7.0007   -0.2655   -1.0784 C   0  0  0  0  0  0  0  0  0  0  0  0
    8.0244   -0.0312   -1.4030 H   0  0  0  0  0  0  0  0  0  0  0  0
    6.5643   -1.6097   -0.9833 C   0  0  0  0  0  0  0  0  0  0  0  0
    7.2568   -2.4279   -1.2365 H   0  0  0  0  0  0  0  0  0  0  0  0
   -5.4682    0.9301   -0.7797 C   0  0  0  0  0  0  0  0  0  0  0  0
   -6.1564    0.7729    0.0804 H   0  0  0  0  0  0  0  0  0  0  0  0
   -6.1235    1.1270   -1.6586 H   0  0  0  0  0  0  0  0  0  0  0  0
   -1.2487   -4.5007   -0.9495 C   0  0  0  0  0  0  0  0  0  0  0  0
   -0.8261   -5.4806   -1.2618 H   0  0  0  0  0  0  0  0  0  0  0  0
   -1.2865   -4.5380    0.1628 H   0  0  0  0  0  0  0  0  0  0  0  0
   -1.5232    3.9237   -2.1900 C   0  0  0  0  0  0  0  0  0  0  0  0
   -2.0267    4.2998   -3.1075 H   0  0  0  0  0  0  0  0  0  0  0  0
   -1.0181    2.9815   -2.4990 H   0  0  0  0  0  0  0  0  0  0  0  0
   -2.5814    3.5952   -1.1334 C   0  0  0  0  0  0  0  0  0  0  0  0
   -2.0847    3.2577   -0.1975 H   0  0  0  0  0  0  0  0  0  0  0  0
   -3.1376    4.5215   -0.8619 H   0  0  0  0  0  0  0  0  0  0  0  0
   -2.6804   -4.3540   -1.4855 C   0  0  0  0  0  0  0  0  0  0  0  0
   -2.6386   -4.2151   -2.5898 H   0  0  0  0  0  0  0  0  0  0  0  0
   -3.2439   -5.2985   -1.3231 H   0  0  0  0  0  0  0  0  0  0  0  0
   -5.5108   -1.6369   -1.0081 C   0  0  0  0  0  0  0  0  0  0  0  0
   -5.8534   -1.8404    0.0320 H   0  0  0  0  0  0  0  0  0  0  0  0
   -6.4365   -1.4736   -1.6032 H   0  0  0  0  0  0  0  0  0  0  0  0
   -4.6685   -0.3557   -1.0183 C   0  0  0  0  0  0  0  0  0  0  0  0
   -4.1350   -0.2873   -1.9925 H   0  0  0  0  0  0  0  0  0  0  0  0
   -3.8739   -0.4257   -0.2429 H   0  0  0  0  0  0  0  0  0  0  0  0
    4.7766    0.4760   -0.3326 C   0  0  0  0  0  0  0  0  0  0  0  0
   -3.4534   -3.1853   -0.8636 C   0  0  0  0  0  0  0  0  0  0  0  0
   -3.6437   -3.3965    0.2140 H   0  0  0  0  0  0  0  0  0  0  0  0
   -2.8127   -2.2787   -0.8767 H   0  0  0  0  0  0  0  0  0  0  0  0
   -4.7755   -2.8640   -1.5659 C   0  0  0  0  0  0  0  0  0  0  0  0
   -5.4440   -3.7524   -1.5279 H   0  0  0  0  0  0  0  0  0  0  0  0
   -4.5656   -2.6921   -2.6465 H   0  0  0  0  0  0  0  0  0  0  0  0
    2.0306    2.9102    0.5005 C   0  0  0  0  0  0  0  0  0  0  0  0
    2.8100    3.6958    0.6135 H   0  0  0  0  0  0  0  0  0  0  0  0
    1.4170    2.8926    1.4207 H   0  0  0  0  0  0  0  0  0  0  0  0
   -0.6664   -1.7783    1.5418 C   0  0  0  0  0  0  0  0  0  0  0  0
   -1.1519   -2.7660    1.6759 H   0  0  0  0  0  0  0  0  0  0  0  0
    1.0900   -3.3902   -0.7839 C   0  0  0  0  0  0  0  0  0  0  0  0
    1.7366   -2.6448   -1.2881 H   0  0  0  0  0  0  0  0  0  0  0  0
    1.5746   -4.3803   -0.9354 H   0  0  0  0  0  0  0  0  0  0  0  0
  3 75  1  0  0  0  0
  4 78  1  0  0  0  0
  5  3  1  0  0  0  0
  6  5  1  0  0  0  0
  7  1  1  0  0  0  0
  8 30  1  0  0  0  0
  9 25  2  0  0  0  0
 10  9  1  0  0  0  0
 11 13  1  0  0  0  0
 11  4  1  0  0  0  0
 11 12  1  0  0  0  0
 14  2  1  1  0  0  0
 14  8  1  0  0  0  0
 14  9  1  0  0  0  0
 15 68  1  0  0  0  0
 16 15  1  0  0  0  0
 17 18  1  0  0  0  0
 17  7  2  0  0  0  0
 19 21  1  0  0  0  0
 19 20  1  0  0  0  0
 22 24  1  0  0  0  0
 22 50  1  0  0  0  0
 22 80  1  0  0  0  0
 23 22  1  0  0  0  0
 25 35  1  0  0  0  0
 25 26  1  0  0  0  0
 27 56  1  0  0  0  0
 27 37  1  0  0  0  0
 28 27  1  0  0  0  0
 29 27  1  0  0  0  0
 30 31  1  0  0  0  0
 30 35  2  0  0  0  0
 32 19  1  0  0  0  0
 32 75  1  0  0  0  0
 33 32  1  0  0  0  0
 34 32  1  0  0  0  0
 35 36  1  0  0  0  0
 37 39  1  0  0  0  0
 37 38  1  0  0  0  0
 40 42  1  0  0  0  0
 40 19  1  0  0  0  0
 41 40  1  0  0  0  0
 43 45  2  0  0  0  0
 43 15  1  0  0  0  0
 44 43  1  0  0  0  0
 45 17  1  0  0  0  0
 46 45  1  0  0  0  0
 47 37  1  0  0  0  0
 47 48  1  0  0  0  0
 49 47  1  0  0  0  0
 50 52  1  0  0  0  0
 51 50  1  0  0  0  0
 53 40  1  0  0  0  0
 53 56  1  0  0  0  0
 54 53  1  0  0  0  0
 55 53  1  0  0  0  0
 56 58  1  0  0  0  0
 56 57  1  0  0  0  0
 59 61  1  0  0  0  0
 59 50  1  0  0  0  0
 59 69  1  0  0  0  0
 60 59  1  0  0  0  0
 62 63  1  0  0  0  0
 64 62  1  0  0  0  0
 65 62  1  0  0  0  0
 65 47  1  0  0  0  0
 65 67  1  0  0  0  0
 66 65  1  0  0  0  0
 68  7  1  0  0  0  0
 68  5  2  0  0  0  0
 69 70  1  0  0  0  0
 71 69  1  0  0  0  0
 72 73  1  0  0  0  0
 72 62  1  0  0  0  0
 72 69  1  0  0  0  0
 74 72  1  0  0  0  0
 75 76  1  0  0  0  0
 75 77  1  0  0  0  0
 78 79  1  0  0  0  0
 78  8  2  0  0  0  0
 80 11  1  0  0  0  0
 81 80  1  0  0  0  0
 82 80  1  0  0  0  0
M  CHG  1   1  -1
M  END
