1,2,3,4
 OpenBabel05122313063D

 36 38  0  0  0  0  0  0  0  0999 V2000
   -1.3496   -1.5685   -0.6593 O   0  5  0  0  0  0  0  0  0  0  0  0
    1.3496   -1.5682    0.6595 O   0  5  0  0  0  0  0  0  0  0  0  0
   -1.2937    1.0031    0.2779 N   0  0  0  0  0  2  0  0  0  0  0  0
    1.2940    1.0033   -0.2782 N   0  0  0  0  0  2  0  0  0  0  0  0
   -3.3075   -0.3757    0.1537 C   0  0  0  0  0  0  0  0  0  0  0  0
   -2.6065   -1.5570   -0.3821 C   0  0  0  0  0  0  0  0  0  0  0  0
   -3.4021   -2.7249   -0.5959 C   0  0  0  0  0  0  0  0  0  0  0  0
   -2.8824   -3.6140   -0.9804 H   0  0  0  0  0  0  0  0  0  0  0  0
   -4.7656   -2.7401   -0.3262 C   0  0  0  0  0  0  0  0  0  0  0  0
   -5.3350   -3.6644   -0.5124 H   0  0  0  0  0  0  0  0  0  0  0  0
   -5.4342   -1.5966    0.1768 C   0  0  0  0  0  0  0  0  0  0  0  0
   -6.5139   -1.6287    0.3802 H   0  0  0  0  0  0  0  0  0  0  0  0
   -4.7085   -0.4360    0.4041 C   0  0  0  0  0  0  0  0  0  0  0  0
   -5.1972    0.4733    0.7824 H   0  0  0  0  0  0  0  0  0  0  0  0
   -2.5488    0.7854    0.3508 C   0  0  0  0  0  2  0  0  0  0  0  0
   -0.6892    2.2732    0.1533 C   0  0  0  0  0  0  0  0  0  0  0  0
    0.6893    2.2733   -0.1533 C   0  0  0  0  0  0  0  0  0  0  0  0
    1.3799    3.4916   -0.3053 C   0  0  0  0  0  0  0  0  0  0  0  0
    2.4520    3.4613   -0.5455 H   0  0  0  0  0  0  0  0  0  0  0  0
    0.6880    4.6964   -0.1554 C   0  0  0  0  0  0  0  0  0  0  0  0
    1.2228    5.6494   -0.2818 H   0  0  0  0  0  0  0  0  0  0  0  0
   -0.6879    4.6964    0.1556 C   0  0  0  0  0  0  0  0  0  0  0  0
   -1.2228    5.6493    0.2821 H   0  0  0  0  0  0  0  0  0  0  0  0
   -1.3798    3.4915    0.3054 C   0  0  0  0  0  0  0  0  0  0  0  0
   -2.4519    3.4611    0.5456 H   0  0  0  0  0  0  0  0  0  0  0  0
    2.5490    0.7854   -0.3508 C   0  0  0  0  0  2  0  0  0  0  0  0
    3.3076   -0.3758   -0.1536 C   0  0  0  0  0  0  0  0  0  0  0  0
    2.6065   -1.5569    0.3823 C   0  0  0  0  0  0  0  0  0  0  0  0
    3.4019   -2.7249    0.5961 C   0  0  0  0  0  0  0  0  0  0  0  0
    2.8821   -3.6139    0.9807 H   0  0  0  0  0  0  0  0  0  0  0  0
    4.7655   -2.7403    0.3262 C   0  0  0  0  0  0  0  0  0  0  0  0
    5.3347   -3.6646    0.5124 H   0  0  0  0  0  0  0  0  0  0  0  0
    5.4341   -1.5969   -0.1769 C   0  0  0  0  0  0  0  0  0  0  0  0
    6.5138   -1.6292   -0.3805 H   0  0  0  0  0  0  0  0  0  0  0  0
    4.7086   -0.4362   -0.4043 C   0  0  0  0  0  0  0  0  0  0  0  0
    5.1974    0.4730   -0.7827 H   0  0  0  0  0  0  0  0  0  0  0  0
  1  6  1  0  0  0  0
  3 15  1  0  0  0  0
  4 17  1  0  0  0  0
  5 15  1  0  0  0  0
  5 13  1  0  0  0  0
  6  5  2  0  0  0  0
  7  6  1  0  0  0  0
  7  9  2  0  0  0  0
  8  7  1  0  0  0  0
  9 11  1  0  0  0  0
 10  9  1  0  0  0  0
 11 12  1  0  0  0  0
 11 13  2  0  0  0  0
 13 14  1  0  0  0  0
 16  3  1  0  0  0  0
 16 24  1  0  0  0  0
 17 16  2  0  0  0  0
 18 20  2  0  0  0  0
 18 17  1  0  0  0  0
 19 18  1  0  0  0  0
 20 22  1  0  0  0  0
 21 20  1  0  0  0  0
 22 23  1  0  0  0  0
 22 24  2  0  0  0  0
 24 25  1  0  0  0  0
 26  4  1  0  0  0  0
 26 27  1  0  0  0  0
 27 28  1  0  0  0  0
 28 29  2  0  0  0  0
 28  2  1  0  0  0  0
 29 30  1  0  0  0  0
 31 32  1  0  0  0  0
 31 29  1  0  0  0  0
 33 31  2  0  0  0  0
 34 33  1  0  0  0  0
 35 33  1  0  0  0  0
 35 27  2  0  0  0  0
 36 35  1  0  0  0  0
M  CHG  2   1  -1   2  -1
M  END
