6,11,14,36
 OpenBabel05122313063D

 50 51  0  0  0  0  0  0  0  0999 V2000
    4.2315   -0.0492    0.3059 O   0  0  0  0  0  0  0  0  0  0  0  0
   -4.1627    2.6956   -0.5265 C   0  0  0  0  0  0  0  0  0  0  0  0
   -4.2378    2.2730    0.4955 H   0  0  0  0  0  0  0  0  0  0  0  0
   -4.1518    1.8528   -1.2462 H   0  0  0  0  0  0  0  0  0  0  0  0
   -5.0605    3.3156   -0.7187 H   0  0  0  0  0  0  0  0  0  0  0  0
    0.1291    0.9823   -0.0286 O   0  5  0  0  0  0  0  0  0  0  0  0
   -3.0648   -1.5329    0.6648 O   0  0  0  0  0  0  0  0  0  0  0  0
    0.5006    2.1948   -0.2820 C   0  0  0  0  0  0  0  0  0  0  0  0
   -2.6124   -1.8515   -0.5755 C   0  0  0  0  0  0  0  0  0  0  0  0
   -1.1812   -1.9572   -0.6498 C   0  0  0  0  0  0  0  0  0  0  0  0
   -0.4593   -1.8068    0.4346 O   0  5  0  0  0  0  0  0  0  0  0  0
   -1.7957    2.6714   -0.4233 O   0  0  0  0  0  0  0  0  0  0  0  0
    3.0152   -1.7970   -1.7859 O   0  0  0  0  0  0  0  0  0  0  0  0
    2.9547    0.5080    0.1355 N   0  0  0  0  0  2  0  0  0  0  0  0
    1.8673    2.6530   -0.3561 C   0  0  0  0  0  0  0  0  0  0  0  0
   -0.5376    3.1821   -0.5147 C   0  0  0  0  0  0  0  0  0  0  0  0
   -0.5878   -2.2177   -1.9264 C   0  0  0  0  0  0  0  0  0  0  0  0
    1.1296    4.9337   -0.8700 C   0  0  0  0  0  0  0  0  0  0  0  0
    1.3575    5.9851   -1.0974 H   0  0  0  0  0  0  0  0  0  0  0  0
   -0.2240    4.5101   -0.8011 C   0  0  0  0  0  0  0  0  0  0  0  0
   -1.0246    5.2425   -0.9762 H   0  0  0  0  0  0  0  0  0  0  0  0
   -2.8016   -2.3663   -2.9553 C   0  0  0  0  0  0  0  0  0  0  0  0
   -3.4390   -2.5326   -3.8356 H   0  0  0  0  0  0  0  0  0  0  0  0
    4.0465   -2.2045   -0.8927 C   0  0  0  0  0  0  0  0  0  0  0  0
    4.9689   -2.0210   -1.4791 H   0  0  0  0  0  0  0  0  0  0  0  0
    3.9779   -3.2983   -0.6779 H   0  0  0  0  0  0  0  0  0  0  0  0
    2.9958    1.7833   -0.1491 C   0  0  0  0  0  3  0  0  0  0  0  0
    4.0052    2.2301   -0.2383 H   0  0  0  0  0  0  0  0  0  0  0  0
   -4.5671   -0.5826    2.2327 C   0  0  0  0  0  0  0  0  0  0  0  0
   -3.9076    0.2995    2.3537 H   0  0  0  0  0  0  0  0  0  0  0  0
   -4.2704   -1.3320    2.9924 H   0  0  0  0  0  0  0  0  0  0  0  0
   -5.6151   -0.2776    2.4227 H   0  0  0  0  0  0  0  0  0  0  0  0
    4.1331   -1.4584    0.4404 C   0  0  0  0  0  0  0  0  0  0  0  0
    3.2955   -1.7184    1.1269 H   0  0  0  0  0  0  0  0  0  0  0  0
    5.0689   -1.7767    0.9447 H   0  0  0  0  0  0  0  0  0  0  0  0
    1.7364   -1.8991   -1.2117 N   0  0  0  0  0  2  0  0  0  0  0  0
    2.1499    4.0235   -0.6518 C   0  0  0  0  0  0  0  0  0  0  0  0
    3.2027    4.3432   -0.7035 H   0  0  0  0  0  0  0  0  0  0  0  0
   -2.8988    3.5257   -0.6675 C   0  0  0  0  0  0  0  0  0  0  0  0
   -2.8256    3.9688   -1.6900 H   0  0  0  0  0  0  0  0  0  0  0  0
   -2.8983    4.3778    0.0548 H   0  0  0  0  0  0  0  0  0  0  0  0
   -3.4026   -2.0624   -1.7077 C   0  0  0  0  0  0  0  0  0  0  0  0
   -4.4971   -1.9914   -1.6371 H   0  0  0  0  0  0  0  0  0  0  0  0
   -4.4242   -1.1528    0.8340 C   0  0  0  0  0  0  0  0  0  0  0  0
   -5.0910   -2.0353    0.6847 H   0  0  0  0  0  0  0  0  0  0  0  0
   -4.7001   -0.3949    0.0642 H   0  0  0  0  0  0  0  0  0  0  0  0
   -1.4205   -2.4379   -3.0645 C   0  0  0  0  0  0  0  0  0  0  0  0
   -0.9456   -2.6463   -4.0356 H   0  0  0  0  0  0  0  0  0  0  0  0
    0.8402   -2.2064   -2.1180 C   0  0  0  0  0  3  0  0  0  0  0  0
    1.2236   -2.4289   -3.1331 H   0  0  0  0  0  0  0  0  0  0  0  0
  1 33  1  0  0  0  0
  2  3  1  0  0  0  0
  4  2  1  0  0  0  0
  5  2  1  0  0  0  0
  7 44  1  0  0  0  0
  8  6  1  0  0  0  0
  9  7  1  0  0  0  0
 10  9  1  0  0  0  0
 10 11  1  0  0  0  0
 13 36  1  0  0  0  0
 13 24  1  0  0  0  0
 14  1  1  0  0  0  0
 15  8  1  0  0  0  0
 15 27  1  0  0  0  0
 16 12  1  0  0  0  0
 16  8  2  0  0  0  0
 17 10  2  0  0  0  0
 18 20  2  0  0  0  0
 18 37  1  0  0  0  0
 19 18  1  0  0  0  0
 20 16  1  0  0  0  0
 21 20  1  0  0  0  0
 22 42  1  0  0  0  0
 23 22  1  0  0  0  0
 24 26  1  0  0  0  0
 24 33  1  0  0  0  0
 25 24  1  0  0  0  0
 27 14  1  0  0  0  0
 28 27  1  0  0  0  0
 29 30  1  0  0  0  0
 29 32  1  0  0  0  0
 29 31  1  0  0  0  0
 33 35  1  0  0  0  0
 33 34  1  0  0  0  0
 37 15  2  0  0  0  0
 38 37  1  0  0  0  0
 39  2  1  0  0  0  0
 39 12  1  0  0  0  0
 39 41  1  0  0  0  0
 40 39  1  0  0  0  0
 42 43  1  0  0  0  0
 42  9  2  0  0  0  0
 44 29  1  0  0  0  0
 45 44  1  0  0  0  0
 46 44  1  0  0  0  0
 47 22  2  0  0  0  0
 47 17  1  0  0  0  0
 48 47  1  0  0  0  0
 49 17  1  0  0  0  0
 49 36  1  0  0  0  0
 50 49  1  0  0  0  0
M  CHG  2   6  -1  11  -1
M  END
