1,2,3,4
 OpenBabel05122313063D

 34 33  0  0  1  0  0  0  0  0999 V2000
   -0.6021   -2.0205    0.1179 O   0  5  0  0  0  0  0  0  0  0  0  0
   -0.2199    0.1526    1.6640 O   0  0  0  0  0  1  0  0  0  0  0  0
   -2.4018    0.2339   -0.3843 N   0  0  0  0  0  2  0  0  0  0  0  0
   -0.4621    1.9818   -0.2868 N   0  0  0  0  0  2  0  0  0  0  0  0
   -1.7373   -2.6449    0.2571 C   0  0  0  0  0  0  0  0  0  0  0  0
   -3.0071   -2.0604    0.1486 C   0  0  0  0  0  0  0  0  0  0  0  0
   -3.8605   -2.7298    0.3137 H   0  0  0  0  0  0  0  0  0  0  0  0
   -3.3284   -0.7124   -0.1524 C   0  0  1  0  0  3  0  0  0  0  0  0
   -2.8126    1.6234   -0.6504 C   0  0  0  0  0  0  0  0  0  0  0  0
   -3.2211    2.0889    0.2750 H   0  0  0  0  0  0  0  0  0  0  0  0
   -3.6097    1.6653   -1.4210 H   0  0  0  0  0  0  0  0  0  0  0  0
   -1.5850    2.4096   -1.1347 C   0  0  0  0  0  0  0  0  0  0  0  0
   -1.3577    2.1531   -2.1911 H   0  0  0  0  0  0  0  0  0  0  0  0
   -1.7816    3.4968   -1.0784 H   0  0  0  0  0  0  0  0  0  0  0  0
    0.1125    2.8158    0.5970 C   0  0  2  0  0  3  0  0  0  0  0  0
    0.7133    2.3288    1.7846 C   0  0  0  0  0  3  0  0  0  0  0  0
    1.2159    3.0589    2.4326 H   0  0  0  0  0  0  0  0  0  0  0  0
    0.3788    1.0780    2.3432 C   0  0  1  0  0  3  0  0  0  0  0  0
   -1.5901   -4.1069    0.5673 C   0  0  0  0  0  0  0  0  0  0  0  0
   -0.9987   -4.5945   -0.2349 H   0  0  0  0  0  0  0  0  0  0  0  0
   -2.5614   -4.6218    0.6694 H   0  0  0  0  0  0  0  0  0  0  0  0
   -1.0096   -4.2272    1.5053 H   0  0  0  0  0  0  0  0  0  0  0  0
   -4.7864   -0.3380   -0.2057 C   0  0  0  0  0  0  0  0  0  0  0  0
   -5.0084    0.4958    0.4919 H   0  0  0  0  0  0  0  0  0  0  0  0
   -5.4318   -1.1940    0.0552 H   0  0  0  0  0  0  0  0  0  0  0  0
   -5.0693    0.0112   -1.2208 H   0  0  0  0  0  0  0  0  0  0  0  0
    0.0249    4.3078    0.3968 C   0  0  0  0  0  0  0  0  0  0  0  0
    0.1913    4.5917   -0.6607 H   0  0  0  0  0  0  0  0  0  0  0  0
    0.7758    4.8209    1.0245 H   0  0  0  0  0  0  0  0  0  0  0  0
   -0.9702    4.6979    0.7003 H   0  0  0  0  0  0  0  0  0  0  0  0
    0.5942    0.7961    3.8037 C   0  0  0  0  0  0  0  0  0  0  0  0
   -0.3932    0.7524    4.3099 H   0  0  0  0  0  0  0  0  0  0  0  0
    1.2087    1.5697    4.2983 H   0  0  0  0  0  0  0  0  0  0  0  0
    1.0595   -0.2000    3.9404 H   0  0  0  0  0  0  0  0  0  0  0  0
  1  5  1  0  0  0  0
  5 19  1  0  0  0  0
  6  5  2  0  0  0  0
  6  7  1  0  0  0  0
  8  3  1  1  0  0  0
  8  6  1  0  0  0  0
  9  3  1  0  0  0  0
  9 10  1  0  0  0  0
 11  9  1  0  0  0  0
 12 14  1  0  0  0  0
 12  9  1  0  0  0  0
 12  4  1  0  0  0  0
 13 12  1  0  0  0  0
 15  4  1  1  0  0  0
 15 16  1  0  0  0  0
 16 18  1  0  0  0  0
 16 17  1  0  0  0  0
 18  2  1  1  0  0  0
 18 31  1  0  0  0  0
 19 21  1  0  0  0  0
 19 22  1  0  0  0  0
 20 19  1  0  0  0  0
 23  8  1  0  0  0  0
 23 25  1  0  0  0  0
 23 24  1  0  0  0  0
 26 23  1  0  0  0  0
 27 15  1  0  0  0  0
 27 30  1  0  0  0  0
 27 29  1  0  0  0  0
 28 27  1  0  0  0  0
 31 34  1  0  0  0  0
 31 33  1  0  0  0  0
 31 32  1  0  0  0  0
M  CHG  1   1  -1
M  END
