2,5,23,30
 OpenBabel05122313063D

 56 58  0  0  1  0  0  0  0  0999 V2000
    3.0709   -1.6806   -1.0043 C   0  0  0  0  0  0  0  0  0  0  0  0
    1.7965   -1.9961   -0.9017 N   0  0  0  0  0  2  0  0  0  0  0  0
    1.2457   -3.0676   -1.7296 C   0  0  0  0  0  0  0  0  0  0  0  0
   -0.2037   -2.7010   -2.0007 C   0  0  0  0  0  0  0  0  0  0  0  0
   -0.8212   -2.2415   -0.7210 N   0  0  0  0  0  0  0  0  0  0  0  0
   -1.2410   -3.4193    0.0775 C   0  0  0  0  0  0  0  0  0  0  0  0
   -1.9768   -1.2900   -0.9605 C   0  0  2  0  0  0  0  0  0  0  0  0
   -1.4715    0.0190   -1.6167 C   0  0  0  0  0  0  0  0  0  0  0  0
   -2.7930    1.2316   -1.9404 S   0  0  0  0  0  0  0  0  0  0  0  0
   -2.6572    2.2884   -0.4247 C   0  0  0  0  0  0  0  0  0  0  0  0
   -1.3358    3.0047   -0.3474 C   0  0  0  0  0  0  0  0  0  0  0  0
   -1.1033    4.1565   -1.1302 C   0  0  0  0  0  0  0  0  0  0  0  0
    0.1419    4.7964   -1.1134 C   0  0  0  0  0  0  0  0  0  0  0  0
    1.1861    4.2849   -0.3223 C   0  0  0  0  0  0  0  0  0  0  0  0
    0.9691    3.1388    0.4549 C   0  0  0  0  0  0  0  0  0  0  0  0
   -0.2854    2.5046    0.4518 C   0  0  0  0  0  0  0  0  0  0  0  0
    3.7473   -0.7289   -0.1872 C   0  0  0  0  0  0  0  0  0  0  0  0
    5.1230   -0.4418   -0.4259 C   0  0  0  0  0  3  0  0  0  0  0  0
    5.8203    0.4603    0.3640 C   0  0  0  0  0  0  0  0  0  0  0  0
    5.1454    1.0999    1.4365 C   0  0  0  0  0  0  0  0  0  0  0  0
    3.8064    0.8437    1.7004 C   0  0  0  0  0  0  0  0  0  0  0  0
    3.0512   -0.0695    0.8963 C   0  0  0  0  0  0  0  0  0  0  0  0
    1.7987   -0.2594    1.1865 O   0  5  0  0  0  0  0  0  0  0  0  0
   -2.7144   -1.0185    0.3249 C   0  0  0  0  0  0  0  0  0  0  0  0
   -4.1198   -1.0085    0.3558 C   0  0  0  0  0  0  0  0  0  0  0  0
   -4.8216   -0.6445    1.5122 C   0  0  0  0  0  0  0  0  0  0  0  0
   -4.0926   -0.2882    2.6632 C   0  0  0  0  0  0  0  0  0  0  0  0
   -2.6960   -0.3038    2.6599 C   0  0  0  0  0  0  0  0  0  0  0  0
   -1.9660   -0.6672    1.4913 C   0  0  0  0  0  0  0  0  0  0  0  0
   -0.6471   -0.6532    1.5390 O   0  5  0  0  0  0  0  0  0  0  0  0
    3.6671   -2.2011   -1.7806 H   0  0  0  0  0  0  0  0  0  0  0  0
    1.8103   -3.1900   -2.6794 H   0  0  0  0  0  0  0  0  0  0  0  0
    1.3174   -4.0352   -1.1836 H   0  0  0  0  0  0  0  0  0  0  0  0
   -0.2329   -1.8633   -2.7191 H   0  0  0  0  0  0  0  0  0  0  0  0
   -0.7866   -3.5453   -2.4288 H   0  0  0  0  0  0  0  0  0  0  0  0
   -1.5631   -3.0995    1.0820 H   0  0  0  0  0  0  0  0  0  0  0  0
   -0.3876   -4.1148    0.1772 H   0  0  0  0  0  0  0  0  0  0  0  0
   -2.0850   -3.9448   -0.4211 H   0  0  0  0  0  0  0  0  0  0  0  0
   -2.6735   -1.7967   -1.6676 H   0  0  0  0  0  0  0  0  0  0  0  0
   -0.7028    0.4936   -0.9690 H   0  0  0  0  0  0  0  0  0  0  0  0
   -0.9954   -0.1627   -2.5999 H   0  0  0  0  0  0  0  0  0  0  0  0
   -2.8513    1.6597    0.4656 H   0  0  0  0  0  0  0  0  0  0  0  0
   -3.5017    2.9973   -0.5384 H   0  0  0  0  0  0  0  0  0  0  0  0
   -1.9133    4.5453   -1.7679 H   0  0  0  0  0  0  0  0  0  0  0  0
    0.3029    5.6981   -1.7244 H   0  0  0  0  0  0  0  0  0  0  0  0
    2.1690    4.7807   -0.3154 H   0  0  0  0  0  0  0  0  0  0  0  0
    1.7809    2.7218    1.0685 H   0  0  0  0  0  0  0  0  0  0  0  0
   -0.4295    1.6035    1.0692 H   0  0  0  0  0  0  0  0  0  0  0  0
    5.6278   -0.9579   -1.2588 H   0  0  0  0  0  0  0  0  0  0  0  0
    6.8807    0.6739    0.1679 H   0  0  0  0  0  0  0  0  0  0  0  0
    5.6927    1.8107    2.0756 H   0  0  0  0  0  0  0  0  0  0  0  0
    3.2807    1.3247    2.5381 H   0  0  0  0  0  0  0  0  0  0  0  0
   -4.6691   -1.2712   -0.5621 H   0  0  0  0  0  0  0  0  0  0  0  0
   -5.9210   -0.6355    1.5172 H   0  0  0  0  0  0  0  0  0  0  0  0
   -4.6251    0.0038    3.5822 H   0  0  0  0  0  0  0  0  0  0  0  0
   -2.1145   -0.0315    3.5528 H   0  0  0  0  0  0  0  0  0  0  0  0
  1  2  1  0  0  0  0
  1 17  2  0  0  0  0
  3 33  1  0  0  0  0
  3  2  1  0  0  0  0
  4  3  1  0  0  0  0
  4  5  1  0  0  0  0
  5  6  1  0  0  0  0
  6 37  1  0  0  0  0
  6 36  1  0  0  0  0
  7 39  1  6  0  0  0
  7  5  1  0  0  0  0
  7 24  1  0  0  0  0
  8 40  1  0  0  0  0
  8  7  1  0  0  0  0
  9  8  1  0  0  0  0
  9 10  1  0  0  0  0
 10 11  1  0  0  0  0
 10 42  1  0  0  0  0
 11 16  1  0  0  0  0
 12 13  1  0  0  0  0
 12 11  2  0  0  0  0
 13 14  2  0  0  0  0
 14 46  1  0  0  0  0
 14 15  1  0  0  0  0
 15 47  1  0  0  0  0
 16 15  2  0  0  0  0
 16 48  1  0  0  0  0
 17 22  1  0  0  0  0
 18 17  1  0  0  0  0
 18 19  1  0  0  0  0
 19 20  2  0  0  0  0
 20 21  1  0  0  0  0
 20 51  1  0  0  0  0
 21 52  1  0  0  0  0
 22 23  1  0  0  0  0
 22 21  2  0  0  0  0
 24 25  2  0  0  0  0
 24 29  1  0  0  0  0
 25 26  1  0  0  0  0
 26 54  1  0  0  0  0
 26 27  2  0  0  0  0
 27 55  1  0  0  0  0
 28 27  1  0  0  0  0
 28 56  1  0  0  0  0
 29 30  1  0  0  0  0
 29 28  2  0  0  0  0
 31  1  1  0  0  0  0
 32  3  1  0  0  0  0
 34  4  1  0  0  0  0
 35  4  1  0  0  0  0
 38  6  1  0  0  0  0
 41  8  1  0  0  0  0
 43 10  1  0  0  0  0
 44 12  1  0  0  0  0
 45 13  1  0  0  0  0
 49 18  1  0  0  0  0
 50 19  1  0  0  0  0
 53 25  1  0  0  0  0
M  CHG  2  23  -1  30  -1
M  END
