2,3,4,5
 OpenBabel05122313063D

 53 55  0  0  1  0  0  0  0  0999 V2000
    3.1595    0.8844    0.4207 S   0  0  0  0  0  0  0  0  0  0  0  0
   -2.2365   -0.4237   -1.1632 O   0  0  0  0  0  1  0  0  0  0  0  0
   -0.1419   -1.8004   -1.2788 O   0  5  0  0  0  0  0  0  0  0  0  0
   -2.1663   -0.5053    1.5514 N   0  0  0  0  0  2  0  0  0  0  0  0
    0.1706   -1.7051    1.4681 N   0  0  0  0  0  0  0  0  0  0  0  0
   -0.1929   -1.0755    2.7723 C   0  0  0  0  0  0  0  0  0  0  0  0
    0.2494   -1.6515    3.6137 H   0  0  0  0  0  0  0  0  0  0  0  0
    0.2316   -0.0555    2.7972 H   0  0  0  0  0  0  0  0  0  0  0  0
   -1.7081   -0.9918    2.8520 C   0  0  0  0  0  0  0  0  0  0  0  0
   -2.0286   -0.3240    3.6810 H   0  0  0  0  0  0  0  0  0  0  0  0
   -2.1506   -1.9934    3.0540 H   0  0  0  0  0  0  0  0  0  0  0  0
   -3.2586    0.2277    1.4778 C   0  0  0  0  0  0  0  0  0  0  0  0
   -3.7570    0.5022    2.4292 H   0  0  0  0  0  0  0  0  0  0  0  0
   -5.0114    1.5213    0.3237 C   0  0  0  0  0  0  0  0  0  0  0  0
   -5.6185    1.9889   -0.8320 C   0  0  0  0  0  0  0  0  0  0  0  0
   -5.0677    1.6318   -2.0913 C   0  0  0  0  0  0  0  0  0  0  0  0
   -3.9397    0.8280   -2.1837 C   0  0  0  0  0  0  0  0  0  0  0  0
   -3.2851    0.3283   -1.0120 C   0  0  1  0  0  3  0  0  0  0  0  0
   -3.8505    0.6949    0.2696 C   0  0  0  0  0  0  0  0  0  0  0  0
   -5.4212    1.7829    1.3129 H   0  0  0  0  0  0  0  0  0  0  0  0
   -6.5131    2.6255   -0.7768 H   0  0  0  0  0  0  0  0  0  0  0  0
   -5.5438    1.9976   -3.0147 H   0  0  0  0  0  0  0  0  0  0  0  0
   -3.5073    0.5455   -3.1542 H   0  0  0  0  0  0  0  0  0  0  0  0
    0.0946   -3.1815    1.5917 C   0  0  0  0  0  0  0  0  0  0  0  0
    0.2095   -3.6510    0.6012 H   0  0  0  0  0  0  0  0  0  0  0  0
   -0.8905   -3.4573    2.0104 H   0  0  0  0  0  0  0  0  0  0  0  0
    0.8969   -3.5574    2.2638 H   0  0  0  0  0  0  0  0  0  0  0  0
    1.5303   -1.2497    0.9815 C   0  0  1  0  0  0  0  0  0  0  0  0
    2.2404   -1.3612    1.8339 H   0  0  0  0  0  0  0  0  0  0  0  0
    3.2850   -2.6464   -0.2119 C   0  0  0  0  0  0  0  0  0  0  0  0
    3.7309   -3.3671   -1.3275 C   0  0  0  0  0  0  0  0  0  0  0  0
    2.8557   -3.5353   -2.4180 C   0  0  0  0  0  0  0  0  0  0  0  0
    1.5632   -3.0060   -2.3942 C   0  0  0  0  0  0  0  0  0  0  0  0
    1.0897   -2.2700   -1.2703 C   0  0  0  0  0  0  0  0  0  0  0  0
    1.9931   -2.0966   -0.1723 C   0  0  0  0  0  0  0  0  0  0  0  0
    3.9545   -2.4935    0.6508 H   0  0  0  0  0  0  0  0  0  0  0  0
    4.7457   -3.7894   -1.3497 H   0  0  0  0  0  0  0  0  0  0  0  0
    3.1889   -4.0971   -3.3051 H   0  0  0  0  0  0  0  0  0  0  0  0
    0.8711   -3.1386   -3.2386 H   0  0  0  0  0  0  0  0  0  0  0  0
    1.4581    0.2339    0.5632 C   0  0  0  0  0  0  0  0  0  0  0  0
    0.9298    0.3023   -0.4095 H   0  0  0  0  0  0  0  0  0  0  0  0
    0.9185    0.8648    1.2978 H   0  0  0  0  0  0  0  0  0  0  0  0
    1.6020    3.1539   -0.2082 C   0  0  0  0  0  0  0  0  0  0  0  0
    1.4750    4.5342   -0.4323 C   0  0  0  0  0  0  0  0  0  0  0  0
    2.5846    5.3851   -0.3288 C   0  0  0  0  0  0  0  0  0  0  0  0
    3.8372    4.8412    0.0044 C   0  0  0  0  0  0  0  0  0  0  0  0
    3.9768    3.4687    0.2389 C   0  0  0  0  0  0  0  0  0  0  0  0
    2.8582    2.6092    0.1355 C   0  0  0  0  0  0  0  0  0  0  0  0
    0.7185    2.5111   -0.3210 H   0  0  0  0  0  0  0  0  0  0  0  0
    0.4885    4.9427   -0.7004 H   0  0  0  0  0  0  0  0  0  0  0  0
    2.4767    6.4650   -0.5082 H   0  0  0  0  0  0  0  0  0  0  0  0
    4.7189    5.4949    0.0896 H   0  0  0  0  0  0  0  0  0  0  0  0
    4.9588    3.0505    0.5096 H   0  0  0  0  0  0  0  0  0  0  0  0
  1 40  1  0  0  0  0
  3 34  1  0  0  0  0
  4  9  1  0  0  0  0
  5 24  1  0  0  0  0
  5  6  1  0  0  0  0
  6  8  1  0  0  0  0
  6  9  1  0  0  0  0
  6  7  1  0  0  0  0
  9 11  1  0  0  0  0
  9 10  1  0  0  0  0
 12  4  1  0  0  0  0
 12 13  1  0  0  0  0
 14 20  1  0  0  0  0
 15 21  1  0  0  0  0
 15 14  2  0  0  0  0
 16 15  1  0  0  0  0
 17 16  2  0  0  0  0
 17 18  1  0  0  0  0
 18  2  1  6  0  0  0
 18 19  1  0  0  0  0
 19 14  1  0  0  0  0
 19 12  2  0  0  0  0
 22 16  1  0  0  0  0
 23 17  1  0  0  0  0
 24 26  1  0  0  0  0
 24 27  1  0  0  0  0
 25 24  1  0  0  0  0
 28  5  1  0  0  0  0
 28 29  1  1  0  0  0
 30 35  1  0  0  0  0
 30 36  1  0  0  0  0
 31 30  2  0  0  0  0
 32 33  2  0  0  0  0
 32 31  1  0  0  0  0
 33 34  1  0  0  0  0
 34 35  2  0  0  0  0
 35 28  1  0  0  0  0
 37 31  1  0  0  0  0
 38 32  1  0  0  0  0
 39 33  1  0  0  0  0
 40 28  1  0  0  0  0
 40 42  1  0  0  0  0
 41 40  1  0  0  0  0
 43 48  1  0  0  0  0
 44 45  1  0  0  0  0
 44 43  2  0  0  0  0
 45 46  2  0  0  0  0
 46 52  1  0  0  0  0
 46 47  1  0  0  0  0
 47 53  1  0  0  0  0
 48 47  2  0  0  0  0
 48  1  1  0  0  0  0
 49 43  1  0  0  0  0
 50 44  1  0  0  0  0
 51 45  1  0  0  0  0
M  CHG  1   3  -1
M  END
