1,17,24,40
 OpenBabel05122313063D

 46 48  0  0  0  0  0  0  0  0999 V2000
   -1.5068   -1.6503    0.6564 O   0  5  0  0  0  0  0  0  0  0  0  0
   -6.7638   -1.3733   -1.0798 O   0  0  0  0  0  0  0  0  0  0  0  0
   -2.7282   -1.4958    0.2410 C   0  0  0  0  0  0  0  0  0  0  0  0
   -3.5965   -2.6384    0.2062 C   0  0  0  0  0  0  0  0  0  0  0  0
   -3.1666   -3.5941    0.5400 H   0  0  0  0  0  0  0  0  0  0  0  0
   -4.9073   -2.5583   -0.2272 C   0  0  0  0  0  0  0  0  0  0  0  0
   -5.5569   -3.4466   -0.2457 H   0  0  0  0  0  0  0  0  0  0  0  0
   -5.4601   -1.3226   -0.6711 C   0  0  0  0  0  0  0  0  0  0  0  0
   -4.6591   -0.1873   -0.6576 C   0  0  0  0  0  0  0  0  0  0  0  0
   -5.0495    0.7851   -0.9910 H   0  0  0  0  0  0  0  0  0  0  0  0
   -3.2996   -0.2357   -0.2021 C   0  0  0  0  0  0  0  0  0  0  0  0
   -2.5773    0.9978   -0.2240 C   0  0  0  0  0  3  0  0  0  0  0  0
   -3.1434    1.8658   -0.6273 H   0  0  0  0  0  0  0  0  0  0  0  0
   -0.7183    2.4473    0.1390 C   0  0  0  0  0  0  0  0  0  0  0  0
   -1.4052    3.6806    0.1591 C   0  0  0  0  0  0  0  0  0  0  0  0
   -2.5040    3.6885    0.2042 H   0  0  0  0  0  0  0  0  0  0  0  0
   -1.3311    1.1912    0.1546 N   0  0  0  0  0  2  0  0  0  0  0  0
   -0.7035    4.8910    0.1571 C   0  0  0  0  0  0  0  0  0  0  0  0
   -1.2562    5.8420    0.1818 H   0  0  0  0  0  0  0  0  0  0  0  0
   -7.3541   -0.1742   -1.5309 C   0  0  0  0  0  0  0  0  0  0  0  0
   -8.3949   -0.4184   -1.8147 H   0  0  0  0  0  0  0  0  0  0  0  0
   -6.8256    0.2422   -2.4197 H   0  0  0  0  0  0  0  0  0  0  0  0
   -7.3706    0.6072   -0.7361 H   0  0  0  0  0  0  0  0  0  0  0  0
    1.5068   -1.6504    0.6562 O   0  5  0  0  0  0  0  0  0  0  0  0
    6.7639   -1.3734   -1.0798 O   0  0  0  0  0  0  0  0  0  0  0  0
    2.7282   -1.4959    0.2409 C   0  0  0  0  0  0  0  0  0  0  0  0
    3.5965   -2.6384    0.2059 C   0  0  0  0  0  0  0  0  0  0  0  0
    3.1665   -3.5941    0.5397 H   0  0  0  0  0  0  0  0  0  0  0  0
    4.9073   -2.5583   -0.2274 C   0  0  0  0  0  0  0  0  0  0  0  0
    5.5569   -3.4466   -0.2459 H   0  0  0  0  0  0  0  0  0  0  0  0
    5.4601   -1.3227   -0.6711 C   0  0  0  0  0  0  0  0  0  0  0  0
    4.6592   -0.1873   -0.6575 C   0  0  0  0  0  0  0  0  0  0  0  0
    5.0496    0.7851   -0.9908 H   0  0  0  0  0  0  0  0  0  0  0  0
    3.2996   -0.2357   -0.2021 C   0  0  0  0  0  0  0  0  0  0  0  0
    2.5773    0.9979   -0.2240 C   0  0  0  0  0  3  0  0  0  0  0  0
    3.1435    1.8658   -0.6272 H   0  0  0  0  0  0  0  0  0  0  0  0
    0.7184    2.4473    0.1389 C   0  0  0  0  0  0  0  0  0  0  0  0
    1.4053    3.6806    0.1591 C   0  0  0  0  0  0  0  0  0  0  0  0
    2.5040    3.6885    0.2042 H   0  0  0  0  0  0  0  0  0  0  0  0
    1.3311    1.1912    0.1546 N   0  0  0  0  0  2  0  0  0  0  0  0
    0.7035    4.8910    0.1571 C   0  0  0  0  0  0  0  0  0  0  0  0
    1.2562    5.8420    0.1818 H   0  0  0  0  0  0  0  0  0  0  0  0
    7.3542   -0.1742   -1.5307 C   0  0  0  0  0  0  0  0  0  0  0  0
    8.3949   -0.4184   -1.8145 H   0  0  0  0  0  0  0  0  0  0  0  0
    6.8258    0.2423   -2.4195 H   0  0  0  0  0  0  0  0  0  0  0  0
    7.3707    0.6072   -0.7358 H   0  0  0  0  0  0  0  0  0  0  0  0
  2  8  1  0  0  0  0
  3  1  1  0  0  0  0
  4  3  1  0  0  0  0
  4  5  1  0  0  0  0
  6  4  2  0  0  0  0
  7  6  1  0  0  0  0
  8  9  2  0  0  0  0
  8  6  1  0  0  0  0
  9 11  1  0  0  0  0
 10  9  1  0  0  0  0
 11  3  2  0  0  0  0
 12 11  1  0  0  0  0
 12 17  1  0  0  0  0
 13 12  1  0  0  0  0
 14 17  1  0  0  0  0
 14 15  1  0  0  0  0
 15 16  1  0  0  0  0
 18 15  2  0  0  0  0
 18 19  1  0  0  0  0
 20  2  1  0  0  0  0
 20 23  1  0  0  0  0
 21 20  1  0  0  0  0
 22 20  1  0  0  0  0
 25 31  1  0  0  0  0
 26 24  1  0  0  0  0
 27 26  1  0  0  0  0
 27 28  1  0  0  0  0
 29 27  2  0  0  0  0
 30 29  1  0  0  0  0
 31 32  2  0  0  0  0
 31 29  1  0  0  0  0
 32 34  1  0  0  0  0
 33 32  1  0  0  0  0
 34 26  2  0  0  0  0
 35 34  1  0  0  0  0
 35 40  1  0  0  0  0
 36 35  1  0  0  0  0
 37 14  2  0  0  0  0
 37 40  1  0  0  0  0
 37 38  1  0  0  0  0
 38 39  1  0  0  0  0
 41 18  1  0  0  0  0
 41 38  2  0  0  0  0
 41 42  1  0  0  0  0
 43 25  1  0  0  0  0
 43 46  1  0  0  0  0
 44 43  1  0  0  0  0
 45 43  1  0  0  0  0
M  CHG  2   1  -1  24  -1
M  END
