1,2,3,4
 OpenBabel05122313063D

 52 53  0  0  1  0  0  0  0  0999 V2000
    1.2259   -0.9283   -0.1016 O   0  5  0  0  0  0  0  0  0  0  0  0
   -1.2259   -0.9283    0.1021 O   0  0  0  0  0  1  0  0  0  0  0  0
    1.2865    1.7685   -0.2142 N   0  0  0  0  0  2  0  0  0  0  0  0
   -1.2866    1.7685    0.2143 N   0  0  0  0  0  2  0  0  0  0  0  0
    2.5192   -0.8427   -0.0462 C   0  0  0  0  0  0  0  0  0  0  0  0
    3.2495   -2.0639    0.1045 C   0  0  0  0  0  0  0  0  0  0  0  0
    2.6455   -2.9813    0.1693 H   0  0  0  0  0  0  0  0  0  0  0  0
    4.6362   -2.1165    0.1755 C   0  0  0  0  0  0  0  0  0  0  0  0
    5.3915   -0.8990    0.0941 C   0  0  0  0  0  0  0  0  0  0  0  0
    4.6988    0.2949   -0.0740 C   0  0  0  0  0  3  0  0  0  0  0  0
    5.2947    1.2183   -0.1175 H   0  0  0  0  0  0  0  0  0  0  0  0
    3.2766    0.3829   -0.1556 C   0  0  0  0  0  0  0  0  0  0  0  0
    2.6035    1.6489   -0.3456 C   0  0  0  0  0  0  0  0  0  0  0  0
    0.6396    3.0661   -0.4079 C   0  0  0  0  0  0  0  0  0  0  0  0
    0.3971    3.2066   -1.4867 H   0  0  0  0  0  0  0  0  0  0  0  0
    1.2804    3.9154   -0.0968 H   0  0  0  0  0  0  0  0  0  0  0  0
   -0.6396    3.0660    0.4081 C   0  0  0  0  0  0  0  0  0  0  0  0
   -0.3971    3.2065    1.4870 H   0  0  0  0  0  0  0  0  0  0  0  0
   -1.2804    3.9154    0.0970 H   0  0  0  0  0  0  0  0  0  0  0  0
   -2.6035    1.6489    0.3455 C   0  0  0  0  0  0  0  0  0  0  0  0
   -3.2766    0.3829    0.1555 C   0  0  0  0  0  0  0  0  0  0  0  0
   -4.6988    0.2949    0.0737 C   0  0  0  0  0  0  0  0  0  0  0  0
   -5.2947    1.2183    0.1170 H   0  0  0  0  0  0  0  0  0  0  0  0
   -4.6362   -2.1166   -0.1755 C   0  0  0  0  0  0  0  0  0  0  0  0
   -3.2494   -2.0640   -0.1043 C   0  0  0  0  0  0  0  0  0  0  0  0
   -2.6454   -2.9814   -0.1689 H   0  0  0  0  0  0  0  0  0  0  0  0
   -2.5192   -0.8428    0.0464 C   0  0  2  0  0  3  0  0  0  0  0  0
    5.3441   -3.4353    0.3428 C   0  0  0  0  0  0  0  0  0  0  0  0
    4.6282   -4.2775    0.3897 H   0  0  0  0  0  0  0  0  0  0  0  0
    5.9567   -3.4526    1.2695 H   0  0  0  0  0  0  0  0  0  0  0  0
    6.0472   -3.6275   -0.4955 H   0  0  0  0  0  0  0  0  0  0  0  0
    6.8954   -0.9194    0.1913 C   0  0  0  0  0  0  0  0  0  0  0  0
    7.3179    0.1008    0.1075 H   0  0  0  0  0  0  0  0  0  0  0  0
    7.3558   -1.5392   -0.6083 H   0  0  0  0  0  0  0  0  0  0  0  0
    7.2452   -1.3487    1.1551 H   0  0  0  0  0  0  0  0  0  0  0  0
    3.4111    2.8761   -0.7157 C   0  0  0  0  0  0  0  0  0  0  0  0
    2.9313    3.4285   -1.5471 H   0  0  0  0  0  0  0  0  0  0  0  0
    4.4280    2.6101   -1.0449 H   0  0  0  0  0  0  0  0  0  0  0  0
    3.5047    3.5807    0.1381 H   0  0  0  0  0  0  0  0  0  0  0  0
   -3.4113    2.8761    0.7154 C   0  0  0  0  0  0  0  0  0  0  0  0
   -2.9317    3.4285    1.5470 H   0  0  0  0  0  0  0  0  0  0  0  0
   -4.4283    2.6101    1.0444 H   0  0  0  0  0  0  0  0  0  0  0  0
   -3.5046    3.5807   -0.1383 H   0  0  0  0  0  0  0  0  0  0  0  0
   -6.8953   -0.9195   -0.1919 C   0  0  0  0  0  0  0  0  0  0  0  0
   -7.3179    0.1008   -0.1083 H   0  0  0  0  0  0  0  0  0  0  0  0
   -7.3559   -1.5391    0.6077 H   0  0  0  0  0  0  0  0  0  0  0  0
   -7.2450   -1.3488   -1.1557 H   0  0  0  0  0  0  0  0  0  0  0  0
   -5.3440   -3.4353   -0.3428 C   0  0  0  0  0  0  0  0  0  0  0  0
   -4.6282   -4.2775   -0.3894 H   0  0  0  0  0  0  0  0  0  0  0  0
   -5.9565   -3.4528   -1.2696 H   0  0  0  0  0  0  0  0  0  0  0  0
   -6.0473   -3.6275    0.4954 H   0  0  0  0  0  0  0  0  0  0  0  0
   -5.3914   -0.8991   -0.0944 C   0  0  0  0  0  0  0  0  0  0  0  0
  1  5  1  0  0  0  0
  4 20  1  0  0  0  0
  4 17  1  0  0  0  0
  5  6  2  0  0  0  0
  6  7  1  0  0  0  0
  6  8  1  0  0  0  0
  8 28  1  0  0  0  0
  9  8  2  0  0  0  0
  9 32  1  0  0  0  0
 10  9  1  0  0  0  0
 11 10  1  0  0  0  0
 12 10  1  0  0  0  0
 12  5  1  0  0  0  0
 13  3  1  0  0  0  0
 13 12  2  0  0  0  0
 14  3  1  0  0  0  0
 14 16  1  0  0  0  0
 14 17  1  0  0  0  0
 15 14  1  0  0  0  0
 17 18  1  0  0  0  0
 19 17  1  0  0  0  0
 20 40  1  0  0  0  0
 21 20  2  0  0  0  0
 22 23  1  0  0  0  0
 22 21  1  0  0  0  0
 24 25  2  0  0  0  0
 24 52  1  0  0  0  0
 25 27  1  0  0  0  0
 26 25  1  0  0  0  0
 27  2  1  1  0  0  0
 27 21  1  0  0  0  0
 28 29  1  0  0  0  0
 28 30  1  0  0  0  0
 31 28  1  0  0  0  0
 32 35  1  0  0  0  0
 33 32  1  0  0  0  0
 34 32  1  0  0  0  0
 36 13  1  0  0  0  0
 36 39  1  0  0  0  0
 37 36  1  0  0  0  0
 38 36  1  0  0  0  0
 40 42  1  0  0  0  0
 40 41  1  0  0  0  0
 43 40  1  0  0  0  0
 44 45  1  0  0  0  0
 44 52  1  0  0  0  0
 44 46  1  0  0  0  0
 47 44  1  0  0  0  0
 48 24  1  0  0  0  0
 48 51  1  0  0  0  0
 49 48  1  0  0  0  0
 50 48  1  0  0  0  0
 52 22  2  0  0  0  0
M  CHG  1   1  -1
M  END
