1,2,3,4
 OpenBabel05122313063D

 60 61  0  0  1  0  0  0  0  0999 V2000
   -1.5056   -1.2782   -0.1375 O   0  5  0  0  0  0  0  0  0  0  0  0
    0.8854   -0.5899   -0.0838 O   0  5  0  0  0  0  0  0  0  0  0  0
   -2.3286    1.3444    0.0630 N   0  0  0  0  0  0  0  0  0  0  0  0
    0.1835    2.0312   -0.1338 N   0  0  0  0  0  2  0  0  0  0  0  0
   -2.8039   -1.4967   -0.2154 C   0  0  0  0  0  0  0  0  0  0  0  0
   -3.2696   -2.7097   -0.8013 C   0  0  0  0  0  0  0  0  0  0  0  0
   -4.6336   -2.9954   -0.8899 C   0  0  0  0  0  0  0  0  0  0  0  0
   -5.5975   -2.0857   -0.4131 C   0  0  0  0  0  0  0  0  0  0  0  0
   -5.1615   -0.8870    0.1670 C   0  0  0  0  0  0  0  0  0  0  0  0
   -3.7933   -0.5837    0.2774 C   0  0  0  0  0  0  0  0  0  0  0  0
   -3.3181    0.6675    0.9712 C   0  0  1  0  0  0  0  0  0  0  0  0
   -2.7094    0.3747    2.3469 C   0  0  0  0  0  0  0  0  0  0  0  0
   -2.0197    2.7484    0.4005 C   0  0  0  0  0  0  0  0  0  0  0  0
   -0.7481    3.1758   -0.3470 C   0  0  0  0  0  0  0  0  0  0  0  0
   -0.2487    4.5049    0.2359 C   0  0  0  0  0  0  0  0  0  0  0  0
   -1.0106    3.3193   -1.8587 C   0  0  0  0  0  0  0  0  0  0  0  0
    1.4886    2.2198   -0.1518 C   0  0  0  0  0  0  0  0  0  0  0  0
    2.4875    1.2052   -0.0719 C   0  0  0  0  0  0  0  0  0  0  0  0
    3.8603    1.5888   -0.0405 C   0  0  0  0  0  3  0  0  0  0  0  0
    4.8711    0.6432    0.0310 C   0  0  0  0  0  0  0  0  0  0  0  0
    4.4898   -0.7305    0.0708 C   0  0  0  0  0  0  0  0  0  0  0  0
    3.1720   -1.1830    0.0401 C   0  0  0  0  0  0  0  0  0  0  0  0
    2.1211   -0.1892   -0.0373 C   0  0  0  0  0  0  0  0  0  0  0  0
    6.3301    1.0218    0.0676 C   0  0  0  0  0  0  0  0  0  0  0  0
    2.8118   -2.6794    0.0853 C   0  0  0  0  0  0  0  0  0  0  0  0
    2.0360   -3.0729   -1.1959 C   0  0  0  0  0  0  0  0  0  0  0  0
    4.0693   -3.5625    0.1723 C   0  0  0  0  0  0  0  0  0  0  0  0
    1.9342   -2.9700    1.3276 C   0  0  0  0  0  0  0  0  0  0  0  0
   -2.7491    1.3077   -0.8807 H   0  0  0  0  0  0  0  0  0  0  0  0
   -2.5093   -3.4116   -1.1746 H   0  0  0  0  0  0  0  0  0  0  0  0
   -4.9557   -3.9443   -1.3478 H   0  0  0  0  0  0  0  0  0  0  0  0
   -6.6712   -2.3091   -0.4938 H   0  0  0  0  0  0  0  0  0  0  0  0
   -5.8983   -0.1632    0.5549 H   0  0  0  0  0  0  0  0  0  0  0  0
   -4.1816    1.3618    1.0904 H   0  0  0  0  0  0  0  0  0  0  0  0
   -2.2904    1.2772    2.8369 H   0  0  0  0  0  0  0  0  0  0  0  0
   -1.9100   -0.3853    2.2521 H   0  0  0  0  0  0  0  0  0  0  0  0
   -3.5013   -0.0297    3.0061 H   0  0  0  0  0  0  0  0  0  0  0  0
   -1.8302    2.7998    1.4897 H   0  0  0  0  0  0  0  0  0  0  0  0
   -2.8777    3.4164    0.1670 H   0  0  0  0  0  0  0  0  0  0  0  0
    0.0655    4.3848    1.2917 H   0  0  0  0  0  0  0  0  0  0  0  0
   -1.0609    5.2577    0.1975 H   0  0  0  0  0  0  0  0  0  0  0  0
    0.6009    4.9197   -0.3400 H   0  0  0  0  0  0  0  0  0  0  0  0
   -0.0737    3.5949   -2.3815 H   0  0  0  0  0  0  0  0  0  0  0  0
   -1.7679    4.1039   -2.0593 H   0  0  0  0  0  0  0  0  0  0  0  0
   -1.3562    2.3619   -2.2981 H   0  0  0  0  0  0  0  0  0  0  0  0
    1.8606    3.2578   -0.2340 H   0  0  0  0  0  0  0  0  0  0  0  0
    4.1085    2.6629   -0.0725 H   0  0  0  0  0  0  0  0  0  0  0  0
    5.2996   -1.4724    0.1282 H   0  0  0  0  0  0  0  0  0  0  0  0
    6.4680    2.1201    0.0283 H   0  0  0  0  0  0  0  0  0  0  0  0
    6.8872    0.5814   -0.7866 H   0  0  0  0  0  0  0  0  0  0  0  0
    6.8240    0.6532    0.9919 H   0  0  0  0  0  0  0  0  0  0  0  0
    1.0792   -2.5235   -1.2637 H   0  0  0  0  0  0  0  0  0  0  0  0
    1.8140   -4.1604   -1.1801 H   0  0  0  0  0  0  0  0  0  0  0  0
    2.6397   -2.8613   -2.1024 H   0  0  0  0  0  0  0  0  0  0  0  0
    4.7329   -3.4318   -0.7069 H   0  0  0  0  0  0  0  0  0  0  0  0
    3.7671   -4.6286    0.2042 H   0  0  0  0  0  0  0  0  0  0  0  0
    4.6615   -3.3575    1.0877 H   0  0  0  0  0  0  0  0  0  0  0  0
    0.9775   -2.4190    1.2739 H   0  0  0  0  0  0  0  0  0  0  0  0
    2.4644   -2.6855    2.2598 H   0  0  0  0  0  0  0  0  0  0  0  0
    1.7076   -4.0553    1.3812 H   0  0  0  0  0  0  0  0  0  0  0  0
  2 23  1  0  0  0  0
  3 13  1  0  0  0  0
  3 11  1  0  0  0  0
  5  1  1  0  0  0  0
  5 10  1  0  0  0  0
  6  5  2  0  0  0  0
  7  6  1  0  0  0  0
  7  8  2  0  0  0  0
  8  9  1  0  0  0  0
  9 10  2  0  0  0  0
  9 33  1  0  0  0  0
 10 11  1  0  0  0  0
 11 34  1  1  0  0  0
 11 12  1  0  0  0  0
 12 35  1  0  0  0  0
 12 37  1  0  0  0  0
 13 38  1  0  0  0  0
 14  4  1  0  0  0  0
 14 15  1  0  0  0  0
 14 13  1  0  0  0  0
 15 40  1  0  0  0  0
 16 14  1  0  0  0  0
 17  4  1  0  0  0  0
 17 18  2  0  0  0  0
 18 19  1  0  0  0  0
 18 23  1  0  0  0  0
 19 20  1  0  0  0  0
 20 24  1  0  0  0  0
 20 21  2  0  0  0  0
 21 48  1  0  0  0  0
 22 21  1  0  0  0  0
 22 25  1  0  0  0  0
 23 22  2  0  0  0  0
 24 51  1  0  0  0  0
 25 27  1  0  0  0  0
 25 28  1  0  0  0  0
 26 53  1  0  0  0  0
 26 25  1  0  0  0  0
 27 56  1  0  0  0  0
 27 57  1  0  0  0  0
 28 60  1  0  0  0  0
 28 59  1  0  0  0  0
 29  3  1  0  0  0  0
 30  6  1  0  0  0  0
 31  7  1  0  0  0  0
 32  8  1  0  0  0  0
 36 12  1  0  0  0  0
 39 13  1  0  0  0  0
 41 15  1  0  0  0  0
 42 15  1  0  0  0  0
 43 16  1  0  0  0  0
 44 16  1  0  0  0  0
 45 16  1  0  0  0  0
 46 17  1  0  0  0  0
 47 19  1  0  0  0  0
 49 24  1  0  0  0  0
 50 24  1  0  0  0  0
 52 26  1  0  0  0  0
 54 26  1  0  0  0  0
 55 27  1  0  0  0  0
 58 28  1  0  0  0  0
M  CHG  2   1  -1   2  -1
M  END
