1,2,3,4
 OpenBabel05122313063D

 66 68  0  0  1  0  0  0  0  0999 V2000
    0.2705    2.3086    0.2455 N   0  0  0  0  0  2  0  0  0  0  0  0
    0.0652   -0.0087    1.7016 N   0  0  0  0  0  0  0  0  0  0  0  0
    1.7718   -0.0357   -0.4007 O   0  5  0  0  0  0  0  0  0  0  0  0
   -2.0107    0.5572   -0.2233 O   0  5  0  0  0  0  0  0  0  0  0  0
    2.4924   -0.9856    0.2272 C   0  0  0  0  0  0  0  0  0  0  0  0
    1.9717   -1.6467    1.3754 C   0  0  0  0  0  0  0  0  0  0  0  0
    2.7632   -2.6124    2.0246 C   0  0  0  0  0  0  0  0  0  0  0  0
    2.3627   -3.1181    2.9179 H   0  0  0  0  0  0  0  0  0  0  0  0
    4.0355   -2.9315    1.5471 C   0  0  0  0  0  0  0  0  0  0  0  0
    4.6443   -3.6941    2.0549 H   0  0  0  0  0  0  0  0  0  0  0  0
    4.5421   -2.2615    0.4223 C   0  0  0  0  0  0  0  0  0  0  0  0
    5.5494   -2.5185    0.0700 H   0  0  0  0  0  0  0  0  0  0  0  0
    3.8072   -1.2752   -0.2584 C   0  0  0  0  0  0  0  0  0  0  0  0
    4.3813   -0.5335   -1.4818 C   0  0  0  0  0  0  0  0  0  0  0  0
    3.5020   -0.8008   -2.7271 C   0  0  0  0  0  0  0  0  0  0  0  0
    2.4747   -0.4141   -2.6017 H   0  0  0  0  0  0  0  0  0  0  0  0
    3.4409   -1.8878   -2.9368 H   0  0  0  0  0  0  0  0  0  0  0  0
    3.9475   -0.3060   -3.6150 H   0  0  0  0  0  0  0  0  0  0  0  0
    4.4429    0.9857   -1.1914 C   0  0  0  0  0  0  0  0  0  0  0  0
    3.4368    1.3980   -0.9916 H   0  0  0  0  0  0  0  0  0  0  0  0
    4.8702    1.5210   -2.0646 H   0  0  0  0  0  0  0  0  0  0  0  0
    5.0916    1.1913   -0.3150 H   0  0  0  0  0  0  0  0  0  0  0  0
    5.8109   -1.0037   -1.8099 C   0  0  0  0  0  0  0  0  0  0  0  0
    6.5140   -0.8230   -0.9714 H   0  0  0  0  0  0  0  0  0  0  0  0
    6.1880   -0.4413   -2.6875 H   0  0  0  0  0  0  0  0  0  0  0  0
    5.8460   -2.0816   -2.0674 H   0  0  0  0  0  0  0  0  0  0  0  0
   -2.7868   -0.3116    0.4680 C   0  0  0  0  0  0  0  0  0  0  0  0
   -3.9582   -0.8855   -0.1052 C   0  0  0  0  0  0  0  0  0  0  0  0
   -4.6530   -1.8151    0.6963 C   0  0  0  0  0  0  0  0  0  0  0  0
   -5.5538   -2.2953    0.2922 H   0  0  0  0  0  0  0  0  0  0  0  0
   -4.2446   -2.1608    1.9941 C   0  0  0  0  0  0  0  0  0  0  0  0
   -4.8201   -2.8997    2.5709 H   0  0  0  0  0  0  0  0  0  0  0  0
   -3.1171   -1.5486    2.5519 C   0  0  0  0  0  0  0  0  0  0  0  0
   -2.7985   -1.7807    3.5808 H   0  0  0  0  0  0  0  0  0  0  0  0
   -2.3911   -0.6166    1.7953 C   0  0  0  0  0  0  0  0  0  0  0  0
   -4.4532   -0.4928   -1.5106 C   0  0  0  0  0  0  0  0  0  0  0  0
   -3.4285   -0.9171   -2.5887 C   0  0  0  0  0  0  0  0  0  0  0  0
   -3.1912   -1.9965   -2.5112 H   0  0  0  0  0  0  0  0  0  0  0  0
   -2.4826   -0.3536   -2.5097 H   0  0  0  0  0  0  0  0  0  0  0  0
   -3.8490   -0.7261   -3.5979 H   0  0  0  0  0  0  0  0  0  0  0  0
   -5.7952   -1.1704   -1.8460 C   0  0  0  0  0  0  0  0  0  0  0  0
   -5.7067   -2.2751   -1.8832 H   0  0  0  0  0  0  0  0  0  0  0  0
   -6.1346   -0.8330   -2.8458 H   0  0  0  0  0  0  0  0  0  0  0  0
   -6.5896   -0.9086   -1.1176 H   0  0  0  0  0  0  0  0  0  0  0  0
   -4.6677    1.0383   -1.5689 C   0  0  0  0  0  0  0  0  0  0  0  0
   -5.0260    1.3321   -2.5773 H   0  0  0  0  0  0  0  0  0  0  0  0
   -3.7261    1.5810   -1.3637 H   0  0  0  0  0  0  0  0  0  0  0  0
   -5.4283    1.3591   -0.8278 H   0  0  0  0  0  0  0  0  0  0  0  0
    0.7191    2.3610    1.5165 C   0  0  2  0  0  3  0  0  0  0  0  0
    0.9609    3.5892    2.1527 C   0  0  0  0  0  0  0  0  0  0  0  0
    1.3165    3.6059    3.1934 H   0  0  0  0  0  0  0  0  0  0  0  0
    0.7407    4.7773    1.4428 C   0  0  0  0  0  0  0  0  0  0  0  0
    0.9236    5.7512    1.9214 H   0  0  0  0  0  0  0  0  0  0  0  0
    0.2788    4.7074    0.1207 C   0  0  0  0  0  0  0  0  0  0  0  0
    0.0918    5.6144   -0.4711 H   0  0  0  0  0  0  0  0  0  0  0  0
    0.0537    3.4450   -0.4417 C   0  0  0  0  0  0  0  0  0  0  0  0
   -0.3036    3.3099   -1.4750 H   0  0  0  0  0  0  0  0  0  0  0  0
    0.5924   -1.3745    1.9395 C   0  0  0  0  0  0  0  0  0  0  0  0
   -0.1543   -2.0726    1.5062 H   0  0  0  0  0  0  0  0  0  0  0  0
    0.6187   -1.5680    3.0387 H   0  0  0  0  0  0  0  0  0  0  0  0
   -1.2537    0.1745    2.3742 C   0  0  0  0  0  0  0  0  0  0  0  0
   -1.1379   -0.0592    3.4582 H   0  0  0  0  0  0  0  0  0  0  0  0
   -1.4919    1.2557    2.2880 H   0  0  0  0  0  0  0  0  0  0  0  0
    0.9895    1.0334    2.1822 C   0  0  0  0  0  0  0  0  0  0  0  0
    2.0267    0.7216    1.9409 H   0  0  0  0  0  0  0  0  0  0  0  0
    0.9352    1.1364    3.2901 H   0  0  0  0  0  0  0  0  0  0  0  0
  1 49  1  0  0  0  0
  2 58  1  0  0  0  0
  2 64  1  0  0  0  0
  2 61  1  0  0  0  0
  3  5  1  0  0  0  0
  4 27  1  0  0  0  0
  5  6  1  0  0  0  0
  6 58  1  0  0  0  0
  6  7  2  0  0  0  0
  7  8  1  0  0  0  0
  9  7  1  0  0  0  0
  9 10  1  0  0  0  0
 11  9  2  0  0  0  0
 12 11  1  0  0  0  0
 13  5  2  0  0  0  0
 13 11  1  0  0  0  0
 14 19  1  0  0  0  0
 14 13  1  0  0  0  0
 15 16  1  0  0  0  0
 15 14  1  0  0  0  0
 17 15  1  0  0  0  0
 18 15  1  0  0  0  0
 19 20  1  0  0  0  0
 19 22  1  0  0  0  0
 21 19  1  0  0  0  0
 23 14  1  0  0  0  0
 23 24  1  0  0  0  0
 25 23  1  0  0  0  0
 26 23  1  0  0  0  0
 27 35  1  0  0  0  0
 28 27  2  0  0  0  0
 28 29  1  0  0  0  0
 29 31  2  0  0  0  0
 30 29  1  0  0  0  0
 31 33  1  0  0  0  0
 31 32  1  0  0  0  0
 33 34  1  0  0  0  0
 35 61  1  0  0  0  0
 35 33  2  0  0  0  0
 36 28  1  0  0  0  0
 37 38  1  0  0  0  0
 37 39  1  0  0  0  0
 37 36  1  0  0  0  0
 40 37  1  0  0  0  0
 41 36  1  0  0  0  0
 41 44  1  0  0  0  0
 42 41  1  0  0  0  0
 43 41  1  0  0  0  0
 45 36  1  0  0  0  0
 45 47  1  0  0  0  0
 45 48  1  0  0  0  0
 46 45  1  0  0  0  0
 49 50  1  0  0  0  0
 49 64  1  6  0  0  0
 50 51  1  0  0  0  0
 52 53  1  0  0  0  0
 52 50  2  0  0  0  0
 54 52  1  0  0  0  0
 55 54  1  0  0  0  0
 56 54  2  0  0  0  0
 56  1  1  0  0  0  0
 57 56  1  0  0  0  0
 58 60  1  0  0  0  0
 59 58  1  0  0  0  0
 61 62  1  0  0  0  0
 63 61  1  0  0  0  0
 64 66  1  0  0  0  0
 65 64  1  0  0  0  0
M  CHG  2   3  -1   4  -1
M  END
