2,3,7,9
 OpenBabel05122313063D

 44 45  0  0  1  0  0  0  0  0999 V2000
   -2.6064    0.7851    0.0002 N   0  0  0  0  0  0  0  0  0  0  0  0
   -1.3787    1.3607   -0.0001 N   0  0  0  0  0  2  0  0  0  0  0  0
    1.3787    1.3607    0.0001 N   0  0  0  0  0  2  0  0  0  0  0  0
    2.6064    0.7851    0.0005 N   0  0  0  0  0  0  0  0  0  0  0  0
   -5.1593    0.6586    0.0010 O   0  0  0  0  0  0  0  0  0  0  0  0
   -4.2134    1.0405    0.0007 H   0  0  0  0  0  0  0  0  0  0  0  0
   -1.3591   -1.1486   -0.0019 O   0  5  0  0  0  0  0  0  0  0  0  0
    0.0001    4.6282   -0.0008 O   0  0  0  0  0  0  0  0  0  0  0  0
    1.3590   -1.1486    0.0002 O   0  5  0  0  0  0  0  0  0  0  0  0
    5.1591    0.6586    0.0012 O   0  0  0  0  0  0  0  0  0  0  0  0
    4.2132    1.0404    0.0011 H   0  0  0  0  0  0  0  0  0  0  0  0
   -5.0279   -0.6685    0.0004 C   0  0  0  0  0  0  0  0  0  0  0  0
   -3.7510   -1.3295   -0.0005 C   0  0  0  0  0  0  0  0  0  0  0  0
   -3.6938   -2.7460   -0.0010 C   0  0  0  0  0  0  0  0  0  0  0  0
   -2.6988   -3.2140   -0.0017 H   0  0  0  0  0  0  0  0  0  0  0  0
   -4.8572   -3.5088   -0.0006 C   0  0  0  0  0  0  0  0  0  0  0  0
   -4.8031   -4.6069   -0.0010 H   0  0  0  0  0  0  0  0  0  0  0  0
   -6.1116   -2.8558    0.0003 C   0  0  0  0  0  0  0  0  0  0  0  0
   -7.0373   -3.4520    0.0006 H   0  0  0  0  0  0  0  0  0  0  0  0
   -6.1991   -1.4648    0.0008 C   0  0  0  0  0  0  0  0  0  0  0  0
   -7.1689   -0.9472    0.0015 H   0  0  0  0  0  0  0  0  0  0  0  0
   -2.5104   -0.5631   -0.0007 C   0  0  0  0  0  0  0  0  0  0  0  0
   -1.3112    2.6792    0.0010 C   0  0  1  0  0  3  0  0  0  0  0  0
    0.0000    3.3900   -0.0004 C   0  0  0  0  0  0  0  0  0  0  0  0
    1.3112    2.6791   -0.0012 C   0  0  1  0  0  3  0  0  0  0  0  0
    2.5103   -0.5631    0.0004 C   0  0  0  0  0  0  0  0  0  0  0  0
    3.7509   -1.3296    0.0005 C   0  0  0  0  0  0  0  0  0  0  0  0
    5.0279   -0.6685    0.0009 C   0  0  0  0  0  0  0  0  0  0  0  0
    6.1990   -1.4648    0.0008 C   0  0  0  0  0  0  0  0  0  0  0  0
    7.1688   -0.9471    0.0011 H   0  0  0  0  0  0  0  0  0  0  0  0
    6.1116   -2.8558    0.0004 C   0  0  0  0  0  0  0  0  0  0  0  0
    7.0373   -3.4519    0.0003 H   0  0  0  0  0  0  0  0  0  0  0  0
    4.8573   -3.5089    0.0001 C   0  0  0  0  0  0  0  0  0  0  0  0
    4.8032   -4.6069   -0.0003 H   0  0  0  0  0  0  0  0  0  0  0  0
    3.6938   -2.7461    0.0001 C   0  0  0  0  0  0  0  0  0  0  0  0
    2.6989   -3.2142   -0.0001 H   0  0  0  0  0  0  0  0  0  0  0  0
   -2.5569    3.5034    0.0028 C   0  0  0  0  0  0  0  0  0  0  0  0
   -3.1796    3.2695   -0.8862 H   0  0  0  0  0  0  0  0  0  0  0  0
   -2.2873    4.5733    0.0045 H   0  0  0  0  0  0  0  0  0  0  0  0
   -3.1793    3.2660    0.8909 H   0  0  0  0  0  0  0  0  0  0  0  0
    2.5570    3.5034   -0.0025 C   0  0  0  0  0  0  0  0  0  0  0  0
    3.1792    3.2696    0.8868 H   0  0  0  0  0  0  0  0  0  0  0  0
    2.2874    4.5732   -0.0047 H   0  0  0  0  0  0  0  0  0  0  0  0
    3.1798    3.2657   -0.8903 H   0  0  0  0  0  0  0  0  0  0  0  0
  2  1  1  0  0  0  0
  2 23  1  0  0  0  0
  3  4  1  0  0  0  0
  6  5  1  0  0  0  0
  7 22  1  0  0  0  0
  8 24  2  0  0  0  0
  9 26  1  0  0  0  0
 11 10  1  0  0  0  0
 12 20  1  0  0  0  0
 12  5  1  0  0  0  0
 13 12  2  0  0  0  0
 14 16  2  0  0  0  0
 14 13  1  0  0  0  0
 15 14  1  0  0  0  0
 16 18  1  0  0  0  0
 17 16  1  0  0  0  0
 18 19  1  0  0  0  0
 18 20  2  0  0  0  0
 20 21  1  0  0  0  0
 22 13  1  0  0  0  0
 22  1  2  0  0  0  0
 23 24  1  6  0  0  0
 23 37  1  0  0  0  0
 25 24  1  1  0  0  0
 25  3  1  0  0  0  0
 26  4  2  0  0  0  0
 26 27  1  0  0  0  0
 27 28  1  0  0  0  0
 28 10  1  0  0  0  0
 29 28  2  0  0  0  0
 29 30  1  0  0  0  0
 31 29  1  0  0  0  0
 32 31  1  0  0  0  0
 33 35  1  0  0  0  0
 33 31  2  0  0  0  0
 34 33  1  0  0  0  0
 35 27  2  0  0  0  0
 36 35  1  0  0  0  0
 37 39  1  0  0  0  0
 37 40  1  0  0  0  0
 38 37  1  0  0  0  0
 41 25  1  0  0  0  0
 41 42  1  0  0  0  0
 43 41  1  0  0  0  0
 44 41  1  0  0  0  0
M  CHG  2   7  -1   9  -1
M  END
