1,2,6,7
 OpenBabel05122313063D

 72 73  0  0  1  0  0  0  0  0999 V2000
    1.5287   -0.5290   -0.0339 O   0  5  0  0  0  0  0  0  0  0  0  0
   -0.5454   -2.2623   -0.1795 N   0  0  0  0  0  2  0  0  0  0  0  0
   -2.3027   -2.6384   -1.8558 C   0  0  0  0  0  0  0  0  0  0  0  0
   -2.1215   -1.6087   -2.2535 H   0  0  0  0  0  0  0  0  0  0  0  0
   -1.6200   -3.3304   -2.4094 H   0  0  0  0  0  0  0  0  0  0  0  0
   -2.1638   -0.3539    0.1859 N   0  0  0  0  0  2  0  0  0  0  0  0
   -0.1210    1.4081   -0.0700 O   0  0  0  0  0  1  0  0  0  0  0  0
   -1.9433   -2.6648   -0.3644 C   0  0  2  0  0  0  0  0  0  0  0  0
   -2.1097   -3.6981    0.0120 H   0  0  0  0  0  0  0  0  0  0  0  0
   -3.6496   -3.0210   -1.9920 O   0  0  0  0  0  0  0  0  0  0  0  0
   -2.7801   -1.6634    0.4314 C   0  0  1  0  0  0  0  0  0  0  0  0
   -3.8255   -1.6769    0.0568 H   0  0  0  0  0  0  0  0  0  0  0  0
   -3.6496   -1.0519    2.5611 O   0  0  0  0  0  0  0  0  0  0  0  0
   -2.7995   -1.9757    1.9292 C   0  0  0  0  0  0  0  0  0  0  0  0
   -3.1539   -3.0269    2.0815 H   0  0  0  0  0  0  0  0  0  0  0  0
   -1.7568   -1.9102    2.3283 H   0  0  0  0  0  0  0  0  0  0  0  0
   -4.1185   -2.9329   -3.3189 C   0  0  0  0  0  0  0  0  0  0  0  0
   -5.1824   -3.2387   -3.3196 H   0  0  0  0  0  0  0  0  0  0  0  0
   -3.5532   -3.6064   -4.0076 H   0  0  0  0  0  0  0  0  0  0  0  0
   -4.0427   -1.8934   -3.7197 H   0  0  0  0  0  0  0  0  0  0  0  0
   -3.5488   -1.0630    3.9667 C   0  0  0  0  0  0  0  0  0  0  0  0
   -4.2371   -0.2890    4.3573 H   0  0  0  0  0  0  0  0  0  0  0  0
   -2.5130   -0.8275    4.3106 H   0  0  0  0  0  0  0  0  0  0  0  0
   -3.8397   -2.0501    4.4014 H   0  0  0  0  0  0  0  0  0  0  0  0
    0.4050   -3.1695   -0.2322 C   0  0  0  0  0  0  0  0  0  0  0  0
    0.0896   -4.2256   -0.3530 H   0  0  0  0  0  0  0  0  0  0  0  0
    1.8049   -2.9220   -0.1337 C   0  0  0  0  0  0  0  0  0  0  0  0
    2.6936   -4.0344   -0.1528 C   0  0  0  0  0  3  0  0  0  0  0  0
    2.2727   -5.0470   -0.2611 H   0  0  0  0  0  0  0  0  0  0  0  0
    4.0572   -3.8398   -0.0321 C   0  0  0  0  0  0  0  0  0  0  0  0
    4.7534   -4.6906   -0.0483 H   0  0  0  0  0  0  0  0  0  0  0  0
    4.5532   -2.5220    0.1291 C   0  0  0  0  0  0  0  0  0  0  0  0
    5.6384   -2.3952    0.2435 H   0  0  0  0  0  0  0  0  0  0  0  0
    3.7400   -1.3869    0.1560 C   0  0  0  0  0  0  0  0  0  0  0  0
    2.3099   -1.5709   -0.0073 C   0  0  0  0  0  0  0  0  0  0  0  0
   -2.8991    0.7304    0.2764 C   0  0  0  0  0  0  0  0  0  0  0  0
   -3.9780    0.5903    0.4752 H   0  0  0  0  0  0  0  0  0  0  0  0
   -2.4300    2.0703    0.1352 C   0  0  0  0  0  0  0  0  0  0  0  0
   -3.3814    3.1272    0.1869 C   0  0  0  0  0  0  0  0  0  0  0  0
   -4.4401    2.8767    0.3608 H   0  0  0  0  0  0  0  0  0  0  0  0
   -2.9780    4.4392    0.0151 C   0  0  0  0  0  0  0  0  0  0  0  0
   -3.7040    5.2640    0.0549 H   0  0  0  0  0  0  0  0  0  0  0  0
   -1.6099    4.7113   -0.2304 C   0  0  0  0  0  0  0  0  0  0  0  0
   -1.3165    5.7587   -0.3845 H   0  0  0  0  0  0  0  0  0  0  0  0
   -0.6235    3.7235   -0.2909 C   0  0  0  0  0  0  0  0  0  0  0  0
   -1.0261    2.3475   -0.0731 C   0  0  1  0  0  3  0  0  0  0  0  0
    4.3216    0.0203    0.3751 C   0  0  0  0  0  0  0  0  0  0  0  0
    5.8509   -0.0079    0.5488 C   0  0  0  0  0  0  0  0  0  0  0  0
    6.1626   -0.6136    1.4242 H   0  0  0  0  0  0  0  0  0  0  0  0
    6.2178    1.0253    0.7127 H   0  0  0  0  0  0  0  0  0  0  0  0
    6.3666   -0.4038   -0.3500 H   0  0  0  0  0  0  0  0  0  0  0  0
    4.0007    0.9160   -0.8434 C   0  0  0  0  0  0  0  0  0  0  0  0
    2.9114    1.0045   -0.9956 H   0  0  0  0  0  0  0  0  0  0  0  0
    4.4560    0.4982   -1.7647 H   0  0  0  0  0  0  0  0  0  0  0  0
    4.4145    1.9340   -0.6883 H   0  0  0  0  0  0  0  0  0  0  0  0
    3.7114    0.6225    1.6637 C   0  0  0  0  0  0  0  0  0  0  0  0
    3.9876    0.0101    2.5465 H   0  0  0  0  0  0  0  0  0  0  0  0
    2.6094    0.6699    1.5983 H   0  0  0  0  0  0  0  0  0  0  0  0
    4.0953    1.6508    1.8250 H   0  0  0  0  0  0  0  0  0  0  0  0
    0.8455    4.0652   -0.5952 C   0  0  0  0  0  0  0  0  0  0  0  0
    1.7373    3.6391    0.5933 C   0  0  0  0  0  0  0  0  0  0  0  0
    1.4451    4.1837    1.5145 H   0  0  0  0  0  0  0  0  0  0  0  0
    2.8002    3.8752    0.3781 H   0  0  0  0  0  0  0  0  0  0  0  0
    1.6543    2.5551    0.7820 H   0  0  0  0  0  0  0  0  0  0  0  0
    1.2796    3.3297   -1.8860 C   0  0  0  0  0  0  0  0  0  0  0  0
    2.3470    3.5385   -2.1054 H   0  0  0  0  0  0  0  0  0  0  0  0
    0.6770    3.6754   -2.7508 H   0  0  0  0  0  0  0  0  0  0  0  0
    1.1535    2.2368   -1.7830 H   0  0  0  0  0  0  0  0  0  0  0  0
    1.0526    5.5734   -0.8227 C   0  0  0  0  0  0  0  0  0  0  0  0
    0.7915    6.1713    0.0743 H   0  0  0  0  0  0  0  0  0  0  0  0
    0.4592    5.9536   -1.6793 H   0  0  0  0  0  0  0  0  0  0  0  0
    2.1212    5.7645   -1.0483 H   0  0  0  0  0  0  0  0  0  0  0  0
  1 35  1  0  0  0  0
  3  8  1  0  0  0  0
  4  3  1  0  0  0  0
  5  3  1  0  0  0  0
  6 36  1  0  0  0  0
  6 11  1  0  0  0  0
  8  2  1  0  0  0  0
  8  9  1  1  0  0  0
  8 11  1  0  0  0  0
 10  3  1  0  0  0  0
 11 12  1  6  0  0  0
 11 14  1  0  0  0  0
 13 21  1  0  0  0  0
 14 15  1  0  0  0  0
 14 16  1  0  0  0  0
 14 13  1  0  0  0  0
 17 10  1  0  0  0  0
 18 17  1  0  0  0  0
 19 17  1  0  0  0  0
 20 17  1  0  0  0  0
 21 23  1  0  0  0  0
 21 22  1  0  0  0  0
 21 24  1  0  0  0  0
 25  2  1  0  0  0  0
 25 27  2  0  0  0  0
 26 25  1  0  0  0  0
 27 35  1  0  0  0  0
 28 27  1  0  0  0  0
 28 30  1  0  0  0  0
 29 28  1  0  0  0  0
 30 32  2  0  0  0  0
 31 30  1  0  0  0  0
 32 34  1  0  0  0  0
 32 33  1  0  0  0  0
 34 47  1  0  0  0  0
 35 34  2  0  0  0  0
 36 37  1  0  0  0  0
 38 39  1  0  0  0  0
 38 36  2  0  0  0  0
 39 40  1  0  0  0  0
 41 42  1  0  0  0  0
 41 39  2  0  0  0  0
 43 41  1  0  0  0  0
 44 43  1  0  0  0  0
 45 43  2  0  0  0  0
 45 46  1  0  0  0  0
 46  7  1  1  0  0  0
 46 38  1  0  0  0  0
 47 48  1  0  0  0  0
 47 56  1  0  0  0  0
 48 50  1  0  0  0  0
 48 49  1  0  0  0  0
 51 48  1  0  0  0  0
 52 55  1  0  0  0  0
 52 47  1  0  0  0  0
 53 52  1  0  0  0  0
 54 52  1  0  0  0  0
 56 59  1  0  0  0  0
 56 57  1  0  0  0  0
 58 56  1  0  0  0  0
 60 45  1  0  0  0  0
 60 61  1  0  0  0  0
 61 64  1  0  0  0  0
 61 62  1  0  0  0  0
 63 61  1  0  0  0  0
 65 68  1  0  0  0  0
 65 60  1  0  0  0  0
 66 65  1  0  0  0  0
 67 65  1  0  0  0  0
 69 60  1  0  0  0  0
 69 70  1  0  0  0  0
 71 69  1  0  0  0  0
 72 69  1  0  0  0  0
M  CHG  1   1  -1
M  END
