2,3,4,5
 OpenBabel05122313063D

 41 42  0  0  0  0  0  0  0  0999 V2000
   -1.8259   -2.0422    0.0918 O   0  0  0  0  0  0  0  0  0  0  0  0
    1.8416   -1.2827   -0.4713 O   0  5  0  0  0  0  0  0  0  0  0  0
   -0.9425   -1.3467   -0.7780 O   0  0  0  0  0  1  0  0  0  0  0  0
   -1.1187    1.1787   -0.1115 N   0  0  0  0  0  2  0  0  0  0  0  0
    1.4930    1.2950   -0.3742 N   0  0  0  0  0  2  0  0  0  0  0  0
   -3.0744   -1.4922    0.0064 C   0  0  0  0  0  0  0  0  0  0  0  0
   -4.1166   -2.4195    0.1571 C   0  0  0  0  0  0  0  0  0  0  0  0
   -3.8542   -3.4808    0.2697 H   0  0  0  0  0  0  0  0  0  0  0  0
   -5.4472   -1.9889    0.1397 C   0  0  0  0  0  0  0  0  0  0  0  0
   -6.2558   -2.7265    0.2507 H   0  0  0  0  0  0  0  0  0  0  0  0
   -5.7466   -0.6277   -0.0514 C   0  0  0  0  0  0  0  0  0  0  0  0
   -6.7903   -0.2856   -0.0886 H   0  0  0  0  0  0  0  0  0  0  0  0
   -4.7057    0.2876   -0.1867 C   0  0  0  0  0  0  0  0  0  0  0  0
   -4.9421    1.3553   -0.3147 H   0  0  0  0  0  0  0  0  0  0  0  0
   -3.3302   -0.0939   -0.1451 C   0  0  0  0  0  0  0  0  0  0  0  0
   -2.4154    1.0409   -0.1539 C   0  0  0  0  0  3  0  0  0  0  0  0
   -2.9872    1.9883   -0.1568 H   0  0  0  0  0  0  0  0  0  0  0  0
   -0.5552    2.5614    0.0344 C   0  0  0  0  0  0  0  0  0  0  0  0
    0.7665    2.5016   -0.7453 C   0  0  0  0  0  0  0  0  0  0  0  0
    0.5448    2.4614   -1.8348 H   0  0  0  0  0  0  0  0  0  0  0  0
    1.3779    3.4095   -0.5598 H   0  0  0  0  0  0  0  0  0  0  0  0
    2.8000    1.3324   -0.2479 C   0  0  0  0  0  3  0  0  0  0  0  0
    3.2907    2.3235   -0.3329 H   0  0  0  0  0  0  0  0  0  0  0  0
    3.6603    0.2041   -0.0664 C   0  0  0  0  0  0  0  0  0  0  0  0
    5.0554    0.3798    0.1492 C   0  0  0  0  0  0  0  0  0  0  0  0
    5.4525    1.3991    0.2732 H   0  0  0  0  0  0  0  0  0  0  0  0
    5.9025   -0.7211    0.2067 C   0  0  0  0  0  0  0  0  0  0  0  0
    6.9779   -0.5851    0.3869 H   0  0  0  0  0  0  0  0  0  0  0  0
    5.3742   -2.0198    0.0197 C   0  0  0  0  0  0  0  0  0  0  0  0
    6.0476   -2.8895    0.0584 H   0  0  0  0  0  0  0  0  0  0  0  0
    4.0122   -2.2268   -0.2166 C   0  0  0  0  0  0  0  0  0  0  0  0
    3.5967   -3.2321   -0.3707 H   0  0  0  0  0  0  0  0  0  0  0  0
    3.1400   -1.1201   -0.2413 C   0  0  0  0  0  0  0  0  0  0  0  0
   -0.2991    2.8139    1.5319 C   0  0  0  0  0  0  0  0  0  0  0  0
   -1.2548    2.7950    2.0913 H   0  0  0  0  0  0  0  0  0  0  0  0
    0.1643    3.8103    1.6727 H   0  0  0  0  0  0  0  0  0  0  0  0
    0.3663    2.0467    1.9709 H   0  0  0  0  0  0  0  0  0  0  0  0
   -1.4293    3.6719   -0.5607 C   0  0  0  0  0  0  0  0  0  0  0  0
   -2.3326    3.8711    0.0478 H   0  0  0  0  0  0  0  0  0  0  0  0
   -1.7361    3.4433   -1.6009 H   0  0  0  0  0  0  0  0  0  0  0  0
   -0.8508    4.6160   -0.5759 H   0  0  0  0  0  0  0  0  0  0  0  0
  2 33  1  0  0  0  0
  3  1  1  0  0  0  0
  4 18  1  0  0  0  0
  5 22  1  0  0  0  0
  6  1  1  0  0  0  0
  6  7  1  0  0  0  0
  7  8  1  0  0  0  0
  9  7  2  0  0  0  0
  9 10  1  0  0  0  0
 11  9  1  0  0  0  0
 12 11  1  0  0  0  0
 13 15  1  0  0  0  0
 13 11  2  0  0  0  0
 14 13  1  0  0  0  0
 15  6  2  0  0  0  0
 16 15  1  0  0  0  0
 16  4  1  0  0  0  0
 17 16  1  0  0  0  0
 18 34  1  0  0  0  0
 19 21  1  0  0  0  0
 19  5  1  0  0  0  0
 19 18  1  0  0  0  0
 20 19  1  0  0  0  0
 22 24  1  0  0  0  0
 23 22  1  0  0  0  0
 24 25  1  0  0  0  0
 25 27  2  0  0  0  0
 25 26  1  0  0  0  0
 27 28  1  0  0  0  0
 29 30  1  0  0  0  0
 29 27  1  0  0  0  0
 31 29  2  0  0  0  0
 32 31  1  0  0  0  0
 33 31  1  0  0  0  0
 33 24  2  0  0  0  0
 34 36  1  0  0  0  0
 34 37  1  0  0  0  0
 34 35  1  0  0  0  0
 38 18  1  0  0  0  0
 38 39  1  0  0  0  0
 40 38  1  0  0  0  0
 41 38  1  0  0  0  0
M  CHG  1   2  -1
M  END
