1,2,3,4
 OpenBabel05122313063D

 40 41  0  0  0  0  0  0  0  0999 V2000
   -1.4311   -0.9462   -0.7629 O   0  5  0  0  0  0  0  0  0  0  0  0
    1.3717   -1.0374    0.0653 O   0  5  0  0  0  0  0  0  0  0  0  0
   -1.3001    1.6895   -0.4377 N   0  0  0  0  0  2  0  0  0  0  0  0
    1.2331    1.6187    0.2189 N   0  0  0  0  0  2  0  0  0  0  0  0
   -2.7267   -0.8804   -0.4817 C   0  0  0  0  0  0  0  0  0  0  0  0
   -3.5178   -2.0495   -0.4853 C   0  0  0  0  0  0  0  0  0  0  0  0
   -3.0359   -3.0099   -0.7156 H   0  0  0  0  0  0  0  0  0  0  0  0
   -4.8818   -1.9665   -0.2016 C   0  0  0  0  0  0  0  0  0  0  0  0
   -5.4792   -2.8920   -0.2044 H   0  0  0  0  0  0  0  0  0  0  0  0
   -5.5278   -0.7332    0.0813 C   0  0  0  0  0  0  0  0  0  0  0  0
   -4.7410    0.4220    0.0684 C   0  0  0  0  0  0  0  0  0  0  0  0
   -5.2070    1.4005    0.2672 H   0  0  0  0  0  0  0  0  0  0  0  0
   -3.3464    0.3787   -0.1996 C   0  0  0  0  0  0  0  0  0  0  0  0
   -2.5865    1.6007   -0.2459 C   0  0  0  0  0  3  0  0  0  0  0  0
   -3.1588    2.5418   -0.1098 H   0  0  0  0  0  0  0  0  0  0  0  0
   -0.6303    2.9839   -0.4330 C   0  0  0  0  0  0  0  0  0  0  0  0
   -1.3188    3.8060   -0.1466 H   0  0  0  0  0  0  0  0  0  0  0  0
   -0.2432    3.1856   -1.4549 H   0  0  0  0  0  0  0  0  0  0  0  0
    0.5344    2.8553    0.5483 C   0  0  0  0  0  0  0  0  0  0  0  0
    1.2130    3.7328    0.5059 H   0  0  0  0  0  0  0  0  0  0  0  0
    0.1326    2.7674    1.5806 H   0  0  0  0  0  0  0  0  0  0  0  0
    2.5372    1.5447    0.2721 C   0  0  0  0  0  3  0  0  0  0  0  0
    3.0965    2.4679    0.5284 H   0  0  0  0  0  0  0  0  0  0  0  0
    3.3207    0.3582    0.0642 C   0  0  0  0  0  0  0  0  0  0  0  0
    4.7397    0.4432    0.0390 C   0  0  0  0  0  0  0  0  0  0  0  0
    5.2074    1.4388    0.1012 H   0  0  0  0  0  0  0  0  0  0  0  0
    5.5452   -0.6920   -0.0707 C   0  0  0  0  0  0  0  0  0  0  0  0
    4.8938   -1.9546   -0.1223 C   0  0  0  0  0  0  0  0  0  0  0  0
    5.5070   -2.8663   -0.2018 H   0  0  0  0  0  0  0  0  0  0  0  0
    3.5057   -2.0831   -0.0736 C   0  0  0  0  0  0  0  0  0  0  0  0
    3.0184   -3.0673   -0.1080 H   0  0  0  0  0  0  0  0  0  0  0  0
    2.6967   -0.9301   -0.0011 C   0  0  0  0  0  0  0  0  0  0  0  0
   -7.0048   -0.6907    0.3677 C   0  0  0  0  0  0  0  0  0  0  0  0
   -7.2614   -1.3221    1.2432 H   0  0  0  0  0  0  0  0  0  0  0  0
   -7.5879   -1.0827   -0.4911 H   0  0  0  0  0  0  0  0  0  0  0  0
   -7.3545    0.3381    0.5744 H   0  0  0  0  0  0  0  0  0  0  0  0
    7.0466   -0.6043   -0.1291 C   0  0  0  0  0  0  0  0  0  0  0  0
    7.4022    0.4377   -0.0222 H   0  0  0  0  0  0  0  0  0  0  0  0
    7.4300   -0.9969   -1.0938 H   0  0  0  0  0  0  0  0  0  0  0  0
    7.5152   -1.2110    0.6725 H   0  0  0  0  0  0  0  0  0  0  0  0
  1  5  1  0  0  0  0
  3 16  1  0  0  0  0
  3 14  1  0  0  0  0
  4 22  1  0  0  0  0
  4 19  1  0  0  0  0
  5 13  1  0  0  0  0
  6  5  2  0  0  0  0
  6  8  1  0  0  0  0
  7  6  1  0  0  0  0
  8 10  2  0  0  0  0
  9  8  1  0  0  0  0
 10 33  1  0  0  0  0
 11 10  1  0  0  0  0
 11 12  1  0  0  0  0
 13 11  2  0  0  0  0
 14 13  1  0  0  0  0
 14 15  1  0  0  0  0
 16 17  1  0  0  0  0
 16 19  1  0  0  0  0
 18 16  1  0  0  0  0
 19 21  1  0  0  0  0
 20 19  1  0  0  0  0
 22 23  1  0  0  0  0
 24 22  1  0  0  0  0
 25 24  1  0  0  0  0
 25 26  1  0  0  0  0
 27 25  2  0  0  0  0
 28 30  2  0  0  0  0
 28 27  1  0  0  0  0
 29 28  1  0  0  0  0
 30 32  1  0  0  0  0
 31 30  1  0  0  0  0
 32 24  2  0  0  0  0
 32  2  1  0  0  0  0
 33 36  1  0  0  0  0
 33 34  1  0  0  0  0
 35 33  1  0  0  0  0
 37 27  1  0  0  0  0
 37 38  1  0  0  0  0
 37 40  1  0  0  0  0
 39 37  1  0  0  0  0
M  CHG  2   1  -1   2  -1
M  END
