1,2,7,8
 OpenBabel05122313063D

 43 44  0  0  1  0  0  0  0  0999 V2000
    1.2056   -0.7308    0.1606 O   0  5  0  0  0  0  0  0  0  0  0  0
   -1.2690   -0.7007    0.0649 O   0  5  0  0  0  0  0  0  0  0  0  0
    2.3571   -3.4051    0.0307 Cl  0  0  0  0  0  0  0  0  0  0  0  0
    7.0579   -0.7531   -0.6193 Cl  0  0  0  0  0  0  0  0  0  0  0  0
   -2.5443   -3.1750    0.9197 Cl  0  0  0  0  0  0  0  0  0  0  0  0
   -7.1504   -0.6197   -0.4251 Cl  0  0  0  0  0  0  0  0  0  0  0  0
   -1.2338    1.8486   -0.8884 N   0  0  0  0  0  2  0  0  0  0  0  0
    1.2864    1.9773    0.1016 N   0  0  0  0  0  2  0  0  0  0  0  0
    3.2491    0.5333   -0.1196 C   0  0  0  0  0  0  0  0  0  0  0  0
    2.4833   -0.6852   -0.0239 C   0  0  0  0  0  0  0  0  0  0  0  0
    3.2339   -1.9139   -0.1022 C   0  0  0  0  0  0  0  0  0  0  0  0
    4.6113   -1.9253   -0.2922 C   0  0  0  0  0  0  0  0  0  0  0  0
    5.1418   -2.8843   -0.3629 H   0  0  0  0  0  0  0  0  0  0  0  0
    5.3265   -0.7060   -0.3886 C   0  0  0  0  0  0  0  0  0  0  0  0
    4.6612    0.5074   -0.2922 C   0  0  0  0  0  3  0  0  0  0  0  0
    5.2227    1.4510   -0.3499 H   0  0  0  0  0  0  0  0  0  0  0  0
    2.5859    1.7833    0.0825 C   0  0  0  0  0  0  0  0  0  0  0  0
    3.2292    2.6618    0.2901 H   0  0  0  0  0  0  0  0  0  0  0  0
    0.7893    3.2654    0.6153 C   0  0  1  0  0  0  0  0  0  0  0  0
    1.6785    3.8936    0.8457 H   0  0  0  0  0  0  0  0  0  0  0  0
   -0.0732    3.9955   -0.4388 C   0  0  0  0  0  0  0  0  0  0  0  0
   -0.8914    4.5374    0.0781 H   0  0  0  0  0  0  0  0  0  0  0  0
    0.5330    4.7576   -0.9693 H   0  0  0  0  0  0  0  0  0  0  0  0
   -0.6586    3.0511   -1.4893 C   0  0  0  0  0  0  0  0  0  0  0  0
    0.1413    2.7316   -2.1888 H   0  0  0  0  0  0  0  0  0  0  0  0
   -1.4268    3.5824   -2.0905 H   0  0  0  0  0  0  0  0  0  0  0  0
   -2.5296    1.6573   -1.0068 C   0  0  0  0  0  0  0  0  0  0  0  0
   -3.1092    2.4476   -1.5245 H   0  0  0  0  0  0  0  0  0  0  0  0
   -3.2632    0.5170   -0.5588 C   0  0  0  0  0  0  0  0  0  0  0  0
   -2.5522   -0.6317   -0.0539 C   0  0  0  0  0  0  0  0  0  0  0  0
   -3.3600   -1.7683    0.3144 C   0  0  0  0  0  0  0  0  0  0  0  0
   -4.7459   -1.7537    0.2071 C   0  0  0  0  0  0  0  0  0  0  0  0
   -5.3237   -2.6377    0.5082 H   0  0  0  0  0  0  0  0  0  0  0  0
   -5.4079   -0.6052   -0.2938 C   0  0  0  0  0  0  0  0  0  0  0  0
   -4.6819    0.5117   -0.6788 C   0  0  0  0  0  3  0  0  0  0  0  0
   -5.2000    1.3968   -1.0754 H   0  0  0  0  0  0  0  0  0  0  0  0
    0.0338    3.0382    1.9423 C   0  0  0  0  0  0  0  0  0  0  0  0
   -0.2526    4.0407    2.3277 H   0  0  0  0  0  0  0  0  0  0  0  0
   -0.9153    2.5038    1.7223 H   0  0  0  0  0  0  0  0  0  0  0  0
    0.8381    2.2727    2.9896 C   0  0  0  0  0  0  0  0  0  0  0  0
    1.0511    1.2389    2.6506 H   0  0  0  0  0  0  0  0  0  0  0  0
    0.2808    2.2035    3.9442 H   0  0  0  0  0  0  0  0  0  0  0  0
    1.8093    2.7674    3.2010 H   0  0  0  0  0  0  0  0  0  0  0  0
  4 14  1  0  0  0  0
  6 34  1  0  0  0  0
  8 19  1  0  0  0  0
  9 10  1  0  0  0  0
  9 17  2  0  0  0  0
 10  1  1  0  0  0  0
 11 10  2  0  0  0  0
 11  3  1  0  0  0  0
 12 11  1  0  0  0  0
 13 12  1  0  0  0  0
 14 12  2  0  0  0  0
 14 15  1  0  0  0  0
 15  9  1  0  0  0  0
 16 15  1  0  0  0  0
 17  8  1  0  0  0  0
 17 18  1  0  0  0  0
 19 20  1  1  0  0  0
 19 37  1  0  0  0  0
 21 22  1  0  0  0  0
 21 19  1  0  0  0  0
 23 21  1  0  0  0  0
 24  7  1  0  0  0  0
 24 21  1  0  0  0  0
 25 24  1  0  0  0  0
 26 24  1  0  0  0  0
 27  7  1  0  0  0  0
 27 29  2  0  0  0  0
 28 27  1  0  0  0  0
 29 30  1  0  0  0  0
 30  2  1  0  0  0  0
 30 31  2  0  0  0  0
 31  5  1  0  0  0  0
 32 31  1  0  0  0  0
 32 33  1  0  0  0  0
 34 32  2  0  0  0  0
 35 29  1  0  0  0  0
 35 34  1  0  0  0  0
 36 35  1  0  0  0  0
 37 38  1  0  0  0  0
 37 40  1  0  0  0  0
 39 37  1  0  0  0  0
 40 43  1  0  0  0  0
 40 42  1  0  0  0  0
 41 40  1  0  0  0  0
M  CHG  2   1  -1   2  -1
M  END
