1,2,3,4
 OpenBabel05122313063D

 62 65  0  0  1  0  0  0  0  0999 V2000
    0.0680   -1.6778   -0.6065 N   0  0  0  0  0  2  0  0  0  0  0  0
    1.2845    1.7706   -0.0714 O   0  5  0  0  0  0  0  0  0  0  0  0
    2.4358   -0.4433   -0.1706 O   0  5  0  0  0  0  0  0  0  0  0  0
   -1.0851    0.5863   -0.7240 N   0  0  0  0  0  2  0  0  0  0  0  0
   -1.5430    1.8188   -0.6948 C   0  0  0  0  0  0  0  0  0  0  0  0
   -2.6018    1.9751   -0.9733 H   0  0  0  0  0  0  0  0  0  0  0  0
    2.2207   -2.8214   -0.6031 C   0  0  0  0  0  0  0  0  0  0  0  0
    2.6170    3.9130    0.6134 O   0  0  0  0  0  0  0  0  0  0  0  0
   -1.8836   -1.9937    0.8854 C   0  0  0  0  0  0  0  0  0  0  0  0
   -0.8002    2.9796   -0.3296 C   0  0  0  0  0  0  0  0  0  0  0  0
    0.6023    2.8687   -0.0284 C   0  0  0  0  0  0  0  0  0  0  0  0
    5.0385   -0.5613    0.0245 O   0  0  0  0  0  0  0  0  0  0  0  0
    0.7998   -2.7692   -0.6775 C   0  0  0  0  0  0  0  0  0  0  0  0
    0.2629   -3.7322   -0.7896 H   0  0  0  0  0  0  0  0  0  0  0  0
    2.9595   -1.6143   -0.3353 C   0  0  0  0  0  0  0  0  0  0  0  0
   -1.3921   -1.8012   -0.5411 C   0  0  1  0  0  0  0  0  0  0  0  0
   -1.9289   -0.5171   -1.2308 C   0  0  1  0  0  0  0  0  0  0  0  0
    1.2991    4.0883    0.3375 C   0  0  0  0  0  0  0  0  0  0  0  0
    4.4031   -1.7330   -0.2325 C   0  0  0  0  0  0  0  0  0  0  0  0
   -3.4283   -0.3336   -1.1229 C   0  0  0  0  0  0  0  0  0  0  0  0
    5.0262   -2.9693   -0.3961 C   0  0  0  0  0  0  0  0  0  0  0  0
    6.1196   -3.0451   -0.3197 H   0  0  0  0  0  0  0  0  0  0  0  0
    2.8938   -4.0733   -0.7595 C   0  0  0  0  0  3  0  0  0  0  0  0
    2.2943   -4.9752   -0.9585 H   0  0  0  0  0  0  0  0  0  0  0  0
    4.2707   -4.1449   -0.6602 C   0  0  0  0  0  0  0  0  0  0  0  0
    4.7928   -5.1051   -0.7810 H   0  0  0  0  0  0  0  0  0  0  0  0
   -1.4619    4.2461   -0.2775 C   0  0  0  0  0  3  0  0  0  0  0  0
   -2.5353    4.2912   -0.5185 H   0  0  0  0  0  0  0  0  0  0  0  0
    0.6208    5.3057    0.3824 C   0  0  0  0  0  0  0  0  0  0  0  0
    1.1598    6.2223    0.6591 H   0  0  0  0  0  0  0  0  0  0  0  0
   -1.2728   -1.3338    1.9698 C   0  0  0  0  0  0  0  0  0  0  0  0
   -0.3771   -0.7180    1.7903 H   0  0  0  0  0  0  0  0  0  0  0  0
   -3.0132   -2.7988    1.1248 C   0  0  0  0  0  0  0  0  0  0  0  0
   -3.4988   -3.3151    0.2815 H   0  0  0  0  0  0  0  0  0  0  0  0
   -1.7962   -1.4643    3.2642 C   0  0  0  0  0  0  0  0  0  0  0  0
   -1.3091   -0.9425    4.1019 H   0  0  0  0  0  0  0  0  0  0  0  0
   -4.0508    0.0491    0.0854 C   0  0  0  0  0  0  0  0  0  0  0  0
   -3.4377    0.2636    0.9725 H   0  0  0  0  0  0  0  0  0  0  0  0
   -3.5355   -2.9323    2.4195 C   0  0  0  0  0  0  0  0  0  0  0  0
   -4.4202   -3.5644    2.5899 H   0  0  0  0  0  0  0  0  0  0  0  0
   -0.7646    5.3873    0.0731 C   0  0  0  0  0  0  0  0  0  0  0  0
   -1.2701    6.3629    0.1163 H   0  0  0  0  0  0  0  0  0  0  0  0
   -2.9310   -2.2596    3.4928 C   0  0  0  0  0  0  0  0  0  0  0  0
   -3.3386   -2.3624    4.5101 H   0  0  0  0  0  0  0  0  0  0  0  0
   -4.2362   -0.5995   -2.2448 C   0  0  0  0  0  0  0  0  0  0  0  0
   -3.7589   -0.8892   -3.1948 H   0  0  0  0  0  0  0  0  0  0  0  0
    6.4436   -0.5824    0.1373 C   0  0  0  0  0  0  0  0  0  0  0  0
    6.7583    0.4574    0.3443 H   0  0  0  0  0  0  0  0  0  0  0  0
    6.9329   -0.9284   -0.8026 H   0  0  0  0  0  0  0  0  0  0  0  0
    6.7861   -1.2375    0.9715 H   0  0  0  0  0  0  0  0  0  0  0  0
   -6.2421   -0.1187   -0.9616 C   0  0  0  0  0  0  0  0  0  0  0  0
   -7.3375   -0.0333   -0.8975 H   0  0  0  0  0  0  0  0  0  0  0  0
    3.3730    5.0471    0.9731 C   0  0  0  0  0  0  0  0  0  0  0  0
    4.4053    4.6933    1.1529 H   0  0  0  0  0  0  0  0  0  0  0  0
    2.9884    5.5286    1.9020 H   0  0  0  0  0  0  0  0  0  0  0  0
    3.3885    5.8128    0.1632 H   0  0  0  0  0  0  0  0  0  0  0  0
   -5.4456    0.1587    0.1618 C   0  0  0  0  0  0  0  0  0  0  0  0
   -5.9149    0.4586    1.1109 H   0  0  0  0  0  0  0  0  0  0  0  0
   -5.6340   -0.4989   -2.1671 C   0  0  0  0  0  0  0  0  0  0  0  0
   -6.2486   -0.7117   -3.0549 H   0  0  0  0  0  0  0  0  0  0  0  0
   -1.7268   -2.6740   -1.1426 H   0  0  0  0  0  0  0  0  0  0  0  0
   -1.6779   -0.6373   -2.3088 H   0  0  0  0  0  0  0  0  0  0  0  0
  1 16  1  0  0  0  0
  2 11  1  0  0  0  0
  4  5  1  0  0  0  0
  5 10  2  0  0  0  0
  6  5  1  0  0  0  0
  7 15  1  0  0  0  0
  8 53  1  0  0  0  0
  9 33  2  0  0  0  0
  9 31  1  0  0  0  0
 10 27  1  0  0  0  0
 10 11  1  0  0  0  0
 11 18  2  0  0  0  0
 12 47  1  0  0  0  0
 13  1  1  0  0  0  0
 13  7  2  0  0  0  0
 14 13  1  0  0  0  0
 15 19  2  0  0  0  0
 15  3  1  0  0  0  0
 16 61  1  6  0  0  0
 16  9  1  0  0  0  0
 17 62  1  6  0  0  0
 17 20  1  0  0  0  0
 17  4  1  0  0  0  0
 17 16  1  0  0  0  0
 18 29  1  0  0  0  0
 18  8  1  0  0  0  0
 19 12  1  0  0  0  0
 20 37  1  0  0  0  0
 21 22  1  0  0  0  0
 21 19  1  0  0  0  0
 23 25  1  0  0  0  0
 23  7  1  0  0  0  0
 24 23  1  0  0  0  0
 25 21  2  0  0  0  0
 26 25  1  0  0  0  0
 27 41  1  0  0  0  0
 28 27  1  0  0  0  0
 29 30  1  0  0  0  0
 31 35  2  0  0  0  0
 32 31  1  0  0  0  0
 33 39  1  0  0  0  0
 34 33  1  0  0  0  0
 35 43  1  0  0  0  0
 35 36  1  0  0  0  0
 37 57  2  0  0  0  0
 37 38  1  0  0  0  0
 39 40  1  0  0  0  0
 39 43  2  0  0  0  0
 41 42  1  0  0  0  0
 41 29  2  0  0  0  0
 43 44  1  0  0  0  0
 45 59  1  0  0  0  0
 45 20  2  0  0  0  0
 46 45  1  0  0  0  0
 47 48  1  0  0  0  0
 47 50  1  0  0  0  0
 49 47  1  0  0  0  0
 51 52  1  0  0  0  0
 51 57  1  0  0  0  0
 53 54  1  0  0  0  0
 53 55  1  0  0  0  0
 56 53  1  0  0  0  0
 57 58  1  0  0  0  0
 59 51  2  0  0  0  0
 60 59  1  0  0  0  0
M  CHG  2   2  -1   3  -1
M  END
