1,2,3,4
 OpenBabel05122313063D

 72 75  0  0  0  0  0  0  0  0999 V2000
    2.1410   -0.8546    0.2529 O   0  5  0  0  0  0  0  0  0  0  0  0
    0.7556    1.5838    0.0210 O   0  5  0  0  0  0  0  0  0  0  0  0
   -0.4150   -0.7585   -1.1971 N   0  0  0  0  0  2  0  0  0  0  0  0
   -1.6138    0.4525    1.1635 N   0  0  0  0  0  2  0  0  0  0  0  0
   -5.3098    0.4531   -1.1655 C   0  0  0  0  0  0  0  0  0  0  0  0
   -5.9367    1.2770   -1.5571 H   0  0  0  0  0  0  0  0  0  0  0  0
   -5.2708    0.5353   -0.0608 H   0  0  0  0  0  0  0  0  0  0  0  0
   -5.8355   -0.4980   -1.3905 H   0  0  0  0  0  0  0  0  0  0  0  0
   -3.9290    0.4945   -1.7744 C   0  0  0  0  0  0  0  0  0  0  0  0
   -3.6960    1.2975   -2.9076 C   0  0  0  0  0  0  0  0  0  0  0  0
   -4.5331    1.8700   -3.3361 H   0  0  0  0  0  0  0  0  0  0  0  0
   -2.4187    1.3976   -3.4709 C   0  0  0  0  0  0  0  0  0  0  0  0
   -2.2456    2.0436   -4.3446 H   0  0  0  0  0  0  0  0  0  0  0  0
   -1.3512    0.7027   -2.8954 C   0  0  0  0  0  0  0  0  0  0  0  0
   -0.3299    0.8132   -3.2869 H   0  0  0  0  0  0  0  0  0  0  0  0
   -1.5540   -0.1136   -1.7627 C   0  0  0  0  0  0  0  0  0  0  0  0
   -2.8545   -0.2410   -1.2021 C   0  0  0  0  0  0  0  0  0  0  0  0
   -3.1134   -1.0604    0.0203 C   0  0  0  0  0  0  0  0  0  0  0  0
   -2.5850   -0.5830    1.2486 C   0  0  0  0  0  0  0  0  0  0  0  0
   -2.9013   -1.1993    2.4671 C   0  0  0  0  0  0  0  0  0  0  0  0
   -2.4716   -0.7992    3.3965 H   0  0  0  0  0  0  0  0  0  0  0  0
   -3.7219   -2.3376    2.4639 C   0  0  0  0  0  0  0  0  0  0  0  0
   -3.9801   -2.8301    3.4141 H   0  0  0  0  0  0  0  0  0  0  0  0
   -4.1901   -2.8623    1.2522 C   0  0  0  0  0  0  0  0  0  0  0  0
   -4.8074   -3.7750    1.2534 H   0  0  0  0  0  0  0  0  0  0  0  0
   -3.8973   -2.2384    0.0181 C   0  0  0  0  0  0  0  0  0  0  0  0
   -4.4104   -2.8492   -1.2631 C   0  0  0  0  0  0  0  0  0  0  0  0
   -4.1447   -3.9249   -1.3172 H   0  0  0  0  0  0  0  0  0  0  0  0
   -3.9934   -2.3464   -2.1555 H   0  0  0  0  0  0  0  0  0  0  0  0
   -5.5180   -2.7940   -1.3257 H   0  0  0  0  0  0  0  0  0  0  0  0
    0.3137   -1.5030   -2.0113 C   0  0  0  0  0  3  0  0  0  0  0  0
   -0.1429   -1.7379   -2.9935 H   0  0  0  0  0  0  0  0  0  0  0  0
    1.6315   -2.0230   -1.8131 C   0  0  0  0  0  0  0  0  0  0  0  0
    2.1371   -2.8967   -2.8249 C   0  0  0  0  0  0  0  0  0  0  0  0
    1.4617   -3.1864   -3.6465 H   0  0  0  0  0  0  0  0  0  0  0  0
    3.4394   -3.3633   -2.7936 C   0  0  0  0  0  0  0  0  0  0  0  0
    3.8127   -4.0400   -3.5761 H   0  0  0  0  0  0  0  0  0  0  0  0
    4.3023   -2.9364   -1.7495 C   0  0  0  0  0  0  0  0  0  0  0  0
    5.3423   -3.2970   -1.7441 H   0  0  0  0  0  0  0  0  0  0  0  0
    3.8794   -2.0751   -0.7425 C   0  0  0  0  0  0  0  0  0  0  0  0
    2.5030   -1.6189   -0.7269 C   0  0  0  0  0  0  0  0  0  0  0  0
    4.7903   -1.5575    0.3584 C   0  0  0  0  0  0  0  0  0  0  0  0
    4.1864   -1.5926    1.2921 H   0  0  0  0  0  0  0  0  0  0  0  0
    6.0576   -2.3913    0.5661 C   0  0  0  0  0  0  0  0  0  0  0  0
    5.8253   -3.4623    0.7363 H   0  0  0  0  0  0  0  0  0  0  0  0
    6.6240   -2.0204    1.4446 H   0  0  0  0  0  0  0  0  0  0  0  0
    6.7405   -2.3280   -0.3074 H   0  0  0  0  0  0  0  0  0  0  0  0
    5.1375   -0.0741    0.1152 C   0  0  0  0  0  0  0  0  0  0  0  0
    4.2168    0.5335    0.0185 H   0  0  0  0  0  0  0  0  0  0  0  0
    5.7333    0.0394   -0.8146 H   0  0  0  0  0  0  0  0  0  0  0  0
    5.7365    0.3343    0.9563 H   0  0  0  0  0  0  0  0  0  0  0  0
   -1.9697    1.7179    1.1989 C   0  0  0  0  0  3  0  0  0  0  0  0
   -3.0225    1.9337    1.4689 H   0  0  0  0  0  0  0  0  0  0  0  0
   -1.1423    2.8460    0.8794 C   0  0  0  0  0  0  0  0  0  0  0  0
   -1.6920    4.1445    1.0892 C   0  0  0  0  0  0  0  0  0  0  0  0
   -2.6963    4.2188    1.5375 H   0  0  0  0  0  0  0  0  0  0  0  0
   -0.9949    5.2900    0.7381 C   0  0  0  0  0  0  0  0  0  0  0  0
   -1.4278    6.2862    0.9109 H   0  0  0  0  0  0  0  0  0  0  0  0
    0.2837    5.1627    0.1392 C   0  0  0  0  0  0  0  0  0  0  0  0
    0.8301    6.0766   -0.1399 H   0  0  0  0  0  0  0  0  0  0  0  0
    0.8682    3.9226   -0.1109 C   0  0  0  0  0  0  0  0  0  0  0  0
    0.1654    2.7167    0.2693 C   0  0  0  0  0  0  0  0  0  0  0  0
    2.2203    3.7529   -0.7847 C   0  0  0  0  0  0  0  0  0  0  0  0
    2.7307    2.9290   -0.2382 H   0  0  0  0  0  0  0  0  0  0  0  0
    3.1088    4.9988   -0.7271 C   0  0  0  0  0  0  0  0  0  0  0  0
    3.2376    5.3673    0.3111 H   0  0  0  0  0  0  0  0  0  0  0  0
    2.6924    5.8319   -1.3322 H   0  0  0  0  0  0  0  0  0  0  0  0
    4.1142    4.7734   -1.1370 H   0  0  0  0  0  0  0  0  0  0  0  0
    2.0450    3.2665   -2.2373 C   0  0  0  0  0  0  0  0  0  0  0  0
    1.4515    2.3328   -2.2630 H   0  0  0  0  0  0  0  0  0  0  0  0
    3.0295    3.0612   -2.7069 H   0  0  0  0  0  0  0  0  0  0  0  0
    1.5242    4.0342   -2.8475 H   0  0  0  0  0  0  0  0  0  0  0  0
  2 62  1  0  0  0  0
  4 52  1  0  0  0  0
  4 19  1  0  0  0  0
  5  7  1  0  0  0  0
  6  5  1  0  0  0  0
  8  5  1  0  0  0  0
  9 17  1  0  0  0  0
  9  5  1  0  0  0  0
 10  9  2  0  0  0  0
 11 10  1  0  0  0  0
 12 10  1  0  0  0  0
 12 14  2  0  0  0  0
 13 12  1  0  0  0  0
 14 16  1  0  0  0  0
 15 14  1  0  0  0  0
 16 17  2  0  0  0  0
 16  3  1  0  0  0  0
 17 18  1  0  0  0  0
 18 19  1  0  0  0  0
 19 20  2  0  0  0  0
 20 21  1  0  0  0  0
 22 20  1  0  0  0  0
 22 23  1  0  0  0  0
 24 25  1  0  0  0  0
 24 22  2  0  0  0  0
 26 18  2  0  0  0  0
 26 24  1  0  0  0  0
 27 26  1  0  0  0  0
 28 27  1  0  0  0  0
 29 27  1  0  0  0  0
 30 27  1  0  0  0  0
 31 33  1  0  0  0  0
 31  3  1  0  0  0  0
 32 31  1  0  0  0  0
 33 41  1  0  0  0  0
 34 36  1  0  0  0  0
 34 33  2  0  0  0  0
 35 34  1  0  0  0  0
 36 38  2  0  0  0  0
 37 36  1  0  0  0  0
 38 39  1  0  0  0  0
 38 40  1  0  0  0  0
 40 41  2  0  0  0  0
 40 42  1  0  0  0  0
 41  1  1  0  0  0  0
 42 44  1  0  0  0  0
 42 43  1  0  0  0  0
 44 45  1  0  0  0  0
 44 46  1  0  0  0  0
 47 44  1  0  0  0  0
 48 42  1  0  0  0  0
 48 51  1  0  0  0  0
 49 48  1  0  0  0  0
 50 48  1  0  0  0  0
 52 53  1  0  0  0  0
 54 55  1  0  0  0  0
 54 52  1  0  0  0  0
 55 56  1  0  0  0  0
 57 58  1  0  0  0  0
 57 55  2  0  0  0  0
 59 57  1  0  0  0  0
 60 59  1  0  0  0  0
 61 59  2  0  0  0  0
 61 62  1  0  0  0  0
 62 54  2  0  0  0  0
 63 65  1  0  0  0  0
 63 64  1  0  0  0  0
 63 61  1  0  0  0  0
 65 66  1  0  0  0  0
 67 65  1  0  0  0  0
 68 65  1  0  0  0  0
 69 63  1  0  0  0  0
 70 69  1  0  0  0  0
 71 69  1  0  0  0  0
 72 69  1  0  0  0  0
M  CHG  2   1  -1   2  -1
M  END
