1,2,4,5
 OpenBabel05122313063D

 47 50  0  0  1  0  0  0  0  0999 V2000
   -1.9296   -1.9717   -0.3021 O   0  0  0  0  0  1  0  0  0  0  0  0
   -2.0060    0.9444    0.0114 N   0  0  0  0  0  2  0  0  0  0  0  0
   -3.2046   -1.8223   -0.1162 C   0  0  1  0  0  3  0  0  0  0  0  0
    0.8342   -1.8454   -0.3184 O   0  5  0  0  0  0  0  0  0  0  0  0
    0.6465    1.0301   -0.0906 N   0  0  0  0  0  2  0  0  0  0  0  0
   -4.0066   -2.9954   -0.3239 C   0  0  0  0  0  0  0  0  0  0  0  0
   -3.4709   -3.8885   -0.6756 H   0  0  0  0  0  0  0  0  0  0  0  0
   -5.3653   -3.0134   -0.0675 C   0  0  0  0  0  0  0  0  0  0  0  0
   -5.9393   -3.9392   -0.2296 H   0  0  0  0  0  0  0  0  0  0  0  0
   -6.0172   -1.8467    0.4068 C   0  0  0  0  0  0  0  0  0  0  0  0
   -7.0986   -1.8509    0.6045 H   0  0  0  0  0  0  0  0  0  0  0  0
   -5.2790   -0.6915    0.6033 C   0  0  0  0  0  0  0  0  0  0  0  0
   -5.8116    0.2065    0.9416 H   0  0  0  0  0  0  0  0  0  0  0  0
   -3.8721   -0.6056    0.3346 C   0  0  0  0  0  0  0  0  0  0  0  0
   -3.2343    0.6899    0.4772 C   0  0  0  0  0  0  0  0  0  0  0  0
   -3.9855    1.7629    1.2406 C   0  0  0  0  0  0  0  0  0  0  0  0
   -3.2988    2.5520    1.5932 H   0  0  0  0  0  0  0  0  0  0  0  0
   -4.4717    1.3052    2.1221 H   0  0  0  0  0  0  0  0  0  0  0  0
   -4.7845    2.2468    0.6425 H   0  0  0  0  0  0  0  0  0  0  0  0
   -1.4335    2.2245   -0.1555 C   0  0  0  0  0  0  0  0  0  0  0  0
   -2.1582    3.4085   -0.4209 C   0  0  0  0  0  0  0  0  0  0  0  0
   -3.2467    3.3674   -0.5417 H   0  0  0  0  0  0  0  0  0  0  0  0
   -1.4963    4.6301   -0.5884 C   0  0  0  0  0  0  0  0  0  0  0  0
   -2.0797    5.5378   -0.8013 H   0  0  0  0  0  0  0  0  0  0  0  0
   -0.0941    4.6898   -0.5137 C   0  0  0  0  0  0  0  0  0  0  0  0
    0.4290    5.6477   -0.6499 H   0  0  0  0  0  0  0  0  0  0  0  0
    0.6468    3.5187   -0.3220 C   0  0  0  0  0  0  0  0  0  0  0  0
    1.7441    3.5701   -0.3375 H   0  0  0  0  0  0  0  0  0  0  0  0
   -0.0033    2.2773   -0.1688 C   0  0  0  0  0  0  0  0  0  0  0  0
    1.9602    0.8895    0.0183 C   0  0  0  0  0  0  0  0  0  0  0  0
    2.5364    1.8241    0.1012 H   0  0  0  0  0  0  0  0  0  0  0  0
    2.7125   -0.3129    0.0156 C   0  0  0  0  0  0  0  0  0  0  0  0
    4.1674   -0.2303    0.1917 C   0  0  1  0  0  3  0  0  0  0  0  0
    4.8547    0.9718    0.5158 C   0  0  0  0  0  0  0  0  0  0  0  0
    4.2975    1.9044    0.6821 H   0  0  0  0  0  0  0  0  0  0  0  0
    6.2407    1.0126    0.6589 C   0  0  0  0  0  0  0  0  0  0  0  0
    6.7282    1.9664    0.9123 H   0  0  0  0  0  0  0  0  0  0  0  0
    7.0181   -0.1538    0.4933 C   0  0  0  0  0  0  0  0  0  0  0  0
    8.1114   -0.1160    0.6080 H   0  0  0  0  0  0  0  0  0  0  0  0
    6.3776   -1.3517    0.1955 C   0  0  0  0  0  0  0  0  0  0  0  0
    6.9575   -2.2800    0.0734 H   0  0  0  0  0  0  0  0  0  0  0  0
    4.9679   -1.4149    0.0467 C   0  0  0  0  0  0  0  0  0  0  0  0
    4.3201   -2.6642   -0.2392 C   0  0  0  0  0  0  0  0  0  0  0  0
    4.9476   -3.5630   -0.3508 H   0  0  0  0  0  0  0  0  0  0  0  0
    2.9594   -2.7605   -0.3585 C   0  0  0  0  0  0  0  0  0  0  0  0
    2.4568   -3.7166   -0.5617 H   0  0  0  0  0  0  0  0  0  0  0  0
    2.0989   -1.6080   -0.2143 C   0  0  0  0  0  0  0  0  0  0  0  0
  2 15  1  0  0  0  0
  3  1  1  1  0  0  0
  3 14  1  0  0  0  0
  4 47  1  0  0  0  0
  5 30  1  0  0  0  0
  6  3  1  0  0  0  0
  6  8  2  0  0  0  0
  7  6  1  0  0  0  0
  8 10  1  0  0  0  0
  9  8  1  0  0  0  0
 10 12  2  0  0  0  0
 10 11  1  0  0  0  0
 12 13  1  0  0  0  0
 14 15  2  0  0  0  0
 14 12  1  0  0  0  0
 15 16  1  0  0  0  0
 16 17  1  0  0  0  0
 16 18  1  0  0  0  0
 19 16  1  0  0  0  0
 20  2  1  0  0  0  0
 21 20  2  0  0  0  0
 22 21  1  0  0  0  0
 23 25  2  0  0  0  0
 23 21  1  0  0  0  0
 24 23  1  0  0  0  0
 25 27  1  0  0  0  0
 26 25  1  0  0  0  0
 27 29  2  0  0  0  0
 28 27  1  0  0  0  0
 29 20  1  0  0  0  0
 29  5  1  0  0  0  0
 30 31  1  0  0  0  0
 32 30  2  0  0  0  0
 33 32  1  1  0  0  0
 33 34  1  0  0  0  0
 34 36  2  0  0  0  0
 34 35  1  0  0  0  0
 36 37  1  0  0  0  0
 38 39  1  0  0  0  0
 38 36  1  0  0  0  0
 40 38  2  0  0  0  0
 41 40  1  0  0  0  0
 42 33  1  0  0  0  0
 42 40  1  0  0  0  0
 43 42  2  0  0  0  0
 44 43  1  0  0  0  0
 45 43  1  0  0  0  0
 45 47  2  0  0  0  0
 46 45  1  0  0  0  0
 47 32  1  0  0  0  0
M  CHG  1   4  -1
M  END
