1,2,3,4
 OpenBabel05122313063D

 58 62  0  0  0  0  0  0  0  0999 V2000
   -2.3010   -1.8709   -0.4357 N   0  0  0  0  0  2  0  0  0  0  0  0
   -2.8475    0.7265   -0.4466 N   0  0  0  0  0  2  0  0  0  0  0  0
    0.4694   -1.5809    0.2038 O   0  5  0  0  0  0  0  0  0  0  0  0
   -0.0638    1.1969   -0.8661 O   0  5  0  0  0  0  0  0  0  0  0  0
   -3.9570   -0.1205   -0.3879 C   0  0  0  0  0  0  0  0  0  0  0  0
   -5.3044    0.2919   -0.3071 C   0  0  0  0  0  0  0  0  0  0  0  0
   -5.5443    1.3650   -0.2786 H   0  0  0  0  0  0  0  0  0  0  0  0
   -6.3395   -0.6489   -0.2523 C   0  0  0  0  0  0  0  0  0  0  0  0
   -7.3836   -0.3084   -0.1863 H   0  0  0  0  0  0  0  0  0  0  0  0
   -6.0445   -2.0243   -0.2618 C   0  0  0  0  0  0  0  0  0  0  0  0
   -6.8565   -2.7639   -0.1968 H   0  0  0  0  0  0  0  0  0  0  0  0
   -4.7148   -2.4573   -0.3273 C   0  0  0  0  0  0  0  0  0  0  0  0
   -4.4869   -3.5327   -0.2918 H   0  0  0  0  0  0  0  0  0  0  0  0
   -3.6565   -1.5266   -0.3995 C   0  0  0  0  0  0  0  0  0  0  0  0
   -1.8687   -3.0245   -0.8960 C   0  0  0  0  0  3  0  0  0  0  0  0
   -2.6089   -3.7212   -1.3484 H   0  0  0  0  0  0  0  0  0  0  0  0
   -0.5147   -3.4911   -0.9089 C   0  0  0  0  0  0  0  0  0  0  0  0
    0.5990   -2.7455   -0.3320 C   0  0  0  0  0  0  0  0  0  0  0  0
    1.9114   -3.3650   -0.3865 C   0  0  0  0  0  0  0  0  0  0  0  0
    2.0743   -4.5993   -1.0197 C   0  0  0  0  0  0  0  0  0  0  0  0
    3.0827   -5.0423   -1.0476 H   0  0  0  0  0  0  0  0  0  0  0  0
    0.9908   -5.3056   -1.5947 C   0  0  0  0  0  0  0  0  0  0  0  0
    1.1576   -6.2810   -2.0736 H   0  0  0  0  0  0  0  0  0  0  0  0
   -0.2791   -4.7557   -1.5259 C   0  0  0  0  0  0  0  0  0  0  0  0
   -1.1418   -5.2938   -1.9523 H   0  0  0  0  0  0  0  0  0  0  0  0
    3.0788   -2.6691    0.2113 C   0  0  0  0  0  0  0  0  0  0  0  0
    3.0345   -2.1739    1.5353 C   0  0  0  0  0  0  0  0  0  0  0  0
    2.1139   -2.3080    2.1207 H   0  0  0  0  0  0  0  0  0  0  0  0
    4.1509   -1.5522    2.1102 C   0  0  0  0  0  0  0  0  0  0  0  0
    4.0982   -1.1853    3.1476 H   0  0  0  0  0  0  0  0  0  0  0  0
    5.3400   -1.4082    1.3746 C   0  0  0  0  0  0  0  0  0  0  0  0
    6.2155   -0.9162    1.8249 H   0  0  0  0  0  0  0  0  0  0  0  0
    5.4001   -1.8979    0.0607 C   0  0  0  0  0  0  0  0  0  0  0  0
    6.3231   -1.7850   -0.5285 H   0  0  0  0  0  0  0  0  0  0  0  0
    4.2807   -2.5188   -0.5140 C   0  0  0  0  0  0  0  0  0  0  0  0
    4.3257   -2.8780   -1.5535 H   0  0  0  0  0  0  0  0  0  0  0  0
   -1.7821    2.9011   -0.8170 C   0  0  0  0  0  0  0  0  0  0  0  0
   -2.0762    4.2932   -0.9180 C   0  0  0  0  0  0  0  0  0  0  0  0
   -3.1321    4.6079   -0.8716 H   0  0  0  0  0  0  0  0  0  0  0  0
   -1.0690    5.2351   -1.0471 C   0  0  0  0  0  0  0  0  0  0  0  0
   -1.3036    6.3082   -1.0953 H   0  0  0  0  0  0  0  0  0  0  0  0
    0.2757    4.7991   -1.1104 C   0  0  0  0  0  0  0  0  0  0  0  0
    1.0743    5.5537   -1.1851 H   0  0  0  0  0  0  0  0  0  0  0  0
    0.6408    3.4492   -1.0621 C   0  0  0  0  0  0  0  0  0  0  0  0
   -0.3957    2.4397   -0.8971 C   0  0  0  0  0  0  0  0  0  0  0  0
    2.0688    3.0555   -1.1842 C   0  0  0  0  0  0  0  0  0  0  0  0
    2.9409    3.8033   -2.0120 C   0  0  0  0  0  0  0  0  0  0  0  0
    2.5369    4.6397   -2.6028 H   0  0  0  0  0  0  0  0  0  0  0  0
    4.2997    3.4786   -2.1224 C   0  0  0  0  0  0  0  0  0  0  0  0
    4.9495    4.0743   -2.7822 H   0  0  0  0  0  0  0  0  0  0  0  0
    4.8251    2.3884   -1.4107 C   0  0  0  0  0  0  0  0  0  0  0  0
    5.8900    2.1244   -1.5034 H   0  0  0  0  0  0  0  0  0  0  0  0
    3.9750    1.6285   -0.5917 C   0  0  0  0  0  0  0  0  0  0  0  0
    4.3659    0.7616   -0.0378 H   0  0  0  0  0  0  0  0  0  0  0  0
    2.6170    1.9545   -0.4816 C   0  0  0  0  0  0  0  0  0  0  0  0
    1.9627    1.3369    0.1424 H   0  0  0  0  0  0  0  0  0  0  0  0
   -2.9022    2.0122   -0.7119 C   0  0  0  0  0  3  0  0  0  0  0  0
   -3.8930    2.4866   -0.8914 H   0  0  0  0  0  0  0  0  0  0  0  0
  1 14  1  0  0  0  0
  2  5  1  0  0  0  0
  5  6  1  0  0  0  0
  6  7  1  0  0  0  0
  6  8  2  0  0  0  0
  8  9  1  0  0  0  0
 10  8  1  0  0  0  0
 10 11  1  0  0  0  0
 12 13  1  0  0  0  0
 12 10  2  0  0  0  0
 14  5  2  0  0  0  0
 14 12  1  0  0  0  0
 15  1  1  0  0  0  0
 16 15  1  0  0  0  0
 17 15  1  0  0  0  0
 17 18  1  0  0  0  0
 18  3  1  0  0  0  0
 19 18  2  0  0  0  0
 19 26  1  0  0  0  0
 20 19  1  0  0  0  0
 21 20  1  0  0  0  0
 22 24  1  0  0  0  0
 22 20  2  0  0  0  0
 23 22  1  0  0  0  0
 24 17  2  0  0  0  0
 25 24  1  0  0  0  0
 26 27  1  0  0  0  0
 27 29  2  0  0  0  0
 27 28  1  0  0  0  0
 29 30  1  0  0  0  0
 31 32  1  0  0  0  0
 31 29  1  0  0  0  0
 33 31  2  0  0  0  0
 34 33  1  0  0  0  0
 35 33  1  0  0  0  0
 35 26  2  0  0  0  0
 36 35  1  0  0  0  0
 37 57  1  0  0  0  0
 38 39  1  0  0  0  0
 38 37  2  0  0  0  0
 40 38  1  0  0  0  0
 41 40  1  0  0  0  0
 42 44  1  0  0  0  0
 42 40  2  0  0  0  0
 43 42  1  0  0  0  0
 44 45  2  0  0  0  0
 45  4  1  0  0  0  0
 45 37  1  0  0  0  0
 46 44  1  0  0  0  0
 46 55  1  0  0  0  0
 47 46  2  0  0  0  0
 48 47  1  0  0  0  0
 49 47  1  0  0  0  0
 49 51  2  0  0  0  0
 50 49  1  0  0  0  0
 51 53  1  0  0  0  0
 52 51  1  0  0  0  0
 53 55  2  0  0  0  0
 53 54  1  0  0  0  0
 55 56  1  0  0  0  0
 57  2  1  0  0  0  0
 58 57  1  0  0  0  0
M  CHG  2   3  -1   4  -1
M  END
