3,4,5,6
 OpenBabel05122313063D

 44 46  0  0  1  0  0  0  0  0999 V2000
   -1.3404   -4.2023    0.4284 Cl  0  0  0  0  0  0  0  0  0  0  0  0
    3.4544   -2.9700    0.1834 Cl  0  0  0  0  0  0  0  0  0  0  0  0
   -0.8079   -1.3884   -0.0844 O   0  5  0  0  0  0  0  0  0  0  0  0
    1.5977   -0.7386    0.0102 O   0  5  0  0  0  0  0  0  0  0  0  0
   -1.5097    1.2071   -0.5537 N   0  0  0  0  0  2  0  0  0  0  0  0
    0.9261    1.8700   -0.2244 N   0  0  0  0  0  2  0  0  0  0  0  0
   -2.0761   -1.6286   -0.0764 C   0  0  0  0  0  0  0  0  0  0  0  0
   -2.5394   -2.9741    0.1564 C   0  0  0  0  0  0  0  0  0  0  0  0
   -3.8929   -3.2927    0.1675 C   0  0  0  0  0  0  0  0  0  0  0  0
   -4.1837   -4.3370    0.3528 H   0  0  0  0  0  0  0  0  0  0  0  0
   -4.8760   -2.2974   -0.0562 C   0  0  0  0  0  0  0  0  0  0  0  0
   -5.9409   -2.5696   -0.0456 H   0  0  0  0  0  0  0  0  0  0  0  0
   -4.4781   -0.9893   -0.2888 C   0  0  0  0  0  3  0  0  0  0  0  0
   -5.2267   -0.2013   -0.4685 H   0  0  0  0  0  0  0  0  0  0  0  0
   -3.0988   -0.6328   -0.3008 C   0  0  0  0  0  0  0  0  0  0  0  0
   -2.7297    0.7220   -0.5627 C   0  0  0  0  0  0  0  0  0  0  0  0
   -3.5597    1.4116   -0.8038 H   0  0  0  0  0  0  0  0  0  0  0  0
   -1.2317    2.6059   -0.9540 C   0  0  1  0  0  0  0  0  0  0  0  0
   -0.9319    2.5690   -2.0256 H   0  0  0  0  0  0  0  0  0  0  0  0
   -2.3725    3.6201   -0.7918 C   0  0  0  0  0  0  0  0  0  0  0  0
   -3.2686    3.2970   -1.3606 H   0  0  0  0  0  0  0  0  0  0  0  0
   -2.0360    4.5550   -1.2901 H   0  0  0  0  0  0  0  0  0  0  0  0
   -2.7080    3.9215    0.6738 C   0  0  0  0  0  0  0  0  0  0  0  0
   -3.4970    4.6994    0.7261 H   0  0  0  0  0  0  0  0  0  0  0  0
   -3.1282    3.0151    1.1609 H   0  0  0  0  0  0  0  0  0  0  0  0
   -1.4545    4.3695    1.4351 C   0  0  0  0  0  0  0  0  0  0  0  0
   -1.6917    4.5557    2.5024 H   0  0  0  0  0  0  0  0  0  0  0  0
   -1.0985    5.3395    1.0203 H   0  0  0  0  0  0  0  0  0  0  0  0
   -0.3427    3.3219    1.3240 C   0  0  0  0  0  0  0  0  0  0  0  0
    0.5772    3.6480    1.8516 H   0  0  0  0  0  0  0  0  0  0  0  0
   -0.6642    2.3723    1.8038 H   0  0  0  0  0  0  0  0  0  0  0  0
    0.0083    3.0092   -0.1420 C   0  0  1  0  0  0  0  0  0  0  0  0
    0.4751    3.9065   -0.6076 H   0  0  0  0  0  0  0  0  0  0  0  0
    2.2239    2.0731   -0.2054 C   0  0  0  0  0  0  0  0  0  0  0  0
    2.5737    3.1250   -0.2199 H   0  0  0  0  0  0  0  0  0  0  0  0
    3.2226    1.0548   -0.1563 C   0  0  0  0  0  0  0  0  0  0  0  0
    4.5999    1.4160   -0.1948 C   0  0  0  0  0  3  0  0  0  0  0  0
    4.8622    2.4823   -0.2817 H   0  0  0  0  0  0  0  0  0  0  0  0
    5.5928    0.4501   -0.1235 C   0  0  0  0  0  0  0  0  0  0  0  0
    6.6552    0.7302   -0.1545 H   0  0  0  0  0  0  0  0  0  0  0  0
    5.2279   -0.9137   -0.0066 C   0  0  0  0  0  0  0  0  0  0  0  0
    5.9973   -1.6972    0.0530 H   0  0  0  0  0  0  0  0  0  0  0  0
    3.8909   -1.2942    0.0368 C   0  0  0  0  0  0  0  0  0  0  0  0
    2.8218   -0.3298   -0.0391 C   0  0  0  0  0  0  0  0  0  0  0  0
  3  7  1  0  0  0  0
  6 34  1  0  0  0  0
  6 32  1  0  0  0  0
  7  8  2  0  0  0  0
  8  9  1  0  0  0  0
  8  1  1  0  0  0  0
  9 10  1  0  0  0  0
 11 12  1  0  0  0  0
 11  9  2  0  0  0  0
 13 11  1  0  0  0  0
 14 13  1  0  0  0  0
 15 13  1  0  0  0  0
 15  7  1  0  0  0  0
 16  5  1  0  0  0  0
 16 15  2  0  0  0  0
 17 16  1  0  0  0  0
 18 19  1  6  0  0  0
 18 20  1  0  0  0  0
 18  5  1  0  0  0  0
 18 32  1  0  0  0  0
 20 23  1  0  0  0  0
 21 20  1  0  0  0  0
 22 20  1  0  0  0  0
 23 24  1  0  0  0  0
 23 25  1  0  0  0  0
 23 26  1  0  0  0  0
 26 27  1  0  0  0  0
 28 26  1  0  0  0  0
 29 26  1  0  0  0  0
 29 31  1  0  0  0  0
 29 30  1  0  0  0  0
 32 33  1  6  0  0  0
 32 29  1  0  0  0  0
 34 36  2  0  0  0  0
 35 34  1  0  0  0  0
 36 44  1  0  0  0  0
 37 36  1  0  0  0  0
 37 39  1  0  0  0  0
 38 37  1  0  0  0  0
 39 41  2  0  0  0  0
 40 39  1  0  0  0  0
 41 43  1  0  0  0  0
 41 42  1  0  0  0  0
 43  2  1  0  0  0  0
 44  4  1  0  0  0  0
 44 43  2  0  0  0  0
M  CHG  2   3  -1   4  -1
M  END
