3,4,6,7
 OpenBabel05122313063D

 71 72  0  0  1  0  0  0  0  0999 V2000
   -0.6278    3.4085    1.4967 Si  0  0  0  0  0  0  0  0  0  0  0  0
    0.6216    3.4082   -1.4982 Si  0  0  0  0  0  0  0  0  0  0  0  0
   -1.4869   -1.6331   -1.1139 O   0  0  0  0  0  1  0  0  0  0  0  0
    1.4912   -1.6256    1.1153 O   0  5  0  0  0  0  0  0  0  0  0  0
   -0.0009    2.9756    0.0002 O   0  0  0  0  0  0  0  0  0  0  0  0
   -1.0740   -1.2087    1.5796 N   0  0  0  0  0  2  0  0  0  0  0  0
    1.0764   -1.2084   -1.5788 N   0  0  0  0  0  2  0  0  0  0  0  0
   -2.7346   -1.8364   -0.7886 C   0  0  2  0  0  3  0  0  0  0  0  0
   -3.6759   -2.1405   -1.8196 C   0  0  0  0  0  0  0  0  0  0  0  0
   -3.3004   -2.1967   -2.8519 H   0  0  0  0  0  0  0  0  0  0  0  0
   -5.0143   -2.3697   -1.5275 C   0  0  0  0  0  0  0  0  0  0  0  0
   -5.7058   -2.6104   -2.3519 H   0  0  0  0  0  0  0  0  0  0  0  0
   -5.5236   -2.3019   -0.1998 C   0  0  0  0  0  0  0  0  0  0  0  0
   -4.6172   -1.9904    0.8110 C   0  0  0  0  0  0  0  0  0  0  0  0
   -4.9696   -1.9167    1.8537 H   0  0  0  0  0  0  0  0  0  0  0  0
   -3.2366   -1.7608    0.5545 C   0  0  0  0  0  0  0  0  0  0  0  0
   -6.9836   -2.5566    0.0780 C   0  0  0  0  0  0  0  0  0  0  0  0
   -7.2822   -3.5852   -0.2170 H   0  0  0  0  0  0  0  0  0  0  0  0
   -7.6359   -1.8603   -0.4907 H   0  0  0  0  0  0  0  0  0  0  0  0
   -7.2200   -2.4355    1.1531 H   0  0  0  0  0  0  0  0  0  0  0  0
   -2.3726   -1.3864    1.6326 C   0  0  0  0  0  0  0  0  0  0  0  0
   -2.8659   -1.2073    2.6097 H   0  0  0  0  0  0  0  0  0  0  0  0
   -0.4294   -0.6547    2.7739 C   0  0  0  0  0  0  0  0  0  0  0  0
    0.4622   -1.2672    3.0002 H   0  0  0  0  0  0  0  0  0  0  0  0
   -1.1373   -0.7124    3.6303 H   0  0  0  0  0  0  0  0  0  0  0  0
    0.0023    0.8021    2.5356 C   0  0  0  0  0  0  0  0  0  0  0  0
    0.6987    0.8008    1.6704 H   0  0  0  0  0  0  0  0  0  0  0  0
    0.5995    1.1308    3.4132 H   0  0  0  0  0  0  0  0  0  0  0  0
   -1.1580    1.7746    2.2852 C   0  0  0  0  0  0  0  0  0  0  0  0
   -1.7352    1.9597    3.2182 H   0  0  0  0  0  0  0  0  0  0  0  0
   -1.8763    1.3298    1.5600 H   0  0  0  0  0  0  0  0  0  0  0  0
   -2.1134    4.5469    1.2581 C   0  0  0  0  0  0  0  0  0  0  0  0
   -1.8160    5.4929    0.7602 H   0  0  0  0  0  0  0  0  0  0  0  0
   -2.5806    4.8092    2.2299 H   0  0  0  0  0  0  0  0  0  0  0  0
   -2.8852    4.0593    0.6280 H   0  0  0  0  0  0  0  0  0  0  0  0
    0.7177    4.2680    2.5028 C   0  0  0  0  0  0  0  0  0  0  0  0
    1.6075    3.6143    2.6074 H   0  0  0  0  0  0  0  0  0  0  0  0
    0.3582    4.5230    3.5213 H   0  0  0  0  0  0  0  0  0  0  0  0
    1.0445    5.2079    2.0123 H   0  0  0  0  0  0  0  0  0  0  0  0
    2.1048    4.5508   -1.2638 C   0  0  0  0  0  0  0  0  0  0  0  0
    1.8059    5.4962   -0.7657 H   0  0  0  0  0  0  0  0  0  0  0  0
    2.5690    4.8138   -2.2369 H   0  0  0  0  0  0  0  0  0  0  0  0
    2.8792    4.0656   -0.6352 H   0  0  0  0  0  0  0  0  0  0  0  0
   -0.7281    4.2631   -2.5027 C   0  0  0  0  0  0  0  0  0  0  0  0
   -1.6166    3.6072   -2.6043 H   0  0  0  0  0  0  0  0  0  0  0  0
   -0.3715    4.5172   -3.5225 H   0  0  0  0  0  0  0  0  0  0  0  0
   -1.0559    5.2031   -2.0131 H   0  0  0  0  0  0  0  0  0  0  0  0
    1.1545    1.7748   -2.2859 C   0  0  0  0  0  0  0  0  0  0  0  0
    1.7307    1.9604   -3.2194 H   0  0  0  0  0  0  0  0  0  0  0  0
    1.8740    1.3319   -1.5609 H   0  0  0  0  0  0  0  0  0  0  0  0
   -0.0041    0.7999   -2.5352 C   0  0  0  0  0  0  0  0  0  0  0  0
   -0.6025    1.1270   -3.4126 H   0  0  0  0  0  0  0  0  0  0  0  0
   -0.7000    0.7976   -1.6695 H   0  0  0  0  0  0  0  0  0  0  0  0
    0.4305   -0.6562   -2.7731 C   0  0  0  0  0  0  0  0  0  0  0  0
   -0.4600   -1.2705   -2.9989 H   0  0  0  0  0  0  0  0  0  0  0  0
    1.1383   -0.7127   -3.6296 H   0  0  0  0  0  0  0  0  0  0  0  0
    2.3751   -1.3848   -1.6322 C   0  0  0  0  0  0  0  0  0  0  0  0
    2.8678   -1.2063   -2.6098 H   0  0  0  0  0  0  0  0  0  0  0  0
    3.2399   -1.7570   -0.5539 C   0  0  0  0  0  0  0  0  0  0  0  0
    4.6204   -1.9868   -0.8107 C   0  0  0  0  0  3  0  0  0  0  0  0
    4.9721   -1.9153   -1.8538 H   0  0  0  0  0  0  0  0  0  0  0  0
    5.5275   -2.2958    0.2002 C   0  0  0  0  0  0  0  0  0  0  0  0
    5.0189   -2.3607    1.5283 C   0  0  0  0  0  0  0  0  0  0  0  0
    5.7110   -2.5996    2.3529 H   0  0  0  0  0  0  0  0  0  0  0  0
    3.6807   -2.1312    1.8208 C   0  0  0  0  0  0  0  0  0  0  0  0
    3.3058   -2.1852    2.8533 H   0  0  0  0  0  0  0  0  0  0  0  0
    2.7387   -1.8297    0.7896 C   0  0  0  0  0  0  0  0  0  0  0  0
    6.9875   -2.5499   -0.0777 C   0  0  0  0  0  0  0  0  0  0  0  0
    7.2889   -3.5749    0.2266 H   0  0  0  0  0  0  0  0  0  0  0  0
    7.6393   -1.8467    0.4830 H   0  0  0  0  0  0  0  0  0  0  0  0
    7.2218   -2.4386   -1.1544 H   0  0  0  0  0  0  0  0  0  0  0  0
  1 29  1  0  0  0  0
  1 36  1  0  0  0  0
  2 40  1  0  0  0  0
  2  5  1  0  0  0  0
  5  1  1  0  0  0  0
  6 21  1  0  0  0  0
  6 23  1  0  0  0  0
  8  3  1  6  0  0  0
  8 16  1  0  0  0  0
  9 11  2  0  0  0  0
  9  8  1  0  0  0  0
 10  9  1  0  0  0  0
 11 13  1  0  0  0  0
 12 11  1  0  0  0  0
 13 17  1  0  0  0  0
 13 14  2  0  0  0  0
 14 15  1  0  0  0  0
 16 14  1  0  0  0  0
 16 21  2  0  0  0  0
 17 20  1  0  0  0  0
 18 17  1  0  0  0  0
 19 17  1  0  0  0  0
 21 22  1  0  0  0  0
 23 24  1  0  0  0  0
 23 25  1  0  0  0  0
 26 23  1  0  0  0  0
 26 28  1  0  0  0  0
 27 26  1  0  0  0  0
 29 26  1  0  0  0  0
 29 30  1  0  0  0  0
 31 29  1  0  0  0  0
 32  1  1  0  0  0  0
 32 34  1  0  0  0  0
 33 32  1  0  0  0  0
 35 32  1  0  0  0  0
 36 37  1  0  0  0  0
 36 38  1  0  0  0  0
 39 36  1  0  0  0  0
 40 41  1  0  0  0  0
 40 43  1  0  0  0  0
 42 40  1  0  0  0  0
 44 47  1  0  0  0  0
 44  2  1  0  0  0  0
 45 44  1  0  0  0  0
 46 44  1  0  0  0  0
 48 50  1  0  0  0  0
 48  2  1  0  0  0  0
 49 48  1  0  0  0  0
 51 48  1  0  0  0  0
 51 53  1  0  0  0  0
 52 51  1  0  0  0  0
 54 51  1  0  0  0  0
 54  7  1  0  0  0  0
 55 54  1  0  0  0  0
 56 54  1  0  0  0  0
 57  7  1  0  0  0  0
 57 59  2  0  0  0  0
 58 57  1  0  0  0  0
 59 67  1  0  0  0  0
 60 59  1  0  0  0  0
 60 62  1  0  0  0  0
 61 60  1  0  0  0  0
 62 63  2  0  0  0  0
 63 65  1  0  0  0  0
 63 64  1  0  0  0  0
 65 66  1  0  0  0  0
 67  4  1  0  0  0  0
 67 65  2  0  0  0  0
 68 62  1  0  0  0  0
 68 69  1  0  0  0  0
 68 70  1  0  0  0  0
 71 68  1  0  0  0  0
M  CHG  1   4  -1
M  END
