1,2,5,6
 OpenBabel05122313063D

 42 42  0  0  0  0  0  0  0  0999 V2000
   -1.3240   -1.8861   -0.7580 O   0  5  0  0  0  0  0  0  0  0  0  0
    1.3241   -1.8862   -0.7575 O   0  5  0  0  0  0  0  0  0  0  0  0
   -5.4908   -1.5026   -0.7441 O   0  0  0  0  0  0  0  0  0  0  0  0
    5.4910   -1.5028   -0.7440 O   0  0  0  0  0  0  0  0  0  0  0  0
   -1.2823    0.8799   -0.6202 N   0  0  0  0  0  2  0  0  0  0  0  0
    1.2826    0.8798   -0.6199 N   0  0  0  0  0  2  0  0  0  0  0  0
   -2.5998   -1.7999   -0.7873 C   0  0  0  0  0  0  0  0  0  0  0  0
   -3.3012   -0.5337   -0.7298 C   0  0  0  0  0  0  0  0  0  0  0  0
   -2.6038    0.7016   -0.6883 C   0  0  0  0  0  3  0  0  0  0  0  0
   -3.2226    1.6122   -0.7263 H   0  0  0  0  0  0  0  0  0  0  0  0
   -0.7152    2.1729   -0.5312 C   0  0  0  0  0  0  0  0  0  0  0  0
   -1.4094    3.3959   -0.4246 C   0  0  0  0  0  0  0  0  0  0  0  0
   -2.5083    3.4135   -0.4123 H   0  0  0  0  0  0  0  0  0  0  0  0
   -0.7036    4.6017   -0.3258 C   0  0  0  0  0  0  0  0  0  0  0  0
   -1.2558    5.5496   -0.2425 H   0  0  0  0  0  0  0  0  0  0  0  0
    0.7040    4.6016   -0.3256 C   0  0  0  0  0  0  0  0  0  0  0  0
    1.2563    5.5495   -0.2420 H   0  0  0  0  0  0  0  0  0  0  0  0
    1.4098    3.3958   -0.4241 C   0  0  0  0  0  0  0  0  0  0  0  0
    2.5087    3.4133   -0.4114 H   0  0  0  0  0  0  0  0  0  0  0  0
    0.7155    2.1728   -0.5310 C   0  0  0  0  0  0  0  0  0  0  0  0
    2.6040    0.7015   -0.6882 C   0  0  0  0  0  3  0  0  0  0  0  0
    3.2228    1.6121   -0.7264 H   0  0  0  0  0  0  0  0  0  0  0  0
    3.3014   -0.5339   -0.7295 C   0  0  0  0  0  0  0  0  0  0  0  0
    2.6000   -1.8000   -0.7868 C   0  0  0  0  0  0  0  0  0  0  0  0
   -3.3141   -3.1199   -0.9176 C   0  0  0  0  0  0  0  0  0  0  0  0
   -3.9973   -3.1299   -1.7887 H   0  0  0  0  0  0  0  0  0  0  0  0
   -3.9705   -3.3024   -0.0445 H   0  0  0  0  0  0  0  0  0  0  0  0
   -2.5499   -3.9144   -1.0056 H   0  0  0  0  0  0  0  0  0  0  0  0
   -4.7862   -0.4893   -0.7439 C   0  0  0  0  0  0  0  0  0  0  0  0
   -5.4867    0.8746   -0.7522 C   0  0  0  0  0  0  0  0  0  0  0  0
   -6.5745    0.6841   -0.7693 H   0  0  0  0  0  0  0  0  0  0  0  0
   -5.2417    1.4754    0.1478 H   0  0  0  0  0  0  0  0  0  0  0  0
   -5.2128    1.4792   -1.6411 H   0  0  0  0  0  0  0  0  0  0  0  0
    3.3142   -3.1201   -0.9169 C   0  0  0  0  0  0  0  0  0  0  0  0
    3.9972   -3.1303   -1.7880 H   0  0  0  0  0  0  0  0  0  0  0  0
    3.9707   -3.3024   -0.0438 H   0  0  0  0  0  0  0  0  0  0  0  0
    2.5500   -3.9146   -1.0045 H   0  0  0  0  0  0  0  0  0  0  0  0
    4.7864   -0.4895   -0.7438 C   0  0  0  0  0  0  0  0  0  0  0  0
    5.4870    0.8744   -0.7524 C   0  0  0  0  0  0  0  0  0  0  0  0
    6.5747    0.6839   -0.7696 H   0  0  0  0  0  0  0  0  0  0  0  0
    5.2129    1.4789   -1.6414 H   0  0  0  0  0  0  0  0  0  0  0  0
    5.2420    1.4753    0.1475 H   0  0  0  0  0  0  0  0  0  0  0  0
  3 29  2  0  0  0  0
  4 38  2  0  0  0  0
  5 11  1  0  0  0  0
  6 20  1  0  0  0  0
  7  1  1  0  0  0  0
  7  8  2  0  0  0  0
  8  9  1  0  0  0  0
  9  5  1  0  0  0  0
 10  9  1  0  0  0  0
 11 20  2  0  0  0  0
 11 12  1  0  0  0  0
 12 13  1  0  0  0  0
 12 14  2  0  0  0  0
 14 16  1  0  0  0  0
 14 15  1  0  0  0  0
 16 17  1  0  0  0  0
 18 19  1  0  0  0  0
 18 16  2  0  0  0  0
 20 18  1  0  0  0  0
 21  6  1  0  0  0  0
 22 21  1  0  0  0  0
 23 21  1  0  0  0  0
 24  2  1  0  0  0  0
 24 23  2  0  0  0  0
 25  7  1  0  0  0  0
 25 27  1  0  0  0  0
 26 25  1  0  0  0  0
 28 25  1  0  0  0  0
 29  8  1  0  0  0  0
 30 29  1  0  0  0  0
 30 32  1  0  0  0  0
 31 30  1  0  0  0  0
 33 30  1  0  0  0  0
 34 24  1  0  0  0  0
 34 36  1  0  0  0  0
 35 34  1  0  0  0  0
 37 34  1  0  0  0  0
 38 23  1  0  0  0  0
 39 38  1  0  0  0  0
 39 42  1  0  0  0  0
 40 39  1  0  0  0  0
 41 39  1  0  0  0  0
M  CHG  2   1  -1   2  -1
M  END
