3,4,5,6
 OpenBabel05122313063D

 64 65  0  0  0  0  0  0  0  0999 V2000
   -7.3650   -0.1505   -0.9492 Cl  0  0  0  0  0  0  0  0  0  0  0  0
    7.3645    0.1473   -0.9497 Cl  0  0  0  0  0  0  0  0  0  0  0  0
   -1.6191    1.1953   -0.8259 O   0  5  0  0  0  0  0  0  0  0  0  0
    1.6186   -1.1983   -0.8234 O   0  5  0  0  0  0  0  0  0  0  0  0
   -1.1296   -1.6958   -0.7787 N   0  0  0  0  0  2  0  0  0  0  0  0
    1.1291    1.6929   -0.7843 N   0  0  0  0  0  2  0  0  0  0  0  0
   -3.3233   -0.5469   -0.8593 C   0  0  0  0  0  0  0  0  0  0  0  0
   -2.8719    0.8192   -0.8494 C   0  0  0  0  0  0  0  0  0  0  0  0
   -3.8641    1.8470   -0.8653 C   0  0  0  0  0  0  0  0  0  0  0  0
   -5.2204    1.5542   -0.8959 C   0  0  0  0  0  0  0  0  0  0  0  0
   -5.6544    0.2059   -0.9106 C   0  0  0  0  0  0  0  0  0  0  0  0
   -4.7216   -0.8214   -0.8922 C   0  0  0  0  0  3  0  0  0  0  0  0
    3.3228    0.5438   -0.8612 C   0  0  0  0  0  0  0  0  0  0  0  0
    2.8714   -0.8223   -0.8482 C   0  0  0  0  0  0  0  0  0  0  0  0
    3.8637   -1.8501   -0.8621 C   0  0  0  0  0  0  0  0  0  0  0  0
    5.2199   -1.5574   -0.8932 C   0  0  0  0  0  0  0  0  0  0  0  0
    5.6539   -0.2091   -0.9106 C   0  0  0  0  0  0  0  0  0  0  0  0
    4.7211    0.8182   -0.8947 C   0  0  0  0  0  3  0  0  0  0  0  0
   -2.4402   -1.6785   -0.8189 C   0  0  0  0  0  0  0  0  0  0  0  0
    2.4397    1.6755   -0.8241 C   0  0  0  0  0  0  0  0  0  0  0  0
   -0.4867   -3.0147   -0.6468 C   0  0  0  0  0  0  0  0  0  0  0  0
    0.0417   -3.2650    0.7712 C   0  0  0  0  0  0  0  0  0  0  0  0
   -1.0224   -3.2701    1.8717 C   0  0  0  0  0  0  0  0  0  0  0  0
   -0.4339   -3.1991    3.2914 C   0  0  0  0  0  0  0  0  0  0  0  0
    0.3732   -1.9237    3.5856 C   0  0  0  0  0  0  0  0  0  0  0  0
   -0.4345   -0.6230    3.5173 C   0  0  0  0  0  0  0  0  0  0  0  0
    0.4366    0.6358    3.5146 C   0  0  0  0  0  0  0  0  0  0  0  0
   -0.3710    1.9367    3.5797 C   0  0  0  0  0  0  0  0  0  0  0  0
    0.4358    3.2111    3.2807 C   0  0  0  0  0  0  0  0  0  0  0  0
    1.0234    3.2774    1.8604 C   0  0  0  0  0  0  0  0  0  0  0  0
   -0.0414    3.2676    0.7607 C   0  0  0  0  0  0  0  0  0  0  0  0
    0.4861    3.0122   -0.6568 C   0  0  0  0  0  0  0  0  0  0  0  0
   -3.5124    2.8886   -0.8542 H   0  0  0  0  0  0  0  0  0  0  0  0
   -5.9671    2.3613   -0.9086 H   0  0  0  0  0  0  0  0  0  0  0  0
   -5.0634   -1.8669   -0.8994 H   0  0  0  0  0  0  0  0  0  0  0  0
    3.5119   -2.8917   -0.8488 H   0  0  0  0  0  0  0  0  0  0  0  0
    5.9666   -2.3644   -0.9042 H   0  0  0  0  0  0  0  0  0  0  0  0
    5.0629    1.8637   -0.9041 H   0  0  0  0  0  0  0  0  0  0  0  0
   -2.9427   -2.6652   -0.8116 H   0  0  0  0  0  0  0  0  0  0  0  0
    2.9422    2.6622   -0.8196 H   0  0  0  0  0  0  0  0  0  0  0  0
    0.3575   -3.0555   -1.3593 H   0  0  0  0  0  0  0  0  0  0  0  0
   -1.2280   -3.7925   -0.9313 H   0  0  0  0  0  0  0  0  0  0  0  0
    0.8050   -2.4895    0.9742 H   0  0  0  0  0  0  0  0  0  0  0  0
    0.5857   -4.2348    0.7613 H   0  0  0  0  0  0  0  0  0  0  0  0
   -1.6582   -4.1780    1.7790 H   0  0  0  0  0  0  0  0  0  0  0  0
   -1.7086   -2.4086    1.7246 H   0  0  0  0  0  0  0  0  0  0  0  0
    0.2165   -4.0853    3.4612 H   0  0  0  0  0  0  0  0  0  0  0  0
   -1.2628   -3.2846    4.0279 H   0  0  0  0  0  0  0  0  0  0  0  0
    0.8384   -2.0128    4.5913 H   0  0  0  0  0  0  0  0  0  0  0  0
    1.2273   -1.8518    2.8764 H   0  0  0  0  0  0  0  0  0  0  0  0
   -1.0488   -0.6071    2.5899 H   0  0  0  0  0  0  0  0  0  0  0  0
   -1.1593   -0.5892    4.3619 H   0  0  0  0  0  0  0  0  0  0  0  0
    1.0496    0.6167    2.5864 H   0  0  0  0  0  0  0  0  0  0  0  0
    1.1626    0.6048    4.3583 H   0  0  0  0  0  0  0  0  0  0  0  0
   -0.8350    2.0289    4.5857 H   0  0  0  0  0  0  0  0  0  0  0  0
   -1.2258    1.8625    2.8717 H   0  0  0  0  0  0  0  0  0  0  0  0
   -0.2146    4.0978    3.4480 H   0  0  0  0  0  0  0  0  0  0  0  0
    1.2652    3.2992    4.0163 H   0  0  0  0  0  0  0  0  0  0  0  0
    1.6585    4.1853    1.7640 H   0  0  0  0  0  0  0  0  0  0  0  0
    1.7100    2.4157    1.7160 H   0  0  0  0  0  0  0  0  0  0  0  0
   -0.5859    4.2371    0.7474 H   0  0  0  0  0  0  0  0  0  0  0  0
   -0.8043    2.4926    0.9670 H   0  0  0  0  0  0  0  0  0  0  0  0
   -0.3586    3.0502   -1.3689 H   0  0  0  0  0  0  0  0  0  0  0  0
    1.2271    3.7890   -0.9447 H   0  0  0  0  0  0  0  0  0  0  0  0
  1 11  1  0  0  0  0
  2 17  1  0  0  0  0
  5 21  1  0  0  0  0
  6 32  1  0  0  0  0
  7  8  1  0  0  0  0
  7 19  2  0  0  0  0
  8  3  1  0  0  0  0
  9 33  1  0  0  0  0
  9  8  2  0  0  0  0
 10  9  1  0  0  0  0
 11 10  2  0  0  0  0
 11 12  1  0  0  0  0
 12  7  1  0  0  0  0
 13 14  1  0  0  0  0
 13 20  2  0  0  0  0
 14  4  1  0  0  0  0
 15 36  1  0  0  0  0
 15 14  2  0  0  0  0
 16 15  1  0  0  0  0
 17 18  1  0  0  0  0
 17 16  2  0  0  0  0
 18 13  1  0  0  0  0
 19 39  1  0  0  0  0
 19  5  1  0  0  0  0
 20 40  1  0  0  0  0
 20  6  1  0  0  0  0
 21 22  1  0  0  0  0
 22 43  1  0  0  0  0
 22 23  1  0  0  0  0
 23 24  1  0  0  0  0
 24 47  1  0  0  0  0
 24 25  1  0  0  0  0
 24 48  1  0  0  0  0
 25 49  1  0  0  0  0
 26 25  1  0  0  0  0
 26 52  1  0  0  0  0
 27 26  1  0  0  0  0
 27 28  1  0  0  0  0
 27 54  1  0  0  0  0
 28 55  1  0  0  0  0
 29 57  1  0  0  0  0
 29 28  1  0  0  0  0
 29 58  1  0  0  0  0
 30 29  1  0  0  0  0
 31 62  1  0  0  0  0
 31 30  1  0  0  0  0
 32 31  1  0  0  0  0
 34 10  1  0  0  0  0
 35 12  1  0  0  0  0
 37 16  1  0  0  0  0
 38 18  1  0  0  0  0
 41 21  1  0  0  0  0
 42 21  1  0  0  0  0
 44 22  1  0  0  0  0
 45 23  1  0  0  0  0
 46 23  1  0  0  0  0
 50 25  1  0  0  0  0
 51 26  1  0  0  0  0
 53 27  1  0  0  0  0
 56 28  1  0  0  0  0
 59 30  1  0  0  0  0
 60 30  1  0  0  0  0
 61 31  1  0  0  0  0
 63 32  1  0  0  0  0
 64 32  1  0  0  0  0
M  CHG  2   3  -1   4  -1
M  END
