5,6,7,8
 OpenBabel05122313063D

 51 54  0  0  1  0  0  0  0  0999 V2000
   -2.6214   -3.8060   -0.0341 Cl  0  0  0  0  0  0  0  0  0  0  0  0
   -7.1756   -0.9325   -0.7845 Cl  0  0  0  0  0  0  0  0  0  0  0  0
    2.1856   -3.8771    1.0032 Cl  0  0  0  0  0  0  0  0  0  0  0  0
    6.8727   -1.7249   -0.7192 Cl  0  0  0  0  0  0  0  0  0  0  0  0
   -1.3812   -1.1903    0.3121 O   0  5  0  0  0  0  0  0  0  0  0  0
    1.0783   -1.2750    0.2977 O   0  5  0  0  0  0  0  0  0  0  0  0
   -1.3590    1.5194    0.4398 N   0  0  0  0  0  2  0  0  0  0  0  0
    1.2076    1.3142   -0.5662 N   0  0  0  0  0  2  0  0  0  0  0  0
   -0.8775    2.7655    1.0427 C   0  0  1  0  0  0  0  0  0  0  0  0
   -1.7443    3.4579    1.1292 H   0  0  0  0  0  0  0  0  0  0  0  0
   -0.2781    2.5460    2.4479 C   0  0  0  0  0  0  0  0  0  0  0  0
    0.2869    1.5890    2.4367 H   0  0  0  0  0  0  0  0  0  0  0  0
   -1.0553    2.4687    3.2335 H   0  0  0  0  0  0  0  0  0  0  0  0
    0.6880    3.7212    2.6057 C   0  0  0  0  0  0  0  0  0  0  0  0
    0.1240    4.6606    2.7943 H   0  0  0  0  0  0  0  0  0  0  0  0
    1.4007    3.5934    3.4441 H   0  0  0  0  0  0  0  0  0  0  0  0
    1.3702    3.7722    1.2315 C   0  0  0  0  0  0  0  0  0  0  0  0
    2.1414    2.9748    1.1817 H   0  0  0  0  0  0  0  0  0  0  0  0
    1.8806    4.7349    1.0304 H   0  0  0  0  0  0  0  0  0  0  0  0
    0.2343    3.4748    0.2122 C   0  0  1  0  0  0  0  0  0  0  0  0
    0.7029    2.6183   -0.9848 C   0  0  1  0  0  0  0  0  0  0  0  0
   -0.2027    2.4114   -1.5967 H   0  0  0  0  0  0  0  0  0  0  0  0
    1.5859    3.5917   -1.7772 C   0  0  0  0  0  0  0  0  0  0  0  0
    1.7607    3.2578   -2.8189 H   0  0  0  0  0  0  0  0  0  0  0  0
    2.5779    3.6969   -1.2928 H   0  0  0  0  0  0  0  0  0  0  0  0
    0.8075    4.9323   -1.6792 C   0  0  0  0  0  0  0  0  0  0  0  0
    0.2992    5.1747   -2.6326 H   0  0  0  0  0  0  0  0  0  0  0  0
    1.5002    5.7712   -1.4730 H   0  0  0  0  0  0  0  0  0  0  0  0
   -0.2253    4.7442   -0.5319 C   0  0  0  0  0  0  0  0  0  0  0  0
   -0.2966    5.6209    0.1426 H   0  0  0  0  0  0  0  0  0  0  0  0
   -1.2403    4.5738   -0.9491 H   0  0  0  0  0  0  0  0  0  0  0  0
   -2.6615    1.3738    0.3225 C   0  0  0  0  0  0  0  0  0  0  0  0
   -3.2861    2.2636    0.5395 H   0  0  0  0  0  0  0  0  0  0  0  0
   -3.3563    0.1676    0.0019 C   0  0  0  0  0  0  0  0  0  0  0  0
   -2.6429   -1.0845    0.0658 C   0  0  0  0  0  0  0  0  0  0  0  0
   -3.4339   -2.2757   -0.1250 C   0  0  0  0  0  0  0  0  0  0  0  0
   -4.7973   -2.2200   -0.3910 C   0  0  0  0  0  0  0  0  0  0  0  0
   -5.3586   -3.1509   -0.5474 H   0  0  0  0  0  0  0  0  0  0  0  0
   -5.4595   -0.9687   -0.4552 C   0  0  0  0  0  0  0  0  0  0  0  0
   -4.7564    0.2091   -0.2503 C   0  0  0  0  0  3  0  0  0  0  0  0
   -5.2782    1.1764   -0.2820 H   0  0  0  0  0  0  0  0  0  0  0  0
    2.4642    0.9991   -0.7973 C   0  0  0  0  0  0  0  0  0  0  0  0
    3.0913    1.7491   -1.3115 H   0  0  0  0  0  0  0  0  0  0  0  0
    3.1139   -0.2305   -0.4694 C   0  0  0  0  0  0  0  0  0  0  0  0
    2.3474   -1.3228    0.0721 C   0  0  0  0  0  0  0  0  0  0  0  0
    3.0737   -2.5370    0.3500 C   0  0  0  0  0  0  0  0  0  0  0  0
    4.4394   -2.6483    0.1148 C   0  0  0  0  0  0  0  0  0  0  0  0
    4.9558   -3.5897    0.3449 H   0  0  0  0  0  0  0  0  0  0  0  0
    5.1582   -1.5534   -0.4255 C   0  0  0  0  0  0  0  0  0  0  0  0
    4.5091   -0.3635   -0.7196 C   0  0  0  0  0  3  0  0  0  0  0  0
    5.0715    0.4819   -1.1418 H   0  0  0  0  0  0  0  0  0  0  0  0
  2 39  1  0  0  0  0
  4 49  1  0  0  0  0
  7  9  1  0  0  0  0
  9 10  1  1  0  0  0
  9 11  1  0  0  0  0
 11 14  1  0  0  0  0
 11 13  1  0  0  0  0
 12 11  1  0  0  0  0
 14 15  1  0  0  0  0
 14 16  1  0  0  0  0
 17 14  1  0  0  0  0
 18 17  1  0  0  0  0
 19 17  1  0  0  0  0
 20 29  1  6  0  0  0
 20  9  1  0  0  0  0
 20 17  1  0  0  0  0
 21 22  1  6  0  0  0
 21  8  1  0  0  0  0
 21 20  1  0  0  0  0
 23 26  1  0  0  0  0
 23 25  1  0  0  0  0
 23 21  1  0  0  0  0
 24 23  1  0  0  0  0
 26 28  1  0  0  0  0
 26 29  1  0  0  0  0
 27 26  1  0  0  0  0
 29 30  1  0  0  0  0
 31 29  1  0  0  0  0
 32  7  1  0  0  0  0
 32 33  1  0  0  0  0
 34 35  1  0  0  0  0
 34 32  2  0  0  0  0
 35  5  1  0  0  0  0
 36  1  1  0  0  0  0
 36 35  2  0  0  0  0
 37 36  1  0  0  0  0
 38 37  1  0  0  0  0
 39 37  2  0  0  0  0
 39 40  1  0  0  0  0
 40 34  1  0  0  0  0
 41 40  1  0  0  0  0
 42  8  1  0  0  0  0
 42 44  2  0  0  0  0
 43 42  1  0  0  0  0
 44 45  1  0  0  0  0
 45  6  1  0  0  0  0
 45 46  2  0  0  0  0
 46  3  1  0  0  0  0
 47 48  1  0  0  0  0
 47 46  1  0  0  0  0
 49 47  2  0  0  0  0
 50 44  1  0  0  0  0
 50 49  1  0  0  0  0
 51 50  1  0  0  0  0
M  CHG  2   5  -1   6  -1
M  END
