1,2,3,4
 OpenBabel05122313063D

 50 55  0  0  0  0  0  0  0  0999 V2000
    1.3680    1.2238    1.0494 O   0  5  0  0  0  0  0  0  0  0  0  0
   -1.0158    1.2702    0.0568 O   0  5  0  0  0  0  0  0  0  0  0  0
    1.1356   -1.2560   -0.0114 N   0  0  0  0  0  2  0  0  0  0  0  0
   -1.3698   -1.3183    0.4119 N   0  0  0  0  0  2  0  0  0  0  0  0
    2.6073    1.2034    0.7055 C   0  0  0  0  0  0  0  0  0  0  0  0
    3.4219    2.3322    1.0776 C   0  0  0  0  0  0  0  0  0  0  0  0
    2.9228    3.1207    1.6585 H   0  0  0  0  0  0  0  0  0  0  0  0
    4.7421    2.4127    0.7159 C   0  0  0  0  0  0  0  0  0  0  0  0
    5.3495    3.2839    1.0069 H   0  0  0  0  0  0  0  0  0  0  0  0
    5.3625    1.3701   -0.0540 C   0  0  0  0  0  0  0  0  0  0  0  0
    6.7167    1.4483   -0.4437 C   0  0  0  0  0  0  0  0  0  0  0  0
    7.3012    2.3312   -0.1420 H   0  0  0  0  0  0  0  0  0  0  0  0
    7.3182    0.4308   -1.2013 C   0  0  0  0  0  0  0  0  0  0  0  0
    8.3751    0.5157   -1.4947 H   0  0  0  0  0  0  0  0  0  0  0  0
    6.5721   -0.6866   -1.5811 C   0  0  0  0  0  3  0  0  0  0  0  0
    7.0318   -1.4901   -2.1769 H   0  0  0  0  0  0  0  0  0  0  0  0
    5.2100   -0.8101   -1.2072 C   0  0  0  0  0  0  0  0  0  0  0  0
    4.5790    0.2229   -0.4329 C   0  0  0  0  0  0  0  0  0  0  0  0
    4.4243   -1.9395   -1.5829 C   0  0  0  0  0  0  0  0  0  0  0  0
    4.8887   -2.7291   -2.1938 H   0  0  0  0  0  0  0  0  0  0  0  0
    3.1058   -2.0599   -1.1990 C   0  0  0  0  0  0  0  0  0  0  0  0
    2.5497   -2.9474   -1.5217 H   0  0  0  0  0  0  0  0  0  0  0  0
    2.4434   -1.0595   -0.4068 C   0  0  0  0  0  0  0  0  0  0  0  0
    3.1994    0.1139   -0.0473 C   0  0  0  0  0  0  0  0  0  0  0  0
    0.5234   -2.5671   -0.2838 C   0  0  0  0  0  0  0  0  0  0  0  0
    1.2068   -3.3900    0.0150 H   0  0  0  0  0  0  0  0  0  0  0  0
    0.3208   -2.6774   -1.3744 H   0  0  0  0  0  0  0  0  0  0  0  0
   -0.7744   -2.6434    0.5084 C   0  0  0  0  0  0  0  0  0  0  0  0
   -1.4109   -3.4547    0.1014 H   0  0  0  0  0  0  0  0  0  0  0  0
   -0.5649   -2.8547    1.5798 H   0  0  0  0  0  0  0  0  0  0  0  0
   -2.6693   -1.1435    0.1721 C   0  0  0  0  0  0  0  0  0  0  0  0
   -3.6261   -2.2314    0.1981 C   0  0  0  0  0  0  0  0  0  0  0  0
   -3.2838   -3.2354    0.4780 H   0  0  0  0  0  0  0  0  0  0  0  0
   -4.9584   -2.0299   -0.0506 C   0  0  0  0  0  0  0  0  0  0  0  0
   -5.6614   -2.8748    0.0208 H   0  0  0  0  0  0  0  0  0  0  0  0
   -5.4812   -0.7353   -0.4013 C   0  0  0  0  0  0  0  0  0  0  0  0
   -6.8437   -0.5341   -0.6872 C   0  0  0  0  0  0  0  0  0  0  0  0
   -7.5313   -1.3921   -0.6278 H   0  0  0  0  0  0  0  0  0  0  0  0
   -7.3290    0.7372   -1.0508 C   0  0  0  0  0  0  0  0  0  0  0  0
   -8.3980    0.8741   -1.2715 H   0  0  0  0  0  0  0  0  0  0  0  0
   -6.4521    1.8162   -1.1386 C   0  0  0  0  0  3  0  0  0  0  0  0
   -6.8197    2.8108   -1.4349 H   0  0  0  0  0  0  0  0  0  0  0  0
   -5.0675    1.6603   -0.8543 C   0  0  0  0  0  0  0  0  0  0  0  0
   -4.5660    0.3706   -0.4637 C   0  0  0  0  0  0  0  0  0  0  0  0
   -3.1787    0.1877   -0.1534 C   0  0  0  0  0  0  0  0  0  0  0  0
   -2.8072    2.5691   -0.6870 C   0  0  0  0  0  0  0  0  0  0  0  0
   -2.0838    3.3936   -0.7587 H   0  0  0  0  0  0  0  0  0  0  0  0
   -2.3013    1.3041   -0.2522 C   0  0  0  0  0  0  0  0  0  0  0  0
   -4.1483    2.7463   -0.9614 C   0  0  0  0  0  0  0  0  0  0  0  0
   -4.5256    3.7346   -1.2671 H   0  0  0  0  0  0  0  0  0  0  0  0
  4 28  1  0  0  0  0
  5  1  1  0  0  0  0
  5  6  1  0  0  0  0
  6  7  1  0  0  0  0
  8  9  1  0  0  0  0
  8  6  2  0  0  0  0
 10  8  1  0  0  0  0
 11 12  1  0  0  0  0
 11 10  1  0  0  0  0
 13 11  2  0  0  0  0
 14 13  1  0  0  0  0
 15 17  1  0  0  0  0
 15 13  1  0  0  0  0
 16 15  1  0  0  0  0
 17 18  1  0  0  0  0
 18 10  2  0  0  0  0
 18 24  1  0  0  0  0
 19 17  2  0  0  0  0
 19 21  1  0  0  0  0
 20 19  1  0  0  0  0
 21 23  2  0  0  0  0
 22 21  1  0  0  0  0
 23 24  1  0  0  0  0
 23  3  1  0  0  0  0
 24  5  2  0  0  0  0
 25  3  1  0  0  0  0
 25 26  1  0  0  0  0
 25 28  1  0  0  0  0
 27 25  1  0  0  0  0
 28 30  1  0  0  0  0
 29 28  1  0  0  0  0
 31 32  1  0  0  0  0
 31  4  1  0  0  0  0
 32 33  1  0  0  0  0
 34 35  1  0  0  0  0
 34 32  2  0  0  0  0
 36 34  1  0  0  0  0
 37 38  1  0  0  0  0
 37 36  1  0  0  0  0
 39 37  2  0  0  0  0
 40 39  1  0  0  0  0
 41 39  1  0  0  0  0
 41 43  1  0  0  0  0
 42 41  1  0  0  0  0
 43 44  1  0  0  0  0
 44 36  2  0  0  0  0
 44 45  1  0  0  0  0
 45 31  2  0  0  0  0
 46 48  2  0  0  0  0
 47 46  1  0  0  0  0
 48 45  1  0  0  0  0
 48  2  1  0  0  0  0
 49 43  2  0  0  0  0
 49 46  1  0  0  0  0
 50 49  1  0  0  0  0
M  CHG  2   1  -1   2  -1
M  END
