4,7,8,10
 OpenBabel05122313063D

 74 77  0  0  1  0  0  0  0  0999 V2000
    3.2251    1.6240   -0.5385 S   0  0  0  0  0  0  0  0  0  0  0  0
   -0.9513    4.2860    0.5014 S   0  0  0  0  0  0  0  0  0  0  0  0
   -5.3382   -0.9532    0.4248 S   0  0  0  0  0  0  0  0  0  0  0  0
    0.1104   -1.7074   -1.1247 O   0  5  0  0  0  0  0  0  0  0  0  0
   -1.3159    0.6819   -1.7637 O   0  0  0  0  0  0  0  0  0  0  0  0
   -2.6740   -1.6524    3.5334 O   0  5  0  0  0  0  0  0  0  0  0  0
   -1.0347   -1.0369    2.1024 O   0  0  0  0  0  0  0  0  0  0  0  0
    0.9009    0.6483    0.1055 N   0  0  0  0  0  2  0  0  0  0  0  0
   -1.6949    1.7254    0.6788 N   0  0  0  0  0  0  0  0  0  0  0  0
   -2.7649   -1.2286    0.0338 N   0  0  0  0  0  2  0  0  0  0  0  0
    1.3789   -1.9987   -1.0999 C   0  0  0  0  0  0  0  0  0  0  0  0
    1.7840   -3.2475   -1.6677 C   0  0  0  0  0  0  0  0  0  0  0  0
    3.0921   -3.6999   -1.5850 C   0  0  0  0  0  0  0  0  0  0  0  0
    4.0771   -2.9219   -0.9449 C   0  0  0  0  0  0  0  0  0  0  0  0
    3.7774   -1.6522   -0.4399 C   0  0  0  0  0  0  0  0  0  0  0  0
    2.4400   -1.1375   -0.5552 C   0  0  0  0  0  0  0  0  0  0  0  0
    4.9091   -0.9112    0.2469 C   0  0  0  0  0  0  0  0  0  0  0  0
    5.9366   -0.3089   -0.7318 C   0  0  0  0  0  0  0  0  0  0  0  0
    6.9904    0.5792   -0.0619 C   0  0  0  0  0  0  0  0  0  0  0  0
    7.8980   -0.1368    0.9447 C   0  0  0  0  0  0  0  0  0  0  0  0
    8.9737    0.7737    1.5385 C   0  0  0  0  0  0  0  0  0  0  0  0
    2.0944    0.2415   -0.2469 C   0  0  1  0  0  3  0  0  0  0  0  0
    2.0223    2.7659    0.2443 C   0  0  0  0  0  0  0  0  0  0  0  0
    0.6834    2.0798   -0.0257 C   0  0  2  0  0  0  0  0  0  0  0  0
   -0.4787    2.5271    0.8737 C   0  0  1  0  0  0  0  0  0  0  0  0
   -1.9027    3.6290   -0.9122 C   0  0  0  0  0  0  0  0  0  0  0  0
   -2.4941    2.2650   -0.4598 C   0  0  1  0  0  0  0  0  0  0  0  0
   -2.4905    1.6635    1.9200 C   0  0  0  0  0  0  0  0  0  0  0  0
   -2.5906    1.2849   -1.6600 C   0  0  2  0  0  0  0  0  0  0  0  0
   -3.7859    0.2726   -1.6440 C   0  0  0  0  0  0  0  0  0  0  0  0
   -5.0960    1.0630   -1.8061 C   0  0  0  0  0  0  0  0  0  0  0  0
   -3.6237   -0.6879   -2.8492 C   0  0  0  0  0  0  0  0  0  0  0  0
   -3.8100   -0.6142   -0.4073 C   0  0  1  0  0  3  0  0  0  0  0  0
   -4.5071   -2.1865    1.4955 C   0  0  0  0  0  0  0  0  0  0  0  0
   -2.9877   -2.1245    1.1722 C   0  0  1  0  0  0  0  0  0  0  0  0
   -2.4077   -3.5064    0.8333 C   0  0  0  0  0  0  0  0  0  0  0  0
   -2.1795   -1.5493    2.4118 C   0  0  0  0  0  0  0  0  0  0  0  0
   -1.3012   -0.0508   -2.4111 H   0  0  0  0  0  0  0  0  0  0  0  0
    0.9871   -3.8548   -2.1216 H   0  0  0  0  0  0  0  0  0  0  0  0
    3.3564   -4.6887   -1.9929 H   0  0  0  0  0  0  0  0  0  0  0  0
    5.0969   -3.3179   -0.8229 H   0  0  0  0  0  0  0  0  0  0  0  0
    4.5223   -0.1126    0.9096 H   0  0  0  0  0  0  0  0  0  0  0  0
    5.4252   -1.6371    0.9098 H   0  0  0  0  0  0  0  0  0  0  0  0
    6.4323   -1.1343   -1.2891 H   0  0  0  0  0  0  0  0  0  0  0  0
    5.3982    0.2853   -1.5007 H   0  0  0  0  0  0  0  0  0  0  0  0
    7.6246    1.0414   -0.8508 H   0  0  0  0  0  0  0  0  0  0  0  0
    6.4760    1.4276    0.4451 H   0  0  0  0  0  0  0  0  0  0  0  0
    7.2836   -0.5634    1.7671 H   0  0  0  0  0  0  0  0  0  0  0  0
    8.3774   -1.0087    0.4451 H   0  0  0  0  0  0  0  0  0  0  0  0
    8.5205    1.6364    2.0706 H   0  0  0  0  0  0  0  0  0  0  0  0
    9.6169    0.2351    2.2635 H   0  0  0  0  0  0  0  0  0  0  0  0
    9.6341    1.1874    0.7475 H   0  0  0  0  0  0  0  0  0  0  0  0
    2.2404    2.8444    1.3310 H   0  0  0  0  0  0  0  0  0  0  0  0
    2.0925    3.7658   -0.2204 H   0  0  0  0  0  0  0  0  0  0  0  0
    0.4030    2.2639   -1.0885 H   0  0  0  0  0  0  0  0  0  0  0  0
   -0.1692    2.4558    1.9350 H   0  0  0  0  0  0  0  0  0  0  0  0
   -2.7016    4.3488   -1.1746 H   0  0  0  0  0  0  0  0  0  0  0  0
   -1.2477    3.5062   -1.7994 H   0  0  0  0  0  0  0  0  0  0  0  0
   -3.5190    2.4471   -0.0837 H   0  0  0  0  0  0  0  0  0  0  0  0
   -2.7882    2.6822    2.2585 H   0  0  0  0  0  0  0  0  0  0  0  0
   -3.4027    1.0629    1.7446 H   0  0  0  0  0  0  0  0  0  0  0  0
   -1.9056    1.1517    2.7050 H   0  0  0  0  0  0  0  0  0  0  0  0
   -2.7807    1.9093   -2.5680 H   0  0  0  0  0  0  0  0  0  0  0  0
   -5.0611    1.6792   -2.7268 H   0  0  0  0  0  0  0  0  0  0  0  0
   -5.9586    0.3743   -1.8970 H   0  0  0  0  0  0  0  0  0  0  0  0
   -5.2948    1.7341   -0.9476 H   0  0  0  0  0  0  0  0  0  0  0  0
   -2.7244   -1.3278   -2.7364 H   0  0  0  0  0  0  0  0  0  0  0  0
   -4.4930   -1.3714   -2.9088 H   0  0  0  0  0  0  0  0  0  0  0  0
   -3.5651   -0.1199   -3.8008 H   0  0  0  0  0  0  0  0  0  0  0  0
   -4.6535   -1.9447    2.5676 H   0  0  0  0  0  0  0  0  0  0  0  0
   -4.9461   -3.1794    1.2772 H   0  0  0  0  0  0  0  0  0  0  0  0
   -2.4902   -4.1740    1.7133 H   0  0  0  0  0  0  0  0  0  0  0  0
   -2.9546   -3.9584   -0.0193 H   0  0  0  0  0  0  0  0  0  0  0  0
   -1.3416   -3.4082    0.5512 H   0  0  0  0  0  0  0  0  0  0  0  0
  1 22  1  0  0  0  0
  1 23  1  0  0  0  0
  2 25  1  0  0  0  0
  3 34  1  0  0  0  0
  4 11  1  0  0  0  0
  5 29  1  0  0  0  0
  7 37  2  0  0  0  0
  9 25  1  0  0  0  0
  9 28  1  0  0  0  0
 10 35  1  0  0  0  0
 11 16  1  0  0  0  0
 12 13  1  0  0  0  0
 12 11  2  0  0  0  0
 13 14  2  0  0  0  0
 14 41  1  0  0  0  0
 14 15  1  0  0  0  0
 15 17  1  0  0  0  0
 16 15  2  0  0  0  0
 17 42  1  0  0  0  0
 17 43  1  0  0  0  0
 18 19  1  0  0  0  0
 18 17  1  0  0  0  0
 19 47  1  0  0  0  0
 19 20  1  0  0  0  0
 20 21  1  0  0  0  0
 20 48  1  0  0  0  0
 21 50  1  0  0  0  0
 21 51  1  0  0  0  0
 22 16  1  6  0  0  0
 22  8  1  0  0  0  0
 23 53  1  0  0  0  0
 24 55  1  6  0  0  0
 24  8  1  0  0  0  0
 24 23  1  0  0  0  0
 24 25  1  0  0  0  0
 25 56  1  1  0  0  0
 26 27  1  0  0  0  0
 26  2  1  0  0  0  0
 27 59  1  1  0  0  0
 27  9  1  0  0  0  0
 28 60  1  0  0  0  0
 28 62  1  0  0  0  0
 29 63  1  6  0  0  0
 29 30  1  0  0  0  0
 29 27  1  0  0  0  0
 31 30  1  0  0  0  0
 31 66  1  0  0  0  0
 32 67  1  0  0  0  0
 32 30  1  0  0  0  0
 33 30  1  6  0  0  0
 33 10  1  0  0  0  0
 33  3  1  0  0  0  0
 34 70  1  0  0  0  0
 35 34  1  0  0  0  0
 35 37  1  1  0  0  0
 36 35  1  0  0  0  0
 36 72  1  0  0  0  0
 37  6  1  0  0  0  0
 38  5  1  0  0  0  0
 39 12  1  0  0  0  0
 40 13  1  0  0  0  0
 44 18  1  0  0  0  0
 45 18  1  0  0  0  0
 46 19  1  0  0  0  0
 49 20  1  0  0  0  0
 52 21  1  0  0  0  0
 54 23  1  0  0  0  0
 57 26  1  0  0  0  0
 58 26  1  0  0  0  0
 61 28  1  0  0  0  0
 64 31  1  0  0  0  0
 65 31  1  0  0  0  0
 68 32  1  0  0  0  0
 69 32  1  0  0  0  0
 71 34  1  0  0  0  0
 73 36  1  0  0  0  0
 74 36  1  0  0  0  0
M  CHG  2   4  -1   6  -1
M  END
