1,2,3,4
 OpenBabel05122313063D

 44 46  0  0  0  0  0  0  0  0999 V2000
   -1.2632    1.3171   -0.0780 N   0  0  0  0  0  2  0  0  0  0  0  0
    1.3149    1.3284   -0.0589 N   0  0  0  0  0  2  0  0  0  0  0  0
   -1.2446   -1.3626    0.6977 O   0  5  0  0  0  0  0  0  0  0  0  0
    1.3153   -1.3220    0.8127 O   0  5  0  0  0  0  0  0  0  0  0  0
   -3.1785   -0.1916   -0.1967 C   0  0  0  0  0  0  0  0  0  0  0  0
   -2.4883   -1.3532    0.3235 C   0  0  0  0  0  0  0  0  0  0  0  0
   -3.2504   -2.5568    0.4564 C   0  0  0  0  0  0  0  0  0  0  0  0
   -2.7231   -3.4408    0.8424 H   0  0  0  0  0  0  0  0  0  0  0  0
   -4.5860   -2.6093    0.0907 C   0  0  0  0  0  0  0  0  0  0  0  0
   -5.1311   -3.5618    0.1962 H   0  0  0  0  0  0  0  0  0  0  0  0
   -5.2789   -1.4744   -0.4292 C   0  0  0  0  0  0  0  0  0  0  0  0
   -4.5575   -0.2945   -0.5566 C   0  0  0  0  0  0  0  0  0  0  0  0
   -5.0555    0.6062   -0.9531 H   0  0  0  0  0  0  0  0  0  0  0  0
   -2.5351    1.0704   -0.3263 C   0  0  0  0  0  3  0  0  0  0  0  0
   -3.1692    1.9108   -0.6667 H   0  0  0  0  0  0  0  0  0  0  0  0
   -0.6892    2.5936   -0.2101 C   0  0  0  0  0  0  0  0  0  0  0  0
   -1.3915    3.8087   -0.3400 C   0  0  0  0  0  0  0  0  0  0  0  0
   -2.4903    3.8192   -0.3253 H   0  0  0  0  0  0  0  0  0  0  0  0
   -0.6890    5.0134   -0.4612 C   0  0  0  0  0  0  0  0  0  0  0  0
   -1.2437    5.9590   -0.5505 H   0  0  0  0  0  0  0  0  0  0  0  0
    0.7183    5.0198   -0.4459 C   0  0  0  0  0  0  0  0  0  0  0  0
    1.2664    5.9704   -0.5224 H   0  0  0  0  0  0  0  0  0  0  0  0
    1.4279    3.8210   -0.3098 C   0  0  0  0  0  0  0  0  0  0  0  0
    2.5259    3.8401   -0.2697 H   0  0  0  0  0  0  0  0  0  0  0  0
    0.7337    2.6002   -0.1962 C   0  0  0  0  0  0  0  0  0  0  0  0
    2.5906    1.0916   -0.2734 C   0  0  0  0  0  3  0  0  0  0  0  0
    3.2266    1.9330   -0.6082 H   0  0  0  0  0  0  0  0  0  0  0  0
    3.2439   -0.1665   -0.1155 C   0  0  0  0  0  0  0  0  0  0  0  0
    2.5684   -1.3150    0.4423 C   0  0  0  0  0  0  0  0  0  0  0  0
    3.3390   -2.5031    0.6181 C   0  0  0  0  0  0  0  0  0  0  0  0
    2.8208   -3.3785    1.0347 H   0  0  0  0  0  0  0  0  0  0  0  0
    4.6773   -2.5559    0.2547 C   0  0  0  0  0  0  0  0  0  0  0  0
    5.2311   -3.4991    0.3933 H   0  0  0  0  0  0  0  0  0  0  0  0
    5.3573   -1.4344   -0.3034 C   0  0  0  0  0  0  0  0  0  0  0  0
    4.6230   -0.2654   -0.4694 C   0  0  0  0  0  0  0  0  0  0  0  0
    5.1124    0.6273   -0.8934 H   0  0  0  0  0  0  0  0  0  0  0  0
   -6.7298   -1.5798   -0.8227 C   0  0  0  0  0  0  0  0  0  0  0  0
   -7.3614   -1.9043    0.0314 H   0  0  0  0  0  0  0  0  0  0  0  0
   -6.8776   -2.3281   -1.6302 H   0  0  0  0  0  0  0  0  0  0  0  0
   -7.1252   -0.6115   -1.1862 H   0  0  0  0  0  0  0  0  0  0  0  0
    6.8091   -1.5362   -0.6950 C   0  0  0  0  0  0  0  0  0  0  0  0
    7.1946   -0.5745   -1.0855 H   0  0  0  0  0  0  0  0  0  0  0  0
    6.9635   -2.3049   -1.4818 H   0  0  0  0  0  0  0  0  0  0  0  0
    7.4440   -1.8306    0.1673 H   0  0  0  0  0  0  0  0  0  0  0  0
  5  6  1  0  0  0  0
  6  7  2  0  0  0  0
  6  3  1  0  0  0  0
  7  8  1  0  0  0  0
  9 10  1  0  0  0  0
  9  7  1  0  0  0  0
 11  9  2  0  0  0  0
 12 11  1  0  0  0  0
 12  5  2  0  0  0  0
 13 12  1  0  0  0  0
 14  5  1  0  0  0  0
 14  1  1  0  0  0  0
 15 14  1  0  0  0  0
 16 25  1  0  0  0  0
 16  1  1  0  0  0  0
 17 18  1  0  0  0  0
 17 16  2  0  0  0  0
 19 21  2  0  0  0  0
 19 17  1  0  0  0  0
 20 19  1  0  0  0  0
 21 23  1  0  0  0  0
 22 21  1  0  0  0  0
 23 24  1  0  0  0  0
 23 25  2  0  0  0  0
 25  2  1  0  0  0  0
 26 28  1  0  0  0  0
 26  2  1  0  0  0  0
 27 26  1  0  0  0  0
 28 29  1  0  0  0  0
 29 30  2  0  0  0  0
 29  4  1  0  0  0  0
 30 31  1  0  0  0  0
 32 33  1  0  0  0  0
 32 30  1  0  0  0  0
 34 32  2  0  0  0  0
 35 34  1  0  0  0  0
 35 28  2  0  0  0  0
 36 35  1  0  0  0  0
 37 11  1  0  0  0  0
 37 38  1  0  0  0  0
 39 37  1  0  0  0  0
 40 37  1  0  0  0  0
 41 34  1  0  0  0  0
 41 44  1  0  0  0  0
 42 41  1  0  0  0  0
 43 41  1  0  0  0  0
M  CHG  2   3  -1   4  -1
M  END
