1,2,3,4
 OpenBabel05122313063D

 38 40  0  0  0  0  0  0  0  0999 V2000
    1.3728   -1.8623    0.0002 O   0  5  0  0  0  0  0  0  0  0  0  0
   -1.3728   -1.8623    0.0003 O   0  5  0  0  0  0  0  0  0  0  0  0
   -1.3178    1.0777    0.0001 N   0  0  0  0  0  2  0  0  0  0  0  0
    1.3178    1.0777   -0.0001 N   0  0  0  0  0  2  0  0  0  0  0  0
   -2.6246    0.8815    0.0001 C   0  0  0  0  0  0  0  0  0  0  0  0
   -3.2732    1.7764   -0.0000 H   0  0  0  0  0  0  0  0  0  0  0  0
   -0.7133    2.3545    0.0001 C   0  0  0  0  0  0  0  0  0  0  0  0
    2.6533   -1.6660    0.0001 C   0  0  0  0  0  0  0  0  0  0  0  0
    1.4069    3.5825   -0.0002 C   0  0  0  0  0  0  0  0  0  0  0  0
    2.5052    3.6008   -0.0003 H   0  0  0  0  0  0  0  0  0  0  0  0
    0.7133    2.3545   -0.0001 C   0  0  0  0  0  0  0  0  0  0  0  0
    3.3113   -0.3654   -0.0001 C   0  0  0  0  0  0  0  0  0  0  0  0
    3.4978   -2.8266    0.0001 C   0  0  0  0  0  0  0  0  0  0  0  0
    2.9904   -3.8019    0.0003 H   0  0  0  0  0  0  0  0  0  0  0  0
   -1.4069    3.5825    0.0002 C   0  0  0  0  0  0  0  0  0  0  0  0
   -2.5052    3.6008    0.0003 H   0  0  0  0  0  0  0  0  0  0  0  0
   -3.3113   -0.3654    0.0000 C   0  0  0  0  0  0  0  0  0  0  0  0
   -2.6533   -1.6660    0.0001 C   0  0  0  0  0  0  0  0  0  0  0  0
   -4.8788   -2.7244   -0.0003 C   0  0  0  0  0  0  0  0  0  0  0  0
   -5.4874   -3.6424   -0.0005 H   0  0  0  0  0  0  0  0  0  0  0  0
   -4.7437   -0.3129   -0.0002 C   0  0  0  0  0  3  0  0  0  0  0  0
   -5.2228    0.6795   -0.0002 H   0  0  0  0  0  0  0  0  0  0  0  0
   -0.7036    4.7909    0.0001 C   0  0  0  0  0  0  0  0  0  0  0  0
   -1.2569    5.7415    0.0001 H   0  0  0  0  0  0  0  0  0  0  0  0
   -5.5216   -1.4560   -0.0003 C   0  0  0  0  0  0  0  0  0  0  0  0
   -6.6187   -1.3873   -0.0005 H   0  0  0  0  0  0  0  0  0  0  0  0
    5.5216   -1.4560   -0.0003 C   0  0  0  0  0  0  0  0  0  0  0  0
    6.6187   -1.3873   -0.0004 H   0  0  0  0  0  0  0  0  0  0  0  0
    0.7036    4.7909   -0.0001 C   0  0  0  0  0  0  0  0  0  0  0  0
    1.2569    5.7415   -0.0002 H   0  0  0  0  0  0  0  0  0  0  0  0
    4.8788   -2.7244   -0.0001 C   0  0  0  0  0  0  0  0  0  0  0  0
    5.4874   -3.6424   -0.0001 H   0  0  0  0  0  0  0  0  0  0  0  0
   -3.4978   -2.8266   -0.0001 C   0  0  0  0  0  0  0  0  0  0  0  0
   -2.9904   -3.8019   -0.0001 H   0  0  0  0  0  0  0  0  0  0  0  0
    2.6246    0.8815   -0.0002 C   0  0  0  0  0  0  0  0  0  0  0  0
    3.2732    1.7764   -0.0002 H   0  0  0  0  0  0  0  0  0  0  0  0
    4.7437   -0.3129   -0.0003 C   0  0  0  0  0  3  0  0  0  0  0  0
    5.2228    0.6795   -0.0004 H   0  0  0  0  0  0  0  0  0  0  0  0
  5  3  1  0  0  0  0
  6  5  1  0  0  0  0
  7  3  1  0  0  0  0
  7 15  1  0  0  0  0
  8 13  2  0  0  0  0
  8  1  1  0  0  0  0
  9 29  2  0  0  0  0
  9 11  1  0  0  0  0
 10  9  1  0  0  0  0
 11  4  1  0  0  0  0
 11  7  2  0  0  0  0
 12  8  1  0  0  0  0
 13 14  1  0  0  0  0
 15 16  1  0  0  0  0
 17  5  2  0  0  0  0
 17 18  1  0  0  0  0
 18  2  1  0  0  0  0
 19 33  1  0  0  0  0
 20 19  1  0  0  0  0
 21 17  1  0  0  0  0
 22 21  1  0  0  0  0
 23 24  1  0  0  0  0
 23 15  2  0  0  0  0
 25 19  2  0  0  0  0
 25 21  1  0  0  0  0
 26 25  1  0  0  0  0
 27 31  2  0  0  0  0
 28 27  1  0  0  0  0
 29 23  1  0  0  0  0
 30 29  1  0  0  0  0
 31 32  1  0  0  0  0
 31 13  1  0  0  0  0
 33 34  1  0  0  0  0
 33 18  2  0  0  0  0
 35 12  2  0  0  0  0
 35  4  1  0  0  0  0
 36 35  1  0  0  0  0
 37 27  1  0  0  0  0
 37 12  1  0  0  0  0
 38 37  1  0  0  0  0
M  CHG  2   1  -1   2  -1
M  END
