1,2,5,6
 OpenBabel05122313063D

 83 86  0  0  1  0  0  0  0  0999 V2000
    1.1920    0.4305   -0.6490 O   0  5  0  0  0  0  0  0  0  0  0  0
   -1.3632    0.4434   -0.5705 O   0  5  0  0  0  0  0  0  0  0  0  0
    6.7196    0.2743   -0.8250 O   0  0  0  0  0  0  0  0  0  0  0  0
   -6.8988    0.3433   -0.6554 O   0  0  0  0  0  0  0  0  0  0  0  0
    1.1509   -2.2585   -0.8799 N   0  0  0  0  0  2  0  0  0  0  0  0
   -1.3581   -2.1872   -1.2303 N   0  0  0  0  0  2  0  0  0  0  0  0
   -1.5547   -1.1379    2.6040 N   0  0  0  0  0  0  0  0  0  0  0  0
   -2.4023   -0.6183    2.8248 H   0  0  0  0  0  0  0  0  0  0  0  0
    2.4901    0.3408   -0.7227 C   0  0  0  0  0  0  0  0  0  0  0  0
    3.2873    1.5550   -0.6671 C   0  0  0  0  0  0  0  0  0  0  0  0
    4.6718    1.4349   -0.7063 C   0  0  0  0  0  0  0  0  0  0  0  0
    5.3103    2.3268   -0.6612 H   0  0  0  0  0  0  0  0  0  0  0  0
    5.3528    0.1906   -0.8094 C   0  0  0  0  0  0  0  0  0  0  0  0
    4.6139   -0.9793   -0.8911 C   0  0  0  0  0  3  0  0  0  0  0  0
    5.0921   -1.9645   -0.9810 H   0  0  0  0  0  0  0  0  0  0  0  0
    3.1862   -0.9164   -0.8526 C   0  0  0  0  0  0  0  0  0  0  0  0
    2.4595   -2.1401   -0.8879 C   0  0  0  0  0  0  0  0  0  0  0  0
    3.0500   -3.0791   -0.8905 H   0  0  0  0  0  0  0  0  0  0  0  0
    0.5235   -3.5668   -0.6812 C   0  0  1  0  0  0  0  0  0  0  0  0
    1.1769   -4.3707   -1.0885 H   0  0  0  0  0  0  0  0  0  0  0  0
    0.3051   -3.8473    0.8412 C   0  0  0  0  0  0  0  0  0  0  0  0
   -0.3752   -4.7201    0.9313 H   0  0  0  0  0  0  0  0  0  0  0  0
    1.2829   -4.1727    1.2547 H   0  0  0  0  0  0  0  0  0  0  0  0
   -0.1986   -2.6837    1.6465 C   0  0  0  0  0  0  0  0  0  0  0  0
   -1.5160   -2.3248    1.8989 C   0  0  0  0  0  0  0  0  0  0  0  0
   -2.4465   -2.8199    1.5997 H   0  0  0  0  0  0  0  0  0  0  0  0
   -0.2677   -0.6883    2.8269 C   0  0  0  0  0  0  0  0  0  0  0  0
    0.1982    0.4619    3.4870 C   0  0  0  0  0  0  0  0  0  0  0  0
   -0.4991    1.1894    3.9269 H   0  0  0  0  0  0  0  0  0  0  0  0
    1.5817    0.6539    3.5509 C   0  0  0  0  0  0  0  0  0  0  0  0
    1.9785    1.5515    4.0483 H   0  0  0  0  0  0  0  0  0  0  0  0
    2.4804   -0.2832    2.9847 C   0  0  0  0  0  0  0  0  0  0  0  0
    3.5631   -0.0977    3.0450 H   0  0  0  0  0  0  0  0  0  0  0  0
    2.0132   -1.4305    2.3394 C   0  0  0  0  0  0  0  0  0  0  0  0
    2.7257   -2.1456    1.9031 H   0  0  0  0  0  0  0  0  0  0  0  0
    0.6209   -1.6491    2.2429 C   0  0  0  0  0  0  0  0  0  0  0  0
   -0.7655   -3.4966   -1.4985 C   0  0  0  0  0  0  0  0  0  0  0  0
   -0.5125   -3.5762   -2.5794 H   0  0  0  0  0  0  0  0  0  0  0  0
   -1.4669   -4.3207   -1.2471 H   0  0  0  0  0  0  0  0  0  0  0  0
   -2.6603   -2.0327   -1.2708 C   0  0  0  0  0  0  0  0  0  0  0  0
   -3.2679   -2.9209   -1.5385 H   0  0  0  0  0  0  0  0  0  0  0  0
   -3.3733   -0.8371   -0.9568 C   0  0  0  0  0  0  0  0  0  0  0  0
   -4.8012   -0.8796   -1.0002 C   0  0  0  0  0  3  0  0  0  0  0  0
   -5.2874   -1.8167   -1.3053 H   0  0  0  0  0  0  0  0  0  0  0  0
   -5.5326    0.2472   -0.6550 C   0  0  0  0  0  0  0  0  0  0  0  0
   -4.8425    1.4211   -0.2492 C   0  0  0  0  0  0  0  0  0  0  0  0
   -5.4739    2.2752    0.0285 H   0  0  0  0  0  0  0  0  0  0  0  0
   -3.4555    1.5197   -0.1933 C   0  0  0  0  0  0  0  0  0  0  0  0
   -2.6650    0.3623   -0.5808 C   0  0  0  0  0  0  0  0  0  0  0  0
    2.6054    2.9312   -0.5927 C   0  0  0  0  0  0  0  0  0  0  0  0
    3.6287    4.0801   -0.5531 C   0  0  0  0  0  0  0  0  0  0  0  0
    4.2868    4.0212    0.3378 H   0  0  0  0  0  0  0  0  0  0  0  0
    4.2695    4.1025   -1.4581 H   0  0  0  0  0  0  0  0  0  0  0  0
    3.0893    5.0474   -0.5039 H   0  0  0  0  0  0  0  0  0  0  0  0
    1.7276    3.1215   -1.8527 C   0  0  0  0  0  0  0  0  0  0  0  0
    0.9685    2.3225   -1.9322 H   0  0  0  0  0  0  0  0  0  0  0  0
    1.2039    4.0987   -1.8101 H   0  0  0  0  0  0  0  0  0  0  0  0
    2.3540    3.1066   -2.7681 H   0  0  0  0  0  0  0  0  0  0  0  0
    1.7430    3.0194    0.6872 C   0  0  0  0  0  0  0  0  0  0  0  0
    2.3776    2.9255    1.5915 H   0  0  0  0  0  0  0  0  0  0  0  0
    1.2244    4.0000    0.7292 H   0  0  0  0  0  0  0  0  0  0  0  0
    0.9848    2.2183    0.7148 H   0  0  0  0  0  0  0  0  0  0  0  0
    7.4415   -0.9317   -0.9274 C   0  0  0  0  0  0  0  0  0  0  0  0
    8.5148   -0.6640   -0.9215 H   0  0  0  0  0  0  0  0  0  0  0  0
    7.2356   -1.6157   -0.0710 H   0  0  0  0  0  0  0  0  0  0  0  0
    7.2113   -1.4779   -1.8718 H   0  0  0  0  0  0  0  0  0  0  0  0
   -2.7684    2.8105    0.2829 C   0  0  0  0  0  0  0  0  0  0  0  0
   -1.9227    2.4922    1.5376 C   0  0  0  0  0  0  0  0  0  0  0  0
   -1.3924    3.4016    1.8878 H   0  0  0  0  0  0  0  0  0  0  0  0
   -2.5762    2.1420    2.3649 H   0  0  0  0  0  0  0  0  0  0  0  0
   -1.1683    1.7148    1.3230 H   0  0  0  0  0  0  0  0  0  0  0  0
   -1.8638    3.3658   -0.8405 C   0  0  0  0  0  0  0  0  0  0  0  0
   -1.3553    4.2909   -0.4980 H   0  0  0  0  0  0  0  0  0  0  0  0
   -1.0919    2.6306   -1.1253 H   0  0  0  0  0  0  0  0  0  0  0  0
   -2.4658    3.6170   -1.7376 H   0  0  0  0  0  0  0  0  0  0  0  0
   -3.7849    3.9030    0.6586 C   0  0  0  0  0  0  0  0  0  0  0  0
   -3.2401    4.8058    1.0008 H   0  0  0  0  0  0  0  0  0  0  0  0
   -4.4141    4.2019   -0.2043 H   0  0  0  0  0  0  0  0  0  0  0  0
   -4.4553    3.5866    1.4838 H   0  0  0  0  0  0  0  0  0  0  0  0
   -7.6292   -0.7937   -1.0557 C   0  0  0  0  0  0  0  0  0  0  0  0
   -8.7001   -0.5219   -1.0006 H   0  0  0  0  0  0  0  0  0  0  0  0
   -7.3877   -1.0989   -2.1005 H   0  0  0  0  0  0  0  0  0  0  0  0
   -7.4447   -1.6667   -0.3868 H   0  0  0  0  0  0  0  0  0  0  0  0
  3 13  1  0  0  0  0
  4 45  1  0  0  0  0
  5 19  1  0  0  0  0
  7  8  1  0  0  0  0
  7 27  1  0  0  0  0
  9 10  2  0  0  0  0
  9  1  1  0  0  0  0
 10 50  1  0  0  0  0
 11 10  1  0  0  0  0
 11 12  1  0  0  0  0
 13 11  2  0  0  0  0
 14 16  1  0  0  0  0
 14 13  1  0  0  0  0
 15 14  1  0  0  0  0
 16  9  1  0  0  0  0
 17  5  1  0  0  0  0
 17 16  2  0  0  0  0
 18 17  1  0  0  0  0
 19 20  1  6  0  0  0
 19 21  1  0  0  0  0
 21 22  1  0  0  0  0
 21 23  1  0  0  0  0
 21 24  1  0  0  0  0
 24 25  2  0  0  0  0
 24 36  1  0  0  0  0
 25  7  1  0  0  0  0
 26 25  1  0  0  0  0
 27 28  1  0  0  0  0
 28 30  2  0  0  0  0
 28 29  1  0  0  0  0
 30 31  1  0  0  0  0
 32 33  1  0  0  0  0
 32 30  1  0  0  0  0
 34 32  2  0  0  0  0
 35 34  1  0  0  0  0
 36 34  1  0  0  0  0
 36 27  2  0  0  0  0
 37 39  1  0  0  0  0
 37  6  1  0  0  0  0
 37 19  1  0  0  0  0
 38 37  1  0  0  0  0
 40  6  1  0  0  0  0
 40 42  2  0  0  0  0
 41 40  1  0  0  0  0
 42 49  1  0  0  0  0
 43 42  1  0  0  0  0
 43 45  1  0  0  0  0
 44 43  1  0  0  0  0
 45 46  2  0  0  0  0
 46 48  1  0  0  0  0
 46 47  1  0  0  0  0
 48 67  1  0  0  0  0
 49  2  1  0  0  0  0
 49 48  2  0  0  0  0
 50 51  1  0  0  0  0
 50 59  1  0  0  0  0
 51 54  1  0  0  0  0
 51 52  1  0  0  0  0
 53 51  1  0  0  0  0
 55 57  1  0  0  0  0
 55 50  1  0  0  0  0
 56 55  1  0  0  0  0
 58 55  1  0  0  0  0
 59 62  1  0  0  0  0
 59 61  1  0  0  0  0
 59 60  1  0  0  0  0
 63 64  1  0  0  0  0
 63  3  1  0  0  0  0
 63 65  1  0  0  0  0
 66 63  1  0  0  0  0
 67 76  1  0  0  0  0
 67 68  1  0  0  0  0
 68 69  1  0  0  0  0
 68 70  1  0  0  0  0
 71 68  1  0  0  0  0
 72 73  1  0  0  0  0
 72 67  1  0  0  0  0
 74 72  1  0  0  0  0
 75 72  1  0  0  0  0
 76 77  1  0  0  0  0
 76 79  1  0  0  0  0
 78 76  1  0  0  0  0
 80 81  1  0  0  0  0
 80  4  1  0  0  0  0
 80 83  1  0  0  0  0
 82 80  1  0  0  0  0
M  CHG  2   1  -1   2  -1
M  END
