1,2,5,6
 OpenBabel05122313063D

 58 59  0  0  1  0  0  0  0  0999 V2000
    1.3639   -0.3234   -0.0002 O   0  5  0  0  0  0  0  0  0  0  0  0
   -1.3639   -0.3234    0.0004 O   0  5  0  0  0  0  0  0  0  0  0  0
    0.0000    5.4442   -0.0002 O   0  0  0  0  0  0  0  0  0  0  0  0
    2.6223    1.6155    0.0002 N   0  0  0  0  0  0  0  0  0  0  0  0
    1.3860    2.1722    0.0001 N   0  0  0  0  0  2  0  0  0  0  0  0
   -1.3860    2.1722   -0.0001 N   0  0  0  0  0  2  0  0  0  0  0  0
   -2.6223    1.6155   -0.0001 N   0  0  0  0  0  0  0  0  0  0  0  0
    7.2427   -2.9080    0.0005 N   0  0  0  0  0  0  0  0  0  0  0  0
   -7.2427   -2.9080    0.0002 N   0  0  0  0  0  0  0  0  0  0  0  0
    2.5548    4.3180    0.0011 C   0  0  0  0  0  0  0  0  0  0  0  0
    3.1781    4.0716    0.8852 H   0  0  0  0  0  0  0  0  0  0  0  0
    2.2842    5.3878    0.0018 H   0  0  0  0  0  0  0  0  0  0  0  0
    3.1781    4.0731   -0.8835 H   0  0  0  0  0  0  0  0  0  0  0  0
    1.3084    3.4930    0.0005 C   0  0  1  0  0  3  0  0  0  0  0  0
    0.0000    4.2017   -0.0001 C   0  0  0  0  0  0  0  0  0  0  0  0
   -1.3084    3.4930   -0.0006 C   0  0  2  0  0  3  0  0  0  0  0  0
   -2.5547    4.3180   -0.0013 C   0  0  0  0  0  0  0  0  0  0  0  0
   -3.1780    4.0717   -0.8856 H   0  0  0  0  0  0  0  0  0  0  0  0
   -2.2842    5.3878   -0.0020 H   0  0  0  0  0  0  0  0  0  0  0  0
   -3.1782    4.0730    0.8831 H   0  0  0  0  0  0  0  0  0  0  0  0
    2.5147    0.2761    0.0000 C   0  0  0  0  0  0  0  0  0  0  0  0
   -2.5147    0.2761    0.0002 C   0  0  0  0  0  0  0  0  0  0  0  0
    3.7381   -0.5296    0.0001 C   0  0  0  0  0  0  0  0  0  0  0  0
    5.0204    0.0674    0.0002 C   0  0  0  0  0  0  0  0  0  0  0  0
    5.0872    1.1646    0.0001 H   0  0  0  0  0  0  0  0  0  0  0  0
    6.1755   -0.7082    0.0002 C   0  0  0  0  0  0  0  0  0  0  0  0
    7.1500   -0.2039    0.0001 H   0  0  0  0  0  0  0  0  0  0  0  0
    6.1019   -2.1341    0.0002 C   0  0  0  0  0  0  0  0  0  0  0  0
    4.8044   -2.7291    0.0000 C   0  0  0  0  0  0  0  0  0  0  0  0
    4.6956   -3.8209   -0.0002 H   0  0  0  0  0  0  0  0  0  0  0  0
    3.6576   -1.9407   -0.0000 C   0  0  0  0  0  0  0  0  0  0  0  0
    2.6610   -2.4053   -0.0002 H   0  0  0  0  0  0  0  0  0  0  0  0
   -3.7381   -0.5296    0.0002 C   0  0  0  0  0  0  0  0  0  0  0  0
   -3.6576   -1.9407    0.0005 C   0  0  0  0  0  0  0  0  0  0  0  0
   -2.6610   -2.4053    0.0007 H   0  0  0  0  0  0  0  0  0  0  0  0
   -4.8044   -2.7291    0.0005 C   0  0  0  0  0  0  0  0  0  0  0  0
   -4.6956   -3.8209    0.0008 H   0  0  0  0  0  0  0  0  0  0  0  0
   -6.1019   -2.1341    0.0002 C   0  0  0  0  0  0  0  0  0  0  0  0
   -6.1755   -0.7082    0.0001 C   0  0  0  0  0  0  0  0  0  0  0  0
   -7.1500   -0.2039   -0.0001 H   0  0  0  0  0  0  0  0  0  0  0  0
   -5.0204    0.0674    0.0000 C   0  0  0  0  0  0  0  0  0  0  0  0
   -5.0872    1.1646   -0.0001 H   0  0  0  0  0  0  0  0  0  0  0  0
    8.5491   -2.2788   -0.0006 C   0  0  0  0  0  0  0  0  0  0  0  0
    8.7053   -1.6405   -0.8992 H   0  0  0  0  0  0  0  0  0  0  0  0
    9.3311   -3.0590    0.0004 H   0  0  0  0  0  0  0  0  0  0  0  0
    8.7054   -1.6382    0.8963 H   0  0  0  0  0  0  0  0  0  0  0  0
    7.1406   -4.3544   -0.0007 C   0  0  0  0  0  0  0  0  0  0  0  0
    6.6029   -4.7362    0.8961 H   0  0  0  0  0  0  0  0  0  0  0  0
    8.1546   -4.7928    0.0005 H   0  0  0  0  0  0  0  0  0  0  0  0
    6.6053   -4.7352   -0.8994 H   0  0  0  0  0  0  0  0  0  0  0  0
   -8.5491   -2.2787   -0.0003 C   0  0  0  0  0  0  0  0  0  0  0  0
   -8.7056   -1.6391    0.8972 H   0  0  0  0  0  0  0  0  0  0  0  0
   -9.3311   -3.0589   -0.0004 H   0  0  0  0  0  0  0  0  0  0  0  0
   -8.7050   -1.6395   -0.8982 H   0  0  0  0  0  0  0  0  0  0  0  0
   -7.1407   -4.3544   -0.0002 C   0  0  0  0  0  0  0  0  0  0  0  0
   -6.6038   -4.7354   -0.8978 H   0  0  0  0  0  0  0  0  0  0  0  0
   -8.1547   -4.7928   -0.0009 H   0  0  0  0  0  0  0  0  0  0  0  0
   -6.6047   -4.7360    0.8976 H   0  0  0  0  0  0  0  0  0  0  0  0
  1 21  1  0  0  0  0
  3 15  2  0  0  0  0
  5  4  1  0  0  0  0
  5 14  1  0  0  0  0
  7  6  1  0  0  0  0
  7 22  2  0  0  0  0
  9 38  1  0  0  0  0
 10 12  1  0  0  0  0
 10 11  1  0  0  0  0
 13 10  1  0  0  0  0
 14 15  1  6  0  0  0
 14 10  1  0  0  0  0
 16 15  1  1  0  0  0
 16  6  1  0  0  0  0
 17 16  1  0  0  0  0
 17 20  1  0  0  0  0
 18 17  1  0  0  0  0
 19 17  1  0  0  0  0
 21 23  1  0  0  0  0
 21  4  2  0  0  0  0
 22 33  1  0  0  0  0
 22  2  1  0  0  0  0
 23 24  1  0  0  0  0
 24 26  2  0  0  0  0
 25 24  1  0  0  0  0
 26 28  1  0  0  0  0
 27 26  1  0  0  0  0
 28  8  1  0  0  0  0
 29 28  2  0  0  0  0
 30 29  1  0  0  0  0
 31 29  1  0  0  0  0
 31 23  2  0  0  0  0
 32 31  1  0  0  0  0
 33 34  1  0  0  0  0
 34 36  2  0  0  0  0
 34 35  1  0  0  0  0
 36 37  1  0  0  0  0
 38 36  1  0  0  0  0
 39 38  2  0  0  0  0
 40 39  1  0  0  0  0
 41 39  1  0  0  0  0
 41 33  2  0  0  0  0
 42 41  1  0  0  0  0
 43 45  1  0  0  0  0
 43  8  1  0  0  0  0
 43 46  1  0  0  0  0
 44 43  1  0  0  0  0
 47  8  1  0  0  0  0
 47 49  1  0  0  0  0
 47 48  1  0  0  0  0
 50 47  1  0  0  0  0
 51  9  1  0  0  0  0
 51 52  1  0  0  0  0
 53 51  1  0  0  0  0
 54 51  1  0  0  0  0
 55  9  1  0  0  0  0
 55 58  1  0  0  0  0
 56 55  1  0  0  0  0
 57 55  1  0  0  0  0
M  CHG  2   1  -1   2  -1
M  END
