1,2,3,4
 OpenBabel05122313063D

 43 42  0  0  1  0  0  0  0  0999 V2000
   -1.2264   -2.1339    0.1241 O   0  0  0  0  0  1  0  0  0  0  0  0
    1.2264   -2.1338   -0.1242 O   0  0  0  0  0  1  0  0  0  0  0  0
   -1.3202    0.5749   -0.3609 N   0  0  0  0  0  2  0  0  0  0  0  0
    1.3201    0.5749    0.3609 N   0  0  0  0  0  2  0  0  0  0  0  0
   -3.2060   -3.3180    0.6096 C   0  0  0  0  0  0  0  0  0  0  0  0
   -2.7676   -3.7704    1.5226 H   0  0  0  0  0  0  0  0  0  0  0  0
   -3.0369   -4.0413   -0.2143 H   0  0  0  0  0  0  0  0  0  0  0  0
   -4.2931   -3.1794    0.7556 H   0  0  0  0  0  0  0  0  0  0  0  0
   -2.4946   -2.0205    0.2961 C   0  0  2  0  0  3  0  0  0  0  0  0
   -3.2163   -0.8239    0.1786 C   0  0  0  0  0  0  0  0  0  0  0  0
   -4.3046   -0.8579    0.3161 H   0  0  0  0  0  0  0  0  0  0  0  0
   -2.6391    0.3999   -0.2502 C   0  0  0  0  0  0  0  0  0  0  0  0
   -3.6085    1.4982   -0.6476 C   0  0  0  0  0  0  0  0  0  0  0  0
   -3.3552    2.4758   -0.1945 H   0  0  0  0  0  0  0  0  0  0  0  0
   -4.6337    1.2283   -0.3367 H   0  0  0  0  0  0  0  0  0  0  0  0
   -3.6225    1.6387   -1.7493 H   0  0  0  0  0  0  0  0  0  0  0  0
    3.2061   -3.3178   -0.6097 C   0  0  0  0  0  0  0  0  0  0  0  0
    2.7677   -3.7701   -1.5228 H   0  0  0  0  0  0  0  0  0  0  0  0
    3.0370   -4.0413    0.2141 H   0  0  0  0  0  0  0  0  0  0  0  0
    4.2932   -3.1792   -0.7557 H   0  0  0  0  0  0  0  0  0  0  0  0
    2.4947   -2.0205   -0.2961 C   0  0  2  0  0  3  0  0  0  0  0  0
    3.2163   -0.8238   -0.1783 C   0  0  0  0  0  0  0  0  0  0  0  0
    4.3046   -0.8579   -0.3156 H   0  0  0  0  0  0  0  0  0  0  0  0
    2.6390    0.3999    0.2505 C   0  0  0  0  0  0  0  0  0  0  0  0
    3.6084    1.4982    0.6481 C   0  0  0  0  0  0  0  0  0  0  0  0
    3.3554    2.4757    0.1946 H   0  0  0  0  0  0  0  0  0  0  0  0
    4.6337    1.2282    0.3379 H   0  0  0  0  0  0  0  0  0  0  0  0
    3.6217    1.6391    1.7498 H   0  0  0  0  0  0  0  0  0  0  0  0
   -0.7720    1.7733   -0.9856 C   0  0  0  0  0  0  0  0  0  0  0  0
   -1.5531    2.3728   -1.4949 H   0  0  0  0  0  0  0  0  0  0  0  0
   -0.0643    1.4453   -1.7753 H   0  0  0  0  0  0  0  0  0  0  0  0
    0.7719    1.7734    0.9854 C   0  0  0  0  0  0  0  0  0  0  0  0
    1.5529    2.3729    1.4948 H   0  0  0  0  0  0  0  0  0  0  0  0
    0.0641    1.4455    1.7751 H   0  0  0  0  0  0  0  0  0  0  0  0
   -0.0000    2.6839   -0.0001 C   0  0  0  0  0  0  0  0  0  0  0  0
   -0.9552    3.5647    0.8188 C   0  0  0  0  0  0  0  0  0  0  0  0
   -1.5000    4.2803    0.1693 H   0  0  0  0  0  0  0  0  0  0  0  0
   -0.3976    4.1560    1.5748 H   0  0  0  0  0  0  0  0  0  0  0  0
   -1.6995    2.9476    1.3623 H   0  0  0  0  0  0  0  0  0  0  0  0
    0.9553    3.5644   -0.8192 C   0  0  0  0  0  0  0  0  0  0  0  0
    0.3977    4.1557   -1.5753 H   0  0  0  0  0  0  0  0  0  0  0  0
    1.6995    2.9472   -1.3625 H   0  0  0  0  0  0  0  0  0  0  0  0
    1.5001    4.2801   -0.1698 H   0  0  0  0  0  0  0  0  0  0  0  0
  3 12  1  0  0  0  0
  4 32  1  0  0  0  0
  5  8  1  0  0  0  0
  5  6  1  0  0  0  0
  7  5  1  0  0  0  0
  9  1  1  6  0  0  0
  9  5  1  0  0  0  0
 10  9  1  0  0  0  0
 10 11  1  0  0  0  0
 12 10  2  0  0  0  0
 13 15  1  0  0  0  0
 13 12  1  0  0  0  0
 13 14  1  0  0  0  0
 16 13  1  0  0  0  0
 17 21  1  0  0  0  0
 17 19  1  0  0  0  0
 18 17  1  0  0  0  0
 20 17  1  0  0  0  0
 21 22  1  0  0  0  0
 21  2  1  1  0  0  0
 22 24  2  0  0  0  0
 23 22  1  0  0  0  0
 24  4  1  0  0  0  0
 24 25  1  0  0  0  0
 25 28  1  0  0  0  0
 26 25  1  0  0  0  0
 27 25  1  0  0  0  0
 29  3  1  0  0  0  0
 29 35  1  0  0  0  0
 30 29  1  0  0  0  0
 31 29  1  0  0  0  0
 32 33  1  0  0  0  0
 32 34  1  0  0  0  0
 35 36  1  0  0  0  0
 35 32  1  0  0  0  0
 36 39  1  0  0  0  0
 36 38  1  0  0  0  0
 37 36  1  0  0  0  0
 40 43  1  0  0  0  0
 40 35  1  0  0  0  0
 41 40  1  0  0  0  0
 42 40  1  0  0  0  0
M  END
