1,2,3,4
 OpenBabel05122313063D

 52 54  0  0  1  0  0  0  0  0999 V2000
    1.2623    0.9958    0.7134 N   0  0  0  0  0  2  0  0  0  0  0  0
   -1.2514    0.6054    1.2102 N   0  0  0  0  0  2  0  0  0  0  0  0
    1.0865   -0.5921   -1.5643 O   0  5  0  0  0  0  0  0  0  0  0  0
   -1.4497   -0.9060   -1.1588 O   0  5  0  0  0  0  0  0  0  0  0  0
    6.5717   -1.2825   -1.3073 O   0  0  0  0  0  0  0  0  0  0  0  0
   -6.8735   -1.2043   -0.0234 O   0  0  0  0  0  0  0  0  0  0  0  0
    2.3754   -0.7295   -1.4052 C   0  0  0  0  0  0  0  0  0  0  0  0
    3.0843   -1.5738   -2.3192 C   0  0  0  0  0  0  0  0  0  0  0  0
    2.4922   -2.0974   -3.0831 H   0  0  0  0  0  0  0  0  0  0  0  0
    4.4581   -1.7255   -2.2502 C   0  0  0  0  0  0  0  0  0  0  0  0
    4.9909   -2.3792   -2.9571 H   0  0  0  0  0  0  0  0  0  0  0  0
    5.2329   -1.0450   -1.2659 C   0  0  0  0  0  0  0  0  0  0  0  0
    4.5826   -0.2116   -0.3598 C   0  0  0  0  0  0  0  0  0  0  0  0
    5.1429    0.3336    0.4128 H   0  0  0  0  0  0  0  0  0  0  0  0
    3.1609   -0.0463   -0.4056 C   0  0  0  0  0  0  0  0  0  0  0  0
    2.5508    0.8498    0.5285 C   0  0  0  0  0  3  0  0  0  0  0  0
    3.2363    1.4631    1.1441 H   0  0  0  0  0  0  0  0  0  0  0  0
    0.6754    1.9928    1.6100 C   0  0  2  0  0  0  0  0  0  0  0  0
    0.2547    2.7966    0.9601 H   0  0  0  0  0  0  0  0  0  0  0  0
    1.5960    2.6461    2.6415 C   0  0  0  0  0  0  0  0  0  0  0  0
    2.4341    3.1699    2.1379 H   0  0  0  0  0  0  0  0  0  0  0  0
    2.0465    1.8597    3.2878 H   0  0  0  0  0  0  0  0  0  0  0  0
    0.7993    3.6402    3.4999 C   0  0  0  0  0  0  0  0  0  0  0  0
    1.4607    4.0844    4.2706 H   0  0  0  0  0  0  0  0  0  0  0  0
    0.4607    4.4826    2.8576 H   0  0  0  0  0  0  0  0  0  0  0  0
   -0.4181    2.9794    4.1552 C   0  0  0  0  0  0  0  0  0  0  0  0
   -0.9988    3.7263    4.7328 H   0  0  0  0  0  0  0  0  0  0  0  0
   -0.0732    2.2196    4.8911 H   0  0  0  0  0  0  0  0  0  0  0  0
   -1.3307    2.3007    3.1231 C   0  0  0  0  0  0  0  0  0  0  0  0
   -2.1653    1.7914    3.6455 H   0  0  0  0  0  0  0  0  0  0  0  0
   -1.7846    3.0589    2.4477 H   0  0  0  0  0  0  0  0  0  0  0  0
   -0.5283    1.3043    2.2803 C   0  0  1  0  0  0  0  0  0  0  0  0
   -0.1167    0.5264    2.9681 H   0  0  0  0  0  0  0  0  0  0  0  0
   -2.5288    0.3348    1.2954 C   0  0  0  0  0  3  0  0  0  0  0  0
   -3.0760    0.6985    2.1855 H   0  0  0  0  0  0  0  0  0  0  0  0
   -3.3122   -0.3684    0.3261 C   0  0  0  0  0  0  0  0  0  0  0  0
   -4.7116   -0.4893    0.5610 C   0  0  0  0  0  0  0  0  0  0  0  0
   -5.1554   -0.0599    1.4719 H   0  0  0  0  0  0  0  0  0  0  0  0
   -5.5507   -1.1421   -0.3405 C   0  0  0  0  0  0  0  0  0  0  0  0
   -4.9766   -1.6910   -1.5215 C   0  0  0  0  0  0  0  0  0  0  0  0
   -5.6082   -2.2092   -2.2565 H   0  0  0  0  0  0  0  0  0  0  0  0
   -3.6122   -1.5834   -1.7728 C   0  0  0  0  0  0  0  0  0  0  0  0
   -3.1764   -2.0079   -2.6886 H   0  0  0  0  0  0  0  0  0  0  0  0
   -2.7231   -0.9336   -0.8662 C   0  0  0  0  0  0  0  0  0  0  0  0
    7.3930   -0.6181   -0.3672 C   0  0  0  0  0  0  0  0  0  0  0  0
    8.4309   -0.9385   -0.5711 H   0  0  0  0  0  0  0  0  0  0  0  0
    7.1288   -0.8925    0.6798 H   0  0  0  0  0  0  0  0  0  0  0  0
    7.3286    0.4890   -0.4715 H   0  0  0  0  0  0  0  0  0  0  0  0
   -7.7540   -1.8600   -0.9177 C   0  0  0  0  0  0  0  0  0  0  0  0
   -8.7614   -1.7947   -0.4673 H   0  0  0  0  0  0  0  0  0  0  0  0
   -7.4903   -2.9334   -1.0514 H   0  0  0  0  0  0  0  0  0  0  0  0
   -7.7760   -1.3695   -1.9171 H   0  0  0  0  0  0  0  0  0  0  0  0
  1 18  1  0  0  0  0
  2 34  1  0  0  0  0
  2 32  1  0  0  0  0
  3  7  1  0  0  0  0
  4 44  1  0  0  0  0
  5 12  1  0  0  0  0
  5 45  1  0  0  0  0
  7 15  1  0  0  0  0
  8 10  1  0  0  0  0
  8  7  2  0  0  0  0
  9  8  1  0  0  0  0
 10 12  2  0  0  0  0
 11 10  1  0  0  0  0
 12 13  1  0  0  0  0
 13 14  1  0  0  0  0
 15 13  2  0  0  0  0
 15 16  1  0  0  0  0
 16  1  1  0  0  0  0
 16 17  1  0  0  0  0
 18 19  1  6  0  0  0
 18 32  1  0  0  0  0
 18 20  1  0  0  0  0
 20 22  1  0  0  0  0
 20 23  1  0  0  0  0
 21 20  1  0  0  0  0
 23 26  1  0  0  0  0
 23 24  1  0  0  0  0
 25 23  1  0  0  0  0
 26 27  1  0  0  0  0
 26 28  1  0  0  0  0
 29 30  1  0  0  0  0
 29 26  1  0  0  0  0
 31 29  1  0  0  0  0
 32 33  1  1  0  0  0
 32 29  1  0  0  0  0
 34 35  1  0  0  0  0
 36 37  1  0  0  0  0
 36 34  1  0  0  0  0
 37 38  1  0  0  0  0
 39  6  1  0  0  0  0
 39 37  2  0  0  0  0
 40 39  1  0  0  0  0
 41 40  1  0  0  0  0
 42 40  2  0  0  0  0
 42 44  1  0  0  0  0
 43 42  1  0  0  0  0
 44 36  2  0  0  0  0
 45 47  1  0  0  0  0
 46 45  1  0  0  0  0
 48 45  1  0  0  0  0
 49 50  1  0  0  0  0
 49  6  1  0  0  0  0
 51 49  1  0  0  0  0
 52 49  1  0  0  0  0
M  CHG  2   3  -1   4  -1
M  END
