1,17,30,67
 OpenBabel05122313063D

 67 68  0  0  1  0  0  0  0  0999 V2000
   -2.2740    1.4932   -0.1712 O   0  0  0  0  0  1  0  0  0  0  0  0
   -3.5661    1.5490   -0.0324 C   0  0  1  0  0  3  0  0  0  0  0  0
   -4.1149    2.8597    0.1712 C   0  0  0  0  0  0  0  0  0  0  0  0
   -3.3902    3.6863    0.1899 H   0  0  0  0  0  0  0  0  0  0  0  0
   -5.4706    3.0757    0.3505 C   0  0  0  0  0  0  0  0  0  0  0  0
   -5.8424    4.0993    0.5145 H   0  0  0  0  0  0  0  0  0  0  0  0
   -6.3742    1.9858    0.3331 C   0  0  0  0  0  0  0  0  0  0  0  0
   -7.4495    2.1442    0.4981 H   0  0  0  0  0  0  0  0  0  0  0  0
   -5.8834    0.7085    0.1058 C   0  0  0  0  0  0  0  0  0  0  0  0
   -6.5995   -0.1244    0.1106 H   0  0  0  0  0  0  0  0  0  0  0  0
   -4.4946    0.4280   -0.0940 C   0  0  0  0  0  0  0  0  0  0  0  0
   -4.0890   -0.9500   -0.3480 C   0  0  0  0  0  0  0  0  0  0  0  0
   -5.1443   -1.9740   -0.7220 C   0  0  0  0  0  0  0  0  0  0  0  0
   -5.4388   -2.5945    0.1511 H   0  0  0  0  0  0  0  0  0  0  0  0
   -4.7695   -2.6588   -1.5054 H   0  0  0  0  0  0  0  0  0  0  0  0
   -6.0537   -1.4937   -1.1171 H   0  0  0  0  0  0  0  0  0  0  0  0
   -2.8321   -1.3511   -0.2734 N   0  0  0  0  0  2  0  0  0  0  0  0
   -2.4253   -2.7353   -0.5316 C   0  0  0  0  0  0  0  0  0  0  0  0
   -2.2456   -2.8644   -1.6234 H   0  0  0  0  0  0  0  0  0  0  0  0
   -3.2062   -3.4609   -0.2291 H   0  0  0  0  0  0  0  0  0  0  0  0
   -1.1253   -3.0706    0.2337 C   0  0  0  0  0  0  0  0  0  0  0  0
   -1.4220   -3.2024    1.7403 C   0  0  0  0  0  0  0  0  0  0  0  0
   -2.1047   -4.0551    1.9303 H   0  0  0  0  0  0  0  0  0  0  0  0
   -1.8909   -2.2755    2.1249 H   0  0  0  0  0  0  0  0  0  0  0  0
   -0.4827   -3.3725    2.3025 H   0  0  0  0  0  0  0  0  0  0  0  0
   -0.5408   -4.3763   -0.3211 C   0  0  0  0  0  0  0  0  0  0  0  0
    0.3192   -4.7314    0.2792 H   0  0  0  0  0  0  0  0  0  0  0  0
   -0.2126   -4.2546   -1.3725 H   0  0  0  0  0  0  0  0  0  0  0  0
   -1.3082   -5.1746   -0.2862 H   0  0  0  0  0  0  0  0  0  0  0  0
   -0.2317   -1.8984    0.0388 N   0  0  0  0  0  2  0  0  0  0  0  0
    1.0753   -1.9807    0.0768 C   0  0  0  0  0  0  0  0  0  0  0  0
    1.5183   -2.9920    0.1519 H   0  0  0  0  0  0  0  0  0  0  0  0
    2.0225   -0.9054    0.0334 C   0  0  0  0  0  0  0  0  0  0  0  0
    3.4001   -1.2828    0.0212 C   0  0  0  0  0  3  0  0  0  0  0  0
    3.6265   -2.3591    0.0357 H   0  0  0  0  0  0  0  0  0  0  0  0
    4.4220   -0.3477   -0.0091 C   0  0  0  0  0  0  0  0  0  0  0  0
    4.0327    1.0235   -0.0239 C   0  0  0  0  0  0  0  0  0  0  0  0
    4.8325    1.7758   -0.0476 H   0  0  0  0  0  0  0  0  0  0  0  0
    2.7167    1.4781   -0.0097 C   0  0  0  0  0  0  0  0  0  0  0  0
    1.6500    0.4945    0.0216 C   0  0  0  0  0  0  0  0  0  0  0  0
    5.9148   -0.7130   -0.0261 C   0  0  0  0  0  0  0  0  0  0  0  0
    6.1341   -2.2351   -0.0054 C   0  0  0  0  0  0  0  0  0  0  0  0
    7.2194   -2.4615   -0.0186 H   0  0  0  0  0  0  0  0  0  0  0  0
    5.6796   -2.7275   -0.8890 H   0  0  0  0  0  0  0  0  0  0  0  0
    5.7075   -2.6991    0.9070 H   0  0  0  0  0  0  0  0  0  0  0  0
    6.5664   -0.1442   -1.3073 C   0  0  0  0  0  0  0  0  0  0  0  0
    6.0935   -0.5726   -2.2141 H   0  0  0  0  0  0  0  0  0  0  0  0
    7.6498   -0.3843   -1.3347 H   0  0  0  0  0  0  0  0  0  0  0  0
    6.4656    0.9580   -1.3649 H   0  0  0  0  0  0  0  0  0  0  0  0
    6.6054   -0.1042    1.2156 C   0  0  0  0  0  0  0  0  0  0  0  0
    7.6892   -0.3439    1.2172 H   0  0  0  0  0  0  0  0  0  0  0  0
    6.1609   -0.5034    2.1497 H   0  0  0  0  0  0  0  0  0  0  0  0
    6.5059    0.9993    1.2414 H   0  0  0  0  0  0  0  0  0  0  0  0
    2.3810    2.9821   -0.0260 C   0  0  0  0  0  0  0  0  0  0  0  0
    1.5932    3.3582    1.2523 C   0  0  0  0  0  0  0  0  0  0  0  0
    1.3666    4.4449    1.2498 H   0  0  0  0  0  0  0  0  0  0  0  0
    2.1912    3.1366    2.1602 H   0  0  0  0  0  0  0  0  0  0  0  0
    0.6398    2.8027    1.3104 H   0  0  0  0  0  0  0  0  0  0  0  0
    3.6523    3.8502   -0.0659 C   0  0  0  0  0  0  0  0  0  0  0  0
    3.3634    4.9203   -0.0773 H   0  0  0  0  0  0  0  0  0  0  0  0
    4.2601    3.6614   -0.9745 H   0  0  0  0  0  0  0  0  0  0  0  0
    4.2968    3.6907    0.8228 H   0  0  0  0  0  0  0  0  0  0  0  0
    1.5395    3.3196   -1.2808 C   0  0  0  0  0  0  0  0  0  0  0  0
    0.5815    2.7689   -1.2793 H   0  0  0  0  0  0  0  0  0  0  0  0
    2.0967    3.0648   -2.2057 H   0  0  0  0  0  0  0  0  0  0  0  0
    1.3183    4.4071   -1.3046 H   0  0  0  0  0  0  0  0  0  0  0  0
    0.4218    0.9238    0.0473 O   0  5  0  0  0  0  0  0  0  0  0  0
  2  1  1  6  0  0  0
  2  3  1  0  0  0  0
  3  4  1  0  0  0  0
  3  5  2  0  0  0  0
  5  6  1  0  0  0  0
  7  5  1  0  0  0  0
  7  8  1  0  0  0  0
  9 10  1  0  0  0  0
  9  7  2  0  0  0  0
 11  2  1  0  0  0  0
 11  9  1  0  0  0  0
 12 17  1  0  0  0  0
 12 11  2  0  0  0  0
 13 12  1  0  0  0  0
 13 14  1  0  0  0  0
 15 13  1  0  0  0  0
 16 13  1  0  0  0  0
 18 17  1  0  0  0  0
 18 20  1  0  0  0  0
 18 21  1  0  0  0  0
 19 18  1  0  0  0  0
 21 22  1  0  0  0  0
 22 23  1  0  0  0  0
 22 24  1  0  0  0  0
 22 25  1  0  0  0  0
 26 29  1  0  0  0  0
 26 21  1  0  0  0  0
 26 27  1  0  0  0  0
 28 26  1  0  0  0  0
 30 31  1  0  0  0  0
 30 21  1  0  0  0  0
 31 32  1  0  0  0  0
 33 31  2  0  0  0  0
 34 33  1  0  0  0  0
 34 35  1  0  0  0  0
 36 34  1  0  0  0  0
 37 39  1  0  0  0  0
 37 36  2  0  0  0  0
 38 37  1  0  0  0  0
 39 40  2  0  0  0  0
 40 33  1  0  0  0  0
 40 67  1  0  0  0  0
 41 36  1  0  0  0  0
 41 42  1  0  0  0  0
 41 50  1  0  0  0  0
 42 45  1  0  0  0  0
 43 42  1  0  0  0  0
 44 42  1  0  0  0  0
 46 41  1  0  0  0  0
 47 46  1  0  0  0  0
 48 46  1  0  0  0  0
 49 46  1  0  0  0  0
 50 51  1  0  0  0  0
 50 53  1  0  0  0  0
 50 52  1  0  0  0  0
 54 39  1  0  0  0  0
 54 55  1  0  0  0  0
 55 58  1  0  0  0  0
 55 57  1  0  0  0  0
 56 55  1  0  0  0  0
 59 54  1  0  0  0  0
 59 62  1  0  0  0  0
 60 59  1  0  0  0  0
 61 59  1  0  0  0  0
 63 64  1  0  0  0  0
 63 54  1  0  0  0  0
 65 63  1  0  0  0  0
 66 63  1  0  0  0  0
M  CHG  1  67  -1
M  END
