1,2,4,5
 OpenBabel05122313063D

 48 50  0  0  1  0  0  0  0  0999 V2000
    3.0652   -0.6786   -0.7594 O   0  5  0  0  0  0  0  0  0  0  0  0
   -0.5460   -1.9491   -0.5486 O   0  5  0  0  0  0  0  0  0  0  0  0
   -2.4875    1.6951    1.6342 O   0  0  0  0  0  0  0  0  0  0  0  0
    1.2535   -1.1131    1.3472 N   0  0  0  0  0  2  0  0  0  0  0  0
    0.6833    0.5612   -0.6989 N   0  0  0  0  0  0  0  0  0  0  0  0
    0.1175    0.7786   -1.5316 H   0  0  0  0  0  0  0  0  0  0  0  0
    1.8320   -1.8376    2.3267 C   0  0  0  0  0  3  0  0  0  0  0  0
    2.4390   -2.6928    1.9899 H   0  0  0  0  0  0  0  0  0  0  0  0
    1.6588   -1.5209    3.6770 C   0  0  0  0  0  0  0  0  0  0  0  0
    2.1519   -2.1271    4.4500 H   0  0  0  0  0  0  0  0  0  0  0  0
    0.8433   -0.4263    4.0134 C   0  0  0  0  0  0  0  0  0  0  0  0
    0.6814   -0.1552    5.0677 H   0  0  0  0  0  0  0  0  0  0  0  0
    0.2381    0.3164    2.9944 C   0  0  0  0  0  0  0  0  0  0  0  0
   -0.4354    1.1619    3.1951 H   0  0  0  0  0  0  0  0  0  0  0  0
    0.4788   -0.0535    1.6604 C   0  0  0  0  0  0  0  0  0  0  0  0
   -0.1888    0.6571    0.5001 C   0  0  2  0  0  0  0  0  0  0  0  0
   -0.3567    1.7125    0.7934 H   0  0  0  0  0  0  0  0  0  0  0  0
    1.8811    1.3795   -0.6549 C   0  0  0  0  0  0  0  0  0  0  0  0
    3.0964    0.6593   -0.6901 C   0  0  0  0  0  0  0  0  0  0  0  0
    4.3107    1.3772   -0.6362 C   0  0  0  0  0  0  0  0  0  0  0  0
    5.2565    0.8178   -0.6631 H   0  0  0  0  0  0  0  0  0  0  0  0
    4.2861    2.7727   -0.5546 C   0  0  0  0  0  0  0  0  0  0  0  0
    5.2412    3.3206   -0.5160 H   0  0  0  0  0  0  0  0  0  0  0  0
    3.0755    3.5037   -0.5211 C   0  0  0  0  0  0  0  0  0  0  0  0
    1.8706    2.7782   -0.5676 C   0  0  0  0  0  0  0  0  0  0  0  0
    0.9073    3.3134   -0.5418 H   0  0  0  0  0  0  0  0  0  0  0  0
   -2.8648   -2.1242   -0.2916 C   0  0  0  0  0  0  0  0  0  0  0  0
   -2.6218   -3.1059    0.1614 H   0  0  0  0  0  0  0  0  0  0  0  0
   -3.1311   -2.3179   -1.3507 H   0  0  0  0  0  0  0  0  0  0  0  0
   -3.7353   -1.6819    0.2185 H   0  0  0  0  0  0  0  0  0  0  0  0
   -1.6246   -1.2720   -0.2161 C   0  0  0  0  0  0  0  0  0  0  0  0
   -1.5575    0.0462    0.2314 C   0  0  0  0  0  0  0  0  0  0  0  0
   -2.6783    0.8695    0.7242 C   0  0  0  0  0  0  0  0  0  0  0  0
   -4.0368    0.7948    0.0874 C   0  0  0  0  0  0  0  0  0  0  0  0
   -4.2050    0.5425   -1.2904 C   0  0  0  0  0  0  0  0  0  0  0  0
   -3.3215    0.3393   -1.9141 H   0  0  0  0  0  0  0  0  0  0  0  0
   -5.4838    0.5687   -1.8638 C   0  0  0  0  0  0  0  0  0  0  0  0
   -5.6055    0.3831   -2.9417 H   0  0  0  0  0  0  0  0  0  0  0  0
   -6.6070    0.8351   -1.0638 C   0  0  0  0  0  0  0  0  0  0  0  0
   -7.6119    0.8461   -1.5127 H   0  0  0  0  0  0  0  0  0  0  0  0
   -6.4462    1.0979    0.3080 C   0  0  0  0  0  0  0  0  0  0  0  0
   -7.3256    1.3143    0.9336 H   0  0  0  0  0  0  0  0  0  0  0  0
   -5.1670    1.0943    0.8767 C   0  0  0  0  0  0  0  0  0  0  0  0
   -5.0124    1.3257    1.9409 H   0  0  0  0  0  0  0  0  0  0  0  0
    3.0840    5.0106   -0.4530 C   0  0  0  0  0  0  0  0  0  0  0  0
    2.0665    5.4184   -0.2967 H   0  0  0  0  0  0  0  0  0  0  0  0
    3.4822    5.4563   -1.3894 H   0  0  0  0  0  0  0  0  0  0  0  0
    3.7268    5.3766    0.3741 H   0  0  0  0  0  0  0  0  0  0  0  0
  1 19  1  0  0  0  0
  2 31  1  0  0  0  0
  4 15  1  0  0  0  0
  4  7  1  0  0  0  0
  5 18  1  0  0  0  0
  5 16  1  0  0  0  0
  6  5  1  0  0  0  0
  7  9  1  0  0  0  0
  8  7  1  0  0  0  0
  9 11  2  0  0  0  0
  9 10  1  0  0  0  0
 11 12  1  0  0  0  0
 13 14  1  0  0  0  0
 13 11  1  0  0  0  0
 15 13  2  0  0  0  0
 16 17  1  1  0  0  0
 16 15  1  0  0  0  0
 18 25  1  0  0  0  0
 19 18  2  0  0  0  0
 19 20  1  0  0  0  0
 20 22  2  0  0  0  0
 21 20  1  0  0  0  0
 22 24  1  0  0  0  0
 22 23  1  0  0  0  0
 24 45  1  0  0  0  0
 25 26  1  0  0  0  0
 25 24  2  0  0  0  0
 27 31  1  0  0  0  0
 27 28  1  0  0  0  0
 27 30  1  0  0  0  0
 29 27  1  0  0  0  0
 31 32  2  0  0  0  0
 32 16  1  0  0  0  0
 32 33  1  0  0  0  0
 33  3  2  0  0  0  0
 34 33  1  0  0  0  0
 34 43  1  0  0  0  0
 35 34  2  0  0  0  0
 36 35  1  0  0  0  0
 37 35  1  0  0  0  0
 37 39  2  0  0  0  0
 38 37  1  0  0  0  0
 39 41  1  0  0  0  0
 40 39  1  0  0  0  0
 41 43  2  0  0  0  0
 41 42  1  0  0  0  0
 43 44  1  0  0  0  0
 45 46  1  0  0  0  0
 45 48  1  0  0  0  0
 47 45  1  0  0  0  0
M  CHG  2   1  -1   2  -1
M  END
