1,2,3,4
 OpenBabel05122313063D

 55 56  0  0  1  0  0  0  0  0999 V2000
   -1.3269    0.7814   -0.3846 N   0  0  0  0  0  2  0  0  0  0  0  0
    1.3273    0.7814    0.3851 N   0  0  0  0  0  2  0  0  0  0  0  0
   -1.2234   -1.8818   -0.1094 O   0  0  0  0  0  1  0  0  0  0  0  0
    1.2234   -1.8819    0.1125 O   0  5  0  0  0  0  0  0  0  0  0  0
   -3.2414   -0.5719    0.2421 C   0  0  0  0  0  0  0  0  0  0  0  0
   -4.6133   -0.6393    0.6267 C   0  0  0  0  0  0  0  0  0  0  0  0
   -5.2031    0.2864    0.6858 H   0  0  0  0  0  0  0  0  0  0  0  0
   -5.2378   -1.8379    0.9483 C   0  0  0  0  0  0  0  0  0  0  0  0
   -6.2927   -1.8471    1.2579 H   0  0  0  0  0  0  0  0  0  0  0  0
   -4.4986   -3.0434    0.8700 C   0  0  0  0  0  0  0  0  0  0  0  0
   -4.9839   -4.0021    1.1123 H   0  0  0  0  0  0  0  0  0  0  0  0
   -3.1623   -3.0272    0.5005 C   0  0  0  0  0  0  0  0  0  0  0  0
   -2.5635   -3.9473    0.4410 H   0  0  0  0  0  0  0  0  0  0  0  0
   -2.4786   -1.8023    0.2060 C   0  0  1  0  0  3  0  0  0  0  0  0
   -2.6393    0.6631   -0.2324 C   0  0  0  0  0  0  0  0  0  0  0  0
   -3.5819    1.7722   -0.6728 C   0  0  0  0  0  0  0  0  0  0  0  0
   -3.0789    2.7543   -0.6411 H   0  0  0  0  0  0  0  0  0  0  0  0
   -4.4052    1.8483    0.0629 H   0  0  0  0  0  0  0  0  0  0  0  0
   -4.1657    1.5189   -2.0711 C   0  0  0  0  0  0  0  0  0  0  0  0
   -4.8673    2.3273   -2.3592 H   0  0  0  0  0  0  0  0  0  0  0  0
   -4.7131    0.5564   -2.1015 H   0  0  0  0  0  0  0  0  0  0  0  0
   -3.3652    1.4705   -2.8371 H   0  0  0  0  0  0  0  0  0  0  0  0
   -0.7292    1.9562   -1.0177 C   0  0  0  0  0  0  0  0  0  0  0  0
   -1.4612    2.5549   -1.5940 H   0  0  0  0  0  0  0  0  0  0  0  0
    0.0162    1.5850   -1.7493 H   0  0  0  0  0  0  0  0  0  0  0  0
    0.0003    2.8680    0.0004 C   0  0  0  0  0  0  0  0  0  0  0  0
    0.7300    1.9562    1.0184 C   0  0  0  0  0  0  0  0  0  0  0  0
    1.4624    2.5549    1.5944 H   0  0  0  0  0  0  0  0  0  0  0  0
   -0.0152    1.5852    1.7503 H   0  0  0  0  0  0  0  0  0  0  0  0
   -0.9835    3.7505    0.7834 C   0  0  0  0  0  0  0  0  0  0  0  0
   -0.4485    4.3384    1.5578 H   0  0  0  0  0  0  0  0  0  0  0  0
   -1.7525    3.1417    1.3003 H   0  0  0  0  0  0  0  0  0  0  0  0
   -1.4980    4.4708    0.1151 H   0  0  0  0  0  0  0  0  0  0  0  0
    0.9841    3.7506   -0.7826 C   0  0  0  0  0  0  0  0  0  0  0  0
    1.4987    4.4708   -0.1142 H   0  0  0  0  0  0  0  0  0  0  0  0
    0.4491    4.3385   -1.5570 H   0  0  0  0  0  0  0  0  0  0  0  0
    1.7531    3.1418   -1.2996 H   0  0  0  0  0  0  0  0  0  0  0  0
    2.6395    0.6628    0.2321 C   0  0  0  0  0  0  0  0  0  0  0  0
    3.2409   -0.5723   -0.2429 C   0  0  0  0  0  0  0  0  0  0  0  0
    2.4782   -1.8026   -0.2049 C   0  0  0  0  0  0  0  0  0  0  0  0
    3.1614   -3.0278   -0.4997 C   0  0  0  0  0  0  0  0  0  0  0  0
    2.5626   -3.9478   -0.4388 H   0  0  0  0  0  0  0  0  0  0  0  0
    4.4971   -3.0442   -0.8712 C   0  0  0  0  0  0  0  0  0  0  0  0
    4.9821   -4.0030   -1.1137 H   0  0  0  0  0  0  0  0  0  0  0  0
    5.2362   -1.8388   -0.9514 C   0  0  0  0  0  0  0  0  0  0  0  0
    6.2906   -1.8482   -1.2627 H   0  0  0  0  0  0  0  0  0  0  0  0
    4.6122   -0.6399   -0.6295 C   0  0  0  0  0  3  0  0  0  0  0  0
    5.2019    0.2857   -0.6901 H   0  0  0  0  0  0  0  0  0  0  0  0
    3.5828    1.7716    0.6719 C   0  0  0  0  0  0  0  0  0  0  0  0
    3.0800    2.7539    0.6407 H   0  0  0  0  0  0  0  0  0  0  0  0
    4.4056    1.8475   -0.0642 H   0  0  0  0  0  0  0  0  0  0  0  0
    4.1673    1.5179    2.0699 C   0  0  0  0  0  0  0  0  0  0  0  0
    4.8693    2.3261    2.3577 H   0  0  0  0  0  0  0  0  0  0  0  0
    4.7144    0.5553    2.0997 H   0  0  0  0  0  0  0  0  0  0  0  0
    3.3673    1.4696    2.8363 H   0  0  0  0  0  0  0  0  0  0  0  0
  1 15  1  0  0  0  0
  2 27  1  0  0  0  0
  5  6  1  0  0  0  0
  6  7  1  0  0  0  0
  6  8  2  0  0  0  0
  8  9  1  0  0  0  0
 10  8  1  0  0  0  0
 10 11  1  0  0  0  0
 12 10  2  0  0  0  0
 13 12  1  0  0  0  0
 14  3  1  6  0  0  0
 14  5  1  0  0  0  0
 14 12  1  0  0  0  0
 15  5  2  0  0  0  0
 16 17  1  0  0  0  0
 16 15  1  0  0  0  0
 16 18  1  0  0  0  0
 19 16  1  0  0  0  0
 20 19  1  0  0  0  0
 21 19  1  0  0  0  0
 22 19  1  0  0  0  0
 23  1  1  0  0  0  0
 23 26  1  0  0  0  0
 24 23  1  0  0  0  0
 25 23  1  0  0  0  0
 26 30  1  0  0  0  0
 26 27  1  0  0  0  0
 27 28  1  0  0  0  0
 27 29  1  0  0  0  0
 30 32  1  0  0  0  0
 30 31  1  0  0  0  0
 33 30  1  0  0  0  0
 34 35  1  0  0  0  0
 34 26  1  0  0  0  0
 36 34  1  0  0  0  0
 37 34  1  0  0  0  0
 38  2  1  0  0  0  0
 38 49  1  0  0  0  0
 39 40  1  0  0  0  0
 39 38  2  0  0  0  0
 40  4  1  0  0  0  0
 41 42  1  0  0  0  0
 41 40  2  0  0  0  0
 43 41  1  0  0  0  0
 44 43  1  0  0  0  0
 45 43  2  0  0  0  0
 45 47  1  0  0  0  0
 46 45  1  0  0  0  0
 47 39  1  0  0  0  0
 48 47  1  0  0  0  0
 49 52  1  0  0  0  0
 50 49  1  0  0  0  0
 51 49  1  0  0  0  0
 52 54  1  0  0  0  0
 52 53  1  0  0  0  0
 52 55  1  0  0  0  0
M  CHG  1   4  -1
M  END
