1,4,7,10
 OpenBabel05122313063D

 44 45  0  0  1  0  0  0  0  0999 V2000
    1.2328    1.0660   -0.1050 O   0  5  0  0  0  0  0  0  0  0  0  0
   -5.3059    1.1175   -0.1442 O   0  0  0  0  0  0  0  0  0  0  0  0
    5.3051    1.1180    0.1514 O   0  0  0  0  0  0  0  0  0  0  0  0
   -1.2327    1.0659    0.0969 O   0  5  0  0  0  0  0  0  0  0  0  0
    5.5170   -1.0933    0.1997 O   0  0  0  0  0  0  0  0  0  0  0  0
   -5.5181   -1.0938   -0.1875 O   0  0  0  0  0  0  0  0  0  0  0  0
   -1.2902   -1.6230    0.1897 N   0  0  0  0  0  2  0  0  0  0  0  0
    2.5127    0.9867   -0.0439 C   0  0  0  0  0  0  0  0  0  0  0  0
   -3.2715   -0.2325    0.0894 C   0  0  0  0  0  0  0  0  0  0  0  0
    1.2908   -1.6229   -0.1933 N   0  0  0  0  0  2  0  0  0  0  0  0
    3.2717   -0.2323   -0.0876 C   0  0  0  0  0  0  0  0  0  0  0  0
   -2.5128    0.9865    0.0405 C   0  0  0  0  0  0  0  0  0  0  0  0
    4.7211   -0.1784    0.0887 C   0  0  0  0  0  0  0  0  0  0  0  0
    4.5853    2.2597    0.1340 C   0  0  1  0  0  3  0  0  0  0  0  0
    3.2248    2.2408    0.0487 C   0  0  0  0  0  0  0  0  0  0  0  0
   -3.2252    2.2404   -0.0524 C   0  0  0  0  0  0  0  0  0  0  0  0
   -2.6106   -1.5047    0.2880 C   0  0  0  0  0  0  0  0  0  0  0  0
    5.4424    3.4792    0.2265 C   0  0  0  0  0  0  0  0  0  0  0  0
    6.0411    3.4568    1.1605 H   0  0  0  0  0  0  0  0  0  0  0  0
    4.8309    4.3990    0.2080 H   0  0  0  0  0  0  0  0  0  0  0  0
    6.1644    3.5035   -0.6158 H   0  0  0  0  0  0  0  0  0  0  0  0
    2.6114   -1.5048   -0.2874 C   0  0  0  0  0  0  0  0  0  0  0  0
   -4.7217   -0.1788   -0.0813 C   0  0  0  0  0  0  0  0  0  0  0  0
   -3.4114   -2.7295    0.6727 C   0  0  0  0  0  0  0  0  0  0  0  0
   -2.9207   -3.2613    1.5112 H   0  0  0  0  0  0  0  0  0  0  0  0
   -3.4883   -3.4390   -0.1785 H   0  0  0  0  0  0  0  0  0  0  0  0
   -4.4435   -2.4625    0.9434 H   0  0  0  0  0  0  0  0  0  0  0  0
   -5.4433    3.4785   -0.2246 C   0  0  0  0  0  0  0  0  0  0  0  0
   -6.0433    3.4554   -1.1578 H   0  0  0  0  0  0  0  0  0  0  0  0
   -4.8320    4.3984   -0.2078 H   0  0  0  0  0  0  0  0  0  0  0  0
   -6.1642    3.5034    0.6187 H   0  0  0  0  0  0  0  0  0  0  0  0
    0.6449   -2.9200   -0.4026 C   0  0  0  0  0  0  0  0  0  0  0  0
    1.2844   -3.7667   -0.0847 H   0  0  0  0  0  0  0  0  0  0  0  0
    0.4193   -3.0575   -1.4851 H   0  0  0  0  0  0  0  0  0  0  0  0
   -4.5860    2.2592   -0.1323 C   0  0  1  0  0  3  0  0  0  0  0  0
    3.4134   -2.7296   -0.6695 C   0  0  0  0  0  0  0  0  0  0  0  0
    2.9266   -3.2600   -1.5111 H   0  0  0  0  0  0  0  0  0  0  0  0
    3.4855   -3.4402    0.1812 H   0  0  0  0  0  0  0  0  0  0  0  0
    4.4470   -2.4630   -0.9346 H   0  0  0  0  0  0  0  0  0  0  0  0
   -0.6444   -2.9207    0.3963 C   0  0  0  0  0  0  0  0  0  0  0  0
   -1.2842   -3.7666    0.0766 H   0  0  0  0  0  0  0  0  0  0  0  0
   -0.4188   -3.0607    1.4785 H   0  0  0  0  0  0  0  0  0  0  0  0
    2.6381    3.1674    0.0499 H   0  0  0  0  0  0  0  0  0  0  0  0
   -2.6384    3.1669   -0.0578 H   0  0  0  0  0  0  0  0  0  0  0  0
  1  8  1  0  0  0  0
  2 35  1  0  0  0  0
  2 23  1  0  0  0  0
  6 23  2  0  0  0  0
  7 17  1  0  0  0  0
  7 40  1  0  0  0  0
  8 15  2  0  0  0  0
  9 17  2  0  0  0  0
 11  8  1  0  0  0  0
 11 13  1  0  0  0  0
 12  9  1  0  0  0  0
 12  4  1  0  0  0  0
 13  3  1  0  0  0  0
 13  5  2  0  0  0  0
 14  3  1  0  0  0  0
 14 18  1  1  0  0  0
 15 43  1  0  0  0  0
 15 14  1  0  0  0  0
 16 12  2  0  0  0  0
 17 24  1  0  0  0  0
 18 19  1  0  0  0  0
 20 18  1  0  0  0  0
 21 18  1  0  0  0  0
 22 10  1  0  0  0  0
 22 11  2  0  0  0  0
 23  9  1  0  0  0  0
 24 27  1  0  0  0  0
 24 25  1  0  0  0  0
 26 24  1  0  0  0  0
 28 30  1  0  0  0  0
 28 31  1  0  0  0  0
 29 28  1  0  0  0  0
 32 10  1  0  0  0  0
 32 33  1  0  0  0  0
 32 40  1  0  0  0  0
 34 32  1  0  0  0  0
 35 28  1  6  0  0  0
 35 16  1  0  0  0  0
 36 22  1  0  0  0  0
 36 38  1  0  0  0  0
 37 36  1  0  0  0  0
 39 36  1  0  0  0  0
 40 42  1  0  0  0  0
 41 40  1  0  0  0  0
 44 16  1  0  0  0  0
M  CHG  2   1  -1   4  -1
M  END
