1,2,7,8
 OpenBabel05122313063D

 40 42  0  0  0  0  0  0  0  0999 V2000
   -1.5021   -1.4772    0.4601 O   0  5  0  0  0  0  0  0  0  0  0  0
    1.5031   -1.4764    0.4628 O   0  5  0  0  0  0  0  0  0  0  0  0
   -5.7349   -3.4580   -0.4557 O   0  0  0  0  0  0  0  0  0  0  0  0
   -5.2367   -4.2359   -0.1402 H   0  0  0  0  0  0  0  0  0  0  0  0
    5.7354   -3.4575   -0.4545 O   0  0  0  0  0  0  0  0  0  0  0  0
    5.2377   -4.2352   -0.1376 H   0  0  0  0  0  0  0  0  0  0  0  0
   -1.3299    1.3775   -0.0188 N   0  0  0  0  0  2  0  0  0  0  0  0
    1.3297    1.3774   -0.0192 N   0  0  0  0  0  2  0  0  0  0  0  0
   -2.7252   -1.3270    0.0527 C   0  0  0  0  0  0  0  0  0  0  0  0
   -3.5862   -2.4637    0.0169 C   0  0  0  0  0  0  0  0  0  0  0  0
   -3.1543   -3.4240    0.3414 H   0  0  0  0  0  0  0  0  0  0  0  0
   -4.9103   -2.3815   -0.4177 C   0  0  0  0  0  0  0  0  0  0  0  0
   -5.4578   -1.1409   -0.8518 C   0  0  0  0  0  0  0  0  0  0  0  0
   -6.5013   -1.1057   -1.1919 H   0  0  0  0  0  0  0  0  0  0  0  0
   -4.6485   -0.0210   -0.8286 C   0  0  0  0  0  0  0  0  0  0  0  0
   -5.0578    0.9473   -1.1603 H   0  0  0  0  0  0  0  0  0  0  0  0
   -3.2914   -0.0531   -0.3821 C   0  0  0  0  0  0  0  0  0  0  0  0
   -2.5753    1.1808   -0.3983 C   0  0  0  0  0  3  0  0  0  0  0  0
   -3.1462    2.0476   -0.7972 H   0  0  0  0  0  0  0  0  0  0  0  0
   -0.7181    2.6351   -0.0326 C   0  0  0  0  0  0  0  0  0  0  0  0
   -1.4052    3.8677   -0.0107 C   0  0  0  0  0  0  0  0  0  0  0  0
   -2.5041    3.8755    0.0335 H   0  0  0  0  0  0  0  0  0  0  0  0
   -0.7033    5.0784   -0.0118 C   0  0  0  0  0  0  0  0  0  0  0  0
   -1.2560    6.0294    0.0130 H   0  0  0  0  0  0  0  0  0  0  0  0
    0.7033    5.0784   -0.0122 C   0  0  0  0  0  0  0  0  0  0  0  0
    1.2562    6.0293    0.0124 H   0  0  0  0  0  0  0  0  0  0  0  0
    1.4052    3.8676   -0.0113 C   0  0  0  0  0  0  0  0  0  0  0  0
    2.5041    3.8753    0.0325 H   0  0  0  0  0  0  0  0  0  0  0  0
    0.7180    2.6350   -0.0329 C   0  0  0  0  0  0  0  0  0  0  0  0
    2.5749    1.1806   -0.3994 C   0  0  0  0  0  3  0  0  0  0  0  0
    3.1454    2.0473   -0.7992 H   0  0  0  0  0  0  0  0  0  0  0  0
    3.2913   -0.0531   -0.3828 C   0  0  0  0  0  0  0  0  0  0  0  0
    4.6480   -0.0212   -0.8306 C   0  0  0  0  0  0  0  0  0  0  0  0
    5.0567    0.9468   -1.1637 H   0  0  0  0  0  0  0  0  0  0  0  0
    5.4574   -1.1410   -0.8532 C   0  0  0  0  0  0  0  0  0  0  0  0
    6.5006   -1.1060   -1.1943 H   0  0  0  0  0  0  0  0  0  0  0  0
    4.9106   -2.3811   -0.4171 C   0  0  0  0  0  0  0  0  0  0  0  0
    3.5869   -2.4632    0.0189 C   0  0  0  0  0  0  0  0  0  0  0  0
    3.1556   -3.4232    0.3450 H   0  0  0  0  0  0  0  0  0  0  0  0
    2.7257   -1.3266    0.0540 C   0  0  0  0  0  0  0  0  0  0  0  0
  3 12  1  0  0  0  0
  3  4  1  0  0  0  0
  5 37  1  0  0  0  0
  5  6  1  0  0  0  0
  9  1  1  0  0  0  0
 10  9  1  0  0  0  0
 10 11  1  0  0  0  0
 12 10  2  0  0  0  0
 13 15  2  0  0  0  0
 13 12  1  0  0  0  0
 14 13  1  0  0  0  0
 15 17  1  0  0  0  0
 16 15  1  0  0  0  0
 17  9  2  0  0  0  0
 18 17  1  0  0  0  0
 18  7  1  0  0  0  0
 19 18  1  0  0  0  0
 20  7  1  0  0  0  0
 20 21  1  0  0  0  0
 21 22  1  0  0  0  0
 23 21  2  0  0  0  0
 23 24  1  0  0  0  0
 25 23  1  0  0  0  0
 25 27  2  0  0  0  0
 25 26  1  0  0  0  0
 27 28  1  0  0  0  0
 29 20  2  0  0  0  0
 29  8  1  0  0  0  0
 29 27  1  0  0  0  0
 30 32  1  0  0  0  0
 30  8  1  0  0  0  0
 31 30  1  0  0  0  0
 32 40  1  0  0  0  0
 33 32  2  0  0  0  0
 34 33  1  0  0  0  0
 35 33  1  0  0  0  0
 35 37  2  0  0  0  0
 36 35  1  0  0  0  0
 37 38  1  0  0  0  0
 38 40  2  0  0  0  0
 38 39  1  0  0  0  0
 40  2  1  0  0  0  0
M  CHG  2   1  -1   2  -1
M  END
