2,3,4,6
 OpenBabel05122313063D

 41 42  0  0  1  0  0  0  0  0999 V2000
    2.0910    3.0993   -0.0002 S   0  0  0  0  0  0  0  0  0  0  0  0
    0.8666   -2.2217   -0.0003 O   0  0  0  0  0  1  0  0  0  0  0  0
    1.3171    0.4654   -0.0000 N   0  0  0  0  0  2  0  0  0  0  0  0
   -1.5884   -1.7914   -0.0015 O   0  0  0  0  0  1  0  0  0  0  0  0
    2.1523   -2.3388   -0.0000 C   0  0  1  0  0  3  0  0  0  0  0  0
   -1.1303    0.8999   -0.0002 N   0  0  0  0  0  2  0  0  0  0  0  0
   -2.4645    1.0424    0.0002 C   0  0  0  0  0  0  0  0  0  0  0  0
   -0.3804    2.0516   -0.0003 N   0  0  0  0  0  0  0  0  0  0  0  0
   -3.3433   -0.0988    0.0003 C   0  0  0  0  0  0  0  0  0  0  0  0
    3.0767   -1.2139    0.0004 C   0  0  0  0  0  0  0  0  0  0  0  0
    2.7220   -3.6564   -0.0000 C   0  0  0  0  0  0  0  0  0  0  0  0
    2.0178   -4.5005   -0.0003 H   0  0  0  0  0  0  0  0  0  0  0  0
    4.0934   -3.8465    0.0004 C   0  0  0  0  0  0  0  0  0  0  0  0
    4.4953   -4.8719    0.0004 H   0  0  0  0  0  0  0  0  0  0  0  0
    0.8999    1.7972   -0.0002 C   0  0  0  0  0  0  0  0  0  0  0  0
    2.6031    0.1155    0.0004 C   0  0  0  0  0  0  0  0  0  0  0  0
    3.3559    0.9272    0.0006 H   0  0  0  0  0  0  0  0  0  0  0  0
    4.4884   -1.4572    0.0009 C   0  0  0  0  0  0  0  0  0  0  0  0
    5.1666   -0.5888    0.0012 H   0  0  0  0  0  0  0  0  0  0  0  0
   -2.8424   -1.4601   -0.0006 C   0  0  1  0  0  3  0  0  0  0  0  0
   -5.1591   -2.2908    0.0002 C   0  0  0  0  0  0  0  0  0  0  0  0
   -5.8611   -3.1394    0.0001 H   0  0  0  0  0  0  0  0  0  0  0  0
    4.9953   -2.7427    0.0009 C   0  0  0  0  0  0  0  0  0  0  0  0
    6.0808   -2.9163    0.0012 H   0  0  0  0  0  0  0  0  0  0  0  0
   -3.7953   -2.5312   -0.0007 C   0  0  0  0  0  0  0  0  0  0  0  0
   -3.3835   -3.5505   -0.0015 H   0  0  0  0  0  0  0  0  0  0  0  0
   -5.6555   -0.9618    0.0012 C   0  0  0  0  0  0  0  0  0  0  0  0
   -6.7384   -0.7713    0.0019 H   0  0  0  0  0  0  0  0  0  0  0  0
   -4.7610    0.0970    0.0012 C   0  0  0  0  0  0  0  0  0  0  0  0
   -5.1582    1.1207    0.0020 H   0  0  0  0  0  0  0  0  0  0  0  0
    0.9834    4.5615   -0.0001 C   0  0  0  0  0  0  0  0  0  0  0  0
    0.3326    4.4888   -0.8933 H   0  0  0  0  0  0  0  0  0  0  0  0
    0.3328    4.4888    0.8934 H   0  0  0  0  0  0  0  0  0  0  0  0
    1.8304    5.8284   -0.0002 C   0  0  0  0  0  0  0  0  0  0  0  0
    1.1690    6.7178   -0.0001 H   0  0  0  0  0  0  0  0  0  0  0  0
    2.4781    5.8883   -0.8978 H   0  0  0  0  0  0  0  0  0  0  0  0
    2.4784    5.8883    0.8972 H   0  0  0  0  0  0  0  0  0  0  0  0
   -3.0536    2.4301    0.0006 C   0  0  0  0  0  0  0  0  0  0  0  0
   -2.2533    3.1859    0.0001 H   0  0  0  0  0  0  0  0  0  0  0  0
   -3.6944    2.5767    0.8931 H   0  0  0  0  0  0  0  0  0  0  0  0
   -3.6956    2.5767   -0.8909 H   0  0  0  0  0  0  0  0  0  0  0  0
  1 15  1  0  0  0  0
  1 31  1  0  0  0  0
  3 16  1  0  0  0  0
  5  2  1  1  0  0  0
  5 10  1  0  0  0  0
  6  7  1  0  0  0  0
  7  9  2  0  0  0  0
  7 38  1  0  0  0  0
  8  6  1  0  0  0  0
  8 15  2  0  0  0  0
  9 29  1  0  0  0  0
 10 18  1  0  0  0  0
 11  5  1  0  0  0  0
 11 13  2  0  0  0  0
 12 11  1  0  0  0  0
 13 23  1  0  0  0  0
 14 13  1  0  0  0  0
 15  3  1  0  0  0  0
 16 10  2  0  0  0  0
 16 17  1  0  0  0  0
 18 23  2  0  0  0  0
 18 19  1  0  0  0  0
 20  4  1  6  0  0  0
 20  9  1  0  0  0  0
 21 27  1  0  0  0  0
 22 21  1  0  0  0  0
 23 24  1  0  0  0  0
 25 20  1  0  0  0  0
 25 21  2  0  0  0  0
 26 25  1  0  0  0  0
 27 29  2  0  0  0  0
 27 28  1  0  0  0  0
 29 30  1  0  0  0  0
 31 33  1  0  0  0  0
 32 31  1  0  0  0  0
 34 35  1  0  0  0  0
 34 31  1  0  0  0  0
 34 37  1  0  0  0  0
 36 34  1  0  0  0  0
 38 40  1  0  0  0  0
 39 38  1  0  0  0  0
 41 38  1  0  0  0  0
M  END
