2,3,5,6
q = -2.0, confidence = 0.846

 45 47  0  0  1  0  0  0  0  0999 V2000
    3.5005    4.7216   -0.2580 Cl  0  0  0  0  0  0  0  0  0  0  0  0
    2.8713   -1.1206   -0.7671 O   0  5  0  0  0  0  0  0  0  0  0  0
   -0.8519   -2.0182   -0.5894 O   0  5  0  0  0  0  0  0  0  0  0  0
   -2.4211    1.7430    1.6858 O   0  0  0  0  0  0  0  0  0  0  0  0
    1.0179   -1.4193    1.3260 N   0  0  0  0  0  2  0  0  0  0  0  0
    0.6288    0.3590   -0.6736 N   0  0  0  0  0  0  0  0  0  0  0  0
    0.0942    0.6573   -1.5019 H   0  0  0  0  0  0  0  0  0  0  0  0
    1.5171   -2.2245    2.2865 C   0  0  0  0  0  3  0  0  0  0  0  0
    2.0364   -3.1273    1.9283 H   0  0  0  0  0  0  0  0  0  0  0  0
    1.3720   -1.9277    3.6445 C   0  0  0  0  0  0  0  0  0  0  0  0
    1.7988   -2.6008    4.4013 H   0  0  0  0  0  0  0  0  0  0  0  0
    0.6701   -0.7657    4.0096 C   0  0  0  0  0  0  0  0  0  0  0  0
    0.5334   -0.5073    5.0707 H   0  0  0  0  0  0  0  0  0  0  0  0
    0.1461    0.0611    3.0105 C   0  0  0  0  0  0  0  0  0  0  0  0
   -0.4385    0.9652    3.2338 H   0  0  0  0  0  0  0  0  0  0  0  0
    0.3525   -0.2958    1.6675 C   0  0  0  0  0  0  0  0  0  0  0  0
   -0.2355    0.5102    0.5264 C   0  0  2  0  0  0  0  0  0  0  0  0
   -0.2976    1.5689    0.8488 H   0  0  0  0  0  0  0  0  0  0  0  0
    1.9044    1.0437   -0.6031 C   0  0  0  0  0  0  0  0  0  0  0  0
    3.0410    0.2007   -0.6590 C   0  0  0  0  0  0  0  0  0  0  0  0
    4.3255    0.7832   -0.5865 C   0  0  0  0  0  0  0  0  0  0  0  0
    5.2065    0.1278   -0.6329 H   0  0  0  0  0  0  0  0  0  0  0  0
    4.4609    2.1697   -0.4640 C   0  0  0  0  0  0  0  0  0  0  0  0
    5.4577    2.6297   -0.4110 H   0  0  0  0  0  0  0  0  0  0  0  0
    3.3190    2.9914   -0.4084 C   0  0  0  0  0  0  0  0  0  0  0  0
    2.0333    2.4326   -0.4742 C   0  0  0  0  0  0  0  0  0  0  0  0
    1.1468    3.0817   -0.4295 H   0  0  0  0  0  0  0  0  0  0  0  0
   -3.1787   -1.9595   -0.3465 C   0  0  0  0  0  0  0  0  0  0  0  0
   -3.0420   -2.9716    0.0837 H   0  0  0  0  0  0  0  0  0  0  0  0
   -3.4554   -2.0993   -1.4114 H   0  0  0  0  0  0  0  0  0  0  0  0
   -4.0025   -1.4415    0.1697 H   0  0  0  0  0  0  0  0  0  0  0  0
   -1.8586   -1.2417   -0.2438 C   0  0  0  0  0  0  0  0  0  0  0  0
   -1.6577    0.0499    0.2370 C   0  0  0  0  0  0  0  0  0  0  0  0
   -2.6916    0.9713    0.7498 C   0  0  0  0  0  0  0  0  0  0  0  0
   -4.0448    1.0568    0.1047 C   0  0  0  0  0  0  0  0  0  0  0  0
   -4.2276    0.8589   -1.2802 C   0  0  0  0  0  0  0  0  0  0  0  0
   -3.3654    0.5809   -1.9050 H   0  0  0  0  0  0  0  0  0  0  0  0
   -5.4921    1.0336   -1.8591 C   0  0  0  0  0  0  0  0  0  0  0  0
   -5.6241    0.8898   -2.9422 H   0  0  0  0  0  0  0  0  0  0  0  0
   -6.5873    1.3955   -1.0579 C   0  0  0  0  0  0  0  0  0  0  0  0
   -7.5820    1.5233   -1.5114 H   0  0  0  0  0  0  0  0  0  0  0  0
   -6.4107    1.6050    0.3212 C   0  0  0  0  0  0  0  0  0  0  0  0
   -7.2674    1.8965    0.9476 H   0  0  0  0  0  0  0  0  0  0  0  0
   -5.1434    1.4529    0.8961 C   0  0  0  0  0  0  0  0  0  0  0  0
   -4.9739    1.6394    1.9669 H   0  0  0  0  0  0  0  0  0  0  0  0
  2 20  1  0  0  0  0
  3 32  1  0  0  0  0
  5 16  1  0  0  0  0
  5  8  1  0  0  0  0
  6 19  1  0  0  0  0
  6 17  1  0  0  0  0
  7  6  1  0  0  0  0
  8 10  1  0  0  0  0
  9  8  1  0  0  0  0
 10 12  2  0  0  0  0
 10 11  1  0  0  0  0
 12 13  1  0  0  0  0
 14 15  1  0  0  0  0
 14 12  1  0  0  0  0
 16 14  2  0  0  0  0
 17 18  1  1  0  0  0
 17 16  1  0  0  0  0
 19 26  1  0  0  0  0
 20 19  2  0  0  0  0
 20 21  1  0  0  0  0
 21 23  2  0  0  0  0
 22 21  1  0  0  0  0
 23 24  1  0  0  0  0
 23 25  1  0  0  0  0
 25  1  1  0  0  0  0
 26 27  1  0  0  0  0
 26 25  2  0  0  0  0
 28 32  1  0  0  0  0
 28 29  1  0  0  0  0
 28 31  1  0  0  0  0
 30 28  1  0  0  0  0
 32 33  2  0  0  0  0
 33 17  1  0  0  0  0
 33 34  1  0  0  0  0
 34  4  2  0  0  0  0
 35 34  1  0  0  0  0
 35 44  1  0  0  0  0
 36 35  2  0  0  0  0
 37 36  1  0  0  0  0
 38 36  1  0  0  0  0
 38 40  2  0  0  0  0
 39 38  1  0  0  0  0
 40 42  1  0  0  0  0
 41 40  1  0  0  0  0
 42 44  2  0  0  0  0
 42 43  1  0  0  0  0
 44 45  1  0  0  0  0
M  CHG  2   2  -1   3  -1
M  END
