2,3,4,5
 OpenBabel05122313063D

 41 43  0  0  1  0  0  0  0  0999 V2000
    5.6958   -0.7079    0.0000 Cl  0  0  0  0  0  0  0  0  0  0  0  0
   -2.7311   -0.2635   -0.0004 O   0  0  0  0  0  1  0  0  0  0  0  0
   -1.7909    2.0069   -0.0023 O   0  0  0  0  0  1  0  0  0  0  0  0
   -0.2151   -1.3564   -0.0001 N   0  0  0  0  0  2  0  0  0  0  0  0
    0.7592    1.0024    0.0000 N   0  0  0  0  0  2  0  0  0  0  0  0
    1.1953   -1.3263   -0.0001 C   0  0  0  0  0  0  0  0  0  0  0  0
    1.7344   -0.0158   -0.0000 C   0  0  0  0  0  0  0  0  0  0  0  0
    3.1300    0.1605    0.0000 C   0  0  0  0  0  0  0  0  0  0  0  0
    3.5900    1.1564    0.0001 H   0  0  0  0  0  0  0  0  0  0  0  0
    3.9658   -0.9608   -0.0000 C   0  0  0  0  0  0  0  0  0  0  0  0
    3.4586   -2.2852   -0.0002 C   0  0  0  0  0  0  0  0  0  0  0  0
    2.0624   -2.4356   -0.0002 C   0  0  0  0  0  0  0  0  0  0  0  0
    1.6595   -3.4579   -0.0004 H   0  0  0  0  0  0  0  0  0  0  0  0
   -0.8841   -2.5011    0.0005 C   0  0  0  0  0  0  0  0  0  0  0  0
   -0.3000   -3.4388    0.0009 H   0  0  0  0  0  0  0  0  0  0  0  0
   -2.2935   -2.6450    0.0005 C   0  0  0  0  0  0  0  0  0  0  0  0
   -2.8656   -3.9551    0.0010 C   0  0  0  0  0  0  0  0  0  0  0  0
   -2.1853   -4.8221    0.0014 H   0  0  0  0  0  0  0  0  0  0  0  0
   -4.2372   -4.1413    0.0011 C   0  0  0  0  0  0  0  0  0  0  0  0
   -4.6650   -5.1540    0.0015 H   0  0  0  0  0  0  0  0  0  0  0  0
   -5.0902   -3.0025    0.0005 C   0  0  0  0  0  0  0  0  0  0  0  0
   -6.1824   -3.1448    0.0006 H   0  0  0  0  0  0  0  0  0  0  0  0
   -4.5748   -1.7155    0.0000 C   0  0  0  0  0  0  0  0  0  0  0  0
   -5.2249   -0.8290   -0.0004 H   0  0  0  0  0  0  0  0  0  0  0  0
   -3.1603   -1.4833   -0.0000 C   0  0  1  0  0  3  0  0  0  0  0  0
    1.0970    2.2848    0.0005 C   0  0  0  0  0  0  0  0  0  0  0  0
    2.1734    2.5336    0.0011 H   0  0  0  0  0  0  0  0  0  0  0  0
    0.2022    3.3826    0.0005 C   0  0  0  0  0  0  0  0  0  0  0  0
    0.7237    4.7138    0.0017 C   0  0  0  0  0  0  0  0  0  0  0  0
    1.8177    4.8461    0.0027 H   0  0  0  0  0  0  0  0  0  0  0  0
   -0.1151    5.8147    0.0016 C   0  0  0  0  0  0  0  0  0  0  0  0
    0.2978    6.8335    0.0026 H   0  0  0  0  0  0  0  0  0  0  0  0
   -1.5236    5.6118    0.0003 C   0  0  0  0  0  0  0  0  0  0  0  0
   -2.1956    6.4845    0.0003 H   0  0  0  0  0  0  0  0  0  0  0  0
   -2.0688    4.3373   -0.0009 C   0  0  0  0  0  0  0  0  0  0  0  0
   -3.1553    4.1697   -0.0020 H   0  0  0  0  0  0  0  0  0  0  0  0
   -1.2323    3.1731   -0.0009 C   0  0  1  0  0  3  0  0  0  0  0  0
    4.3772   -3.4748   -0.0004 C   0  0  0  0  0  0  0  0  0  0  0  0
    3.8067   -4.4225   -0.0004 H   0  0  0  0  0  0  0  0  0  0  0  0
    5.0439   -3.4651    0.8868 H   0  0  0  0  0  0  0  0  0  0  0  0
    5.0438   -3.4649   -0.8876 H   0  0  0  0  0  0  0  0  0  0  0  0
  4 14  1  0  0  0  0
  5 26  1  0  0  0  0
  6  4  1  0  0  0  0
  6  7  1  0  0  0  0
  7  5  1  0  0  0  0
  7  8  2  0  0  0  0
  8  9  1  0  0  0  0
 10  1  1  0  0  0  0
 10  8  1  0  0  0  0
 11 10  2  0  0  0  0
 12 11  1  0  0  0  0
 12  6  2  0  0  0  0
 13 12  1  0  0  0  0
 14 16  2  0  0  0  0
 14 15  1  0  0  0  0
 16 17  1  0  0  0  0
 17 19  2  0  0  0  0
 17 18  1  0  0  0  0
 19 20  1  0  0  0  0
 21 22  1  0  0  0  0
 21 19  1  0  0  0  0
 23 21  2  0  0  0  0
 24 23  1  0  0  0  0
 25  2  1  1  0  0  0
 25 23  1  0  0  0  0
 25 16  1  0  0  0  0
 26 27  1  0  0  0  0
 28 26  2  0  0  0  0
 28 29  1  0  0  0  0
 29 30  1  0  0  0  0
 31 29  2  0  0  0  0
 31 32  1  0  0  0  0
 33 31  1  0  0  0  0
 34 33  1  0  0  0  0
 35 37  1  0  0  0  0
 35 33  2  0  0  0  0
 36 35  1  0  0  0  0
 37  3  1  6  0  0  0
 37 28  1  0  0  0  0
 38 11  1  0  0  0  0
 38 40  1  0  0  0  0
 39 38  1  0  0  0  0
 41 38  1  0  0  0  0
M  END
