1,2,4,5
 OpenBabel05122313063D

 70 73  0  0  0  0  0  0  0  0999 V2000
    1.4919   -1.0081    0.3027 O   0  5  0  0  0  0  0  0  0  0  0  0
   -1.1877   -2.0749   -0.2582 O   0  5  0  0  0  0  0  0  0  0  0  0
   -5.1098    4.7337    0.1847 O   0  0  0  0  0  0  0  0  0  0  0  0
    0.3358    1.5582   -0.1239 N   0  0  0  0  0  2  0  0  0  0  0  0
   -2.1534    0.6158   -0.1284 N   0  0  0  0  0  2  0  0  0  0  0  0
   -3.9756    5.2178    0.1703 N   0  0  0  0  0  0  0  0  0  0  0  0
   -3.7220    6.4229    0.2278 O   0  0  0  0  0  0  0  0  0  0  0  0
   -3.2888    0.0101   -0.4317 C   0  0  0  0  0  3  0  0  0  0  0  0
   -4.1537    0.6550   -0.6795 H   0  0  0  0  0  0  0  0  0  0  0  0
    2.6669    0.9156   -0.5624 C   0  0  0  0  0  0  0  0  0  0  0  0
   -2.0250    2.0015   -0.0731 C   0  0  0  0  0  0  0  0  0  0  0  0
    2.5727   -0.4853   -0.1697 C   0  0  0  0  0  0  0  0  0  0  0  0
    1.5644    1.8216   -0.5261 C   0  0  0  0  0  3  0  0  0  0  0  0
    1.7857    2.8411   -0.9125 H   0  0  0  0  0  0  0  0  0  0  0  0
    3.9024    1.4442   -1.0521 C   0  0  0  0  0  0  0  0  0  0  0  0
    3.9146    2.5071   -1.3365 H   0  0  0  0  0  0  0  0  0  0  0  0
   -4.8774   -1.8622   -0.7879 C   0  0  0  0  0  0  0  0  0  0  0  0
   -0.6746    2.5130   -0.0788 C   0  0  0  0  0  0  0  0  0  0  0  0
   -3.5118   -1.3911   -0.5410 C   0  0  0  0  0  0  0  0  0  0  0  0
   -2.8340    4.2845    0.0750 C   0  0  0  0  0  0  0  0  0  0  0  0
   -3.0941    2.9128    0.0115 C   0  0  0  0  0  0  0  0  0  0  0  0
   -4.1415    2.5864    0.0430 H   0  0  0  0  0  0  0  0  0  0  0  0
    4.9257   -0.7063   -0.7971 C   0  0  0  0  0  0  0  0  0  0  0  0
    5.8214   -1.3338   -0.9019 H   0  0  0  0  0  0  0  0  0  0  0  0
   -2.4161   -2.3496   -0.5192 C   0  0  0  0  0  0  0  0  0  0  0  0
    5.0422    0.6676   -1.1711 C   0  0  0  0  0  0  0  0  0  0  0  0
    3.7636   -1.3051   -0.3205 C   0  0  0  0  0  0  0  0  0  0  0  0
   -6.0235   -1.0221   -0.7105 C   0  0  0  0  0  0  0  0  0  0  0  0
   -5.9198    0.0323   -0.4192 H   0  0  0  0  0  0  0  0  0  0  0  0
   -5.1081   -3.2452   -1.1048 C   0  0  0  0  0  0  0  0  0  0  0  0
   -0.4591    3.9087    0.0048 C   0  0  0  0  0  0  0  0  0  0  0  0
    0.5693    4.2959    0.0410 H   0  0  0  0  0  0  0  0  0  0  0  0
    3.7108   -2.8013    0.0425 C   0  0  0  0  0  0  0  0  0  0  0  0
   -1.5286    4.8019    0.0752 C   0  0  0  0  0  0  0  0  0  0  0  0
   -1.3843    5.8872    0.1495 H   0  0  0  0  0  0  0  0  0  0  0  0
   -3.9904   -4.1455   -1.1419 C   0  0  0  0  0  0  0  0  0  0  0  0
   -4.1814   -5.2016   -1.3930 H   0  0  0  0  0  0  0  0  0  0  0  0
    6.3894    1.1992   -1.6849 C   0  0  0  0  0  0  0  0  0  0  0  0
   -2.7174   -3.7245   -0.8612 C   0  0  0  0  0  0  0  0  0  0  0  0
   -1.8597   -4.4129   -0.8756 H   0  0  0  0  0  0  0  0  0  0  0  0
   -7.3063   -1.5023   -0.9684 C   0  0  0  0  0  0  0  0  0  0  0  0
   -8.1628   -0.8146   -0.8964 H   0  0  0  0  0  0  0  0  0  0  0  0
   -7.5168   -2.8575   -1.3048 C   0  0  0  0  0  0  0  0  0  0  0  0
   -8.5321   -3.2306   -1.5054 H   0  0  0  0  0  0  0  0  0  0  0  0
   -6.4227   -3.7138   -1.3623 C   0  0  0  0  0  0  0  0  0  0  0  0
   -6.5590   -4.7794   -1.6058 H   0  0  0  0  0  0  0  0  0  0  0  0
    2.6261   -3.5126   -0.8037 C   0  0  0  0  0  0  0  0  0  0  0  0
    1.6215   -3.0925   -0.6139 H   0  0  0  0  0  0  0  0  0  0  0  0
    2.6082   -4.5953   -0.5591 H   0  0  0  0  0  0  0  0  0  0  0  0
    2.8521   -3.4138   -1.8851 H   0  0  0  0  0  0  0  0  0  0  0  0
    7.4647    1.0073   -0.5910 C   0  0  0  0  0  0  0  0  0  0  0  0
    8.4514    1.3716   -0.9455 H   0  0  0  0  0  0  0  0  0  0  0  0
    7.5825   -0.0589   -0.3116 H   0  0  0  0  0  0  0  0  0  0  0  0
    7.1988    1.5693    0.3272 H   0  0  0  0  0  0  0  0  0  0  0  0
    6.7994    0.4150   -2.9524 C   0  0  0  0  0  0  0  0  0  0  0  0
    7.7772    0.7754   -3.3345 H   0  0  0  0  0  0  0  0  0  0  0  0
    6.0460    0.5418   -3.7558 H   0  0  0  0  0  0  0  0  0  0  0  0
    6.8981   -0.6706   -2.7520 H   0  0  0  0  0  0  0  0  0  0  0  0
    6.3190    2.6937   -2.0401 C   0  0  0  0  0  0  0  0  0  0  0  0
    6.0490    3.3131   -1.1607 H   0  0  0  0  0  0  0  0  0  0  0  0
    5.5794    2.8911   -2.8421 H   0  0  0  0  0  0  0  0  0  0  0  0
    7.3063    3.0429   -2.4038 H   0  0  0  0  0  0  0  0  0  0  0  0
    5.0538   -3.5047   -0.2243 C   0  0  0  0  0  0  0  0  0  0  0  0
    4.9678   -4.5764    0.0457 H   0  0  0  0  0  0  0  0  0  0  0  0
    5.8803   -3.0762    0.3792 H   0  0  0  0  0  0  0  0  0  0  0  0
    5.3436   -3.4543   -1.2936 H   0  0  0  0  0  0  0  0  0  0  0  0
    3.3875   -2.9584    1.5479 C   0  0  0  0  0  0  0  0  0  0  0  0
    2.4168   -2.4873    1.7866 H   0  0  0  0  0  0  0  0  0  0  0  0
    4.1824   -2.4900    2.1662 H   0  0  0  0  0  0  0  0  0  0  0  0
    3.3356   -4.0334    1.8193 H   0  0  0  0  0  0  0  0  0  0  0  0
  4 18  1  0  0  0  0
  5 11  1  0  0  0  0
  6  3  2  0  0  0  0
  6  7  2  0  0  0  0
  8  5  1  0  0  0  0
  9  8  1  0  0  0  0
 10 13  1  0  0  0  0
 10 12  1  0  0  0  0
 11 21  1  0  0  0  0
 12  1  1  0  0  0  0
 13  4  1  0  0  0  0
 14 13  1  0  0  0  0
 15 10  2  0  0  0  0
 16 15  1  0  0  0  0
 17 28  1  0  0  0  0
 17 19  2  0  0  0  0
 18 11  2  0  0  0  0
 18 31  1  0  0  0  0
 19 25  1  0  0  0  0
 19  8  1  0  0  0  0
 20 34  1  0  0  0  0
 20  6  1  0  0  0  0
 21 22  1  0  0  0  0
 21 20  2  0  0  0  0
 23 27  1  0  0  0  0
 24 23  1  0  0  0  0
 25  2  1  0  0  0  0
 26 15  1  0  0  0  0
 26 23  2  0  0  0  0
 27 12  2  0  0  0  0
 27 33  1  0  0  0  0
 28 29  1  0  0  0  0
 30 17  1  0  0  0  0
 31 32  1  0  0  0  0
 31 34  2  0  0  0  0
 33 67  1  0  0  0  0
 34 35  1  0  0  0  0
 36 30  2  0  0  0  0
 36 39  1  0  0  0  0
 37 36  1  0  0  0  0
 38 26  1  0  0  0  0
 38 51  1  0  0  0  0
 39 25  2  0  0  0  0
 40 39  1  0  0  0  0
 41 42  1  0  0  0  0
 41 28  2  0  0  0  0
 43 41  1  0  0  0  0
 44 43  1  0  0  0  0
 45 43  2  0  0  0  0
 45 30  1  0  0  0  0
 46 45  1  0  0  0  0
 47 48  1  0  0  0  0
 47 49  1  0  0  0  0
 47 33  1  0  0  0  0
 50 47  1  0  0  0  0
 51 53  1  0  0  0  0
 51 54  1  0  0  0  0
 52 51  1  0  0  0  0
 55 58  1  0  0  0  0
 55 38  1  0  0  0  0
 56 55  1  0  0  0  0
 57 55  1  0  0  0  0
 59 38  1  0  0  0  0
 59 60  1  0  0  0  0
 61 59  1  0  0  0  0
 62 59  1  0  0  0  0
 63 33  1  0  0  0  0
 63 64  1  0  0  0  0
 63 65  1  0  0  0  0
 66 63  1  0  0  0  0
 67 68  1  0  0  0  0
 67 70  1  0  0  0  0
 67 69  1  0  0  0  0
M  CHG  2   1  -1   2  -1
M  END
