1,2,3,4
 OpenBabel05122313063D

 64 66  0  0  0  0  0  0  0  0999 V2000
    1.2314    2.7048   -0.1470 O   0  5  0  0  0  0  0  0  0  0  0  0
   -1.1963    1.1347    0.2086 O   0  5  0  0  0  0  0  0  0  0  0  0
    2.6553    0.1633   -0.3252 N   0  0  0  0  0  2  0  0  0  0  0  0
    0.3917   -1.2204   -0.0920 N   0  0  0  0  0  2  0  0  0  0  0  0
   -2.0553   -1.0623   -0.3016 C   0  0  0  0  0  0  0  0  0  0  0  0
   -2.2011    0.3635   -0.0300 C   0  0  0  0  0  0  0  0  0  0  0  0
    1.5628   -1.9701   -0.1039 C   0  0  0  0  0  0  0  0  0  0  0  0
    2.7919   -1.2216   -0.2272 C   0  0  0  0  0  0  0  0  0  0  0  0
   -0.8005   -1.7373   -0.3366 C   0  0  0  0  0  3  0  0  0  0  0  0
   -0.8593   -2.8099   -0.6229 H   0  0  0  0  0  0  0  0  0  0  0  0
    4.0254   -3.3050   -0.0931 C   0  0  0  0  0  0  0  0  0  0  0  0
    2.3739    3.1881   -0.5085 C   0  0  0  0  0  0  0  0  0  0  0  0
    5.3069   -5.2345    0.0320 O   0  0  0  0  0  0  0  0  0  0  0  0
    1.6231   -3.3777    0.0358 C   0  0  0  0  0  0  0  0  0  0  0  0
    0.6940   -3.9496    0.1704 H   0  0  0  0  0  0  0  0  0  0  0  0
    5.3256   -4.0069   -0.0756 N   0  0  0  0  0  0  0  0  0  0  0  0
   -4.4887   -1.3334   -0.5787 C   0  0  0  0  0  0  0  0  0  0  0  0
    4.0167   -1.9129   -0.2139 C   0  0  0  0  0  0  0  0  0  0  0  0
    4.9828   -1.3966   -0.2834 H   0  0  0  0  0  0  0  0  0  0  0  0
   -3.2104   -1.8617   -0.5787 C   0  0  0  0  0  0  0  0  0  0  0  0
   -3.0432   -2.9284   -0.7897 H   0  0  0  0  0  0  0  0  0  0  0  0
    3.5721    2.3928   -0.7769 C   0  0  0  0  0  0  0  0  0  0  0  0
   -3.5449    0.9159   -0.0291 C   0  0  0  0  0  0  0  0  0  0  0  0
   -4.6102    0.0629   -0.2942 C   0  0  0  0  0  0  0  0  0  0  0  0
   -5.6229    0.4885   -0.2885 H   0  0  0  0  0  0  0  0  0  0  0  0
    2.8436   -4.0527    0.0355 C   0  0  0  0  0  0  0  0  0  0  0  0
    2.9117   -5.1421    0.1495 H   0  0  0  0  0  0  0  0  0  0  0  0
    6.3455   -3.3205   -0.1716 O   0  0  0  0  0  0  0  0  0  0  0  0
    3.6329    0.9694   -0.6855 C   0  0  0  0  0  3  0  0  0  0  0  0
    4.6107    0.5250   -0.9722 H   0  0  0  0  0  0  0  0  0  0  0  0
    2.4970    4.6094   -0.6762 C   0  0  0  0  0  0  0  0  0  0  0  0
    1.5915    5.2023   -0.4802 H   0  0  0  0  0  0  0  0  0  0  0  0
    3.6870    5.2072   -1.0605 C   0  0  0  0  0  0  0  0  0  0  0  0
    3.7309    6.3025   -1.1705 H   0  0  0  0  0  0  0  0  0  0  0  0
   -5.7538   -2.1575   -0.8636 C   0  0  0  0  0  0  0  0  0  0  0  0
    4.8488    4.4309   -1.3187 C   0  0  0  0  0  0  0  0  0  0  0  0
    5.7868    4.9150   -1.6258 H   0  0  0  0  0  0  0  0  0  0  0  0
    4.7752    3.0559   -1.1795 C   0  0  0  0  0  0  0  0  0  0  0  0
    5.6628    2.4329   -1.3786 H   0  0  0  0  0  0  0  0  0  0  0  0
   -3.7523    2.4128    0.2696 C   0  0  0  0  0  0  0  0  0  0  0  0
   -2.9999    3.2707   -0.7772 C   0  0  0  0  0  0  0  0  0  0  0  0
   -3.1806    4.3482   -0.5807 H   0  0  0  0  0  0  0  0  0  0  0  0
   -3.3651    3.0467   -1.8003 H   0  0  0  0  0  0  0  0  0  0  0  0
   -1.9109    3.0854   -0.7407 H   0  0  0  0  0  0  0  0  0  0  0  0
   -3.2236    2.7378    1.6881 C   0  0  0  0  0  0  0  0  0  0  0  0
   -3.7665    2.1485    2.4559 H   0  0  0  0  0  0  0  0  0  0  0  0
   -3.3728    3.8142    1.9134 H   0  0  0  0  0  0  0  0  0  0  0  0
   -2.1444    2.5104    1.7612 H   0  0  0  0  0  0  0  0  0  0  0  0
   -5.2402    2.8043    0.2225 C   0  0  0  0  0  0  0  0  0  0  0  0
   -5.8433    2.2517    0.9719 H   0  0  0  0  0  0  0  0  0  0  0  0
   -5.6848    2.6285   -0.7783 H   0  0  0  0  0  0  0  0  0  0  0  0
   -5.3436    3.8851    0.4453 H   0  0  0  0  0  0  0  0  0  0  0  0
   -6.6914   -2.0950    0.3640 C   0  0  0  0  0  0  0  0  0  0  0  0
   -6.9901   -1.0546    0.6025 H   0  0  0  0  0  0  0  0  0  0  0  0
   -6.1961   -2.5177    1.2614 H   0  0  0  0  0  0  0  0  0  0  0  0
   -7.6189   -2.6746    0.1754 H   0  0  0  0  0  0  0  0  0  0  0  0
   -6.4791   -1.5704   -2.0960 C   0  0  0  0  0  0  0  0  0  0  0  0
   -6.7704   -0.5127   -1.9384 H   0  0  0  0  0  0  0  0  0  0  0  0
   -7.4043   -2.1437   -2.3128 H   0  0  0  0  0  0  0  0  0  0  0  0
   -5.8290   -1.6105   -2.9932 H   0  0  0  0  0  0  0  0  0  0  0  0
   -5.4258   -3.6324   -1.1499 C   0  0  0  0  0  0  0  0  0  0  0  0
   -6.3594   -4.1949   -1.3516 H   0  0  0  0  0  0  0  0  0  0  0  0
   -4.9242   -4.1170   -0.2878 H   0  0  0  0  0  0  0  0  0  0  0  0
   -4.7713   -3.7428   -2.0381 H   0  0  0  0  0  0  0  0  0  0  0  0
  3  8  1  0  0  0  0
  5  6  1  0  0  0  0
  6 23  2  0  0  0  0
  6  2  1  0  0  0  0
  7  4  1  0  0  0  0
  7 14  1  0  0  0  0
  8 18  1  0  0  0  0
  8  7  2  0  0  0  0
  9  5  1  0  0  0  0
  9  4  1  0  0  0  0
 10  9  1  0  0  0  0
 11 16  1  0  0  0  0
 11 26  1  0  0  0  0
 12  1  1  0  0  0  0
 14 15  1  0  0  0  0
 16 13  2  0  0  0  0
 17 24  2  0  0  0  0
 18 11  2  0  0  0  0
 19 18  1  0  0  0  0
 20 17  1  0  0  0  0
 20  5  2  0  0  0  0
 21 20  1  0  0  0  0
 22 29  1  0  0  0  0
 22 12  2  0  0  0  0
 23 40  1  0  0  0  0
 24 25  1  0  0  0  0
 24 23  1  0  0  0  0
 26 14  2  0  0  0  0
 26 27  1  0  0  0  0
 28 16  2  0  0  0  0
 29  3  1  0  0  0  0
 30 29  1  0  0  0  0
 31 12  1  0  0  0  0
 31 32  1  0  0  0  0
 33 31  2  0  0  0  0
 34 33  1  0  0  0  0
 35 17  1  0  0  0  0
 35 53  1  0  0  0  0
 36 38  2  0  0  0  0
 36 33  1  0  0  0  0
 37 36  1  0  0  0  0
 38 22  1  0  0  0  0
 39 38  1  0  0  0  0
 40 45  1  0  0  0  0
 41 44  1  0  0  0  0
 41 42  1  0  0  0  0
 41 40  1  0  0  0  0
 43 41  1  0  0  0  0
 45 48  1  0  0  0  0
 45 47  1  0  0  0  0
 45 46  1  0  0  0  0
 49 40  1  0  0  0  0
 49 52  1  0  0  0  0
 49 50  1  0  0  0  0
 51 49  1  0  0  0  0
 53 54  1  0  0  0  0
 53 55  1  0  0  0  0
 56 53  1  0  0  0  0
 57 58  1  0  0  0  0
 57 35  1  0  0  0  0
 59 57  1  0  0  0  0
 60 57  1  0  0  0  0
 61 35  1  0  0  0  0
 61 63  1  0  0  0  0
 62 61  1  0  0  0  0
 64 61  1  0  0  0  0
M  CHG  2   1  -1   2  -1
M  END
