1,4,6,7
 OpenBabel05122313063D

 33 33  0  0  1  0  0  0  0  0999 V2000
    1.1700   -1.2854    0.0063 O   0  5  0  0  0  0  0  0  0  0  0  0
   -1.0342    2.5818    1.5451 O   0  0  0  0  0  0  0  0  0  0  0  0
   -0.5470    1.7330    1.6145 H   0  0  0  0  0  0  0  0  0  0  0  0
   -1.1886   -2.0179    0.0100 O   0  5  0  0  0  0  0  0  0  0  0  0
   -3.2083   -3.0405    0.0487 O   0  0  0  0  0  0  0  0  0  0  0  0
    0.4725    1.3115   -0.4531 N   0  0  0  0  0  2  0  0  0  0  0  0
   -2.1765    0.2999   -0.1013 N   0  0  0  0  0  2  0  0  0  0  0  0
    2.3995   -0.8713    0.0309 C   0  0  0  0  0  0  0  0  0  0  0  0
    2.7749    0.5094   -0.1431 C   0  0  0  0  0  0  0  0  0  0  0  0
    4.1504    0.8837   -0.0949 C   0  0  0  0  0  3  0  0  0  0  0  0
    4.4112    1.9457   -0.2315 H   0  0  0  0  0  0  0  0  0  0  0  0
    5.1416   -0.0620    0.1164 C   0  0  0  0  0  0  0  0  0  0  0  0
    6.1995    0.2346    0.1535 H   0  0  0  0  0  0  0  0  0  0  0  0
    4.7736   -1.4246    0.2805 C   0  0  0  0  0  0  0  0  0  0  0  0
    5.5574   -2.1805    0.4461 H   0  0  0  0  0  0  0  0  0  0  0  0
    3.4454   -1.8256    0.2358 C   0  0  0  0  0  0  0  0  0  0  0  0
    3.1493   -2.8767    0.3614 H   0  0  0  0  0  0  0  0  0  0  0  0
    1.7809    1.4932   -0.3938 C   0  0  0  0  0  0  0  0  0  0  0  0
    2.1467    2.5232   -0.5752 H   0  0  0  0  0  0  0  0  0  0  0  0
   -0.3240    2.4910   -0.7844 C   0  0  0  0  0  0  0  0  0  0  0  0
    0.3223    3.3926   -0.7494 H   0  0  0  0  0  0  0  0  0  0  0  0
   -0.7224    2.4029   -1.8193 H   0  0  0  0  0  0  0  0  0  0  0  0
   -1.4801    2.6656    0.2101 C   0  0  1  0  0  0  0  0  0  0  0  0
   -1.8918    3.6888    0.0786 H   0  0  0  0  0  0  0  0  0  0  0  0
   -2.6186    1.6914   -0.0888 C   0  0  0  0  0  0  0  0  0  0  0  0
   -3.4051    1.8260    0.6831 H   0  0  0  0  0  0  0  0  0  0  0  0
   -3.0761    1.9382   -1.0740 H   0  0  0  0  0  0  0  0  0  0  0  0
   -3.0783   -0.6454   -0.0412 C   0  0  2  0  0  3  0  0  0  0  0  0
   -4.5519   -0.4524    0.0088 C   0  0  0  0  0  0  0  0  0  0  0  0
   -4.9215    0.1542   -0.8445 H   0  0  0  0  0  0  0  0  0  0  0  0
   -4.8624    0.0740    0.9377 H   0  0  0  0  0  0  0  0  0  0  0  0
   -5.0200   -1.4550   -0.0097 H   0  0  0  0  0  0  0  0  0  0  0  0
   -2.4928   -2.0425    0.0049 C   0  0  0  0  0  0  0  0  0  0  0  0
  1  8  1  0  0  0  0
  2  3  1  0  0  0  0
  6 18  1  0  0  0  0
  7 25  1  0  0  0  0
  8 16  2  0  0  0  0
  9 10  1  0  0  0  0
  9  8  1  0  0  0  0
 10 12  1  0  0  0  0
 11 10  1  0  0  0  0
 12 13  1  0  0  0  0
 12 14  2  0  0  0  0
 14 15  1  0  0  0  0
 16 14  1  0  0  0  0
 16 17  1  0  0  0  0
 18  9  2  0  0  0  0
 19 18  1  0  0  0  0
 20 21  1  0  0  0  0
 20  6  1  0  0  0  0
 20 23  1  0  0  0  0
 22 20  1  0  0  0  0
 23 24  1  6  0  0  0
 23  2  1  0  0  0  0
 25 23  1  0  0  0  0
 25 26  1  0  0  0  0
 27 25  1  0  0  0  0
 28  7  1  1  0  0  0
 28 33  1  0  0  0  0
 28 29  1  0  0  0  0
 29 31  1  0  0  0  0
 30 29  1  0  0  0  0
 32 29  1  0  0  0  0
 33  4  1  0  0  0  0
 33  5  2  0  0  0  0
M  CHG  2   1  -1   4  -1
M  END
