2,3,6,7
 OpenBabel05122313063D

 34 35  0  0  1  0  0  0  0  0999 V2000
    3.5419   -2.8535   -0.1974 O   0  5  0  0  0  0  0  0  0  0  0  0
    1.3039   -2.6045    0.0484 O   0  0  0  0  0  0  0  0  0  0  0  0
   -1.3039   -2.6045    0.0488 O   0  5  0  0  0  0  0  0  0  0  0  0
   -3.5419   -2.8536   -0.1971 O   0  0  0  0  0  0  0  0  0  0  0  0
   -0.0000    3.3348   -0.0549 O   0  0  0  0  0  0  0  0  0  0  0  0
    1.3860   -0.0482    0.0540 N   0  0  0  0  0  2  0  0  0  0  0  0
   -1.3860   -0.0482    0.0541 N   0  0  0  0  0  2  0  0  0  0  0  0
    2.5970   -0.6554   -0.1121 C   0  0  1  0  0  3  0  0  0  0  0  0
    3.7802    0.0637   -0.2554 C   0  0  0  0  0  0  0  0  0  0  0  0
    4.7090   -0.5110   -0.3854 H   0  0  0  0  0  0  0  0  0  0  0  0
    3.7207    1.4636   -0.2164 C   0  0  0  0  0  0  0  0  0  0  0  0
    4.6302    2.0734   -0.3233 H   0  0  0  0  0  0  0  0  0  0  0  0
    2.4778    2.0790   -0.0207 C   0  0  0  0  0  0  0  0  0  0  0  0
    2.3820    3.1709    0.0510 H   0  0  0  0  0  0  0  0  0  0  0  0
    1.3116    1.3019    0.1084 C   0  0  0  0  0  0  0  0  0  0  0  0
   -0.0000    2.0112    0.4773 C   0  0  2  0  0  0  0  0  0  0  0  0
   -1.3116    1.3019    0.1083 C   0  0  2  0  0  3  0  0  0  0  0  0
   -2.5970   -0.6554   -0.1120 C   0  0  0  0  0  0  0  0  0  0  0  0
   -3.7802    0.0636   -0.2555 C   0  0  0  0  0  0  0  0  0  0  0  0
   -4.7090   -0.5110   -0.3855 H   0  0  0  0  0  0  0  0  0  0  0  0
   -3.7207    1.4636   -0.2167 C   0  0  0  0  0  0  0  0  0  0  0  0
   -4.6301    2.0733   -0.3238 H   0  0  0  0  0  0  0  0  0  0  0  0
   -2.4777    2.0790   -0.0210 C   0  0  0  0  0  0  0  0  0  0  0  0
   -2.3820    3.1709    0.0506 H   0  0  0  0  0  0  0  0  0  0  0  0
    2.5315   -2.1691   -0.0957 C   0  0  0  0  0  0  0  0  0  0  0  0
   -2.5315   -2.1691   -0.0954 C   0  0  0  0  0  0  0  0  0  0  0  0
   -0.0000    3.4317   -1.4758 C   0  0  0  0  0  0  0  0  0  0  0  0
    0.9015    2.9639   -1.9300 H   0  0  0  0  0  0  0  0  0  0  0  0
   -0.0007    4.5120   -1.7139 H   0  0  0  0  0  0  0  0  0  0  0  0
   -0.9009    2.9628   -1.9300 H   0  0  0  0  0  0  0  0  0  0  0  0
   -0.0000    2.1789    2.0132 C   0  0  0  0  0  0  0  0  0  0  0  0
    0.9025    2.7371    2.3275 H   0  0  0  0  0  0  0  0  0  0  0  0
   -0.0000    1.1838    2.4978 H   0  0  0  0  0  0  0  0  0  0  0  0
   -0.9026    2.7371    2.3275 H   0  0  0  0  0  0  0  0  0  0  0  0
  1 25  1  0  0  0  0
  4 26  2  0  0  0  0
  6 15  1  0  0  0  0
  7 17  1  0  0  0  0
  8 25  1  1  0  0  0
  8  6  1  0  0  0  0
  9 11  2  0  0  0  0
  9  8  1  0  0  0  0
 10  9  1  0  0  0  0
 11 13  1  0  0  0  0
 12 11  1  0  0  0  0
 13 14  1  0  0  0  0
 13 15  2  0  0  0  0
 15 16  1  0  0  0  0
 16  5  1  6  0  0  0
 16 31  1  0  0  0  0
 17 16  1  1  0  0  0
 18 26  1  0  0  0  0
 18  7  1  0  0  0  0
 19 21  1  0  0  0  0
 19 18  2  0  0  0  0
 20 19  1  0  0  0  0
 21 23  2  0  0  0  0
 22 21  1  0  0  0  0
 23 24  1  0  0  0  0
 23 17  1  0  0  0  0
 25  2  2  0  0  0  0
 26  3  1  0  0  0  0
 27  5  1  0  0  0  0
 28 27  1  0  0  0  0
 29 27  1  0  0  0  0
 30 27  1  0  0  0  0
 31 34  1  0  0  0  0
 31 32  1  0  0  0  0
 31 33  1  0  0  0  0
M  CHG  2   1  -1   3  -1
M  END
