3,4,6,8
 OpenBabel05122313063D

 60 61  0  0  1  0  0  0  0  0999 V2000
    5.2660    2.5725    0.0009 S   0  0  0  0  0  0  0  0  0  0  0  0
   -2.3616   -2.0616   -0.0002 S   0  0  0  0  0  0  0  0  0  0  0  0
   -0.0356   -0.4982   -0.0007 O   0  0  0  0  0  1  0  0  0  0  0  0
    2.1169   -1.8488    0.0015 O   0  5  0  0  0  0  0  0  0  0  0  0
    5.8380   -3.7750   -0.0016 O   0  0  0  0  0  0  0  0  0  0  0  0
    1.4580    1.7807    0.0002 N   0  0  0  0  0  2  0  0  0  0  0  0
    2.5784    2.5771    0.0003 N   0  0  0  0  0  0  0  0  0  0  0  0
    3.5204    0.4523    0.0004 N   0  0  0  0  0  2  0  0  0  0  0  0
   -1.0550    0.3080   -0.0004 C   0  0  2  0  0  3  0  0  0  0  0  0
   -2.3697   -0.2781   -0.0002 C   0  0  0  0  0  0  0  0  0  0  0  0
   -3.5020    0.5276   -0.0002 C   0  0  0  0  0  0  0  0  0  0  0  0
   -4.4873    0.0405   -0.0001 H   0  0  0  0  0  0  0  0  0  0  0  0
   -3.4311    1.9533   -0.0002 C   0  0  0  0  0  0  0  0  0  0  0  0
   -2.1706    2.5350   -0.0003 C   0  0  0  0  0  0  0  0  0  0  0  0
   -2.0536    3.6275   -0.0003 H   0  0  0  0  0  0  0  0  0  0  0  0
   -0.9759    1.7462   -0.0004 C   0  0  0  0  0  0  0  0  0  0  0  0
    0.2849    2.3985   -0.0003 C   0  0  0  0  0  0  0  0  0  0  0  0
    0.3270    3.5021   -0.0005 H   0  0  0  0  0  0  0  0  0  0  0  0
    3.6597    1.8425    0.0005 C   0  0  0  0  0  0  0  0  0  0  0  0
    4.5641   -0.3813   -0.0003 C   0  0  0  0  0  3  0  0  0  0  0  0
    5.5608    0.0936   -0.0010 H   0  0  0  0  0  0  0  0  0  0  0  0
    4.5108   -1.7873   -0.0002 C   0  0  0  0  0  0  0  0  0  0  0  0
    3.2293   -2.4684    0.0009 C   0  0  0  0  0  0  0  0  0  0  0  0
    3.1079   -3.9669    0.0017 C   0  0  0  0  0  0  0  0  0  0  0  0
    2.0338   -4.2265    0.0031 H   0  0  0  0  0  0  0  0  0  0  0  0
    3.6249   -4.4034    0.8780 H   0  0  0  0  0  0  0  0  0  0  0  0
    3.6226   -4.4039   -0.8758 H   0  0  0  0  0  0  0  0  0  0  0  0
    5.7942   -2.5446   -0.0013 C   0  0  0  0  0  0  0  0  0  0  0  0
    7.1061   -1.7587   -0.0019 C   0  0  0  0  0  0  0  0  0  0  0  0
    7.9322   -2.4913   -0.0022 H   0  0  0  0  0  0  0  0  0  0  0  0
    7.2010   -1.1090    0.8923 H   0  0  0  0  0  0  0  0  0  0  0  0
    7.2002   -1.1093   -0.8964 H   0  0  0  0  0  0  0  0  0  0  0  0
    4.8088    4.3306    0.0001 C   0  0  0  0  0  0  0  0  0  0  0  0
    5.7658    4.8854    0.0003 H   0  0  0  0  0  0  0  0  0  0  0  0
    4.2194    4.5753    0.9026 H   0  0  0  0  0  0  0  0  0  0  0  0
    4.2202    4.5747   -0.9031 H   0  0  0  0  0  0  0  0  0  0  0  0
   -4.1243   -2.3849   -0.0000 C   0  0  0  0  0  0  0  0  0  0  0  0
   -4.8164   -2.5222   -1.2190 C   0  0  0  0  0  0  0  0  0  0  0  0
   -4.2635   -2.4140   -2.1639 H   0  0  0  0  0  0  0  0  0  0  0  0
   -6.1951   -2.7854   -1.2161 C   0  0  0  0  0  0  0  0  0  0  0  0
   -6.7331   -2.8910   -2.1706 H   0  0  0  0  0  0  0  0  0  0  0  0
   -6.8853   -2.9161    0.0001 C   0  0  0  0  0  0  0  0  0  0  0  0
   -7.9663   -3.1232    0.0002 H   0  0  0  0  0  0  0  0  0  0  0  0
   -6.1947   -2.7866    1.2162 C   0  0  0  0  0  0  0  0  0  0  0  0
   -6.7324   -2.8932    2.1708 H   0  0  0  0  0  0  0  0  0  0  0  0
   -4.8160   -2.5235    1.2190 C   0  0  0  0  0  0  0  0  0  0  0  0
   -4.2628   -2.4163    2.1638 H   0  0  0  0  0  0  0  0  0  0  0  0
   -4.7416    2.7571   -0.0002 C   0  0  0  0  0  0  0  0  0  0  0  0
   -4.4852    4.2731   -0.0003 C   0  0  0  0  0  0  0  0  0  0  0  0
   -5.4498    4.8195   -0.0002 H   0  0  0  0  0  0  0  0  0  0  0  0
   -3.9196    4.5938   -0.8985 H   0  0  0  0  0  0  0  0  0  0  0  0
   -3.9195    4.5939    0.8978 H   0  0  0  0  0  0  0  0  0  0  0  0
   -5.5599    2.3978   -1.2617 C   0  0  0  0  0  0  0  0  0  0  0  0
   -6.5172    2.9593   -1.2771 H   0  0  0  0  0  0  0  0  0  0  0  0
   -5.8038    1.3173   -1.3003 H   0  0  0  0  0  0  0  0  0  0  0  0
   -4.9963    2.6494   -2.1828 H   0  0  0  0  0  0  0  0  0  0  0  0
   -5.5597    2.3980    1.2616 C   0  0  0  0  0  0  0  0  0  0  0  0
   -6.5170    2.9595    1.2771 H   0  0  0  0  0  0  0  0  0  0  0  0
   -4.9959    2.6497    2.1826 H   0  0  0  0  0  0  0  0  0  0  0  0
   -5.8037    1.3175    1.3003 H   0  0  0  0  0  0  0  0  0  0  0  0
  2 37  1  0  0  0  0
  5 28  2  0  0  0  0
  6  7  1  0  0  0  0
  7 19  2  0  0  0  0
  8 19  1  0  0  0  0
  9  3  1  6  0  0  0
  9 16  1  0  0  0  0
  9 10  1  0  0  0  0
 10  2  1  0  0  0  0
 10 11  2  0  0  0  0
 11 12  1  0  0  0  0
 13 11  1  0  0  0  0
 13 48  1  0  0  0  0
 14 15  1  0  0  0  0
 14 13  2  0  0  0  0
 16 14  1  0  0  0  0
 16 17  2  0  0  0  0
 17  6  1  0  0  0  0
 18 17  1  0  0  0  0
 19  1  1  0  0  0  0
 20 22  1  0  0  0  0
 20  8  1  0  0  0  0
 21 20  1  0  0  0  0
 22 23  2  0  0  0  0
 23  4  1  0  0  0  0
 23 24  1  0  0  0  0
 24 25  1  0  0  0  0
 24 26  1  0  0  0  0
 27 24  1  0  0  0  0
 28 22  1  0  0  0  0
 29 28  1  0  0  0  0
 29 31  1  0  0  0  0
 30 29  1  0  0  0  0
 32 29  1  0  0  0  0
 33 34  1  0  0  0  0
 33  1  1  0  0  0  0
 33 35  1  0  0  0  0
 36 33  1  0  0  0  0
 37 46  1  0  0  0  0
 38 40  1  0  0  0  0
 38 37  2  0  0  0  0
 39 38  1  0  0  0  0
 40 42  2  0  0  0  0
 41 40  1  0  0  0  0
 42 43  1  0  0  0  0
 42 44  1  0  0  0  0
 44 46  2  0  0  0  0
 44 45  1  0  0  0  0
 46 47  1  0  0  0  0
 48 57  1  0  0  0  0
 49 50  1  0  0  0  0
 49 48  1  0  0  0  0
 49 52  1  0  0  0  0
 51 49  1  0  0  0  0
 53 48  1  0  0  0  0
 54 53  1  0  0  0  0
 55 53  1  0  0  0  0
 56 53  1  0  0  0  0
 57 58  1  0  0  0  0
 57 60  1  0  0  0  0
 57 59  1  0  0  0  0
M  CHG  1   4  -1
M  END
