5,6,9,11
 OpenBabel05122313063D

 30 31  0  0  1  0  0  0  0  0999 V2000
    1.1568   -4.5099   -0.7298 O   0  5  0  0  0  0  0  0  0  0  0  0
   -4.8307   -1.5000    1.2337 O   0  0  0  0  0  0  0  0  0  0  0  0
   -5.5095   -0.9776    1.7144 H   0  0  0  0  0  0  0  0  0  0  0  0
   -3.7450    0.4446    1.6029 O   0  0  0  0  0  0  0  0  0  0  0  0
    2.1424   -2.4816   -0.4493 O   0  0  0  0  0  0  0  0  0  0  0  0
    2.5925    1.8865    0.1998 O   0  5  0  0  0  0  0  0  0  0  0  0
    2.1061    4.0896    0.4449 O   0  0  0  0  0  0  0  0  0  0  0  0
   -4.5465    2.3065   -1.0895 O   0  0  0  0  0  0  0  0  0  0  0  0
   -0.3235   -1.3219   -0.2619 N   0  0  0  0  0  2  0  0  0  0  0  0
   -2.5760   -1.3677    0.5218 C   0  0  0  0  0  0  0  0  0  0  0  0
   -0.0390    1.2687    0.1438 N   0  0  0  0  0  2  0  0  0  0  0  0
   -1.4459   -0.6482    0.0526 C   0  0  1  0  0  3  0  0  0  0  0  0
   -3.7640    0.2363   -1.5418 O   0  0  0  0  0  0  0  0  0  0  0  0
    1.1422   -3.2986   -0.5047 C   0  0  0  0  0  0  0  0  0  0  0  0
   -3.7452   -0.6904    1.1573 C   0  0  0  0  0  0  0  0  0  0  0  0
    0.3118    2.5622    0.1001 C   0  0  1  0  0  3  0  0  0  0  0  0
   -1.2968    0.8437   -0.0990 C   0  0  0  0  0  0  0  0  0  0  0  0
   -0.2347   -2.6590   -0.2280 C   0  0  0  0  0  0  0  0  0  0  0  0
   -2.5208   -2.7797    0.4871 C   0  0  0  0  0  0  0  0  0  0  0  0
   -3.4010   -3.3448    0.8246 H   0  0  0  0  0  0  0  0  0  0  0  0
    1.7965    2.9124    0.2740 C   0  0  0  0  0  0  0  0  0  0  0  0
   -2.2812    1.7868   -0.4953 C   0  0  0  0  0  0  0  0  0  0  0  0
   -1.3620   -3.4402    0.0751 C   0  0  0  0  0  0  0  0  0  0  0  0
   -1.2700   -4.5340    0.0271 H   0  0  0  0  0  0  0  0  0  0  0  0
   -0.6472    3.5622   -0.1261 C   0  0  0  0  0  0  0  0  0  0  0  0
   -0.3339    4.6143   -0.0875 H   0  0  0  0  0  0  0  0  0  0  0  0
   -1.9413    3.1556   -0.4519 C   0  0  0  0  0  0  0  0  0  0  0  0
   -2.7265    3.8795   -0.7164 H   0  0  0  0  0  0  0  0  0  0  0  0
   -3.6470    1.4894   -1.0352 C   0  0  0  0  0  0  0  0  0  0  0  0
   -4.6822    0.1736   -1.8853 H   0  0  0  0  0  0  0  0  0  0  0  0
  1 14  1  0  0  0  0
  2  3  1  0  0  0  0
  6 21  1  0  0  0  0
  8 29  2  0  0  0  0
  9 18  1  0  0  0  0
  9 12  1  0  0  0  0
 10 15  1  0  0  0  0
 12 17  1  1  0  0  0
 12 10  1  0  0  0  0
 13 29  1  0  0  0  0
 14  5  2  0  0  0  0
 14 18  1  0  0  0  0
 15  2  1  0  0  0  0
 15  4  2  0  0  0  0
 16 11  1  0  0  0  0
 16 21  1  6  0  0  0
 17 11  1  0  0  0  0
 18 23  2  0  0  0  0
 19 10  2  0  0  0  0
 19 20  1  0  0  0  0
 21  7  2  0  0  0  0
 22 27  1  0  0  0  0
 22 17  2  0  0  0  0
 23 19  1  0  0  0  0
 24 23  1  0  0  0  0
 25 26  1  0  0  0  0
 25 16  1  0  0  0  0
 27 25  2  0  0  0  0
 28 27  1  0  0  0  0
 29 22  1  0  0  0  0
 30 13  1  0  0  0  0
M  CHG  2   1  -1   6  -1
M  END
