5,6,9,10
 OpenBabel05122313063D

 36 37  0  0  0  0  0  0  0  0999 V2000
   -2.0806   -3.0461    0.3900 Br  0  0  0  0  0  0  0  0  0  0  0  0
   -6.9846   -0.7624   -1.4615 Br  0  0  0  0  0  0  0  0  0  0  0  0
    2.8084   -2.4007    1.9023 Br  0  0  0  0  0  0  0  0  0  0  0  0
    6.6283   -0.7342   -2.0048 Br  0  0  0  0  0  0  0  0  0  0  0  0
   -1.7540    2.6371    0.5232 N   0  0  0  0  0  2  0  0  0  0  0  0
    1.3740    2.7157   -0.1418 N   0  0  0  0  0  2  0  0  0  0  0  0
   -1.6786    4.0195    0.6840 O   0  0  0  0  0  0  0  0  0  0  0  0
    0.9541    3.9385   -0.6967 O   0  0  0  0  0  0  0  0  0  0  0  0
   -1.4052   -0.1521    0.8511 O   0  5  0  0  0  0  0  0  0  0  0  0
    1.5899    0.2838    1.2128 O   0  5  0  0  0  0  0  0  0  0  0  0
   -0.4586    4.4106    1.3131 C   0  0  0  0  0  0  0  0  0  0  0  0
   -0.0975    3.5908    1.9690 H   0  0  0  0  0  0  0  0  0  0  0  0
   -0.7114    5.2701    1.9691 H   0  0  0  0  0  0  0  0  0  0  0  0
    0.5897    4.8794    0.3116 C   0  0  0  0  0  0  0  0  0  0  0  0
    0.2000    5.7375   -0.2712 H   0  0  0  0  0  0  0  0  0  0  0  0
    1.4905    5.2183    0.8779 H   0  0  0  0  0  0  0  0  0  0  0  0
   -2.9583    2.2606    0.1882 C   0  0  0  0  0  0  0  0  0  0  0  0
   -3.7035    3.0688    0.0566 H   0  0  0  0  0  0  0  0  0  0  0  0
   -3.4062    0.9025   -0.0138 C   0  0  0  0  0  0  0  0  0  0  0  0
   -2.5891   -0.2405    0.3242 C   0  0  0  0  0  0  0  0  0  0  0  0
   -3.1666   -1.5251    0.0427 C   0  0  0  0  0  0  0  0  0  0  0  0
   -4.4475   -1.6873   -0.4809 C   0  0  0  0  0  0  0  0  0  0  0  0
   -4.8415   -2.6937   -0.6763 H   0  0  0  0  0  0  0  0  0  0  0  0
   -5.2270   -0.5443   -0.7606 C   0  0  0  0  0  0  0  0  0  0  0  0
   -4.7170    0.7301   -0.5338 C   0  0  0  0  0  3  0  0  0  0  0  0
   -5.3255    1.6164   -0.7657 H   0  0  0  0  0  0  0  0  0  0  0  0
    2.4895    2.3083   -0.6931 C   0  0  0  0  0  0  0  0  0  0  0  0
    2.9586    3.0030   -1.4173 H   0  0  0  0  0  0  0  0  0  0  0  0
    3.1468    1.0463   -0.4590 C   0  0  0  0  0  0  0  0  0  0  0  0
    2.6546    0.0907    0.5168 C   0  0  0  0  0  0  0  0  0  0  0  0
    3.4366   -1.1123    0.6611 C   0  0  0  0  0  0  0  0  0  0  0  0
    4.5962   -1.3512   -0.0696 C   0  0  0  0  0  0  0  0  0  0  0  0
    5.1572   -2.2841    0.0784 H   0  0  0  0  0  0  0  0  0  0  0  0
    5.0427   -0.3908   -1.0086 C   0  0  0  0  0  0  0  0  0  0  0  0
    4.3337    0.7873   -1.2027 C   0  0  0  0  0  3  0  0  0  0  0  0
    4.6872    1.5325   -1.9305 H   0  0  0  0  0  0  0  0  0  0  0  0
  2 24  1  0  0  0  0
  4 34  1  0  0  0  0
  5  7  1  0  0  0  0
  7 11  1  0  0  0  0
  8  6  1  0  0  0  0
  8 14  1  0  0  0  0
 11 12  1  0  0  0  0
 11 13  1  0  0  0  0
 14 16  1  0  0  0  0
 14 11  1  0  0  0  0
 15 14  1  0  0  0  0
 17  5  1  0  0  0  0
 18 17  1  0  0  0  0
 19 17  2  0  0  0  0
 19 20  1  0  0  0  0
 20  9  1  0  0  0  0
 21 20  2  0  0  0  0
 21  1  1  0  0  0  0
 22 21  1  0  0  0  0
 23 22  1  0  0  0  0
 24 25  1  0  0  0  0
 24 22  2  0  0  0  0
 25 19  1  0  0  0  0
 26 25  1  0  0  0  0
 27 29  2  0  0  0  0
 27  6  1  0  0  0  0
 28 27  1  0  0  0  0
 29 30  1  0  0  0  0
 30 31  2  0  0  0  0
 30 10  1  0  0  0  0
 31  3  1  0  0  0  0
 32 33  1  0  0  0  0
 32 31  1  0  0  0  0
 34 32  2  0  0  0  0
 35 34  1  0  0  0  0
 35 29  1  0  0  0  0
 36 35  1  0  0  0  0
M  CHG  2   9  -1  10  -1
M  END
