1,2,3,4
 OpenBabel05122313063D

 50 51  0  0  1  0  0  0  0  0999 V2000
    1.9679   -0.2386    0.6654 O   0  0  0  0  0  1  0  0  0  0  0  0
   -1.9447   -0.1594   -0.6473 O   0  0  0  0  0  1  0  0  0  0  0  0
   -0.8751    1.3955    1.1577 N   0  0  0  0  0  0  0  0  0  0  0  0
    0.9630    1.3894   -1.1194 N   0  0  0  0  0  0  0  0  0  0  0  0
   -0.1829    1.6201    2.4587 C   0  0  0  0  0  0  0  0  0  0  0  0
    0.8939    1.4184    2.3003 H   0  0  0  0  0  0  0  0  0  0  0  0
   -0.5446    0.8899    3.2055 H   0  0  0  0  0  0  0  0  0  0  0  0
   -0.4356    3.0950    2.8207 C   0  0  0  0  0  0  0  0  0  0  0  0
   -1.3311    3.1950    3.4658 H   0  0  0  0  0  0  0  0  0  0  0  0
    0.4165    3.5229    3.3829 H   0  0  0  0  0  0  0  0  0  0  0  0
   -0.6631    3.7943    1.4549 C   0  0  0  0  0  0  0  0  0  0  0  0
    0.1069    4.5617    1.2441 H   0  0  0  0  0  0  0  0  0  0  0  0
   -1.6391    4.3162    1.4283 H   0  0  0  0  0  0  0  0  0  0  0  0
   -0.6145    2.6568    0.3938 C   0  0  1  0  0  0  0  0  0  0  0  0
   -1.4127    2.7689   -0.3568 H   0  0  0  0  0  0  0  0  0  0  0  0
    0.7390    2.6443   -0.3351 C   0  0  2  0  0  0  0  0  0  0  0  0
    1.5397    2.7218    0.4169 H   0  0  0  0  0  0  0  0  0  0  0  0
    0.8204    3.7986   -1.3761 C   0  0  0  0  0  0  0  0  0  0  0  0
    0.0679    4.5807   -1.1556 H   0  0  0  0  0  0  0  0  0  0  0  0
    1.8085    4.2961   -1.3358 H   0  0  0  0  0  0  0  0  0  0  0  0
    0.5832    3.1290   -2.7548 C   0  0  0  0  0  0  0  0  0  0  0  0
    1.4864    3.2129   -3.3912 H   0  0  0  0  0  0  0  0  0  0  0  0
   -0.2513    3.5912   -3.3163 H   0  0  0  0  0  0  0  0  0  0  0  0
    0.2850    1.6565   -2.4199 C   0  0  0  0  0  0  0  0  0  0  0  0
   -0.7980    1.4817   -2.2724 H   0  0  0  0  0  0  0  0  0  0  0  0
    0.6315    0.9285   -3.1761 H   0  0  0  0  0  0  0  0  0  0  0  0
   -2.3331    1.1903    1.3355 C   0  0  0  0  0  0  0  0  0  0  0  0
   -2.8742    2.1436    1.5088 H   0  0  0  0  0  0  0  0  0  0  0  0
   -2.4628    0.5681    2.2385 H   0  0  0  0  0  0  0  0  0  0  0  0
   -2.9293    0.4094    0.1016 C   0  0  0  0  0  0  0  0  0  0  0  0
   -3.8756   -0.7176    0.6561 C   0  0  0  0  0  0  0  0  0  0  0  0
   -4.9854   -0.1951    1.2371 F   0  0  0  0  0  0  0  0  0  0  0  0
   -4.2616   -1.5654   -0.3099 F   0  0  0  0  0  0  0  0  0  0  0  0
   -3.2399   -1.4502    1.6001 F   0  0  0  0  0  0  0  0  0  0  0  0
   -3.8004    1.3482   -0.8057 C   0  0  0  0  0  0  0  0  0  0  0  0
   -3.0090    2.1837   -1.5403 F   0  0  0  0  0  0  0  0  0  0  0  0
   -4.5425    0.6566   -1.6860 F   0  0  0  0  0  0  0  0  0  0  0  0
   -4.6312    2.1381   -0.0854 F   0  0  0  0  0  0  0  0  0  0  0  0
    2.4127    1.1331   -1.2932 C   0  0  0  0  0  0  0  0  0  0  0  0
    2.9900    2.0676   -1.4519 H   0  0  0  0  0  0  0  0  0  0  0  0
    2.5228    0.5187   -2.2045 H   0  0  0  0  0  0  0  0  0  0  0  0
    2.9754    0.3117   -0.0686 C   0  0  0  0  0  0  0  0  0  0  0  0
    3.8752    1.2078    0.8534 C   0  0  0  0  0  0  0  0  0  0  0  0
    3.1114    2.0708    1.5869 F   0  0  0  0  0  0  0  0  0  0  0  0
    4.5835    0.4861    1.7360 F   0  0  0  0  0  0  0  0  0  0  0  0
    4.7418    1.9681    0.1431 F   0  0  0  0  0  0  0  0  0  0  0  0
    3.8830   -0.8334   -0.6473 C   0  0  0  0  0  0  0  0  0  0  0  0
    3.1928   -1.5697   -1.5471 F   0  0  0  0  0  0  0  0  0  0  0  0
    4.9683   -0.3278   -1.2883 F   0  0  0  0  0  0  0  0  0  0  0  0
    4.3113   -1.6731    0.3083 F   0  0  0  0  0  0  0  0  0  0  0  0
  2 30  1  0  0  0  0
  3 27  1  0  0  0  0
  3  5  1  0  0  0  0
  4 16  1  0  0  0  0
  5  8  1  0  0  0  0
  5  7  1  0  0  0  0
  6  5  1  0  0  0  0
  8 10  1  0  0  0  0
  8  9  1  0  0  0  0
 11  8  1  0  0  0  0
 12 11  1  0  0  0  0
 13 11  1  0  0  0  0
 14 15  1  6  0  0  0
 14  3  1  0  0  0  0
 14 11  1  0  0  0  0
 16 14  1  0  0  0  0
 16 17  1  1  0  0  0
 18 20  1  0  0  0  0
 18 19  1  0  0  0  0
 18 16  1  0  0  0  0
 21 24  1  0  0  0  0
 21 18  1  0  0  0  0
 22 21  1  0  0  0  0
 23 21  1  0  0  0  0
 24 25  1  0  0  0  0
 24  4  1  0  0  0  0
 26 24  1  0  0  0  0
 27 28  1  0  0  0  0
 27 29  1  0  0  0  0
 30 31  1  0  0  0  0
 30 27  1  0  0  0  0
 31 32  1  0  0  0  0
 31 34  1  0  0  0  0
 33 31  1  0  0  0  0
 35 38  1  0  0  0  0
 35 30  1  0  0  0  0
 36 35  1  0  0  0  0
 37 35  1  0  0  0  0
 39  4  1  0  0  0  0
 39 42  1  0  0  0  0
 40 39  1  0  0  0  0
 41 39  1  0  0  0  0
 42  1  1  0  0  0  0
 42 43  1  0  0  0  0
 43 44  1  0  0  0  0
 43 45  1  0  0  0  0
 46 43  1  0  0  0  0
 47 42  1  0  0  0  0
 47 50  1  0  0  0  0
 48 47  1  0  0  0  0
 49 47  1  0  0  0  0
M  END
