1,2,3,4
 OpenBabel05122313063D

 48 50  0  0  1  0  0  0  0  0999 V2000
   -1.6383    0.2977   -0.2075 O   0  0  0  0  0  1  0  0  0  0  0  0
    0.1527    1.9508   -0.0775 O   0  5  0  0  0  0  0  0  0  0  0  0
    0.0650   -1.7079   -0.8378 N   0  0  0  0  0  2  0  0  0  0  0  0
    2.0848   -0.0005    0.0007 N   0  0  0  0  0  2  0  0  0  0  0  0
   -5.0595   -0.9319    0.1584 C   0  0  0  0  0  0  0  0  0  0  0  0
   -4.9758   -1.9941   -0.1124 H   0  0  0  0  0  0  0  0  0  0  0  0
   -6.3214   -0.3989    0.4517 C   0  0  0  0  0  0  0  0  0  0  0  0
   -7.2086   -1.0495    0.4196 H   0  0  0  0  0  0  0  0  0  0  0  0
   -6.4569    0.9606    0.7786 C   0  0  0  0  0  0  0  0  0  0  0  0
   -7.4497    1.3768    1.0084 H   0  0  0  0  0  0  0  0  0  0  0  0
   -5.3200    1.7852    0.8064 C   0  0  0  0  0  0  0  0  0  0  0  0
   -5.4193    2.8519    1.0597 H   0  0  0  0  0  0  0  0  0  0  0  0
   -4.0578    1.2551    0.5140 C   0  0  0  0  0  0  0  0  0  0  0  0
   -3.1527    1.8794    0.5263 H   0  0  0  0  0  0  0  0  0  0  0  0
   -3.9094   -0.1129    0.1906 C   0  0  0  0  0  0  0  0  0  0  0  0
   -2.5358   -0.6213   -0.1041 C   0  0  1  0  0  3  0  0  0  0  0  0
   -2.2665   -1.9902   -0.2607 C   0  0  0  0  0  0  0  0  0  0  0  0
   -3.0754   -2.7155   -0.1221 H   0  0  0  0  0  0  0  0  0  0  0  0
   -1.0106   -2.4867   -0.6871 C   0  0  0  0  0  0  0  0  0  0  0  0
   -0.9365   -3.9676   -1.0058 C   0  0  0  0  0  0  0  0  0  0  0  0
   -0.7910   -4.1469   -2.0916 H   0  0  0  0  0  0  0  0  0  0  0  0
   -1.8756   -4.4681   -0.7102 H   0  0  0  0  0  0  0  0  0  0  0  0
   -0.0987   -4.4583   -0.4707 H   0  0  0  0  0  0  0  0  0  0  0  0
    1.2983   -2.2554   -1.4140 C   0  0  0  0  0  0  0  0  0  0  0  0
    1.6630   -1.5449   -2.1869 H   0  0  0  0  0  0  0  0  0  0  0  0
    1.1289   -3.2225   -1.9221 H   0  0  0  0  0  0  0  0  0  0  0  0
    2.3237   -2.4071   -0.3259 C   0  0  0  0  0  0  0  0  0  0  0  0
    2.9054   -3.6316    0.0299 C   0  0  0  0  0  0  0  0  0  0  0  0
    2.6389   -4.5363   -0.5395 H   0  0  0  0  0  0  0  0  0  0  0  0
    3.8234   -3.7116    1.0902 C   0  0  0  0  0  0  0  0  0  0  0  0
    4.2737   -4.6786    1.3590 H   0  0  0  0  0  0  0  0  0  0  0  0
    4.1470   -2.5537    1.8134 C   0  0  0  0  0  0  0  0  0  0  0  0
    4.8455   -2.6080    2.6620 H   0  0  0  0  0  0  0  0  0  0  0  0
    3.5687   -1.3226    1.4725 C   0  0  0  0  0  0  0  0  0  0  0  0
    3.7924   -0.4224    2.0636 H   0  0  0  0  0  0  0  0  0  0  0  0
    2.6668   -1.2369    0.3911 C   0  0  0  0  0  0  0  0  0  0  0  0
    2.8900    1.0570   -0.0031 C   0  0  0  0  0  0  0  0  0  0  0  0
    3.9698    0.8520    0.1298 H   0  0  0  0  0  0  0  0  0  0  0  0
    2.5186    2.4191   -0.1428 C   0  0  0  0  0  0  0  0  0  0  0  0
    1.1231    2.8019   -0.1352 C   0  0  0  0  0  0  0  0  0  0  0  0
    0.8241    4.2035   -0.1799 C   0  0  0  0  0  0  0  0  0  0  0  0
   -0.2373    4.4898   -0.1643 H   0  0  0  0  0  0  0  0  0  0  0  0
    1.8360    5.1490   -0.2565 C   0  0  0  0  0  0  0  0  0  0  0  0
    1.5712    6.2174   -0.3016 H   0  0  0  0  0  0  0  0  0  0  0  0
    3.2062    4.7685   -0.2757 C   0  0  0  0  0  0  0  0  0  0  0  0
    3.9935    5.5336   -0.3323 H   0  0  0  0  0  0  0  0  0  0  0  0
    3.5313    3.4231   -0.2126 C   0  0  0  0  0  3  0  0  0  0  0  0
    4.5859    3.1031   -0.2124 H   0  0  0  0  0  0  0  0  0  0  0  0
  3 19  1  0  0  0  0
  4 36  1  0  0  0  0
  5 15  2  0  0  0  0
  5  7  1  0  0  0  0
  6  5  1  0  0  0  0
  7  9  2  0  0  0  0
  8  7  1  0  0  0  0
  9 11  1  0  0  0  0
  9 10  1  0  0  0  0
 11 12  1  0  0  0  0
 13 14  1  0  0  0  0
 13 11  2  0  0  0  0
 15 13  1  0  0  0  0
 16  1  1  6  0  0  0
 16 15  1  0  0  0  0
 17 18  1  0  0  0  0
 17 16  1  0  0  0  0
 19 17  2  0  0  0  0
 20 22  1  0  0  0  0
 20 19  1  0  0  0  0
 20 23  1  0  0  0  0
 21 20  1  0  0  0  0
 24  3  1  0  0  0  0
 24 27  1  0  0  0  0
 25 24  1  0  0  0  0
 26 24  1  0  0  0  0
 27 28  2  0  0  0  0
 27 36  1  0  0  0  0
 28 30  1  0  0  0  0
 29 28  1  0  0  0  0
 30 31  1  0  0  0  0
 30 32  2  0  0  0  0
 32 33  1  0  0  0  0
 34 32  1  0  0  0  0
 34 35  1  0  0  0  0
 36 34  2  0  0  0  0
 37  4  1  0  0  0  0
 37 38  1  0  0  0  0
 39 40  1  0  0  0  0
 39 37  2  0  0  0  0
 40  2  1  0  0  0  0
 41 42  1  0  0  0  0
 41 40  2  0  0  0  0
 43 41  1  0  0  0  0
 44 43  1  0  0  0  0
 45 43  2  0  0  0  0
 45 47  1  0  0  0  0
 46 45  1  0  0  0  0
 47 48  1  0  0  0  0
 47 39  1  0  0  0  0
M  CHG  1   2  -1
M  END
