1,2,3,4
 OpenBabel05122313063D

 62 64  0  0  1  0  0  0  0  0999 V2000
   -0.6271    1.5202   -0.4607 N   0  0  0  0  0  2  0  0  0  0  0  0
    1.8124    0.8749   -0.0238 N   0  0  0  0  0  2  0  0  0  0  0  0
   -1.4930   -0.3098    1.3840 O   0  5  0  0  0  0  0  0  0  0  0  0
    0.0602   -1.0583   -0.6122 O   0  5  0  0  0  0  0  0  0  0  0  0
   -2.5558   -0.3711    0.6410 C   0  0  0  0  0  0  0  0  0  0  0  0
   -3.6212   -1.2165    1.1254 C   0  0  0  0  0  0  0  0  0  0  0  0
   -4.7803   -1.3643    0.3745 C   0  0  0  0  0  0  0  0  0  0  0  0
   -5.5691   -2.0374    0.7520 H   0  0  0  0  0  0  0  0  0  0  0  0
   -4.9803   -0.6959   -0.8641 C   0  0  0  0  0  0  0  0  0  0  0  0
   -3.9667    0.1435   -1.3143 C   0  0  0  0  0  0  0  0  0  0  0  0
   -4.1279    0.6699   -2.2655 H   0  0  0  0  0  0  0  0  0  0  0  0
   -2.7472    0.3440   -0.6000 C   0  0  0  0  0  0  0  0  0  0  0  0
   -3.3944   -1.9361    2.4244 C   0  0  0  0  0  0  0  0  0  0  0  0
   -4.2468   -2.5949    2.6788 H   0  0  0  0  0  0  0  0  0  0  0  0
   -3.2380   -1.2168    3.2559 H   0  0  0  0  0  0  0  0  0  0  0  0
   -2.4648   -2.5415    2.3795 H   0  0  0  0  0  0  0  0  0  0  0  0
   -6.2529   -0.9027   -1.6462 C   0  0  0  0  0  0  0  0  0  0  0  0
   -6.2625   -0.3000   -2.5757 H   0  0  0  0  0  0  0  0  0  0  0  0
   -7.1493   -0.6208   -1.0533 H   0  0  0  0  0  0  0  0  0  0  0  0
   -6.3870   -1.9671   -1.9359 H   0  0  0  0  0  0  0  0  0  0  0  0
   -1.7846    1.3306   -1.0665 C   0  0  1  0  0  3  0  0  0  0  0  0
   -2.1523    2.1513   -2.2848 C   0  0  0  0  0  0  0  0  0  0  0  0
   -1.3157    2.7646   -2.6569 H   0  0  0  0  0  0  0  0  0  0  0  0
   -3.0140    2.8184   -2.0812 H   0  0  0  0  0  0  0  0  0  0  0  0
   -2.4565    1.4723   -3.1047 H   0  0  0  0  0  0  0  0  0  0  0  0
    0.3194    2.5794   -0.8285 C   0  0  1  0  0  0  0  0  0  0  0  0
    0.5505    2.5049   -1.9187 H   0  0  0  0  0  0  0  0  0  0  0  0
   -0.1675    4.0023   -0.5076 C   0  0  0  0  0  0  0  0  0  0  0  0
   -1.1297    4.2132   -1.0130 H   0  0  0  0  0  0  0  0  0  0  0  0
   -0.3644    4.0559    0.5845 H   0  0  0  0  0  0  0  0  0  0  0  0
    0.8917    5.0318   -0.9228 C   0  0  0  0  0  0  0  0  0  0  0  0
    0.9923    5.0200   -2.0316 H   0  0  0  0  0  0  0  0  0  0  0  0
    0.5543    6.0540   -0.6536 H   0  0  0  0  0  0  0  0  0  0  0  0
    2.2571    4.7382   -0.2901 C   0  0  0  0  0  0  0  0  0  0  0  0
    2.1894    4.8898    0.8098 H   0  0  0  0  0  0  0  0  0  0  0  0
    3.0168    5.4576   -0.6592 H   0  0  0  0  0  0  0  0  0  0  0  0
    2.7279    3.2990   -0.5612 C   0  0  0  0  0  0  0  0  0  0  0  0
    2.9157    3.1683   -1.6474 H   0  0  0  0  0  0  0  0  0  0  0  0
    3.6851    3.1197   -0.0357 H   0  0  0  0  0  0  0  0  0  0  0  0
    1.6477    2.3280   -0.0628 C   0  0  2  0  0  0  0  0  0  0  0  0
    1.4444    2.5990    0.9958 H   0  0  0  0  0  0  0  0  0  0  0  0
    2.7210    0.0879   -0.5495 C   0  0  2  0  0  3  0  0  0  0  0  0
    4.0028    0.6200   -1.1575 C   0  0  0  0  0  0  0  0  0  0  0  0
    4.5747    1.2390   -0.4421 H   0  0  0  0  0  0  0  0  0  0  0  0
    3.7822    1.2469   -2.0423 H   0  0  0  0  0  0  0  0  0  0  0  0
    4.6460   -0.2059   -1.5008 H   0  0  0  0  0  0  0  0  0  0  0  0
    2.4716   -1.3519   -0.6210 C   0  0  0  0  0  0  0  0  0  0  0  0
    3.5335   -2.2900   -0.7390 C   0  0  0  0  0  0  0  0  0  0  0  0
    4.5720   -1.9452   -0.6179 H   0  0  0  0  0  0  0  0  0  0  0  0
    3.3116   -3.6485   -0.9592 C   0  0  0  0  0  0  0  0  0  0  0  0
    1.9669   -4.0823   -1.1003 C   0  0  0  0  0  0  0  0  0  0  0  0
    1.7684   -5.1522   -1.2836 H   0  0  0  0  0  0  0  0  0  0  0  0
    0.8809   -3.2181   -0.9882 C   0  0  0  0  0  0  0  0  0  0  0  0
    1.1143   -1.8265   -0.7134 C   0  0  0  0  0  0  0  0  0  0  0  0
    4.4460   -4.6390   -1.0364 C   0  0  0  0  0  0  0  0  0  0  0  0
    5.4310   -4.1374   -0.9641 H   0  0  0  0  0  0  0  0  0  0  0  0
    4.4266   -5.2093   -1.9893 H   0  0  0  0  0  0  0  0  0  0  0  0
    4.3911   -5.3877   -0.2172 H   0  0  0  0  0  0  0  0  0  0  0  0
   -0.5463   -3.6740   -1.1000 C   0  0  0  0  0  0  0  0  0  0  0  0
   -0.6131   -4.7667   -1.2635 H   0  0  0  0  0  0  0  0  0  0  0  0
   -1.0709   -3.1550   -1.9292 H   0  0  0  0  0  0  0  0  0  0  0  0
   -1.1112   -3.4055   -0.1826 H   0  0  0  0  0  0  0  0  0  0  0  0
  5  6  1  0  0  0  0
  5  3  1  0  0  0  0
  6 13  1  0  0  0  0
  7  8  1  0  0  0  0
  7  6  2  0  0  0  0
  9  7  1  0  0  0  0
 10  9  2  0  0  0  0
 10 12  1  0  0  0  0
 11 10  1  0  0  0  0
 12  5  2  0  0  0  0
 13 14  1  0  0  0  0
 13 15  1  0  0  0  0
 16 13  1  0  0  0  0
 17 19  1  0  0  0  0
 17  9  1  0  0  0  0
 18 17  1  0  0  0  0
 20 17  1  0  0  0  0
 21 12  1  0  0  0  0
 21  1  1  1  0  0  0
 22 24  1  0  0  0  0
 22 21  1  0  0  0  0
 23 22  1  0  0  0  0
 25 22  1  0  0  0  0
 26 27  1  6  0  0  0
 26 28  1  0  0  0  0
 26  1  1  0  0  0  0
 26 40  1  0  0  0  0
 28 30  1  0  0  0  0
 29 28  1  0  0  0  0
 31 33  1  0  0  0  0
 31 28  1  0  0  0  0
 31 34  1  0  0  0  0
 32 31  1  0  0  0  0
 34 35  1  0  0  0  0
 36 34  1  0  0  0  0
 37 34  1  0  0  0  0
 37 40  1  0  0  0  0
 37 39  1  0  0  0  0
 38 37  1  0  0  0  0
 40  2  1  0  0  0  0
 40 41  1  1  0  0  0
 42  2  1  6  0  0  0
 43 42  1  0  0  0  0
 43 44  1  0  0  0  0
 45 43  1  0  0  0  0
 46 43  1  0  0  0  0
 47 42  1  0  0  0  0
 48 47  2  0  0  0  0
 48 49  1  0  0  0  0
 50 48  1  0  0  0  0
 51 53  1  0  0  0  0
 51 50  2  0  0  0  0
 52 51  1  0  0  0  0
 53 54  2  0  0  0  0
 54 47  1  0  0  0  0
 54  4  1  0  0  0  0
 55 56  1  0  0  0  0
 55 50  1  0  0  0  0
 55 58  1  0  0  0  0
 57 55  1  0  0  0  0
 59 53  1  0  0  0  0
 59 62  1  0  0  0  0
 60 59  1  0  0  0  0
 61 59  1  0  0  0  0
M  CHG  2   3  -1   4  -1
M  END
