61,64,65,71
q = -2.0, confidence = 0.86

 72 74  0  0  1  0  0  0  0  0999 V2000
   -1.6372   -2.1893   -1.8451 C   0  0  0  0  0  0  0  0  0  0  0  0
   -2.7218   -1.1310   -1.6273 C   0  0  1  0  0  3  0  0  0  0  0  0
   -4.0846   -1.4480   -1.7339 C   0  0  0  0  0  0  0  0  0  0  0  0
   -4.3561   -2.4808   -1.9925 H   0  0  0  0  0  0  0  0  0  0  0  0
   -5.0206   -0.4354   -1.5007 C   0  0  0  0  0  0  0  0  0  0  0  0
   -6.0995   -0.6374   -1.5858 H   0  0  0  0  0  0  0  0  0  0  0  0
   -4.5674    0.8432   -1.1378 C   0  0  0  0  0  0  0  0  0  0  0  0
   -5.2751    1.6586   -0.9273 H   0  0  0  0  0  0  0  0  0  0  0  0
   -3.1879    1.0826   -1.0292 C   0  0  0  0  0  0  0  0  0  0  0  0
   -2.6120    2.4107   -0.5991 C   0  0  0  0  0  0  0  0  0  0  0  0
   -1.8924    2.7355   -1.3795 H   0  0  0  0  0  0  0  0  0  0  0  0
   -3.4356    3.1699   -0.5413 H   0  0  0  0  0  0  0  0  0  0  0  0
   -2.7087    1.9706    1.8043 C   0  0  0  0  0  0  0  0  0  0  0  0
   -3.7560    1.8165    1.4667 H   0  0  0  0  0  0  0  0  0  0  0  0
   -2.7487    2.8231    2.5243 H   0  0  0  0  0  0  0  0  0  0  0  0
   -2.3004    0.7177    2.5753 C   0  0  0  0  0  0  0  0  0  0  0  0
   -1.2156    0.7629    2.8305 H   0  0  0  0  0  0  0  0  0  0  0  0
   -2.8816    0.7047    3.5329 H   0  0  0  0  0  0  0  0  0  0  0  0
   -2.4530   -1.6431    2.5421 C   0  0  0  0  0  0  0  0  0  0  0  0
   -3.4546   -1.9534    2.9315 H   0  0  0  0  0  0  0  0  0  0  0  0
   -1.7824   -1.5119    3.4234 H   0  0  0  0  0  0  0  0  0  0  0  0
   -1.8747   -2.7749    1.7099 C   0  0  0  0  0  0  0  0  0  0  0  0
   -2.1765   -3.7475    2.1783 H   0  0  0  0  0  0  0  0  0  0  0  0
   -2.3067   -2.7709    0.6830 H   0  0  0  0  0  0  0  0  0  0  0  0
    0.1946   -3.5965    0.8633 C   0  0  0  0  0  0  0  0  0  0  0  0
   -0.1164   -3.5005   -0.2023 H   0  0  0  0  0  0  0  0  0  0  0  0
   -0.0493   -4.6451    1.1731 H   0  0  0  0  0  0  0  0  0  0  0  0
    1.6908   -3.3971    1.0530 C   0  0  0  0  0  0  0  0  0  0  0  0
    1.8816   -3.4335    2.1447 H   0  0  0  0  0  0  0  0  0  0  0  0
    2.2388   -4.2609    0.5995 H   0  0  0  0  0  0  0  0  0  0  0  0
    3.4628   -1.7570    1.2641 C   0  0  0  0  0  0  0  0  0  0  0  0
    4.0388   -1.0358    0.6510 H   0  0  0  0  0  0  0  0  0  0  0  0
    4.1247   -2.6441    1.4266 H   0  0  0  0  0  0  0  0  0  0  0  0
    3.1787   -1.0745    2.5940 C   0  0  0  0  0  0  0  0  0  0  0  0
    2.3901   -1.6270    3.1609 H   0  0  0  0  0  0  0  0  0  0  0  0
    4.1013   -1.0784    3.2262 H   0  0  0  0  0  0  0  0  0  0  0  0
    2.2117    0.9022    3.4574 C   0  0  0  0  0  0  0  0  0  0  0  0
    2.9571    0.9763    4.2894 H   0  0  0  0  0  0  0  0  0  0  0  0
    1.3316    0.3342    3.8501 H   0  0  0  0  0  0  0  0  0  0  0  0
    1.7828    2.3048    3.0748 C   0  0  0  0  0  0  0  0  0  0  0  0
    1.4008    2.8098    3.9933 H   0  0  0  0  0  0  0  0  0  0  0  0
    2.6584    2.8886    2.7034 H   0  0  0  0  0  0  0  0  0  0  0  0
   -0.0611    3.4041    2.0437 C   0  0  0  0  0  0  0  0  0  0  0  0
    0.5657    4.3258    2.0060 H   0  0  0  0  0  0  0  0  0  0  0  0
   -0.6516    3.4538    2.9916 H   0  0  0  0  0  0  0  0  0  0  0  0
   -0.9663    3.4327    0.8221 C   0  0  0  0  0  0  0  0  0  0  0  0
   -1.5297    4.4048    0.9052 H   0  0  0  0  0  0  0  0  0  0  0  0
   -0.3434    3.5003   -0.0935 H   0  0  0  0  0  0  0  0  0  0  0  0
    2.4445   -2.2099   -0.9217 C   0  0  0  0  0  0  0  0  0  0  0  0
    1.4717   -2.4774   -1.3871 H   0  0  0  0  0  0  0  0  0  0  0  0
    3.1895   -3.0088   -1.1618 H   0  0  0  0  0  0  0  0  0  0  0  0
    2.9050   -0.9078   -1.5369 C   0  0  2  0  0  3  0  0  0  0  0  0
    4.2271   -0.7269   -1.9839 C   0  0  0  0  0  0  0  0  0  0  0  0
    4.9399   -1.5622   -1.9162 H   0  0  0  0  0  0  0  0  0  0  0  0
    4.6204    0.5179   -2.5010 C   0  0  0  0  0  0  0  0  0  0  0  0
    5.6517    0.6712   -2.8544 H   0  0  0  0  0  0  0  0  0  0  0  0
    3.6871    1.5578   -2.5443 C   0  0  0  0  0  0  0  0  0  0  0  0
    3.9173    2.5702   -2.9042 H   0  0  0  0  0  0  0  0  0  0  0  0
    2.3779    1.2976   -2.1078 C   0  0  0  0  0  0  0  0  0  0  0  0
    1.3164    2.4040   -2.1277 C   0  0  0  0  0  0  0  0  0  0  0  0
   -2.3019    0.1028   -1.2971 N   0  0  0  0  0  2  0  0  0  0  0  0
   -1.8660    2.2964    0.6518 N   0  0  0  0  0  0  0  0  0  0  0  0
    2.2362   -2.1243    0.5405 N   0  0  0  0  0  0  0  0  0  0  0  0
    2.0050    0.0940   -1.6340 N   0  0  0  0  0  2  0  0  0  0  0  0
   -0.4295   -1.7240   -1.8782 O   0  5  0  0  0  0  0  0  0  0  0  0
   -1.9810   -3.3749   -1.9216 O   0  0  0  0  0  0  0  0  0  0  0  0
   -2.5722   -0.4374    1.8093 O   0  0  0  0  0  0  0  0  0  0  0  0
   -0.4660   -2.6603    1.6891 O   0  0  0  0  0  0  0  0  0  0  0  0
    2.7600    0.2530    2.3334 O   0  0  0  0  0  0  0  0  0  0  0  0
    0.7725    2.2507    2.0809 O   0  0  0  0  0  0  0  0  0  0  0  0
    0.1103    2.0021   -1.8682 O   0  5  0  0  0  0  0  0  0  0  0  0
    1.6785    3.5590   -2.3622 O   0  0  0  0  0  0  0  0  0  0  0  0
  2  1  1  1  0  0  0
  2 61  1  0  0  0  0
  3  2  1  0  0  0  0
  3  5  2  0  0  0  0
  4  3  1  0  0  0  0
  5  7  1  0  0  0  0
  6  5  1  0  0  0  0
  7  9  2  0  0  0  0
  7  8  1  0  0  0  0
  9 10  1  0  0  0  0
 10 12  1  0  0  0  0
 10 62  1  0  0  0  0
 11 10  1  0  0  0  0
 13 15  1  0  0  0  0
 13 16  1  0  0  0  0
 14 13  1  0  0  0  0
 16 17  1  0  0  0  0
 16 18  1  0  0  0  0
 19 20  1  0  0  0  0
 19 21  1  0  0  0  0
 22 23  1  0  0  0  0
 22 19  1  0  0  0  0
 24 22  1  0  0  0  0
 25 28  1  0  0  0  0
 25 27  1  0  0  0  0
 25 68  1  0  0  0  0
 26 25  1  0  0  0  0
 28 29  1  0  0  0  0
 30 28  1  0  0  0  0
 31 33  1  0  0  0  0
 31 34  1  0  0  0  0
 32 31  1  0  0  0  0
 34 35  1  0  0  0  0
 34 36  1  0  0  0  0
 37 39  1  0  0  0  0
 37 38  1  0  0  0  0
 40 37  1  0  0  0  0
 40 41  1  0  0  0  0
 42 40  1  0  0  0  0
 43 70  1  0  0  0  0
 43 45  1  0  0  0  0
 44 43  1  0  0  0  0
 46 47  1  0  0  0  0
 46 43  1  0  0  0  0
 48 46  1  0  0  0  0
 49 63  1  0  0  0  0
 50 49  1  0  0  0  0
 51 49  1  0  0  0  0
 52 49  1  1  0  0  0
 53 54  1  0  0  0  0
 53 52  1  0  0  0  0
 55 53  2  0  0  0  0
 56 55  1  0  0  0  0
 57 55  1  0  0  0  0
 57 59  2  0  0  0  0
 58 57  1  0  0  0  0
 59 64  1  0  0  0  0
 60 59  1  0  0  0  0
 60 71  1  0  0  0  0
 61  9  1  0  0  0  0
 62 46  1  0  0  0  0
 62 13  1  0  0  0  0
 63 28  1  0  0  0  0
 63 31  1  0  0  0  0
 64 52  1  0  0  0  0
 65  1  1  0  0  0  0
 66  1  2  0  0  0  0
 67 19  1  0  0  0  0
 67 16  1  0  0  0  0
 68 22  1  0  0  0  0
 69 34  1  0  0  0  0
 69 37  1  0  0  0  0
 70 40  1  0  0  0  0
 72 60  2  0  0  0  0
M  CHG  2  65  -1  71  -1
M  END
