1,2,3,5
 OpenBabel05122313063D

 48 50  0  0  1  0  0  0  0  0999 V2000
   -1.8152   -0.8613   -0.7457 O   0  5  0  0  0  0  0  0  0  0  0  0
    1.7415   -0.5182    0.6335 O   0  5  0  0  0  0  0  0  0  0  0  0
   -0.7929    0.6307    1.3050 N   0  0  0  0  0  0  0  0  0  0  0  0
   -0.0424    0.6047    2.0101 H   0  0  0  0  0  0  0  0  0  0  0  0
    0.4085    0.9748   -1.1905 N   0  0  0  0  0  0  0  0  0  0  0  0
   -0.3866    1.0005   -1.8461 H   0  0  0  0  0  0  0  0  0  0  0  0
   -7.0547    1.3986    0.7703 Cl  0  0  0  0  0  0  0  0  0  0  0  0
   -3.7906   -0.9299   -2.9141 Cl  0  0  0  0  0  0  0  0  0  0  0  0
    6.7286    2.0271   -1.2684 Cl  0  0  0  0  0  0  0  0  0  0  0  0
    4.0137   -0.8794    2.4426 Cl  0  0  0  0  0  0  0  0  0  0  0  0
   -0.8457    1.9659    0.6782 C   0  0  2  0  0  0  0  0  0  0  0  0
   -1.7751    1.9814    0.0658 H   0  0  0  0  0  0  0  0  0  0  0  0
    0.3430    2.1361   -0.2771 C   0  0  2  0  0  0  0  0  0  0  0  0
    1.2766    2.1039    0.3264 H   0  0  0  0  0  0  0  0  0  0  0  0
    0.2786    3.4933   -0.9935 C   0  0  0  0  0  0  0  0  0  0  0  0
   -0.6205    3.5061   -1.6513 H   0  0  0  0  0  0  0  0  0  0  0  0
    1.1620    3.6139   -1.6528 H   0  0  0  0  0  0  0  0  0  0  0  0
    0.2041    4.6528    0.0075 C   0  0  0  0  0  0  0  0  0  0  0  0
    1.1523    4.6908    0.5884 H   0  0  0  0  0  0  0  0  0  0  0  0
    0.1313    5.6185   -0.5334 H   0  0  0  0  0  0  0  0  0  0  0  0
   -0.9756    4.4827    0.9705 C   0  0  0  0  0  0  0  0  0  0  0  0
   -1.9295    4.5540    0.4022 H   0  0  0  0  0  0  0  0  0  0  0  0
   -0.9941    5.3046    1.7153 H   0  0  0  0  0  0  0  0  0  0  0  0
   -0.9183    3.1259    1.6822 C   0  0  0  0  0  0  0  0  0  0  0  0
   -0.0195    3.0831    2.3391 H   0  0  0  0  0  0  0  0  0  0  0  0
   -1.8029    2.9975    2.3392 H   0  0  0  0  0  0  0  0  0  0  0  0
   -2.0672    0.1845    1.9151 C   0  0  0  0  0  0  0  0  0  0  0  0
   -2.3475    0.8079    2.7927 H   0  0  0  0  0  0  0  0  0  0  0  0
   -1.8868   -0.8486    2.2761 H   0  0  0  0  0  0  0  0  0  0  0  0
   -3.2004    0.1933    0.9164 C   0  0  0  0  0  0  0  0  0  0  0  0
   -4.4502    0.7335    1.2559 C   0  0  0  0  0  0  0  0  0  0  0  0
   -4.6122    1.1619    2.2560 H   0  0  0  0  0  0  0  0  0  0  0  0
   -5.5010    0.7321    0.3260 C   0  0  0  0  0  0  0  0  0  0  0  0
   -5.3129    0.2120   -0.9637 C   0  0  0  0  0  0  0  0  0  0  0  0
   -6.1277    0.2201   -1.6992 H   0  0  0  0  0  0  0  0  0  0  0  0
   -4.0606   -0.3114   -1.3062 C   0  0  0  0  0  0  0  0  0  0  0  0
   -2.9751   -0.3534   -0.3829 C   0  0  0  0  0  0  0  0  0  0  0  0
    1.6685    0.8680   -1.9587 C   0  0  0  0  0  0  0  0  0  0  0  0
    1.7976    1.7297   -2.6501 H   0  0  0  0  0  0  0  0  0  0  0  0
    1.5695   -0.0485   -2.5754 H   0  0  0  0  0  0  0  0  0  0  0  0
    2.8892    0.7661   -1.0699 C   0  0  0  0  0  0  0  0  0  0  0  0
    4.0848    1.3739   -1.4888 C   0  0  0  0  0  0  0  0  0  0  0  0
    4.1107    1.9377   -2.4331 H   0  0  0  0  0  0  0  0  0  0  0  0
    5.2513    1.2691   -0.7198 C   0  0  0  0  0  0  0  0  0  0  0  0
    5.2397    0.5695    0.4963 C   0  0  0  0  0  0  0  0  0  0  0  0
    6.1462    0.4875    1.1097 H   0  0  0  0  0  0  0  0  0  0  0  0
    4.0456   -0.0204    0.9229 C   0  0  0  0  0  0  0  0  0  0  0  0
    2.8371    0.0462    0.1646 C   0  0  0  0  0  0  0  0  0  0  0  0
  1 37  1  0  0  0  0
  3 27  1  0  0  0  0
  3  4  1  0  0  0  0
  5 13  1  0  0  0  0
  6  5  1  0  0  0  0
  8 36  1  0  0  0  0
  9 44  1  0  0  0  0
 11 12  1  6  0  0  0
 11  3  1  0  0  0  0
 11 24  1  0  0  0  0
 13 14  1  1  0  0  0
 13 11  1  0  0  0  0
 15 13  1  0  0  0  0
 15 18  1  0  0  0  0
 16 15  1  0  0  0  0
 17 15  1  0  0  0  0
 18 19  1  0  0  0  0
 18 21  1  0  0  0  0
 20 18  1  0  0  0  0
 21 24  1  0  0  0  0
 21 23  1  0  0  0  0
 22 21  1  0  0  0  0
 24 25  1  0  0  0  0
 24 26  1  0  0  0  0
 27 29  1  0  0  0  0
 27 28  1  0  0  0  0
 30 31  1  0  0  0  0
 30 27  1  0  0  0  0
 31 32  1  0  0  0  0
 33  7  1  0  0  0  0
 33 31  2  0  0  0  0
 34 33  1  0  0  0  0
 35 34  1  0  0  0  0
 36 34  2  0  0  0  0
 36 37  1  0  0  0  0
 37 30  2  0  0  0  0
 38  5  1  0  0  0  0
 38 41  1  0  0  0  0
 39 38  1  0  0  0  0
 40 38  1  0  0  0  0
 41 48  1  0  0  0  0
 42 41  2  0  0  0  0
 42 44  1  0  0  0  0
 43 42  1  0  0  0  0
 44 45  2  0  0  0  0
 45 47  1  0  0  0  0
 45 46  1  0  0  0  0
 47 10  1  0  0  0  0
 48  2  1  0  0  0  0
 48 47  2  0  0  0  0
M  CHG  2   1  -1   2  -1
M  END
