1,2,5,7
 OpenBabel05122313063D

 48 49  0  0  1  0  0  0  0  0999 V2000
   -2.4576    1.9841    0.7644 O   0  5  0  0  0  0  0  0  0  0  0  0
   -3.4435   -0.4212   -0.1429 O   0  5  0  0  0  0  0  0  0  0  0  0
   -2.5236    4.0324    1.6287 O   0  0  0  0  0  0  0  0  0  0  0  0
   -4.9609   -1.9900   -0.5729 O   0  0  0  0  0  0  0  0  0  0  0  0
    0.3235    1.1585   -0.0546 N   0  0  0  0  0  0  0  0  0  0  0  0
    0.6528    0.9053    0.8924 H   0  0  0  0  0  0  0  0  0  0  0  0
   -0.7165   -1.1364   -1.2125 N   0  0  0  0  0  0  0  0  0  0  0  0
   -0.8570   -0.8050   -2.1812 H   0  0  0  0  0  0  0  0  0  0  0  0
   -1.8873    3.1072    1.1351 C   0  0  0  0  0  0  0  0  0  0  0  0
   -3.8243   -1.5473   -0.7012 C   0  0  0  0  0  0  0  0  0  0  0  0
   -0.3483    3.2717    1.0153 C   0  0  0  0  0  0  0  0  0  0  0  0
   -0.1591    4.3621    1.0148 H   0  0  0  0  0  0  0  0  0  0  0  0
    0.0994    2.8911    1.9627 H   0  0  0  0  0  0  0  0  0  0  0  0
   -2.8290   -2.3324   -1.5964 C   0  0  0  0  0  0  0  0  0  0  0  0
   -3.2601   -3.3443   -1.7158 H   0  0  0  0  0  0  0  0  0  0  0  0
   -2.8432   -1.8707   -2.6112 H   0  0  0  0  0  0  0  0  0  0  0  0
    0.3702    2.6353   -0.1658 C   0  0  0  0  0  0  0  0  0  0  0  0
   -0.1074    2.9131   -1.1278 H   0  0  0  0  0  0  0  0  0  0  0  0
    1.4315    2.9700   -0.2056 H   0  0  0  0  0  0  0  0  0  0  0  0
   -1.3893   -2.4518   -1.1133 C   0  0  0  0  0  0  0  0  0  0  0  0
   -1.3460   -2.7851   -0.0585 H   0  0  0  0  0  0  0  0  0  0  0  0
   -0.8252   -3.1996   -1.7182 H   0  0  0  0  0  0  0  0  0  0  0  0
    1.1531    0.4112   -1.0399 C   0  0  2  0  0  0  0  0  0  0  0  0
    0.8301    0.7687   -2.0416 H   0  0  0  0  0  0  0  0  0  0  0  0
    0.7525   -1.0950   -0.9520 C   0  0  1  0  0  0  0  0  0  0  0  0
    1.2846   -1.6222   -1.7746 H   0  0  0  0  0  0  0  0  0  0  0  0
    2.6446    0.6532   -0.9140 C   0  0  0  0  0  0  0  0  0  0  0  0
    1.1672   -1.7516    0.3522 C   0  0  0  0  0  0  0  0  0  0  0  0
    3.2926    0.6394    0.3383 C   0  0  0  0  0  0  0  0  0  0  0  0
    2.7198    0.4650    1.2624 H   0  0  0  0  0  0  0  0  0  0  0  0
    0.4446   -1.5958    1.5550 C   0  0  0  0  0  0  0  0  0  0  0  0
   -0.5174   -1.0494    1.5509 H   0  0  0  0  0  0  0  0  0  0  0  0
    4.6784    0.8341    0.4238 C   0  0  0  0  0  0  0  0  0  0  0  0
    5.1691    0.8237    1.4085 H   0  0  0  0  0  0  0  0  0  0  0  0
    0.9279   -2.1472    2.7517 C   0  0  0  0  0  0  0  0  0  0  0  0
    0.3464   -2.0215    3.6774 H   0  0  0  0  0  0  0  0  0  0  0  0
    5.4370    1.0345   -0.7403 C   0  0  0  0  0  0  0  0  0  0  0  0
    6.5246    1.1862   -0.6711 H   0  0  0  0  0  0  0  0  0  0  0  0
    2.1371   -2.8597    2.7659 C   0  0  0  0  0  0  0  0  0  0  0  0
    2.5136   -3.2916    3.7054 H   0  0  0  0  0  0  0  0  0  0  0  0
    4.8020    1.0467   -1.9917 C   0  0  0  0  0  0  0  0  0  0  0  0
    5.3881    1.2105   -2.9083 H   0  0  0  0  0  0  0  0  0  0  0  0
    2.8564   -3.0297    1.5726 C   0  0  0  0  0  0  0  0  0  0  0  0
    3.8007   -3.5942    1.5710 H   0  0  0  0  0  0  0  0  0  0  0  0
    3.4140    0.8618   -2.0746 C   0  0  0  0  0  0  0  0  0  0  0  0
    2.9162    0.8848   -3.0575 H   0  0  0  0  0  0  0  0  0  0  0  0
    2.3722   -2.4818    0.3765 C   0  0  0  0  0  0  0  0  0  0  0  0
    2.9450   -2.6116   -0.5550 H   0  0  0  0  0  0  0  0  0  0  0  0
  1  9  1  0  0  0  0
  5  6  1  0  0  0  0
  7 20  1  0  0  0  0
  7 25  1  0  0  0  0
  8  7  1  0  0  0  0
  9  3  2  0  0  0  0
 10  4  2  0  0  0  0
 10  2  1  0  0  0  0
 11  9  1  0  0  0  0
 11 13  1  0  0  0  0
 12 11  1  0  0  0  0
 14 20  1  0  0  0  0
 14 10  1  0  0  0  0
 15 14  1  0  0  0  0
 16 14  1  0  0  0  0
 17  5  1  0  0  0  0
 17 11  1  0  0  0  0
 18 17  1  0  0  0  0
 19 17  1  0  0  0  0
 20 21  1  0  0  0  0
 22 20  1  0  0  0  0
 23 24  1  6  0  0  0
 23 25  1  0  0  0  0
 23 27  1  0  0  0  0
 23  5  1  0  0  0  0
 25 26  1  6  0  0  0
 25 28  1  0  0  0  0
 27 29  1  0  0  0  0
 28 47  2  0  0  0  0
 28 31  1  0  0  0  0
 29 33  2  0  0  0  0
 29 30  1  0  0  0  0
 31 35  2  0  0  0  0
 32 31  1  0  0  0  0
 33 34  1  0  0  0  0
 35 39  1  0  0  0  0
 35 36  1  0  0  0  0
 37 38  1  0  0  0  0
 37 33  1  0  0  0  0
 39 40  1  0  0  0  0
 41 37  2  0  0  0  0
 42 41  1  0  0  0  0
 43 39  2  0  0  0  0
 44 43  1  0  0  0  0
 45 41  1  0  0  0  0
 45 27  2  0  0  0  0
 46 45  1  0  0  0  0
 47 43  1  0  0  0  0
 48 47  1  0  0  0  0
M  CHG  2   1  -1   2  -1
M  END
