1,18,26,37
 OpenBabel05122313063D

 51 52  0  0  0  0  0  0  0  0999 V2000
   -0.2185    0.7281    0.0725 O   0  5  0  0  0  0  0  0  0  0  0  0
   -0.0391    2.0072    0.1279 C   0  0  0  0  0  0  0  0  0  0  0  0
   -1.1333    2.8545    0.5462 C   0  0  0  0  0  0  0  0  0  0  0  0
   -2.2781    2.1789    0.8190 O   0  0  0  0  0  0  0  0  0  0  0  0
   -3.4116    2.9210    1.2124 C   0  0  0  0  0  0  0  0  0  0  0  0
   -3.2289    3.4960    2.1492 H   0  0  0  0  0  0  0  0  0  0  0  0
   -4.2180    2.1856    1.3927 H   0  0  0  0  0  0  0  0  0  0  0  0
   -3.7379    3.6329    0.4198 H   0  0  0  0  0  0  0  0  0  0  0  0
   -0.9621    4.2372    0.6079 C   0  0  0  0  0  0  0  0  0  0  0  0
   -1.8040    4.8841    0.8917 H   0  0  0  0  0  0  0  0  0  0  0  0
    0.2946    4.8331    0.3081 C   0  0  0  0  0  0  0  0  0  0  0  0
    0.3977    5.9259    0.3728 H   0  0  0  0  0  0  0  0  0  0  0  0
    1.3743    4.0460   -0.0509 C   0  0  0  0  0  0  0  0  0  0  0  0
    2.3555    4.4975   -0.2639 H   0  0  0  0  0  0  0  0  0  0  0  0
    1.2266    2.6287   -0.1573 C   0  0  0  0  0  0  0  0  0  0  0  0
    2.3736    1.7961   -0.3297 C   0  0  0  0  0  3  0  0  0  0  0  0
    3.3608    2.2724   -0.1516 H   0  0  0  0  0  0  0  0  0  0  0  0
    2.3871    0.5057   -0.5945 N   0  0  0  0  0  2  0  0  0  0  0  0
    3.6079   -0.2392   -0.3144 C   0  0  0  0  0  0  0  0  0  0  0  0
    4.4634    0.4703   -0.2502 H   0  0  0  0  0  0  0  0  0  0  0  0
    3.7918   -0.9512   -1.1427 H   0  0  0  0  0  0  0  0  0  0  0  0
    3.5257   -1.0193    1.0293 C   0  0  0  0  0  0  0  0  0  0  0  0
    2.4905   -2.1701    0.9480 C   0  0  0  0  0  0  0  0  0  0  0  0
    2.7835   -2.8444    0.1143 H   0  0  0  0  0  0  0  0  0  0  0  0
    2.5416   -2.7559    1.8963 H   0  0  0  0  0  0  0  0  0  0  0  0
    1.1245   -1.7497    0.6871 N   0  0  0  0  0  2  0  0  0  0  0  0
    0.1884   -2.1076    1.5092 C   0  0  0  0  0  3  0  0  0  0  0  0
    0.4757   -2.6297    2.4509 H   0  0  0  0  0  0  0  0  0  0  0  0
   -1.2362   -1.9235    1.3038 C   0  0  0  0  0  0  0  0  0  0  0  0
   -2.1178   -2.0841    2.4053 C   0  0  0  0  0  0  0  0  0  0  0  0
   -1.6950   -2.3105    3.3961 H   0  0  0  0  0  0  0  0  0  0  0  0
   -3.4903   -1.9358    2.2372 C   0  0  0  0  0  0  0  0  0  0  0  0
   -4.1712   -2.0448    3.0940 H   0  0  0  0  0  0  0  0  0  0  0  0
   -4.0220   -1.6463    0.9615 C   0  0  0  0  0  0  0  0  0  0  0  0
   -5.1077   -1.5262    0.8451 H   0  0  0  0  0  0  0  0  0  0  0  0
   -3.1783   -1.5144   -0.1517 C   0  0  0  0  0  0  0  0  0  0  0  0
   -0.9991   -1.5433   -1.0691 O   0  5  0  0  0  0  0  0  0  0  0  0
   -4.9606   -1.0228   -1.6416 C   0  0  0  0  0  0  0  0  0  0  0  0
   -5.3488   -0.1630   -1.0489 H   0  0  0  0  0  0  0  0  0  0  0  0
   -5.5681   -1.9245   -1.3993 H   0  0  0  0  0  0  0  0  0  0  0  0
   -5.0681   -0.7950   -2.7180 H   0  0  0  0  0  0  0  0  0  0  0  0
   -1.7627   -1.6560    0.0078 C   0  0  0  0  0  0  0  0  0  0  0  0
   -3.5833   -1.2363   -1.4142 O   0  0  0  0  0  0  0  0  0  0  0  0
    4.9047   -1.6571    1.2678 C   0  0  0  0  0  0  0  0  0  0  0  0
    5.1921   -2.3245    0.4296 H   0  0  0  0  0  0  0  0  0  0  0  0
    4.9067   -2.2594    2.1988 H   0  0  0  0  0  0  0  0  0  0  0  0
    5.6880   -0.8787    1.3691 H   0  0  0  0  0  0  0  0  0  0  0  0
    3.1666   -0.0757    2.1862 C   0  0  0  0  0  0  0  0  0  0  0  0
    3.1997   -0.6188    3.1527 H   0  0  0  0  0  0  0  0  0  0  0  0
    2.1482    0.3443    2.0688 H   0  0  0  0  0  0  0  0  0  0  0  0
    3.8821    0.7697    2.2519 H   0  0  0  0  0  0  0  0  0  0  0  0
  1  2  1  0  0  0  0
  2  3  1  0  0  0  0
  3  9  2  0  0  0  0
  3  4  1  0  0  0  0
  4  5  1  0  0  0  0
  5  7  1  0  0  0  0
  5  6  1  0  0  0  0
  8  5  1  0  0  0  0
  9 10  1  0  0  0  0
 11 12  1  0  0  0  0
 11  9  1  0  0  0  0
 13 11  2  0  0  0  0
 14 13  1  0  0  0  0
 15 13  1  0  0  0  0
 15  2  2  0  0  0  0
 16 15  1  0  0  0  0
 16 17  1  0  0  0  0
 18 16  1  0  0  0  0
 18 19  1  0  0  0  0
 19 20  1  0  0  0  0
 19 22  1  0  0  0  0
 21 19  1  0  0  0  0
 22 44  1  0  0  0  0
 22 48  1  0  0  0  0
 23 22  1  0  0  0  0
 23 25  1  0  0  0  0
 24 23  1  0  0  0  0
 26 23  1  0  0  0  0
 26 27  1  0  0  0  0
 27 28  1  0  0  0  0
 29 27  1  0  0  0  0
 29 30  1  0  0  0  0
 30 31  1  0  0  0  0
 32 30  2  0  0  0  0
 32 33  1  0  0  0  0
 34 32  1  0  0  0  0
 35 34  1  0  0  0  0
 36 42  1  0  0  0  0
 36 34  2  0  0  0  0
 37 42  1  0  0  0  0
 38 43  1  0  0  0  0
 38 40  1  0  0  0  0
 38 39  1  0  0  0  0
 41 38  1  0  0  0  0
 42 29  2  0  0  0  0
 43 36  1  0  0  0  0
 44 47  1  0  0  0  0
 44 46  1  0  0  0  0
 45 44  1  0  0  0  0
 48 51  1  0  0  0  0
 48 49  1  0  0  0  0
 50 48  1  0  0  0  0
M  CHG  2   1  -1  37  -1
M  END
