1,2,5,6
 OpenBabel05122313063D

 36 37  0  0  1  0  0  0  0  0999 V2000
   -1.2512   -0.8142    0.0594 O   0  0  0  0  0  1  0  0  0  0  0  0
    1.2512   -0.8142   -0.0593 O   0  5  0  0  0  0  0  0  0  0  0  0
   -5.4618   -3.0180   -0.1358 O   0  0  0  0  0  0  0  0  0  0  0  0
    5.4619   -3.0180    0.1357 O   0  0  0  0  0  0  0  0  0  0  0  0
   -1.2591    1.9039    0.1610 N   0  0  0  0  0  2  0  0  0  0  0  0
    1.2591    1.9039   -0.1610 N   0  0  0  0  0  2  0  0  0  0  0  0
   -0.6565    3.2182    0.3837 C   0  0  0  0  0  0  0  0  0  0  0  0
    0.6565    3.2182   -0.3837 C   0  0  0  0  0  0  0  0  0  0  0  0
   -2.5681    1.7682    0.1647 C   0  0  0  0  0  0  0  0  0  0  0  0
   -3.2688    0.5350    0.0687 C   0  0  0  0  0  0  0  0  0  0  0  0
   -2.5442   -0.7209    0.0288 C   0  0  2  0  0  3  0  0  0  0  0  0
   -3.3149   -1.9194   -0.0379 C   0  0  0  0  0  0  0  0  0  0  0  0
   -4.7098   -1.8888   -0.0690 C   0  0  0  0  0  0  0  0  0  0  0  0
   -5.4176   -0.6528   -0.0304 C   0  0  0  0  0  0  0  0  0  0  0  0
   -4.6935    0.5238    0.0389 C   0  0  0  0  0  0  0  0  0  0  0  0
    2.5681    1.7682   -0.1647 C   0  0  0  0  0  0  0  0  0  0  0  0
    3.2688    0.5350   -0.0687 C   0  0  0  0  0  0  0  0  0  0  0  0
    2.5442   -0.7209   -0.0288 C   0  0  0  0  0  0  0  0  0  0  0  0
    3.3149   -1.9194    0.0379 C   0  0  0  0  0  0  0  0  0  0  0  0
    4.7098   -1.8888    0.0690 C   0  0  0  0  0  0  0  0  0  0  0  0
    5.4176   -0.6528    0.0304 C   0  0  0  0  0  0  0  0  0  0  0  0
    4.6935    0.5238   -0.0390 C   0  0  0  0  0  3  0  0  0  0  0  0
   -1.3319    4.0389    0.0592 H   0  0  0  0  0  0  0  0  0  0  0  0
   -0.4544    3.3489    1.4707 H   0  0  0  0  0  0  0  0  0  0  0  0
    0.4544    3.3489   -1.4708 H   0  0  0  0  0  0  0  0  0  0  0  0
    1.3319    4.0389   -0.0592 H   0  0  0  0  0  0  0  0  0  0  0  0
   -3.1751    2.6911    0.2612 H   0  0  0  0  0  0  0  0  0  0  0  0
   -5.2246    1.4887    0.0737 H   0  0  0  0  0  0  0  0  0  0  0  0
   -6.5154   -0.6664   -0.0540 H   0  0  0  0  0  0  0  0  0  0  0  0
   -2.7624   -2.8716   -0.0663 H   0  0  0  0  0  0  0  0  0  0  0  0
   -4.8582   -3.7847   -0.1542 H   0  0  0  0  0  0  0  0  0  0  0  0
    3.1751    2.6911   -0.2612 H   0  0  0  0  0  0  0  0  0  0  0  0
    5.2246    1.4887   -0.0738 H   0  0  0  0  0  0  0  0  0  0  0  0
    6.5154   -0.6664    0.0539 H   0  0  0  0  0  0  0  0  0  0  0  0
    2.7624   -2.8716    0.0663 H   0  0  0  0  0  0  0  0  0  0  0  0
    4.8582   -3.7847    0.1541 H   0  0  0  0  0  0  0  0  0  0  0  0
  2 18  1  0  0  0  0
  3 13  1  0  0  0  0
  4 36  1  0  0  0  0
  5  9  1  0  0  0  0
  5  7  1  0  0  0  0
  7 24  1  0  0  0  0
  8  6  1  0  0  0  0
  8 26  1  0  0  0  0
  8  7  1  0  0  0  0
  9 27  1  0  0  0  0
 10  9  2  0  0  0  0
 11  1  1  1  0  0  0
 11 10  1  0  0  0  0
 12 11  1  0  0  0  0
 13 12  2  0  0  0  0
 13 14  1  0  0  0  0
 14 15  2  0  0  0  0
 15 10  1  0  0  0  0
 15 28  1  0  0  0  0
 16  6  1  0  0  0  0
 16 17  2  0  0  0  0
 17 22  1  0  0  0  0
 17 18  1  0  0  0  0
 18 19  2  0  0  0  0
 19 35  1  0  0  0  0
 19 20  1  0  0  0  0
 20  4  1  0  0  0  0
 21 34  1  0  0  0  0
 21 20  2  0  0  0  0
 22 21  1  0  0  0  0
 23  7  1  0  0  0  0
 25  8  1  0  0  0  0
 29 14  1  0  0  0  0
 30 12  1  0  0  0  0
 31  3  1  0  0  0  0
 32 16  1  0  0  0  0
 33 22  1  0  0  0  0
M  CHG  1   2  -1
M  END
