1,2,5,6
 OpenBabel05122313063D

 72 73  0  0  1  0  0  0  0  0999 V2000
   -1.7768   -1.4282   -0.1037 O   0  5  0  0  0  0  0  0  0  0  0  0
    0.7183   -1.4378    0.1020 O   0  0  0  0  0  1  0  0  0  0  0  0
   -6.0031    0.7876   -0.0756 O   0  0  0  0  0  0  0  0  0  0  0  0
    4.8146    0.8259    0.0231 O   0  0  0  0  0  0  0  0  0  0  0  0
   -1.7960   -4.1457   -0.1840 N   0  0  0  0  0  2  0  0  0  0  0  0
    0.7098   -4.1554    0.2240 N   0  0  0  0  0  2  0  0  0  0  0  0
   -1.1937   -5.4642   -0.3762 C   0  0  0  0  0  0  0  0  0  0  0  0
    0.0925   -5.4649    0.4356 C   0  0  0  0  0  0  0  0  0  0  0  0
   -3.1038   -4.0022   -0.2361 C   0  0  0  0  0  0  0  0  0  0  0  0
   -3.7991   -2.7648   -0.1745 C   0  0  0  0  0  0  0  0  0  0  0  0
   -3.0708   -1.5138   -0.1186 C   0  0  0  0  0  0  0  0  0  0  0  0
   -3.8269   -0.3014   -0.0879 C   0  0  0  0  0  0  0  0  0  0  0  0
   -5.2230   -0.3220   -0.1061 C   0  0  0  0  0  0  0  0  0  0  0  0
   -5.9365   -1.5584   -0.1606 C   0  0  0  0  0  0  0  0  0  0  0  0
   -5.2253   -2.7416   -0.1954 C   0  0  0  0  0  3  0  0  0  0  0  0
   -5.3787    2.0679   -0.0228 C   0  0  0  0  0  0  0  0  0  0  0  0
   -6.4679    3.1282    0.0030 C   0  0  0  0  0  0  0  0  0  0  0  0
   -5.9078    4.5511    0.0607 C   0  0  0  0  0  0  0  0  0  0  0  0
   -6.9910    5.6326    0.0887 C   0  0  0  0  0  0  0  0  0  0  0  0
   -6.4391    7.0601    0.1468 C   0  0  0  0  0  0  0  0  0  0  0  0
   -7.5278    8.1333    0.1752 C   0  0  0  0  0  0  0  0  0  0  0  0
    2.0182   -4.0275    0.2706 C   0  0  0  0  0  0  0  0  0  0  0  0
    2.7276   -2.7973    0.1882 C   0  0  0  0  0  0  0  0  0  0  0  0
    2.0128   -1.5350    0.1147 C   0  0  2  0  0  3  0  0  0  0  0  0
    2.7907   -0.3454    0.0642 C   0  0  0  0  0  0  0  0  0  0  0  0
    4.1883   -0.3790    0.0792 C   0  0  0  0  0  0  0  0  0  0  0  0
    4.8873   -1.6214    0.1509 C   0  0  0  0  0  0  0  0  0  0  0  0
    4.1485   -2.7944    0.2057 C   0  0  0  0  0  0  0  0  0  0  0  0
    6.2374    0.8789    0.0278 C   0  0  0  0  0  0  0  0  0  0  0  0
    6.6570    2.3387   -0.0479 C   0  0  0  0  0  0  0  0  0  0  0  0
    8.1764    2.5194   -0.0496 C   0  0  0  0  0  0  0  0  0  0  0  0
    8.6177    3.9834   -0.1256 C   0  0  0  0  0  0  0  0  0  0  0  0
   10.1375    4.1722   -0.1284 C   0  0  0  0  0  0  0  0  0  0  0  0
   10.5694    5.6370   -0.2046 C   0  0  0  0  0  0  0  0  0  0  0  0
   -1.8836   -6.2793   -0.0680 H   0  0  0  0  0  0  0  0  0  0  0  0
   -0.9550   -5.6059   -1.4546 H   0  0  0  0  0  0  0  0  0  0  0  0
    0.7745   -6.2917    0.1414 H   0  0  0  0  0  0  0  0  0  0  0  0
   -0.1476   -5.5848    1.5161 H   0  0  0  0  0  0  0  0  0  0  0  0
   -3.7125   -4.9225   -0.3471 H   0  0  0  0  0  0  0  0  0  0  0  0
   -3.2484    0.6294   -0.0476 H   0  0  0  0  0  0  0  0  0  0  0  0
   -7.0343   -1.5309   -0.1759 H   0  0  0  0  0  0  0  0  0  0  0  0
   -5.7642   -3.7018   -0.2416 H   0  0  0  0  0  0  0  0  0  0  0  0
   -4.7340    2.1393    0.8843 H   0  0  0  0  0  0  0  0  0  0  0  0
   -4.7138    2.2035   -0.9077 H   0  0  0  0  0  0  0  0  0  0  0  0
   -7.1065    3.0035   -0.8981 H   0  0  0  0  0  0  0  0  0  0  0  0
   -7.1265    2.9394    0.8781 H   0  0  0  0  0  0  0  0  0  0  0  0
   -5.2585    4.6594    0.9589 H   0  0  0  0  0  0  0  0  0  0  0  0
   -5.2397    4.7240   -0.8132 H   0  0  0  0  0  0  0  0  0  0  0  0
   -7.6411    5.5249   -0.8091 H   0  0  0  0  0  0  0  0  0  0  0  0
   -7.6597    5.4602    0.9624 H   0  0  0  0  0  0  0  0  0  0  0  0
   -5.7882    7.1623    1.0437 H   0  0  0  0  0  0  0  0  0  0  0  0
   -5.7702    7.2274   -0.7268 H   0  0  0  0  0  0  0  0  0  0  0  0
   -8.1717    8.0784   -0.7275 H   0  0  0  0  0  0  0  0  0  0  0  0
   -7.0983    9.1545    0.2173 H   0  0  0  0  0  0  0  0  0  0  0  0
   -8.1900    8.0125    1.0581 H   0  0  0  0  0  0  0  0  0  0  0  0
    2.6169   -4.9527    0.3950 H   0  0  0  0  0  0  0  0  0  0  0  0
    2.2701    0.6198    0.0099 H   0  0  0  0  0  0  0  0  0  0  0  0
    5.9831   -1.6605    0.1662 H   0  0  0  0  0  0  0  0  0  0  0  0
    4.6734   -3.7617    0.2658 H   0  0  0  0  0  0  0  0  0  0  0  0
    6.6386    0.4045    0.9543 H   0  0  0  0  0  0  0  0  0  0  0  0
    6.6478    0.3087   -0.8387 H   0  0  0  0  0  0  0  0  0  0  0  0
    6.2152    2.7868   -0.9638 H   0  0  0  0  0  0  0  0  0  0  0  0
    6.2061    2.8815    0.8106 H   0  0  0  0  0  0  0  0  0  0  0  0
    8.6080    2.0542    0.8656 H   0  0  0  0  0  0  0  0  0  0  0  0
    8.6171    1.9595   -0.9056 H   0  0  0  0  0  0  0  0  0  0  0  0
    8.1865    4.4499   -1.0402 H   0  0  0  0  0  0  0  0  0  0  0  0
    8.1779    4.5444    0.7299 H   0  0  0  0  0  0  0  0  0  0  0  0
   10.5642    3.7025    0.7860 H   0  0  0  0  0  0  0  0  0  0  0  0
   10.5727    3.6080   -0.9834 H   0  0  0  0  0  0  0  0  0  0  0  0
   10.1872    6.1223   -1.1270 H   0  0  0  0  0  0  0  0  0  0  0  0
   11.6731    5.7414   -0.2051 H   0  0  0  0  0  0  0  0  0  0  0  0
   10.1790    6.2177    0.6573 H   0  0  0  0  0  0  0  0  0  0  0  0
  3 16  1  0  0  0  0
  4 29  1  0  0  0  0
  4 26  1  0  0  0  0
  6 22  1  0  0  0  0
  6  8  1  0  0  0  0
  7  5  1  0  0  0  0
  7 35  1  0  0  0  0
  7  8  1  0  0  0  0
  8 38  1  0  0  0  0
  9  5  1  0  0  0  0
  9 10  2  0  0  0  0
 10 11  1  0  0  0  0
 11  1  1  0  0  0  0
 11 12  2  0  0  0  0
 12 40  1  0  0  0  0
 13 12  1  0  0  0  0
 13  3  1  0  0  0  0
 14 13  2  0  0  0  0
 15 10  1  0  0  0  0
 15 14  1  0  0  0  0
 16 17  1  0  0  0  0
 16 43  1  0  0  0  0
 17 18  1  0  0  0  0
 17 46  1  0  0  0  0
 18 19  1  0  0  0  0
 18 47  1  0  0  0  0
 19 20  1  0  0  0  0
 19 50  1  0  0  0  0
 20 21  1  0  0  0  0
 20 51  1  0  0  0  0
 21 54  1  0  0  0  0
 21 55  1  0  0  0  0
 22 56  1  0  0  0  0
 23 28  1  0  0  0  0
 23 22  2  0  0  0  0
 24  2  1  1  0  0  0
 24 23  1  0  0  0  0
 25 26  2  0  0  0  0
 25 24  1  0  0  0  0
 26 27  1  0  0  0  0
 27 58  1  0  0  0  0
 27 28  2  0  0  0  0
 28 59  1  0  0  0  0
 29 60  1  0  0  0  0
 30 29  1  0  0  0  0
 30 63  1  0  0  0  0
 31 30  1  0  0  0  0
 31 64  1  0  0  0  0
 32 31  1  0  0  0  0
 32 67  1  0  0  0  0
 33 32  1  0  0  0  0
 33 68  1  0  0  0  0
 34 33  1  0  0  0  0
 34 72  1  0  0  0  0
 36  7  1  0  0  0  0
 37  8  1  0  0  0  0
 39  9  1  0  0  0  0
 41 14  1  0  0  0  0
 42 15  1  0  0  0  0
 44 16  1  0  0  0  0
 45 17  1  0  0  0  0
 48 18  1  0  0  0  0
 49 19  1  0  0  0  0
 52 20  1  0  0  0  0
 53 21  1  0  0  0  0
 57 25  1  0  0  0  0
 61 29  1  0  0  0  0
 62 30  1  0  0  0  0
 65 31  1  0  0  0  0
 66 32  1  0  0  0  0
 69 33  1  0  0  0  0
 70 34  1  0  0  0  0
 71 34  1  0  0  0  0
M  CHG  1   1  -1
M  END
