1,2,3,4
 OpenBabel05122313063D

 43 44  0  0  0  0  0  0  0  0999 V2000
   -0.1184    1.1585   -0.1389 O   0  5  0  0  0  0  0  0  0  0  0  0
   -1.9124   -0.1618    1.3794 O   0  5  0  0  0  0  0  0  0  0  0  0
   -0.5146   -1.6920   -0.4747 N   0  0  0  0  0  2  0  0  0  0  0  0
    1.9576   -0.4951    0.4165 N   0  0  0  0  0  2  0  0  0  0  0  0
    2.6551    0.5391   -0.0017 C   0  0  0  0  0  3  0  0  0  0  0  0
    3.7101    0.3409   -0.2866 H   0  0  0  0  0  0  0  0  0  0  0  0
    0.3338   -2.8368   -0.7656 C   0  0  0  0  0  0  0  0  0  0  0  0
   -0.0752   -3.4093   -1.6313 H   0  0  0  0  0  0  0  0  0  0  0  0
    0.2928   -3.4973    0.1278 H   0  0  0  0  0  0  0  0  0  0  0  0
   -1.5956   -1.5273   -1.1711 C   0  0  0  0  0  3  0  0  0  0  0  0
   -1.7682   -2.1898   -2.0506 H   0  0  0  0  0  0  0  0  0  0  0  0
    2.4920   -1.8277    0.1699 C   0  0  0  0  0  0  0  0  0  0  0  0
    2.3319   -2.4516    1.0711 H   0  0  0  0  0  0  0  0  0  0  0  0
    3.5843   -1.7534   -0.0306 H   0  0  0  0  0  0  0  0  0  0  0  0
    0.7529    2.0944   -0.3687 C   0  0  0  0  0  0  0  0  0  0  0  0
    2.1741    1.8658   -0.2161 C   0  0  0  0  0  0  0  0  0  0  0  0
    3.0953    2.9160   -0.4944 C   0  0  0  0  0  0  0  0  0  0  0  0
    4.1729    2.7143   -0.3823 H   0  0  0  0  0  0  0  0  0  0  0  0
    2.6531    4.1693   -0.8923 C   0  0  0  0  0  0  0  0  0  0  0  0
    3.3692    4.9807   -1.0852 H   0  0  0  0  0  0  0  0  0  0  0  0
    1.2611    4.3875   -1.0644 C   0  0  0  0  0  0  0  0  0  0  0  0
    0.9065    5.3785   -1.3893 H   0  0  0  0  0  0  0  0  0  0  0  0
    0.3345    3.3771   -0.8352 C   0  0  0  0  0  0  0  0  0  0  0  0
   -0.7446    3.5388   -0.9697 H   0  0  0  0  0  0  0  0  0  0  0  0
   -2.7991    0.0240    0.4103 C   0  0  0  0  0  0  0  0  0  0  0  0
   -2.6637   -0.5920   -0.8774 C   0  0  0  0  0  0  0  0  0  0  0  0
   -3.6723   -0.3791   -1.8497 C   0  0  0  0  0  0  0  0  0  0  0  0
   -3.5672   -0.8719   -2.8296 H   0  0  0  0  0  0  0  0  0  0  0  0
   -4.7743    0.4347   -1.5897 C   0  0  0  0  0  0  0  0  0  0  0  0
   -5.5395    0.5994   -2.3617 H   0  0  0  0  0  0  0  0  0  0  0  0
   -4.9012    1.0322   -0.3184 C   0  0  0  0  0  0  0  0  0  0  0  0
   -5.7704    1.6709   -0.0976 H   0  0  0  0  0  0  0  0  0  0  0  0
   -3.9375    0.8231    0.6705 C   0  0  0  0  0  0  0  0  0  0  0  0
   -4.0244    1.2778    1.6673 H   0  0  0  0  0  0  0  0  0  0  0  0
    2.5480   -3.8400   -1.2936 C   0  0  0  0  0  0  0  0  0  0  0  0
    2.0919   -4.3964   -2.1373 H   0  0  0  0  0  0  0  0  0  0  0  0
    2.5064   -4.4893   -0.3951 H   0  0  0  0  0  0  0  0  0  0  0  0
    3.6148   -3.6678   -1.5419 H   0  0  0  0  0  0  0  0  0  0  0  0
    1.9212   -1.6132   -2.3011 C   0  0  0  0  0  0  0  0  0  0  0  0
    2.9753   -1.3408   -2.5146 H   0  0  0  0  0  0  0  0  0  0  0  0
    1.3418   -0.6767   -2.1800 H   0  0  0  0  0  0  0  0  0  0  0  0
    1.5255   -2.1435   -3.1913 H   0  0  0  0  0  0  0  0  0  0  0  0
    1.8186   -2.5068   -1.0567 C   0  0  0  0  0  0  0  0  0  0  0  0
  5  4  1  0  0  0  0
  6  5  1  0  0  0  0
  7  3  1  0  0  0  0
  7  9  1  0  0  0  0
  8  7  1  0  0  0  0
 10 26  1  0  0  0  0
 10  3  1  0  0  0  0
 11 10  1  0  0  0  0
 12  4  1  0  0  0  0
 12 13  1  0  0  0  0
 14 12  1  0  0  0  0
 15 16  1  0  0  0  0
 15  1  1  0  0  0  0
 16  5  1  0  0  0  0
 17 18  1  0  0  0  0
 17 16  2  0  0  0  0
 19 17  1  0  0  0  0
 20 19  1  0  0  0  0
 21 19  2  0  0  0  0
 21 23  1  0  0  0  0
 22 21  1  0  0  0  0
 23 15  2  0  0  0  0
 24 23  1  0  0  0  0
 25 33  1  0  0  0  0
 25  2  1  0  0  0  0
 26 25  2  0  0  0  0
 27 29  2  0  0  0  0
 27 26  1  0  0  0  0
 28 27  1  0  0  0  0
 29 31  1  0  0  0  0
 30 29  1  0  0  0  0
 31 32  1  0  0  0  0
 31 33  2  0  0  0  0
 33 34  1  0  0  0  0
 35 43  1  0  0  0  0
 35 37  1  0  0  0  0
 36 35  1  0  0  0  0
 38 35  1  0  0  0  0
 39 41  1  0  0  0  0
 39 43  1  0  0  0  0
 40 39  1  0  0  0  0
 42 39  1  0  0  0  0
 43  7  1  0  0  0  0
 43 12  1  0  0  0  0
M  CHG  2   1  -1   2  -1
M  END
