3,23,36,58
 OpenBabel05122313063D

 68 69  0  0  1  0  0  0  0  0999 V2000
   -2.7946    0.2482    1.2566 C   0  0  0  0  0  3  0  0  0  0  0  0
   -2.9030    0.4322    2.3483 H   0  0  0  0  0  0  0  0  0  0  0  0
   -1.6012    0.1990    0.7500 N   0  0  0  0  0  2  0  0  0  0  0  0
   -0.4484    0.3755    1.6141 C   0  0  2  0  0  0  0  0  0  0  0  0
   -0.6708    0.0764    2.6593 H   0  0  0  0  0  0  0  0  0  0  0  0
    0.0876    1.8380    1.7586 C   0  0  0  0  0  0  0  0  0  0  0  0
    0.7197    2.1052    2.7836 O   0  0  0  0  0  0  0  0  0  0  0  0
   -0.1429    2.6657    0.7159 N   0  0  0  0  0  0  0  0  0  0  0  0
   -0.6139    2.2770   -0.1251 H   0  0  0  0  0  0  0  0  0  0  0  0
    0.3791    4.0500    0.6106 C   0  0  0  0  0  0  0  0  0  0  0  0
   -0.0886    4.5858   -0.7507 C   0  0  0  0  0  0  0  0  0  0  0  0
    0.2887    3.9531   -1.5786 H   0  0  0  0  0  0  0  0  0  0  0  0
    0.2838    5.6181   -0.8983 H   0  0  0  0  0  0  0  0  0  0  0  0
   -1.1957    4.6045   -0.8138 H   0  0  0  0  0  0  0  0  0  0  0  0
   -0.2019    4.9054    1.7510 C   0  0  0  0  0  0  0  0  0  0  0  0
   -1.3094    4.9238    1.6990 H   0  0  0  0  0  0  0  0  0  0  0  0
    0.1670    5.9476    1.6711 H   0  0  0  0  0  0  0  0  0  0  0  0
    0.1018    4.4954    2.7327 H   0  0  0  0  0  0  0  0  0  0  0  0
    1.9183    4.0337    0.6750 C   0  0  0  0  0  0  0  0  0  0  0  0
    2.2581    3.6322    1.6482 H   0  0  0  0  0  0  0  0  0  0  0  0
    2.3129    5.0629    0.5565 H   0  0  0  0  0  0  0  0  0  0  0  0
    2.3405    3.3955   -0.1258 H   0  0  0  0  0  0  0  0  0  0  0  0
   -3.0419   -0.4550   -1.6169 O   0  5  0  0  0  0  0  0  0  0  0  0
   -4.1149   -0.2584   -0.8603 C   0  0  0  0  0  0  0  0  0  0  0  0
   -4.0393    0.0790    0.5330 C   0  0  0  0  0  0  0  0  0  0  0  0
   -5.2484    0.2408    1.2586 C   0  0  0  0  0  0  0  0  0  0  0  0
   -5.1820    0.4911    2.3294 H   0  0  0  0  0  0  0  0  0  0  0  0
   -6.4947    0.0962    0.6517 C   0  0  0  0  0  0  0  0  0  0  0  0
   -7.4165    0.2318    1.2349 H   0  0  0  0  0  0  0  0  0  0  0  0
   -6.5555   -0.2283   -0.7187 C   0  0  0  0  0  0  0  0  0  0  0  0
   -7.5322   -0.3478   -1.2124 H   0  0  0  0  0  0  0  0  0  0  0  0
   -5.3870   -0.4068   -1.4620 C   0  0  0  0  0  0  0  0  0  0  0  0
   -5.4166   -0.6676   -2.5293 H   0  0  0  0  0  0  0  0  0  0  0  0
    0.6830   -0.5428    1.0956 C   0  0  2  0  0  0  0  0  0  0  0  0
    1.6110   -0.2441    1.6280 H   0  0  0  0  0  0  0  0  0  0  0  0
    0.8600   -0.2643   -0.3701 N   0  0  0  0  0  0  0  0  0  0  0  0
    1.1627    0.7306   -0.4404 H   0  0  0  0  0  0  0  0  0  0  0  0
    1.9814   -1.0187   -0.9575 C   0  0  0  0  0  0  0  0  0  0  0  0
    1.8409   -1.0685   -2.0564 H   0  0  0  0  0  0  0  0  0  0  0  0
    1.9782   -2.0556   -0.5674 H   0  0  0  0  0  0  0  0  0  0  0  0
    3.2852   -0.2639   -0.6479 C   0  0  0  0  0  0  0  0  0  0  0  0
    3.2373    0.9426   -0.3764 O   0  0  0  0  0  0  0  0  0  0  0  0
    4.4200   -0.9974   -0.7380 N   0  0  0  0  0  0  0  0  0  0  0  0
    4.3180   -1.9936   -0.9407 H   0  0  0  0  0  0  0  0  0  0  0  0
    5.8006   -0.4826   -0.5565 C   0  0  0  0  0  0  0  0  0  0  0  0
    6.7414   -1.6775   -0.7656 C   0  0  0  0  0  0  0  0  0  0  0  0
    6.5409   -2.4809   -0.0265 H   0  0  0  0  0  0  0  0  0  0  0  0
    7.7937   -1.3583   -0.6393 H   0  0  0  0  0  0  0  0  0  0  0  0
    6.6357   -2.0986   -1.7869 H   0  0  0  0  0  0  0  0  0  0  0  0
    6.0858    0.6101   -1.6025 C   0  0  0  0  0  0  0  0  0  0  0  0
    5.9791    0.2068   -2.6296 H   0  0  0  0  0  0  0  0  0  0  0  0
    7.1201    0.9893   -1.4833 H   0  0  0  0  0  0  0  0  0  0  0  0
    5.3832    1.4555   -1.4791 H   0  0  0  0  0  0  0  0  0  0  0  0
    5.9555    0.0757    0.8703 C   0  0  0  0  0  0  0  0  0  0  0  0
    5.2499    0.9113    1.0360 H   0  0  0  0  0  0  0  0  0  0  0  0
    6.9882    0.4470    1.0237 H   0  0  0  0  0  0  0  0  0  0  0  0
    5.7540   -0.7132    1.6228 H   0  0  0  0  0  0  0  0  0  0  0  0
   -1.0659   -2.1515   -0.5325 O   0  5  0  0  0  0  0  0  0  0  0  0
   -0.5155   -2.7128    0.5354 C   0  0  0  0  0  0  0  0  0  0  0  0
    0.3997   -2.0005    1.3647 C   0  0  0  0  0  0  0  0  0  0  0  0
    0.9937   -2.6467    2.4630 C   0  0  0  0  0  0  0  0  0  0  0  0
    1.7035   -2.0809    3.0889 H   0  0  0  0  0  0  0  0  0  0  0  0
    0.6922   -3.9805    2.7719 C   0  0  0  0  0  0  0  0  0  0  0  0
    1.1618   -4.4696    3.6376 H   0  0  0  0  0  0  0  0  0  0  0  0
   -0.2151   -4.6820    1.9571 C   0  0  0  0  0  0  0  0  0  0  0  0
   -0.4609   -5.7308    2.1851 H   0  0  0  0  0  0  0  0  0  0  0  0
   -0.8075   -4.0643    0.8512 C   0  0  0  0  0  0  0  0  0  0  0  0
   -1.5114   -4.6020    0.1996 H   0  0  0  0  0  0  0  0  0  0  0  0
  1  2  1  0  0  0  0
  3  1  1  0  0  0  0
  3  4  1  0  0  0  0
  4  6  1  0  0  0  0
  4  5  1  1  0  0  0
  6  7  2  0  0  0  0
  8  6  1  0  0  0  0
  9  8  1  0  0  0  0
 10 19  1  0  0  0  0
 10  8  1  0  0  0  0
 10 15  1  0  0  0  0
 11 10  1  0  0  0  0
 12 11  1  0  0  0  0
 13 11  1  0  0  0  0
 14 11  1  0  0  0  0
 15 18  1  0  0  0  0
 16 15  1  0  0  0  0
 17 15  1  0  0  0  0
 19 20  1  0  0  0  0
 21 19  1  0  0  0  0
 22 19  1  0  0  0  0
 23 24  1  0  0  0  0
 24 25  1  0  0  0  0
 25  1  1  0  0  0  0
 25 26  2  0  0  0  0
 26 27  1  0  0  0  0
 28 29  1  0  0  0  0
 28 26  1  0  0  0  0
 30 28  2  0  0  0  0
 31 30  1  0  0  0  0
 32 24  2  0  0  0  0
 32 30  1  0  0  0  0
 33 32  1  0  0  0  0
 34 60  1  0  0  0  0
 34  4  1  0  0  0  0
 34 35  1  1  0  0  0
 36 34  1  0  0  0  0
 37 36  1  0  0  0  0
 38 41  1  0  0  0  0
 38 40  1  0  0  0  0
 38 36  1  0  0  0  0
 39 38  1  0  0  0  0
 41 42  2  0  0  0  0
 43 41  1  0  0  0  0
 43 45  1  0  0  0  0
 44 43  1  0  0  0  0
 45 54  1  0  0  0  0
 46 48  1  0  0  0  0
 46 45  1  0  0  0  0
 46 47  1  0  0  0  0
 49 46  1  0  0  0  0
 50 52  1  0  0  0  0
 50 53  1  0  0  0  0
 50 45  1  0  0  0  0
 51 50  1  0  0  0  0
 54 56  1  0  0  0  0
 54 55  1  0  0  0  0
 54 57  1  0  0  0  0
 58 59  1  0  0  0  0
 59 67  2  0  0  0  0
 59 60  1  0  0  0  0
 60 61  2  0  0  0  0
 61 63  1  0  0  0  0
 61 62  1  0  0  0  0
 63 64  1  0  0  0  0
 65 66  1  0  0  0  0
 65 63  2  0  0  0  0
 67 65  1  0  0  0  0
 68 67  1  0  0  0  0
M  CHG  2  23  -1  58  -1
M  END
