1,2,3,4
 OpenBabel05122313063D

 43 44  0  0  1  0  0  0  0  0999 V2000
    1.3150    1.2877    0.0954 N   0  0  0  0  0  2  0  0  0  0  0  0
   -1.2950    1.2812   -0.2623 N   0  0  0  0  0  2  0  0  0  0  0  0
    1.2952   -1.3462   -0.5167 O   0  5  0  0  0  0  0  0  0  0  0  0
   -1.2050   -1.3754   -0.6322 O   0  5  0  0  0  0  0  0  0  0  0  0
    2.5828   -1.2789   -0.3654 C   0  0  0  0  0  0  0  0  0  0  0  0
    3.3252   -2.4688   -0.6559 C   0  0  0  0  0  0  0  0  0  0  0  0
    2.7384   -3.3429   -0.9719 H   0  0  0  0  0  0  0  0  0  0  0  0
    4.7044   -2.5154   -0.5298 C   0  0  0  0  0  0  0  0  0  0  0  0
    5.2429   -3.4500   -0.7517 H   0  0  0  0  0  0  0  0  0  0  0  0
    5.4184   -1.3695   -0.1055 C   0  0  0  0  0  0  0  0  0  0  0  0
    6.5122   -1.4004    0.0010 H   0  0  0  0  0  0  0  0  0  0  0  0
    4.7254   -0.1986    0.1775 C   0  0  0  0  0  0  0  0  0  0  0  0
    5.3085    0.6764    0.4936 H   0  0  0  0  0  0  0  0  0  0  0  0
    3.3083   -0.0953    0.0555 C   0  0  0  0  0  0  0  0  0  0  0  0
    2.6166    1.1597    0.3003 C   0  0  1  0  0  3  0  0  0  0  0  0
    3.3813    2.3685    0.7946 C   0  0  0  0  0  0  0  0  0  0  0  0
    2.8986    2.7795    1.7036 H   0  0  0  0  0  0  0  0  0  0  0  0
    3.3967    3.1768    0.0343 H   0  0  0  0  0  0  0  0  0  0  0  0
    4.4249    2.1364    1.0538 H   0  0  0  0  0  0  0  0  0  0  0  0
    0.6269    2.5386    0.4102 C   0  0  0  0  0  0  0  0  0  0  0  0
    0.3701    2.5214    1.4934 H   0  0  0  0  0  0  0  0  0  0  0  0
    1.2439    3.4353    0.2034 H   0  0  0  0  0  0  0  0  0  0  0  0
   -0.6553    2.5977   -0.4172 C   0  0  1  0  0  0  0  0  0  0  0  0
   -1.2927    3.3993    0.0083 H   0  0  0  0  0  0  0  0  0  0  0  0
   -0.3815    2.8923   -1.8975 C   0  0  0  0  0  0  0  0  0  0  0  0
   -1.3170    2.8750   -2.4904 H   0  0  0  0  0  0  0  0  0  0  0  0
    0.3014    2.1270   -2.3180 H   0  0  0  0  0  0  0  0  0  0  0  0
    0.0889    3.8890   -2.0170 H   0  0  0  0  0  0  0  0  0  0  0  0
   -2.6060    1.1476   -0.1742 C   0  0  1  0  0  3  0  0  0  0  0  0
   -3.4902    2.3759   -0.2409 C   0  0  0  0  0  0  0  0  0  0  0  0
   -3.1418    3.0870   -1.0129 H   0  0  0  0  0  0  0  0  0  0  0  0
   -3.4951    2.9141    0.7308 H   0  0  0  0  0  0  0  0  0  0  0  0
   -4.5313    2.1109   -0.4871 H   0  0  0  0  0  0  0  0  0  0  0  0
   -3.2223   -0.1606   -0.0363 C   0  0  0  0  0  0  0  0  0  0  0  0
   -4.5951   -0.2955    0.3153 C   0  0  0  0  0  0  0  0  0  0  0  0
   -5.1723    0.5990    0.5890 H   0  0  0  0  0  0  0  0  0  0  0  0
   -5.2311   -1.5317    0.3530 C   0  0  0  0  0  0  0  0  0  0  0  0
   -6.2884   -1.5996    0.6471 H   0  0  0  0  0  0  0  0  0  0  0  0
   -4.5051   -2.6970    0.0084 C   0  0  0  0  0  0  0  0  0  0  0  0
   -5.0038   -3.6788    0.0225 H   0  0  0  0  0  0  0  0  0  0  0  0
   -3.1621   -2.6134   -0.3285 C   0  0  0  0  0  0  0  0  0  0  0  0
   -2.5676   -3.5039   -0.5776 H   0  0  0  0  0  0  0  0  0  0  0  0
   -2.4672   -1.3621   -0.3285 C   0  0  0  0  0  0  0  0  0  0  0  0
  1 20  1  0  0  0  0
  3  5  1  0  0  0  0
  4 43  1  0  0  0  0
  5 14  1  0  0  0  0
  6  8  1  0  0  0  0
  6  5  2  0  0  0  0
  7  6  1  0  0  0  0
  8 10  2  0  0  0  0
  9  8  1  0  0  0  0
 10 11  1  0  0  0  0
 10 12  1  0  0  0  0
 12 13  1  0  0  0  0
 14 12  2  0  0  0  0
 14 15  1  0  0  0  0
 15  1  1  6  0  0  0
 15 16  1  0  0  0  0
 16 19  1  0  0  0  0
 16 17  1  0  0  0  0
 18 16  1  0  0  0  0
 20 21  1  0  0  0  0
 22 20  1  0  0  0  0
 23  2  1  0  0  0  0
 23 24  1  1  0  0  0
 23 20  1  0  0  0  0
 25 23  1  0  0  0  0
 26 25  1  0  0  0  0
 27 25  1  0  0  0  0
 28 25  1  0  0  0  0
 29  2  1  6  0  0  0
 29 34  1  0  0  0  0
 30 29  1  0  0  0  0
 30 32  1  0  0  0  0
 31 30  1  0  0  0  0
 33 30  1  0  0  0  0
 34 35  1  0  0  0  0
 35 37  2  0  0  0  0
 35 36  1  0  0  0  0
 37 38  1  0  0  0  0
 39 40  1  0  0  0  0
 39 37  1  0  0  0  0
 41 43  1  0  0  0  0
 41 39  2  0  0  0  0
 42 41  1  0  0  0  0
 43 34  2  0  0  0  0
M  CHG  2   3  -1   4  -1
M  END
