1,2,7,8
 OpenBabel05122313063D

 58 61  0  0  1  0  0  0  0  0999 V2000
    0.0099   -1.2447    0.0783 O   0  5  0  0  0  0  0  0  0  0  0  0
    0.0100    1.2448   -0.0784 O   0  0  0  0  0  1  0  0  0  0  0  0
   -2.2221    2.5941   -0.4248 O   0  0  0  0  0  0  0  0  0  0  0  0
   -4.8570    1.4661   -0.1278 O   0  0  0  0  0  0  0  0  0  0  0  0
   -4.8572   -1.4662    0.1285 O   0  0  0  0  0  0  0  0  0  0  0  0
   -2.2222   -2.5941    0.4248 O   0  0  0  0  0  0  0  0  0  0  0  0
    2.7412   -1.2641   -0.1281 N   0  0  0  0  0  2  0  0  0  0  0  0
    2.7413    1.2640    0.1281 N   0  0  0  0  0  2  0  0  0  0  0  0
    0.0914   -2.5245   -0.0529 C   0  0  0  0  0  0  0  0  0  0  0  0
   -1.1241   -3.3117    0.0822 C   0  0  0  0  0  0  0  0  0  0  0  0
   -1.0986   -4.6885   -0.1309 C   0  0  0  0  0  0  0  0  0  0  0  0
   -2.0260   -5.2719   -0.0567 H   0  0  0  0  0  0  0  0  0  0  0  0
    0.1142   -5.3665   -0.4427 C   0  0  0  0  0  0  0  0  0  0  0  0
    0.0950   -6.4539   -0.6054 H   0  0  0  0  0  0  0  0  0  0  0  0
    1.2984   -4.6638   -0.5216 C   0  0  0  0  0  3  0  0  0  0  0  0
    2.2484   -5.1778   -0.7350 H   0  0  0  0  0  0  0  0  0  0  0  0
    1.3153   -3.2454   -0.3146 C   0  0  0  0  0  0  0  0  0  0  0  0
    2.5552   -2.5626   -0.3247 C   0  0  0  0  0  0  0  0  0  0  0  0
    3.4498   -3.1874   -0.4961 H   0  0  0  0  0  0  0  0  0  0  0  0
    4.0353   -0.7066   -0.0665 C   0  0  0  0  0  0  0  0  0  0  0  0
    5.2581   -1.4057   -0.1157 C   0  0  0  0  0  0  0  0  0  0  0  0
    5.2765   -2.5012   -0.1953 H   0  0  0  0  0  0  0  0  0  0  0  0
    6.4663   -0.7018   -0.0552 C   0  0  0  0  0  0  0  0  0  0  0  0
    7.4177   -1.2523   -0.0955 H   0  0  0  0  0  0  0  0  0  0  0  0
    6.4664    0.7012    0.0568 C   0  0  0  0  0  0  0  0  0  0  0  0
    7.4178    1.2516    0.0976 H   0  0  0  0  0  0  0  0  0  0  0  0
    5.2582    1.4053    0.1168 C   0  0  0  0  0  0  0  0  0  0  0  0
    5.2768    2.5007    0.1965 H   0  0  0  0  0  0  0  0  0  0  0  0
    4.0354    0.7063    0.0670 C   0  0  0  0  0  0  0  0  0  0  0  0
    2.5554    2.5627    0.3240 C   0  0  0  0  0  0  0  0  0  0  0  0
    3.4501    3.1875    0.4951 H   0  0  0  0  0  0  0  0  0  0  0  0
    1.3155    3.2455    0.3137 C   0  0  0  0  0  0  0  0  0  0  0  0
    1.2988    4.6640    0.5202 C   0  0  0  0  0  0  0  0  0  0  0  0
    2.2488    5.1780    0.7331 H   0  0  0  0  0  0  0  0  0  0  0  0
    0.1146    5.3668    0.4412 C   0  0  0  0  0  0  0  0  0  0  0  0
    0.0955    6.4542    0.6036 H   0  0  0  0  0  0  0  0  0  0  0  0
   -1.0983    4.6887    0.1300 C   0  0  0  0  0  0  0  0  0  0  0  0
   -2.0257    5.2721    0.0557 H   0  0  0  0  0  0  0  0  0  0  0  0
   -1.1239    3.3118   -0.0827 C   0  0  0  0  0  0  0  0  0  0  0  0
    0.0916    2.5246    0.0524 C   0  0  1  0  0  3  0  0  0  0  0  0
   -3.4270    3.3040   -0.6501 C   0  0  0  0  0  0  0  0  0  0  0  0
   -3.2720    4.1073   -1.4090 H   0  0  0  0  0  0  0  0  0  0  0  0
   -3.7802    3.7859    0.2917 H   0  0  0  0  0  0  0  0  0  0  0  0
   -4.4861    2.3486   -1.1558 C   0  0  0  0  0  0  0  0  0  0  0  0
   -5.3568    2.9607   -1.5076 H   0  0  0  0  0  0  0  0  0  0  0  0
   -4.0922    1.7923   -2.0421 H   0  0  0  0  0  0  0  0  0  0  0  0
   -5.8963    0.5822   -0.4841 C   0  0  0  0  0  0  0  0  0  0  0  0
   -5.7511    0.1796   -1.5160 H   0  0  0  0  0  0  0  0  0  0  0  0
   -6.8907    1.0977   -0.4637 H   0  0  0  0  0  0  0  0  0  0  0  0
   -5.8962   -0.5820    0.4852 C   0  0  0  0  0  0  0  0  0  0  0  0
   -5.7505   -0.1795    1.5170 H   0  0  0  0  0  0  0  0  0  0  0  0
   -6.8907   -1.0974    0.4651 H   0  0  0  0  0  0  0  0  0  0  0  0
   -4.4860   -2.3486    1.1564 C   0  0  0  0  0  0  0  0  0  0  0  0
   -5.3566   -2.9608    1.5084 H   0  0  0  0  0  0  0  0  0  0  0  0
   -4.0918   -1.7923    2.0426 H   0  0  0  0  0  0  0  0  0  0  0  0
   -3.4270   -3.3040    0.6503 C   0  0  0  0  0  0  0  0  0  0  0  0
   -3.2719   -4.1074    1.4090 H   0  0  0  0  0  0  0  0  0  0  0  0
   -3.7804   -3.7857   -0.2915 H   0  0  0  0  0  0  0  0  0  0  0  0
  3 39  1  0  0  0  0
  5 50  1  0  0  0  0
  5 53  1  0  0  0  0
  6 56  1  0  0  0  0
  7 20  1  0  0  0  0
  8 30  1  0  0  0  0
  9  1  1  0  0  0  0
  9 10  2  0  0  0  0
 10  6  1  0  0  0  0
 11 12  1  0  0  0  0
 11 10  1  0  0  0  0
 13 11  2  0  0  0  0
 14 13  1  0  0  0  0
 15 13  1  0  0  0  0
 15 17  1  0  0  0  0
 16 15  1  0  0  0  0
 17  9  1  0  0  0  0
 18 17  2  0  0  0  0
 18  7  1  0  0  0  0
 19 18  1  0  0  0  0
 20 29  1  0  0  0  0
 21 20  2  0  0  0  0
 21 23  1  0  0  0  0
 22 21  1  0  0  0  0
 23 25  2  0  0  0  0
 24 23  1  0  0  0  0
 25 26  1  0  0  0  0
 25 27  1  0  0  0  0
 27 28  1  0  0  0  0
 29 27  2  0  0  0  0
 29  8  1  0  0  0  0
 30 31  1  0  0  0  0
 32 30  2  0  0  0  0
 32 33  1  0  0  0  0
 33 34  1  0  0  0  0
 35 33  2  0  0  0  0
 35 36  1  0  0  0  0
 37 35  1  0  0  0  0
 38 37  1  0  0  0  0
 39 40  1  0  0  0  0
 39 37  2  0  0  0  0
 40  2  1  6  0  0  0
 40 32  1  0  0  0  0
 41  3  1  0  0  0  0
 41 43  1  0  0  0  0
 42 41  1  0  0  0  0
 44 41  1  0  0  0  0
 44  4  1  0  0  0  0
 45 44  1  0  0  0  0
 46 44  1  0  0  0  0
 47 49  1  0  0  0  0
 47  4  1  0  0  0  0
 47 50  1  0  0  0  0
 48 47  1  0  0  0  0
 50 51  1  0  0  0  0
 52 50  1  0  0  0  0
 53 54  1  0  0  0  0
 53 55  1  0  0  0  0
 56 53  1  0  0  0  0
 56 57  1  0  0  0  0
 58 56  1  0  0  0  0
M  CHG  1   1  -1
M  END
