1,4,8,11
 OpenBabel05122313063D

 50 53  0  0  0  0  0  0  0  0999 V2000
   -0.9457   -1.0570    0.7018 N   0  0  0  0  0  0  0  0  0  0  0  0
   -0.3833   -1.9187    0.7310 H   0  0  0  0  0  0  0  0  0  0  0  0
   -2.7587    0.9778   -0.3656 C   0  0  0  0  0  0  0  0  0  0  0  0
    0.9431    1.0597    0.6949 N   0  0  0  0  0  0  0  0  0  0  0  0
    0.3800    1.9212    0.7164 H   0  0  0  0  0  0  0  0  0  0  0  0
   -3.6339    2.0904   -0.5804 C   0  0  0  0  0  0  0  0  0  0  0  0
   -3.1865    3.0021   -1.0017 H   0  0  0  0  0  0  0  0  0  0  0  0
   -1.4720    1.1910   -0.7038 O   0  5  0  0  0  0  0  0  0  0  0  0
   -4.9769    2.0066   -0.2872 C   0  0  0  0  0  0  0  0  0  0  0  0
   -5.6404    2.8671   -0.4652 H   0  0  0  0  0  0  0  0  0  0  0  0
    1.4725   -1.2002   -0.6893 O   0  5  0  0  0  0  0  0  0  0  0  0
   -5.5333    0.8024    0.2357 C   0  0  0  0  0  0  0  0  0  0  0  0
   -6.9233    0.6947    0.5217 C   0  0  0  0  0  0  0  0  0  0  0  0
   -7.5635    1.5716    0.3359 H   0  0  0  0  0  0  0  0  0  0  0  0
   -7.4675   -0.4820    1.0150 C   0  0  0  0  0  0  0  0  0  0  0  0
   -8.5444   -0.5523    1.2287 H   0  0  0  0  0  0  0  0  0  0  0  0
   -6.6237   -1.5994    1.2343 C   0  0  0  0  0  0  0  0  0  0  0  0
   -7.0504   -2.5406    1.6136 H   0  0  0  0  0  0  0  0  0  0  0  0
   -5.2623   -1.5233    0.9696 C   0  0  0  0  0  0  0  0  0  0  0  0
   -4.6474   -2.4186    1.1359 H   0  0  0  0  0  0  0  0  0  0  0  0
   -4.6616   -0.3255    0.4708 C   0  0  0  0  0  0  0  0  0  0  0  0
   -3.2529   -0.2194    0.1862 C   0  0  0  0  0  0  0  0  0  0  0  0
   -2.3606   -1.4100    0.4759 C   0  0  0  0  0  0  0  0  0  0  0  0
   -2.7496   -1.9450    1.3705 H   0  0  0  0  0  0  0  0  0  0  0  0
   -2.3805   -2.1235   -0.3745 H   0  0  0  0  0  0  0  0  0  0  0  0
   -0.7101   -0.2738    1.9248 C   0  0  0  0  0  0  0  0  0  0  0  0
   -0.8843   -0.8780    2.8441 H   0  0  0  0  0  0  0  0  0  0  0  0
   -1.4528    0.5503    1.9391 H   0  0  0  0  0  0  0  0  0  0  0  0
    0.7060    0.2860    1.9236 C   0  0  0  0  0  0  0  0  0  0  0  0
    0.8790    0.8973    2.8384 H   0  0  0  0  0  0  0  0  0  0  0  0
    1.4488   -0.5379    1.9452 H   0  0  0  0  0  0  0  0  0  0  0  0
    2.3581    1.4122    0.4688 C   0  0  0  0  0  0  0  0  0  0  0  0
    2.7456    1.9529    1.3607 H   0  0  0  0  0  0  0  0  0  0  0  0
    2.3789    2.1204   -0.3859 H   0  0  0  0  0  0  0  0  0  0  0  0
    3.2517    0.2205    0.1876 C   0  0  0  0  0  0  0  0  0  0  0  0
    4.6606    0.3315    0.4697 C   0  0  0  0  0  0  0  0  0  0  0  0
    5.2595    1.5346    0.9578 C   0  0  0  0  0  0  0  0  0  0  0  0
    4.6430    2.4300    1.1175 H   0  0  0  0  0  0  0  0  0  0  0  0
    6.6211    1.6156    1.2202 C   0  0  0  0  0  0  0  0  0  0  0  0
    7.0465    2.5607    1.5910 H   0  0  0  0  0  0  0  0  0  0  0  0
    7.4668    0.4980    1.0091 C   0  0  0  0  0  0  0  0  0  0  0  0
    8.5439    0.5722    1.2209 H   0  0  0  0  0  0  0  0  0  0  0  0
    6.9243   -0.6838    0.5263 C   0  0  0  0  0  0  0  0  0  0  0  0
    7.5659   -1.5609    0.3470 H   0  0  0  0  0  0  0  0  0  0  0  0
    5.5341   -0.7966    0.2429 C   0  0  0  0  0  0  0  0  0  0  0  0
    4.9794   -2.0061   -0.2693 C   0  0  0  0  0  0  0  0  0  0  0  0
    5.6443   -2.8668   -0.4410 H   0  0  0  0  0  0  0  0  0  0  0  0
    3.6363   -2.0948   -0.5605 C   0  0  0  0  0  0  0  0  0  0  0  0
    3.1901   -3.0107   -0.9738 H   0  0  0  0  0  0  0  0  0  0  0  0
    2.7593   -0.9820   -0.3540 C   0  0  0  0  0  0  0  0  0  0  0  0
  1  2  1  0  0  0  0
  1 26  1  0  0  0  0
  3 22  1  0  0  0  0
  4  5  1  0  0  0  0
  4 29  1  0  0  0  0
  6  3  2  0  0  0  0
  6  9  1  0  0  0  0
  7  6  1  0  0  0  0
  8  3  1  0  0  0  0
  9 12  2  0  0  0  0
 10  9  1  0  0  0  0
 11 50  1  0  0  0  0
 12 21  1  0  0  0  0
 12 13  1  0  0  0  0
 13 15  2  0  0  0  0
 14 13  1  0  0  0  0
 15 16  1  0  0  0  0
 15 17  1  0  0  0  0
 17 18  1  0  0  0  0
 19 20  1  0  0  0  0
 19 17  2  0  0  0  0
 21 19  1  0  0  0  0
 22 21  2  0  0  0  0
 22 23  1  0  0  0  0
 23  1  1  0  0  0  0
 23 24  1  0  0  0  0
 25 23  1  0  0  0  0
 26 28  1  0  0  0  0
 26 27  1  0  0  0  0
 29 26  1  0  0  0  0
 29 31  1  0  0  0  0
 29 30  1  0  0  0  0
 32  4  1  0  0  0  0
 32 33  1  0  0  0  0
 34 32  1  0  0  0  0
 35 32  1  0  0  0  0
 35 36  1  0  0  0  0
 36 37  1  0  0  0  0
 37 38  1  0  0  0  0
 37 39  2  0  0  0  0
 39 40  1  0  0  0  0
 41 39  1  0  0  0  0
 41 42  1  0  0  0  0
 43 41  2  0  0  0  0
 44 43  1  0  0  0  0
 45 36  2  0  0  0  0
 45 43  1  0  0  0  0
 46 45  1  0  0  0  0
 47 46  1  0  0  0  0
 48 50  1  0  0  0  0
 48 46  2  0  0  0  0
 49 48  1  0  0  0  0
 50 35  2  0  0  0  0
M  CHG  2   8  -1  11  -1
M  END
