1,4,7,10
 OpenBabel05122313063D

 68 69  0  0  0  0  0  0  0  0999 V2000
    0.1144    0.5043    1.4180 N   0  0  0  0  0  0  0  0  0  0  0  0
    0.9644    0.2630    1.9446 H   0  0  0  0  0  0  0  0  0  0  0  0
   -2.7238   -0.0483    0.5818 C   0  0  0  0  0  0  0  0  0  0  0  0
   -0.1148    0.5052   -1.4170 N   0  0  0  0  0  0  0  0  0  0  0  0
   -0.9649    0.2642   -1.9435 H   0  0  0  0  0  0  0  0  0  0  0  0
   -3.9629    0.1687   -0.0949 C   0  0  0  0  0  0  0  0  0  0  0  0
   -1.9005   -1.0211    0.1689 O   0  5  0  0  0  0  0  0  0  0  0  0
   -4.7688    1.2247    0.3689 C   0  0  0  0  0  0  0  0  0  0  0  0
   -5.7278    1.4191   -0.1313 H   0  0  0  0  0  0  0  0  0  0  0  0
    1.9003   -1.0205   -0.1689 O   0  5  0  0  0  0  0  0  0  0  0  0
   -4.4135    2.0616    1.4464 C   0  0  0  0  0  0  0  0  0  0  0  0
   -3.1871    1.8183    2.0864 C   0  0  0  0  0  0  0  0  0  0  0  0
   -2.8730    2.4561    2.9295 H   0  0  0  0  0  0  0  0  0  0  0  0
   -2.3467    0.7732    1.6764 C   0  0  0  0  0  0  0  0  0  0  0  0
   -4.3958   -0.7341   -1.2665 C   0  0  0  0  0  0  0  0  0  0  0  0
   -5.7515   -0.2962   -1.8508 C   0  0  0  0  0  0  0  0  0  0  0  0
   -6.5631   -0.3418   -1.0972 H   0  0  0  0  0  0  0  0  0  0  0  0
   -6.0314   -0.9769   -2.6796 H   0  0  0  0  0  0  0  0  0  0  0  0
   -5.7170    0.7337   -2.2615 H   0  0  0  0  0  0  0  0  0  0  0  0
   -3.3538   -0.6824   -2.4117 C   0  0  0  0  0  0  0  0  0  0  0  0
   -3.1603    0.3668   -2.7228 H   0  0  0  0  0  0  0  0  0  0  0  0
   -3.7394   -1.2234   -3.3000 H   0  0  0  0  0  0  0  0  0  0  0  0
   -2.4052   -1.1729   -2.1215 H   0  0  0  0  0  0  0  0  0  0  0  0
   -4.5354   -2.1908   -0.7642 C   0  0  0  0  0  0  0  0  0  0  0  0
   -3.5799   -2.5657   -0.3526 H   0  0  0  0  0  0  0  0  0  0  0  0
   -4.8383   -2.8555   -1.5997 H   0  0  0  0  0  0  0  0  0  0  0  0
   -5.3100   -2.2584    0.0261 H   0  0  0  0  0  0  0  0  0  0  0  0
   -5.3381    3.1616    1.9053 C   0  0  0  0  0  0  0  0  0  0  0  0
   -4.8115    3.9002    2.5411 H   0  0  0  0  0  0  0  0  0  0  0  0
   -6.1829    2.7563    2.5032 H   0  0  0  0  0  0  0  0  0  0  0  0
   -5.7850    3.7050    1.0479 H   0  0  0  0  0  0  0  0  0  0  0  0
   -1.0292    0.5162    2.3625 C   0  0  0  0  0  0  0  0  0  0  0  0
   -1.0315   -0.4797    2.8534 H   0  0  0  0  0  0  0  0  0  0  0  0
   -0.8732    1.2862    3.1513 H   0  0  0  0  0  0  0  0  0  0  0  0
    0.3452    1.7664    0.6872 C   0  0  0  0  0  0  0  0  0  0  0  0
   -0.0189    2.6391    1.2741 H   0  0  0  0  0  0  0  0  0  0  0  0
    1.4366    1.8867    0.5540 H   0  0  0  0  0  0  0  0  0  0  0  0
   -0.3453    1.7669   -0.6854 C   0  0  0  0  0  0  0  0  0  0  0  0
   -1.4367    1.8873   -0.5521 H   0  0  0  0  0  0  0  0  0  0  0  0
    0.0189    2.6399   -1.2718 H   0  0  0  0  0  0  0  0  0  0  0  0
    1.0286    0.5176   -2.3618 C   0  0  0  0  0  0  0  0  0  0  0  0
    1.0307   -0.4779   -2.8533 H   0  0  0  0  0  0  0  0  0  0  0  0
    0.8724    1.2881   -3.1501 H   0  0  0  0  0  0  0  0  0  0  0  0
    2.3463    0.7742   -1.6759 C   0  0  0  0  0  0  0  0  0  0  0  0
    3.1868    1.8193   -2.0859 C   0  0  0  0  0  0  0  0  0  0  0  0
    2.8726    2.4574   -2.9286 H   0  0  0  0  0  0  0  0  0  0  0  0
    4.4134    2.0622   -1.4462 C   0  0  0  0  0  0  0  0  0  0  0  0
    4.7690    1.2247   -0.3691 C   0  0  0  0  0  0  0  0  0  0  0  0
    5.7283    1.4187    0.1308 H   0  0  0  0  0  0  0  0  0  0  0  0
    3.9631    0.1688    0.0946 C   0  0  0  0  0  0  0  0  0  0  0  0
    2.7236   -0.0477   -0.5817 C   0  0  0  0  0  0  0  0  0  0  0  0
    4.3961   -0.7346    1.2657 C   0  0  0  0  0  0  0  0  0  0  0  0
    4.5352   -2.1912    0.7627 C   0  0  0  0  0  0  0  0  0  0  0  0
    3.5795   -2.5657    0.3512 H   0  0  0  0  0  0  0  0  0  0  0  0
    4.8382   -2.8562    1.5978 H   0  0  0  0  0  0  0  0  0  0  0  0
    5.3096   -2.2586   -0.0279 H   0  0  0  0  0  0  0  0  0  0  0  0
    5.7521   -0.2973    1.8497 C   0  0  0  0  0  0  0  0  0  0  0  0
    6.0321   -0.9783    2.6781 H   0  0  0  0  0  0  0  0  0  0  0  0
    5.7180    0.7325    2.2608 H   0  0  0  0  0  0  0  0  0  0  0  0
    6.5635   -0.3428    1.0959 H   0  0  0  0  0  0  0  0  0  0  0  0
    3.3546   -0.6832    2.4112 C   0  0  0  0  0  0  0  0  0  0  0  0
    2.4057   -1.1735    2.1212 H   0  0  0  0  0  0  0  0  0  0  0  0
    3.1612    0.3660    2.7227 H   0  0  0  0  0  0  0  0  0  0  0  0
    3.7404   -1.2246    3.2992 H   0  0  0  0  0  0  0  0  0  0  0  0
    5.3378    3.1627   -1.9041 C   0  0  0  0  0  0  0  0  0  0  0  0
    6.1907    2.7566   -2.4898 H   0  0  0  0  0  0  0  0  0  0  0  0
    5.7733    3.7148   -1.0463 H   0  0  0  0  0  0  0  0  0  0  0  0
    4.8145    3.8940   -2.5508 H   0  0  0  0  0  0  0  0  0  0  0  0
  1  2  1  0  0  0  0
  1 32  1  0  0  0  0
  3 14  1  0  0  0  0
  4 38  1  0  0  0  0
  5  4  1  0  0  0  0
  6  8  1  0  0  0  0
  6  3  2  0  0  0  0
  7  3  1  0  0  0  0
  8 11  2  0  0  0  0
  9  8  1  0  0  0  0
 11 28  1  0  0  0  0
 11 12  1  0  0  0  0
 12 13  1  0  0  0  0
 14 12  2  0  0  0  0
 14 32  1  0  0  0  0
 15 24  1  0  0  0  0
 15  6  1  0  0  0  0
 16 15  1  0  0  0  0
 16 17  1  0  0  0  0
 18 16  1  0  0  0  0
 19 16  1  0  0  0  0
 20 23  1  0  0  0  0
 20 15  1  0  0  0  0
 21 20  1  0  0  0  0
 22 20  1  0  0  0  0
 24 25  1  0  0  0  0
 24 27  1  0  0  0  0
 26 24  1  0  0  0  0
 28 30  1  0  0  0  0
 28 29  1  0  0  0  0
 31 28  1  0  0  0  0
 32 33  1  0  0  0  0
 32 34  1  0  0  0  0
 35 36  1  0  0  0  0
 35  1  1  0  0  0  0
 37 35  1  0  0  0  0
 38 39  1  0  0  0  0
 38 35  1  0  0  0  0
 40 38  1  0  0  0  0
 41 44  1  0  0  0  0
 41  4  1  0  0  0  0
 42 41  1  0  0  0  0
 43 41  1  0  0  0  0
 44 51  1  0  0  0  0
 45 44  2  0  0  0  0
 45 47  1  0  0  0  0
 46 45  1  0  0  0  0
 47 48  2  0  0  0  0
 48 50  1  0  0  0  0
 48 49  1  0  0  0  0
 50 52  1  0  0  0  0
 51 10  1  0  0  0  0
 51 50  2  0  0  0  0
 52 57  1  0  0  0  0
 52 61  1  0  0  0  0
 53 52  1  0  0  0  0
 53 55  1  0  0  0  0
 54 53  1  0  0  0  0
 56 53  1  0  0  0  0
 57 59  1  0  0  0  0
 57 58  1  0  0  0  0
 60 57  1  0  0  0  0
 61 63  1  0  0  0  0
 61 64  1  0  0  0  0
 62 61  1  0  0  0  0
 65 47  1  0  0  0  0
 65 67  1  0  0  0  0
 66 65  1  0  0  0  0
 68 65  1  0  0  0  0
M  CHG  2   7  -1  10  -1
M  END
