1,2,77,78
 OpenBabel05122313063D

 78 80  0  0  1  0  0  0  0  0999 V2000
    0.2542    1.1979   -0.9440 N   0  0  0  0  0  0  0  0  0  0  0  0
   -0.5480   -0.4373    1.1762 N   0  0  0  0  0  2  0  0  0  0  0  0
    7.2043    2.4587   -1.2807 C   0  0  0  0  0  0  0  0  0  0  0  0
    8.0551    3.1704   -1.2679 H   0  0  0  0  0  0  0  0  0  0  0  0
    6.7250    2.5138   -2.2792 H   0  0  0  0  0  0  0  0  0  0  0  0
    7.6135    1.4340   -1.1688 H   0  0  0  0  0  0  0  0  0  0  0  0
    6.1930    2.7714   -0.1669 C   0  0  0  0  0  0  0  0  0  0  0  0
    5.8190    3.8103   -0.2885 H   0  0  0  0  0  0  0  0  0  0  0  0
    6.7084    2.7395    0.8170 H   0  0  0  0  0  0  0  0  0  0  0  0
    5.0229    1.8134   -0.1524 C   0  0  0  0  0  0  0  0  0  0  0  0
    3.8360    2.1004   -0.8418 C   0  0  0  0  0  0  0  0  0  0  0  0
    3.7264    3.0680   -1.3598 H   0  0  0  0  0  0  0  0  0  0  0  0
    2.7748    1.1806   -0.8919 C   0  0  0  0  0  0  0  0  0  0  0  0
    2.8965   -0.0635   -0.2157 C   0  0  0  0  0  0  0  0  0  0  0  0
    5.1105    0.5778    0.5202 C   0  0  0  0  0  0  0  0  0  0  0  0
    6.0354    0.3638    1.0744 H   0  0  0  0  0  0  0  0  0  0  0  0
    4.0777   -0.3747    0.5282 C   0  0  0  0  0  0  0  0  0  0  0  0
    4.1943   -1.6990    1.3066 C   0  0  0  0  0  0  0  0  0  0  0  0
    4.0715   -2.8969    0.3348 C   0  0  0  0  0  0  0  0  0  0  0  0
    3.0929   -2.9099   -0.1785 H   0  0  0  0  0  0  0  0  0  0  0  0
    4.1804   -3.8491    0.8942 H   0  0  0  0  0  0  0  0  0  0  0  0
    4.8695   -2.8595   -0.4343 H   0  0  0  0  0  0  0  0  0  0  0  0
    5.5486   -1.8166    2.0299 C   0  0  0  0  0  0  0  0  0  0  0  0
    5.5888   -2.7797    2.5770 H   0  0  0  0  0  0  0  0  0  0  0  0
    5.6988   -1.0060    2.7718 H   0  0  0  0  0  0  0  0  0  0  0  0
    6.4015   -1.8019    1.3214 H   0  0  0  0  0  0  0  0  0  0  0  0
    3.0795   -1.7700    2.3787 C   0  0  0  0  0  0  0  0  0  0  0  0
    2.0747   -1.7413    1.9192 H   0  0  0  0  0  0  0  0  0  0  0  0
    3.1668   -0.9244    3.0918 H   0  0  0  0  0  0  0  0  0  0  0  0
    3.1689   -2.7137    2.9556 H   0  0  0  0  0  0  0  0  0  0  0  0
    1.5231    1.5316   -1.6559 C   0  0  0  0  0  0  0  0  0  0  0  0
    1.5378    2.6232   -1.8831 H   0  0  0  0  0  0  0  0  0  0  0  0
    1.4779    0.9901   -2.6232 H   0  0  0  0  0  0  0  0  0  0  0  0
    0.2265    1.7379    0.4266 C   0  0  0  0  0  0  0  0  0  0  0  0
   -0.1236    2.7940    0.4402 H   0  0  0  0  0  0  0  0  0  0  0  0
    1.2713    1.7371    0.8065 H   0  0  0  0  0  0  0  0  0  0  0  0
   -0.5961    0.8978    1.3708 C   0  0  2  0  0  3  0  0  0  0  0  0
   -1.2885    1.4530    2.4593 C   0  0  0  0  0  0  0  0  0  0  0  0
   -1.3431    2.5453    2.5712 H   0  0  0  0  0  0  0  0  0  0  0  0
   -1.9054    0.5978    3.3793 C   0  0  0  0  0  0  0  0  0  0  0  0
   -2.4606    1.0113    4.2347 H   0  0  0  0  0  0  0  0  0  0  0  0
   -1.8055   -0.7892    3.1941 C   0  0  0  0  0  0  0  0  0  0  0  0
   -2.2621   -1.4980    3.8988 H   0  0  0  0  0  0  0  0  0  0  0  0
   -1.1250   -1.2652    2.0681 C   0  0  0  0  0  0  0  0  0  0  0  0
   -1.0350   -2.3387    1.8428 H   0  0  0  0  0  0  0  0  0  0  0  0
   -0.8968    1.7168   -1.7356 C   0  0  0  0  0  0  0  0  0  0  0  0
   -0.8446    1.2205   -2.7268 H   0  0  0  0  0  0  0  0  0  0  0  0
   -0.7586    2.8121   -1.8940 H   0  0  0  0  0  0  0  0  0  0  0  0
   -2.2284    1.4637   -1.0882 C   0  0  0  0  0  0  0  0  0  0  0  0
   -3.0571    2.5088   -0.6549 C   0  0  0  0  0  0  0  0  0  0  0  0
   -2.7082    3.5507   -0.7546 H   0  0  0  0  0  0  0  0  0  0  0  0
   -4.3189    2.2407   -0.1026 C   0  0  0  0  0  0  0  0  0  0  0  0
   -4.7514    0.8982   -0.0641 C   0  0  0  0  0  0  0  0  0  0  0  0
   -5.7626    0.7031    0.3206 H   0  0  0  0  0  0  0  0  0  0  0  0
   -2.6492    0.1143   -0.9497 C   0  0  0  0  0  0  0  0  0  0  0  0
   -3.9695   -0.1885   -0.4954 C   0  0  0  0  0  0  0  0  0  0  0  0
   -4.5247   -1.6239   -0.5566 C   0  0  0  0  0  0  0  0  0  0  0  0
   -5.9905   -1.6873   -0.0906 C   0  0  0  0  0  0  0  0  0  0  0  0
   -6.6534   -1.0494   -0.7094 H   0  0  0  0  0  0  0  0  0  0  0  0
   -6.1043   -1.3810    0.9695 H   0  0  0  0  0  0  0  0  0  0  0  0
   -6.3576   -2.7297   -0.1756 H   0  0  0  0  0  0  0  0  0  0  0  0
   -4.4654   -2.1087   -2.0257 C   0  0  0  0  0  0  0  0  0  0  0  0
   -3.4254   -2.1142   -2.4026 H   0  0  0  0  0  0  0  0  0  0  0  0
   -5.0740   -1.4531   -2.6811 H   0  0  0  0  0  0  0  0  0  0  0  0
   -4.8671   -3.1403   -2.1024 H   0  0  0  0  0  0  0  0  0  0  0  0
   -3.7037   -2.5830    0.3329 C   0  0  0  0  0  0  0  0  0  0  0  0
   -2.6506   -2.6515    0.0040 H   0  0  0  0  0  0  0  0  0  0  0  0
   -4.1392   -3.6026    0.2853 H   0  0  0  0  0  0  0  0  0  0  0  0
   -3.7287   -2.2527    1.3909 H   0  0  0  0  0  0  0  0  0  0  0  0
   -5.1707    3.3457    0.4800 C   0  0  0  0  0  0  0  0  0  0  0  0
   -5.0024    4.2857   -0.0874 H   0  0  0  0  0  0  0  0  0  0  0  0
   -6.2449    3.0935    0.3537 H   0  0  0  0  0  0  0  0  0  0  0  0
   -4.8780    3.5900    1.9690 C   0  0  0  0  0  0  0  0  0  0  0  0
   -5.5175    4.3950    2.3856 H   0  0  0  0  0  0  0  0  0  0  0  0
   -3.8183    3.8826    2.1209 H   0  0  0  0  0  0  0  0  0  0  0  0
   -5.0535    2.6693    2.5628 H   0  0  0  0  0  0  0  0  0  0  0  0
    1.8925   -0.9486   -0.2331 O   0  5  0  0  0  0  0  0  0  0  0  0
   -1.7856   -0.8522   -1.2731 O   0  5  0  0  0  0  0  0  0  0  0  0
  1 34  1  0  0  0  0
  2 37  1  0  0  0  0
  2 44  1  0  0  0  0
  3  4  1  0  0  0  0
  3  6  1  0  0  0  0
  3  7  1  0  0  0  0
  5  3  1  0  0  0  0
  7 10  1  0  0  0  0
  7  9  1  0  0  0  0
  8  7  1  0  0  0  0
 10 15  1  0  0  0  0
 11 10  2  0  0  0  0
 12 11  1  0  0  0  0
 13 11  1  0  0  0  0
 13 14  2  0  0  0  0
 14 17  1  0  0  0  0
 15 17  2  0  0  0  0
 15 16  1  0  0  0  0
 17 18  1  0  0  0  0
 18 23  1  0  0  0  0
 18 27  1  0  0  0  0
 19 21  1  0  0  0  0
 19 18  1  0  0  0  0
 20 19  1  0  0  0  0
 22 19  1  0  0  0  0
 23 24  1  0  0  0  0
 23 25  1  0  0  0  0
 26 23  1  0  0  0  0
 27 30  1  0  0  0  0
 27 29  1  0  0  0  0
 28 27  1  0  0  0  0
 31  1  1  0  0  0  0
 31 13  1  0  0  0  0
 32 31  1  0  0  0  0
 33 31  1  0  0  0  0
 34 35  1  0  0  0  0
 34 36  1  0  0  0  0
 37 34  1  1  0  0  0
 37 38  1  0  0  0  0
 38 39  1  0  0  0  0
 38 40  2  0  0  0  0
 40 41  1  0  0  0  0
 42 40  1  0  0  0  0
 42 43  1  0  0  0  0
 44 42  2  0  0  0  0
 45 44  1  0  0  0  0
 46 49  1  0  0  0  0
 46  1  1  0  0  0  0
 47 46  1  0  0  0  0
 48 46  1  0  0  0  0
 49 55  2  0  0  0  0
 49 50  1  0  0  0  0
 50 52  2  0  0  0  0
 51 50  1  0  0  0  0
 52 53  1  0  0  0  0
 52 70  1  0  0  0  0
 53 54  1  0  0  0  0
 55 56  1  0  0  0  0
 56 53  2  0  0  0  0
 57 56  1  0  0  0  0
 57 58  1  0  0  0  0
 57 66  1  0  0  0  0
 58 60  1  0  0  0  0
 59 58  1  0  0  0  0
 61 58  1  0  0  0  0
 62 57  1  0  0  0  0
 63 62  1  0  0  0  0
 64 62  1  0  0  0  0
 65 62  1  0  0  0  0
 66 69  1  0  0  0  0
 67 66  1  0  0  0  0
 68 66  1  0  0  0  0
 70 73  1  0  0  0  0
 71 70  1  0  0  0  0
 72 70  1  0  0  0  0
 73 75  1  0  0  0  0
 73 74  1  0  0  0  0
 73 76  1  0  0  0  0
 77 14  1  0  0  0  0
 78 55  1  0  0  0  0
M  CHG  2  77  -1  78  -1
M  END
