1,2,3,4
 OpenBabel05122313063D

 74 79  0  0  1  0  0  0  0  0999 V2000
   -0.6813    2.7482    0.2816 O   0  5  0  0  0  0  0  0  0  0  0  0
    1.6055    2.6410   -1.0424 O   0  5  0  0  0  0  0  0  0  0  0  0
   -1.2460    0.2125   -0.3164 N   0  0  0  0  0  2  0  0  0  0  0  0
    1.2714    0.0991   -0.0622 N   0  0  0  0  0  2  0  0  0  0  0  0
   -2.9449    1.8491    0.2278 C   0  0  0  0  0  0  0  0  0  0  0  0
   -1.9862    2.8774    0.5004 C   0  0  0  0  0  0  0  0  0  0  0  0
   -2.4349    4.1215    1.0058 C   0  0  0  0  0  0  0  0  0  0  0  0
   -3.7991    4.3799    1.1633 C   0  0  0  0  0  0  0  0  0  0  0  0
   -4.7517    3.3937    0.8461 C   0  0  0  0  0  0  0  0  0  0  0  0
   -4.3202    2.1428    0.3971 C   0  0  0  0  0  0  0  0  0  0  0  0
   -2.5034    0.4862   -0.0675 C   0  0  2  0  0  3  0  0  0  0  0  0
   -3.5287   -0.6028   -0.0241 C   0  0  0  0  0  0  0  0  0  0  0  0
   -4.0152   -1.1203   -1.2410 C   0  0  0  0  0  0  0  0  0  0  0  0
   -4.9874   -2.1319   -1.2346 C   0  0  0  0  0  0  0  0  0  0  0  0
   -5.4647   -2.6426   -0.0172 C   0  0  0  0  0  0  0  0  0  0  0  0
   -4.9773   -2.1318    1.1980 C   0  0  0  0  0  0  0  0  0  0  0  0
   -4.0201   -1.1067    1.1973 C   0  0  0  0  0  0  0  0  0  0  0  0
   -0.7728   -1.1856   -0.2365 C   0  0  1  0  0  0  0  0  0  0  0  0
   -0.6491   -1.9745   -1.5345 C   0  0  0  0  0  0  0  0  0  0  0  0
    0.3214   -1.6998   -2.5197 C   0  0  0  0  0  0  0  0  0  0  0  0
    0.4341   -2.5168   -3.6539 C   0  0  0  0  0  0  0  0  0  0  0  0
   -0.4149   -3.6217   -3.8247 C   0  0  0  0  0  0  0  0  0  0  0  0
   -1.3748   -3.9124   -2.8441 C   0  0  0  0  0  0  0  0  0  0  0  0
   -1.4846   -3.0963   -1.7082 C   0  0  0  0  0  0  0  0  0  0  0  0
    3.4481    1.2002   -0.4322 C   0  0  0  0  0  0  0  0  0  0  0  0
    2.8842    2.4335   -0.9536 C   0  0  0  0  0  0  0  0  0  0  0  0
    3.7697    3.4735   -1.3782 C   0  0  0  0  0  0  0  0  0  0  0  0
    5.1438    3.3240   -1.2954 C   0  0  0  0  0  0  0  0  0  0  0  0
    5.7046    2.1227   -0.7822 C   0  0  0  0  0  0  0  0  0  0  0  0
    4.8766    1.0951   -0.3626 C   0  0  0  0  0  0  0  0  0  0  0  0
    2.6246    0.1190    0.0185 C   0  0  2  0  0  3  0  0  0  0  0  0
    3.3108   -1.0835    0.5996 C   0  0  0  0  0  0  0  0  0  0  0  0
    3.6713   -2.1646   -0.2317 C   0  0  0  0  0  0  0  0  0  0  0  0
    4.2937   -3.2975    0.3128 C   0  0  0  0  0  0  0  0  0  0  0  0
    4.5638   -3.3597    1.6898 C   0  0  0  0  0  0  0  0  0  0  0  0
    4.2126   -2.2839    2.5200 C   0  0  0  0  0  0  0  0  0  0  0  0
    3.5884   -1.1497    1.9791 C   0  0  0  0  0  0  0  0  0  0  0  0
    0.5664   -1.0651    0.5178 C   0  0  2  0  0  0  0  0  0  0  0  0
    0.3474   -0.9347    2.0185 C   0  0  0  0  0  0  0  0  0  0  0  0
    0.1093    0.3072    2.6374 C   0  0  0  0  0  0  0  0  0  0  0  0
   -0.1520    0.3741    4.0150 C   0  0  0  0  0  0  0  0  0  0  0  0
   -0.1795   -0.7959    4.7899 C   0  0  0  0  0  0  0  0  0  0  0  0
    0.0611   -2.0377    4.1793 C   0  0  0  0  0  0  0  0  0  0  0  0
    0.3233   -2.1040    2.8038 C   0  0  0  0  0  0  0  0  0  0  0  0
   -1.6716    4.8812    1.2271 H   0  0  0  0  0  0  0  0  0  0  0  0
   -4.1249    5.3662    1.5283 H   0  0  0  0  0  0  0  0  0  0  0  0
   -5.8261    3.5986    0.9581 H   0  0  0  0  0  0  0  0  0  0  0  0
   -5.0567    1.3580    0.1728 H   0  0  0  0  0  0  0  0  0  0  0  0
   -3.6166   -0.7238   -2.1869 H   0  0  0  0  0  0  0  0  0  0  0  0
   -5.3661   -2.5296   -2.1883 H   0  0  0  0  0  0  0  0  0  0  0  0
   -6.2219   -3.4413   -0.0137 H   0  0  0  0  0  0  0  0  0  0  0  0
   -5.3490   -2.5318    2.1535 H   0  0  0  0  0  0  0  0  0  0  0  0
   -3.6384   -0.6955    2.1444 H   0  0  0  0  0  0  0  0  0  0  0  0
   -1.4684   -1.7576    0.4078 H   0  0  0  0  0  0  0  0  0  0  0  0
    0.9846   -0.8331   -2.4119 H   0  0  0  0  0  0  0  0  0  0  0  0
    1.1923   -2.2801   -4.4160 H   0  0  0  0  0  0  0  0  0  0  0  0
   -0.3246   -4.2575   -4.7187 H   0  0  0  0  0  0  0  0  0  0  0  0
   -2.0411   -4.7811   -2.9588 H   0  0  0  0  0  0  0  0  0  0  0  0
   -2.2343   -3.3337   -0.9378 H   0  0  0  0  0  0  0  0  0  0  0  0
    3.3031    4.3887   -1.7698 H   0  0  0  0  0  0  0  0  0  0  0  0
    5.8049    4.1388   -1.6289 H   0  0  0  0  0  0  0  0  0  0  0  0
    6.7966    2.0075   -0.7181 H   0  0  0  0  0  0  0  0  0  0  0  0
    5.3163    0.1694    0.0337 H   0  0  0  0  0  0  0  0  0  0  0  0
    3.4506   -2.1137   -1.3090 H   0  0  0  0  0  0  0  0  0  0  0  0
    4.5691   -4.1370   -0.3434 H   0  0  0  0  0  0  0  0  0  0  0  0
    5.0516   -4.2495    2.1161 H   0  0  0  0  0  0  0  0  0  0  0  0
    4.4212   -2.3270    3.5996 H   0  0  0  0  0  0  0  0  0  0  0  0
    3.3035   -0.3083    2.6275 H   0  0  0  0  0  0  0  0  0  0  0  0
    1.1449   -1.9910    0.3369 H   0  0  0  0  0  0  0  0  0  0  0  0
    0.1325    1.2306    2.0407 H   0  0  0  0  0  0  0  0  0  0  0  0
   -0.3354    1.3528    4.4841 H   0  0  0  0  0  0  0  0  0  0  0  0
   -0.3818   -0.7403    5.8704 H   0  0  0  0  0  0  0  0  0  0  0  0
    0.0531   -2.9602    4.7798 H   0  0  0  0  0  0  0  0  0  0  0  0
    0.5266   -3.0771    2.3288 H   0  0  0  0  0  0  0  0  0  0  0  0
  1  6  1  0  0  0  0
  2 26  1  0  0  0  0
  3 18  1  0  0  0  0
  4 38  1  0  0  0  0
  5 10  2  0  0  0  0
  5  6  1  0  0  0  0
  6  7  2  0  0  0  0
  7  8  1  0  0  0  0
  7 45  1  0  0  0  0
  8 46  1  0  0  0  0
  9 47  1  0  0  0  0
  9  8  2  0  0  0  0
 10  9  1  0  0  0  0
 11  3  1  1  0  0  0
 11 12  1  0  0  0  0
 11  5  1  0  0  0  0
 12 17  1  0  0  0  0
 13 14  1  0  0  0  0
 13 12  2  0  0  0  0
 14 15  2  0  0  0  0
 15 51  1  0  0  0  0
 15 16  1  0  0  0  0
 16 52  1  0  0  0  0
 17 16  2  0  0  0  0
 17 53  1  0  0  0  0
 18 54  1  1  0  0  0
 18 38  1  0  0  0  0
 19 18  1  0  0  0  0
 20 55  1  0  0  0  0
 20 19  2  0  0  0  0
 21 20  1  0  0  0  0
 22 21  2  0  0  0  0
 22 23  1  0  0  0  0
 23 24  2  0  0  0  0
 24 19  1  0  0  0  0
 24 59  1  0  0  0  0
 25 30  1  0  0  0  0
 25 31  1  0  0  0  0
 26 25  2  0  0  0  0
 27 28  2  0  0  0  0
 27 26  1  0  0  0  0
 28 29  1  0  0  0  0
 29 62  1  0  0  0  0
 29 30  2  0  0  0  0
 30 63  1  0  0  0  0
 31  4  1  6  0  0  0
 31 32  1  0  0  0  0
 32 37  1  0  0  0  0
 33 34  1  0  0  0  0
 33 32  2  0  0  0  0
 34 35  2  0  0  0  0
 35 66  1  0  0  0  0
 35 36  1  0  0  0  0
 36 67  1  0  0  0  0
 37 36  2  0  0  0  0
 37 68  1  0  0  0  0
 38 69  1  6  0  0  0
 38 39  1  0  0  0  0
 39 40  2  0  0  0  0
 39 44  1  0  0  0  0
 40 41  1  0  0  0  0
 41 71  1  0  0  0  0
 41 42  2  0  0  0  0
 42 72  1  0  0  0  0
 43 73  1  0  0  0  0
 43 42  1  0  0  0  0
 44 43  2  0  0  0  0
 48 10  1  0  0  0  0
 49 13  1  0  0  0  0
 50 14  1  0  0  0  0
 56 21  1  0  0  0  0
 57 22  1  0  0  0  0
 58 23  1  0  0  0  0
 60 27  1  0  0  0  0
 61 28  1  0  0  0  0
 64 33  1  0  0  0  0
 65 34  1  0  0  0  0
 70 40  1  0  0  0  0
 74 44  1  0  0  0  0
M  CHG  2   1  -1   2  -1
M  END
