1,2,3,4
 OpenBabel05122313063D

 83 84  0  0  1  0  0  0  0  0999 V2000
   -1.9477    0.4737   -0.3506 O   0  0  0  0  0  1  0  0  0  0  0  0
    1.9499   -0.5790   -0.0888 O   0  5  0  0  0  0  0  0  0  0  0  0
   -0.4807   -1.9443    0.3643 N   0  0  0  0  0  2  0  0  0  0  0  0
    0.4823    1.8916   -0.5841 N   0  0  0  0  0  2  0  0  0  0  0  0
   -6.6556    0.0615   -0.9669 N   0  0  0  0  0  0  0  0  0  0  0  0
    6.6456   -0.5224   -0.9047 N   0  0  0  0  0  0  0  0  0  0  0  0
   -2.9045   -1.7482   -0.0669 C   0  0  0  0  0  0  0  0  0  0  0  0
   -2.9799   -0.3369   -0.3573 C   0  0  1  0  0  3  0  0  0  0  0  0
   -4.2455    0.2340   -0.6430 C   0  0  0  0  0  0  0  0  0  0  0  0
   -5.4371   -0.5225   -0.6729 C   0  0  0  0  0  0  0  0  0  0  0  0
   -5.3451   -1.9287   -0.3909 C   0  0  0  0  0  0  0  0  0  0  0  0
   -4.1176   -2.4931   -0.0972 C   0  0  0  0  0  0  0  0  0  0  0  0
    2.9018    1.5115   -0.8991 C   0  0  0  0  0  0  0  0  0  0  0  0
    2.9793    0.1304   -0.4886 C   0  0  0  0  0  0  0  0  0  0  0  0
    4.2414   -0.5150   -0.5010 C   0  0  0  0  0  0  0  0  0  0  0  0
    5.4286    0.1340   -0.9045 C   0  0  0  0  0  0  0  0  0  0  0  0
    5.3353    1.5085   -1.3132 C   0  0  0  0  0  0  0  0  0  0  0  0
    4.1102    2.1493   -1.2992 C   0  0  0  0  0  3  0  0  0  0  0  0
   -1.7051   -2.4213    0.3098 C   0  0  0  0  0  0  0  0  0  0  0  0
    1.7047    2.2859   -0.8662 C   0  0  0  0  0  0  0  0  0  0  0  0
   -6.7529    1.4659   -1.3434 C   0  0  0  0  0  0  0  0  0  0  0  0
   -6.8677    2.4190   -0.1494 C   0  0  0  0  0  0  0  0  0  0  0  0
   -7.9048   -0.6871   -0.9101 C   0  0  0  0  0  0  0  0  0  0  0  0
   -8.2563   -1.4037   -2.2176 C   0  0  0  0  0  0  0  0  0  0  0  0
    7.8577    0.0977   -1.4247 C   0  0  0  0  0  0  0  0  0  0  0  0
    8.6333    0.9094   -0.3824 C   0  0  0  0  0  0  0  0  0  0  0  0
    6.7770   -1.8797   -0.3911 C   0  0  0  0  0  0  0  0  0  0  0  0
    6.4895   -2.9656   -1.4328 C   0  0  0  0  0  0  0  0  0  0  0  0
   -0.5329    2.9431   -0.4367 C   0  0  0  0  0  0  0  0  0  0  0  0
   -0.5964    3.5511    0.9767 C   0  0  0  0  0  0  0  0  0  0  0  0
   -0.8958    2.5789    2.1349 C   0  0  0  0  0  0  0  0  0  0  0  0
    0.3464    1.9830    2.8161 C   0  0  0  0  0  0  0  0  0  0  0  0
    0.0103    0.9656    3.9208 C   0  0  0  0  0  0  0  0  0  0  0  0
   -0.3308   -0.4478    3.4164 C   0  0  0  0  0  0  0  0  0  0  0  0
    0.9085   -1.2949    3.0864 C   0  0  0  0  0  0  0  0  0  0  0  0
    0.6050   -2.6928    2.5119 C   0  0  0  0  0  0  0  0  0  0  0  0
    0.5365   -2.8086    0.9779 C   0  0  0  0  0  0  0  0  0  0  0  0
   -4.2454    1.3145   -0.8287 H   0  0  0  0  0  0  0  0  0  0  0  0
   -6.2350   -2.5685   -0.4157 H   0  0  0  0  0  0  0  0  0  0  0  0
   -4.0663   -3.5721    0.1220 H   0  0  0  0  0  0  0  0  0  0  0  0
    4.2365   -1.5690   -0.1991 H   0  0  0  0  0  0  0  0  0  0  0  0
    6.2281    2.0692   -1.6142 H   0  0  0  0  0  0  0  0  0  0  0  0
    4.0596    3.2085   -1.5997 H   0  0  0  0  0  0  0  0  0  0  0  0
   -1.8316   -3.4790    0.6187 H   0  0  0  0  0  0  0  0  0  0  0  0
    1.8312    3.3652   -1.0882 H   0  0  0  0  0  0  0  0  0  0  0  0
   -7.6391    1.5771   -2.0034 H   0  0  0  0  0  0  0  0  0  0  0  0
   -5.8784    1.7345   -1.9716 H   0  0  0  0  0  0  0  0  0  0  0  0
   -5.9821    2.3361    0.5112 H   0  0  0  0  0  0  0  0  0  0  0  0
   -7.7658    2.1883    0.4592 H   0  0  0  0  0  0  0  0  0  0  0  0
   -6.9483    3.4710   -0.4910 H   0  0  0  0  0  0  0  0  0  0  0  0
   -8.7121    0.0271   -0.6417 H   0  0  0  0  0  0  0  0  0  0  0  0
   -7.8627   -1.4102   -0.0700 H   0  0  0  0  0  0  0  0  0  0  0  0
   -7.4745   -2.1410   -2.4882 H   0  0  0  0  0  0  0  0  0  0  0  0
   -8.3424   -0.6825   -3.0557 H   0  0  0  0  0  0  0  0  0  0  0  0
   -9.2234   -1.9393   -2.1277 H   0  0  0  0  0  0  0  0  0  0  0  0
    7.6006    0.7312   -2.2980 H   0  0  0  0  0  0  0  0  0  0  0  0
    8.5023   -0.7115   -1.8292 H   0  0  0  0  0  0  0  0  0  0  0  0
    8.9302    0.2737    0.4766 H   0  0  0  0  0  0  0  0  0  0  0  0
    8.0160    1.7405    0.0128 H   0  0  0  0  0  0  0  0  0  0  0  0
    9.5558    1.3400   -0.8225 H   0  0  0  0  0  0  0  0  0  0  0  0
    6.1115   -1.9998    0.4886 H   0  0  0  0  0  0  0  0  0  0  0  0
    7.8106   -1.9937   -0.0007 H   0  0  0  0  0  0  0  0  0  0  0  0
    7.1803   -2.8817   -2.2965 H   0  0  0  0  0  0  0  0  0  0  0  0
    5.4546   -2.8814   -1.8192 H   0  0  0  0  0  0  0  0  0  0  0  0
    6.6147   -3.9762   -0.9934 H   0  0  0  0  0  0  0  0  0  0  0  0
   -1.5104    2.4969   -0.6939 H   0  0  0  0  0  0  0  0  0  0  0  0
   -0.3151    3.7519   -1.1683 H   0  0  0  0  0  0  0  0  0  0  0  0
   -1.3877    4.3305    0.9340 H   0  0  0  0  0  0  0  0  0  0  0  0
    0.3527    4.0961    1.1833 H   0  0  0  0  0  0  0  0  0  0  0  0
   -1.4821    3.1172    2.9116 H   0  0  0  0  0  0  0  0  0  0  0  0
   -1.5565    1.7669    1.7631 H   0  0  0  0  0  0  0  0  0  0  0  0
    0.9423    2.8174    3.2475 H   0  0  0  0  0  0  0  0  0  0  0  0
    1.0004    1.5033    2.0568 H   0  0  0  0  0  0  0  0  0  0  0  0
   -0.8398    1.3622    4.5193 H   0  0  0  0  0  0  0  0  0  0  0  0
    0.8644    0.8910    4.6300 H   0  0  0  0  0  0  0  0  0  0  0  0
   -0.9259   -0.9848    4.1877 H   0  0  0  0  0  0  0  0  0  0  0  0
   -0.9872   -0.3740    2.5231 H   0  0  0  0  0  0  0  0  0  0  0  0
    1.4968   -1.4127    4.0228 H   0  0  0  0  0  0  0  0  0  0  0  0
    1.5689   -0.7498    2.3787 H   0  0  0  0  0  0  0  0  0  0  0  0
    1.3962   -3.4043    2.8330 H   0  0  0  0  0  0  0  0  0  0  0  0
   -0.3435   -3.0785    2.9504 H   0  0  0  0  0  0  0  0  0  0  0  0
    1.5128   -2.5322    0.5405 H   0  0  0  0  0  0  0  0  0  0  0  0
    0.3176   -3.8641    0.7044 H   0  0  0  0  0  0  0  0  0  0  0  0
  3 37  1  0  0  0  0
  4 29  1  0  0  0  0
  5 23  1  0  0  0  0
  5 10  1  0  0  0  0
  6 16  1  0  0  0  0
  6 27  1  0  0  0  0
  7 19  2  0  0  0  0
  8  1  1  1  0  0  0
  8  7  1  0  0  0  0
  9  8  1  0  0  0  0
 10  9  2  0  0  0  0
 10 11  1  0  0  0  0
 11 12  2  0  0  0  0
 12  7  1  0  0  0  0
 12 40  1  0  0  0  0
 13 20  2  0  0  0  0
 13 14  1  0  0  0  0
 14  2  1  0  0  0  0
 15 14  2  0  0  0  0
 15 41  1  0  0  0  0
 16 15  1  0  0  0  0
 17 18  1  0  0  0  0
 17 16  2  0  0  0  0
 18 13  1  0  0  0  0
 19  3  1  0  0  0  0
 19 44  1  0  0  0  0
 20  4  1  0  0  0  0
 21  5  1  0  0  0  0
 21 22  1  0  0  0  0
 22 49  1  0  0  0  0
 22 48  1  0  0  0  0
 23 51  1  0  0  0  0
 23 52  1  0  0  0  0
 24 55  1  0  0  0  0
 24 23  1  0  0  0  0
 25  6  1  0  0  0  0
 25 26  1  0  0  0  0
 26 59  1  0  0  0  0
 26 58  1  0  0  0  0
 27 62  1  0  0  0  0
 27 61  1  0  0  0  0
 28 65  1  0  0  0  0
 28 27  1  0  0  0  0
 29 30  1  0  0  0  0
 30 69  1  0  0  0  0
 30 31  1  0  0  0  0
 31 32  1  0  0  0  0
 31 70  1  0  0  0  0
 32 72  1  0  0  0  0
 32 33  1  0  0  0  0
 33 74  1  0  0  0  0
 33 75  1  0  0  0  0
 34 33  1  0  0  0  0
 34 76  1  0  0  0  0
 35 34  1  0  0  0  0
 35 78  1  0  0  0  0
 36 80  1  0  0  0  0
 36 81  1  0  0  0  0
 36 35  1  0  0  0  0
 37 36  1  0  0  0  0
 38  9  1  0  0  0  0
 39 11  1  0  0  0  0
 42 17  1  0  0  0  0
 43 18  1  0  0  0  0
 45 20  1  0  0  0  0
 46 21  1  0  0  0  0
 47 21  1  0  0  0  0
 50 22  1  0  0  0  0
 53 24  1  0  0  0  0
 54 24  1  0  0  0  0
 56 25  1  0  0  0  0
 57 25  1  0  0  0  0
 60 26  1  0  0  0  0
 63 28  1  0  0  0  0
 64 28  1  0  0  0  0
 66 29  1  0  0  0  0
 67 29  1  0  0  0  0
 68 30  1  0  0  0  0
 71 31  1  0  0  0  0
 73 32  1  0  0  0  0
 77 34  1  0  0  0  0
 79 35  1  0  0  0  0
 82 37  1  0  0  0  0
 83 37  1  0  0  0  0
M  CHG  1   2  -1
M  END
