1,2,3,4
 OpenBabel05122313063D

 80 81  0  0  1  0  0  0  0  0999 V2000
   -1.9184   -0.5960    0.0573 O   0  5  0  0  0  0  0  0  0  0  0  0
    1.9619    0.5526   -0.0829 O   0  0  0  0  0  1  0  0  0  0  0  0
   -0.5080    1.9507   -0.1946 N   0  0  0  0  0  2  0  0  0  0  0  0
    0.5241   -1.8569    0.6966 N   0  0  0  0  0  2  0  0  0  0  0  0
   -6.5103   -0.6590   -1.2123 N   0  0  0  0  0  0  0  0  0  0  0  0
    6.5312    0.0328   -1.3423 N   0  0  0  0  0  0  0  0  0  0  0  0
   -2.8745    1.5106   -0.7231 C   0  0  0  0  0  0  0  0  0  0  0  0
   -2.9297    0.1015   -0.4056 C   0  0  0  0  0  0  0  0  0  0  0  0
   -4.1575   -0.5865   -0.5779 C   0  0  0  0  0  0  0  0  0  0  0  0
   -5.3291    0.0421   -1.0517 C   0  0  0  0  0  0  0  0  0  0  0  0
   -5.2598    1.4442   -1.3590 C   0  0  0  0  0  0  0  0  0  0  0  0
   -4.0703    2.1281   -1.1879 C   0  0  0  0  0  3  0  0  0  0  0  0
    2.8922   -1.6994    0.0377 C   0  0  0  0  0  0  0  0  0  0  0  0
    2.9607   -0.2850   -0.2493 C   0  0  2  0  0  3  0  0  0  0  0  0
    4.1889    0.2567   -0.7035 C   0  0  0  0  0  0  0  0  0  0  0  0
    5.3494   -0.5260   -0.8914 C   0  0  0  0  0  0  0  0  0  0  0  0
    5.2678   -1.9285   -0.5915 C   0  0  0  0  0  0  0  0  0  0  0  0
    4.0773   -2.4668   -0.1374 C   0  0  0  0  0  0  0  0  0  0  0  0
   -1.7247    2.3308   -0.5161 C   0  0  0  0  0  0  0  0  0  0  0  0
    1.7424   -2.3380    0.5960 C   0  0  0  0  0  0  0  0  0  0  0  0
   -7.6938   -0.0527   -1.8085 C   0  0  0  0  0  0  0  0  0  0  0  0
   -8.6037    0.6519   -0.7974 C   0  0  0  0  0  0  0  0  0  0  0  0
   -6.6278   -2.0529   -0.8042 C   0  0  0  0  0  0  0  0  0  0  0  0
   -6.1932   -3.0512   -1.8819 C   0  0  0  0  0  0  0  0  0  0  0  0
    6.6638    1.4695   -1.5462 C   0  0  0  0  0  0  0  0  0  0  0  0
    6.2162    1.9409   -2.9334 C   0  0  0  0  0  0  0  0  0  0  0  0
    7.6997   -0.7799   -1.6549 C   0  0  0  0  0  0  0  0  0  0  0  0
    8.6255   -1.0189   -0.4579 C   0  0  0  0  0  0  0  0  0  0  0  0
    0.4460    2.9884    0.2130 C   0  0  0  0  0  0  0  0  0  0  0  0
    0.3883    3.3369    1.7155 C   0  0  0  0  0  0  0  0  0  0  0  0
    0.6882    2.2012    2.7201 C   0  0  0  0  0  0  0  0  0  0  0  0
   -0.5580    1.4888    3.2724 C   0  0  0  0  0  0  0  0  0  0  0  0
   -0.2601    0.3114    4.2208 C   0  0  0  0  0  0  0  0  0  0  0  0
    0.2245   -0.9780    3.5297 C   0  0  0  0  0  0  0  0  0  0  0  0
   -0.8892   -1.6951    2.7474 C   0  0  0  0  0  0  0  0  0  0  0  0
   -0.4332   -2.5643    1.5565 C   0  0  0  0  0  0  0  0  0  0  0  0
   -4.1323   -1.6570   -0.3423 H   0  0  0  0  0  0  0  0  0  0  0  0
   -6.1453    1.9905   -1.7046 H   0  0  0  0  0  0  0  0  0  0  0  0
   -4.0399    3.2070   -1.4115 H   0  0  0  0  0  0  0  0  0  0  0  0
    4.1764    1.3301   -0.9268 H   0  0  0  0  0  0  0  0  0  0  0  0
    6.1451   -2.5785   -0.6903 H   0  0  0  0  0  0  0  0  0  0  0  0
    4.0381   -3.5406    0.1082 H   0  0  0  0  0  0  0  0  0  0  0  0
   -1.8885    3.4237   -0.6146 H   0  0  0  0  0  0  0  0  0  0  0  0
    1.9102   -3.3479    1.0224 H   0  0  0  0  0  0  0  0  0  0  0  0
   -8.2579   -0.8563   -2.3282 H   0  0  0  0  0  0  0  0  0  0  0  0
   -7.3829    0.6507   -2.6077 H   0  0  0  0  0  0  0  0  0  0  0  0
   -8.0672    1.4773   -0.2886 H   0  0  0  0  0  0  0  0  0  0  0  0
   -8.9519   -0.0541   -0.0160 H   0  0  0  0  0  0  0  0  0  0  0  0
   -9.4987    1.0749   -1.2977 H   0  0  0  0  0  0  0  0  0  0  0  0
   -7.6875   -2.2342   -0.5250 H   0  0  0  0  0  0  0  0  0  0  0  0
   -6.0437   -2.2080    0.1264 H   0  0  0  0  0  0  0  0  0  0  0  0
   -5.1311   -2.8998   -2.1582 H   0  0  0  0  0  0  0  0  0  0  0  0
   -6.8017   -2.9340   -2.8018 H   0  0  0  0  0  0  0  0  0  0  0  0
   -6.3135   -4.0942   -1.5245 H   0  0  0  0  0  0  0  0  0  0  0  0
    7.7292    1.7365   -1.3808 H   0  0  0  0  0  0  0  0  0  0  0  0
    6.0972    2.0013   -0.7541 H   0  0  0  0  0  0  0  0  0  0  0  0
    5.1487    1.7017   -3.1087 H   0  0  0  0  0  0  0  0  0  0  0  0
    6.8083    1.4483   -3.7315 H   0  0  0  0  0  0  0  0  0  0  0  0
    6.3481    3.0370   -3.0388 H   0  0  0  0  0  0  0  0  0  0  0  0
    7.3694   -1.7454   -2.0895 H   0  0  0  0  0  0  0  0  0  0  0  0
    8.2580   -0.2680   -2.4675 H   0  0  0  0  0  0  0  0  0  0  0  0
    8.0948   -1.5557    0.3534 H   0  0  0  0  0  0  0  0  0  0  0  0
    8.9931   -0.0591   -0.0410 H   0  0  0  0  0  0  0  0  0  0  0  0
    9.5080   -1.6217   -0.7545 H   0  0  0  0  0  0  0  0  0  0  0  0
    0.2424    3.9110   -0.3746 H   0  0  0  0  0  0  0  0  0  0  0  0
    1.4581    2.6264   -0.0474 H   0  0  0  0  0  0  0  0  0  0  0  0
   -0.6054    3.7846    1.9441 H   0  0  0  0  0  0  0  0  0  0  0  0
    1.1257    4.1560    1.8576 H   0  0  0  0  0  0  0  0  0  0  0  0
    1.2503    2.6243    3.5812 H   0  0  0  0  0  0  0  0  0  0  0  0
    1.3719    1.4681    2.2413 H   0  0  0  0  0  0  0  0  0  0  0  0
   -1.1774    2.2386    3.8123 H   0  0  0  0  0  0  0  0  0  0  0  0
   -1.1857    1.1347    2.4264 H   0  0  0  0  0  0  0  0  0  0  0  0
    0.5003    0.6352    4.9658 H   0  0  0  0  0  0  0  0  0  0  0  0
   -1.1759    0.0800    4.8088 H   0  0  0  0  0  0  0  0  0  0  0  0
    0.6634   -1.6649    4.2855 H   0  0  0  0  0  0  0  0  0  0  0  0
    1.0558   -0.7176    2.8414 H   0  0  0  0  0  0  0  0  0  0  0  0
   -1.4849   -2.3409    3.4289 H   0  0  0  0  0  0  0  0  0  0  0  0
   -1.5978   -0.9466    2.3424 H   0  0  0  0  0  0  0  0  0  0  0  0
    0.0422   -3.5063    1.9082 H   0  0  0  0  0  0  0  0  0  0  0  0
   -1.3261   -2.8239    0.9534 H   0  0  0  0  0  0  0  0  0  0  0  0
  3 29  1  0  0  0  0
  4 36  1  0  0  0  0
  5 10  1  0  0  0  0
  5 23  1  0  0  0  0
  6 16  1  0  0  0  0
  7 19  2  0  0  0  0
  7  8  1  0  0  0  0
  8  1  1  0  0  0  0
  9  8  2  0  0  0  0
  9 37  1  0  0  0  0
 10  9  1  0  0  0  0
 11 12  1  0  0  0  0
 11 10  2  0  0  0  0
 12  7  1  0  0  0  0
 13 20  2  0  0  0  0
 14  2  1  1  0  0  0
 14 13  1  0  0  0  0
 15 14  1  0  0  0  0
 16 15  2  0  0  0  0
 16 17  1  0  0  0  0
 17 18  2  0  0  0  0
 18 13  1  0  0  0  0
 18 42  1  0  0  0  0
 19  3  1  0  0  0  0
 20  4  1  0  0  0  0
 20 44  1  0  0  0  0
 21  5  1  0  0  0  0
 21 22  1  0  0  0  0
 22 47  1  0  0  0  0
 22 48  1  0  0  0  0
 23 50  1  0  0  0  0
 23 51  1  0  0  0  0
 24 54  1  0  0  0  0
 24 23  1  0  0  0  0
 25 55  1  0  0  0  0
 25  6  1  0  0  0  0
 25 56  1  0  0  0  0
 26 25  1  0  0  0  0
 27  6  1  0  0  0  0
 27 28  1  0  0  0  0
 28 63  1  0  0  0  0
 28 62  1  0  0  0  0
 29 30  1  0  0  0  0
 30 68  1  0  0  0  0
 30 67  1  0  0  0  0
 30 31  1  0  0  0  0
 31 32  1  0  0  0  0
 31 69  1  0  0  0  0
 32 71  1  0  0  0  0
 32 33  1  0  0  0  0
 33 74  1  0  0  0  0
 33 73  1  0  0  0  0
 34 33  1  0  0  0  0
 34 75  1  0  0  0  0
 35 77  1  0  0  0  0
 35 34  1  0  0  0  0
 36 79  1  0  0  0  0
 36 35  1  0  0  0  0
 38 11  1  0  0  0  0
 39 12  1  0  0  0  0
 40 15  1  0  0  0  0
 41 17  1  0  0  0  0
 43 19  1  0  0  0  0
 45 21  1  0  0  0  0
 46 21  1  0  0  0  0
 49 22  1  0  0  0  0
 52 24  1  0  0  0  0
 53 24  1  0  0  0  0
 57 26  1  0  0  0  0
 58 26  1  0  0  0  0
 59 26  1  0  0  0  0
 60 27  1  0  0  0  0
 61 27  1  0  0  0  0
 64 28  1  0  0  0  0
 65 29  1  0  0  0  0
 66 29  1  0  0  0  0
 70 31  1  0  0  0  0
 72 32  1  0  0  0  0
 76 34  1  0  0  0  0
 78 35  1  0  0  0  0
 80 36  1  0  0  0  0
M  CHG  1   1  -1
M  END
