1,2,3,4
q = -2.0, confidence = 0.844

 80 85  0  0  1  0  0  0  0  0999 V2000
    1.1755    0.3487   -1.1846 O   0  5  0  0  0  0  0  0  0  0  0  0
   -0.8023    0.3343    0.5532 O   0  5  0  0  0  0  0  0  0  0  0  0
    1.4079   -2.2084   -0.3073 N   0  0  0  0  0  2  0  0  0  0  0  0
   -1.0451   -2.2554    0.5002 N   0  0  0  0  0  2  0  0  0  0  0  0
    2.1659    3.5090    0.0745 C   0  0  0  0  0  0  0  0  0  0  0  0
    2.6784    4.4921    0.0855 H   0  0  0  0  0  0  0  0  0  0  0  0
    1.1026    3.6941    0.3259 H   0  0  0  0  0  0  0  0  0  0  0  0
    2.2362    2.9180   -1.4107 C   0  0  0  0  0  0  0  0  0  0  0  0
    1.2089    2.6800   -1.7465 H   0  0  0  0  0  0  0  0  0  0  0  0
    2.6412    3.6999   -2.0830 H   0  0  0  0  0  0  0  0  0  0  0  0
    3.0831    1.6726   -1.5065 C   0  0  0  0  0  0  0  0  0  0  0  0
    2.4773    0.4025   -1.1887 C   0  0  0  0  0  0  0  0  0  0  0  0
    3.3023   -0.7403   -0.8389 C   0  0  0  0  0  0  0  0  0  0  0  0
    4.7235   -0.5244   -0.6780 C   0  0  0  0  0  0  0  0  0  0  0  0
    5.2716    0.6396   -1.2125 C   0  0  0  0  0  0  0  0  0  0  0  0
    6.3549    0.8102   -1.1077 H   0  0  0  0  0  0  0  0  0  0  0  0
    4.4627    1.7148   -1.6565 C   0  0  0  0  0  0  0  0  0  0  0  0
    4.9452    2.6633   -1.9421 H   0  0  0  0  0  0  0  0  0  0  0  0
    5.5344   -1.2487    0.3896 C   0  0  0  0  0  0  0  0  0  0  0  0
    6.5630   -0.8368    0.3521 H   0  0  0  0  0  0  0  0  0  0  0  0
    5.6423   -2.3401    0.2351 H   0  0  0  0  0  0  0  0  0  0  0  0
    4.9542   -1.0285    1.8467 C   0  0  0  0  0  0  0  0  0  0  0  0
    4.2519   -1.8527    2.0894 H   0  0  0  0  0  0  0  0  0  0  0  0
    5.8026   -1.1126    2.5587 H   0  0  0  0  0  0  0  0  0  0  0  0
    4.2227    0.2897    1.9789 C   0  0  0  0  0  0  0  0  0  0  0  0
    2.8139    0.3278    2.0082 C   0  0  0  0  0  0  0  0  0  0  0  0
    2.2506   -0.5942    2.2299 H   0  0  0  0  0  0  0  0  0  0  0  0
    2.1101    1.4638    1.5813 C   0  0  0  0  0  0  0  0  0  0  0  0
    1.0178    1.4016    1.4672 H   0  0  0  0  0  0  0  0  0  0  0  0
    2.8051    2.5855    1.0870 C   0  0  0  0  0  0  0  0  0  0  0  0
    4.1946    2.6411    1.3240 C   0  0  0  0  0  0  0  0  0  0  0  0
    4.7580    3.5394    1.0234 H   0  0  0  0  0  0  0  0  0  0  0  0
    4.8943    1.5118    1.7689 C   0  0  0  0  0  0  0  0  0  0  0  0
    5.9952    1.5431    1.8113 H   0  0  0  0  0  0  0  0  0  0  0  0
    2.7124   -2.0336   -0.6118 C   0  0  2  0  0  3  0  0  0  0  0  0
    3.5581   -3.2672   -0.8504 C   0  0  0  0  0  0  0  0  0  0  0  0
    3.0251   -3.9642   -1.5280 H   0  0  0  0  0  0  0  0  0  0  0  0
    3.7887   -3.8294    0.0800 H   0  0  0  0  0  0  0  0  0  0  0  0
    4.5058   -2.9973   -1.3431 H   0  0  0  0  0  0  0  0  0  0  0  0
   -1.9868    3.1787   -0.5766 C   0  0  0  0  0  0  0  0  0  0  0  0
   -2.1164    4.2703   -0.7289 H   0  0  0  0  0  0  0  0  0  0  0  0
   -1.0460    2.8814   -1.0801 H   0  0  0  0  0  0  0  0  0  0  0  0
   -1.8334    2.9163    0.9875 C   0  0  0  0  0  0  0  0  0  0  0  0
   -2.2702    3.7725    1.5393 H   0  0  0  0  0  0  0  0  0  0  0  0
   -0.7524    2.8908    1.2296 H   0  0  0  0  0  0  0  0  0  0  0  0
   -2.5268    1.6547    1.4498 C   0  0  0  0  0  0  0  0  0  0  0  0
   -2.0210    0.3742    1.0744 C   0  0  0  0  0  0  0  0  0  0  0  0
   -2.8613   -0.7836    1.1338 C   0  0  0  0  0  0  0  0  0  0  0  0
   -4.2633   -0.6080    1.3688 C   0  0  0  0  0  0  0  0  0  0  0  0
   -4.6832    0.5990    1.9398 C   0  0  0  0  0  0  0  0  0  0  0  0
   -5.7493    0.7448    2.1736 H   0  0  0  0  0  0  0  0  0  0  0  0
   -3.8140    1.7022    2.0000 C   0  0  0  0  0  0  0  0  0  0  0  0
   -4.2102    2.6768    2.3269 H   0  0  0  0  0  0  0  0  0  0  0  0
   -5.2876   -1.4961    0.6829 C   0  0  0  0  0  0  0  0  0  0  0  0
   -6.1052   -1.7873    1.3754 H   0  0  0  0  0  0  0  0  0  0  0  0
   -4.8098   -2.4318    0.3382 H   0  0  0  0  0  0  0  0  0  0  0  0
   -5.9480   -0.7883   -0.5858 C   0  0  0  0  0  0  0  0  0  0  0  0
   -6.1196   -1.5748   -1.3499 H   0  0  0  0  0  0  0  0  0  0  0  0
   -6.9461   -0.4014   -0.2967 H   0  0  0  0  0  0  0  0  0  0  0  0
   -5.1192    0.3514   -1.1384 C   0  0  0  0  0  0  0  0  0  0  0  0
   -3.8566    0.1165   -1.7183 C   0  0  0  0  0  0  0  0  0  0  0  0
   -3.5610   -0.8981   -2.0301 H   0  0  0  0  0  0  0  0  0  0  0  0
   -2.8813    1.1225   -1.7355 C   0  0  0  0  0  0  0  0  0  0  0  0
   -1.8647    0.8648   -2.0696 H   0  0  0  0  0  0  0  0  0  0  0  0
   -3.1344    2.3836   -1.1586 C   0  0  0  0  0  0  0  0  0  0  0  0
   -4.4755    2.6969   -0.8571 C   0  0  0  0  0  0  0  0  0  0  0  0
   -4.7311    3.7010   -0.4806 H   0  0  0  0  0  0  0  0  0  0  0  0
   -5.4525    1.6906   -0.8438 C   0  0  0  0  0  0  0  0  0  0  0  0
   -6.4612    1.9244   -0.4653 H   0  0  0  0  0  0  0  0  0  0  0  0
   -2.2345   -2.1005    1.0426 C   0  0  2  0  0  3  0  0  0  0  0  0
   -2.8698   -3.2492    1.7974 C   0  0  0  0  0  0  0  0  0  0  0  0
   -2.1797   -3.6083    2.5905 H   0  0  0  0  0  0  0  0  0  0  0  0
   -3.0766   -4.1183    1.1386 H   0  0  0  0  0  0  0  0  0  0  0  0
   -3.8066   -2.9422    2.2900 H   0  0  0  0  0  0  0  0  0  0  0  0
   -0.3560   -3.5294    0.6813 C   0  0  0  0  0  0  0  0  0  0  0  0
   -0.0470   -3.6222    1.7485 H   0  0  0  0  0  0  0  0  0  0  0  0
   -1.0120   -4.3970    0.4613 H   0  0  0  0  0  0  0  0  0  0  0  0
    0.8655   -3.5649   -0.2173 C   0  0  0  0  0  0  0  0  0  0  0  0
    0.5677   -3.8721   -1.2464 H   0  0  0  0  0  0  0  0  0  0  0  0
    1.5937   -4.3028    0.1728 H   0  0  0  0  0  0  0  0  0  0  0  0
  2 47  1  0  0  0  0
  3 78  1  0  0  0  0
  4 75  1  0  0  0  0
  5  6  1  0  0  0  0
  5  7  1  0  0  0  0
  5 30  1  0  0  0  0
  8  5  1  0  0  0  0
  9  8  1  0  0  0  0
 10  8  1  0  0  0  0
 11  8  1  0  0  0  0
 11 12  1  0  0  0  0
 12  1  1  0  0  0  0
 12 13  2  0  0  0  0
 13 14  1  0  0  0  0
 13 35  1  0  0  0  0
 14 19  1  0  0  0  0
 15 16  1  0  0  0  0
 15 14  2  0  0  0  0
 17 11  2  0  0  0  0
 17 15  1  0  0  0  0
 18 17  1  0  0  0  0
 19 22  1  0  0  0  0
 20 19  1  0  0  0  0
 21 19  1  0  0  0  0
 22 25  1  0  0  0  0
 22 23  1  0  0  0  0
 22 24  1  0  0  0  0
 25 26  1  0  0  0  0
 26 27  1  0  0  0  0
 28 26  2  0  0  0  0
 29 28  1  0  0  0  0
 30 31  2  0  0  0  0
 30 28  1  0  0  0  0
 31 33  1  0  0  0  0
 32 31  1  0  0  0  0
 33 34  1  0  0  0  0
 33 25  2  0  0  0  0
 35  3  1  6  0  0  0
 36 35  1  0  0  0  0
 36 38  1  0  0  0  0
 37 36  1  0  0  0  0
 39 36  1  0  0  0  0
 40 43  1  0  0  0  0
 41 40  1  0  0  0  0
 42 40  1  0  0  0  0
 43 45  1  0  0  0  0
 43 46  1  0  0  0  0
 43 44  1  0  0  0  0
 46 52  1  0  0  0  0
 47 48  1  0  0  0  0
 47 46  2  0  0  0  0
 48 49  2  0  0  0  0
 49 50  1  0  0  0  0
 50 52  2  0  0  0  0
 50 51  1  0  0  0  0
 52 53  1  0  0  0  0
 54 49  1  0  0  0  0
 54 55  1  0  0  0  0
 56 54  1  0  0  0  0
 57 59  1  0  0  0  0
 57 54  1  0  0  0  0
 58 57  1  0  0  0  0
 60 68  1  0  0  0  0
 60 57  1  0  0  0  0
 61 60  2  0  0  0  0
 62 61  1  0  0  0  0
 63 61  1  0  0  0  0
 63 65  2  0  0  0  0
 64 63  1  0  0  0  0
 65 66  1  0  0  0  0
 65 40  1  0  0  0  0
 66 68  2  0  0  0  0
 66 67  1  0  0  0  0
 68 69  1  0  0  0  0
 70  4  1  1  0  0  0
 70 48  1  0  0  0  0
 70 71  1  0  0  0  0
 71 74  1  0  0  0  0
 71 72  1  0  0  0  0
 73 71  1  0  0  0  0
 75 76  1  0  0  0  0
 77 75  1  0  0  0  0
 78 80  1  0  0  0  0
 78 75  1  0  0  0  0
 79 78  1  0  0  0  0
M  CHG  2   1  -1   2  -1
M  END
