1,2,4,7
q = -2.0, confidence = 0.794

 46 47  0  0  0  0  0  0  0  0999 V2000
    1.3734    2.0240    0.1163 N   0  0  0  0  0  2  0  0  0  0  0  0
   -1.3725    2.0246   -0.1147 N   0  0  0  0  0  2  0  0  0  0  0  0
    1.9529   -0.4777   -1.0595 O   0  0  0  0  0  0  0  0  0  0  0  0
   -0.6564   -0.6083   -1.5299 O   0  5  0  0  0  0  0  0  0  0  0  0
   -0.4328   -2.4961   -2.7563 O   0  0  0  0  0  0  0  0  0  0  0  0
   -1.9532   -0.4774    1.0592 O   0  0  0  0  0  0  0  0  0  0  0  0
    0.6566   -0.6115    1.5285 O   0  5  0  0  0  0  0  0  0  0  0  0
    0.4289   -2.4933    2.7632 O   0  0  0  0  0  0  0  0  0  0  0  0
    3.1922   -0.3797   -0.5375 C   0  0  0  0  0  0  0  0  0  0  0  0
    4.1408   -1.4192   -0.6075 C   0  0  0  0  0  0  0  0  0  0  0  0
    3.8673   -2.3798   -1.0606 H   0  0  0  0  0  0  0  0  0  0  0  0
    5.4340   -1.2326   -0.1035 C   0  0  0  0  0  0  0  0  0  0  0  0
    6.1552   -2.0615   -0.1663 H   0  0  0  0  0  0  0  0  0  0  0  0
    5.8182   -0.0078    0.4679 C   0  0  0  0  0  0  0  0  0  0  0  0
    6.8371    0.1355    0.8541 H   0  0  0  0  0  0  0  0  0  0  0  0
    4.8812    1.0231    0.5409 C   0  0  0  0  0  0  0  0  0  0  0  0
    5.1589    1.9880    0.9941 H   0  0  0  0  0  0  0  0  0  0  0  0
    3.5547    0.8658    0.0684 C   0  0  0  0  0  0  0  0  0  0  0  0
    2.6606    1.9959    0.2555 C   0  0  0  0  0  3  0  0  0  0  0  0
    3.1778    2.9264    0.5853 H   0  0  0  0  0  0  0  0  0  0  0  0
    0.6507    3.2548    0.4059 C   0  0  0  0  0  0  0  0  0  0  0  0
    1.2562    4.1614    0.1861 H   0  0  0  0  0  0  0  0  0  0  0  0
    0.3956    3.2727    1.4899 H   0  0  0  0  0  0  0  0  0  0  0  0
   -0.6493    3.2555   -0.4029 C   0  0  0  0  0  0  0  0  0  0  0  0
   -1.2544    4.1621   -0.1820 H   0  0  0  0  0  0  0  0  0  0  0  0
   -0.3942    3.2747   -1.4869 H   0  0  0  0  0  0  0  0  0  0  0  0
   -2.6594    1.9967   -0.2556 C   0  0  0  0  0  3  0  0  0  0  0  0
   -3.1763    2.9272   -0.5858 H   0  0  0  0  0  0  0  0  0  0  0  0
   -3.5538    0.8666   -0.0699 C   0  0  0  0  0  0  0  0  0  0  0  0
   -4.8798    1.0240   -0.5438 C   0  0  0  0  0  0  0  0  0  0  0  0
   -5.1569    1.9890   -0.9972 H   0  0  0  0  0  0  0  0  0  0  0  0
   -5.8170   -0.0068   -0.4720 C   0  0  0  0  0  0  0  0  0  0  0  0
   -6.8354    0.1367   -0.8592 H   0  0  0  0  0  0  0  0  0  0  0  0
   -5.4335   -1.2317    0.0997 C   0  0  0  0  0  0  0  0  0  0  0  0
   -6.1549   -2.0606    0.1616 H   0  0  0  0  0  0  0  0  0  0  0  0
   -4.1409   -1.4184    0.6050 C   0  0  0  0  0  0  0  0  0  0  0  0
   -3.8679   -2.3791    1.0582 H   0  0  0  0  0  0  0  0  0  0  0  0
   -3.1921   -0.3790    0.5360 C   0  0  0  0  0  0  0  0  0  0  0  0
   -1.4971   -1.7182    1.6328 C   0  0  0  0  0  0  0  0  0  0  0  0
   -1.6080   -2.5362    0.8880 H   0  0  0  0  0  0  0  0  0  0  0  0
   -2.0947   -1.9661    2.5334 H   0  0  0  0  0  0  0  0  0  0  0  0
   -0.0048   -1.6092    2.0320 C   0  0  0  0  0  0  0  0  0  0  0  0
    1.4955   -1.7188   -1.6315 C   0  0  0  0  0  0  0  0  0  0  0  0
    1.6069   -2.5363   -0.8861 H   0  0  0  0  0  0  0  0  0  0  0  0
    2.0919   -1.9678   -2.5327 H   0  0  0  0  0  0  0  0  0  0  0  0
    0.0028   -1.6094   -2.0294 C   0  0  0  0  0  0  0  0  0  0  0  0
  1 19  1  0  0  0  0
  1 21  1  0  0  0  0
  3  9  1  0  0  0  0
  5 46  2  0  0  0  0
  6 39  1  0  0  0  0
  7 42  1  0  0  0  0
  9 18  1  0  0  0  0
 10  9  2  0  0  0  0
 10 12  1  0  0  0  0
 11 10  1  0  0  0  0
 12 14  2  0  0  0  0
 13 12  1  0  0  0  0
 14 16  1  0  0  0  0
 14 15  1  0  0  0  0
 16 17  1  0  0  0  0
 18 19  1  0  0  0  0
 18 16  2  0  0  0  0
 19 20  1  0  0  0  0
 21 23  1  0  0  0  0
 22 21  1  0  0  0  0
 24 25  1  0  0  0  0
 24  2  1  0  0  0  0
 24 21  1  0  0  0  0
 26 24  1  0  0  0  0
 27  2  1  0  0  0  0
 27 29  1  0  0  0  0
 28 27  1  0  0  0  0
 29 38  1  0  0  0  0
 30 32  1  0  0  0  0
 30 29  2  0  0  0  0
 31 30  1  0  0  0  0
 32 34  2  0  0  0  0
 33 32  1  0  0  0  0
 34 35  1  0  0  0  0
 34 36  1  0  0  0  0
 36 37  1  0  0  0  0
 38 36  2  0  0  0  0
 38  6  1  0  0  0  0
 39 42  1  0  0  0  0
 39 41  1  0  0  0  0
 40 39  1  0  0  0  0
 42  8  2  0  0  0  0
 43  3  1  0  0  0  0
 43 44  1  0  0  0  0
 45 43  1  0  0  0  0
 46 43  1  0  0  0  0
 46  4  1  0  0  0  0
M  CHG  2   4  -1   7  -1
M  END
