3,15,23,35
q = -2.0, confidence = 0.83

 43 44  0  0  0  0  0  0  0  0999 V2000
    7.1934   -0.9885   -0.9479 Br  0  0  0  0  0  0  0  0  0  0  0  0
   -7.1074   -1.2901   -0.7024 Br  0  0  0  0  0  0  0  0  0  0  0  0
    1.4719   -1.1854    1.0264 O   0  5  0  0  0  0  0  0  0  0  0  0
    2.7165   -1.0961    0.5808 C   0  0  0  0  0  0  0  0  0  0  0  0
    3.6671   -2.0422    1.0355 C   0  0  0  0  0  0  0  0  0  0  0  0
    3.3303   -2.8005    1.7563 H   0  0  0  0  0  0  0  0  0  0  0  0
    4.9890   -2.0077    0.5924 C   0  0  0  0  0  0  0  0  0  0  0  0
    5.7176   -2.7419    0.9648 H   0  0  0  0  0  0  0  0  0  0  0  0
    5.3914   -1.0290   -0.3404 C   0  0  0  0  0  0  0  0  0  0  0  0
    4.4715   -0.0997   -0.8229 C   0  0  0  0  0  0  0  0  0  0  0  0
    4.7841    0.6524   -1.5625 H   0  0  0  0  0  0  0  0  0  0  0  0
    3.1284   -0.1064   -0.3691 C   0  0  0  0  0  0  0  0  0  0  0  0
    2.2134    0.8558   -0.9563 C   0  0  0  0  0  3  0  0  0  0  0  0
    2.6205    1.4248   -1.8225 H   0  0  0  0  0  0  0  0  0  0  0  0
    0.9935    1.0839   -0.5851 N   0  0  0  0  0  2  0  0  0  0  0  0
    0.2009    2.0321   -1.3463 C   0  0  0  0  0  0  0  0  0  0  0  0
   -0.7210    1.5023   -1.6646 H   0  0  0  0  0  0  0  0  0  0  0  0
    0.7411    2.3425   -2.2698 H   0  0  0  0  0  0  0  0  0  0  0  0
   -0.1990    3.3235   -0.5769 C   0  0  0  0  0  0  0  0  0  0  0  0
   -0.9185    3.0006    0.7833 C   0  0  0  0  0  0  0  0  0  0  0  0
   -0.2009    3.0981    1.6184 H   0  0  0  0  0  0  0  0  0  0  0  0
   -1.7474    3.7247    0.9388 H   0  0  0  0  0  0  0  0  0  0  0  0
   -1.4304    1.6394    0.8018 N   0  0  0  0  0  2  0  0  0  0  0  0
   -2.6841    1.4185    0.4860 C   0  0  0  0  0  3  0  0  0  0  0  0
   -3.3593    2.2999    0.4495 H   0  0  0  0  0  0  0  0  0  0  0  0
   -3.2464    0.1577    0.1026 C   0  0  0  0  0  0  0  0  0  0  0  0
   -4.6585    0.0383   -0.0253 C   0  0  0  0  0  0  0  0  0  0  0  0
   -5.3024    0.8666    0.3061 H   0  0  0  0  0  0  0  0  0  0  0  0
   -5.2175   -1.1145   -0.5588 C   0  0  0  0  0  0  0  0  0  0  0  0
   -4.3835   -2.1660   -1.0174 C   0  0  0  0  0  0  0  0  0  0  0  0
   -4.8411   -3.0702   -1.4448 H   0  0  0  0  0  0  0  0  0  0  0  0
   -3.0012   -2.0570   -0.9314 C   0  0  0  0  0  0  0  0  0  0  0  0
   -2.3456   -2.8648   -1.2862 H   0  0  0  0  0  0  0  0  0  0  0  0
   -2.3825   -0.9138   -0.3423 C   0  0  0  0  0  0  0  0  0  0  0  0
   -1.0857   -0.8335   -0.2615 O   0  5  0  0  0  0  0  0  0  0  0  0
   -1.1666    4.0896   -1.4951 C   0  0  0  0  0  0  0  0  0  0  0  0
   -1.4458    5.0642   -1.0467 H   0  0  0  0  0  0  0  0  0  0  0  0
   -2.0987    3.5126   -1.6707 H   0  0  0  0  0  0  0  0  0  0  0  0
   -0.7082    4.2915   -2.4850 H   0  0  0  0  0  0  0  0  0  0  0  0
    1.0494    4.1666   -0.2793 C   0  0  0  0  0  0  0  0  0  0  0  0
    1.5541    4.4789   -1.2167 H   0  0  0  0  0  0  0  0  0  0  0  0
    1.7719    3.5970    0.3390 H   0  0  0  0  0  0  0  0  0  0  0  0
    0.7794    5.0859    0.2794 H   0  0  0  0  0  0  0  0  0  0  0  0
  1  9  1  0  0  0  0
  2 29  1  0  0  0  0
  4  3  1  0  0  0  0
  4  5  1  0  0  0  0
  5  6  1  0  0  0  0
  7  8  1  0  0  0  0
  7  5  2  0  0  0  0
  9  7  1  0  0  0  0
 10 12  1  0  0  0  0
 10  9  2  0  0  0  0
 11 10  1  0  0  0  0
 12  4  2  0  0  0  0
 13 15  1  0  0  0  0
 13 12  1  0  0  0  0
 14 13  1  0  0  0  0
 16 15  1  0  0  0  0
 16 19  1  0  0  0  0
 17 16  1  0  0  0  0
 18 16  1  0  0  0  0
 19 40  1  0  0  0  0
 19 20  1  0  0  0  0
 20 23  1  0  0  0  0
 20 22  1  0  0  0  0
 20 21  1  0  0  0  0
 24 23  1  0  0  0  0
 25 24  1  0  0  0  0
 26 24  1  0  0  0  0
 27 26  1  0  0  0  0
 27 28  1  0  0  0  0
 29 27  2  0  0  0  0
 30 32  2  0  0  0  0
 30 29  1  0  0  0  0
 31 30  1  0  0  0  0
 32 34  1  0  0  0  0
 33 32  1  0  0  0  0
 34 35  1  0  0  0  0
 34 26  2  0  0  0  0
 36 37  1  0  0  0  0
 36 19  1  0  0  0  0
 38 36  1  0  0  0  0
 39 36  1  0  0  0  0
 40 43  1  0  0  0  0
 40 42  1  0  0  0  0
 41 40  1  0  0  0  0
M  CHG  2   3  -1  35  -1
M  END
