1,2,3,4
q = -2.0, confidence = 0.866

 43 44  0  0  0  0  0  0  0  0999 V2000
   -1.7384   -1.6633    0.3179 N   0  0  0  0  0  2  0  0  0  0  0  0
    1.0657   -1.5871    1.0325 N   0  0  0  0  0  2  0  0  0  0  0  0
   -0.3796    0.6533   -0.1139 O   0  5  0  0  0  0  0  0  0  0  0  0
    1.6529   -0.4851   -1.4548 O   0  5  0  0  0  0  0  0  0  0  0  0
   -2.7507    0.5723    0.2594 C   0  0  0  0  0  0  0  0  0  0  0  0
   -1.5117    1.2753    0.0182 C   0  0  0  0  0  0  0  0  0  0  0  0
   -1.5666    2.7018   -0.0168 C   0  0  0  0  0  0  0  0  0  0  0  0
   -0.6217    3.2408   -0.1764 H   0  0  0  0  0  0  0  0  0  0  0  0
   -2.7762    3.3709    0.1038 C   0  0  0  0  0  0  0  0  0  0  0  0
   -2.7857    4.4716    0.0367 H   0  0  0  0  0  0  0  0  0  0  0  0
   -4.0117    2.6889    0.3161 C   0  0  0  0  0  0  0  0  0  0  0  0
   -3.9654    1.3024    0.4119 C   0  0  0  0  0  0  0  0  0  0  0  0
   -4.8928    0.7378    0.6057 H   0  0  0  0  0  0  0  0  0  0  0  0
   -2.7231   -0.8232    0.5548 C   0  0  0  0  0  3  0  0  0  0  0  0
   -3.5996   -1.2315    1.1020 H   0  0  0  0  0  0  0  0  0  0  0  0
   -1.7308   -2.9325    1.0442 C   0  0  0  0  0  0  0  0  0  0  0  0
   -1.4390   -3.7409    0.3451 H   0  0  0  0  0  0  0  0  0  0  0  0
   -2.7528   -3.1406    1.4303 H   0  0  0  0  0  0  0  0  0  0  0  0
   -0.7484   -2.8650    2.2227 C   0  0  0  0  0  0  0  0  0  0  0  0
   -1.0294   -2.0118    2.8775 H   0  0  0  0  0  0  0  0  0  0  0  0
   -0.8662   -3.7889    2.8272 H   0  0  0  0  0  0  0  0  0  0  0  0
    0.7305   -2.7571    1.8336 C   0  0  0  0  0  0  0  0  0  0  0  0
    1.3563   -2.7863    2.7558 H   0  0  0  0  0  0  0  0  0  0  0  0
    0.9980   -3.6446    1.2186 H   0  0  0  0  0  0  0  0  0  0  0  0
    2.0557   -0.8402    1.4095 C   0  0  0  0  0  3  0  0  0  0  0  0
    2.5254   -1.0372    2.4012 H   0  0  0  0  0  0  0  0  0  0  0  0
    2.6757    0.2093    0.6247 C   0  0  0  0  0  0  0  0  0  0  0  0
    2.4773    0.3142   -0.7889 C   0  0  0  0  0  0  0  0  0  0  0  0
    3.2228    1.2806   -1.5046 C   0  0  0  0  0  0  0  0  0  0  0  0
    3.0685    1.3433   -2.5911 H   0  0  0  0  0  0  0  0  0  0  0  0
    4.1086    2.1306   -0.8437 C   0  0  0  0  0  0  0  0  0  0  0  0
    4.6633    2.8830   -1.4276 H   0  0  0  0  0  0  0  0  0  0  0  0
    4.3177    2.0522    0.5561 C   0  0  0  0  0  0  0  0  0  0  0  0
    3.6029    1.0757    1.2563 C   0  0  0  0  0  0  0  0  0  0  0  0
    3.7557    0.9687    2.3432 H   0  0  0  0  0  0  0  0  0  0  0  0
   -5.2996    3.4625    0.4369 C   0  0  0  0  0  0  0  0  0  0  0  0
   -6.1537    2.7980    0.6712 H   0  0  0  0  0  0  0  0  0  0  0  0
   -5.5403    3.9976   -0.5064 H   0  0  0  0  0  0  0  0  0  0  0  0
   -5.2396    4.2328    1.2343 H   0  0  0  0  0  0  0  0  0  0  0  0
    5.2791    2.9863    1.2464 C   0  0  0  0  0  0  0  0  0  0  0  0
    4.9437    4.0422    1.1685 H   0  0  0  0  0  0  0  0  0  0  0  0
    6.2904    2.9377    0.7915 H   0  0  0  0  0  0  0  0  0  0  0  0
    5.3800    2.7457    2.3224 H   0  0  0  0  0  0  0  0  0  0  0  0
  1 14  1  0  0  0  0
  1 16  1  0  0  0  0
  2 25  1  0  0  0  0
  2 22  1  0  0  0  0
  3  6  1  0  0  0  0
  4 28  1  0  0  0  0
  5 12  1  0  0  0  0
  5 14  1  0  0  0  0
  6  5  2  0  0  0  0
  7  6  1  0  0  0  0
  7  9  2  0  0  0  0
  8  7  1  0  0  0  0
  9 11  1  0  0  0  0
 10  9  1  0  0  0  0
 11 12  2  0  0  0  0
 11 36  1  0  0  0  0
 12 13  1  0  0  0  0
 14 15  1  0  0  0  0
 16 18  1  0  0  0  0
 16 19  1  0  0  0  0
 17 16  1  0  0  0  0
 19 21  1  0  0  0  0
 19 20  1  0  0  0  0
 22 19  1  0  0  0  0
 22 23  1  0  0  0  0
 24 22  1  0  0  0  0
 25 26  1  0  0  0  0
 27 34  1  0  0  0  0
 27 25  1  0  0  0  0
 28 27  2  0  0  0  0
 29 31  2  0  0  0  0
 29 28  1  0  0  0  0
 30 29  1  0  0  0  0
 31 33  1  0  0  0  0
 32 31  1  0  0  0  0
 33 40  1  0  0  0  0
 33 34  2  0  0  0  0
 34 35  1  0  0  0  0
 36 37  1  0  0  0  0
 36 39  1  0  0  0  0
 38 36  1  0  0  0  0
 40 43  1  0  0  0  0
 41 40  1  0  0  0  0
 42 40  1  0  0  0  0
M  CHG  2   3  -1   4  -1
M  END
