1,2,3,4
q = -2.0, confidence = 0.83

 42 43  0  0  0  0  0  0  0  0999 V2000
    0.9282   -2.4395   -0.4064 N   0  0  0  0  0  2  0  0  0  0  0  0
   -1.4963   -2.2799    0.4488 N   0  0  0  0  0  2  0  0  0  0  0  0
    1.0087    0.3192   -0.7508 O   0  5  0  0  0  0  0  0  0  0  0  0
   -1.4482    0.4693    0.0821 O   0  5  0  0  0  0  0  0  0  0  0  0
    5.3420    2.3203   -0.8053 O   0  0  0  0  0  0  0  0  0  0  0  0
   -5.6827    2.6687   -0.0373 O   0  0  0  0  0  0  0  0  0  0  0  0
    2.9615   -1.1196   -0.5618 C   0  0  0  0  0  0  0  0  0  0  0  0
    2.2974    0.1581   -0.7138 C   0  0  0  0  0  0  0  0  0  0  0  0
    3.1177    1.3261   -0.8106 C   0  0  0  0  0  0  0  0  0  0  0  0
    2.5872    2.2768   -0.9464 H   0  0  0  0  0  0  0  0  0  0  0  0
    4.5109    1.2454   -0.7351 C   0  0  0  0  0  0  0  0  0  0  0  0
    5.1594   -0.0130   -0.5723 C   0  0  0  0  0  0  0  0  0  0  0  0
    6.2562   -0.0417   -0.5268 H   0  0  0  0  0  0  0  0  0  0  0  0
    4.3829   -1.1579   -0.5054 C   0  0  0  0  0  0  0  0  0  0  0  0
    4.8736   -2.1392   -0.3994 H   0  0  0  0  0  0  0  0  0  0  0  0
    2.2247   -2.3471   -0.4960 C   0  0  0  0  0  3  0  0  0  0  0  0
    2.8105   -3.2899   -0.5228 H   0  0  0  0  0  0  0  0  0  0  0  0
    0.2216   -3.7081   -0.3997 C   0  0  0  0  0  0  0  0  0  0  0  0
    0.9031   -4.5631   -0.1998 H   0  0  0  0  0  0  0  0  0  0  0  0
   -0.2536   -3.8456   -1.3956 H   0  0  0  0  0  0  0  0  0  0  0  0
   -0.8688   -3.5748    0.6662 C   0  0  0  0  0  0  0  0  0  0  0  0
   -1.6069   -4.4040    0.6150 H   0  0  0  0  0  0  0  0  0  0  0  0
   -0.3964   -3.5842    1.6743 H   0  0  0  0  0  0  0  0  0  0  0  0
   -2.7797   -2.0925    0.5964 C   0  0  0  0  0  3  0  0  0  0  0  0
   -3.3978   -2.9685    0.8840 H   0  0  0  0  0  0  0  0  0  0  0  0
   -3.4613   -0.8493    0.4210 C   0  0  0  0  0  0  0  0  0  0  0  0
   -2.7458    0.3810    0.1623 C   0  0  0  0  0  0  0  0  0  0  0  0
   -3.5061    1.5780    0.0088 C   0  0  0  0  0  0  0  0  0  0  0  0
   -2.9371    2.4879   -0.2177 H   0  0  0  0  0  0  0  0  0  0  0  0
   -4.8997    1.5688    0.1135 C   0  0  0  0  0  0  0  0  0  0  0  0
   -5.6014    0.3591    0.3867 C   0  0  0  0  0  0  0  0  0  0  0  0
   -6.6964    0.3898    0.4643 H   0  0  0  0  0  0  0  0  0  0  0  0
   -4.8807   -0.8122    0.5327 C   0  0  0  0  0  0  0  0  0  0  0  0
   -5.4126   -1.7553    0.7382 H   0  0  0  0  0  0  0  0  0  0  0  0
    4.7700    3.5991   -1.0060 C   0  0  0  0  0  0  0  0  0  0  0  0
    4.1897    3.6488   -1.9537 H   0  0  0  0  0  0  0  0  0  0  0  0
    5.6111    4.3152   -1.0559 H   0  0  0  0  0  0  0  0  0  0  0  0
    4.0966    3.8880   -0.1670 H   0  0  0  0  0  0  0  0  0  0  0  0
   -5.0579    3.9012   -0.3469 C   0  0  0  0  0  0  0  0  0  0  0  0
   -4.3578    4.2222    0.4567 H   0  0  0  0  0  0  0  0  0  0  0  0
   -5.8680    4.6481   -0.4403 H   0  0  0  0  0  0  0  0  0  0  0  0
   -4.4960    3.8483   -1.3055 H   0  0  0  0  0  0  0  0  0  0  0  0
  1 18  1  0  0  0  0
  2 24  1  0  0  0  0
  2 21  1  0  0  0  0
  3  8  1  0  0  0  0
  4 27  1  0  0  0  0
  5 11  1  0  0  0  0
  6 30  1  0  0  0  0
  7 14  1  0  0  0  0
  7 16  1  0  0  0  0
  8  7  2  0  0  0  0
  9 11  2  0  0  0  0
  9  8  1  0  0  0  0
 10  9  1  0  0  0  0
 11 12  1  0  0  0  0
 12 13  1  0  0  0  0
 12 14  2  0  0  0  0
 14 15  1  0  0  0  0
 16  1  1  0  0  0  0
 17 16  1  0  0  0  0
 18 19  1  0  0  0  0
 18 21  1  0  0  0  0
 20 18  1  0  0  0  0
 21 23  1  0  0  0  0
 22 21  1  0  0  0  0
 24 25  1  0  0  0  0
 26 33  1  0  0  0  0
 26 24  1  0  0  0  0
 27 26  2  0  0  0  0
 28 30  2  0  0  0  0
 28 27  1  0  0  0  0
 29 28  1  0  0  0  0
 30 31  1  0  0  0  0
 31 32  1  0  0  0  0
 31 33  2  0  0  0  0
 33 34  1  0  0  0  0
 35  5  1  0  0  0  0
 35 38  1  0  0  0  0
 36 35  1  0  0  0  0
 37 35  1  0  0  0  0
 39  6  1  0  0  0  0
 39 40  1  0  0  0  0
 41 39  1  0  0  0  0
 42 39  1  0  0  0  0
M  CHG  2   3  -1   4  -1
M  END
