1,2,5,6
q = -2.0, confidence = 0.834

 42 43  0  0  0  0  0  0  0  0999 V2000
    1.3714   -0.9240    0.3071 O   0  5  0  0  0  0  0  0  0  0  0  0
   -1.3575   -0.9954   -0.7299 O   0  5  0  0  0  0  0  0  0  0  0  0
    6.8486   -0.1734    0.0927 O   0  0  0  0  0  0  0  0  0  0  0  0
   -6.7563   -1.1188    0.3958 O   0  0  0  0  0  0  0  0  0  0  0  0
    1.1395    1.7392    0.2505 N   0  0  0  0  0  2  0  0  0  0  0  0
   -1.3695    1.6487   -0.4709 N   0  0  0  0  0  2  0  0  0  0  0  0
    2.6975   -0.7630    0.2322 C   0  0  0  0  0  0  0  0  0  0  0  0
    3.5548   -1.8790    0.2468 C   0  0  0  0  0  0  0  0  0  0  0  0
    4.9418   -1.7148    0.1879 C   0  0  0  0  0  0  0  0  0  0  0  0
    5.5227   -0.4190    0.1466 C   0  0  0  0  0  0  0  0  0  0  0  0
    7.7548   -1.2696    0.0632 C   0  0  0  0  0  0  0  0  0  0  0  0
    4.6779    0.7013    0.1767 C   0  0  0  0  0  0  0  0  0  0  0  0
    3.2720    0.5532    0.2035 C   0  0  0  0  0  0  0  0  0  0  0  0
    2.4415    1.7228    0.3380 C   0  0  0  0  0  3  0  0  0  0  0  0
    0.3745    2.9521    0.5091 C   0  0  0  0  0  0  0  0  0  0  0  0
   -0.7714    2.9776   -0.5040 C   0  0  0  0  0  0  0  0  0  0  0  0
   -2.6475    1.4959   -0.2592 C   0  0  0  0  0  3  0  0  0  0  0  0
   -3.3397    0.2363   -0.1713 C   0  0  0  0  0  0  0  0  0  0  0  0
   -4.7352    0.2237    0.1055 C   0  0  0  0  0  0  0  0  0  0  0  0
   -5.4401   -0.9876    0.1345 C   0  0  0  0  0  0  0  0  0  0  0  0
   -7.5220    0.0503    0.6551 C   0  0  0  0  0  0  0  0  0  0  0  0
   -4.7425   -2.1976   -0.1398 C   0  0  0  0  0  0  0  0  0  0  0  0
   -3.3837   -2.2014   -0.4319 C   0  0  0  0  0  0  0  0  0  0  0  0
   -2.6529   -0.9892   -0.4392 C   0  0  0  0  0  0  0  0  0  0  0  0
    3.1097   -2.8831    0.2844 H   0  0  0  0  0  0  0  0  0  0  0  0
    5.5786   -2.6096    0.1756 H   0  0  0  0  0  0  0  0  0  0  0  0
    7.6742   -1.8924    0.9808 H   0  0  0  0  0  0  0  0  0  0  0  0
    7.5934   -1.9097   -0.8315 H   0  0  0  0  0  0  0  0  0  0  0  0
    8.7670   -0.8302    0.0140 H   0  0  0  0  0  0  0  0  0  0  0  0
    5.1347    1.7018    0.1714 H   0  0  0  0  0  0  0  0  0  0  0  0
    2.9604    2.6767    0.5647 H   0  0  0  0  0  0  0  0  0  0  0  0
    1.0093    3.8605    0.4440 H   0  0  0  0  0  0  0  0  0  0  0  0
   -0.0454    2.8857    1.5359 H   0  0  0  0  0  0  0  0  0  0  0  0
   -0.3700    3.1607   -1.5238 H   0  0  0  0  0  0  0  0  0  0  0  0
   -1.5101    3.7715   -0.2668 H   0  0  0  0  0  0  0  0  0  0  0  0
   -3.2683    2.4091   -0.1471 H   0  0  0  0  0  0  0  0  0  0  0  0
   -5.2431    1.1809    0.2859 H   0  0  0  0  0  0  0  0  0  0  0  0
   -7.5143    0.7428   -0.2151 H   0  0  0  0  0  0  0  0  0  0  0  0
   -7.1520    0.5880    1.5559 H   0  0  0  0  0  0  0  0  0  0  0  0
   -8.5567   -0.2904    0.8370 H   0  0  0  0  0  0  0  0  0  0  0  0
   -5.3178   -3.1349   -0.1223 H   0  0  0  0  0  0  0  0  0  0  0  0
   -2.8527   -3.1365   -0.6581 H   0  0  0  0  0  0  0  0  0  0  0  0
  2 24  1  0  0  0  0
  3 10  1  0  0  0  0
  4 21  1  0  0  0  0
  5 14  1  0  0  0  0
  5 15  1  0  0  0  0
  6 17  1  0  0  0  0
  7  8  1  0  0  0  0
  7  1  1  0  0  0  0
  8 25  1  0  0  0  0
  9  8  2  0  0  0  0
 10 12  2  0  0  0  0
 10  9  1  0  0  0  0
 11  3  1  0  0  0  0
 11 27  1  0  0  0  0
 12 13  1  0  0  0  0
 13  7  2  0  0  0  0
 13 14  1  0  0  0  0
 14 31  1  0  0  0  0
 15 33  1  0  0  0  0
 16  6  1  0  0  0  0
 16 35  1  0  0  0  0
 16 15  1  0  0  0  0
 17 18  1  0  0  0  0
 17 36  1  0  0  0  0
 18 19  1  0  0  0  0
 19 20  2  0  0  0  0
 19 37  1  0  0  0  0
 20  4  1  0  0  0  0
 21 40  1  0  0  0  0
 21 39  1  0  0  0  0
 22 41  1  0  0  0  0
 22 20  1  0  0  0  0
 23 22  2  0  0  0  0
 24 23  1  0  0  0  0
 24 18  2  0  0  0  0
 26  9  1  0  0  0  0
 28 11  1  0  0  0  0
 29 11  1  0  0  0  0
 30 12  1  0  0  0  0
 32 15  1  0  0  0  0
 34 16  1  0  0  0  0
 38 21  1  0  0  0  0
 42 23  1  0  0  0  0
M  CHG  2   1  -1   2  -1
M  END
