1,2,3,4
q = -2.0, confidence = 0.862

 54 57  0  0  1  0  0  0  0  0999 V2000
    2.0296   -0.7888   -0.1745 O   0  0  0  0  0  1  0  0  0  0  0  0
   -0.3051   -1.4293    0.1287 O   0  5  0  0  0  0  0  0  0  0  0  0
    1.3894    1.7565   -0.8482 N   0  0  0  0  0  2  0  0  0  0  0  0
   -1.1540    1.1391    0.0638 N   0  0  0  0  0  2  0  0  0  0  0  0
    5.6507   -1.2480   -0.0171 C   0  0  0  0  0  0  0  0  0  0  0  0
    6.0409   -0.2780   -0.3569 H   0  0  0  0  0  0  0  0  0  0  0  0
    6.5485   -2.2870    0.2602 C   0  0  0  0  0  0  0  0  0  0  0  0
    7.6302   -2.1170    0.1477 H   0  0  0  0  0  0  0  0  0  0  0  0
    6.0726   -3.5425    0.6732 C   0  0  0  0  0  0  0  0  0  0  0  0
    6.7804   -4.3571    0.8903 H   0  0  0  0  0  0  0  0  0  0  0  0
    4.6898   -3.7529    0.8029 C   0  0  0  0  0  0  0  0  0  0  0  0
    4.3099   -4.7350    1.1239 H   0  0  0  0  0  0  0  0  0  0  0  0
    3.7905   -2.7164    0.5261 C   0  0  0  0  0  0  0  0  0  0  0  0
    2.7036   -2.8559    0.6171 H   0  0  0  0  0  0  0  0  0  0  0  0
    4.2590   -1.4472    0.1172 C   0  0  0  0  0  0  0  0  0  0  0  0
    3.2513   -0.3788   -0.1563 C   0  0  1  0  0  3  0  0  0  0  0  0
    3.6239    0.9562   -0.3763 C   0  0  0  0  0  0  0  0  0  0  0  0
    4.6802    1.2366   -0.3039 H   0  0  0  0  0  0  0  0  0  0  0  0
    2.7080    1.9616   -0.7714 C   0  0  0  0  0  0  0  0  0  0  0  0
    3.2985    3.3087   -1.1424 C   0  0  0  0  0  0  0  0  0  0  0  0
    3.1866    3.5222   -2.2259 H   0  0  0  0  0  0  0  0  0  0  0  0
    4.3780    3.3278   -0.9103 H   0  0  0  0  0  0  0  0  0  0  0  0
    2.8104    4.1347   -0.5869 H   0  0  0  0  0  0  0  0  0  0  0  0
    0.5118    2.8013   -1.3885 C   0  0  0  0  0  0  0  0  0  0  0  0
   -0.1614    2.3310   -2.1375 H   0  0  0  0  0  0  0  0  0  0  0  0
    1.0777    3.5909   -1.9156 H   0  0  0  0  0  0  0  0  0  0  0  0
   -0.3001    3.3951   -0.2719 C   0  0  0  0  0  0  0  0  0  0  0  0
   -0.2622    4.7493    0.0865 C   0  0  0  0  0  0  0  0  0  0  0  0
    0.3699    5.4399   -0.4944 H   0  0  0  0  0  0  0  0  0  0  0  0
   -1.0268    5.2299    1.1628 C   0  0  0  0  0  0  0  0  0  0  0  0
   -0.9899    6.2953    1.4340 H   0  0  0  0  0  0  0  0  0  0  0  0
   -1.8246    4.3392    1.8969 C   0  0  0  0  0  0  0  0  0  0  0  0
   -2.4106    4.7002    2.7557 H   0  0  0  0  0  0  0  0  0  0  0  0
   -1.8667    2.9799    1.5546 C   0  0  0  0  0  0  0  0  0  0  0  0
   -2.4610    2.2741    2.1536 H   0  0  0  0  0  0  0  0  0  0  0  0
   -1.1157    2.5009    0.4606 C   0  0  0  0  0  0  0  0  0  0  0  0
   -2.3498    0.5510    0.0684 C   0  0  0  0  0  0  0  0  0  0  0  0
   -3.2075    1.2322    0.2115 H   0  0  0  0  0  0  0  0  0  0  0  0
   -2.6324   -0.8299   -0.0481 C   0  0  0  0  0  0  0  0  0  0  0  0
   -1.5466   -1.7680    0.0691 C   0  0  0  0  0  0  0  0  0  0  0  0
   -1.8598   -3.1749    0.1631 C   0  0  0  0  0  0  0  0  0  0  0  0
   -1.0108   -3.8629    0.2833 H   0  0  0  0  0  0  0  0  0  0  0  0
   -3.1558   -3.6197    0.0911 C   0  0  0  0  0  0  0  0  0  0  0  0
   -3.3706   -4.6985    0.1561 H   0  0  0  0  0  0  0  0  0  0  0  0
   -4.2621   -2.7186   -0.0809 C   0  0  0  0  0  0  0  0  0  0  0  0
   -4.0046   -1.3067   -0.1638 C   0  0  0  0  0  0  0  0  0  0  0  0
   -5.1189   -0.4480   -0.3670 C   0  0  0  0  0  0  0  0  0  0  0  0
   -4.9652    0.6350   -0.4793 H   0  0  0  0  0  0  0  0  0  0  0  0
   -6.4170   -0.9477   -0.4547 C   0  0  0  0  0  0  0  0  0  0  0  0
   -7.2549   -0.2515   -0.6128 H   0  0  0  0  0  0  0  0  0  0  0  0
   -6.6641   -2.3353   -0.3560 C   0  0  0  0  0  0  0  0  0  0  0  0
   -7.6909   -2.7230   -0.4299 H   0  0  0  0  0  0  0  0  0  0  0  0
   -5.5922   -3.2040   -0.1767 C   0  0  0  0  0  3  0  0  0  0  0  0
   -5.7598   -4.2905   -0.1086 H   0  0  0  0  0  0  0  0  0  0  0  0
  3 19  1  0  0  0  0
  4 37  1  0  0  0  0
  4 36  1  0  0  0  0
  5 15  2  0  0  0  0
  5  7  1  0  0  0  0
  6  5  1  0  0  0  0
  7  9  2  0  0  0  0
  8  7  1  0  0  0  0
  9 11  1  0  0  0  0
  9 10  1  0  0  0  0
 11 12  1  0  0  0  0
 13 14  1  0  0  0  0
 13 11  2  0  0  0  0
 15 13  1  0  0  0  0
 16  1  1  6  0  0  0
 16 15  1  0  0  0  0
 17 18  1  0  0  0  0
 17 16  1  0  0  0  0
 19 17  2  0  0  0  0
 20 22  1  0  0  0  0
 20 19  1  0  0  0  0
 20 23  1  0  0  0  0
 21 20  1  0  0  0  0
 24  3  1  0  0  0  0
 24 27  1  0  0  0  0
 25 24  1  0  0  0  0
 26 24  1  0  0  0  0
 27 28  2  0  0  0  0
 27 36  1  0  0  0  0
 28 30  1  0  0  0  0
 29 28  1  0  0  0  0
 30 31  1  0  0  0  0
 30 32  2  0  0  0  0
 32 33  1  0  0  0  0
 34 32  1  0  0  0  0
 34 35  1  0  0  0  0
 36 34  2  0  0  0  0
 37 38  1  0  0  0  0
 39 37  2  0  0  0  0
 39 40  1  0  0  0  0
 40  2  1  0  0  0  0
 40 41  2  0  0  0  0
 41 42  1  0  0  0  0
 43 44  1  0  0  0  0
 43 41  1  0  0  0  0
 45 43  2  0  0  0  0
 46 45  1  0  0  0  0
 46 39  1  0  0  0  0
 47 46  2  0  0  0  0
 48 47  1  0  0  0  0
 49 47  1  0  0  0  0
 49 51  2  0  0  0  0
 50 49  1  0  0  0  0
 51 53  1  0  0  0  0
 52 51  1  0  0  0  0
 53 54  1  0  0  0  0
 53 45  1  0  0  0  0
M  CHG  1   2  -1
M  END
