53,54,55,56
q = -2.0, confidence = 0.88

 60 62  0  0  1  0  0  0  0  0999 V2000
    4.0211   -0.8051    0.1793 C   0  0  0  0  0  0  0  0  0  0  0  0
    5.2128   -1.5416    0.3302 C   0  0  0  0  0  0  0  0  0  0  0  0
    5.1882   -2.6351    0.4319 H   0  0  0  0  0  0  0  0  0  0  0  0
    6.4457   -0.8792    0.3381 C   0  0  0  0  0  0  0  0  0  0  0  0
    7.3732   -1.4594    0.4515 H   0  0  0  0  0  0  0  0  0  0  0  0
    6.5007    0.5196    0.1934 C   0  0  0  0  0  0  0  0  0  0  0  0
    7.4714    1.0368    0.1959 H   0  0  0  0  0  0  0  0  0  0  0  0
    5.3240    1.2614    0.0383 C   0  0  0  0  0  0  0  0  0  0  0  0
    5.3873    2.3516   -0.0795 H   0  0  0  0  0  0  0  0  0  0  0  0
    4.0764    0.6059    0.0285 C   0  0  0  0  0  0  0  0  0  0  0  0
    2.4604   -2.6090    0.3624 C   0  0  0  0  0  0  0  0  0  0  0  0
    3.3187   -3.2662    0.5896 H   0  0  0  0  0  0  0  0  0  0  0  0
    1.1916   -3.2413    0.3199 C   0  0  0  0  0  0  0  0  0  0  0  0
    1.1089   -4.6500    0.5675 C   0  0  0  0  0  0  0  0  0  0  0  0
    2.0312   -5.1981    0.8141 H   0  0  0  0  0  0  0  0  0  0  0  0
   -0.1039   -5.3036    0.4908 C   0  0  0  0  0  0  0  0  0  0  0  0
   -0.1719   -6.3841    0.6826 H   0  0  0  0  0  0  0  0  0  0  0  0
   -1.2834   -4.5825    0.1522 C   0  0  0  0  0  0  0  0  0  0  0  0
   -2.2352   -5.1267    0.0931 H   0  0  0  0  0  0  0  0  0  0  0  0
   -1.2474   -3.2118   -0.0964 C   0  0  0  0  0  0  0  0  0  0  0  0
    0.0050   -2.4824    0.0026 C   0  0  2  0  0  3  0  0  0  0  0  0
   -3.5215   -3.1465   -0.7617 C   0  0  0  0  0  0  0  0  0  0  0  0
   -3.9326   -3.6581    0.1395 H   0  0  0  0  0  0  0  0  0  0  0  0
   -3.3175   -3.9248   -1.5340 H   0  0  0  0  0  0  0  0  0  0  0  0
   -4.5655   -2.1879   -1.2935 C   0  0  0  0  0  0  0  0  0  0  0  0
   -4.0979   -1.5021   -2.0429 H   0  0  0  0  0  0  0  0  0  0  0  0
   -5.3343   -2.7944   -1.8365 H   0  0  0  0  0  0  0  0  0  0  0  0
   -6.2750   -0.7160   -0.6616 C   0  0  0  0  0  0  0  0  0  0  0  0
   -6.0033    0.0382   -1.4392 H   0  0  0  0  0  0  0  0  0  0  0  0
   -6.6751   -0.1790    0.2199 H   0  0  0  0  0  0  0  0  0  0  0  0
   -7.0809   -1.3663   -1.0832 H   0  0  0  0  0  0  0  0  0  0  0  0
    2.6686    2.5244   -0.2219 C   0  0  0  0  0  0  0  0  0  0  0  0
    3.5864    3.1386   -0.2055 H   0  0  0  0  0  0  0  0  0  0  0  0
    1.4483    3.2369   -0.3322 C   0  0  0  0  0  0  0  0  0  0  0  0
    1.4647    4.6667   -0.4069 C   0  0  0  0  0  3  0  0  0  0  0  0
    2.4346    5.1874   -0.3905 H   0  0  0  0  0  0  0  0  0  0  0  0
    0.2788    5.3746   -0.4903 C   0  0  0  0  0  0  0  0  0  0  0  0
    0.2871    6.4728   -0.5459 H   0  0  0  0  0  0  0  0  0  0  0  0
   -0.9621    4.6849   -0.4737 C   0  0  0  0  0  0  0  0  0  0  0  0
   -1.9167    5.2308   -0.5030 H   0  0  0  0  0  0  0  0  0  0  0  0
   -1.0276    3.2944   -0.4053 C   0  0  0  0  0  0  0  0  0  0  0  0
    0.1951    2.5215   -0.3753 C   0  0  0  0  0  0  0  0  0  0  0  0
   -2.4951    1.5318    0.3682 C   0  0  0  0  0  0  0  0  0  0  0  0
   -1.9146    1.5872    1.3135 H   0  0  0  0  0  0  0  0  0  0  0  0
   -2.1900    0.6083   -0.1632 H   0  0  0  0  0  0  0  0  0  0  0  0
   -3.9688    1.4936    0.6861 C   0  0  0  0  0  0  0  0  0  0  0  0
   -4.5480    1.6340   -0.2615 H   0  0  0  0  0  0  0  0  0  0  0  0
   -4.2190    0.4736    1.0686 H   0  0  0  0  0  0  0  0  0  0  0  0
   -5.6595    2.5226    1.9338 C   0  0  0  0  0  0  0  0  0  0  0  0
   -6.2964    2.7306    1.0365 H   0  0  0  0  0  0  0  0  0  0  0  0
   -5.8299    3.3277    2.6758 H   0  0  0  0  0  0  0  0  0  0  0  0
   -6.0137    1.5560    2.3755 H   0  0  0  0  0  0  0  0  0  0  0  0
    2.7087   -1.3241    0.1512 N   0  0  0  0  0  2  0  0  0  0  0  0
    2.8080    1.2086   -0.1150 N   0  0  0  0  0  2  0  0  0  0  0  0
   -0.0108   -1.2100   -0.2088 O   0  0  0  0  0  1  0  0  0  0  0  0
    0.1011    1.2311   -0.4016 O   0  5  0  0  0  0  0  0  0  0  0  0
   -2.3217   -2.4551   -0.4506 O   0  0  0  0  0  0  0  0  0  0  0  0
   -5.1644   -1.4709   -0.2373 O   0  0  0  0  0  0  0  0  0  0  0  0
   -2.2452    2.7006   -0.4376 O   0  0  0  0  0  0  0  0  0  0  0  0
   -4.2932    2.4991    1.6238 O   0  0  0  0  0  0  0  0  0  0  0  0
  1  2  1  0  0  0  0
  2  4  2  0  0  0  0
  2  3  1  0  0  0  0
  4  5  1  0  0  0  0
  6  7  1  0  0  0  0
  6  4  1  0  0  0  0
  8  6  2  0  0  0  0
  9  8  1  0  0  0  0
 10  8  1  0  0  0  0
 10  1  2  0  0  0  0
 11 12  1  0  0  0  0
 13 11  2  0  0  0  0
 13 14  1  0  0  0  0
 14 15  1  0  0  0  0
 16 14  2  0  0  0  0
 16 17  1  0  0  0  0
 18 16  1  0  0  0  0
 19 18  1  0  0  0  0
 20 21  1  0  0  0  0
 20 18  2  0  0  0  0
 21 55  1  6  0  0  0
 21 13  1  0  0  0  0
 22 57  1  0  0  0  0
 22 23  1  0  0  0  0
 24 22  1  0  0  0  0
 25 22  1  0  0  0  0
 25 58  1  0  0  0  0
 26 25  1  0  0  0  0
 27 25  1  0  0  0  0
 28 58  1  0  0  0  0
 28 30  1  0  0  0  0
 29 28  1  0  0  0  0
 31 28  1  0  0  0  0
 32 33  1  0  0  0  0
 32 54  1  0  0  0  0
 34 32  2  0  0  0  0
 35 36  1  0  0  0  0
 35 34  1  0  0  0  0
 37 39  2  0  0  0  0
 37 35  1  0  0  0  0
 38 37  1  0  0  0  0
 39 41  1  0  0  0  0
 40 39  1  0  0  0  0
 41 42  2  0  0  0  0
 42 34  1  0  0  0  0
 43 46  1  0  0  0  0
 43 44  1  0  0  0  0
 45 43  1  0  0  0  0
 46 48  1  0  0  0  0
 46 60  1  0  0  0  0
 47 46  1  0  0  0  0
 49 52  1  0  0  0  0
 49 51  1  0  0  0  0
 50 49  1  0  0  0  0
 53  1  1  0  0  0  0
 53 11  1  0  0  0  0
 54 10  1  0  0  0  0
 56 42  1  0  0  0  0
 57 20  1  0  0  0  0
 59 41  1  0  0  0  0
 59 43  1  0  0  0  0
 60 49  1  0  0  0  0
M  CHG  1  56  -1
M  END
