1,3,5,6
q = -2.0, confidence = 0.812

 52 54  0  0  1  0  0  0  0  0999 V2000
    1.2337   -2.2517   -0.0006 O   0  0  0  0  0  1  0  0  0  0  0  0
    5.3001    0.2622    0.0004 O   0  0  0  0  0  0  0  0  0  0  0  0
   -1.2337   -2.2517   -0.0005 O   0  0  0  0  0  1  0  0  0  0  0  0
   -5.3001    0.2622    0.0003 O   0  0  0  0  0  0  0  0  0  0  0  0
    1.2741    0.4817   -0.0003 N   0  0  0  0  0  2  0  0  0  0  0  0
   -1.2741    0.4817   -0.0003 N   0  0  0  0  0  2  0  0  0  0  0  0
    2.5247   -2.1876   -0.0003 C   0  0  2  0  0  3  0  0  0  0  0  0
    3.2728   -3.4088   -0.0001 C   0  0  0  0  0  0  0  0  0  0  0  0
    2.7041   -4.3485   -0.0002 H   0  0  0  0  0  0  0  0  0  0  0  0
    4.6575   -3.3836    0.0003 C   0  0  0  0  0  0  0  0  0  0  0  0
    5.2127   -4.3349    0.0004 H   0  0  0  0  0  0  0  0  0  0  0  0
    5.3957   -2.1706    0.0004 C   0  0  0  0  0  0  0  0  0  0  0  0
    6.4918   -2.2006    0.0007 H   0  0  0  0  0  0  0  0  0  0  0  0
    4.7021   -0.9626    0.0003 C   0  0  0  0  0  0  0  0  0  0  0  0
    3.2593   -0.9385   -0.0001 C   0  0  0  0  0  0  0  0  0  0  0  0
    6.7135    0.3243    0.0010 C   0  0  0  0  0  0  0  0  0  0  0  0
    7.1461   -0.1590    0.9051 H   0  0  0  0  0  0  0  0  0  0  0  0
    6.9803    1.3974    0.0012 H   0  0  0  0  0  0  0  0  0  0  0  0
    7.1468   -0.1588   -0.9029 H   0  0  0  0  0  0  0  0  0  0  0  0
    2.5886    0.3063   -0.0001 C   0  0  0  0  0  0  0  0  0  0  0  0
    3.2327    1.2005    0.0000 H   0  0  0  0  0  0  0  0  0  0  0  0
    0.7072    1.7749   -0.0003 C   0  0  0  0  0  0  0  0  0  0  0  0
    1.3991    3.0008   -0.0002 C   0  0  0  0  0  0  0  0  0  0  0  0
    2.4982    3.0182   -0.0003 H   0  0  0  0  0  0  0  0  0  0  0  0
    0.7129    4.2243   -0.0001 C   0  0  0  0  0  0  0  0  0  0  0  0
   -0.7129    4.2243   -0.0001 C   0  0  0  0  0  0  0  0  0  0  0  0
   -1.3991    3.0008   -0.0001 C   0  0  0  0  0  0  0  0  0  0  0  0
   -2.4982    3.0182   -0.0001 H   0  0  0  0  0  0  0  0  0  0  0  0
   -0.7072    1.7748   -0.0002 C   0  0  0  0  0  0  0  0  0  0  0  0
    1.4743    5.5243   -0.0001 C   0  0  0  0  0  0  0  0  0  0  0  0
    2.5679    5.3548   -0.0001 H   0  0  0  0  0  0  0  0  0  0  0  0
    1.2273    6.1439    0.8884 H   0  0  0  0  0  0  0  0  0  0  0  0
    1.2272    6.1441   -0.8883 H   0  0  0  0  0  0  0  0  0  0  0  0
   -1.4743    5.5243    0.0000 C   0  0  0  0  0  0  0  0  0  0  0  0
   -2.5680    5.3548   -0.0001 H   0  0  0  0  0  0  0  0  0  0  0  0
   -1.2272    6.1441   -0.8882 H   0  0  0  0  0  0  0  0  0  0  0  0
   -1.2274    6.1439    0.8885 H   0  0  0  0  0  0  0  0  0  0  0  0
   -2.5886    0.3063   -0.0001 C   0  0  0  0  0  0  0  0  0  0  0  0
   -3.2327    1.2005    0.0001 H   0  0  0  0  0  0  0  0  0  0  0  0
   -3.2593   -0.9385   -0.0000 C   0  0  0  0  0  0  0  0  0  0  0  0
   -4.7021   -0.9626    0.0002 C   0  0  0  0  0  0  0  0  0  0  0  0
   -5.3957   -2.1706    0.0004 C   0  0  0  0  0  0  0  0  0  0  0  0
   -6.4918   -2.2006    0.0006 H   0  0  0  0  0  0  0  0  0  0  0  0
   -4.6575   -3.3836    0.0002 C   0  0  0  0  0  0  0  0  0  0  0  0
   -5.2127   -4.3349    0.0004 H   0  0  0  0  0  0  0  0  0  0  0  0
   -3.2728   -3.4088   -0.0001 C   0  0  0  0  0  0  0  0  0  0  0  0
   -2.7041   -4.3485   -0.0002 H   0  0  0  0  0  0  0  0  0  0  0  0
   -2.5247   -2.1876   -0.0002 C   0  0  1  0  0  3  0  0  0  0  0  0
   -6.7135    0.3243    0.0010 C   0  0  0  0  0  0  0  0  0  0  0  0
   -7.1469   -0.1588   -0.9029 H   0  0  0  0  0  0  0  0  0  0  0  0
   -6.9803    1.3974    0.0012 H   0  0  0  0  0  0  0  0  0  0  0  0
   -7.1461   -0.1591    0.9051 H   0  0  0  0  0  0  0  0  0  0  0  0
  2 16  1  0  0  0  0
  4 49  1  0  0  0  0
  5 22  1  0  0  0  0
  5 20  1  0  0  0  0
  6 29  1  0  0  0  0
  6 38  1  0  0  0  0
  7  1  1  1  0  0  0
  7  8  1  0  0  0  0
  7 15  1  0  0  0  0
  8 10  2  0  0  0  0
  9  8  1  0  0  0  0
 10 12  1  0  0  0  0
 10 11  1  0  0  0  0
 12 13  1  0  0  0  0
 14  2  1  0  0  0  0
 14 12  2  0  0  0  0
 15 14  1  0  0  0  0
 16 18  1  0  0  0  0
 16 17  1  0  0  0  0
 19 16  1  0  0  0  0
 20 15  2  0  0  0  0
 20 21  1  0  0  0  0
 22 29  2  0  0  0  0
 22 23  1  0  0  0  0
 23 25  2  0  0  0  0
 24 23  1  0  0  0  0
 25 26  1  0  0  0  0
 25 30  1  0  0  0  0
 26 34  1  0  0  0  0
 27 28  1  0  0  0  0
 27 26  2  0  0  0  0
 29 27  1  0  0  0  0
 30 32  1  0  0  0  0
 31 30  1  0  0  0  0
 33 30  1  0  0  0  0
 34 37  1  0  0  0  0
 35 34  1  0  0  0  0
 36 34  1  0  0  0  0
 38 40  2  0  0  0  0
 38 39  1  0  0  0  0
 40 41  1  0  0  0  0
 41  4  1  0  0  0  0
 41 42  2  0  0  0  0
 42 43  1  0  0  0  0
 44 45  1  0  0  0  0
 44 42  1  0  0  0  0
 46 44  2  0  0  0  0
 47 46  1  0  0  0  0
 48  3  1  6  0  0  0
 48 46  1  0  0  0  0
 48 40  1  0  0  0  0
 49 51  1  0  0  0  0
 49 52  1  0  0  0  0
 50 49  1  0  0  0  0
M  END
