3,4,5,6
q = -2.0, confidence = 0.988

 44 46  0  0  1  0  0  0  0  0999 V2000
    2.8449   -3.0066   -2.3285 F   0  0  0  0  0  0  0  0  0  0  0  0
   -3.3833   -3.3739   -0.5938 F   0  0  0  0  0  0  0  0  0  0  0  0
   -1.6516   -1.3473   -0.6076 O   0  5  0  0  0  0  0  0  0  0  0  0
    1.3054   -1.1082   -1.2667 O   0  5  0  0  0  0  0  0  0  0  0  0
   -1.3458    1.5212   -0.4404 N   0  0  0  0  0  2  0  0  0  0  0  0
    1.2819    1.4140    0.1359 N   0  0  0  0  0  2  0  0  0  0  0  0
   -2.9036   -1.0508   -0.6573 C   0  0  0  0  0  0  0  0  0  0  0  0
   -3.8716   -2.1190   -0.6788 C   0  0  0  0  0  0  0  0  0  0  0  0
   -5.2367   -1.9127   -0.7703 C   0  0  0  0  0  0  0  0  0  0  0  0
   -5.7509   -0.5922   -0.8359 C   0  0  0  0  0  0  0  0  0  0  0  0
   -4.8692    0.4776   -0.7889 C   0  0  0  0  0  0  0  0  0  0  0  0
   -3.4581    0.2874   -0.6856 C   0  0  0  0  0  0  0  0  0  0  0  0
   -2.6402    1.4688   -0.5986 C   0  0  0  0  0  3  0  0  0  0  0  0
   -0.6355    2.8007   -0.3777 C   0  0  1  0  0  0  0  0  0  0  0  0
   -1.4676    4.0235    0.0309 C   0  0  0  0  0  0  0  0  0  0  0  0
   -0.6126    5.2921    0.1264 C   0  0  0  0  0  0  0  0  0  0  0  0
    0.5718    5.1002    1.0774 C   0  0  0  0  0  0  0  0  0  0  0  0
    1.4279    3.9031    0.6509 C   0  0  0  0  0  0  0  0  0  0  0  0
    0.5952    2.6205    0.5652 C   0  0  2  0  0  0  0  0  0  0  0  0
    2.5621    1.3569   -0.1072 C   0  0  0  0  0  3  0  0  0  0  0  0
    3.2662    0.2264   -0.6532 C   0  0  0  0  0  0  0  0  0  0  0  0
    4.6916    0.3086   -0.6953 C   0  0  0  0  0  0  0  0  0  0  0  0
    5.4676   -0.6990   -1.2464 C   0  0  0  0  0  0  0  0  0  0  0  0
    4.8245   -1.8351   -1.8023 C   0  0  0  0  0  0  0  0  0  0  0  0
    3.4440   -1.9288   -1.7927 C   0  0  0  0  0  0  0  0  0  0  0  0
    2.5778   -0.9252   -1.2168 C   0  0  0  0  0  0  0  0  0  0  0  0
   -5.9008   -2.7900   -0.7879 H   0  0  0  0  0  0  0  0  0  0  0  0
   -6.8348   -0.4282   -0.9158 H   0  0  0  0  0  0  0  0  0  0  0  0
   -5.2518    1.5109   -0.8236 H   0  0  0  0  0  0  0  0  0  0  0  0
   -3.2150    2.4170   -0.6743 H   0  0  0  0  0  0  0  0  0  0  0  0
   -0.2059    2.9878   -1.3924 H   0  0  0  0  0  0  0  0  0  0  0  0
   -2.2906    4.1879   -0.6945 H   0  0  0  0  0  0  0  0  0  0  0  0
   -1.9479    3.8146    1.0131 H   0  0  0  0  0  0  0  0  0  0  0  0
   -0.2304    5.5538   -0.8853 H   0  0  0  0  0  0  0  0  0  0  0  0
   -1.2416    6.1462    0.4518 H   0  0  0  0  0  0  0  0  0  0  0  0
    0.1923    4.9339    2.1102 H   0  0  0  0  0  0  0  0  0  0  0  0
    1.1939    6.0179    1.1173 H   0  0  0  0  0  0  0  0  0  0  0  0
    1.8831    4.1077   -0.3438 H   0  0  0  0  0  0  0  0  0  0  0  0
    2.2698    3.7598    1.3603 H   0  0  0  0  0  0  0  0  0  0  0  0
    0.1669    2.4129    1.5776 H   0  0  0  0  0  0  0  0  0  0  0  0
    3.2035    2.2392    0.1121 H   0  0  0  0  0  0  0  0  0  0  0  0
    5.1708    1.2060   -0.2705 H   0  0  0  0  0  0  0  0  0  0  0  0
    6.5641   -0.6240   -1.2639 H   0  0  0  0  0  0  0  0  0  0  0  0
    5.3998   -2.6576   -2.2537 H   0  0  0  0  0  0  0  0  0  0  0  0
  1 25  1  0  0  0  0
  4 26  1  0  0  0  0
  5 14  1  0  0  0  0
  6 19  1  0  0  0  0
  7  3  1  0  0  0  0
  8  7  1  0  0  0  0
  8  2  1  0  0  0  0
  9  8  2  0  0  0  0
 10 11  2  0  0  0  0
 10  9  1  0  0  0  0
 11 12  1  0  0  0  0
 12  7  2  0  0  0  0
 12 13  1  0  0  0  0
 13  5  1  0  0  0  0
 14 31  1  6  0  0  0
 14 15  1  0  0  0  0
 14 19  1  0  0  0  0
 15 16  1  0  0  0  0
 15 33  1  0  0  0  0
 16 35  1  0  0  0  0
 16 17  1  0  0  0  0
 17 37  1  0  0  0  0
 17 36  1  0  0  0  0
 18 17  1  0  0  0  0
 18 39  1  0  0  0  0
 19 18  1  0  0  0  0
 19 40  1  1  0  0  0
 20 41  1  0  0  0  0
 20  6  1  0  0  0  0
 21 20  1  0  0  0  0
 22 21  1  0  0  0  0
 22 42  1  0  0  0  0
 23 22  2  0  0  0  0
 24 25  2  0  0  0  0
 24 23  1  0  0  0  0
 25 26  1  0  0  0  0
 26 21  2  0  0  0  0
 27  9  1  0  0  0  0
 28 10  1  0  0  0  0
 29 11  1  0  0  0  0
 30 13  1  0  0  0  0
 32 15  1  0  0  0  0
 34 16  1  0  0  0  0
 38 18  1  0  0  0  0
 43 23  1  0  0  0  0
 44 24  1  0  0  0  0
M  CHG  2   3  -1   4  -1
M  END
