1,2,3,4
q = -2.0, confidence = 0.842

 40 41  0  0  1  0  0  0  0  0999 V2000
    1.2605    1.6825    0.1596 N   0  0  0  0  0  2  0  0  0  0  0  0
   -1.2605    1.6825   -0.1596 N   0  0  0  0  0  2  0  0  0  0  0  0
    1.2489   -1.0327    0.0545 O   0  0  0  0  0  1  0  0  0  0  0  0
   -1.2489   -1.0327   -0.0548 O   0  5  0  0  0  0  0  0  0  0  0  0
    3.2710    0.3138    0.0631 C   0  0  0  0  0  0  0  0  0  0  0  0
    2.5427   -0.9337    0.0238 C   0  0  1  0  0  3  0  0  0  0  0  0
    3.3239   -2.1325   -0.0437 C   0  0  0  0  0  0  0  0  0  0  0  0
    2.7750   -3.0848   -0.0705 H   0  0  0  0  0  0  0  0  0  0  0  0
    4.7092   -2.0905   -0.0763 C   0  0  0  0  0  0  0  0  0  0  0  0
    5.2700   -3.0384   -0.1309 H   0  0  0  0  0  0  0  0  0  0  0  0
    5.4371   -0.8636   -0.0405 C   0  0  0  0  0  0  0  0  0  0  0  0
    4.6967    0.3110    0.0308 C   0  0  0  0  0  0  0  0  0  0  0  0
    5.2187    1.2823    0.0653 H   0  0  0  0  0  0  0  0  0  0  0  0
    2.5689    1.5499    0.1619 C   0  0  0  0  0  0  0  0  0  0  0  0
    3.1750    2.4731    0.2602 H   0  0  0  0  0  0  0  0  0  0  0  0
    0.6572    2.9970    0.3825 C   0  0  0  0  0  0  0  0  0  0  0  0
    0.4575    3.1264    1.4699 H   0  0  0  0  0  0  0  0  0  0  0  0
    1.3317    3.8179    0.0570 H   0  0  0  0  0  0  0  0  0  0  0  0
   -0.6572    2.9970   -0.3825 C   0  0  0  0  0  0  0  0  0  0  0  0
   -0.4576    3.1264   -1.4699 H   0  0  0  0  0  0  0  0  0  0  0  0
   -1.3317    3.8179   -0.0570 H   0  0  0  0  0  0  0  0  0  0  0  0
   -2.5689    1.5499   -0.1619 C   0  0  0  0  0  0  0  0  0  0  0  0
   -3.1750    2.4731   -0.2603 H   0  0  0  0  0  0  0  0  0  0  0  0
   -3.2710    0.3138   -0.0631 C   0  0  0  0  0  0  0  0  0  0  0  0
   -2.5427   -0.9337   -0.0239 C   0  0  0  0  0  0  0  0  0  0  0  0
   -3.3239   -2.1325    0.0436 C   0  0  0  0  0  0  0  0  0  0  0  0
   -2.7750   -3.0848    0.0704 H   0  0  0  0  0  0  0  0  0  0  0  0
   -4.7092   -2.0905    0.0764 C   0  0  0  0  0  0  0  0  0  0  0  0
   -5.2700   -3.0384    0.1310 H   0  0  0  0  0  0  0  0  0  0  0  0
   -5.4371   -0.8636    0.0406 C   0  0  0  0  0  0  0  0  0  0  0  0
   -4.6967    0.3110   -0.0307 C   0  0  0  0  0  3  0  0  0  0  0  0
   -5.2187    1.2822   -0.0652 H   0  0  0  0  0  0  0  0  0  0  0  0
    6.9442   -0.8664   -0.0770 C   0  0  0  0  0  0  0  0  0  0  0  0
    7.3546    0.1614   -0.0358 H   0  0  0  0  0  0  0  0  0  0  0  0
    7.3291   -1.3453   -1.0025 H   0  0  0  0  0  0  0  0  0  0  0  0
    7.3723   -1.4342    0.7763 H   0  0  0  0  0  0  0  0  0  0  0  0
   -6.9442   -0.8664    0.0773 C   0  0  0  0  0  0  0  0  0  0  0  0
   -7.3546    0.1614    0.0357 H   0  0  0  0  0  0  0  0  0  0  0  0
   -7.3290   -1.3450    1.0031 H   0  0  0  0  0  0  0  0  0  0  0  0
   -7.3723   -1.4346   -0.7757 H   0  0  0  0  0  0  0  0  0  0  0  0
  1 14  1  0  0  0  0
  1 16  1  0  0  0  0
  4 25  1  0  0  0  0
  5 14  2  0  0  0  0
  6  3  1  1  0  0  0
  6  5  1  0  0  0  0
  7  6  1  0  0  0  0
  8  7  1  0  0  0  0
  9  7  2  0  0  0  0
  9 11  1  0  0  0  0
 10  9  1  0  0  0  0
 11 12  2  0  0  0  0
 12  5  1  0  0  0  0
 12 13  1  0  0  0  0
 14 15  1  0  0  0  0
 16 17  1  0  0  0  0
 18 16  1  0  0  0  0
 19  2  1  0  0  0  0
 19 21  1  0  0  0  0
 19 16  1  0  0  0  0
 20 19  1  0  0  0  0
 22  2  1  0  0  0  0
 22 24  2  0  0  0  0
 23 22  1  0  0  0  0
 24 31  1  0  0  0  0
 24 25  1  0  0  0  0
 25 26  2  0  0  0  0
 26 27  1  0  0  0  0
 26 28  1  0  0  0  0
 28 29  1  0  0  0  0
 30 28  2  0  0  0  0
 30 37  1  0  0  0  0
 31 30  1  0  0  0  0
 32 31  1  0  0  0  0
 33 11  1  0  0  0  0
 33 34  1  0  0  0  0
 33 36  1  0  0  0  0
 35 33  1  0  0  0  0
 37 39  1  0  0  0  0
 38 37  1  0  0  0  0
 40 37  1  0  0  0  0
M  CHG  1   4  -1
M  END
