1,9,16,24
q = -2.0, confidence = 0.804

 73 77  0  0  1  0  0  0  0  0999 V2000
    1.2085    1.3719    0.7887 O   0  5  0  0  0  0  0  0  0  0  0  0
    1.2746    2.6689    0.7372 C   0  0  0  0  0  0  0  0  0  0  0  0
    0.1066    3.4289    1.1182 C   0  0  0  0  0  0  0  0  0  0  0  0
    0.1351    4.8232    1.0879 C   0  0  0  0  0  0  0  0  0  0  0  0
    1.2950    5.5368    0.6997 C   0  0  0  0  0  0  0  0  0  0  0  0
    2.4326    4.8398    0.3238 C   0  0  0  0  0  3  0  0  0  0  0  0
    2.4417    3.4125    0.3324 C   0  0  0  0  0  0  0  0  0  0  0  0
    3.6219    2.7121   -0.0552 C   0  0  0  0  0  0  0  0  0  0  0  0
    3.7769    1.4064   -0.0564 N   0  0  0  0  0  2  0  0  0  0  0  0
    5.0068    0.8218   -0.5985 C   0  0  2  0  0  0  0  0  0  0  0  0
    4.8786    0.5829   -2.1138 C   0  0  0  0  0  0  0  0  0  0  0  0
    6.0671   -0.2065   -2.6709 C   0  0  0  0  0  0  0  0  0  0  0  0
    6.2272   -1.5442   -1.9385 C   0  0  0  0  0  0  0  0  0  0  0  0
    6.3652   -1.3217   -0.4274 C   0  0  0  0  0  0  0  0  0  0  0  0
    5.2207   -0.4913    0.1703 C   0  0  2  0  0  0  0  0  0  0  0  0
    3.8827   -1.1216    0.2188 N   0  0  0  0  0  2  0  0  0  0  0  0
    3.7315   -2.4261    0.2227 C   0  0  0  0  0  0  0  0  0  0  0  0
    2.4942   -3.1281    0.3436 C   0  0  0  0  0  0  0  0  0  0  0  0
    2.4852   -4.5524    0.2254 C   0  0  0  0  0  3  0  0  0  0  0  0
    1.2997   -5.2578    0.3214 C   0  0  0  0  0  0  0  0  0  0  0  0
    0.0791   -4.5650    0.5445 C   0  0  0  0  0  0  0  0  0  0  0  0
    0.0536   -3.1775    0.6808 C   0  0  0  0  0  0  0  0  0  0  0  0
    1.2754   -2.4023    0.5843 C   0  0  0  0  0  0  0  0  0  0  0  0
    1.1936   -1.1179    0.7240 O   0  5  0  0  0  0  0  0  0  0  0  0
   -1.0648   -2.4341    0.8954 O   0  0  0  0  0  0  0  0  0  0  0  0
   -2.3194   -3.0979    0.8878 C   0  0  0  0  0  0  0  0  0  0  0  0
   -3.3973   -2.0489    1.1146 C   0  0  0  0  0  0  0  0  0  0  0  0
   -5.0735   -2.7613    0.9678 S   0  0  0  0  0  0  0  0  0  0  0  0
   -5.3453   -2.5094   -0.8415 C   0  0  0  0  0  0  0  0  0  0  0  0
   -5.7366   -1.0908   -1.1635 C   0  0  0  0  0  0  0  0  0  0  0  0
   -7.0886   -0.7239   -1.2969 C   0  0  0  0  0  0  0  0  0  0  0  0
   -7.4012    0.6179   -1.5569 C   0  0  0  0  0  0  0  0  0  0  0  0
   -6.3617    1.5459   -1.6623 C   0  0  0  0  0  0  0  0  0  0  0  0
   -5.0311    1.0975   -1.5174 C   0  0  0  0  0  0  0  0  0  0  0  0
   -4.7313   -0.1946   -1.2812 N   0  0  0  0  0  0  0  0  0  0  0  0
   -3.8824    2.0714   -1.5757 C   0  0  0  0  0  0  0  0  0  0  0  0
   -3.7391    3.0510   -0.0226 S   0  0  0  0  0  0  0  0  0  0  0  0
   -3.0539    1.7509    1.0712 C   0  0  0  0  0  0  0  0  0  0  0  0
   -1.5393    1.6387    0.9938 C   0  0  0  0  0  0  0  0  0  0  0  0
   -1.0157    2.8300    1.5961 O   0  0  0  0  0  0  0  0  0  0  0  0
   -0.7873    5.3467    1.3794 H   0  0  0  0  0  0  0  0  0  0  0  0
    1.2817    6.6363    0.6901 H   0  0  0  0  0  0  0  0  0  0  0  0
    3.3448    5.3729    0.0130 H   0  0  0  0  0  0  0  0  0  0  0  0
    4.4828    3.3241   -0.3925 H   0  0  0  0  0  0  0  0  0  0  0  0
    5.8670    1.5024   -0.4061 H   0  0  0  0  0  0  0  0  0  0  0  0
    3.9341    0.0237   -2.2882 H   0  0  0  0  0  0  0  0  0  0  0  0
    4.7668    1.5621   -2.6234 H   0  0  0  0  0  0  0  0  0  0  0  0
    7.0000    0.3905   -2.5565 H   0  0  0  0  0  0  0  0  0  0  0  0
    5.9345   -0.3712   -3.7599 H   0  0  0  0  0  0  0  0  0  0  0  0
    5.3431   -2.1843   -2.1488 H   0  0  0  0  0  0  0  0  0  0  0  0
    7.1110   -2.0962   -2.3190 H   0  0  0  0  0  0  0  0  0  0  0  0
    7.3020   -0.7586   -0.2252 H   0  0  0  0  0  0  0  0  0  0  0  0
    6.4804   -2.2800    0.1197 H   0  0  0  0  0  0  0  0  0  0  0  0
    5.4805   -0.2252    1.2198 H   0  0  0  0  0  0  0  0  0  0  0  0
    4.6366   -3.0534    0.1230 H   0  0  0  0  0  0  0  0  0  0  0  0
    3.4386   -5.0744    0.0483 H   0  0  0  0  0  0  0  0  0  0  0  0
    1.2883   -6.3529    0.2245 H   0  0  0  0  0  0  0  0  0  0  0  0
   -0.8545   -5.1397    0.6125 H   0  0  0  0  0  0  0  0  0  0  0  0
   -2.4785   -3.6130   -0.0895 H   0  0  0  0  0  0  0  0  0  0  0  0
   -2.3642   -3.8800    1.6811 H   0  0  0  0  0  0  0  0  0  0  0  0
   -3.3074   -1.2304    0.3724 H   0  0  0  0  0  0  0  0  0  0  0  0
   -3.3101   -1.6074    2.1273 H   0  0  0  0  0  0  0  0  0  0  0  0
   -4.4221   -2.7928   -1.3847 H   0  0  0  0  0  0  0  0  0  0  0  0
   -6.1480   -3.2208   -1.1155 H   0  0  0  0  0  0  0  0  0  0  0  0
   -7.8799   -1.4817   -1.1962 H   0  0  0  0  0  0  0  0  0  0  0  0
   -8.4488    0.9346   -1.6752 H   0  0  0  0  0  0  0  0  0  0  0  0
   -6.5644    2.6112   -1.8468 H   0  0  0  0  0  0  0  0  0  0  0  0
   -4.0305    2.8246   -2.3745 H   0  0  0  0  0  0  0  0  0  0  0  0
   -2.9350    1.5304   -1.7694 H   0  0  0  0  0  0  0  0  0  0  0  0
   -3.3524    2.0284    2.1022 H   0  0  0  0  0  0  0  0  0  0  0  0
   -3.5431    0.7877    0.8268 H   0  0  0  0  0  0  0  0  0  0  0  0
   -1.1717    0.7366    1.5287 H   0  0  0  0  0  0  0  0  0  0  0  0
   -1.1981    1.5414   -0.0580 H   0  0  0  0  0  0  0  0  0  0  0  0
  2  1  1  0  0  0  0
  2  3  2  0  0  0  0
  3 40  1  0  0  0  0
  4  3  1  0  0  0  0
  4 41  1  0  0  0  0
  5  4  2  0  0  0  0
  6  7  1  0  0  0  0
  6  5  1  0  0  0  0
  7  2  1  0  0  0  0
  8  7  2  0  0  0  0
  9  8  1  0  0  0  0
 10 45  1  1  0  0  0
 10  9  1  0  0  0  0
 10 15  1  0  0  0  0
 11 10  1  0  0  0  0
 12 48  1  0  0  0  0
 12 11  1  0  0  0  0
 12 13  1  0  0  0  0
 13 14  1  0  0  0  0
 14 52  1  0  0  0  0
 14 53  1  0  0  0  0
 14 15  1  0  0  0  0
 15 16  1  0  0  0  0
 15 54  1  1  0  0  0
 16 17  1  0  0  0  0
 17 18  2  0  0  0  0
 18 23  1  0  0  0  0
 19 20  1  0  0  0  0
 19 18  1  0  0  0  0
 20 21  2  0  0  0  0
 21 58  1  0  0  0  0
 21 22  1  0  0  0  0
 22 25  1  0  0  0  0
 23 22  2  0  0  0  0
 23 24  1  0  0  0  0
 26 25  1  0  0  0  0
 26 27  1  0  0  0  0
 26 60  1  0  0  0  0
 27 62  1  0  0  0  0
 28 27  1  0  0  0  0
 29 28  1  0  0  0  0
 30 29  1  0  0  0  0
 31 65  1  0  0  0  0
 31 30  2  0  0  0  0
 32 31  1  0  0  0  0
 33 32  2  0  0  0  0
 33 34  1  0  0  0  0
 34 35  2  0  0  0  0
 35 30  1  0  0  0  0
 36 34  1  0  0  0  0
 36 37  1  0  0  0  0
 37 38  1  0  0  0  0
 38 70  1  0  0  0  0
 39 38  1  0  0  0  0
 39 72  1  0  0  0  0
 39 40  1  0  0  0  0
 42  5  1  0  0  0  0
 43  6  1  0  0  0  0
 44  8  1  0  0  0  0
 46 11  1  0  0  0  0
 47 11  1  0  0  0  0
 49 12  1  0  0  0  0
 50 13  1  0  0  0  0
 51 13  1  0  0  0  0
 55 17  1  0  0  0  0
 56 19  1  0  0  0  0
 57 20  1  0  0  0  0
 59 26  1  0  0  0  0
 61 27  1  0  0  0  0
 63 29  1  0  0  0  0
 64 29  1  0  0  0  0
 66 32  1  0  0  0  0
 67 33  1  0  0  0  0
 68 36  1  0  0  0  0
 69 36  1  0  0  0  0
 71 38  1  0  0  0  0
 73 39  1  0  0  0  0
M  CHG  2   1  -1  24  -1
M  END
