1,2,4,5
q = -2.0, confidence = 0.77

 44 46  0  0  0  0  0  0  0  0999 V2000
   -1.0192    0.0591   -0.0657 N   0  0  0  0  0  2  0  0  0  0  0  0
    0.5013    2.3418    0.1442 O   0  5  0  0  0  0  0  0  0  0  0  0
   -0.6133    2.9850    0.0169 C   0  0  0  0  0  0  0  0  0  0  0  0
    2.5630    0.9943    0.1111 O   0  5  0  0  0  0  0  0  0  0  0  0
    1.0852   -1.3171   -0.0890 N   0  0  0  0  0  2  0  0  0  0  0  0
   -1.8930    2.3425   -0.2089 C   0  0  0  0  0  0  0  0  0  0  0  0
   -3.0657    3.1421   -0.3786 C   0  0  0  0  0  3  0  0  0  0  0  0
   -4.0248    2.6294   -0.5573 H   0  0  0  0  0  0  0  0  0  0  0  0
   -0.0230   -3.5799   -0.1957 C   0  0  0  0  0  0  0  0  0  0  0  0
   -1.0401   -3.9986   -0.2678 H   0  0  0  0  0  0  0  0  0  0  0  0
    0.4950   -4.0031    0.6915 H   0  0  0  0  0  0  0  0  0  0  0  0
    0.5305   -3.9211   -1.0961 H   0  0  0  0  0  0  0  0  0  0  0  0
   -2.9641   -2.8875   -0.8156 N   0  0  0  0  0  0  0  0  0  0  0  0
   -3.0108    4.5241   -0.3137 C   0  0  0  0  0  0  0  0  0  0  0  0
   -3.9206    5.1276   -0.4434 H   0  0  0  0  0  0  0  0  0  0  0  0
   -1.7592    5.1562   -0.0729 C   0  0  0  0  0  0  0  0  0  0  0  0
   -1.7097    6.2552   -0.0182 H   0  0  0  0  0  0  0  0  0  0  0  0
   -0.5978    4.4165    0.0906 C   0  0  0  0  0  0  0  0  0  0  0  0
    0.3755    4.8952    0.2696 H   0  0  0  0  0  0  0  0  0  0  0  0
   -2.0074    0.9303   -0.2443 C   0  0  0  0  0  0  0  0  0  0  0  0
   -3.0169    0.5228   -0.4321 H   0  0  0  0  0  0  0  0  0  0  0  0
   -1.2424   -1.3314   -0.0864 C   0  0  0  0  0  0  0  0  0  0  0  0
   -2.6107   -1.8976    0.0344 C   0  0  0  0  0  0  0  0  0  0  0  0
   -3.4899   -1.4330    1.0447 C   0  0  0  0  0  0  0  0  0  0  0  0
   -3.1614   -0.6536    1.7477 H   0  0  0  0  0  0  0  0  0  0  0  0
   -4.7666   -1.9947    1.1471 C   0  0  0  0  0  0  0  0  0  0  0  0
   -5.4630   -1.6513    1.9273 H   0  0  0  0  0  0  0  0  0  0  0  0
   -5.1355   -3.0090    0.2502 C   0  0  0  0  0  0  0  0  0  0  0  0
   -6.1298   -3.4775    0.2902 H   0  0  0  0  0  0  0  0  0  0  0  0
   -4.1884   -3.4224   -0.6997 C   0  0  0  0  0  0  0  0  0  0  0  0
   -4.4330   -4.2308   -1.4120 H   0  0  0  0  0  0  0  0  0  0  0  0
   -0.0840   -2.0863   -0.1395 C   0  0  0  0  0  0  0  0  0  0  0  0
    2.2868   -1.8906   -0.1028 C   0  0  0  0  0  0  0  0  0  0  0  0
    2.3261   -2.9913   -0.1741 H   0  0  0  0  0  0  0  0  0  0  0  0
    3.5321   -1.2203   -0.0277 C   0  0  0  0  0  0  0  0  0  0  0  0
    4.7409   -1.9842   -0.0534 C   0  0  0  0  0  3  0  0  0  0  0  0
    4.6635   -3.0798   -0.1431 H   0  0  0  0  0  0  0  0  0  0  0  0
    5.9806   -1.3748    0.0320 C   0  0  0  0  0  0  0  0  0  0  0  0
    6.9018   -1.9745    0.0102 H   0  0  0  0  0  0  0  0  0  0  0  0
    6.0501    0.0418    0.1505 C   0  0  0  0  0  0  0  0  0  0  0  0
    7.0343    0.5316    0.2193 H   0  0  0  0  0  0  0  0  0  0  0  0
    4.9024    0.8184    0.1810 C   0  0  0  0  0  0  0  0  0  0  0  0
    4.9434    1.9132    0.2715 H   0  0  0  0  0  0  0  0  0  0  0  0
    3.6010    0.2238    0.0880 C   0  0  0  0  0  0  0  0  0  0  0  0
  3 18  2  0  0  0  0
  3  2  1  0  0  0  0
  6  3  1  0  0  0  0
  7 14  1  0  0  0  0
  7  6  1  0  0  0  0
  8  7  1  0  0  0  0
  9 32  1  0  0  0  0
  9 11  1  0  0  0  0
 10  9  1  0  0  0  0
 12  9  1  0  0  0  0
 13 30  2  0  0  0  0
 13 23  1  0  0  0  0
 14 16  2  0  0  0  0
 15 14  1  0  0  0  0
 16 17  1  0  0  0  0
 16 18  1  0  0  0  0
 18 19  1  0  0  0  0
 20  6  2  0  0  0  0
 20  1  1  0  0  0  0
 21 20  1  0  0  0  0
 22  1  1  0  0  0  0
 22 23  1  0  0  0  0
 23 24  2  0  0  0  0
 24 26  1  0  0  0  0
 24 25  1  0  0  0  0
 26 27  1  0  0  0  0
 28 29  1  0  0  0  0
 28 26  2  0  0  0  0
 30 28  1  0  0  0  0
 31 30  1  0  0  0  0
 32  5  1  0  0  0  0
 32 22  2  0  0  0  0
 33  5  1  0  0  0  0
 33 35  2  0  0  0  0
 34 33  1  0  0  0  0
 35 44  1  0  0  0  0
 36 35  1  0  0  0  0
 36 38  1  0  0  0  0
 37 36  1  0  0  0  0
 38 40  2  0  0  0  0
 39 38  1  0  0  0  0
 40 42  1  0  0  0  0
 40 41  1  0  0  0  0
 42 43  1  0  0  0  0
 44  4  1  0  0  0  0
 44 42  2  0  0  0  0
M  CHG  2   2  -1   4  -1
M  END
