1,2,3,4
q = -2.0, confidence = 0.872

 68 70  0  0  1  0  0  0  0  0999 V2000
   -2.0338   -1.2656    0.1295 N   0  0  0  0  0  2  0  0  0  0  0  0
   -2.0341    1.2652   -0.1295 N   0  0  0  0  0  2  0  0  0  0  0  0
    0.6755   -1.2684    0.1179 O   0  5  0  0  0  0  0  0  0  0  0  0
    0.6752    1.2686   -0.1178 O   0  0  0  0  0  1  0  0  0  0  0  0
   -3.3458   -0.6565    0.3953 C   0  0  2  0  0  0  0  0  0  0  0  0
   -3.3578   -0.3775    1.4763 H   0  0  0  0  0  0  0  0  0  0  0  0
   -4.5936   -1.4911    0.1021 C   0  0  0  0  0  0  0  0  0  0  0  0
   -4.6043   -2.4116    0.7207 H   0  0  0  0  0  0  0  0  0  0  0  0
   -4.5776   -1.8141   -0.9623 H   0  0  0  0  0  0  0  0  0  0  0  0
   -5.8559   -0.6627    0.3859 C   0  0  0  0  0  0  0  0  0  0  0  0
   -6.7590   -1.2563    0.1366 H   0  0  0  0  0  0  0  0  0  0  0  0
   -5.9132   -0.4512    1.4767 H   0  0  0  0  0  0  0  0  0  0  0  0
   -5.8560    0.6615   -0.3862 C   0  0  0  0  0  0  0  0  0  0  0  0
   -5.9132    0.4500   -1.4769 H   0  0  0  0  0  0  0  0  0  0  0  0
   -6.7593    1.2549   -0.1369 H   0  0  0  0  0  0  0  0  0  0  0  0
   -4.5939    1.4902   -0.1023 C   0  0  0  0  0  0  0  0  0  0  0  0
   -4.5781    1.8131    0.9621 H   0  0  0  0  0  0  0  0  0  0  0  0
   -4.6048    2.4106   -0.7208 H   0  0  0  0  0  0  0  0  0  0  0  0
   -3.3459    0.6558   -0.3954 C   0  0  1  0  0  0  0  0  0  0  0  0
   -3.3578    0.3768   -1.4763 H   0  0  0  0  0  0  0  0  0  0  0  0
   -1.8870    2.5659   -0.0351 C   0  0  0  0  0  0  0  0  0  0  0  0
   -2.7964    3.1930   -0.0772 H   0  0  0  0  0  0  0  0  0  0  0  0
   -0.6508    3.2675    0.0901 C   0  0  0  0  0  0  0  0  0  0  0  0
   -0.6924    4.6816    0.2450 C   0  0  0  0  0  0  0  0  0  0  0  0
   -1.6739    5.1782    0.3133 H   0  0  0  0  0  0  0  0  0  0  0  0
    0.4803    5.4121    0.3042 C   0  0  0  0  0  0  0  0  0  0  0  0
    0.4617    6.5041    0.4312 H   0  0  0  0  0  0  0  0  0  0  0  0
    1.7174    4.7339    0.1787 C   0  0  0  0  0  0  0  0  0  0  0  0
    2.6354    5.3365    0.2066 H   0  0  0  0  0  0  0  0  0  0  0  0
    1.8301    3.3512    0.0139 C   0  0  0  0  0  0  0  0  0  0  0  0
    0.6098    2.5655   -0.0015 C   0  0  2  0  0  3  0  0  0  0  0  0
    0.6104   -2.5654    0.0016 C   0  0  0  0  0  0  0  0  0  0  0  0
    1.8308   -3.3508   -0.0139 C   0  0  0  0  0  0  0  0  0  0  0  0
    1.7184   -4.7335   -0.1785 C   0  0  0  0  0  0  0  0  0  0  0  0
    2.6365   -5.3359   -0.2065 H   0  0  0  0  0  0  0  0  0  0  0  0
    0.4815   -5.4120   -0.3039 C   0  0  0  0  0  0  0  0  0  0  0  0
    0.4631   -6.5040   -0.4309 H   0  0  0  0  0  0  0  0  0  0  0  0
   -0.6914   -4.6817   -0.2447 C   0  0  0  0  0  3  0  0  0  0  0  0
   -1.6728   -5.1786   -0.3129 H   0  0  0  0  0  0  0  0  0  0  0  0
   -0.6501   -3.2676   -0.0899 C   0  0  0  0  0  0  0  0  0  0  0  0
   -1.8864   -2.5663    0.0353 C   0  0  0  0  0  0  0  0  0  0  0  0
   -2.7957   -3.1936    0.0774 H   0  0  0  0  0  0  0  0  0  0  0  0
    3.1973    2.6716   -0.1687 C   0  0  0  0  0  0  0  0  0  0  0  0
    4.3589    3.6801   -0.1113 C   0  0  0  0  0  0  0  0  0  0  0  0
    4.2904    4.4464   -0.9103 H   0  0  0  0  0  0  0  0  0  0  0  0
    5.3167    3.1399   -0.2519 H   0  0  0  0  0  0  0  0  0  0  0  0
    4.4121    4.2005    0.8669 H   0  0  0  0  0  0  0  0  0  0  0  0
    3.4194    1.6315    0.9524 C   0  0  0  0  0  0  0  0  0  0  0  0
    3.4242    2.1258    1.9456 H   0  0  0  0  0  0  0  0  0  0  0  0
    4.3981    1.1264    0.8171 H   0  0  0  0  0  0  0  0  0  0  0  0
    2.6274    0.8634    0.9436 H   0  0  0  0  0  0  0  0  0  0  0  0
    3.2328    1.9914   -1.5582 C   0  0  0  0  0  0  0  0  0  0  0  0
    2.4138    1.2575   -1.6644 H   0  0  0  0  0  0  0  0  0  0  0  0
    4.1964    1.4608   -1.7026 H   0  0  0  0  0  0  0  0  0  0  0  0
    3.1334    2.7492   -2.3622 H   0  0  0  0  0  0  0  0  0  0  0  0
    3.1979   -2.6709    0.1686 C   0  0  0  0  0  0  0  0  0  0  0  0
    3.4198   -1.6308   -0.9526 C   0  0  0  0  0  0  0  0  0  0  0  0
    4.3985   -1.1256   -0.8174 H   0  0  0  0  0  0  0  0  0  0  0  0
    2.6277   -0.8629   -0.9437 H   0  0  0  0  0  0  0  0  0  0  0  0
    3.4246   -2.1251   -1.9458 H   0  0  0  0  0  0  0  0  0  0  0  0
    3.2334   -1.9907    1.5581 C   0  0  0  0  0  0  0  0  0  0  0  0
    3.1343   -2.7485    2.3621 H   0  0  0  0  0  0  0  0  0  0  0  0
    2.4144   -1.2569    1.6643 H   0  0  0  0  0  0  0  0  0  0  0  0
    4.1970   -1.4600    1.7023 H   0  0  0  0  0  0  0  0  0  0  0  0
    4.3597   -3.6793    0.1111 C   0  0  0  0  0  0  0  0  0  0  0  0
    4.2913   -4.4456    0.9102 H   0  0  0  0  0  0  0  0  0  0  0  0
    5.3174   -3.1389    0.2516 H   0  0  0  0  0  0  0  0  0  0  0  0
    4.4128   -4.1997   -0.8671 H   0  0  0  0  0  0  0  0  0  0  0  0
  1  5  1  0  0  0  0
  2 21  1  0  0  0  0
  5  6  1  1  0  0  0
  7 10  1  0  0  0  0
  7  5  1  0  0  0  0
  7  8  1  0  0  0  0
  9  7  1  0  0  0  0
 10 12  1  0  0  0  0
 11 10  1  0  0  0  0
 13 15  1  0  0  0  0
 13 16  1  0  0  0  0
 13 10  1  0  0  0  0
 14 13  1  0  0  0  0
 16 17  1  0  0  0  0
 18 16  1  0  0  0  0
 19 20  1  6  0  0  0
 19  2  1  0  0  0  0
 19 16  1  0  0  0  0
 19  5  1  0  0  0  0
 21 23  2  0  0  0  0
 22 21  1  0  0  0  0
 23 24  1  0  0  0  0
 24 26  2  0  0  0  0
 24 25  1  0  0  0  0
 26 27  1  0  0  0  0
 28 29  1  0  0  0  0
 28 26  1  0  0  0  0
 30 28  2  0  0  0  0
 31  4  1  6  0  0  0
 31 30  1  0  0  0  0
 31 23  1  0  0  0  0
 32  3  1  0  0  0  0
 33 32  2  0  0  0  0
 33 56  1  0  0  0  0
 34 33  1  0  0  0  0
 35 34  1  0  0  0  0
 36 38  1  0  0  0  0
 36 34  2  0  0  0  0
 37 36  1  0  0  0  0
 38 40  1  0  0  0  0
 39 38  1  0  0  0  0
 40 32  1  0  0  0  0
 40 41  2  0  0  0  0
 41 42  1  0  0  0  0
 41  1  1  0  0  0  0
 43 44  1  0  0  0  0
 43 30  1  0  0  0  0
 43 48  1  0  0  0  0
 44 47  1  0  0  0  0
 45 44  1  0  0  0  0
 46 44  1  0  0  0  0
 48 49  1  0  0  0  0
 50 48  1  0  0  0  0
 51 48  1  0  0  0  0
 52 43  1  0  0  0  0
 53 52  1  0  0  0  0
 54 52  1  0  0  0  0
 55 52  1  0  0  0  0
 56 61  1  0  0  0  0
 57 59  1  0  0  0  0
 57 58  1  0  0  0  0
 57 56  1  0  0  0  0
 60 57  1  0  0  0  0
 61 63  1  0  0  0  0
 61 64  1  0  0  0  0
 61 62  1  0  0  0  0
 65 56  1  0  0  0  0
 65 67  1  0  0  0  0
 65 66  1  0  0  0  0
 68 65  1  0  0  0  0
M  CHG  1   3  -1
M  END
