1,3,5,6
q = 0.0, confidence = 0.572

 34 35  0  0  0  0  0  0  0  0999 V2000
    1.2404   -0.9931   -0.0325 O   0  5  0  0  0  0  0  0  0  0  0  0
    6.6988   -0.9533    0.0716 O   0  0  0  0  0  0  0  0  0  0  0  0
   -1.2404   -0.9931    0.0349 O   0  5  0  0  0  0  0  0  0  0  0  0
   -6.6987   -0.9534   -0.0749 O   0  0  0  0  0  0  0  0  0  0  0  0
    1.2612    1.6954   -0.1511 N   0  0  0  0  0  2  0  0  0  0  0  0
   -1.2614    1.6954    0.1516 N   0  0  0  0  0  2  0  0  0  0  0  0
    2.5288   -0.9297   -0.0125 C   0  0  0  0  0  0  0  0  0  0  0  0
    3.2718   -2.1636    0.0503 C   0  0  0  0  0  0  0  0  0  0  0  0
    4.6434   -2.1657    0.0793 C   0  0  0  0  0  3  0  0  0  0  0  0
    5.4490   -0.9291    0.0437 C   0  0  0  0  0  0  0  0  0  0  0  0
    4.6805    0.3018   -0.0287 C   0  0  0  0  0  3  0  0  0  0  0  0
    3.2788    0.3206   -0.0552 C   0  0  0  0  0  0  0  0  0  0  0  0
    2.5698    1.5594   -0.1534 C   0  0  0  0  0  0  0  0  0  0  0  0
   -2.5287   -0.9297    0.0135 C   0  0  0  0  0  0  0  0  0  0  0  0
   -3.2718   -2.1637   -0.0491 C   0  0  0  0  0  0  0  0  0  0  0  0
   -4.6433   -2.1658   -0.0795 C   0  0  0  0  0  3  0  0  0  0  0  0
   -5.4489   -0.9291   -0.0457 C   0  0  0  0  0  0  0  0  0  0  0  0
   -4.6805    0.3017    0.0267 C   0  0  0  0  0  3  0  0  0  0  0  0
   -3.2788    0.3206    0.0546 C   0  0  0  0  0  0  0  0  0  0  0  0
   -2.5699    1.5594    0.1528 C   0  0  0  0  0  0  0  0  0  0  0  0
    0.6622    3.0151   -0.3730 C   0  0  0  0  0  0  0  0  0  0  0  0
   -0.6623    3.0151    0.3734 C   0  0  0  0  0  0  0  0  0  0  0  0
    2.6815   -3.0917    0.0769 H   0  0  0  0  0  0  0  0  0  0  0  0
    5.2109   -3.1080    0.1304 H   0  0  0  0  0  0  0  0  0  0  0  0
    5.2533    1.2414   -0.0653 H   0  0  0  0  0  0  0  0  0  0  0  0
    3.1780    2.4794   -0.2529 H   0  0  0  0  0  0  0  0  0  0  0  0
   -2.6814   -3.0918   -0.0744 H   0  0  0  0  0  0  0  0  0  0  0  0
   -5.2107   -3.1081   -0.1305 H   0  0  0  0  0  0  0  0  0  0  0  0
   -5.2534    1.2414    0.0621 H   0  0  0  0  0  0  0  0  0  0  0  0
   -3.1782    2.4795    0.2514 H   0  0  0  0  0  0  0  0  0  0  0  0
    1.3364    3.8280   -0.0303 H   0  0  0  0  0  0  0  0  0  0  0  0
    0.4837    3.1516   -1.4621 H   0  0  0  0  0  0  0  0  0  0  0  0
   -1.3366    3.8280    0.0308 H   0  0  0  0  0  0  0  0  0  0  0  0
   -0.4839    3.1516    1.4625 H   0  0  0  0  0  0  0  0  0  0  0  0
  1  7  1  0  0  0  0
  4 17  2  0  0  0  0
  6 20  1  0  0  0  0
  6 22  1  0  0  0  0
  7  8  2  0  0  0  0
  8 23  1  0  0  0  0
  8  9  1  0  0  0  0
  9 24  1  0  0  0  0
 10  2  2  0  0  0  0
 10  9  1  0  0  0  0
 11 10  1  0  0  0  0
 12 11  1  0  0  0  0
 12  7  1  0  0  0  0
 13  5  1  0  0  0  0
 13 12  2  0  0  0  0
 14  3  1  0  0  0  0
 14 19  1  0  0  0  0
 15 14  2  0  0  0  0
 16 15  1  0  0  0  0
 16 17  1  0  0  0  0
 17 18  1  0  0  0  0
 18 19  1  0  0  0  0
 18 29  1  0  0  0  0
 19 20  2  0  0  0  0
 20 30  1  0  0  0  0
 21  5  1  0  0  0  0
 21 31  1  0  0  0  0
 21 22  1  0  0  0  0
 22 34  1  0  0  0  0
 25 11  1  0  0  0  0
 26 13  1  0  0  0  0
 27 15  1  0  0  0  0
 28 16  1  0  0  0  0
 32 21  1  0  0  0  0
 33 22  1  0  0  0  0
M  CHG  2   1  -1   3  -1
M  END
