1,20,28,47
q = -2.0, confidence = 0.824

 55 58  0  0  0  0  0  0  0  0999 V2000
   -0.2320   -0.6085   -0.4311 O   0  5  0  0  0  0  0  0  0  0  0  0
   -1.3210   -1.2580   -0.1883 C   0  0  0  0  0  0  0  0  0  0  0  0
   -1.2613   -2.6910   -0.0419 C   0  0  0  0  0  0  0  0  0  0  0  0
   -0.2745   -3.1615   -0.1579 H   0  0  0  0  0  0  0  0  0  0  0  0
   -2.3973   -3.4256    0.1978 C   0  0  0  0  0  0  0  0  0  0  0  0
   -2.3343   -4.5228    0.2789 H   0  0  0  0  0  0  0  0  0  0  0  0
   -3.6881   -2.8109    0.3342 C   0  0  0  0  0  0  0  0  0  0  0  0
   -4.8552   -3.5883    0.5539 C   0  0  0  0  0  0  0  0  0  0  0  0
   -4.7529   -4.6828    0.6224 H   0  0  0  0  0  0  0  0  0  0  0  0
   -6.1042   -2.9878    0.6765 C   0  0  0  0  0  0  0  0  0  0  0  0
   -7.0025   -3.6000    0.8449 H   0  0  0  0  0  0  0  0  0  0  0  0
   -6.2120   -1.5829    0.5653 C   0  0  0  0  0  0  0  0  0  0  0  0
   -7.1994   -1.1021    0.6388 H   0  0  0  0  0  0  0  0  0  0  0  0
   -5.0815   -0.7988    0.3423 C   0  0  0  0  0  0  0  0  0  0  0  0
   -5.2025    0.2868    0.2128 H   0  0  0  0  0  0  0  0  0  0  0  0
   -3.7899   -1.3809    0.2387 C   0  0  0  0  0  0  0  0  0  0  0  0
   -2.5854   -0.5988    0.0209 C   0  0  0  0  0  0  0  0  0  0  0  0
   -2.5773    0.8005    0.2701 C   0  0  0  0  0  3  0  0  0  0  0  0
   -3.4106    1.2062    0.8788 H   0  0  0  0  0  0  0  0  0  0  0  0
   -1.6318    1.6662   -0.0527 N   0  0  0  0  0  2  0  0  0  0  0  0
   -1.5992    2.9400    0.6552 C   0  0  0  0  0  0  0  0  0  0  0  0
   -2.5914    3.1187    1.1269 H   0  0  0  0  0  0  0  0  0  0  0  0
   -1.3989    3.7488   -0.0756 H   0  0  0  0  0  0  0  0  0  0  0  0
   -0.5186    2.9773    1.7715 C   0  0  0  0  0  0  0  0  0  0  0  0
    0.9060    2.9327    1.1636 C   0  0  0  0  0  0  0  0  0  0  0  0
    1.0164    3.7918    0.4668 H   0  0  0  0  0  0  0  0  0  0  0  0
    1.6453    3.0653    1.9884 H   0  0  0  0  0  0  0  0  0  0  0  0
    1.2069    1.7278    0.4080 N   0  0  0  0  0  2  0  0  0  0  0  0
    2.2447    1.0236    0.7516 C   0  0  0  0  0  3  0  0  0  0  0  0
    2.7900    1.3292    1.6706 H   0  0  0  0  0  0  0  0  0  0  0  0
    2.8259   -0.0655   -0.0008 C   0  0  0  0  0  0  0  0  0  0  0  0
    3.8102   -0.9315    0.6149 C   0  0  0  0  0  0  0  0  0  0  0  0
    4.0755   -0.9339    2.0149 C   0  0  0  0  0  0  0  0  0  0  0  0
    3.4990   -0.2781    2.6825 H   0  0  0  0  0  0  0  0  0  0  0  0
    5.0331   -1.7764    2.5690 C   0  0  0  0  0  0  0  0  0  0  0  0
    5.2118   -1.7536    3.6548 H   0  0  0  0  0  0  0  0  0  0  0  0
    5.7687   -2.6711    1.7539 C   0  0  0  0  0  0  0  0  0  0  0  0
    6.5220   -3.3352    2.2029 H   0  0  0  0  0  0  0  0  0  0  0  0
    5.5205   -2.7100    0.3888 C   0  0  0  0  0  0  0  0  0  0  0  0
    6.0721   -3.4080   -0.2604 H   0  0  0  0  0  0  0  0  0  0  0  0
    4.5486   -1.8579   -0.2053 C   0  0  0  0  0  0  0  0  0  0  0  0
    4.2794   -1.9069   -1.6084 C   0  0  0  0  0  0  0  0  0  0  0  0
    4.8513   -2.6147   -2.2290 H   0  0  0  0  0  0  0  0  0  0  0  0
    3.3181   -1.1058   -2.1856 C   0  0  0  0  0  0  0  0  0  0  0  0
    3.0935   -1.1460   -3.2606 H   0  0  0  0  0  0  0  0  0  0  0  0
    2.5560   -0.1922   -1.3918 C   0  0  0  0  0  0  0  0  0  0  0  0
    1.6489    0.5375   -2.0161 O   0  5  0  0  0  0  0  0  0  0  0  0
   -0.6660    4.3210    2.5044 C   0  0  0  0  0  0  0  0  0  0  0  0
   -1.6617    4.4017    2.9857 H   0  0  0  0  0  0  0  0  0  0  0  0
   -0.5526    5.1766    1.8075 H   0  0  0  0  0  0  0  0  0  0  0  0
    0.1008    4.4249    3.2987 H   0  0  0  0  0  0  0  0  0  0  0  0
   -0.7077    1.8100    2.7509 C   0  0  0  0  0  0  0  0  0  0  0  0
   -0.5465    0.8323    2.2556 H   0  0  0  0  0  0  0  0  0  0  0  0
   -1.7290    1.8115    3.1842 H   0  0  0  0  0  0  0  0  0  0  0  0
    0.0129    1.8880    3.5906 H   0  0  0  0  0  0  0  0  0  0  0  0
  1  2  1  0  0  0  0
  2  3  2  0  0  0  0
  2 17  1  0  0  0  0
  3  5  1  0  0  0  0
  4  3  1  0  0  0  0
  5  6  1  0  0  0  0
  5  7  2  0  0  0  0
  7  8  1  0  0  0  0
  8  9  1  0  0  0  0
  8 10  2  0  0  0  0
 10 11  1  0  0  0  0
 12 13  1  0  0  0  0
 12 10  1  0  0  0  0
 14 12  2  0  0  0  0
 15 14  1  0  0  0  0
 16  7  1  0  0  0  0
 16 14  1  0  0  0  0
 17 16  2  0  0  0  0
 17 18  1  0  0  0  0
 18 19  1  0  0  0  0
 20 18  1  0  0  0  0
 20 21  1  0  0  0  0
 21 22  1  0  0  0  0
 21 24  1  0  0  0  0
 23 21  1  0  0  0  0
 24 48  1  0  0  0  0
 24 52  1  0  0  0  0
 25 24  1  0  0  0  0
 25 27  1  0  0  0  0
 26 25  1  0  0  0  0
 28 29  1  0  0  0  0
 28 25  1  0  0  0  0
 29 30  1  0  0  0  0
 31 32  1  0  0  0  0
 31 29  1  0  0  0  0
 32 33  1  0  0  0  0
 33 35  2  0  0  0  0
 33 34  1  0  0  0  0
 35 36  1  0  0  0  0
 37 38  1  0  0  0  0
 37 35  1  0  0  0  0
 39 37  2  0  0  0  0
 40 39  1  0  0  0  0
 41 39  1  0  0  0  0
 41 32  2  0  0  0  0
 42 41  1  0  0  0  0
 43 42  1  0  0  0  0
 44 42  2  0  0  0  0
 44 46  1  0  0  0  0
 45 44  1  0  0  0  0
 46 31  2  0  0  0  0
 47 46  1  0  0  0  0
 48 49  1  0  0  0  0
 48 51  1  0  0  0  0
 50 48  1  0  0  0  0
 52 54  1  0  0  0  0
 52 55  1  0  0  0  0
 53 52  1  0  0  0  0
M  CHG  2   1  -1  47  -1
M  END
