3,4,5,6
q = -2.0, confidence = 0.876

 39 40  0  0  1  0  0  0  0  0999 V2000
    3.8912    5.9391    0.8204 Cl  0  0  0  0  0  0  0  0  0  0  0  0
    5.7635   -4.8466    0.2245 Cl  0  0  0  0  0  0  0  0  0  0  0  0
    0.9548    0.8139    1.0956 O   0  5  0  0  0  0  0  0  0  0  0  0
    0.6612   -1.8691    0.4535 O   0  5  0  0  0  0  0  0  0  0  0  0
   -0.1453    1.7462   -1.4964 N   0  0  0  0  0  0  0  0  0  0  0  0
    1.9860    0.0606   -1.4068 N   0  0  0  0  0  2  0  0  0  0  0  0
    1.5898    1.9651    1.0395 C   0  0  0  0  0  0  0  0  0  0  0  0
    2.7901    2.1692    1.7777 C   0  0  0  0  0  0  0  0  0  0  0  0
    3.1598    1.3354    2.3926 H   0  0  0  0  0  0  0  0  0  0  0  0
    3.4897    3.3772    1.7166 C   0  0  0  0  0  0  0  0  0  0  0  0
    4.4195    3.5159    2.2873 H   0  0  0  0  0  0  0  0  0  0  0  0
    3.0110    4.4257    0.9091 C   0  0  0  0  0  0  0  0  0  0  0  0
    1.8262    4.2638    0.1771 C   0  0  0  0  0  0  0  0  0  0  0  0
    1.4532    5.0942   -0.4421 H   0  0  0  0  0  0  0  0  0  0  0  0
    1.1131    3.0547    0.2411 C   0  0  0  0  0  0  0  0  0  0  0  0
   -0.1746    2.8729   -0.5043 C   0  0  0  0  0  0  0  0  0  0  0  0
   -1.0007    2.6322    0.1951 H   0  0  0  0  0  0  0  0  0  0  0  0
   -0.4433    3.8103   -1.0379 H   0  0  0  0  0  0  0  0  0  0  0  0
    0.8879    1.9409   -2.5760 C   0  0  1  0  0  0  0  0  0  0  0  0
    1.0545    3.0356   -2.6850 H   0  0  0  0  0  0  0  0  0  0  0  0
    2.2189    1.3179   -2.1218 C   0  0  0  0  0  0  0  0  0  0  0  0
    2.8802    1.1586   -3.0019 H   0  0  0  0  0  0  0  0  0  0  0  0
    2.7379    2.0197   -1.4369 H   0  0  0  0  0  0  0  0  0  0  0  0
    0.3839    1.3979   -3.9122 C   0  0  0  0  0  0  0  0  0  0  0  0
    0.2648    0.2986   -3.9041 H   0  0  0  0  0  0  0  0  0  0  0  0
    1.1020    1.6578   -4.7142 H   0  0  0  0  0  0  0  0  0  0  0  0
   -0.5933    1.8496   -4.1818 H   0  0  0  0  0  0  0  0  0  0  0  0
    2.9603   -0.7910   -1.2440 C   0  0  0  0  0  3  0  0  0  0  0  0
    3.9237   -0.5653   -1.7479 H   0  0  0  0  0  0  0  0  0  0  0  0
    2.9408   -1.9970   -0.4600 C   0  0  0  0  0  0  0  0  0  0  0  0
    4.1447   -2.7640   -0.4757 C   0  0  0  0  0  0  0  0  0  0  0  0
    4.9900   -2.4159   -1.0880 H   0  0  0  0  0  0  0  0  0  0  0  0
    4.2749   -3.9279    0.2652 C   0  0  0  0  0  0  0  0  0  0  0  0
    3.1965   -4.3753    1.0680 C   0  0  0  0  0  0  0  0  0  0  0  0
    3.3090   -5.2956    1.6596 H   0  0  0  0  0  0  0  0  0  0  0  0
    2.0148   -3.6524    1.1029 C   0  0  0  0  0  0  0  0  0  0  0  0
    1.1722   -3.9846    1.7266 H   0  0  0  0  0  0  0  0  0  0  0  0
    1.8221   -2.4486    0.3468 C   0  0  0  0  0  0  0  0  0  0  0  0
   -1.0732    1.7425   -1.9482 H   0  0  0  0  0  0  0  0  0  0  0  0
  1 12  1  0  0  0  0
  2 33  1  0  0  0  0
  5 16  1  0  0  0  0
  6 28  1  0  0  0  0
  7  3  1  0  0  0  0
  7  8  1  0  0  0  0
  8  9  1  0  0  0  0
 10  8  2  0  0  0  0
 10 11  1  0  0  0  0
 12 10  1  0  0  0  0
 13 15  1  0  0  0  0
 13 12  2  0  0  0  0
 14 13  1  0  0  0  0
 15  7  2  0  0  0  0
 16 17  1  0  0  0  0
 16 15  1  0  0  0  0
 18 16  1  0  0  0  0
 19 20  1  6  0  0  0
 19 21  1  0  0  0  0
 19  5  1  0  0  0  0
 21 23  1  0  0  0  0
 21  6  1  0  0  0  0
 22 21  1  0  0  0  0
 24 25  1  0  0  0  0
 24 19  1  0  0  0  0
 26 24  1  0  0  0  0
 27 24  1  0  0  0  0
 28 30  1  0  0  0  0
 29 28  1  0  0  0  0
 30 38  1  0  0  0  0
 31 30  2  0  0  0  0
 31 33  1  0  0  0  0
 32 31  1  0  0  0  0
 33 34  2  0  0  0  0
 34 36  1  0  0  0  0
 34 35  1  0  0  0  0
 36 37  1  0  0  0  0
 38  4  1  0  0  0  0
 38 36  2  0  0  0  0
 39  5  1  0  0  0  0
M  CHG  2   3  -1   4  -1
M  END
