1,2,3,4
q = -2.0, confidence = 0.86

 70 71  0  0  1  0  0  0  0  0999 V2000
    1.2334   -0.5737    0.1993 O   0  0  0  0  0  1  0  0  0  0  0  0
   -1.2335   -0.5728   -0.2066 O   0  5  0  0  0  0  0  0  0  0  0  0
    1.2667    2.1414    0.1018 N   0  0  0  0  0  2  0  0  0  0  0  0
   -1.2664    2.1420   -0.0998 N   0  0  0  0  0  2  0  0  0  0  0  0
    3.2150    0.7720    0.6053 C   0  0  0  0  0  0  0  0  0  0  0  0
    2.4938   -0.4762    0.4936 C   0  0  2  0  0  3  0  0  0  0  0  0
    3.2425   -1.6754    0.7227 C   0  0  0  0  0  0  0  0  0  0  0  0
    4.5921   -1.6338    1.0389 C   0  0  0  0  0  0  0  0  0  0  0  0
    5.3113   -0.4075    1.1524 C   0  0  0  0  0  0  0  0  0  0  0  0
    4.6032    0.7683    0.9286 C   0  0  0  0  0  0  0  0  0  0  0  0
    2.5476    2.0086    0.3680 C   0  0  0  0  0  0  0  0  0  0  0  0
    0.7216    3.4564   -0.2379 C   0  0  0  0  0  0  0  0  0  0  0  0
    6.7929   -0.4083    1.4466 C   0  0  0  0  0  0  0  0  0  0  0  0
    7.6596   -0.7402    0.2194 C   0  0  0  0  0  0  0  0  0  0  0  0
    9.1606   -0.7634    0.5159 C   0  0  0  0  0  0  0  0  0  0  0  0
   10.0271   -1.0902   -0.7030 C   0  0  0  0  0  0  0  0  0  0  0  0
   11.5303   -1.1141   -0.4095 C   0  0  0  0  0  0  0  0  0  0  0  0
   12.3863   -1.4413   -1.6335 C   0  0  0  0  0  0  0  0  0  0  0  0
   -3.2155    0.7743   -0.6055 C   0  0  0  0  0  0  0  0  0  0  0  0
   -2.4942   -0.4743   -0.4988 C   0  0  0  0  0  0  0  0  0  0  0  0
   -3.2433   -1.6727   -0.7310 C   0  0  0  0  0  0  0  0  0  0  0  0
   -4.5934   -1.6299   -1.0453 C   0  0  0  0  0  0  0  0  0  0  0  0
   -5.3126   -0.4032   -1.1537 C   0  0  0  0  0  0  0  0  0  0  0  0
   -4.6041    0.7718   -0.9270 C   0  0  0  0  0  3  0  0  0  0  0  0
   -2.5476    2.0101   -0.3652 C   0  0  0  0  0  0  0  0  0  0  0  0
   -0.7210    3.4560    0.2433 C   0  0  0  0  0  0  0  0  0  0  0  0
   -6.7946   -0.4029   -1.4458 C   0  0  0  0  0  0  0  0  0  0  0  0
   -7.6595   -0.7394   -0.2186 C   0  0  0  0  0  0  0  0  0  0  0  0
   -9.1610   -0.7614   -0.5130 C   0  0  0  0  0  0  0  0  0  0  0  0
  -10.0257   -1.0929    0.7059 C   0  0  0  0  0  0  0  0  0  0  0  0
  -11.5293   -1.1157    0.4145 C   0  0  0  0  0  0  0  0  0  0  0  0
  -12.3835   -1.4475    1.6386 C   0  0  0  0  0  0  0  0  0  0  0  0
    2.6972   -2.6268    0.6430 H   0  0  0  0  0  0  0  0  0  0  0  0
    5.1288   -2.5813    1.2138 H   0  0  0  0  0  0  0  0  0  0  0  0
    5.1231    1.7387    1.0031 H   0  0  0  0  0  0  0  0  0  0  0  0
    3.1609    2.9318    0.3982 H   0  0  0  0  0  0  0  0  0  0  0  0
    1.3159    4.2768    0.2188 H   0  0  0  0  0  0  0  0  0  0  0  0
    0.7477    3.5866   -1.3431 H   0  0  0  0  0  0  0  0  0  0  0  0
    7.0941    0.5835    1.8473 H   0  0  0  0  0  0  0  0  0  0  0  0
    7.0136   -1.1448    2.2510 H   0  0  0  0  0  0  0  0  0  0  0  0
    7.3453   -1.7248   -0.1933 H   0  0  0  0  0  0  0  0  0  0  0  0
    7.4449   -0.0006   -0.5835 H   0  0  0  0  0  0  0  0  0  0  0  0
    9.4689    0.2223    0.9334 H   0  0  0  0  0  0  0  0  0  0  0  0
    9.3650   -1.5037    1.3227 H   0  0  0  0  0  0  0  0  0  0  0  0
    9.7182   -2.0758   -1.1200 H   0  0  0  0  0  0  0  0  0  0  0  0
    9.8216   -0.3500   -1.5096 H   0  0  0  0  0  0  0  0  0  0  0  0
   11.8349   -0.1285    0.0085 H   0  0  0  0  0  0  0  0  0  0  0  0
   11.7316   -1.8538    0.3974 H   0  0  0  0  0  0  0  0  0  0  0  0
   12.2326   -0.6974   -2.4433 H   0  0  0  0  0  0  0  0  0  0  0  0
   13.4679   -1.4510   -1.3900 H   0  0  0  0  0  0  0  0  0  0  0  0
   12.1287   -2.4373   -2.0508 H   0  0  0  0  0  0  0  0  0  0  0  0
   -2.6981   -2.6243   -0.6552 H   0  0  0  0  0  0  0  0  0  0  0  0
   -5.1304   -2.5767   -1.2225 H   0  0  0  0  0  0  0  0  0  0  0  0
   -5.1240    1.7425   -0.9977 H   0  0  0  0  0  0  0  0  0  0  0  0
   -3.1608    2.9335   -0.3921 H   0  0  0  0  0  0  0  0  0  0  0  0
   -1.3150    4.2777   -0.2114 H   0  0  0  0  0  0  0  0  0  0  0  0
   -0.7470    3.5833    1.3488 H   0  0  0  0  0  0  0  0  0  0  0  0
   -7.0963    0.5904   -1.8424 H   0  0  0  0  0  0  0  0  0  0  0  0
   -7.0165   -1.1363   -2.2526 H   0  0  0  0  0  0  0  0  0  0  0  0
   -7.3446   -1.7255    0.1899 H   0  0  0  0  0  0  0  0  0  0  0  0
   -7.4437   -0.0027    0.5867 H   0  0  0  0  0  0  0  0  0  0  0  0
   -9.4700    0.2257   -0.9264 H   0  0  0  0  0  0  0  0  0  0  0  0
   -9.3665   -1.4987   -1.3222 H   0  0  0  0  0  0  0  0  0  0  0  0
   -9.7162   -2.0800    1.1188 H   0  0  0  0  0  0  0  0  0  0  0  0
   -9.8191   -0.3557    1.5150 H   0  0  0  0  0  0  0  0  0  0  0  0
  -11.8346   -0.1286    0.0007 H   0  0  0  0  0  0  0  0  0  0  0  0
  -11.7317   -1.8525   -0.3948 H   0  0  0  0  0  0  0  0  0  0  0  0
  -12.1252   -2.4451    2.0518 H   0  0  0  0  0  0  0  0  0  0  0  0
  -12.2287   -0.7067    2.4509 H   0  0  0  0  0  0  0  0  0  0  0  0
  -13.4655   -1.4564    1.3966 H   0  0  0  0  0  0  0  0  0  0  0  0
  3 11  1  0  0  0  0
  4 26  1  0  0  0  0
  5 10  1  0  0  0  0
  6  1  1  6  0  0  0
  6  5  1  0  0  0  0
  6  7  1  0  0  0  0
  7  8  2  0  0  0  0
  8  9  1  0  0  0  0
  8 34  1  0  0  0  0
  9 13  1  0  0  0  0
 10 35  1  0  0  0  0
 10  9  2  0  0  0  0
 11 36  1  0  0  0  0
 11  5  2  0  0  0  0
 12  3  1  0  0  0  0
 12 37  1  0  0  0  0
 12 26  1  0  0  0  0
 13 39  1  0  0  0  0
 13 40  1  0  0  0  0
 14 15  1  0  0  0  0
 14 13  1  0  0  0  0
 15 43  1  0  0  0  0
 15 44  1  0  0  0  0
 16 17  1  0  0  0  0
 16 15  1  0  0  0  0
 17 47  1  0  0  0  0
 17 48  1  0  0  0  0
 18 50  1  0  0  0  0
 18 17  1  0  0  0  0
 19 20  1  0  0  0  0
 19 25  2  0  0  0  0
 20  2  1  0  0  0  0
 21 52  1  0  0  0  0
 21 20  2  0  0  0  0
 22 21  1  0  0  0  0
 23 22  2  0  0  0  0
 23 24  1  0  0  0  0
 24 19  1  0  0  0  0
 25  4  1  0  0  0  0
 26 57  1  0  0  0  0
 27 23  1  0  0  0  0
 27 28  1  0  0  0  0
 28 60  1  0  0  0  0
 28 61  1  0  0  0  0
 29 28  1  0  0  0  0
 29 30  1  0  0  0  0
 30 64  1  0  0  0  0
 30 65  1  0  0  0  0
 31 30  1  0  0  0  0
 31 32  1  0  0  0  0
 32 68  1  0  0  0  0
 32 69  1  0  0  0  0
 33  7  1  0  0  0  0
 38 12  1  0  0  0  0
 41 14  1  0  0  0  0
 42 14  1  0  0  0  0
 45 16  1  0  0  0  0
 46 16  1  0  0  0  0
 49 18  1  0  0  0  0
 51 18  1  0  0  0  0
 53 22  1  0  0  0  0
 54 24  1  0  0  0  0
 55 25  1  0  0  0  0
 56 26  1  0  0  0  0
 58 27  1  0  0  0  0
 59 27  1  0  0  0  0
 62 29  1  0  0  0  0
 63 29  1  0  0  0  0
 66 31  1  0  0  0  0
 67 31  1  0  0  0  0
 70 32  1  0  0  0  0
M  CHG  1   2  -1
M  END
