4,6,11,15
q = -2.0, confidence = 0.82

 50 51  0  0  0  0  0  0  0  0999 V2000
   -0.6197    0.4425    2.1207 C   0  0  0  0  0  0  0  0  0  0  0  0
   -0.6383    1.0761    3.0367 H   0  0  0  0  0  0  0  0  0  0  0  0
   -1.5386   -0.1791    2.1455 H   0  0  0  0  0  0  0  0  0  0  0  0
   -0.6727    1.2486    0.8921 N   0  0  0  0  0  0  0  0  0  0  0  0
    0.0705    1.9608    0.9051 H   0  0  0  0  0  0  0  0  0  0  0  0
    0.6733   -1.2487    0.8926 N   0  0  0  0  0  0  0  0  0  0  0  0
   -0.0697   -1.9610    0.9061 H   0  0  0  0  0  0  0  0  0  0  0  0
    0.6204   -0.4420    2.1209 C   0  0  0  0  0  0  0  0  0  0  0  0
    1.5393    0.1797    2.1453 H   0  0  0  0  0  0  0  0  0  0  0  0
    0.6391   -1.0752    3.0372 H   0  0  0  0  0  0  0  0  0  0  0  0
    1.7109    0.8270   -0.5584 O   0  5  0  0  0  0  0  0  0  0  0  0
    1.9783   -1.8940    0.6467 C   0  0  0  0  0  0  0  0  0  0  0  0
    1.8531   -2.5102   -0.2676 H   0  0  0  0  0  0  0  0  0  0  0  0
    2.2439   -2.5791    1.4847 H   0  0  0  0  0  0  0  0  0  0  0  0
   -1.7109   -0.8281   -0.5568 O   0  5  0  0  0  0  0  0  0  0  0  0
    3.1050   -0.8999    0.4577 C   0  0  0  0  0  0  0  0  0  0  0  0
    2.9124    0.3677   -0.1488 C   0  0  0  0  0  0  0  0  0  0  0  0
    4.0181    1.2496   -0.3210 C   0  0  0  0  0  0  0  0  0  0  0  0
    5.2876    0.8372    0.1031 C   0  0  0  0  0  0  0  0  0  0  0  0
    6.1382    1.5236   -0.0427 H   0  0  0  0  0  0  0  0  0  0  0  0
    5.5089   -0.4172    0.7096 C   0  0  0  0  0  0  0  0  0  0  0  0
    4.3993   -1.2580    0.8834 C   0  0  0  0  0  0  0  0  0  0  0  0
    4.5394   -2.2391    1.3675 H   0  0  0  0  0  0  0  0  0  0  0  0
    3.7799    2.5873   -0.9652 C   0  0  0  0  0  0  0  0  0  0  0  0
    3.0585    3.1946   -0.3786 H   0  0  0  0  0  0  0  0  0  0  0  0
    3.3247    2.4687   -1.9702 H   0  0  0  0  0  0  0  0  0  0  0  0
    4.7210    3.1608   -1.0649 H   0  0  0  0  0  0  0  0  0  0  0  0
    6.8918   -0.8318    1.1465 C   0  0  0  0  0  0  0  0  0  0  0  0
    6.8724   -1.7800    1.7184 H   0  0  0  0  0  0  0  0  0  0  0  0
    7.3677   -0.0590    1.7854 H   0  0  0  0  0  0  0  0  0  0  0  0
    7.5634   -0.9825    0.2744 H   0  0  0  0  0  0  0  0  0  0  0  0
   -1.9776    1.8941    0.6462 C   0  0  0  0  0  0  0  0  0  0  0  0
   -1.8524    2.5100   -0.2683 H   0  0  0  0  0  0  0  0  0  0  0  0
   -2.2429    2.5795    1.4841 H   0  0  0  0  0  0  0  0  0  0  0  0
   -3.1046    0.9003    0.4576 C   0  0  0  0  0  0  0  0  0  0  0  0
   -4.3989    1.2592    0.8828 C   0  0  0  0  0  0  0  0  0  0  0  0
   -4.5386    2.2407    1.3662 H   0  0  0  0  0  0  0  0  0  0  0  0
   -5.5088    0.4188    0.7093 C   0  0  0  0  0  0  0  0  0  0  0  0
   -5.2878   -0.8361    0.1038 C   0  0  0  0  0  0  0  0  0  0  0  0
   -6.1387   -1.5224   -0.0417 H   0  0  0  0  0  0  0  0  0  0  0  0
   -4.0184   -1.2494   -0.3197 C   0  0  0  0  0  0  0  0  0  0  0  0
   -2.9123   -0.3679   -0.1479 C   0  0  0  0  0  0  0  0  0  0  0  0
   -6.8916    0.8344    1.1454 C   0  0  0  0  0  0  0  0  0  0  0  0
   -6.8718    1.7820    1.7183 H   0  0  0  0  0  0  0  0  0  0  0  0
   -7.3690    0.0614    1.7830 H   0  0  0  0  0  0  0  0  0  0  0  0
   -7.5622    0.9868    0.2729 H   0  0  0  0  0  0  0  0  0  0  0  0
   -3.7806   -2.5878   -0.9628 C   0  0  0  0  0  0  0  0  0  0  0  0
   -4.7221   -3.1604   -1.0634 H   0  0  0  0  0  0  0  0  0  0  0  0
   -3.0605   -3.1954   -0.3749 H   0  0  0  0  0  0  0  0  0  0  0  0
   -3.3240   -2.4701   -1.9673 H   0  0  0  0  0  0  0  0  0  0  0  0
  1  8  1  0  0  0  0
  1  3  1  0  0  0  0
  1  2  1  0  0  0  0
  4  5  1  0  0  0  0
  4  1  1  0  0  0  0
  6  7  1  0  0  0  0
  6  8  1  0  0  0  0
  8  9  1  0  0  0  0
  8 10  1  0  0  0  0
 11 17  1  0  0  0  0
 12  6  1  0  0  0  0
 12 14  1  0  0  0  0
 13 12  1  0  0  0  0
 15 42  1  0  0  0  0
 16 12  1  0  0  0  0
 16 22  1  0  0  0  0
 17 16  2  0  0  0  0
 18 17  1  0  0  0  0
 18 19  2  0  0  0  0
 19 21  1  0  0  0  0
 20 19  1  0  0  0  0
 21 22  2  0  0  0  0
 21 28  1  0  0  0  0
 22 23  1  0  0  0  0
 24 25  1  0  0  0  0
 24 18  1  0  0  0  0
 26 24  1  0  0  0  0
 27 24  1  0  0  0  0
 28 29  1  0  0  0  0
 28 30  1  0  0  0  0
 31 28  1  0  0  0  0
 32  4  1  0  0  0  0
 32 34  1  0  0  0  0
 33 32  1  0  0  0  0
 35 32  1  0  0  0  0
 35 36  1  0  0  0  0
 36 37  1  0  0  0  0
 38 36  2  0  0  0  0
 38 43  1  0  0  0  0
 39 38  1  0  0  0  0
 40 39  1  0  0  0  0
 41 42  1  0  0  0  0
 41 39  2  0  0  0  0
 42 35  2  0  0  0  0
 43 44  1  0  0  0  0
 43 45  1  0  0  0  0
 46 43  1  0  0  0  0
 47 49  1  0  0  0  0
 47 41  1  0  0  0  0
 48 47  1  0  0  0  0
 50 47  1  0  0  0  0
M  CHG  2  11  -1  15  -1
M  END
