1,2,5,6
q = -2.0, confidence = 0.866

 64 68  0  0  0  0  0  0  0  0999 V2000
   -1.2552   -0.4239   -0.8719 O   0  0  0  0  0  1  0  0  0  0  0  0
    1.3022   -0.2985   -0.9727 O   0  0  0  0  0  1  0  0  0  0  0  0
    3.4811    1.0027    1.5838 O   0  0  0  0  0  0  0  0  0  0  0  0
   -3.3708    0.6335    1.8216 O   0  0  0  0  0  0  0  0  0  0  0  0
   -1.2465    1.1809    1.0761 N   0  0  0  0  0  2  0  0  0  0  0  0
    1.2456    1.2473    1.0296 N   0  0  0  0  0  2  0  0  0  0  0  0
   -2.4853    0.5400    0.9890 C   0  0  0  0  0  0  0  0  0  0  0  0
    2.5384    0.7424    0.8560 C   0  0  0  0  0  0  0  0  0  0  0  0
    2.5875   -0.2319   -0.3520 C   0  0  0  0  0  0  0  0  0  0  0  0
   -2.5634   -0.3224   -0.3055 C   0  0  0  0  0  0  0  0  0  0  0  0
    0.7196    1.8064    2.2147 C   0  0  0  0  0  0  0  0  0  0  0  0
    1.4424    2.3126    3.3068 C   0  0  0  0  0  0  0  0  0  0  0  0
    0.7273    2.7820    4.4206 C   0  0  0  0  0  0  0  0  0  0  0  0
   -0.6764    2.7385    4.4502 C   0  0  0  0  0  0  0  0  0  0  0  0
   -1.4075    2.2243    3.3668 C   0  0  0  0  0  0  0  0  0  0  0  0
   -0.7026    1.7633    2.2437 C   0  0  0  0  0  0  0  0  0  0  0  0
    2.9085   -1.6134    0.2375 C   0  0  0  0  0  0  0  0  0  0  0  0
    1.9055   -2.5952    0.3301 C   0  0  0  0  0  0  0  0  0  0  0  0
    2.1955   -3.8413    0.9090 C   0  0  0  0  0  0  0  0  0  0  0  0
    3.4809   -4.1100    1.4022 C   0  0  0  0  0  0  0  0  0  0  0  0
    4.4811   -3.1270    1.3124 C   0  0  0  0  0  0  0  0  0  0  0  0
    4.1991   -1.8827    0.7323 C   0  0  0  0  0  0  0  0  0  0  0  0
    3.5864    0.2195   -1.4164 C   0  0  0  0  0  0  0  0  0  0  0  0
    4.0699    1.5391   -1.4818 C   0  0  0  0  0  0  0  0  0  0  0  0
    4.9183    1.9294   -2.5294 C   0  0  0  0  0  0  0  0  0  0  0  0
    5.2831    1.0086   -3.5229 C   0  0  0  0  0  0  0  0  0  0  0  0
    4.7963   -0.3079   -3.4661 C   0  0  0  0  0  0  0  0  0  0  0  0
    3.9534   -0.7007   -2.4187 C   0  0  0  0  0  0  0  0  0  0  0  0
   -2.9630   -1.7513    0.0827 C   0  0  0  0  0  0  0  0  0  0  0  0
   -4.0820   -2.4033   -0.4587 C   0  0  0  0  0  0  0  0  0  0  0  0
   -4.3705   -3.7291   -0.0941 C   0  0  0  0  0  0  0  0  0  0  0  0
   -3.5433   -4.4118    0.8088 C   0  0  0  0  0  0  0  0  0  0  0  0
   -2.4193   -3.7643    1.3503 C   0  0  0  0  0  0  0  0  0  0  0  0
   -2.1314   -2.4436    0.9875 C   0  0  0  0  0  0  0  0  0  0  0  0
   -3.5207    0.3586   -1.2915 C   0  0  0  0  0  0  0  0  0  0  0  0
   -4.7892    0.8091   -0.8729 C   0  0  0  0  0  0  0  0  0  0  0  0
   -5.6619    1.4074   -1.7930 C   0  0  0  0  0  0  0  0  0  0  0  0
   -5.2799    1.5625   -3.1354 C   0  0  0  0  0  0  0  0  0  0  0  0
   -4.0190    1.1120   -3.5538 C   0  0  0  0  0  0  0  0  0  0  0  0
   -3.1423    0.5100   -2.6382 C   0  0  0  0  0  0  0  0  0  0  0  0
    2.5378    2.3262    3.2677 H   0  0  0  0  0  0  0  0  0  0  0  0
    1.2815    3.1904    5.2787 H   0  0  0  0  0  0  0  0  0  0  0  0
   -1.2182    3.1126    5.3314 H   0  0  0  0  0  0  0  0  0  0  0  0
   -2.5020    2.1674    3.3776 H   0  0  0  0  0  0  0  0  0  0  0  0
    0.9042   -2.3832   -0.0706 H   0  0  0  0  0  0  0  0  0  0  0  0
    1.4060   -4.6064    0.9695 H   0  0  0  0  0  0  0  0  0  0  0  0
    3.7070   -5.0871    1.8558 H   0  0  0  0  0  0  0  0  0  0  0  0
    5.4919   -3.3314    1.6970 H   0  0  0  0  0  0  0  0  0  0  0  0
    4.9769   -1.1083    0.6682 H   0  0  0  0  0  0  0  0  0  0  0  0
    3.8013    2.2689   -0.7044 H   0  0  0  0  0  0  0  0  0  0  0  0
    5.2973    2.9618   -2.5664 H   0  0  0  0  0  0  0  0  0  0  0  0
    5.9493    1.3165   -4.3430 H   0  0  0  0  0  0  0  0  0  0  0  0
    5.0774   -1.0349   -4.2431 H   0  0  0  0  0  0  0  0  0  0  0  0
    3.5721   -1.7313   -2.3681 H   0  0  0  0  0  0  0  0  0  0  0  0
   -4.7309   -1.8739   -1.1706 H   0  0  0  0  0  0  0  0  0  0  0  0
   -5.2498   -4.2313   -0.5252 H   0  0  0  0  0  0  0  0  0  0  0  0
   -3.7724   -5.4503    1.0922 H   0  0  0  0  0  0  0  0  0  0  0  0
   -1.7632   -4.2913    2.0598 H   0  0  0  0  0  0  0  0  0  0  0  0
   -1.2428   -1.9442    1.4045 H   0  0  0  0  0  0  0  0  0  0  0  0
   -5.0847    0.6913    0.1795 H   0  0  0  0  0  0  0  0  0  0  0  0
   -6.6490    1.7582   -1.4553 H   0  0  0  0  0  0  0  0  0  0  0  0
   -5.9657    2.0355   -3.8546 H   0  0  0  0  0  0  0  0  0  0  0  0
   -3.7109    1.2277   -4.6041 H   0  0  0  0  0  0  0  0  0  0  0  0
   -2.1569    0.1486   -2.9632 H   0  0  0  0  0  0  0  0  0  0  0  0
  1 10  1  0  0  0  0
  2  9  1  0  0  0  0
  5 16  1  0  0  0  0
  6 11  1  0  0  0  0
  7  5  1  0  0  0  0
  7  4  2  0  0  0  0
  8  6  1  0  0  0  0
  8  3  2  0  0  0  0
  9 17  1  0  0  0  0
  9  8  1  0  0  0  0
 10 29  1  0  0  0  0
 10  7  1  0  0  0  0
 11 16  2  0  0  0  0
 11 12  1  0  0  0  0
 12 13  2  0  0  0  0
 13 14  1  0  0  0  0
 13 42  1  0  0  0  0
 14 43  1  0  0  0  0
 15 44  1  0  0  0  0
 15 14  2  0  0  0  0
 16 15  1  0  0  0  0
 17 18  2  0  0  0  0
 17 22  1  0  0  0  0
 18 19  1  0  0  0  0
 19 46  1  0  0  0  0
 19 20  2  0  0  0  0
 20 47  1  0  0  0  0
 21 20  1  0  0  0  0
 21 48  1  0  0  0  0
 22 21  2  0  0  0  0
 23  9  1  0  0  0  0
 24 23  1  0  0  0  0
 24 50  1  0  0  0  0
 25 24  2  0  0  0  0
 26 27  2  0  0  0  0
 26 25  1  0  0  0  0
 27 28  1  0  0  0  0
 28 54  1  0  0  0  0
 28 23  2  0  0  0  0
 29 34  1  0  0  0  0
 30 31  1  0  0  0  0
 30 29  2  0  0  0  0
 31 32  2  0  0  0  0
 32 57  1  0  0  0  0
 32 33  1  0  0  0  0
 33 58  1  0  0  0  0
 34 33  2  0  0  0  0
 34 59  1  0  0  0  0
 35 36  1  0  0  0  0
 35 10  1  0  0  0  0
 36 60  1  0  0  0  0
 37 61  1  0  0  0  0
 37 36  2  0  0  0  0
 38 37  1  0  0  0  0
 39 38  2  0  0  0  0
 39 40  1  0  0  0  0
 40 35  2  0  0  0  0
 41 12  1  0  0  0  0
 45 18  1  0  0  0  0
 49 22  1  0  0  0  0
 51 25  1  0  0  0  0
 52 26  1  0  0  0  0
 53 27  1  0  0  0  0
 55 30  1  0  0  0  0
 56 31  1  0  0  0  0
 62 38  1  0  0  0  0
 63 39  1  0  0  0  0
 64 40  1  0  0  0  0
M  END
