1,7,17,26
q = -2.0, confidence = 0.918

 35 37  0  0  1  0  0  0  0  0999 V2000
   -0.3249   -1.7497   -1.3097 O   0  0  0  0  0  1  0  0  0  0  0  0
   -2.0934   -3.4802   -0.9618 O   0  0  0  0  0  1  0  0  0  0  0  0
   -2.5851   -1.4503   -2.4367 O   0  0  0  0  0  1  0  0  0  0  0  0
   -1.8482   -2.0637   -1.3105 S   0  0  0  0  0  0  0  0  0  0  0  0
   -2.4744   -1.1062    0.2355 C   0  0  1  0  0  0  0  0  0  0  0  0
   -3.4460   -1.6001    0.4098 H   0  0  0  0  0  0  0  0  0  0  0  0
   -0.2926   -0.8473    1.4142 N   0  0  0  0  0  2  0  0  0  0  0  0
   -1.5511   -1.3840    1.3939 C   0  0  2  0  0  3  0  0  0  0  0  0
   -1.9631   -2.2241    2.4438 C   0  0  0  0  0  0  0  0  0  0  0  0
   -2.9628   -2.6773    2.3969 H   0  0  0  0  0  0  0  0  0  0  0  0
   -1.1070   -2.4749    3.5210 C   0  0  0  0  0  0  0  0  0  0  0  0
   -1.4277   -3.1337    4.3416 H   0  0  0  0  0  0  0  0  0  0  0  0
    0.1580   -1.8706    3.5412 C   0  0  0  0  0  0  0  0  0  0  0  0
    0.8612   -2.0278    4.3705 H   0  0  0  0  0  0  0  0  0  0  0  0
    0.5313   -1.0680    2.4613 C   0  0  0  0  0  0  0  0  0  0  0  0
    1.5219   -0.5968    2.3943 H   0  0  0  0  0  0  0  0  0  0  0  0
   -1.5388    1.0595   -0.1661 N   0  0  0  0  0  2  0  0  0  0  0  0
   -2.6713    0.3521   -0.0603 C   0  0  2  0  0  3  0  0  0  0  0  0
   -3.9079    1.0119   -0.1379 C   0  0  0  0  0  0  0  0  0  0  0  0
   -4.8469    0.4444   -0.0859 H   0  0  0  0  0  0  0  0  0  0  0  0
   -3.8994    2.4122   -0.2684 C   0  0  0  0  0  0  0  0  0  0  0  0
   -4.8520    2.9558   -0.3560 H   0  0  0  0  0  0  0  0  0  0  0  0
   -2.6947    3.1287   -0.2240 C   0  0  0  0  0  0  0  0  0  0  0  0
   -2.6939    4.2270   -0.2352 H   0  0  0  0  0  0  0  0  0  0  0  0
   -1.4847    2.4123   -0.1310 C   0  0  0  0  0  0  0  0  0  0  0  0
    0.8815    1.9170    0.3545 C   0  0  0  0  0  3  0  0  0  0  0  0
   -0.1343    2.9095    0.1748 C   0  0  0  0  0  0  0  0  0  0  0  0
    0.1514    4.2621    0.4483 C   0  0  0  0  0  0  0  0  0  0  0  0
   -0.6254    5.0282    0.3020 H   0  0  0  0  0  0  0  0  0  0  0  0
    1.4127    4.6331    0.9300 C   0  0  0  0  0  0  0  0  0  0  0  0
    1.6310    5.6901    1.1423 H   0  0  0  0  0  0  0  0  0  0  0  0
    2.3895    3.6497    1.1551 C   0  0  0  0  0  0  0  0  0  0  0  0
    3.3762    3.9361    1.5509 H   0  0  0  0  0  0  0  0  0  0  0  0
    2.1281    2.2974    0.8655 C   0  0  0  0  0  0  0  0  0  0  0  0
    2.9158    1.5452    1.0131 H   0  0  0  0  0  0  0  0  0  0  0  0
  3  4  1  0  0  0  0
  4  1  1  0  0  0  0
  4  2  1  0  0  0  0
  4  5  1  0  0  0  0
  5  6  1  1  0  0  0
  7 15  1  0  0  0  0
  8  5  1  6  0  0  0
  8  7  1  0  0  0  0
  8  9  1  0  0  0  0
  9 11  2  0  0  0  0
 10  9  1  0  0  0  0
 11 13  1  0  0  0  0
 11 12  1  0  0  0  0
 13 14  1  0  0  0  0
 15 13  2  0  0  0  0
 16 15  1  0  0  0  0
 17 25  1  0  0  0  0
 17 18  1  0  0  0  0
 18  5  1  1  0  0  0
 19 20  1  0  0  0  0
 19 18  1  0  0  0  0
 21 23  1  0  0  0  0
 21 19  2  0  0  0  0
 22 21  1  0  0  0  0
 23 25  2  0  0  0  0
 24 23  1  0  0  0  0
 25 27  1  0  0  0  0
 26 34  1  0  0  0  0
 27 26  2  0  0  0  0
 27 28  1  0  0  0  0
 28 30  2  0  0  0  0
 29 28  1  0  0  0  0
 30 31  1  0  0  0  0
 30 32  1  0  0  0  0
 32 33  1  0  0  0  0
 34 35  1  0  0  0  0
 34 32  2  0  0  0  0
M  END
