1,3,4,9
q = -2.0, confidence = 0.944

 25 24  0  0  0  0  0  0  0  0999 V2000
    0.7729   -0.2880    1.7193 O   0  5  0  0  0  0  0  0  0  0  0  0
    2.4648   -1.7804    1.5469 O   0  0  0  0  0  0  0  0  0  0  0  0
    1.8524    1.4709   -0.2820 N   0  0  0  0  0  0  0  0  0  0  0  0
    1.6963   -1.0859   -1.1174 N   0  0  0  0  0  0  0  0  0  0  0  0
    2.0309   -0.6298    1.7033 C   0  0  0  0  0  0  0  0  0  0  0  0
    2.9842    0.5777    1.7971 C   0  0  0  0  0  0  0  0  0  0  0  0
    2.3783    1.7880    1.0881 C   0  0  0  0  0  0  0  0  0  0  0  0
    2.8987    1.0362   -1.2580 C   0  0  0  0  0  0  0  0  0  0  0  0
    0.0380    0.1725   -2.1614 C   0  0  0  0  0  3  0  0  0  0  0  0
    0.8923   -1.0632   -2.3816 C   0  0  0  0  0  0  0  0  0  0  0  0
    3.0426   -0.4789   -1.2120 C   0  0  0  0  0  0  0  0  0  0  0  0
    1.4500    2.3404   -0.6580 H   0  0  0  0  0  0  0  0  0  0  0  0
    1.7903   -2.0085   -0.6643 H   0  0  0  0  0  0  0  0  0  0  0  0
    3.9940    0.3160    1.4253 H   0  0  0  0  0  0  0  0  0  0  0  0
    3.1109    0.8414    2.8682 H   0  0  0  0  0  0  0  0  0  0  0  0
    3.1166    2.6155    1.0043 H   0  0  0  0  0  0  0  0  0  0  0  0
    1.5121    2.1467    1.6760 H   0  0  0  0  0  0  0  0  0  0  0  0
    3.8667    1.5382   -1.0494 H   0  0  0  0  0  0  0  0  0  0  0  0
    2.5715    1.3634   -2.2635 H   0  0  0  0  0  0  0  0  0  0  0  0
   -1.0314    0.0524   -2.4195 H   0  0  0  0  0  0  0  0  0  0  0  0
    0.4271    1.1003   -2.6272 H   0  0  0  0  0  0  0  0  0  0  0  0
    0.2807   -1.9852   -2.4173 H   0  0  0  0  0  0  0  0  0  0  0  0
    1.5545   -1.0661   -3.2764 H   0  0  0  0  0  0  0  0  0  0  0  0
    3.6077   -0.8184   -0.3261 H   0  0  0  0  0  0  0  0  0  0  0  0
    3.5726   -0.8485   -2.1164 H   0  0  0  0  0  0  0  0  0  0  0  0
  2  5  2  0  0  0  0
  3  7  1  0  0  0  0
  4 13  1  0  0  0  0
  5  1  1  0  0  0  0
  5  6  1  0  0  0  0
  6 15  1  0  0  0  0
  7 17  1  0  0  0  0
  7  6  1  0  0  0  0
  8 11  1  0  0  0  0
  8 18  1  0  0  0  0
  8  3  1  0  0  0  0
 10  9  1  0  0  0  0
 10  4  1  0  0  0  0
 11  4  1  0  0  0  0
 11 24  1  0  0  0  0
 12  3  1  0  0  0  0
 14  6  1  0  0  0  0
 16  7  1  0  0  0  0
 19  8  1  0  0  0  0
 20  9  1  0  0  0  0
 21  9  1  0  0  0  0
 22 10  1  0  0  0  0
 23 10  1  0  0  0  0
 25 11  1  0  0  0  0
M  CHG  1   1  -1
M  END
