1,2,3,41
q = -2.0, confidence = 0.63

 43 44  0  0  0  0  0  0  0  0999 V2000
    1.6218    1.8505    0.3075 N   0  0  0  0  0  2  0  0  0  0  0  0
   -0.8911    1.7772    0.7050 N   0  0  0  0  0  2  0  0  0  0  0  0
    1.7194   -0.9182    0.3166 O   0  5  0  0  0  0  0  0  0  0  0  0
   -1.0661   -0.3719   -1.7704 O   0  0  0  0  0  0  0  0  0  0  0  0
    2.9579   -0.7560   -0.0964 C   0  0  0  0  0  0  0  0  0  0  0  0
    3.7514   -1.9125   -0.3435 C   0  0  0  0  0  0  0  0  0  0  0  0
    3.2798   -2.8952   -0.1976 H   0  0  0  0  0  0  0  0  0  0  0  0
    5.0733   -1.8041   -0.7556 C   0  0  0  0  0  0  0  0  0  0  0  0
    5.6498   -2.7247   -0.9409 H   0  0  0  0  0  0  0  0  0  0  0  0
    5.7099   -0.5435   -0.9486 C   0  0  0  0  0  0  0  0  0  0  0  0
    4.9490    0.5944   -0.7026 C   0  0  0  0  0  0  0  0  0  0  0  0
    5.4031    1.5899   -0.8357 H   0  0  0  0  0  0  0  0  0  0  0  0
    3.5849    0.5281   -0.2861 C   0  0  0  0  0  0  0  0  0  0  0  0
    7.1448   -0.4722   -1.3999 C   0  0  0  0  0  0  0  0  0  0  0  0
    7.2783   -0.9532   -2.3913 H   0  0  0  0  0  0  0  0  0  0  0  0
    7.8158   -1.0042   -0.6940 H   0  0  0  0  0  0  0  0  0  0  0  0
    7.4976    0.5734   -1.4813 H   0  0  0  0  0  0  0  0  0  0  0  0
    2.8893    1.7478   -0.0226 C   0  0  0  0  0  3  0  0  0  0  0  0
    3.4755    2.6853   -0.1025 H   0  0  0  0  0  0  0  0  0  0  0  0
    1.0163    3.1700    0.5230 C   0  0  0  0  0  0  0  0  0  0  0  0
    0.7404    3.6200   -0.4574 H   0  0  0  0  0  0  0  0  0  0  0  0
    1.7188    3.8655    1.0281 H   0  0  0  0  0  0  0  0  0  0  0  0
   -0.2520    2.9302    1.3430 C   0  0  0  0  0  0  0  0  0  0  0  0
    0.0032    2.6689    2.3911 H   0  0  0  0  0  0  0  0  0  0  0  0
   -0.9142    3.8211    1.3498 H   0  0  0  0  0  0  0  0  0  0  0  0
   -2.0822    1.9085    0.1868 C   0  0  0  0  0  3  0  0  0  0  0  0
   -2.6289    2.8395    0.4416 H   0  0  0  0  0  0  0  0  0  0  0  0
   -2.8391    0.9761   -0.6324 C   0  0  0  0  0  0  0  0  0  0  0  0
   -4.2541    1.1617   -0.5613 C   0  0  0  0  0  0  0  0  0  0  0  0
   -4.6264    1.9971    0.0534 H   0  0  0  0  0  0  0  0  0  0  0  0
   -5.1793    0.3304   -1.1935 C   0  0  0  0  0  0  0  0  0  0  0  0
   -4.6596   -0.7394   -1.9633 C   0  0  0  0  0  0  0  0  0  0  0  0
   -5.3507   -1.4215   -2.4826 H   0  0  0  0  0  0  0  0  0  0  0  0
   -3.2875   -0.9298   -2.1013 C   0  0  0  0  0  0  0  0  0  0  0  0
   -2.8844   -1.7361   -2.7304 H   0  0  0  0  0  0  0  0  0  0  0  0
   -2.3564   -0.0779   -1.4706 C   0  0  0  0  0  0  0  0  0  0  0  0
   -6.6641    0.5528   -1.0789 C   0  0  0  0  0  0  0  0  0  0  0  0
   -6.9020    1.4188   -0.4326 H   0  0  0  0  0  0  0  0  0  0  0  0
   -7.1724   -0.3384   -0.6565 H   0  0  0  0  0  0  0  0  0  0  0  0
   -7.1179    0.7373   -2.0746 H   0  0  0  0  0  0  0  0  0  0  0  0
    0.0094    0.4468   -1.3998 C   0  0  0  0  0  3  0  0  0  0  0  0
   -0.1703    1.4938   -1.7247 H   0  0  0  0  0  0  0  0  0  0  0  0
    0.9002    0.0224   -1.8995 H   0  0  0  0  0  0  0  0  0  0  0  0
  1 20  1  0  0  0  0
  2 23  1  0  0  0  0
  4 36  1  0  0  0  0
  4 41  1  0  0  0  0
  5  3  1  0  0  0  0
  6  7  1  0  0  0  0
  6  5  2  0  0  0  0
  8  6  1  0  0  0  0
  9  8  1  0  0  0  0
 10  8  2  0  0  0  0
 10 11  1  0  0  0  0
 11 13  2  0  0  0  0
 12 11  1  0  0  0  0
 13  5  1  0  0  0  0
 13 18  1  0  0  0  0
 14 10  1  0  0  0  0
 14 16  1  0  0  0  0
 15 14  1  0  0  0  0
 17 14  1  0  0  0  0
 18  1  1  0  0  0  0
 19 18  1  0  0  0  0
 20 22  1  0  0  0  0
 20 23  1  0  0  0  0
 21 20  1  0  0  0  0
 23 25  1  0  0  0  0
 23 24  1  0  0  0  0
 26 27  1  0  0  0  0
 26  2  1  0  0  0  0
 28 29  1  0  0  0  0
 28 26  1  0  0  0  0
 29 30  1  0  0  0  0
 31 37  1  0  0  0  0
 31 29  2  0  0  0  0
 32 31  1  0  0  0  0
 33 32  1  0  0  0  0
 34 32  2  0  0  0  0
 34 36  1  0  0  0  0
 35 34  1  0  0  0  0
 36 28  2  0  0  0  0
 37 39  1  0  0  0  0
 37 38  1  0  0  0  0
 40 37  1  0  0  0  0
 42 41  1  0  0  0  0
 43 41  1  0  0  0  0
M  CHG  1   3  -1
M  END
