3,4,6,28
q = -2.0, confidence = 0.702

 36 38  0  0  0  0  0  0  0  0999 V2000
    0.3434    2.6026    0.0003 C   0  0  0  0  0  0  0  0  0  0  0  0
   -1.0839    2.4464    0.0011 C   0  0  0  0  0  0  0  0  0  0  0  0
    1.1168    1.4290   -0.0004 N   0  0  0  0  0  2  0  0  0  0  0  0
   -1.5623    1.1212    0.0010 N   0  0  0  0  0  2  0  0  0  0  0  0
   -2.7939    0.7861    0.0015 N   0  0  0  0  0  2  0  0  0  0  0  0
    1.3852   -1.6064   -0.0013 O   0  5  0  0  0  0  0  0  0  0  0  0
    2.6420   -1.2393   -0.0011 C   0  0  0  0  0  0  0  0  0  0  0  0
    3.1785    0.1191   -0.0014 C   0  0  0  0  0  0  0  0  0  0  0  0
    4.6024    0.2886   -0.0018 C   0  0  0  0  0  0  0  0  0  0  0  0
    4.9908    1.3197   -0.0021 H   0  0  0  0  0  0  0  0  0  0  0  0
    3.5878   -2.3132   -0.0007 C   0  0  0  0  0  0  0  0  0  0  0  0
    3.1684   -3.3291   -0.0003 H   0  0  0  0  0  0  0  0  0  0  0  0
    5.4835   -0.7770   -0.0016 C   0  0  0  0  0  0  0  0  0  0  0  0
    6.5693   -0.6076   -0.0018 H   0  0  0  0  0  0  0  0  0  0  0  0
    4.9562   -2.0939   -0.0010 C   0  0  0  0  0  0  0  0  0  0  0  0
    5.6395   -2.9575   -0.0007 H   0  0  0  0  0  0  0  0  0  0  0  0
    0.8600    3.9145    0.0003 C   0  0  0  0  0  0  0  0  0  0  0  0
    1.9466    4.0761   -0.0003 H   0  0  0  0  0  0  0  0  0  0  0  0
   -1.4018    4.8442    0.0021 C   0  0  0  0  0  0  0  0  0  0  0  0
   -2.0663    5.7202    0.0028 H   0  0  0  0  0  0  0  0  0  0  0  0
   -1.9449    3.5577    0.0021 C   0  0  0  0  0  0  0  0  0  0  0  0
   -3.0284    3.3780    0.0027 H   0  0  0  0  0  0  0  0  0  0  0  0
   -0.0028    5.0163    0.0012 C   0  0  0  0  0  0  0  0  0  0  0  0
    0.4227    6.0309    0.0013 H   0  0  0  0  0  0  0  0  0  0  0  0
    2.4256    1.3373   -0.0012 C   0  0  0  0  0  3  0  0  0  0  0  0
    3.0256    2.2683   -0.0016 H   0  0  0  0  0  0  0  0  0  0  0  0
   -2.9518   -0.5899    0.0012 C   0  0  0  0  0  0  0  0  0  0  0  0
   -1.7775   -1.4293    0.0003 C   0  0  0  0  0  3  0  0  0  0  0  0
   -4.2513   -1.1510    0.0017 C   0  0  0  0  0  0  0  0  0  0  0  0
   -5.1217   -0.4795    0.0023 H   0  0  0  0  0  0  0  0  0  0  0  0
   -3.2379   -3.3618    0.0004 C   0  0  0  0  0  0  0  0  0  0  0  0
   -3.3596   -4.4564    0.0002 H   0  0  0  0  0  0  0  0  0  0  0  0
   -1.9406   -2.8144   -0.0000 C   0  0  0  0  0  0  0  0  0  0  0  0
   -1.0552   -3.4674   -0.0007 H   0  0  0  0  0  0  0  0  0  0  0  0
   -4.3856   -2.5396    0.0013 C   0  0  0  0  0  0  0  0  0  0  0  0
   -5.3861   -2.9960    0.0016 H   0  0  0  0  0  0  0  0  0  0  0  0
  1 17  2  0  0  0  0
  1  2  1  0  0  0  0
  2 21  2  0  0  0  0
  3  1  1  0  0  0  0
  4  2  1  0  0  0  0
  4  5  1  0  0  0  0
  6  7  1  0  0  0  0
  7 11  1  0  0  0  0
  8 25  1  0  0  0  0
  8  7  2  0  0  0  0
  9 13  2  0  0  0  0
  9  8  1  0  0  0  0
 10  9  1  0  0  0  0
 11 12  1  0  0  0  0
 13 15  1  0  0  0  0
 14 13  1  0  0  0  0
 15 11  2  0  0  0  0
 15 16  1  0  0  0  0
 17 23  1  0  0  0  0
 18 17  1  0  0  0  0
 19 20  1  0  0  0  0
 21 19  1  0  0  0  0
 21 22  1  0  0  0  0
 23 24  1  0  0  0  0
 23 19  2  0  0  0  0
 25  3  1  0  0  0  0
 26 25  1  0  0  0  0
 27  5  1  0  0  0  0
 27 29  1  0  0  0  0
 28 27  2  0  0  0  0
 29 30  1  0  0  0  0
 31 35  1  0  0  0  0
 32 31  1  0  0  0  0
 33 28  1  0  0  0  0
 33 31  2  0  0  0  0
 34 33  1  0  0  0  0
 35 36  1  0  0  0  0
 35 29  2  0  0  0  0
M  CHG  1   6  -1
M  END
