1,2,3,37
q = -2.0, confidence = 0.944

 76 80  0  0  1  0  0  0  0  0999 V2000
   -1.6817    0.6317   -2.1706 O   0  0  0  0  0  1  0  0  0  0  0  0
   -0.5051   -0.4499    0.4183 N   0  0  0  0  0  2  0  0  0  0  0  0
   -2.8430   -0.9509    1.3057 N   0  0  0  0  0  2  0  0  0  0  0  0
   -0.3953    0.8227   -2.3988 C   0  0  1  0  0  3  0  0  0  0  0  0
    0.0230    1.4270   -3.6255 C   0  0  0  0  0  0  0  0  0  0  0  0
   -0.7603    1.7110   -4.3432 H   0  0  0  0  0  0  0  0  0  0  0  0
    1.3720    1.6562   -3.9058 C   0  0  0  0  0  0  0  0  0  0  0  0
    1.6354    2.1293   -4.8651 H   0  0  0  0  0  0  0  0  0  0  0  0
    2.4142    1.3072   -3.0063 C   0  0  0  0  0  0  0  0  0  0  0  0
    3.4645    1.5084   -3.2647 H   0  0  0  0  0  0  0  0  0  0  0  0
    2.0523    0.7144   -1.8012 C   0  0  0  0  0  0  0  0  0  0  0  0
    0.6806    0.4801   -1.5120 C   0  0  0  0  0  0  0  0  0  0  0  0
    0.6225   -0.1127   -0.2085 C   0  0  0  0  0  0  0  0  0  0  0  0
    1.9062   -0.2775    0.3669 C   0  0  0  0  0  0  0  0  0  0  0  0
    1.9573   -0.7928    1.6651 C   0  0  0  0  0  0  0  0  0  0  0  0
    2.9126   -0.9168    2.1959 H   0  0  0  0  0  0  0  0  0  0  0  0
    0.7493   -1.1515    2.3255 C   0  0  0  0  0  0  0  0  0  0  0  0
    0.7853   -1.5589    3.3454 H   0  0  0  0  0  0  0  0  0  0  0  0
   -0.4853   -0.9769    1.6820 C   0  0  0  0  0  0  0  0  0  0  0  0
   -1.8427   -1.2738    2.1920 C   0  0  0  0  0  0  0  0  0  0  0  0
   -2.1890   -1.8242    3.4351 C   0  0  0  0  0  0  0  0  0  0  0  0
   -1.4052   -2.0906    4.1568 H   0  0  0  0  0  0  0  0  0  0  0  0
   -3.5475   -2.0260    3.7335 C   0  0  0  0  0  0  0  0  0  0  0  0
   -3.8326   -2.4573    4.7042 H   0  0  0  0  0  0  0  0  0  0  0  0
   -4.5428   -1.6821    2.8061 C   0  0  0  0  0  0  0  0  0  0  0  0
   -5.6044   -1.8385    3.0411 H   0  0  0  0  0  0  0  0  0  0  0  0
   -4.1791   -1.1304    1.5631 C   0  0  0  0  0  0  0  0  0  0  0  0
   -5.0305   -0.6934    0.4494 C   0  0  0  0  0  0  0  0  0  0  0  0
   -6.4390   -0.7747    0.4666 C   0  0  0  0  0  3  0  0  0  0  0  0
   -6.9633   -1.1842    1.3446 H   0  0  0  0  0  0  0  0  0  0  0  0
   -7.1782   -0.3333   -0.6371 C   0  0  0  0  0  0  0  0  0  0  0  0
   -8.2765   -0.3966   -0.6243 H   0  0  0  0  0  0  0  0  0  0  0  0
   -6.5117    0.1912   -1.7614 C   0  0  0  0  0  0  0  0  0  0  0  0
   -7.0984    0.5375   -2.6274 H   0  0  0  0  0  0  0  0  0  0  0  0
   -5.1098    0.2770   -1.7897 C   0  0  0  0  0  0  0  0  0  0  0  0
   -4.5980    0.6890   -2.6737 H   0  0  0  0  0  0  0  0  0  0  0  0
   -4.3363   -0.1582   -0.6982 C   0  0  0  0  0  3  0  0  0  0  0  0
    2.9467    0.2187   -0.6415 C   0  0  0  0  0  0  0  0  0  0  0  0
    3.8305   -0.9474   -1.1759 C   0  0  0  0  0  0  0  0  0  0  0  0
    3.1580   -1.6925   -1.6526 H   0  0  0  0  0  0  0  0  0  0  0  0
    4.4511   -0.5323   -2.0000 H   0  0  0  0  0  0  0  0  0  0  0  0
    4.7386   -1.6581   -0.1703 C   0  0  0  0  0  0  0  0  0  0  0  0
    4.1237   -2.1214    0.6313 H   0  0  0  0  0  0  0  0  0  0  0  0
    5.4048   -0.9257    0.3356 H   0  0  0  0  0  0  0  0  0  0  0  0
    5.5997   -2.7458   -0.8206 C   0  0  0  0  0  0  0  0  0  0  0  0
    4.9387   -3.4779   -1.3370 H   0  0  0  0  0  0  0  0  0  0  0  0
    6.2230   -2.2908   -1.6234 H   0  0  0  0  0  0  0  0  0  0  0  0
    6.5050   -3.4871    0.1660 C   0  0  0  0  0  0  0  0  0  0  0  0
    7.1635   -2.7533    0.6848 H   0  0  0  0  0  0  0  0  0  0  0  0
    5.8800   -3.9433    0.9675 H   0  0  0  0  0  0  0  0  0  0  0  0
    7.3699   -4.5737   -0.4800 C   0  0  0  0  0  0  0  0  0  0  0  0
    7.9922   -4.1147   -1.2804 H   0  0  0  0  0  0  0  0  0  0  0  0
    6.7091   -5.3033   -0.9991 H   0  0  0  0  0  0  0  0  0  0  0  0
    8.2691   -5.3091    0.5142 C   0  0  0  0  0  0  0  0  0  0  0  0
    8.9657   -4.6094    1.0220 H   0  0  0  0  0  0  0  0  0  0  0  0
    8.8819   -6.0880    0.0174 H   0  0  0  0  0  0  0  0  0  0  0  0
    7.6715   -5.8085    1.3054 H   0  0  0  0  0  0  0  0  0  0  0  0
    3.8111    1.3635   -0.0562 C   0  0  0  0  0  0  0  0  0  0  0  0
    4.4054    0.9670    0.7956 H   0  0  0  0  0  0  0  0  0  0  0  0
    4.5519    1.6612   -0.8311 H   0  0  0  0  0  0  0  0  0  0  0  0
    3.0245    2.5927    0.4030 C   0  0  0  0  0  0  0  0  0  0  0  0
    2.4402    2.9958   -0.4520 H   0  0  0  0  0  0  0  0  0  0  0  0
    2.2733    2.2894    1.1657 H   0  0  0  0  0  0  0  0  0  0  0  0
    3.9132    3.6965    0.9808 C   0  0  0  0  0  0  0  0  0  0  0  0
    4.6671    3.9998    0.2190 H   0  0  0  0  0  0  0  0  0  0  0  0
    4.5016    3.2913    1.8357 H   0  0  0  0  0  0  0  0  0  0  0  0
    3.1360    4.9318    1.4422 C   0  0  0  0  0  0  0  0  0  0  0  0
    2.5478    5.3354    0.5871 H   0  0  0  0  0  0  0  0  0  0  0  0
    2.3810    4.6280    2.2027 H   0  0  0  0  0  0  0  0  0  0  0  0
    4.0183    6.0423    2.0200 C   0  0  0  0  0  0  0  0  0  0  0  0
    4.6059    5.6340    2.8727 H   0  0  0  0  0  0  0  0  0  0  0  0
    4.7712    6.3426    1.2573 H   0  0  0  0  0  0  0  0  0  0  0  0
    3.2311    7.2706    2.4780 C   0  0  0  0  0  0  0  0  0  0  0  0
    2.6625    7.7207    1.6375 H   0  0  0  0  0  0  0  0  0  0  0  0
    3.8956    8.0563    2.8906 H   0  0  0  0  0  0  0  0  0  0  0  0
    2.4954    7.0067    3.2664 H   0  0  0  0  0  0  0  0  0  0  0  0
  2 19  1  0  0  0  0
  3 27  1  0  0  0  0
  3 20  1  0  0  0  0
  4  1  1  1  0  0  0
  4 12  1  0  0  0  0
  5  4  1  0  0  0  0
  6  5  1  0  0  0  0
  7  5  2  0  0  0  0
  7  9  1  0  0  0  0
  8  7  1  0  0  0  0
  9 11  2  0  0  0  0
 10  9  1  0  0  0  0
 11 12  1  0  0  0  0
 11 38  1  0  0  0  0
 12 13  2  0  0  0  0
 13 14  1  0  0  0  0
 13  2  1  0  0  0  0
 14 15  2  0  0  0  0
 15 16  1  0  0  0  0
 15 17  1  0  0  0  0
 17 18  1  0  0  0  0
 19 20  1  0  0  0  0
 19 17  2  0  0  0  0
 20 21  2  0  0  0  0
 21 23  1  0  0  0  0
 21 22  1  0  0  0  0
 23 24  1  0  0  0  0
 25 26  1  0  0  0  0
 25 23  2  0  0  0  0
 27 25  1  0  0  0  0
 28 29  1  0  0  0  0
 28 27  2  0  0  0  0
 29 30  1  0  0  0  0
 31 32  1  0  0  0  0
 31 29  1  0  0  0  0
 33 31  2  0  0  0  0
 34 33  1  0  0  0  0
 35 33  1  0  0  0  0
 35 37  2  0  0  0  0
 36 35  1  0  0  0  0
 37 28  1  0  0  0  0
 38 58  1  0  0  0  0
 38 14  1  0  0  0  0
 39 38  1  0  0  0  0
 39 42  1  0  0  0  0
 40 39  1  0  0  0  0
 41 39  1  0  0  0  0
 42 44  1  0  0  0  0
 42 43  1  0  0  0  0
 45 42  1  0  0  0  0
 45 48  1  0  0  0  0
 46 45  1  0  0  0  0
 47 45  1  0  0  0  0
 48 49  1  0  0  0  0
 48 50  1  0  0  0  0
 51 48  1  0  0  0  0
 51 54  1  0  0  0  0
 52 51  1  0  0  0  0
 53 51  1  0  0  0  0
 54 55  1  0  0  0  0
 54 57  1  0  0  0  0
 56 54  1  0  0  0  0
 58 61  1  0  0  0  0
 58 59  1  0  0  0  0
 60 58  1  0  0  0  0
 61 64  1  0  0  0  0
 61 63  1  0  0  0  0
 62 61  1  0  0  0  0
 64 67  1  0  0  0  0
 64 66  1  0  0  0  0
 65 64  1  0  0  0  0
 67 70  1  0  0  0  0
 67 69  1  0  0  0  0
 68 67  1  0  0  0  0
 70 73  1  0  0  0  0
 70 71  1  0  0  0  0
 72 70  1  0  0  0  0
 73 75  1  0  0  0  0
 73 76  1  0  0  0  0
 74 73  1  0  0  0  0
M  END
