1,2,3,21
q = -2.0, confidence = 0.828

 73 77  0  0  0  0  0  0  0  0999 V2000
   -3.3393    2.2183    0.5943 O   0  5  0  0  0  0  0  0  0  0  0  0
   -5.1185   -0.3669    0.0810 N   0  0  0  0  0  2  0  0  0  0  0  0
   -1.1546    0.2883   -0.1086 N   0  0  0  0  0  2  0  0  0  0  0  0
   -6.1749    0.4218    0.3503 C   0  0  0  0  0  0  0  0  0  0  0  0
   -5.9293    1.4719    0.5779 H   0  0  0  0  0  0  0  0  0  0  0  0
   -7.4866   -0.0660    0.3414 C   0  0  0  0  0  0  0  0  0  0  0  0
   -8.3231    0.6097    0.5673 H   0  0  0  0  0  0  0  0  0  0  0  0
   -7.6968   -1.4221    0.0404 C   0  0  0  0  0  0  0  0  0  0  0  0
   -8.7154   -1.8381    0.0241 H   0  0  0  0  0  0  0  0  0  0  0  0
   -6.5986   -2.2432   -0.2396 C   0  0  0  0  0  0  0  0  0  0  0  0
   -6.7361   -3.3073   -0.4780 H   0  0  0  0  0  0  0  0  0  0  0  0
   -5.2986   -1.7059   -0.2180 C   0  0  0  0  0  0  0  0  0  0  0  0
   -4.0456   -2.4228   -0.4817 C   0  0  0  0  0  0  0  0  0  0  0  0
   -3.8308   -3.7838   -0.7879 C   0  0  0  0  0  3  0  0  0  0  0  0
   -4.6722   -4.4892   -0.8779 H   0  0  0  0  0  0  0  0  0  0  0  0
   -2.5147   -4.2479   -0.9760 C   0  0  0  0  0  0  0  0  0  0  0  0
   -2.3507   -5.3090   -1.2152 H   0  0  0  0  0  0  0  0  0  0  0  0
   -1.3986   -3.3923   -0.8586 C   0  0  0  0  0  0  0  0  0  0  0  0
   -0.3869   -3.8033   -1.0034 H   0  0  0  0  0  0  0  0  0  0  0  0
   -1.5946   -2.0298   -0.5566 C   0  0  0  0  0  0  0  0  0  0  0  0
   -2.9196   -1.5781   -0.3865 C   0  0  0  0  0  3  0  0  0  0  0  0
   -0.6001   -0.9616   -0.3541 C   0  0  0  0  0  0  0  0  0  0  0  0
    0.7797   -1.1403   -0.3765 C   0  0  0  0  0  0  0  0  0  0  0  0
    1.1927   -2.1315   -0.6063 H   0  0  0  0  0  0  0  0  0  0  0  0
    1.6314   -0.0463   -0.0962 C   0  0  0  0  0  0  0  0  0  0  0  0
    1.0332    1.1962    0.1452 C   0  0  0  0  0  0  0  0  0  0  0  0
    1.6751    2.0354    0.4328 H   0  0  0  0  0  0  0  0  0  0  0  0
   -0.3758    1.3948    0.0915 C   0  0  0  0  0  0  0  0  0  0  0  0
   -0.9480    2.7473    0.2476 C   0  0  0  0  0  0  0  0  0  0  0  0
   -0.0502    3.8522    0.1222 C   0  0  0  0  0  3  0  0  0  0  0  0
    0.9909    3.6572   -0.1680 H   0  0  0  0  0  0  0  0  0  0  0  0
   -0.4239    5.1775    0.3011 C   0  0  0  0  0  0  0  0  0  0  0  0
    0.3155    5.9814    0.1741 H   0  0  0  0  0  0  0  0  0  0  0  0
   -1.7665    5.4706    0.6316 C   0  0  0  0  0  0  0  0  0  0  0  0
   -2.0865    6.5125    0.7907 H   0  0  0  0  0  0  0  0  0  0  0  0
   -2.6868    4.4413    0.7335 C   0  0  0  0  0  0  0  0  0  0  0  0
   -3.7437    4.6370    0.9675 H   0  0  0  0  0  0  0  0  0  0  0  0
   -2.3480    3.0618    0.5187 C   0  0  0  0  0  0  0  0  0  0  0  0
    3.1046   -0.2117   -0.0453 C   0  0  0  0  0  0  0  0  0  0  0  0
    3.6744   -1.4235    0.4085 C   0  0  0  0  0  0  0  0  0  0  0  0
    3.0033   -2.2246    0.7444 H   0  0  0  0  0  0  0  0  0  0  0  0
    5.0647   -1.5959    0.4724 C   0  0  0  0  0  0  0  0  0  0  0  0
    5.8855   -0.5201    0.0634 C   0  0  0  0  0  0  0  0  0  0  0  0
    6.9752   -0.6469    0.1097 H   0  0  0  0  0  0  0  0  0  0  0  0
    5.3600    0.6986   -0.3986 C   0  0  0  0  0  0  0  0  0  0  0  0
    3.9577    0.8323   -0.4455 C   0  0  0  0  0  0  0  0  0  0  0  0
    3.5110    1.7611   -0.8299 H   0  0  0  0  0  0  0  0  0  0  0  0
    5.7171   -2.8964    0.9761 C   0  0  0  0  0  0  0  0  0  0  0  0
    4.6735   -3.9569    1.3667 C   0  0  0  0  0  0  0  0  0  0  0  0
    5.1853   -4.8758    1.7169 H   0  0  0  0  0  0  0  0  0  0  0  0
    4.0318   -4.2397    0.5078 H   0  0  0  0  0  0  0  0  0  0  0  0
    4.0170   -3.6078    2.1889 H   0  0  0  0  0  0  0  0  0  0  0  0
    6.5817   -2.5818    2.2182 C   0  0  0  0  0  0  0  0  0  0  0  0
    7.3811   -1.8497    1.9883 H   0  0  0  0  0  0  0  0  0  0  0  0
    7.0683   -3.5050    2.5957 H   0  0  0  0  0  0  0  0  0  0  0  0
    5.9621   -2.1595    3.0348 H   0  0  0  0  0  0  0  0  0  0  0  0
    6.6106   -3.4812   -0.1415 C   0  0  0  0  0  0  0  0  0  0  0  0
    7.4126   -2.7772   -0.4398 H   0  0  0  0  0  0  0  0  0  0  0  0
    6.0125   -3.7140   -1.0456 H   0  0  0  0  0  0  0  0  0  0  0  0
    7.0963   -4.4180    0.2020 H   0  0  0  0  0  0  0  0  0  0  0  0
    6.2498    1.8684   -0.8574 C   0  0  0  0  0  0  0  0  0  0  0  0
    7.7481    1.5516   -0.7125 C   0  0  0  0  0  0  0  0  0  0  0  0
    8.3490    2.4209   -1.0470 H   0  0  0  0  0  0  0  0  0  0  0  0
    8.0486    0.6820   -1.3312 H   0  0  0  0  0  0  0  0  0  0  0  0
    8.0254    1.3400    0.3400 H   0  0  0  0  0  0  0  0  0  0  0  0
    5.9306    3.1148   -0.0007 C   0  0  0  0  0  0  0  0  0  0  0  0
    6.5581    3.9733   -0.3175 H   0  0  0  0  0  0  0  0  0  0  0  0
    6.1289    2.9197    1.0726 H   0  0  0  0  0  0  0  0  0  0  0  0
    4.8701    3.4216   -0.0971 H   0  0  0  0  0  0  0  0  0  0  0  0
    5.9565    2.1738   -2.3440 C   0  0  0  0  0  0  0  0  0  0  0  0
    6.5826    3.0197   -2.6962 H   0  0  0  0  0  0  0  0  0  0  0  0
    4.8958    2.4499   -2.5067 H   0  0  0  0  0  0  0  0  0  0  0  0
    6.1770    1.2929   -2.9801 H   0  0  0  0  0  0  0  0  0  0  0  0
  2  4  1  0  0  0  0
  3 28  1  0  0  0  0
  4  5  1  0  0  0  0
  6  4  2  0  0  0  0
  6  7  1  0  0  0  0
  8  6  1  0  0  0  0
  9  8  1  0  0  0  0
 10 12  1  0  0  0  0
 10  8  2  0  0  0  0
 11 10  1  0  0  0  0
 12  2  1  0  0  0  0
 13 21  1  0  0  0  0
 13 12  2  0  0  0  0
 14 13  1  0  0  0  0
 15 14  1  0  0  0  0
 16 18  2  0  0  0  0
 16 14  1  0  0  0  0
 17 16  1  0  0  0  0
 18 20  1  0  0  0  0
 19 18  1  0  0  0  0
 20 21  2  0  0  0  0
 20 22  1  0  0  0  0
 22  3  1  0  0  0  0
 23 22  2  0  0  0  0
 23 25  1  0  0  0  0
 24 23  1  0  0  0  0
 25 39  1  0  0  0  0
 25 26  2  0  0  0  0
 26 27  1  0  0  0  0
 28 26  1  0  0  0  0
 28 29  2  0  0  0  0
 29 38  1  0  0  0  0
 30 29  1  0  0  0  0
 30 32  1  0  0  0  0
 31 30  1  0  0  0  0
 32 34  2  0  0  0  0
 33 32  1  0  0  0  0
 34 36  1  0  0  0  0
 34 35  1  0  0  0  0
 36 37  1  0  0  0  0
 38  1  1  0  0  0  0
 38 36  2  0  0  0  0
 39 40  1  0  0  0  0
 40 42  2  0  0  0  0
 40 41  1  0  0  0  0
 42 48  1  0  0  0  0
 43 44  1  0  0  0  0
 43 42  1  0  0  0  0
 45 43  2  0  0  0  0
 46 45  1  0  0  0  0
 46 39  2  0  0  0  0
 47 46  1  0  0  0  0
 48 49  1  0  0  0  0
 48 53  1  0  0  0  0
 49 50  1  0  0  0  0
 49 52  1  0  0  0  0
 51 49  1  0  0  0  0
 53 55  1  0  0  0  0
 53 56  1  0  0  0  0
 54 53  1  0  0  0  0
 57 60  1  0  0  0  0
 57 48  1  0  0  0  0
 58 57  1  0  0  0  0
 59 57  1  0  0  0  0
 61 62  1  0  0  0  0
 61 45  1  0  0  0  0
 61 66  1  0  0  0  0
 62 65  1  0  0  0  0
 63 62  1  0  0  0  0
 64 62  1  0  0  0  0
 66 68  1  0  0  0  0
 67 66  1  0  0  0  0
 69 66  1  0  0  0  0
 70 61  1  0  0  0  0
 71 70  1  0  0  0  0
 72 70  1  0  0  0  0
 73 70  1  0  0  0  0
M  CHG  1   1  -1
M  END
