1,5,6,37
 OpenBabel05122313063D

 43 43  0  0  0  0  0  0  0  0999 V2000
    0.4137   -0.5955    1.4778 O   0  5  0  0  0  0  0  0  0  0  0  0
   -0.4146   -2.1108    2.9030 O   0  0  0  0  0  0  0  0  0  0  0  0
    1.0895   -1.1687   -1.0820 N   0  0  0  0  0  0  0  0  0  0  0  0
   -1.6052   -0.9081   -0.3140 N   0  0  0  0  0  0  0  0  0  0  0  0
   -0.7842    1.8748   -0.0782 N   0  0  0  0  0  2  0  0  0  0  0  0
    1.6730    1.3955    0.1137 N   0  0  0  0  0  2  0  0  0  0  0  0
    0.2512   -2.3875   -1.0214 C   0  0  0  0  0  0  0  0  0  0  0  0
    0.4495   -2.8650   -0.0418 H   0  0  0  0  0  0  0  0  0  0  0  0
    0.5747   -3.1044   -1.8067 H   0  0  0  0  0  0  0  0  0  0  0  0
   -1.2168   -2.0475   -1.1890 C   0  0  0  0  0  0  0  0  0  0  0  0
   -1.8373   -2.9433   -0.9718 H   0  0  0  0  0  0  0  0  0  0  0  0
   -1.4339   -1.7638   -2.2364 H   0  0  0  0  0  0  0  0  0  0  0  0
   -2.8271   -0.2597   -0.8643 C   0  0  0  0  0  0  0  0  0  0  0  0
   -3.6841   -0.9620   -0.7562 H   0  0  0  0  0  0  0  0  0  0  0  0
   -2.6619   -0.1165   -1.9519 H   0  0  0  0  0  0  0  0  0  0  0  0
   -3.1585    1.0790   -0.2272 C   0  0  0  0  0  0  0  0  0  0  0  0
   -3.3008    0.9835    0.8694 H   0  0  0  0  0  0  0  0  0  0  0  0
   -4.1377    1.4109   -0.6272 H   0  0  0  0  0  0  0  0  0  0  0  0
   -2.1320    2.1705   -0.5181 C   0  0  0  0  0  0  0  0  0  0  0  0
   -2.1000    2.3630   -1.6198 H   0  0  0  0  0  0  0  0  0  0  0  0
   -2.4708    3.1216   -0.0529 H   0  0  0  0  0  0  0  0  0  0  0  0
    0.0033    3.0314    0.3194 C   0  0  0  0  0  0  0  0  0  0  0  0
   -0.5772    3.7092    0.9824 H   0  0  0  0  0  0  0  0  0  0  0  0
    0.2474    3.6113   -0.6077 H   0  0  0  0  0  0  0  0  0  0  0  0
    1.2577    2.4859    0.9689 C   0  0  0  0  0  0  0  0  0  0  0  0
    2.0555    3.2594    1.0388 H   0  0  0  0  0  0  0  0  0  0  0  0
    1.0406    2.1456    2.0150 H   0  0  0  0  0  0  0  0  0  0  0  0
    2.8730    0.7230    0.5483 C   0  0  0  0  0  0  0  0  0  0  0  0
    2.7254    0.1887    1.5214 H   0  0  0  0  0  0  0  0  0  0  0  0
    3.6475    1.5031    0.7320 H   0  0  0  0  0  0  0  0  0  0  0  0
    3.3934   -0.2444   -0.5130 C   0  0  0  0  0  0  0  0  0  0  0  0
    3.5599    0.2950   -1.4690 H   0  0  0  0  0  0  0  0  0  0  0  0
    4.3842   -0.6353   -0.2051 H   0  0  0  0  0  0  0  0  0  0  0  0
    2.4979   -1.4559   -0.7032 C   0  0  0  0  0  0  0  0  0  0  0  0
    2.9094   -2.1406   -1.4771 H   0  0  0  0  0  0  0  0  0  0  0  0
    2.4323   -2.0201    0.2487 H   0  0  0  0  0  0  0  0  0  0  0  0
    0.7187   -0.1195   -1.9339 C   0  0  0  0  0  3  0  0  0  0  0  0
    1.5272    0.5473   -2.2614 H   0  0  0  0  0  0  0  0  0  0  0  0
   -0.0800   -0.3151   -2.6668 H   0  0  0  0  0  0  0  0  0  0  0  0
   -1.8195   -1.3676    1.0856 C   0  0  0  0  0  0  0  0  0  0  0  0
   -2.3275   -2.3543    1.1154 H   0  0  0  0  0  0  0  0  0  0  0  0
   -2.4792   -0.6432    1.6019 H   0  0  0  0  0  0  0  0  0  0  0  0
   -0.5276   -1.4163    1.9099 C   0  0  0  0  0  0  0  0  0  0  0  0
  1 43  1  0  0  0  0
  3  7  1  0  0  0  0
  3 34  1  0  0  0  0
  4 40  1  0  0  0  0
  5 22  1  0  0  0  0
  6 28  1  0  0  0  0
  6 25  1  0  0  0  0
  7  8  1  0  0  0  0
  9  7  1  0  0  0  0
 10  7  1  0  0  0  0
 10 11  1  0  0  0  0
 10  4  1  0  0  0  0
 12 10  1  0  0  0  0
 13 14  1  0  0  0  0
 13  4  1  0  0  0  0
 13 16  1  0  0  0  0
 15 13  1  0  0  0  0
 16 17  1  0  0  0  0
 18 16  1  0  0  0  0
 19 16  1  0  0  0  0
 19  5  1  0  0  0  0
 19 21  1  0  0  0  0
 20 19  1  0  0  0  0
 22 25  1  0  0  0  0
 22 23  1  0  0  0  0
 24 22  1  0  0  0  0
 25 26  1  0  0  0  0
 25 27  1  0  0  0  0
 28 30  1  0  0  0  0
 28 29  1  0  0  0  0
 31 33  1  0  0  0  0
 31 28  1  0  0  0  0
 32 31  1  0  0  0  0
 34 31  1  0  0  0  0
 34 36  1  0  0  0  0
 35 34  1  0  0  0  0
 37  3  1  0  0  0  0
 38 37  1  0  0  0  0
 39 37  1  0  0  0  0
 40 41  1  0  0  0  0
 40 42  1  0  0  0  0
 40 43  1  0  0  0  0
 43  2  2  0  0  0  0
M  CHG  1   1  -1
M  END
