1,2,3,21
 OpenBabel05122313063D

 64 68  0  0  1  0  0  0  0  0999 V2000
    0.0657    0.7851    0.0006 N   0  0  0  0  0  2  0  0  0  0  0  0
   -3.4844   -1.0399   -0.0013 N   0  0  0  0  0  2  0  0  0  0  0  0
   -0.4627   -2.2320   -0.0023 O   0  0  0  0  0  1  0  0  0  0  0  0
    0.8467   -2.2570   -0.0022 C   0  0  1  0  0  3  0  0  0  0  0  0
    1.5583   -3.5006   -0.0033 C   0  0  0  0  0  0  0  0  0  0  0  0
    0.9601   -4.4239   -0.0042 H   0  0  0  0  0  0  0  0  0  0  0  0
    2.9533   -3.5495   -0.0032 C   0  0  0  0  0  0  0  0  0  0  0  0
    3.4468   -4.5346   -0.0041 H   0  0  0  0  0  0  0  0  0  0  0  0
    3.7583   -2.3794   -0.0021 C   0  0  0  0  0  0  0  0  0  0  0  0
    4.8558   -2.4551   -0.0021 H   0  0  0  0  0  0  0  0  0  0  0  0
    3.1089   -1.1496   -0.0010 C   0  0  0  0  0  0  0  0  0  0  0  0
    1.6879   -1.0904   -0.0011 C   0  0  0  0  0  0  0  0  0  0  0  0
    1.3169    0.2988    0.0002 C   0  0  0  0  0  0  0  0  0  0  0  0
    2.4581    1.1400    0.0011 C   0  0  0  0  0  0  0  0  0  0  0  0
    2.2583    2.5176    0.0024 C   0  0  0  0  0  0  0  0  0  0  0  0
    3.1084    3.2174    0.0031 H   0  0  0  0  0  0  0  0  0  0  0  0
    0.9318    3.0244    0.0028 C   0  0  0  0  0  0  0  0  0  0  0  0
    0.7544    4.1090    0.0037 H   0  0  0  0  0  0  0  0  0  0  0  0
   -0.1672    2.1567    0.0019 C   0  0  0  0  0  0  0  0  0  0  0  0
   -1.6059    2.4751    0.0021 C   0  0  0  0  0  0  0  0  0  0  0  0
   -2.4147    1.3062    0.0010 C   0  0  0  0  0  2  0  0  0  0  0  0
   -3.8274    1.3407    0.0010 C   0  0  0  0  0  0  0  0  0  0  0  0
   -4.4604    2.6022    0.0021 C   0  0  0  0  0  0  0  0  0  0  0  0
   -5.5584    2.6915    0.0021 H   0  0  0  0  0  0  0  0  0  0  0  0
   -3.6727    3.7696    0.0033 C   0  0  0  0  0  0  0  0  0  0  0  0
   -4.1716    4.7500    0.0042 H   0  0  0  0  0  0  0  0  0  0  0  0
   -2.2613    3.7208    0.0033 C   0  0  0  0  0  0  0  0  0  0  0  0
   -1.6890    4.6621    0.0042 H   0  0  0  0  0  0  0  0  0  0  0  0
   -4.4151   -0.0050   -0.0003 C   0  0  0  0  0  0  0  0  0  0  0  0
   -5.7869   -0.3147   -0.0007 C   0  0  0  0  0  0  0  0  0  0  0  0
   -6.5174    0.5064    0.0000 H   0  0  0  0  0  0  0  0  0  0  0  0
   -6.2084   -1.6485   -0.0020 C   0  0  0  0  0  0  0  0  0  0  0  0
   -7.2820   -1.8890   -0.0023 H   0  0  0  0  0  0  0  0  0  0  0  0
   -5.2476   -2.6743   -0.0029 C   0  0  0  0  0  0  0  0  0  0  0  0
   -5.5369   -3.7342   -0.0040 H   0  0  0  0  0  0  0  0  0  0  0  0
   -3.8943   -2.3259   -0.0025 C   0  0  0  0  0  0  0  0  0  0  0  0
   -3.0854   -3.0735   -0.0032 H   0  0  0  0  0  0  0  0  0  0  0  0
    3.7117    0.2668    0.0006 C   0  0  0  0  0  0  0  0  0  0  0  0
    4.5728    0.5184   -1.2653 C   0  0  0  0  0  0  0  0  0  0  0  0
    4.9681    1.5581   -1.2164 H   0  0  0  0  0  0  0  0  0  0  0  0
    5.4619   -0.1477   -1.2087 H   0  0  0  0  0  0  0  0  0  0  0  0
    3.8536    0.2999   -2.5969 C   0  0  0  0  0  0  0  0  0  0  0  0
    3.4615   -0.7397   -2.6351 H   0  0  0  0  0  0  0  0  0  0  0  0
    2.9610    0.9618   -2.6517 H   0  0  0  0  0  0  0  0  0  0  0  0
    4.7460    0.5536   -3.8153 C   0  0  0  0  0  0  0  0  0  0  0  0
    5.1425    1.5930   -3.7708 H   0  0  0  0  0  0  0  0  0  0  0  0
    5.6391   -0.1083   -3.7581 H   0  0  0  0  0  0  0  0  0  0  0  0
    4.0270    0.3333   -5.1467 C   0  0  0  0  0  0  0  0  0  0  0  0
    3.6510   -0.7075   -5.2323 H   0  0  0  0  0  0  0  0  0  0  0  0
    4.6940    0.5215   -6.0122 H   0  0  0  0  0  0  0  0  0  0  0  0
    3.1500    1.0067   -5.2462 H   0  0  0  0  0  0  0  0  0  0  0  0
    4.5717    0.5158    1.2677 C   0  0  0  0  0  0  0  0  0  0  0  0
    5.4610   -0.1501    1.2103 H   0  0  0  0  0  0  0  0  0  0  0  0
    4.9669    1.5556    1.2214 H   0  0  0  0  0  0  0  0  0  0  0  0
    3.8515    0.2942    2.5983 C   0  0  0  0  0  0  0  0  0  0  0  0
    2.9587    0.9558    2.6539 H   0  0  0  0  0  0  0  0  0  0  0  0
    3.4597   -0.7455    2.6340 H   0  0  0  0  0  0  0  0  0  0  0  0
    4.7429    0.5456    3.8180 C   0  0  0  0  0  0  0  0  0  0  0  0
    5.6363   -0.1159    3.7601 H   0  0  0  0  0  0  0  0  0  0  0  0
    5.1392    1.5852    3.7760 H   0  0  0  0  0  0  0  0  0  0  0  0
    4.0230    0.3224    5.1483 C   0  0  0  0  0  0  0  0  0  0  0  0
    3.1458    0.9954    5.2486 H   0  0  0  0  0  0  0  0  0  0  0  0
    4.6892    0.5088    6.0147 H   0  0  0  0  0  0  0  0  0  0  0  0
    3.6471   -0.7187    5.2314 H   0  0  0  0  0  0  0  0  0  0  0  0
  1 19  1  0  0  0  0
  2 29  1  0  0  0  0
  4  3  1  6  0  0  0
  4 12  1  0  0  0  0
  5  7  2  0  0  0  0
  5  4  1  0  0  0  0
  6  5  1  0  0  0  0
  7  9  1  0  0  0  0
  8  7  1  0  0  0  0
  9 11  2  0  0  0  0
 10  9  1  0  0  0  0
 11 38  1  0  0  0  0
 12 11  1  0  0  0  0
 12 13  2  0  0  0  0
 13  1  1  0  0  0  0
 13 14  1  0  0  0  0
 14 15  2  0  0  0  0
 15 17  1  0  0  0  0
 15 16  1  0  0  0  0
 17 18  1  0  0  0  0
 19 20  1  0  0  0  0
 19 17  2  0  0  0  0
 20 27  2  0  0  0  0
 21 20  1  0  0  0  0
 22 21  1  0  0  0  0
 22 23  1  0  0  0  0
 23 24  1  0  0  0  0
 23 25  2  0  0  0  0
 25 27  1  0  0  0  0
 25 26  1  0  0  0  0
 27 28  1  0  0  0  0
 29 22  2  0  0  0  0
 30 29  1  0  0  0  0
 30 31  1  0  0  0  0
 32 30  2  0  0  0  0
 33 32  1  0  0  0  0
 34 36  2  0  0  0  0
 34 32  1  0  0  0  0
 35 34  1  0  0  0  0
 36  2  1  0  0  0  0
 37 36  1  0  0  0  0
 38 14  1  0  0  0  0
 38 52  1  0  0  0  0
 39 40  1  0  0  0  0
 39 41  1  0  0  0  0
 39 38  1  0  0  0  0
 42 39  1  0  0  0  0
 43 42  1  0  0  0  0
 44 42  1  0  0  0  0
 45 46  1  0  0  0  0
 45 47  1  0  0  0  0
 45 42  1  0  0  0  0
 48 45  1  0  0  0  0
 49 48  1  0  0  0  0
 50 48  1  0  0  0  0
 51 48  1  0  0  0  0
 52 55  1  0  0  0  0
 53 52  1  0  0  0  0
 54 52  1  0  0  0  0
 55 57  1  0  0  0  0
 55 56  1  0  0  0  0
 55 58  1  0  0  0  0
 58 61  1  0  0  0  0
 59 58  1  0  0  0  0
 60 58  1  0  0  0  0
 61 64  1  0  0  0  0
 61 62  1  0  0  0  0
 61 63  1  0  0  0  0
M  END
