1,3,11,23
 OpenBabel05122313063D

 42 45  0  0  1  0  0  0  0  0999 V2000
    1.3091    0.8312    0.1208 O   0  0  0  0  0  1  0  0  0  0  0  0
    4.6081   -2.4257    0.2962 O   0  0  0  0  0  0  0  0  0  0  0  0
   -1.8941    1.3849    0.1681 N   0  0  0  0  0  2  0  0  0  0  0  0
    1.7273   -2.1143    0.5664 C   0  0  0  0  0  0  0  0  0  0  0  0
    1.4931   -2.0977    1.6548 H   0  0  0  0  0  0  0  0  0  0  0  0
    2.2755   -3.0641    0.3734 H   0  0  0  0  0  0  0  0  0  0  0  0
   -3.1677    0.8891    0.0218 C   0  0  0  0  0  0  0  0  0  0  0  0
   -3.3167   -0.5396   -0.1362 C   0  0  0  0  0  0  0  0  0  0  0  0
    4.7454    0.0057   -0.0272 C   0  0  0  0  0  0  0  0  0  0  0  0
   -4.3123    1.7572    0.0265 C   0  0  0  0  0  0  0  0  0  0  0  0
   -2.1349   -1.2644   -0.1085 N   0  0  0  0  0  2  0  0  0  0  0  0
   -5.7358   -0.1866   -0.2770 C   0  0  0  0  0  0  0  0  0  0  0  0
   -6.7378   -0.6270   -0.3970 H   0  0  0  0  0  0  0  0  0  0  0  0
   -1.6988    2.6944    0.3140 C   0  0  0  0  0  0  0  0  0  0  0  0
   -0.6518    3.0207    0.4240 H   0  0  0  0  0  0  0  0  0  0  0  0
    3.7286    0.9808   -0.0610 C   0  0  0  0  0  0  0  0  0  0  0  0
    4.1052   -1.3225    0.1937 C   0  0  0  0  0  0  0  0  0  0  0  0
   -5.6080    1.1906   -0.1269 C   0  0  0  0  0  3  0  0  0  0  0  0
   -6.4884    1.8502   -0.1269 H   0  0  0  0  0  0  0  0  0  0  0  0
    6.0881    0.3491   -0.1881 C   0  0  0  0  0  0  0  0  0  0  0  0
    6.8712   -0.4228   -0.1618 H   0  0  0  0  0  0  0  0  0  0  0  0
    2.4353    0.2884    0.1227 C   0  0  2  0  0  3  0  0  0  0  0  0
    0.4507   -1.9991   -0.2514 C   0  0  0  0  0  3  0  0  0  0  0  0
    0.7017   -2.0201   -1.3364 H   0  0  0  0  0  0  0  0  0  0  0  0
   -0.5743   -3.0932    0.0751 C   0  0  0  0  0  0  0  0  0  0  0  0
   -0.5226   -3.3519    1.1578 H   0  0  0  0  0  0  0  0  0  0  0  0
   -0.3991   -4.0442   -0.4716 H   0  0  0  0  0  0  0  0  0  0  0  0
   -2.9564   -3.4320   -0.3342 O   0  0  0  0  0  0  0  0  0  0  0  0
   -4.6181   -1.0537   -0.2851 C   0  0  0  0  0  0  0  0  0  0  0  0
   -4.7340   -2.1370   -0.4055 H   0  0  0  0  0  0  0  0  0  0  0  0
    4.0217    2.3325   -0.2605 C   0  0  0  0  0  0  0  0  0  0  0  0
    3.2212    3.0858   -0.2909 H   0  0  0  0  0  0  0  0  0  0  0  0
    2.7018   -1.0608    0.2755 N   0  0  0  0  0  0  0  0  0  0  0  0
    5.3753    2.6852   -0.4191 C   0  0  0  0  0  0  0  0  0  0  0  0
    5.6456    3.7404   -0.5748 H   0  0  0  0  0  0  0  0  0  0  0  0
   -4.0677    3.1510    0.1856 C   0  0  0  0  0  0  0  0  0  0  0  0
   -4.9223    3.8457    0.1929 H   0  0  0  0  0  0  0  0  0  0  0  0
   -2.0222   -2.6509   -0.1672 C   0  0  0  0  0  0  0  0  0  0  0  0
    6.3925    1.7103   -0.3836 C   0  0  0  0  0  0  0  0  0  0  0  0
    7.4405    2.0200   -0.5122 H   0  0  0  0  0  0  0  0  0  0  0  0
   -2.7697    3.6208    0.3278 C   0  0  0  0  0  0  0  0  0  0  0  0
   -2.5593    4.6928    0.4511 H   0  0  0  0  0  0  0  0  0  0  0  0
  3 14  1  0  0  0  0
  4  5  1  0  0  0  0
  6  4  1  0  0  0  0
  7 10  1  0  0  0  0
  7  3  1  0  0  0  0
  8 11  1  0  0  0  0
  8  7  2  0  0  0  0
  9 17  1  0  0  0  0
 10 36  2  0  0  0  0
 12 18  1  0  0  0  0
 13 12  1  0  0  0  0
 14 41  2  0  0  0  0
 14 15  1  0  0  0  0
 16  9  1  0  0  0  0
 16 22  1  0  0  0  0
 17 33  1  0  0  0  0
 17  2  2  0  0  0  0
 18 19  1  0  0  0  0
 18 10  1  0  0  0  0
 20 21  1  0  0  0  0
 20  9  2  0  0  0  0
 22  1  1  6  0  0  0
 22 33  1  0  0  0  0
 23 25  1  0  0  0  0
 23  4  1  0  0  0  0
 24 23  1  0  0  0  0
 25 26  1  0  0  0  0
 27 25  1  0  0  0  0
 28 38  2  0  0  0  0
 29 12  2  0  0  0  0
 29  8  1  0  0  0  0
 30 29  1  0  0  0  0
 31 16  2  0  0  0  0
 32 31  1  0  0  0  0
 33  4  1  0  0  0  0
 34 39  2  0  0  0  0
 34 31  1  0  0  0  0
 35 34  1  0  0  0  0
 36 37  1  0  0  0  0
 36 41  1  0  0  0  0
 38 11  1  0  0  0  0
 38 25  1  0  0  0  0
 39 20  1  0  0  0  0
 40 39  1  0  0  0  0
 41 42  1  0  0  0  0
M  END
