1,4
q = -1.0, confidence = 0.0

 46 46  0  0  0  0  0  0  0  0999 V2000
    0.8168    0.8390    0.0086 P   0  0  0  0  0  0  0  0  0  0  0  0
    2.1403   -0.4290   -0.0084 C   0  0  0  0  0  0  0  0  0  0  0  0
    1.6239   -1.7448    0.0052 C   0  0  0  0  0  0  0  0  0  0  0  0
    0.1138   -1.9964    0.0204 C   0  0  0  0  0  3  0  0  0  0  0  0
   -0.3022   -2.7977   -1.2275 C   0  0  0  0  0  0  0  0  0  0  0  0
    0.0163   -2.2946   -2.1616 H   0  0  0  0  0  0  0  0  0  0  0  0
   -1.4031   -2.9262   -1.2564 H   0  0  0  0  0  0  0  0  0  0  0  0
    0.1520   -3.8152   -1.2206 H   0  0  0  0  0  0  0  0  0  0  0  0
   -0.2870   -2.7546    1.2994 C   0  0  0  0  0  0  0  0  0  0  0  0
    0.1872   -3.7626    1.3321 H   0  0  0  0  0  0  0  0  0  0  0  0
   -1.3851   -2.9039    1.3342 H   0  0  0  0  0  0  0  0  0  0  0  0
    0.0208   -2.2087    2.2126 H   0  0  0  0  0  0  0  0  0  0  0  0
    3.5316   -0.1971   -0.0531 C   0  0  0  0  0  0  0  0  0  0  0  0
    3.9248    0.8288   -0.0769 H   0  0  0  0  0  0  0  0  0  0  0  0
    4.4238   -1.2765   -0.0732 C   0  0  0  0  0  0  0  0  0  0  0  0
    5.5086   -1.0949   -0.1102 H   0  0  0  0  0  0  0  0  0  0  0  0
    3.9233   -2.5895   -0.0454 C   0  0  0  0  0  0  0  0  0  0  0  0
    4.6187   -3.4430   -0.0578 H   0  0  0  0  0  0  0  0  0  0  0  0
    2.5419   -2.8182   -0.0076 C   0  0  0  0  0  0  0  0  0  0  0  0
    2.1662   -3.8528    0.0067 H   0  0  0  0  0  0  0  0  0  0  0  0
    1.0256    1.8379    1.6195 C   0  0  0  0  0  0  0  0  0  0  0  0
    0.6962    0.8393    2.7471 C   0  0  0  0  0  0  0  0  0  0  0  0
    0.7952    1.3526    3.7271 H   0  0  0  0  0  0  0  0  0  0  0  0
    1.3893   -0.0261    2.7424 H   0  0  0  0  0  0  0  0  0  0  0  0
   -0.3378    0.4524    2.6475 H   0  0  0  0  0  0  0  0  0  0  0  0
    2.4416    2.3897    1.8453 C   0  0  0  0  0  0  0  0  0  0  0  0
    2.7691    3.0849    1.0506 H   0  0  0  0  0  0  0  0  0  0  0  0
    3.1885    1.5776    1.9354 H   0  0  0  0  0  0  0  0  0  0  0  0
    2.4536    2.9533    2.8027 H   0  0  0  0  0  0  0  0  0  0  0  0
   -0.0123    2.9736    1.6244 C   0  0  0  0  0  0  0  0  0  0  0  0
   -0.0502    3.4258    2.6382 H   0  0  0  0  0  0  0  0  0  0  0  0
   -1.0271    2.6015    1.3762 H   0  0  0  0  0  0  0  0  0  0  0  0
    0.2510    3.7815    0.9137 H   0  0  0  0  0  0  0  0  0  0  0  0
    1.0045    1.8824   -1.5798 C   0  0  0  0  0  0  0  0  0  0  0  0
    1.1767    0.8513   -2.7125 C   0  0  0  0  0  0  0  0  0  0  0  0
    0.3406    0.1224   -2.7122 H   0  0  0  0  0  0  0  0  0  0  0  0
    2.1275    0.2898   -2.6275 H   0  0  0  0  0  0  0  0  0  0  0  0
    1.1731    1.3818   -3.6879 H   0  0  0  0  0  0  0  0  0  0  0  0
   -0.3085    2.6558   -1.8093 C   0  0  0  0  0  0  0  0  0  0  0  0
   -0.2677    3.1415   -2.8074 H   0  0  0  0  0  0  0  0  0  0  0  0
   -0.4687    3.4507   -1.0571 H   0  0  0  0  0  0  0  0  0  0  0  0
   -1.1884    1.9830   -1.7799 H   0  0  0  0  0  0  0  0  0  0  0  0
    2.1938    2.8528   -1.5685 C   0  0  0  0  0  0  0  0  0  0  0  0
    3.1590    2.3415   -1.3860 H   0  0  0  0  0  0  0  0  0  0  0  0
    2.0709    3.6579   -0.8184 H   0  0  0  0  0  0  0  0  0  0  0  0
    2.2664    3.3422   -2.5633 H   0  0  0  0  0  0  0  0  0  0  0  0
  1 21  1  0  0  0  0
  2  3  1  0  0  0  0
  2  1  1  0  0  0  0
  3  4  1  0  0  0  0
  4  9  1  0  0  0  0
  5  8  1  0  0  0  0
  5  4  1  0  0  0  0
  6  5  1  0  0  0  0
  7  5  1  0  0  0  0
  9 10  1  0  0  0  0
  9 11  1  0  0  0  0
  9 12  1  0  0  0  0
 13  2  2  0  0  0  0
 14 13  1  0  0  0  0
 15 13  1  0  0  0  0
 15 17  2  0  0  0  0
 16 15  1  0  0  0  0
 17 19  1  0  0  0  0
 18 17  1  0  0  0  0
 19  3  2  0  0  0  0
 19 20  1  0  0  0  0
 21 30  1  0  0  0  0
 21 26  1  0  0  0  0
 21 22  1  0  0  0  0
 22 23  1  0  0  0  0
 24 22  1  0  0  0  0
 25 22  1  0  0  0  0
 26 28  1  0  0  0  0
 26 29  1  0  0  0  0
 27 26  1  0  0  0  0
 30 31  1  0  0  0  0
 32 30  1  0  0  0  0
 33 30  1  0  0  0  0
 34 43  1  0  0  0  0
 34  1  1  0  0  0  0
 35 36  1  0  0  0  0
 35 37  1  0  0  0  0
 35 34  1  0  0  0  0
 38 35  1  0  0  0  0
 39 42  1  0  0  0  0
 39 34  1  0  0  0  0
 39 41  1  0  0  0  0
 40 39  1  0  0  0  0
 43 44  1  0  0  0  0
 43 45  1  0  0  0  0
 46 43  1  0  0  0  0
M  END
