1,11
q = -1.0, confidence = 0.0

 33 35  0  0  0  0  0  0  0  0999 V2000
   -2.4950   -0.0248    0.1943 P   0  0  0  0  0  0  0  0  0  0  0  0
   -1.9826    0.7771    1.7481 C   0  0  0  0  0  0  0  0  0  0  0  0
   -2.6388    1.2367    2.8980 C   0  0  0  0  0  0  0  0  0  0  0  0
   -3.7288    1.1325    3.0155 H   0  0  0  0  0  0  0  0  0  0  0  0
   -1.8607    1.8439    3.8981 C   0  0  0  0  0  0  0  0  0  0  0  0
   -2.3365    2.2172    4.8176 H   0  0  0  0  0  0  0  0  0  0  0  0
   -0.4709    1.9754    3.7208 C   0  0  0  0  0  0  0  0  0  0  0  0
    0.1302    2.4520    4.5116 H   0  0  0  0  0  0  0  0  0  0  0  0
    0.1735    1.5102    2.5583 C   0  0  0  0  0  0  0  0  0  0  0  0
    1.2647    1.6227    2.4718 H   0  0  0  0  0  0  0  0  0  0  0  0
   -0.5789    0.8960    1.5383 C   0  0  0  0  0  3  0  0  0  0  0  0
   -3.3284   -1.6272    0.4391 C   0  0  0  0  0  0  0  0  0  0  0  0
   -4.4874   -1.7148    1.2392 C   0  0  0  0  0  0  0  0  0  0  0  0
   -4.9029   -0.8124    1.7138 H   0  0  0  0  0  0  0  0  0  0  0  0
   -5.1102   -2.9559    1.4275 C   0  0  0  0  0  0  0  0  0  0  0  0
   -6.0089   -3.0277    2.0588 H   0  0  0  0  0  0  0  0  0  0  0  0
   -4.5874   -4.1051    0.8091 C   0  0  0  0  0  0  0  0  0  0  0  0
   -5.0803   -5.0783    0.9566 H   0  0  0  0  0  0  0  0  0  0  0  0
   -3.4433   -4.0126    0.0015 C   0  0  0  0  0  0  0  0  0  0  0  0
   -3.0397   -4.9108   -0.4901 H   0  0  0  0  0  0  0  0  0  0  0  0
   -2.8044   -2.7762   -0.1864 C   0  0  0  0  0  0  0  0  0  0  0  0
   -1.9143   -2.6826   -0.8332 H   0  0  0  0  0  0  0  0  0  0  0  0
   -3.7022    1.0389   -0.6689 C   0  0  0  0  0  0  0  0  0  0  0  0
   -4.6071    0.4845   -1.5967 C   0  0  0  0  0  0  0  0  0  0  0  0
   -4.6334   -0.6043   -1.7547 H   0  0  0  0  0  0  0  0  0  0  0  0
   -5.4704    1.3234   -2.3164 C   0  0  0  0  0  0  0  0  0  0  0  0
   -6.1759    0.8868   -3.0395 H   0  0  0  0  0  0  0  0  0  0  0  0
   -5.4340    2.7129   -2.1184 C   0  0  0  0  0  0  0  0  0  0  0  0
   -6.1131    3.3680   -2.6848 H   0  0  0  0  0  0  0  0  0  0  0  0
   -4.5277    3.2666   -1.1989 C   0  0  0  0  0  0  0  0  0  0  0  0
   -4.4952    4.3555   -1.0425 H   0  0  0  0  0  0  0  0  0  0  0  0
   -3.6600    2.4356   -0.4771 C   0  0  0  0  0  0  0  0  0  0  0  0
   -2.9469    2.8671    0.2426 H   0  0  0  0  0  0  0  0  0  0  0  0
  1 12  1  0  0  0  0
  1  2  1  0  0  0  0
  2  3  1  0  0  0  0
  3  4  1  0  0  0  0
  3  5  2  0  0  0  0
  5  6  1  0  0  0  0
  7  5  1  0  0  0  0
  7  8  1  0  0  0  0
  9  7  2  0  0  0  0
 10  9  1  0  0  0  0
 11  2  2  0  0  0  0
 11  9  1  0  0  0  0
 12 13  1  0  0  0  0
 13 15  2  0  0  0  0
 13 14  1  0  0  0  0
 15 16  1  0  0  0  0
 17 18  1  0  0  0  0
 17 15  1  0  0  0  0
 19 17  2  0  0  0  0
 20 19  1  0  0  0  0
 21 19  1  0  0  0  0
 21 12  2  0  0  0  0
 22 21  1  0  0  0  0
 23 32  1  0  0  0  0
 23  1  1  0  0  0  0
 24 23  2  0  0  0  0
 25 24  1  0  0  0  0
 26 28  2  0  0  0  0
 26 24  1  0  0  0  0
 27 26  1  0  0  0  0
 28 30  1  0  0  0  0
 29 28  1  0  0  0  0
 30 31  1  0  0  0  0
 30 32  2  0  0  0  0
 32 33  1  0  0  0  0
M  END
