1,31
q = 0.0, confidence = 0.998

 48 49  0  0  0  0  0  0  0  0999 V2000
   -1.7716    0.8169    0.4047 P   0  0  0  0  0  0  0  0  0  0  0  0
    0.6310   -3.4768   -1.2718 C   0  0  0  0  0  0  0  0  0  0  0  0
    1.0345   -4.4531   -0.9639 H   0  0  0  0  0  0  0  0  0  0  0  0
   -1.2249    3.5428    0.3001 C   0  0  0  0  0  0  0  0  0  0  0  0
   -0.1779    3.1788    0.2583 H   0  0  0  0  0  0  0  0  0  0  0  0
   -1.2793    4.5015   -0.2571 H   0  0  0  0  0  0  0  0  0  0  0  0
   -1.4726    3.7637    1.3565 H   0  0  0  0  0  0  0  0  0  0  0  0
   -3.0424   -0.3606   -0.2363 C   0  0  0  0  0  0  0  0  0  0  0  0
   -1.9089    2.3973   -1.8307 C   0  0  0  0  0  0  0  0  0  0  0  0
   -0.8640    2.0729   -2.0072 H   0  0  0  0  0  0  0  0  0  0  0  0
   -2.5842    1.6654   -2.3184 H   0  0  0  0  0  0  0  0  0  0  0  0
   -2.0583    3.3779   -2.3289 H   0  0  0  0  0  0  0  0  0  0  0  0
   -2.6331   -1.5415   -0.9237 C   0  0  0  0  0  0  0  0  0  0  0  0
   -3.6149   -2.4867   -1.2998 C   0  0  0  0  0  0  0  0  0  0  0  0
   -3.2972   -3.3898   -1.8420 H   0  0  0  0  0  0  0  0  0  0  0  0
   -2.2029    2.5310   -0.3245 C   0  0  0  0  0  0  0  0  0  0  0  0
   -4.4155   -0.1826    0.0469 C   0  0  0  0  0  0  0  0  0  0  0  0
   -4.7465    0.7048    0.6004 H   0  0  0  0  0  0  0  0  0  0  0  0
   -1.2169   -1.8640   -1.2639 C   0  0  0  0  0  0  0  0  0  0  0  0
   -5.3749   -1.1262   -0.3422 C   0  0  0  0  0  0  0  0  0  0  0  0
   -6.4364   -0.9569   -0.1082 H   0  0  0  0  0  0  0  0  0  0  0  0
   -0.6065    1.2828    2.8914 C   0  0  0  0  0  0  0  0  0  0  0  0
    0.2648    0.7439    2.4675 H   0  0  0  0  0  0  0  0  0  0  0  0
   -0.4668    2.3630    2.6980 H   0  0  0  0  0  0  0  0  0  0  0  0
   -0.6021    1.1380    3.9921 H   0  0  0  0  0  0  0  0  0  0  0  0
   -1.9308    0.7459    2.3131 C   0  0  0  0  0  0  0  0  0  0  0  0
   -2.0459   -0.7541    2.6457 C   0  0  0  0  0  0  0  0  0  0  0  0
   -1.2524   -1.3381    2.1361 H   0  0  0  0  0  0  0  0  0  0  0  0
   -1.9263   -0.8984    3.7396 H   0  0  0  0  0  0  0  0  0  0  0  0
   -3.0238   -1.1764    2.3460 H   0  0  0  0  0  0  0  0  0  0  0  0
   -0.4306   -0.9983   -2.0799 C   0  0  0  0  0  3  0  0  0  0  0  0
   -0.9043   -0.1209   -2.5434 H   0  0  0  0  0  0  0  0  0  0  0  0
   -4.9713   -2.2848   -1.0207 C   0  0  0  0  0  0  0  0  0  0  0  0
   -5.7134   -3.0338   -1.3347 H   0  0  0  0  0  0  0  0  0  0  0  0
   -3.6499    3.0162   -0.1531 C   0  0  0  0  0  0  0  0  0  0  0  0
   -4.3664    2.3816   -0.7075 H   0  0  0  0  0  0  0  0  0  0  0  0
   -3.9668    3.0719    0.9040 H   0  0  0  0  0  0  0  0  0  0  0  0
   -3.7321    4.0402   -0.5749 H   0  0  0  0  0  0  0  0  0  0  0  0
    0.8749   -1.3796   -2.4660 C   0  0  0  0  0  3  0  0  0  0  0  0
    1.4565   -0.7158   -3.1230 H   0  0  0  0  0  0  0  0  0  0  0  0
   -3.1124    1.5110    2.9224 C   0  0  0  0  0  0  0  0  0  0  0  0
   -3.0329    2.6035    2.7626 H   0  0  0  0  0  0  0  0  0  0  0  0
   -4.0893    1.1648    2.5345 H   0  0  0  0  0  0  0  0  0  0  0  0
   -3.1225    1.3433    4.0202 H   0  0  0  0  0  0  0  0  0  0  0  0
   -0.6649   -3.1053   -0.8771 C   0  0  0  0  0  0  0  0  0  0  0  0
   -1.2678   -3.7852   -0.2560 H   0  0  0  0  0  0  0  0  0  0  0  0
    1.4076   -2.6133   -2.0602 C   0  0  0  0  0  0  0  0  0  0  0  0
    2.4204   -2.9066   -2.3731 H   0  0  0  0  0  0  0  0  0  0  0  0
  1 26  1  0  0  0  0
  2  3  1  0  0  0  0
  2 45  1  0  0  0  0
  4  7  1  0  0  0  0
  5  4  1  0  0  0  0
  6  4  1  0  0  0  0
  8 17  1  0  0  0  0
  8  1  1  0  0  0  0
  9 16  1  0  0  0  0
 10  9  1  0  0  0  0
 11  9  1  0  0  0  0
 12  9  1  0  0  0  0
 13  8  2  0  0  0  0
 14 33  2  0  0  0  0
 14 13  1  0  0  0  0
 15 14  1  0  0  0  0
 16 35  1  0  0  0  0
 16  4  1  0  0  0  0
 16  1  1  0  0  0  0
 17 18  1  0  0  0  0
 19 13  1  0  0  0  0
 19 45  2  0  0  0  0
 20 21  1  0  0  0  0
 20 17  2  0  0  0  0
 22 25  1  0  0  0  0
 23 22  1  0  0  0  0
 24 22  1  0  0  0  0
 26 27  1  0  0  0  0
 26 22  1  0  0  0  0
 26 41  1  0  0  0  0
 27 29  1  0  0  0  0
 28 27  1  0  0  0  0
 30 27  1  0  0  0  0
 31 19  1  0  0  0  0
 32 31  1  0  0  0  0
 33 20  1  0  0  0  0
 34 33  1  0  0  0  0
 35 37  1  0  0  0  0
 36 35  1  0  0  0  0
 38 35  1  0  0  0  0
 39 31  1  0  0  0  0
 39 47  1  0  0  0  0
 40 39  1  0  0  0  0
 41 44  1  0  0  0  0
 42 41  1  0  0  0  0
 43 41  1  0  0  0  0
 45 46  1  0  0  0  0
 47  2  2  0  0  0  0
 48 47  1  0  0  0  0
M  END
