1,11
q = -1.0, confidence = 0.0

 40 41  0  0  1  0  0  0  0  0999 V2000
   -1.3319    0.2132    1.1422 P   0  0  1  0  0  0  0  0  0  0  0  0
   -2.2446   -0.5095    2.5716 C   0  0  0  0  0  0  0  0  0  0  0  0
   -2.5854    1.1584    0.1869 C   0  0  0  0  0  0  0  0  0  0  0  0
   -2.1724    1.6949   -1.0530 C   0  0  0  0  0  0  0  0  0  0  0  0
   -3.0661    2.4384   -1.8362 C   0  0  0  0  0  0  0  0  0  0  0  0
   -4.3871    2.6364   -1.4018 C   0  0  0  0  0  0  0  0  0  0  0  0
   -4.8086    2.0939   -0.1779 C   0  0  0  0  0  0  0  0  0  0  0  0
   -3.9124    1.3614    0.6169 C   0  0  0  0  0  0  0  0  0  0  0  0
   -0.2791    1.5409    1.9171 C   0  0  0  0  0  0  0  0  0  0  0  0
    0.7415    1.7693    0.8450 C   0  0  0  0  0  0  0  0  0  0  0  0
    1.3505    0.5022    0.3230 C   0  0  0  0  0  3  0  0  0  0  0  0
    2.0032    0.7089   -1.0393 C   0  0  0  0  0  0  0  0  0  0  0  0
    1.0122    2.9891    0.3161 C   0  0  0  0  0  0  0  0  0  0  0  0
    2.0248    3.2063   -0.7753 C   0  0  0  0  0  0  0  0  0  0  0  0
    2.9080    1.9735   -1.0197 C   0  0  1  0  0  0  0  0  0  0  0  0
    4.0634    1.7917   -0.0430 C   0  0  0  0  0  0  0  0  0  0  0  0
    4.2724    2.5904    1.0240 C   0  0  0  0  0  0  0  0  0  0  0  0
    4.9676    0.6184   -0.3313 C   0  0  0  0  0  0  0  0  0  0  0  0
   -3.0556   -1.1811    2.2387 H   0  0  0  0  0  0  0  0  0  0  0  0
   -1.5206   -1.0979    3.1676 H   0  0  0  0  0  0  0  0  0  0  0  0
   -2.6651    0.2947    3.2082 H   0  0  0  0  0  0  0  0  0  0  0  0
   -1.1406    1.5216   -1.3954 H   0  0  0  0  0  0  0  0  0  0  0  0
   -2.7313    2.8574   -2.7972 H   0  0  0  0  0  0  0  0  0  0  0  0
   -5.0922    3.2100   -2.0223 H   0  0  0  0  0  0  0  0  0  0  0  0
   -5.8444    2.2420    0.1639 H   0  0  0  0  0  0  0  0  0  0  0  0
   -4.2586    0.9470    1.5753 H   0  0  0  0  0  0  0  0  0  0  0  0
   -0.8531    2.4377    2.2240 H   0  0  0  0  0  0  0  0  0  0  0  0
    0.1841    1.0755    2.8167 H   0  0  0  0  0  0  0  0  0  0  0  0
    2.0543    0.0626    1.0627 H   0  0  0  0  0  0  0  0  0  0  0  0
    2.5715   -0.1900   -1.3367 H   0  0  0  0  0  0  0  0  0  0  0  0
    1.2248    0.8616   -1.8215 H   0  0  0  0  0  0  0  0  0  0  0  0
    0.4787    3.8731    0.7068 H   0  0  0  0  0  0  0  0  0  0  0  0
    3.3631    2.0598   -2.0331 H   0  0  0  0  0  0  0  0  0  0  0  0
    2.6485    4.0981   -0.5500 H   0  0  0  0  0  0  0  0  0  0  0  0
    1.4921    3.4636   -1.7208 H   0  0  0  0  0  0  0  0  0  0  0  0
    3.6023    3.4250    1.2770 H   0  0  0  0  0  0  0  0  0  0  0  0
    5.1267    2.4176    1.6976 H   0  0  0  0  0  0  0  0  0  0  0  0
    4.4419   -0.3462   -0.1587 H   0  0  0  0  0  0  0  0  0  0  0  0
    5.2939    0.6113   -1.3937 H   0  0  0  0  0  0  0  0  0  0  0  0
    5.8692    0.6326    0.3106 H   0  0  0  0  0  0  0  0  0  0  0  0
  1  9  1  1  0  0  0
  1  2  1  0  0  0  0
  2 20  1  0  0  0  0
  2 21  1  0  0  0  0
  3  8  1  0  0  0  0
  3  1  1  0  0  0  0
  4  3  2  0  0  0  0
  5  6  2  0  0  0  0
  5  4  1  0  0  0  0
  6  7  1  0  0  0  0
  7 25  1  0  0  0  0
  7  8  2  0  0  0  0
  8 26  1  0  0  0  0
  9 27  1  0  0  0  0
  9 28  1  0  0  0  0
 10  9  1  0  0  0  0
 11 10  1  0  0  0  0
 11 29  1  0  0  0  0
 12 15  1  0  0  0  0
 12 11  1  0  0  0  0
 13 32  1  0  0  0  0
 13 10  2  0  0  0  0
 14 34  1  0  0  0  0
 14 13  1  0  0  0  0
 15 33  1  6  0  0  0
 15 14  1  0  0  0  0
 15 16  1  0  0  0  0
 16 17  2  0  0  0  0
 17 36  1  0  0  0  0
 17 37  1  0  0  0  0
 18 38  1  0  0  0  0
 18 16  1  0  0  0  0
 18 40  1  0  0  0  0
 19  2  1  0  0  0  0
 22  4  1  0  0  0  0
 23  5  1  0  0  0  0
 24  6  1  0  0  0  0
 30 12  1  0  0  0  0
 31 12  1  0  0  0  0
 35 14  1  0  0  0  0
 39 18  1  0  0  0  0
M  END
