1,2
q = -1.0, confidence = 0.006

 12 11  0  0  0  0  0  0  0  0999 V2000
    0.0232    2.3985   -0.6054 P   0  0  0  0  0  0  0  0  0  0  0  0
   -0.0379    1.3244   -2.0398 C   0  0  0  0  0  3  0  0  0  0  0  0
   -0.9629    1.3694   -2.6453 H   0  0  0  0  0  0  0  0  0  0  0  0
    0.8504    1.3522   -2.7000 H   0  0  0  0  0  0  0  0  0  0  0  0
    1.4296    3.6173   -0.7212 C   0  0  0  0  0  0  0  0  0  0  0  0
    2.3859    3.1034   -0.9221 H   0  0  0  0  0  0  0  0  0  0  0  0
    1.5271    4.1722    0.2348 H   0  0  0  0  0  0  0  0  0  0  0  0
    1.2390    4.3428   -1.5381 H   0  0  0  0  0  0  0  0  0  0  0  0
   -1.3418    3.6687   -0.5926 C   0  0  0  0  0  0  0  0  0  0  0  0
   -2.3346    3.1915   -0.6618 H   0  0  0  0  0  0  0  0  0  0  0  0
   -1.2232    4.3720   -1.4420 H   0  0  0  0  0  0  0  0  0  0  0  0
   -1.3006    4.2426    0.3563 H   0  0  0  0  0  0  0  0  0  0  0  0
  1  9  1  0  0  0  0
  2  1  1  0  0  0  0
  3  2  1  0  0  0  0
  4  2  1  0  0  0  0
  5  1  1  0  0  0  0
  5  7  1  0  0  0  0
  6  5  1  0  0  0  0
  8  5  1  0  0  0  0
  9 12  1  0  0  0  0
 10  9  1  0  0  0  0
 11  9  1  0  0  0  0
M  END
