3,4
q = -1.0, confidence = 0.002

 38 39  0  0  1  0  0  0  0  0999 V2000
   -4.4799    1.5900   -0.0011 Cl  0  0  0  0  0  0  0  0  0  0  0  0
   -4.6712   -0.1032    2.4200 Cl  0  0  0  0  0  0  0  0  0  0  0  0
    0.8298    0.1559    0.3839 P   0  0  0  0  0  0  0  0  0  0  0  0
   -2.0819   -0.4411   -0.7740 C   0  0  0  0  0  3  0  0  0  0  0  0
   -2.5091   -0.2529    0.6839 C   0  0  2  0  0  0  0  0  0  0  0  0
   -4.0255    0.0036    0.7309 C   0  0  0  0  0  0  0  0  0  0  0  0
   -1.7409    0.8380    1.4432 C   0  0  0  0  0  0  0  0  0  0  0  0
   -0.3085    0.4523    1.8119 C   0  0  0  0  0  0  0  0  0  0  0  0
    2.3350   -0.4534    1.2698 C   0  0  0  0  0  0  0  0  0  0  0  0
    3.1873    0.4666    1.9178 C   0  0  0  0  0  0  0  0  0  0  0  0
    4.2896    0.0127    2.6557 C   0  0  0  0  0  0  0  0  0  0  0  0
    4.5540   -1.3626    2.7553 C   0  0  0  0  0  0  0  0  0  0  0  0
    3.7105   -2.2820    2.1143 C   0  0  0  0  0  0  0  0  0  0  0  0
    2.6074   -1.8315    1.3733 C   0  0  0  0  0  0  0  0  0  0  0  0
    1.3815    1.8201   -0.1744 C   0  0  0  0  0  0  0  0  0  0  0  0
    2.4111    1.8735   -1.1397 C   0  0  0  0  0  0  0  0  0  0  0  0
    2.8712    3.1067   -1.6162 C   0  0  0  0  0  0  0  0  0  0  0  0
    2.3032    4.3022   -1.1440 C   0  0  0  0  0  0  0  0  0  0  0  0
    1.2786    4.2562   -0.1883 C   0  0  0  0  0  0  0  0  0  0  0  0
    0.8196    3.0210    0.2990 C   0  0  0  0  0  0  0  0  0  0  0  0
    2.9932    1.5470    1.8363 H   0  0  0  0  0  0  0  0  0  0  0  0
    4.9490    0.7404    3.1527 H   0  0  0  0  0  0  0  0  0  0  0  0
    5.4226   -1.7177    3.3303 H   0  0  0  0  0  0  0  0  0  0  0  0
    3.9135   -3.3613    2.1830 H   0  0  0  0  0  0  0  0  0  0  0  0
    1.9609   -2.5639    0.8711 H   0  0  0  0  0  0  0  0  0  0  0  0
    2.8592    0.9406   -1.5165 H   0  0  0  0  0  0  0  0  0  0  0  0
    3.6765    3.1350   -2.3656 H   0  0  0  0  0  0  0  0  0  0  0  0
    2.6600    5.2710   -1.5246 H   0  0  0  0  0  0  0  0  0  0  0  0
    0.8279    5.1880    0.1853 H   0  0  0  0  0  0  0  0  0  0  0  0
    0.0178    3.0074    1.0503 H   0  0  0  0  0  0  0  0  0  0  0  0
   -2.7564   -1.1788   -1.2519 H   0  0  0  0  0  0  0  0  0  0  0  0
   -2.2454    0.5171   -1.3052 H   0  0  0  0  0  0  0  0  0  0  0  0
   -2.3970   -1.2101    1.2412 H   0  0  0  0  0  0  0  0  0  0  0  0
   -4.5753   -0.7626    0.1553 H   0  0  0  0  0  0  0  0  0  0  0  0
   -2.2849    1.0617    2.3848 H   0  0  0  0  0  0  0  0  0  0  0  0
   -1.7641    1.7700    0.8411 H   0  0  0  0  0  0  0  0  0  0  0  0
    0.1662    1.2082    2.4718 H   0  0  0  0  0  0  0  0  0  0  0  0
   -0.2981   -0.5040    2.3768 H   0  0  0  0  0  0  0  0  0  0  0  0
  1  6  1  0  0  0  0
  3  9  1  0  0  0  0
  3  8  1  0  0  0  0
  4  5  1  0  0  0  0
  5  6  1  0  0  0  0
  5 33  1  1  0  0  0
  5  7  1  0  0  0  0
  6  2  1  0  0  0  0
  7  8  1  0  0  0  0
  7 35  1  0  0  0  0
  8 38  1  0  0  0  0
  8 37  1  0  0  0  0
  9 14  2  0  0  0  0
  9 10  1  0  0  0  0
 10 11  2  0  0  0  0
 11 12  1  0  0  0  0
 11 22  1  0  0  0  0
 12 23  1  0  0  0  0
 13 24  1  0  0  0  0
 13 12  2  0  0  0  0
 14 13  1  0  0  0  0
 15 20  1  0  0  0  0
 15  3  1  0  0  0  0
 16 15  2  0  0  0  0
 17 18  2  0  0  0  0
 17 16  1  0  0  0  0
 18 19  1  0  0  0  0
 19 29  1  0  0  0  0
 19 20  2  0  0  0  0
 20 30  1  0  0  0  0
 21 10  1  0  0  0  0
 25 14  1  0  0  0  0
 26 16  1  0  0  0  0
 27 17  1  0  0  0  0
 28 18  1  0  0  0  0
 31  4  1  0  0  0  0
 32  4  1  0  0  0  0
 34  6  1  0  0  0  0
 36  7  1  0  0  0  0
M  END
