1,3
q = 0.0, confidence = 0.88

 29 28  0  0  0  0  0  0  0  0999 V2000
   -1.4883    0.0144   -1.7975 P   0  0  0  0  0  2  0  0  0  0  0  0
   -1.5307    2.0942   -2.3601 Cl  0  0  0  0  0  0  0  0  0  0  0  0
   -2.0438   -0.0957   -0.1395 C   0  0  0  0  0  3  0  0  0  0  0  0
   -2.9847    1.2943    0.7859 Si  0  0  0  0  0  0  0  0  0  0  0  0
   -4.5016    1.7589   -0.2438 C   0  0  0  0  0  0  0  0  0  0  0  0
   -1.9057    2.8205    1.0855 C   0  0  0  0  0  0  0  0  0  0  0  0
   -3.5506    0.7088    2.4988 C   0  0  0  0  0  0  0  0  0  0  0  0
   -2.6061   -1.9106    0.1747 Si  0  0  0  0  0  0  0  0  0  0  0  0
   -4.4885   -1.9855   -0.0315 C   0  0  0  0  0  0  0  0  0  0  0  0
   -2.1127   -2.5277    1.8926 C   0  0  0  0  0  0  0  0  0  0  0  0
   -1.8430   -3.0984   -1.0862 C   0  0  0  0  0  0  0  0  0  0  0  0
   -5.0794    2.5578    0.2656 H   0  0  0  0  0  0  0  0  0  0  0  0
   -5.1723    0.8892   -0.3901 H   0  0  0  0  0  0  0  0  0  0  0  0
   -4.1923    2.1330   -1.2395 H   0  0  0  0  0  0  0  0  0  0  0  0
   -1.4055    3.1675    0.1622 H   0  0  0  0  0  0  0  0  0  0  0  0
   -1.1363    2.6183    1.8571 H   0  0  0  0  0  0  0  0  0  0  0  0
   -2.5456    3.6454    1.4638 H   0  0  0  0  0  0  0  0  0  0  0  0
   -4.2178   -0.1745    2.4657 H   0  0  0  0  0  0  0  0  0  0  0  0
   -4.1156    1.5357    2.9779 H   0  0  0  0  0  0  0  0  0  0  0  0
   -2.6897    0.4715    3.1549 H   0  0  0  0  0  0  0  0  0  0  0  0
   -5.0317   -1.3824    0.7223 H   0  0  0  0  0  0  0  0  0  0  0  0
   -4.8300   -3.0371    0.0655 H   0  0  0  0  0  0  0  0  0  0  0  0
   -4.7816   -1.6236   -1.0380 H   0  0  0  0  0  0  0  0  0  0  0  0
   -2.3796   -1.8293    2.7071 H   0  0  0  0  0  0  0  0  0  0  0  0
   -1.0232   -2.7225    1.9401 H   0  0  0  0  0  0  0  0  0  0  0  0
   -2.6306   -3.4910    2.0831 H   0  0  0  0  0  0  0  0  0  0  0  0
   -0.7374   -3.0281   -1.1216 H   0  0  0  0  0  0  0  0  0  0  0  0
   -2.2183   -2.9255   -2.1147 H   0  0  0  0  0  0  0  0  0  0  0  0
   -2.1117   -4.1363   -0.7969 H   0  0  0  0  0  0  0  0  0  0  0  0
  1  3  1  0  0  0  0
  2  1  1  0  0  0  0
  3  8  1  0  0  0  0
  3  4  1  0  0  0  0
  4  6  1  0  0  0  0
  4  7  1  0  0  0  0
  5 12  1  0  0  0  0
  5  4  1  0  0  0  0
  6 17  1  0  0  0  0
  6 16  1  0  0  0  0
  7 19  1  0  0  0  0
  7 20  1  0  0  0  0
  8 10  1  0  0  0  0
  9 22  1  0  0  0  0
  9  8  1  0  0  0  0
  9 21  1  0  0  0  0
 10 25  1  0  0  0  0
 10 26  1  0  0  0  0
 10 24  1  0  0  0  0
 11 29  1  0  0  0  0
 11  8  1  0  0  0  0
 13  5  1  0  0  0  0
 14  5  1  0  0  0  0
 15  6  1  0  0  0  0
 18  7  1  0  0  0  0
 23  9  1  0  0  0  0
 27 11  1  0  0  0  0
 28 11  1  0  0  0  0
M  END
