1,4
q = 0.0, confidence = 0.994

 59 60  0  0  0  0  0  0  0  0999 V2000
   -2.1342    0.1477    0.0625 P   0  0  0  0  0  0  0  0  0  0  0  0
    1.3361    1.5294    0.0603 N   0  0  0  0  0  0  0  0  0  0  0  0
   -0.9986    1.4996    0.1722 N   0  0  0  0  0  0  0  0  0  0  0  0
    0.1989    0.8274    0.0342 C   0  0  0  0  0  2  0  0  0  0  0  0
    2.6354    0.8995    0.1008 C   0  0  0  0  0  0  0  0  0  0  0  0
    3.3774    0.7946   -1.0926 C   0  0  0  0  0  0  0  0  0  0  0  0
    4.6647    0.2414   -1.0149 C   0  0  0  0  0  0  0  0  0  0  0  0
    5.2032   -0.2166    0.2015 C   0  0  0  0  0  0  0  0  0  0  0  0
    4.4177   -0.1119    1.3631 C   0  0  0  0  0  0  0  0  0  0  0  0
    3.1256    0.4380    1.3385 C   0  0  0  0  0  0  0  0  0  0  0  0
   -3.0645    0.0743    1.7008 C   0  0  0  0  0  0  0  0  0  0  0  0
   -4.0530   -1.1030    1.5920 C   0  0  0  0  0  0  0  0  0  0  0  0
   -3.7774    1.3805    2.0840 C   0  0  0  0  0  0  0  0  0  0  0  0
   -1.9839   -0.2596    2.7488 C   0  0  0  0  0  0  0  0  0  0  0  0
   -3.1950    0.4238   -1.4822 C   0  0  0  0  0  0  0  0  0  0  0  0
   -2.1944    0.8355   -2.5801 C   0  0  0  0  0  0  0  0  0  0  0  0
   -3.8104   -0.9431   -1.8499 C   0  0  0  0  0  0  0  0  0  0  0  0
   -4.2944    1.4861   -1.3323 C   0  0  0  0  0  0  0  0  0  0  0  0
   -1.1392    2.9476    0.3128 C   0  0  0  0  0  0  0  0  0  0  0  0
    0.0581    3.6121   -0.3618 C   0  0  0  0  0  0  0  0  0  0  0  0
    1.3508    3.0025    0.1688 C   0  0  0  0  0  0  0  0  0  0  0  0
    2.2548    0.4347    2.5666 C   0  0  0  0  0  0  0  0  0  0  0  0
    6.5640   -0.8639    0.2462 C   0  0  0  0  0  0  0  0  0  0  0  0
    2.7507    1.1374   -2.4168 C   0  0  0  0  0  0  0  0  0  0  0  0
    5.2532    0.1362   -1.9405 H   0  0  0  0  0  0  0  0  0  0  0  0
    4.8145   -0.4889    2.3193 H   0  0  0  0  0  0  0  0  0  0  0  0
   -4.4420   -1.3392    2.6046 H   0  0  0  0  0  0  0  0  0  0  0  0
   -3.5510   -2.0089    1.1893 H   0  0  0  0  0  0  0  0  0  0  0  0
   -4.9226   -0.8578    0.9508 H   0  0  0  0  0  0  0  0  0  0  0  0
   -4.5547    1.6769    1.3563 H   0  0  0  0  0  0  0  0  0  0  0  0
   -4.2797    1.2374    3.0643 H   0  0  0  0  0  0  0  0  0  0  0  0
   -3.0681    2.2228    2.2031 H   0  0  0  0  0  0  0  0  0  0  0  0
   -1.2014    0.5241    2.8009 H   0  0  0  0  0  0  0  0  0  0  0  0
   -2.4639   -0.3330    3.7473 H   0  0  0  0  0  0  0  0  0  0  0  0
   -1.4879   -1.2240    2.5208 H   0  0  0  0  0  0  0  0  0  0  0  0
   -2.7295    0.8777   -3.5513 H   0  0  0  0  0  0  0  0  0  0  0  0
   -1.7488    1.8326   -2.3924 H   0  0  0  0  0  0  0  0  0  0  0  0
   -1.3693    0.0996   -2.6703 H   0  0  0  0  0  0  0  0  0  0  0  0
   -3.0577   -1.7583   -1.8138 H   0  0  0  0  0  0  0  0  0  0  0  0
   -4.6363   -1.2217   -1.1686 H   0  0  0  0  0  0  0  0  0  0  0  0
   -4.2287   -0.8784   -2.8763 H   0  0  0  0  0  0  0  0  0  0  0  0
   -5.0675    1.1846   -0.5997 H   0  0  0  0  0  0  0  0  0  0  0  0
   -3.8993    2.4787   -1.0366 H   0  0  0  0  0  0  0  0  0  0  0  0
   -4.8046    1.6128   -2.3108 H   0  0  0  0  0  0  0  0  0  0  0  0
   -1.1831    3.2303    1.3890 H   0  0  0  0  0  0  0  0  0  0  0  0
   -2.0948    3.2660   -0.1482 H   0  0  0  0  0  0  0  0  0  0  0  0
   -0.0023    3.4571   -1.4597 H   0  0  0  0  0  0  0  0  0  0  0  0
    0.0528    4.7043   -0.1775 H   0  0  0  0  0  0  0  0  0  0  0  0
    1.5204    3.2857    1.2321 H   0  0  0  0  0  0  0  0  0  0  0  0
    2.2292    3.3643   -0.4009 H   0  0  0  0  0  0  0  0  0  0  0  0
    1.7057    1.3882    2.7086 H   0  0  0  0  0  0  0  0  0  0  0  0
    1.4925   -0.3697    2.4752 H   0  0  0  0  0  0  0  0  0  0  0  0
    2.8484    0.2400    3.4796 H   0  0  0  0  0  0  0  0  0  0  0  0
    6.4803   -1.9549    0.0522 H   0  0  0  0  0  0  0  0  0  0  0  0
    7.2433   -0.4467   -0.5233 H   0  0  0  0  0  0  0  0  0  0  0  0
    7.0442   -0.7440    1.2373 H   0  0  0  0  0  0  0  0  0  0  0  0
    2.2366    2.1207   -2.4165 H   0  0  0  0  0  0  0  0  0  0  0  0
    3.5014    1.1422   -3.2293 H   0  0  0  0  0  0  0  0  0  0  0  0
    1.9869    0.3660   -2.6572 H   0  0  0  0  0  0  0  0  0  0  0  0
  1  3  1  0  0  0  0
  1 11  1  0  0  0  0
  2  5  1  0  0  0  0
  2 21  1  0  0  0  0
  3 19  1  0  0  0  0
  4  2  1  0  0  0  0
  4  3  1  0  0  0  0
  5 10  1  0  0  0  0
  6  7  1  0  0  0  0
  6  5  2  0  0  0  0
  7  8  2  0  0  0  0
  8 23  1  0  0  0  0
  8  9  1  0  0  0  0
  9 26  1  0  0  0  0
 10  9  2  0  0  0  0
 10 22  1  0  0  0  0
 11 13  1  0  0  0  0
 11 14  1  0  0  0  0
 12 11  1  0  0  0  0
 12 27  1  0  0  0  0
 13 32  1  0  0  0  0
 13 31  1  0  0  0  0
 14 33  1  0  0  0  0
 14 34  1  0  0  0  0
 15 18  1  0  0  0  0
 15  1  1  0  0  0  0
 16 37  1  0  0  0  0
 16 15  1  0  0  0  0
 17 39  1  0  0  0  0
 17 15  1  0  0  0  0
 17 40  1  0  0  0  0
 18 43  1  0  0  0  0
 18 42  1  0  0  0  0
 19 45  1  0  0  0  0
 20 48  1  0  0  0  0
 20 21  1  0  0  0  0
 20 19  1  0  0  0  0
 21 49  1  0  0  0  0
 22 51  1  0  0  0  0
 22 53  1  0  0  0  0
 23 56  1  0  0  0  0
 24 57  1  0  0  0  0
 24  6  1  0  0  0  0
 25  7  1  0  0  0  0
 28 12  1  0  0  0  0
 29 12  1  0  0  0  0
 30 13  1  0  0  0  0
 35 14  1  0  0  0  0
 36 16  1  0  0  0  0
 38 16  1  0  0  0  0
 41 17  1  0  0  0  0
 44 18  1  0  0  0  0
 46 19  1  0  0  0  0
 47 20  1  0  0  0  0
 50 21  1  0  0  0  0
 52 22  1  0  0  0  0
 54 23  1  0  0  0  0
 55 23  1  0  0  0  0
 58 24  1  0  0  0  0
 59 24  1  0  0  0  0
M  END
