1,4
q = 0.0, confidence = 0.992

 50 51  0  0  0  0  0  0  0  0999 V2000
   -1.7359    0.2322    0.0438 P   0  0  0  0  0  0  0  0  0  0  0  0
   -0.5657    1.5182   -0.3092 N   0  0  0  0  0  0  0  0  0  0  0  0
    1.7749    1.4526   -0.3453 N   0  0  0  0  0  0  0  0  0  0  0  0
    0.6093    0.7978   -0.2370 C   0  0  0  0  0  2  0  0  0  0  0  0
    3.0340    0.8251   -0.0484 C   0  0  0  0  0  0  0  0  0  0  0  0
    3.2274    0.2181    1.2017 C   0  0  0  0  0  0  0  0  0  0  0  0
    4.4689   -0.3519    1.5067 C   0  0  0  0  0  0  0  0  0  0  0  0
    5.5139   -0.3097    0.5714 C   0  0  0  0  0  0  0  0  0  0  0  0
    5.3159    0.3069   -0.6740 C   0  0  0  0  0  0  0  0  0  0  0  0
    4.0751    0.8774   -0.9882 C   0  0  0  0  0  0  0  0  0  0  0  0
   -2.4920    0.6046    1.7412 C   0  0  0  0  0  0  0  0  0  0  0  0
   -3.0773   -0.7313    2.2494 C   0  0  0  0  0  0  0  0  0  0  0  0
   -3.5634    1.7050    1.7549 C   0  0  0  0  0  0  0  0  0  0  0  0
   -1.3015    0.9996    2.6356 C   0  0  0  0  0  0  0  0  0  0  0  0
   -2.9509    0.1733   -1.3964 C   0  0  0  0  0  0  0  0  0  0  0  0
   -3.6030    1.5283   -1.7147 C   0  0  0  0  0  0  0  0  0  0  0  0
   -2.1100   -0.3038   -2.5977 C   0  0  0  0  0  0  0  0  0  0  0  0
   -4.0048   -0.8977   -1.0568 C   0  0  0  0  0  0  0  0  0  0  0  0
   -0.6745    2.9693   -0.4620 C   0  0  0  0  0  0  0  0  0  0  0  0
    0.6321    3.6156   -0.0124 C   0  0  0  0  0  0  0  0  0  0  0  0
    1.8093    2.8961   -0.6659 C   0  0  0  0  0  0  0  0  0  0  0  0
    2.3923    0.1769    1.9148 H   0  0  0  0  0  0  0  0  0  0  0  0
    4.6150   -0.8453    2.4788 H   0  0  0  0  0  0  0  0  0  0  0  0
    6.4862   -0.7657    0.8107 H   0  0  0  0  0  0  0  0  0  0  0  0
    6.1285    0.3296   -1.4154 H   0  0  0  0  0  0  0  0  0  0  0  0
    3.9037    1.3349   -1.9736 H   0  0  0  0  0  0  0  0  0  0  0  0
   -3.2957   -0.6343    3.3336 H   0  0  0  0  0  0  0  0  0  0  0  0
   -2.3740   -1.5756    2.0945 H   0  0  0  0  0  0  0  0  0  0  0  0
   -4.0234   -0.9904    1.7385 H   0  0  0  0  0  0  0  0  0  0  0  0
   -4.4572    1.4238    1.1655 H   0  0  0  0  0  0  0  0  0  0  0  0
   -3.8998    1.8659    2.8012 H   0  0  0  0  0  0  0  0  0  0  0  0
   -3.1868    2.6772    1.3779 H   0  0  0  0  0  0  0  0  0  0  0  0
   -1.6561    1.0898    3.6831 H   0  0  0  0  0  0  0  0  0  0  0  0
   -0.5055    0.2278    2.6046 H   0  0  0  0  0  0  0  0  0  0  0  0
   -0.8555    1.9709    2.3425 H   0  0  0  0  0  0  0  0  0  0  0  0
   -4.1835    1.9396   -0.8684 H   0  0  0  0  0  0  0  0  0  0  0  0
   -4.3068    1.3914   -2.5629 H   0  0  0  0  0  0  0  0  0  0  0  0
   -2.8581    2.2839   -2.0318 H   0  0  0  0  0  0  0  0  0  0  0  0
   -1.6881   -1.3115   -2.4127 H   0  0  0  0  0  0  0  0  0  0  0  0
   -2.7620   -0.3471   -3.4955 H   0  0  0  0  0  0  0  0  0  0  0  0
   -1.2693    0.3855   -2.8148 H   0  0  0  0  0  0  0  0  0  0  0  0
   -3.5170   -1.8384   -0.7232 H   0  0  0  0  0  0  0  0  0  0  0  0
   -4.5947   -1.1173   -1.9713 H   0  0  0  0  0  0  0  0  0  0  0  0
   -4.7148   -0.5558   -0.2781 H   0  0  0  0  0  0  0  0  0  0  0  0
   -1.5337    3.3332    0.1359 H   0  0  0  0  0  0  0  0  0  0  0  0
   -0.8853    3.2247   -1.5244 H   0  0  0  0  0  0  0  0  0  0  0  0
    0.7300    3.5497    1.0915 H   0  0  0  0  0  0  0  0  0  0  0  0
    0.6437    4.6889   -0.2857 H   0  0  0  0  0  0  0  0  0  0  0  0
    2.7742    3.2949   -0.3020 H   0  0  0  0  0  0  0  0  0  0  0  0
    1.7866    3.0320   -1.7697 H   0  0  0  0  0  0  0  0  0  0  0  0
  1 11  1  0  0  0  0
  2  4  1  0  0  0  0
  2  1  1  0  0  0  0
  3  4  1  0  0  0  0
  3  5  1  0  0  0  0
  5  6  1  0  0  0  0
  6  7  2  0  0  0  0
  6 22  1  0  0  0  0
  7 23  1  0  0  0  0
  8 24  1  0  0  0  0
  8  7  1  0  0  0  0
  9  8  2  0  0  0  0
 10  9  1  0  0  0  0
 10  5  2  0  0  0  0
 11 13  1  0  0  0  0
 11 12  1  0  0  0  0
 11 14  1  0  0  0  0
 12 27  1  0  0  0  0
 13 31  1  0  0  0  0
 14 33  1  0  0  0  0
 15 18  1  0  0  0  0
 15  1  1  0  0  0  0
 16 15  1  0  0  0  0
 16 36  1  0  0  0  0
 17 39  1  0  0  0  0
 17 15  1  0  0  0  0
 18 42  1  0  0  0  0
 18 44  1  0  0  0  0
 19  2  1  0  0  0  0
 19 20  1  0  0  0  0
 19 45  1  0  0  0  0
 20 47  1  0  0  0  0
 21  3  1  0  0  0  0
 21 49  1  0  0  0  0
 21 20  1  0  0  0  0
 25  9  1  0  0  0  0
 26 10  1  0  0  0  0
 28 12  1  0  0  0  0
 29 12  1  0  0  0  0
 30 13  1  0  0  0  0
 32 13  1  0  0  0  0
 34 14  1  0  0  0  0
 35 14  1  0  0  0  0
 37 16  1  0  0  0  0
 38 16  1  0  0  0  0
 40 17  1  0  0  0  0
 41 17  1  0  0  0  0
 43 18  1  0  0  0  0
 46 19  1  0  0  0  0
 48 20  1  0  0  0  0
 50 21  1  0  0  0  0
M  END
