1,4
q = 0.0, confidence = 0.994

 56 57  0  0  0  0  0  0  0  0999 V2000
    2.1321    0.3365   -0.0581 P   0  0  0  0  0  0  0  0  0  0  0  0
    0.8251    1.4228   -0.5454 N   0  0  0  0  0  0  0  0  0  0  0  0
   -1.3795    1.3363   -0.4178 N   0  0  0  0  0  0  0  0  0  0  0  0
   -0.2619    0.6205   -0.2856 C   0  0  0  0  0  2  0  0  0  0  0  0
   -2.7278    0.8730   -0.2552 C   0  0  0  0  0  0  0  0  0  0  0  0
   -3.3740    1.1197    0.9745 C   0  0  0  0  0  0  0  0  0  0  0  0
   -4.7070    0.6999    1.1113 C   0  0  0  0  0  0  0  0  0  0  0  0
   -5.3861    0.0401    0.0700 C   0  0  0  0  0  0  0  0  0  0  0  0
   -4.6941   -0.2070   -1.1295 C   0  0  0  0  0  0  0  0  0  0  0  0
   -3.3595    0.1899   -1.3151 C   0  0  0  0  0  0  0  0  0  0  0  0
    3.2624    0.1617   -1.5526 C   0  0  0  0  0  0  0  0  0  0  0  0
    4.4444   -0.7331   -1.1366 C   0  0  0  0  0  0  0  0  0  0  0  0
    3.7277    1.5129   -2.1161 C   0  0  0  0  0  0  0  0  0  0  0  0
    2.4065   -0.5811   -2.5987 C   0  0  0  0  0  0  0  0  0  0  0  0
    2.9142    1.0554    1.5031 C   0  0  0  0  0  0  0  0  0  0  0  0
    3.7566    2.3159    1.2596 C   0  0  0  0  0  0  0  0  0  0  0  0
    1.7242    1.3712    2.4321 C   0  0  0  0  0  0  0  0  0  0  0  0
    3.7549   -0.0707    2.1414 C   0  0  0  0  0  0  0  0  0  0  0  0
    0.4544    2.8324   -0.7333 C   0  0  0  0  0  0  0  0  0  0  0  0
   -1.0845    2.7157   -0.8802 C   0  0  0  0  0  0  0  0  0  0  0  0
   -2.6239    1.7424    2.1235 C   0  0  0  0  0  0  0  0  0  0  0  0
   -2.5942   -0.2033   -2.5484 C   0  0  0  0  0  0  0  0  0  0  0  0
   -6.8023   -0.4428    0.2555 C   0  0  0  0  0  0  0  0  0  0  0  0
   -5.2246    0.8784    2.0675 H   0  0  0  0  0  0  0  0  0  0  0  0
   -5.2020   -0.7480   -1.9439 H   0  0  0  0  0  0  0  0  0  0  0  0
    4.0846   -1.6475   -0.6187 H   0  0  0  0  0  0  0  0  0  0  0  0
    5.1614   -0.2021   -0.4803 H   0  0  0  0  0  0  0  0  0  0  0  0
    4.9953   -1.0461   -2.0480 H   0  0  0  0  0  0  0  0  0  0  0  0
    2.8703    2.1475   -2.4180 H   0  0  0  0  0  0  0  0  0  0  0  0
    4.3544    2.0837   -1.4061 H   0  0  0  0  0  0  0  0  0  0  0  0
    4.3371    1.3325   -3.0269 H   0  0  0  0  0  0  0  0  0  0  0  0
    3.0082   -0.7155   -3.5220 H   0  0  0  0  0  0  0  0  0  0  0  0
    2.0981   -1.5777   -2.2256 H   0  0  0  0  0  0  0  0  0  0  0  0
    1.4917   -0.0134   -2.8620 H   0  0  0  0  0  0  0  0  0  0  0  0
    4.6675    2.0997    0.6685 H   0  0  0  0  0  0  0  0  0  0  0  0
    4.0906    2.7233    2.2375 H   0  0  0  0  0  0  0  0  0  0  0  0
    3.1872    3.1157    0.7441 H   0  0  0  0  0  0  0  0  0  0  0  0
    2.1193    1.6995    3.4157 H   0  0  0  0  0  0  0  0  0  0  0  0
    1.0914    0.4747    2.5932 H   0  0  0  0  0  0  0  0  0  0  0  0
    1.0786    2.1819    2.0396 H   0  0  0  0  0  0  0  0  0  0  0  0
    4.7066   -0.2367    1.6030 H   0  0  0  0  0  0  0  0  0  0  0  0
    3.2002   -1.0327    2.1591 H   0  0  0  0  0  0  0  0  0  0  0  0
    4.0049    0.2180    3.1838 H   0  0  0  0  0  0  0  0  0  0  0  0
    0.9345    3.2733   -1.6287 H   0  0  0  0  0  0  0  0  0  0  0  0
    0.7436    3.4429    0.1503 H   0  0  0  0  0  0  0  0  0  0  0  0
   -1.4192    2.8277   -1.9340 H   0  0  0  0  0  0  0  0  0  0  0  0
   -1.6379    3.4535   -0.2670 H   0  0  0  0  0  0  0  0  0  0  0  0
   -3.2822    1.8807    3.0016 H   0  0  0  0  0  0  0  0  0  0  0  0
   -2.1920    2.7331    1.8673 H   0  0  0  0  0  0  0  0  0  0  0  0
   -1.7782    1.0899    2.4279 H   0  0  0  0  0  0  0  0  0  0  0  0
   -1.9167    0.5962   -2.9106 H   0  0  0  0  0  0  0  0  0  0  0  0
   -1.9639   -1.0843   -2.2953 H   0  0  0  0  0  0  0  0  0  0  0  0
   -3.2741   -0.4861   -3.3740 H   0  0  0  0  0  0  0  0  0  0  0  0
   -7.3699   -0.4224   -0.6957 H   0  0  0  0  0  0  0  0  0  0  0  0
   -7.3499    0.1663    1.0012 H   0  0  0  0  0  0  0  0  0  0  0  0
   -6.8120   -1.4932    0.6182 H   0  0  0  0  0  0  0  0  0  0  0  0
  1 15  1  0  0  0  0
  2  4  1  0  0  0  0
  2  1  1  0  0  0  0
  3  4  1  0  0  0  0
  3  5  1  0  0  0  0
  5  6  1  0  0  0  0
  6  7  2  0  0  0  0
  6 21  1  0  0  0  0
  7 24  1  0  0  0  0
  8 23  1  0  0  0  0
  8  7  1  0  0  0  0
  9  8  2  0  0  0  0
 10  9  1  0  0  0  0
 10  5  2  0  0  0  0
 11 12  1  0  0  0  0
 11  1  1  0  0  0  0
 12 26  1  0  0  0  0
 12 27  1  0  0  0  0
 13 11  1  0  0  0  0
 13 30  1  0  0  0  0
 14 33  1  0  0  0  0
 14 11  1  0  0  0  0
 15 18  1  0  0  0  0
 15 17  1  0  0  0  0
 16 15  1  0  0  0  0
 16 36  1  0  0  0  0
 17 39  1  0  0  0  0
 17 38  1  0  0  0  0
 18 42  1  0  0  0  0
 18 43  1  0  0  0  0
 19  2  1  0  0  0  0
 19 45  1  0  0  0  0
 20 19  1  0  0  0  0
 20  3  1  0  0  0  0
 20 47  1  0  0  0  0
 21 50  1  0  0  0  0
 21 48  1  0  0  0  0
 22 52  1  0  0  0  0
 22 10  1  0  0  0  0
 23 56  1  0  0  0  0
 23 55  1  0  0  0  0
 25  9  1  0  0  0  0
 28 12  1  0  0  0  0
 29 13  1  0  0  0  0
 31 13  1  0  0  0  0
 32 14  1  0  0  0  0
 34 14  1  0  0  0  0
 35 16  1  0  0  0  0
 37 16  1  0  0  0  0
 40 17  1  0  0  0  0
 41 18  1  0  0  0  0
 44 19  1  0  0  0  0
 46 20  1  0  0  0  0
 49 21  1  0  0  0  0
 51 22  1  0  0  0  0
 53 22  1  0  0  0  0
 54 23  1  0  0  0  0
M  END
