1,13
q = 0.0, confidence = 0.984

 74 76  0  0  1  0  0  0  0  0999 V2000
   -2.4176   -0.8550   -0.0634 P   0  0  0  0  0  0  0  0  0  0  0  0
    2.3982   -0.7639    0.1264 P   0  0  0  0  0  0  0  0  0  0  0  0
    1.3764    0.9837   -2.4265 O   0  0  0  0  0  0  0  0  0  0  0  0
    0.7625    0.5207   -3.0295 H   0  0  0  0  0  0  0  0  0  0  0  0
   -1.3397    3.6767    1.5403 O   0  0  0  0  0  0  0  0  0  0  0  0
   -0.7046    4.1953    2.0691 H   0  0  0  0  0  0  0  0  0  0  0  0
    0.7132    1.3675   -1.3086 C   0  0  1  0  0  3  0  0  0  0  0  0
    1.4537    2.1329   -0.3357 C   0  0  0  0  0  0  0  0  0  0  0  0
    0.7510    2.9138    0.5718 C   0  0  0  0  0  0  0  0  0  0  0  0
    1.3202    3.4863    1.3223 H   0  0  0  0  0  0  0  0  0  0  0  0
   -0.6733    2.9318    0.6245 C   0  0  0  0  0  0  0  0  0  0  0  0
   -1.4084    2.1001   -0.2299 C   0  0  0  0  0  0  0  0  0  0  0  0
   -0.6980    1.2904   -1.1850 C   0  0  0  0  0  3  0  0  0  0  0  0
   -1.2747    0.9239   -2.0502 H   0  0  0  0  0  0  0  0  0  0  0  0
    2.9231    1.9989   -0.3457 C   0  0  0  0  0  0  0  0  0  0  0  0
    3.7660    3.1217   -0.4471 C   0  0  0  0  0  0  0  0  0  0  0  0
    3.3163    4.1241   -0.5084 H   0  0  0  0  0  0  0  0  0  0  0  0
    5.1565    2.9629   -0.5160 C   0  0  0  0  0  0  0  0  0  0  0  0
    5.8073    3.8451   -0.6067 H   0  0  0  0  0  0  0  0  0  0  0  0
    5.7105    1.6753   -0.4914 C   0  0  0  0  0  0  0  0  0  0  0  0
    6.7997    1.5385   -0.5615 H   0  0  0  0  0  0  0  0  0  0  0  0
    4.8780    0.5518   -0.3670 C   0  0  0  0  0  0  0  0  0  0  0  0
    5.3445   -0.4423   -0.3239 H   0  0  0  0  0  0  0  0  0  0  0  0
    3.4784    0.6925   -0.2818 C   0  0  0  0  0  0  0  0  0  0  0  0
   -2.8739    1.9559   -0.2206 C   0  0  0  0  0  0  0  0  0  0  0  0
   -3.4383    0.6562   -0.3665 C   0  0  0  0  0  0  0  0  0  0  0  0
   -4.8327    0.5320   -0.5445 C   0  0  0  0  0  0  0  0  0  0  0  0
   -5.2914   -0.4577   -0.6784 H   0  0  0  0  0  0  0  0  0  0  0  0
   -5.6621    1.6625   -0.5432 C   0  0  0  0  0  0  0  0  0  0  0  0
   -6.7453    1.5443   -0.6934 H   0  0  0  0  0  0  0  0  0  0  0  0
   -5.1089    2.9353   -0.3346 C   0  0  0  0  0  0  0  0  0  0  0  0
   -5.7576    3.8235   -0.3152 H   0  0  0  0  0  0  0  0  0  0  0  0
   -3.7261    3.0807   -0.1768 C   0  0  0  0  0  0  0  0  0  0  0  0
   -3.2852    4.0783   -0.0474 H   0  0  0  0  0  0  0  0  0  0  0  0
    3.1569   -2.1561   -0.8782 C   0  0  0  0  0  0  0  0  0  0  0  0
    4.2467   -1.9472   -0.8323 H   0  0  0  0  0  0  0  0  0  0  0  0
    2.7025   -2.0217   -2.3373 C   0  0  0  0  0  0  0  0  0  0  0  0
    3.2181   -2.7781   -2.9626 H   0  0  0  0  0  0  0  0  0  0  0  0
    2.9261   -1.0200   -2.7526 H   0  0  0  0  0  0  0  0  0  0  0  0
    1.6102   -2.2063   -2.4202 H   0  0  0  0  0  0  0  0  0  0  0  0
    2.9205   -3.5649   -0.3280 C   0  0  0  0  0  0  0  0  0  0  0  0
    1.8542   -3.8501   -0.3843 H   0  0  0  0  0  0  0  0  0  0  0  0
    3.2427   -3.6743    0.7254 H   0  0  0  0  0  0  0  0  0  0  0  0
    3.5090   -4.2840   -0.9339 H   0  0  0  0  0  0  0  0  0  0  0  0
    2.7648   -1.0416    1.9440 C   0  0  0  0  0  0  0  0  0  0  0  0
    2.1831   -1.9639    2.1531 H   0  0  0  0  0  0  0  0  0  0  0  0
    2.1557    0.1115    2.7509 C   0  0  0  0  0  0  0  0  0  0  0  0
    2.2714   -0.0866    3.8356 H   0  0  0  0  0  0  0  0  0  0  0  0
    1.0734    0.2305    2.5393 H   0  0  0  0  0  0  0  0  0  0  0  0
    2.6622    1.0739    2.5295 H   0  0  0  0  0  0  0  0  0  0  0  0
    4.2401   -1.2708    2.2765 C   0  0  0  0  0  0  0  0  0  0  0  0
    4.8429   -0.3520    2.1352 H   0  0  0  0  0  0  0  0  0  0  0  0
    4.6957   -2.0841    1.6777 H   0  0  0  0  0  0  0  0  0  0  0  0
    4.3283   -1.5618    3.3435 H   0  0  0  0  0  0  0  0  0  0  0  0
   -3.0296   -2.0894   -1.3265 C   0  0  0  0  0  0  0  0  0  0  0  0
   -4.1375   -2.0125   -1.2768 H   0  0  0  0  0  0  0  0  0  0  0  0
   -2.5710   -1.6450   -2.7213 C   0  0  0  0  0  0  0  0  0  0  0  0
   -1.4643   -1.6945   -2.8029 H   0  0  0  0  0  0  0  0  0  0  0  0
   -2.9036   -0.6151   -2.9644 H   0  0  0  0  0  0  0  0  0  0  0  0
   -2.9915   -2.3210   -3.4927 H   0  0  0  0  0  0  0  0  0  0  0  0
   -2.6258   -3.5328   -1.0156 C   0  0  0  0  0  0  0  0  0  0  0  0
   -3.0729   -4.2052   -1.7758 H   0  0  0  0  0  0  0  0  0  0  0  0
   -2.9795   -3.8677   -0.0215 H   0  0  0  0  0  0  0  0  0  0  0  0
   -1.5268   -3.6603   -1.0379 H   0  0  0  0  0  0  0  0  0  0  0  0
   -2.9576   -1.3827    1.6510 C   0  0  0  0  0  0  0  0  0  0  0  0
   -2.3647   -2.3088    1.8015 H   0  0  0  0  0  0  0  0  0  0  0  0
   -2.4746   -0.3295    2.6560 C   0  0  0  0  0  0  0  0  0  0  0  0
   -2.9624    0.6533    2.4908 H   0  0  0  0  0  0  0  0  0  0  0  0
   -1.3765   -0.1896    2.5965 H   0  0  0  0  0  0  0  0  0  0  0  0
   -2.7182   -0.6580    3.6865 H   0  0  0  0  0  0  0  0  0  0  0  0
   -4.4483   -1.6948    1.7910 C   0  0  0  0  0  0  0  0  0  0  0  0
   -4.6271   -2.1353    2.7935 H   0  0  0  0  0  0  0  0  0  0  0  0
   -4.8075   -2.4303    1.0439 H   0  0  0  0  0  0  0  0  0  0  0  0
   -5.0728   -0.7829    1.7181 H   0  0  0  0  0  0  0  0  0  0  0  0
  1 65  1  0  0  0  0
  2 45  1  0  0  0  0
  4  3  1  0  0  0  0
  5  6  1  0  0  0  0
  7  3  1  6  0  0  0
  7 13  1  0  0  0  0
  7  8  1  0  0  0  0
  8  9  2  0  0  0  0
  9 11  1  0  0  0  0
  9 10  1  0  0  0  0
 11  5  1  0  0  0  0
 12 25  1  0  0  0  0
 12 11  2  0  0  0  0
 13 12  1  0  0  0  0
 14 13  1  0  0  0  0
 15  8  1  0  0  0  0
 15 24  1  0  0  0  0
 16 15  2  0  0  0  0
 17 16  1  0  0  0  0
 18 20  2  0  0  0  0
 18 16  1  0  0  0  0
 19 18  1  0  0  0  0
 20 22  1  0  0  0  0
 21 20  1  0  0  0  0
 22 23  1  0  0  0  0
 22 24  2  0  0  0  0
 24  2  1  0  0  0  0
 25 33  1  0  0  0  0
 26 25  2  0  0  0  0
 26  1  1  0  0  0  0
 27 29  2  0  0  0  0
 27 26  1  0  0  0  0
 28 27  1  0  0  0  0
 29 31  1  0  0  0  0
 30 29  1  0  0  0  0
 31 32  1  0  0  0  0
 31 33  2  0  0  0  0
 33 34  1  0  0  0  0
 35 36  1  0  0  0  0
 35 41  1  0  0  0  0
 35  2  1  0  0  0  0
 37 35  1  0  0  0  0
 38 37  1  0  0  0  0
 39 37  1  0  0  0  0
 40 37  1  0  0  0  0
 41 43  1  0  0  0  0
 42 41  1  0  0  0  0
 44 41  1  0  0  0  0
 45 46  1  0  0  0  0
 45 51  1  0  0  0  0
 45 47  1  0  0  0  0
 47 48  1  0  0  0  0
 49 47  1  0  0  0  0
 50 47  1  0  0  0  0
 51 54  1  0  0  0  0
 52 51  1  0  0  0  0
 53 51  1  0  0  0  0
 55 56  1  0  0  0  0
 55 61  1  0  0  0  0
 55  1  1  0  0  0  0
 57 55  1  0  0  0  0
 58 57  1  0  0  0  0
 59 57  1  0  0  0  0
 60 57  1  0  0  0  0
 61 63  1  0  0  0  0
 62 61  1  0  0  0  0
 64 61  1  0  0  0  0
 65 71  1  0  0  0  0
 65 66  1  0  0  0  0
 65 67  1  0  0  0  0
 67 70  1  0  0  0  0
 68 67  1  0  0  0  0
 69 67  1  0  0  0  0
 71 72  1  0  0  0  0
 73 71  1  0  0  0  0
 74 71  1  0  0  0  0
M  END
