1,7
q = -1.0, confidence = 0.0

 38 39  0  0  0  0  0  0  0  0999 V2000
   -0.3222    1.2833   -1.2794 P   0  0  0  0  0  0  0  0  0  0  0  0
    0.7476    2.1068   -2.3063 N   0  0  0  0  0  0  0  0  0  0  0  0
    0.4055    2.6997   -3.0659 H   0  0  0  0  0  0  0  0  0  0  0  0
    2.1392    1.6427   -2.3620 C   0  0  0  0  0  0  0  0  0  0  0  0
    2.7777    2.4997   -2.6740 H   0  0  0  0  0  0  0  0  0  0  0  0
    2.2735    0.8349   -3.1205 H   0  0  0  0  0  0  0  0  0  0  0  0
    2.6009    1.1372   -0.9854 C   0  0  0  0  0  3  0  0  0  0  0  0
    3.4736    0.4664   -1.1366 H   0  0  0  0  0  0  0  0  0  0  0  0
    3.0008    2.3019   -0.0767 C   0  0  0  0  0  0  0  0  0  0  0  0
    2.1454    2.9989    0.0431 H   0  0  0  0  0  0  0  0  0  0  0  0
    3.2765    1.9255    0.9382 H   0  0  0  0  0  0  0  0  0  0  0  0
    4.0674    3.1103   -0.5922 O   0  0  0  0  0  0  0  0  0  0  0  0
    5.3309    2.5042   -0.4965 C   0  0  0  0  0  0  0  0  0  0  0  0
    5.5818    2.2225    0.5577 H   0  0  0  0  0  0  0  0  0  0  0  0
    6.0844    3.2362   -0.8508 H   0  0  0  0  0  0  0  0  0  0  0  0
    5.4289    1.5802   -1.1169 H   0  0  0  0  0  0  0  0  0  0  0  0
   -1.5220    0.3879   -2.3511 C   0  0  0  0  0  0  0  0  0  0  0  0
   -1.0608   -0.1542   -3.5689 C   0  0  0  0  0  0  0  0  0  0  0  0
   -0.0375    0.0732   -3.9058 H   0  0  0  0  0  0  0  0  0  0  0  0
   -1.8938   -0.9791   -4.3394 C   0  0  0  0  0  0  0  0  0  0  0  0
   -1.5233   -1.3960   -5.2886 H   0  0  0  0  0  0  0  0  0  0  0  0
   -3.1960   -1.2729   -3.9020 C   0  0  0  0  0  0  0  0  0  0  0  0
   -3.8476   -1.9240   -4.5042 H   0  0  0  0  0  0  0  0  0  0  0  0
   -3.6639   -0.7313   -2.6940 C   0  0  0  0  0  0  0  0  0  0  0  0
   -4.6837   -0.9572   -2.3468 H   0  0  0  0  0  0  0  0  0  0  0  0
   -2.8334    0.0943   -1.9228 C   0  0  0  0  0  0  0  0  0  0  0  0
   -3.2051    0.5194   -0.9787 H   0  0  0  0  0  0  0  0  0  0  0  0
   -1.3497    2.5539   -0.4404 C   0  0  0  0  0  0  0  0  0  0  0  0
   -2.3721    3.2699   -1.0967 C   0  0  0  0  0  0  0  0  0  0  0  0
   -2.6036    3.0574   -2.1524 H   0  0  0  0  0  0  0  0  0  0  0  0
   -3.1073    4.2416   -0.4016 C   0  0  0  0  0  0  0  0  0  0  0  0
   -3.9042    4.7988   -0.9178 H   0  0  0  0  0  0  0  0  0  0  0  0
   -2.8313    4.4997    0.9519 C   0  0  0  0  0  0  0  0  0  0  0  0
   -3.4153    5.2577    1.4963 H   0  0  0  0  0  0  0  0  0  0  0  0
   -1.8153    3.7886    1.6100 C   0  0  0  0  0  0  0  0  0  0  0  0
   -1.6037    3.9780    2.6728 H   0  0  0  0  0  0  0  0  0  0  0  0
   -1.0757    2.8201    0.9164 C   0  0  0  0  0  0  0  0  0  0  0  0
   -0.2845    2.2428    1.4216 H   0  0  0  0  0  0  0  0  0  0  0  0
  1 28  1  0  0  0  0
  2  1  1  0  0  0  0
  3  2  1  0  0  0  0
  4  2  1  0  0  0  0
  4  7  1  0  0  0  0
  5  4  1  0  0  0  0
  6  4  1  0  0  0  0
  7  9  1  0  0  0  0
  8  7  1  0  0  0  0
  9 10  1  0  0  0  0
  9 11  1  0  0  0  0
 12 13  1  0  0  0  0
 12  9  1  0  0  0  0
 13 14  1  0  0  0  0
 15 13  1  0  0  0  0
 16 13  1  0  0  0  0
 17 26  1  0  0  0  0
 17  1  1  0  0  0  0
 18 17  2  0  0  0  0
 19 18  1  0  0  0  0
 20 22  2  0  0  0  0
 20 18  1  0  0  0  0
 21 20  1  0  0  0  0
 22 24  1  0  0  0  0
 23 22  1  0  0  0  0
 24 25  1  0  0  0  0
 24 26  2  0  0  0  0
 26 27  1  0  0  0  0
 28 37  1  0  0  0  0
 29 28  2  0  0  0  0
 29 31  1  0  0  0  0
 30 29  1  0  0  0  0
 31 33  2  0  0  0  0
 32 31  1  0  0  0  0
 33 34  1  0  0  0  0
 33 35  1  0  0  0  0
 35 36  1  0  0  0  0
 37 38  1  0  0  0  0
 37 35  2  0  0  0  0
M  END
