1,2
q = -1.0, confidence = 0.002

 51 54  0  0  1  0  0  0  0  0999 V2000
    1.1175   -1.0758   -0.1214 P   0  0  0  0  0  0  0  0  0  0  0  0
   -1.4077   -0.3117   -0.6946 C   0  0  0  0  0  3  0  0  0  0  0  0
   -2.7655    0.0103   -0.3439 C   0  0  0  0  0  0  0  0  0  0  0  0
   -3.1378    1.1470    0.4356 C   0  0  0  0  0  0  0  0  0  0  0  0
   -2.3489    1.8363    0.7571 H   0  0  0  0  0  0  0  0  0  0  0  0
   -4.4588    1.4020    0.7622 C   0  0  0  0  0  0  0  0  0  0  0  0
   -4.7029    2.2930    1.3625 H   0  0  0  0  0  0  0  0  0  0  0  0
   -5.5144    0.5452    0.3304 C   0  0  0  0  0  0  0  0  0  0  0  0
   -6.9426    0.8654    0.6883 C   0  0  0  0  0  0  0  0  0  0  0  0
   -7.2481    1.8487    0.2720 H   0  0  0  0  0  0  0  0  0  0  0  0
   -7.0767    0.9328    1.7887 H   0  0  0  0  0  0  0  0  0  0  0  0
   -7.6448    0.1001    0.3044 H   0  0  0  0  0  0  0  0  0  0  0  0
   -5.1769   -0.5757   -0.4183 C   0  0  0  0  0  0  0  0  0  0  0  0
   -5.9671   -1.2658   -0.7579 H   0  0  0  0  0  0  0  0  0  0  0  0
   -3.8265   -0.8807   -0.7594 C   0  0  0  0  0  0  0  0  0  0  0  0
   -3.5070   -2.0627   -1.4830 C   0  0  0  0  0  0  0  0  0  0  0  0
   -4.3298   -2.7244   -1.7994 H   0  0  0  0  0  0  0  0  0  0  0  0
   -2.1955   -2.4139   -1.7712 C   0  0  0  0  0  0  0  0  0  0  0  0
   -1.8894   -3.7082   -2.4864 C   0  0  0  0  0  0  0  0  0  0  0  0
   -2.8212   -4.2273   -2.7825 H   0  0  0  0  0  0  0  0  0  0  0  0
   -1.3094   -4.4109   -1.8481 H   0  0  0  0  0  0  0  0  0  0  0  0
   -1.2857   -3.5498   -3.4042 H   0  0  0  0  0  0  0  0  0  0  0  0
   -1.1440   -1.5284   -1.3553 C   0  0  0  0  0  0  0  0  0  0  0  0
    0.3082   -1.9172   -1.5769 C   0  0  1  0  0  0  0  0  0  0  0  0
    0.4633   -3.0138   -1.4918 H   0  0  0  0  0  0  0  0  0  0  0  0
    0.8792   -1.4301   -2.9166 C   0  0  0  0  0  0  0  0  0  0  0  0
    0.2901   -1.8657   -3.7483 H   0  0  0  0  0  0  0  0  0  0  0  0
    1.9388   -1.7242   -3.0544 H   0  0  0  0  0  0  0  0  0  0  0  0
    0.7950   -0.3270   -2.9933 H   0  0  0  0  0  0  0  0  0  0  0  0
    0.7394   -2.0740    1.3685 C   0  0  0  0  0  0  0  0  0  0  0  0
   -0.1905   -3.1322    1.3601 C   0  0  0  0  0  0  0  0  0  0  0  0
   -0.7099   -3.4086    0.4323 H   0  0  0  0  0  0  0  0  0  0  0  0
   -0.4870   -3.8180    2.5483 C   0  0  0  0  0  0  0  0  0  0  0  0
   -1.2198   -4.6387    2.5304 H   0  0  0  0  0  0  0  0  0  0  0  0
    0.1365   -3.4564    3.7518 C   0  0  0  0  0  0  0  0  0  0  0  0
   -0.1015   -3.9953    4.6812 H   0  0  0  0  0  0  0  0  0  0  0  0
    1.0582   -2.3964    3.7684 C   0  0  0  0  0  0  0  0  0  0  0  0
    1.5452   -2.1009    4.7100 H   0  0  0  0  0  0  0  0  0  0  0  0
    1.3527   -1.7049    2.5860 C   0  0  0  0  0  0  0  0  0  0  0  0
    2.0704   -0.8693    2.6070 H   0  0  0  0  0  0  0  0  0  0  0  0
    2.9366   -1.2323   -0.3335 C   0  0  0  0  0  0  0  0  0  0  0  0
    3.6997   -2.2343    0.3017 C   0  0  0  0  0  0  0  0  0  0  0  0
    3.2144   -2.9379    0.9941 H   0  0  0  0  0  0  0  0  0  0  0  0
    5.0774   -2.3340    0.0542 C   0  0  0  0  0  0  0  0  0  0  0  0
    5.6648   -3.1170    0.5574 H   0  0  0  0  0  0  0  0  0  0  0  0
    5.7053   -1.4436   -0.8315 C   0  0  0  0  0  0  0  0  0  0  0  0
    6.7864   -1.5245   -1.0209 H   0  0  0  0  0  0  0  0  0  0  0  0
    4.9497   -0.4513   -1.4770 C   0  0  0  0  0  0  0  0  0  0  0  0
    5.4342    0.2450   -2.1784 H   0  0  0  0  0  0  0  0  0  0  0  0
    3.5741   -0.3446   -1.2271 C   0  0  0  0  0  0  0  0  0  0  0  0
    2.9762    0.4274   -1.7342 H   0  0  0  0  0  0  0  0  0  0  0  0
  1 30  1  0  0  0  0
  2  3  1  0  0  0  0
  3  4  1  0  0  0  0
  4  5  1  0  0  0  0
  4  6  2  0  0  0  0
  6  7  1  0  0  0  0
  8  9  1  0  0  0  0
  8  6  1  0  0  0  0
  9 11  1  0  0  0  0
 10  9  1  0  0  0  0
 12  9  1  0  0  0  0
 13  8  2  0  0  0  0
 14 13  1  0  0  0  0
 15 13  1  0  0  0  0
 15  3  2  0  0  0  0
 16 15  1  0  0  0  0
 17 16  1  0  0  0  0
 18 16  2  0  0  0  0
 18 23  1  0  0  0  0
 19 21  1  0  0  0  0
 19 18  1  0  0  0  0
 20 19  1  0  0  0  0
 22 19  1  0  0  0  0
 23  2  2  0  0  0  0
 24 25  1  1  0  0  0
 24 23  1  0  0  0  0
 24  1  1  0  0  0  0
 26 24  1  0  0  0  0
 27 26  1  0  0  0  0
 28 26  1  0  0  0  0
 29 26  1  0  0  0  0
 30 39  1  0  0  0  0
 31 30  2  0  0  0  0
 31 33  1  0  0  0  0
 32 31  1  0  0  0  0
 33 35  2  0  0  0  0
 34 33  1  0  0  0  0
 35 37  1  0  0  0  0
 35 36  1  0  0  0  0
 37 38  1  0  0  0  0
 39 40  1  0  0  0  0
 39 37  2  0  0  0  0
 41  1  1  0  0  0  0
 41 42  1  0  0  0  0
 42 43  1  0  0  0  0
 44 42  2  0  0  0  0
 44 45  1  0  0  0  0
 46 44  1  0  0  0  0
 47 46  1  0  0  0  0
 48 50  1  0  0  0  0
 48 46  2  0  0  0  0
 49 48  1  0  0  0  0
 50 41  2  0  0  0  0
 51 50  1  0  0  0  0
M  END
