1,35
q = -1.0, confidence = 0.0

 49 52  0  0  0  0  0  0  0  0999 V2000
   -1.5142   -0.4691    0.0644 P   0  0  0  0  0  0  0  0  0  0  0  0
    2.6241   -0.8034   -0.1618 N   0  0  0  0  0  0  0  0  0  0  0  0
   -2.3528   -1.0011    1.6250 C   0  0  0  0  0  0  0  0  0  0  0  0
   -1.8726   -0.4908    2.8452 C   0  0  0  0  0  0  0  0  0  0  0  0
   -1.0343    0.2234    2.8256 H   0  0  0  0  0  0  0  0  0  0  0  0
   -2.4459   -0.8979    4.0607 C   0  0  0  0  0  0  0  0  0  0  0  0
   -2.0619   -0.4933    5.0096 H   0  0  0  0  0  0  0  0  0  0  0  0
   -3.5017   -1.8217    4.0637 C   0  0  0  0  0  0  0  0  0  0  0  0
   -3.9515   -2.1434    5.0154 H   0  0  0  0  0  0  0  0  0  0  0  0
   -3.9824   -2.3407    2.8487 C   0  0  0  0  0  0  0  0  0  0  0  0
   -4.8067   -3.0703    2.8485 H   0  0  0  0  0  0  0  0  0  0  0  0
   -3.4115   -1.9344    1.6347 C   0  0  0  0  0  0  0  0  0  0  0  0
   -3.7931   -2.3444    0.6873 H   0  0  0  0  0  0  0  0  0  0  0  0
   -2.9236   -0.0402   -1.0400 C   0  0  0  0  0  0  0  0  0  0  0  0
   -4.1560    0.4365   -0.5476 C   0  0  0  0  0  0  0  0  0  0  0  0
   -4.3492    0.4395    0.5360 H   0  0  0  0  0  0  0  0  0  0  0  0
   -5.1439    0.8996   -1.4326 C   0  0  0  0  0  0  0  0  0  0  0  0
   -6.1007    1.2709   -1.0345 H   0  0  0  0  0  0  0  0  0  0  0  0
   -4.9161    0.8835   -2.8172 C   0  0  0  0  0  0  0  0  0  0  0  0
   -5.6920    1.2435   -3.5096 H   0  0  0  0  0  0  0  0  0  0  0  0
   -3.6925    0.4022   -3.3156 C   0  0  0  0  0  0  0  0  0  0  0  0
   -3.5067    0.3852   -4.4004 H   0  0  0  0  0  0  0  0  0  0  0  0
   -2.7002   -0.0489   -2.4355 C   0  0  0  0  0  0  0  0  0  0  0  0
   -1.7338   -0.4020   -2.8276 H   0  0  0  0  0  0  0  0  0  0  0  0
   -0.8384   -2.0053   -0.6757 C   0  0  0  0  0  0  0  0  0  0  0  0
    0.5713   -2.0413   -0.5920 C   0  0  0  0  0  0  0  0  0  0  0  0
    1.2572   -3.0869   -1.2408 C   0  0  0  0  0  0  0  0  0  0  0  0
    2.3563   -3.1023   -1.2015 H   0  0  0  0  0  0  0  0  0  0  0  0
    0.5452   -4.0801   -1.9309 C   0  0  0  0  0  0  0  0  0  0  0  0
    1.0932   -4.8862   -2.4431 H   0  0  0  0  0  0  0  0  0  0  0  0
   -0.8595   -4.0532   -1.9763 C   0  0  0  0  0  0  0  0  0  0  0  0
   -1.4120   -4.8328   -2.5225 H   0  0  0  0  0  0  0  0  0  0  0  0
   -1.5557   -3.0094   -1.3464 C   0  0  0  0  0  0  0  0  0  0  0  0
   -2.6529   -2.9533   -1.4201 H   0  0  0  0  0  0  0  0  0  0  0  0
    1.2815   -1.0051    0.2404 C   0  0  0  0  0  3  0  0  0  0  0  0
    1.1883   -1.3019    1.3161 H   0  0  0  0  0  0  0  0  0  0  0  0
    3.5552   -0.6535    0.7163 C   0  0  0  0  0  0  0  0  0  0  0  0
    3.3388   -0.7001    1.8132 H   0  0  0  0  0  0  0  0  0  0  0  0
    4.9507   -0.3917    0.3444 C   0  0  0  0  0  0  0  0  0  0  0  0
    5.3273   -0.2307   -1.0104 C   0  0  0  0  0  0  0  0  0  0  0  0
    4.5384   -0.2962   -1.7746 H   0  0  0  0  0  0  0  0  0  0  0  0
    6.6617    0.0125   -1.3479 C   0  0  0  0  0  0  0  0  0  0  0  0
    6.9450    0.1386   -2.4044 H   0  0  0  0  0  0  0  0  0  0  0  0
    7.6442    0.1012   -0.3433 C   0  0  0  0  0  0  0  0  0  0  0  0
    8.6939    0.2944   -0.6129 H   0  0  0  0  0  0  0  0  0  0  0  0
    7.2805   -0.0528    1.0041 C   0  0  0  0  0  0  0  0  0  0  0  0
    8.0445    0.0190    1.7934 H   0  0  0  0  0  0  0  0  0  0  0  0
    5.9428   -0.2960    1.3454 C   0  0  0  0  0  0  0  0  0  0  0  0
    5.6525   -0.4142    2.4018 H   0  0  0  0  0  0  0  0  0  0  0  0
  1  3  1  0  0  0  0
  2 35  1  0  0  0  0
  2 37  2  0  0  0  0
  3 12  2  0  0  0  0
  3  4  1  0  0  0  0
  4  6  2  0  0  0  0
  5  4  1  0  0  0  0
  6  8  1  0  0  0  0
  6  7  1  0  0  0  0
  8  9  1  0  0  0  0
 10  8  2  0  0  0  0
 11 10  1  0  0  0  0
 12 10  1  0  0  0  0
 13 12  1  0  0  0  0
 14 15  1  0  0  0  0
 14  1  1  0  0  0  0
 15 16  1  0  0  0  0
 17 18  1  0  0  0  0
 17 15  2  0  0  0  0
 19 17  1  0  0  0  0
 20 19  1  0  0  0  0
 21 19  2  0  0  0  0
 21 23  1  0  0  0  0
 22 21  1  0  0  0  0
 23 14  2  0  0  0  0
 24 23  1  0  0  0  0
 25 26  1  0  0  0  0
 25  1  1  0  0  0  0
 26 35  1  0  0  0  0
 27 28  1  0  0  0  0
 27 26  2  0  0  0  0
 29 27  1  0  0  0  0
 30 29  1  0  0  0  0
 31 29  2  0  0  0  0
 31 33  1  0  0  0  0
 32 31  1  0  0  0  0
 33 25  2  0  0  0  0
 34 33  1  0  0  0  0
 35 36  1  0  0  0  0
 37 38  1  0  0  0  0
 39 37  1  0  0  0  0
 39 48  1  0  0  0  0
 40 39  2  0  0  0  0
 41 40  1  0  0  0  0
 42 40  1  0  0  0  0
 42 44  2  0  0  0  0
 43 42  1  0  0  0  0
 44 46  1  0  0  0  0
 45 44  1  0  0  0  0
 46 48  2  0  0  0  0
 46 47  1  0  0  0  0
 48 49  1  0  0  0  0
M  END
