1,2
q = 0.0, confidence = 1.0

 54 55  0  0  0  0  0  0  0  0999 V2000
    2.1229    0.2803    0.0434 P   0  0  0  0  0  0  0  0  0  0  0  0
   -0.3312    0.6178    0.0265 C   0  0  0  0  0  2  0  0  0  0  0  0
   -1.4071    1.4295    0.2580 N   0  0  0  0  0  0  0  0  0  0  0  0
   -0.9906    2.7259    0.5925 C   0  0  0  0  0  0  0  0  0  0  0  0
   -1.7094    3.5191    0.8209 H   0  0  0  0  0  0  0  0  0  0  0  0
    0.3827    2.7345    0.5673 C   0  0  0  0  0  0  0  0  0  0  0  0
    1.0882    3.5450    0.7712 H   0  0  0  0  0  0  0  0  0  0  0  0
    0.7621    1.4454    0.2086 N   0  0  0  0  0  0  0  0  0  0  0  0
    3.1394    1.0360   -1.3738 C   0  0  0  0  0  0  0  0  0  0  0  0
    3.4321    2.5378   -1.2468 C   0  0  0  0  0  0  0  0  0  0  0  0
    4.0644    2.7840   -0.3745 H   0  0  0  0  0  0  0  0  0  0  0  0
    2.4978    3.1299   -1.1857 H   0  0  0  0  0  0  0  0  0  0  0  0
    3.9732    2.8802   -2.1553 H   0  0  0  0  0  0  0  0  0  0  0  0
    4.4418    0.2243   -1.4893 C   0  0  0  0  0  0  0  0  0  0  0  0
    5.1478    0.4438   -0.6638 H   0  0  0  0  0  0  0  0  0  0  0  0
    4.9528    0.4827   -2.4409 H   0  0  0  0  0  0  0  0  0  0  0  0
    4.2438   -0.8674   -1.5018 H   0  0  0  0  0  0  0  0  0  0  0  0
    2.2697    0.7912   -2.6239 C   0  0  0  0  0  0  0  0  0  0  0  0
    2.0217   -0.2820   -2.7442 H   0  0  0  0  0  0  0  0  0  0  0  0
    2.8181    1.1406   -3.5247 H   0  0  0  0  0  0  0  0  0  0  0  0
    1.3116    1.3455   -2.5672 H   0  0  0  0  0  0  0  0  0  0  0  0
    2.9894    0.3755    1.7337 C   0  0  0  0  0  0  0  0  0  0  0  0
    3.7872    1.6526    2.0210 C   0  0  0  0  0  0  0  0  0  0  0  0
    3.1641    2.5650    1.9312 H   0  0  0  0  0  0  0  0  0  0  0  0
    4.6640    1.7596    1.3531 H   0  0  0  0  0  0  0  0  0  0  0  0
    4.1715    1.6189    3.0633 H   0  0  0  0  0  0  0  0  0  0  0  0
    1.8575    0.2114    2.7679 C   0  0  0  0  0  0  0  0  0  0  0  0
    1.2090    1.1084    2.8198 H   0  0  0  0  0  0  0  0  0  0  0  0
    2.3046    0.0519    3.7717 H   0  0  0  0  0  0  0  0  0  0  0  0
    1.2173   -0.6617    2.5227 H   0  0  0  0  0  0  0  0  0  0  0  0
    3.8998   -0.8681    1.7978 C   0  0  0  0  0  0  0  0  0  0  0  0
    3.3320   -1.7915    1.5649 H   0  0  0  0  0  0  0  0  0  0  0  0
    4.3129   -0.9662    2.8240 H   0  0  0  0  0  0  0  0  0  0  0  0
    4.7552   -0.8035    1.0984 H   0  0  0  0  0  0  0  0  0  0  0  0
   -2.7740    0.9921    0.2113 C   0  0  0  0  0  0  0  0  0  0  0  0
   -3.5445    1.2866   -0.9320 C   0  0  0  0  0  0  0  0  0  0  0  0
   -4.8782    0.8400   -0.9545 C   0  0  0  0  0  0  0  0  0  0  0  0
   -5.4950    1.0575   -1.8411 H   0  0  0  0  0  0  0  0  0  0  0  0
   -5.4356    0.1124    0.1124 C   0  0  0  0  0  0  0  0  0  0  0  0
   -4.6225   -0.1722    1.2266 C   0  0  0  0  0  0  0  0  0  0  0  0
   -5.0387   -0.7534    2.0652 H   0  0  0  0  0  0  0  0  0  0  0  0
   -3.2855    0.2520    1.3001 C   0  0  0  0  0  0  0  0  0  0  0  0
   -2.9358    2.0140   -2.1028 C   0  0  0  0  0  0  0  0  0  0  0  0
   -3.6572    2.1004   -2.9368 H   0  0  0  0  0  0  0  0  0  0  0  0
   -2.0380    1.4758   -2.4727 H   0  0  0  0  0  0  0  0  0  0  0  0
   -2.6022    3.0372   -1.8314 H   0  0  0  0  0  0  0  0  0  0  0  0
   -6.8586   -0.3842    0.0579 C   0  0  0  0  0  0  0  0  0  0  0  0
   -7.4222    0.0760   -0.7765 H   0  0  0  0  0  0  0  0  0  0  0  0
   -7.4005   -0.1682    1.0011 H   0  0  0  0  0  0  0  0  0  0  0  0
   -6.8887   -1.4853   -0.0849 H   0  0  0  0  0  0  0  0  0  0  0  0
   -2.4036   -0.1122    2.4640 C   0  0  0  0  0  0  0  0  0  0  0  0
   -1.6284   -0.8400    2.1393 H   0  0  0  0  0  0  0  0  0  0  0  0
   -2.9907   -0.5653    3.2846 H   0  0  0  0  0  0  0  0  0  0  0  0
   -1.8614    0.7693    2.8633 H   0  0  0  0  0  0  0  0  0  0  0  0
  1  8  1  0  0  0  0
  1 22  1  0  0  0  0
  2  8  1  0  0  0  0
  2  3  1  0  0  0  0
  3  4  1  0  0  0  0
  4  5  1  0  0  0  0
  6  4  2  0  0  0  0
  6  7  1  0  0  0  0
  8  6  1  0  0  0  0
  9 10  1  0  0  0  0
  9  1  1  0  0  0  0
 10 12  1  0  0  0  0
 10 11  1  0  0  0  0
 13 10  1  0  0  0  0
 14  9  1  0  0  0  0
 14 15  1  0  0  0  0
 16 14  1  0  0  0  0
 17 14  1  0  0  0  0
 18 21  1  0  0  0  0
 18  9  1  0  0  0  0
 19 18  1  0  0  0  0
 20 18  1  0  0  0  0
 22 31  1  0  0  0  0
 22 23  1  0  0  0  0
 22 27  1  0  0  0  0
 23 26  1  0  0  0  0
 24 23  1  0  0  0  0
 25 23  1  0  0  0  0
 27 28  1  0  0  0  0
 27 29  1  0  0  0  0
 30 27  1  0  0  0  0
 31 33  1  0  0  0  0
 32 31  1  0  0  0  0
 34 31  1  0  0  0  0
 35  3  1  0  0  0  0
 35 42  1  0  0  0  0
 36 35  2  0  0  0  0
 37 36  1  0  0  0  0
 37 39  2  0  0  0  0
 38 37  1  0  0  0  0
 39 40  1  0  0  0  0
 40 42  2  0  0  0  0
 40 41  1  0  0  0  0
 42 51  1  0  0  0  0
 43 46  1  0  0  0  0
 43 36  1  0  0  0  0
 44 43  1  0  0  0  0
 45 43  1  0  0  0  0
 47 39  1  0  0  0  0
 47 49  1  0  0  0  0
 48 47  1  0  0  0  0
 50 47  1  0  0  0  0
 51 54  1  0  0  0  0
 51 53  1  0  0  0  0
 52 51  1  0  0  0  0
M  END
