1,14
q = 0.0, confidence = 0.994

 65 69  0  0  0  0  0  0  0  0999 V2000
    1.0420   -1.2169    0.5969 P   0  0  0  0  0  0  0  0  0  0  0  0
    0.6226    1.6970    0.4726 P   0  0  0  0  0  4  0  0  0  0  0  0
   -1.6603    0.4914    1.8025 O   0  0  0  0  0  0  0  0  0  0  0  0
    2.7991   -1.6804    0.3458 C   0  0  0  0  0  0  0  0  0  0  0  0
    1.2129    0.3735    1.5923 C   0  0  0  0  0  0  0  0  0  0  0  0
    2.2599    0.5529    1.9009 H   0  0  0  0  0  0  0  0  0  0  0  0
    0.5353    0.3562    2.4635 H   0  0  0  0  0  0  0  0  0  0  0  0
    0.3779    3.2329    1.4315 C   0  0  0  0  0  0  0  0  0  0  0  0
    1.9548    2.0192   -0.7195 C   0  0  0  0  0  0  0  0  0  0  0  0
   -3.2946    0.3852    0.0871 C   0  0  0  0  0  0  0  0  0  0  0  0
    3.2398    2.3105   -0.2120 C   0  0  0  0  0  0  0  0  0  0  0  0
    3.4098    2.3867    0.8734 H   0  0  0  0  0  0  0  0  0  0  0  0
    0.3301   -2.4485    1.7446 C   0  0  0  0  0  0  0  0  0  0  0  0
   -0.8353    1.0576   -0.3648 C   0  0  0  0  0  3  0  0  0  0  0  0
   -1.1543    1.6999   -1.2067 H   0  0  0  0  0  0  0  0  0  0  0  0
   -1.9019    0.6378    0.5882 C   0  0  0  0  0  0  0  0  0  0  0  0
    0.3227   -2.2897    3.1449 C   0  0  0  0  0  0  0  0  0  0  0  0
    0.7534   -1.3921    3.6130 H   0  0  0  0  0  0  0  0  0  0  0  0
   -0.2289   -3.6070    1.1623 C   0  0  0  0  0  0  0  0  0  0  0  0
   -0.2175   -3.7152    0.0640 H   0  0  0  0  0  0  0  0  0  0  0  0
    3.5006   -2.4139    1.3221 C   0  0  0  0  0  0  0  0  0  0  0  0
    2.9756   -2.7927    2.2125 H   0  0  0  0  0  0  0  0  0  0  0  0
    4.3128    2.4973   -1.0927 C   0  0  0  0  0  0  0  0  0  0  0  0
    5.3156    2.7099   -0.6937 H   0  0  0  0  0  0  0  0  0  0  0  0
   -0.7849   -4.5961    1.9851 C   0  0  0  0  0  0  0  0  0  0  0  0
   -1.2228   -5.4961    1.5280 H   0  0  0  0  0  0  0  0  0  0  0  0
   -3.6579    0.4314   -1.2752 C   0  0  0  0  0  0  0  0  0  0  0  0
   -2.8958    0.5907   -2.0571 H   0  0  0  0  0  0  0  0  0  0  0  0
   -5.9693   -0.0669   -0.6786 C   0  0  0  0  0  0  0  0  0  0  0  0
    3.4643   -1.2224   -0.8088 C   0  0  0  0  0  0  0  0  0  0  0  0
    2.9021   -0.6831   -1.5851 H   0  0  0  0  0  0  0  0  0  0  0  0
   -0.2393   -3.2847    3.9589 C   0  0  0  0  0  0  0  0  0  0  0  0
   -0.2466   -3.1549    5.0517 H   0  0  0  0  0  0  0  0  0  0  0  0
    1.7422    1.9330   -2.1107 C   0  0  0  0  0  0  0  0  0  0  0  0
    0.7572    1.6636   -2.5292 H   0  0  0  0  0  0  0  0  0  0  0  0
    5.5360   -2.2047    0.0059 C   0  0  0  0  0  0  0  0  0  0  0  0
    6.6079   -2.4148   -0.1298 H   0  0  0  0  0  0  0  0  0  0  0  0
   -4.2793    0.1001    1.0595 C   0  0  0  0  0  0  0  0  0  0  0  0
   -3.9663    0.0595    2.1126 H   0  0  0  0  0  0  0  0  0  0  0  0
   -0.7932   -4.4374    3.3806 C   0  0  0  0  0  0  0  0  0  0  0  0
   -1.2379   -5.2138    4.0215 H   0  0  0  0  0  0  0  0  0  0  0  0
   -0.3814    3.2082    2.6234 C   0  0  0  0  0  0  0  0  0  0  0  0
   -0.8131    2.2611    2.9777 H   0  0  0  0  0  0  0  0  0  0  0  0
    4.1065    2.3994   -2.4792 C   0  0  0  0  0  0  0  0  0  0  0  0
    4.9523    2.5350   -3.1703 H   0  0  0  0  0  0  0  0  0  0  0  0
   -4.9840    0.2055   -1.6560 C   0  0  0  0  0  0  0  0  0  0  0  0
   -5.2632    0.2285   -2.7189 H   0  0  0  0  0  0  0  0  0  0  0  0
    4.8686   -2.6751    1.1479 C   0  0  0  0  0  0  0  0  0  0  0  0
    5.4133   -3.2570    1.9069 H   0  0  0  0  0  0  0  0  0  0  0  0
   -0.6125    4.4001    3.3232 C   0  0  0  0  0  0  0  0  0  0  0  0
   -1.2034    4.3774    4.2511 H   0  0  0  0  0  0  0  0  0  0  0  0
    2.8259    2.1240   -2.9825 C   0  0  0  0  0  0  0  0  0  0  0  0
    2.6587    2.0358   -4.0661 H   0  0  0  0  0  0  0  0  0  0  0  0
    4.8324   -1.4798   -0.9700 C   0  0  0  0  0  0  0  0  0  0  0  0
    5.3472   -1.1225   -1.8745 H   0  0  0  0  0  0  0  0  0  0  0  0
    0.8816    4.4578    0.9438 C   0  0  0  0  0  0  0  0  0  0  0  0
    1.4649    4.4840    0.0117 H   0  0  0  0  0  0  0  0  0  0  0  0
   -0.1016    5.6169    2.8423 C   0  0  0  0  0  0  0  0  0  0  0  0
   -0.2872    6.5493    3.3966 H   0  0  0  0  0  0  0  0  0  0  0  0
   -5.6047   -0.1220    0.6892 C   0  0  0  0  0  0  0  0  0  0  0  0
   -6.3714   -0.3407    1.4461 H   0  0  0  0  0  0  0  0  0  0  0  0
   -8.4497   -0.4687   -1.3786 N   0  0  0  0  0  0  0  0  0  0  0  0
   -7.3318   -0.2897   -1.0664 C   0  0  0  0  0  0  0  0  0  0  0  0
    0.6402    5.6444    1.6514 C   0  0  0  0  0  0  0  0  0  0  0  0
    1.0362    6.5963    1.2672 H   0  0  0  0  0  0  0  0  0  0  0  0
  1  5  1  0  0  0  0
  1 13  1  0  0  0  0
  2  8  1  0  0  0  0
  2  5  1  0  0  0  0
  4  1  1  0  0  0  0
  4 21  1  0  0  0  0
  5  6  1  0  0  0  0
  5  7  1  0  0  0  0
  8 42  1  0  0  0  0
  9 11  1  0  0  0  0
  9  2  1  0  0  0  0
 10 16  1  0  0  0  0
 10 38  1  0  0  0  0
 11 12  1  0  0  0  0
 13 17  1  0  0  0  0
 14  2  1  0  0  0  0
 14 16  1  0  0  0  0
 15 14  1  0  0  0  0
 16  3  2  0  0  0  0
 17 18  1  0  0  0  0
 17 32  2  0  0  0  0
 19 13  2  0  0  0  0
 19 25  1  0  0  0  0
 20 19  1  0  0  0  0
 21 22  1  0  0  0  0
 23 24  1  0  0  0  0
 23 11  2  0  0  0  0
 25 40  2  0  0  0  0
 26 25  1  0  0  0  0
 27 10  2  0  0  0  0
 28 27  1  0  0  0  0
 29 60  1  0  0  0  0
 30  4  2  0  0  0  0
 31 30  1  0  0  0  0
 32 33  1  0  0  0  0
 34  9  2  0  0  0  0
 35 34  1  0  0  0  0
 36 48  1  0  0  0  0
 37 36  1  0  0  0  0
 38 39  1  0  0  0  0
 40 32  1  0  0  0  0
 40 41  1  0  0  0  0
 42 43  1  0  0  0  0
 42 50  2  0  0  0  0
 44 23  1  0  0  0  0
 45 44  1  0  0  0  0
 46 27  1  0  0  0  0
 46 29  2  0  0  0  0
 47 46  1  0  0  0  0
 48 21  2  0  0  0  0
 48 49  1  0  0  0  0
 50 51  1  0  0  0  0
 52 44  2  0  0  0  0
 52 34  1  0  0  0  0
 53 52  1  0  0  0  0
 54 30  1  0  0  0  0
 54 36  2  0  0  0  0
 55 54  1  0  0  0  0
 56  8  2  0  0  0  0
 56 64  1  0  0  0  0
 57 56  1  0  0  0  0
 58 50  1  0  0  0  0
 58 59  1  0  0  0  0
 60 38  2  0  0  0  0
 60 61  1  0  0  0  0
 62 63  3  0  0  0  0
 63 29  1  0  0  0  0
 64 58  2  0  0  0  0
 65 64  1  0  0  0  0
M  END
