4,19
q = -1.0, confidence = 0.0

 44 48  0  0  0  0  0  0  0  0999 V2000
    0.9462    2.6883    3.1850 S   0  0  0  0  0  0  0  0  0  0  0  0
    3.4787    1.6979    1.2838 S   0  0  0  0  0  0  0  0  0  0  0  0
    6.2769   -0.7997   -1.0518 S   0  0  0  0  0  0  0  0  0  0  0  0
    0.3520   -1.0884    0.1365 P   0  0  0  0  0  0  0  0  0  0  0  0
    0.1092   -2.1765    1.6064 C   0  0  0  0  0  0  0  0  0  0  0  0
    0.5548   -1.7754    2.8812 C   0  0  0  0  0  0  0  0  0  0  0  0
    0.2545   -2.5579    4.0079 C   0  0  0  0  0  0  0  0  0  0  0  0
   -0.4896   -3.7402    3.8716 C   0  0  0  0  0  0  0  0  0  0  0  0
   -0.9346   -4.1429    2.6013 C   0  0  0  0  0  0  0  0  0  0  0  0
   -0.6403   -3.3646    1.4731 C   0  0  0  0  0  0  0  0  0  0  0  0
    0.8501   -2.2909   -1.1729 C   0  0  0  0  0  0  0  0  0  0  0  0
    0.5218   -2.0378   -2.5185 C   0  0  0  0  0  0  0  0  0  0  0  0
    0.9562   -2.9039   -3.5339 C   0  0  0  0  0  0  0  0  0  0  0  0
    1.7247   -4.0326   -3.2121 C   0  0  0  0  0  0  0  0  0  0  0  0
    2.0598   -4.2910   -1.8722 C   0  0  0  0  0  0  0  0  0  0  0  0
    1.6269   -3.4272   -0.8560 C   0  0  0  0  0  0  0  0  0  0  0  0
   -0.7573    2.9315    3.3139 C   0  0  0  0  0  0  0  0  0  0  0  0
   -1.4509    2.2236    2.3475 C   0  0  0  0  0  0  0  0  0  0  0  0
   -0.6290    1.4495    1.4499 C   0  0  0  0  0  3  0  0  0  0  0  0
    0.7242    1.6243    1.7965 C   0  0  0  0  0  0  0  0  0  0  0  0
    1.8763    1.0017    1.1890 C   0  0  0  0  0  0  0  0  0  0  0  0
    1.9069   -0.1957    0.4579 C   0  0  0  0  0  0  0  0  0  0  0  0
    3.2086   -0.5348   -0.0131 C   0  0  0  0  0  0  0  0  0  0  0  0
    4.1889    0.3843    0.3545 C   0  0  0  0  0  0  0  0  0  0  0  0
    5.6057    0.3709    0.0689 C   0  0  0  0  0  0  0  0  0  0  0  0
    6.6130    1.1961    0.5681 C   0  0  0  0  0  0  0  0  0  0  0  0
    7.9024    0.8796    0.0556 C   0  0  0  0  0  0  0  0  0  0  0  0
    7.8782   -0.1811   -0.8315 C   0  0  0  0  0  0  0  0  0  0  0  0
    1.1378   -0.8496    2.9937 H   0  0  0  0  0  0  0  0  0  0  0  0
    0.6128   -2.2416    4.9991 H   0  0  0  0  0  0  0  0  0  0  0  0
   -0.7168   -4.3544    4.7560 H   0  0  0  0  0  0  0  0  0  0  0  0
   -1.5124   -5.0726    2.4869 H   0  0  0  0  0  0  0  0  0  0  0  0
   -0.9888   -3.6880    0.4801 H   0  0  0  0  0  0  0  0  0  0  0  0
   -0.0789   -1.1550   -2.7714 H   0  0  0  0  0  0  0  0  0  0  0  0
    0.6901   -2.6962   -4.5813 H   0  0  0  0  0  0  0  0  0  0  0  0
    2.0647   -4.7142   -4.0061 H   0  0  0  0  0  0  0  0  0  0  0  0
    2.6650   -5.1734   -1.6154 H   0  0  0  0  0  0  0  0  0  0  0  0
    1.8932   -3.6369    0.1907 H   0  0  0  0  0  0  0  0  0  0  0  0
   -1.1579    3.5888    4.0960 H   0  0  0  0  0  0  0  0  0  0  0  0
   -2.5478    2.2740    2.2860 H   0  0  0  0  0  0  0  0  0  0  0  0
    3.4320   -1.4361   -0.5996 H   0  0  0  0  0  0  0  0  0  0  0  0
    6.4188    1.9973    1.2951 H   0  0  0  0  0  0  0  0  0  0  0  0
    8.8226    1.4113    0.3326 H   0  0  0  0  0  0  0  0  0  0  0  0
    8.7156   -0.6389   -1.3719 H   0  0  0  0  0  0  0  0  0  0  0  0
  1 17  1  0  0  0  0
  3 28  1  0  0  0  0
  3 25  1  0  0  0  0
  4 22  1  0  0  0  0
  4  5  1  0  0  0  0
  5  6  1  0  0  0  0
  6 29  1  0  0  0  0
  6  7  2  0  0  0  0
  7 30  1  0  0  0  0
  8  7  1  0  0  0  0
  8 31  1  0  0  0  0
  9  8  2  0  0  0  0
 10  5  2  0  0  0  0
 10  9  1  0  0  0  0
 11 16  1  0  0  0  0
 11  4  1  0  0  0  0
 12 11  2  0  0  0  0
 13 14  2  0  0  0  0
 13 12  1  0  0  0  0
 14 15  1  0  0  0  0
 15 37  1  0  0  0  0
 15 16  2  0  0  0  0
 16 38  1  0  0  0  0
 17 39  1  0  0  0  0
 18 17  2  0  0  0  0
 19 20  2  0  0  0  0
 19 18  1  0  0  0  0
 20  1  1  0  0  0  0
 21  2  1  0  0  0  0
 21 20  1  0  0  0  0
 22 21  2  0  0  0  0
 23 24  2  0  0  0  0
 23 22  1  0  0  0  0
 24  2  1  0  0  0  0
 25 24  1  0  0  0  0
 25 26  2  0  0  0  0
 26 42  1  0  0  0  0
 27 43  1  0  0  0  0
 27 26  1  0  0  0  0
 28 27  2  0  0  0  0
 32  9  1  0  0  0  0
 33 10  1  0  0  0  0
 34 12  1  0  0  0  0
 35 13  1  0  0  0  0
 36 14  1  0  0  0  0
 40 18  1  0  0  0  0
 41 23  1  0  0  0  0
 44 28  1  0  0  0  0
M  END
