1,2
q = -1.0, confidence = 0.0

 36 38  0  0  0  0  0  0  0  0999 V2000
    1.2330    0.2567    1.3468 P   0  0  0  0  0  0  0  0  0  0  0  0
   -0.5374    2.1674    0.1901 C   0  0  0  0  0  3  0  0  0  0  0  0
   -1.1435    3.1081   -0.6729 C   0  0  0  0  0  0  0  0  0  0  0  0
   -1.6114    2.8093   -1.6232 H   0  0  0  0  0  0  0  0  0  0  0  0
   -1.1634    4.4710   -0.3503 C   0  0  0  0  0  0  0  0  0  0  0  0
   -0.5890    4.9708    0.8236 C   0  0  0  0  0  0  0  0  0  0  0  0
   -0.5999    6.0413    1.0646 H   0  0  0  0  0  0  0  0  0  0  0  0
    0.0045    4.0358    1.6784 C   0  0  0  0  0  0  0  0  0  0  0  0
    0.0320    2.6603    1.4027 C   0  0  0  0  0  0  0  0  0  0  0  0
    0.6756    1.6968    2.3703 C   0  0  0  0  0  0  0  0  0  0  0  0
   -0.0651    1.2955    3.0950 H   0  0  0  0  0  0  0  0  0  0  0  0
    1.4981    2.1478    2.9596 H   0  0  0  0  0  0  0  0  0  0  0  0
    1.6590   -1.0820    2.5302 C   0  0  0  0  0  0  0  0  0  0  0  0
    2.3670   -0.7789    3.7126 C   0  0  0  0  0  0  0  0  0  0  0  0
    2.6579    0.2595    3.9343 H   0  0  0  0  0  0  0  0  0  0  0  0
    2.7102   -1.8025    4.6063 C   0  0  0  0  0  0  0  0  0  0  0  0
    3.2574   -1.5605    5.5301 H   0  0  0  0  0  0  0  0  0  0  0  0
    2.3591   -3.1334    4.3224 C   0  0  0  0  0  0  0  0  0  0  0  0
    2.6297   -3.9350    5.0264 H   0  0  0  0  0  0  0  0  0  0  0  0
    1.6631   -3.4381    3.1430 C   0  0  0  0  0  0  0  0  0  0  0  0
    1.3842   -4.4783    2.9164 H   0  0  0  0  0  0  0  0  0  0  0  0
    1.3103   -2.4163    2.2476 C   0  0  0  0  0  0  0  0  0  0  0  0
    0.7519   -2.6447    1.3285 H   0  0  0  0  0  0  0  0  0  0  0  0
    2.8931    0.7492    0.7199 C   0  0  0  0  0  0  0  0  0  0  0  0
    3.3342    2.0871    0.7353 C   0  0  0  0  0  0  0  0  0  0  0  0
    2.7070    2.8755    1.1754 H   0  0  0  0  0  0  0  0  0  0  0  0
    4.5747    2.4252    0.1705 C   0  0  0  0  0  0  0  0  0  0  0  0
    4.9126    3.4725    0.1911 H   0  0  0  0  0  0  0  0  0  0  0  0
    5.3751    1.4375   -0.4220 C   0  0  0  0  0  0  0  0  0  0  0  0
    6.3445    1.7064   -0.8685 H   0  0  0  0  0  0  0  0  0  0  0  0
    4.9363    0.1028   -0.4425 C   0  0  0  0  0  0  0  0  0  0  0  0
    5.5586   -0.6771   -0.9069 H   0  0  0  0  0  0  0  0  0  0  0  0
    3.7042   -0.2417    0.1282 C   0  0  0  0  0  0  0  0  0  0  0  0
    3.3631   -1.2886    0.1107 H   0  0  0  0  0  0  0  0  0  0  0  0
   -1.7472    5.3423   -1.2028 F   0  0  0  0  0  0  0  0  0  0  0  0
    0.5906    4.4873    2.8169 F   0  0  0  0  0  0  0  0  0  0  0  0
  1 10  1  0  0  0  0
  1 13  1  0  0  0  0
  2  9  1  0  0  0  0
  3  5  1  0  0  0  0
  3  2  2  0  0  0  0
  4  3  1  0  0  0  0
  5  6  2  0  0  0  0
  6  7  1  0  0  0  0
  6  8  1  0  0  0  0
  8 36  1  0  0  0  0
  9  8  2  0  0  0  0
  9 10  1  0  0  0  0
 10 12  1  0  0  0  0
 10 11  1  0  0  0  0
 13 14  1  0  0  0  0
 14 15  1  0  0  0  0
 14 16  2  0  0  0  0
 16 17  1  0  0  0  0
 18 16  1  0  0  0  0
 18 19  1  0  0  0  0
 20 18  2  0  0  0  0
 21 20  1  0  0  0  0
 22 13  2  0  0  0  0
 22 20  1  0  0  0  0
 23 22  1  0  0  0  0
 24 25  1  0  0  0  0
 24  1  1  0  0  0  0
 25 26  1  0  0  0  0
 27 28  1  0  0  0  0
 27 25  2  0  0  0  0
 29 27  1  0  0  0  0
 30 29  1  0  0  0  0
 31 29  2  0  0  0  0
 31 33  1  0  0  0  0
 32 31  1  0  0  0  0
 33 24  2  0  0  0  0
 34 33  1  0  0  0  0
 35  5  1  0  0  0  0
M  END
