1,40
q = 0.0, confidence = 0.998

 60 65  0  0  1  0  0  0  0  0999 V2000
   -1.0019   -1.1598    0.2152 P   0  0  0  0  0  0  0  0  0  0  0  0
   -1.7629   -2.0374   -1.1873 C   0  0  0  0  0  0  0  0  0  0  0  0
   -3.0578   -1.6407   -1.5920 C   0  0  0  0  0  0  0  0  0  0  0  0
   -3.5856   -0.8504   -1.0356 H   0  0  0  0  0  0  0  0  0  0  0  0
   -3.6538   -2.2498   -2.7039 C   0  0  0  0  0  0  0  0  0  0  0  0
   -4.6632   -1.9450   -3.0179 H   0  0  0  0  0  0  0  0  0  0  0  0
   -2.9641   -3.2452   -3.4180 C   0  0  0  0  0  0  0  0  0  0  0  0
   -3.4367   -3.7228   -4.2894 H   0  0  0  0  0  0  0  0  0  0  0  0
   -1.6737   -3.6312   -3.0209 C   0  0  0  0  0  0  0  0  0  0  0  0
   -1.1355   -4.4129   -3.5779 H   0  0  0  0  0  0  0  0  0  0  0  0
   -1.0662   -3.0278   -1.9088 C   0  0  0  0  0  0  0  0  0  0  0  0
   -0.0521   -3.3236   -1.6029 H   0  0  0  0  0  0  0  0  0  0  0  0
   -2.0626   -1.4299    1.6701 C   0  0  0  0  0  0  0  0  0  0  0  0
   -2.9920   -2.4881    1.7249 C   0  0  0  0  0  0  0  0  0  0  0  0
   -3.1262   -3.1537    0.8592 H   0  0  0  0  0  0  0  0  0  0  0  0
   -3.7505   -2.6852    2.8892 C   0  0  0  0  0  0  0  0  0  0  0  0
   -4.4751   -3.5119    2.9334 H   0  0  0  0  0  0  0  0  0  0  0  0
   -3.5879   -1.8308    3.9908 C   0  0  0  0  0  0  0  0  0  0  0  0
   -4.1878   -1.9872    4.8998 H   0  0  0  0  0  0  0  0  0  0  0  0
   -2.6631   -0.7736    3.9345 C   0  0  0  0  0  0  0  0  0  0  0  0
   -2.5392   -0.1019    4.7970 H   0  0  0  0  0  0  0  0  0  0  0  0
   -1.9009   -0.5696    2.7774 C   0  0  0  0  0  0  0  0  0  0  0  0
   -1.1822    0.2637    2.7240 H   0  0  0  0  0  0  0  0  0  0  0  0
    1.6984   -1.0777    0.2024 C   0  0  0  0  0  0  0  0  0  0  0  0
    3.0354   -1.5948    0.3128 C   0  0  0  0  0  0  0  0  0  0  0  0
    3.2168   -2.9373    0.8192 C   0  0  0  0  0  0  0  0  0  0  0  0
    2.0780   -3.7175    1.1830 C   0  0  0  0  0  0  0  0  0  0  0  0
    2.2366   -4.7318    1.5799 H   0  0  0  0  0  0  0  0  0  0  0  0
    0.7972   -3.2169    1.0370 C   0  0  0  0  0  0  0  0  0  0  0  0
   -0.0801   -3.8204    1.3141 H   0  0  0  0  0  0  0  0  0  0  0  0
    0.6212   -1.8966    0.5360 C   0  0  0  0  0  0  0  0  0  0  0  0
    4.1898   -0.8478   -0.0673 C   0  0  0  0  0  0  0  0  0  0  0  0
    4.0719    0.1704   -0.4633 H   0  0  0  0  0  0  0  0  0  0  0  0
    5.4602   -1.3916    0.0534 C   0  0  0  0  0  0  0  0  0  0  0  0
    6.3380   -0.8014   -0.2488 H   0  0  0  0  0  0  0  0  0  0  0  0
    5.6380   -2.7032    0.5662 C   0  0  0  0  0  0  0  0  0  0  0  0
    6.6517   -3.1193    0.6627 H   0  0  0  0  0  0  0  0  0  0  0  0
    4.5372   -3.4589    0.9401 C   0  0  0  0  0  0  0  0  0  0  0  0
    4.6674   -4.4790    1.3323 H   0  0  0  0  0  0  0  0  0  0  0  0
    1.4879    0.3341   -0.3028 C   0  0  1  0  0  3  0  0  0  0  0  0
    2.0471    1.4335    0.4965 C   0  0  0  0  0  0  0  0  0  0  0  0
    2.4400    2.6538   -0.1477 C   0  0  0  0  0  0  0  0  0  0  0  0
    2.2936    2.7662   -1.5663 C   0  0  0  0  0  3  0  0  0  0  0  0
    2.6019    3.7066   -2.0487 H   0  0  0  0  0  0  0  0  0  0  0  0
    1.7965    1.7403   -2.3478 C   0  0  0  0  0  0  0  0  0  0  0  0
    1.7110    1.8681   -3.4340 H   0  0  0  0  0  0  0  0  0  0  0  0
    1.4170    0.5084   -1.7386 C   0  0  0  0  0  0  0  0  0  0  0  0
    2.2180    1.3124    1.8983 C   0  0  0  0  0  0  0  0  0  0  0  0
    1.9340    0.3719    2.3931 H   0  0  0  0  0  0  0  0  0  0  0  0
    2.7372    2.3705    2.6411 C   0  0  0  0  0  0  0  0  0  0  0  0
    2.8616    2.2620    3.7288 H   0  0  0  0  0  0  0  0  0  0  0  0
    3.1114    3.5810    2.0097 C   0  0  0  0  0  0  0  0  0  0  0  0
    3.5219    4.4076    2.6076 H   0  0  0  0  0  0  0  0  0  0  0  0
    2.9666    3.7170    0.6336 C   0  0  0  0  0  0  0  0  0  0  0  0
    3.2609    4.6504    0.1295 H   0  0  0  0  0  0  0  0  0  0  0  0
    1.0998   -0.5937   -2.4342 O   0  0  0  0  0  0  0  0  0  0  0  0
    0.7937   -0.4958   -3.8268 C   0  0  0  0  0  0  0  0  0  0  0  0
   -0.0123    0.2467   -4.0020 H   0  0  0  0  0  0  0  0  0  0  0  0
    0.4368   -1.4973   -4.1251 H   0  0  0  0  0  0  0  0  0  0  0  0
    1.6934   -0.2294   -4.4193 H   0  0  0  0  0  0  0  0  0  0  0  0
  1 31  1  0  0  0  0
  1 13  1  0  0  0  0
  2  1  1  0  0  0  0
  3  2  1  0  0  0  0
  3  4  1  0  0  0  0
  5  3  2  0  0  0  0
  6  5  1  0  0  0  0
  7  9  2  0  0  0  0
  7  5  1  0  0  0  0
  8  7  1  0  0  0  0
  9 11  1  0  0  0  0
 10  9  1  0  0  0  0
 11 12  1  0  0  0  0
 11  2  2  0  0  0  0
 13 14  2  0  0  0  0
 13 22  1  0  0  0  0
 14 16  1  0  0  0  0
 15 14  1  0  0  0  0
 16 17  1  0  0  0  0
 16 18  2  0  0  0  0
 18 19  1  0  0  0  0
 20 18  1  0  0  0  0
 20 21  1  0  0  0  0
 22 20  2  0  0  0  0
 23 22  1  0  0  0  0
 24 25  2  0  0  0  0
 24 31  1  0  0  0  0
 25 26  1  0  0  0  0
 26 38  1  0  0  0  0
 26 27  2  0  0  0  0
 27 28  1  0  0  0  0
 29 27  1  0  0  0  0
 29 30  1  0  0  0  0
 31 29  2  0  0  0  0
 32 34  2  0  0  0  0
 32 25  1  0  0  0  0
 33 32  1  0  0  0  0
 34 36  1  0  0  0  0
 35 34  1  0  0  0  0
 36 37  1  0  0  0  0
 36 38  2  0  0  0  0
 38 39  1  0  0  0  0
 40 24  1  6  0  0  0
 40 41  1  0  0  0  0
 41 48  1  0  0  0  0
 42 41  2  0  0  0  0
 42 54  1  0  0  0  0
 43 42  1  0  0  0  0
 44 43  1  0  0  0  0
 45 47  2  0  0  0  0
 45 43  1  0  0  0  0
 46 45  1  0  0  0  0
 47 40  1  0  0  0  0
 48 49  1  0  0  0  0
 48 50  2  0  0  0  0
 50 51  1  0  0  0  0
 52 53  1  0  0  0  0
 52 50  1  0  0  0  0
 54 52  2  0  0  0  0
 55 54  1  0  0  0  0
 56 47  1  0  0  0  0
 57 56  1  0  0  0  0
 58 57  1  0  0  0  0
 59 57  1  0  0  0  0
 60 57  1  0  0  0  0
M  END
