1,3
q = -1.0, confidence = 0.0

 47 47  0  0  0  0  0  0  0  0999 V2000
    1.2518    0.4861   -0.0679 P   0  0  0  0  0  0  0  0  0  0  0  0
   -2.6172   -1.5889   -0.1248 O   0  0  0  0  0  0  0  0  0  0  0  0
   -1.5153    0.8705   -0.2303 C   0  0  0  0  0  3  0  0  0  0  0  0
   -0.9027    2.1277   -0.4672 C   0  0  0  0  0  0  0  0  0  0  0  0
   -1.6937    3.2893   -0.5377 C   0  0  0  0  0  0  0  0  0  0  0  0
   -1.2203    4.2687   -0.7133 H   0  0  0  0  0  0  0  0  0  0  0  0
   -3.0886    3.2023   -0.3981 C   0  0  0  0  0  0  0  0  0  0  0  0
   -3.7042    4.1120   -0.4625 H   0  0  0  0  0  0  0  0  0  0  0  0
   -3.7021    1.9575   -0.1857 C   0  0  0  0  0  0  0  0  0  0  0  0
   -4.7983    1.8973   -0.0860 H   0  0  0  0  0  0  0  0  0  0  0  0
   -2.9225    0.7899   -0.0910 C   0  0  0  0  0  0  0  0  0  0  0  0
   -3.5448   -0.5485    0.2141 C   0  0  0  0  0  0  0  0  0  0  0  0
   -3.7876   -0.6274    1.3028 H   0  0  0  0  0  0  0  0  0  0  0  0
   -4.4953   -0.7027   -0.3479 H   0  0  0  0  0  0  0  0  0  0  0  0
    0.5934    2.1333   -0.6714 C   0  0  0  0  0  0  0  0  0  0  0  0
    1.1115    2.9891   -0.1897 H   0  0  0  0  0  0  0  0  0  0  0  0
    0.8319    2.1916   -1.7552 H   0  0  0  0  0  0  0  0  0  0  0  0
    2.6340    0.0192   -1.2854 C   0  0  0  0  0  0  0  0  0  0  0  0
    1.8993   -0.4935   -2.5414 C   0  0  0  0  0  0  0  0  0  0  0  0
    2.6498   -0.7372   -3.3230 H   0  0  0  0  0  0  0  0  0  0  0  0
    1.2056    0.2614   -2.9651 H   0  0  0  0  0  0  0  0  0  0  0  0
    1.3178   -1.4073   -2.3083 H   0  0  0  0  0  0  0  0  0  0  0  0
    3.5154    1.2270   -1.6516 C   0  0  0  0  0  0  0  0  0  0  0  0
    4.2762    0.8968   -2.3903 H   0  0  0  0  0  0  0  0  0  0  0  0
    4.0583    1.6412   -0.7818 H   0  0  0  0  0  0  0  0  0  0  0  0
    2.9397    2.0470   -2.1244 H   0  0  0  0  0  0  0  0  0  0  0  0
    3.4895   -1.1209   -0.7088 C   0  0  0  0  0  0  0  0  0  0  0  0
    4.1581   -1.5029   -1.5090 H   0  0  0  0  0  0  0  0  0  0  0  0
    2.8533   -1.9604   -0.3599 H   0  0  0  0  0  0  0  0  0  0  0  0
    4.1356   -0.7780    0.1230 H   0  0  0  0  0  0  0  0  0  0  0  0
    1.8606    0.7915    1.7085 C   0  0  0  0  0  0  0  0  0  0  0  0
    3.0769    1.7293    1.7535 C   0  0  0  0  0  0  0  0  0  0  0  0
    3.3156    1.9608    2.8132 H   0  0  0  0  0  0  0  0  0  0  0  0
    2.8890    2.6948    1.2412 H   0  0  0  0  0  0  0  0  0  0  0  0
    3.9781    1.2652    1.3086 H   0  0  0  0  0  0  0  0  0  0  0  0
    2.1880   -0.5576    2.3749 C   0  0  0  0  0  0  0  0  0  0  0  0
    2.3376   -0.3925    3.4628 H   0  0  0  0  0  0  0  0  0  0  0  0
    3.1121   -1.0119    1.9738 H   0  0  0  0  0  0  0  0  0  0  0  0
    1.3710   -1.2930    2.2329 H   0  0  0  0  0  0  0  0  0  0  0  0
    0.6766    1.4370    2.4563 C   0  0  0  0  0  0  0  0  0  0  0  0
    0.9689    1.5892    3.5166 H   0  0  0  0  0  0  0  0  0  0  0  0
   -0.2181    0.7839    2.4312 H   0  0  0  0  0  0  0  0  0  0  0  0
    0.3886    2.4225    2.0406 H   0  0  0  0  0  0  0  0  0  0  0  0
   -2.9930   -2.8933    0.3077 C   0  0  0  0  0  0  0  0  0  0  0  0
   -3.2041   -2.9013    1.4008 H   0  0  0  0  0  0  0  0  0  0  0  0
   -2.1281   -3.5512    0.0980 H   0  0  0  0  0  0  0  0  0  0  0  0
   -3.8953   -3.2353   -0.2454 H   0  0  0  0  0  0  0  0  0  0  0  0
  1 31  1  0  0  0  0
  2 12  1  0  0  0  0
  2 44  1  0  0  0  0
  3 11  1  0  0  0  0
  4  3  2  0  0  0  0
  5  4  1  0  0  0  0
  5  7  2  0  0  0  0
  6  5  1  0  0  0  0
  7  9  1  0  0  0  0
  8  7  1  0  0  0  0
  9 11  2  0  0  0  0
  9 10  1  0  0  0  0
 11 12  1  0  0  0  0
 12 13  1  0  0  0  0
 14 12  1  0  0  0  0
 15  4  1  0  0  0  0
 15 16  1  0  0  0  0
 15  1  1  0  0  0  0
 17 15  1  0  0  0  0
 18 27  1  0  0  0  0
 18  1  1  0  0  0  0
 19 22  1  0  0  0  0
 19 18  1  0  0  0  0
 20 19  1  0  0  0  0
 21 19  1  0  0  0  0
 23 18  1  0  0  0  0
 23 25  1  0  0  0  0
 24 23  1  0  0  0  0
 26 23  1  0  0  0  0
 27 29  1  0  0  0  0
 27 30  1  0  0  0  0
 28 27  1  0  0  0  0
 31 32  1  0  0  0  0
 31 36  1  0  0  0  0
 31 40  1  0  0  0  0
 32 33  1  0  0  0  0
 34 32  1  0  0  0  0
 35 32  1  0  0  0  0
 36 37  1  0  0  0  0
 38 36  1  0  0  0  0
 39 36  1  0  0  0  0
 40 41  1  0  0  0  0
 42 40  1  0  0  0  0
 43 40  1  0  0  0  0
 44 45  1  0  0  0  0
 46 44  1  0  0  0  0
 47 44  1  0  0  0  0
M  END
