1,3
q = 0.0, confidence = 0.98

 37 40  0  0  0  0  0  0  0  0999 V2000
   -2.5635   -0.2251    0.0145 P   0  0  0  0  0  0  0  0  0  0  0  0
    0.2726    2.7899    0.8319 O   0  0  0  0  0  0  0  0  0  0  0  0
   -0.5570    1.7398    0.5372 C   0  0  0  0  0  2  0  0  0  0  0  0
   -0.4595    3.9380    1.3427 C   0  0  0  0  0  0  0  0  0  0  0  0
   -0.2662    4.7997    0.6670 H   0  0  0  0  0  0  0  0  0  0  0  0
   -0.0499    4.1882    2.3455 H   0  0  0  0  0  0  0  0  0  0  0  0
   -1.9096    2.1982    0.8593 C   0  0  0  0  0  0  0  0  0  0  0  0
   -1.9018    3.5007    1.3683 C   0  0  0  0  0  0  0  0  0  0  0  0
   -3.1158    4.0690    1.7779 C   0  0  0  0  0  0  0  0  0  0  0  0
   -3.1724    5.0885    2.1894 H   0  0  0  0  0  0  0  0  0  0  0  0
   -4.2883    3.2903    1.6641 C   0  0  0  0  0  0  0  0  0  0  0  0
   -5.2461    3.7206    1.9944 H   0  0  0  0  0  0  0  0  0  0  0  0
   -4.2743    1.9738    1.1460 C   0  0  0  0  0  0  0  0  0  0  0  0
   -5.2119    1.3998    1.0889 H   0  0  0  0  0  0  0  0  0  0  0  0
   -3.0603    1.4137    0.7204 C   0  0  0  0  0  0  0  0  0  0  0  0
   -3.5424   -0.4392   -1.5227 C   0  0  0  0  0  0  0  0  0  0  0  0
   -4.4072    0.5506   -2.0295 C   0  0  0  0  0  0  0  0  0  0  0  0
   -4.5365    1.5007   -1.4908 H   0  0  0  0  0  0  0  0  0  0  0  0
   -5.1020    0.3282   -3.2295 C   0  0  0  0  0  0  0  0  0  0  0  0
   -5.7779    1.1049   -3.6190 H   0  0  0  0  0  0  0  0  0  0  0  0
   -4.9347   -0.8765   -3.9290 C   0  0  0  0  0  0  0  0  0  0  0  0
   -5.4812   -1.0487   -4.8688 H   0  0  0  0  0  0  0  0  0  0  0  0
   -4.0605   -1.8583   -3.4318 C   0  0  0  0  0  0  0  0  0  0  0  0
   -3.9139   -2.7984   -3.9851 H   0  0  0  0  0  0  0  0  0  0  0  0
   -3.3611   -1.6449   -2.2368 C   0  0  0  0  0  0  0  0  0  0  0  0
   -2.6440   -2.3931   -1.8624 H   0  0  0  0  0  0  0  0  0  0  0  0
   -3.2580   -1.4800    1.1603 C   0  0  0  0  0  0  0  0  0  0  0  0
   -4.6099   -1.8747    1.1089 C   0  0  0  0  0  0  0  0  0  0  0  0
   -5.2743   -1.4632    0.3330 H   0  0  0  0  0  0  0  0  0  0  0  0
   -5.0994   -2.8082    2.0344 C   0  0  0  0  0  0  0  0  0  0  0  0
   -6.1548   -3.1183    1.9929 H   0  0  0  0  0  0  0  0  0  0  0  0
   -4.2424   -3.3541    3.0048 C   0  0  0  0  0  0  0  0  0  0  0  0
   -4.6280   -4.0922    3.7248 H   0  0  0  0  0  0  0  0  0  0  0  0
   -2.8927   -2.9690    3.0491 C   0  0  0  0  0  0  0  0  0  0  0  0
   -2.2171   -3.4072    3.7993 H   0  0  0  0  0  0  0  0  0  0  0  0
   -2.3975   -2.0340    2.1284 C   0  0  0  0  0  0  0  0  0  0  0  0
   -1.3383   -1.7289    2.1322 H   0  0  0  0  0  0  0  0  0  0  0  0
  1 15  1  0  0  0  0
  1 27  1  0  0  0  0
  2  4  1  0  0  0  0
  3  2  1  0  0  0  0
  3  7  1  0  0  0  0
  4  8  1  0  0  0  0
  4  6  1  0  0  0  0
  5  4  1  0  0  0  0
  7  8  1  0  0  0  0
  8  9  2  0  0  0  0
  9 10  1  0  0  0  0
 11  9  1  0  0  0  0
 11 12  1  0  0  0  0
 13 11  2  0  0  0  0
 14 13  1  0  0  0  0
 15  7  2  0  0  0  0
 15 13  1  0  0  0  0
 16  1  1  0  0  0  0
 17 16  1  0  0  0  0
 17 18  1  0  0  0  0
 19 17  2  0  0  0  0
 20 19  1  0  0  0  0
 21 23  2  0  0  0  0
 21 19  1  0  0  0  0
 22 21  1  0  0  0  0
 23 25  1  0  0  0  0
 24 23  1  0  0  0  0
 25 26  1  0  0  0  0
 25 16  2  0  0  0  0
 27 36  1  0  0  0  0
 28 27  2  0  0  0  0
 28 30  1  0  0  0  0
 29 28  1  0  0  0  0
 30 32  2  0  0  0  0
 31 30  1  0  0  0  0
 32 34  1  0  0  0  0
 32 33  1  0  0  0  0
 34 35  1  0  0  0  0
 36 37  1  0  0  0  0
 36 34  2  0  0  0  0
M  END
