1,6
q = -1.0, confidence = 0.0

 60 64  0  0  0  0  0  0  0  0999 V2000
    1.0102   -0.1159   -0.7494 P   0  0  0  0  0  0  0  0  0  0  0  0
    2.5689    0.0823   -1.3415 O   0  0  0  0  0  0  0  0  0  0  0  0
    0.2515    0.9215   -1.7784 O   0  0  0  0  0  0  0  0  0  0  0  0
    1.1487    0.7971    0.6271 O   0  0  0  0  0  0  0  0  0  0  0  0
   -1.5501   -0.0544    1.3319 C   0  0  0  0  0  0  0  0  0  0  0  0
   -1.5855   -0.7134    0.1366 C   0  0  0  0  0  3  0  0  0  0  0  0
    3.6681    0.1914   -0.4995 C   0  0  0  0  0  0  0  0  0  0  0  0
    4.3503   -0.9632   -0.0839 C   0  0  0  0  0  0  0  0  0  0  0  0
    5.4601   -0.8330    0.7661 C   0  0  0  0  0  0  0  0  0  0  0  0
    5.8864    0.4361    1.1894 C   0  0  0  0  0  0  0  0  0  0  0  0
    5.2018    1.5840    0.7541 C   0  0  0  0  0  0  0  0  0  0  0  0
    4.0880    1.4680   -0.0900 C   0  0  0  0  0  0  0  0  0  0  0  0
    0.6264    2.2613   -1.8849 C   0  0  0  0  0  0  0  0  0  0  0  0
    0.0739    3.2034   -1.0030 C   0  0  0  0  0  0  0  0  0  0  0  0
    0.4238    4.5544   -1.1464 C   0  0  0  0  0  0  0  0  0  0  0  0
    1.3174    4.9541   -2.1537 C   0  0  0  0  0  0  0  0  0  0  0  0
    1.8634    3.9972   -3.0252 C   0  0  0  0  0  0  0  0  0  0  0  0
    1.5220    2.6426   -2.8944 C   0  0  0  0  0  0  0  0  0  0  0  0
    0.9033    0.3072    1.9011 C   0  0  0  0  0  0  0  0  0  0  0  0
   -0.3979   -0.0971    2.2736 C   0  0  0  0  0  0  0  0  0  0  0  0
   -0.5857   -0.5050    3.6135 C   0  0  0  0  0  0  0  0  0  0  0  0
    0.4792   -0.5493    4.5196 C   0  0  0  0  0  0  0  0  0  0  0  0
    1.7664   -0.1546    4.1128 C   0  0  0  0  0  0  0  0  0  0  0  0
    1.9809    0.2804    2.8004 C   0  0  0  0  0  0  0  0  0  0  0  0
   -2.6787    0.8127    1.8014 C   0  0  0  0  0  0  0  0  0  0  0  0
   -4.0271    0.3972    1.7498 C   0  0  0  0  0  0  0  0  0  0  0  0
   -5.0547    1.2463    2.1822 C   0  0  0  0  0  0  0  0  0  0  0  0
   -4.7584    2.5285    2.6720 C   0  0  0  0  0  0  0  0  0  0  0  0
   -3.4208    2.9499    2.7417 C   0  0  0  0  0  0  0  0  0  0  0  0
   -2.3916    2.0965    2.3213 C   0  0  0  0  0  0  0  0  0  0  0  0
   -2.7042   -0.5590   -0.8197 C   0  0  0  0  0  0  0  0  0  0  0  0
   -3.5797   -1.6257   -1.1333 C   0  0  0  0  0  0  0  0  0  0  0  0
   -4.6375   -1.4499   -2.0345 C   0  0  0  0  0  0  0  0  0  0  0  0
   -4.8390   -0.2087   -2.6602 C   0  0  0  0  0  0  0  0  0  0  0  0
   -3.9747    0.8566   -2.3655 C   0  0  0  0  0  0  0  0  0  0  0  0
   -2.9235    0.6861   -1.4552 C   0  0  0  0  0  0  0  0  0  0  0  0
    4.0138   -1.9485   -0.4355 H   0  0  0  0  0  0  0  0  0  0  0  0
    5.9960   -1.7352    1.0972 H   0  0  0  0  0  0  0  0  0  0  0  0
    6.7565    0.5320    1.8558 H   0  0  0  0  0  0  0  0  0  0  0  0
    5.5341    2.5818    1.0788 H   0  0  0  0  0  0  0  0  0  0  0  0
    3.5257    2.3491   -0.4310 H   0  0  0  0  0  0  0  0  0  0  0  0
   -0.6146    2.8700   -0.2137 H   0  0  0  0  0  0  0  0  0  0  0  0
   -0.0073    5.2998   -0.4613 H   0  0  0  0  0  0  0  0  0  0  0  0
    1.5881    6.0151   -2.2610 H   0  0  0  0  0  0  0  0  0  0  0  0
    2.5638    4.3055   -3.8160 H   0  0  0  0  0  0  0  0  0  0  0  0
    1.9399    1.8723   -3.5566 H   0  0  0  0  0  0  0  0  0  0  0  0
   -1.5972   -0.8016    3.9295 H   0  0  0  0  0  0  0  0  0  0  0  0
    0.3069   -0.8929    5.5503 H   0  0  0  0  0  0  0  0  0  0  0  0
    2.6081   -0.1870    4.8204 H   0  0  0  0  0  0  0  0  0  0  0  0
    2.9727    0.5961    2.4462 H   0  0  0  0  0  0  0  0  0  0  0  0
   -4.2680   -0.6038    1.3667 H   0  0  0  0  0  0  0  0  0  0  0  0
   -6.0989    0.9011    2.1367 H   0  0  0  0  0  0  0  0  0  0  0  0
   -5.5677    3.1951    3.0066 H   0  0  0  0  0  0  0  0  0  0  0  0
   -3.1760    3.9500    3.1316 H   0  0  0  0  0  0  0  0  0  0  0  0
   -1.3427    2.4245    2.3911 H   0  0  0  0  0  0  0  0  0  0  0  0
   -3.4395   -2.6016   -0.6481 H   0  0  0  0  0  0  0  0  0  0  0  0
   -5.3110   -2.2934   -2.2513 H   0  0  0  0  0  0  0  0  0  0  0  0
   -5.6644   -0.0744   -3.3755 H   0  0  0  0  0  0  0  0  0  0  0  0
   -4.1190    1.8357   -2.8477 H   0  0  0  0  0  0  0  0  0  0  0  0
   -2.2565    1.5270   -1.2256 H   0  0  0  0  0  0  0  0  0  0  0  0
  1  4  1  0  0  0  0
  2  1  1  0  0  0  0
  2  7  1  0  0  0  0
  3  1  1  0  0  0  0
  4 19  1  0  0  0  0
  5 25  1  0  0  0  0
  5 20  1  0  0  0  0
  6  5  2  0  0  0  0
  7 12  2  0  0  0  0
  7  8  1  0  0  0  0
  8  9  2  0  0  0  0
  9 38  1  0  0  0  0
  9 10  1  0  0  0  0
 10 39  1  0  0  0  0
 11 40  1  0  0  0  0
 11 10  2  0  0  0  0
 12 11  1  0  0  0  0
 13  3  1  0  0  0  0
 13 14  1  0  0  0  0
 14 42  1  0  0  0  0
 15 14  2  0  0  0  0
 15 43  1  0  0  0  0
 16 15  1  0  0  0  0
 17 18  1  0  0  0  0
 17 16  2  0  0  0  0
 18 13  2  0  0  0  0
 19 20  2  0  0  0  0
 19 24  1  0  0  0  0
 20 21  1  0  0  0  0
 21 47  1  0  0  0  0
 21 22  2  0  0  0  0
 22 48  1  0  0  0  0
 23 22  1  0  0  0  0
 23 49  1  0  0  0  0
 24 23  2  0  0  0  0
 25 30  1  0  0  0  0
 26 25  2  0  0  0  0
 26 27  1  0  0  0  0
 27 28  2  0  0  0  0
 28 29  1  0  0  0  0
 28 53  1  0  0  0  0
 29 54  1  0  0  0  0
 30 55  1  0  0  0  0
 30 29  2  0  0  0  0
 31  6  1  0  0  0  0
 32 31  1  0  0  0  0
 32 56  1  0  0  0  0
 33 32  2  0  0  0  0
 34 35  2  0  0  0  0
 34 33  1  0  0  0  0
 35 36  1  0  0  0  0
 36 60  1  0  0  0  0
 36 31  2  0  0  0  0
 37  8  1  0  0  0  0
 41 12  1  0  0  0  0
 44 16  1  0  0  0  0
 45 17  1  0  0  0  0
 46 18  1  0  0  0  0
 50 24  1  0  0  0  0
 51 26  1  0  0  0  0
 52 27  1  0  0  0  0
 57 33  1  0  0  0  0
 58 34  1  0  0  0  0
 59 35  1  0  0  0  0
M  END
