1,31
q = 0.0, confidence = 0.99

 63 67  0  0  0  0  0  0  0  0999 V2000
    1.1936    1.3372   -0.1152 C   0  0  0  0  0  2  0  0  0  0  0  0
    2.4706    1.6793    0.2740 N   0  0  0  0  0  0  0  0  0  0  0  0
    2.5897    3.0478    0.4940 C   0  0  0  0  0  0  0  0  0  0  0  0
    3.5383    3.4999    0.7955 H   0  0  0  0  0  0  0  0  0  0  0  0
    1.3610    3.5885    0.2425 C   0  0  0  0  0  0  0  0  0  0  0  0
    1.0050    4.6211    0.2905 H   0  0  0  0  0  0  0  0  0  0  0  0
    0.5323    2.5399   -0.1321 N   0  0  0  0  0  0  0  0  0  0  0  0
   -0.8908    2.7287   -0.4251 C   0  0  0  0  0  0  0  0  0  0  0  0
   -1.1504    2.0143   -1.2345 H   0  0  0  0  0  0  0  0  0  0  0  0
   -1.0043    3.7455   -0.8463 H   0  0  0  0  0  0  0  0  0  0  0  0
    3.6000    0.7952    0.3415 C   0  0  0  0  0  0  0  0  0  0  0  0
    4.3885    0.6444   -0.8230 C   0  0  0  0  0  0  0  0  0  0  0  0
    5.4914   -0.2203   -0.7500 C   0  0  0  0  0  0  0  0  0  0  0  0
    6.1064   -0.3688   -1.6516 H   0  0  0  0  0  0  0  0  0  0  0  0
    5.8168   -0.9147    0.4320 C   0  0  0  0  0  0  0  0  0  0  0  0
    5.0250   -0.7025    1.5742 C   0  0  0  0  0  0  0  0  0  0  0  0
    5.2768   -1.2253    2.5107 H   0  0  0  0  0  0  0  0  0  0  0  0
    3.9132    0.1605    1.5608 C   0  0  0  0  0  0  0  0  0  0  0  0
    4.0390    1.3793   -2.0915 C   0  0  0  0  0  0  0  0  0  0  0  0
    4.6726    1.0394   -2.9315 H   0  0  0  0  0  0  0  0  0  0  0  0
    4.1863    2.4740   -1.9740 H   0  0  0  0  0  0  0  0  0  0  0  0
    2.9761    1.2356   -2.3802 H   0  0  0  0  0  0  0  0  0  0  0  0
    6.9711   -1.8841    0.4560 C   0  0  0  0  0  0  0  0  0  0  0  0
    7.8345   -1.5047   -0.1262 H   0  0  0  0  0  0  0  0  0  0  0  0
    6.6763   -2.8542    0.0017 H   0  0  0  0  0  0  0  0  0  0  0  0
    7.3116   -2.0924    1.4888 H   0  0  0  0  0  0  0  0  0  0  0  0
    3.1276    0.4284    2.8191 C   0  0  0  0  0  0  0  0  0  0  0  0
    2.0887    0.7424    2.6064 H   0  0  0  0  0  0  0  0  0  0  0  0
    3.6031    1.2411    3.4094 H   0  0  0  0  0  0  0  0  0  0  0  0
    3.0879   -0.4723    3.4598 H   0  0  0  0  0  0  0  0  0  0  0  0
   -1.8400   -0.1468    0.1654 P   0  0  0  0  0  0  0  0  0  0  0  0
   -2.1632    1.3083    1.2690 C   0  0  0  0  0  0  0  0  0  0  0  0
   -1.7237    2.5828    0.8296 C   0  0  0  0  0  0  0  0  0  0  0  0
   -2.0295    3.7197    1.5988 C   0  0  0  0  0  0  0  0  0  0  0  0
   -1.6977    4.7098    1.2470 H   0  0  0  0  0  0  0  0  0  0  0  0
   -3.1844    2.3517    3.2302 C   0  0  0  0  0  0  0  0  0  0  0  0
   -3.7619    2.2530    4.1618 H   0  0  0  0  0  0  0  0  0  0  0  0
   -2.7530    3.6125    2.7955 C   0  0  0  0  0  0  0  0  0  0  0  0
   -2.9847    4.5137    3.3828 H   0  0  0  0  0  0  0  0  0  0  0  0
   -2.8971    1.2092    2.4671 C   0  0  0  0  0  0  0  0  0  0  0  0
   -3.2644    0.2284    2.8001 H   0  0  0  0  0  0  0  0  0  0  0  0
   -3.1331    0.1125   -1.1310 C   0  0  0  0  0  0  0  0  0  0  0  0
   -4.2626    0.9151   -0.8603 C   0  0  0  0  0  0  0  0  0  0  0  0
   -4.3698    1.4148    0.1131 H   0  0  0  0  0  0  0  0  0  0  0  0
   -5.2605    1.0784   -1.8323 C   0  0  0  0  0  0  0  0  0  0  0  0
   -6.1372    1.7060   -1.6108 H   0  0  0  0  0  0  0  0  0  0  0  0
   -5.1405    0.4434   -3.0785 C   0  0  0  0  0  0  0  0  0  0  0  0
   -5.9231    0.5744   -3.8417 H   0  0  0  0  0  0  0  0  0  0  0  0
   -4.0203   -0.3578   -3.3469 C   0  0  0  0  0  0  0  0  0  0  0  0
   -3.9172   -0.8576   -4.3219 H   0  0  0  0  0  0  0  0  0  0  0  0
   -3.0136   -0.5244   -2.3837 C   0  0  0  0  0  0  0  0  0  0  0  0
   -2.1386   -1.1587   -2.5868 H   0  0  0  0  0  0  0  0  0  0  0  0
   -2.4608   -1.5727    1.1475 C   0  0  0  0  0  0  0  0  0  0  0  0
   -1.8849   -1.8549    2.4038 C   0  0  0  0  0  0  0  0  0  0  0  0
   -1.0948   -1.2075    2.8110 H   0  0  0  0  0  0  0  0  0  0  0  0
   -2.3154   -2.9640    3.1449 C   0  0  0  0  0  0  0  0  0  0  0  0
   -1.8576   -3.1750    4.1232 H   0  0  0  0  0  0  0  0  0  0  0  0
   -3.3160   -3.8065    2.6348 C   0  0  0  0  0  0  0  0  0  0  0  0
   -3.6481   -4.6817    3.2136 H   0  0  0  0  0  0  0  0  0  0  0  0
   -3.8856   -3.5323    1.3824 C   0  0  0  0  0  0  0  0  0  0  0  0
   -4.6643   -4.1932    0.9727 H   0  0  0  0  0  0  0  0  0  0  0  0
   -3.4622   -2.4208    0.6387 C   0  0  0  0  0  0  0  0  0  0  0  0
   -3.9052   -2.2154   -0.3456 H   0  0  0  0  0  0  0  0  0  0  0  0
  1  2  1  0  0  0  0
  2 11  1  0  0  0  0
  2  3  1  0  0  0  0
  3  4  1  0  0  0  0
  5  6  1  0  0  0  0
  5  3  2  0  0  0  0
  7  1  1  0  0  0  0
  7  5  1  0  0  0  0
  8  7  1  0  0  0  0
  8 33  1  0  0  0  0
  9  8  1  0  0  0  0
 10  8  1  0  0  0  0
 11 18  1  0  0  0  0
 12 13  1  0  0  0  0
 12 11  2  0  0  0  0
 13 15  2  0  0  0  0
 14 13  1  0  0  0  0
 15 23  1  0  0  0  0
 15 16  1  0  0  0  0
 16 17  1  0  0  0  0
 18 16  2  0  0  0  0
 18 27  1  0  0  0  0
 19 21  1  0  0  0  0
 19 12  1  0  0  0  0
 20 19  1  0  0  0  0
 22 19  1  0  0  0  0
 23 26  1  0  0  0  0
 24 23  1  0  0  0  0
 25 23  1  0  0  0  0
 27 29  1  0  0  0  0
 27 30  1  0  0  0  0
 28 27  1  0  0  0  0
 31 53  1  0  0  0  0
 31 32  1  0  0  0  0
 32 40  1  0  0  0  0
 33 32  2  0  0  0  0
 33 34  1  0  0  0  0
 34 38  2  0  0  0  0
 35 34  1  0  0  0  0
 36 37  1  0  0  0  0
 38 36  1  0  0  0  0
 38 39  1  0  0  0  0
 40 41  1  0  0  0  0
 40 36  2  0  0  0  0
 42 43  1  0  0  0  0
 42 31  1  0  0  0  0
 43 44  1  0  0  0  0
 45 46  1  0  0  0  0
 45 43  2  0  0  0  0
 47 45  1  0  0  0  0
 48 47  1  0  0  0  0
 49 47  2  0  0  0  0
 49 51  1  0  0  0  0
 50 49  1  0  0  0  0
 51 42  2  0  0  0  0
 52 51  1  0  0  0  0
 53 54  1  0  0  0  0
 54 55  1  0  0  0  0
 54 56  2  0  0  0  0
 56 57  1  0  0  0  0
 58 56  1  0  0  0  0
 58 59  1  0  0  0  0
 60 58  2  0  0  0  0
 61 60  1  0  0  0  0
 62 53  2  0  0  0  0
 62 60  1  0  0  0  0
 63 62  1  0  0  0  0
M  END
