1,41
q = -1.0, confidence = 0.026

 41 41  0  0  0  0  0  0  0  0999 V2000
   -0.0500   -1.2628   -0.4644 P   0  0  0  0  0  0  0  0  0  0  0  0
    0.2412   -2.6854    0.2991 O   0  0  0  0  0  0  0  0  0  0  0  0
    0.0576   -1.8220   -2.0327 O   0  0  0  0  0  0  0  0  0  0  0  0
    3.7257    1.5216   -1.1102 O   0  0  0  0  0  0  0  0  0  0  0  0
    3.2366    1.9232    1.0798 O   0  0  0  0  0  0  0  0  0  0  0  0
    1.7959    3.8263   -0.4193 O   0  0  0  0  0  0  0  0  0  0  0  0
   -0.4497    3.9766   -0.1772 O   0  0  0  0  0  0  0  0  0  0  0  0
   -1.5199    1.8703   -1.6893 O   0  0  0  0  0  0  0  0  0  0  0  0
    1.4915   -0.4047   -0.3071 N   0  0  0  0  0  0  0  0  0  0  0  0
    0.9653   -3.8166   -0.2074 C   0  0  0  0  0  0  0  0  0  0  0  0
    0.3536   -4.7182   -0.0029 H   0  0  0  0  0  0  0  0  0  0  0  0
    1.1403   -3.7314   -1.2959 H   0  0  0  0  0  0  0  0  0  0  0  0
    1.9352   -3.8993    0.3224 H   0  0  0  0  0  0  0  0  0  0  0  0
    0.1898   -0.8678   -3.0939 C   0  0  0  0  0  0  0  0  0  0  0  0
    0.2377   -1.4454   -4.0366 H   0  0  0  0  0  0  0  0  0  0  0  0
    1.1218   -0.2724   -2.9827 H   0  0  0  0  0  0  0  0  0  0  0  0
   -0.6714   -0.1712   -3.1278 H   0  0  0  0  0  0  0  0  0  0  0  0
    2.6740   -1.1662   -0.0109 C   0  0  0  0  0  0  0  0  0  0  0  0
    3.4368   -1.7216   -1.0519 C   0  0  0  0  0  0  0  0  0  0  0  0
    3.1436   -1.5297   -2.0931 H   0  0  0  0  0  0  0  0  0  0  0  0
    4.5653   -2.4961   -0.7476 C   0  0  0  0  0  0  0  0  0  0  0  0
    5.1671   -2.9273   -1.5616 H   0  0  0  0  0  0  0  0  0  0  0  0
    4.9313   -2.7129    0.5910 C   0  0  0  0  0  0  0  0  0  0  0  0
    5.8171   -3.3218    0.8270 H   0  0  0  0  0  0  0  0  0  0  0  0
    4.1714   -2.1468    1.6286 C   0  0  0  0  0  0  0  0  0  0  0  0
    4.4590   -2.3121    2.6779 H   0  0  0  0  0  0  0  0  0  0  0  0
    3.0415   -1.3715    1.3314 C   0  0  0  0  0  0  0  0  0  0  0  0
    2.4262   -0.9228    2.1246 H   0  0  0  0  0  0  0  0  0  0  0  0
    1.5374    0.9833   -0.2739 C   0  0  0  0  0  0  0  0  0  0  0  0
    2.9481    1.5382   -0.1771 C   0  0  0  0  0  0  0  0  0  0  0  0
    4.5135    2.5548    1.2363 C   0  0  0  0  0  0  0  0  0  0  0  0
    5.3247    1.9104    0.8426 H   0  0  0  0  0  0  0  0  0  0  0  0
    4.6402    2.7273    2.3196 H   0  0  0  0  0  0  0  0  0  0  0  0
    4.5175    3.5177    0.6869 H   0  0  0  0  0  0  0  0  0  0  0  0
    0.4549    1.8206   -0.4316 C   0  0  0  0  0  0  0  0  0  0  0  0
    0.6991    3.2788   -0.3654 C   0  0  0  0  0  0  0  0  0  0  0  0
   -0.2932    5.3935   -0.1108 C   0  0  0  0  0  0  0  0  0  0  0  0
   -1.3086    5.8074    0.0245 H   0  0  0  0  0  0  0  0  0  0  0  0
    0.3593    5.6846    0.7380 H   0  0  0  0  0  0  0  0  0  0  0  0
    0.1618    5.7875   -1.0424 H   0  0  0  0  0  0  0  0  0  0  0  0
   -0.9246    1.3118   -0.7625 C   0  0  0  0  0  3  0  0  0  0  0  0
  1  9  1  0  0  0  0
  1  2  1  0  0  0  0
  3  1  1  0  0  0  0
  4 30  2  0  0  0  0
  5 31  1  0  0  0  0
  6 36  2  0  0  0  0
  7 37  1  0  0  0  0
  8 41  2  0  0  0  0
  9 29  1  0  0  0  0
  9 18  1  0  0  0  0
 10 11  1  0  0  0  0
 10  2  1  0  0  0  0
 10 13  1  0  0  0  0
 12 10  1  0  0  0  0
 14 16  1  0  0  0  0
 14  3  1  0  0  0  0
 15 14  1  0  0  0  0
 17 14  1  0  0  0  0
 18 27  1  0  0  0  0
 19 21  1  0  0  0  0
 19 18  2  0  0  0  0
 20 19  1  0  0  0  0
 21 23  2  0  0  0  0
 22 21  1  0  0  0  0
 23 24  1  0  0  0  0
 23 25  1  0  0  0  0
 25 26  1  0  0  0  0
 27 25  2  0  0  0  0
 27 28  1  0  0  0  0
 29 30  1  0  0  0  0
 30  5  1  0  0  0  0
 31 33  1  0  0  0  0
 32 31  1  0  0  0  0
 34 31  1  0  0  0  0
 35 36  1  0  0  0  0
 35 29  2  0  0  0  0
 36  7  1  0  0  0  0
 37 38  1  0  0  0  0
 37 39  1  0  0  0  0
 40 37  1  0  0  0  0
 41 35  1  0  0  0  0
M  END
