1,5
q = -1.0, confidence = 0.002

 44 47  0  0  0  0  0  0  0  0999 V2000
   -0.3039    0.2080   -0.3152 P   0  0  0  0  0  0  0  0  0  0  0  0
    2.4867   -0.6652    2.5092 O   0  0  0  0  0  0  0  0  0  0  0  0
   -4.5334    0.4923    1.6715 O   0  0  0  0  0  0  0  0  0  0  0  0
   -3.9133   -1.2546    0.3703 O   0  0  0  0  0  0  0  0  0  0  0  0
    1.5792   -0.4944    1.6827 C   0  0  0  0  0  3  0  0  0  0  0  0
    0.1497   -0.5494    2.2218 C   0  0  0  0  0  0  0  0  0  0  0  0
   -0.9269   -0.2498    1.3623 C   0  0  0  0  0  0  0  0  0  0  0  0
   -2.2528   -0.3213    1.8374 C   0  0  0  0  0  0  0  0  0  0  0  0
   -2.4823   -0.6934    3.1756 C   0  0  0  0  0  0  0  0  0  0  0  0
   -3.5219   -0.7343    3.5309 H   0  0  0  0  0  0  0  0  0  0  0  0
   -1.4092   -0.9752    4.0351 C   0  0  0  0  0  0  0  0  0  0  0  0
   -1.6069   -1.2568    5.0812 H   0  0  0  0  0  0  0  0  0  0  0  0
   -0.0924   -0.8974    3.5627 C   0  0  0  0  0  0  0  0  0  0  0  0
    0.7786   -1.1040    4.2037 H   0  0  0  0  0  0  0  0  0  0  0  0
   -3.4366   -0.0491    0.9399 C   0  0  0  0  0  0  0  0  0  0  0  0
   -3.1566    0.6630    0.1231 H   0  0  0  0  0  0  0  0  0  0  0  0
   -5.7250    0.0446    1.0248 C   0  0  0  0  0  0  0  0  0  0  0  0
   -6.2976    0.9018    0.6056 H   0  0  0  0  0  0  0  0  0  0  0  0
   -6.3653   -0.4741    1.7712 H   0  0  0  0  0  0  0  0  0  0  0  0
   -5.2130   -0.9085   -0.0813 C   0  0  0  0  0  0  0  0  0  0  0  0
   -5.8086   -1.8347   -0.1959 H   0  0  0  0  0  0  0  0  0  0  0  0
   -5.1592   -0.3893   -1.0677 H   0  0  0  0  0  0  0  0  0  0  0  0
   -1.4192   -0.6484   -1.5137 C   0  0  0  0  0  0  0  0  0  0  0  0
   -2.3260    0.0082   -2.3678 C   0  0  0  0  0  0  0  0  0  0  0  0
   -2.4177    1.1042   -2.3348 H   0  0  0  0  0  0  0  0  0  0  0  0
   -3.1215   -0.7311   -3.2582 C   0  0  0  0  0  0  0  0  0  0  0  0
   -3.8212   -0.2057   -3.9266 H   0  0  0  0  0  0  0  0  0  0  0  0
   -3.0302   -2.1309   -3.2960 C   0  0  0  0  0  0  0  0  0  0  0  0
   -3.6578   -2.7079   -3.9923 H   0  0  0  0  0  0  0  0  0  0  0  0
   -2.1261   -2.7913   -2.4467 C   0  0  0  0  0  0  0  0  0  0  0  0
   -2.0469   -3.8890   -2.4694 H   0  0  0  0  0  0  0  0  0  0  0  0
   -1.3184   -2.0529   -1.5738 C   0  0  0  0  0  0  0  0  0  0  0  0
   -0.5965   -2.5625   -0.9180 H   0  0  0  0  0  0  0  0  0  0  0  0
   -0.7408    1.9889   -0.5164 C   0  0  0  0  0  0  0  0  0  0  0  0
   -0.3385    2.6319   -1.7109 C   0  0  0  0  0  0  0  0  0  0  0  0
    0.1380    2.0455   -2.5123 H   0  0  0  0  0  0  0  0  0  0  0  0
   -0.5283    4.0101   -1.8778 C   0  0  0  0  0  0  0  0  0  0  0  0
   -0.2158    4.4929   -2.8166 H   0  0  0  0  0  0  0  0  0  0  0  0
   -1.1030    4.7755   -0.8474 C   0  0  0  0  0  0  0  0  0  0  0  0
   -1.2415    5.8598   -0.9746 H   0  0  0  0  0  0  0  0  0  0  0  0
   -1.4961    4.1476    0.3438 C   0  0  0  0  0  0  0  0  0  0  0  0
   -1.9467    4.7375    1.1567 H   0  0  0  0  0  0  0  0  0  0  0  0
   -1.3231    2.7632    0.5088 C   0  0  0  0  0  0  0  0  0  0  0  0
   -1.6358    2.2853    1.4490 H   0  0  0  0  0  0  0  0  0  0  0  0
  1  7  1  0  0  0  0
  4 15  1  0  0  0  0
  5  6  1  0  0  0  0
  5  2  2  0  0  0  0
  6 13  1  0  0  0  0
  7  8  1  0  0  0  0
  7  6  2  0  0  0  0
  8  9  2  0  0  0  0
  9 10  1  0  0  0  0
  9 11  1  0  0  0  0
 11 12  1  0  0  0  0
 13 11  2  0  0  0  0
 13 14  1  0  0  0  0
 15  3  1  0  0  0  0
 15  8  1  0  0  0  0
 16 15  1  0  0  0  0
 17  3  1  0  0  0  0
 17 19  1  0  0  0  0
 18 17  1  0  0  0  0
 20  4  1  0  0  0  0
 20 17  1  0  0  0  0
 21 20  1  0  0  0  0
 22 20  1  0  0  0  0
 23  1  1  0  0  0  0
 24 25  1  0  0  0  0
 24 23  2  0  0  0  0
 26 24  1  0  0  0  0
 27 26  1  0  0  0  0
 28 26  2  0  0  0  0
 28 30  1  0  0  0  0
 29 28  1  0  0  0  0
 30 32  2  0  0  0  0
 31 30  1  0  0  0  0
 32 23  1  0  0  0  0
 32 33  1  0  0  0  0
 34  1  1  0  0  0  0
 34 43  1  0  0  0  0
 35 34  2  0  0  0  0
 36 35  1  0  0  0  0
 37 35  1  0  0  0  0
 37 39  2  0  0  0  0
 38 37  1  0  0  0  0
 39 41  1  0  0  0  0
 40 39  1  0  0  0  0
 41 43  2  0  0  0  0
 41 42  1  0  0  0  0
 43 44  1  0  0  0  0
M  END
