1,18
q = -1.0, confidence = 0.0

 44 45  0  0  1  0  0  0  0  0999 V2000
    0.3492   -0.7760   -0.1824 P   0  0  0  0  0  0  0  0  0  0  0  0
    0.7468    2.4648   -0.1418 N   0  0  0  0  0  0  0  0  0  0  0  0
    3.1746    2.1521    0.4137 C   0  0  0  0  0  0  0  0  0  0  0  0
    3.4965    2.9766   -0.2594 H   0  0  0  0  0  0  0  0  0  0  0  0
    3.1832    2.5718    1.4452 H   0  0  0  0  0  0  0  0  0  0  0  0
    1.7983    1.6303    0.0340 C   0  0  2  0  0  3  0  0  0  0  0  0
    1.8448    0.2392   -0.1724 C   0  0  1  0  0  3  0  0  0  0  0  0
    3.2493   -0.1848   -0.0655 C   0  0  0  0  0  0  0  0  0  0  0  0
    3.8814   -1.4250   -0.2905 C   0  0  0  0  0  0  0  0  0  0  0  0
    3.3030   -2.3024   -0.6096 H   0  0  0  0  0  0  0  0  0  0  0  0
    5.2725   -1.5370   -0.1182 C   0  0  0  0  0  0  0  0  0  0  0  0
    5.7595   -2.5080   -0.2987 H   0  0  0  0  0  0  0  0  0  0  0  0
    6.0483   -0.4338    0.2736 C   0  0  0  0  0  0  0  0  0  0  0  0
    7.1355   -0.5406    0.4042 H   0  0  0  0  0  0  0  0  0  0  0  0
    5.4304    0.8164    0.4819 C   0  0  0  0  0  0  0  0  0  0  0  0
    6.0319    1.6918    0.7750 H   0  0  0  0  0  0  0  0  0  0  0  0
    4.0535    0.9342    0.2986 C   0  0  0  0  0  0  0  0  0  0  0  0
   -0.3982    2.0697   -0.9647 C   0  0  0  0  0  3  0  0  0  0  0  0
   -0.0070    1.7176   -1.9478 H   0  0  0  0  0  0  0  0  0  0  0  0
   -0.9973    2.9832   -1.1442 H   0  0  0  0  0  0  0  0  0  0  0  0
    0.7950    3.8428    0.3083 C   0  0  0  0  0  0  0  0  0  0  0  0
    1.4694    3.9556    1.1777 H   0  0  0  0  0  0  0  0  0  0  0  0
   -0.2188    4.1588    0.6253 H   0  0  0  0  0  0  0  0  0  0  0  0
    1.1366    4.5404   -0.4923 H   0  0  0  0  0  0  0  0  0  0  0  0
    0.4019   -1.8303    1.3839 C   0  0  0  0  0  0  0  0  0  0  0  0
   -0.6173   -2.2799    1.3771 H   0  0  0  0  0  0  0  0  0  0  0  0
    1.4264   -2.9629    1.4703 C   0  0  0  0  0  0  0  0  0  0  0  0
    1.2254   -3.5818    2.3710 H   0  0  0  0  0  0  0  0  0  0  0  0
    2.4586   -2.5728    1.5577 H   0  0  0  0  0  0  0  0  0  0  0  0
    1.3876   -3.6412    0.5943 H   0  0  0  0  0  0  0  0  0  0  0  0
    0.4928   -0.8796    2.5837 C   0  0  0  0  0  0  0  0  0  0  0  0
    0.3331   -1.4310    3.5341 H   0  0  0  0  0  0  0  0  0  0  0  0
   -0.2624   -0.0688    2.5100 H   0  0  0  0  0  0  0  0  0  0  0  0
    1.4924   -0.4003    2.6302 H   0  0  0  0  0  0  0  0  0  0  0  0
    0.5119   -1.9846   -1.6096 C   0  0  0  0  0  0  0  0  0  0  0  0
    1.4087   -2.6101   -1.4114 H   0  0  0  0  0  0  0  0  0  0  0  0
   -0.7224   -2.8896   -1.6800 C   0  0  0  0  0  0  0  0  0  0  0  0
   -0.6164   -3.6303   -2.5002 H   0  0  0  0  0  0  0  0  0  0  0  0
   -1.6295   -2.2831   -1.8842 H   0  0  0  0  0  0  0  0  0  0  0  0
   -0.8953   -3.4501   -0.7393 H   0  0  0  0  0  0  0  0  0  0  0  0
    0.7284   -1.2087   -2.9119 C   0  0  0  0  0  0  0  0  0  0  0  0
    0.8417   -1.9082   -3.7664 H   0  0  0  0  0  0  0  0  0  0  0  0
    1.6344   -0.5731   -2.8609 H   0  0  0  0  0  0  0  0  0  0  0  0
   -0.1401   -0.5500   -3.1220 H   0  0  0  0  0  0  0  0  0  0  0  0
  1 25  1  0  0  0  0
  2 21  1  0  0  0  0
  3  5  1  0  0  0  0
  4  3  1  0  0  0  0
  6  2  1  6  0  0  0
  6  3  1  0  0  0  0
  7  1  1  1  0  0  0
  7  8  1  0  0  0  0
  7  6  1  0  0  0  0
  8 17  1  0  0  0  0
  9 11  1  0  0  0  0
  9  8  2  0  0  0  0
 10  9  1  0  0  0  0
 11 13  2  0  0  0  0
 12 11  1  0  0  0  0
 13 14  1  0  0  0  0
 13 15  1  0  0  0  0
 15 16  1  0  0  0  0
 17  3  1  0  0  0  0
 17 15  2  0  0  0  0
 18  2  1  0  0  0  0
 19 18  1  0  0  0  0
 20 18  1  0  0  0  0
 21 23  1  0  0  0  0
 21 22  1  0  0  0  0
 24 21  1  0  0  0  0
 25 27  1  0  0  0  0
 25 31  1  0  0  0  0
 26 25  1  0  0  0  0
 27 29  1  0  0  0  0
 27 28  1  0  0  0  0
 30 27  1  0  0  0  0
 31 34  1  0  0  0  0
 31 32  1  0  0  0  0
 33 31  1  0  0  0  0
 35 36  1  0  0  0  0
 35  1  1  0  0  0  0
 37 35  1  0  0  0  0
 37 40  1  0  0  0  0
 38 37  1  0  0  0  0
 39 37  1  0  0  0  0
 41 43  1  0  0  0  0
 41 35  1  0  0  0  0
 42 41  1  0  0  0  0
 44 41  1  0  0  0  0
M  END
