1,41
q = -1.0, confidence = 0.0

 43 46  0  0  0  0  0  0  0  0999 V2000
    1.0854    0.3348    0.1166 P   0  0  0  0  0  0  0  0  0  0  0  0
    2.5572   -0.0732   -0.9250 C   0  0  0  0  0  0  0  0  0  0  0  0
    2.4752    0.1612   -2.3166 C   0  0  0  0  0  0  0  0  0  0  0  0
    1.5873    0.6701   -2.7233 H   0  0  0  0  0  0  0  0  0  0  0  0
    3.5023   -0.2497   -3.1751 C   0  0  0  0  0  0  0  0  0  0  0  0
    3.4237   -0.0523   -4.2555 H   0  0  0  0  0  0  0  0  0  0  0  0
    4.6276   -0.9198   -2.6614 C   0  0  0  0  0  0  0  0  0  0  0  0
    5.4304   -1.2524   -3.3367 H   0  0  0  0  0  0  0  0  0  0  0  0
    4.7219   -1.1547   -1.2811 C   0  0  0  0  0  0  0  0  0  0  0  0
    5.6024   -1.6713   -0.8687 H   0  0  0  0  0  0  0  0  0  0  0  0
    3.6987   -0.7282   -0.4176 C   0  0  0  0  0  0  0  0  0  0  0  0
    3.7891   -0.9050    0.6651 H   0  0  0  0  0  0  0  0  0  0  0  0
    1.8962    0.5018    1.7950 C   0  0  0  0  0  0  0  0  0  0  0  0
    1.3925   -0.2953    2.8363 C   0  0  0  0  0  0  0  0  0  0  0  0
    0.5658   -0.9798    2.5872 H   0  0  0  0  0  0  0  0  0  0  0  0
    1.9173   -0.2031    4.1352 C   0  0  0  0  0  0  0  0  0  0  0  0
    1.5141   -0.8376    4.9402 H   0  0  0  0  0  0  0  0  0  0  0  0
    2.9516    0.7065    4.4046 C   0  0  0  0  0  0  0  0  0  0  0  0
    3.3636    0.7909    5.4220 H   0  0  0  0  0  0  0  0  0  0  0  0
    3.4568    1.5159    3.3716 C   0  0  0  0  0  0  0  0  0  0  0  0
    4.2633    2.2355    3.5820 H   0  0  0  0  0  0  0  0  0  0  0  0
    2.9343    1.4142    2.0737 C   0  0  0  0  0  0  0  0  0  0  0  0
    3.3329    2.0547    1.2723 H   0  0  0  0  0  0  0  0  0  0  0  0
    0.7786    2.0916   -0.3307 C   0  0  0  0  0  0  0  0  0  0  0  0
    1.6929    3.0264   -0.8381 C   0  0  0  0  0  0  0  0  0  0  0  0
    2.7395    2.7389   -1.0238 H   0  0  0  0  0  0  0  0  0  0  0  0
    1.2448    4.3210   -1.1508 C   0  0  0  0  0  0  0  0  0  0  0  0
    1.9405    5.0609   -1.5756 H   0  0  0  0  0  0  0  0  0  0  0  0
   -0.0946    4.6642   -0.9193 C   0  0  0  0  0  0  0  0  0  0  0  0
   -0.4442    5.6831   -1.1548 H   0  0  0  0  0  0  0  0  0  0  0  0
   -1.0145    3.7372   -0.3877 C   0  0  0  0  0  0  0  0  0  0  0  0
   -2.4549    4.1411   -0.1454 C   0  0  0  0  0  0  0  0  0  0  0  0
   -2.9945    4.1617   -1.1218 H   0  0  0  0  0  0  0  0  0  0  0  0
   -2.4912    5.1851    0.2321 H   0  0  0  0  0  0  0  0  0  0  0  0
   -3.1801    3.1841    0.8037 C   0  0  0  0  0  0  0  0  0  0  0  0
   -2.7979    3.3235    1.8396 H   0  0  0  0  0  0  0  0  0  0  0  0
   -4.2650    3.4209    0.8295 H   0  0  0  0  0  0  0  0  0  0  0  0
   -2.9439    1.7292    0.3691 C   0  0  0  0  0  0  0  0  0  0  0  0
   -3.5753    1.0485    0.9717 H   0  0  0  0  0  0  0  0  0  0  0  0
   -3.3129    1.6218   -0.6722 H   0  0  0  0  0  0  0  0  0  0  0  0
   -1.4646    1.3408    0.4745 C   0  0  0  0  0  3  0  0  0  0  0  0
   -1.2105    1.3350    1.5579 H   0  0  0  0  0  0  0  0  0  0  0  0
   -0.5777    2.4177   -0.1055 C   0  0  0  0  0  0  0  0  0  0  0  0
  1 13  1  0  0  0  0
  2 11  1  0  0  0  0
  2  1  1  0  0  0  0
  3  2  2  0  0  0  0
  4  3  1  0  0  0  0
  5  7  2  0  0  0  0
  5  3  1  0  0  0  0
  6  5  1  0  0  0  0
  7  9  1  0  0  0  0
  8  7  1  0  0  0  0
  9 10  1  0  0  0  0
  9 11  2  0  0  0  0
 11 12  1  0  0  0  0
 13 22  2  0  0  0  0
 13 14  1  0  0  0  0
 14 16  2  0  0  0  0
 15 14  1  0  0  0  0
 16 18  1  0  0  0  0
 16 17  1  0  0  0  0
 18 19  1  0  0  0  0
 20 21  1  0  0  0  0
 20 18  2  0  0  0  0
 22 20  1  0  0  0  0
 23 22  1  0  0  0  0
 24 43  1  0  0  0  0
 24  1  1  0  0  0  0
 25 24  2  0  0  0  0
 26 25  1  0  0  0  0
 27 29  2  0  0  0  0
 27 25  1  0  0  0  0
 28 27  1  0  0  0  0
 29 31  1  0  0  0  0
 30 29  1  0  0  0  0
 31 32  1  0  0  0  0
 31 43  2  0  0  0  0
 32 34  1  0  0  0  0
 32 35  1  0  0  0  0
 33 32  1  0  0  0  0
 35 37  1  0  0  0  0
 35 36  1  0  0  0  0
 38 41  1  0  0  0  0
 38 35  1  0  0  0  0
 38 39  1  0  0  0  0
 40 38  1  0  0  0  0
 41 42  1  0  0  0  0
 43 41  1  0  0  0  0
M  END
