1,7
q = -2.0, confidence = 0.632

 30 29  0  0  0  0  0  0  0  0999 V2000
    1.1254   -0.0000   -1.3560 P   0  0  0  0  0  2  0  0  0  0  0  0
    1.8233    0.0003    1.6133 P   0  0  0  0  0  0  0  0  0  0  0  0
    2.3261    0.0001   -0.1275 C   0  0  0  0  0  0  0  0  0  0  0  0
    3.8256    0.0002   -0.4596 C   0  0  0  0  0  0  0  0  0  0  0  0
    4.4754   -1.2606    0.1557 C   0  0  0  0  0  0  0  0  0  0  0  0
    4.0812    0.0002   -1.9780 C   0  0  0  0  0  0  0  0  0  0  0  0
    0.1016    0.0002    1.4113 C   0  0  0  0  0  3  0  0  0  0  0  0
   -0.7959    0.0003    2.6727 C   0  0  0  0  0  0  0  0  0  0  0  0
   -0.5015    1.2579    3.5232 C   0  0  0  0  0  0  0  0  0  0  0  0
   -2.2988    0.0002    2.3149 C   0  0  0  0  0  0  0  0  0  0  0  0
    5.5675   -1.2728   -0.0448 H   0  0  0  0  0  0  0  0  0  0  0  0
    4.3221   -1.2958    1.2533 H   0  0  0  0  0  0  0  0  0  0  0  0
    4.0342   -2.1807   -0.2794 H   0  0  0  0  0  0  0  0  0  0  0  0
    3.6398    0.8953   -2.4623 H   0  0  0  0  0  0  0  0  0  0  0  0
    5.1715    0.0002   -2.1840 H   0  0  0  0  0  0  0  0  0  0  0  0
    0.5652    1.2986    3.8195 H   0  0  0  0  0  0  0  0  0  0  0  0
   -1.1255    1.2607    4.4422 H   0  0  0  0  0  0  0  0  0  0  0  0
   -0.7319    2.1818    2.9550 H   0  0  0  0  0  0  0  0  0  0  0  0
   -2.5901    0.8934    1.7287 H   0  0  0  0  0  0  0  0  0  0  0  0
   -2.9123    0.0003    3.2407 H   0  0  0  0  0  0  0  0  0  0  0  0
    4.4752    1.2612    0.1556 C   0  0  0  0  0  0  0  0  0  0  0  0
    3.6400   -0.8951   -2.4622 H   0  0  0  0  0  0  0  0  0  0  0  0
   -0.5014   -1.2570    3.5235 C   0  0  0  0  0  0  0  0  0  0  0  0
   -2.5901   -0.8932    1.7291 H   0  0  0  0  0  0  0  0  0  0  0  0
    5.5673    1.2735   -0.0449 H   0  0  0  0  0  0  0  0  0  0  0  0
    4.3219    1.2965    1.2532 H   0  0  0  0  0  0  0  0  0  0  0  0
    4.0339    2.1812   -0.2797 H   0  0  0  0  0  0  0  0  0  0  0  0
    0.5653   -1.2976    3.8199 H   0  0  0  0  0  0  0  0  0  0  0  0
   -1.1254   -1.2596    4.4425 H   0  0  0  0  0  0  0  0  0  0  0  0
   -0.7317   -2.1811    2.9556 H   0  0  0  0  0  0  0  0  0  0  0  0
  1  3  2  0  0  0  0
  3  2  1  0  0  0  0
  4  3  1  0  0  0  0
  4 21  1  0  0  0  0
  4  5  1  0  0  0  0
  5 12  1  0  0  0  0
  6  4  1  0  0  0  0
  7  2  2  0  0  0  0
  7  8  1  0  0  0  0
  8  9  1  0  0  0  0
  8 23  1  0  0  0  0
  9 16  1  0  0  0  0
  9 17  1  0  0  0  0
 10  8  1  0  0  0  0
 10 20  1  0  0  0  0
 11  5  1  0  0  0  0
 13  5  1  0  0  0  0
 14  6  1  0  0  0  0
 15  6  1  0  0  0  0
 18  9  1  0  0  0  0
 19 10  1  0  0  0  0
 21 26  1  0  0  0  0
 22  6  1  0  0  0  0
 23 28  1  0  0  0  0
 23 29  1  0  0  0  0
 24 10  1  0  0  0  0
 25 21  1  0  0  0  0
 27 21  1  0  0  0  0
 30 23  1  0  0  0  0
M  END
