1,2
 OpenBabel05122313053D

 46 49  0  0  1  0  0  0  0  0999 V2000
   -0.6031    0.5130    0.1044 P   0  0  0  0  0  0  0  0  0  0  0  0
    0.6885   -1.9179   -0.3603 C   0  0  0  0  0  3  0  0  0  0  0  0
    1.3606   -3.1386   -0.1295 C   0  0  0  0  0  0  0  0  0  0  0  0
    2.3664   -3.1488    0.3237 H   0  0  0  0  0  0  0  0  0  0  0  0
    0.7773   -4.3785   -0.4429 C   0  0  0  0  0  0  0  0  0  0  0  0
    1.3316   -5.3098   -0.2463 H   0  0  0  0  0  0  0  0  0  0  0  0
   -0.5097   -4.4254   -0.9969 C   0  0  0  0  0  0  0  0  0  0  0  0
   -0.9742   -5.3910   -1.2480 H   0  0  0  0  0  0  0  0  0  0  0  0
   -1.2094   -3.2301   -1.2211 C   0  0  0  0  0  0  0  0  0  0  0  0
   -2.2257   -3.2599   -1.6431 H   0  0  0  0  0  0  0  0  0  0  0  0
   -0.6283   -1.9878   -0.9062 C   0  0  0  0  0  0  0  0  0  0  0  0
   -1.3710   -0.6823   -1.1563 C   0  0  1  0  0  0  0  0  0  0  0  0
   -1.0029   -0.2437   -2.1112 H   0  0  0  0  0  0  0  0  0  0  0  0
   -2.8766   -0.7445   -1.2079 C   0  0  0  0  0  0  0  0  0  0  0  0
   -3.5655   -0.2309   -2.3269 C   0  0  0  0  0  0  0  0  0  0  0  0
   -2.9876    0.1981   -3.1608 H   0  0  0  0  0  0  0  0  0  0  0  0
   -4.9671   -0.2485   -2.3839 C   0  0  0  0  0  0  0  0  0  0  0  0
   -5.4835    0.1582   -3.2668 H   0  0  0  0  0  0  0  0  0  0  0  0
   -5.7063   -0.7858   -1.3187 C   0  0  0  0  0  0  0  0  0  0  0  0
   -6.8061   -0.7994   -1.3586 H   0  0  0  0  0  0  0  0  0  0  0  0
   -5.0324   -1.3154   -0.2058 C   0  0  0  0  0  0  0  0  0  0  0  0
   -5.6027   -1.7463    0.6311 H   0  0  0  0  0  0  0  0  0  0  0  0
   -3.6317   -1.3005   -0.1514 C   0  0  0  0  0  0  0  0  0  0  0  0
   -3.1148   -1.7284    0.7189 H   0  0  0  0  0  0  0  0  0  0  0  0
   -1.4604    0.1978    1.6973 C   0  0  0  0  0  0  0  0  0  0  0  0
   -1.0962   -0.9527    2.4325 C   0  0  0  0  0  0  0  0  0  0  0  0
   -0.2793   -1.5924    2.0662 H   0  0  0  0  0  0  0  0  0  0  0  0
   -1.7766   -1.2767    3.6141 C   0  0  0  0  0  0  0  0  0  0  0  0
   -1.4907   -2.1789    4.1759 H   0  0  0  0  0  0  0  0  0  0  0  0
   -2.8084   -0.4483    4.0863 C   0  0  0  0  0  0  0  0  0  0  0  0
   -3.3363   -0.7007    5.0185 H   0  0  0  0  0  0  0  0  0  0  0  0
   -3.1527    0.7106    3.3743 C   0  0  0  0  0  0  0  0  0  0  0  0
   -3.9497    1.3721    3.7462 H   0  0  0  0  0  0  0  0  0  0  0  0
   -2.4840    1.0349    2.1839 C   0  0  0  0  0  0  0  0  0  0  0  0
   -2.7604    1.9457    1.6343 H   0  0  0  0  0  0  0  0  0  0  0  0
   -1.0341    2.2165   -0.4008 C   0  0  0  0  0  0  0  0  0  0  0  0
   -2.3450    2.5741   -0.7930 C   0  0  0  0  0  0  0  0  0  0  0  0
   -3.1501    1.8264   -0.8023 H   0  0  0  0  0  0  0  0  0  0  0  0
   -2.6228    3.8933   -1.1796 C   0  0  0  0  0  0  0  0  0  0  0  0
   -3.6439    4.1645   -1.4885 H   0  0  0  0  0  0  0  0  0  0  0  0
   -1.6049    4.8612   -1.1716 C   0  0  0  0  0  0  0  0  0  0  0  0
   -1.8280    5.8957   -1.4751 H   0  0  0  0  0  0  0  0  0  0  0  0
   -0.3059    4.5077   -0.7760 C   0  0  0  0  0  0  0  0  0  0  0  0
    0.4951    5.2624   -0.7657 H   0  0  0  0  0  0  0  0  0  0  0  0
   -0.0109    3.1899   -0.3916 C   0  0  0  0  0  0  0  0  0  0  0  0
    1.0122    2.9107   -0.0827 H   0  0  0  0  0  0  0  0  0  0  0  0
  1 25  1  0  0  0  0
  2  3  1  0  0  0  0
  3  4  1  0  0  0  0
  5  6  1  0  0  0  0
  5  3  2  0  0  0  0
  7  5  1  0  0  0  0
  8  7  1  0  0  0  0
  9  7  2  0  0  0  0
  9 11  1  0  0  0  0
 10  9  1  0  0  0  0
 11  2  2  0  0  0  0
 12 13  1  6  0  0  0
 12 11  1  0  0  0  0
 12  1  1  0  0  0  0
 14 12  1  0  0  0  0
 14 23  1  0  0  0  0
 15 14  2  0  0  0  0
 16 15  1  0  0  0  0
 17 15  1  0  0  0  0
 17 19  2  0  0  0  0
 18 17  1  0  0  0  0
 19 21  1  0  0  0  0
 20 19  1  0  0  0  0
 21 23  2  0  0  0  0
 21 22  1  0  0  0  0
 23 24  1  0  0  0  0
 25 34  2  0  0  0  0
 25 26  1  0  0  0  0
 26 28  2  0  0  0  0
 27 26  1  0  0  0  0
 28 30  1  0  0  0  0
 28 29  1  0  0  0  0
 30 31  1  0  0  0  0
 32 33  1  0  0  0  0
 32 30  2  0  0  0  0
 34 32  1  0  0  0  0
 35 34  1  0  0  0  0
 36 45  1  0  0  0  0
 36  1  1  0  0  0  0
 37 36  2  0  0  0  0
 38 37  1  0  0  0  0
 39 41  2  0  0  0  0
 39 37  1  0  0  0  0
 40 39  1  0  0  0  0
 41 43  1  0  0  0  0
 42 41  1  0  0  0  0
 43 44  1  0  0  0  0
 43 45  2  0  0  0  0
 45 46  1  0  0  0  0
M  END
