1,4
 OpenBabel05122313053D

 36 38  0  0  0  0  0  0  0  0999 V2000
   -1.8462    0.2855   -0.0028 P   0  0  0  0  0  0  0  0  0  0  0  0
   -1.2234   -3.8761    0.3906 O   0  0  0  0  0  0  0  0  0  0  0  0
   -0.0998   -4.0034    0.4528 H   0  0  0  0  0  0  0  0  0  0  0  0
   -1.4434   -2.6275    0.1918 C   0  0  0  0  0  2  0  0  0  0  0  0
   -2.8914   -2.2640    0.0614 C   0  0  0  0  0  0  0  0  0  0  0  0
   -3.2576   -0.9005   -0.0617 C   0  0  0  0  0  0  0  0  0  0  0  0
   -4.6050   -0.5416   -0.2180 C   0  0  0  0  0  0  0  0  0  0  0  0
   -4.8835    0.5174   -0.3276 H   0  0  0  0  0  0  0  0  0  0  0  0
   -5.5942   -1.5376   -0.2470 C   0  0  0  0  0  0  0  0  0  0  0  0
   -6.6504   -1.2556   -0.3763 H   0  0  0  0  0  0  0  0  0  0  0  0
   -5.2387   -2.8924   -0.1168 C   0  0  0  0  0  0  0  0  0  0  0  0
   -6.0181   -3.6691   -0.1435 H   0  0  0  0  0  0  0  0  0  0  0  0
   -3.8955   -3.2551    0.0383 C   0  0  0  0  0  0  0  0  0  0  0  0
   -3.5926   -4.3077    0.1350 H   0  0  0  0  0  0  0  0  0  0  0  0
   -2.0801    1.2032    1.5745 C   0  0  0  0  0  0  0  0  0  0  0  0
   -1.4920    2.4752    1.7362 C   0  0  0  0  0  0  0  0  0  0  0  0
   -1.0050    2.9662    0.8801 H   0  0  0  0  0  0  0  0  0  0  0  0
   -1.5208    3.1162    2.9828 C   0  0  0  0  0  0  0  0  0  0  0  0
   -1.0533    4.1059    3.0964 H   0  0  0  0  0  0  0  0  0  0  0  0
   -2.1294    2.4921    4.0834 C   0  0  0  0  0  0  0  0  0  0  0  0
   -2.1497    2.9947    5.0623 H   0  0  0  0  0  0  0  0  0  0  0  0
   -2.7104    1.2227    3.9300 C   0  0  0  0  0  0  0  0  0  0  0  0
   -3.1888    0.7270    4.7885 H   0  0  0  0  0  0  0  0  0  0  0  0
   -2.6862    0.5791    2.6835 C   0  0  0  0  0  0  0  0  0  0  0  0
   -3.1349   -0.4196    2.5717 H   0  0  0  0  0  0  0  0  0  0  0  0
   -2.1793    1.5394   -1.3023 C   0  0  0  0  0  0  0  0  0  0  0  0
   -1.5016    1.4100   -2.5322 C   0  0  0  0  0  0  0  0  0  0  0  0
   -0.8060    0.5656   -2.6851 H   0  0  0  0  0  0  0  0  0  0  0  0
   -1.7210    2.3526   -3.5484 C   0  0  0  0  0  0  0  0  0  0  0  0
   -1.1800    2.2511   -4.5012 H   0  0  0  0  0  0  0  0  0  0  0  0
   -2.6091    3.4204   -3.3487 C   0  0  0  0  0  0  0  0  0  0  0  0
   -2.7740    4.1598   -4.1476 H   0  0  0  0  0  0  0  0  0  0  0  0
   -3.2874    3.5488   -2.1246 C   0  0  0  0  0  0  0  0  0  0  0  0
   -3.9843    4.3857   -1.9631 H   0  0  0  0  0  0  0  0  0  0  0  0
   -3.0746    2.6136   -1.1017 C   0  0  0  0  0  0  0  0  0  0  0  0
   -3.5912    2.7314   -0.1368 H   0  0  0  0  0  0  0  0  0  0  0  0
  1 15  1  0  0  0  0
  2  3  1  0  0  0  0
  4  2  1  0  0  0  0
  5  4  1  0  0  0  0
  6  1  1  0  0  0  0
  6  5  2  0  0  0  0
  7  6  1  0  0  0  0
  8  7  1  0  0  0  0
  9  7  2  0  0  0  0
  9 11  1  0  0  0  0
 10  9  1  0  0  0  0
 11 13  2  0  0  0  0
 12 11  1  0  0  0  0
 13  5  1  0  0  0  0
 13 14  1  0  0  0  0
 15 16  2  0  0  0  0
 15 24  1  0  0  0  0
 16 18  1  0  0  0  0
 17 16  1  0  0  0  0
 18 19  1  0  0  0  0
 18 20  2  0  0  0  0
 20 21  1  0  0  0  0
 22 20  1  0  0  0  0
 22 23  1  0  0  0  0
 24 22  2  0  0  0  0
 25 24  1  0  0  0  0
 26 35  1  0  0  0  0
 26  1  1  0  0  0  0
 27 26  2  0  0  0  0
 28 27  1  0  0  0  0
 29 31  2  0  0  0  0
 29 27  1  0  0  0  0
 30 29  1  0  0  0  0
 31 33  1  0  0  0  0
 32 31  1  0  0  0  0
 33 34  1  0  0  0  0
 33 35  2  0  0  0  0
 35 36  1  0  0  0  0
M  END
