1,4
 OpenBabel05122313053D

 35 39  0  0  0  0  0  0  0  0999 V2000
   -1.0786   -0.0031    0.4262 P   0  0  1  0  0  0  0  0  0  0  0  0
   -0.9231    1.2634    1.5149 O   0  0  0  0  0  0  0  0  0  0  0  0
   -2.1218   -0.9250    1.4136 O   0  0  0  0  0  0  0  0  0  0  0  0
    1.1246    1.2605   -0.6999 C   0  0  0  0  0  3  0  0  0  0  0  0
    1.8762    1.4987   -1.8557 C   0  0  0  0  0  0  0  0  0  0  0  0
    2.4805    2.7569   -2.1052 C   0  0  0  0  0  0  0  0  0  0  0  0
    2.3520    3.7899   -1.1908 C   0  0  0  0  0  0  0  0  0  0  0  0
    1.5374    3.6331   -0.0324 C   0  0  0  0  0  0  0  0  0  0  0  0
    0.8575    2.3669    0.1842 C   0  0  0  0  0  0  0  0  0  0  0  0
   -0.0661    2.3235    1.2892 C   0  0  0  0  0  0  0  0  0  0  0  0
   -0.2006    3.3840    2.1793 C   0  0  0  0  0  0  0  0  0  0  0  0
    0.5420    4.5734    1.9928 C   0  0  0  0  0  0  0  0  0  0  0  0
    1.3759    4.7051    0.8942 C   0  0  0  0  0  0  0  0  0  0  0  0
   -2.4104    0.5150   -0.6877 C   0  0  0  0  0  0  0  0  0  0  0  0
   -2.4354    1.2535   -1.8638 C   0  0  0  0  0  0  0  0  0  0  0  0
   -3.6993    1.4827   -2.4764 C   0  0  0  0  0  0  0  0  0  0  0  0
   -4.8873    0.9797   -1.9428 C   0  0  0  0  0  0  0  0  0  0  0  0
   -4.8827    0.1955   -0.7509 C   0  0  0  0  0  0  0  0  0  0  0  0
   -3.6092   -0.0129   -0.1526 C   0  0  0  0  0  0  0  0  0  0  0  0
   -3.4361   -0.8076    1.0114 C   0  0  0  0  0  0  0  0  0  0  0  0
   -4.5265   -1.4039    1.6202 C   0  0  0  0  0  0  0  0  0  0  0  0
   -5.8127   -1.1846    1.0376 C   0  0  0  0  0  0  0  0  0  0  0  0
   -6.0029   -0.4166   -0.1078 C   0  0  0  0  0  0  0  0  0  0  0  0
    2.0196    0.6752   -2.5713 H   0  0  0  0  0  0  0  0  0  0  0  0
    3.0808    2.8961   -3.0182 H   0  0  0  0  0  0  0  0  0  0  0  0
    2.8591    4.7540   -1.3504 H   0  0  0  0  0  0  0  0  0  0  0  0
   -0.9257    3.2820    2.9990 H   0  0  0  0  0  0  0  0  0  0  0  0
    0.4214    5.4028    2.7058 H   0  0  0  0  0  0  0  0  0  0  0  0
    1.9176    5.6452    0.7087 H   0  0  0  0  0  0  0  0  0  0  0  0
   -1.5076    1.6390   -2.3103 H   0  0  0  0  0  0  0  0  0  0  0  0
   -3.7366    2.0709   -3.4058 H   0  0  0  0  0  0  0  0  0  0  0  0
   -5.8434    1.1761   -2.4525 H   0  0  0  0  0  0  0  0  0  0  0  0
   -4.4057   -2.0248    2.5185 H   0  0  0  0  0  0  0  0  0  0  0  0
   -6.6847   -1.6524    1.5195 H   0  0  0  0  0  0  0  0  0  0  0  0
   -7.0113   -0.2845   -0.5276 H   0  0  0  0  0  0  0  0  0  0  0  0
  1  3  1  0  0  0  0
  1  2  1  1  0  0  0
  4  9  1  0  0  0  0
  5  4  2  0  0  0  0
  6  5  1  0  0  0  0
  6  7  2  0  0  0  0
  7  8  1  0  0  0  0
  8  9  2  0  0  0  0
  8 13  1  0  0  0  0
  9 10  1  0  0  0  0
 10  2  1  0  0  0  0
 10 11  2  0  0  0  0
 11 27  1  0  0  0  0
 12 11  1  0  0  0  0
 12 28  1  0  0  0  0
 13 12  2  0  0  0  0
 14 19  1  0  0  0  0
 14  1  1  0  0  0  0
 15 14  2  0  0  0  0
 16 17  2  0  0  0  0
 16 15  1  0  0  0  0
 17 18  1  0  0  0  0
 18 19  2  0  0  0  0
 18 23  1  0  0  0  0
 19 20  1  0  0  0  0
 20  3  1  0  0  0  0
 20 21  2  0  0  0  0
 21 33  1  0  0  0  0
 22 34  1  0  0  0  0
 22 21  1  0  0  0  0
 23 22  2  0  0  0  0
 24  5  1  0  0  0  0
 25  6  1  0  0  0  0
 26  7  1  0  0  0  0
 29 13  1  0  0  0  0
 30 15  1  0  0  0  0
 31 16  1  0  0  0  0
 32 17  1  0  0  0  0
 35 23  1  0  0  0  0
M  END
