1,3
 OpenBabel05122313053D

 52 56  0  0  0  0  0  0  0  0999 V2000
    1.6515   -0.4497   -0.0448 P   0  0  0  0  0  0  0  0  0  0  0  0
   -2.1701   -0.6651   -1.5537 N   0  0  0  0  0  0  0  0  0  0  0  0
   -0.9278   -0.5253   -1.2699 C   0  0  0  0  0  3  0  0  0  0  0  0
    0.0203   -1.4707   -1.9454 C   0  0  0  0  0  0  0  0  0  0  0  0
    1.3544   -1.5357   -1.4950 C   0  0  0  0  0  0  0  0  0  0  0  0
    2.2862   -2.3859   -2.1148 C   0  0  0  0  0  0  0  0  0  0  0  0
    1.8814   -3.1832   -3.1949 C   0  0  0  0  0  0  0  0  0  0  0  0
    0.5462   -3.1383   -3.6408 C   0  0  0  0  0  0  0  0  0  0  0  0
   -0.3803   -2.2923   -3.0210 C   0  0  0  0  0  0  0  0  0  0  0  0
   -3.2457    0.1069   -1.1505 C   0  0  0  0  0  0  0  0  0  0  0  0
   -3.4194    1.4242   -1.5917 C   0  0  0  0  0  0  0  0  0  0  0  0
   -4.5611    2.1694   -1.2097 C   0  0  0  0  0  0  0  0  0  0  0  0
   -5.5303    1.6200   -0.3824 C   0  0  0  0  0  0  0  0  0  0  0  0
   -5.3979    0.2791    0.0840 C   0  0  0  0  0  0  0  0  0  0  0  0
   -6.3660   -0.3250    0.9401 C   0  0  0  0  0  0  0  0  0  0  0  0
   -6.2173   -1.6315    1.3818 C   0  0  0  0  0  0  0  0  0  0  0  0
   -5.0903   -2.3968    0.9798 C   0  0  0  0  0  0  0  0  0  0  0  0
   -4.1283   -1.8395    0.1491 C   0  0  0  0  0  0  0  0  0  0  0  0
   -4.2522   -0.4997   -0.3134 C   0  0  0  0  0  0  0  0  0  0  0  0
    1.9829   -1.6426    1.3300 C   0  0  0  0  0  0  0  0  0  0  0  0
    3.1264   -2.4703    1.3608 C   0  0  0  0  0  0  0  0  0  0  0  0
    3.2976   -3.4014    2.3946 C   0  0  0  0  0  0  0  0  0  0  0  0
    2.3294   -3.5190    3.4064 C   0  0  0  0  0  0  0  0  0  0  0  0
    1.1884   -2.7035    3.3787 C   0  0  0  0  0  0  0  0  0  0  0  0
    1.0158   -1.7692    2.3450 C   0  0  0  0  0  0  0  0  0  0  0  0
    3.3002    0.2960   -0.3776 C   0  0  0  0  0  0  0  0  0  0  0  0
    4.2701    0.4819    0.6298 C   0  0  0  0  0  0  0  0  0  0  0  0
    5.4413    1.2102    0.3638 C   0  0  0  0  0  0  0  0  0  0  0  0
    5.6594    1.7575   -0.9098 C   0  0  0  0  0  0  0  0  0  0  0  0
    4.6987    1.5732   -1.9198 C   0  0  0  0  0  0  0  0  0  0  0  0
    3.5258    0.8543   -1.6557 C   0  0  0  0  0  0  0  0  0  0  0  0
    3.3291   -2.4167   -1.7644 H   0  0  0  0  0  0  0  0  0  0  0  0
    2.6081   -3.8429   -3.6933 H   0  0  0  0  0  0  0  0  0  0  0  0
    0.2314   -3.7679   -4.4874 H   0  0  0  0  0  0  0  0  0  0  0  0
   -1.4285   -2.2354   -3.3502 H   0  0  0  0  0  0  0  0  0  0  0  0
    0.1176   -1.1351    2.3111 H   0  0  0  0  0  0  0  0  0  0  0  0
    0.4232   -2.7941    4.1646 H   0  0  0  0  0  0  0  0  0  0  0  0
    2.4659   -4.2515    4.2167 H   0  0  0  0  0  0  0  0  0  0  0  0
    4.1923   -4.0425    2.4095 H   0  0  0  0  0  0  0  0  0  0  0  0
    3.8921   -2.3845    0.5752 H   0  0  0  0  0  0  0  0  0  0  0  0
    2.7660    0.7325   -2.4435 H   0  0  0  0  0  0  0  0  0  0  0  0
    4.8621    1.9994   -2.9213 H   0  0  0  0  0  0  0  0  0  0  0  0
    6.5777    2.3272   -1.1174 H   0  0  0  0  0  0  0  0  0  0  0  0
    6.1890    1.3481    1.1598 H   0  0  0  0  0  0  0  0  0  0  0  0
    4.1125    0.0526    1.6309 H   0  0  0  0  0  0  0  0  0  0  0  0
   -6.4114    2.2059   -0.0787 H   0  0  0  0  0  0  0  0  0  0  0  0
   -4.6697    3.2022   -1.5757 H   0  0  0  0  0  0  0  0  0  0  0  0
   -2.6630    1.8705   -2.2504 H   0  0  0  0  0  0  0  0  0  0  0  0
   -3.2520   -2.4210   -0.1728 H   0  0  0  0  0  0  0  0  0  0  0  0
   -7.2398    0.2715    1.2470 H   0  0  0  0  0  0  0  0  0  0  0  0
   -6.9752   -2.0793    2.0428 H   0  0  0  0  0  0  0  0  0  0  0  0
   -4.9831   -3.4360    1.3268 H   0  0  0  0  0  0  0  0  0  0  0  0
  1 20  1  0  0  0  0
  2  3  2  0  0  0  0
  2 10  1  0  0  0  0
  4  5  1  0  0  0  0
  4  3  1  0  0  0  0
  5  1  1  0  0  0  0
  6 32  1  0  0  0  0
  6  5  2  0  0  0  0
  7  6  1  0  0  0  0
  8  7  2  0  0  0  0
  8  9  1  0  0  0  0
  9  4  2  0  0  0  0
 10 19  1  0  0  0  0
 11 12  1  0  0  0  0
 11 10  2  0  0  0  0
 12 13  2  0  0  0  0
 13 46  1  0  0  0  0
 13 14  1  0  0  0  0
 14 15  1  0  0  0  0
 15 50  1  0  0  0  0
 15 16  2  0  0  0  0
 16 51  1  0  0  0  0
 17 52  1  0  0  0  0
 17 16  1  0  0  0  0
 18 17  2  0  0  0  0
 19 14  2  0  0  0  0
 19 18  1  0  0  0  0
 20 21  2  0  0  0  0
 20 25  1  0  0  0  0
 21 22  1  0  0  0  0
 22 39  1  0  0  0  0
 22 23  2  0  0  0  0
 23 38  1  0  0  0  0
 24 23  1  0  0  0  0
 24 37  1  0  0  0  0
 25 24  2  0  0  0  0
 26  1  1  0  0  0  0
 26 27  1  0  0  0  0
 27 45  1  0  0  0  0
 28 27  2  0  0  0  0
 28 44  1  0  0  0  0
 29 28  1  0  0  0  0
 30 31  1  0  0  0  0
 30 29  2  0  0  0  0
 31 26  2  0  0  0  0
 33  7  1  0  0  0  0
 34  8  1  0  0  0  0
 35  9  1  0  0  0  0
 36 25  1  0  0  0  0
 40 21  1  0  0  0  0
 41 31  1  0  0  0  0
 42 30  1  0  0  0  0
 43 29  1  0  0  0  0
 47 12  1  0  0  0  0
 48 11  1  0  0  0  0
 49 18  1  0  0  0  0
M  END
