1,5
 OpenBabel05122313053D

 54 57  0  0  0  0  0  0  0  0999 V2000
   -1.2927    0.0016    0.6309 P   0  0  0  0  0  0  0  0  0  0  0  0
    0.3012   -2.5733    1.8510 N   0  0  0  0  0  0  0  0  0  0  0  0
    2.2631   -2.2025    1.0113 N   0  0  0  0  0  0  0  0  0  0  0  0
    2.2721    2.7775   -1.8949 O   0  0  0  0  0  0  0  0  0  0  0  0
    0.9316   -2.0316    0.7639 C   0  0  0  0  0  2  0  0  0  0  0  0
    1.2218   -3.0745    2.7640 C   0  0  0  0  0  0  0  0  0  0  0  0
    0.9202   -3.5638    3.6946 H   0  0  0  0  0  0  0  0  0  0  0  0
    2.4612   -2.8417    2.2256 C   0  0  0  0  0  0  0  0  0  0  0  0
    3.4608   -3.0862    2.5960 H   0  0  0  0  0  0  0  0  0  0  0  0
   -1.1169   -2.3524    2.1267 C   0  0  0  0  0  0  0  0  0  0  0  0
   -1.3713   -2.9061    3.0510 H   0  0  0  0  0  0  0  0  0  0  0  0
   -1.7191   -2.7781    1.2981 H   0  0  0  0  0  0  0  0  0  0  0  0
   -1.3792   -0.8485    2.2954 C   0  0  0  0  0  0  0  0  0  0  0  0
   -0.6083   -0.4237    2.9695 H   0  0  0  0  0  0  0  0  0  0  0  0
   -2.3779   -0.6648    2.7380 H   0  0  0  0  0  0  0  0  0  0  0  0
   -3.0640   -0.0057    0.1445 C   0  0  0  0  0  0  0  0  0  0  0  0
   -3.9492    0.9680    0.6477 C   0  0  0  0  0  0  0  0  0  0  0  0
   -3.5665    1.7933    1.2684 H   0  0  0  0  0  0  0  0  0  0  0  0
   -5.3161    0.8949    0.3401 C   0  0  0  0  0  0  0  0  0  0  0  0
   -6.0039    1.6633    0.7250 H   0  0  0  0  0  0  0  0  0  0  0  0
   -5.8025   -0.1489   -0.4635 C   0  0  0  0  0  0  0  0  0  0  0  0
   -6.8745   -0.2012   -0.7074 H   0  0  0  0  0  0  0  0  0  0  0  0
   -4.9193   -1.1168   -0.9681 C   0  0  0  0  0  0  0  0  0  0  0  0
   -5.2942   -1.9252   -1.6136 H   0  0  0  0  0  0  0  0  0  0  0  0
   -3.5499   -1.0447   -0.6737 C   0  0  0  0  0  0  0  0  0  0  0  0
   -2.8439   -1.7712   -1.1046 H   0  0  0  0  0  0  0  0  0  0  0  0
   -0.8718    1.7514    0.9635 C   0  0  0  0  0  0  0  0  0  0  0  0
   -0.7524    2.2898    2.2609 C   0  0  0  0  0  0  0  0  0  0  0  0
   -0.9255    1.6664    3.1501 H   0  0  0  0  0  0  0  0  0  0  0  0
   -0.4116    3.6411    2.4299 C   0  0  0  0  0  0  0  0  0  0  0  0
   -0.3171    4.0553    3.4452 H   0  0  0  0  0  0  0  0  0  0  0  0
   -0.1926    4.4585    1.3104 C   0  0  0  0  0  0  0  0  0  0  0  0
    0.0791    5.5163    1.4474 H   0  0  0  0  0  0  0  0  0  0  0  0
   -0.3122    3.9230    0.0178 C   0  0  0  0  0  0  0  0  0  0  0  0
   -0.1170    4.5500   -0.8645 H   0  0  0  0  0  0  0  0  0  0  0  0
   -0.6466    2.5751   -0.1608 C   0  0  0  0  0  0  0  0  0  0  0  0
   -0.7246    2.1359   -1.1695 H   0  0  0  0  0  0  0  0  0  0  0  0
    3.3329   -1.6002    0.1955 C   0  0  0  0  0  0  0  0  0  0  0  0
    3.1995   -1.9755   -0.8385 H   0  0  0  0  0  0  0  0  0  0  0  0
    4.2912   -1.9722    0.6070 H   0  0  0  0  0  0  0  0  0  0  0  0
    3.2517   -0.0874    0.2454 C   0  0  0  0  0  0  0  0  0  0  0  0
    2.8391    0.6161   -0.9025 C   0  0  0  0  0  0  0  0  0  0  0  0
    2.6157    0.0508   -1.8179 H   0  0  0  0  0  0  0  0  0  0  0  0
    2.6782    2.0170   -0.8483 C   0  0  0  0  0  0  0  0  0  0  0  0
    2.9302    2.7015    0.3614 C   0  0  0  0  0  0  0  0  0  0  0  0
    2.7906    3.7912    0.3836 H   0  0  0  0  0  0  0  0  0  0  0  0
    3.3359    1.9931    1.4956 C   0  0  0  0  0  0  0  0  0  0  0  0
    3.5269    2.5382    2.4327 H   0  0  0  0  0  0  0  0  0  0  0  0
    3.5018    0.5987    1.4470 C   0  0  0  0  0  0  0  0  0  0  0  0
    3.8178    0.0458    2.3457 H   0  0  0  0  0  0  0  0  0  0  0  0
    2.0105    2.1271   -3.1380 C   0  0  0  0  0  0  0  0  0  0  0  0
    1.7117    2.9258   -3.8416 H   0  0  0  0  0  0  0  0  0  0  0  0
    1.1857    1.3864   -3.0492 H   0  0  0  0  0  0  0  0  0  0  0  0
    2.9221    1.6232   -3.5283 H   0  0  0  0  0  0  0  0  0  0  0  0
  1 27  1  0  0  0  0
  1 13  1  0  0  0  0
  2 10  1  0  0  0  0
  2  6  1  0  0  0  0
  3  8  1  0  0  0  0
  4 44  1  0  0  0  0
  5  3  1  0  0  0  0
  5  2  1  0  0  0  0
  6  7  1  0  0  0  0
  8  9  1  0  0  0  0
  8  6  2  0  0  0  0
 10 13  1  0  0  0  0
 10 11  1  0  0  0  0
 12 10  1  0  0  0  0
 13 15  1  0  0  0  0
 13 14  1  0  0  0  0
 16  1  1  0  0  0  0
 16 17  1  0  0  0  0
 17 18  1  0  0  0  0
 19 17  2  0  0  0  0
 19 20  1  0  0  0  0
 21 19  1  0  0  0  0
 22 21  1  0  0  0  0
 23 25  1  0  0  0  0
 23 21  2  0  0  0  0
 24 23  1  0  0  0  0
 25 16  2  0  0  0  0
 26 25  1  0  0  0  0
 27 28  1  0  0  0  0
 28 30  2  0  0  0  0
 28 29  1  0  0  0  0
 30 31  1  0  0  0  0
 32 33  1  0  0  0  0
 32 30  1  0  0  0  0
 34 32  2  0  0  0  0
 35 34  1  0  0  0  0
 36 34  1  0  0  0  0
 36 27  2  0  0  0  0
 37 36  1  0  0  0  0
 38 41  1  0  0  0  0
 38 40  1  0  0  0  0
 38  3  1  0  0  0  0
 39 38  1  0  0  0  0
 41 49  1  0  0  0  0
 42 44  1  0  0  0  0
 42 41  2  0  0  0  0
 43 42  1  0  0  0  0
 44 45  2  0  0  0  0
 45 46  1  0  0  0  0
 45 47  1  0  0  0  0
 47 48  1  0  0  0  0
 49 47  2  0  0  0  0
 49 50  1  0  0  0  0
 51 53  1  0  0  0  0
 51  4  1  0  0  0  0
 52 51  1  0  0  0  0
 54 51  1  0  0  0  0
M  END
