1,7
 OpenBabel05122313053D

 67 71  0  0  0  0  0  0  0  0999 V2000
   -1.0626    1.2788    0.5634 P   0  0  0  0  0  0  0  0  0  0  0  0
   -0.9906   -1.6904    0.3384 P   0  0  0  0  0  4  0  0  0  0  0  0
    1.2593   -0.7455    1.7518 O   0  0  0  0  0  0  0  0  0  0  0  0
    7.8940    0.1284    0.1552 O   0  0  0  0  0  0  0  0  0  0  0  0
    7.4542   -0.1154   -1.9720 O   0  0  0  0  0  0  0  0  0  0  0  0
    7.1262   -0.0664   -0.7876 N   0  0  0  0  0  0  0  0  0  0  0  0
    0.5334   -1.1754   -0.4628 C   0  0  0  0  0  3  0  0  0  0  0  0
    0.8274   -1.8024   -1.3237 H   0  0  0  0  0  0  0  0  0  0  0  0
    1.5708   -0.8526    0.5471 C   0  0  0  0  0  0  0  0  0  0  0  0
    2.9969   -0.6368    0.1357 C   0  0  0  0  0  0  0  0  0  0  0  0
    3.4267   -0.6562   -1.2090 C   0  0  0  0  0  0  0  0  0  0  0  0
    2.7001   -0.7646   -2.0323 H   0  0  0  0  0  0  0  0  0  0  0  0
    4.7799   -0.4674   -1.5131 C   0  0  0  0  0  0  0  0  0  0  0  0
    5.1441   -0.4660   -2.5488 H   0  0  0  0  0  0  0  0  0  0  0  0
    5.6876   -0.2611   -0.4669 C   0  0  0  0  0  0  0  0  0  0  0  0
    5.2857   -0.2264    0.8763 C   0  0  0  0  0  0  0  0  0  0  0  0
    6.0404   -0.0524    1.6544 H   0  0  0  0  0  0  0  0  0  0  0  0
    3.9344   -0.4149    1.1702 C   0  0  0  0  0  0  0  0  0  0  0  0
    3.5667   -0.3934    2.2058 H   0  0  0  0  0  0  0  0  0  0  0  0
   -0.9490   -3.2403    1.2979 C   0  0  0  0  0  0  0  0  0  0  0  0
   -1.5303   -4.4118    0.7669 C   0  0  0  0  0  0  0  0  0  0  0  0
   -2.0516   -4.3802   -0.2013 H   0  0  0  0  0  0  0  0  0  0  0  0
   -1.4450   -5.6169    1.4787 C   0  0  0  0  0  0  0  0  0  0  0  0
   -1.8991   -6.5282    1.0616 H   0  0  0  0  0  0  0  0  0  0  0  0
   -0.7853   -5.6592    2.7170 C   0  0  0  0  0  0  0  0  0  0  0  0
   -0.7226   -6.6062    3.2741 H   0  0  0  0  0  0  0  0  0  0  0  0
   -0.2022   -4.4948    3.2435 C   0  0  0  0  0  0  0  0  0  0  0  0
    0.3211   -4.5285    4.2108 H   0  0  0  0  0  0  0  0  0  0  0  0
   -0.2756   -3.2849    2.5400 C   0  0  0  0  0  0  0  0  0  0  0  0
    0.2026   -2.3745    2.9278 H   0  0  0  0  0  0  0  0  0  0  0  0
   -2.3168   -1.8571   -0.8983 C   0  0  0  0  0  0  0  0  0  0  0  0
   -3.6397   -1.9996   -0.4277 C   0  0  0  0  0  0  0  0  0  0  0  0
   -3.8453   -2.0328    0.6531 H   0  0  0  0  0  0  0  0  0  0  0  0
   -4.7005   -2.0705   -1.3394 C   0  0  0  0  0  0  0  0  0  0  0  0
   -5.7320   -2.1692   -0.9697 H   0  0  0  0  0  0  0  0  0  0  0  0
   -4.4451   -1.9969   -2.7194 C   0  0  0  0  0  0  0  0  0  0  0  0
   -5.2803   -2.0388   -3.4349 H   0  0  0  0  0  0  0  0  0  0  0  0
   -3.1285   -1.8588   -3.1851 C   0  0  0  0  0  0  0  0  0  0  0  0
   -2.9222   -1.7847   -4.2630 H   0  0  0  0  0  0  0  0  0  0  0  0
   -2.0559   -1.7878   -2.2823 C   0  0  0  0  0  0  0  0  0  0  0  0
   -1.0374   -1.6214   -2.6723 H   0  0  0  0  0  0  0  0  0  0  0  0
   -1.4929   -0.3152    1.4170 C   0  0  0  0  0  0  0  0  0  0  0  0
   -2.2282   -0.4534    2.5370 C   0  0  0  0  0  0  0  0  0  0  0  0
   -2.4852   -1.4450    2.9464 H   0  0  0  0  0  0  0  0  0  0  0  0
   -2.5924    0.4308    3.0858 H   0  0  0  0  0  0  0  0  0  0  0  0
   -2.7144    2.0489    0.3895 C   0  0  0  0  0  0  0  0  0  0  0  0
   -3.2205    2.9249    1.3682 C   0  0  0  0  0  0  0  0  0  0  0  0
   -2.5860    3.2356    2.2123 H   0  0  0  0  0  0  0  0  0  0  0  0
   -4.5314    3.4147    1.2511 C   0  0  0  0  0  0  0  0  0  0  0  0
   -4.9242    4.1074    2.0108 H   0  0  0  0  0  0  0  0  0  0  0  0
   -5.3332    3.0292    0.1659 C   0  0  0  0  0  0  0  0  0  0  0  0
   -6.3588    3.4181    0.0751 H   0  0  0  0  0  0  0  0  0  0  0  0
   -4.8225    2.1585   -0.8123 C   0  0  0  0  0  0  0  0  0  0  0  0
   -5.4433    1.8666   -1.6727 H   0  0  0  0  0  0  0  0  0  0  0  0
   -3.5135    1.6717   -0.7087 C   0  0  0  0  0  0  0  0  0  0  0  0
   -3.0988    1.0113   -1.4851 H   0  0  0  0  0  0  0  0  0  0  0  0
   -0.1260    2.3111    1.7412 C   0  0  0  0  0  0  0  0  0  0  0  0
    0.2630    1.8784    3.0234 C   0  0  0  0  0  0  0  0  0  0  0  0
    0.0031    0.8693    3.3686 H   0  0  0  0  0  0  0  0  0  0  0  0
    1.0114    2.7353    3.8455 C   0  0  0  0  0  0  0  0  0  0  0  0
    1.3183    2.3958    4.8464 H   0  0  0  0  0  0  0  0  0  0  0  0
    1.3748    4.0125    3.3922 C   0  0  0  0  0  0  0  0  0  0  0  0
    1.9636    4.6792    4.0404 H   0  0  0  0  0  0  0  0  0  0  0  0
    0.9994    4.4350    2.1053 C   0  0  0  0  0  0  0  0  0  0  0  0
    1.2975    5.4293    1.7400 H   0  0  0  0  0  0  0  0  0  0  0  0
    0.2566    3.5888    1.2722 C   0  0  0  0  0  0  0  0  0  0  0  0
   -0.0126    3.8915    0.2460 H   0  0  0  0  0  0  0  0  0  0  0  0
  1 42  1  0  0  0  0
  1 57  1  0  0  0  0
  2 20  1  0  0  0  0
  2 42  1  0  0  0  0
  5  6  2  0  0  0  0
  6 15  1  0  0  0  0
  6  4  2  0  0  0  0
  7  2  1  0  0  0  0
  7  9  1  0  0  0  0
  8  7  1  0  0  0  0
  9  3  2  0  0  0  0
 10  9  1  0  0  0  0
 10 18  1  0  0  0  0
 11 10  2  0  0  0  0
 12 11  1  0  0  0  0
 13 11  1  0  0  0  0
 13 15  2  0  0  0  0
 14 13  1  0  0  0  0
 15 16  1  0  0  0  0
 16 18  2  0  0  0  0
 16 17  1  0  0  0  0
 18 19  1  0  0  0  0
 20 29  1  0  0  0  0
 21 20  2  0  0  0  0
 21 23  1  0  0  0  0
 22 21  1  0  0  0  0
 23 25  2  0  0  0  0
 24 23  1  0  0  0  0
 25 27  1  0  0  0  0
 25 26  1  0  0  0  0
 27 28  1  0  0  0  0
 29 30  1  0  0  0  0
 29 27  2  0  0  0  0
 31 32  1  0  0  0  0
 31  2  1  0  0  0  0
 32 33  1  0  0  0  0
 34 35  1  0  0  0  0
 34 32  2  0  0  0  0
 36 34  1  0  0  0  0
 37 36  1  0  0  0  0
 38 36  2  0  0  0  0
 38 40  1  0  0  0  0
 39 38  1  0  0  0  0
 40 31  2  0  0  0  0
 41 40  1  0  0  0  0
 42 43  2  0  0  0  0
 43 44  1  0  0  0  0
 43 45  1  0  0  0  0
 46  1  1  0  0  0  0
 46 47  1  0  0  0  0
 47 48  1  0  0  0  0
 49 47  2  0  0  0  0
 49 50  1  0  0  0  0
 51 49  1  0  0  0  0
 52 51  1  0  0  0  0
 53 55  1  0  0  0  0
 53 51  2  0  0  0  0
 54 53  1  0  0  0  0
 55 46  2  0  0  0  0
 56 55  1  0  0  0  0
 57 58  1  0  0  0  0
 58 59  1  0  0  0  0
 58 60  2  0  0  0  0
 60 61  1  0  0  0  0
 62 60  1  0  0  0  0
 62 63  1  0  0  0  0
 64 62  2  0  0  0  0
 65 64  1  0  0  0  0
 66 57  2  0  0  0  0
 66 64  1  0  0  0  0
 67 66  1  0  0  0  0
M  END
