1,2
 OpenBabel05122313053D

 32 32  0  0  0  0  0  0  0  0999 V2000
   -0.9309   -0.4997   -1.0405 P   0  0  1  0  0  0  0  0  0  0  0  0
   -0.2385    0.9800   -0.2491 C   0  0  0  0  0  2  0  0  0  0  0  0
   -0.8031    2.1365    0.0719 N   0  0  0  0  0  0  0  0  0  0  0  0
   -2.5330   -0.9471   -0.2586 C   0  0  0  0  0  0  0  0  0  0  0  0
   -2.5462   -1.1799    1.1337 C   0  0  0  0  0  0  0  0  0  0  0  0
   -3.7441   -1.4972    1.7870 C   0  0  0  0  0  0  0  0  0  0  0  0
   -4.9406   -1.6052    1.0581 C   0  0  0  0  0  0  0  0  0  0  0  0
   -4.9317   -1.3931   -0.3288 C   0  0  0  0  0  0  0  0  0  0  0  0
   -3.7362   -1.0628   -0.9870 C   0  0  0  0  0  0  0  0  0  0  0  0
   -2.1740    2.5287   -0.2899 C   0  0  0  0  0  0  0  0  0  0  0  0
   -2.2221    3.4240   -1.5275 C   0  0  0  0  0  0  0  0  0  0  0  0
   -0.0299    3.0944    0.8866 C   0  0  0  0  0  0  0  0  0  0  0  0
   -0.2450    2.8746    2.3820 C   0  0  0  0  0  0  0  0  0  0  0  0
   -1.3120   -0.1895   -2.8192 C   0  0  0  0  0  0  0  0  0  0  0  0
   -1.6066   -1.1139    1.7029 H   0  0  0  0  0  0  0  0  0  0  0  0
   -3.7405   -1.6720    2.8735 H   0  0  0  0  0  0  0  0  0  0  0  0
   -5.8793   -1.8628    1.5712 H   0  0  0  0  0  0  0  0  0  0  0  0
   -5.8631   -1.4862   -0.9079 H   0  0  0  0  0  0  0  0  0  0  0  0
   -3.7504   -0.9001   -2.0746 H   0  0  0  0  0  0  0  0  0  0  0  0
   -2.7598    1.6027   -0.4483 H   0  0  0  0  0  0  0  0  0  0  0  0
   -2.6253    3.0455    0.5833 H   0  0  0  0  0  0  0  0  0  0  0  0
    1.0366    2.9515    0.6264 H   0  0  0  0  0  0  0  0  0  0  0  0
   -0.3222    4.1215    0.5833 H   0  0  0  0  0  0  0  0  0  0  0  0
   -3.2698    3.7001   -1.7607 H   0  0  0  0  0  0  0  0  0  0  0  0
   -1.3094    2.9959    2.6696 H   0  0  0  0  0  0  0  0  0  0  0  0
   -2.1564    0.5130   -2.9620 H   0  0  0  0  0  0  0  0  0  0  0  0
   -1.6512    4.3627   -1.3794 H   0  0  0  0  0  0  0  0  0  0  0  0
   -1.7956    2.9037   -2.4082 H   0  0  0  0  0  0  0  0  0  0  0  0
    0.0812    1.8559    2.6688 H   0  0  0  0  0  0  0  0  0  0  0  0
    0.3504    3.6043    2.9655 H   0  0  0  0  0  0  0  0  0  0  0  0
   -1.5427   -1.1503   -3.3209 H   0  0  0  0  0  0  0  0  0  0  0  0
   -0.3972    0.2308   -3.2776 H   0  0  0  0  0  0  0  0  0  0  0  0
  1  4  1  0  0  0  0
  1  2  1  1  0  0  0
  2  3  1  0  0  0  0
  3 12  1  0  0  0  0
  4  5  1  0  0  0  0
  5 15  1  0  0  0  0
  5  6  2  0  0  0  0
  6 16  1  0  0  0  0
  7 17  1  0  0  0  0
  7  6  1  0  0  0  0
  8  7  2  0  0  0  0
  9  8  1  0  0  0  0
  9  4  2  0  0  0  0
 10  3  1  0  0  0  0
 10 21  1  0  0  0  0
 11 27  1  0  0  0  0
 11 10  1  0  0  0  0
 12 13  1  0  0  0  0
 13 29  1  0  0  0  0
 13 25  1  0  0  0  0
 13 30  1  0  0  0  0
 14  1  1  0  0  0  0
 18  8  1  0  0  0  0
 19  9  1  0  0  0  0
 20 10  1  0  0  0  0
 22 12  1  0  0  0  0
 23 12  1  0  0  0  0
 24 11  1  0  0  0  0
 26 14  1  0  0  0  0
 28 11  1  0  0  0  0
 31 14  1  0  0  0  0
 32 14  1  0  0  0  0
M  END
