1,4
 OpenBabel05122313053D

 36 38  0  0  0  0  0  0  0  0999 V2000
    1.6446    0.4553   -0.8478 P   0  0  0  0  0  0  0  0  0  0  0  0
    2.2644   -0.6198   -2.2238 C   0  0  0  0  0  0  0  0  0  0  0  0
    2.3851   -2.0042   -1.6196 C   0  0  0  0  0  0  0  0  0  0  0  0
    1.4643   -2.4259   -0.6198 C   0  0  0  0  0  3  0  0  0  0  0  0
    1.6279   -3.6857   -0.0168 C   0  0  0  0  0  0  0  0  0  0  0  0
    2.6754   -4.5350   -0.4123 C   0  0  0  0  0  0  0  0  0  0  0  0
    3.5703   -4.1288   -1.4123 C   0  0  0  0  0  0  0  0  0  0  0  0
    3.4303   -2.8655   -2.0049 C   0  0  0  0  0  0  0  0  0  0  0  0
    3.0581    0.7532    0.2547 C   0  0  0  0  0  0  0  0  0  0  0  0
    3.0617    0.2005    1.5512 C   0  0  0  0  0  0  0  0  0  0  0  0
    4.1675    0.3936    2.3921 C   0  0  0  0  0  0  0  0  0  0  0  0
    5.2707    1.1352    1.9419 C   0  0  0  0  0  0  0  0  0  0  0  0
    5.2749    1.6795    0.6463 C   0  0  0  0  0  0  0  0  0  0  0  0
    4.1745    1.4889   -0.2004 C   0  0  0  0  0  0  0  0  0  0  0  0
    1.0483    2.0466   -1.4979 C   0  0  0  0  0  0  0  0  0  0  0  0
    0.0588    2.0215   -2.5067 C   0  0  0  0  0  0  0  0  0  0  0  0
   -0.4894    3.2191   -2.9828 C   0  0  0  0  0  0  0  0  0  0  0  0
   -0.0574    4.4487   -2.4566 C   0  0  0  0  0  0  0  0  0  0  0  0
    0.9138    4.4751   -1.4447 C   0  0  0  0  0  0  0  0  0  0  0  0
    1.4632    3.2799   -0.9566 C   0  0  0  0  0  0  0  0  0  0  0  0
    1.5092   -0.5784   -3.0387 H   0  0  0  0  0  0  0  0  0  0  0  0
    3.2210   -0.2376   -2.6321 H   0  0  0  0  0  0  0  0  0  0  0  0
    0.9401   -4.0127    0.7764 H   0  0  0  0  0  0  0  0  0  0  0  0
    2.7932   -5.5165    0.0714 H   0  0  0  0  0  0  0  0  0  0  0  0
    4.3910   -4.7914   -1.7246 H   0  0  0  0  0  0  0  0  0  0  0  0
    4.1454   -2.5394   -2.7763 H   0  0  0  0  0  0  0  0  0  0  0  0
    2.2039   -0.3992    1.8919 H   0  0  0  0  0  0  0  0  0  0  0  0
    4.1704   -0.0450    3.4009 H   0  0  0  0  0  0  0  0  0  0  0  0
    6.1383    1.2847    2.6018 H   0  0  0  0  0  0  0  0  0  0  0  0
    6.1441    2.2525    0.2909 H   0  0  0  0  0  0  0  0  0  0  0  0
    4.1862    1.9151   -1.2157 H   0  0  0  0  0  0  0  0  0  0  0  0
   -0.2919    1.0633   -2.9210 H   0  0  0  0  0  0  0  0  0  0  0  0
   -1.2575    3.1921   -3.7699 H   0  0  0  0  0  0  0  0  0  0  0  0
   -0.4842    5.3890   -2.8363 H   0  0  0  0  0  0  0  0  0  0  0  0
    1.2458    5.4349   -1.0220 H   0  0  0  0  0  0  0  0  0  0  0  0
    2.2049    3.3090   -0.1457 H   0  0  0  0  0  0  0  0  0  0  0  0
  1  9  1  0  0  0  0
  2  3  1  0  0  0  0
  2  1  1  0  0  0  0
  3  4  1  0  0  0  0
  4  5  2  0  0  0  0
  5 23  1  0  0  0  0
  6  5  1  0  0  0  0
  6 24  1  0  0  0  0
  7  6  2  0  0  0  0
  8  3  2  0  0  0  0
  8  7  1  0  0  0  0
  9 10  1  0  0  0  0
 10 27  1  0  0  0  0
 10 11  2  0  0  0  0
 11 28  1  0  0  0  0
 12 11  1  0  0  0  0
 12 29  1  0  0  0  0
 13 12  2  0  0  0  0
 14  9  2  0  0  0  0
 14 13  1  0  0  0  0
 15 20  1  0  0  0  0
 15  1  1  0  0  0  0
 16 15  2  0  0  0  0
 17 16  1  0  0  0  0
 17 18  2  0  0  0  0
 18 19  1  0  0  0  0
 19 35  1  0  0  0  0
 19 20  2  0  0  0  0
 20 36  1  0  0  0  0
 21  2  1  0  0  0  0
 22  2  1  0  0  0  0
 25  7  1  0  0  0  0
 26  8  1  0  0  0  0
 30 13  1  0  0  0  0
 31 14  1  0  0  0  0
 32 16  1  0  0  0  0
 33 17  1  0  0  0  0
 34 18  1  0  0  0  0
M  END
