1,2
 OpenBabel05122313053D

 44 45  0  0  0  0  0  0  0  0999 V2000
    0.1591    0.1851   -0.4791 P   0  0  0  0  0  0  0  0  0  0  0  0
   -0.1942   -2.4217   -1.6234 C   0  0  0  0  0  3  0  0  0  0  0  0
   -0.4789   -1.3288   -2.6475 C   0  0  0  0  0  0  0  0  0  0  0  0
    0.3390   -0.0801   -2.3159 C   0  0  0  0  0  0  0  0  0  0  0  0
    1.8279    0.7879    0.1155 C   0  0  0  0  0  0  0  0  0  0  0  0
    2.8677   -0.3454    0.0691 C   0  0  0  0  0  0  0  0  0  0  0  0
    4.2219    0.1107    0.6278 C   0  0  0  0  0  0  0  0  0  0  0  0
    4.7379    1.3610   -0.0946 C   0  0  0  0  0  0  0  0  0  0  0  0
    3.7052    2.4931   -0.0446 C   0  0  0  0  0  0  0  0  0  0  0  0
    2.3437    2.0477   -0.6014 C   0  0  0  0  0  0  0  0  0  0  0  0
   -0.9289    1.7073   -0.3631 C   0  0  0  0  0  0  0  0  0  0  0  0
   -0.9688    2.3202    1.0473 C   0  0  0  0  0  0  0  0  0  0  0  0
   -1.8686    3.5643    1.0906 C   0  0  0  0  0  0  0  0  0  0  0  0
   -3.2829    3.2560    0.5855 C   0  0  0  0  0  0  0  0  0  0  0  0
   -3.2460    2.6474   -0.8211 C   0  0  0  0  0  0  0  0  0  0  0  0
   -2.3492    1.4027   -0.8706 C   0  0  0  0  0  0  0  0  0  0  0  0
   -0.7911   -3.3337   -1.8154 H   0  0  0  0  0  0  0  0  0  0  0  0
    0.8754   -2.7123   -1.6691 H   0  0  0  0  0  0  0  0  0  0  0  0
   -1.5618   -1.0816   -2.6527 H   0  0  0  0  0  0  0  0  0  0  0  0
   -0.2338   -1.6848   -3.6757 H   0  0  0  0  0  0  0  0  0  0  0  0
    0.0434    0.8224   -2.8888 H   0  0  0  0  0  0  0  0  0  0  0  0
    1.4160   -0.2632   -2.5154 H   0  0  0  0  0  0  0  0  0  0  0  0
    1.6522    1.0345    1.1880 H   0  0  0  0  0  0  0  0  0  0  0  0
   -0.4660    2.4490   -1.0548 H   0  0  0  0  0  0  0  0  0  0  0  0
    3.0045   -0.6774   -0.9852 H   0  0  0  0  0  0  0  0  0  0  0  0
    2.4854   -1.2255    0.6234 H   0  0  0  0  0  0  0  0  0  0  0  0
    4.9583   -0.7166    0.5540 H   0  0  0  0  0  0  0  0  0  0  0  0
    4.1099    0.3335    1.7127 H   0  0  0  0  0  0  0  0  0  0  0  0
    4.9503    1.1072   -1.1579 H   0  0  0  0  0  0  0  0  0  0  0  0
    5.7009    1.6959    0.3443 H   0  0  0  0  0  0  0  0  0  0  0  0
    4.0689    3.3810   -0.6032 H   0  0  0  0  0  0  0  0  0  0  0  0
    3.5725    2.8208    1.0111 H   0  0  0  0  0  0  0  0  0  0  0  0
    2.4467    1.8313   -1.6884 H   0  0  0  0  0  0  0  0  0  0  0  0
    1.6130    2.8780   -0.5145 H   0  0  0  0  0  0  0  0  0  0  0  0
    0.0530    2.5844    1.3903 H   0  0  0  0  0  0  0  0  0  0  0  0
   -1.3544    1.5654    1.7650 H   0  0  0  0  0  0  0  0  0  0  0  0
   -1.4185    4.3617    0.4567 H   0  0  0  0  0  0  0  0  0  0  0  0
   -1.9015    3.9682    2.1240 H   0  0  0  0  0  0  0  0  0  0  0  0
   -3.9080    4.1732    0.5970 H   0  0  0  0  0  0  0  0  0  0  0  0
   -3.7692    2.5359    1.2814 H   0  0  0  0  0  0  0  0  0  0  0  0
   -2.8613    3.4063   -1.5394 H   0  0  0  0  0  0  0  0  0  0  0  0
   -4.2698    2.3860   -1.1612 H   0  0  0  0  0  0  0  0  0  0  0  0
   -2.3148    0.9970   -1.9033 H   0  0  0  0  0  0  0  0  0  0  0  0
   -2.7871    0.6006   -0.2386 H   0  0  0  0  0  0  0  0  0  0  0  0
  1 11  1  0  0  0  0
  1  5  1  0  0  0  0
  3  4  1  0  0  0  0
  3  2  1  0  0  0  0
  4  1  1  0  0  0  0
  5 23  1  0  0  0  0
  6  5  1  0  0  0  0
  6 26  1  0  0  0  0
  6  7  1  0  0  0  0
  7 28  1  0  0  0  0
  8  9  1  0  0  0  0
  8 30  1  0  0  0  0
  8  7  1  0  0  0  0
  9 32  1  0  0  0  0
 10 34  1  0  0  0  0
 10  9  1  0  0  0  0
 10  5  1  0  0  0  0
 11 12  1  0  0  0  0
 12 13  1  0  0  0  0
 12 35  1  0  0  0  0
 12 36  1  0  0  0  0
 13 38  1  0  0  0  0
 14 39  1  0  0  0  0
 14 13  1  0  0  0  0
 14 40  1  0  0  0  0
 15 14  1  0  0  0  0
 16 15  1  0  0  0  0
 16 11  1  0  0  0  0
 16 44  1  0  0  0  0
 17  2  1  0  0  0  0
 18  2  1  0  0  0  0
 19  3  1  0  0  0  0
 20  3  1  0  0  0  0
 21  4  1  0  0  0  0
 22  4  1  0  0  0  0
 24 11  1  0  0  0  0
 25  6  1  0  0  0  0
 27  7  1  0  0  0  0
 29  8  1  0  0  0  0
 31  9  1  0  0  0  0
 33 10  1  0  0  0  0
 37 13  1  0  0  0  0
 41 15  1  0  0  0  0
 42 15  1  0  0  0  0
 43 16  1  0  0  0  0
M  END
