1,8
 OpenBabel05122313053D

 34 36  0  0  1  0  0  0  0  0999 V2000
    2.4496   -0.8066   -0.2256 P   0  0  0  0  0  0  0  0  0  0  0  0
    3.4227   -1.5099    1.1469 C   0  0  0  0  0  0  0  0  0  0  0  0
    4.1728   -2.6854    0.9165 C   0  0  0  0  0  0  0  0  0  0  0  0
    4.9181   -3.2526    1.9590 C   0  0  0  0  0  0  0  0  0  0  0  0
    4.9139   -2.6542    3.2304 C   0  0  0  0  0  0  0  0  0  0  0  0
    4.1627   -1.4908    3.4579 C   0  0  0  0  0  0  0  0  0  0  0  0
    3.4141   -0.9099    2.4223 C   0  0  0  0  0  0  0  0  0  0  0  0
    1.5511   -2.2315   -0.9747 C   0  0  2  0  0  3  0  0  0  0  0  0
    1.3856   -2.4313   -2.3732 C   0  0  0  0  0  0  0  0  0  0  0  0
    0.4590   -3.3626   -2.8366 C   0  0  0  0  0  0  0  0  0  0  0  0
   -0.3364   -4.1072   -1.9352 C   0  0  0  0  0  0  0  0  0  0  0  0
   -0.1877   -3.9289   -0.5617 C   0  0  0  0  0  0  0  0  0  0  0  0
    0.7497   -2.9922   -0.0597 C   0  0  0  0  0  3  0  0  0  0  0  0
    3.5560   -0.0407   -1.4393 C   0  0  0  0  0  0  0  0  0  0  0  0
    2.9883    0.6298   -2.5441 C   0  0  0  0  0  0  0  0  0  0  0  0
    3.8310    1.2495   -3.4770 C   0  0  0  0  0  0  0  0  0  0  0  0
    5.2239    1.2195   -3.3065 C   0  0  0  0  0  0  0  0  0  0  0  0
    5.7828    0.5693   -2.1943 C   0  0  0  0  0  0  0  0  0  0  0  0
    4.9539   -0.0596   -1.2552 C   0  0  0  0  0  0  0  0  0  0  0  0
    4.1675   -3.1569   -0.0784 H   0  0  0  0  0  0  0  0  0  0  0  0
    5.5020   -4.1678    1.7783 H   0  0  0  0  0  0  0  0  0  0  0  0
    5.4981   -3.1020    4.0490 H   0  0  0  0  0  0  0  0  0  0  0  0
    4.1535   -1.0243    4.4544 H   0  0  0  0  0  0  0  0  0  0  0  0
    2.8199   -0.0033    2.6021 H   0  0  0  0  0  0  0  0  0  0  0  0
    1.9873   -1.8393   -3.0782 H   0  0  0  0  0  0  0  0  0  0  0  0
    0.3378   -3.5129   -3.9198 H   0  0  0  0  0  0  0  0  0  0  0  0
   -1.0758   -4.8224   -2.3224 H   0  0  0  0  0  0  0  0  0  0  0  0
   -0.7911   -4.5124    0.1495 H   0  0  0  0  0  0  0  0  0  0  0  0
    0.9730   -2.9722    1.0177 H   0  0  0  0  0  0  0  0  0  0  0  0
    1.8949    0.6997   -2.6615 H   0  0  0  0  0  0  0  0  0  0  0  0
    3.3860    1.7835   -4.3296 H   0  0  0  0  0  0  0  0  0  0  0  0
    5.8787    1.7206   -4.0356 H   0  0  0  0  0  0  0  0  0  0  0  0
    6.8736    0.5587   -2.0494 H   0  0  0  0  0  0  0  0  0  0  0  0
    5.3910   -0.5544   -0.3757 H   0  0  0  0  0  0  0  0  0  0  0  0
  1  2  1  0  0  0  0
  2  7  1  0  0  0  0
  3  2  2  0  0  0  0
  3  4  1  0  0  0  0
  4  5  2  0  0  0  0
  5  6  1  0  0  0  0
  5 22  1  0  0  0  0
  6 23  1  0  0  0  0
  7 24  1  0  0  0  0
  7  6  2  0  0  0  0
  8  1  1  6  0  0  0
  8 13  1  0  0  0  0
  9  8  1  0  0  0  0
 10  9  2  0  0  0  0
 10 11  1  0  0  0  0
 11 12  2  0  0  0  0
 12 13  1  0  0  0  0
 12 28  1  0  0  0  0
 13 29  1  0  0  0  0
 14 19  1  0  0  0  0
 14  1  1  0  0  0  0
 15 14  2  0  0  0  0
 16 17  2  0  0  0  0
 16 15  1  0  0  0  0
 17 18  1  0  0  0  0
 18 33  1  0  0  0  0
 18 19  2  0  0  0  0
 19 34  1  0  0  0  0
 20  3  1  0  0  0  0
 21  4  1  0  0  0  0
 25  9  1  0  0  0  0
 26 10  1  0  0  0  0
 27 11  1  0  0  0  0
 30 15  1  0  0  0  0
 31 16  1  0  0  0  0
 32 17  1  0  0  0  0
M  END
