1,34
 OpenBabel05122313053D

 43 45  0  0  0  0  0  0  0  0999 V2000
   -0.9927    0.2224    0.0535 P   0  0  0  0  0  0  0  0  0  0  0  0
   -1.5569    1.9148    0.4451 C   0  0  0  0  0  0  0  0  0  0  0  0
   -0.7690    2.6855    1.3304 C   0  0  0  0  0  0  0  0  0  0  0  0
    0.1611    2.2649    1.7485 H   0  0  0  0  0  0  0  0  0  0  0  0
   -1.1841    3.9720    1.6991 C   0  0  0  0  0  0  0  0  0  0  0  0
   -0.5722    4.5665    2.3938 H   0  0  0  0  0  0  0  0  0  0  0  0
   -2.3830    4.4975    1.1870 C   0  0  0  0  0  0  0  0  0  0  0  0
   -2.7069    5.5085    1.4758 H   0  0  0  0  0  0  0  0  0  0  0  0
   -3.1694    3.7325    0.3118 C   0  0  0  0  0  0  0  0  0  0  0  0
   -4.1115    4.1406   -0.0834 H   0  0  0  0  0  0  0  0  0  0  0  0
   -2.7630    2.4417   -0.0615 C   0  0  0  0  0  0  0  0  0  0  0  0
   -3.3856    1.8454   -0.7447 H   0  0  0  0  0  0  0  0  0  0  0  0
   -1.9268   -0.3459   -1.3958 C   0  0  0  0  0  0  0  0  0  0  0  0
   -1.9031    0.4237   -2.5796 C   0  0  0  0  0  0  0  0  0  0  0  0
   -1.3744    1.3902   -2.6069 H   0  0  0  0  0  0  0  0  0  0  0  0
   -2.5740   -0.0305   -3.7227 C   0  0  0  0  0  0  0  0  0  0  0  0
   -2.5587    0.5723   -4.6427 H   0  0  0  0  0  0  0  0  0  0  0  0
   -3.2671   -1.2525   -3.6907 C   0  0  0  0  0  0  0  0  0  0  0  0
   -3.7951   -1.6071   -4.5883 H   0  0  0  0  0  0  0  0  0  0  0  0
   -3.2871   -2.0201   -2.5151 C   0  0  0  0  0  0  0  0  0  0  0  0
   -3.8311   -2.9761   -2.4897 H   0  0  0  0  0  0  0  0  0  0  0  0
   -2.6144   -1.5754   -1.3674 C   0  0  0  0  0  0  0  0  0  0  0  0
   -2.6111   -2.1850   -0.4528 H   0  0  0  0  0  0  0  0  0  0  0  0
   -1.3326   -0.8292    1.4918 C   0  0  0  0  0  0  0  0  0  0  0  0
   -0.2195   -1.5503    1.9789 C   0  0  0  0  0  0  0  0  0  0  0  0
   -0.3874   -2.3137    3.1516 C   0  0  0  0  0  0  0  0  0  0  0  0
    0.4666   -2.8757    3.5606 H   0  0  0  0  0  0  0  0  0  0  0  0
   -1.6303   -2.3619    3.8000 C   0  0  0  0  0  0  0  0  0  0  0  0
   -1.7400   -2.9577    4.7184 H   0  0  0  0  0  0  0  0  0  0  0  0
   -2.7307   -1.6480    3.2941 C   0  0  0  0  0  0  0  0  0  0  0  0
   -3.6995   -1.6826    3.8136 H   0  0  0  0  0  0  0  0  0  0  0  0
   -2.5825   -0.8708    2.1382 C   0  0  0  0  0  0  0  0  0  0  0  0
   -3.4279   -0.2820    1.7503 H   0  0  0  0  0  0  0  0  0  0  0  0
    1.0946   -1.5909    1.2281 C   0  0  0  0  0  3  0  0  0  0  0  0
    1.9481   -1.6017    1.9340 H   0  0  0  0  0  0  0  0  0  0  0  0
    1.2025   -2.7931    0.2944 C   0  0  0  0  0  0  0  0  0  0  0  0
    2.2321   -2.8554   -0.1340 H   0  0  0  0  0  0  0  0  0  0  0  0
    1.0351   -3.7268    0.8918 H   0  0  0  0  0  0  0  0  0  0  0  0
    0.2189   -3.7466   -1.6349 C   0  0  0  0  0  0  0  0  0  0  0  0
    1.1945   -3.8468   -2.1643 H   0  0  0  0  0  0  0  0  0  0  0  0
   -0.5742   -3.5383   -2.3780 H   0  0  0  0  0  0  0  0  0  0  0  0
   -0.0058   -4.7135   -1.1272 H   0  0  0  0  0  0  0  0  0  0  0  0
    0.2292   -2.6663   -0.7196 O   0  0  0  0  0  0  0  0  0  0  0  0
  1  2  1  0  0  0  0
  1 24  1  0  0  0  0
  2  3  1  0  0  0  0
  3  5  2  0  0  0  0
  3  4  1  0  0  0  0
  5  6  1  0  0  0  0
  7  8  1  0  0  0  0
  7  5  1  0  0  0  0
  9  7  2  0  0  0  0
 10  9  1  0  0  0  0
 11  9  1  0  0  0  0
 11  2  2  0  0  0  0
 12 11  1  0  0  0  0
 13 22  1  0  0  0  0
 13  1  1  0  0  0  0
 14 13  2  0  0  0  0
 15 14  1  0  0  0  0
 16 18  2  0  0  0  0
 16 14  1  0  0  0  0
 17 16  1  0  0  0  0
 18 20  1  0  0  0  0
 19 18  1  0  0  0  0
 20 21  1  0  0  0  0
 20 22  2  0  0  0  0
 22 23  1  0  0  0  0
 24 25  2  0  0  0  0
 24 32  1  0  0  0  0
 25 26  1  0  0  0  0
 26 27  1  0  0  0  0
 26 28  2  0  0  0  0
 28 29  1  0  0  0  0
 30 28  1  0  0  0  0
 30 31  1  0  0  0  0
 32 30  2  0  0  0  0
 33 32  1  0  0  0  0
 34 35  1  0  0  0  0
 34 25  1  0  0  0  0
 36 38  1  0  0  0  0
 36 34  1  0  0  0  0
 37 36  1  0  0  0  0
 39 42  1  0  0  0  0
 39 43  1  0  0  0  0
 40 39  1  0  0  0  0
 41 39  1  0  0  0  0
 43 36  1  0  0  0  0
M  END
