1,14
 OpenBabel05122313053D

 45 48  0  0  1  0  0  0  0  0999 V2000
   -0.9699    0.0536   -0.2678 P   0  0  2  0  0  0  0  0  0  0  0  0
   -0.9834    1.7009    0.6634 C   0  0  2  0  0  0  0  0  0  0  0  0
   -2.4078    2.1790    0.4381 C   0  0  0  0  0  0  0  0  0  0  0  0
   -2.8143    1.8798   -0.8294 C   0  0  0  0  0  0  0  0  0  0  0  0
   -1.6987    1.1750   -1.5857 C   0  0  1  0  0  0  0  0  0  0  0  0
   -0.4945    2.1589   -1.7363 C   0  0  0  0  0  0  0  0  0  0  0  0
   -0.0213    2.4902   -0.2827 C   0  0  2  0  0  0  0  0  0  0  0  0
   -3.1646    2.8611    1.5317 C   0  0  0  0  0  0  0  0  0  0  0  0
    1.3758    2.1404    0.0275 N   0  0  0  0  0  0  0  0  0  0  0  0
   -4.1269    2.1594   -1.4843 C   0  0  0  0  0  0  0  0  0  0  0  0
    2.2456    2.9983    0.6920 C   0  0  0  0  0  0  0  0  0  0  0  0
    3.3331    2.2510    1.0555 C   0  0  0  0  0  0  0  0  0  0  0  0
    3.1002    0.9567    0.6048 N   0  0  0  0  0  0  0  0  0  0  0  0
    1.8947    0.8691   -0.0361 C   0  0  0  0  0  2  0  0  0  0  0  0
    3.9136   -0.1969    0.9685 C   0  0  0  0  0  0  0  0  0  0  0  0
    3.6468   -0.6675    2.3939 C   0  0  0  0  0  0  0  0  0  0  0  0
    1.9300   -1.1480    2.6663 Cl  0  0  0  0  0  0  0  0  0  0  0  0
   -2.2491   -0.9579    0.5379 C   0  0  0  0  0  0  0  0  0  0  0  0
   -2.2387   -1.0645    1.9435 C   0  0  0  0  0  0  0  0  0  0  0  0
   -3.1998   -1.8533    2.5929 C   0  0  0  0  0  0  0  0  0  0  0  0
   -4.1691   -2.5385    1.8434 C   0  0  0  0  0  0  0  0  0  0  0  0
   -4.1692   -2.4441    0.4421 C   0  0  0  0  0  0  0  0  0  0  0  0
   -3.2077   -1.6640   -0.2155 C   0  0  0  0  0  0  0  0  0  0  0  0
   -0.6318    1.6977    1.7110 H   0  0  0  0  0  0  0  0  0  0  0  0
   -1.9743    0.6687   -2.5270 H   0  0  0  0  0  0  0  0  0  0  0  0
    0.3273    1.6997   -2.3199 H   0  0  0  0  0  0  0  0  0  0  0  0
   -0.8232    3.0777   -2.2597 H   0  0  0  0  0  0  0  0  0  0  0  0
   -0.1081    3.5742   -0.0787 H   0  0  0  0  0  0  0  0  0  0  0  0
   -2.6294    3.7627    1.9014 H   0  0  0  0  0  0  0  0  0  0  0  0
   -3.2804    2.1824    2.4051 H   0  0  0  0  0  0  0  0  0  0  0  0
   -4.1764    3.1735    1.2103 H   0  0  0  0  0  0  0  0  0  0  0  0
   -3.9977    2.7598   -2.4109 H   0  0  0  0  0  0  0  0  0  0  0  0
   -4.8263    2.7007   -0.8189 H   0  0  0  0  0  0  0  0  0  0  0  0
   -4.6145    1.2092   -1.7933 H   0  0  0  0  0  0  0  0  0  0  0  0
    2.0238    4.0605    0.8316 H   0  0  0  0  0  0  0  0  0  0  0  0
    4.2541    2.5320    1.5749 H   0  0  0  0  0  0  0  0  0  0  0  0
    4.9841    0.0843    0.8836 H   0  0  0  0  0  0  0  0  0  0  0  0
    3.7130   -0.9838    0.2090 H   0  0  0  0  0  0  0  0  0  0  0  0
    3.8744    0.1199    3.1400 H   0  0  0  0  0  0  0  0  0  0  0  0
    4.2729   -1.5543    2.6106 H   0  0  0  0  0  0  0  0  0  0  0  0
   -1.4699   -0.5412    2.5332 H   0  0  0  0  0  0  0  0  0  0  0  0
   -3.1870   -1.9367    3.6902 H   0  0  0  0  0  0  0  0  0  0  0  0
   -4.9222   -3.1580    2.3536 H   0  0  0  0  0  0  0  0  0  0  0  0
   -4.9187   -2.9933   -0.1475 H   0  0  0  0  0  0  0  0  0  0  0  0
   -3.1764   -1.6199   -1.3131 H   0  0  0  0  0  0  0  0  0  0  0  0
  1 18  1  1  0  0  0
  1  2  1  0  0  0  0
  2 24  1  1  0  0  0
  3  2  1  0  0  0  0
  3  8  1  0  0  0  0
  4  3  2  0  0  0  0
  5 25  1  6  0  0  0
  5  4  1  0  0  0  0
  5  1  1  0  0  0  0
  6  5  1  0  0  0  0
  6  7  1  0  0  0  0
  7 28  1  1  0  0  0
  7  9  1  0  0  0  0
  7  2  1  0  0  0  0
  8 29  1  0  0  0  0
  8 30  1  0  0  0  0
  9 11  1  0  0  0  0
 10  4  1  0  0  0  0
 10 33  1  0  0  0  0
 11 35  1  0  0  0  0
 11 12  2  0  0  0  0
 12 36  1  0  0  0  0
 13 15  1  0  0  0  0
 13 12  1  0  0  0  0
 14  9  1  0  0  0  0
 14 13  1  0  0  0  0
 15 16  1  0  0  0  0
 16 40  1  0  0  0  0
 16 17  1  0  0  0  0
 16 39  1  0  0  0  0
 18 19  1  0  0  0  0
 19 41  1  0  0  0  0
 19 20  2  0  0  0  0
 20 42  1  0  0  0  0
 21 43  1  0  0  0  0
 21 20  1  0  0  0  0
 22 21  2  0  0  0  0
 23 22  1  0  0  0  0
 23 18  2  0  0  0  0
 26  6  1  0  0  0  0
 27  6  1  0  0  0  0
 31  8  1  0  0  0  0
 32 10  1  0  0  0  0
 34 10  1  0  0  0  0
 37 15  1  0  0  0  0
 38 15  1  0  0  0  0
 44 22  1  0  0  0  0
 45 23  1  0  0  0  0
M  END
