1,4
 OpenBabel05122313053D

 37 39  0  0  0  0  0  0  0  0999 V2000
    0.4866    0.0110   -0.4322 P   0  0  0  0  0  0  0  0  0  0  0  0
   -2.4042   -0.6327   -1.6904 N   0  0  0  0  0  0  0  0  0  0  0  0
   -3.7594    0.3621   -0.3551 N   0  0  0  0  0  0  0  0  0  0  0  0
   -2.4720   -0.1047   -0.4213 C   0  0  0  0  0  2  0  0  0  0  0  0
   -4.4717    0.1487   -1.5223 C   0  0  0  0  0  0  0  0  0  0  0  0
   -5.5138    0.4536   -1.6511 H   0  0  0  0  0  0  0  0  0  0  0  0
   -3.6068   -0.4817   -2.3768 C   0  0  0  0  0  0  0  0  0  0  0  0
   -3.7434   -0.8391   -3.4015 H   0  0  0  0  0  0  0  0  0  0  0  0
   -1.1910   -1.2062   -2.2628 C   0  0  0  0  0  0  0  0  0  0  0  0
   -1.4224   -1.5019   -3.3047 H   0  0  0  0  0  0  0  0  0  0  0  0
   -0.9260   -2.1273   -1.6998 H   0  0  0  0  0  0  0  0  0  0  0  0
   -0.0405   -0.2003   -2.2148 C   0  0  0  0  0  0  0  0  0  0  0  0
   -0.3741    0.7725   -2.6273 H   0  0  0  0  0  0  0  0  0  0  0  0
    0.8188   -0.5565   -2.8159 H   0  0  0  0  0  0  0  0  0  0  0  0
    1.8145   -1.2834   -0.3506 C   0  0  0  0  0  0  0  0  0  0  0  0
    1.6211   -2.4138    0.4639 C   0  0  0  0  0  0  0  0  0  0  0  0
    0.7030   -2.4853    1.0667 H   0  0  0  0  0  0  0  0  0  0  0  0
    2.5851   -3.4350    0.5006 C   0  0  0  0  0  0  0  0  0  0  0  0
    2.4238   -4.3136    1.1436 H   0  0  0  0  0  0  0  0  0  0  0  0
    3.7487   -3.3333   -0.2754 C   0  0  0  0  0  0  0  0  0  0  0  0
    4.5059   -4.1317   -0.2438 H   0  0  0  0  0  0  0  0  0  0  0  0
    3.9485   -2.2069   -1.0928 C   0  0  0  0  0  0  0  0  0  0  0  0
    4.8621   -2.1213   -1.7010 H   0  0  0  0  0  0  0  0  0  0  0  0
    2.9871   -1.1879   -1.1316 C   0  0  0  0  0  0  0  0  0  0  0  0
    3.1560   -0.3014   -1.7635 H   0  0  0  0  0  0  0  0  0  0  0  0
    1.4519    1.5811   -0.4446 C   0  0  0  0  0  0  0  0  0  0  0  0
    2.6161    1.7070    0.3432 C   0  0  0  0  0  0  0  0  0  0  0  0
    3.0079    0.8340    0.8860 H   0  0  0  0  0  0  0  0  0  0  0  0
    3.2734    2.9421    0.4463 C   0  0  0  0  0  0  0  0  0  0  0  0
    4.1795    3.0240    1.0659 H   0  0  0  0  0  0  0  0  0  0  0  0
    2.7802    4.0669   -0.2325 C   0  0  0  0  0  0  0  0  0  0  0  0
    3.2990    5.0341   -0.1528 H   0  0  0  0  0  0  0  0  0  0  0  0
    1.6121    3.9535   -1.0045 C   0  0  0  0  0  0  0  0  0  0  0  0
    1.2093    4.8332   -1.5295 H   0  0  0  0  0  0  0  0  0  0  0  0
    0.9473    2.7236   -1.1010 C   0  0  0  0  0  0  0  0  0  0  0  0
    0.0116    2.6622   -1.6782 H   0  0  0  0  0  0  0  0  0  0  0  0
   -4.1122    0.8219    0.4852 H   0  0  0  0  0  0  0  0  0  0  0  0
  1 15  1  0  0  0  0
  2  4  1  0  0  0  0
  3 37  1  0  0  0  0
  4  3  1  0  0  0  0
  5  3  1  0  0  0  0
  6  5  1  0  0  0  0
  7  2  1  0  0  0  0
  7  5  2  0  0  0  0
  8  7  1  0  0  0  0
  9 12  1  0  0  0  0
  9 11  1  0  0  0  0
  9  2  1  0  0  0  0
 10  9  1  0  0  0  0
 12  1  1  0  0  0  0
 13 12  1  0  0  0  0
 14 12  1  0  0  0  0
 15 16  1  0  0  0  0
 16 18  2  0  0  0  0
 16 17  1  0  0  0  0
 18 19  1  0  0  0  0
 20 21  1  0  0  0  0
 20 18  1  0  0  0  0
 22 20  2  0  0  0  0
 23 22  1  0  0  0  0
 24 22  1  0  0  0  0
 24 15  2  0  0  0  0
 25 24  1  0  0  0  0
 26  1  1  0  0  0  0
 26 27  1  0  0  0  0
 27 29  2  0  0  0  0
 27 28  1  0  0  0  0
 29 30  1  0  0  0  0
 31 32  1  0  0  0  0
 31 29  1  0  0  0  0
 33 31  2  0  0  0  0
 34 33  1  0  0  0  0
 35 33  1  0  0  0  0
 35 26  2  0  0  0  0
 36 35  1  0  0  0  0
M  END
