1,2
 OpenBabel05122313053D

 41 42  0  0  0  0  0  0  0  0999 V2000
    1.1647   -0.0587    0.3888 P   0  0  2  0  0  0  0  0  0  0  0  0
   -0.1322    1.8488   -1.2962 C   0  0  0  0  0  3  0  0  0  0  0  0
    0.0375    1.3959   -2.3017 H   0  0  0  0  0  0  0  0  0  0  0  0
   -0.8631    2.6769   -1.4371 H   0  0  0  0  0  0  0  0  0  0  0  0
    1.1715    2.3859   -0.7677 C   0  0  0  0  0  0  0  0  0  0  0  0
    1.9970    1.5476    0.0263 C   0  0  0  0  0  0  0  0  0  0  0  0
    3.2598    1.9980    0.4609 C   0  0  0  0  0  0  0  0  0  0  0  0
    3.9069    1.3528    1.0697 H   0  0  0  0  0  0  0  0  0  0  0  0
    3.6955    3.2940    0.1465 C   0  0  0  0  0  0  0  0  0  0  0  0
    4.6740    3.6453    0.5069 H   0  0  0  0  0  0  0  0  0  0  0  0
    2.8707    4.1418   -0.6096 C   0  0  0  0  0  0  0  0  0  0  0  0
    3.2020    5.1647   -0.8465 H   0  0  0  0  0  0  0  0  0  0  0  0
    1.6252    3.6879   -1.0654 C   0  0  0  0  0  0  0  0  0  0  0  0
    0.9850    4.3508   -1.6692 H   0  0  0  0  0  0  0  0  0  0  0  0
    1.3818   -0.5147    2.2240 C   0  0  0  0  0  0  0  0  0  0  0  0
    2.8520   -0.5782    2.6610 C   0  0  0  0  0  0  0  0  0  0  0  0
    2.8976   -1.0016    3.6868 H   0  0  0  0  0  0  0  0  0  0  0  0
    3.3223    0.4221    2.7034 H   0  0  0  0  0  0  0  0  0  0  0  0
    3.4563   -1.2368    2.0054 H   0  0  0  0  0  0  0  0  0  0  0  0
    0.7262   -1.8944    2.4149 C   0  0  0  0  0  0  0  0  0  0  0  0
    0.7781   -2.1636    3.4912 H   0  0  0  0  0  0  0  0  0  0  0  0
    1.2660   -2.6814    1.8501 H   0  0  0  0  0  0  0  0  0  0  0  0
   -0.3403   -1.8851    2.1123 H   0  0  0  0  0  0  0  0  0  0  0  0
    0.6169    0.5541    3.0227 C   0  0  0  0  0  0  0  0  0  0  0  0
    0.6997    0.3327    4.1078 H   0  0  0  0  0  0  0  0  0  0  0  0
   -0.4569    0.5517    2.7483 H   0  0  0  0  0  0  0  0  0  0  0  0
    1.0257    1.5703    2.8479 H   0  0  0  0  0  0  0  0  0  0  0  0
    2.0800   -1.3512   -0.5644 C   0  0  0  0  0  0  0  0  0  0  0  0
    3.4708   -1.1956   -0.7522 C   0  0  0  0  0  0  0  0  0  0  0  0
    3.9717   -0.2920   -0.3788 H   0  0  0  0  0  0  0  0  0  0  0  0
    4.2290   -2.1604   -1.4278 C   0  0  0  0  0  0  0  0  0  0  0  0
    5.3119   -2.0154   -1.5581 H   0  0  0  0  0  0  0  0  0  0  0  0
    3.5921   -3.3003   -1.9366 C   0  0  0  0  0  0  0  0  0  0  0  0
    4.1700   -4.0706   -2.4697 H   0  0  0  0  0  0  0  0  0  0  0  0
    2.2085   -3.4495   -1.7784 C   0  0  0  0  0  0  0  0  0  0  0  0
    1.7073   -4.3361   -2.1975 H   0  0  0  0  0  0  0  0  0  0  0  0
    1.4190   -2.4931   -1.1039 C   0  0  0  0  0  0  0  0  0  0  0  0
   -0.0696   -2.7044   -1.0267 C   0  0  0  0  0  0  0  0  0  0  0  0
   -0.4588   -2.7300    0.0091 H   0  0  0  0  0  0  0  0  0  0  0  0
   -0.3584   -3.6466   -1.5302 H   0  0  0  0  0  0  0  0  0  0  0  0
   -0.6105   -1.8631   -1.5144 H   0  0  0  0  0  0  0  0  0  0  0  0
  1 15  1  1  0  0  0
  2  5  1  0  0  0  0
  3  2  1  0  0  0  0
  4  2  1  0  0  0  0
  5  6  1  0  0  0  0
  6  1  1  0  0  0  0
  6  7  2  0  0  0  0
  7  8  1  0  0  0  0
  9  7  1  0  0  0  0
  9 10  1  0  0  0  0
 11  9  2  0  0  0  0
 12 11  1  0  0  0  0
 13  5  2  0  0  0  0
 13 11  1  0  0  0  0
 14 13  1  0  0  0  0
 15 20  1  0  0  0  0
 15 16  1  0  0  0  0
 15 24  1  0  0  0  0
 16 18  1  0  0  0  0
 16 17  1  0  0  0  0
 19 16  1  0  0  0  0
 20 21  1  0  0  0  0
 22 20  1  0  0  0  0
 23 20  1  0  0  0  0
 24 25  1  0  0  0  0
 26 24  1  0  0  0  0
 27 24  1  0  0  0  0
 28  1  1  0  0  0  0
 29 28  1  0  0  0  0
 29 30  1  0  0  0  0
 31 29  2  0  0  0  0
 32 31  1  0  0  0  0
 33 35  2  0  0  0  0
 33 31  1  0  0  0  0
 34 33  1  0  0  0  0
 35 37  1  0  0  0  0
 36 35  1  0  0  0  0
 37 38  1  0  0  0  0
 37 28  2  0  0  0  0
 38 39  1  0  0  0  0
 40 38  1  0  0  0  0
 41 38  1  0  0  0  0
M  END
