1,37
 OpenBabel05122313053D

 55 58  0  0  1  0  0  0  0  0999 V2000
   -1.1431    0.5044   -0.0982 P   0  0  0  0  0  0  0  0  0  0  0  0
    2.3095   -1.5991   -0.9248 N   0  3  0  0  0  0  0  0  0  0  0  0
    2.0044   -2.6307   -0.8383 H   0  0  0  0  0  0  0  0  0  0  0  0
    3.0823   -1.5181   -1.6089 H   0  0  0  0  0  0  0  0  0  0  0  0
   -2.7498    0.8995   -0.8856 C   0  0  0  0  0  0  0  0  0  0  0  0
   -2.8685    1.7140   -2.0281 C   0  0  0  0  0  0  0  0  0  0  0  0
   -1.9733    2.1517   -2.4938 H   0  0  0  0  0  0  0  0  0  0  0  0
   -4.1366    1.9605   -2.5794 C   0  0  0  0  0  0  0  0  0  0  0  0
   -4.2276    2.5977   -3.4723 H   0  0  0  0  0  0  0  0  0  0  0  0
   -5.2806    1.3932   -1.9980 C   0  0  0  0  0  0  0  0  0  0  0  0
   -6.2727    1.5874   -2.4336 H   0  0  0  0  0  0  0  0  0  0  0  0
   -5.1576    0.5659   -0.8681 C   0  0  0  0  0  0  0  0  0  0  0  0
   -6.0512    0.1039   -0.4218 H   0  0  0  0  0  0  0  0  0  0  0  0
   -3.8981    0.3114   -0.3105 C   0  0  0  0  0  0  0  0  0  0  0  0
   -3.7814   -0.3715    0.5489 H   0  0  0  0  0  0  0  0  0  0  0  0
   -1.2264    1.3463    1.5314 C   0  0  0  0  0  0  0  0  0  0  0  0
   -0.6362    0.7281    2.6515 C   0  0  0  0  0  0  0  0  0  0  0  0
   -0.2297   -0.2898    2.5444 H   0  0  0  0  0  0  0  0  0  0  0  0
   -0.6246    1.3902    3.8883 C   0  0  0  0  0  0  0  0  0  0  0  0
   -0.1717    0.9007    4.7638 H   0  0  0  0  0  0  0  0  0  0  0  0
   -1.2069    2.6617    4.0143 C   0  0  0  0  0  0  0  0  0  0  0  0
   -1.2004    3.1764    4.9872 H   0  0  0  0  0  0  0  0  0  0  0  0
   -1.8198    3.2673    2.9048 C   0  0  0  0  0  0  0  0  0  0  0  0
   -2.2984    4.2531    3.0077 H   0  0  0  0  0  0  0  0  0  0  0  0
   -1.8371    2.6100    1.6658 C   0  0  0  0  0  0  0  0  0  0  0  0
   -2.3486    3.0696    0.8055 H   0  0  0  0  0  0  0  0  0  0  0  0
    0.1620    1.3836   -1.0512 C   0  0  0  0  0  0  0  0  0  0  0  0
    0.2581    2.7806   -1.1944 C   0  0  0  0  0  0  0  0  0  0  0  0
   -0.4828    3.4365   -0.7135 H   0  0  0  0  0  0  0  0  0  0  0  0
    1.3141    3.3364   -1.9282 C   0  0  0  0  0  0  0  0  0  0  0  0
    1.4010    4.4287   -2.0282 H   0  0  0  0  0  0  0  0  0  0  0  0
    2.2619    2.4940   -2.5346 C   0  0  0  0  0  0  0  0  0  0  0  0
    3.0913    2.9252   -3.1148 H   0  0  0  0  0  0  0  0  0  0  0  0
    2.1592    1.1042   -2.3945 C   0  0  0  0  0  0  0  0  0  0  0  0
    2.9148    0.4617   -2.8752 H   0  0  0  0  0  0  0  0  0  0  0  0
    1.1250    0.5273   -1.6298 C   0  0  0  0  0  0  0  0  0  0  0  0
    1.0031   -0.9734   -1.4130 C   0  0  0  0  0  3  0  0  0  0  0  0
    0.8378   -1.4703   -2.3958 H   0  0  0  0  0  0  0  0  0  0  0  0
    2.8034   -1.1897    0.4498 C   0  0  1  0  0  0  0  0  0  0  0  0
    1.8617   -1.1126    1.0342 H   0  0  0  0  0  0  0  0  0  0  0  0
    3.6601   -2.3203    1.0160 C   0  0  0  0  0  0  0  0  0  0  0  0
    4.5682   -2.5057    0.4055 H   0  0  0  0  0  0  0  0  0  0  0  0
    3.0614   -3.2519    1.0674 H   0  0  0  0  0  0  0  0  0  0  0  0
    3.9924   -2.0542    2.0373 H   0  0  0  0  0  0  0  0  0  0  0  0
    3.4854    0.1628    0.4104 C   0  0  0  0  0  0  0  0  0  0  0  0
    2.8683    1.2795    1.0047 C   0  0  0  0  0  0  0  0  0  0  0  0
    1.8959    1.1578    1.5059 H   0  0  0  0  0  0  0  0  0  0  0  0
    3.4684    2.5446    0.9380 C   0  0  0  0  0  0  0  0  0  0  0  0
    2.9651    3.4088    1.3966 H   0  0  0  0  0  0  0  0  0  0  0  0
    4.6978    2.7076    0.2805 C   0  0  0  0  0  0  0  0  0  0  0  0
    5.1673    3.7014    0.2240 H   0  0  0  0  0  0  0  0  0  0  0  0
    5.3299    1.5971   -0.3011 C   0  0  0  0  0  0  0  0  0  0  0  0
    6.2994    1.7160   -0.8082 H   0  0  0  0  0  0  0  0  0  0  0  0
    4.7287    0.3320   -0.2312 C   0  0  0  0  0  0  0  0  0  0  0  0
    5.2413   -0.5321   -0.6853 H   0  0  0  0  0  0  0  0  0  0  0  0
  1 16  1  0  0  0  0
  2  3  1  0  0  0  0
  2 39  1  0  0  0  0
  4  2  1  0  0  0  0
  5 14  1  0  0  0  0
  5  1  1  0  0  0  0
  6  5  2  0  0  0  0
  7  6  1  0  0  0  0
  8  6  1  0  0  0  0
  8 10  2  0  0  0  0
  9  8  1  0  0  0  0
 10 12  1  0  0  0  0
 11 10  1  0  0  0  0
 12 13  1  0  0  0  0
 12 14  2  0  0  0  0
 14 15  1  0  0  0  0
 16 25  2  0  0  0  0
 16 17  1  0  0  0  0
 17 19  2  0  0  0  0
 18 17  1  0  0  0  0
 19 21  1  0  0  0  0
 19 20  1  0  0  0  0
 21 22  1  0  0  0  0
 23 24  1  0  0  0  0
 23 21  2  0  0  0  0
 25 23  1  0  0  0  0
 26 25  1  0  0  0  0
 27  1  1  0  0  0  0
 28 27  1  0  0  0  0
 28 29  1  0  0  0  0
 30 28  2  0  0  0  0
 31 30  1  0  0  0  0
 32 34  2  0  0  0  0
 32 30  1  0  0  0  0
 33 32  1  0  0  0  0
 34 36  1  0  0  0  0
 35 34  1  0  0  0  0
 36 37  1  0  0  0  0
 36 27  2  0  0  0  0
 37  2  1  0  0  0  0
 38 37  1  0  0  0  0
 39 41  1  0  0  0  0
 39 40  1  1  0  0  0
 41 43  1  0  0  0  0
 41 44  1  0  0  0  0
 42 41  1  0  0  0  0
 45 39  1  0  0  0  0
 45 46  1  0  0  0  0
 46 47  1  0  0  0  0
 48 46  2  0  0  0  0
 48 49  1  0  0  0  0
 50 48  1  0  0  0  0
 51 50  1  0  0  0  0
 52 54  1  0  0  0  0
 52 50  2  0  0  0  0
 53 52  1  0  0  0  0
 54 45  2  0  0  0  0
 55 54  1  0  0  0  0
M  CHG  1   2   1
M  END
