1,17
 OpenBabel05122313053D

 67 67  0  0  0  0  0  0  0  0999 V2000
   -0.8413   -0.5954    0.7258 C   0  0  0  0  0  3  0  0  0  0  0  0
   -1.2165    0.7244    0.1556 C   0  0  0  0  0  0  0  0  0  0  0  0
   -2.4039    0.9094   -0.6167 C   0  0  0  0  0  0  0  0  0  0  0  0
   -2.7179    2.1730   -1.1816 C   0  0  0  0  0  0  0  0  0  0  0  0
   -1.8693    3.2554   -0.9028 C   0  0  0  0  0  0  0  0  0  0  0  0
   -2.1205    4.2455   -1.3131 H   0  0  0  0  0  0  0  0  0  0  0  0
   -0.7086    3.1224   -0.1195 C   0  0  0  0  0  0  0  0  0  0  0  0
   -0.3568    1.8421    0.3725 C   0  0  0  0  0  0  0  0  0  0  0  0
   -3.9251    2.3901   -2.0653 C   0  0  0  0  0  0  0  0  0  0  0  0
   -4.8862    2.1888   -1.5461 H   0  0  0  0  0  0  0  0  0  0  0  0
   -3.9017    1.7423   -2.9665 H   0  0  0  0  0  0  0  0  0  0  0  0
   -3.9667    3.4370   -2.4190 H   0  0  0  0  0  0  0  0  0  0  0  0
    0.1302    4.3456    0.1593 C   0  0  0  0  0  0  0  0  0  0  0  0
    0.2733    4.5088    1.2473 H   0  0  0  0  0  0  0  0  0  0  0  0
   -0.3436    5.2543   -0.2561 H   0  0  0  0  0  0  0  0  0  0  0  0
    1.1432    4.2705   -0.2898 H   0  0  0  0  0  0  0  0  0  0  0  0
    2.0897    0.3545    0.3611 P   0  0  0  0  0  0  0  0  0  0  0  0
    0.9283    1.6260    1.1212 C   0  0  0  0  0  0  0  0  0  0  0  0
    0.7277    1.2138    2.1332 H   0  0  0  0  0  0  0  0  0  0  0  0
    1.4852    2.5676    1.2709 H   0  0  0  0  0  0  0  0  0  0  0  0
    3.2547   -0.0357    1.8275 C   0  0  0  0  0  0  0  0  0  0  0  0
    2.9558    1.2486   -1.0858 C   0  0  0  0  0  0  0  0  0  0  0  0
    4.5267   -0.7438    1.3324 C   0  0  0  0  0  0  0  0  0  0  0  0
    5.1998   -0.0592    0.7822 H   0  0  0  0  0  0  0  0  0  0  0  0
    4.3051   -1.6165    0.6882 H   0  0  0  0  0  0  0  0  0  0  0  0
    5.0902   -1.1181    2.2123 H   0  0  0  0  0  0  0  0  0  0  0  0
    2.4596   -1.0084    2.7233 C   0  0  0  0  0  0  0  0  0  0  0  0
    2.1695   -1.9272    2.1724 H   0  0  0  0  0  0  0  0  0  0  0  0
    1.5368   -0.5494    3.1336 H   0  0  0  0  0  0  0  0  0  0  0  0
    3.0884   -1.3035    3.5891 H   0  0  0  0  0  0  0  0  0  0  0  0
    3.6403    1.2130    2.6400 C   0  0  0  0  0  0  0  0  0  0  0  0
    4.3161    0.9046    3.4649 H   0  0  0  0  0  0  0  0  0  0  0  0
    2.7659    1.7042    3.1084 H   0  0  0  0  0  0  0  0  0  0  0  0
    4.1813    1.9649    2.0365 H   0  0  0  0  0  0  0  0  0  0  0  0
    1.8302    1.6634   -2.0559 C   0  0  0  0  0  0  0  0  0  0  0  0
    2.2893    2.0342   -2.9959 H   0  0  0  0  0  0  0  0  0  0  0  0
    1.1864    2.4657   -1.6562 H   0  0  0  0  0  0  0  0  0  0  0  0
    1.1819    0.7988   -2.3104 H   0  0  0  0  0  0  0  0  0  0  0  0
    3.7531    2.4767   -0.6194 C   0  0  0  0  0  0  0  0  0  0  0  0
    4.6526    2.1930   -0.0398 H   0  0  0  0  0  0  0  0  0  0  0  0
    3.1516    3.1772   -0.0070 H   0  0  0  0  0  0  0  0  0  0  0  0
    4.1025    3.0393   -1.5102 H   0  0  0  0  0  0  0  0  0  0  0  0
    3.8858    0.2847   -1.8450 C   0  0  0  0  0  0  0  0  0  0  0  0
    4.3660    0.8480   -2.6720 H   0  0  0  0  0  0  0  0  0  0  0  0
    3.3213   -0.5484   -2.3029 H   0  0  0  0  0  0  0  0  0  0  0  0
    4.6925   -0.1384   -1.2214 H   0  0  0  0  0  0  0  0  0  0  0  0
   -4.0973   -0.5576    0.5162 N   0  3  0  0  0  0  0  0  0  0  0  0
   -3.3524   -0.2408   -0.7901 C   0  0  0  0  0  0  0  0  0  0  0  0
   -4.8986    0.6170    1.0255 C   0  0  0  0  0  0  0  0  0  0  0  0
   -4.3049    1.5171    0.7760 H   0  0  0  0  0  0  0  0  0  0  0  0
   -5.8337    0.6398    0.4311 H   0  0  0  0  0  0  0  0  0  0  0  0
   -5.1590    0.5440    2.5203 C   0  0  0  0  0  0  0  0  0  0  0  0
   -5.7661   -0.3332    2.8195 H   0  0  0  0  0  0  0  0  0  0  0  0
   -5.7188    1.4470    2.8316 H   0  0  0  0  0  0  0  0  0  0  0  0
   -4.2102    0.5330    3.0951 H   0  0  0  0  0  0  0  0  0  0  0  0
   -4.9235   -1.8205    0.4238 C   0  0  0  0  0  0  0  0  0  0  0  0
   -5.5167   -1.7285   -0.5079 H   0  0  0  0  0  0  0  0  0  0  0  0
   -5.6314   -1.7951    1.2738 H   0  0  0  0  0  0  0  0  0  0  0  0
   -4.0979   -3.0947    0.4558 C   0  0  0  0  0  0  0  0  0  0  0  0
   -3.4187   -3.2019   -0.4101 H   0  0  0  0  0  0  0  0  0  0  0  0
   -4.7863   -3.9618    0.4398 H   0  0  0  0  0  0  0  0  0  0  0  0
   -3.4990   -3.1713    1.3864 H   0  0  0  0  0  0  0  0  0  0  0  0
   -0.4176   -0.5179    1.7469 H   0  0  0  0  0  0  0  0  0  0  0  0
   -1.6689   -1.3259    0.7750 H   0  0  0  0  0  0  0  0  0  0  0  0
   -4.1389   -0.0391   -1.5389 H   0  0  0  0  0  0  0  0  0  0  0  0
   -2.8388   -1.1782   -1.0741 H   0  0  0  0  0  0  0  0  0  0  0  0
   -3.3352   -0.7251    1.2061 H   0  0  0  0  0  0  0  0  0  0  0  0
  1 64  1  0  0  0  0
  1 63  1  0  0  0  0
  2  8  1  0  0  0  0
  2  1  1  0  0  0  0
  3  2  2  0  0  0  0
  4  5  2  0  0  0  0
  4  3  1  0  0  0  0
  5  7  1  0  0  0  0
  6  5  1  0  0  0  0
  7 13  1  0  0  0  0
  7  8  2  0  0  0  0
  8 18  1  0  0  0  0
  9 10  1  0  0  0  0
  9  4  1  0  0  0  0
 11  9  1  0  0  0  0
 12  9  1  0  0  0  0
 13 14  1  0  0  0  0
 15 13  1  0  0  0  0
 16 13  1  0  0  0  0
 17 18  1  0  0  0  0
 17 21  1  0  0  0  0
 18 20  1  0  0  0  0
 18 19  1  0  0  0  0
 21 31  1  0  0  0  0
 21 27  1  0  0  0  0
 22 39  1  0  0  0  0
 22 17  1  0  0  0  0
 23 21  1  0  0  0  0
 23 26  1  0  0  0  0
 24 23  1  0  0  0  0
 25 23  1  0  0  0  0
 27 29  1  0  0  0  0
 27 30  1  0  0  0  0
 28 27  1  0  0  0  0
 31 33  1  0  0  0  0
 31 32  1  0  0  0  0
 34 31  1  0  0  0  0
 35 37  1  0  0  0  0
 35 22  1  0  0  0  0
 36 35  1  0  0  0  0
 38 35  1  0  0  0  0
 39 40  1  0  0  0  0
 39 41  1  0  0  0  0
 42 39  1  0  0  0  0
 43 46  1  0  0  0  0
 43 22  1  0  0  0  0
 44 43  1  0  0  0  0
 45 43  1  0  0  0  0
 47 49  1  0  0  0  0
 47 67  1  0  0  0  0
 48  3  1  0  0  0  0
 48 47  1  0  0  0  0
 49 52  1  0  0  0  0
 50 49  1  0  0  0  0
 51 49  1  0  0  0  0
 52 53  1  0  0  0  0
 52 54  1  0  0  0  0
 52 55  1  0  0  0  0
 56 59  1  0  0  0  0
 56 47  1  0  0  0  0
 56 58  1  0  0  0  0
 57 56  1  0  0  0  0
 59 62  1  0  0  0  0
 60 59  1  0  0  0  0
 61 59  1  0  0  0  0
 65 48  1  0  0  0  0
 66 48  1  0  0  0  0
M  CHG  1  47   1
M  END
