1,8
 OpenBabel05122313053D

 32 33  0  0  0  0  0  0  0  0999 V2000
    2.2343    0.7071   -0.5556 P   0  0  0  0  0  0  0  0  0  0  0  0
    2.3541    1.3228   -2.2855 C   0  0  0  0  0  0  0  0  0  0  0  0
    3.2062    2.0150   -2.4280 H   0  0  0  0  0  0  0  0  0  0  0  0
    2.5023    0.4312   -2.9247 H   0  0  0  0  0  0  0  0  0  0  0  0
    0.9831    1.9524   -2.5642 C   0  0  0  0  0  0  0  0  0  0  0  0
    0.9546    2.3157   -3.6149 H   0  0  0  0  0  0  0  0  0  0  0  0
    0.8611    2.8540   -1.9230 H   0  0  0  0  0  0  0  0  0  0  0  0
   -0.1686    0.9620   -2.3020 C   0  0  0  0  0  3  0  0  0  0  0  0
   -0.2044    0.2215   -3.1286 H   0  0  0  0  0  0  0  0  0  0  0  0
   -1.1225    1.5245   -2.3394 H   0  0  0  0  0  0  0  0  0  0  0  0
    3.5785   -0.4797   -0.1734 C   0  0  0  0  0  0  0  0  0  0  0  0
    3.8950   -0.7214    1.1820 C   0  0  0  0  0  0  0  0  0  0  0  0
    3.4058   -0.1349    1.9742 H   0  0  0  0  0  0  0  0  0  0  0  0
    4.8519   -1.6872    1.5230 C   0  0  0  0  0  0  0  0  0  0  0  0
    5.0975   -1.8639    2.5813 H   0  0  0  0  0  0  0  0  0  0  0  0
    5.5110   -2.4121    0.5162 C   0  0  0  0  0  0  0  0  0  0  0  0
    6.2662   -3.1664    0.7832 H   0  0  0  0  0  0  0  0  0  0  0  0
    5.2121   -2.1615   -0.8314 C   0  0  0  0  0  0  0  0  0  0  0  0
    5.7317   -2.7188   -1.6250 H   0  0  0  0  0  0  0  0  0  0  0  0
    4.2477   -1.2037   -1.1803 C   0  0  0  0  0  0  0  0  0  0  0  0
    4.0016   -1.0466   -2.2379 H   0  0  0  0  0  0  0  0  0  0  0  0
    2.6346    2.1253    0.5495 C   0  0  0  0  0  0  0  0  0  0  0  0
    2.0284    2.2209    1.8195 C   0  0  0  0  0  0  0  0  0  0  0  0
    1.2715    1.4808    2.1163 H   0  0  0  0  0  0  0  0  0  0  0  0
    2.3784    3.2590    2.6960 C   0  0  0  0  0  0  0  0  0  0  0  0
    1.9038    3.3217    3.6871 H   0  0  0  0  0  0  0  0  0  0  0  0
    3.3292    4.2168    2.3097 C   0  0  0  0  0  0  0  0  0  0  0  0
    3.6011    5.0334    2.9952 H   0  0  0  0  0  0  0  0  0  0  0  0
    3.9371    4.1269    1.0474 C   0  0  0  0  0  0  0  0  0  0  0  0
    4.6873    4.8713    0.7413 H   0  0  0  0  0  0  0  0  0  0  0  0
    3.5986    3.0831    0.1736 C   0  0  0  0  0  0  0  0  0  0  0  0
    4.1006    3.0166   -0.8029 H   0  0  0  0  0  0  0  0  0  0  0  0
  1 11  1  0  0  0  0
  1 22  1  0  0  0  0
  2  1  1  0  0  0  0
  3  2  1  0  0  0  0
  4  2  1  0  0  0  0
  5  8  1  0  0  0  0
  5  2  1  0  0  0  0
  5  7  1  0  0  0  0
  6  5  1  0  0  0  0
  9  8  1  0  0  0  0
 10  8  1  0  0  0  0
 11 12  1  0  0  0  0
 12 14  2  0  0  0  0
 12 13  1  0  0  0  0
 14 15  1  0  0  0  0
 16 17  1  0  0  0  0
 16 14  1  0  0  0  0
 18 16  2  0  0  0  0
 19 18  1  0  0  0  0
 20 18  1  0  0  0  0
 20 11  2  0  0  0  0
 21 20  1  0  0  0  0
 22 23  1  0  0  0  0
 23 24  1  0  0  0  0
 23 25  2  0  0  0  0
 25 26  1  0  0  0  0
 27 25  1  0  0  0  0
 27 28  1  0  0  0  0
 29 27  2  0  0  0  0
 30 29  1  0  0  0  0
 31 22  2  0  0  0  0
 31 29  1  0  0  0  0
 32 31  1  0  0  0  0
M  END
