1,12
 OpenBabel05122313053D

 32 32  0  0  0  0  0  0  0  0999 V2000
   -1.9146   -1.0827   -0.1110 P   0  0  0  0  0  0  0  0  0  0  0  0
   -3.0676   -0.0236   -0.7301 O   0  0  0  0  0  0  0  0  0  0  0  0
   -2.8449    1.3231   -0.4495 C   0  0  0  0  0  0  0  0  0  0  0  0
   -3.9388    2.1875   -0.6050 C   0  0  0  0  0  0  0  0  0  0  0  0
   -4.8902    1.7824   -0.9798 H   0  0  0  0  0  0  0  0  0  0  0  0
   -3.7979    3.5398   -0.2593 C   0  0  0  0  0  0  0  0  0  0  0  0
   -4.6518    4.2240   -0.3772 H   0  0  0  0  0  0  0  0  0  0  0  0
   -2.5794    4.0034    0.2575 C   0  0  0  0  0  0  0  0  0  0  0  0
   -2.4699    5.0553    0.5623 H   0  0  0  0  0  0  0  0  0  0  0  0
   -1.4918    3.1207    0.3909 C   0  0  0  0  0  0  0  0  0  0  0  0
   -0.5462    3.5004    0.8060 H   0  0  0  0  0  0  0  0  0  0  0  0
   -1.5812    1.7713    0.0028 C   0  0  0  0  0  3  0  0  0  0  0  0
   -1.8207   -2.4000   -1.4219 C   0  0  0  0  0  0  0  0  0  0  0  0
   -1.0009   -1.9816   -2.0472 H   0  0  0  0  0  0  0  0  0  0  0  0
   -1.3641   -3.7320   -0.8154 C   0  0  0  0  0  0  0  0  0  0  0  0
   -0.4874   -3.6080   -0.1462 H   0  0  0  0  0  0  0  0  0  0  0  0
   -1.0629   -4.4296   -1.6234 H   0  0  0  0  0  0  0  0  0  0  0  0
   -2.1670   -4.2278   -0.2334 H   0  0  0  0  0  0  0  0  0  0  0  0
   -3.0563   -2.5142   -2.3200 C   0  0  0  0  0  0  0  0  0  0  0  0
   -3.3331   -1.5264   -2.7328 H   0  0  0  0  0  0  0  0  0  0  0  0
   -3.9371   -2.9271   -1.7915 H   0  0  0  0  0  0  0  0  0  0  0  0
   -2.8249   -3.1908   -3.1689 H   0  0  0  0  0  0  0  0  0  0  0  0
   -2.8261   -1.7950    1.3599 C   0  0  0  0  0  0  0  0  0  0  0  0
   -2.1489   -2.5914    1.7447 H   0  0  0  0  0  0  0  0  0  0  0  0
   -3.0043   -0.7216    2.4423 C   0  0  0  0  0  0  0  0  0  0  0  0
   -2.0439   -0.3403    2.8304 H   0  0  0  0  0  0  0  0  0  0  0  0
   -3.5647   -1.1480    3.2993 H   0  0  0  0  0  0  0  0  0  0  0  0
   -3.5827    0.1426    2.0582 H   0  0  0  0  0  0  0  0  0  0  0  0
   -4.1787   -2.4081    0.9720 C   0  0  0  0  0  0  0  0  0  0  0  0
   -4.0781   -3.2882    0.3099 H   0  0  0  0  0  0  0  0  0  0  0  0
   -4.8113   -1.6583    0.4568 H   0  0  0  0  0  0  0  0  0  0  0  0
   -4.7161   -2.7369    1.8854 H   0  0  0  0  0  0  0  0  0  0  0  0
  1 23  1  0  0  0  0
  2  3  1  0  0  0  0
  2  1  1  0  0  0  0
  3 12  1  0  0  0  0
  4  3  2  0  0  0  0
  4  6  1  0  0  0  0
  5  4  1  0  0  0  0
  6  8  2  0  0  0  0
  7  6  1  0  0  0  0
  8 10  1  0  0  0  0
  8  9  1  0  0  0  0
 10 11  1  0  0  0  0
 12 10  2  0  0  0  0
 13 15  1  0  0  0  0
 13  1  1  0  0  0  0
 14 13  1  0  0  0  0
 15 18  1  0  0  0  0
 15 16  1  0  0  0  0
 17 15  1  0  0  0  0
 19 21  1  0  0  0  0
 19 13  1  0  0  0  0
 20 19  1  0  0  0  0
 22 19  1  0  0  0  0
 23 24  1  0  0  0  0
 23 25  1  0  0  0  0
 25 26  1  0  0  0  0
 25 27  1  0  0  0  0
 28 25  1  0  0  0  0
 29 23  1  0  0  0  0
 29 32  1  0  0  0  0
 30 29  1  0  0  0  0
 31 29  1  0  0  0  0
M  END
