1,17
 OpenBabel05122313053D

 39 41  0  0  0  0  0  0  0  0999 V2000
    0.9147   -0.1763   -0.3709 P   0  0  2  0  0  0  0  0  0  0  0  0
    2.0647   -0.3386   -1.8727 C   0  0  0  0  0  0  0  0  0  0  0  0
    3.4716   -0.7428   -1.5377 C   0  0  0  0  0  0  0  0  0  0  0  0
    3.8514   -2.1028   -1.5571 C   0  0  0  0  0  0  0  0  0  0  0  0
    5.1441   -2.4994   -1.1857 C   0  0  0  0  0  0  0  0  0  0  0  0
    6.0884   -1.5404   -0.7861 C   0  0  0  0  0  0  0  0  0  0  0  0
    5.7274   -0.1835   -0.7685 C   0  0  0  0  0  0  0  0  0  0  0  0
    4.4347    0.2111   -1.1405 C   0  0  0  0  0  0  0  0  0  0  0  0
    1.8475    1.0904    0.6100 C   0  0  0  0  0  0  0  0  0  0  0  0
    1.9304    2.4115    0.1143 C   0  0  0  0  0  0  0  0  0  0  0  0
    2.5239    3.4332    0.8673 C   0  0  0  0  0  0  0  0  0  0  0  0
    3.0321    3.1594    2.1497 C   0  0  0  0  0  0  0  0  0  0  0  0
    2.9484    1.8544    2.6570 C   0  0  0  0  0  0  0  0  0  0  0  0
    2.3683    0.8272    1.8944 C   0  0  0  0  0  0  0  0  0  0  0  0
    1.2716   -1.7519    0.5336 C   0  0  0  0  0  0  0  0  0  0  0  0
    0.2457   -1.7840    1.6360 C   0  0  0  0  0  0  0  0  0  0  0  0
   -0.9439   -1.0069    1.4546 C   0  0  0  0  0  3  0  0  0  0  0  0
   -1.8772   -1.0828    2.5207 C   0  0  0  0  0  0  0  0  0  0  0  0
   -1.6750   -1.8657    3.6704 C   0  0  0  0  0  0  0  0  0  0  0  0
   -0.4991   -2.6165    3.8126 C   0  0  0  0  0  0  0  0  0  0  0  0
    0.4592   -2.5632    2.7890 C   0  0  0  0  0  0  0  0  0  0  0  0
    1.5776   -1.0935   -2.5229 H   0  0  0  0  0  0  0  0  0  0  0  0
    2.3041   -0.1832    2.3210 H   0  0  0  0  0  0  0  0  0  0  0  0
   -2.8149   -0.5109    2.4625 H   0  0  0  0  0  0  0  0  0  0  0  0
    3.1168   -2.8613   -1.8715 H   0  0  0  0  0  0  0  0  0  0  0  0
    1.3927   -3.1429    2.8805 H   0  0  0  0  0  0  0  0  0  0  0  0
    2.0378    0.6304   -2.4110 H   0  0  0  0  0  0  0  0  0  0  0  0
    1.5183    2.6479   -0.8780 H   0  0  0  0  0  0  0  0  0  0  0  0
   -0.3265   -3.2311    4.7093 H   0  0  0  0  0  0  0  0  0  0  0  0
    5.4167   -3.5657   -1.2121 H   0  0  0  0  0  0  0  0  0  0  0  0
    3.4886    3.9615    2.7491 H   0  0  0  0  0  0  0  0  0  0  0  0
   -2.4430   -1.8814    4.4605 H   0  0  0  0  0  0  0  0  0  0  0  0
    7.1035   -1.8490   -0.4937 H   0  0  0  0  0  0  0  0  0  0  0  0
    4.1615    1.2763   -1.1157 H   0  0  0  0  0  0  0  0  0  0  0  0
    3.3399    1.6274    3.6607 H   0  0  0  0  0  0  0  0  0  0  0  0
    2.5846    4.4522    0.4543 H   0  0  0  0  0  0  0  0  0  0  0  0
    6.4602    0.5784   -0.4614 H   0  0  0  0  0  0  0  0  0  0  0  0
    1.0902   -2.5624   -0.2084 H   0  0  0  0  0  0  0  0  0  0  0  0
    2.3188   -1.8627    0.8827 H   0  0  0  0  0  0  0  0  0  0  0  0
  1  2  1  6  0  0  0
  1 15  1  0  0  0  0
  1  9  1  0  0  0  0
  2  3  1  0  0  0  0
  3  8  1  0  0  0  0
  4  3  2  0  0  0  0
  4  5  1  0  0  0  0
  5  6  2  0  0  0  0
  6  7  1  0  0  0  0
  6 33  1  0  0  0  0
  7 37  1  0  0  0  0
  8 34  1  0  0  0  0
  8  7  2  0  0  0  0
  9 14  1  0  0  0  0
 10  9  2  0  0  0  0
 10 11  1  0  0  0  0
 11 12  2  0  0  0  0
 12 13  1  0  0  0  0
 12 31  1  0  0  0  0
 13 35  1  0  0  0  0
 14 23  1  0  0  0  0
 14 13  2  0  0  0  0
 15 39  1  0  0  0  0
 15 16  1  0  0  0  0
 16 21  1  0  0  0  0
 17 16  2  0  0  0  0
 17 18  1  0  0  0  0
 18 19  2  0  0  0  0
 19 20  1  0  0  0  0
 19 32  1  0  0  0  0
 20 29  1  0  0  0  0
 21 26  1  0  0  0  0
 21 20  2  0  0  0  0
 22  2  1  0  0  0  0
 24 18  1  0  0  0  0
 25  4  1  0  0  0  0
 27  2  1  0  0  0  0
 28 10  1  0  0  0  0
 30  5  1  0  0  0  0
 36 11  1  0  0  0  0
 38 15  1  0  0  0  0
M  END
