1,3
 OpenBabel05122313053D

 36 38  0  0  0  0  0  0  0  0999 V2000
   -1.9435   -0.3322    0.0918 P   0  0  0  0  0  0  0  0  0  0  0  0
   -2.8097    1.2618   -0.0577 C   0  0  0  0  0  0  0  0  0  0  0  0
   -1.7039    2.1392   -0.2825 C   0  0  0  0  0  3  0  0  0  0  0  0
   -1.9935    3.4382   -0.7757 C   0  0  0  0  0  0  0  0  0  0  0  0
   -3.3513    3.8280   -0.8581 C   0  0  0  0  0  0  0  0  0  0  0  0
   -4.4156    2.9695   -0.5317 C   0  0  0  0  0  0  0  0  0  0  0  0
   -4.1545    1.6398   -0.1630 C   0  0  0  0  0  0  0  0  0  0  0  0
   -0.9272    4.3600   -1.3138 C   0  0  0  0  0  0  0  0  0  0  0  0
   -2.4569   -1.4919   -1.2296 C   0  0  0  0  0  0  0  0  0  0  0  0
   -1.6018   -1.6324   -2.3415 C   0  0  0  0  0  0  0  0  0  0  0  0
   -1.9452   -2.5034   -3.3867 C   0  0  0  0  0  0  0  0  0  0  0  0
   -3.1425   -3.2338   -3.3270 C   0  0  0  0  0  0  0  0  0  0  0  0
   -3.9973   -3.0966   -2.2192 C   0  0  0  0  0  0  0  0  0  0  0  0
   -3.6569   -2.2308   -1.1701 C   0  0  0  0  0  0  0  0  0  0  0  0
   -2.3387   -1.1763    1.6654 C   0  0  0  0  0  0  0  0  0  0  0  0
   -2.8605   -0.4400    2.7486 C   0  0  0  0  0  0  0  0  0  0  0  0
   -3.0285   -1.0535    3.9992 C   0  0  0  0  0  0  0  0  0  0  0  0
   -2.6724   -2.4000    4.1802 C   0  0  0  0  0  0  0  0  0  0  0  0
   -2.1492   -3.1361    3.1035 C   0  0  0  0  0  0  0  0  0  0  0  0
   -1.9809   -2.5291    1.8510 C   0  0  0  0  0  0  0  0  0  0  0  0
   -3.5843    4.8427   -1.2236 H   0  0  0  0  0  0  0  0  0  0  0  0
   -5.4530    3.3287   -0.6154 H   0  0  0  0  0  0  0  0  0  0  0  0
   -4.9710    0.9215    0.0110 H   0  0  0  0  0  0  0  0  0  0  0  0
    0.0714    3.8917   -1.2471 H   0  0  0  0  0  0  0  0  0  0  0  0
   -1.1276    4.5850   -2.3826 H   0  0  0  0  0  0  0  0  0  0  0  0
   -0.9030    5.3326   -0.7809 H   0  0  0  0  0  0  0  0  0  0  0  0
   -3.1285    0.6181    2.6037 H   0  0  0  0  0  0  0  0  0  0  0  0
   -3.4397   -0.4738    4.8396 H   0  0  0  0  0  0  0  0  0  0  0  0
   -2.8034   -2.8779    5.1630 H   0  0  0  0  0  0  0  0  0  0  0  0
   -1.8667   -4.1911    3.2407 H   0  0  0  0  0  0  0  0  0  0  0  0
   -1.5637   -3.1063    1.0110 H   0  0  0  0  0  0  0  0  0  0  0  0
   -0.6629   -1.0567   -2.3720 H   0  0  0  0  0  0  0  0  0  0  0  0
   -1.2671   -2.6139   -4.2467 H   0  0  0  0  0  0  0  0  0  0  0  0
   -3.4119   -3.9184   -4.1459 H   0  0  0  0  0  0  0  0  0  0  0  0
   -4.9353   -3.6709   -2.1726 H   0  0  0  0  0  0  0  0  0  0  0  0
   -4.3196   -2.1341   -0.2959 H   0  0  0  0  0  0  0  0  0  0  0  0
  1 15  1  0  0  0  0
  2  1  1  0  0  0  0
  3  2  2  0  0  0  0
  4  3  1  0  0  0  0
  5  4  2  0  0  0  0
  5  6  1  0  0  0  0
  6  7  2  0  0  0  0
  7  2  1  0  0  0  0
  7 23  1  0  0  0  0
  8 24  1  0  0  0  0
  8 26  1  0  0  0  0
  8  4  1  0  0  0  0
  9 14  1  0  0  0  0
  9  1  1  0  0  0  0
 10  9  2  0  0  0  0
 11 12  2  0  0  0  0
 11 10  1  0  0  0  0
 12 13  1  0  0  0  0
 13 35  1  0  0  0  0
 13 14  2  0  0  0  0
 14 36  1  0  0  0  0
 15 20  2  0  0  0  0
 15 16  1  0  0  0  0
 16 17  2  0  0  0  0
 17 18  1  0  0  0  0
 17 28  1  0  0  0  0
 18 29  1  0  0  0  0
 19 30  1  0  0  0  0
 19 18  2  0  0  0  0
 20 19  1  0  0  0  0
 21  5  1  0  0  0  0
 22  6  1  0  0  0  0
 25  8  1  0  0  0  0
 27 16  1  0  0  0  0
 31 20  1  0  0  0  0
 32 10  1  0  0  0  0
 33 11  1  0  0  0  0
 34 12  1  0  0  0  0
M  END
