2,20
 OpenBabel05122313053D

 74 76  0  0  0  0  0  0  0  0999 V2000
    2.5386   -0.8698    0.1274 P   0  0  0  0  0  0  0  0  0  0  0  0
   -2.4795   -0.7758    0.0453 P   0  0  0  0  0  0  0  0  0  0  0  0
    1.4562    3.8699    0.8435 O   0  0  0  0  0  0  0  0  0  0  0  0
    0.7487    4.3329    1.3414 H   0  0  0  0  0  0  0  0  0  0  0  0
   -1.1646    3.9280    0.8449 O   0  0  0  0  0  0  0  0  0  0  0  0
   -2.1245    3.7458    0.9174 H   0  0  0  0  0  0  0  0  0  0  0  0
    3.5680    0.6049   -0.4052 C   0  0  0  0  0  0  0  0  0  0  0  0
    4.9755    0.4907   -0.4050 C   0  0  0  0  0  0  0  0  0  0  0  0
    5.4455   -0.4880   -0.2249 H   0  0  0  0  0  0  0  0  0  0  0  0
    5.8033    1.6025   -0.6041 C   0  0  0  0  0  0  0  0  0  0  0  0
    6.8969    1.4786   -0.6076 H   0  0  0  0  0  0  0  0  0  0  0  0
    5.2299    2.8724   -0.7806 C   0  0  0  0  0  0  0  0  0  0  0  0
    5.8698    3.7566   -0.9218 H   0  0  0  0  0  0  0  0  0  0  0  0
    3.8390    3.0088   -0.7868 C   0  0  0  0  0  0  0  0  0  0  0  0
    3.3793    3.9964   -0.9330 H   0  0  0  0  0  0  0  0  0  0  0  0
    2.9929    1.8871   -0.6260 C   0  0  0  0  0  0  0  0  0  0  0  0
    1.5273    2.0407   -0.7160 C   0  0  0  0  0  0  0  0  0  0  0  0
    0.7947    1.1083   -1.5257 C   0  0  0  0  0  3  0  0  0  0  0  0
    1.3481    0.5612   -2.3010 H   0  0  0  0  0  0  0  0  0  0  0  0
   -0.6186    1.1235   -1.5459 C   0  0  0  0  0  3  0  0  0  0  0  0
   -1.1650    0.6048   -2.3450 H   0  0  0  0  0  0  0  0  0  0  0  0
   -1.3340    2.0874   -0.7579 C   0  0  0  0  0  0  0  0  0  0  0  0
   -0.6079    3.0195   -0.0182 C   0  0  0  0  0  0  0  0  0  0  0  0
    0.8235    3.0070    0.0069 C   0  0  0  0  0  0  0  0  0  0  0  0
   -2.8061    2.0058   -0.6720 C   0  0  0  0  0  0  0  0  0  0  0  0
   -3.4500    0.7594   -0.4244 C   0  0  0  0  0  0  0  0  0  0  0  0
   -4.8604    0.7282   -0.4079 C   0  0  0  0  0  0  0  0  0  0  0  0
   -5.3811   -0.2252   -0.2371 H   0  0  0  0  0  0  0  0  0  0  0  0
   -5.6303    1.8850   -0.5976 C   0  0  0  0  0  0  0  0  0  0  0  0
   -6.7288    1.8213   -0.5834 H   0  0  0  0  0  0  0  0  0  0  0  0
   -4.9926    3.1167   -0.8065 C   0  0  0  0  0  0  0  0  0  0  0  0
   -5.5838    4.0316   -0.9631 H   0  0  0  0  0  0  0  0  0  0  0  0
   -3.5939    3.1710   -0.8490 C   0  0  0  0  0  0  0  0  0  0  0  0
   -3.0893    4.1234   -1.0765 H   0  0  0  0  0  0  0  0  0  0  0  0
   -3.1099   -1.0393    1.8324 C   0  0  0  0  0  0  0  0  0  0  0  0
   -2.2662   -1.6141    2.2684 H   0  0  0  0  0  0  0  0  0  0  0  0
   -4.3944   -1.8531    2.0140 C   0  0  0  0  0  0  0  0  0  0  0  0
   -4.5898   -1.9864    3.0991 H   0  0  0  0  0  0  0  0  0  0  0  0
   -4.3374   -2.8628    1.5663 H   0  0  0  0  0  0  0  0  0  0  0  0
   -5.2805   -1.3342    1.5948 H   0  0  0  0  0  0  0  0  0  0  0  0
   -3.2154    0.3013    2.5733 C   0  0  0  0  0  0  0  0  0  0  0  0
   -4.1214    0.8580    2.2597 H   0  0  0  0  0  0  0  0  0  0  0  0
   -2.3399    0.9546    2.4066 H   0  0  0  0  0  0  0  0  0  0  0  0
   -3.2904    0.1209    3.6657 H   0  0  0  0  0  0  0  0  0  0  0  0
   -3.3982   -2.0744   -0.9732 C   0  0  0  0  0  0  0  0  0  0  0  0
   -4.4514   -2.0405   -0.6213 H   0  0  0  0  0  0  0  0  0  0  0  0
   -2.8509   -3.4821   -0.7124 C   0  0  0  0  0  0  0  0  0  0  0  0
   -3.4905   -4.2318   -1.2232 H   0  0  0  0  0  0  0  0  0  0  0  0
   -2.8159   -3.7397    0.3635 H   0  0  0  0  0  0  0  0  0  0  0  0
   -1.8233   -3.5942   -1.1046 H   0  0  0  0  0  0  0  0  0  0  0  0
   -3.3779   -1.7198   -2.4646 C   0  0  0  0  0  0  0  0  0  0  0  0
   -2.3458   -1.7051   -2.8642 H   0  0  0  0  0  0  0  0  0  0  0  0
   -3.8440   -0.7354   -2.6659 H   0  0  0  0  0  0  0  0  0  0  0  0
   -3.9397   -2.4847   -3.0405 H   0  0  0  0  0  0  0  0  0  0  0  0
    3.2877   -1.0742    1.8748 C   0  0  0  0  0  0  0  0  0  0  0  0
    4.2990   -1.4968    1.6778 H   0  0  0  0  0  0  0  0  0  0  0  0
    2.5045   -2.0585    2.7481 C   0  0  0  0  0  0  0  0  0  0  0  0
    3.0530   -2.2230    3.6993 H   0  0  0  0  0  0  0  0  0  0  0  0
    2.3471   -3.0439    2.2734 H   0  0  0  0  0  0  0  0  0  0  0  0
    1.5061   -1.6538    3.0028 H   0  0  0  0  0  0  0  0  0  0  0  0
    3.4567    0.2659    2.6055 C   0  0  0  0  0  0  0  0  0  0  0  0
    2.4879    0.7811    2.7460 H   0  0  0  0  0  0  0  0  0  0  0  0
    4.1388    0.9584    2.0793 H   0  0  0  0  0  0  0  0  0  0  0  0
    3.8784    0.0773    3.6151 H   0  0  0  0  0  0  0  0  0  0  0  0
    3.4229   -2.2471   -0.8295 C   0  0  0  0  0  0  0  0  0  0  0  0
    4.4686   -2.2340   -0.4501 H   0  0  0  0  0  0  0  0  0  0  0  0
    3.4501   -1.9466   -2.3326 C   0  0  0  0  0  0  0  0  0  0  0  0
    4.0231   -2.7366   -2.8619 H   0  0  0  0  0  0  0  0  0  0  0  0
    3.9305   -0.9740   -2.5546 H   0  0  0  0  0  0  0  0  0  0  0  0
    2.4323   -1.9393   -2.7656 H   0  0  0  0  0  0  0  0  0  0  0  0
    2.8344   -3.6305   -0.5350 C   0  0  0  0  0  0  0  0  0  0  0  0
    1.7663   -3.6872   -0.8180 H   0  0  0  0  0  0  0  0  0  0  0  0
    2.9129   -3.9051    0.5338 H   0  0  0  0  0  0  0  0  0  0  0  0
    3.3806   -4.4002   -1.1192 H   0  0  0  0  0  0  0  0  0  0  0  0
  1 55  1  0  0  0  0
  2 35  1  0  0  0  0
  3  4  1  0  0  0  0
  5  6  1  0  0  0  0
  7  8  1  0  0  0  0
  7  1  1  0  0  0  0
  8  9  1  0  0  0  0
 10  8  2  0  0  0  0
 11 10  1  0  0  0  0
 12 10  1  0  0  0  0
 13 12  1  0  0  0  0
 14 12  2  0  0  0  0
 14 16  1  0  0  0  0
 15 14  1  0  0  0  0
 16  7  2  0  0  0  0
 17 16  1  0  0  0  0
 17 24  2  0  0  0  0
 18 17  1  0  0  0  0
 19 18  1  0  0  0  0
 20 18  1  0  0  0  0
 20 22  1  0  0  0  0
 21 20  1  0  0  0  0
 22 25  1  0  0  0  0
 22 23  2  0  0  0  0
 23 24  1  0  0  0  0
 23  5  1  0  0  0  0
 24  3  1  0  0  0  0
 25 26  1  0  0  0  0
 26 27  2  0  0  0  0
 26  2  1  0  0  0  0
 27 28  1  0  0  0  0
 29 30  1  0  0  0  0
 29 27  1  0  0  0  0
 31 29  2  0  0  0  0
 32 31  1  0  0  0  0
 33 31  1  0  0  0  0
 33 25  2  0  0  0  0
 34 33  1  0  0  0  0
 35 37  1  0  0  0  0
 35 36  1  0  0  0  0
 35 41  1  0  0  0  0
 37 38  1  0  0  0  0
 39 37  1  0  0  0  0
 40 37  1  0  0  0  0
 41 44  1  0  0  0  0
 42 41  1  0  0  0  0
 43 41  1  0  0  0  0
 45 47  1  0  0  0  0
 45 46  1  0  0  0  0
 45  2  1  0  0  0  0
 47 49  1  0  0  0  0
 48 47  1  0  0  0  0
 50 47  1  0  0  0  0
 51 45  1  0  0  0  0
 52 51  1  0  0  0  0
 53 51  1  0  0  0  0
 54 51  1  0  0  0  0
 55 61  1  0  0  0  0
 55 57  1  0  0  0  0
 56 55  1  0  0  0  0
 57 60  1  0  0  0  0
 57 58  1  0  0  0  0
 59 57  1  0  0  0  0
 61 62  1  0  0  0  0
 61 64  1  0  0  0  0
 63 61  1  0  0  0  0
 65 71  1  0  0  0  0
 65 66  1  0  0  0  0
 65  1  1  0  0  0  0
 67 65  1  0  0  0  0
 68 67  1  0  0  0  0
 69 67  1  0  0  0  0
 70 67  1  0  0  0  0
 71 73  1  0  0  0  0
 72 71  1  0  0  0  0
 74 71  1  0  0  0  0
M  END
