1,40
 OpenBabel05122313053D

 52 53  0  0  0  0  0  0  0  0999 V2000
    1.1568    0.0968    0.0605 P   0  0  0  0  0  0  0  0  0  0  0  0
   -0.4941    2.5299   -0.1739 P   0  0  0  0  0  0  0  0  0  0  0  0
   -3.3671    1.7111   -0.0216 Si  0  0  0  0  0  0  0  0  0  0  0  0
    1.1321    1.8049   -0.1400 N   0  0  0  0  0  0  0  0  0  0  0  0
    2.1765   -0.6643   -1.2628 C   0  0  0  0  0  0  0  0  0  0  0  0
    1.6318   -0.6281   -2.5635 C   0  0  0  0  0  0  0  0  0  0  0  0
    0.6375   -0.1807   -2.7195 H   0  0  0  0  0  0  0  0  0  0  0  0
    2.3429   -1.1774   -3.6379 C   0  0  0  0  0  0  0  0  0  0  0  0
    1.9123   -1.1465   -4.6502 H   0  0  0  0  0  0  0  0  0  0  0  0
    3.5934   -1.7799   -3.4205 C   0  0  0  0  0  0  0  0  0  0  0  0
    4.1478   -2.2190   -4.2639 H   0  0  0  0  0  0  0  0  0  0  0  0
    4.1303   -1.8297   -2.1249 C   0  0  0  0  0  0  0  0  0  0  0  0
    5.1061   -2.3073   -1.9492 H   0  0  0  0  0  0  0  0  0  0  0  0
    3.4272   -1.2714   -1.0465 C   0  0  0  0  0  0  0  0  0  0  0  0
    3.8573   -1.3049   -0.0349 H   0  0  0  0  0  0  0  0  0  0  0  0
    1.9397   -0.2642    1.6809 C   0  0  0  0  0  0  0  0  0  0  0  0
    2.0824    0.7735    2.6228 C   0  0  0  0  0  0  0  0  0  0  0  0
    1.7717    1.7931    2.3506 H   0  0  0  0  0  0  0  0  0  0  0  0
    2.6018    0.5012    3.8967 C   0  0  0  0  0  0  0  0  0  0  0  0
    2.7116    1.3175    4.6268 H   0  0  0  0  0  0  0  0  0  0  0  0
    2.9732   -0.8085    4.2397 C   0  0  0  0  0  0  0  0  0  0  0  0
    3.3834   -1.0215    5.2387 H   0  0  0  0  0  0  0  0  0  0  0  0
    2.8006   -1.8494    3.3127 C   0  0  0  0  0  0  0  0  0  0  0  0
    3.0639   -2.8823    3.5873 H   0  0  0  0  0  0  0  0  0  0  0  0
    2.2754   -1.5877    2.0389 C   0  0  0  0  0  0  0  0  0  0  0  0
    2.0697   -2.4095    1.3354 H   0  0  0  0  0  0  0  0  0  0  0  0
    2.2921    2.6962   -0.5134 C   0  0  0  0  0  0  0  0  0  0  0  0
    2.2291    2.9783   -2.0274 C   0  0  0  0  0  0  0  0  0  0  0  0
    2.3385    2.0388   -2.6039 H   0  0  0  0  0  0  0  0  0  0  0  0
    3.0390    3.6714   -2.3334 H   0  0  0  0  0  0  0  0  0  0  0  0
    1.2565    3.4387   -2.2956 H   0  0  0  0  0  0  0  0  0  0  0  0
    2.1752    4.0200    0.2707 C   0  0  0  0  0  0  0  0  0  0  0  0
    1.2348    4.5557    0.0383 H   0  0  0  0  0  0  0  0  0  0  0  0
    3.0243    4.6830    0.0091 H   0  0  0  0  0  0  0  0  0  0  0  0
    2.2045    3.8362    1.3635 H   0  0  0  0  0  0  0  0  0  0  0  0
    3.6531    2.0688   -0.1692 C   0  0  0  0  0  0  0  0  0  0  0  0
    3.7365    1.8172    0.9045 H   0  0  0  0  0  0  0  0  0  0  0  0
    4.4467    2.8043   -0.4074 H   0  0  0  0  0  0  0  0  0  0  0  0
    3.8592    1.1614   -0.7630 H   0  0  0  0  0  0  0  0  0  0  0  0
   -1.5486    1.2131   -0.0794 C   0  0  0  0  0  3  0  0  0  0  0  0
   -4.2823    1.0459   -1.5486 C   0  0  0  0  0  0  0  0  0  0  0  0
   -3.8764    1.5288   -2.4612 H   0  0  0  0  0  0  0  0  0  0  0  0
   -5.3665    1.2782   -1.4919 H   0  0  0  0  0  0  0  0  0  0  0  0
   -4.1616   -0.0474   -1.6717 H   0  0  0  0  0  0  0  0  0  0  0  0
   -3.5814    3.6008   -0.0412 C   0  0  0  0  0  0  0  0  0  0  0  0
   -3.1001    4.0781    0.8362 H   0  0  0  0  0  0  0  0  0  0  0  0
   -4.6634    3.8499   -0.0163 H   0  0  0  0  0  0  0  0  0  0  0  0
   -3.1482    4.0556   -0.9550 H   0  0  0  0  0  0  0  0  0  0  0  0
   -4.1695    1.0779    1.5788 C   0  0  0  0  0  0  0  0  0  0  0  0
   -4.0267   -0.0114    1.7156 H   0  0  0  0  0  0  0  0  0  0  0  0
   -5.2574    1.2986    1.5941 H   0  0  0  0  0  0  0  0  0  0  0  0
   -3.7044    1.5835    2.4498 H   0  0  0  0  0  0  0  0  0  0  0  0
  1 16  1  0  0  0  0
  2  4  1  0  0  0  0
  2 40  2  0  0  0  0
  3 49  1  0  0  0  0
  4  1  1  0  0  0  0
  5 14  1  0  0  0  0
  5  1  1  0  0  0  0
  6  5  2  0  0  0  0
  7  6  1  0  0  0  0
  8 10  2  0  0  0  0
  8  6  1  0  0  0  0
  9  8  1  0  0  0  0
 10 12  1  0  0  0  0
 11 10  1  0  0  0  0
 12 13  1  0  0  0  0
 12 14  2  0  0  0  0
 14 15  1  0  0  0  0
 16 25  2  0  0  0  0
 16 17  1  0  0  0  0
 17 19  2  0  0  0  0
 18 17  1  0  0  0  0
 19 21  1  0  0  0  0
 19 20  1  0  0  0  0
 21 22  1  0  0  0  0
 23 24  1  0  0  0  0
 23 21  2  0  0  0  0
 25 23  1  0  0  0  0
 26 25  1  0  0  0  0
 27 36  1  0  0  0  0
 27  4  1  0  0  0  0
 27 32  1  0  0  0  0
 28 27  1  0  0  0  0
 29 28  1  0  0  0  0
 30 28  1  0  0  0  0
 31 28  1  0  0  0  0
 32 35  1  0  0  0  0
 33 32  1  0  0  0  0
 34 32  1  0  0  0  0
 36 37  1  0  0  0  0
 38 36  1  0  0  0  0
 39 36  1  0  0  0  0
 40  3  1  0  0  0  0
 41 43  1  0  0  0  0
 41  3  1  0  0  0  0
 42 41  1  0  0  0  0
 44 41  1  0  0  0  0
 45  3  1  0  0  0  0
 45 47  1  0  0  0  0
 45 46  1  0  0  0  0
 48 45  1  0  0  0  0
 49 51  1  0  0  0  0
 49 50  1  0  0  0  0
 49 52  1  0  0  0  0
M  END
