1,18
q = -1.0, confidence = 0.002

 40 43  0  0  0  0  0  0  0  0999 V2000
    0.4058    0.0600   -0.1819 P   0  0  0  0  0  0  0  0  0  0  0  0
    1.5931    1.3290   -0.2281 C   0  0  0  0  0  0  0  0  0  0  0  0
    2.9553    0.9818   -0.1157 C   0  0  0  0  0  0  0  0  0  0  0  0
    3.6774    1.8126   -0.1800 H   0  0  0  0  0  0  0  0  0  0  0  0
    3.4864   -0.3268   -0.0141 C   0  0  0  0  0  0  0  0  0  0  0  0
    2.6651   -1.4829   -0.0409 C   0  0  0  0  0  0  0  0  0  0  0  0
    3.1657   -2.4625    0.0283 H   0  0  0  0  0  0  0  0  0  0  0  0
    1.2685   -1.4518   -0.1287 C   0  0  0  0  0  0  0  0  0  0  0  0
    0.3101   -2.5611   -0.2373 C   0  0  0  0  0  0  0  0  0  0  0  0
    0.7092   -3.9149   -0.3140 C   0  0  0  0  0  0  0  0  0  0  0  0
    1.7747   -4.1741   -0.2101 H   0  0  0  0  0  0  0  0  0  0  0  0
   -0.2295   -4.9250   -0.5485 C   0  0  0  0  0  0  0  0  0  0  0  0
    0.0932   -5.9753   -0.6090 H   0  0  0  0  0  0  0  0  0  0  0  0
   -1.5793   -4.5831   -0.7400 C   0  0  0  0  0  0  0  0  0  0  0  0
   -2.3201   -5.3661   -0.9664 H   0  0  0  0  0  0  0  0  0  0  0  0
   -1.9902   -3.2418   -0.6560 C   0  0  0  0  0  0  0  0  0  0  0  0
   -3.0458   -2.9932   -0.8397 H   0  0  0  0  0  0  0  0  0  0  0  0
   -1.0787   -2.2120   -0.3588 C   0  0  0  0  0  3  0  0  0  0  0  0
    1.1267    2.7245   -0.4001 C   0  0  0  0  0  0  0  0  0  0  0  0
    0.0416    3.0077   -1.2651 C   0  0  0  0  0  0  0  0  0  0  0  0
   -0.4366    2.1904   -1.8315 H   0  0  0  0  0  0  0  0  0  0  0  0
   -0.4246    4.3215   -1.4096 C   0  0  0  0  0  0  0  0  0  0  0  0
   -1.2633    4.5241   -2.0932 H   0  0  0  0  0  0  0  0  0  0  0  0
    0.1768    5.3726   -0.6974 C   0  0  0  0  0  0  0  0  0  0  0  0
   -0.1923    6.4031   -0.8125 H   0  0  0  0  0  0  0  0  0  0  0  0
    1.2567    5.1020    0.1592 C   0  0  0  0  0  0  0  0  0  0  0  0
    1.7313    5.9191    0.7238 H   0  0  0  0  0  0  0  0  0  0  0  0
    1.7288    3.7903    0.3063 C   0  0  0  0  0  0  0  0  0  0  0  0
    2.5585    3.5802    0.9986 H   0  0  0  0  0  0  0  0  0  0  0  0
    4.9612   -0.4918    0.0908 C   0  0  0  0  0  0  0  0  0  0  0  0
    5.6271   -1.5458   -0.5765 C   0  0  0  0  0  0  0  0  0  0  0  0
    5.0487   -2.2355   -1.2096 H   0  0  0  0  0  0  0  0  0  0  0  0
    7.0162   -1.6998   -0.4751 C   0  0  0  0  0  0  0  0  0  0  0  0
    7.5131   -2.5216   -1.0131 H   0  0  0  0  0  0  0  0  0  0  0  0
    7.7738   -0.8039    0.2959 C   0  0  0  0  0  0  0  0  0  0  0  0
    8.8647   -0.9250    0.3753 H   0  0  0  0  0  0  0  0  0  0  0  0
    7.1279    0.2483    0.9643 C   0  0  0  0  0  0  0  0  0  0  0  0
    7.7102    0.9512    1.5796 H   0  0  0  0  0  0  0  0  0  0  0  0
    5.7387    0.4021    0.8628 C   0  0  0  0  0  0  0  0  0  0  0  0
    5.2393    1.2131    1.4144 H   0  0  0  0  0  0  0  0  0  0  0  0
  1  8  1  0  0  0  0
  2  1  2  0  0  0  0
  2  3  1  0  0  0  0
  3  5  2  0  0  0  0
  4  3  1  0  0  0  0
  5 30  1  0  0  0  0
  6  5  1  0  0  0  0
  6  7  1  0  0  0  0
  8  6  2  0  0  0  0
  9  8  1  0  0  0  0
 10  9  1  0  0  0  0
 10 11  1  0  0  0  0
 12 10  2  0  0  0  0
 13 12  1  0  0  0  0
 14 16  2  0  0  0  0
 14 12  1  0  0  0  0
 15 14  1  0  0  0  0
 16 18  1  0  0  0  0
 17 16  1  0  0  0  0
 18  9  2  0  0  0  0
 19  2  1  0  0  0  0
 19 28  1  0  0  0  0
 20 19  2  0  0  0  0
 21 20  1  0  0  0  0
 22 20  1  0  0  0  0
 22 24  2  0  0  0  0
 23 22  1  0  0  0  0
 24 26  1  0  0  0  0
 25 24  1  0  0  0  0
 26 28  2  0  0  0  0
 26 27  1  0  0  0  0
 28 29  1  0  0  0  0
 30 39  1  0  0  0  0
 31 33  1  0  0  0  0
 31 30  2  0  0  0  0
 32 31  1  0  0  0  0
 33 35  2  0  0  0  0
 34 33  1  0  0  0  0
 35 36  1  0  0  0  0
 35 37  1  0  0  0  0
 37 38  1  0  0  0  0
 39 37  2  0  0  0  0
 39 40  1  0  0  0  0
M  END
