1,3
 OpenBabel05122313053D

 35 35  0  0  0  0  0  0  0  0999 V2000
    1.0328   -0.8534    0.0527 P   0  0  0  0  0  0  0  0  0  0  0  0
   -0.3892   -1.6850    0.3536 O   0  0  0  0  0  0  0  0  0  0  0  0
   -1.3462    0.4994   -0.0148 C   0  0  0  0  0  3  0  0  0  0  0  0
   -2.5064    1.2794   -0.1542 C   0  0  0  0  0  0  0  0  0  0  0  0
   -3.7820    0.7008   -0.0272 C   0  0  0  0  0  0  0  0  0  0  0  0
   -3.9384   -0.6738    0.2364 C   0  0  0  0  0  0  0  0  0  0  0  0
   -2.7782   -1.4671    0.3635 C   0  0  0  0  0  0  0  0  0  0  0  0
   -1.5155   -0.8840    0.2362 C   0  0  0  0  0  0  0  0  0  0  0  0
   -5.3020   -1.2958    0.3846 C   0  0  0  0  0  0  0  0  0  0  0  0
    1.7069   -1.6898   -1.4529 C   0  0  0  0  0  0  0  0  0  0  0  0
    0.7614   -1.4351   -2.6353 C   0  0  0  0  0  0  0  0  0  0  0  0
    1.9474   -3.1850   -1.1971 C   0  0  0  0  0  0  0  0  0  0  0  0
    2.0724   -1.2615    1.5191 C   0  0  0  0  0  0  0  0  0  0  0  0
    3.5206   -0.8015    1.3046 C   0  0  0  0  0  0  0  0  0  0  0  0
    1.4271   -0.6792    2.7825 C   0  0  0  0  0  0  0  0  0  0  0  0
   -2.4468    2.3572   -0.3683 H   0  0  0  0  0  0  0  0  0  0  0  0
   -4.6729    1.3372   -0.1382 H   0  0  0  0  0  0  0  0  0  0  0  0
   -2.8482   -2.5474    0.5588 H   0  0  0  0  0  0  0  0  0  0  0  0
   -5.4233   -2.1655   -0.2926 H   0  0  0  0  0  0  0  0  0  0  0  0
   -6.1084   -0.5721    0.1623 H   0  0  0  0  0  0  0  0  0  0  0  0
   -5.4576   -1.6700    1.4180 H   0  0  0  0  0  0  0  0  0  0  0  0
    2.6790   -1.1783   -1.6383 H   0  0  0  0  0  0  0  0  0  0  0  0
    0.6001   -0.3529   -2.8140 H   0  0  0  0  0  0  0  0  0  0  0  0
    1.1850   -1.8812   -3.5568 H   0  0  0  0  0  0  0  0  0  0  0  0
   -0.2289   -1.9002   -2.4579 H   0  0  0  0  0  0  0  0  0  0  0  0
    2.3019   -3.6640   -2.1318 H   0  0  0  0  0  0  0  0  0  0  0  0
    2.7137   -3.3693   -0.4194 H   0  0  0  0  0  0  0  0  0  0  0  0
    1.0085   -3.6893   -0.8939 H   0  0  0  0  0  0  0  0  0  0  0  0
    2.0304   -2.3728    1.5684 H   0  0  0  0  0  0  0  0  0  0  0  0
    3.5784    0.2948    1.1465 H   0  0  0  0  0  0  0  0  0  0  0  0
    4.0054   -1.3069    0.4456 H   0  0  0  0  0  0  0  0  0  0  0  0
    4.1194   -1.0409    2.2060 H   0  0  0  0  0  0  0  0  0  0  0  0
    1.4406    0.4299    2.7641 H   0  0  0  0  0  0  0  0  0  0  0  0
    1.9910   -1.0131    3.6763 H   0  0  0  0  0  0  0  0  0  0  0  0
    0.3773   -1.0116    2.8977 H   0  0  0  0  0  0  0  0  0  0  0  0
  1  2  1  0  0  0  0
  1 13  1  0  0  0  0
  3  8  1  0  0  0  0
  4  5  1  0  0  0  0
  4  3  2  0  0  0  0
  5  6  2  0  0  0  0
  6  7  1  0  0  0  0
  6  9  1  0  0  0  0
  7 18  1  0  0  0  0
  8  2  1  0  0  0  0
  8  7  2  0  0  0  0
  9 21  1  0  0  0  0
 10 12  1  0  0  0  0
 10  1  1  0  0  0  0
 11 25  1  0  0  0  0
 11 10  1  0  0  0  0
 12 28  1  0  0  0  0
 12 27  1  0  0  0  0
 13 29  1  0  0  0  0
 13 15  1  0  0  0  0
 14 13  1  0  0  0  0
 14 32  1  0  0  0  0
 15 35  1  0  0  0  0
 15 34  1  0  0  0  0
 16  4  1  0  0  0  0
 17  5  1  0  0  0  0
 19  9  1  0  0  0  0
 20  9  1  0  0  0  0
 22 10  1  0  0  0  0
 23 11  1  0  0  0  0
 24 11  1  0  0  0  0
 26 12  1  0  0  0  0
 30 14  1  0  0  0  0
 31 14  1  0  0  0  0
 33 15  1  0  0  0  0
M  END
