1,8
 OpenBabel05122313053D

 43 45  0  0  1  0  0  0  0  0999 V2000
    0.1788   -0.9992    0.2932 P   0  0  2  0  0  0  0  0  0  0  0  0
    1.2936   -2.4486    0.7651 C   0  0  2  0  0  0  0  0  0  0  0  0
    0.6490   -3.3132    1.0139 H   0  0  0  0  0  0  0  0  0  0  0  0
    2.1335   -2.0761    1.9628 C   0  0  0  0  0  0  0  0  0  0  0  0
    2.0282   -2.6952    2.8678 H   0  0  0  0  0  0  0  0  0  0  0  0
    2.9857   -1.0149    1.9780 C   0  0  0  0  0  0  0  0  0  0  0  0
    3.5063   -0.7884    2.9231 H   0  0  0  0  0  0  0  0  0  0  0  0
    3.3004   -0.1348    0.8557 C   0  0  0  0  0  3  0  0  0  0  0  0
    3.8792    0.7731    1.0886 H   0  0  0  0  0  0  0  0  0  0  0  0
    3.3270   -0.5445   -0.5095 C   0  0  0  0  0  3  0  0  0  0  0  0
    3.9226    0.0919   -1.1831 H   0  0  0  0  0  0  0  0  0  0  0  0
    3.0455   -1.9014   -0.9720 C   0  0  0  0  0  0  0  0  0  0  0  0
    3.6035   -2.2266   -1.8655 H   0  0  0  0  0  0  0  0  0  0  0  0
    2.1835   -2.7899   -0.4062 C   0  0  0  0  0  0  0  0  0  0  0  0
    2.1065   -3.8064   -0.8235 H   0  0  0  0  0  0  0  0  0  0  0  0
   -1.0291   -0.7166    1.6666 C   0  0  1  0  0  0  0  0  0  0  0  0
   -1.7876   -0.0659    1.1705 H   0  0  0  0  0  0  0  0  0  0  0  0
   -1.7219   -1.9329    2.2218 C   0  0  0  0  0  0  0  0  0  0  0  0
   -1.2736   -2.9330    2.1095 H   0  0  0  0  0  0  0  0  0  0  0  0
   -2.9169   -1.7948    2.8700 C   0  0  0  0  0  0  0  0  0  0  0  0
   -3.4691   -2.7090    3.1481 H   0  0  0  0  0  0  0  0  0  0  0  0
   -3.4976   -0.5358    3.2691 C   0  0  0  0  0  0  0  0  0  0  0  0
   -4.5848   -0.5246    3.4543 H   0  0  0  0  0  0  0  0  0  0  0  0
   -2.7866    0.5940    3.6324 C   0  0  0  0  0  0  0  0  0  0  0  0
   -3.3625    1.4221    4.0789 H   0  0  0  0  0  0  0  0  0  0  0  0
   -1.3497    0.7174    3.6632 C   0  0  0  0  0  0  0  0  0  0  0  0
   -0.9254    1.3966    4.4218 H   0  0  0  0  0  0  0  0  0  0  0  0
   -0.4833    0.0566    2.8397 C   0  0  0  0  0  0  0  0  0  0  0  0
    0.6033    0.1138    3.0019 H   0  0  0  0  0  0  0  0  0  0  0  0
   -0.9173   -1.5455   -1.0989 C   0  0  1  0  0  0  0  0  0  0  0  0
   -1.7573   -0.8144   -1.0409 H   0  0  0  0  0  0  0  0  0  0  0  0
   -0.3005   -1.4094   -2.4682 C   0  0  0  0  0  0  0  0  0  0  0  0
    0.7924   -1.3344   -2.5698 H   0  0  0  0  0  0  0  0  0  0  0  0
   -1.1125   -1.3319   -3.5636 C   0  0  0  0  0  0  0  0  0  0  0  0
   -0.6488   -1.0806   -4.5324 H   0  0  0  0  0  0  0  0  0  0  0  0
   -2.5359   -1.5647   -3.5651 C   0  0  0  0  0  0  0  0  0  0  0  0
   -3.1065   -1.1288   -4.4025 H   0  0  0  0  0  0  0  0  0  0  0  0
   -3.2178   -2.4294   -2.7281 C   0  0  0  0  0  0  0  0  0  0  0  0
   -4.2791   -2.6196   -2.9602 H   0  0  0  0  0  0  0  0  0  0  0  0
   -2.6121   -3.2592   -1.7158 C   0  0  0  0  0  0  0  0  0  0  0  0
   -3.0791   -4.2423   -1.5322 H   0  0  0  0  0  0  0  0  0  0  0  0
   -1.4845   -2.9389   -1.0135 C   0  0  0  0  0  0  0  0  0  0  0  0
   -0.9927   -3.7055   -0.3935 H   0  0  0  0  0  0  0  0  0  0  0  0
  1 30  1  6  0  0  0
  1  2  1  0  0  0  0
  1 16  1  0  0  0  0
  2  3  1  1  0  0  0
  2  4  1  0  0  0  0
  4  6  2  0  0  0  0
  4  5  1  0  0  0  0
  6  7  1  0  0  0  0
  8  9  1  0  0  0  0
  8  6  1  0  0  0  0
 10  8  1  0  0  0  0
 11 10  1  0  0  0  0
 12 10  1  0  0  0  0
 12 14  2  0  0  0  0
 13 12  1  0  0  0  0
 14  2  1  0  0  0  0
 15 14  1  0  0  0  0
 16 17  1  6  0  0  0
 16 18  1  0  0  0  0
 16 28  1  0  0  0  0
 18 20  2  0  0  0  0
 19 18  1  0  0  0  0
 20 21  1  0  0  0  0
 20 22  1  0  0  0  0
 22 23  1  0  0  0  0
 22 24  2  0  0  0  0
 24 26  1  0  0  0  0
 24 25  1  0  0  0  0
 26 27  1  0  0  0  0
 28 29  1  0  0  0  0
 28 26  2  0  0  0  0
 30 31  1  1  0  0  0
 30 42  1  0  0  0  0
 32 30  1  0  0  0  0
 33 32  1  0  0  0  0
 34 32  2  0  0  0  0
 35 34  1  0  0  0  0
 36 34  1  0  0  0  0
 36 38  2  0  0  0  0
 37 36  1  0  0  0  0
 38 40  1  0  0  0  0
 39 38  1  0  0  0  0
 40 41  1  0  0  0  0
 40 42  2  0  0  0  0
 42 43  1  0  0  0  0
M  END
