1,3
 OpenBabel05122313053D

 42 44  0  0  0  0  0  0  0  0999 V2000
   -0.3366    0.0213    0.0691 P   0  0  0  0  0  0  0  0  0  0  0  0
    0.9095    0.0784    1.3810 C   0  0  0  0  0  0  0  0  0  0  0  0
    2.0927   -0.0946    0.6214 C   0  0  0  0  0  3  0  0  0  0  0  0
    3.3222   -0.0861    1.2975 C   0  0  0  0  0  0  0  0  0  0  0  0
    3.3701    0.0898    2.6996 C   0  0  0  0  0  0  0  0  0  0  0  0
    2.1650    0.2733    3.4197 C   0  0  0  0  0  0  0  0  0  0  0  0
    0.9219    0.2731    2.7712 C   0  0  0  0  0  0  0  0  0  0  0  0
    4.6900    0.0590    3.4293 C   0  0  0  0  0  0  0  0  0  0  0  0
   -3.6011    5.2633    0.0047 C   0  0  0  0  0  0  0  0  0  0  0  0
   -4.5052   -4.4577    0.8983 C   0  0  0  0  0  0  0  0  0  0  0  0
    4.2676   -0.2130    0.7440 H   0  0  0  0  0  0  0  0  0  0  0  0
    2.2102    0.4240    4.5101 H   0  0  0  0  0  0  0  0  0  0  0  0
   -0.0068    0.4349    3.3409 H   0  0  0  0  0  0  0  0  0  0  0  0
    4.8992   -0.9596    3.8220 H   0  0  0  0  0  0  0  0  0  0  0  0
    4.6951    0.7479    4.2975 H   0  0  0  0  0  0  0  0  0  0  0  0
    5.5314    0.3312    2.7627 H   0  0  0  0  0  0  0  0  0  0  0  0
   -3.3998    5.8983    0.8901 H   0  0  0  0  0  0  0  0  0  0  0  0
   -4.6923    5.0839   -0.0548 H   0  0  0  0  0  0  0  0  0  0  0  0
   -3.3167    5.8569   -0.8910 H   0  0  0  0  0  0  0  0  0  0  0  0
   -5.3911   -4.0992    1.4601 H   0  0  0  0  0  0  0  0  0  0  0  0
   -4.8521   -4.8865   -0.0615 H   0  0  0  0  0  0  0  0  0  0  0  0
   -4.0614   -5.2857    1.4917 H   0  0  0  0  0  0  0  0  0  0  0  0
   -1.3338    1.5548    0.1069 C   0  0  0  0  0  0  0  0  0  0  0  0
   -0.7900    2.7399    0.6434 C   0  0  0  0  0  0  0  0  0  0  0  0
   -1.5324    3.9268    0.6202 C   0  0  0  0  0  0  0  0  0  0  0  0
   -2.8253    3.9726    0.0580 C   0  0  0  0  0  0  0  0  0  0  0  0
   -3.3570    2.7800   -0.4747 C   0  0  0  0  0  0  0  0  0  0  0  0
   -2.6261    1.5853   -0.4547 C   0  0  0  0  0  0  0  0  0  0  0  0
    0.2164    2.7295    1.0884 H   0  0  0  0  0  0  0  0  0  0  0  0
   -1.0972    4.8424    1.0512 H   0  0  0  0  0  0  0  0  0  0  0  0
   -4.3684    2.7868   -0.9110 H   0  0  0  0  0  0  0  0  0  0  0  0
   -3.0686    0.6662   -0.8687 H   0  0  0  0  0  0  0  0  0  0  0  0
   -1.5679   -1.3069    0.3212 C   0  0  0  0  0  0  0  0  0  0  0  0
   -1.8854   -2.1832   -0.7327 C   0  0  0  0  0  0  0  0  0  0  0  0
   -2.8459   -3.1888   -0.5490 C   0  0  0  0  0  0  0  0  0  0  0  0
   -3.5014   -3.3543    0.6864 C   0  0  0  0  0  0  0  0  0  0  0  0
   -3.1753   -2.4665    1.7359 C   0  0  0  0  0  0  0  0  0  0  0  0
   -2.2279   -1.4532    1.5596 C   0  0  0  0  0  0  0  0  0  0  0  0
   -1.3832   -2.0770   -1.7061 H   0  0  0  0  0  0  0  0  0  0  0  0
   -3.0872   -3.8645   -1.3844 H   0  0  0  0  0  0  0  0  0  0  0  0
   -3.6786   -2.5734    2.7100 H   0  0  0  0  0  0  0  0  0  0  0  0
   -1.9997   -0.7686    2.3905 H   0  0  0  0  0  0  0  0  0  0  0  0
  1 23  1  0  0  0  0
  1 33  1  0  0  0  0
  1  2  1  0  0  0  0
  2  7  1  0  0  0  0
  3  4  1  0  0  0  0
  3  2  2  0  0  0  0
  4  5  2  0  0  0  0
  5  6  1  0  0  0  0
  5  8  1  0  0  0  0
  6 12  1  0  0  0  0
  7 13  1  0  0  0  0
  7  6  2  0  0  0  0
  8 14  1  0  0  0  0
  8 15  1  0  0  0  0
  9 26  1  0  0  0  0
  9 17  1  0  0  0  0
 10 20  1  0  0  0  0
 10 22  1  0  0  0  0
 11  4  1  0  0  0  0
 16  8  1  0  0  0  0
 18  9  1  0  0  0  0
 19  9  1  0  0  0  0
 21 10  1  0  0  0  0
 23 24  1  0  0  0  0
 24 29  1  0  0  0  0
 25 24  2  0  0  0  0
 25 30  1  0  0  0  0
 26 25  1  0  0  0  0
 27 28  1  0  0  0  0
 27 26  2  0  0  0  0
 28 23  2  0  0  0  0
 31 27  1  0  0  0  0
 32 28  1  0  0  0  0
 33 38  1  0  0  0  0
 34 35  1  0  0  0  0
 34 33  2  0  0  0  0
 35 36  2  0  0  0  0
 36 10  1  0  0  0  0
 36 37  1  0  0  0  0
 37 41  1  0  0  0  0
 38 37  2  0  0  0  0
 38 42  1  0  0  0  0
 39 34  1  0  0  0  0
 40 35  1  0  0  0  0
M  END
