1,14
 OpenBabel05122313053D

 49 53  0  0  0  0  0  0  0  0999 V2000
   -0.2548   -0.4939    0.6347 P   0  0  0  0  0  0  0  0  0  0  0  0
   -0.8093   -1.5002   -0.8852 C   0  0  0  0  0  0  0  0  0  0  0  0
   -1.3033   -2.3963   -0.4596 H   0  0  0  0  0  0  0  0  0  0  0  0
    0.3747   -1.9471   -1.7034 C   0  0  0  0  0  0  0  0  0  0  0  0
    0.6506   -3.3224   -1.8144 C   0  0  0  0  0  0  0  0  0  0  0  0
   -0.0424   -4.0439   -1.3550 H   0  0  0  0  0  0  0  0  0  0  0  0
    1.7995   -3.7834   -2.4708 C   0  0  0  0  0  0  0  0  0  0  0  0
    1.9957   -4.8635   -2.5397 H   0  0  0  0  0  0  0  0  0  0  0  0
    2.7063   -2.8607   -3.0177 C   0  0  0  0  0  0  0  0  0  0  0  0
    3.6183   -3.2106   -3.5233 H   0  0  0  0  0  0  0  0  0  0  0  0
    2.4433   -1.4910   -2.9210 C   0  0  0  0  0  0  0  0  0  0  0  0
    3.1457   -0.7657   -3.3596 H   0  0  0  0  0  0  0  0  0  0  0  0
    1.2714   -1.0072   -2.2886 C   0  0  0  0  0  0  0  0  0  0  0  0
    1.0531    0.4423   -2.2800 C   0  0  0  0  0  3  0  0  0  0  0  0
    1.9215    1.0339   -2.6168 H   0  0  0  0  0  0  0  0  0  0  0  0
   -0.1603    1.1398   -2.2187 C   0  0  0  0  0  3  0  0  0  0  0  0
   -0.1080    2.2028   -2.5095 H   0  0  0  0  0  0  0  0  0  0  0  0
   -1.5218    0.6011   -2.1569 C   0  0  0  0  0  0  0  0  0  0  0  0
   -2.5670    1.3981   -2.6859 C   0  0  0  0  0  0  0  0  0  0  0  0
   -2.3199    2.3871   -3.1016 H   0  0  0  0  0  0  0  0  0  0  0  0
   -3.8877    0.9431   -2.7102 C   0  0  0  0  0  0  0  0  0  0  0  0
   -4.6798    1.5767   -3.1354 H   0  0  0  0  0  0  0  0  0  0  0  0
   -4.1961   -0.3247   -2.1903 C   0  0  0  0  0  0  0  0  0  0  0  0
   -5.2329   -0.6918   -2.1990 H   0  0  0  0  0  0  0  0  0  0  0  0
   -3.1801   -1.1159   -1.6392 C   0  0  0  0  0  0  0  0  0  0  0  0
   -3.4270   -2.0960   -1.2032 H   0  0  0  0  0  0  0  0  0  0  0  0
   -1.8455   -0.6728   -1.6081 C   0  0  0  0  0  0  0  0  0  0  0  0
   -1.8362   -0.1289    1.4622 C   0  0  0  0  0  0  0  0  0  0  0  0
   -2.2900    1.2027    1.5336 C   0  0  0  0  0  0  0  0  0  0  0  0
   -1.6458    2.0122    1.1553 H   0  0  0  0  0  0  0  0  0  0  0  0
   -3.5575    1.4859    2.0637 C   0  0  0  0  0  0  0  0  0  0  0  0
   -3.9087    2.5270    2.1155 H   0  0  0  0  0  0  0  0  0  0  0  0
   -4.3765    0.4423    2.5208 C   0  0  0  0  0  0  0  0  0  0  0  0
   -5.3709    0.6649    2.9357 H   0  0  0  0  0  0  0  0  0  0  0  0
   -3.9307   -0.8883    2.4462 C   0  0  0  0  0  0  0  0  0  0  0  0
   -4.5740   -1.7068    2.8019 H   0  0  0  0  0  0  0  0  0  0  0  0
   -2.6671   -1.1784    1.9147 C   0  0  0  0  0  0  0  0  0  0  0  0
   -2.3304   -2.2249    1.8534 H   0  0  0  0  0  0  0  0  0  0  0  0
    0.7307   -1.5903    1.7077 C   0  0  0  0  0  0  0  0  0  0  0  0
    0.3634   -1.8512    3.0453 C   0  0  0  0  0  0  0  0  0  0  0  0
   -0.5562   -1.4184    3.4642 H   0  0  0  0  0  0  0  0  0  0  0  0
    1.1795   -2.6608    3.8499 C   0  0  0  0  0  0  0  0  0  0  0  0
    0.8871   -2.8600    4.8917 H   0  0  0  0  0  0  0  0  0  0  0  0
    2.3617   -3.2108    3.3315 C   0  0  0  0  0  0  0  0  0  0  0  0
    2.9968   -3.8477    3.9652 H   0  0  0  0  0  0  0  0  0  0  0  0
    2.7404   -2.9365    2.0068 C   0  0  0  0  0  0  0  0  0  0  0  0
    3.6734   -3.3543    1.6002 H   0  0  0  0  0  0  0  0  0  0  0  0
    1.9387   -2.1212    1.1975 C   0  0  0  0  0  0  0  0  0  0  0  0
    2.2595   -1.8920    0.1710 H   0  0  0  0  0  0  0  0  0  0  0  0
  1 28  1  0  0  0  0
  1 39  1  0  0  0  0
  2  3  1  0  0  0  0
  2  1  1  0  0  0  0
  4  2  1  0  0  0  0
  5  4  1  0  0  0  0
  5  6  1  0  0  0  0
  7  5  2  0  0  0  0
  8  7  1  0  0  0  0
  9 11  2  0  0  0  0
  9  7  1  0  0  0  0
 10  9  1  0  0  0  0
 11 13  1  0  0  0  0
 12 11  1  0  0  0  0
 13 14  1  0  0  0  0
 13  4  2  0  0  0  0
 14 16  1  0  0  0  0
 15 14  1  0  0  0  0
 16 18  1  0  0  0  0
 17 16  1  0  0  0  0
 18 27  1  0  0  0  0
 19 18  2  0  0  0  0
 20 19  1  0  0  0  0
 21 19  1  0  0  0  0
 21 23  2  0  0  0  0
 22 21  1  0  0  0  0
 23 25  1  0  0  0  0
 24 23  1  0  0  0  0
 25 27  2  0  0  0  0
 25 26  1  0  0  0  0
 27  2  1  0  0  0  0
 28 29  2  0  0  0  0
 28 37  1  0  0  0  0
 29 31  1  0  0  0  0
 30 29  1  0  0  0  0
 31 32  1  0  0  0  0
 31 33  2  0  0  0  0
 33 34  1  0  0  0  0
 35 33  1  0  0  0  0
 35 36  1  0  0  0  0
 37 35  2  0  0  0  0
 38 37  1  0  0  0  0
 39 40  1  0  0  0  0
 40 41  1  0  0  0  0
 40 42  2  0  0  0  0
 42 43  1  0  0  0  0
 44 42  1  0  0  0  0
 44 45  1  0  0  0  0
 46 44  2  0  0  0  0
 47 46  1  0  0  0  0
 48 39  2  0  0  0  0
 48 46  1  0  0  0  0
 49 48  1  0  0  0  0
M  END
