1,6
 OpenBabel05122313053D

 41 43  0  0  0  0  0  0  0  0999 V2000
    0.5779    1.5249    0.2280 P   0  0  0  0  0  0  0  0  0  0  0  0
    7.2292    0.3452   -0.3411 O   0  0  0  0  0  0  0  0  0  0  0  0
    7.1545   -1.9201   -0.3933 O   0  0  0  0  0  0  0  0  0  0  0  0
    2.2558    1.6539   -0.0597 N   0  0  0  0  0  0  0  0  0  0  0  0
    2.7597    2.5387    0.0222 H   0  0  0  0  0  0  0  0  0  0  0  0
    2.2508   -0.7702   -0.0992 C   0  0  0  0  0  3  0  0  0  0  0  0
    2.9805   -1.9708   -0.1684 C   0  0  0  0  0  0  0  0  0  0  0  0
    2.4255   -2.9213   -0.1676 H   0  0  0  0  0  0  0  0  0  0  0  0
    4.3828   -1.9789   -0.2466 C   0  0  0  0  0  0  0  0  0  0  0  0
    4.9352   -2.9268   -0.3026 H   0  0  0  0  0  0  0  0  0  0  0  0
    5.0917   -0.7620   -0.2536 C   0  0  0  0  0  0  0  0  0  0  0  0
    6.5753   -0.6880   -0.3315 C   0  0  0  0  0  0  0  0  0  0  0  0
    8.5793   -1.9144   -0.4707 C   0  0  0  0  0  0  0  0  0  0  0  0
    8.9281   -1.3730   -1.3742 H   0  0  0  0  0  0  0  0  0  0  0  0
    8.8905   -2.9738   -0.5139 H   0  0  0  0  0  0  0  0  0  0  0  0
    9.0256   -1.4174    0.4152 H   0  0  0  0  0  0  0  0  0  0  0  0
    4.3891    0.4586   -0.1829 C   0  0  0  0  0  0  0  0  0  0  0  0
    4.9675    1.3950   -0.1888 H   0  0  0  0  0  0  0  0  0  0  0  0
    2.9904    0.4515   -0.1107 C   0  0  0  0  0  0  0  0  0  0  0  0
   -0.1967    2.5830   -1.0509 C   0  0  0  0  0  0  0  0  0  0  0  0
    0.2306    2.3972   -2.3826 C   0  0  0  0  0  0  0  0  0  0  0  0
    1.0569    1.7003   -2.5919 H   0  0  0  0  0  0  0  0  0  0  0  0
   -0.4053    3.0842   -3.4252 C   0  0  0  0  0  0  0  0  0  0  0  0
   -0.0713    2.9320   -4.4625 H   0  0  0  0  0  0  0  0  0  0  0  0
   -1.4705    3.9580   -3.1468 C   0  0  0  0  0  0  0  0  0  0  0  0
   -1.9696    4.4965   -3.9668 H   0  0  0  0  0  0  0  0  0  0  0  0
   -1.8985    4.1428   -1.8221 C   0  0  0  0  0  0  0  0  0  0  0  0
   -2.7323    4.8269   -1.6021 H   0  0  0  0  0  0  0  0  0  0  0  0
   -1.2675    3.4551   -0.7734 C   0  0  0  0  0  0  0  0  0  0  0  0
   -1.6147    3.5837    0.2614 H   0  0  0  0  0  0  0  0  0  0  0  0
    0.2301    2.3477    1.8254 C   0  0  0  0  0  0  0  0  0  0  0  0
   -0.2741    1.5883    2.8990 C   0  0  0  0  0  0  0  0  0  0  0  0
   -0.4920    0.5209    2.7423 H   0  0  0  0  0  0  0  0  0  0  0  0
   -0.4902    2.1934    4.1455 C   0  0  0  0  0  0  0  0  0  0  0  0
   -0.8857    1.5959    4.9808 H   0  0  0  0  0  0  0  0  0  0  0  0
   -0.2016    3.5552    4.3277 C   0  0  0  0  0  0  0  0  0  0  0  0
   -0.3705    4.0280    5.3072 H   0  0  0  0  0  0  0  0  0  0  0  0
    0.3046    4.3161    3.2604 C   0  0  0  0  0  0  0  0  0  0  0  0
    0.5323    5.3835    3.4016 H   0  0  0  0  0  0  0  0  0  0  0  0
    0.5188    3.7165    2.0112 C   0  0  0  0  0  0  0  0  0  0  0  0
    0.9044    4.3216    1.1749 H   0  0  0  0  0  0  0  0  0  0  0  0
  1 31  1  0  0  0  0
  2 12  2  0  0  0  0
  3 12  1  0  0  0  0
  4  5  1  0  0  0  0
  4  1  1  0  0  0  0
  7  8  1  0  0  0  0
  7  6  2  0  0  0  0
  9  7  1  0  0  0  0
 10  9  1  0  0  0  0
 11  9  2  0  0  0  0
 11 17  1  0  0  0  0
 12 11  1  0  0  0  0
 13  3  1  0  0  0  0
 13 16  1  0  0  0  0
 14 13  1  0  0  0  0
 15 13  1  0  0  0  0
 17 19  2  0  0  0  0
 18 17  1  0  0  0  0
 19  6  1  0  0  0  0
 19  4  1  0  0  0  0
 20 29  1  0  0  0  0
 20  1  1  0  0  0  0
 21 20  2  0  0  0  0
 22 21  1  0  0  0  0
 23 25  2  0  0  0  0
 23 21  1  0  0  0  0
 24 23  1  0  0  0  0
 25 27  1  0  0  0  0
 26 25  1  0  0  0  0
 27 28  1  0  0  0  0
 27 29  2  0  0  0  0
 29 30  1  0  0  0  0
 31 40  2  0  0  0  0
 31 32  1  0  0  0  0
 32 34  2  0  0  0  0
 33 32  1  0  0  0  0
 34 36  1  0  0  0  0
 34 35  1  0  0  0  0
 36 37  1  0  0  0  0
 38 39  1  0  0  0  0
 38 36  2  0  0  0  0
 40 38  1  0  0  0  0
 41 40  1  0  0  0  0
M  END
