1,23
 OpenBabel05122313053D

 49 48  0  0  0  0  0  0  0  0999 V2000
    0.7816    0.0620   -0.0078 C   0  0  0  0  0  2  0  0  0  0  0  0
    2.0732   -0.1540    0.0101 N   0  0  0  0  0  0  0  0  0  0  0  0
    3.0556    0.9865   -0.0020 C   0  0  0  0  0  0  0  0  0  0  0  0
    4.0478    0.4915   -0.0022 H   0  0  0  0  0  0  0  0  0  0  0  0
    2.9144    1.8090   -1.2831 C   0  0  0  0  0  0  0  0  0  0  0  0
    2.9698    1.1659   -2.1842 H   0  0  0  0  0  0  0  0  0  0  0  0
    3.7410    2.5450   -1.3333 H   0  0  0  0  0  0  0  0  0  0  0  0
    1.9575    2.3711   -1.2749 H   0  0  0  0  0  0  0  0  0  0  0  0
    2.9207    1.8255    1.2693 C   0  0  0  0  0  0  0  0  0  0  0  0
    3.7440    2.5661    1.3038 H   0  0  0  0  0  0  0  0  0  0  0  0
    2.9847    1.1952    2.1786 H   0  0  0  0  0  0  0  0  0  0  0  0
    1.9610    2.3829    1.2597 H   0  0  0  0  0  0  0  0  0  0  0  0
    2.6482   -1.5320    0.0319 C   0  0  0  0  0  0  0  0  0  0  0  0
    1.7576   -2.1915    0.0649 H   0  0  0  0  0  0  0  0  0  0  0  0
    3.4746   -1.7800    1.2959 C   0  0  0  0  0  0  0  0  0  0  0  0
    4.3925   -1.1600    1.3242 H   0  0  0  0  0  0  0  0  0  0  0  0
    3.7893   -2.8419    1.3261 H   0  0  0  0  0  0  0  0  0  0  0  0
    2.8854   -1.5699    2.2097 H   0  0  0  0  0  0  0  0  0  0  0  0
    3.4203   -1.8270   -1.2562 C   0  0  0  0  0  0  0  0  0  0  0  0
    4.3356   -1.2081   -1.3430 H   0  0  0  0  0  0  0  0  0  0  0  0
    2.7927   -1.6433   -2.1502 H   0  0  0  0  0  0  0  0  0  0  0  0
    3.7338   -2.8897   -1.2657 H   0  0  0  0  0  0  0  0  0  0  0  0
   -0.7144   -0.9426   -0.0033 P   0  0  0  0  0  0  0  0  0  0  0  0
   -1.1189   -1.7833    1.6485 C   0  0  0  0  0  0  0  0  0  0  0  0
   -0.3744   -0.9661    2.7198 C   0  0  0  0  0  0  0  0  0  0  0  0
   -0.6558    0.1053    2.6826 H   0  0  0  0  0  0  0  0  0  0  0  0
    0.7262   -1.0373    2.6127 H   0  0  0  0  0  0  0  0  0  0  0  0
   -0.6475   -1.3623    3.7200 H   0  0  0  0  0  0  0  0  0  0  0  0
   -2.6386   -1.6220    1.8535 C   0  0  0  0  0  0  0  0  0  0  0  0
   -2.8967   -1.9254    2.8901 H   0  0  0  0  0  0  0  0  0  0  0  0
   -3.2217   -2.2611    1.1628 H   0  0  0  0  0  0  0  0  0  0  0  0
   -2.9551   -0.5696    1.6976 H   0  0  0  0  0  0  0  0  0  0  0  0
   -0.6976   -3.2576    1.7055 C   0  0  0  0  0  0  0  0  0  0  0  0
    0.3862   -3.3946    1.5142 H   0  0  0  0  0  0  0  0  0  0  0  0
   -1.2633   -3.8826    0.9877 H   0  0  0  0  0  0  0  0  0  0  0  0
   -0.9095   -3.6545    2.7211 H   0  0  0  0  0  0  0  0  0  0  0  0
   -1.0809   -1.8565   -1.6215 C   0  0  0  0  0  0  0  0  0  0  0  0
   -2.6064   -2.0679   -1.6563 C   0  0  0  0  0  0  0  0  0  0  0  0
   -3.1446   -1.1205   -1.4470 H   0  0  0  0  0  0  0  0  0  0  0  0
   -2.9378   -2.8343   -0.9280 H   0  0  0  0  0  0  0  0  0  0  0  0
   -2.8997   -2.4214   -2.6673 H   0  0  0  0  0  0  0  0  0  0  0  0
   -0.3238   -3.1837   -1.7753 C   0  0  0  0  0  0  0  0  0  0  0  0
   -0.5750   -3.9135   -0.9835 H   0  0  0  0  0  0  0  0  0  0  0  0
    0.7742   -3.0365   -1.7806 H   0  0  0  0  0  0  0  0  0  0  0  0
   -0.5983   -3.6434   -2.7486 H   0  0  0  0  0  0  0  0  0  0  0  0
   -0.6718   -0.8788   -2.7390 C   0  0  0  0  0  0  0  0  0  0  0  0
   -0.9036   -1.3449   -3.7198 H   0  0  0  0  0  0  0  0  0  0  0  0
    0.4126   -0.6490   -2.7168 H   0  0  0  0  0  0  0  0  0  0  0  0
   -1.2238    0.0788   -2.6630 H   0  0  0  0  0  0  0  0  0  0  0  0
  1 23  1  0  0  0  0
  1  2  1  0  0  0  0
  2 13  1  0  0  0  0
  3  2  1  0  0  0  0
  3  9  1  0  0  0  0
  4  3  1  0  0  0  0
  5  8  1  0  0  0  0
  5  3  1  0  0  0  0
  6  5  1  0  0  0  0
  7  5  1  0  0  0  0
  9 10  1  0  0  0  0
  9 11  1  0  0  0  0
 12  9  1  0  0  0  0
 13 14  1  0  0  0  0
 13 15  1  0  0  0  0
 15 16  1  0  0  0  0
 15 17  1  0  0  0  0
 15 18  1  0  0  0  0
 19 13  1  0  0  0  0
 20 19  1  0  0  0  0
 21 19  1  0  0  0  0
 22 19  1  0  0  0  0
 23 24  1  0  0  0  0
 24 33  1  0  0  0  0
 24 29  1  0  0  0  0
 24 25  1  0  0  0  0
 25 28  1  0  0  0  0
 26 25  1  0  0  0  0
 27 25  1  0  0  0  0
 29 30  1  0  0  0  0
 31 29  1  0  0  0  0
 32 29  1  0  0  0  0
 33 36  1  0  0  0  0
 34 33  1  0  0  0  0
 35 33  1  0  0  0  0
 37 23  1  0  0  0  0
 38 37  1  0  0  0  0
 38 39  1  0  0  0  0
 38 40  1  0  0  0  0
 41 38  1  0  0  0  0
 42 37  1  0  0  0  0
 42 43  1  0  0  0  0
 44 42  1  0  0  0  0
 45 42  1  0  0  0  0
 46 48  1  0  0  0  0
 46 49  1  0  0  0  0
 46 37  1  0  0  0  0
 47 46  1  0  0  0  0
M  END
