1,4
 OpenBabel05122313053D

 37 38  0  0  0  0  0  0  0  0999 V2000
   -2.4210    0.2871    0.1713 P   0  0  1  0  0  0  0  0  0  0  0  0
    0.5036    2.6990    1.9105 O   0  0  0  0  0  0  0  0  0  0  0  0
   -1.9583    1.8640   -0.7236 C   0  0  0  0  0  0  0  0  0  0  0  0
   -0.5489    1.8217   -0.0570 C   0  0  0  0  0  3  0  0  0  0  0  0
    0.2255    2.3657   -0.6301 H   0  0  0  0  0  0  0  0  0  0  0  0
   -0.4809    2.1617    1.3978 C   0  0  0  0  0  0  0  0  0  0  0  0
   -1.6918    1.8609    2.3154 C   0  0  0  0  0  0  0  0  0  0  0  0
   -2.2020    2.8426    2.4257 H   0  0  0  0  0  0  0  0  0  0  0  0
   -1.2585    1.6494    3.3135 H   0  0  0  0  0  0  0  0  0  0  0  0
   -2.7488    0.7718    1.9555 C   0  0  0  0  0  0  0  0  0  0  0  0
   -2.7464    3.1611   -0.5239 C   0  0  0  0  0  0  0  0  0  0  0  0
   -2.2018    3.9923   -1.0208 H   0  0  0  0  0  0  0  0  0  0  0  0
   -2.8722    3.4410    0.5373 H   0  0  0  0  0  0  0  0  0  0  0  0
   -3.7521    3.1034   -0.9889 H   0  0  0  0  0  0  0  0  0  0  0  0
   -1.8401    1.5561   -2.2250 C   0  0  0  0  0  0  0  0  0  0  0  0
   -2.8364    1.4624   -2.7023 H   0  0  0  0  0  0  0  0  0  0  0  0
   -1.2713    0.6196   -2.3976 H   0  0  0  0  0  0  0  0  0  0  0  0
   -1.2919    2.3829   -2.7242 H   0  0  0  0  0  0  0  0  0  0  0  0
   -4.1833    1.2796    2.1713 C   0  0  0  0  0  0  0  0  0  0  0  0
   -4.9298    0.4944    1.9388 H   0  0  0  0  0  0  0  0  0  0  0  0
   -4.4158    2.1693    1.5539 H   0  0  0  0  0  0  0  0  0  0  0  0
   -4.3172    1.5654    3.2361 H   0  0  0  0  0  0  0  0  0  0  0  0
   -2.5170   -0.5012    2.7926 C   0  0  0  0  0  0  0  0  0  0  0  0
   -2.6960   -0.2791    3.8657 H   0  0  0  0  0  0  0  0  0  0  0  0
   -1.4827   -0.8787    2.6695 H   0  0  0  0  0  0  0  0  0  0  0  0
   -3.2074   -1.3160    2.4922 H   0  0  0  0  0  0  0  0  0  0  0  0
   -3.8460   -0.6137   -0.5078 C   0  0  0  0  0  0  0  0  0  0  0  0
   -5.0185    0.0533   -0.9270 C   0  0  0  0  0  0  0  0  0  0  0  0
   -5.0915    1.1482   -0.8487 H   0  0  0  0  0  0  0  0  0  0  0  0
   -6.0928   -0.6831   -1.4456 C   0  0  0  0  0  0  0  0  0  0  0  0
   -7.0047   -0.1621   -1.7749 H   0  0  0  0  0  0  0  0  0  0  0  0
   -6.0048   -2.0822   -1.5440 C   0  0  0  0  0  0  0  0  0  0  0  0
   -6.8509   -2.6570   -1.9505 H   0  0  0  0  0  0  0  0  0  0  0  0
   -4.8383   -2.7454   -1.1317 C   0  0  0  0  0  0  0  0  0  0  0  0
   -4.7658   -3.8402   -1.2171 H   0  0  0  0  0  0  0  0  0  0  0  0
   -3.7532   -2.0182   -0.6183 C   0  0  0  0  0  0  0  0  0  0  0  0
   -2.8200   -2.5247   -0.3168 H   0  0  0  0  0  0  0  0  0  0  0  0
  1 27  1  6  0  0  0
  1 10  1  0  0  0  0
  3 11  1  0  0  0  0
  3  4  1  0  0  0  0
  3  1  1  0  0  0  0
  4  6  1  0  0  0  0
  5  4  1  0  0  0  0
  6  2  2  0  0  0  0
  6  7  1  0  0  0  0
  7  8  1  0  0  0  0
  7  9  1  0  0  0  0
 10 19  1  0  0  0  0
 10  7  1  0  0  0  0
 10 23  1  0  0  0  0
 11 13  1  0  0  0  0
 12 11  1  0  0  0  0
 14 11  1  0  0  0  0
 15  3  1  0  0  0  0
 16 15  1  0  0  0  0
 17 15  1  0  0  0  0
 18 15  1  0  0  0  0
 19 22  1  0  0  0  0
 20 19  1  0  0  0  0
 21 19  1  0  0  0  0
 23 24  1  0  0  0  0
 25 23  1  0  0  0  0
 26 23  1  0  0  0  0
 28 29  1  0  0  0  0
 28 27  2  0  0  0  0
 30 28  1  0  0  0  0
 31 30  1  0  0  0  0
 32 30  2  0  0  0  0
 32 34  1  0  0  0  0
 33 32  1  0  0  0  0
 34 36  2  0  0  0  0
 35 34  1  0  0  0  0
 36 27  1  0  0  0  0
 36 37  1  0  0  0  0
M  END
