1,9
 OpenBabel05122313053D

 47 49  0  0  0  0  0  0  0  0999 V2000
    1.0050   -0.1832   -0.0342 P   0  0  0  0  0  0  0  0  0  0  0  0
   -3.3902   -0.5544    1.0185 O   0  0  0  0  0  0  0  0  0  0  0  0
   -5.1753   -1.4317   -0.0813 O   0  0  0  0  0  0  0  0  0  0  0  0
   -1.7653   -0.4684   -1.5584 O   0  0  0  0  0  0  0  0  0  0  0  0
   -2.8711    1.2788   -0.8232 N   0  0  0  0  0  0  0  0  0  0  0  0
   -3.4580   -1.6122    1.9854 C   0  0  0  0  0  0  0  0  0  0  0  0
   -4.3013   -0.5971    0.0285 C   0  0  0  0  0  0  0  0  0  0  0  0
   -4.1186    0.5607   -0.9629 C   0  0  0  0  0  0  0  0  0  0  0  0
   -1.6637    0.7669   -1.0180 C   0  0  0  0  0  2  0  0  0  0  0  0
   -0.7363   -1.3011   -1.9572 C   0  0  0  0  0  0  0  0  0  0  0  0
   -1.0900   -2.1827   -2.9922 C   0  0  0  0  0  0  0  0  0  0  0  0
   -0.1601   -3.1127   -3.4682 C   0  0  0  0  0  0  0  0  0  0  0  0
    1.1299   -3.1605   -2.9146 C   0  0  0  0  0  0  0  0  0  0  0  0
    1.4748   -2.2789   -1.8834 C   0  0  0  0  0  0  0  0  0  0  0  0
    0.5496   -1.3388   -1.3762 C   0  0  0  0  0  0  0  0  0  0  0  0
    0.5542   -1.0569    1.5169 C   0  0  0  0  0  0  0  0  0  0  0  0
    0.2397   -2.4301    1.5387 C   0  0  0  0  0  0  0  0  0  0  0  0
   -0.0926   -3.0503    2.7539 C   0  0  0  0  0  0  0  0  0  0  0  0
   -0.1124   -2.3041    3.9431 C   0  0  0  0  0  0  0  0  0  0  0  0
    0.1983   -0.9330    3.9183 C   0  0  0  0  0  0  0  0  0  0  0  0
    0.5287   -0.3028    2.7102 C   0  0  0  0  0  0  0  0  0  0  0  0
    2.8314   -0.1539   -0.0935 C   0  0  0  0  0  0  0  0  0  0  0  0
    3.4560    0.6936   -1.0307 C   0  0  0  0  0  0  0  0  0  0  0  0
    4.8510    0.6875   -1.1494 C   0  0  0  0  0  0  0  0  0  0  0  0
    5.6267   -0.1495   -0.3284 C   0  0  0  0  0  0  0  0  0  0  0  0
    5.0047   -0.9831    0.6129 C   0  0  0  0  0  0  0  0  0  0  0  0
    3.6053   -0.9896    0.7329 C   0  0  0  0  0  0  0  0  0  0  0  0
   -2.8181    2.2715   -0.4804 H   0  0  0  0  0  0  0  0  0  0  0  0
   -4.4329   -1.5962    2.5123 H   0  0  0  0  0  0  0  0  0  0  0  0
   -2.6253   -1.4336    2.6875 H   0  0  0  0  0  0  0  0  0  0  0  0
   -3.3393   -2.5968    1.4909 H   0  0  0  0  0  0  0  0  0  0  0  0
   -4.2338    0.1264   -1.9767 H   0  0  0  0  0  0  0  0  0  0  0  0
   -4.9553    1.2713   -0.8138 H   0  0  0  0  0  0  0  0  0  0  0  0
   -2.1048   -2.1157   -3.4095 H   0  0  0  0  0  0  0  0  0  0  0  0
   -0.4441   -3.7977   -4.2808 H   0  0  0  0  0  0  0  0  0  0  0  0
    1.8697   -3.8839   -3.2870 H   0  0  0  0  0  0  0  0  0  0  0  0
    2.4860   -2.3079   -1.4511 H   0  0  0  0  0  0  0  0  0  0  0  0
    0.2536   -3.0154    0.6068 H   0  0  0  0  0  0  0  0  0  0  0  0
   -0.3378   -4.1232    2.7694 H   0  0  0  0  0  0  0  0  0  0  0  0
   -0.3734   -2.7926    4.8943 H   0  0  0  0  0  0  0  0  0  0  0  0
    0.1801   -0.3453    4.8485 H   0  0  0  0  0  0  0  0  0  0  0  0
    0.7720    0.7730    2.6719 H   0  0  0  0  0  0  0  0  0  0  0  0
    2.8447    1.3695   -1.6474 H   0  0  0  0  0  0  0  0  0  0  0  0
    5.3383    1.3537   -1.8769 H   0  0  0  0  0  0  0  0  0  0  0  0
    6.7237   -0.1431   -0.4174 H   0  0  0  0  0  0  0  0  0  0  0  0
    5.6102   -1.6312    1.2643 H   0  0  0  0  0  0  0  0  0  0  0  0
    3.1167   -1.6383    1.4753 H   0  0  0  0  0  0  0  0  0  0  0  0
  1 16  1  0  0  0  0
  2  6  1  0  0  0  0
  3  7  2  0  0  0  0
  4  9  1  0  0  0  0
  5 28  1  0  0  0  0
  6 29  1  0  0  0  0
  6 30  1  0  0  0  0
  7  2  1  0  0  0  0
  8  5  1  0  0  0  0
  8 33  1  0  0  0  0
  8  7  1  0  0  0  0
  9  5  1  0  0  0  0
 10  4  1  0  0  0  0
 10 15  1  0  0  0  0
 11 10  2  0  0  0  0
 12 11  1  0  0  0  0
 12 13  2  0  0  0  0
 13 14  1  0  0  0  0
 14 37  1  0  0  0  0
 14 15  2  0  0  0  0
 15  1  1  0  0  0  0
 16 17  2  0  0  0  0
 16 21  1  0  0  0  0
 17 18  1  0  0  0  0
 18 39  1  0  0  0  0
 18 19  2  0  0  0  0
 19 40  1  0  0  0  0
 20 19  1  0  0  0  0
 20 41  1  0  0  0  0
 21 20  2  0  0  0  0
 22  1  1  0  0  0  0
 22 27  1  0  0  0  0
 23 22  2  0  0  0  0
 24 23  1  0  0  0  0
 24 25  2  0  0  0  0
 25 26  1  0  0  0  0
 26 27  2  0  0  0  0
 26 46  1  0  0  0  0
 27 47  1  0  0  0  0
 31  6  1  0  0  0  0
 32  8  1  0  0  0  0
 34 11  1  0  0  0  0
 35 12  1  0  0  0  0
 36 13  1  0  0  0  0
 38 17  1  0  0  0  0
 42 21  1  0  0  0  0
 43 23  1  0  0  0  0
 44 24  1  0  0  0  0
 45 25  1  0  0  0  0
M  END
