1,9
 OpenBabel05122313053D

 36 39  0  0  0  0  0  0  0  0999 V2000
   -1.8563    0.2553    0.0769 P   0  0  0  0  0  0  0  0  0  0  0  0
   -2.8170   -2.6670   -0.0715 N   0  0  0  0  0  0  0  0  0  0  0  0
   -3.3998   -0.4985    0.7984 C   0  0  0  0  0  0  0  0  0  0  0  0
   -4.3166    0.2861    1.5190 C   0  0  0  0  0  0  0  0  0  0  0  0
   -5.5189   -0.2577    2.0004 C   0  0  0  0  0  0  0  0  0  0  0  0
   -5.8343   -1.6083    1.7673 C   0  0  0  0  0  0  0  0  0  0  0  0
   -4.9424   -2.4194    1.0616 C   0  0  0  0  0  0  0  0  0  0  0  0
   -3.7333   -1.8688    0.5876 C   0  0  0  0  0  0  0  0  0  0  0  0
   -1.5022   -2.6586   -0.4638 C   0  0  0  0  0  2  0  0  0  0  0  0
   -2.4079   -3.8163   -0.6820 C   0  0  0  0  0  2  0  0  0  0  0  0
   -1.6361    1.7693    1.1273 C   0  0  0  0  0  0  0  0  0  0  0  0
   -2.2297    2.9955    0.7572 C   0  0  0  0  0  0  0  0  0  0  0  0
   -2.0208    4.1466    1.5329 C   0  0  0  0  0  0  0  0  0  0  0  0
   -1.2235    4.0880    2.6868 C   0  0  0  0  0  0  0  0  0  0  0  0
   -0.6423    2.8674    3.0668 C   0  0  0  0  0  0  0  0  0  0  0  0
   -0.8464    1.7141    2.2954 C   0  0  0  0  0  0  0  0  0  0  0  0
   -2.4928    0.9516   -1.5100 C   0  0  0  0  0  0  0  0  0  0  0  0
   -3.7400    0.5759   -2.0424 C   0  0  0  0  0  0  0  0  0  0  0  0
   -4.1603    1.0893   -3.2808 C   0  0  0  0  0  0  0  0  0  0  0  0
   -3.3452    1.9841   -3.9885 C   0  0  0  0  0  0  0  0  0  0  0  0
   -2.1006    2.3627   -3.4574 C   0  0  0  0  0  0  0  0  0  0  0  0
   -1.6699    1.8443   -2.2305 C   0  0  0  0  0  0  0  0  0  0  0  0
   -4.0865    1.3442    1.7099 H   0  0  0  0  0  0  0  0  0  0  0  0
   -6.2147    0.3815    2.5638 H   0  0  0  0  0  0  0  0  0  0  0  0
   -6.7781   -2.0300    2.1439 H   0  0  0  0  0  0  0  0  0  0  0  0
   -5.1460   -3.4834    0.8733 H   0  0  0  0  0  0  0  0  0  0  0  0
   -2.8454    3.0583   -0.1513 H   0  0  0  0  0  0  0  0  0  0  0  0
   -2.4835    5.0974    1.2270 H   0  0  0  0  0  0  0  0  0  0  0  0
   -1.0553    4.9939    3.2889 H   0  0  0  0  0  0  0  0  0  0  0  0
   -0.0062    2.8071    3.9627 H   0  0  0  0  0  0  0  0  0  0  0  0
   -0.3723    0.7671    2.5895 H   0  0  0  0  0  0  0  0  0  0  0  0
   -4.3932   -0.1177   -1.4937 H   0  0  0  0  0  0  0  0  0  0  0  0
   -5.1348    0.7844   -3.6911 H   0  0  0  0  0  0  0  0  0  0  0  0
   -3.6780    2.3854   -4.9577 H   0  0  0  0  0  0  0  0  0  0  0  0
   -1.4485    3.0608   -4.0039 H   0  0  0  0  0  0  0  0  0  0  0  0
   -0.6891    2.1378   -1.8320 H   0  0  0  0  0  0  0  0  0  0  0  0
  1  3  1  0  0  0  0
  1 11  1  0  0  0  0
  2  8  1  0  0  0  0
  3  4  1  0  0  0  0
  4 23  1  0  0  0  0
  4  5  2  0  0  0  0
  5 24  1  0  0  0  0
  6  5  1  0  0  0  0
  6 25  1  0  0  0  0
  7  6  2  0  0  0  0
  8  3  2  0  0  0  0
  8  7  1  0  0  0  0
  9  2  1  0  0  0  0
 10  9  1  0  0  0  0
 10  2  1  0  0  0  0
 11 16  1  0  0  0  0
 12 11  2  0  0  0  0
 12 13  1  0  0  0  0
 13 14  2  0  0  0  0
 14 15  1  0  0  0  0
 14 29  1  0  0  0  0
 15 30  1  0  0  0  0
 16 31  1  0  0  0  0
 16 15  2  0  0  0  0
 17  1  1  0  0  0  0
 18 17  1  0  0  0  0
 18 32  1  0  0  0  0
 19 18  2  0  0  0  0
 20 21  2  0  0  0  0
 20 19  1  0  0  0  0
 21 22  1  0  0  0  0
 22 36  1  0  0  0  0
 22 17  2  0  0  0  0
 26  7  1  0  0  0  0
 27 12  1  0  0  0  0
 28 13  1  0  0  0  0
 33 19  1  0  0  0  0
 34 20  1  0  0  0  0
 35 21  1  0  0  0  0
M  END
