1,74
 OpenBabel05122313053D

 77 83  0  0  1  0  0  0  0  0999 V2000
   -0.0884   -0.7269    0.2975 P   0  0  1  0  0  4  0  0  0  0  0  0
   -0.6884   -1.1060    1.6684 O   0  0  0  0  0  0  0  0  0  0  0  0
   -1.4885    0.0254   -0.7586 C   0  0  2  0  0  0  0  0  0  0  0  0
   -1.7770   -0.7048   -1.5422 H   0  0  0  0  0  0  0  0  0  0  0  0
   -0.9675    1.3391   -1.2882 C   0  0  0  0  0  0  0  0  0  0  0  0
   -1.5554    2.0497   -2.3493 C   0  0  0  0  0  0  0  0  0  0  0  0
   -2.3989    1.6093   -2.8995 H   0  0  0  0  0  0  0  0  0  0  0  0
   -1.0718    3.3176   -2.7009 C   0  0  0  0  0  0  0  0  0  0  0  0
   -1.5261    3.8622   -3.5418 H   0  0  0  0  0  0  0  0  0  0  0  0
   -0.0145    3.8909   -1.9769 C   0  0  0  0  0  0  0  0  0  0  0  0
    0.3540    4.8938   -2.2400 H   0  0  0  0  0  0  0  0  0  0  0  0
    0.5948    3.1805   -0.9333 C   0  0  0  0  0  0  0  0  0  0  0  0
    1.4321    3.6307   -0.3834 H   0  0  0  0  0  0  0  0  0  0  0  0
    0.1462    1.8898   -0.5968 C   0  0  0  0  0  0  0  0  0  0  0  0
    0.7677    1.0046    0.4628 C   0  0  2  0  0  0  0  0  0  0  0  0
    0.6386    1.3874    1.4974 H   0  0  0  0  0  0  0  0  0  0  0  0
   -2.9405    0.3005    0.3429 P   0  0  0  0  0  4  0  0  0  0  0  0
   -2.4714    1.4659    1.6510 C   0  0  0  0  0  0  0  0  0  0  0  0
   -2.2570    0.9899    2.9610 C   0  0  0  0  0  0  0  0  0  0  0  0
   -2.4151   -0.0733    3.1852 H   0  0  0  0  0  0  0  0  0  0  0  0
   -1.7898    1.8708    3.9448 C   0  0  0  0  0  0  0  0  0  0  0  0
   -1.6212    1.5010    4.9670 H   0  0  0  0  0  0  0  0  0  0  0  0
   -1.5144    3.2111    3.6238 C   0  0  0  0  0  0  0  0  0  0  0  0
   -1.1361    3.8947    4.3992 H   0  0  0  0  0  0  0  0  0  0  0  0
   -1.7151    3.6796    2.3160 C   0  0  0  0  0  0  0  0  0  0  0  0
   -1.4904    4.7251    2.0581 H   0  0  0  0  0  0  0  0  0  0  0  0
   -2.1970    2.8121    1.3241 C   0  0  0  0  0  0  0  0  0  0  0  0
   -2.3357    3.1817    0.2980 H   0  0  0  0  0  0  0  0  0  0  0  0
   -3.6625   -1.2175    1.0140 C   0  0  0  0  0  0  0  0  0  0  0  0
   -3.1358   -2.4890    0.7247 C   0  0  0  0  0  0  0  0  0  0  0  0
   -2.2253   -2.6434    0.1165 H   0  0  0  0  0  0  0  0  0  0  0  0
   -3.7779   -3.6224    1.2458 C   0  0  0  0  0  0  0  0  0  0  0  0
   -3.3541   -4.6121    1.0191 H   0  0  0  0  0  0  0  0  0  0  0  0
   -4.9178   -3.4917    2.0524 C   0  0  0  0  0  0  0  0  0  0  0  0
   -5.4077   -4.3874    2.4640 H   0  0  0  0  0  0  0  0  0  0  0  0
   -5.4392   -2.2172    2.3369 C   0  0  0  0  0  0  0  0  0  0  0  0
   -6.3353   -2.1109    2.9665 H   0  0  0  0  0  0  0  0  0  0  0  0
   -4.8199   -1.0761    1.8121 C   0  0  0  0  0  0  0  0  0  0  0  0
   -5.2369   -0.0787    2.0232 H   0  0  0  0  0  0  0  0  0  0  0  0
   -4.2838    1.0410   -0.6510 C   0  0  0  0  0  0  0  0  0  0  0  0
   -4.6544    0.3662   -1.8353 C   0  0  0  0  0  0  0  0  0  0  0  0
   -4.1270   -0.5504   -2.1425 H   0  0  0  0  0  0  0  0  0  0  0  0
   -5.7031    0.8570   -2.6226 C   0  0  0  0  0  0  0  0  0  0  0  0
   -5.9837    0.3286   -3.5459 H   0  0  0  0  0  0  0  0  0  0  0  0
   -6.3953    2.0160   -2.2315 C   0  0  0  0  0  0  0  0  0  0  0  0
   -7.2182    2.4007   -2.8524 H   0  0  0  0  0  0  0  0  0  0  0  0
   -6.0420    2.6761   -1.0457 C   0  0  0  0  0  0  0  0  0  0  0  0
   -6.5894    3.5770   -0.7302 H   0  0  0  0  0  0  0  0  0  0  0  0
   -4.9900    2.1919   -0.2519 C   0  0  0  0  0  0  0  0  0  0  0  0
   -4.7247    2.7104    0.6804 H   0  0  0  0  0  0  0  0  0  0  0  0
    2.5389    0.6228    0.1740 P   0  0  0  0  0  4  0  0  0  0  0  0
    3.5192    2.1641    0.0968 C   0  0  0  0  0  0  0  0  0  0  0  0
    3.7126    2.9057    1.2832 C   0  0  0  0  0  0  0  0  0  0  0  0
    3.3126    2.5316    2.2386 H   0  0  0  0  0  0  0  0  0  0  0  0
    4.4221    4.1129    1.2451 C   0  0  0  0  0  0  0  0  0  0  0  0
    4.5728    4.6884    2.1709 H   0  0  0  0  0  0  0  0  0  0  0  0
    4.9462    4.5826    0.0279 C   0  0  0  0  0  0  0  0  0  0  0  0
    5.5052    5.5302    0.0003 H   0  0  0  0  0  0  0  0  0  0  0  0
    4.7611    3.8422   -1.1494 C   0  0  0  0  0  0  0  0  0  0  0  0
    5.1714    4.2063   -2.1031 H   0  0  0  0  0  0  0  0  0  0  0  0
    4.0481    2.6331   -1.1223 C   0  0  0  0  0  0  0  0  0  0  0  0
    3.8829    2.0731   -2.0540 H   0  0  0  0  0  0  0  0  0  0  0  0
    3.2387   -0.3149    1.5611 C   0  0  0  0  0  0  0  0  0  0  0  0
    4.6471   -0.3841    1.6350 C   0  0  0  0  0  0  0  0  0  0  0  0
    5.2696    0.1568    0.9057 H   0  0  0  0  0  0  0  0  0  0  0  0
    5.2549   -1.1484    2.6393 C   0  0  0  0  0  0  0  0  0  0  0  0
    6.3522   -1.2110    2.6877 H   0  0  0  0  0  0  0  0  0  0  0  0
    4.4633   -1.8327    3.5755 C   0  0  0  0  0  0  0  0  0  0  0  0
    4.9417   -2.4350    4.3627 H   0  0  0  0  0  0  0  0  0  0  0  0
    3.0640   -1.7561    3.5030 C   0  0  0  0  0  0  0  0  0  0  0  0
    2.4405   -2.3018    4.2267 H   0  0  0  0  0  0  0  0  0  0  0  0
    2.4396   -1.0055    2.4957 C   0  0  0  0  0  0  0  0  0  0  0  0
    1.3373   -0.9992    2.4340 H   0  0  0  0  0  0  0  0  0  0  0  0
    2.5873   -0.3965   -1.3216 C   0  0  0  0  0  3  0  0  0  0  0  0
    3.5910   -0.8611   -1.4344 H   0  0  0  0  0  0  0  0  0  0  0  0
    2.2019    0.3281   -2.5134 C   0  0  0  0  0  0  0  0  0  0  0  0
    1.8930    0.9406   -3.4697 N   0  0  0  0  0  0  0  0  0  0  0  0
  1 15  1  0  0  0  0
  1  2  2  1  0  0  0
  3  4  1  6  0  0  0
  3  1  1  0  0  0  0
  3 17  1  0  0  0  0
  5  3  1  0  0  0  0
  5 14  1  0  0  0  0
  6  5  2  0  0  0  0
  7  6  1  0  0  0  0
  8  6  1  0  0  0  0
  8 10  2  0  0  0  0
  9  8  1  0  0  0  0
 10 12  1  0  0  0  0
 11 10  1  0  0  0  0
 12 14  2  0  0  0  0
 12 13  1  0  0  0  0
 14 15  1  0  0  0  0
 15 16  1  1  0  0  0
 17 29  1  0  0  0  0
 17 18  1  0  0  0  0
 18 19  1  0  0  0  0
 19 20  1  0  0  0  0
 19 21  2  0  0  0  0
 21 22  1  0  0  0  0
 23 21  1  0  0  0  0
 23 24  1  0  0  0  0
 25 23  2  0  0  0  0
 26 25  1  0  0  0  0
 27 18  2  0  0  0  0
 27 25  1  0  0  0  0
 28 27  1  0  0  0  0
 29 38  1  0  0  0  0
 30 29  2  0  0  0  0
 30 32  1  0  0  0  0
 31 30  1  0  0  0  0
 32 34  2  0  0  0  0
 33 32  1  0  0  0  0
 34 36  1  0  0  0  0
 34 35  1  0  0  0  0
 36 37  1  0  0  0  0
 38 39  1  0  0  0  0
 38 36  2  0  0  0  0
 40 49  1  0  0  0  0
 40 17  1  0  0  0  0
 41 40  2  0  0  0  0
 42 41  1  0  0  0  0
 43 45  2  0  0  0  0
 43 41  1  0  0  0  0
 44 43  1  0  0  0  0
 45 47  1  0  0  0  0
 46 45  1  0  0  0  0
 47 48  1  0  0  0  0
 47 49  2  0  0  0  0
 49 50  1  0  0  0  0
 51 15  1  0  0  0  0
 51 63  1  0  0  0  0
 52 51  1  0  0  0  0
 52 53  1  0  0  0  0
 53 54  1  0  0  0  0
 55 53  2  0  0  0  0
 55 56  1  0  0  0  0
 57 55  1  0  0  0  0
 58 57  1  0  0  0  0
 59 61  1  0  0  0  0
 59 57  2  0  0  0  0
 60 59  1  0  0  0  0
 61 52  2  0  0  0  0
 62 61  1  0  0  0  0
 63 64  2  0  0  0  0
 63 72  1  0  0  0  0
 64 66  1  0  0  0  0
 65 64  1  0  0  0  0
 66 67  1  0  0  0  0
 66 68  2  0  0  0  0
 68 69  1  0  0  0  0
 70 68  1  0  0  0  0
 70 71  1  0  0  0  0
 72 70  2  0  0  0  0
 73 72  1  0  0  0  0
 74 51  1  0  0  0  0
 75 74  1  0  0  0  0
 76 74  1  0  0  0  0
 77 76  3  0  0  0  0
M  END
