1,2
 OpenBabel05122313053D

 11 10  0  0  0  0  0  0  0  0999 V2000
    0.0005   -1.2244    2.1024 P   0  0  0  0  0  0  0  0  0  0  0  0
   -0.0002    0.5403    1.9404 C   0  0  0  0  0  2  0  0  0  0  0  0
   -0.0003    1.2942    2.7441 H   0  0  0  0  0  0  0  0  0  0  0  0
    1.4231   -1.8279    3.1282 C   0  0  0  0  0  0  0  0  0  0  0  0
    1.2047   -1.6777    4.2043 H   0  0  0  0  0  0  0  0  0  0  0  0
    2.3381   -1.2632    2.8761 H   0  0  0  0  0  0  0  0  0  0  0  0
    1.6081   -2.9068    2.9529 H   0  0  0  0  0  0  0  0  0  0  0  0
   -1.4217   -1.8289    3.1283 C   0  0  0  0  0  0  0  0  0  0  0  0
   -1.2034   -1.6785    4.2043 H   0  0  0  0  0  0  0  0  0  0  0  0
   -2.3371   -1.2649    2.8761 H   0  0  0  0  0  0  0  0  0  0  0  0
   -1.6060   -2.9079    2.9530 H   0  0  0  0  0  0  0  0  0  0  0  0
  1  4  1  0  0  0  0
  1  8  1  0  0  0  0
  2  1  1  0  0  0  0
  2  3  1  0  0  0  0
  4  5  1  0  0  0  0
  6  4  1  0  0  0  0
  7  4  1  0  0  0  0
  8  9  1  0  0  0  0
 10  8  1  0  0  0  0
 11  8  1  0  0  0  0
M  END
