1,28
 OpenBabel05122313053D

 46 47  0  0  0  0  0  0  0  0999 V2000
    1.6449   -0.2593   -0.8344 P   0  0  0  0  0  0  0  0  0  0  0  0
    2.5971   -1.9149   -1.0476 C   0  0  0  0  0  0  0  0  0  0  0  0
    4.1181   -1.6937   -1.1238 C   0  0  0  0  0  0  0  0  0  0  0  0
    4.5951   -2.6915   -1.2218 H   0  0  0  0  0  0  0  0  0  0  0  0
    4.5073   -1.2413   -0.1908 H   0  0  0  0  0  0  0  0  0  0  0  0
    4.4452   -1.0887   -1.9859 H   0  0  0  0  0  0  0  0  0  0  0  0
    2.3246   -2.8029    0.1824 C   0  0  0  0  0  0  0  0  0  0  0  0
    1.2449   -3.0214    0.2791 H   0  0  0  0  0  0  0  0  0  0  0  0
    2.7136   -2.3543    1.1165 H   0  0  0  0  0  0  0  0  0  0  0  0
    2.8640   -3.7603    0.0209 H   0  0  0  0  0  0  0  0  0  0  0  0
    2.0543   -2.6089   -2.3087 C   0  0  0  0  0  0  0  0  0  0  0  0
    2.5571   -3.5941   -2.4088 H   0  0  0  0  0  0  0  0  0  0  0  0
    2.2597   -2.0372   -3.2340 H   0  0  0  0  0  0  0  0  0  0  0  0
    0.9656   -2.7850   -2.2022 H   0  0  0  0  0  0  0  0  0  0  0  0
    1.8745    0.9265   -2.3367 C   0  0  0  0  0  0  0  0  0  0  0  0
    0.8659    0.5078   -3.4280 C   0  0  0  0  0  0  0  0  0  0  0  0
    0.8157    1.3299   -4.1726 H   0  0  0  0  0  0  0  0  0  0  0  0
   -0.1511    0.2952   -3.0421 H   0  0  0  0  0  0  0  0  0  0  0  0
    1.2021   -0.4018   -3.9616 H   0  0  0  0  0  0  0  0  0  0  0  0
    3.2709    0.9035   -2.9860 C   0  0  0  0  0  0  0  0  0  0  0  0
    3.5003   -0.0799   -3.4366 H   0  0  0  0  0  0  0  0  0  0  0  0
    4.0956    1.1910   -2.3142 H   0  0  0  0  0  0  0  0  0  0  0  0
    3.2516    1.6385   -3.8177 H   0  0  0  0  0  0  0  0  0  0  0  0
    1.5336    2.3521   -1.8574 C   0  0  0  0  0  0  0  0  0  0  0  0
    2.0896    2.6602   -0.9522 H   0  0  0  0  0  0  0  0  0  0  0  0
    0.4577    2.4573   -1.6393 H   0  0  0  0  0  0  0  0  0  0  0  0
    1.7847    3.0607   -2.6740 H   0  0  0  0  0  0  0  0  0  0  0  0
    0.1404   -0.7663    1.5419 C   0  0  0  0  0  3  0  0  0  0  0  0
   -0.5769   -1.3886    2.5615 C   0  0  0  0  0  0  0  0  0  0  0  0
   -1.5113   -1.9166    2.3286 H   0  0  0  0  0  0  0  0  0  0  0  0
   -0.1281   -1.3577    3.9084 C   0  0  0  0  0  0  0  0  0  0  0  0
   -0.7280   -1.8539    4.6869 H   0  0  0  0  0  0  0  0  0  0  0  0
    1.0376   -0.6905    4.2446 C   0  0  0  0  0  0  0  0  0  0  0  0
    1.3757   -0.6262    5.2901 H   0  0  0  0  0  0  0  0  0  0  0  0
    1.8290   -0.0832    3.2279 C   0  0  0  0  0  0  0  0  0  0  0  0
    3.0349    0.6080    3.5230 C   0  0  0  0  0  0  0  0  0  0  0  0
    3.3558    0.6976    4.5725 H   0  0  0  0  0  0  0  0  0  0  0  0
    3.7944    1.1623    2.5109 C   0  0  0  0  0  0  0  0  0  0  0  0
    4.7183    1.7057    2.7619 H   0  0  0  0  0  0  0  0  0  0  0  0
    3.4509    1.0308    1.1300 C   0  0  0  0  0  0  0  0  0  0  0  0
    2.2566    0.3606    0.8066 C   0  0  0  0  0  0  0  0  0  0  0  0
    1.4070   -0.1589    1.8513 C   0  0  0  0  0  0  0  0  0  0  0  0
    4.4247    1.6263    0.1443 C   0  0  0  0  0  0  0  0  0  0  0  0
    4.8601    0.8594   -0.5242 H   0  0  0  0  0  0  0  0  0  0  0  0
    5.2637    2.1097    0.6787 H   0  0  0  0  0  0  0  0  0  0  0  0
    3.9551    2.3950   -0.4986 H   0  0  0  0  0  0  0  0  0  0  0  0
  1 41  1  0  0  0  0
  2  1  1  0  0  0  0
  2  7  1  0  0  0  0
  3  2  1  0  0  0  0
  3  5  1  0  0  0  0
  4  3  1  0  0  0  0
  6  3  1  0  0  0  0
  7  8  1  0  0  0  0
  7  9  1  0  0  0  0
 10  7  1  0  0  0  0
 11 14  1  0  0  0  0
 11  2  1  0  0  0  0
 12 11  1  0  0  0  0
 13 11  1  0  0  0  0
 15 24  1  0  0  0  0
 15  1  1  0  0  0  0
 16 18  1  0  0  0  0
 16 15  1  0  0  0  0
 17 16  1  0  0  0  0
 19 16  1  0  0  0  0
 20 15  1  0  0  0  0
 20 22  1  0  0  0  0
 21 20  1  0  0  0  0
 23 20  1  0  0  0  0
 24 26  1  0  0  0  0
 24 25  1  0  0  0  0
 27 24  1  0  0  0  0
 28 42  2  0  0  0  0
 28 29  1  0  0  0  0
 29 31  2  0  0  0  0
 30 29  1  0  0  0  0
 31 33  1  0  0  0  0
 31 32  1  0  0  0  0
 33 34  1  0  0  0  0
 35 36  1  0  0  0  0
 35 33  2  0  0  0  0
 36 37  1  0  0  0  0
 38 39  1  0  0  0  0
 38 36  2  0  0  0  0
 40 38  1  0  0  0  0
 41 40  2  0  0  0  0
 41 42  1  0  0  0  0
 42 35  1  0  0  0  0
 43 45  1  0  0  0  0
 43 40  1  0  0  0  0
 44 43  1  0  0  0  0
 46 43  1  0  0  0  0
M  END
