3,4
 OpenBabel05122313053D

 55 58  0  0  0  0  0  0  0  0999 V2000
    1.6820   -1.3332    1.0632 N   0  0  0  0  0  0  0  0  0  0  0  0
    2.7847   -0.2873   -0.5206 N   0  0  0  0  0  0  0  0  0  0  0  0
   -1.2815   -0.0532    0.5684 P   0  0  0  0  0  0  0  0  0  0  0  0
    1.5597   -0.8050   -0.1987 C   0  0  0  0  0  2  0  0  0  0  0  0
    2.9743   -1.1453    1.5562 C   0  0  0  0  0  0  0  0  0  0  0  0
    3.6836   -0.4759    0.5289 C   0  0  0  0  0  0  0  0  0  0  0  0
    5.0341   -0.1300    0.6809 C   0  0  0  0  0  0  0  0  0  0  0  0
    5.5855    0.3895   -0.1146 H   0  0  0  0  0  0  0  0  0  0  0  0
    5.6511   -0.4743    1.8927 C   0  0  0  0  0  0  0  0  0  0  0  0
    6.7099   -0.2201    2.0474 H   0  0  0  0  0  0  0  0  0  0  0  0
    4.9431   -1.1404    2.9175 C   0  0  0  0  0  0  0  0  0  0  0  0
    5.4611   -1.3940    3.8539 H   0  0  0  0  0  0  0  0  0  0  0  0
    3.5921   -1.4887    2.7669 C   0  0  0  0  0  0  0  0  0  0  0  0
    3.0492   -2.0109    3.5673 H   0  0  0  0  0  0  0  0  0  0  0  0
    3.0763    0.5204   -1.7077 C   0  0  0  0  0  0  0  0  0  0  0  0
    2.3646    0.1865   -2.4895 H   0  0  0  0  0  0  0  0  0  0  0  0
    4.0928    0.2456   -2.0540 H   0  0  0  0  0  0  0  0  0  0  0  0
    2.9736    2.0256   -1.4329 C   0  0  0  0  0  0  0  0  0  0  0  0
    3.7489    2.3343   -0.6957 H   0  0  0  0  0  0  0  0  0  0  0  0
    3.2317    2.5445   -2.3817 H   0  0  0  0  0  0  0  0  0  0  0  0
    1.5942    2.4866   -0.9525 C   0  0  0  0  0  0  0  0  0  0  0  0
    1.3499    1.9814    0.0074 H   0  0  0  0  0  0  0  0  0  0  0  0
    0.8191    2.1354   -1.6690 H   0  0  0  0  0  0  0  0  0  0  0  0
    1.4891    3.9986   -0.7603 C   0  0  0  0  0  0  0  0  0  0  0  0
    2.2332    4.3664   -0.0224 H   0  0  0  0  0  0  0  0  0  0  0  0
    0.4826    4.2844   -0.3956 H   0  0  0  0  0  0  0  0  0  0  0  0
    1.6709    4.5415   -1.7114 H   0  0  0  0  0  0  0  0  0  0  0  0
    0.5282   -1.7428    1.8568 C   0  0  0  0  0  0  0  0  0  0  0  0
    0.9022   -2.1822    2.8009 H   0  0  0  0  0  0  0  0  0  0  0  0
   -0.0211   -2.5372    1.3112 H   0  0  0  0  0  0  0  0  0  0  0  0
   -0.3708   -0.5285    2.1341 C   0  0  0  0  0  0  0  0  0  0  0  0
    0.2619    0.3174    2.4715 H   0  0  0  0  0  0  0  0  0  0  0  0
   -1.1116   -0.7525    2.9266 H   0  0  0  0  0  0  0  0  0  0  0  0
   -1.6613    1.7327    0.7306 C   0  0  0  0  0  0  0  0  0  0  0  0
   -2.1465    2.3974   -0.4175 C   0  0  0  0  0  0  0  0  0  0  0  0
   -2.2790    1.8229   -1.3512 H   0  0  0  0  0  0  0  0  0  0  0  0
   -2.4466    3.7649   -0.3551 C   0  0  0  0  0  0  0  0  0  0  0  0
   -2.8229    4.2770   -1.2536 H   0  0  0  0  0  0  0  0  0  0  0  0
   -2.2611    4.4811    0.8395 C   0  0  0  0  0  0  0  0  0  0  0  0
   -2.4923    5.5563    0.8812 H   0  0  0  0  0  0  0  0  0  0  0  0
   -1.7766    3.8233    1.9803 C   0  0  0  0  0  0  0  0  0  0  0  0
   -1.6296    4.3783    2.9193 H   0  0  0  0  0  0  0  0  0  0  0  0
   -1.4790    2.4519    1.9301 C   0  0  0  0  0  0  0  0  0  0  0  0
   -1.1080    1.9523    2.8371 H   0  0  0  0  0  0  0  0  0  0  0  0
   -2.8747   -0.9354    0.8079 C   0  0  0  0  0  0  0  0  0  0  0  0
   -3.0560   -2.2028    0.2195 C   0  0  0  0  0  0  0  0  0  0  0  0
   -2.2920   -2.5969   -0.4677 H   0  0  0  0  0  0  0  0  0  0  0  0
   -4.2269   -2.9295    0.4798 C   0  0  0  0  0  0  0  0  0  0  0  0
   -4.3682   -3.9159    0.0131 H   0  0  0  0  0  0  0  0  0  0  0  0
   -5.2233   -2.3919    1.3102 C   0  0  0  0  0  0  0  0  0  0  0  0
   -6.1465   -2.9599    1.5015 H   0  0  0  0  0  0  0  0  0  0  0  0
   -5.0488   -1.1228    1.8852 C   0  0  0  0  0  0  0  0  0  0  0  0
   -5.8343   -0.6921    2.5247 H   0  0  0  0  0  0  0  0  0  0  0  0
   -3.8756   -0.3938    1.6384 C   0  0  0  0  0  0  0  0  0  0  0  0
   -3.7456    0.6062    2.0808 H   0  0  0  0  0  0  0  0  0  0  0  0
  1  5  1  0  0  0  0
  1 28  1  0  0  0  0
  2  4  1  0  0  0  0
  2  6  1  0  0  0  0
  3 34  1  0  0  0  0
  3 45  1  0  0  0  0
  3 31  1  0  0  0  0
  4  1  1  0  0  0  0
  5 13  1  0  0  0  0
  6  7  1  0  0  0  0
  6  5  2  0  0  0  0
  7  9  2  0  0  0  0
  8  7  1  0  0  0  0
  9 10  1  0  0  0  0
  9 11  1  0  0  0  0
 11 12  1  0  0  0  0
 13 11  2  0  0  0  0
 13 14  1  0  0  0  0
 15 18  1  0  0  0  0
 15  2  1  0  0  0  0
 16 15  1  0  0  0  0
 17 15  1  0  0  0  0
 18 21  1  0  0  0  0
 18 19  1  0  0  0  0
 20 18  1  0  0  0  0
 21 24  1  0  0  0  0
 21 22  1  0  0  0  0
 23 21  1  0  0  0  0
 24 26  1  0  0  0  0
 24 25  1  0  0  0  0
 27 24  1  0  0  0  0
 28 31  1  0  0  0  0
 28 29  1  0  0  0  0
 30 28  1  0  0  0  0
 31 32  1  0  0  0  0
 31 33  1  0  0  0  0
 34 43  1  0  0  0  0
 35 37  1  0  0  0  0
 35 34  2  0  0  0  0
 36 35  1  0  0  0  0
 37 39  2  0  0  0  0
 38 37  1  0  0  0  0
 39 40  1  0  0  0  0
 39 41  1  0  0  0  0
 41 42  1  0  0  0  0
 43 41  2  0  0  0  0
 43 44  1  0  0  0  0
 45 54  1  0  0  0  0
 46 48  1  0  0  0  0
 46 45  2  0  0  0  0
 47 46  1  0  0  0  0
 48 50  2  0  0  0  0
 49 48  1  0  0  0  0
 50 51  1  0  0  0  0
 50 52  1  0  0  0  0
 52 53  1  0  0  0  0
 54 52  2  0  0  0  0
 54 55  1  0  0  0  0
M  END
