1,2
 OpenBabel05122313053D

 42 44  0  0  1  0  0  0  0  0999 V2000
   -0.7212    0.1143    0.3184 P   0  0  0  0  0  0  0  0  0  0  0  0
    1.7976   -0.9475    1.5910 C   0  0  0  0  0  3  0  0  0  0  0  0
    2.3770   -1.8845    1.6285 H   0  0  0  0  0  0  0  0  0  0  0  0
    0.5900   -0.8260    2.4966 C   0  0  0  0  0  0  0  0  0  0  0  0
    0.9419   -0.7475    3.5532 H   0  0  0  0  0  0  0  0  0  0  0  0
   -0.0492   -1.7303    2.4344 H   0  0  0  0  0  0  0  0  0  0  0  0
   -0.2069    0.4306    2.1240 C   0  0  1  0  0  0  0  0  0  0  0  0
   -1.0966    0.5821    2.7641 H   0  0  0  0  0  0  0  0  0  0  0  0
    0.6620    1.6419    2.0720 C   0  0  0  0  0  0  0  0  0  0  0  0
    0.2266    2.6228    2.3175 H   0  0  0  0  0  0  0  0  0  0  0  0
    1.9227    1.5614    1.5556 C   0  0  0  0  0  0  0  0  0  0  0  0
    2.4843    0.2318    1.1864 C   0  0  1  0  0  3  0  0  0  0  0  0
    3.9448    0.1848    0.8145 C   0  0  0  0  0  0  0  0  0  0  0  0
    4.5419    0.5103    1.6952 H   0  0  0  0  0  0  0  0  0  0  0  0
    4.1853    0.8714   -0.0193 H   0  0  0  0  0  0  0  0  0  0  0  0
    4.2474   -0.8317    0.5098 H   0  0  0  0  0  0  0  0  0  0  0  0
    2.7528    2.7956    1.3329 C   0  0  0  0  0  0  0  0  0  0  0  0
    2.2068    3.7026    1.6542 H   0  0  0  0  0  0  0  0  0  0  0  0
    3.0044    2.9107    0.2574 H   0  0  0  0  0  0  0  0  0  0  0  0
    3.7180    2.7580    1.8780 H   0  0  0  0  0  0  0  0  0  0  0  0
   -2.1369   -1.0492    0.4185 C   0  0  0  0  0  0  0  0  0  0  0  0
   -3.0705   -0.9577    1.4756 C   0  0  0  0  0  0  0  0  0  0  0  0
   -2.9701   -0.1821    2.2497 H   0  0  0  0  0  0  0  0  0  0  0  0
   -4.1417   -1.8602    1.5521 C   0  0  0  0  0  0  0  0  0  0  0  0
   -4.8634   -1.7800    2.3791 H   0  0  0  0  0  0  0  0  0  0  0  0
   -4.2877   -2.8625    0.5804 C   0  0  0  0  0  0  0  0  0  0  0  0
   -5.1264   -3.5723    0.6440 H   0  0  0  0  0  0  0  0  0  0  0  0
   -3.3596   -2.9593   -0.4681 C   0  0  0  0  0  0  0  0  0  0  0  0
   -3.4668   -3.7451   -1.2309 H   0  0  0  0  0  0  0  0  0  0  0  0
   -2.2863   -2.0608   -0.5542 C   0  0  0  0  0  0  0  0  0  0  0  0
   -1.5582   -2.1248   -1.3784 H   0  0  0  0  0  0  0  0  0  0  0  0
   -1.3450    1.6912   -0.3575 C   0  0  0  0  0  0  0  0  0  0  0  0
   -0.4338    2.5125   -1.0532 C   0  0  0  0  0  0  0  0  0  0  0  0
    0.5911    2.1523   -1.2300 H   0  0  0  0  0  0  0  0  0  0  0  0
   -0.8486    3.7607   -1.5369 C   0  0  0  0  0  0  0  0  0  0  0  0
   -0.1374    4.3964   -2.0853 H   0  0  0  0  0  0  0  0  0  0  0  0
   -2.1717    4.1888   -1.3397 C   0  0  0  0  0  0  0  0  0  0  0  0
   -2.4975    5.1659   -1.7279 H   0  0  0  0  0  0  0  0  0  0  0  0
   -3.0845    3.3636   -0.6635 C   0  0  0  0  0  0  0  0  0  0  0  0
   -4.1261    3.6900   -0.5233 H   0  0  0  0  0  0  0  0  0  0  0  0
   -2.6761    2.1139   -0.1738 C   0  0  0  0  0  0  0  0  0  0  0  0
   -3.3995    1.4622    0.3387 H   0  0  0  0  0  0  0  0  0  0  0  0
  1 21  1  0  0  0  0
  1  7  1  0  0  0  0
  2  3  1  0  0  0  0
  2  4  1  0  0  0  0
  4  5  1  0  0  0  0
  6  4  1  0  0  0  0
  7  4  1  0  0  0  0
  7  8  1  1  0  0  0
  9  7  1  0  0  0  0
  9 10  1  0  0  0  0
 11  9  2  0  0  0  0
 12 13  1  1  0  0  0
 12 11  1  0  0  0  0
 12  2  1  0  0  0  0
 13 14  1  0  0  0  0
 15 13  1  0  0  0  0
 16 13  1  0  0  0  0
 17 11  1  0  0  0  0
 17 18  1  0  0  0  0
 17 20  1  0  0  0  0
 19 17  1  0  0  0  0
 21 22  1  0  0  0  0
 22 24  2  0  0  0  0
 22 23  1  0  0  0  0
 24 25  1  0  0  0  0
 26 27  1  0  0  0  0
 26 24  1  0  0  0  0
 28 26  2  0  0  0  0
 29 28  1  0  0  0  0
 30 28  1  0  0  0  0
 30 21  2  0  0  0  0
 31 30  1  0  0  0  0
 32 41  1  0  0  0  0
 32  1  1  0  0  0  0
 33 32  2  0  0  0  0
 34 33  1  0  0  0  0
 35 37  2  0  0  0  0
 35 33  1  0  0  0  0
 36 35  1  0  0  0  0
 37 39  1  0  0  0  0
 38 37  1  0  0  0  0
 39 40  1  0  0  0  0
 39 41  2  0  0  0  0
 41 42  1  0  0  0  0
M  END
