3,4
 OpenBabel05122313053D

 40 42  0  0  0  0  0  0  0  0999 V2000
    1.4926   -3.6038    0.6730 N   0  0  0  0  0  0  0  0  0  0  0  0
    0.4656   -3.8613    0.8207 H   0  0  0  0  0  0  0  0  0  0  0  0
    1.7490    0.5098    0.1545 P   0  0  0  0  0  0  0  0  0  0  0  0
    1.6264   -2.3957    0.1583 C   0  0  0  0  0  2  0  0  0  0  0  0
    2.9355   -1.9195   -0.3720 C   0  0  0  0  0  0  0  0  0  0  0  0
    3.1703   -0.5161   -0.4011 C   0  0  0  0  0  0  0  0  0  0  0  0
    4.3475    0.0077   -0.9561 C   0  0  0  0  0  0  0  0  0  0  0  0
    4.4948    1.0984   -0.9859 H   0  0  0  0  0  0  0  0  0  0  0  0
    5.3075   -0.8531   -1.5108 C   0  0  0  0  0  0  0  0  0  0  0  0
    6.2266   -0.4415   -1.9548 H   0  0  0  0  0  0  0  0  0  0  0  0
    5.0695   -2.2361   -1.5337 C   0  0  0  0  0  0  0  0  0  0  0  0
    5.7947   -2.9118   -2.0120 H   0  0  0  0  0  0  0  0  0  0  0  0
    3.9000   -2.7646   -0.9693 C   0  0  0  0  0  0  0  0  0  0  0  0
    3.7155   -3.8436   -1.0482 H   0  0  0  0  0  0  0  0  0  0  0  0
    2.1964    1.1443    1.8205 C   0  0  0  0  0  0  0  0  0  0  0  0
    3.4950    1.0616    2.3580 C   0  0  0  0  0  0  0  0  0  0  0  0
    4.3038    0.6020    1.7702 H   0  0  0  0  0  0  0  0  0  0  0  0
    3.7575    1.5586    3.6453 C   0  0  0  0  0  0  0  0  0  0  0  0
    4.7742    1.4844    4.0609 H   0  0  0  0  0  0  0  0  0  0  0  0
    2.7306    2.1466    4.4001 C   0  0  0  0  0  0  0  0  0  0  0  0
    2.9401    2.5341    5.4088 H   0  0  0  0  0  0  0  0  0  0  0  0
    1.4330    2.2320    3.8672 C   0  0  0  0  0  0  0  0  0  0  0  0
    0.6177    2.6814    4.4548 H   0  0  0  0  0  0  0  0  0  0  0  0
    1.1658    1.7275    2.5877 C   0  0  0  0  0  0  0  0  0  0  0  0
    0.1427    1.7697    2.1845 H   0  0  0  0  0  0  0  0  0  0  0  0
    1.8470    2.0010   -0.9150 C   0  0  0  0  0  0  0  0  0  0  0  0
    2.2449    3.2640   -0.4316 C   0  0  0  0  0  0  0  0  0  0  0  0
    2.5192    3.3888    0.6267 H   0  0  0  0  0  0  0  0  0  0  0  0
    2.2927    4.3640   -1.3034 C   0  0  0  0  0  0  0  0  0  0  0  0
    2.6061    5.3481   -0.9219 H   0  0  0  0  0  0  0  0  0  0  0  0
    1.9485    4.2079   -2.6549 C   0  0  0  0  0  0  0  0  0  0  0  0
    1.9882    5.0717   -3.3364 H   0  0  0  0  0  0  0  0  0  0  0  0
    1.5422    2.9506   -3.1329 C   0  0  0  0  0  0  0  0  0  0  0  0
    1.2500    2.8279   -4.1867 H   0  0  0  0  0  0  0  0  0  0  0  0
    1.4820    1.8476   -2.2714 C   0  0  0  0  0  0  0  0  0  0  0  0
    1.1250    0.8651   -2.6297 H   0  0  0  0  0  0  0  0  0  0  0  0
    2.4816   -4.6061    1.0290 C   0  0  0  0  0  0  0  0  0  0  0  0
    2.6083   -5.3683    0.2299 H   0  0  0  0  0  0  0  0  0  0  0  0
    2.1342   -5.1340    1.9393 H   0  0  0  0  0  0  0  0  0  0  0  0
    3.4654   -4.1458    1.2376 H   0  0  0  0  0  0  0  0  0  0  0  0
  1  2  1  0  0  0  0
  1 37  1  0  0  0  0
  3 15  1  0  0  0  0
  4  1  1  0  0  0  0
  5  4  1  0  0  0  0
  6  5  1  0  0  0  0
  6  3  1  0  0  0  0
  7  6  2  0  0  0  0
  8  7  1  0  0  0  0
  9  7  1  0  0  0  0
 10  9  1  0  0  0  0
 11  9  2  0  0  0  0
 11 13  1  0  0  0  0
 12 11  1  0  0  0  0
 13  5  2  0  0  0  0
 14 13  1  0  0  0  0
 15 16  2  0  0  0  0
 15 24  1  0  0  0  0
 16 18  1  0  0  0  0
 17 16  1  0  0  0  0
 18 19  1  0  0  0  0
 18 20  2  0  0  0  0
 20 21  1  0  0  0  0
 22 20  1  0  0  0  0
 22 23  1  0  0  0  0
 24 22  2  0  0  0  0
 25 24  1  0  0  0  0
 26 27  1  0  0  0  0
 26  3  1  0  0  0  0
 27 28  1  0  0  0  0
 29 30  1  0  0  0  0
 29 27  2  0  0  0  0
 31 29  1  0  0  0  0
 32 31  1  0  0  0  0
 33 31  2  0  0  0  0
 33 35  1  0  0  0  0
 34 33  1  0  0  0  0
 35 26  2  0  0  0  0
 36 35  1  0  0  0  0
 37 40  1  0  0  0  0
 37 39  1  0  0  0  0
 38 37  1  0  0  0  0
M  END
