2,5
 OpenBabel05122313053D

 67 71  0  0  0  0  0  0  0  0999 V2000
    4.2920   -3.1341   -1.4984 Br  0  0  0  0  0  0  0  0  0  0  0  0
   -0.0259    1.8783    0.8723 P   0  0  0  0  0  0  0  0  0  0  0  0
   -2.4796   -0.7191    0.4290 P   0  0  0  0  0  4  0  0  0  0  0  0
   -0.5308   -1.1013    2.3818 O   0  0  0  0  0  0  0  0  0  0  0  0
   -0.7716   -1.1312    0.0277 C   0  0  0  0  0  3  0  0  0  0  0  0
   -0.7064   -1.8960   -0.7712 H   0  0  0  0  0  0  0  0  0  0  0  0
   -0.0146   -1.3876    1.2832 C   0  0  0  0  0  0  0  0  0  0  0  0
    1.3864   -1.9171    1.2491 C   0  0  0  0  0  0  0  0  0  0  0  0
    2.0508   -2.2565    0.0519 C   0  0  0  0  0  0  0  0  0  0  0  0
    1.5607   -2.1417   -0.9287 H   0  0  0  0  0  0  0  0  0  0  0  0
    3.3798   -2.6958    0.1136 C   0  0  0  0  0  0  0  0  0  0  0  0
    4.0601   -2.8016    1.3387 C   0  0  0  0  0  0  0  0  0  0  0  0
    5.1061   -3.1394    1.3576 H   0  0  0  0  0  0  0  0  0  0  0  0
    3.3871   -2.4650    2.5244 C   0  0  0  0  0  0  0  0  0  0  0  0
    3.9159   -2.5391    3.4868 H   0  0  0  0  0  0  0  0  0  0  0  0
    2.0594   -2.0290    2.4847 C   0  0  0  0  0  0  0  0  0  0  0  0
    1.5169   -1.7447    3.3967 H   0  0  0  0  0  0  0  0  0  0  0  0
   -3.2451   -1.9023    1.5938 C   0  0  0  0  0  0  0  0  0  0  0  0
   -3.5353   -1.5758    2.9318 C   0  0  0  0  0  0  0  0  0  0  0  0
   -3.3128   -0.5728    3.3221 H   0  0  0  0  0  0  0  0  0  0  0  0
   -4.0914   -2.5424    3.7816 C   0  0  0  0  0  0  0  0  0  0  0  0
   -4.3178   -2.2828    4.8266 H   0  0  0  0  0  0  0  0  0  0  0  0
   -4.3457   -3.8387    3.3062 C   0  0  0  0  0  0  0  0  0  0  0  0
   -4.7774   -4.5960    3.9777 H   0  0  0  0  0  0  0  0  0  0  0  0
   -4.0452   -4.1700    1.9752 C   0  0  0  0  0  0  0  0  0  0  0  0
   -4.2402   -5.1856    1.5995 H   0  0  0  0  0  0  0  0  0  0  0  0
   -3.4982   -3.2054    1.1179 C   0  0  0  0  0  0  0  0  0  0  0  0
   -3.2729   -3.4647    0.0715 H   0  0  0  0  0  0  0  0  0  0  0  0
   -3.5551   -0.7746   -1.0391 C   0  0  0  0  0  0  0  0  0  0  0  0
   -4.9525   -0.7955   -0.8248 C   0  0  0  0  0  0  0  0  0  0  0  0
   -5.3584   -0.8529    0.1972 H   0  0  0  0  0  0  0  0  0  0  0  0
   -5.8263   -0.7611   -1.9189 C   0  0  0  0  0  0  0  0  0  0  0  0
   -6.9134   -0.7781   -1.7492 H   0  0  0  0  0  0  0  0  0  0  0  0
   -5.3142   -0.7133   -3.2269 C   0  0  0  0  0  0  0  0  0  0  0  0
   -6.0029   -0.6907   -4.0852 H   0  0  0  0  0  0  0  0  0  0  0  0
   -3.9276   -0.6999   -3.4367 C   0  0  0  0  0  0  0  0  0  0  0  0
   -3.5161   -0.6696   -4.4567 H   0  0  0  0  0  0  0  0  0  0  0  0
   -3.0404   -0.7245   -2.3488 C   0  0  0  0  0  0  0  0  0  0  0  0
   -1.9522   -0.7125   -2.5364 H   0  0  0  0  0  0  0  0  0  0  0  0
   -2.6894    0.9990    1.0833 C   0  0  0  0  0  0  0  0  0  0  0  0
   -2.8513    1.6174    0.1757 H   0  0  0  0  0  0  0  0  0  0  0  0
   -3.6498    0.9977    1.6405 H   0  0  0  0  0  0  0  0  0  0  0  0
   -1.5445    1.5537    1.9303 C   0  0  0  0  0  0  0  0  0  0  0  0
   -1.2748    0.8474    2.7344 H   0  0  0  0  0  0  0  0  0  0  0  0
   -1.8446    2.5239    2.3734 H   0  0  0  0  0  0  0  0  0  0  0  0
   -0.2279    3.6806    0.5823 C   0  0  0  0  0  0  0  0  0  0  0  0
   -1.0306    4.1074   -0.4953 C   0  0  0  0  0  0  0  0  0  0  0  0
   -1.4043    3.3690   -1.2211 H   0  0  0  0  0  0  0  0  0  0  0  0
   -1.3032    5.4713   -0.6656 C   0  0  0  0  0  0  0  0  0  0  0  0
   -1.9240    5.8007   -1.5125 H   0  0  0  0  0  0  0  0  0  0  0  0
   -0.7614    6.4159    0.2222 C   0  0  0  0  0  0  0  0  0  0  0  0
   -0.9643    7.4879    0.0769 H   0  0  0  0  0  0  0  0  0  0  0  0
    0.0520    5.9929    1.2845 C   0  0  0  0  0  0  0  0  0  0  0  0
    0.4910    6.7310    1.9728 H   0  0  0  0  0  0  0  0  0  0  0  0
    0.3166    4.6265    1.4706 C   0  0  0  0  0  0  0  0  0  0  0  0
    0.9597    4.2965    2.3007 H   0  0  0  0  0  0  0  0  0  0  0  0
    1.4076    1.6752    1.9986 C   0  0  0  0  0  0  0  0  0  0  0  0
    1.2792    1.6298    3.4018 C   0  0  0  0  0  0  0  0  0  0  0  0
    0.2986    1.7610    3.8811 H   0  0  0  0  0  0  0  0  0  0  0  0
    2.4090    1.4061    4.2039 C   0  0  0  0  0  0  0  0  0  0  0  0
    2.2996    1.3661    5.2984 H   0  0  0  0  0  0  0  0  0  0  0  0
    3.6694    1.2281    3.6132 C   0  0  0  0  0  0  0  0  0  0  0  0
    4.5517    1.0429    4.2448 H   0  0  0  0  0  0  0  0  0  0  0  0
    3.8014    1.2798    2.2162 C   0  0  0  0  0  0  0  0  0  0  0  0
    4.7852    1.1332    1.7460 H   0  0  0  0  0  0  0  0  0  0  0  0
    2.6784    1.5000    1.4078 C   0  0  0  0  0  0  0  0  0  0  0  0
    2.7722    1.5313    0.3098 H   0  0  0  0  0  0  0  0  0  0  0  0
  1 11  1  0  0  0  0
  2 43  1  0  0  0  0
  2 57  1  0  0  0  0
  3 40  1  0  0  0  0
  3 18  1  0  0  0  0
  5  3  1  0  0  0  0
  5  7  1  0  0  0  0
  6  5  1  0  0  0  0
  7  4  2  0  0  0  0
  8  7  1  0  0  0  0
  8 16  1  0  0  0  0
  9 11  1  0  0  0  0
  9  8  2  0  0  0  0
 10  9  1  0  0  0  0
 11 12  2  0  0  0  0
 12 13  1  0  0  0  0
 12 14  1  0  0  0  0
 14 15  1  0  0  0  0
 16 14  2  0  0  0  0
 16 17  1  0  0  0  0
 18 19  1  0  0  0  0
 19 20  1  0  0  0  0
 19 21  2  0  0  0  0
 21 22  1  0  0  0  0
 23 21  1  0  0  0  0
 23 24  1  0  0  0  0
 25 23  2  0  0  0  0
 26 25  1  0  0  0  0
 27 18  2  0  0  0  0
 27 25  1  0  0  0  0
 28 27  1  0  0  0  0
 29 30  1  0  0  0  0
 29  3  1  0  0  0  0
 30 31  1  0  0  0  0
 32 33  1  0  0  0  0
 32 30  2  0  0  0  0
 34 32  1  0  0  0  0
 35 34  1  0  0  0  0
 36 34  2  0  0  0  0
 36 38  1  0  0  0  0
 37 36  1  0  0  0  0
 38 29  2  0  0  0  0
 39 38  1  0  0  0  0
 40 42  1  0  0  0  0
 40 43  1  0  0  0  0
 41 40  1  0  0  0  0
 43 45  1  0  0  0  0
 43 44  1  0  0  0  0
 46  2  1  0  0  0  0
 46 55  1  0  0  0  0
 47 46  2  0  0  0  0
 48 47  1  0  0  0  0
 49 47  1  0  0  0  0
 49 51  2  0  0  0  0
 50 49  1  0  0  0  0
 51 53  1  0  0  0  0
 52 51  1  0  0  0  0
 53 55  2  0  0  0  0
 53 54  1  0  0  0  0
 55 56  1  0  0  0  0
 57 58  1  0  0  0  0
 58 59  1  0  0  0  0
 58 60  2  0  0  0  0
 60 61  1  0  0  0  0
 62 60  1  0  0  0  0
 62 63  1  0  0  0  0
 64 62  2  0  0  0  0
 65 64  1  0  0  0  0
 66 57  2  0  0  0  0
 66 64  1  0  0  0  0
 67 66  1  0  0  0  0
M  END
