2,5
 OpenBabel05122313053D

 68 72  0  0  0  0  0  0  0  0999 V2000
   -0.6233    1.6807   -0.4869 P   0  0  0  0  0  4  0  0  0  0  0  0
   -0.9956   -1.2332   -0.6225 P   0  0  0  0  0  0  0  0  0  0  0  0
    1.8369    0.5096   -1.4414 O   0  0  0  0  0  0  0  0  0  0  0  0
    6.6123   -0.2596   -0.6150 O   0  0  0  0  0  0  0  0  0  0  0  0
    0.6941    1.0708    0.5756 C   0  0  0  0  0  3  0  0  0  0  0  0
    0.8736    1.7325    1.4435 H   0  0  0  0  0  0  0  0  0  0  0  0
    1.9043    0.6681   -0.2061 C   0  0  0  0  0  0  0  0  0  0  0  0
    3.2076    0.4557    0.4988 C   0  0  0  0  0  0  0  0  0  0  0  0
    4.3245    0.1868   -0.3132 C   0  0  0  0  0  0  0  0  0  0  0  0
    4.1981    0.1280   -1.4029 H   0  0  0  0  0  0  0  0  0  0  0  0
    5.5942   -0.0089    0.2572 C   0  0  0  0  0  0  0  0  0  0  0  0
    5.7433    0.0618    1.6595 C   0  0  0  0  0  0  0  0  0  0  0  0
    6.7230   -0.0909    2.1322 H   0  0  0  0  0  0  0  0  0  0  0  0
    4.6201    0.3225    2.4631 C   0  0  0  0  0  0  0  0  0  0  0  0
    4.7388    0.3580    3.5566 H   0  0  0  0  0  0  0  0  0  0  0  0
    3.3543    0.5229    1.9032 C   0  0  0  0  0  0  0  0  0  0  0  0
    2.4823    0.6729    2.5590 H   0  0  0  0  0  0  0  0  0  0  0  0
    7.9054   -0.4792   -0.0892 C   0  0  0  0  0  0  0  0  0  0  0  0
    7.9368   -1.3632    0.5876 H   0  0  0  0  0  0  0  0  0  0  0  0
    8.2860    0.4063    0.4694 H   0  0  0  0  0  0  0  0  0  0  0  0
    8.5686   -0.6677   -0.9541 H   0  0  0  0  0  0  0  0  0  0  0  0
   -0.2574    3.2085   -1.4230 C   0  0  0  0  0  0  0  0  0  0  0  0
    0.6832    3.1826   -2.4778 C   0  0  0  0  0  0  0  0  0  0  0  0
    1.1859    2.2397   -2.7370 H   0  0  0  0  0  0  0  0  0  0  0  0
    0.9984    4.3680   -3.1556 C   0  0  0  0  0  0  0  0  0  0  0  0
    1.7311    4.3435   -3.9762 H   0  0  0  0  0  0  0  0  0  0  0  0
    0.3924    5.5803   -2.7872 C   0  0  0  0  0  0  0  0  0  0  0  0
    0.6449    6.5076   -3.3233 H   0  0  0  0  0  0  0  0  0  0  0  0
   -0.5303    5.6097   -1.7303 C   0  0  0  0  0  0  0  0  0  0  0  0
   -1.0021    6.5582   -1.4328 H   0  0  0  0  0  0  0  0  0  0  0  0
   -0.8570    4.4295   -1.0467 C   0  0  0  0  0  0  0  0  0  0  0  0
   -1.5819    4.4574   -0.2199 H   0  0  0  0  0  0  0  0  0  0  0  0
   -2.1313    2.0021    0.4757 C   0  0  0  0  0  0  0  0  0  0  0  0
   -2.1370    1.9481    1.8845 C   0  0  0  0  0  0  0  0  0  0  0  0
   -1.2256    1.7026    2.4568 H   0  0  0  0  0  0  0  0  0  0  0  0
   -3.3459    2.1377    2.5727 C   0  0  0  0  0  0  0  0  0  0  0  0
   -3.3480    2.0736    3.6708 H   0  0  0  0  0  0  0  0  0  0  0  0
   -4.5364    2.3805    1.8707 C   0  0  0  0  0  0  0  0  0  0  0  0
   -5.4815    2.5150    2.4187 H   0  0  0  0  0  0  0  0  0  0  0  0
   -4.5255    2.4466    0.4673 C   0  0  0  0  0  0  0  0  0  0  0  0
   -5.4569    2.6329   -0.0877 H   0  0  0  0  0  0  0  0  0  0  0  0
   -3.3257    2.2606   -0.2313 C   0  0  0  0  0  0  0  0  0  0  0  0
   -3.3258    2.3114   -1.3313 H   0  0  0  0  0  0  0  0  0  0  0  0
   -1.0219    0.3354   -1.6642 C   0  0  0  0  0  0  0  0  0  0  0  0
   -0.2120    0.3121   -2.4138 H   0  0  0  0  0  0  0  0  0  0  0  0
   -2.0079    0.4976   -2.1386 H   0  0  0  0  0  0  0  0  0  0  0  0
   -0.1215   -2.4856   -1.6284 C   0  0  0  0  0  0  0  0  0  0  0  0
    0.1214   -2.3420   -3.0088 C   0  0  0  0  0  0  0  0  0  0  0  0
   -0.2116   -1.4436   -3.5493 H   0  0  0  0  0  0  0  0  0  0  0  0
    0.7976   -3.3523   -3.7095 C   0  0  0  0  0  0  0  0  0  0  0  0
    0.9894   -3.2334   -4.7866 H   0  0  0  0  0  0  0  0  0  0  0  0
    1.2315   -4.5054   -3.0375 C   0  0  0  0  0  0  0  0  0  0  0  0
    1.7663   -5.2938   -3.5888 H   0  0  0  0  0  0  0  0  0  0  0  0
    0.9894   -4.6485   -1.6613 C   0  0  0  0  0  0  0  0  0  0  0  0
    1.3339   -5.5482   -1.1296 H   0  0  0  0  0  0  0  0  0  0  0  0
    0.3182   -3.6439   -0.9511 C   0  0  0  0  0  0  0  0  0  0  0  0
    0.1259   -3.7378    0.1319 H   0  0  0  0  0  0  0  0  0  0  0  0
   -2.7704   -1.7025   -0.6342 C   0  0  0  0  0  0  0  0  0  0  0  0
   -3.3179   -2.4319   -1.7074 C   0  0  0  0  0  0  0  0  0  0  0  0
   -2.6651   -2.8054   -2.5114 H   0  0  0  0  0  0  0  0  0  0  0  0
   -4.6962   -2.6950   -1.7408 C   0  0  0  0  0  0  0  0  0  0  0  0
   -5.1207   -3.2734   -2.5754 H   0  0  0  0  0  0  0  0  0  0  0  0
   -5.5272   -2.2304   -0.7089 C   0  0  0  0  0  0  0  0  0  0  0  0
   -6.6072   -2.4416   -0.7357 H   0  0  0  0  0  0  0  0  0  0  0  0
   -4.9778   -1.5098    0.3642 C   0  0  0  0  0  0  0  0  0  0  0  0
   -5.6222   -1.1562    1.1831 H   0  0  0  0  0  0  0  0  0  0  0  0
   -3.6011   -1.2507    0.4101 C   0  0  0  0  0  0  0  0  0  0  0  0
   -3.1608   -0.7138    1.2630 H   0  0  0  0  0  0  0  0  0  0  0  0
  1 33  1  0  0  0  0
  1  5  1  0  0  0  0
  3  7  2  0  0  0  0
  4 18  1  0  0  0  0
  4 11  1  0  0  0  0
  5  6  1  0  0  0  0
  7  8  1  0  0  0  0
  7  5  1  0  0  0  0
  8 16  1  0  0  0  0
  9 11  1  0  0  0  0
  9  8  2  0  0  0  0
 10  9  1  0  0  0  0
 11 12  2  0  0  0  0
 12 13  1  0  0  0  0
 12 14  1  0  0  0  0
 14 15  1  0  0  0  0
 16 14  2  0  0  0  0
 16 17  1  0  0  0  0
 18 20  1  0  0  0  0
 18 19  1  0  0  0  0
 21 18  1  0  0  0  0
 22 31  1  0  0  0  0
 22  1  1  0  0  0  0
 23 22  2  0  0  0  0
 24 23  1  0  0  0  0
 25 27  2  0  0  0  0
 25 23  1  0  0  0  0
 26 25  1  0  0  0  0
 27 29  1  0  0  0  0
 28 27  1  0  0  0  0
 29 30  1  0  0  0  0
 29 31  2  0  0  0  0
 31 32  1  0  0  0  0
 33 34  1  0  0  0  0
 34 35  1  0  0  0  0
 34 36  2  0  0  0  0
 36 37  1  0  0  0  0
 38 39  1  0  0  0  0
 38 36  1  0  0  0  0
 40 38  2  0  0  0  0
 41 40  1  0  0  0  0
 42 40  1  0  0  0  0
 42 33  2  0  0  0  0
 43 42  1  0  0  0  0
 44  2  1  0  0  0  0
 44  1  1  0  0  0  0
 45 44  1  0  0  0  0
 46 44  1  0  0  0  0
 47 56  1  0  0  0  0
 47  2  1  0  0  0  0
 48 47  2  0  0  0  0
 49 48  1  0  0  0  0
 50 52  2  0  0  0  0
 50 48  1  0  0  0  0
 51 50  1  0  0  0  0
 52 54  1  0  0  0  0
 53 52  1  0  0  0  0
 54 55  1  0  0  0  0
 54 56  2  0  0  0  0
 56 57  1  0  0  0  0
 58  2  1  0  0  0  0
 58 67  1  0  0  0  0
 59 58  2  0  0  0  0
 60 59  1  0  0  0  0
 61 59  1  0  0  0  0
 61 63  2  0  0  0  0
 62 61  1  0  0  0  0
 63 65  1  0  0  0  0
 64 63  1  0  0  0  0
 65 67  2  0  0  0  0
 65 66  1  0  0  0  0
 67 68  1  0  0  0  0
M  END
