1,3
 OpenBabel05122313053D

 60 63  0  0  1  0  0  0  0  0999 V2000
    0.2101    0.6221    0.0526 P   0  0  0  0  0  0  0  0  0  0  0  0
   -2.0250   -1.3051    0.9770 N   0  0  0  0  0  0  0  0  0  0  0  0
   -0.9453   -2.2293    0.8269 C   0  0  2  0  0  3  0  0  0  0  0  0
   -1.3386   -3.0589   -0.2737 C   0  0  0  0  0  3  0  0  0  0  0  0
   -0.8018   -3.9697   -0.5626 H   0  0  0  0  0  0  0  0  0  0  0  0
   -0.1819   -2.6678    2.0509 C   0  0  0  0  0  0  0  0  0  0  0  0
   -0.8501   -3.2068    2.7571 H   0  0  0  0  0  0  0  0  0  0  0  0
    0.2660   -1.8100    2.5879 H   0  0  0  0  0  0  0  0  0  0  0  0
    0.6343   -3.3456    1.7369 H   0  0  0  0  0  0  0  0  0  0  0  0
   -2.9830   -1.5181    0.0051 C   0  0  0  0  0  0  0  0  0  0  0  0
   -4.1962   -0.6595   -0.1229 C   0  0  0  0  0  0  0  0  0  0  0  0
   -4.9122   -0.8358    0.7070 H   0  0  0  0  0  0  0  0  0  0  0  0
   -4.7142   -0.8784   -1.0743 H   0  0  0  0  0  0  0  0  0  0  0  0
   -3.9422    0.4198   -0.1006 H   0  0  0  0  0  0  0  0  0  0  0  0
   -2.5763   -2.5947   -0.7828 C   0  0  0  0  0  0  0  0  0  0  0  0
   -3.1247   -2.9964   -1.6415 H   0  0  0  0  0  0  0  0  0  0  0  0
   -2.8603    0.0437    2.8301 C   0  0  0  0  0  0  0  0  0  0  0  0
   -3.5678   -0.7672    3.0559 H   0  0  0  0  0  0  0  0  0  0  0  0
   -1.9550   -0.1264    1.7682 C   0  0  0  0  0  0  0  0  0  0  0  0
   -0.3022    1.8028   -1.2893 C   0  0  0  0  0  0  0  0  0  0  0  0
    0.5502    1.6766   -1.9959 H   0  0  0  0  0  0  0  0  0  0  0  0
   -1.0022    0.8713    1.4473 C   0  0  0  0  0  0  0  0  0  0  0  0
   -1.5659    1.2829   -1.9940 C   0  0  0  0  0  0  0  0  0  0  0  0
   -1.4256    0.2187   -2.2766 H   0  0  0  0  0  0  0  0  0  0  0  0
   -2.4196    1.3207   -1.2807 H   0  0  0  0  0  0  0  0  0  0  0  0
    1.7666    1.3088    0.8496 C   0  0  0  0  0  0  0  0  0  0  0  0
    1.4301    2.2139    1.4024 H   0  0  0  0  0  0  0  0  0  0  0  0
   -1.0046    2.0476    2.2287 C   0  0  0  0  0  0  0  0  0  0  0  0
   -0.2844    2.8493    2.0143 H   0  0  0  0  0  0  0  0  0  0  0  0
   -2.8462    1.2233    3.5845 C   0  0  0  0  0  0  0  0  0  0  0  0
   -3.5555    1.3539    4.4153 H   0  0  0  0  0  0  0  0  0  0  0  0
   -1.9162    2.2280    3.2792 C   0  0  0  0  0  0  0  0  0  0  0  0
   -1.8945    3.1598    3.8637 H   0  0  0  0  0  0  0  0  0  0  0  0
    2.8752    1.7469   -0.1198 C   0  0  0  0  0  0  0  0  0  0  0  0
    3.1796    0.8771   -0.7365 H   0  0  0  0  0  0  0  0  0  0  0  0
    2.4940    2.5083   -0.8311 H   0  0  0  0  0  0  0  0  0  0  0  0
   -1.8954    2.1400   -3.2228 C   0  0  0  0  0  0  0  0  0  0  0  0
   -2.8274    1.7740   -3.7022 H   0  0  0  0  0  0  0  0  0  0  0  0
   -1.0851    2.0115   -3.9740 H   0  0  0  0  0  0  0  0  0  0  0  0
   -0.7700    4.1328   -2.1331 C   0  0  0  0  0  0  0  0  0  0  0  0
   -0.8945    5.1953   -1.8361 H   0  0  0  0  0  0  0  0  0  0  0  0
    0.0961    4.0999   -2.8307 H   0  0  0  0  0  0  0  0  0  0  0  0
    2.2933    0.2898    1.8785 C   0  0  0  0  0  0  0  0  0  0  0  0
    2.5599   -0.6465    1.3393 H   0  0  0  0  0  0  0  0  0  0  0  0
    1.4914    0.0241    2.5997 H   0  0  0  0  0  0  0  0  0  0  0  0
    4.0792    2.3024    0.6545 C   0  0  0  0  0  0  0  0  0  0  0  0
    4.8733    2.5980   -0.0622 H   0  0  0  0  0  0  0  0  0  0  0  0
    3.7836    3.2312    1.1953 H   0  0  0  0  0  0  0  0  0  0  0  0
   -0.4460    3.2787   -0.8960 C   0  0  0  0  0  0  0  0  0  0  0  0
   -1.2702    3.3865   -0.1566 H   0  0  0  0  0  0  0  0  0  0  0  0
    0.4778    3.6521   -0.4064 H   0  0  0  0  0  0  0  0  0  0  0  0
   -2.0237    3.6241   -2.8561 C   0  0  0  0  0  0  0  0  0  0  0  0
   -2.2197    4.2333   -3.7630 H   0  0  0  0  0  0  0  0  0  0  0  0
   -2.9066    3.7611   -2.1909 H   0  0  0  0  0  0  0  0  0  0  0  0
    4.6178    1.2807    1.6627 C   0  0  0  0  0  0  0  0  0  0  0  0
    5.4786    1.7010    2.2237 H   0  0  0  0  0  0  0  0  0  0  0  0
    5.0014    0.3944    1.1105 H   0  0  0  0  0  0  0  0  0  0  0  0
    3.5166    0.8317    2.6297 C   0  0  0  0  0  0  0  0  0  0  0  0
    3.2050    1.6965    3.2590 H   0  0  0  0  0  0  0  0  0  0  0  0
    3.8980    0.0580    3.3284 H   0  0  0  0  0  0  0  0  0  0  0  0
  1 26  1  0  0  0  0
  1 22  1  0  0  0  0
  2 19  1  0  0  0  0
  3  2  1  0  0  0  0
  3  6  1  1  0  0  0
  4  3  1  0  0  0  0
  5  4  1  0  0  0  0
  6  8  1  0  0  0  0
  6  7  1  0  0  0  0
  9  6  1  0  0  0  0
 10  2  1  0  0  0  0
 11 14  1  0  0  0  0
 11 10  1  0  0  0  0
 11 12  1  0  0  0  0
 13 11  1  0  0  0  0
 15  4  1  0  0  0  0
 15 10  2  0  0  0  0
 16 15  1  0  0  0  0
 17 18  1  0  0  0  0
 17 30  1  0  0  0  0
 19 17  2  0  0  0  0
 20 49  1  0  0  0  0
 20  1  1  0  0  0  0
 21 20  1  0  0  0  0
 22 19  1  0  0  0  0
 22 28  2  0  0  0  0
 23 20  1  0  0  0  0
 23 25  1  0  0  0  0
 24 23  1  0  0  0  0
 26 27  1  0  0  0  0
 26 43  1  0  0  0  0
 28 32  1  0  0  0  0
 29 28  1  0  0  0  0
 30 31  1  0  0  0  0
 32 30  2  0  0  0  0
 32 33  1  0  0  0  0
 34 46  1  0  0  0  0
 34 26  1  0  0  0  0
 35 34  1  0  0  0  0
 36 34  1  0  0  0  0
 37 52  1  0  0  0  0
 37 23  1  0  0  0  0
 38 37  1  0  0  0  0
 39 37  1  0  0  0  0
 40 41  1  0  0  0  0
 40 49  1  0  0  0  0
 42 40  1  0  0  0  0
 43 45  1  0  0  0  0
 43 58  1  0  0  0  0
 44 43  1  0  0  0  0
 46 48  1  0  0  0  0
 46 55  1  0  0  0  0
 47 46  1  0  0  0  0
 49 51  1  0  0  0  0
 49 50  1  0  0  0  0
 52 54  1  0  0  0  0
 52 40  1  0  0  0  0
 53 52  1  0  0  0  0
 55 56  1  0  0  0  0
 55 58  1  0  0  0  0
 57 55  1  0  0  0  0
 58 59  1  0  0  0  0
 58 60  1  0  0  0  0
M  END
