1,3
 OpenBabel05122313053D

 34 36  0  0  0  0  0  0  0  0999 V2000
   -1.0905    1.4069   -0.6341 P   0  0  0  0  0  0  0  0  0  0  0  0
   -0.6455    1.1537   -2.2432 O   0  0  0  0  0  0  0  0  0  0  0  0
   -0.5180   -1.1907   -1.5722 C   0  0  0  0  0  3  0  0  0  0  0  0
   -0.3432   -2.5240   -1.9976 C   0  0  0  0  0  0  0  0  0  0  0  0
   -0.3556   -3.3181   -1.2352 H   0  0  0  0  0  0  0  0  0  0  0  0
   -0.1100   -2.8426   -3.3477 C   0  0  0  0  0  0  0  0  0  0  0  0
    0.0291   -3.8939   -3.6431 H   0  0  0  0  0  0  0  0  0  0  0  0
   -0.0302   -1.8233   -4.3093 C   0  0  0  0  0  0  0  0  0  0  0  0
    0.1649   -2.0641   -5.3653 H   0  0  0  0  0  0  0  0  0  0  0  0
   -0.2053   -0.4834   -3.9243 C   0  0  0  0  0  0  0  0  0  0  0  0
   -0.1586    0.3369   -4.6557 H   0  0  0  0  0  0  0  0  0  0  0  0
   -0.4567   -0.1874   -2.5770 C   0  0  0  0  0  0  0  0  0  0  0  0
   -0.1018    2.8599   -0.1521 C   0  0  0  0  0  0  0  0  0  0  0  0
    0.4172    3.7276   -1.1330 C   0  0  0  0  0  0  0  0  0  0  0  0
    0.2433    3.5178   -2.1983 H   0  0  0  0  0  0  0  0  0  0  0  0
    1.1684    4.8431   -0.7392 C   0  0  0  0  0  0  0  0  0  0  0  0
    1.5876    5.5156   -1.5030 H   0  0  0  0  0  0  0  0  0  0  0  0
    1.3907    5.0994    0.6249 C   0  0  0  0  0  0  0  0  0  0  0  0
    1.9829    5.9761    0.9287 H   0  0  0  0  0  0  0  0  0  0  0  0
    0.8607    4.2370    1.5970 C   0  0  0  0  0  0  0  0  0  0  0  0
    1.0406    4.4280    2.6659 H   0  0  0  0  0  0  0  0  0  0  0  0
    0.1147    3.1108    1.2164 C   0  0  0  0  0  0  0  0  0  0  0  0
   -0.2845    2.4114    1.9719 H   0  0  0  0  0  0  0  0  0  0  0  0
   -2.7825    2.0765   -0.7913 C   0  0  0  0  0  0  0  0  0  0  0  0
   -3.4859    2.3936    0.3897 C   0  0  0  0  0  0  0  0  0  0  0  0
   -3.0220    2.2008    1.3717 H   0  0  0  0  0  0  0  0  0  0  0  0
   -4.7892    2.8984    0.2997 C   0  0  0  0  0  0  0  0  0  0  0  0
   -5.3425    3.1421    1.2193 H   0  0  0  0  0  0  0  0  0  0  0  0
   -5.3937    3.0808   -0.9562 C   0  0  0  0  0  0  0  0  0  0  0  0
   -6.4191    3.4759   -1.0209 H   0  0  0  0  0  0  0  0  0  0  0  0
   -4.6942    2.7520   -2.1275 C   0  0  0  0  0  0  0  0  0  0  0  0
   -5.1687    2.8885   -3.1113 H   0  0  0  0  0  0  0  0  0  0  0  0
   -3.3858    2.2483   -2.0503 C   0  0  0  0  0  0  0  0  0  0  0  0
   -2.8281    1.9863   -2.9612 H   0  0  0  0  0  0  0  0  0  0  0  0
  1 13  1  0  0  0  0
  2  1  1  0  0  0  0
  4  3  1  0  0  0  0
  4  5  1  0  0  0  0
  6  4  2  0  0  0  0
  7  6  1  0  0  0  0
  8 10  2  0  0  0  0
  8  6  1  0  0  0  0
  9  8  1  0  0  0  0
 10 12  1  0  0  0  0
 11 10  1  0  0  0  0
 12  2  1  0  0  0  0
 12  3  2  0  0  0  0
 13 22  1  0  0  0  0
 14 16  1  0  0  0  0
 14 13  2  0  0  0  0
 15 14  1  0  0  0  0
 16 18  2  0  0  0  0
 17 16  1  0  0  0  0
 18 19  1  0  0  0  0
 18 20  1  0  0  0  0
 20 21  1  0  0  0  0
 22 20  2  0  0  0  0
 22 23  1  0  0  0  0
 24  1  1  0  0  0  0
 24 25  1  0  0  0  0
 25 26  1  0  0  0  0
 27 25  2  0  0  0  0
 27 28  1  0  0  0  0
 29 27  1  0  0  0  0
 30 29  1  0  0  0  0
 31 33  1  0  0  0  0
 31 29  2  0  0  0  0
 32 31  1  0  0  0  0
 33 24  2  0  0  0  0
 34 33  1  0  0  0  0
M  END
