2,10
 OpenBabel05122313053D

 64 64  0  0  0  0  0  0  0  0999 V2000
    2.1052   -0.0330   -0.0474 P   0  0  0  0  0  4  0  0  0  0  0  0
   -1.5156    0.6017   -0.0248 P   0  0  0  0  0  0  0  0  0  0  0  0
    1.2064    1.4494    0.5038 C   0  0  0  0  0  0  0  0  0  0  0  0
   -0.1517    1.7532    0.3738 N   0  0  0  0  0  0  0  0  0  0  0  0
   -0.2583    3.0915    0.7235 C   0  0  0  0  0  0  0  0  0  0  0  0
   -1.2107    3.6198    0.6954 H   0  0  0  0  0  0  0  0  0  0  0  0
    1.0065    3.5243    1.0831 C   0  0  0  0  0  0  0  0  0  0  0  0
    1.3112    4.5198    1.4290 H   0  0  0  0  0  0  0  0  0  0  0  0
    1.9024    2.4993    0.9433 N   0  0  0  0  0  0  0  0  0  0  0  0
    1.1142   -0.9550   -1.2053 C   0  0  0  0  0  3  0  0  0  0  0  0
    1.7257   -1.8205   -1.5275 H   0  0  0  0  0  0  0  0  0  0  0  0
    0.9583   -0.3027   -2.0876 H   0  0  0  0  0  0  0  0  0  0  0  0
    2.5004   -1.0818    1.4813 C   0  0  0  0  0  0  0  0  0  0  0  0
    2.8636   -2.5068    1.0290 C   0  0  0  0  0  0  0  0  0  0  0  0
    3.1013   -3.1083    1.9308 H   0  0  0  0  0  0  0  0  0  0  0  0
    3.7520   -2.5343    0.3690 H   0  0  0  0  0  0  0  0  0  0  0  0
    2.0152   -2.9953    0.5135 H   0  0  0  0  0  0  0  0  0  0  0  0
    1.2242   -1.1293    2.3373 C   0  0  0  0  0  0  0  0  0  0  0  0
    1.3954   -1.8233    3.1863 H   0  0  0  0  0  0  0  0  0  0  0  0
    0.3530   -1.5020    1.7539 H   0  0  0  0  0  0  0  0  0  0  0  0
    0.9790   -0.1334    2.7552 H   0  0  0  0  0  0  0  0  0  0  0  0
    3.6332   -0.4498    2.3052 C   0  0  0  0  0  0  0  0  0  0  0  0
    3.4572    0.6272    2.4968 H   0  0  0  0  0  0  0  0  0  0  0  0
    4.6208   -0.5687    1.8224 H   0  0  0  0  0  0  0  0  0  0  0  0
    3.6800   -0.9673    3.2857 H   0  0  0  0  0  0  0  0  0  0  0  0
    3.6454    0.6590   -0.9704 C   0  0  0  0  0  0  0  0  0  0  0  0
    4.6391    1.4632   -0.1142 C   0  0  0  0  0  0  0  0  0  0  0  0
    5.2309    0.8197    0.5603 H   0  0  0  0  0  0  0  0  0  0  0  0
    4.1195    2.2365    0.4802 H   0  0  0  0  0  0  0  0  0  0  0  0
    5.3553    1.9623   -0.8010 H   0  0  0  0  0  0  0  0  0  0  0  0
    4.3695   -0.5339   -1.6229 C   0  0  0  0  0  0  0  0  0  0  0  0
    5.1922   -0.1420   -2.2564 H   0  0  0  0  0  0  0  0  0  0  0  0
    3.7041   -1.1353   -2.2721 H   0  0  0  0  0  0  0  0  0  0  0  0
    4.8276   -1.2052   -0.8705 H   0  0  0  0  0  0  0  0  0  0  0  0
    3.0809    1.5844   -2.0693 C   0  0  0  0  0  0  0  0  0  0  0  0
    3.9253    1.9344   -2.6987 H   0  0  0  0  0  0  0  0  0  0  0  0
    2.5896    2.4774   -1.6373 H   0  0  0  0  0  0  0  0  0  0  0  0
    2.3632    1.0686   -2.7361 H   0  0  0  0  0  0  0  0  0  0  0  0
   -2.7175    0.8521    1.4704 C   0  0  0  0  0  0  0  0  0  0  0  0
   -2.8602    2.2649    2.0577 C   0  0  0  0  0  0  0  0  0  0  0  0
   -3.1936    3.0195    1.3200 H   0  0  0  0  0  0  0  0  0  0  0  0
   -1.9322    2.6184    2.5453 H   0  0  0  0  0  0  0  0  0  0  0  0
   -3.6417    2.2188    2.8456 H   0  0  0  0  0  0  0  0  0  0  0  0
   -2.1747   -0.0779    2.5720 C   0  0  0  0  0  0  0  0  0  0  0  0
   -2.8577   -0.0286    3.4466 H   0  0  0  0  0  0  0  0  0  0  0  0
   -1.1711    0.2413    2.9144 H   0  0  0  0  0  0  0  0  0  0  0  0
   -2.1344   -1.1275    2.2187 H   0  0  0  0  0  0  0  0  0  0  0  0
   -4.1075    0.3512    1.0270 C   0  0  0  0  0  0  0  0  0  0  0  0
   -4.0475   -0.6620    0.5798 H   0  0  0  0  0  0  0  0  0  0  0  0
   -4.6051    1.0508    0.3278 H   0  0  0  0  0  0  0  0  0  0  0  0
   -4.7469    0.2818    1.9326 H   0  0  0  0  0  0  0  0  0  0  0  0
   -2.2304    1.4226   -1.6078 C   0  0  0  0  0  0  0  0  0  0  0  0
   -2.9912    2.7423   -1.4140 C   0  0  0  0  0  0  0  0  0  0  0  0
   -2.3414    3.5569   -1.0394 H   0  0  0  0  0  0  0  0  0  0  0  0
   -3.8599    2.6385   -0.7376 H   0  0  0  0  0  0  0  0  0  0  0  0
   -3.3825    3.0747   -2.3994 H   0  0  0  0  0  0  0  0  0  0  0  0
   -3.1567    0.3624   -2.2418 C   0  0  0  0  0  0  0  0  0  0  0  0
   -3.4632    0.7137   -3.2499 H   0  0  0  0  0  0  0  0  0  0  0  0
   -4.0720    0.1866   -1.6487 H   0  0  0  0  0  0  0  0  0  0  0  0
   -2.6393   -0.6130   -2.3461 H   0  0  0  0  0  0  0  0  0  0  0  0
   -1.0456    1.6586   -2.5629 C   0  0  0  0  0  0  0  0  0  0  0  0
   -1.4324    2.0872   -3.5112 H   0  0  0  0  0  0  0  0  0  0  0  0
   -0.5394    0.7064   -2.8118 H   0  0  0  0  0  0  0  0  0  0  0  0
   -0.2980    2.3662   -2.1525 H   0  0  0  0  0  0  0  0  0  0  0  0
  1  3  1  0  0  0  0
  1 13  1  0  0  0  0
  2  4  1  0  0  0  0
  2 39  1  0  0  0  0
  3  9  2  0  0  0  0
  4  3  1  0  0  0  0
  4  5  1  0  0  0  0
  5  7  2  0  0  0  0
  6  5  1  0  0  0  0
  7  8  1  0  0  0  0
  9  7  1  0  0  0  0
 10  1  1  0  0  0  0
 11 10  1  0  0  0  0
 12 10  1  0  0  0  0
 13 22  1  0  0  0  0
 13 18  1  0  0  0  0
 14 13  1  0  0  0  0
 14 15  1  0  0  0  0
 16 14  1  0  0  0  0
 17 14  1  0  0  0  0
 18 21  1  0  0  0  0
 18 19  1  0  0  0  0
 20 18  1  0  0  0  0
 22 23  1  0  0  0  0
 22 25  1  0  0  0  0
 24 22  1  0  0  0  0
 26 27  1  0  0  0  0
 26  1  1  0  0  0  0
 27 29  1  0  0  0  0
 27 28  1  0  0  0  0
 30 27  1  0  0  0  0
 31 26  1  0  0  0  0
 31 34  1  0  0  0  0
 32 31  1  0  0  0  0
 33 31  1  0  0  0  0
 35 37  1  0  0  0  0
 35 26  1  0  0  0  0
 36 35  1  0  0  0  0
 38 35  1  0  0  0  0
 39 40  1  0  0  0  0
 39 44  1  0  0  0  0
 40 42  1  0  0  0  0
 40 43  1  0  0  0  0
 41 40  1  0  0  0  0
 44 46  1  0  0  0  0
 44 45  1  0  0  0  0
 47 44  1  0  0  0  0
 48 39  1  0  0  0  0
 48 51  1  0  0  0  0
 49 48  1  0  0  0  0
 50 48  1  0  0  0  0
 52 53  1  0  0  0  0
 52  2  1  0  0  0  0
 53 54  1  0  0  0  0
 53 55  1  0  0  0  0
 56 53  1  0  0  0  0
 57 59  1  0  0  0  0
 57 52  1  0  0  0  0
 58 57  1  0  0  0  0
 60 57  1  0  0  0  0
 61 64  1  0  0  0  0
 61 52  1  0  0  0  0
 62 61  1  0  0  0  0
 63 61  1  0  0  0  0
M  END
