1,2
 OpenBabel05122313053D

 38 38  0  0  0  0  0  0  0  0999 V2000
   -0.1852    1.5641   -0.1459 P   0  0  0  0  0  0  0  0  0  0  0  0
    0.2107   -0.0983    1.5722 C   0  0  0  0  0  2  0  0  0  0  0  0
    0.3227    1.2905    1.5800 N   0  0  0  0  0  0  0  0  0  0  0  0
    0.5852    1.7729    2.8553 C   0  0  0  0  0  0  0  0  0  0  0  0
    0.7089    2.8334    3.0936 H   0  0  0  0  0  0  0  0  0  0  0  0
    0.6646    0.6647    3.6666 C   0  0  0  0  0  0  0  0  0  0  0  0
    0.8749    0.5848    4.7384 H   0  0  0  0  0  0  0  0  0  0  0  0
    0.4335   -0.4663    2.8746 N   0  0  0  0  0  0  0  0  0  0  0  0
    0.4783   -1.8437    3.3392 C   0  0  0  0  0  0  0  0  0  0  0  0
    0.3891   -2.5024    2.4477 H   0  0  0  0  0  0  0  0  0  0  0  0
   -0.3468   -2.0448    4.0533 H   0  0  0  0  0  0  0  0  0  0  0  0
    1.4448   -2.0464    3.8424 H   0  0  0  0  0  0  0  0  0  0  0  0
    1.0238    2.8266   -0.9434 C   0  0  0  0  0  0  0  0  0  0  0  0
    0.3004    3.4869   -2.1344 C   0  0  0  0  0  0  0  0  0  0  0  0
   -0.1004    2.7195   -2.8279 H   0  0  0  0  0  0  0  0  0  0  0  0
    1.0399    4.0901   -2.7019 H   0  0  0  0  0  0  0  0  0  0  0  0
   -0.5187    4.1669   -1.8373 H   0  0  0  0  0  0  0  0  0  0  0  0
    2.2043    2.0329   -1.5316 C   0  0  0  0  0  0  0  0  0  0  0  0
    2.8735    1.6392   -0.7464 H   0  0  0  0  0  0  0  0  0  0  0  0
    2.8046    2.7208   -2.1641 H   0  0  0  0  0  0  0  0  0  0  0  0
    1.8521    1.1874   -2.1560 H   0  0  0  0  0  0  0  0  0  0  0  0
    1.5610    3.8636    0.0549 C   0  0  0  0  0  0  0  0  0  0  0  0
    2.1009    3.3709    0.8882 H   0  0  0  0  0  0  0  0  0  0  0  0
    0.7766    4.5142    0.4816 H   0  0  0  0  0  0  0  0  0  0  0  0
    2.2915    4.5202   -0.4650 H   0  0  0  0  0  0  0  0  0  0  0  0
   -1.8709    2.4514    0.1884 C   0  0  0  0  0  0  0  0  0  0  0  0
   -2.6014    1.6699    1.2974 C   0  0  0  0  0  0  0  0  0  0  0  0
   -2.7110    0.6005    1.0575 H   0  0  0  0  0  0  0  0  0  0  0  0
   -3.6200    2.0968    1.4119 H   0  0  0  0  0  0  0  0  0  0  0  0
   -2.0901    1.7567    2.2756 H   0  0  0  0  0  0  0  0  0  0  0  0
   -2.7060    2.3775   -1.1042 C   0  0  0  0  0  0  0  0  0  0  0  0
   -2.8033    1.3357   -1.4614 H   0  0  0  0  0  0  0  0  0  0  0  0
   -2.2807    2.9798   -1.9267 H   0  0  0  0  0  0  0  0  0  0  0  0
   -3.7278    2.7623   -0.8997 H   0  0  0  0  0  0  0  0  0  0  0  0
   -1.7385    3.9062    0.6673 C   0  0  0  0  0  0  0  0  0  0  0  0
   -1.3020    4.5825   -0.0901 H   0  0  0  0  0  0  0  0  0  0  0  0
   -1.1390    3.9833    1.5964 H   0  0  0  0  0  0  0  0  0  0  0  0
   -2.7530    4.2934    0.9037 H   0  0  0  0  0  0  0  0  0  0  0  0
  1 26  1  0  0  0  0
  1  3  1  0  0  0  0
  2  3  1  0  0  0  0
  2  8  1  0  0  0  0
  3  4  1  0  0  0  0
  4  5  1  0  0  0  0
  4  6  2  0  0  0  0
  6  7  1  0  0  0  0
  8  9  1  0  0  0  0
  8  6  1  0  0  0  0
  9 12  1  0  0  0  0
  9 11  1  0  0  0  0
 10  9  1  0  0  0  0
 13  1  1  0  0  0  0
 13 22  1  0  0  0  0
 14 17  1  0  0  0  0
 14 13  1  0  0  0  0
 15 14  1  0  0  0  0
 16 14  1  0  0  0  0
 18 13  1  0  0  0  0
 18 19  1  0  0  0  0
 20 18  1  0  0  0  0
 21 18  1  0  0  0  0
 22 24  1  0  0  0  0
 22 23  1  0  0  0  0
 25 22  1  0  0  0  0
 26 35  1  0  0  0  0
 26 27  1  0  0  0  0
 27 29  1  0  0  0  0
 27 30  1  0  0  0  0
 28 27  1  0  0  0  0
 31 34  1  0  0  0  0
 31 26  1  0  0  0  0
 32 31  1  0  0  0  0
 33 31  1  0  0  0  0
 35 38  1  0  0  0  0
 35 37  1  0  0  0  0
 36 35  1  0  0  0  0
M  END
