1,5
 OpenBabel05122313053D

 31 30  0  0  0  0  0  0  0  0999 V2000
    2.3126   -0.2372   -0.0308 P   0  0  0  0  0  0  0  0  0  0  0  0
    1.0695   -2.3790   -1.6814 O   0  0  0  0  0  0  0  0  0  0  0  0
    3.0267   -0.9606   -1.5924 C   0  0  0  0  0  0  0  0  0  0  0  0
    1.8935   -1.5231   -2.4602 C   0  0  0  0  0  0  0  0  0  0  0  0
   -0.1386   -1.7915   -1.2293 C   0  0  0  0  0  3  0  0  0  0  0  0
    2.9799   -1.3524    1.3247 C   0  0  0  0  0  0  0  0  0  0  0  0
    2.4191   -2.7737    1.2088 C   0  0  0  0  0  0  0  0  0  0  0  0
    2.6869   -0.7547    2.7057 C   0  0  0  0  0  0  0  0  0  0  0  0
    3.2619    1.3722    0.2008 C   0  0  0  0  0  0  0  0  0  0  0  0
    4.7438    1.1861    0.5488 C   0  0  0  0  0  0  0  0  0  0  0  0
    3.0962    2.2821   -1.0252 C   0  0  0  0  0  0  0  0  0  0  0  0
    3.7464   -1.7599   -1.3194 H   0  0  0  0  0  0  0  0  0  0  0  0
    3.5879   -0.1778   -2.1420 H   0  0  0  0  0  0  0  0  0  0  0  0
    1.2968   -0.6871   -2.8892 H   0  0  0  0  0  0  0  0  0  0  0  0
    2.3169   -2.1255   -3.2933 H   0  0  0  0  0  0  0  0  0  0  0  0
   -0.7593   -1.4974   -2.1094 H   0  0  0  0  0  0  0  0  0  0  0  0
   -0.6458   -2.6083   -0.6766 H   0  0  0  0  0  0  0  0  0  0  0  0
    4.0796   -1.3858    1.1593 H   0  0  0  0  0  0  0  0  0  0  0  0
    2.5543   -3.2067    0.1999 H   0  0  0  0  0  0  0  0  0  0  0  0
    2.9089   -3.4346    1.9540 H   0  0  0  0  0  0  0  0  0  0  0  0
    1.3286   -2.7698    1.4087 H   0  0  0  0  0  0  0  0  0  0  0  0
    3.1429    0.2448    2.8505 H   0  0  0  0  0  0  0  0  0  0  0  0
    1.5914   -0.6507    2.8487 H   0  0  0  0  0  0  0  0  0  0  0  0
    3.0755   -1.4217    3.5032 H   0  0  0  0  0  0  0  0  0  0  0  0
    2.7373    1.8387    1.0638 H   0  0  0  0  0  0  0  0  0  0  0  0
    4.9054    0.6593    1.5089 H   0  0  0  0  0  0  0  0  0  0  0  0
    5.2758    0.6217   -0.2457 H   0  0  0  0  0  0  0  0  0  0  0  0
    5.2379    2.1775    0.6281 H   0  0  0  0  0  0  0  0  0  0  0  0
    2.0534    2.3018   -1.4065 H   0  0  0  0  0  0  0  0  0  0  0  0
    3.4158    3.3158   -0.7755 H   0  0  0  0  0  0  0  0  0  0  0  0
    3.7437    1.9423   -1.8604 H   0  0  0  0  0  0  0  0  0  0  0  0
  1  9  1  0  0  0  0
  1  6  1  0  0  0  0
  2  5  1  0  0  0  0
  3 12  1  0  0  0  0
  3  1  1  0  0  0  0
  4  2  1  0  0  0  0
  4  3  1  0  0  0  0
  5 17  1  0  0  0  0
  6  8  1  0  0  0  0
  7  6  1  0  0  0  0
  7 21  1  0  0  0  0
  7 20  1  0  0  0  0
  8 23  1  0  0  0  0
  8 22  1  0  0  0  0
  8 24  1  0  0  0  0
  9 10  1  0  0  0  0
  9 25  1  0  0  0  0
 10 28  1  0  0  0  0
 10 26  1  0  0  0  0
 11 30  1  0  0  0  0
 11  9  1  0  0  0  0
 13  3  1  0  0  0  0
 14  4  1  0  0  0  0
 15  4  1  0  0  0  0
 16  5  1  0  0  0  0
 18  6  1  0  0  0  0
 19  7  1  0  0  0  0
 27 10  1  0  0  0  0
 29 11  1  0  0  0  0
 31 11  1  0  0  0  0
M  END
