2,26
 OpenBabel05122313053D

 77 82  0  0  0  0  0  0  0  0999 V2000
    2.5536   -1.1748    0.3477 P   0  0  0  0  0  4  0  0  0  0  0  0
    0.4731    1.7230    0.7440 P   0  0  0  0  0  0  0  0  0  0  0  0
    0.2283   -1.5830    1.8205 O   0  0  0  0  0  0  0  0  0  0  0  0
   -5.7965   -1.5038   -0.5371 C   0  0  0  0  0  0  0  0  0  0  0  0
   -6.3656   -2.0510   -1.7100 C   0  0  0  0  0  0  0  0  0  0  0  0
   -5.7211   -2.5853   -2.4239 H   0  0  0  0  0  0  0  0  0  0  0  0
   -7.7406   -1.9484   -1.9586 C   0  0  0  0  0  0  0  0  0  0  0  0
   -8.1629   -2.3901   -2.8740 H   0  0  0  0  0  0  0  0  0  0  0  0
   -8.5788   -1.2921   -1.0429 C   0  0  0  0  0  0  0  0  0  0  0  0
   -9.6584   -1.2094   -1.2401 H   0  0  0  0  0  0  0  0  0  0  0  0
   -8.0287   -0.7401    0.1251 C   0  0  0  0  0  0  0  0  0  0  0  0
   -8.6755   -0.2141    0.8440 H   0  0  0  0  0  0  0  0  0  0  0  0
   -6.6543   -0.8463    0.3756 C   0  0  0  0  0  0  0  0  0  0  0  0
   -6.2269   -0.3876    1.2802 H   0  0  0  0  0  0  0  0  0  0  0  0
   -4.3411   -1.5996   -0.2727 C   0  0  0  0  0  0  0  0  0  0  0  0
   -3.4010   -1.5350   -1.3274 C   0  0  0  0  0  0  0  0  0  0  0  0
   -3.7510   -1.4104   -2.3627 H   0  0  0  0  0  0  0  0  0  0  0  0
   -2.0256   -1.5543   -1.0783 C   0  0  0  0  0  0  0  0  0  0  0  0
   -1.3281   -1.4409   -1.9243 H   0  0  0  0  0  0  0  0  0  0  0  0
   -1.5485   -1.6435    0.2480 C   0  0  0  0  0  0  0  0  0  0  0  0
   -2.4800   -1.7533    1.3037 C   0  0  0  0  0  0  0  0  0  0  0  0
   -2.0922   -1.8286    2.3294 H   0  0  0  0  0  0  0  0  0  0  0  0
   -3.8500   -1.7286    1.0487 C   0  0  0  0  0  0  0  0  0  0  0  0
   -4.5597   -1.8137    1.8848 H   0  0  0  0  0  0  0  0  0  0  0  0
   -0.1090   -1.5267    0.6199 C   0  0  0  0  0  0  0  0  0  0  0  0
    0.9230   -1.2232   -0.4145 C   0  0  0  0  0  3  0  0  0  0  0  0
    0.9071   -1.8364   -1.3382 H   0  0  0  0  0  0  0  0  0  0  0  0
    2.9619   -2.6624    1.3335 C   0  0  0  0  0  0  0  0  0  0  0  0
    2.8909   -2.6801    2.7396 C   0  0  0  0  0  0  0  0  0  0  0  0
    2.5900   -1.7794    3.2921 H   0  0  0  0  0  0  0  0  0  0  0  0
    3.1795   -3.8603    3.4387 C   0  0  0  0  0  0  0  0  0  0  0  0
    3.1255   -3.8687    4.5376 H   0  0  0  0  0  0  0  0  0  0  0  0
    3.5210   -5.0299    2.7407 C   0  0  0  0  0  0  0  0  0  0  0  0
    3.7411   -5.9559    3.2931 H   0  0  0  0  0  0  0  0  0  0  0  0
    3.5773   -5.0188    1.3380 C   0  0  0  0  0  0  0  0  0  0  0  0
    3.8413   -5.9336    0.7867 H   0  0  0  0  0  0  0  0  0  0  0  0
    3.3021   -3.8383    0.6333 C   0  0  0  0  0  0  0  0  0  0  0  0
    3.3603   -3.8287   -0.4662 H   0  0  0  0  0  0  0  0  0  0  0  0
    3.8793   -1.0981   -0.8994 C   0  0  0  0  0  0  0  0  0  0  0  0
    5.2081   -1.2266   -0.4333 C   0  0  0  0  0  0  0  0  0  0  0  0
    5.4088   -1.4264    0.6311 H   0  0  0  0  0  0  0  0  0  0  0  0
    6.2772   -1.1170   -1.3311 C   0  0  0  0  0  0  0  0  0  0  0  0
    7.3101   -1.2162   -0.9646 H   0  0  0  0  0  0  0  0  0  0  0  0
    6.0277   -0.8884   -2.6953 C   0  0  0  0  0  0  0  0  0  0  0  0
    6.8688   -0.8049   -3.4005 H   0  0  0  0  0  0  0  0  0  0  0  0
    4.7086   -0.7711   -3.1561 C   0  0  0  0  0  0  0  0  0  0  0  0
    4.5032   -0.5953   -4.2227 H   0  0  0  0  0  0  0  0  0  0  0  0
    3.6266   -0.8699   -2.2656 C   0  0  0  0  0  0  0  0  0  0  0  0
    2.5964   -0.7615   -2.6510 H   0  0  0  0  0  0  0  0  0  0  0  0
    2.8223    0.3329    1.3960 C   0  0  0  0  0  0  0  0  0  0  0  0
    3.5768    0.0464    2.1578 H   0  0  0  0  0  0  0  0  0  0  0  0
    3.3170    1.0544    0.7125 H   0  0  0  0  0  0  0  0  0  0  0  0
    1.5851    0.9566    2.0427 C   0  0  0  0  0  0  0  0  0  0  0  0
    1.8946    1.7678    2.7316 H   0  0  0  0  0  0  0  0  0  0  0  0
    1.0118    0.1971    2.6029 H   0  0  0  0  0  0  0  0  0  0  0  0
    1.0785    3.4554    0.7671 C   0  0  0  0  0  0  0  0  0  0  0  0
    2.1208    3.8237   -0.1071 C   0  0  0  0  0  0  0  0  0  0  0  0
    2.4611    3.1123   -0.8748 H   0  0  0  0  0  0  0  0  0  0  0  0
    2.6797    5.1066   -0.0237 C   0  0  0  0  0  0  0  0  0  0  0  0
    3.4887    5.3934   -0.7124 H   0  0  0  0  0  0  0  0  0  0  0  0
    2.1908    6.0307    0.9145 C   0  0  0  0  0  0  0  0  0  0  0  0
    2.6219    7.0420    0.9675 H   0  0  0  0  0  0  0  0  0  0  0  0
    1.1414    5.6692    1.7738 C   0  0  0  0  0  0  0  0  0  0  0  0
    0.7455    6.3960    2.4996 H   0  0  0  0  0  0  0  0  0  0  0  0
    0.5862    4.3817    1.7058 C   0  0  0  0  0  0  0  0  0  0  0  0
   -0.2422    4.1011    2.3746 H   0  0  0  0  0  0  0  0  0  0  0  0
   -1.2084    1.7224    1.4761 C   0  0  0  0  0  0  0  0  0  0  0  0
   -2.2964    1.9303    0.5989 C   0  0  0  0  0  0  0  0  0  0  0  0
   -2.0963    2.1306   -0.4671 H   0  0  0  0  0  0  0  0  0  0  0  0
   -3.6080    1.8719    1.0880 C   0  0  0  0  0  0  0  0  0  0  0  0
   -4.4511    2.0169    0.3960 H   0  0  0  0  0  0  0  0  0  0  0  0
   -3.8464    1.6096    2.4471 C   0  0  0  0  0  0  0  0  0  0  0  0
   -4.8790    1.5575    2.8261 H   0  0  0  0  0  0  0  0  0  0  0  0
   -2.7682    1.4079    3.3218 C   0  0  0  0  0  0  0  0  0  0  0  0
   -2.9501    1.2001    4.3872 H   0  0  0  0  0  0  0  0  0  0  0  0
   -1.4506    1.4613    2.8403 C   0  0  0  0  0  0  0  0  0  0  0  0
   -0.6175    1.2908    3.5372 H   0  0  0  0  0  0  0  0  0  0  0  0
  1 28  1  0  0  0  0
  1 50  1  0  0  0  0
  2 56  1  0  0  0  0
  2 67  1  0  0  0  0
  2 53  1  0  0  0  0
  4 15  1  0  0  0  0
  4 13  1  0  0  0  0
  5  4  2  0  0  0  0
  6  5  1  0  0  0  0
  7  5  1  0  0  0  0
  7  9  2  0  0  0  0
  8  7  1  0  0  0  0
  9 11  1  0  0  0  0
 10  9  1  0  0  0  0
 11 13  2  0  0  0  0
 11 12  1  0  0  0  0
 13 14  1  0  0  0  0
 15 23  1  0  0  0  0
 16 18  1  0  0  0  0
 16 15  2  0  0  0  0
 17 16  1  0  0  0  0
 18 20  2  0  0  0  0
 19 18  1  0  0  0  0
 20 25  1  0  0  0  0
 20 21  1  0  0  0  0
 21 22  1  0  0  0  0
 23 21  2  0  0  0  0
 23 24  1  0  0  0  0
 25  3  2  0  0  0  0
 26  1  1  0  0  0  0
 26 25  1  0  0  0  0
 27 26  1  0  0  0  0
 28 29  1  0  0  0  0
 29 30  1  0  0  0  0
 29 31  2  0  0  0  0
 31 32  1  0  0  0  0
 33 34  1  0  0  0  0
 33 31  1  0  0  0  0
 35 33  2  0  0  0  0
 36 35  1  0  0  0  0
 37 28  2  0  0  0  0
 37 35  1  0  0  0  0
 38 37  1  0  0  0  0
 39 40  1  0  0  0  0
 39  1  1  0  0  0  0
 40 41  1  0  0  0  0
 42 43  1  0  0  0  0
 42 40  2  0  0  0  0
 44 42  1  0  0  0  0
 45 44  1  0  0  0  0
 46 44  2  0  0  0  0
 46 48  1  0  0  0  0
 47 46  1  0  0  0  0
 48 39  2  0  0  0  0
 49 48  1  0  0  0  0
 50 53  1  0  0  0  0
 50 51  1  0  0  0  0
 52 50  1  0  0  0  0
 53 55  1  0  0  0  0
 53 54  1  0  0  0  0
 56 65  1  0  0  0  0
 57 59  1  0  0  0  0
 57 56  2  0  0  0  0
 58 57  1  0  0  0  0
 59 61  2  0  0  0  0
 60 59  1  0  0  0  0
 61 62  1  0  0  0  0
 61 63  1  0  0  0  0
 63 64  1  0  0  0  0
 65 63  2  0  0  0  0
 65 66  1  0  0  0  0
 67 76  1  0  0  0  0
 68 70  1  0  0  0  0
 68 67  2  0  0  0  0
 69 68  1  0  0  0  0
 70 72  2  0  0  0  0
 71 70  1  0  0  0  0
 72 73  1  0  0  0  0
 72 74  1  0  0  0  0
 74 75  1  0  0  0  0
 76 74  2  0  0  0  0
 76 77  1  0  0  0  0
M  END
