1,4
 OpenBabel05122313053D

 38 40  0  0  0  0  0  0  0  0999 V2000
   -2.1114    1.0286   -0.4791 P   0  0  1  0  0  0  0  0  0  0  0  0
   -6.2380   -0.2844   -0.5566 N   0  0  0  0  0  0  0  0  0  0  0  0
   -1.1777    1.8907   -1.7729 C   0  0  0  0  0  0  0  0  0  0  0  0
    0.1157    1.3196   -1.6386 C   0  0  0  0  0  3  0  0  0  0  0  0
    1.1230    1.7371   -2.5265 C   0  0  0  0  0  0  0  0  0  0  0  0
    0.8185    2.7042   -3.5018 C   0  0  0  0  0  0  0  0  0  0  0  0
   -0.4711    3.2653   -3.6038 C   0  0  0  0  0  0  0  0  0  0  0  0
   -1.4959    2.8635   -2.7334 C   0  0  0  0  0  0  0  0  0  0  0  0
   -2.8514    2.1372    0.7528 C   0  0  0  0  0  0  0  0  0  0  0  0
   -4.2482    2.2048    0.9513 C   0  0  0  0  0  0  0  0  0  0  0  0
   -4.7601    3.1026    1.9017 C   0  0  0  0  0  0  0  0  0  0  0  0
   -3.8984    3.9233    2.6451 C   0  0  0  0  0  0  0  0  0  0  0  0
   -2.5087    3.8506    2.4464 C   0  0  0  0  0  0  0  0  0  0  0  0
   -1.9824    2.9570    1.5064 C   0  0  0  0  0  0  0  0  0  0  0  0
   -3.4277   -0.0371   -1.1691 C   0  0  0  0  0  0  0  0  0  0  0  0
   -3.9770   -1.0638   -0.1602 C   0  0  0  0  0  0  0  0  0  0  0  0
   -5.4429   -1.3631   -0.4104 C   0  0  0  0  0  0  0  0  0  0  0  0
   -5.9431   -2.6764   -0.4612 C   0  0  0  0  0  0  0  0  0  0  0  0
   -7.3173   -2.8683   -0.6665 C   0  0  0  0  0  0  0  0  0  0  0  0
   -8.1430   -1.7457   -0.8150 C   0  0  0  0  0  0  0  0  0  0  0  0
   -7.5514   -0.4739   -0.7521 C   0  0  0  0  0  0  0  0  0  0  0  0
    2.1394    1.3175   -2.4707 H   0  0  0  0  0  0  0  0  0  0  0  0
    1.6024    3.0330   -4.2019 H   0  0  0  0  0  0  0  0  0  0  0  0
   -0.6746    4.0234   -4.3749 H   0  0  0  0  0  0  0  0  0  0  0  0
   -2.5046    3.2983   -2.8053 H   0  0  0  0  0  0  0  0  0  0  0  0
   -4.9465    1.5653    0.3840 H   0  0  0  0  0  0  0  0  0  0  0  0
   -5.8477    3.1574    2.0590 H   0  0  0  0  0  0  0  0  0  0  0  0
   -4.3103    4.6229    3.3878 H   0  0  0  0  0  0  0  0  0  0  0  0
   -1.8323    4.4921    3.0304 H   0  0  0  0  0  0  0  0  0  0  0  0
   -0.8934    2.8951    1.3512 H   0  0  0  0  0  0  0  0  0  0  0  0
   -5.2642   -3.5343   -0.3423 H   0  0  0  0  0  0  0  0  0  0  0  0
   -7.7370   -3.8845   -0.7137 H   0  0  0  0  0  0  0  0  0  0  0  0
   -9.2253   -1.8486   -0.9801 H   0  0  0  0  0  0  0  0  0  0  0  0
   -8.1667    0.4355   -0.8660 H   0  0  0  0  0  0  0  0  0  0  0  0
   -3.0071   -0.5204   -2.0733 H   0  0  0  0  0  0  0  0  0  0  0  0
   -4.2498    0.6354   -1.4987 H   0  0  0  0  0  0  0  0  0  0  0  0
   -3.8961   -0.6590    0.8733 H   0  0  0  0  0  0  0  0  0  0  0  0
   -3.3735   -1.9918   -0.1751 H   0  0  0  0  0  0  0  0  0  0  0  0
  1 15  1  6  0  0  0
  1  9  1  0  0  0  0
  2 17  1  0  0  0  0
  3  4  1  0  0  0  0
  3  1  1  0  0  0  0
  5 22  1  0  0  0  0
  5  4  2  0  0  0  0
  6  5  1  0  0  0  0
  7  6  2  0  0  0  0
  7  8  1  0  0  0  0
  8  3  2  0  0  0  0
  9 10  2  0  0  0  0
  9 14  1  0  0  0  0
 10 11  1  0  0  0  0
 11 27  1  0  0  0  0
 11 12  2  0  0  0  0
 12 28  1  0  0  0  0
 13 12  1  0  0  0  0
 13 29  1  0  0  0  0
 14 13  2  0  0  0  0
 15 16  1  0  0  0  0
 16 37  1  0  0  0  0
 17 16  1  0  0  0  0
 18 17  2  0  0  0  0
 18 31  1  0  0  0  0
 19 18  1  0  0  0  0
 20 21  1  0  0  0  0
 20 19  2  0  0  0  0
 21  2  2  0  0  0  0
 23  6  1  0  0  0  0
 24  7  1  0  0  0  0
 25  8  1  0  0  0  0
 26 10  1  0  0  0  0
 30 14  1  0  0  0  0
 32 19  1  0  0  0  0
 33 20  1  0  0  0  0
 34 21  1  0  0  0  0
 35 15  1  0  0  0  0
 36 15  1  0  0  0  0
 38 16  1  0  0  0  0
M  END
