1,3
q = 0.0, confidence = 0.992

 29 28  0  0  0  0  0  0  0  0999 V2000
   -2.9050   -0.6440    0.1410 P   0  0  0  0  0  0  0  0  0  0  0  0
   -2.1088   -2.3275    0.1502 C   0  0  0  0  0  0  0  0  0  0  0  0
   -0.7028   -1.8036    0.3056 C   0  0  0  0  0  2  0  0  0  0  0  0
   -0.1285   -2.0719    1.6497 C   0  0  0  0  0  0  0  0  0  0  0  0
   -3.6811   -0.3677    1.7828 C   0  0  0  0  0  0  0  0  0  0  0  0
   -4.8581   -1.2867    2.1249 C   0  0  0  0  0  0  0  0  0  0  0  0
   -5.3762   -1.0492    3.5455 C   0  0  0  0  0  0  0  0  0  0  0  0
   -4.2166   -0.5801   -1.1430 C   0  0  0  0  0  0  0  0  0  0  0  0
   -4.7569    0.8380   -1.3595 C   0  0  0  0  0  0  0  0  0  0  0  0
   -5.8036    0.8929   -2.4730 C   0  0  0  0  0  0  0  0  0  0  0  0
   -2.2965   -2.7364   -0.8672 H   0  0  0  0  0  0  0  0  0  0  0  0
   -2.5262   -3.0147    0.9290 H   0  0  0  0  0  0  0  0  0  0  0  0
    0.7519   -1.4452    1.8897 H   0  0  0  0  0  0  0  0  0  0  0  0
    0.2445   -3.1227    1.5399 H   0  0  0  0  0  0  0  0  0  0  0  0
   -0.8329   -2.0883    2.5204 H   0  0  0  0  0  0  0  0  0  0  0  0
   -3.9748    0.7032    1.8102 H   0  0  0  0  0  0  0  0  0  0  0  0
   -2.8483   -0.4512    2.5121 H   0  0  0  0  0  0  0  0  0  0  0  0
   -4.5471   -2.3483    2.0126 H   0  0  0  0  0  0  0  0  0  0  0  0
   -5.6834   -1.1312    1.3970 H   0  0  0  0  0  0  0  0  0  0  0  0
   -6.2291   -1.7168    3.7811 H   0  0  0  0  0  0  0  0  0  0  0  0
   -5.7193   -0.0025    3.6788 H   0  0  0  0  0  0  0  0  0  0  0  0
   -4.5820   -1.2353    4.2973 H   0  0  0  0  0  0  0  0  0  0  0  0
   -5.0155   -1.3001   -0.8608 H   0  0  0  0  0  0  0  0  0  0  0  0
   -3.7210   -0.9401   -2.0678 H   0  0  0  0  0  0  0  0  0  0  0  0
   -3.8950    1.4887   -1.6181 H   0  0  0  0  0  0  0  0  0  0  0  0
   -5.1875    1.2339   -0.4135 H   0  0  0  0  0  0  0  0  0  0  0  0
   -6.1798    1.9251   -2.6199 H   0  0  0  0  0  0  0  0  0  0  0  0
   -6.6766    0.2454   -2.2472 H   0  0  0  0  0  0  0  0  0  0  0  0
   -5.3709    0.5519   -3.4357 H   0  0  0  0  0  0  0  0  0  0  0  0
  1  2  1  0  0  0  0
  1  5  1  0  0  0  0
  2  3  1  0  0  0  0
  2 12  1  0  0  0  0
  3  4  1  0  0  0  0
  4 13  1  0  0  0  0
  4 15  1  0  0  0  0
  5 16  1  0  0  0  0
  5  6  1  0  0  0  0
  5 17  1  0  0  0  0
  6  7  1  0  0  0  0
  7 21  1  0  0  0  0
  7 20  1  0  0  0  0
  7 22  1  0  0  0  0
  8 23  1  0  0  0  0
  8  1  1  0  0  0  0
  9  8  1  0  0  0  0
  9 26  1  0  0  0  0
 10 28  1  0  0  0  0
 10  9  1  0  0  0  0
 11  2  1  0  0  0  0
 14  4  1  0  0  0  0
 18  6  1  0  0  0  0
 19  6  1  0  0  0  0
 24  8  1  0  0  0  0
 25  9  1  0  0  0  0
 27 10  1  0  0  0  0
 29 10  1  0  0  0  0
M  END
