1,9
q = -1.0, confidence = 0.0

 41 44  0  0  1  0  0  0  0  0999 V2000
    1.6713    0.6762    0.1891 P   0  0  1  0  0  0  0  0  0  0  0  0
    3.3130    0.3609   -0.2601 N   0  0  0  0  0  0  0  0  0  0  0  0
    2.0001    0.9691    1.8603 N   0  0  2  0  0  0  0  0  0  0  0  0
    4.1752    1.0131    0.7228 C   0  0  0  0  0  0  0  0  0  0  0  0
    3.4704    0.9077    2.0971 C   0  0  2  0  0  0  0  0  0  0  0  0
    3.6490   -0.4178    2.8517 C   0  0  0  0  0  0  0  0  0  0  0  0
    2.4139   -0.4464    3.7596 C   0  0  0  0  0  0  0  0  0  0  0  0
    1.2958    0.1666    2.8864 C   0  0  0  0  0  0  0  0  0  0  0  0
    2.3703   -1.7790   -0.9411 C   0  0  0  0  0  3  0  0  0  0  0  0
    2.5758   -3.0807   -1.4289 C   0  0  0  0  0  0  0  0  0  0  0  0
    3.8688   -3.5732   -1.6911 C   0  0  0  0  0  0  0  0  0  0  0  0
    4.9847   -2.7507   -1.4870 C   0  0  0  0  0  0  0  0  0  0  0  0
    4.8124   -1.4394   -1.0186 C   0  0  0  0  0  0  0  0  0  0  0  0
    3.5188   -0.9599   -0.7320 C   0  0  0  0  0  0  0  0  0  0  0  0
    1.3515    2.3439   -0.4988 C   0  0  0  0  0  0  0  0  0  0  0  0
    1.3257    3.4527    0.3685 C   0  0  0  0  0  0  0  0  0  0  0  0
    1.0537    4.7368   -0.1236 C   0  0  0  0  0  0  0  0  0  0  0  0
    0.7842    4.9080   -1.4891 C   0  0  0  0  0  0  0  0  0  0  0  0
    0.8143    3.8035   -2.3550 C   0  0  0  0  0  0  0  0  0  0  0  0
    1.1081    2.5059   -1.8921 C   0  0  0  0  0  0  0  0  0  0  0  0
    1.1797    1.3524   -2.8553 C   0  0  0  0  0  0  0  0  0  0  0  0
    3.7832    1.7635    2.7388 H   0  0  0  0  0  0  0  0  0  0  0  0
    1.5005    3.2765    1.4405 H   0  0  0  0  0  0  0  0  0  0  0  0
    0.6130    3.9463   -3.4284 H   0  0  0  0  0  0  0  0  0  0  0  0
    1.6992   -3.7225   -1.6026 H   0  0  0  0  0  0  0  0  0  0  0  0
    0.9370    1.6727   -3.8860 H   0  0  0  0  0  0  0  0  0  0  0  0
    5.1691    0.5279    0.7522 H   0  0  0  0  0  0  0  0  0  0  0  0
    2.1891    0.8925   -2.8547 H   0  0  0  0  0  0  0  0  0  0  0  0
    1.0405    5.5983    0.5613 H   0  0  0  0  0  0  0  0  0  0  0  0
    4.3235    2.0788    0.4468 H   0  0  0  0  0  0  0  0  0  0  0  0
    5.9992   -3.1208   -1.7013 H   0  0  0  0  0  0  0  0  0  0  0  0
    0.4790    0.5365   -2.5686 H   0  0  0  0  0  0  0  0  0  0  0  0
    0.6845   -0.6213    2.3932 H   0  0  0  0  0  0  0  0  0  0  0  0
    4.6072   -0.4740    3.4056 H   0  0  0  0  0  0  0  0  0  0  0  0
    5.6853   -0.7811   -0.8882 H   0  0  0  0  0  0  0  0  0  0  0  0
    0.5538    5.9078   -1.8881 H   0  0  0  0  0  0  0  0  0  0  0  0
    3.9960   -4.6030   -2.0589 H   0  0  0  0  0  0  0  0  0  0  0  0
    2.1550   -1.4629    4.1145 H   0  0  0  0  0  0  0  0  0  0  0  0
    3.6200   -1.2557    2.1222 H   0  0  0  0  0  0  0  0  0  0  0  0
    0.6002    0.7995    3.4749 H   0  0  0  0  0  0  0  0  0  0  0  0
    2.5884    0.1838    4.6567 H   0  0  0  0  0  0  0  0  0  0  0  0
  1 15  1  6  0  0  0
  1  3  1  0  0  0  0
  2  1  1  0  0  0  0
  2  4  1  0  0  0  0
  3  5  1  0  0  0  0
  3  8  1  1  0  0  0
  4 27  1  0  0  0  0
  4  5  1  0  0  0  0
  5 22  1  1  0  0  0
  5  6  1  0  0  0  0
  6 34  1  0  0  0  0
  6  7  1  0  0  0  0
  7 38  1  0  0  0  0
  7 41  1  0  0  0  0
  8 40  1  0  0  0  0
  8  7  1  0  0  0  0
  9 14  1  0  0  0  0
 10  9  2  0  0  0  0
 11 12  2  0  0  0  0
 11 10  1  0  0  0  0
 12 13  1  0  0  0  0
 13 35  1  0  0  0  0
 13 14  2  0  0  0  0
 14  2  1  0  0  0  0
 15 16  1  0  0  0  0
 16 23  1  0  0  0  0
 17 16  2  0  0  0  0
 17 29  1  0  0  0  0
 18 17  1  0  0  0  0
 19 20  1  0  0  0  0
 19 18  2  0  0  0  0
 20 15  2  0  0  0  0
 21 28  1  0  0  0  0
 21 32  1  0  0  0  0
 21 20  1  0  0  0  0
 24 19  1  0  0  0  0
 25 10  1  0  0  0  0
 26 21  1  0  0  0  0
 30  4  1  0  0  0  0
 31 12  1  0  0  0  0
 33  8  1  0  0  0  0
 36 18  1  0  0  0  0
 37 11  1  0  0  0  0
 39  6  1  0  0  0  0
M  END
