1,4
q = -1.0, confidence = 0.0

 19 19  0  0  0  0  0  0  0  0999 V2000
   -0.8222    0.8056    1.8172 P   0  0  1  0  0  0  0  0  0  0  0  0
    1.6170    0.3903    3.2215 N   0  0  0  0  0  2  0  0  0  0  0  0
    2.4141    0.4950    4.0594 N   0  0  0  0  0  1  0  0  0  0  0  0
    0.7943    0.2130    2.2450 C   0  0  0  0  0  2  0  0  0  0  0  0
   -2.0464    0.5659    3.1882 C   0  0  0  0  0  0  0  0  0  0  0  0
   -0.8303    2.6305    1.5838 C   0  0  0  0  0  0  0  0  0  0  0  0
   -2.0300    3.2851    1.2328 C   0  0  0  0  0  0  0  0  0  0  0  0
   -2.0298    4.6573    0.9425 C   0  0  0  0  0  0  0  0  0  0  0  0
   -0.8340    5.3911    1.0016 C   0  0  0  0  0  0  0  0  0  0  0  0
    0.3633    4.7453    1.3504 C   0  0  0  0  0  0  0  0  0  0  0  0
    0.3677    3.3717    1.6360 C   0  0  0  0  0  0  0  0  0  0  0  0
   -3.0759    0.7161    2.8073 H   0  0  0  0  0  0  0  0  0  0  0  0
   -1.8467    1.2765    4.0139 H   0  0  0  0  0  0  0  0  0  0  0  0
   -1.9590   -0.4745    3.5505 H   0  0  0  0  0  0  0  0  0  0  0  0
   -2.9723    2.7192    1.1664 H   0  0  0  0  0  0  0  0  0  0  0  0
   -2.9701    5.1549    0.6599 H   0  0  0  0  0  0  0  0  0  0  0  0
   -0.8348    6.4673    0.7716 H   0  0  0  0  0  0  0  0  0  0  0  0
    1.3042    5.3147    1.3980 H   0  0  0  0  0  0  0  0  0  0  0  0
    1.3092    2.8611    1.8898 H   0  0  0  0  0  0  0  0  0  0  0  0
  1  4  1  1  0  0  0
  1  5  1  0  0  0  0
  2  3  1  0  0  0  0
  4  2  1  0  0  0  0
  5 14  1  0  0  0  0
  5 13  1  0  0  0  0
  6 11  1  0  0  0  0
  6  1  1  0  0  0  0
  7  6  2  0  0  0  0
  8  9  2  0  0  0  0
  8  7  1  0  0  0  0
  9 10  1  0  0  0  0
 10 18  1  0  0  0  0
 10 11  2  0  0  0  0
 11 19  1  0  0  0  0
 12  5  1  0  0  0  0
 15  7  1  0  0  0  0
 16  8  1  0  0  0  0
 17  9  1  0  0  0  0
M  END
