1,3
q = 0.0, confidence = 0.992

 64 66  0  0  0  0  0  0  0  0999 V2000
   -1.0734    0.2036    0.1843 P   0  0  0  0  0  0  0  0  0  0  0  0
    2.4253   -0.0042    0.1113 N   0  0  0  0  0  0  0  0  0  0  0  0
    1.5154    0.0098   -0.8591 C   0  0  0  0  0  2  0  0  0  0  0  0
    1.3060    1.2041   -1.8090 C   0  0  0  0  0  0  0  0  0  0  0  0
    0.5865    2.2816   -0.9749 C   0  0  0  0  0  0  0  0  0  0  0  0
    0.9387    3.6386   -1.1106 C   0  0  0  0  0  0  0  0  0  0  0  0
    1.7729    3.9131   -1.7716 H   0  0  0  0  0  0  0  0  0  0  0  0
    0.2415    4.6515   -0.4365 C   0  0  0  0  0  0  0  0  0  0  0  0
    0.5442    5.7016   -0.5673 H   0  0  0  0  0  0  0  0  0  0  0  0
   -0.8494    4.3260    0.3807 C   0  0  0  0  0  0  0  0  0  0  0  0
   -1.4197    5.1138    0.8950 H   0  0  0  0  0  0  0  0  0  0  0  0
   -1.2174    2.9822    0.5291 C   0  0  0  0  0  0  0  0  0  0  0  0
   -2.0943    2.7261    1.1431 H   0  0  0  0  0  0  0  0  0  0  0  0
   -0.5026    1.9475   -0.1131 C   0  0  0  0  0  0  0  0  0  0  0  0
    3.2324    1.1970    0.4915 C   0  0  0  0  0  0  0  0  0  0  0  0
    2.9871    1.9383   -0.2793 H   0  0  0  0  0  0  0  0  0  0  0  0
    2.7705    1.8469    1.8053 C   0  0  0  0  0  0  0  0  0  0  0  0
    1.6670    1.8750    1.8643 H   0  0  0  0  0  0  0  0  0  0  0  0
    3.1336    2.8942    1.8167 H   0  0  0  0  0  0  0  0  0  0  0  0
    3.1586    1.3457    2.7087 H   0  0  0  0  0  0  0  0  0  0  0  0
    4.7420    0.9642    0.4357 C   0  0  0  0  0  0  0  0  0  0  0  0
    5.0950    0.2897    1.2389 H   0  0  0  0  0  0  0  0  0  0  0  0
    5.2592    1.9357    0.5684 H   0  0  0  0  0  0  0  0  0  0  0  0
    5.0506    0.5389   -0.5388 H   0  0  0  0  0  0  0  0  0  0  0  0
    2.5952   -1.3030    0.8650 C   0  0  0  0  0  0  0  0  0  0  0  0
    1.6371   -1.8288    0.6515 H   0  0  0  0  0  0  0  0  0  0  0  0
    2.7074   -1.1724    2.3813 C   0  0  0  0  0  0  0  0  0  0  0  0
    3.6726   -0.7430    2.7157 H   0  0  0  0  0  0  0  0  0  0  0  0
    2.6456   -2.1951    2.8023 H   0  0  0  0  0  0  0  0  0  0  0  0
    1.8759   -0.5887    2.8172 H   0  0  0  0  0  0  0  0  0  0  0  0
    3.7074   -2.1539    0.2460 C   0  0  0  0  0  0  0  0  0  0  0  0
    3.5158   -2.2928   -0.8363 H   0  0  0  0  0  0  0  0  0  0  0  0
    3.6763   -3.1584    0.7135 H   0  0  0  0  0  0  0  0  0  0  0  0
    4.7179   -1.7349    0.4130 H   0  0  0  0  0  0  0  0  0  0  0  0
    0.3416    0.8082   -2.9684 C   0  0  0  0  0  0  0  0  0  0  0  0
   -0.6489    0.4755   -2.6046 H   0  0  0  0  0  0  0  0  0  0  0  0
    0.7716   -0.0286   -3.5522 H   0  0  0  0  0  0  0  0  0  0  0  0
    0.1937    1.6892   -3.6255 H   0  0  0  0  0  0  0  0  0  0  0  0
    2.6009    1.6417   -2.5424 C   0  0  0  0  0  0  0  0  0  0  0  0
    2.3440    2.2963   -3.3975 H   0  0  0  0  0  0  0  0  0  0  0  0
    3.0827    0.7345   -2.9568 H   0  0  0  0  0  0  0  0  0  0  0  0
    3.3535    2.1779   -1.9374 H   0  0  0  0  0  0  0  0  0  0  0  0
   -0.9003   -0.1157    1.9930 C   0  0  0  0  0  0  0  0  0  0  0  0
   -0.6377    0.8737    2.9612 C   0  0  0  0  0  0  0  0  0  0  0  0
   -0.5545    1.9305    2.6717 H   0  0  0  0  0  0  0  0  0  0  0  0
   -0.4643    0.5135    4.3077 C   0  0  0  0  0  0  0  0  0  0  0  0
   -0.2475    1.2929    5.0540 H   0  0  0  0  0  0  0  0  0  0  0  0
   -0.5664   -0.8299    4.6996 C   0  0  0  0  0  0  0  0  0  0  0  0
   -0.4301   -1.1080    5.7557 H   0  0  0  0  0  0  0  0  0  0  0  0
   -0.8360   -1.8179    3.7379 C   0  0  0  0  0  0  0  0  0  0  0  0
   -0.9130   -2.8746    4.0356 H   0  0  0  0  0  0  0  0  0  0  0  0
   -0.9908   -1.4712    2.3882 C   0  0  0  0  0  0  0  0  0  0  0  0
   -1.1754   -2.2455    1.6202 H   0  0  0  0  0  0  0  0  0  0  0  0
   -2.8725    0.3121   -0.1534 C   0  0  0  0  0  0  0  0  0  0  0  0
   -3.3303    1.1218   -1.2137 C   0  0  0  0  0  0  0  0  0  0  0  0
   -2.6222    1.7440   -1.7813 H   0  0  0  0  0  0  0  0  0  0  0  0
   -4.6918    1.1395   -1.5472 C   0  0  0  0  0  0  0  0  0  0  0  0
   -5.0406    1.7739   -2.3760 H   0  0  0  0  0  0  0  0  0  0  0  0
   -5.6034    0.3501   -0.8285 C   0  0  0  0  0  0  0  0  0  0  0  0
   -6.6719    0.3639   -1.0917 H   0  0  0  0  0  0  0  0  0  0  0  0
   -5.1479   -0.4605    0.2226 C   0  0  0  0  0  0  0  0  0  0  0  0
   -5.8567   -1.0873    0.7843 H   0  0  0  0  0  0  0  0  0  0  0  0
   -3.7869   -0.4894    0.5578 C   0  0  0  0  0  0  0  0  0  0  0  0
   -3.4380   -1.1377    1.3726 H   0  0  0  0  0  0  0  0  0  0  0  0
  1 43  1  0  0  0  0
  2 15  1  0  0  0  0
  2 25  1  0  0  0  0
  3  2  1  0  0  0  0
  4  5  1  0  0  0  0
  4  3  1  0  0  0  0
  5 14  1  0  0  0  0
  6  5  2  0  0  0  0
  6  8  1  0  0  0  0
  7  6  1  0  0  0  0
  8 10  2  0  0  0  0
  9  8  1  0  0  0  0
 10 12  1  0  0  0  0
 10 11  1  0  0  0  0
 12 13  1  0  0  0  0
 14  1  1  0  0  0  0
 14 12  2  0  0  0  0
 15 17  1  0  0  0  0
 16 15  1  0  0  0  0
 17 19  1  0  0  0  0
 17 18  1  0  0  0  0
 17 20  1  0  0  0  0
 21 15  1  0  0  0  0
 21 23  1  0  0  0  0
 21 22  1  0  0  0  0
 24 21  1  0  0  0  0
 25 27  1  0  0  0  0
 26 25  1  0  0  0  0
 27 28  1  0  0  0  0
 27 29  1  0  0  0  0
 27 30  1  0  0  0  0
 31 34  1  0  0  0  0
 31 33  1  0  0  0  0
 31 25  1  0  0  0  0
 32 31  1  0  0  0  0
 35 36  1  0  0  0  0
 35  4  1  0  0  0  0
 37 35  1  0  0  0  0
 38 35  1  0  0  0  0
 39 42  1  0  0  0  0
 39  4  1  0  0  0  0
 40 39  1  0  0  0  0
 41 39  1  0  0  0  0
 43 52  2  0  0  0  0
 43 44  1  0  0  0  0
 44 46  2  0  0  0  0
 45 44  1  0  0  0  0
 46 48  1  0  0  0  0
 46 47  1  0  0  0  0
 48 49  1  0  0  0  0
 50 51  1  0  0  0  0
 50 48  2  0  0  0  0
 52 50  1  0  0  0  0
 53 52  1  0  0  0  0
 54  1  1  0  0  0  0
 54 63  1  0  0  0  0
 55 54  2  0  0  0  0
 56 55  1  0  0  0  0
 57 55  1  0  0  0  0
 57 59  2  0  0  0  0
 58 57  1  0  0  0  0
 59 61  1  0  0  0  0
 60 59  1  0  0  0  0
 61 63  2  0  0  0  0
 61 62  1  0  0  0  0
 63 64  1  0  0  0  0
M  END
