1,5
q = 0.0, confidence = 0.89

 71 75  0  0  0  0  0  0  0  0999 V2000
    0.4939    1.2907    0.8224 P   0  0  0  0  0  0  0  0  0  0  0  0
    1.7283   -1.4283    0.2516 P   0  0  0  0  0  4  0  0  0  0  0  0
   -6.4290   -0.9919   -0.7481 N   0  0  0  0  0  0  0  0  0  0  0  0
    0.0633   -1.7896   -0.2054 C   0  0  0  0  0  3  0  0  0  0  0  0
   -0.7142   -0.7995   -0.7709 C   0  0  0  0  0  2  0  0  0  0  0  0
   -2.1716   -0.9177   -0.8450 C   0  0  0  0  0  0  0  0  0  0  0  0
   -2.9489   -0.1053   -1.7108 C   0  0  0  0  0  0  0  0  0  0  0  0
   -4.3401   -0.1350   -1.6930 C   0  0  0  0  0  0  0  0  0  0  0  0
   -5.0492   -0.9771   -0.7867 C   0  0  0  0  0  0  0  0  0  0  0  0
   -4.2740   -1.7932    0.0879 C   0  0  0  0  0  0  0  0  0  0  0  0
   -2.8824   -1.7617    0.0461 C   0  0  0  0  0  0  0  0  0  0  0  0
   -7.1886   -0.1182   -1.6207 C   0  0  0  0  0  0  0  0  0  0  0  0
   -7.1186   -1.8405    0.2012 C   0  0  0  0  0  0  0  0  0  0  0  0
    2.3124   -2.8232    1.2780 C   0  0  0  0  0  0  0  0  0  0  0  0
    3.4605   -3.5656    0.9435 C   0  0  0  0  0  0  0  0  0  0  0  0
    3.8547   -4.6429    1.7529 C   0  0  0  0  0  0  0  0  0  0  0  0
    3.1068   -4.9832    2.8901 C   0  0  0  0  0  0  0  0  0  0  0  0
    1.9557   -4.2484    3.2211 C   0  0  0  0  0  0  0  0  0  0  0  0
    1.5560   -3.1714    2.4186 C   0  0  0  0  0  0  0  0  0  0  0  0
    2.9028   -1.1822   -1.1074 C   0  0  0  0  0  0  0  0  0  0  0  0
    4.2098   -0.7155   -0.8459 C   0  0  0  0  0  0  0  0  0  0  0  0
    5.0976   -0.5171   -1.9108 C   0  0  0  0  0  0  0  0  0  0  0  0
    4.6806   -0.7730   -3.2290 C   0  0  0  0  0  0  0  0  0  0  0  0
    3.3823   -1.2378   -3.4827 C   0  0  0  0  0  0  0  0  0  0  0  0
    2.4885   -1.4532   -2.4244 C   0  0  0  0  0  0  0  0  0  0  0  0
    1.8115    0.0666    1.3367 C   0  0  0  0  0  0  0  0  0  0  0  0
    1.1429    2.8414    1.5606 C   0  0  0  0  0  0  0  0  0  0  0  0
    0.5726    3.4000    2.7225 C   0  0  0  0  0  0  0  0  0  0  0  0
    1.1162    4.5698    3.2752 C   0  0  0  0  0  0  0  0  0  0  0  0
    2.2251    5.1848    2.6732 C   0  0  0  0  0  0  0  0  0  0  0  0
    2.7852    4.6342    1.5090 C   0  0  0  0  0  0  0  0  0  0  0  0
    2.2470    3.4695    0.9434 C   0  0  0  0  0  0  0  0  0  0  0  0
   -0.9856    0.8908    1.8351 C   0  0  0  0  0  0  0  0  0  0  0  0
   -0.9646    0.1338    3.0216 C   0  0  0  0  0  0  0  0  0  0  0  0
   -2.1601   -0.1421    3.7051 C   0  0  0  0  0  0  0  0  0  0  0  0
   -3.3817    0.3439    3.2129 C   0  0  0  0  0  0  0  0  0  0  0  0
   -3.4075    1.1084    2.0359 C   0  0  0  0  0  0  0  0  0  0  0  0
   -2.2175    1.3761    1.3463 C   0  0  0  0  0  0  0  0  0  0  0  0
   -0.2976   -2.7975    0.0675 H   0  0  0  0  0  0  0  0  0  0  0  0
   -2.4204    0.5418   -2.4271 H   0  0  0  0  0  0  0  0  0  0  0  0
   -4.8851    0.5090   -2.3949 H   0  0  0  0  0  0  0  0  0  0  0  0
   -4.7648   -2.4412    0.8253 H   0  0  0  0  0  0  0  0  0  0  0  0
   -2.3243   -2.3702    0.7733 H   0  0  0  0  0  0  0  0  0  0  0  0
   -8.2683   -0.2782   -1.4494 H   0  0  0  0  0  0  0  0  0  0  0  0
   -6.9810   -0.3199   -2.6951 H   0  0  0  0  0  0  0  0  0  0  0  0
   -6.9680    0.9578   -1.4358 H   0  0  0  0  0  0  0  0  0  0  0  0
   -8.2098   -1.7311    0.0666 H   0  0  0  0  0  0  0  0  0  0  0  0
   -6.8765   -1.5778    1.2572 H   0  0  0  0  0  0  0  0  0  0  0  0
   -6.8652   -2.9151    0.0603 H   0  0  0  0  0  0  0  0  0  0  0  0
    4.0419   -3.3027    0.0474 H   0  0  0  0  0  0  0  0  0  0  0  0
    4.7520   -5.2219    1.4881 H   0  0  0  0  0  0  0  0  0  0  0  0
    3.4191   -5.8287    3.5215 H   0  0  0  0  0  0  0  0  0  0  0  0
    1.3636   -4.5182    4.1085 H   0  0  0  0  0  0  0  0  0  0  0  0
    0.6458   -2.6043    2.6720 H   0  0  0  0  0  0  0  0  0  0  0  0
    4.5389   -0.5035    0.1838 H   0  0  0  0  0  0  0  0  0  0  0  0
    6.1144   -0.1463   -1.7129 H   0  0  0  0  0  0  0  0  0  0  0  0
    5.3728   -0.5921   -4.0652 H   0  0  0  0  0  0  0  0  0  0  0  0
    3.0367   -1.4013   -4.5134 H   0  0  0  0  0  0  0  0  0  0  0  0
    1.4519   -1.7573   -2.6315 H   0  0  0  0  0  0  0  0  0  0  0  0
    2.7814    0.5730    1.1639 H   0  0  0  0  0  0  0  0  0  0  0  0
    1.7615   -0.2295    2.4033 H   0  0  0  0  0  0  0  0  0  0  0  0
   -0.2975    2.9223    3.1961 H   0  0  0  0  0  0  0  0  0  0  0  0
    0.6670    5.0026    4.1821 H   0  0  0  0  0  0  0  0  0  0  0  0
    2.6481    6.1036    3.1077 H   0  0  0  0  0  0  0  0  0  0  0  0
    3.6400    5.1265    1.0209 H   0  0  0  0  0  0  0  0  0  0  0  0
    2.6335    3.0755   -0.0100 H   0  0  0  0  0  0  0  0  0  0  0  0
   -0.0146   -0.2429    3.4302 H   0  0  0  0  0  0  0  0  0  0  0  0
   -2.1348   -0.7395    4.6293 H   0  0  0  0  0  0  0  0  0  0  0  0
   -4.3180    0.1189    3.7459 H   0  0  0  0  0  0  0  0  0  0  0  0
   -4.3620    1.4793    1.6345 H   0  0  0  0  0  0  0  0  0  0  0  0
   -2.2370    1.9423    0.4020 H   0  0  0  0  0  0  0  0  0  0  0  0
  1 26  1  0  0  0  0
  1 27  1  0  0  0  0
  1 33  1  0  0  0  0
  2 14  1  0  0  0  0
  2 26  1  0  0  0  0
  3 13  1  0  0  0  0
  4 39  1  0  0  0  0
  4  2  1  0  0  0  0
  5  4  1  0  0  0  0
  6  5  1  0  0  0  0
  6 11  1  0  0  0  0
  7  8  1  0  0  0  0
  7  6  2  0  0  0  0
  8  9  2  0  0  0  0
  9  3  1  0  0  0  0
  9 10  1  0  0  0  0
 10 42  1  0  0  0  0
 11 10  2  0  0  0  0
 11 43  1  0  0  0  0
 12 44  1  0  0  0  0
 12 46  1  0  0  0  0
 12  3  1  0  0  0  0
 13 48  1  0  0  0  0
 14 19  1  0  0  0  0
 15 14  2  0  0  0  0
 15 16  1  0  0  0  0
 16 17  2  0  0  0  0
 17 18  1  0  0  0  0
 17 52  1  0  0  0  0
 18 53  1  0  0  0  0
 19 54  1  0  0  0  0
 19 18  2  0  0  0  0
 20 21  1  0  0  0  0
 20  2  1  0  0  0  0
 21 55  1  0  0  0  0
 22 56  1  0  0  0  0
 22 21  2  0  0  0  0
 23 22  1  0  0  0  0
 24 23  2  0  0  0  0
 24 25  1  0  0  0  0
 25 20  2  0  0  0  0
 26 61  1  0  0  0  0
 27 28  1  0  0  0  0
 28 62  1  0  0  0  0
 28 29  2  0  0  0  0
 29 63  1  0  0  0  0
 30 64  1  0  0  0  0
 30 29  1  0  0  0  0
 31 30  2  0  0  0  0
 32 31  1  0  0  0  0
 32 27  2  0  0  0  0
 33 34  1  0  0  0  0
 34 67  1  0  0  0  0
 34 35  2  0  0  0  0
 35 68  1  0  0  0  0
 36 35  1  0  0  0  0
 36 69  1  0  0  0  0
 37 36  2  0  0  0  0
 38 33  2  0  0  0  0
 38 37  1  0  0  0  0
 40  7  1  0  0  0  0
 41  8  1  0  0  0  0
 45 12  1  0  0  0  0
 47 13  1  0  0  0  0
 49 13  1  0  0  0  0
 50 15  1  0  0  0  0
 51 16  1  0  0  0  0
 57 23  1  0  0  0  0
 58 24  1  0  0  0  0
 59 25  1  0  0  0  0
 60 26  1  0  0  0  0
 65 31  1  0  0  0  0
 66 32  1  0  0  0  0
 70 37  1  0  0  0  0
 71 38  1  0  0  0  0
M  END
