1,2
q = 0.0, confidence = 0.988

 47 47  0  0  0  0  0  0  0  0999 V2000
    2.4844   -1.1777    0.3024 P   0  0  0  0  0  0  0  0  0  0  0  0
    2.2291    1.0779   -0.5572 C   0  0  0  0  0  2  0  0  0  0  0  0
    3.2283    0.1200   -0.6740 N   0  0  0  0  0  0  0  0  0  0  0  0
    4.4265    0.6639   -1.1036 C   0  0  0  0  0  0  0  0  0  0  0  0
    5.3365    0.0817   -1.2724 H   0  0  0  0  0  0  0  0  0  0  0  0
    4.1817    2.0005   -1.2761 C   0  0  0  0  0  0  0  0  0  0  0  0
    4.8476    2.7860   -1.6383 H   0  0  0  0  0  0  0  0  0  0  0  0
    2.8503    2.2519   -0.9129 N   0  0  0  0  0  0  0  0  0  0  0  0
    2.2358    3.6151   -0.9305 C   0  0  0  0  0  0  0  0  0  0  0  0
    1.5104    3.8017   -2.2729 C   0  0  0  0  0  0  0  0  0  0  0  0
    0.7157    3.0449   -2.3919 H   0  0  0  0  0  0  0  0  0  0  0  0
    2.2179    3.6984   -3.1201 H   0  0  0  0  0  0  0  0  0  0  0  0
    1.0466    4.8069   -2.3241 H   0  0  0  0  0  0  0  0  0  0  0  0
    3.3384    4.6781   -0.7873 C   0  0  0  0  0  0  0  0  0  0  0  0
    3.9565    4.4999    0.1149 H   0  0  0  0  0  0  0  0  0  0  0  0
    2.8587    5.6701   -0.6810 H   0  0  0  0  0  0  0  0  0  0  0  0
    4.0013    4.7314   -1.6736 H   0  0  0  0  0  0  0  0  0  0  0  0
    1.2736    3.7396    0.2574 C   0  0  0  0  0  0  0  0  0  0  0  0
    1.8191    3.6513    1.2168 H   0  0  0  0  0  0  0  0  0  0  0  0
    0.5142    2.9409    0.2489 H   0  0  0  0  0  0  0  0  0  0  0  0
    0.7696    4.7251    0.2223 H   0  0  0  0  0  0  0  0  0  0  0  0
    2.7413   -2.8751   -0.5874 C   0  0  0  0  0  0  0  0  0  0  0  0
    1.3380   -3.5149   -0.6384 C   0  0  0  0  0  0  0  0  0  0  0  0
    0.6290   -2.8781   -1.1989 H   0  0  0  0  0  0  0  0  0  0  0  0
    0.9319   -3.6962    0.3781 H   0  0  0  0  0  0  0  0  0  0  0  0
    1.4134   -4.4972   -1.1509 H   0  0  0  0  0  0  0  0  0  0  0  0
    3.6913   -3.8684    0.1004 C   0  0  0  0  0  0  0  0  0  0  0  0
    4.7498   -3.5590    0.0406 H   0  0  0  0  0  0  0  0  0  0  0  0
    3.6043   -4.8387   -0.4328 H   0  0  0  0  0  0  0  0  0  0  0  0
    3.4308   -4.0573    1.1602 H   0  0  0  0  0  0  0  0  0  0  0  0
    3.2584   -2.5983   -2.0104 C   0  0  0  0  0  0  0  0  0  0  0  0
    4.2914   -2.1951   -1.9985 H   0  0  0  0  0  0  0  0  0  0  0  0
    2.5992   -1.8936   -2.5514 H   0  0  0  0  0  0  0  0  0  0  0  0
    3.2814   -3.5582   -2.5698 H   0  0  0  0  0  0  0  0  0  0  0  0
    3.5631   -1.0235    1.8926 C   0  0  0  0  0  0  0  0  0  0  0  0
    4.9897   -1.5933    1.7781 C   0  0  0  0  0  0  0  0  0  0  0  0
    5.0326   -2.6917    1.8571 H   0  0  0  0  0  0  0  0  0  0  0  0
    5.5921   -1.1823    2.6157 H   0  0  0  0  0  0  0  0  0  0  0  0
    5.4953   -1.2856    0.8402 H   0  0  0  0  0  0  0  0  0  0  0  0
    2.7683   -1.7280    3.0080 C   0  0  0  0  0  0  0  0  0  0  0  0
    2.5337   -2.7849    2.7635 H   0  0  0  0  0  0  0  0  0  0  0  0
    1.8247   -1.1801    3.2028 H   0  0  0  0  0  0  0  0  0  0  0  0
    3.3656   -1.7292    3.9445 H   0  0  0  0  0  0  0  0  0  0  0  0
    3.6995    0.4778    2.2183 C   0  0  0  0  0  0  0  0  0  0  0  0
    2.7221    0.9954    2.2191 H   0  0  0  0  0  0  0  0  0  0  0  0
    4.3914    0.9848    1.5172 H   0  0  0  0  0  0  0  0  0  0  0  0
    4.1320    0.5664    3.2377 H   0  0  0  0  0  0  0  0  0  0  0  0
  1 35  1  0  0  0  0
  3  2  1  0  0  0  0
  3  1  1  0  0  0  0
  4  3  1  0  0  0  0
  5  4  1  0  0  0  0
  6  4  2  0  0  0  0
  6  8  1  0  0  0  0
  7  6  1  0  0  0  0
  8  2  1  0  0  0  0
  9  8  1  0  0  0  0
  9 14  1  0  0  0  0
  9 18  1  0  0  0  0
 10  9  1  0  0  0  0
 11 10  1  0  0  0  0
 12 10  1  0  0  0  0
 13 10  1  0  0  0  0
 14 16  1  0  0  0  0
 14 15  1  0  0  0  0
 17 14  1  0  0  0  0
 18 19  1  0  0  0  0
 20 18  1  0  0  0  0
 21 18  1  0  0  0  0
 22 27  1  0  0  0  0
 22  1  1  0  0  0  0
 23 22  1  0  0  0  0
 23 25  1  0  0  0  0
 24 23  1  0  0  0  0
 26 23  1  0  0  0  0
 27 30  1  0  0  0  0
 28 27  1  0  0  0  0
 29 27  1  0  0  0  0
 31 32  1  0  0  0  0
 31 22  1  0  0  0  0
 33 31  1  0  0  0  0
 34 31  1  0  0  0  0
 35 44  1  0  0  0  0
 35 40  1  0  0  0  0
 36 37  1  0  0  0  0
 36 35  1  0  0  0  0
 36 38  1  0  0  0  0
 39 36  1  0  0  0  0
 40 42  1  0  0  0  0
 40 43  1  0  0  0  0
 41 40  1  0  0  0  0
 44 45  1  0  0  0  0
 44 47  1  0  0  0  0
 46 44  1  0  0  0  0
M  END
