1,3
q = -1.0, confidence = 0.002

 38 40  0  0  0  0  0  0  0  0999 V2000
    2.1116   -1.0283    0.4794 P   0  0  2  0  0  0  0  0  0  0  0  0
    1.1777   -1.8902    1.7733 C   0  0  0  0  0  0  0  0  0  0  0  0
   -0.1157   -1.3191    1.6388 C   0  0  0  0  0  3  0  0  0  0  0  0
   -1.1231   -1.7366    2.5267 C   0  0  0  0  0  0  0  0  0  0  0  0
   -0.8186   -2.7036    3.5021 C   0  0  0  0  0  0  0  0  0  0  0  0
    0.4710   -3.2647    3.6042 C   0  0  0  0  0  0  0  0  0  0  0  0
    1.4959   -2.8629    2.7338 C   0  0  0  0  0  0  0  0  0  0  0  0
    2.5045   -3.2978    2.8058 H   0  0  0  0  0  0  0  0  0  0  0  0
    0.6745   -4.0228    4.3753 H   0  0  0  0  0  0  0  0  0  0  0  0
   -1.6025   -3.0324    4.2021 H   0  0  0  0  0  0  0  0  0  0  0  0
   -2.1395   -1.3170    2.4708 H   0  0  0  0  0  0  0  0  0  0  0  0
    2.8510   -2.1373   -0.7526 C   0  0  0  0  0  0  0  0  0  0  0  0
    4.2477   -2.2048   -0.9519 C   0  0  0  0  0  0  0  0  0  0  0  0
    4.7592   -3.1028   -1.9024 C   0  0  0  0  0  0  0  0  0  0  0  0
    3.8972   -3.9238   -2.6451 C   0  0  0  0  0  0  0  0  0  0  0  0
    2.5076   -3.8511   -2.4456 C   0  0  0  0  0  0  0  0  0  0  0  0
    1.9816   -2.9573   -1.5055 C   0  0  0  0  0  0  0  0  0  0  0  0
    0.8928   -2.8955   -1.3496 H   0  0  0  0  0  0  0  0  0  0  0  0
    1.8308   -4.4928   -3.0291 H   0  0  0  0  0  0  0  0  0  0  0  0
    4.3087   -4.6235   -3.3878 H   0  0  0  0  0  0  0  0  0  0  0  0
    5.8466   -3.1575   -2.0602 H   0  0  0  0  0  0  0  0  0  0  0  0
    4.9463   -1.5651   -0.3851 H   0  0  0  0  0  0  0  0  0  0  0  0
    3.4283    0.0370    1.1691 C   0  0  0  0  0  0  0  0  0  0  0  0
    3.9774    1.0637    0.1602 C   0  0  0  0  0  0  0  0  0  0  0  0
    5.4434    1.3627    0.4100 C   0  0  0  0  0  0  0  0  0  0  0  0
    6.2383    0.2838    0.5554 N   0  0  0  0  0  0  0  0  0  0  0  0
    7.5519    0.4730    0.7506 C   0  0  0  0  0  0  0  0  0  0  0  0
    8.1437    1.7447    0.8139 C   0  0  0  0  0  0  0  0  0  0  0  0
    7.3181    2.8675    0.6662 C   0  0  0  0  0  0  0  0  0  0  0  0
    5.9438    2.6759    0.4612 C   0  0  0  0  0  0  0  0  0  0  0  0
    5.2650    3.5339    0.3429 H   0  0  0  0  0  0  0  0  0  0  0  0
    7.7380    3.8836    0.7137 H   0  0  0  0  0  0  0  0  0  0  0  0
    9.2261    1.8473    0.9787 H   0  0  0  0  0  0  0  0  0  0  0  0
    8.1671   -0.4365    0.8640 H   0  0  0  0  0  0  0  0  0  0  0  0
    3.8962    0.6590   -0.8734 H   0  0  0  0  0  0  0  0  0  0  0  0
    3.3740    1.9918    0.1753 H   0  0  0  0  0  0  0  0  0  0  0  0
    3.0082    0.5202    2.0735 H   0  0  0  0  0  0  0  0  0  0  0  0
    4.2503   -0.6358    1.4982 H   0  0  0  0  0  0  0  0  0  0  0  0
  1 23  1  1  0  0  0
  1  2  1  0  0  0  0
  2  7  1  0  0  0  0
  3  2  2  0  0  0  0
  3  4  1  0  0  0  0
  4  5  2  0  0  0  0
  5  6  1  0  0  0  0
  5 10  1  0  0  0  0
  6  9  1  0  0  0  0
  7  8  1  0  0  0  0
  7  6  2  0  0  0  0
 11  4  1  0  0  0  0
 12  1  1  0  0  0  0
 13 12  1  0  0  0  0
 13 22  1  0  0  0  0
 14 13  2  0  0  0  0
 15 16  2  0  0  0  0
 15 14  1  0  0  0  0
 16 17  1  0  0  0  0
 17 18  1  0  0  0  0
 17 12  2  0  0  0  0
 19 16  1  0  0  0  0
 20 15  1  0  0  0  0
 21 14  1  0  0  0  0
 23 38  1  0  0  0  0
 23 37  1  0  0  0  0
 24 36  1  0  0  0  0
 24 25  1  0  0  0  0
 24 23  1  0  0  0  0
 25 30  2  0  0  0  0
 25 26  1  0  0  0  0
 26 27  2  0  0  0  0
 27 28  1  0  0  0  0
 27 34  1  0  0  0  0
 28 33  1  0  0  0  0
 29 32  1  0  0  0  0
 29 28  2  0  0  0  0
 30 29  1  0  0  0  0
 31 30  1  0  0  0  0
 35 24  1  0  0  0  0
M  END
