1,2,3,4,5,6
q = 0.0, confidence = 1.0

 42 42  0  0  0  0  0  0  0  0999 V2000
    2.1747    1.3558    1.1611 S   0  0  0  0  0  0  0  0  0  0  0  0
   -0.1351    2.4802   -1.2365 S   0  0  0  0  0  0  0  0  0  0  0  0
   -1.9914    1.0216    1.4546 S   0  0  0  0  0  0  0  0  0  0  0  0
   -1.9849   -1.0292   -1.4569 S   0  0  0  0  0  0  0  0  0  0  0  0
   -0.1292   -2.4791    1.2388 S   0  0  0  0  0  0  0  0  0  0  0  0
    2.1751   -1.3525   -1.1626 S   0  0  0  0  0  0  0  0  0  0  0  0
    2.3485    2.7665   -0.0045 C   0  0  0  0  0  0  0  0  0  0  0  0
    3.0853    3.4786    0.4196 H   0  0  0  0  0  0  0  0  0  0  0  0
    2.7477    2.3995   -0.9723 H   0  0  0  0  0  0  0  0  0  0  0  0
    1.0165    3.4829   -0.2127 C   0  0  0  0  0  0  0  0  0  0  0  0
    1.1970    4.4455   -0.7327 H   0  0  0  0  0  0  0  0  0  0  0  0
    0.5404    3.7099    0.7631 H   0  0  0  0  0  0  0  0  0  0  0  0
   -1.7643    3.0345   -0.6237 C   0  0  0  0  0  0  0  0  0  0  0  0
   -1.8441    4.1291   -0.7931 H   0  0  0  0  0  0  0  0  0  0  0  0
   -2.4795    2.5609   -1.3247 H   0  0  0  0  0  0  0  0  0  0  0  0
   -2.1246    2.7354    0.8360 C   0  0  0  0  0  0  0  0  0  0  0  0
   -3.1568    3.0936    1.0354 H   0  0  0  0  0  0  0  0  0  0  0  0
   -1.4670    3.3036    1.5259 H   0  0  0  0  0  0  0  0  0  0  0  0
   -3.4502    0.1842    0.7395 C   0  0  0  0  0  0  0  0  0  0  0  0
   -3.5577   -0.7199    1.3715 H   0  0  0  0  0  0  0  0  0  0  0  0
   -4.3407    0.8134    0.9508 H   0  0  0  0  0  0  0  0  0  0  0  0
   -3.4463   -0.1898   -0.7497 C   0  0  0  0  0  0  0  0  0  0  0  0
   -3.5490    0.7143   -1.3826 H   0  0  0  0  0  0  0  0  0  0  0  0
   -4.3366   -0.8178   -0.9657 H   0  0  0  0  0  0  0  0  0  0  0  0
   -2.1194   -2.7407   -0.8323 C   0  0  0  0  0  0  0  0  0  0  0  0
   -3.1520   -3.0988   -1.0300 H   0  0  0  0  0  0  0  0  0  0  0  0
   -1.4628   -3.3122   -1.5205 H   0  0  0  0  0  0  0  0  0  0  0  0
   -1.7586   -3.0352    0.6282 C   0  0  0  0  0  0  0  0  0  0  0  0
   -1.8385   -4.1292    0.8010 H   0  0  0  0  0  0  0  0  0  0  0  0
   -2.4732   -2.5591    1.3281 H   0  0  0  0  0  0  0  0  0  0  0  0
    1.0225   -3.4808    0.2141 C   0  0  0  0  0  0  0  0  0  0  0  0
    1.2053   -4.4427    0.7344 H   0  0  0  0  0  0  0  0  0  0  0  0
    0.5454   -3.7092   -0.7609 H   0  0  0  0  0  0  0  0  0  0  0  0
    2.3530   -2.7624    0.0034 C   0  0  0  0  0  0  0  0  0  0  0  0
    3.0903   -3.4737   -0.4215 H   0  0  0  0  0  0  0  0  0  0  0  0
    2.7531   -2.3943    0.9704 H   0  0  0  0  0  0  0  0  0  0  0  0
    3.6023   -0.3118   -0.7000 C   0  0  0  0  0  0  0  0  0  0  0  0
    4.5276   -0.9124   -0.8250 H   0  0  0  0  0  0  0  0  0  0  0  0
    3.6278    0.4628   -1.4934 H   0  0  0  0  0  0  0  0  0  0  0  0
    3.6029    0.3177    0.6960 C   0  0  0  0  0  0  0  0  0  0  0  0
    4.5273    0.9199    0.8196 H   0  0  0  0  0  0  0  0  0  0  0  0
    3.6312   -0.4569    1.4894 H   0  0  0  0  0  0  0  0  0  0  0  0
  2 13  1  0  0  0  0
  2 10  1  0  0  0  0
  4 25  1  0  0  0  0
  4 22  1  0  0  0  0
  6 37  1  0  0  0  0
  6 34  1  0  0  0  0
  7  8  1  0  0  0  0
  7  1  1  0  0  0  0
  9  7  1  0  0  0  0
 10  7  1  0  0  0  0
 10 12  1  0  0  0  0
 11 10  1  0  0  0  0
 13 16  1  0  0  0  0
 14 13  1  0  0  0  0
 15 13  1  0  0  0  0
 16 17  1  0  0  0  0
 16  3  1  0  0  0  0
 16 18  1  0  0  0  0
 19 21  1  0  0  0  0
 19 20  1  0  0  0  0
 19  3  1  0  0  0  0
 22 19  1  0  0  0  0
 23 22  1  0  0  0  0
 24 22  1  0  0  0  0
 25 28  1  0  0  0  0
 26 25  1  0  0  0  0
 27 25  1  0  0  0  0
 28 29  1  0  0  0  0
 28  5  1  0  0  0  0
 28 30  1  0  0  0  0
 31 32  1  0  0  0  0
 31  5  1  0  0  0  0
 33 31  1  0  0  0  0
 34 31  1  0  0  0  0
 34 36  1  0  0  0  0
 35 34  1  0  0  0  0
 37 40  1  0  0  0  0
 38 37  1  0  0  0  0
 39 37  1  0  0  0  0
 40 41  1  0  0  0  0
 40  1  1  0  0  0  0
 40 42  1  0  0  0  0
M  END
