1,2,3,4
 OpenBabel05122313063D

 82 84  0  0  0  0  0  0  0  0999 V2000
   -1.2303    0.7146   -0.0340 Si  0  0  0  0  0  3  0  0  0  0  0  0
   -0.1649   -2.4735   -0.3790 S   0  0  0  0  0  0  0  0  0  0  0  0
    1.5417   -0.0869    2.0265 S   0  0  0  0  0  0  0  0  0  0  0  0
    1.7321    1.8520   -0.5446 S   0  0  0  0  0  0  0  0  0  0  0  0
   -2.6177   -0.1278   -1.0339 C   0  0  0  0  0  0  0  0  0  0  0  0
   -2.8439   -1.5214   -0.8624 C   0  0  0  0  0  0  0  0  0  0  0  0
   -3.9048   -2.1479   -1.5466 C   0  0  0  0  0  0  0  0  0  0  0  0
   -4.1040   -3.2183   -1.3754 H   0  0  0  0  0  0  0  0  0  0  0  0
   -4.7128   -1.4279   -2.4393 C   0  0  0  0  0  0  0  0  0  0  0  0
   -5.5344   -1.9348   -2.9681 H   0  0  0  0  0  0  0  0  0  0  0  0
   -4.4647   -0.0640   -2.6520 C   0  0  0  0  0  0  0  0  0  0  0  0
   -5.0867    0.5087   -3.3573 H   0  0  0  0  0  0  0  0  0  0  0  0
   -3.4338    0.5751   -1.9434 C   0  0  0  0  0  0  0  0  0  0  0  0
   -3.2673    1.6542   -2.0898 H   0  0  0  0  0  0  0  0  0  0  0  0
   -1.9679   -2.3281    0.0574 C   0  0  0  0  0  0  0  0  0  0  0  0
   -2.3410   -3.3620    0.1796 H   0  0  0  0  0  0  0  0  0  0  0  0
   -1.9090   -1.8718    1.0662 H   0  0  0  0  0  0  0  0  0  0  0  0
   -0.2081   -3.3364   -2.0928 C   0  0  0  0  0  0  0  0  0  0  0  0
   -0.5929   -2.3828   -3.2222 C   0  0  0  0  0  0  0  0  0  0  0  0
   -1.5915   -1.9320   -3.0767 H   0  0  0  0  0  0  0  0  0  0  0  0
   -0.6042   -2.9526   -4.1755 H   0  0  0  0  0  0  0  0  0  0  0  0
    0.1503   -1.5685   -3.3144 H   0  0  0  0  0  0  0  0  0  0  0  0
   -1.1988   -4.5013   -1.9702 C   0  0  0  0  0  0  0  0  0  0  0  0
   -2.2518   -4.1677   -1.9588 H   0  0  0  0  0  0  0  0  0  0  0  0
   -0.9976   -5.1162   -1.0695 H   0  0  0  0  0  0  0  0  0  0  0  0
   -1.0708   -5.1571   -2.8562 H   0  0  0  0  0  0  0  0  0  0  0  0
    1.2045   -3.8917   -2.3011 C   0  0  0  0  0  0  0  0  0  0  0  0
    1.4815   -4.6046   -1.4993 H   0  0  0  0  0  0  0  0  0  0  0  0
    1.9666   -3.0899   -2.3089 H   0  0  0  0  0  0  0  0  0  0  0  0
    1.2240   -4.4316   -3.2712 H   0  0  0  0  0  0  0  0  0  0  0  0
   -1.8552    0.6054    1.7892 C   0  0  0  0  0  0  0  0  0  0  0  0
   -1.0150    0.8804    2.9035 C   0  0  0  0  0  0  0  0  0  0  0  0
   -1.5479    0.8506    4.2090 C   0  0  0  0  0  0  0  0  0  0  0  0
   -0.8904    1.0876    5.0614 H   0  0  0  0  0  0  0  0  0  0  0  0
   -2.8926    0.5295    4.4419 C   0  0  0  0  0  0  0  0  0  0  0  0
   -3.2850    0.5097    5.4701 H   0  0  0  0  0  0  0  0  0  0  0  0
   -3.7263    0.2365    3.3542 C   0  0  0  0  0  0  0  0  0  0  0  0
   -4.7849   -0.0187    3.5168 H   0  0  0  0  0  0  0  0  0  0  0  0
   -3.2066    0.2833    2.0502 C   0  0  0  0  0  0  0  0  0  0  0  0
   -3.8770    0.0650    1.2033 H   0  0  0  0  0  0  0  0  0  0  0  0
    0.4433    1.2172    2.7355 C   0  0  0  0  0  0  0  0  0  0  0  0
    0.8904    1.5441    3.6941 H   0  0  0  0  0  0  0  0  0  0  0  0
    0.5955    2.0391    2.0033 H   0  0  0  0  0  0  0  0  0  0  0  0
    1.4722   -1.5378    3.2298 C   0  0  0  0  0  0  0  0  0  0  0  0
    1.7296   -0.9996    4.6413 C   0  0  0  0  0  0  0  0  0  0  0  0
    2.6399   -0.3679    4.6739 H   0  0  0  0  0  0  0  0  0  0  0  0
    1.8833   -1.8566    5.3304 H   0  0  0  0  0  0  0  0  0  0  0  0
    0.8724   -0.4160    5.0284 H   0  0  0  0  0  0  0  0  0  0  0  0
    0.1463   -2.2981    3.1541 C   0  0  0  0  0  0  0  0  0  0  0  0
    0.0151   -2.7448    2.1507 H   0  0  0  0  0  0  0  0  0  0  0  0
   -0.7223   -1.6541    3.3851 H   0  0  0  0  0  0  0  0  0  0  0  0
    0.1638   -3.1277    3.8931 H   0  0  0  0  0  0  0  0  0  0  0  0
    2.6346   -2.4299    2.7701 C   0  0  0  0  0  0  0  0  0  0  0  0
    3.6083   -1.9158    2.8923 H   0  0  0  0  0  0  0  0  0  0  0  0
    2.5408   -2.7076    1.7011 H   0  0  0  0  0  0  0  0  0  0  0  0
    2.6440   -3.3528    3.3874 H   0  0  0  0  0  0  0  0  0  0  0  0
   -1.3943    2.5912   -0.4185 C   0  0  0  0  0  0  0  0  0  0  0  0
   -0.4924    3.3144   -1.2440 C   0  0  0  0  0  0  0  0  0  0  0  0
   -0.6973    4.6894   -1.4783 C   0  0  0  0  0  0  0  0  0  0  0  0
    0.0195    5.2405   -2.1084 H   0  0  0  0  0  0  0  0  0  0  0  0
   -1.7953    5.3616   -0.9241 C   0  0  0  0  0  0  0  0  0  0  0  0
   -1.9413    6.4344   -1.1228 H   0  0  0  0  0  0  0  0  0  0  0  0
   -2.6949    4.6598   -0.1089 C   0  0  0  0  0  0  0  0  0  0  0  0
   -3.5581    5.1760    0.3390 H   0  0  0  0  0  0  0  0  0  0  0  0
   -2.4838    3.2957    0.1422 C   0  0  0  0  0  0  0  0  0  0  0  0
   -3.1879    2.7591    0.7977 H   0  0  0  0  0  0  0  0  0  0  0  0
    0.7098    2.6509   -1.8670 C   0  0  0  0  0  0  0  0  0  0  0  0
    1.3440    3.4032   -2.3700 H   0  0  0  0  0  0  0  0  0  0  0  0
    0.4423    1.8582   -2.5907 H   0  0  0  0  0  0  0  0  0  0  0  0
    3.4984    1.9932   -1.2311 C   0  0  0  0  0  0  0  0  0  0  0  0
    4.3767    1.4182   -0.1132 C   0  0  0  0  0  0  0  0  0  0  0  0
    4.2233    1.9639    0.8396 H   0  0  0  0  0  0  0  0  0  0  0  0
    5.4410    1.5302   -0.4086 H   0  0  0  0  0  0  0  0  0  0  0  0
    4.1670    0.3412    0.0406 H   0  0  0  0  0  0  0  0  0  0  0  0
    3.7877    3.4902   -1.4047 C   0  0  0  0  0  0  0  0  0  0  0  0
    3.2354    3.9446   -2.2510 H   0  0  0  0  0  0  0  0  0  0  0  0
    4.8688    3.6134   -1.6230 H   0  0  0  0  0  0  0  0  0  0  0  0
    3.5581    4.0612   -0.4827 H   0  0  0  0  0  0  0  0  0  0  0  0
    3.6381    1.2187   -2.5393 C   0  0  0  0  0  0  0  0  0  0  0  0
    2.9616    1.6121   -3.3248 H   0  0  0  0  0  0  0  0  0  0  0  0
    3.4302    0.1431   -2.3736 H   0  0  0  0  0  0  0  0  0  0  0  0
    4.6796    1.3232   -2.9114 H   0  0  0  0  0  0  0  0  0  0  0  0
  1 31  1  0  0  0  0
  2 15  1  0  0  0  0
  3 41  1  0  0  0  0
  3 44  1  0  0  0  0
  5  6  1  0  0  0  0
  5  1  1  0  0  0  0
  6 15  1  0  0  0  0
  7  8  1  0  0  0  0
  7  6  2  0  0  0  0
  9  7  1  0  0  0  0
 10  9  1  0  0  0  0
 11  9  2  0  0  0  0
 11 13  1  0  0  0  0
 12 11  1  0  0  0  0
 13  5  2  0  0  0  0
 14 13  1  0  0  0  0
 15 16  1  0  0  0  0
 15 17  1  0  0  0  0
 18 23  1  0  0  0  0
 18  2  1  0  0  0  0
 19 20  1  0  0  0  0
 19 18  1  0  0  0  0
 21 19  1  0  0  0  0
 22 19  1  0  0  0  0
 23 24  1  0  0  0  0
 23 25  1  0  0  0  0
 26 23  1  0  0  0  0
 27 18  1  0  0  0  0
 27 28  1  0  0  0  0
 29 27  1  0  0  0  0
 30 27  1  0  0  0  0
 31 39  2  0  0  0  0
 31 32  1  0  0  0  0
 32 33  2  0  0  0  0
 33 35  1  0  0  0  0
 33 34  1  0  0  0  0
 35 36  1  0  0  0  0
 37 38  1  0  0  0  0
 37 35  2  0  0  0  0
 39 37  1  0  0  0  0
 40 39  1  0  0  0  0
 41 32  1  0  0  0  0
 41 42  1  0  0  0  0
 43 41  1  0  0  0  0
 44 45  1  0  0  0  0
 45 46  1  0  0  0  0
 45 48  1  0  0  0  0
 45 47  1  0  0  0  0
 49 44  1  0  0  0  0
 49 51  1  0  0  0  0
 49 52  1  0  0  0  0
 50 49  1  0  0  0  0
 53 54  1  0  0  0  0
 53 44  1  0  0  0  0
 53 56  1  0  0  0  0
 55 53  1  0  0  0  0
 57  1  1  0  0  0  0
 57 65  1  0  0  0  0
 58 57  2  0  0  0  0
 59 58  1  0  0  0  0
 59 61  2  0  0  0  0
 60 59  1  0  0  0  0
 61 63  1  0  0  0  0
 62 61  1  0  0  0  0
 63 65  2  0  0  0  0
 63 64  1  0  0  0  0
 65 66  1  0  0  0  0
 67 58  1  0  0  0  0
 67  4  1  0  0  0  0
 68 67  1  0  0  0  0
 69 67  1  0  0  0  0
 70  4  1  0  0  0  0
 70 71  1  0  0  0  0
 71 74  1  0  0  0  0
 71 72  1  0  0  0  0
 73 71  1  0  0  0  0
 75 70  1  0  0  0  0
 75 78  1  0  0  0  0
 76 75  1  0  0  0  0
 77 75  1  0  0  0  0
 79 81  1  0  0  0  0
 79 70  1  0  0  0  0
 80 79  1  0  0  0  0
 82 79  1  0  0  0  0
M  END
