1,34,35
 OpenBabel05122313063D

 67 72  0  0  0  0  0  0  0  0999 V2000
    2.2720   -0.2293   -0.0102 P   0  0  0  0  0  0  0  0  0  0  0  0
    3.3447    0.7661   -1.1166 C   0  0  0  0  0  0  0  0  0  0  0  0
    2.4977   -1.9672   -0.5667 C   0  0  0  0  0  0  0  0  0  0  0  0
    3.0747   -0.0951    1.6337 C   0  0  0  0  0  0  0  0  0  0  0  0
    3.7230   -1.1799    2.2550 C   0  0  0  0  0  0  0  0  0  0  0  0
    3.7777   -2.1538    1.7458 H   0  0  0  0  0  0  0  0  0  0  0  0
    4.2975   -1.0168    3.5262 C   0  0  0  0  0  0  0  0  0  0  0  0
    4.8032   -1.8673    4.0085 H   0  0  0  0  0  0  0  0  0  0  0  0
    2.9926    1.1498    2.2958 C   0  0  0  0  0  0  0  0  0  0  0  0
    2.4587    1.9881    1.8169 H   0  0  0  0  0  0  0  0  0  0  0  0
    3.5736    1.3044    3.5613 C   0  0  0  0  0  0  0  0  0  0  0  0
    3.5084    2.2765    4.0733 H   0  0  0  0  0  0  0  0  0  0  0  0
    4.2270    0.2235    4.1785 C   0  0  0  0  0  0  0  0  0  0  0  0
    4.6781    0.3482    5.1748 H   0  0  0  0  0  0  0  0  0  0  0  0
    3.7004   -3.8430   -1.5156 C   0  0  0  0  0  0  0  0  0  0  0  0
    4.6311   -4.2834   -1.9050 H   0  0  0  0  0  0  0  0  0  0  0  0
    3.6963   -2.5203   -1.0414 C   0  0  0  0  0  0  0  0  0  0  0  0
    4.6161   -1.9157   -1.0692 H   0  0  0  0  0  0  0  0  0  0  0  0
    1.2843   -2.7081   -0.5335 C   0  0  0  0  0  0  0  0  0  0  0  0
    1.3214   -4.0359   -1.0263 C   0  0  0  0  0  0  0  0  0  0  0  0
    0.3954   -4.6300   -1.0578 H   0  0  0  0  0  0  0  0  0  0  0  0
    2.5120   -4.5936   -1.5170 C   0  0  0  0  0  0  0  0  0  0  0  0
    2.5146   -5.6202   -1.9148 H   0  0  0  0  0  0  0  0  0  0  0  0
    2.7763    1.3107   -2.2852 C   0  0  0  0  0  0  0  0  0  0  0  0
    1.6968    1.1933   -2.4671 H   0  0  0  0  0  0  0  0  0  0  0  0
    4.7141    0.9594   -0.8445 C   0  0  0  0  0  0  0  0  0  0  0  0
    5.1527    0.5601    0.0831 H   0  0  0  0  0  0  0  0  0  0  0  0
    4.9466    2.2067   -2.9200 C   0  0  0  0  0  0  0  0  0  0  0  0
    5.5732    2.7753   -3.6241 H   0  0  0  0  0  0  0  0  0  0  0  0
    5.5118    1.6776   -1.7485 C   0  0  0  0  0  0  0  0  0  0  0  0
    6.5800    1.8310   -1.5319 H   0  0  0  0  0  0  0  0  0  0  0  0
    3.5797    2.0241   -3.1858 C   0  0  0  0  0  0  0  0  0  0  0  0
    3.1306    2.4543   -4.0936 H   0  0  0  0  0  0  0  0  0  0  0  0
   -0.0000   -1.9612    0.0002 B   0  0  0  0  0  2  0  0  0  0  0  0
   -2.2720   -0.2293    0.0102 P   0  0  0  0  0  0  0  0  0  0  0  0
   -3.3447    0.7662    1.1163 C   0  0  0  0  0  0  0  0  0  0  0  0
   -2.4977   -1.9671    0.5671 C   0  0  0  0  0  0  0  0  0  0  0  0
   -3.0747   -0.0955   -1.6337 C   0  0  0  0  0  0  0  0  0  0  0  0
   -3.7228   -1.1804   -2.2549 C   0  0  0  0  0  0  0  0  0  0  0  0
   -3.7775   -2.1543   -1.7456 H   0  0  0  0  0  0  0  0  0  0  0  0
   -4.2972   -1.0175   -3.5262 C   0  0  0  0  0  0  0  0  0  0  0  0
   -4.8028   -1.8681   -4.0085 H   0  0  0  0  0  0  0  0  0  0  0  0
   -2.9927    1.1494   -2.2960 C   0  0  0  0  0  0  0  0  0  0  0  0
   -2.4589    1.9878   -1.8172 H   0  0  0  0  0  0  0  0  0  0  0  0
   -3.5736    1.3037   -3.5616 C   0  0  0  0  0  0  0  0  0  0  0  0
   -3.5085    2.2758   -4.0737 H   0  0  0  0  0  0  0  0  0  0  0  0
   -4.2268    0.2227   -4.1787 C   0  0  0  0  0  0  0  0  0  0  0  0
   -4.6779    0.3472   -5.1750 H   0  0  0  0  0  0  0  0  0  0  0  0
   -3.7004   -3.8428    1.5163 C   0  0  0  0  0  0  0  0  0  0  0  0
   -4.6311   -4.2831    1.9058 H   0  0  0  0  0  0  0  0  0  0  0  0
   -3.6963   -2.5201    1.0418 C   0  0  0  0  0  0  0  0  0  0  0  0
   -4.6162   -1.9156    1.0695 H   0  0  0  0  0  0  0  0  0  0  0  0
   -1.2843   -2.7080    0.5340 C   0  0  0  0  0  0  0  0  0  0  0  0
   -1.3214   -4.0357    1.0271 C   0  0  0  0  0  0  0  0  0  0  0  0
   -0.3953   -4.6298    1.0588 H   0  0  0  0  0  0  0  0  0  0  0  0
   -2.5119   -4.5933    1.5179 C   0  0  0  0  0  0  0  0  0  0  0  0
   -2.5146   -5.6198    1.9159 H   0  0  0  0  0  0  0  0  0  0  0  0
   -2.7763    1.3113    2.2847 C   0  0  0  0  0  0  0  0  0  0  0  0
   -1.6968    1.1940    2.4666 H   0  0  0  0  0  0  0  0  0  0  0  0
   -4.7141    0.9595    0.8442 C   0  0  0  0  0  0  0  0  0  0  0  0
   -5.1528    0.5598   -0.0832 H   0  0  0  0  0  0  0  0  0  0  0  0
   -4.9467    2.2073    2.9194 C   0  0  0  0  0  0  0  0  0  0  0  0
   -5.5732    2.7761    3.6234 H   0  0  0  0  0  0  0  0  0  0  0  0
   -5.5119    1.6779    1.7481 C   0  0  0  0  0  0  0  0  0  0  0  0
   -6.5801    1.8311    1.5315 H   0  0  0  0  0  0  0  0  0  0  0  0
   -3.5798    2.0249    3.1852 C   0  0  0  0  0  0  0  0  0  0  0  0
   -3.1306    2.4554    4.0928 H   0  0  0  0  0  0  0  0  0  0  0  0
  1  4  1  0  0  0  0
  2 26  1  0  0  0  0
  2  1  1  0  0  0  0
  3 19  1  0  0  0  0
  3  1  1  0  0  0  0
  4  5  2  0  0  0  0
  4  9  1  0  0  0  0
  5  7  1  0  0  0  0
  6  5  1  0  0  0  0
  7  8  1  0  0  0  0
  7 13  2  0  0  0  0
  9 11  2  0  0  0  0
 10  9  1  0  0  0  0
 11 12  1  0  0  0  0
 11 13  1  0  0  0  0
 13 14  1  0  0  0  0
 15 17  1  0  0  0  0
 16 15  1  0  0  0  0
 17  3  2  0  0  0  0
 18 17  1  0  0  0  0
 19 34  1  0  0  0  0
 20 19  2  0  0  0  0
 21 20  1  0  0  0  0
 22 15  2  0  0  0  0
 22 20  1  0  0  0  0
 23 22  1  0  0  0  0
 24  2  2  0  0  0  0
 25 24  1  0  0  0  0
 26 27  1  0  0  0  0
 28 30  1  0  0  0  0
 29 28  1  0  0  0  0
 30 31  1  0  0  0  0
 30 26  2  0  0  0  0
 32 28  2  0  0  0  0
 32 24  1  0  0  0  0
 33 32  1  0  0  0  0
 34 53  1  0  0  0  0
 35 37  1  0  0  0  0
 35 36  1  0  0  0  0
 36 58  1  0  0  0  0
 37 51  1  0  0  0  0
 38 35  1  0  0  0  0
 39 40  1  0  0  0  0
 39 38  1  0  0  0  0
 41 39  2  0  0  0  0
 42 41  1  0  0  0  0
 43 44  1  0  0  0  0
 43 38  2  0  0  0  0
 45 43  1  0  0  0  0
 46 45  1  0  0  0  0
 47 45  2  0  0  0  0
 47 41  1  0  0  0  0
 48 47  1  0  0  0  0
 49 56  1  0  0  0  0
 49 50  1  0  0  0  0
 51 52  1  0  0  0  0
 51 49  2  0  0  0  0
 53 37  2  0  0  0  0
 53 54  1  0  0  0  0
 54 55  1  0  0  0  0
 54 56  2  0  0  0  0
 56 57  1  0  0  0  0
 58 59  1  0  0  0  0
 58 66  2  0  0  0  0
 60 36  2  0  0  0  0
 60 64  1  0  0  0  0
 61 60  1  0  0  0  0
 62 66  1  0  0  0  0
 62 63  1  0  0  0  0
 64 62  2  0  0  0  0
 65 64  1  0  0  0  0
 66 67  1  0  0  0  0
M  END
