1,2,3
 OpenBabel05122313063D

 74 76  0  0  0  0  0  0  0  0999 V2000
    2.0106   -0.5463   -0.1411 P   0  0  0  0  0  0  0  0  0  0  0  0
   -1.5060   -1.3214    0.1887 P   0  0  0  0  0  0  0  0  0  0  0  0
   -0.0997    1.3396    0.8784 B   0  0  0  0  0  0  0  0  0  0  0  0
    2.1199   -1.8202    1.2432 C   0  0  0  0  0  0  0  0  0  0  0  0
    1.1370   -1.6937    1.7383 H   0  0  0  0  0  0  0  0  0  0  0  0
    3.1938   -1.4991    2.2884 C   0  0  0  0  0  0  0  0  0  0  0  0
    3.1328   -2.2407    3.1122 H   0  0  0  0  0  0  0  0  0  0  0  0
    3.0484   -0.4937    2.7265 H   0  0  0  0  0  0  0  0  0  0  0  0
    4.2188   -1.5494    1.8700 H   0  0  0  0  0  0  0  0  0  0  0  0
    2.2150   -3.2649    0.7334 C   0  0  0  0  0  0  0  0  0  0  0  0
    3.2417   -3.5257    0.4138 H   0  0  0  0  0  0  0  0  0  0  0  0
    1.5414   -3.4652   -0.1211 H   0  0  0  0  0  0  0  0  0  0  0  0
    1.9402   -3.9646    1.5497 H   0  0  0  0  0  0  0  0  0  0  0  0
    3.2612   -0.9900   -1.4781 C   0  0  0  0  0  0  0  0  0  0  0  0
    3.3805    0.0093   -1.9477 H   0  0  0  0  0  0  0  0  0  0  0  0
    4.6271   -1.4977   -0.9988 C   0  0  0  0  0  0  0  0  0  0  0  0
    4.5813   -2.5296   -0.6016 H   0  0  0  0  0  0  0  0  0  0  0  0
    5.0925   -0.8602   -0.2245 H   0  0  0  0  0  0  0  0  0  0  0  0
    5.3205   -1.5164   -1.8653 H   0  0  0  0  0  0  0  0  0  0  0  0
    2.6526   -1.9165   -2.5390 C   0  0  0  0  0  0  0  0  0  0  0  0
    3.3715   -2.0359   -3.3759 H   0  0  0  0  0  0  0  0  0  0  0  0
    1.7226   -1.4845   -2.9569 H   0  0  0  0  0  0  0  0  0  0  0  0
    2.4356   -2.9285   -2.1427 H   0  0  0  0  0  0  0  0  0  0  0  0
    2.5041    1.0692    0.5785 C   0  0  0  0  0  0  0  0  0  0  0  0
    3.8278    1.5205    0.7193 C   0  0  0  0  0  0  0  0  0  0  0  0
    4.6769    0.8860    0.4316 H   0  0  0  0  0  0  0  0  0  0  0  0
    4.0769    2.8107    1.2145 C   0  0  0  0  0  0  0  0  0  0  0  0
    5.1135    3.1662    1.3163 H   0  0  0  0  0  0  0  0  0  0  0  0
    3.0032    3.6447    1.5577 C   0  0  0  0  0  0  0  0  0  0  0  0
    3.1946    4.6625    1.9316 H   0  0  0  0  0  0  0  0  0  0  0  0
    1.6829    3.1889    1.4082 C   0  0  0  0  0  0  0  0  0  0  0  0
    0.8428    3.8555    1.6594 H   0  0  0  0  0  0  0  0  0  0  0  0
    1.4036    1.8955    0.9198 C   0  0  0  0  0  0  0  0  0  0  0  0
   -1.2621    2.3417    0.4831 C   0  0  0  0  0  0  0  0  0  0  0  0
   -1.0906    3.2875   -0.5595 C   0  0  0  0  0  0  0  0  0  0  0  0
   -0.1496    3.2823   -1.1313 H   0  0  0  0  0  0  0  0  0  0  0  0
   -2.1125    4.1770   -0.9086 C   0  0  0  0  0  0  0  0  0  0  0  0
   -1.9616    4.8875   -1.7360 H   0  0  0  0  0  0  0  0  0  0  0  0
   -3.3369    4.1537   -0.2173 C   0  0  0  0  0  0  0  0  0  0  0  0
   -4.1432    4.8497   -0.4968 H   0  0  0  0  0  0  0  0  0  0  0  0
   -3.5270    3.2398    0.8311 C   0  0  0  0  0  0  0  0  0  0  0  0
   -4.4789    3.2244    1.3851 H   0  0  0  0  0  0  0  0  0  0  0  0
   -2.4993    2.3475    1.1727 C   0  0  0  0  0  0  0  0  0  0  0  0
   -2.6532    1.6456    2.0078 H   0  0  0  0  0  0  0  0  0  0  0  0
   -0.4024    0.3209    2.0932 C   0  0  0  0  0  0  0  0  0  0  0  0
    0.0111    0.6620    3.4011 C   0  0  0  0  0  0  0  0  0  0  0  0
    0.5460    1.6122    3.5577 H   0  0  0  0  0  0  0  0  0  0  0  0
   -0.2210   -0.1861    4.4938 C   0  0  0  0  0  0  0  0  0  0  0  0
    0.1220    0.1054    5.4987 H   0  0  0  0  0  0  0  0  0  0  0  0
   -0.8761   -1.4137    4.3043 C   0  0  0  0  0  0  0  0  0  0  0  0
   -1.0517   -2.0900    5.1545 H   0  0  0  0  0  0  0  0  0  0  0  0
   -1.3023   -1.7795    3.0198 C   0  0  0  0  0  0  0  0  0  0  0  0
   -1.8084   -2.7441    2.8785 H   0  0  0  0  0  0  0  0  0  0  0  0
   -1.0667   -0.9212    1.9257 C   0  0  0  0  0  0  0  0  0  0  0  0
   -1.2809   -3.1725   -0.0419 C   0  0  0  0  0  0  0  0  0  0  0  0
   -0.3564   -3.3487    0.5458 H   0  0  0  0  0  0  0  0  0  0  0  0
   -2.3757   -4.0909    0.5194 C   0  0  0  0  0  0  0  0  0  0  0  0
   -3.3105   -4.0247   -0.0671 H   0  0  0  0  0  0  0  0  0  0  0  0
   -2.6275   -3.8872    1.5766 H   0  0  0  0  0  0  0  0  0  0  0  0
   -2.0271   -5.1431    0.4612 H   0  0  0  0  0  0  0  0  0  0  0  0
   -0.9850   -3.4894   -1.5149 C   0  0  0  0  0  0  0  0  0  0  0  0
   -0.7138   -4.5601   -1.6244 H   0  0  0  0  0  0  0  0  0  0  0  0
   -0.1510   -2.8732   -1.9043 H   0  0  0  0  0  0  0  0  0  0  0  0
   -1.8648   -3.2934   -2.1585 H   0  0  0  0  0  0  0  0  0  0  0  0
   -3.3249   -0.8635    0.0066 C   0  0  0  0  0  0  0  0  0  0  0  0
   -3.2343    0.2192   -0.2269 H   0  0  0  0  0  0  0  0  0  0  0  0
   -4.1207   -1.0295    1.3057 C   0  0  0  0  0  0  0  0  0  0  0  0
   -5.1475   -0.6411    1.1425 H   0  0  0  0  0  0  0  0  0  0  0  0
   -3.6795   -0.4687    2.1508 H   0  0  0  0  0  0  0  0  0  0  0  0
   -4.2168   -2.0910    1.6112 H   0  0  0  0  0  0  0  0  0  0  0  0
   -4.0240   -1.5378   -1.1817 C   0  0  0  0  0  0  0  0  0  0  0  0
   -4.2575   -2.6021   -0.9852 H   0  0  0  0  0  0  0  0  0  0  0  0
   -3.4303   -1.4451   -2.1089 H   0  0  0  0  0  0  0  0  0  0  0  0
   -4.9886   -1.0195   -1.3602 H   0  0  0  0  0  0  0  0  0  0  0  0
  1 24  1  0  0  0  0
  1  4  1  0  0  0  0
  2 54  1  0  0  0  0
  3 33  1  0  0  0  0
  3 45  1  0  0  0  0
  4  5  1  0  0  0  0
  4  6  1  0  0  0  0
  6  8  1  0  0  0  0
  6  7  1  0  0  0  0
  9  6  1  0  0  0  0
 10  4  1  0  0  0  0
 10 13  1  0  0  0  0
 11 10  1  0  0  0  0
 12 10  1  0  0  0  0
 14 16  1  0  0  0  0
 14  1  1  0  0  0  0
 15 14  1  0  0  0  0
 16 17  1  0  0  0  0
 16 18  1  0  0  0  0
 19 16  1  0  0  0  0
 20 23  1  0  0  0  0
 20 14  1  0  0  0  0
 21 20  1  0  0  0  0
 22 20  1  0  0  0  0
 24 25  2  0  0  0  0
 24 33  1  0  0  0  0
 25 27  1  0  0  0  0
 26 25  1  0  0  0  0
 27 28  1  0  0  0  0
 27 29  2  0  0  0  0
 29 30  1  0  0  0  0
 31 29  1  0  0  0  0
 31 32  1  0  0  0  0
 33 31  2  0  0  0  0
 34  3  1  0  0  0  0
 34 43  1  0  0  0  0
 35 34  2  0  0  0  0
 36 35  1  0  0  0  0
 37 35  1  0  0  0  0
 37 39  2  0  0  0  0
 38 37  1  0  0  0  0
 39 41  1  0  0  0  0
 40 39  1  0  0  0  0
 41 43  2  0  0  0  0
 41 42  1  0  0  0  0
 43 44  1  0  0  0  0
 45 46  1  0  0  0  0
 46 47  1  0  0  0  0
 46 48  2  0  0  0  0
 48 49  1  0  0  0  0
 50 48  1  0  0  0  0
 50 51  1  0  0  0  0
 52 50  2  0  0  0  0
 53 52  1  0  0  0  0
 54 45  2  0  0  0  0
 54 52  1  0  0  0  0
 55  2  1  0  0  0  0
 55 57  1  0  0  0  0
 55 56  1  0  0  0  0
 57 59  1  0  0  0  0
 58 57  1  0  0  0  0
 60 57  1  0  0  0  0
 61 55  1  0  0  0  0
 62 61  1  0  0  0  0
 63 61  1  0  0  0  0
 64 61  1  0  0  0  0
 65  2  1  0  0  0  0
 65 67  1  0  0  0  0
 66 65  1  0  0  0  0
 67 70  1  0  0  0  0
 67 69  1  0  0  0  0
 68 67  1  0  0  0  0
 71 72  1  0  0  0  0
 71 65  1  0  0  0  0
 73 71  1  0  0  0  0
 74 71  1  0  0  0  0
M  END
