1,19
q = 0.0, confidence = 0.994

 45 46  0  0  1  0  0  0  0  0999 V2000
    0.1766    0.6849    0.2437 P   0  0  0  0  0  0  0  0  0  0  0  0
   -1.3495    0.5879    1.0155 N   0  0  0  0  0  0  0  0  0  0  0  0
   -1.7972    1.4864    1.2442 H   0  0  0  0  0  0  0  0  0  0  0  0
   -2.3349   -0.4083    0.6296 C   0  0  2  0  0  0  0  0  0  0  0  0
   -2.1200   -0.7758   -0.4047 H   0  0  0  0  0  0  0  0  0  0  0  0
   -3.7002    0.2691    0.5489 C   0  0  0  0  0  0  0  0  0  0  0  0
   -3.8825    1.4631    0.7223 O   0  0  0  0  0  0  0  0  0  0  0  0
   -4.6718   -0.6092    0.2510 O   0  0  0  0  0  0  0  0  0  0  0  0
   -5.9928   -0.0580    0.1188 C   0  0  0  0  0  0  0  0  0  0  0  0
   -6.6539   -0.9087   -0.1209 H   0  0  0  0  0  0  0  0  0  0  0  0
   -6.0194    0.6956   -0.6930 H   0  0  0  0  0  0  0  0  0  0  0  0
   -6.3089    0.4293    1.0623 H   0  0  0  0  0  0  0  0  0  0  0  0
   -2.3486   -1.6367    1.5637 C   0  0  0  0  0  0  0  0  0  0  0  0
   -2.7015   -1.3257    2.5700 H   0  0  0  0  0  0  0  0  0  0  0  0
   -3.0743   -2.3769    1.1709 H   0  0  0  0  0  0  0  0  0  0  0  0
   -0.9681   -2.2638    1.7212 C   0  0  0  0  0  0  0  0  0  0  0  0
   -1.0281   -3.1803    2.3428 H   0  0  0  0  0  0  0  0  0  0  0  0
   -0.2525   -1.5642    2.1989 H   0  0  0  0  0  0  0  0  0  0  0  0
   -0.2718   -2.8050    0.0987 S   0  0  0  0  0  0  0  0  0  0  0  0
    1.2741   -3.5474    0.7204 C   0  0  0  0  0  0  0  0  0  0  0  0
    1.8141   -3.8597   -0.1929 H   0  0  0  0  0  0  0  0  0  0  0  0
    1.0239   -4.4169    1.3589 H   0  0  0  0  0  0  0  0  0  0  0  0
    1.8617   -2.7935    1.2788 H   0  0  0  0  0  0  0  0  0  0  0  0
    0.2244    2.4313   -0.3125 C   0  0  0  0  0  0  0  0  0  0  0  0
   -0.9589    3.0261   -0.7956 C   0  0  0  0  0  0  0  0  0  0  0  0
   -1.9049    2.4645   -0.8017 H   0  0  0  0  0  0  0  0  0  0  0  0
   -0.9386    4.3489   -1.2617 C   0  0  0  0  0  0  0  0  0  0  0  0
   -1.8671    4.8070   -1.6345 H   0  0  0  0  0  0  0  0  0  0  0  0
    0.2579    5.0812   -1.2537 C   0  0  0  0  0  0  0  0  0  0  0  0
    0.2723    6.1183   -1.6216 H   0  0  0  0  0  0  0  0  0  0  0  0
    1.4379    4.4879   -0.7763 C   0  0  0  0  0  0  0  0  0  0  0  0
    2.3794    5.0574   -0.7702 H   0  0  0  0  0  0  0  0  0  0  0  0
    1.4262    3.1669   -0.3104 C   0  0  0  0  0  0  0  0  0  0  0  0
    2.3544    2.7074    0.0565 H   0  0  0  0  0  0  0  0  0  0  0  0
    1.4361    0.5810    1.5791 C   0  0  0  0  0  0  0  0  0  0  0  0
    2.7735    0.3005    1.2220 C   0  0  0  0  0  0  0  0  0  0  0  0
    3.0335    0.1696    0.1579 H   0  0  0  0  0  0  0  0  0  0  0  0
    3.7502    0.1860    2.2226 C   0  0  0  0  0  0  0  0  0  0  0  0
    4.7924   -0.0303    1.9426 H   0  0  0  0  0  0  0  0  0  0  0  0
    3.3989    0.3351    3.5750 C   0  0  0  0  0  0  0  0  0  0  0  0
    4.1666    0.2352    4.3573 H   0  0  0  0  0  0  0  0  0  0  0  0
    2.0673    0.6060    3.9293 C   0  0  0  0  0  0  0  0  0  0  0  0
    1.7904    0.7205    4.9885 H   0  0  0  0  0  0  0  0  0  0  0  0
    1.0852    0.7317    2.9344 C   0  0  0  0  0  0  0  0  0  0  0  0
    0.0368    0.9356    3.2010 H   0  0  0  0  0  0  0  0  0  0  0  0
  1  2  1  0  0  0  0
  1 35  1  0  0  0  0
  2  3  1  0  0  0  0
  4  5  1  6  0  0  0
  4  2  1  0  0  0  0
  4 13  1  0  0  0  0
  6  4  1  0  0  0  0
  6  7  2  0  0  0  0
  8  6  1  0  0  0  0
  9  8  1  0  0  0  0
  9 12  1  0  0  0  0
 10  9  1  0  0  0  0
 11  9  1  0  0  0  0
 13 16  1  0  0  0  0
 13 14  1  0  0  0  0
 15 13  1  0  0  0  0
 16 18  1  0  0  0  0
 16 17  1  0  0  0  0
 19 20  1  0  0  0  0
 19 16  1  0  0  0  0
 20 23  1  0  0  0  0
 20 22  1  0  0  0  0
 21 20  1  0  0  0  0
 24 33  1  0  0  0  0
 24  1  1  0  0  0  0
 25 24  2  0  0  0  0
 26 25  1  0  0  0  0
 27 29  2  0  0  0  0
 27 25  1  0  0  0  0
 28 27  1  0  0  0  0
 29 31  1  0  0  0  0
 30 29  1  0  0  0  0
 31 32  1  0  0  0  0
 31 33  2  0  0  0  0
 33 34  1  0  0  0  0
 35 44  1  0  0  0  0
 36 35  2  0  0  0  0
 36 38  1  0  0  0  0
 37 36  1  0  0  0  0
 38 40  2  0  0  0  0
 39 38  1  0  0  0  0
 40 42  1  0  0  0  0
 40 41  1  0  0  0  0
 42 43  1  0  0  0  0
 44 45  1  0  0  0  0
 44 42  2  0  0  0  0
M  END
