1,2
q = -1.0

 42 43  0  0  0  0  0  0  0  0999 V2000
   -0.1503    0.5839    2.3655 S   0  0  0  0  0  1  0  0  0  0  0  0
    2.4760   -0.0544    0.7409 P   0  0  0  0  0  0  0  0  0  0  0  0
    2.6848    0.3183    2.5490 C   0  0  0  0  0  0  0  0  0  0  0  0
    2.7191   -0.6752    3.0413 H   0  0  0  0  0  0  0  0  0  0  0  0
    3.6544    0.8257    2.7409 H   0  0  0  0  0  0  0  0  0  0  0  0
    1.4988    1.1197    3.0689 C   0  0  0  0  0  0  0  0  0  0  0  0
    1.6230    2.1990    2.8460 H   0  0  0  0  0  0  0  0  0  0  0  0
    1.4102    1.0204    4.1696 H   0  0  0  0  0  0  0  0  0  0  0  0
    2.9139    1.4746   -0.2273 C   0  0  0  0  0  0  0  0  0  0  0  0
    2.8816    1.0901   -1.2719 H   0  0  0  0  0  0  0  0  0  0  0  0
    4.3115    2.0408    0.0670 C   0  0  0  0  0  0  0  0  0  0  0  0
    4.3533    2.3923    1.1225 H   0  0  0  0  0  0  0  0  0  0  0  0
    5.0881    1.2540   -0.0354 H   0  0  0  0  0  0  0  0  0  0  0  0
    4.6319    3.2175   -0.8690 C   0  0  0  0  0  0  0  0  0  0  0  0
    5.6293    3.6377   -0.6208 H   0  0  0  0  0  0  0  0  0  0  0  0
    4.7025    2.8353   -1.9119 H   0  0  0  0  0  0  0  0  0  0  0  0
    3.5535    4.3067   -0.8036 C   0  0  0  0  0  0  0  0  0  0  0  0
    3.7893    5.1245   -1.5165 H   0  0  0  0  0  0  0  0  0  0  0  0
    3.5608    4.7651    0.2115 H   0  0  0  0  0  0  0  0  0  0  0  0
    2.1608    3.7290   -1.0839 C   0  0  0  0  0  0  0  0  0  0  0  0
    2.1126    3.3593   -2.1324 H   0  0  0  0  0  0  0  0  0  0  0  0
    1.3812    4.5144   -0.9961 H   0  0  0  0  0  0  0  0  0  0  0  0
    1.8308    2.5670   -0.1396 C   0  0  0  0  0  0  0  0  0  0  0  0
    0.8403    2.1434   -0.3971 H   0  0  0  0  0  0  0  0  0  0  0  0
    1.7561    2.9479    0.9016 H   0  0  0  0  0  0  0  0  0  0  0  0
    3.8006   -1.3091    0.3491 C   0  0  0  0  0  0  0  0  0  0  0  0
    4.7524   -0.8773    0.7391 H   0  0  0  0  0  0  0  0  0  0  0  0
    3.9297   -1.5297   -1.1703 C   0  0  0  0  0  0  0  0  0  0  0  0
    4.1914   -0.5803   -1.6803 H   0  0  0  0  0  0  0  0  0  0  0  0
    2.9369   -1.8282   -1.5715 H   0  0  0  0  0  0  0  0  0  0  0  0
    4.9814   -2.5985   -1.4978 C   0  0  0  0  0  0  0  0  0  0  0  0
    5.0209   -2.7559   -2.5959 H   0  0  0  0  0  0  0  0  0  0  0  0
    5.9882   -2.2271   -1.1987 H   0  0  0  0  0  0  0  0  0  0  0  0
    4.6973   -3.9177   -0.7714 C   0  0  0  0  0  0  0  0  0  0  0  0
    3.7379   -4.3404   -1.1446 H   0  0  0  0  0  0  0  0  0  0  0  0
    5.4838   -4.6666   -1.0019 H   0  0  0  0  0  0  0  0  0  0  0  0
    4.5919   -3.6948    0.7411 C   0  0  0  0  0  0  0  0  0  0  0  0
    5.5809   -3.3661    1.1340 H   0  0  0  0  0  0  0  0  0  0  0  0
    4.3486   -4.6446    1.2614 H   0  0  0  0  0  0  0  0  0  0  0  0
    3.5299   -2.6391    1.0780 C   0  0  0  0  0  0  0  0  0  0  0  0
    3.4867   -2.4834    2.1759 H   0  0  0  0  0  0  0  0  0  0  0  0
    2.5260   -3.0087    0.7769 H   0  0  0  0  0  0  0  0  0  0  0  0
  1  6  1  0  0  0  0
  2  3  1  0  0  0  0
  3  5  1  0  0  0  0
  3  4  1  0  0  0  0
  3  6  1  0  0  0  0
  6  8  1  0  0  0  0
  7  6  1  0  0  0  0
  9 23  1  0  0  0  0
  9 11  1  0  0  0  0
  9  2  1  0  0  0  0
 10  9  1  0  0  0  0
 11 12  1  0  0  0  0
 13 11  1  0  0  0  0
 14 17  1  0  0  0  0
 14 15  1  0  0  0  0
 14 11  1  0  0  0  0
 16 14  1  0  0  0  0
 17 19  1  0  0  0  0
 18 17  1  0  0  0  0
 20 22  1  0  0  0  0
 20 17  1  0  0  0  0
 20 23  1  0  0  0  0
 21 20  1  0  0  0  0
 23 25  1  0  0  0  0
 24 23  1  0  0  0  0
 26 27  1  0  0  0  0
 26  2  1  0  0  0  0
 26 40  1  0  0  0  0
 28 26  1  0  0  0  0
 29 28  1  0  0  0  0
 30 28  1  0  0  0  0
 31 33  1  0  0  0  0
 31 28  1  0  0  0  0
 31 34  1  0  0  0  0
 32 31  1  0  0  0  0
 34 37  1  0  0  0  0
 35 34  1  0  0  0  0
 36 34  1  0  0  0  0
 37 40  1  0  0  0  0
 37 38  1  0  0  0  0
 37 39  1  0  0  0  0
 40 41  1  0  0  0  0
 42 40  1  0  0  0  0
M  END
