1,5
q = 0.0, confidence = 0.98

 51 53  0  0  0  0  0  0  0  0999 V2000
   -1.2009    0.2760    0.2867 P   0  0  0  0  0  0  0  0  0  0  0  0
   -0.3457    1.8815    0.4843 C   0  0  0  0  0  0  0  0  0  0  0  0
   -0.8583    2.6783    1.0466 H   0  0  0  0  0  0  0  0  0  0  0  0
    0.8741    2.1037   -0.0524 C   0  0  0  0  0  0  0  0  0  0  0  0
    1.6392    0.7367   -1.0125 S   0  0  0  0  0  0  0  0  0  0  0  0
    1.6202    3.4380   -0.0855 C   0  0  0  0  0  0  0  0  0  0  0  0
    1.5032    3.9834   -1.5316 C   0  0  0  0  0  0  0  0  0  0  0  0
    1.9531    3.2841   -2.2637 H   0  0  0  0  0  0  0  0  0  0  0  0
    2.0347    4.9535   -1.6101 H   0  0  0  0  0  0  0  0  0  0  0  0
    0.4429    4.1418   -1.8129 H   0  0  0  0  0  0  0  0  0  0  0  0
    0.9784    4.4419    0.8889 C   0  0  0  0  0  0  0  0  0  0  0  0
    1.5422    5.3954    0.8622 H   0  0  0  0  0  0  0  0  0  0  0  0
    0.9966    4.0648    1.9311 H   0  0  0  0  0  0  0  0  0  0  0  0
   -0.0711    4.6714    0.6164 H   0  0  0  0  0  0  0  0  0  0  0  0
    3.1127    3.2759    0.2735 C   0  0  0  0  0  0  0  0  0  0  0  0
    3.6369    2.5998   -0.4293 H   0  0  0  0  0  0  0  0  0  0  0  0
    3.2472    2.8713    1.2952 H   0  0  0  0  0  0  0  0  0  0  0  0
    3.6088    4.2657    0.2208 H   0  0  0  0  0  0  0  0  0  0  0  0
   -2.8819    0.7193   -0.2718 C   0  0  0  0  0  0  0  0  0  0  0  0
   -3.1531    1.9603   -0.8812 C   0  0  0  0  0  0  0  0  0  0  0  0
   -2.3535    2.7084   -0.9948 H   0  0  0  0  0  0  0  0  0  0  0  0
   -4.4435    2.2388   -1.3566 C   0  0  0  0  0  0  0  0  0  0  0  0
   -4.6535    3.2103   -1.8290 H   0  0  0  0  0  0  0  0  0  0  0  0
   -5.4601    1.2788   -1.2348 C   0  0  0  0  0  0  0  0  0  0  0  0
   -6.4711    1.4980   -1.6103 H   0  0  0  0  0  0  0  0  0  0  0  0
   -5.1845    0.0343   -0.6437 C   0  0  0  0  0  0  0  0  0  0  0  0
   -5.9761   -0.7258   -0.5627 H   0  0  0  0  0  0  0  0  0  0  0  0
   -3.8999   -0.2522   -0.1639 C   0  0  0  0  0  0  0  0  0  0  0  0
   -3.6689   -1.2369    0.2687 H   0  0  0  0  0  0  0  0  0  0  0  0
   -1.4135   -0.3385    2.0016 C   0  0  0  0  0  0  0  0  0  0  0  0
   -2.2554    0.3332    2.9120 C   0  0  0  0  0  0  0  0  0  0  0  0
   -2.8439    1.2039    2.5821 H   0  0  0  0  0  0  0  0  0  0  0  0
   -2.3552   -0.1223    4.2341 C   0  0  0  0  0  0  0  0  0  0  0  0
   -3.0132    0.4000    4.9451 H   0  0  0  0  0  0  0  0  0  0  0  0
   -1.6234   -1.2492    4.6467 C   0  0  0  0  0  0  0  0  0  0  0  0
   -1.7082   -1.6079    5.6839 H   0  0  0  0  0  0  0  0  0  0  0  0
   -0.7948   -1.9241    3.7364 C   0  0  0  0  0  0  0  0  0  0  0  0
   -0.2333   -2.8154    4.0544 H   0  0  0  0  0  0  0  0  0  0  0  0
   -0.6860   -1.4728    2.4122 C   0  0  0  0  0  0  0  0  0  0  0  0
   -0.0553   -2.0009    1.6798 H   0  0  0  0  0  0  0  0  0  0  0  0
    2.8284    0.0924    0.1967 C   0  0  0  0  0  0  0  0  0  0  0  0
    3.9917   -0.4898   -0.3309 C   0  0  0  0  0  0  0  0  0  0  0  0
    4.1466   -0.5185   -1.4187 H   0  0  0  0  0  0  0  0  0  0  0  0
    4.9184   -1.0688    0.5492 C   0  0  0  0  0  0  0  0  0  0  0  0
    5.8286   -1.5357    0.1443 H   0  0  0  0  0  0  0  0  0  0  0  0
    4.6845   -1.0602    1.9330 C   0  0  0  0  0  0  0  0  0  0  0  0
    5.4164   -1.5140    2.6178 H   0  0  0  0  0  0  0  0  0  0  0  0
    3.5093   -0.4835    2.4432 C   0  0  0  0  0  0  0  0  0  0  0  0
    3.3123   -0.4894    3.5259 H   0  0  0  0  0  0  0  0  0  0  0  0
    2.5682    0.0894    1.5762 C   0  0  0  0  0  0  0  0  0  0  0  0
    1.6357    0.5183    1.9694 H   0  0  0  0  0  0  0  0  0  0  0  0
  1  2  1  0  0  0  0
  1 30  1  0  0  0  0
  2  3  1  0  0  0  0
  4  2  2  0  0  0  0
  5  4  1  0  0  0  0
  5 41  1  0  0  0  0
  6  4  1  0  0  0  0
  6 15  1  0  0  0  0
  6 11  1  0  0  0  0
  7  6  1  0  0  0  0
  8  7  1  0  0  0  0
  9  7  1  0  0  0  0
 10  7  1  0  0  0  0
 11 13  1  0  0  0  0
 12 11  1  0  0  0  0
 14 11  1  0  0  0  0
 15 17  1  0  0  0  0
 16 15  1  0  0  0  0
 18 15  1  0  0  0  0
 19 28  1  0  0  0  0
 19  1  1  0  0  0  0
 20 19  2  0  0  0  0
 21 20  1  0  0  0  0
 22 24  2  0  0  0  0
 22 20  1  0  0  0  0
 23 22  1  0  0  0  0
 24 26  1  0  0  0  0
 25 24  1  0  0  0  0
 26 27  1  0  0  0  0
 26 28  2  0  0  0  0
 28 29  1  0  0  0  0
 30 39  2  0  0  0  0
 30 31  1  0  0  0  0
 31 33  2  0  0  0  0
 32 31  1  0  0  0  0
 33 35  1  0  0  0  0
 33 34  1  0  0  0  0
 35 36  1  0  0  0  0
 37 38  1  0  0  0  0
 37 35  2  0  0  0  0
 39 37  1  0  0  0  0
 40 39  1  0  0  0  0
 41 50  1  0  0  0  0
 42 41  2  0  0  0  0
 42 44  1  0  0  0  0
 43 42  1  0  0  0  0
 44 46  2  0  0  0  0
 45 44  1  0  0  0  0
 46 48  1  0  0  0  0
 46 47  1  0  0  0  0
 48 49  1  0  0  0  0
 50 51  1  0  0  0  0
 50 48  2  0  0  0  0
M  END
