1,2
q = -1.0

 30 31  0  0  0  0  0  0  0  0999 V2000
   -1.1316   -1.2548    2.2088 S   0  0  0  0  0  1  0  0  0  0  0  0
    1.1613    0.0717    0.5515 P   0  0  0  0  0  0  0  0  0  0  0  0
    2.0172    1.6142    0.0397 C   0  0  0  0  0  0  0  0  0  0  0  0
    2.9296    2.3090    0.8576 C   0  0  0  0  0  0  0  0  0  0  0  0
    3.1707    1.9363    1.8642 H   0  0  0  0  0  0  0  0  0  0  0  0
    3.5412    3.4846    0.3929 C   0  0  0  0  0  0  0  0  0  0  0  0
    4.2492    4.0246    1.0402 H   0  0  0  0  0  0  0  0  0  0  0  0
    3.2522    3.9688   -0.8922 C   0  0  0  0  0  0  0  0  0  0  0  0
    3.7330    4.8903   -1.2546 H   0  0  0  0  0  0  0  0  0  0  0  0
    2.3436    3.2790   -1.7122 C   0  0  0  0  0  0  0  0  0  0  0  0
    2.1090    3.6592   -2.7181 H   0  0  0  0  0  0  0  0  0  0  0  0
    1.7222    2.1120   -1.2474 C   0  0  0  0  0  0  0  0  0  0  0  0
    0.9911    1.5776   -1.8748 H   0  0  0  0  0  0  0  0  0  0  0  0
    2.2797   -1.2579   -0.0900 C   0  0  0  0  0  0  0  0  0  0  0  0
    1.8011   -2.5857   -0.0919 C   0  0  0  0  0  0  0  0  0  0  0  0
    0.7667   -2.7876    0.2274 H   0  0  0  0  0  0  0  0  0  0  0  0
    2.6287   -3.6345   -0.5187 C   0  0  0  0  0  0  0  0  0  0  0  0
    2.2459   -4.6666   -0.5146 H   0  0  0  0  0  0  0  0  0  0  0  0
    3.9333   -3.3679   -0.9644 C   0  0  0  0  0  0  0  0  0  0  0  0
    4.5781   -4.1907   -1.3094 H   0  0  0  0  0  0  0  0  0  0  0  0
    4.4097   -2.0476   -0.9771 C   0  0  0  0  0  0  0  0  0  0  0  0
    5.4287   -1.8316   -1.3335 H   0  0  0  0  0  0  0  0  0  0  0  0
    3.5894   -0.9960   -0.5393 C   0  0  0  0  0  0  0  0  0  0  0  0
    3.9681    0.0372   -0.5531 H   0  0  0  0  0  0  0  0  0  0  0  0
    1.4325   -0.0655    2.3987 C   0  0  0  0  0  0  0  0  0  0  0  0
    2.5103   -0.1945    2.6308 H   0  0  0  0  0  0  0  0  0  0  0  0
    1.0775    0.8936    2.8308 H   0  0  0  0  0  0  0  0  0  0  0  0
    0.6041   -1.2295    2.9237 C   0  0  0  0  0  0  0  0  0  0  0  0
    0.4787   -1.1779    4.0239 H   0  0  0  0  0  0  0  0  0  0  0  0
    1.0826   -2.2018    2.6836 H   0  0  0  0  0  0  0  0  0  0  0  0
  1 28  1  0  0  0  0
  2 25  1  0  0  0  0
  3  2  1  0  0  0  0
  3  4  1  0  0  0  0
  4  5  1  0  0  0  0
  6  4  2  0  0  0  0
  6  7  1  0  0  0  0
  8  6  1  0  0  0  0
  9  8  1  0  0  0  0
 10 12  1  0  0  0  0
 10  8  2  0  0  0  0
 11 10  1  0  0  0  0
 12  3  2  0  0  0  0
 13 12  1  0  0  0  0
 14  2  1  0  0  0  0
 15 14  1  0  0  0  0
 15 16  1  0  0  0  0
 17 18  1  0  0  0  0
 17 15  2  0  0  0  0
 19 17  1  0  0  0  0
 20 19  1  0  0  0  0
 21 19  2  0  0  0  0
 21 23  1  0  0  0  0
 22 21  1  0  0  0  0
 23 14  2  0  0  0  0
 24 23  1  0  0  0  0
 25 26  1  0  0  0  0
 25 27  1  0  0  0  0
 25 28  1  0  0  0  0
 28 29  1  0  0  0  0
 30 28  1  0  0  0  0
M  END
