1,2
q = -1.0

 37 39  0  0  1  0  0  0  0  0999 V2000
   -1.4932   -2.8344   -0.7443 S   0  0  0  0  0  1  0  0  0  0  0  0
   -1.4544    0.4329   -0.1047 P   0  0  2  0  0  0  0  0  0  0  0  0
   -1.1137    3.2718   -0.3513 C   0  0  0  0  0  0  0  0  0  0  0  0
   -0.7022    4.4117   -1.0582 C   0  0  0  0  0  0  0  0  0  0  0  0
   -0.1861    4.2896   -2.3577 C   0  0  0  0  0  0  0  0  0  0  0  0
   -0.0716    3.0208   -2.9489 C   0  0  0  0  0  0  0  0  0  0  0  0
   -0.4679    1.8783   -2.2402 C   0  0  0  0  0  0  0  0  0  0  0  0
   -1.0024    1.9974   -0.9402 C   0  0  0  0  0  0  0  0  0  0  0  0
   -3.2034    0.0053   -0.6317 C   0  0  2  0  0  0  0  0  0  0  0  0
   -3.9735    1.2297   -0.1573 C   0  0  0  0  0  0  0  0  0  0  0  0
   -3.5082    1.6438    1.0572 C   0  0  0  0  0  0  0  0  0  0  0  0
   -2.3593    0.7535    1.5105 C   0  0  1  0  0  0  0  0  0  0  0  0
   -2.8963   -0.7032    1.7499 C   0  0  2  0  0  0  0  0  0  0  0  0
   -3.5229   -1.1414    0.3764 C   0  0  2  0  0  0  0  0  0  0  0  0
   -5.1060    1.7742   -0.9642 C   0  0  0  0  0  0  0  0  0  0  0  0
   -4.0234    2.7474    1.9256 C   0  0  0  0  0  0  0  0  0  0  0  0
   -3.8824   -0.8127    2.9093 C   0  0  0  0  0  0  0  0  0  0  0  0
   -3.1183   -2.5557   -0.0639 C   0  0  0  0  0  0  0  0  0  0  0  0
   -3.9203   -3.4729    0.0443 O   0  0  0  0  0  0  0  0  0  0  0  0
   -1.5139    3.3773    0.6664 H   0  0  0  0  0  0  0  0  0  0  0  0
   -0.7842    5.4032   -0.5876 H   0  0  0  0  0  0  0  0  0  0  0  0
    0.1364    5.1858   -2.9090 H   0  0  0  0  0  0  0  0  0  0  0  0
    0.3408    2.9186   -3.9640 H   0  0  0  0  0  0  0  0  0  0  0  0
   -0.3500    0.8783   -2.6880 H   0  0  0  0  0  0  0  0  0  0  0  0
   -3.3371   -0.2737   -1.6918 H   0  0  0  0  0  0  0  0  0  0  0  0
   -1.7533    1.1358    2.3530 H   0  0  0  0  0  0  0  0  0  0  0  0
   -2.0188   -1.3525    1.9579 H   0  0  0  0  0  0  0  0  0  0  0  0
   -4.6255   -1.2026    0.4831 H   0  0  0  0  0  0  0  0  0  0  0  0
   -5.8855    1.0002   -1.1350 H   0  0  0  0  0  0  0  0  0  0  0  0
   -4.7523    2.0902   -1.9695 H   0  0  0  0  0  0  0  0  0  0  0  0
   -5.5900    2.6449   -0.4818 H   0  0  0  0  0  0  0  0  0  0  0  0
   -3.2189    3.4701    2.1859 H   0  0  0  0  0  0  0  0  0  0  0  0
   -4.4044    2.3522    2.8921 H   0  0  0  0  0  0  0  0  0  0  0  0
   -4.8428    3.3134    1.4427 H   0  0  0  0  0  0  0  0  0  0  0  0
   -4.2393   -1.8577    3.0053 H   0  0  0  0  0  0  0  0  0  0  0  0
   -4.7707   -0.1698    2.7399 H   0  0  0  0  0  0  0  0  0  0  0  0
   -3.4151   -0.5196    3.8716 H   0  0  0  0  0  0  0  0  0  0  0  0
  1 18  1  0  0  0  0
  2  8  1  6  0  0  0
  2 12  1  0  0  0  0
  3 20  1  0  0  0  0
  4 21  1  0  0  0  0
  4  3  2  0  0  0  0
  5  4  1  0  0  0  0
  6  5  2  0  0  0  0
  6  7  1  0  0  0  0
  7  8  2  0  0  0  0
  8  3  1  0  0  0  0
  9 25  1  6  0  0  0
  9 10  1  0  0  0  0
  9  2  1  0  0  0  0
  9 14  1  0  0  0  0
 10 11  2  0  0  0  0
 11 12  1  0  0  0  0
 11 16  1  0  0  0  0
 12 13  1  0  0  0  0
 12 26  1  1  0  0  0
 13 27  1  1  0  0  0
 13 17  1  0  0  0  0
 14 28  1  1  0  0  0
 14 13  1  0  0  0  0
 15 31  1  0  0  0  0
 15 10  1  0  0  0  0
 16 32  1  0  0  0  0
 16 33  1  0  0  0  0
 17 35  1  0  0  0  0
 17 37  1  0  0  0  0
 18 19  2  0  0  0  0
 18 14  1  0  0  0  0
 22  5  1  0  0  0  0
 23  6  1  0  0  0  0
 24  7  1  0  0  0  0
 29 15  1  0  0  0  0
 30 15  1  0  0  0  0
 34 16  1  0  0  0  0
 36 17  1  0  0  0  0
M  END
