1,2
q = 0.0, confidence = 0.996

 60 65  0  0  0  0  0  0  0  0999 V2000
   -1.3799   -0.0251    0.9426 S   0  0  2  0  0  3  0  0  0  0  0  0
    1.6956   -0.2136    0.2197 P   0  0  0  0  0  0  0  0  0  0  0  0
   -1.7106    0.1414    2.3988 O   0  0  0  0  0  1  0  0  0  0  0  0
   -1.4771   -0.7843   -1.8203 O   0  0  0  0  0  0  0  0  0  0  0  0
    0.8709    1.3452    0.1617 N   0  0  0  0  0  0  0  0  0  0  0  0
   -6.5599    0.7676   -0.0211 C   0  0  0  0  0  0  0  0  0  0  0  0
   -4.1281    0.5042    0.3966 C   0  0  0  0  0  0  0  0  0  0  0  0
    4.7093    0.0081    3.7274 C   0  0  0  0  0  0  0  0  0  0  0  0
    0.3754    4.8369   -0.6519 C   0  0  0  0  0  0  0  0  0  0  0  0
    1.6584    5.2670   -0.9953 C   0  0  0  0  0  0  0  0  0  0  0  0
    2.7610    4.3771   -0.9695 C   0  0  0  0  0  0  0  0  0  0  0  0
    3.8947   -0.2545   -3.8477 C   0  0  0  0  0  0  0  0  0  0  0  0
    4.0088    1.1649    3.3516 C   0  0  0  0  0  0  0  0  0  0  0  0
   -4.3213    1.1672    1.6472 C   0  0  0  0  0  0  0  0  0  0  0  0
   -0.9649    2.7175    0.1129 C   0  0  0  0  0  0  0  0  0  0  0  0
    4.4872   -1.1992    3.0453 C   0  0  0  0  0  0  0  0  0  0  0  0
   -6.7133    1.4073    1.1981 C   0  0  0  0  0  0  0  0  0  0  0  0
   -0.5135    1.4360    0.3532 C   0  0  0  0  0  0  0  0  0  0  0  0
    1.3204    2.6059   -0.2449 C   0  0  0  0  0  0  0  0  0  0  0  0
    2.5406    0.1128   -3.7643 C   0  0  0  0  0  0  0  0  0  0  0  0
    2.8922   -0.0822    1.5888 C   0  0  0  0  0  0  0  0  0  0  0  0
   -3.8854   -0.7338   -2.1782 C   0  0  0  0  0  0  0  0  0  0  0  0
    2.6119    3.0374   -0.5968 C   0  0  0  0  0  0  0  0  0  0  0  0
    4.6025   -0.6003   -2.6864 C   0  0  0  0  0  0  0  0  0  0  0  0
   -5.2827    0.3087   -0.4544 C   0  0  0  0  0  0  0  0  0  0  0  0
   -5.1246   -0.3329   -1.7157 C   0  0  0  0  0  0  0  0  0  0  0  0
    3.5743   -1.2553    1.9832 C   0  0  0  0  0  0  0  0  0  0  0  0
    1.8929    0.1326   -2.5229 C   0  0  0  0  0  0  0  0  0  0  0  0
   -2.7301   -0.5181   -1.3788 C   0  0  0  0  0  0  0  0  0  0  0  0
   -1.2773   -1.8699   -2.7381 C   0  0  0  0  0  0  0  0  0  0  0  0
    2.6110   -0.2053   -1.3568 C   0  0  0  0  0  0  0  0  0  0  0  0
    3.0986    1.1266    2.2853 C   0  0  0  0  0  0  0  0  0  0  0  0
    0.1886    3.4879   -0.2721 C   0  0  0  0  0  0  0  0  0  0  0  0
    3.9648   -0.5775   -1.4367 C   0  0  0  0  0  0  0  0  0  0  0  0
   -5.5811    1.6073    2.0285 C   0  0  0  0  0  0  0  0  0  0  0  0
   -2.8639    0.0366   -0.0956 C   0  0  0  0  0  0  0  0  0  0  0  0
   -2.0039    3.0554    0.1931 H   0  0  0  0  0  0  0  0  0  0  0  0
   -0.4788    5.5297   -0.6742 H   0  0  0  0  0  0  0  0  0  0  0  0
    1.8201    6.3138   -1.2926 H   0  0  0  0  0  0  0  0  0  0  0  0
    3.7588    4.7458   -1.2503 H   0  0  0  0  0  0  0  0  0  0  0  0
    3.4687    2.3505   -0.5825 H   0  0  0  0  0  0  0  0  0  0  0  0
   -3.7840   -1.2059   -3.1640 H   0  0  0  0  0  0  0  0  0  0  0  0
   -6.0179   -0.4934   -2.3388 H   0  0  0  0  0  0  0  0  0  0  0  0
   -7.4243    0.6061   -0.6839 H   0  0  0  0  0  0  0  0  0  0  0  0
   -7.7043    1.7592    1.5211 H   0  0  0  0  0  0  0  0  0  0  0  0
   -5.6995    2.1170    2.9968 H   0  0  0  0  0  0  0  0  0  0  0  0
   -3.4609    1.3106    2.3114 H   0  0  0  0  0  0  0  0  0  0  0  0
    2.5455    2.0344    2.0070 H   0  0  0  0  0  0  0  0  0  0  0  0
    4.1653    2.1086    3.8954 H   0  0  0  0  0  0  0  0  0  0  0  0
    5.4212    0.0445    4.5659 H   0  0  0  0  0  0  0  0  0  0  0  0
    5.0165   -2.1139    3.3516 H   0  0  0  0  0  0  0  0  0  0  0  0
    3.3577   -2.2061    1.4684 H   0  0  0  0  0  0  0  0  0  0  0  0
    0.8294    0.4095   -2.4520 H   0  0  0  0  0  0  0  0  0  0  0  0
    1.9842    0.3844   -4.6739 H   0  0  0  0  0  0  0  0  0  0  0  0
    4.3999   -0.2724   -4.8252 H   0  0  0  0  0  0  0  0  0  0  0  0
    5.6615   -0.8920   -2.7509 H   0  0  0  0  0  0  0  0  0  0  0  0
    4.5199   -0.8460   -0.5263 H   0  0  0  0  0  0  0  0  0  0  0  0
   -1.7658   -2.7852   -2.3478 H   0  0  0  0  0  0  0  0  0  0  0  0
   -0.1849   -2.0365   -2.7681 H   0  0  0  0  0  0  0  0  0  0  0  0
   -1.6452   -1.6097   -3.7529 H   0  0  0  0  0  0  0  0  0  0  0  0
  1  3  1  1  0  0  0
  2 21  1  0  0  0  0
  4 29  1  0  0  0  0
  5  2  1  0  0  0  0
  5 18  1  0  0  0  0
  6 17  1  0  0  0  0
  7 14  2  0  0  0  0
  8 50  1  0  0  0  0
  9 33  1  0  0  0  0
 10 11  1  0  0  0  0
 10  9  2  0  0  0  0
 11 23  2  0  0  0  0
 12 20  2  0  0  0  0
 12 24  1  0  0  0  0
 13  8  1  0  0  0  0
 13 49  1  0  0  0  0
 14 35  1  0  0  0  0
 14 47  1  0  0  0  0
 15 37  1  0  0  0  0
 15 18  2  0  0  0  0
 16 51  1  0  0  0  0
 16  8  2  0  0  0  0
 17 45  1  0  0  0  0
 17 35  2  0  0  0  0
 18  1  1  0  0  0  0
 19  5  1  0  0  0  0
 20 28  1  0  0  0  0
 21 27  2  0  0  0  0
 21 32  1  0  0  0  0
 22 26  2  0  0  0  0
 22 29  1  0  0  0  0
 23 41  1  0  0  0  0
 23 19  1  0  0  0  0
 24 34  2  0  0  0  0
 25  6  2  0  0  0  0
 25  7  1  0  0  0  0
 26 25  1  0  0  0  0
 27 16  1  0  0  0  0
 28 53  1  0  0  0  0
 28 31  2  0  0  0  0
 29 36  2  0  0  0  0
 30 58  1  0  0  0  0
 30  4  1  0  0  0  0
 31  2  1  0  0  0  0
 32 13  2  0  0  0  0
 33 19  2  0  0  0  0
 33 15  1  0  0  0  0
 34 31  1  0  0  0  0
 34 57  1  0  0  0  0
 35 46  1  0  0  0  0
 36  7  1  0  0  0  0
 36  1  1  0  0  0  0
 38  9  1  0  0  0  0
 39 10  1  0  0  0  0
 40 11  1  0  0  0  0
 42 22  1  0  0  0  0
 43 26  1  0  0  0  0
 44  6  1  0  0  0  0
 48 32  1  0  0  0  0
 52 27  1  0  0  0  0
 54 20  1  0  0  0  0
 55 12  1  0  0  0  0
 56 24  1  0  0  0  0
 59 30  1  0  0  0  0
 60 30  1  0  0  0  0
M  END
