1,2
q = -1.0

 30 29  0  0  0  0  0  0  0  0999 V2000
    0.4050    1.6628   -1.2132 S   0  0  0  0  0  1  0  0  0  0  0  0
   -2.1081   -0.0280   -0.0025 P   0  0  0  0  0  0  0  0  0  0  0  0
   -2.7928    1.5572   -0.1172 N   0  0  0  0  0  0  0  0  0  0  0  0
   -3.4705    1.6636   -0.8794 H   0  0  0  0  0  0  0  0  0  0  0  0
   -3.0695   -0.7154    1.4597 C   0  0  0  0  0  0  0  0  0  0  0  0
   -2.7175   -1.7610    1.5837 H   0  0  0  0  0  0  0  0  0  0  0  0
   -2.8385   -0.8779   -1.5081 C   0  0  0  0  0  0  0  0  0  0  0  0
   -3.9418   -0.7565   -1.4178 H   0  0  0  0  0  0  0  0  0  0  0  0
   -1.9229    2.7202    0.0166 C   0  0  0  0  0  0  0  0  0  0  0  0
   -1.3552    2.6298    0.9680 H   0  0  0  0  0  0  0  0  0  0  0  0
   -2.5712    3.6198    0.1143 H   0  0  0  0  0  0  0  0  0  0  0  0
   -0.9341    2.9197   -1.1315 C   0  0  0  0  0  0  0  0  0  0  0  0
   -0.4387    3.9078   -1.0253 H   0  0  0  0  0  0  0  0  0  0  0  0
   -1.4883    2.9338   -2.0971 H   0  0  0  0  0  0  0  0  0  0  0  0
   -2.6492    0.0944    2.6934 C   0  0  0  0  0  0  0  0  0  0  0  0
   -3.0961   -0.3320    3.6154 H   0  0  0  0  0  0  0  0  0  0  0  0
   -2.9945    1.1445    2.5989 H   0  0  0  0  0  0  0  0  0  0  0  0
   -1.5471    0.1077    2.8130 H   0  0  0  0  0  0  0  0  0  0  0  0
   -4.5855   -0.6968    1.2588 C   0  0  0  0  0  0  0  0  0  0  0  0
   -5.1046   -1.0053    2.1905 H   0  0  0  0  0  0  0  0  0  0  0  0
   -4.9188   -1.3832    0.4546 H   0  0  0  0  0  0  0  0  0  0  0  0
   -4.9281    0.3292    1.0093 H   0  0  0  0  0  0  0  0  0  0  0  0
   -2.5036   -2.3740   -1.4988 C   0  0  0  0  0  0  0  0  0  0  0  0
   -2.9796   -2.8781   -2.3655 H   0  0  0  0  0  0  0  0  0  0  0  0
   -2.8576   -2.8835   -0.5802 H   0  0  0  0  0  0  0  0  0  0  0  0
   -1.4078   -2.5300   -1.5721 H   0  0  0  0  0  0  0  0  0  0  0  0
   -2.3663   -0.2014   -2.8004 C   0  0  0  0  0  0  0  0  0  0  0  0
   -2.7612   -0.7469   -3.6826 H   0  0  0  0  0  0  0  0  0  0  0  0
   -1.2588   -0.1755   -2.8541 H   0  0  0  0  0  0  0  0  0  0  0  0
   -2.7124    0.8487   -2.8734 H   0  0  0  0  0  0  0  0  0  0  0  0
  1 12  1  0  0  0  0
  2  5  1  0  0  0  0
  3  2  1  0  0  0  0
  3  9  1  0  0  0  0
  4  3  1  0  0  0  0
  5  6  1  0  0  0  0
  5 15  1  0  0  0  0
  7 23  1  0  0  0  0
  7  8  1  0  0  0  0
  7  2  1  0  0  0  0
  9 11  1  0  0  0  0
  9 10  1  0  0  0  0
 12 13  1  0  0  0  0
 12  9  1  0  0  0  0
 14 12  1  0  0  0  0
 15 18  1  0  0  0  0
 15 16  1  0  0  0  0
 17 15  1  0  0  0  0
 19  5  1  0  0  0  0
 19 20  1  0  0  0  0
 21 19  1  0  0  0  0
 22 19  1  0  0  0  0
 23 25  1  0  0  0  0
 24 23  1  0  0  0  0
 26 23  1  0  0  0  0
 27  7  1  0  0  0  0
 28 27  1  0  0  0  0
 29 27  1  0  0  0  0
 30 27  1  0  0  0  0
M  END
