1,2
q = 0.0, confidence = 0.998

 38 40  0  0  1  0  0  0  0  0999 V2000
    0.4091   -1.0959   -1.9084 S   0  0  0  0  0  1  0  0  0  0  0  0
   -0.6510    0.6134    0.1201 P   0  0  0  0  0  0  0  0  0  0  0  0
    2.0906    0.4195   -0.3188 N   0  0  0  0  0  0  0  0  0  0  0  0
    0.8803    0.0094   -0.7195 C   0  0  1  0  0  3  0  0  0  0  0  0
   -0.1193    1.3912    1.6983 C   0  0  0  0  0  0  0  0  0  0  0  0
    0.5344    2.6455    1.6856 C   0  0  0  0  0  0  0  0  0  0  0  0
    0.9897    3.2125    2.8865 C   0  0  0  0  0  0  0  0  0  0  0  0
    0.7757    2.5440    4.1026 C   0  0  0  0  0  0  0  0  0  0  0  0
    0.1071    1.3089    4.1181 C   0  0  0  0  0  0  0  0  0  0  0  0
   -0.3363    0.7253    2.9225 C   0  0  0  0  0  0  0  0  0  0  0  0
   -1.1421    2.0587   -0.9033 C   0  0  0  0  0  0  0  0  0  0  0  0
   -0.3057    2.6542   -1.8678 C   0  0  0  0  0  0  0  0  0  0  0  0
   -0.7668    3.7498   -2.6142 C   0  0  0  0  0  0  0  0  0  0  0  0
   -2.0580    4.2564   -2.4008 C   0  0  0  0  0  0  0  0  0  0  0  0
   -2.8952    3.6614   -1.4429 C   0  0  0  0  0  0  0  0  0  0  0  0
   -2.4436    2.5622   -0.7008 C   0  0  0  0  0  0  0  0  0  0  0  0
    3.3974    0.0107   -0.6596 C   0  0  0  0  0  0  0  0  0  0  0  0
    3.6838   -0.8638   -1.7277 C   0  0  0  0  0  0  0  0  0  0  0  0
    5.0161   -1.2188   -1.9800 C   0  0  0  0  0  0  0  0  0  0  0  0
    6.0613   -0.7094   -1.1946 C   0  0  0  0  0  0  0  0  0  0  0  0
    5.7702    0.1676   -0.1361 C   0  0  0  0  0  0  0  0  0  0  0  0
    4.4465    0.5270    0.1329 C   0  0  0  0  0  0  0  0  0  0  0  0
    2.0542    1.0738    0.4773 H   0  0  0  0  0  0  0  0  0  0  0  0
    0.6596    3.1941    0.7383 H   0  0  0  0  0  0  0  0  0  0  0  0
    1.4971    4.1891    2.8717 H   0  0  0  0  0  0  0  0  0  0  0  0
    1.1246    2.9931    5.0450 H   0  0  0  0  0  0  0  0  0  0  0  0
   -0.0684    0.7883    5.0715 H   0  0  0  0  0  0  0  0  0  0  0  0
   -0.8263   -0.2597    2.9257 H   0  0  0  0  0  0  0  0  0  0  0  0
    0.7046    2.2581   -2.0491 H   0  0  0  0  0  0  0  0  0  0  0  0
   -0.1116    4.2073   -3.3708 H   0  0  0  0  0  0  0  0  0  0  0  0
   -2.4174    5.1135   -2.9899 H   0  0  0  0  0  0  0  0  0  0  0  0
   -3.9129    4.0472   -1.2812 H   0  0  0  0  0  0  0  0  0  0  0  0
   -3.1098    2.0837    0.0346 H   0  0  0  0  0  0  0  0  0  0  0  0
    2.8690   -1.2647   -2.3435 H   0  0  0  0  0  0  0  0  0  0  0  0
    5.2357   -1.9063   -2.8104 H   0  0  0  0  0  0  0  0  0  0  0  0
    7.1025   -0.9939   -1.4061 H   0  0  0  0  0  0  0  0  0  0  0  0
    6.5800    0.5723    0.4889 H   0  0  0  0  0  0  0  0  0  0  0  0
    4.2128    1.2060    0.9688 H   0  0  0  0  0  0  0  0  0  0  0  0
  2  5  1  0  0  0  0
  3 23  1  0  0  0  0
  4  1  1  1  0  0  0
  4  3  1  0  0  0  0
  4  2  1  0  0  0  0
  5 10  1  0  0  0  0
  6  5  2  0  0  0  0
  6  7  1  0  0  0  0
  7  8  2  0  0  0  0
  8  9  1  0  0  0  0
  8 26  1  0  0  0  0
  9 27  1  0  0  0  0
 10 28  1  0  0  0  0
 10  9  2  0  0  0  0
 11 16  1  0  0  0  0
 11  2  1  0  0  0  0
 12 11  2  0  0  0  0
 13 14  2  0  0  0  0
 13 12  1  0  0  0  0
 14 15  1  0  0  0  0
 15 32  1  0  0  0  0
 15 16  2  0  0  0  0
 16 33  1  0  0  0  0
 17  3  1  0  0  0  0
 17 22  1  0  0  0  0
 18 17  2  0  0  0  0
 19 18  1  0  0  0  0
 19 20  2  0  0  0  0
 20 21  1  0  0  0  0
 21 22  2  0  0  0  0
 21 37  1  0  0  0  0
 22 38  1  0  0  0  0
 24  6  1  0  0  0  0
 25  7  1  0  0  0  0
 29 12  1  0  0  0  0
 30 13  1  0  0  0  0
 31 14  1  0  0  0  0
 34 18  1  0  0  0  0
 35 19  1  0  0  0  0
 36 20  1  0  0  0  0
M  END
