1,3
q = -1.0

 38 39  0  0  0  0  0  0  0  0999 V2000
   -1.7136    0.7403    3.0030 S   0  0  0  0  0  1  0  0  0  0  0  0
   -4.1370    2.0916    1.6697 S   0  0  0  0  0  0  0  0  0  0  0  0
   -1.7333    0.7050    0.2054 P   0  0  0  0  0  0  0  0  0  0  0  0
   -2.7084    1.2732    1.6723 C   0  0  0  0  0  0  0  0  0  0  0  0
   -1.5390    2.1708   -0.9140 C   0  0  0  0  0  0  0  0  0  0  0  0
   -0.7546    3.2721   -0.1780 C   0  0  0  0  0  0  0  0  0  0  0  0
   -0.5116    4.4879   -1.0813 C   0  0  0  0  0  0  0  0  0  0  0  0
    0.1788    4.0883   -2.3907 C   0  0  0  0  0  0  0  0  0  0  0  0
   -0.6214    3.0095   -3.1299 C   0  0  0  0  0  0  0  0  0  0  0  0
   -0.8679    1.7815   -2.2417 C   0  0  0  0  0  0  0  0  0  0  0  0
   -2.7369   -0.5921   -0.6722 C   0  0  0  0  0  0  0  0  0  0  0  0
   -3.0845   -1.7327    0.3018 C   0  0  0  0  0  0  0  0  0  0  0  0
   -3.8059   -2.8713   -0.4301 C   0  0  0  0  0  0  0  0  0  0  0  0
   -5.0581   -2.3611   -1.1544 C   0  0  0  0  0  0  0  0  0  0  0  0
   -4.7215   -1.2078   -2.1077 C   0  0  0  0  0  0  0  0  0  0  0  0
   -3.9916   -0.0628   -1.3878 C   0  0  0  0  0  0  0  0  0  0  0  0
   -3.1069   -3.3303   -1.1656 H   0  0  0  0  0  0  0  0  0  0  0  0
   -2.5763    2.5308   -1.1002 H   0  0  0  0  0  0  0  0  0  0  0  0
   -1.2984    3.5693    0.7417 H   0  0  0  0  0  0  0  0  0  0  0  0
    0.2211    2.8523    0.1558 H   0  0  0  0  0  0  0  0  0  0  0  0
   -1.4864    4.9722   -1.3132 H   0  0  0  0  0  0  0  0  0  0  0  0
    0.0907    5.2438   -0.5360 H   0  0  0  0  0  0  0  0  0  0  0  0
    0.3252    4.9752   -3.0415 H   0  0  0  0  0  0  0  0  0  0  0  0
    1.1968    3.6970   -2.1620 H   0  0  0  0  0  0  0  0  0  0  0  0
   -1.6018    3.4316   -3.4449 H   0  0  0  0  0  0  0  0  0  0  0  0
   -0.1006    2.7006   -4.0605 H   0  0  0  0  0  0  0  0  0  0  0  0
   -1.4777    1.0310   -2.7863 H   0  0  0  0  0  0  0  0  0  0  0  0
    0.1052    1.2908   -2.0174 H   0  0  0  0  0  0  0  0  0  0  0  0
   -2.0314   -0.9982   -1.4348 H   0  0  0  0  0  0  0  0  0  0  0  0
   -3.7362   -1.3293    1.1074 H   0  0  0  0  0  0  0  0  0  0  0  0
   -2.1650   -2.1000    0.8042 H   0  0  0  0  0  0  0  0  0  0  0  0
   -4.0713   -3.6717    0.2916 H   0  0  0  0  0  0  0  0  0  0  0  0
   -5.5511   -3.1874   -1.7078 H   0  0  0  0  0  0  0  0  0  0  0  0
   -5.7946   -2.0051   -0.3997 H   0  0  0  0  0  0  0  0  0  0  0  0
   -4.0750   -1.5902   -2.9303 H   0  0  0  0  0  0  0  0  0  0  0  0
   -5.6423   -0.8181   -2.5898 H   0  0  0  0  0  0  0  0  0  0  0  0
   -3.7255    0.7322   -2.1148 H   0  0  0  0  0  0  0  0  0  0  0  0
   -4.6577    0.4113   -0.6352 H   0  0  0  0  0  0  0  0  0  0  0  0
  2  4  2  0  0  0  0
  3  4  1  0  0  0  0
  4  1  1  0  0  0  0
  5  6  1  0  0  0  0
  5  3  1  0  0  0  0
  6 20  1  0  0  0  0
  6 19  1  0  0  0  0
  7 22  1  0  0  0  0
  7  6  1  0  0  0  0
  8 24  1  0  0  0  0
  8  7  1  0  0  0  0
  9  8  1  0  0  0  0
  9 10  1  0  0  0  0
 10 28  1  0  0  0  0
 10  5  1  0  0  0  0
 11  3  1  0  0  0  0
 11 12  1  0  0  0  0
 12 31  1  0  0  0  0
 12 30  1  0  0  0  0
 13 32  1  0  0  0  0
 13 12  1  0  0  0  0
 14 13  1  0  0  0  0
 14 34  1  0  0  0  0
 15 16  1  0  0  0  0
 15 14  1  0  0  0  0
 16 11  1  0  0  0  0
 16 38  1  0  0  0  0
 17 13  1  0  0  0  0
 18  5  1  0  0  0  0
 21  7  1  0  0  0  0
 23  8  1  0  0  0  0
 25  9  1  0  0  0  0
 26  9  1  0  0  0  0
 27 10  1  0  0  0  0
 29 11  1  0  0  0  0
 33 14  1  0  0  0  0
 35 15  1  0  0  0  0
 36 15  1  0  0  0  0
 37 16  1  0  0  0  0
M  END
