2,3
q = -1.0, confidence = 0.004

 42 48  0  0  1  0  0  0  0  0999 V2000
   -1.3273   -2.3801   -1.7207 Cl  0  0  0  0  0  0  0  0  0  0  0  0
   -1.3846   -1.2046    1.8899 S   0  0  0  0  0  0  0  0  0  0  0  0
    1.2671   -1.2244    0.2498 P   0  0  1  0  0  0  0  0  0  0  0  0
    0.9804   -2.5899    1.4533 C   0  0  0  0  0  0  0  0  0  0  0  0
    1.7868   -3.7231    1.6622 C   0  0  0  0  0  0  0  0  0  0  0  0
    1.2481   -4.8414    2.3322 C   0  0  0  0  0  0  0  0  0  0  0  0
   -0.0989   -4.8839    2.7364 C   0  0  0  0  0  0  0  0  0  0  0  0
   -0.9182   -3.7529    2.5424 C   0  0  0  0  0  0  0  0  0  0  0  0
   -2.3625   -3.5527    2.6956 C   0  0  0  0  0  0  0  0  0  0  0  0
   -3.3379   -4.4498    3.1704 C   0  0  0  0  0  0  0  0  0  0  0  0
   -4.6881   -4.0731    3.1733 C   0  0  0  0  0  0  0  0  0  0  0  0
   -5.0840   -2.7997    2.7191 C   0  0  0  0  0  0  0  0  0  0  0  0
   -4.1310   -1.8737    2.2662 C   0  0  0  0  0  0  0  0  0  0  0  0
   -2.7885   -2.2667    2.2484 C   0  0  0  0  0  0  0  0  0  0  0  0
   -0.3079   -2.6105    1.9859 C   0  0  0  0  0  0  0  0  0  0  0  0
    3.0679   -0.8461    0.1592 C   0  0  0  0  0  0  0  0  0  0  0  0
    3.9187   -0.3028    1.1099 C   0  0  0  0  0  3  0  0  0  0  0  0
    5.1573   -0.2419    0.7052 C   0  0  0  0  0  3  0  0  0  0  0  0
    5.9033   -0.5602   -0.4248 C   0  0  0  0  0  0  0  0  0  0  0  0
    5.0232   -1.1628   -1.3646 C   0  0  0  0  0  3  0  0  0  0  0  0
    3.6674   -1.3259   -1.1155 C   0  0  0  0  0  0  0  0  0  0  0  0
    7.3637   -0.2936   -0.6503 C   0  0  0  0  0  0  0  0  0  0  0  0
    1.3600   -2.0441   -1.3584 C   0  0  0  0  0  0  0  0  0  0  0  0
    2.6404   -1.9655   -1.9557 C   0  0  1  0  0  3  0  0  0  0  0  0
    2.4914   -2.4679   -3.2554 C   0  0  2  0  0  3  0  0  0  0  0  0
    1.9423   -2.9473   -4.3937 C   0  0  2  0  0  3  0  0  0  0  0  0
    0.9069   -2.8403   -3.4794 C   0  0  2  0  0  3  0  0  0  0  0  0
    0.3793   -2.5075   -2.2606 C   0  0  0  0  0  0  0  0  0  0  0  0
    2.2101   -3.3654   -5.7923 C   0  0  0  0  0  0  0  0  0  0  0  0
    2.8122   -3.7441    1.2626 H   0  0  0  0  0  0  0  0  0  0  0  0
    1.8824   -5.7268    2.4878 H   0  0  0  0  0  0  0  0  0  0  0  0
   -0.5140   -5.8053    3.1718 H   0  0  0  0  0  0  0  0  0  0  0  0
   -3.0380   -5.4455    3.5302 H   0  0  0  0  0  0  0  0  0  0  0  0
   -5.4481   -4.7813    3.5353 H   0  0  0  0  0  0  0  0  0  0  0  0
   -6.1488   -2.5230    2.7222 H   0  0  0  0  0  0  0  0  0  0  0  0
   -4.4274   -0.8713    1.9240 H   0  0  0  0  0  0  0  0  0  0  0  0
    7.9817   -1.0828   -0.1699 H   0  0  0  0  0  0  0  0  0  0  0  0
    7.6734    0.6740   -0.2061 H   0  0  0  0  0  0  0  0  0  0  0  0
    7.5957   -0.3062   -1.7328 H   0  0  0  0  0  0  0  0  0  0  0  0
    1.5328   -2.8289   -6.4865 H   0  0  0  0  0  0  0  0  0  0  0  0
    2.0112   -4.4501   -5.9099 H   0  0  0  0  0  0  0  0  0  0  0  0
    3.2606   -3.1584   -6.0657 H   0  0  0  0  0  0  0  0  0  0  0  0
  2 15  1  0  0  0  0
  2 14  1  0  0  0  0
  3  4  1  1  0  0  0
  4  5  2  0  0  0  0
  4 15  1  0  0  0  0
  5  6  1  0  0  0  0
  6 31  1  0  0  0  0
  6  7  2  0  0  0  0
  7 32  1  0  0  0  0
  8  9  1  0  0  0  0
  8  7  1  0  0  0  0
  9 10  1  0  0  0  0
 10 11  2  0  0  0  0
 10 33  1  0  0  0  0
 11 34  1  0  0  0  0
 12 35  1  0  0  0  0
 12 11  1  0  0  0  0
 13 12  2  0  0  0  0
 14 13  1  0  0  0  0
 14  9  2  0  0  0  0
 15  8  2  0  0  0  0
 16  3  1  0  0  0  0
 16 17  1  0  0  0  0
 18 17  2  0  0  0  0
 19 18  1  0  0  0  0
 20 21  1  0  0  0  0
 20 19  2  0  0  0  0
 21 16  2  0  0  0  0
 22 19  1  0  0  0  0
 22 38  1  0  0  0  0
 22 37  1  0  0  0  0
 23  3  1  0  0  0  0
 24 23  1  6  0  0  0
 24 21  1  0  0  0  0
 25 24  1  0  0  0  0
 26 27  1  0  0  0  0
 26 25  1  0  0  0  0
 27 25  1  0  0  0  0
 27 28  1  0  0  0  0
 28  1  1  0  0  0  0
 28 23  2  0  0  0  0
 29 26  1  0  0  0  0
 30  5  1  0  0  0  0
 36 13  1  0  0  0  0
 39 22  1  0  0  0  0
 40 29  1  0  0  0  0
 41 29  1  0  0  0  0
 42 29  1  0  0  0  0
M  END
