1,2
q = -1.0

 34 36  0  0  0  0  0  0  0  0999 V2000
   -0.1384   -2.3446   -0.0841 S   0  0  0  0  0  1  0  0  0  0  0  0
   -2.2928   -0.0220   -0.0621 P   0  0  0  0  0  0  0  0  0  0  0  0
   -3.1521    1.2029   -1.1172 C   0  0  0  0  0  0  0  0  0  0  0  0
   -4.4351    1.6905   -0.7957 C   0  0  0  0  0  0  0  0  0  0  0  0
   -5.0735    2.5968   -1.6559 C   0  0  0  0  0  0  0  0  0  0  0  0
   -4.4352    3.0218   -2.8320 C   0  0  0  0  0  0  0  0  0  0  0  0
   -3.1526    2.5442   -3.1479 C   0  0  0  0  0  0  0  0  0  0  0  0
   -2.5076    1.6403   -2.2926 C   0  0  0  0  0  0  0  0  0  0  0  0
   -3.0267    0.1987    1.6068 C   0  0  0  0  0  0  0  0  0  0  0  0
   -2.6679    1.3535    2.3360 C   0  0  0  0  0  0  0  0  0  0  0  0
   -3.2035    1.5647    3.6133 C   0  0  0  0  0  0  0  0  0  0  0  0
   -4.0842    0.6249    4.1763 C   0  0  0  0  0  0  0  0  0  0  0  0
   -4.4267   -0.5311    3.4585 C   0  0  0  0  0  0  0  0  0  0  0  0
   -3.9004   -0.7484    2.1747 C   0  0  0  0  0  0  0  0  0  0  0  0
   -1.8049   -2.6802   -0.5704 C   0  0  0  0  0  0  0  0  0  0  0  0
   -2.8055   -1.6737   -0.6352 C   0  0  0  0  0  0  0  0  0  0  0  0
   -4.1121   -1.9729   -1.0656 C   0  0  0  0  0  0  0  0  0  0  0  0
   -4.4555   -3.2852   -1.4168 C   0  0  0  0  0  0  0  0  0  0  0  0
   -3.4794   -4.2966   -1.3267 C   0  0  0  0  0  0  0  0  0  0  0  0
   -2.1758   -4.0048   -0.9113 C   0  0  0  0  0  0  0  0  0  0  0  0
   -4.9277    1.3687    0.1346 H   0  0  0  0  0  0  0  0  0  0  0  0
   -6.0744    2.9778   -1.4017 H   0  0  0  0  0  0  0  0  0  0  0  0
   -4.9363    3.7373   -3.5017 H   0  0  0  0  0  0  0  0  0  0  0  0
   -2.6443    2.8873   -4.0617 H   0  0  0  0  0  0  0  0  0  0  0  0
   -1.4918    1.2806   -2.5198 H   0  0  0  0  0  0  0  0  0  0  0  0
   -1.9523    2.0726    1.9028 H   0  0  0  0  0  0  0  0  0  0  0  0
   -2.9220    2.4662    4.1785 H   0  0  0  0  0  0  0  0  0  0  0  0
   -4.4981    0.7913    5.1825 H   0  0  0  0  0  0  0  0  0  0  0  0
   -5.1080   -1.2745    3.8997 H   0  0  0  0  0  0  0  0  0  0  0  0
   -4.1642   -1.6573    1.6139 H   0  0  0  0  0  0  0  0  0  0  0  0
   -4.8588   -1.1658   -1.1322 H   0  0  0  0  0  0  0  0  0  0  0  0
   -5.4726   -3.5188   -1.7637 H   0  0  0  0  0  0  0  0  0  0  0  0
   -3.7372   -5.3318   -1.5998 H   0  0  0  0  0  0  0  0  0  0  0  0
   -1.4158   -4.7993   -0.8620 H   0  0  0  0  0  0  0  0  0  0  0  0
  2  9  1  0  0  0  0
  3  4  1  0  0  0  0
  3  2  1  0  0  0  0
  4 21  1  0  0  0  0
  5 22  1  0  0  0  0
  5  4  2  0  0  0  0
  6  5  1  0  0  0  0
  7  6  2  0  0  0  0
  7  8  1  0  0  0  0
  8  3  2  0  0  0  0
  9 14  2  0  0  0  0
  9 10  1  0  0  0  0
 10 11  2  0  0  0  0
 11 12  1  0  0  0  0
 11 27  1  0  0  0  0
 12 28  1  0  0  0  0
 13 29  1  0  0  0  0
 13 12  2  0  0  0  0
 14 13  1  0  0  0  0
 15  1  1  0  0  0  0
 16 15  1  0  0  0  0
 16  2  1  0  0  0  0
 17 16  2  0  0  0  0
 18 19  2  0  0  0  0
 18 17  1  0  0  0  0
 19 20  1  0  0  0  0
 20 34  1  0  0  0  0
 20 15  2  0  0  0  0
 23  6  1  0  0  0  0
 24  7  1  0  0  0  0
 25  8  1  0  0  0  0
 26 10  1  0  0  0  0
 30 14  1  0  0  0  0
 31 17  1  0  0  0  0
 32 18  1  0  0  0  0
 33 19  1  0  0  0  0
M  END
