1,2
q = 0.0, confidence = 1.0

 60 65  0  0  0  0  0  0  0  0999 V2000
    1.0946    0.4961    0.5045 P   0  0  0  0  0  0  0  0  0  0  0  0
    0.0557   -0.4153   -2.4835 S   0  0  0  0  0  0  0  0  0  0  0  0
   -1.0429   -1.2635   -1.3279 C   0  0  0  0  0  0  0  0  0  0  0  0
   -1.1067   -2.6818   -1.2665 C   0  0  0  0  0  0  0  0  0  0  0  0
   -0.4884   -3.2891   -1.9416 H   0  0  0  0  0  0  0  0  0  0  0  0
   -1.9216   -3.2828   -0.3243 C   0  0  0  0  0  0  0  0  0  0  0  0
   -1.9677   -4.3807   -0.2592 H   0  0  0  0  0  0  0  0  0  0  0  0
   -2.7077   -2.5063    0.5770 C   0  0  0  0  0  0  0  0  0  0  0  0
   -3.5697   -3.1151    1.5338 C   0  0  0  0  0  0  0  0  0  0  0  0
   -3.6164   -4.2144    1.5745 H   0  0  0  0  0  0  0  0  0  0  0  0
   -4.3407   -2.3443    2.3913 C   0  0  0  0  0  0  0  0  0  0  0  0
   -5.0078   -2.8284    3.1204 H   0  0  0  0  0  0  0  0  0  0  0  0
   -4.2701   -0.9284    2.3290 C   0  0  0  0  0  0  0  0  0  0  0  0
   -4.8838   -0.3207    3.0112 H   0  0  0  0  0  0  0  0  0  0  0  0
   -3.4251   -0.3040    1.4233 C   0  0  0  0  0  0  0  0  0  0  0  0
   -3.3647    0.7927    1.3900 H   0  0  0  0  0  0  0  0  0  0  0  0
   -2.6262   -1.0672    0.5218 C   0  0  0  0  0  0  0  0  0  0  0  0
   -1.7495   -0.4519   -0.4367 C   0  0  0  0  0  0  0  0  0  0  0  0
   -1.5368    1.0287   -0.4661 C   0  0  0  0  0  0  0  0  0  0  0  0
   -2.5710    1.8845   -0.9803 C   0  0  0  0  0  0  0  0  0  0  0  0
   -3.7952    1.3646   -1.5001 C   0  0  0  0  0  0  0  0  0  0  0  0
   -3.9491    0.2763   -1.5092 H   0  0  0  0  0  0  0  0  0  0  0  0
   -4.7766    2.2123   -1.9910 C   0  0  0  0  0  0  0  0  0  0  0  0
   -5.7123    1.7920   -2.3894 H   0  0  0  0  0  0  0  0  0  0  0  0
   -4.5833    3.6200   -1.9858 C   0  0  0  0  0  0  0  0  0  0  0  0
   -5.3713    4.2816   -2.3759 H   0  0  0  0  0  0  0  0  0  0  0  0
   -3.4025    4.1565   -1.4967 C   0  0  0  0  0  0  0  0  0  0  0  0
   -3.2392    5.2454   -1.4965 H   0  0  0  0  0  0  0  0  0  0  0  0
   -2.3708    3.3127   -0.9906 C   0  0  0  0  0  0  0  0  0  0  0  0
   -1.1411    3.8364   -0.5025 C   0  0  0  0  0  0  0  0  0  0  0  0
   -0.9880    4.9267   -0.5055 H   0  0  0  0  0  0  0  0  0  0  0  0
   -0.1436    2.9984   -0.0355 C   0  0  0  0  0  0  0  0  0  0  0  0
    0.8014    3.4253    0.3278 H   0  0  0  0  0  0  0  0  0  0  0  0
   -0.3262    1.5841   -0.0083 C   0  0  0  0  0  0  0  0  0  0  0  0
    0.0159   -1.5103   -3.9358 C   0  0  0  0  0  0  0  0  0  0  0  0
    0.6337   -2.4115   -3.7569 H   0  0  0  0  0  0  0  0  0  0  0  0
    0.4824   -0.9262   -4.7505 H   0  0  0  0  0  0  0  0  0  0  0  0
   -1.0428   -1.7253   -4.1739 H   0  0  0  0  0  0  0  0  0  0  0  0
    0.4028   -0.5080    1.8739 C   0  0  0  0  0  0  0  0  0  0  0  0
    0.7541   -1.8687    1.9828 C   0  0  0  0  0  0  0  0  0  0  0  0
    1.4823   -2.2968    1.2773 H   0  0  0  0  0  0  0  0  0  0  0  0
    0.1861   -2.6532    2.9966 C   0  0  0  0  0  0  0  0  0  0  0  0
    0.4541   -3.7179    3.0707 H   0  0  0  0  0  0  0  0  0  0  0  0
   -0.7187   -2.0882    3.9091 C   0  0  0  0  0  0  0  0  0  0  0  0
   -1.1679   -2.7100    4.6982 H   0  0  0  0  0  0  0  0  0  0  0  0
   -1.0545   -0.7286    3.8128 C   0  0  0  0  0  0  0  0  0  0  0  0
   -1.7699   -0.2838    4.5204 H   0  0  0  0  0  0  0  0  0  0  0  0
   -0.5028    0.0602    2.7941 C   0  0  0  0  0  0  0  0  0  0  0  0
   -0.8026    1.1147    2.6937 H   0  0  0  0  0  0  0  0  0  0  0  0
    2.3002    1.6744    1.2264 C   0  0  0  0  0  0  0  0  0  0  0  0
    3.2483    2.2543    0.3580 C   0  0  0  0  0  0  0  0  0  0  0  0
    3.2814    1.9407   -0.6970 H   0  0  0  0  0  0  0  0  0  0  0  0
    4.1570    3.2022    0.8461 C   0  0  0  0  0  0  0  0  0  0  0  0
    4.8971    3.6481    0.1647 H   0  0  0  0  0  0  0  0  0  0  0  0
    4.1380    3.5633    2.2037 C   0  0  0  0  0  0  0  0  0  0  0  0
    4.8603    4.2993    2.5881 H   0  0  0  0  0  0  0  0  0  0  0  0
    3.2080    2.9721    3.0724 C   0  0  0  0  0  0  0  0  0  0  0  0
    3.2008    3.2395    4.1400 H   0  0  0  0  0  0  0  0  0  0  0  0
    2.2875    2.0296    2.5876 C   0  0  0  0  0  0  0  0  0  0  0  0
    1.5709    1.5592    3.2762 H   0  0  0  0  0  0  0  0  0  0  0  0
  1 50  1  0  0  0  0
  1 39  1  0  0  0  0
  2  3  1  0  0  0  0
  3  4  2  0  0  0  0
  3 18  1  0  0  0  0
  4  6  1  0  0  0  0
  5  4  1  0  0  0  0
  6  7  1  0  0  0  0
  6  8  2  0  0  0  0
  8  9  1  0  0  0  0
  9 10  1  0  0  0  0
  9 11  2  0  0  0  0
 11 12  1  0  0  0  0
 13 11  1  0  0  0  0
 13 14  1  0  0  0  0
 15 13  2  0  0  0  0
 16 15  1  0  0  0  0
 17  8  1  0  0  0  0
 17 15  1  0  0  0  0
 18 17  2  0  0  0  0
 19 18  1  0  0  0  0
 19 34  1  0  0  0  0
 20 19  2  0  0  0  0
 21 20  1  0  0  0  0
 22 21  1  0  0  0  0
 23 25  1  0  0  0  0
 23 21  2  0  0  0  0
 24 23  1  0  0  0  0
 25 27  2  0  0  0  0
 26 25  1  0  0  0  0
 27 28  1  0  0  0  0
 27 29  1  0  0  0  0
 29 20  1  0  0  0  0
 29 30  2  0  0  0  0
 30 32  1  0  0  0  0
 31 30  1  0  0  0  0
 32 34  2  0  0  0  0
 32 33  1  0  0  0  0
 34  1  1  0  0  0  0
 35 36  1  0  0  0  0
 35  2  1  0  0  0  0
 37 35  1  0  0  0  0
 38 35  1  0  0  0  0
 39 40  2  0  0  0  0
 39 48  1  0  0  0  0
 40 42  1  0  0  0  0
 41 40  1  0  0  0  0
 42 43  1  0  0  0  0
 42 44  2  0  0  0  0
 44 45  1  0  0  0  0
 46 44  1  0  0  0  0
 46 47  1  0  0  0  0
 48 46  2  0  0  0  0
 49 48  1  0  0  0  0
 50 59  1  0  0  0  0
 51 53  1  0  0  0  0
 51 50  2  0  0  0  0
 52 51  1  0  0  0  0
 53 55  2  0  0  0  0
 54 53  1  0  0  0  0
 55 56  1  0  0  0  0
 55 57  1  0  0  0  0
 57 58  1  0  0  0  0
 59 57  2  0  0  0  0
 59 60  1  0  0  0  0
M  END
