1,2
q = 0.0, confidence = 0.994

 41 43  0  0  0  0  0  0  0  0999 V2000
    2.7026    0.8311    0.4869 S   0  0  0  0  0  0  0  0  0  0  0  0
   -0.5685    0.0398    0.0220 P   0  0  0  0  0  0  0  0  0  0  0  0
   -1.9310   -0.6532   -0.9863 C   0  0  0  0  0  0  0  0  0  0  0  0
   -1.6284   -1.2064   -2.2473 C   0  0  0  0  0  0  0  0  0  0  0  0
   -0.5795   -1.2932   -2.5668 H   0  0  0  0  0  0  0  0  0  0  0  0
   -2.6640   -1.6686   -3.0696 C   0  0  0  0  0  0  0  0  0  0  0  0
   -2.4253   -2.1051   -4.0510 H   0  0  0  0  0  0  0  0  0  0  0  0
   -3.9983   -1.5973   -2.6341 C   0  0  0  0  0  0  0  0  0  0  0  0
   -4.8078   -1.9726   -3.2785 H   0  0  0  0  0  0  0  0  0  0  0  0
   -4.2978   -1.0594   -1.3732 C   0  0  0  0  0  0  0  0  0  0  0  0
   -5.3407   -1.0118   -1.0249 H   0  0  0  0  0  0  0  0  0  0  0  0
   -3.2666   -0.5844   -0.5472 C   0  0  0  0  0  0  0  0  0  0  0  0
   -3.5012   -0.1650    0.4427 H   0  0  0  0  0  0  0  0  0  0  0  0
   -1.2284    0.1355    1.7305 C   0  0  0  0  0  0  0  0  0  0  0  0
   -1.7845    1.3148    2.2655 C   0  0  0  0  0  0  0  0  0  0  0  0
   -1.8325    2.2288    1.6534 H   0  0  0  0  0  0  0  0  0  0  0  0
   -2.2776    1.3182    3.5802 C   0  0  0  0  0  0  0  0  0  0  0  0
   -2.7084    2.2403    3.9994 H   0  0  0  0  0  0  0  0  0  0  0  0
   -2.2238    0.1489    4.3551 C   0  0  0  0  0  0  0  0  0  0  0  0
   -2.6104    0.1551    5.3856 H   0  0  0  0  0  0  0  0  0  0  0  0
   -1.6744   -1.0280    3.8179 C   0  0  0  0  0  0  0  0  0  0  0  0
   -1.6305   -1.9447    4.4250 H   0  0  0  0  0  0  0  0  0  0  0  0
   -1.1700   -1.0404    2.5103 C   0  0  0  0  0  0  0  0  0  0  0  0
   -0.7303   -1.9540    2.0754 H   0  0  0  0  0  0  0  0  0  0  0  0
   -0.4482    1.7886   -0.5635 C   0  0  0  0  0  0  0  0  0  0  0  0
   -1.3257    2.2648   -1.5589 C   0  0  0  0  0  0  0  0  0  0  0  0
   -2.1221    1.6075   -1.9355 H   0  0  0  0  0  0  0  0  0  0  0  0
   -1.1958    3.5623   -2.0763 C   0  0  0  0  0  0  0  0  0  0  0  0
   -1.8942    3.9119   -2.8512 H   0  0  0  0  0  0  0  0  0  0  0  0
   -0.1774    4.4022   -1.6068 C   0  0  0  0  0  0  0  0  0  0  0  0
   -0.0622    5.4192   -2.0106 H   0  0  0  0  0  0  0  0  0  0  0  0
    0.6999    3.9390   -0.6160 C   0  0  0  0  0  0  0  0  0  0  0  0
    1.4998    4.5972   -0.2413 H   0  0  0  0  0  0  0  0  0  0  0  0
    0.5808    2.6433   -0.0768 C   0  0  0  0  0  0  0  0  0  0  0  0
    1.5534    2.2033    0.9776 C   0  0  0  0  0  0  0  0  0  0  0  0
    1.0502    1.7883    1.8750 H   0  0  0  0  0  0  0  0  0  0  0  0
    2.1925    3.0478    1.3031 H   0  0  0  0  0  0  0  0  0  0  0  0
    3.3609    1.4575   -1.0896 C   0  0  0  0  0  0  0  0  0  0  0  0
    2.5388    1.6996   -1.7891 H   0  0  0  0  0  0  0  0  0  0  0  0
    3.9639    0.6132   -1.4743 H   0  0  0  0  0  0  0  0  0  0  0  0
    3.9980    2.3430   -0.8988 H   0  0  0  0  0  0  0  0  0  0  0  0
  1 35  1  0  0  0  0
  2 14  1  0  0  0  0
  3 12  1  0  0  0  0
  3  2  1  0  0  0  0
  4  3  2  0  0  0  0
  5  4  1  0  0  0  0
  6  8  2  0  0  0  0
  6  4  1  0  0  0  0
  7  6  1  0  0  0  0
  8 10  1  0  0  0  0
  9  8  1  0  0  0  0
 10 11  1  0  0  0  0
 10 12  2  0  0  0  0
 12 13  1  0  0  0  0
 14 15  2  0  0  0  0
 14 23  1  0  0  0  0
 15 17  1  0  0  0  0
 16 15  1  0  0  0  0
 17 18  1  0  0  0  0
 17 19  2  0  0  0  0
 19 20  1  0  0  0  0
 21 19  1  0  0  0  0
 21 22  1  0  0  0  0
 23 21  2  0  0  0  0
 24 23  1  0  0  0  0
 25 34  1  0  0  0  0
 25  2  1  0  0  0  0
 26 25  2  0  0  0  0
 27 26  1  0  0  0  0
 28 30  2  0  0  0  0
 28 26  1  0  0  0  0
 29 28  1  0  0  0  0
 30 32  1  0  0  0  0
 31 30  1  0  0  0  0
 32 33  1  0  0  0  0
 32 34  2  0  0  0  0
 34 35  1  0  0  0  0
 35 37  1  0  0  0  0
 35 36  1  0  0  0  0
 38 41  1  0  0  0  0
 38  1  1  0  0  0  0
 39 38  1  0  0  0  0
 40 38  1  0  0  0  0
M  END
