1,4
q = 0.0, confidence = 0.994

 65 69  0  0  1  0  0  0  0  0999 V2000
   -0.4484    2.3889   -1.3120 S   0  0  0  0  0  1  0  0  0  0  0  0
    0.8963    1.1293   -0.4851 P   0  0  0  0  0  4  0  0  0  0  0  0
    0.3831   -0.5045   -0.7065 N   0  0  0  0  0  0  0  0  0  0  0  0
   -1.3263   -0.6106   -0.2539 P   0  0  0  0  0  0  0  0  0  0  0  0
    1.1126    1.4445    1.3017 C   0  0  0  0  0  0  0  0  0  0  0  0
    1.7934    0.5123    2.1106 C   0  0  0  0  0  0  0  0  0  0  0  0
    2.1985   -0.4118    1.6780 H   0  0  0  0  0  0  0  0  0  0  0  0
    1.9245    0.7490    3.4873 C   0  0  0  0  0  0  0  0  0  0  0  0
    2.4484    0.0115    4.1143 H   0  0  0  0  0  0  0  0  0  0  0  0
    1.3782    1.9098    4.0578 C   0  0  0  0  0  0  0  0  0  0  0  0
    1.4720    2.0884    5.1399 H   0  0  0  0  0  0  0  0  0  0  0  0
    0.7034    2.8389    3.2483 C   0  0  0  0  0  0  0  0  0  0  0  0
    0.2568    3.7416    3.6908 H   0  0  0  0  0  0  0  0  0  0  0  0
    0.5671    2.6142    1.8711 C   0  0  0  0  0  0  0  0  0  0  0  0
   -0.0000    3.3213    1.2460 H   0  0  0  0  0  0  0  0  0  0  0  0
    2.5214    1.3801   -1.2802 C   0  0  0  0  0  0  0  0  0  0  0  0
    3.7046    1.4994   -0.5251 C   0  0  0  0  0  0  0  0  0  0  0  0
    3.6756    1.3901    0.5677 H   0  0  0  0  0  0  0  0  0  0  0  0
    4.9234    1.7546   -1.1714 C   0  0  0  0  0  0  0  0  0  0  0  0
    5.8442    1.8453   -0.5760 H   0  0  0  0  0  0  0  0  0  0  0  0
    4.9679    1.8933   -2.5669 C   0  0  0  0  0  0  0  0  0  0  0  0
    5.9260    2.0917   -3.0707 H   0  0  0  0  0  0  0  0  0  0  0  0
    3.7846    1.8007   -3.3201 C   0  0  0  0  0  0  0  0  0  0  0  0
    3.8118    1.9332   -4.4120 H   0  0  0  0  0  0  0  0  0  0  0  0
    2.5627    1.5565   -2.6798 C   0  0  0  0  0  0  0  0  0  0  0  0
    1.6272    1.5222   -3.2590 H   0  0  0  0  0  0  0  0  0  0  0  0
    1.1528   -1.7029   -1.1711 C   0  0  1  0  0  0  0  0  0  0  0  0
    0.4470   -2.5373   -0.9800 H   0  0  0  0  0  0  0  0  0  0  0  0
    1.4392   -1.7064   -2.6754 C   0  0  0  0  0  0  0  0  0  0  0  0
    0.4965   -1.6266   -3.2460 H   0  0  0  0  0  0  0  0  0  0  0  0
    1.9363   -2.6564   -2.9557 H   0  0  0  0  0  0  0  0  0  0  0  0
    2.1006   -0.8755   -2.9806 H   0  0  0  0  0  0  0  0  0  0  0  0
    2.3813   -2.0066   -0.3149 C   0  0  0  0  0  0  0  0  0  0  0  0
    2.2215   -2.6671    0.9228 C   0  0  0  0  0  0  0  0  0  0  0  0
    1.2151   -2.9573    1.2547 H   0  0  0  0  0  0  0  0  0  0  0  0
    3.3260   -2.9472    1.7394 C   0  0  0  0  0  0  0  0  0  0  0  0
    3.1742   -3.4627    2.6999 H   0  0  0  0  0  0  0  0  0  0  0  0
    4.6169   -2.5717    1.3322 C   0  0  0  0  0  0  0  0  0  0  0  0
    5.4858   -2.7860    1.9727 H   0  0  0  0  0  0  0  0  0  0  0  0
    4.7907   -1.9338    0.0951 C   0  0  0  0  0  0  0  0  0  0  0  0
    5.7977   -1.6430   -0.2409 H   0  0  0  0  0  0  0  0  0  0  0  0
    3.6837   -1.6629   -0.7249 C   0  0  0  0  0  0  0  0  0  0  0  0
    3.8445   -1.1698   -1.6933 H   0  0  0  0  0  0  0  0  0  0  0  0
   -2.1582   -1.3353   -1.7188 C   0  0  0  0  0  0  0  0  0  0  0  0
   -1.8700   -0.7742   -2.9829 C   0  0  0  0  0  0  0  0  0  0  0  0
   -1.0995    0.0081   -3.0597 H   0  0  0  0  0  0  0  0  0  0  0  0
   -2.5947   -1.1705   -4.1137 C   0  0  0  0  0  0  0  0  0  0  0  0
   -2.3604   -0.7271   -5.0934 H   0  0  0  0  0  0  0  0  0  0  0  0
   -3.6304   -2.1131   -3.9956 C   0  0  0  0  0  0  0  0  0  0  0  0
   -4.2013   -2.4210   -4.8845 H   0  0  0  0  0  0  0  0  0  0  0  0
   -3.9516   -2.6394   -2.7353 C   0  0  0  0  0  0  0  0  0  0  0  0
   -4.7810   -3.3553   -2.6304 H   0  0  0  0  0  0  0  0  0  0  0  0
   -3.2262   -2.2497   -1.5986 C   0  0  0  0  0  0  0  0  0  0  0  0
   -3.5127   -2.6425   -0.6122 H   0  0  0  0  0  0  0  0  0  0  0  0
   -1.2821   -1.9106    1.0477 C   0  0  0  0  0  0  0  0  0  0  0  0
   -1.3175   -3.2979    0.7891 C   0  0  0  0  0  0  0  0  0  0  0  0
   -1.4735   -3.6691   -0.2345 H   0  0  0  0  0  0  0  0  0  0  0  0
   -1.1494   -4.2163    1.8379 C   0  0  0  0  0  0  0  0  0  0  0  0
   -1.1838   -5.2959    1.6275 H   0  0  0  0  0  0  0  0  0  0  0  0
   -0.9290   -3.7591    3.1471 C   0  0  0  0  0  0  0  0  0  0  0  0
   -0.7942   -4.4812    3.9667 H   0  0  0  0  0  0  0  0  0  0  0  0
   -0.8868   -2.3794    3.4090 C   0  0  0  0  0  0  0  0  0  0  0  0
   -0.7156   -2.0141    4.4327 H   0  0  0  0  0  0  0  0  0  0  0  0
   -1.0705   -1.4590    2.3682 C   0  0  0  0  0  0  0  0  0  0  0  0
   -1.0423   -0.3757    2.5654 H   0  0  0  0  0  0  0  0  0  0  0  0
  1  2  1  0  0  0  0
  2  5  1  0  0  0  0
  3  2  1  0  0  0  0
  3  4  1  0  0  0  0
  4 55  1  0  0  0  0
  5 14  2  0  0  0  0
  5  6  1  0  0  0  0
  6  8  2  0  0  0  0
  7  6  1  0  0  0  0
  8 10  1  0  0  0  0
  8  9  1  0  0  0  0
 10 11  1  0  0  0  0
 12 13  1  0  0  0  0
 12 10  2  0  0  0  0
 14 12  1  0  0  0  0
 15 14  1  0  0  0  0
 16 17  1  0  0  0  0
 16  2  1  0  0  0  0
 17 18  1  0  0  0  0
 19 20  1  0  0  0  0
 19 17  2  0  0  0  0
 21 19  1  0  0  0  0
 22 21  1  0  0  0  0
 23 25  1  0  0  0  0
 23 21  2  0  0  0  0
 24 23  1  0  0  0  0
 25 16  2  0  0  0  0
 26 25  1  0  0  0  0
 27 28  1  1  0  0  0
 27  3  1  0  0  0  0
 27 33  1  0  0  0  0
 29 27  1  0  0  0  0
 30 29  1  0  0  0  0
 31 29  1  0  0  0  0
 32 29  1  0  0  0  0
 33 34  1  0  0  0  0
 34 35  1  0  0  0  0
 34 36  2  0  0  0  0
 36 37  1  0  0  0  0
 38 36  1  0  0  0  0
 38 39  1  0  0  0  0
 40 38  2  0  0  0  0
 41 40  1  0  0  0  0
 42 33  2  0  0  0  0
 42 40  1  0  0  0  0
 43 42  1  0  0  0  0
 44 53  1  0  0  0  0
 44  4  1  0  0  0  0
 45 44  2  0  0  0  0
 46 45  1  0  0  0  0
 47 49  2  0  0  0  0
 47 45  1  0  0  0  0
 48 47  1  0  0  0  0
 49 51  1  0  0  0  0
 50 49  1  0  0  0  0
 51 52  1  0  0  0  0
 51 53  2  0  0  0  0
 53 54  1  0  0  0  0
 55 64  1  0  0  0  0
 56 55  2  0  0  0  0
 56 58  1  0  0  0  0
 57 56  1  0  0  0  0
 58 60  2  0  0  0  0
 59 58  1  0  0  0  0
 60 62  1  0  0  0  0
 60 61  1  0  0  0  0
 62 63  1  0  0  0  0
 64 65  1  0  0  0  0
 64 62  2  0  0  0  0
M  END
