1,3
q = -1.0, confidence = 0.0

 30 31  0  0  0  0  0  0  0  0999 V2000
    0.2917    0.0657   -2.2105 S   0  0  0  0  0  1  0  0  0  0  0  0
    2.0756    0.0132   -2.0153 C   0  0  0  0  0  0  0  0  0  0  0  0
    2.1607    0.0007   -0.1762 P   0  0  0  0  0  0  0  0  0  0  0  0
    3.1416   -1.4569    0.3339 C   0  0  0  0  0  0  0  0  0  0  0  0
    2.7092   -2.2089    1.4443 C   0  0  0  0  0  0  0  0  0  0  0  0
    3.4581   -3.3176    1.8667 C   0  0  0  0  0  0  0  0  0  0  0  0
    4.6245   -3.6843    1.1768 C   0  0  0  0  0  0  0  0  0  0  0  0
    5.0431   -2.9443    0.0580 C   0  0  0  0  0  0  0  0  0  0  0  0
    4.3076   -1.8290   -0.3676 C   0  0  0  0  0  0  0  0  0  0  0  0
    4.6109   -1.2588   -1.2589 H   0  0  0  0  0  0  0  0  0  0  0  0
    5.9499   -3.2406   -0.4912 H   0  0  0  0  0  0  0  0  0  0  0  0
    5.2077   -4.5573    1.5076 H   0  0  0  0  0  0  0  0  0  0  0  0
    3.1221   -3.9030    2.7360 H   0  0  0  0  0  0  0  0  0  0  0  0
    1.7815   -1.9265    1.9678 H   0  0  0  0  0  0  0  0  0  0  0  0
    3.1160    1.4718    0.3440 C   0  0  0  0  0  0  0  0  0  0  0  0
    4.2515    1.8936   -0.3785 C   0  0  0  0  0  0  0  0  0  0  0  0
    4.9699    3.0161    0.0576 C   0  0  0  0  0  0  0  0  0  0  0  0
    4.5634    3.7145    1.2072 C   0  0  0  0  0  0  0  0  0  0  0  0
    3.4266    3.2983    1.9183 C   0  0  0  0  0  0  0  0  0  0  0  0
    2.6954    2.1817    1.4863 C   0  0  0  0  0  0  0  0  0  0  0  0
    1.7898    1.8601    2.0260 H   0  0  0  0  0  0  0  0  0  0  0  0
    3.0998    3.8514    2.8120 H   0  0  0  0  0  0  0  0  0  0  0  0
    5.1325    4.5938    1.5458 H   0  0  0  0  0  0  0  0  0  0  0  0
    5.8533    3.3509   -0.5074 H   0  0  0  0  0  0  0  0  0  0  0  0
    4.5458    1.3542   -1.2920 H   0  0  0  0  0  0  0  0  0  0  0  0
    3.0417   -0.0151   -2.8486 N   0  0  0  0  0  0  0  0  0  0  0  0
    2.7714   -0.0106   -4.2705 C   0  0  0  0  0  0  0  0  0  0  0  0
    1.7474   -0.3657   -4.5288 H   0  0  0  0  0  0  0  0  0  0  0  0
    3.5188   -0.6393   -4.7961 H   0  0  0  0  0  0  0  0  0  0  0  0
    2.8824    1.0226   -4.6682 H   0  0  0  0  0  0  0  0  0  0  0  0
  1  2  1  0  0  0  0
  2  3  1  0  0  0  0
  3  4  1  0  0  0  0
  3 15  1  0  0  0  0
  4  5  1  0  0  0  0
  5  6  2  0  0  0  0
  5 14  1  0  0  0  0
  6 13  1  0  0  0  0
  7 12  1  0  0  0  0
  7  6  1  0  0  0  0
  8  7  2  0  0  0  0
  9  8  1  0  0  0  0
  9  4  2  0  0  0  0
 10  9  1  0  0  0  0
 11  8  1  0  0  0  0
 15 20  1  0  0  0  0
 16 17  1  0  0  0  0
 16 15  2  0  0  0  0
 17 18  2  0  0  0  0
 18 23  1  0  0  0  0
 18 19  1  0  0  0  0
 19 22  1  0  0  0  0
 20 19  2  0  0  0  0
 20 21  1  0  0  0  0
 24 17  1  0  0  0  0
 25 16  1  0  0  0  0
 26  2  2  0  0  0  0
 27 26  1  0  0  0  0
 28 27  1  0  0  0  0
 29 27  1  0  0  0  0
 30 27  1  0  0  0  0
M  END
