1,2
q = 0.0, confidence = 1.0

 53 55  0  0  0  0  0  0  0  0999 V2000
   -1.4165   -1.9241   -1.0695 S   0  0  0  0  0  0  0  0  0  0  0  0
    0.8767    0.2253   -0.3524 P   0  0  0  0  0  0  0  0  0  0  0  0
   -2.7539   -0.7168   -1.2048 C   0  0  0  0  0  0  0  0  0  0  0  0
   -3.0542   -0.0506   -2.4060 C   0  0  0  0  0  0  0  0  0  0  0  0
   -2.4785   -0.2430   -3.3224 H   0  0  0  0  0  0  0  0  0  0  0  0
   -4.1066    0.8796   -2.4367 C   0  0  0  0  0  0  0  0  0  0  0  0
   -4.3311    1.4089   -3.3752 H   0  0  0  0  0  0  0  0  0  0  0  0
   -4.8672    1.1295   -1.2851 C   0  0  0  0  0  0  0  0  0  0  0  0
   -5.6876    1.8622   -1.3134 H   0  0  0  0  0  0  0  0  0  0  0  0
   -4.5804    0.4321   -0.0993 C   0  0  0  0  0  0  0  0  0  0  0  0
   -5.1776    0.6124    0.8073 H   0  0  0  0  0  0  0  0  0  0  0  0
   -3.5276   -0.4914   -0.0492 C   0  0  0  0  0  0  0  0  0  0  0  0
   -3.2830   -1.0349    0.8795 H   0  0  0  0  0  0  0  0  0  0  0  0
   -0.2385   -1.3830   -2.3804 C   0  0  0  0  0  0  0  0  0  0  0  0
    0.5381   -2.1720   -2.3281 H   0  0  0  0  0  0  0  0  0  0  0  0
   -0.7358   -1.4761   -3.3673 H   0  0  0  0  0  0  0  0  0  0  0  0
    0.3452    0.0016   -2.1386 C   0  0  0  0  0  0  0  0  0  0  0  0
   -0.4125    0.7823   -2.3497 H   0  0  0  0  0  0  0  0  0  0  0  0
    1.2038    0.1887   -2.8167 H   0  0  0  0  0  0  0  0  0  0  0  0
    0.5155    2.0367   -0.0498 C   0  0  0  0  0  0  0  0  0  0  0  0
    0.9151    2.5945   -0.9291 H   0  0  0  0  0  0  0  0  0  0  0  0
   -1.0088    2.2495    0.0350 C   0  0  0  0  0  0  0  0  0  0  0  0
   -1.5146    1.9058   -0.8909 H   0  0  0  0  0  0  0  0  0  0  0  0
   -1.4016    1.5995    0.8487 H   0  0  0  0  0  0  0  0  0  0  0  0
   -1.3652    3.7149    0.3135 C   0  0  0  0  0  0  0  0  0  0  0  0
   -1.0587    4.3412   -0.5551 H   0  0  0  0  0  0  0  0  0  0  0  0
   -2.4672    3.8175    0.3990 H   0  0  0  0  0  0  0  0  0  0  0  0
   -0.6714    4.2301    1.5796 C   0  0  0  0  0  0  0  0  0  0  0  0
   -0.9090    5.3014    1.7474 H   0  0  0  0  0  0  0  0  0  0  0  0
   -1.0662    3.6776    2.4612 H   0  0  0  0  0  0  0  0  0  0  0  0
    0.8457    4.0241    1.4982 C   0  0  0  0  0  0  0  0  0  0  0  0
    1.3370    4.3604    2.4350 H   0  0  0  0  0  0  0  0  0  0  0  0
    1.2596    4.6589    0.6820 H   0  0  0  0  0  0  0  0  0  0  0  0
    1.2044    2.5558    1.2250 C   0  0  0  0  0  0  0  0  0  0  0  0
    0.8801    1.9323    2.0865 H   0  0  0  0  0  0  0  0  0  0  0  0
    2.3062    2.4443    1.1540 H   0  0  0  0  0  0  0  0  0  0  0  0
    2.7377    0.0810   -0.3759 C   0  0  0  0  0  0  0  0  0  0  0  0
    3.0144    0.2592    0.6887 H   0  0  0  0  0  0  0  0  0  0  0  0
    3.4796    1.1038   -1.2513 C   0  0  0  0  0  0  0  0  0  0  0  0
    3.1672    0.9788   -2.3128 H   0  0  0  0  0  0  0  0  0  0  0  0
    3.2090    2.1409   -0.9648 H   0  0  0  0  0  0  0  0  0  0  0  0
    5.0019    0.9125   -1.1538 C   0  0  0  0  0  0  0  0  0  0  0  0
    5.5173    1.6373   -1.8183 H   0  0  0  0  0  0  0  0  0  0  0  0
    5.3275    1.1527   -0.1169 H   0  0  0  0  0  0  0  0  0  0  0  0
    5.4181   -0.5240   -1.4938 C   0  0  0  0  0  0  0  0  0  0  0  0
    6.5156   -0.6446   -1.3803 H   0  0  0  0  0  0  0  0  0  0  0  0
    5.1917   -0.7248   -2.5658 H   0  0  0  0  0  0  0  0  0  0  0  0
    4.6716   -1.5426   -0.6231 C   0  0  0  0  0  0  0  0  0  0  0  0
    4.9789   -1.4167    0.4390 H   0  0  0  0  0  0  0  0  0  0  0  0
    4.9498   -2.5788   -0.9073 H   0  0  0  0  0  0  0  0  0  0  0  0
    3.1516   -1.3610   -0.7249 C   0  0  0  0  0  0  0  0  0  0  0  0
    2.8314   -1.5899   -1.7676 H   0  0  0  0  0  0  0  0  0  0  0  0
    2.6115   -2.0721   -0.0644 H   0  0  0  0  0  0  0  0  0  0  0  0
  2 20  1  0  0  0  0
  3  1  1  0  0  0  0
  3 12  1  0  0  0  0
  4  3  2  0  0  0  0
  5  4  1  0  0  0  0
  6  4  1  0  0  0  0
  6  8  2  0  0  0  0
  7  6  1  0  0  0  0
  8 10  1  0  0  0  0
  9  8  1  0  0  0  0
 10 12  2  0  0  0  0
 10 11  1  0  0  0  0
 12 13  1  0  0  0  0
 14 15  1  0  0  0  0
 14 17  1  0  0  0  0
 14  1  1  0  0  0  0
 16 14  1  0  0  0  0
 17  2  1  0  0  0  0
 18 17  1  0  0  0  0
 19 17  1  0  0  0  0
 20 22  1  0  0  0  0
 20 34  1  0  0  0  0
 21 20  1  0  0  0  0
 22 25  1  0  0  0  0
 22 24  1  0  0  0  0
 23 22  1  0  0  0  0
 25 27  1  0  0  0  0
 25 28  1  0  0  0  0
 26 25  1  0  0  0  0
 28 29  1  0  0  0  0
 28 30  1  0  0  0  0
 31 28  1  0  0  0  0
 31 32  1  0  0  0  0
 33 31  1  0  0  0  0
 34 31  1  0  0  0  0
 34 35  1  0  0  0  0
 36 34  1  0  0  0  0
 37  2  1  0  0  0  0
 37 38  1  0  0  0  0
 39 42  1  0  0  0  0
 39 41  1  0  0  0  0
 39 37  1  0  0  0  0
 40 39  1  0  0  0  0
 42 44  1  0  0  0  0
 43 42  1  0  0  0  0
 45 46  1  0  0  0  0
 45 42  1  0  0  0  0
 45 48  1  0  0  0  0
 47 45  1  0  0  0  0
 48 49  1  0  0  0  0
 50 48  1  0  0  0  0
 51 48  1  0  0  0  0
 51 37  1  0  0  0  0
 51 53  1  0  0  0  0
 52 51  1  0  0  0  0
M  END
