1,41
q = 0.0, confidence = 0.998

 63 66  0  0  1  0  0  0  0  0999 V2000
   -1.7879   -1.2711   -0.6470 S   0  0  0  0  0  0  0  0  0  0  0  0
   -0.7274   -2.6739   -0.2753 C   0  0  0  0  0  0  0  0  0  0  0  0
   -0.8950   -3.5062    0.8431 C   0  0  0  0  0  0  0  0  0  0  0  0
   -1.6648   -3.2836    1.5945 H   0  0  0  0  0  0  0  0  0  0  0  0
   -0.0557   -4.6172    1.0142 C   0  0  0  0  0  0  0  0  0  0  0  0
   -0.1782   -5.2511    1.9055 H   0  0  0  0  0  0  0  0  0  0  0  0
    0.9320   -4.9198    0.0644 C   0  0  0  0  0  0  0  0  0  0  0  0
    1.5879   -5.7916    0.2062 H   0  0  0  0  0  0  0  0  0  0  0  0
    1.0725   -4.1049   -1.0706 C   0  0  0  0  0  0  0  0  0  0  0  0
    1.8356   -4.3374   -1.8291 H   0  0  0  0  0  0  0  0  0  0  0  0
    0.2484   -2.9850   -1.2442 C   0  0  0  0  0  0  0  0  0  0  0  0
    0.3493   -2.3390   -2.1312 H   0  0  0  0  0  0  0  0  0  0  0  0
   -2.4382   -0.6241    0.9377 C   0  0  2  0  0  0  0  0  0  0  0  0
   -2.8616   -1.4955    1.4838 H   0  0  0  0  0  0  0  0  0  0  0  0
   -3.9609    0.5083    0.4800 Si  0  0  0  0  0  0  0  0  0  0  0  0
   -4.9570    0.6698    2.0846 C   0  0  0  0  0  0  0  0  0  0  0  0
   -4.3644    1.1385    2.8969 H   0  0  0  0  0  0  0  0  0  0  0  0
   -5.3143   -0.3177    2.4426 H   0  0  0  0  0  0  0  0  0  0  0  0
   -5.8489    1.3079    1.9148 H   0  0  0  0  0  0  0  0  0  0  0  0
   -4.9671   -0.3168   -0.8800 C   0  0  0  0  0  0  0  0  0  0  0  0
   -5.2025   -1.3748   -0.6463 H   0  0  0  0  0  0  0  0  0  0  0  0
   -4.3938   -0.2839   -1.8302 H   0  0  0  0  0  0  0  0  0  0  0  0
   -5.9230    0.2268   -1.0301 H   0  0  0  0  0  0  0  0  0  0  0  0
   -3.3448    2.1928   -0.1015 C   0  0  0  0  0  0  0  0  0  0  0  0
   -4.2126    2.8497   -0.3191 H   0  0  0  0  0  0  0  0  0  0  0  0
   -2.7654    2.0706   -1.0417 H   0  0  0  0  0  0  0  0  0  0  0  0
   -2.7106    2.7062    0.6491 H   0  0  0  0  0  0  0  0  0  0  0  0
   -1.4276    0.1405    1.8184 C   0  0  0  0  0  0  0  0  0  0  0  0
   -1.1484    1.0770    1.2977 H   0  0  0  0  0  0  0  0  0  0  0  0
   -1.9652    0.4517    2.7397 H   0  0  0  0  0  0  0  0  0  0  0  0
   -0.1891   -0.6318    2.2083 C   0  0  0  0  0  0  0  0  0  0  0  0
    1.0054   -0.5813    1.4401 C   0  0  0  0  0  0  0  0  0  0  0  0
    2.0881   -1.4169    1.7787 C   0  0  0  0  0  0  0  0  0  0  0  0
    3.0044   -1.3918    1.1719 H   0  0  0  0  0  0  0  0  0  0  0  0
    2.0159   -2.2708    2.8885 C   0  0  0  0  0  0  0  0  0  0  0  0
    2.8708   -2.9180    3.1351 H   0  0  0  0  0  0  0  0  0  0  0  0
    0.8630   -2.2809    3.6861 C   0  0  0  0  0  0  0  0  0  0  0  0
    0.8063   -2.9294    4.5735 H   0  0  0  0  0  0  0  0  0  0  0  0
   -0.2244   -1.4683    3.3399 C   0  0  0  0  0  0  0  0  0  0  0  0
   -1.1402   -1.4883    3.9530 H   0  0  0  0  0  0  0  0  0  0  0  0
    1.1349    0.6183    0.0334 P   0  0  0  0  0  0  0  0  0  0  0  0
    2.8921    0.4576   -0.5001 C   0  0  0  0  0  0  0  0  0  0  0  0
    3.1810   -0.5131   -1.4819 C   0  0  0  0  0  0  0  0  0  0  0  0
    2.3589   -1.1082   -1.9071 H   0  0  0  0  0  0  0  0  0  0  0  0
    4.4983   -0.7067   -1.9192 C   0  0  0  0  0  0  0  0  0  0  0  0
    4.7130   -1.4681   -2.6842 H   0  0  0  0  0  0  0  0  0  0  0  0
    5.5368    0.0806   -1.3948 C   0  0  0  0  0  0  0  0  0  0  0  0
    6.5698   -0.0635   -1.7462 H   0  0  0  0  0  0  0  0  0  0  0  0
    5.2515    1.0607   -0.4319 C   0  0  0  0  0  0  0  0  0  0  0  0
    6.0593    1.6897   -0.0280 H   0  0  0  0  0  0  0  0  0  0  0  0
    3.9349    1.2493    0.0180 C   0  0  0  0  0  0  0  0  0  0  0  0
    3.7196    2.0244    0.7676 H   0  0  0  0  0  0  0  0  0  0  0  0
    1.0537    2.2292    0.9391 C   0  0  0  0  0  0  0  0  0  0  0  0
    0.3869    3.3236    0.3521 C   0  0  0  0  0  0  0  0  0  0  0  0
   -0.0768    3.2021   -0.6383 H   0  0  0  0  0  0  0  0  0  0  0  0
    0.2933    4.5428    1.0407 C   0  0  0  0  0  0  0  0  0  0  0  0
   -0.2345    5.3895    0.5762 H   0  0  0  0  0  0  0  0  0  0  0  0
    0.8598    4.6783    2.3178 C   0  0  0  0  0  0  0  0  0  0  0  0
    0.7813    5.6342    2.8579 H   0  0  0  0  0  0  0  0  0  0  0  0
    1.5169    3.5879    2.9112 C   0  0  0  0  0  0  0  0  0  0  0  0
    1.9529    3.6860    3.9171 H   0  0  0  0  0  0  0  0  0  0  0  0
    1.6108    2.3658    2.2289 C   0  0  0  0  0  0  0  0  0  0  0  0
    2.1047    1.5065    2.7077 H   0  0  0  0  0  0  0  0  0  0  0  0
  1  2  1  0  0  0  0
  1 13  1  0  0  0  0
  2  3  1  0  0  0  0
  3  5  2  0  0  0  0
  3  4  1  0  0  0  0
  5  6  1  0  0  0  0
  7  8  1  0  0  0  0
  7  5  1  0  0  0  0
  9  7  2  0  0  0  0
 10  9  1  0  0  0  0
 11  9  1  0  0  0  0
 11  2  2  0  0  0  0
 12 11  1  0  0  0  0
 13 14  1  1  0  0  0
 13 28  1  0  0  0  0
 15 13  1  0  0  0  0
 15 16  1  0  0  0  0
 16 18  1  0  0  0  0
 16 17  1  0  0  0  0
 19 16  1  0  0  0  0
 20 21  1  0  0  0  0
 20 15  1  0  0  0  0
 22 20  1  0  0  0  0
 23 20  1  0  0  0  0
 24 15  1  0  0  0  0
 24 27  1  0  0  0  0
 25 24  1  0  0  0  0
 26 24  1  0  0  0  0
 28 31  1  0  0  0  0
 28 30  1  0  0  0  0
 29 28  1  0  0  0  0
 31 39  1  0  0  0  0
 32 33  1  0  0  0  0
 32 31  2  0  0  0  0
 33 35  2  0  0  0  0
 34 33  1  0  0  0  0
 35 36  1  0  0  0  0
 35 37  1  0  0  0  0
 37 38  1  0  0  0  0
 39 37  2  0  0  0  0
 39 40  1  0  0  0  0
 41 53  1  0  0  0  0
 41 32  1  0  0  0  0
 42 51  1  0  0  0  0
 42 41  1  0  0  0  0
 43 42  2  0  0  0  0
 44 43  1  0  0  0  0
 45 43  1  0  0  0  0
 45 47  2  0  0  0  0
 46 45  1  0  0  0  0
 47 49  1  0  0  0  0
 48 47  1  0  0  0  0
 49 50  1  0  0  0  0
 49 51  2  0  0  0  0
 51 52  1  0  0  0  0
 53 62  1  0  0  0  0
 54 53  2  0  0  0  0
 54 56  1  0  0  0  0
 55 54  1  0  0  0  0
 56 58  2  0  0  0  0
 57 56  1  0  0  0  0
 58 59  1  0  0  0  0
 58 60  1  0  0  0  0
 60 61  1  0  0  0  0
 62 63  1  0  0  0  0
 62 60  2  0  0  0  0
M  END
