1,2
q = 0.0, confidence = 1.0

 61 64  0  0  0  0  0  0  0  0999 V2000
    1.4936   -0.0103    0.0992 P   0  0  0  0  0  0  0  0  0  0  0  0
   -1.7933   -0.0528   -1.3400 S   0  0  0  0  0  0  0  0  0  0  0  0
   -3.6604    1.8448    0.1078 S   0  0  0  0  0  0  0  0  0  0  0  0
   -3.4566   -1.0295    0.9423 Si  0  0  0  0  0  0  0  0  0  0  0  0
   -2.4000    0.5173    0.3056 C   0  0  0  0  0  0  0  0  0  0  0  0
   -4.4638   -0.4190    2.4251 C   0  0  0  0  0  0  0  0  0  0  0  0
   -5.0548   -1.2658    2.8324 H   0  0  0  0  0  0  0  0  0  0  0  0
   -5.1715    0.3860    2.1433 H   0  0  0  0  0  0  0  0  0  0  0  0
   -3.8153   -0.0415    3.2415 H   0  0  0  0  0  0  0  0  0  0  0  0
   -2.2729   -2.3964    1.4827 C   0  0  0  0  0  0  0  0  0  0  0  0
   -2.8722   -3.2554    1.8515 H   0  0  0  0  0  0  0  0  0  0  0  0
   -1.5889   -2.0877    2.2984 H   0  0  0  0  0  0  0  0  0  0  0  0
   -1.6720   -2.7506    0.6180 H   0  0  0  0  0  0  0  0  0  0  0  0
   -4.5610   -1.6428   -0.4505 C   0  0  0  0  0  0  0  0  0  0  0  0
   -3.9486   -2.1710   -1.2094 H   0  0  0  0  0  0  0  0  0  0  0  0
   -5.0895   -0.8006   -0.9389 H   0  0  0  0  0  0  0  0  0  0  0  0
   -5.3159   -2.3506   -0.0496 H   0  0  0  0  0  0  0  0  0  0  0  0
   -1.3241    1.4754   -2.2490 C   0  0  0  0  0  0  0  0  0  0  0  0
   -0.4736    1.9804   -1.7509 H   0  0  0  0  0  0  0  0  0  0  0  0
   -0.9673    1.0678   -3.2161 H   0  0  0  0  0  0  0  0  0  0  0  0
   -2.5180    2.4062   -2.4341 C   0  0  0  0  0  0  0  0  0  0  0  0
   -2.2234    3.2243   -3.1276 H   0  0  0  0  0  0  0  0  0  0  0  0
   -3.3546    1.8529   -2.9107 H   0  0  0  0  0  0  0  0  0  0  0  0
   -2.9793    3.0312   -1.1213 C   0  0  0  0  0  0  0  0  0  0  0  0
   -3.8360    3.7153   -1.2886 H   0  0  0  0  0  0  0  0  0  0  0  0
   -2.1602    3.6206   -0.6631 H   0  0  0  0  0  0  0  0  0  0  0  0
   -1.2955    0.8242    1.3445 C   0  0  0  0  0  0  0  0  0  0  0  0
   -1.8092    1.0517    2.3019 H   0  0  0  0  0  0  0  0  0  0  0  0
   -0.7293   -0.1137    1.5111 H   0  0  0  0  0  0  0  0  0  0  0  0
   -0.3444    1.9504    1.0213 C   0  0  0  0  0  0  0  0  0  0  0  0
    0.9083    1.7271    0.3868 C   0  0  0  0  0  0  0  0  0  0  0  0
    1.7142    2.8274    0.0281 C   0  0  0  0  0  0  0  0  0  0  0  0
    2.6797    2.6547   -0.4686 H   0  0  0  0  0  0  0  0  0  0  0  0
    1.3068    4.1397    0.3126 C   0  0  0  0  0  0  0  0  0  0  0  0
    1.9497    4.9853    0.0251 H   0  0  0  0  0  0  0  0  0  0  0  0
    0.0983    4.3624    0.9881 C   0  0  0  0  0  0  0  0  0  0  0  0
   -0.2159    5.3860    1.2428 H   0  0  0  0  0  0  0  0  0  0  0  0
   -0.7114    3.2728    1.3399 C   0  0  0  0  0  0  0  0  0  0  0  0
   -1.6706    3.4374    1.8549 H   0  0  0  0  0  0  0  0  0  0  0  0
    3.1653    0.2415   -0.6329 C   0  0  0  0  0  0  0  0  0  0  0  0
    4.3477    0.3106    0.1276 C   0  0  0  0  0  0  0  0  0  0  0  0
    4.3081    0.1948    1.2206 H   0  0  0  0  0  0  0  0  0  0  0  0
    5.5820    0.5139   -0.5106 C   0  0  0  0  0  0  0  0  0  0  0  0
    6.5039    0.5572    0.0891 H   0  0  0  0  0  0  0  0  0  0  0  0
    5.6422    0.6549   -1.9055 C   0  0  0  0  0  0  0  0  0  0  0  0
    6.6116    0.8120   -2.4023 H   0  0  0  0  0  0  0  0  0  0  0  0
    4.4646    0.5803   -2.6682 C   0  0  0  0  0  0  0  0  0  0  0  0
    4.5079    0.6752   -3.7638 H   0  0  0  0  0  0  0  0  0  0  0  0
    3.2323    0.3644   -2.0368 C   0  0  0  0  0  0  0  0  0  0  0  0
    2.3078    0.2689   -2.6294 H   0  0  0  0  0  0  0  0  0  0  0  0
    1.7903   -0.5660    1.8371 C   0  0  0  0  0  0  0  0  0  0  0  0
    1.5213   -1.9042    2.1896 C   0  0  0  0  0  0  0  0  0  0  0  0
    1.1383   -2.5952    1.4235 H   0  0  0  0  0  0  0  0  0  0  0  0
    1.7165   -2.3369    3.5100 C   0  0  0  0  0  0  0  0  0  0  0  0
    1.4985   -3.3821    3.7767 H   0  0  0  0  0  0  0  0  0  0  0  0
    2.1769   -1.4399    4.4867 C   0  0  0  0  0  0  0  0  0  0  0  0
    2.3248   -1.7804    5.5228 H   0  0  0  0  0  0  0  0  0  0  0  0
    2.4371   -0.1032    4.1426 C   0  0  0  0  0  0  0  0  0  0  0  0
    2.7876    0.6063    4.9077 H   0  0  0  0  0  0  0  0  0  0  0  0
    2.2410    0.3360    2.8249 C   0  0  0  0  0  0  0  0  0  0  0  0
    2.4231    1.3901    2.5655 H   0  0  0  0  0  0  0  0  0  0  0  0
  1 31  1  0  0  0  0
  1 51  1  0  0  0  0
  2  5  1  0  0  0  0
  3  5  1  0  0  0  0
  4 10  1  0  0  0  0
  4  6  1  0  0  0  0
  5  4  1  0  0  0  0
  5 27  1  0  0  0  0
  6  7  1  0  0  0  0
  6  9  1  0  0  0  0
  8  6  1  0  0  0  0
 10 11  1  0  0  0  0
 10 12  1  0  0  0  0
 13 10  1  0  0  0  0
 14 17  1  0  0  0  0
 14  4  1  0  0  0  0
 15 14  1  0  0  0  0
 16 14  1  0  0  0  0
 18 19  1  0  0  0  0
 18  2  1  0  0  0  0
 20 18  1  0  0  0  0
 21 18  1  0  0  0  0
 21 24  1  0  0  0  0
 22 21  1  0  0  0  0
 23 21  1  0  0  0  0
 24 26  1  0  0  0  0
 24  3  1  0  0  0  0
 25 24  1  0  0  0  0
 27 29  1  0  0  0  0
 27 28  1  0  0  0  0
 30 38  1  0  0  0  0
 30 27  1  0  0  0  0
 31 30  2  0  0  0  0
 32 34  2  0  0  0  0
 32 31  1  0  0  0  0
 33 32  1  0  0  0  0
 34 36  1  0  0  0  0
 35 34  1  0  0  0  0
 36 37  1  0  0  0  0
 36 38  2  0  0  0  0
 38 39  1  0  0  0  0
 40  1  1  0  0  0  0
 40 41  1  0  0  0  0
 41 42  1  0  0  0  0
 43 44  1  0  0  0  0
 43 41  2  0  0  0  0
 45 43  1  0  0  0  0
 46 45  1  0  0  0  0
 47 49  1  0  0  0  0
 47 45  2  0  0  0  0
 48 47  1  0  0  0  0
 49 40  2  0  0  0  0
 50 49  1  0  0  0  0
 51 52  2  0  0  0  0
 51 60  1  0  0  0  0
 52 54  1  0  0  0  0
 53 52  1  0  0  0  0
 54 55  1  0  0  0  0
 54 56  2  0  0  0  0
 56 57  1  0  0  0  0
 58 56  1  0  0  0  0
 58 59  1  0  0  0  0
 60 58  2  0  0  0  0
 61 60  1  0  0  0  0
M  END
