1,2
q = -1.0, confidence = 0.0

 32 32  0  0  0  0  0  0  0  0999 V2000
   -0.9767   -1.9617   -0.0954 S   0  0  0  0  0  1  0  0  0  0  0  0
   -1.9603    0.9592   -0.0294 P   0  0  0  0  0  0  0  0  0  0  0  0
   -2.7187   -1.6689   -0.0709 C   0  0  0  0  0  0  0  0  0  0  0  0
   -3.6215   -2.7585   -0.1000 C   0  0  0  0  0  0  0  0  0  0  0  0
   -3.2229   -3.7843   -0.1049 H   0  0  0  0  0  0  0  0  0  0  0  0
   -5.0012   -2.5303   -0.1350 C   0  0  0  0  0  0  0  0  0  0  0  0
   -5.6902   -3.3889   -0.1595 H   0  0  0  0  0  0  0  0  0  0  0  0
   -5.5144   -1.2193   -0.1518 C   0  0  0  0  0  0  0  0  0  0  0  0
   -6.5997   -1.0455   -0.1931 H   0  0  0  0  0  0  0  0  0  0  0  0
   -4.6278   -0.1335   -0.1179 C   0  0  0  0  0  0  0  0  0  0  0  0
   -5.0269    0.8915   -0.1460 H   0  0  0  0  0  0  0  0  0  0  0  0
   -3.2368   -0.3490   -0.0580 C   0  0  0  0  0  0  0  0  0  0  0  0
   -2.4061    2.0143   -1.5130 C   0  0  0  0  0  0  0  0  0  0  0  0
   -3.5157    2.0924   -1.4799 H   0  0  0  0  0  0  0  0  0  0  0  0
   -2.0000    1.2350   -2.7711 C   0  0  0  0  0  0  0  0  0  0  0  0
   -2.3647    1.7537   -3.6817 H   0  0  0  0  0  0  0  0  0  0  0  0
   -0.8951    1.1601   -2.8333 H   0  0  0  0  0  0  0  0  0  0  0  0
   -2.4110    0.2054   -2.7708 H   0  0  0  0  0  0  0  0  0  0  0  0
   -1.7960    3.4179   -1.4812 C   0  0  0  0  0  0  0  0  0  0  0  0
   -2.1436    4.0127   -0.6134 H   0  0  0  0  0  0  0  0  0  0  0  0
   -0.6888    3.3692   -1.4420 H   0  0  0  0  0  0  0  0  0  0  0  0
   -2.0853    3.9687   -2.4005 H   0  0  0  0  0  0  0  0  0  0  0  0
   -2.2250    1.9938    1.5054 C   0  0  0  0  0  0  0  0  0  0  0  0
   -1.4684    2.8002    1.3740 H   0  0  0  0  0  0  0  0  0  0  0  0
   -1.8222    1.1595    2.7279 C   0  0  0  0  0  0  0  0  0  0  0  0
   -2.4510    0.2498    2.8203 H   0  0  0  0  0  0  0  0  0  0  0  0
   -0.7636    0.8413    2.6506 H   0  0  0  0  0  0  0  0  0  0  0  0
   -1.9414    1.7556    3.6564 H   0  0  0  0  0  0  0  0  0  0  0  0
   -3.6178    2.6107    1.6490 C   0  0  0  0  0  0  0  0  0  0  0  0
   -4.3808    1.8334    1.8531 H   0  0  0  0  0  0  0  0  0  0  0  0
   -3.6290    3.3163    2.5061 H   0  0  0  0  0  0  0  0  0  0  0  0
   -3.9322    3.1772    0.7494 H   0  0  0  0  0  0  0  0  0  0  0  0
  1  3  1  0  0  0  0
  2 23  1  0  0  0  0
  3 12  1  0  0  0  0
  4  3  2  0  0  0  0
  5  4  1  0  0  0  0
  6  4  1  0  0  0  0
  7  6  1  0  0  0  0
  8  6  2  0  0  0  0
  8 10  1  0  0  0  0
  9  8  1  0  0  0  0
 10 12  2  0  0  0  0
 11 10  1  0  0  0  0
 12  2  1  0  0  0  0
 13 19  1  0  0  0  0
 13 14  1  0  0  0  0
 13  2  1  0  0  0  0
 15 18  1  0  0  0  0
 15 13  1  0  0  0  0
 16 15  1  0  0  0  0
 17 15  1  0  0  0  0
 19 21  1  0  0  0  0
 19 20  1  0  0  0  0
 22 19  1  0  0  0  0
 23 29  1  0  0  0  0
 23 25  1  0  0  0  0
 24 23  1  0  0  0  0
 25 26  1  0  0  0  0
 25 28  1  0  0  0  0
 27 25  1  0  0  0  0
 29 30  1  0  0  0  0
 29 31  1  0  0  0  0
 32 29  1  0  0  0  0
M  END
