1,4
q = 0.0, confidence = 0.998

 23 22  0  0  0  0  0  0  0  0999 V2000
    2.0750    0.7449   -0.7869 S   0  0  0  0  0  0  0  0  0  0  0  0
    2.9085   -0.8288   -1.3017 C   0  0  0  0  0  0  0  0  0  0  0  0
    2.7583   -1.9296   -0.2610 C   0  0  0  0  0  0  0  0  0  0  0  0
    0.9655   -2.0807    0.2753 P   0  0  0  0  0  0  0  0  0  0  0  0
    0.3206   -3.4710   -0.7510 C   0  0  0  0  0  0  0  0  0  0  0  0
    0.9728   -4.3663   -0.7072 H   0  0  0  0  0  0  0  0  0  0  0  0
   -0.6885   -3.7378   -0.3776 H   0  0  0  0  0  0  0  0  0  0  0  0
    0.2140   -3.1007   -1.7896 H   0  0  0  0  0  0  0  0  0  0  0  0
    1.0859   -2.8223    1.9548 C   0  0  0  0  0  0  0  0  0  0  0  0
    1.4507   -2.0384    2.6466 H   0  0  0  0  0  0  0  0  0  0  0  0
    1.7427   -3.7149    1.9740 H   0  0  0  0  0  0  0  0  0  0  0  0
    0.0649   -3.1035    2.2804 H   0  0  0  0  0  0  0  0  0  0  0  0
    3.3556   -1.7042    0.6472 H   0  0  0  0  0  0  0  0  0  0  0  0
    3.1212   -2.9009   -0.6584 H   0  0  0  0  0  0  0  0  0  0  0  0
    3.9664   -0.5991   -1.5407 H   0  0  0  0  0  0  0  0  0  0  0  0
    2.3760   -1.0770   -2.2422 H   0  0  0  0  0  0  0  0  0  0  0  0
    3.1450    1.2523    0.6248 C   0  0  0  0  0  0  0  0  0  0  0  0
    4.5144    1.7515    0.1876 C   0  0  0  0  0  0  0  0  0  0  0  0
    5.0824    2.1253    1.0645 H   0  0  0  0  0  0  0  0  0  0  0  0
    4.4291    2.5802   -0.5439 H   0  0  0  0  0  0  0  0  0  0  0  0
    5.1234    0.9505   -0.2791 H   0  0  0  0  0  0  0  0  0  0  0  0
    3.1892    0.4182    1.3522 H   0  0  0  0  0  0  0  0  0  0  0  0
    2.5430    2.0345    1.1274 H   0  0  0  0  0  0  0  0  0  0  0  0
  1 17  1  0  0  0  0
  2  1  1  0  0  0  0
  2  3  1  0  0  0  0
  3  4  1  0  0  0  0
  3 13  1  0  0  0  0
  4  9  1  0  0  0  0
  5  6  1  0  0  0  0
  5  7  1  0  0  0  0
  5  4  1  0  0  0  0
  8  5  1  0  0  0  0
  9 11  1  0  0  0  0
  9 12  1  0  0  0  0
  9 10  1  0  0  0  0
 14  3  1  0  0  0  0
 15  2  1  0  0  0  0
 16  2  1  0  0  0  0
 17 23  1  0  0  0  0
 17 22  1  0  0  0  0
 18 17  1  0  0  0  0
 18 19  1  0  0  0  0
 20 18  1  0  0  0  0
 21 18  1  0  0  0  0
M  END
