1,2
q = 0.0, confidence = 1.0

 56 58  0  0  1  0  0  0  0  0999 V2000
    1.3723   -1.8127    0.2260 S   0  0  0  0  0  0  0  0  0  0  0  0
   -1.5026    0.2605    0.4242 P   0  0  0  0  0  0  0  0  0  0  0  0
   -0.7935    0.6222    1.9015 O   0  0  0  0  0  0  0  0  0  0  0  0
    3.1575    1.9102   -0.3769 N   0  0  0  0  0  0  0  0  0  0  0  0
    3.3979   -0.1040    1.0187 C   0  0  0  0  0  0  0  0  0  0  0  0
    3.9836    0.9328    0.2316 C   0  0  0  0  0  0  0  0  0  0  0  0
    5.3842    0.9227    0.0384 C   0  0  0  0  0  0  0  0  0  0  0  0
    6.1916   -0.0645    0.6195 C   0  0  0  0  0  0  0  0  0  0  0  0
    5.6194   -1.0632    1.4204 C   0  0  0  0  0  0  0  0  0  0  0  0
    4.2304   -1.0736    1.6080 C   0  0  0  0  0  0  0  0  0  0  0  0
    1.8989   -0.2425    1.1186 C   0  0  2  0  0  0  0  0  0  0  0  0
    1.3710   -0.2770    2.5556 C   0  0  0  0  0  0  0  0  0  0  0  0
   -0.1435   -0.4039    2.6617 C   0  0  0  0  0  0  0  0  0  0  0  0
    2.2585   -1.5450   -1.3488 C   0  0  0  0  0  0  0  0  0  0  0  0
    2.4960    2.8562    0.5184 C   0  0  0  0  0  0  0  0  0  0  0  0
    3.6650    2.5585   -1.5720 C   0  0  0  0  0  0  0  0  0  0  0  0
   -0.9981    1.7028   -0.5860 C   0  0  0  0  0  0  0  0  0  0  0  0
   -0.3542    1.4963   -1.8204 C   0  0  0  0  0  0  0  0  0  0  0  0
    0.0214    2.5973   -2.6066 C   0  0  0  0  0  0  0  0  0  0  0  0
   -0.2377    3.9017   -2.1570 C   0  0  0  0  0  0  0  0  0  0  0  0
   -0.8764    4.1094   -0.9207 C   0  0  0  0  0  0  0  0  0  0  0  0
   -1.2611    3.0141   -0.1361 C   0  0  0  0  0  0  0  0  0  0  0  0
   -3.2530    0.6230    0.8146 C   0  0  0  0  0  0  0  0  0  0  0  0
   -4.1514    0.9779   -0.2135 C   0  0  0  0  0  0  0  0  0  0  0  0
   -5.4906    1.2473    0.0966 C   0  0  0  0  0  0  0  0  0  0  0  0
   -5.9431    1.1563    1.4236 C   0  0  0  0  0  0  0  0  0  0  0  0
   -5.0503    0.8015    2.4459 C   0  0  0  0  0  0  0  0  0  0  0  0
   -3.7054    0.5363    2.1445 C   0  0  0  0  0  0  0  0  0  0  0  0
    5.8520    1.7107   -0.5675 H   0  0  0  0  0  0  0  0  0  0  0  0
    7.2792   -0.0441    0.4509 H   0  0  0  0  0  0  0  0  0  0  0  0
    6.2464   -1.8396    1.8825 H   0  0  0  0  0  0  0  0  0  0  0  0
    3.7686   -1.8875    2.1890 H   0  0  0  0  0  0  0  0  0  0  0  0
    1.4123    0.5732    0.5550 H   0  0  0  0  0  0  0  0  0  0  0  0
    1.7003    0.6625    3.0493 H   0  0  0  0  0  0  0  0  0  0  0  0
    1.8375   -1.1092    3.1238 H   0  0  0  0  0  0  0  0  0  0  0  0
   -0.4833   -1.4094    2.3239 H   0  0  0  0  0  0  0  0  0  0  0  0
   -0.4663   -0.2800    3.7168 H   0  0  0  0  0  0  0  0  0  0  0  0
    2.0705   -0.5189   -1.7160 H   0  0  0  0  0  0  0  0  0  0  0  0
    3.3385   -1.7052   -1.1752 H   0  0  0  0  0  0  0  0  0  0  0  0
    1.8378   -2.3067   -2.0310 H   0  0  0  0  0  0  0  0  0  0  0  0
    1.6681    3.3605   -0.0178 H   0  0  0  0  0  0  0  0  0  0  0  0
    3.2020    3.6376    0.8962 H   0  0  0  0  0  0  0  0  0  0  0  0
    2.0624    2.3434    1.3959 H   0  0  0  0  0  0  0  0  0  0  0  0
    2.8249    3.0745   -2.0794 H   0  0  0  0  0  0  0  0  0  0  0  0
    4.4553    3.3256   -1.3700 H   0  0  0  0  0  0  0  0  0  0  0  0
    4.0813    1.8053   -2.2687 H   0  0  0  0  0  0  0  0  0  0  0  0
   -0.1749    0.4653   -2.1670 H   0  0  0  0  0  0  0  0  0  0  0  0
    0.5109    2.4329   -3.5783 H   0  0  0  0  0  0  0  0  0  0  0  0
    0.0526    4.7645   -2.7758 H   0  0  0  0  0  0  0  0  0  0  0  0
   -1.0827    5.1326   -0.5719 H   0  0  0  0  0  0  0  0  0  0  0  0
   -1.7736    3.1700    0.8253 H   0  0  0  0  0  0  0  0  0  0  0  0
   -3.8017    1.0324   -1.2537 H   0  0  0  0  0  0  0  0  0  0  0  0
   -6.1890    1.5238   -0.7074 H   0  0  0  0  0  0  0  0  0  0  0  0
   -6.9976    1.3638    1.6609 H   0  0  0  0  0  0  0  0  0  0  0  0
   -5.3995    0.7321    3.4872 H   0  0  0  0  0  0  0  0  0  0  0  0
   -3.0023    0.2726    2.9473 H   0  0  0  0  0  0  0  0  0  0  0  0
  1 11  1  0  0  0  0
  2 23  1  0  0  0  0
  2  3  1  0  0  0  0
  3 13  1  0  0  0  0
  4  6  1  0  0  0  0
  4 15  1  0  0  0  0
  5 11  1  0  0  0  0
  5 10  1  0  0  0  0
  6  5  2  0  0  0  0
  7  6  1  0  0  0  0
  7  8  2  0  0  0  0
  8  9  1  0  0  0  0
  9 10  2  0  0  0  0
  9 31  1  0  0  0  0
 10 32  1  0  0  0  0
 11 33  1  6  0  0  0
 11 12  1  0  0  0  0
 12 13  1  0  0  0  0
 12 34  1  0  0  0  0
 12 35  1  0  0  0  0
 13 37  1  0  0  0  0
 14 39  1  0  0  0  0
 14  1  1  0  0  0  0
 15 42  1  0  0  0  0
 15 43  1  0  0  0  0
 16 45  1  0  0  0  0
 16  4  1  0  0  0  0
 17 22  1  0  0  0  0
 17  2  1  0  0  0  0
 18 17  2  0  0  0  0
 19 20  2  0  0  0  0
 19 18  1  0  0  0  0
 20 21  1  0  0  0  0
 21 50  1  0  0  0  0
 21 22  2  0  0  0  0
 22 51  1  0  0  0  0
 23 28  1  0  0  0  0
 24 25  1  0  0  0  0
 24 23  2  0  0  0  0
 25 26  2  0  0  0  0
 26 54  1  0  0  0  0
 26 27  1  0  0  0  0
 27 55  1  0  0  0  0
 28 27  2  0  0  0  0
 28 56  1  0  0  0  0
 29  7  1  0  0  0  0
 30  8  1  0  0  0  0
 36 13  1  0  0  0  0
 38 14  1  0  0  0  0
 40 14  1  0  0  0  0
 41 15  1  0  0  0  0
 44 16  1  0  0  0  0
 46 16  1  0  0  0  0
 47 18  1  0  0  0  0
 48 19  1  0  0  0  0
 49 20  1  0  0  0  0
 52 24  1  0  0  0  0
 53 25  1  0  0  0  0
M  END
