1,2
q = -1.0

 36 37  0  0  1  0  0  0  0  0999 V2000
    0.0434   -1.7189    1.4668 S   0  0  0  0  0  1  0  0  0  0  0  0
   -2.4678   -0.0859    0.4443 P   0  0  0  0  0  0  0  0  0  0  0  0
   -2.7312   -1.6655    1.3811 C   0  0  0  0  0  0  0  0  0  0  0  0
   -2.7460   -1.4076    2.4613 H   0  0  0  0  0  0  0  0  0  0  0  0
   -3.7050   -2.1234    1.1019 H   0  0  0  0  0  0  0  0  0  0  0  0
   -1.5549   -2.5929    1.0878 C   0  0  2  0  0  0  0  0  0  0  0  0
   -1.5534   -2.8425    0.0027 H   0  0  0  0  0  0  0  0  0  0  0  0
   -1.6208   -3.9009    1.8889 C   0  0  0  0  0  0  0  0  0  0  0  0
   -1.5816   -3.6500    2.9720 H   0  0  0  0  0  0  0  0  0  0  0  0
   -2.6176   -4.3627    1.7089 H   0  0  0  0  0  0  0  0  0  0  0  0
   -0.5171   -4.8987    1.5378 C   0  0  0  0  0  0  0  0  0  0  0  0
   -0.5584   -5.1784    0.4642 H   0  0  0  0  0  0  0  0  0  0  0  0
   -0.6114   -5.8289    2.1332 H   0  0  0  0  0  0  0  0  0  0  0  0
    0.4849   -4.4646    1.7290 H   0  0  0  0  0  0  0  0  0  0  0  0
   -3.6768    1.1113    1.1210 C   0  0  0  0  0  0  0  0  0  0  0  0
   -4.7840    0.6926    1.8896 C   0  0  0  0  0  0  0  0  0  0  0  0
   -4.9392   -0.3726    2.1151 H   0  0  0  0  0  0  0  0  0  0  0  0
   -5.7003    1.6382    2.3756 C   0  0  0  0  0  0  0  0  0  0  0  0
   -6.5615    1.3046    2.9745 H   0  0  0  0  0  0  0  0  0  0  0  0
   -5.5175    3.0022    2.1006 C   0  0  0  0  0  0  0  0  0  0  0  0
   -6.2367    3.7419    2.4843 H   0  0  0  0  0  0  0  0  0  0  0  0
   -4.4126    3.4208    1.3410 C   0  0  0  0  0  0  0  0  0  0  0  0
   -4.2615    4.4904    1.1296 H   0  0  0  0  0  0  0  0  0  0  0  0
   -3.4909    2.4845    0.8520 C   0  0  0  0  0  0  0  0  0  0  0  0
   -2.6126    2.8019    0.2644 H   0  0  0  0  0  0  0  0  0  0  0  0
   -3.0507   -0.4748   -1.2553 C   0  0  0  0  0  0  0  0  0  0  0  0
   -4.4196   -0.4622   -1.5897 C   0  0  0  0  0  0  0  0  0  0  0  0
   -5.1678   -0.1606   -0.8401 H   0  0  0  0  0  0  0  0  0  0  0  0
   -4.8267   -0.8186   -2.8840 C   0  0  0  0  0  0  0  0  0  0  0  0
   -5.8963   -0.8011   -3.1436 H   0  0  0  0  0  0  0  0  0  0  0  0
   -3.8736   -1.1877   -3.8480 C   0  0  0  0  0  0  0  0  0  0  0  0
   -4.1974   -1.4609   -4.8640 H   0  0  0  0  0  0  0  0  0  0  0  0
   -2.5091   -1.1952   -3.5182 C   0  0  0  0  0  0  0  0  0  0  0  0
   -1.7537   -1.4691   -4.2705 H   0  0  0  0  0  0  0  0  0  0  0  0
   -2.0955   -0.8342   -2.2279 C   0  0  0  0  0  0  0  0  0  0  0  0
   -1.0246   -0.8116   -1.9702 H   0  0  0  0  0  0  0  0  0  0  0  0
  2 15  1  0  0  0  0
  2  3  1  0  0  0  0
  3  4  1  0  0  0  0
  5  3  1  0  0  0  0
  6  7  1  6  0  0  0
  6  3  1  0  0  0  0
  6  1  1  0  0  0  0
  6  8  1  0  0  0  0
  8  9  1  0  0  0  0
 10  8  1  0  0  0  0
 11 14  1  0  0  0  0
 11  8  1  0  0  0  0
 11 13  1  0  0  0  0
 12 11  1  0  0  0  0
 15 16  1  0  0  0  0
 16 17  1  0  0  0  0
 16 18  2  0  0  0  0
 18 19  1  0  0  0  0
 20 18  1  0  0  0  0
 20 21  1  0  0  0  0
 22 20  2  0  0  0  0
 23 22  1  0  0  0  0
 24 15  2  0  0  0  0
 24 22  1  0  0  0  0
 25 24  1  0  0  0  0
 26  2  1  0  0  0  0
 27 26  1  0  0  0  0
 27 28  1  0  0  0  0
 29 27  2  0  0  0  0
 30 29  1  0  0  0  0
 31 33  2  0  0  0  0
 31 29  1  0  0  0  0
 32 31  1  0  0  0  0
 33 35  1  0  0  0  0
 34 33  1  0  0  0  0
 35 36  1  0  0  0  0
 35 26  2  0  0  0  0
M  END
