1,2
q = -1.0, confidence = 0.0

 28 27  0  0  0  0  0  0  0  0999 V2000
   -2.0274   -2.2308   -1.1156 S   0  0  0  0  0  1  0  0  0  0  0  0
   -2.8375    0.6879   -0.1940 P   0  0  0  0  0  0  0  0  0  0  0  0
   -3.8226   -1.7437   -1.1553 C   0  0  0  0  0  0  0  0  0  0  0  0
   -4.2812   -2.2871   -2.0067 H   0  0  0  0  0  0  0  0  0  0  0  0
   -4.2905   -2.1247   -0.2245 H   0  0  0  0  0  0  0  0  0  0  0  0
   -4.0335   -0.2393   -1.2962 C   0  0  0  0  0  0  0  0  0  0  0  0
   -5.0740    0.0697   -1.0592 H   0  0  0  0  0  0  0  0  0  0  0  0
   -3.8197    0.0752   -2.3383 H   0  0  0  0  0  0  0  0  0  0  0  0
   -2.3765    2.2062   -1.1957 C   0  0  0  0  0  0  0  0  0  0  0  0
   -1.7218    2.7764   -0.5001 H   0  0  0  0  0  0  0  0  0  0  0  0
   -1.5269    1.7978   -2.4060 C   0  0  0  0  0  0  0  0  0  0  0  0
   -1.1944    2.7020   -2.9567 H   0  0  0  0  0  0  0  0  0  0  0  0
   -2.0929    1.1622   -3.1172 H   0  0  0  0  0  0  0  0  0  0  0  0
   -0.6214    1.2401   -2.0939 H   0  0  0  0  0  0  0  0  0  0  0  0
   -3.5784    3.0693   -1.5909 C   0  0  0  0  0  0  0  0  0  0  0  0
   -3.2374    3.9549   -2.1667 H   0  0  0  0  0  0  0  0  0  0  0  0
   -4.1407    3.4441   -0.7129 H   0  0  0  0  0  0  0  0  0  0  0  0
   -4.2861    2.5119   -2.2388 H   0  0  0  0  0  0  0  0  0  0  0  0
   -3.8553    1.3165    1.2435 C   0  0  0  0  0  0  0  0  0  0  0  0
   -4.6498    1.9408    0.7770 H   0  0  0  0  0  0  0  0  0  0  0  0
   -2.9956    2.1814    2.1711 C   0  0  0  0  0  0  0  0  0  0  0  0
   -3.6132    2.5691    3.0075 H   0  0  0  0  0  0  0  0  0  0  0  0
   -2.5523    3.0538    1.6502 H   0  0  0  0  0  0  0  0  0  0  0  0
   -2.1698    1.5801    2.6026 H   0  0  0  0  0  0  0  0  0  0  0  0
   -4.5105    0.1516    1.9935 C   0  0  0  0  0  0  0  0  0  0  0  0
   -5.1234    0.5445    2.8309 H   0  0  0  0  0  0  0  0  0  0  0  0
   -3.7396   -0.5255    2.4143 H   0  0  0  0  0  0  0  0  0  0  0  0
   -5.1786   -0.4464    1.3420 H   0  0  0  0  0  0  0  0  0  0  0  0
  2 19  1  0  0  0  0
  3  1  1  0  0  0  0
  3  5  1  0  0  0  0
  4  3  1  0  0  0  0
  6  3  1  0  0  0  0
  6  7  1  0  0  0  0
  6  2  1  0  0  0  0
  8  6  1  0  0  0  0
  9 10  1  0  0  0  0
  9  2  1  0  0  0  0
 11 14  1  0  0  0  0
 11  9  1  0  0  0  0
 12 11  1  0  0  0  0
 13 11  1  0  0  0  0
 15  9  1  0  0  0  0
 15 17  1  0  0  0  0
 16 15  1  0  0  0  0
 18 15  1  0  0  0  0
 19 25  1  0  0  0  0
 19 21  1  0  0  0  0
 20 19  1  0  0  0  0
 21 24  1  0  0  0  0
 21 22  1  0  0  0  0
 23 21  1  0  0  0  0
 25 27  1  0  0  0  0
 25 26  1  0  0  0  0
 28 25  1  0  0  0  0
M  END
