1,4
q = -1.0

 35 37  0  0  0  0  0  0  0  0999 V2000
   -1.2241   -2.3691   -2.2322 S   0  0  0  0  0  1  0  0  0  0  0  0
   -1.3584    2.2186   -1.9482 S   0  0  0  0  0  0  0  0  0  0  0  0
   -1.2489    3.4901   -2.4330 H   0  0  0  0  0  0  0  0  0  0  0  0
   -1.8230    0.0175    0.1638 P   0  0  1  0  0  0  0  0  0  0  0  0
   -3.1521   -0.7789   -0.8211 C   0  0  0  0  0  0  0  0  0  0  0  0
   -2.8329   -1.7451   -1.8219 C   0  0  0  0  0  0  0  0  0  0  0  0
   -3.9082   -2.3073   -2.5608 C   0  0  0  0  0  0  0  0  0  0  0  0
   -3.6702   -3.0484   -3.3390 H   0  0  0  0  0  0  0  0  0  0  0  0
   -5.2335   -1.9373   -2.3245 C   0  0  0  0  0  0  0  0  0  0  0  0
   -6.0371   -2.3932   -2.9238 H   0  0  0  0  0  0  0  0  0  0  0  0
   -5.5411   -0.9856   -1.3349 C   0  0  0  0  0  0  0  0  0  0  0  0
   -6.5826   -0.6872   -1.1444 H   0  0  0  0  0  0  0  0  0  0  0  0
   -4.4990   -0.4168   -0.5961 C   0  0  0  0  0  0  0  0  0  0  0  0
   -4.7279    0.3339    0.1758 H   0  0  0  0  0  0  0  0  0  0  0  0
   -2.4851    1.6980    0.5091 C   0  0  0  0  0  0  0  0  0  0  0  0
   -2.2276    2.6953   -0.4736 C   0  0  0  0  0  0  0  0  0  0  0  0
   -2.6618    4.0183   -0.2505 C   0  0  0  0  0  0  0  0  0  0  0  0
   -2.4672    4.7897   -1.0115 H   0  0  0  0  0  0  0  0  0  0  0  0
   -3.3230    4.3604    0.9362 C   0  0  0  0  0  0  0  0  0  0  0  0
   -3.6423    5.4017    1.0961 H   0  0  0  0  0  0  0  0  0  0  0  0
   -3.5801    3.3825    1.9115 C   0  0  0  0  0  0  0  0  0  0  0  0
   -4.1099    3.6453    2.8392 H   0  0  0  0  0  0  0  0  0  0  0  0
   -3.1671    2.0610    1.6886 C   0  0  0  0  0  0  0  0  0  0  0  0
   -3.3748    1.2884    2.4441 H   0  0  0  0  0  0  0  0  0  0  0  0
   -1.8365   -0.8663    1.7724 C   0  0  0  0  0  0  0  0  0  0  0  0
   -2.2552   -2.2136    1.8251 C   0  0  0  0  0  0  0  0  0  0  0  0
   -2.6922   -2.6809    0.9298 H   0  0  0  0  0  0  0  0  0  0  0  0
   -2.1133   -2.9534    3.0090 C   0  0  0  0  0  0  0  0  0  0  0  0
   -2.4459   -4.0026    3.0342 H   0  0  0  0  0  0  0  0  0  0  0  0
   -1.5612   -2.3621    4.1564 C   0  0  0  0  0  0  0  0  0  0  0  0
   -1.4578   -2.9437    5.0851 H   0  0  0  0  0  0  0  0  0  0  0  0
   -1.1370   -1.0237    4.1100 C   0  0  0  0  0  0  0  0  0  0  0  0
   -0.6916   -0.5521    4.9989 H   0  0  0  0  0  0  0  0  0  0  0  0
   -1.2612   -0.2854    2.9259 C   0  0  0  0  0  0  0  0  0  0  0  0
   -0.9114    0.7579    2.9035 H   0  0  0  0  0  0  0  0  0  0  0  0
  1  6  1  0  0  0  0
  2 16  1  0  0  0  0
  3  2  1  0  0  0  0
  4  5  1  6  0  0  0
  4 15  1  0  0  0  0
  4 25  1  0  0  0  0
  5 13  1  0  0  0  0
  6  5  2  0  0  0  0
  7  9  2  0  0  0  0
  7  6  1  0  0  0  0
  8  7  1  0  0  0  0
  9 11  1  0  0  0  0
 10  9  1  0  0  0  0
 11 12  1  0  0  0  0
 11 13  2  0  0  0  0
 13 14  1  0  0  0  0
 15 23  1  0  0  0  0
 16 17  1  0  0  0  0
 16 15  2  0  0  0  0
 17 19  2  0  0  0  0
 18 17  1  0  0  0  0
 19 20  1  0  0  0  0
 19 21  1  0  0  0  0
 21 22  1  0  0  0  0
 23 21  2  0  0  0  0
 23 24  1  0  0  0  0
 25 26  2  0  0  0  0
 25 34  1  0  0  0  0
 26 28  1  0  0  0  0
 27 26  1  0  0  0  0
 28 29  1  0  0  0  0
 28 30  2  0  0  0  0
 30 31  1  0  0  0  0
 32 30  1  0  0  0  0
 32 33  1  0  0  0  0
 34 32  2  0  0  0  0
 35 34  1  0  0  0  0
M  END
