1,3
q = 0.0, confidence = 1.0

 62 65  0  0  0  0  0  0  0  0999 V2000
    1.4531    0.4826   -0.0632 P   0  0  0  0  0  0  0  0  0  0  0  0
   -0.7746   -1.4096   -0.3593 P   0  0  0  0  0  4  0  0  0  0  0  0
    0.8266   -2.5019   -1.0111 S   0  0  0  0  0  1  0  0  0  0  0  0
   -4.3737    2.2182    0.3132 S   0  0  0  0  0  0  0  0  0  0  0  0
   -0.2926    0.2062   -0.1156 N   0  0  0  0  0  0  0  0  0  0  0  0
    1.6879    1.6585   -1.4452 C   0  0  0  0  0  0  0  0  0  0  0  0
    0.8397    1.5973   -2.5698 C   0  0  0  0  0  0  0  0  0  0  0  0
   -0.0072    0.8944   -2.5787 H   0  0  0  0  0  0  0  0  0  0  0  0
    1.0772    2.4257   -3.6757 C   0  0  0  0  0  0  0  0  0  0  0  0
    0.4083    2.3748   -4.5482 H   0  0  0  0  0  0  0  0  0  0  0  0
    2.1671    3.3110   -3.6714 C   0  0  0  0  0  0  0  0  0  0  0  0
    2.3539    3.9593   -4.5409 H   0  0  0  0  0  0  0  0  0  0  0  0
    3.0245    3.3601   -2.5599 C   0  0  0  0  0  0  0  0  0  0  0  0
    3.8888    4.0413   -2.5591 H   0  0  0  0  0  0  0  0  0  0  0  0
    2.7935    2.5355   -1.4501 C   0  0  0  0  0  0  0  0  0  0  0  0
    3.4825    2.5414   -0.5930 H   0  0  0  0  0  0  0  0  0  0  0  0
    1.6272    1.4709    1.4727 C   0  0  0  0  0  0  0  0  0  0  0  0
    1.3013    2.8392    1.5393 C   0  0  0  0  0  0  0  0  0  0  0  0
    1.0354    3.3888    0.6235 H   0  0  0  0  0  0  0  0  0  0  0  0
    1.3297    3.5087    2.7737 C   0  0  0  0  0  0  0  0  0  0  0  0
    1.0768    4.5790    2.8202 H   0  0  0  0  0  0  0  0  0  0  0  0
    1.6874    2.8176    3.9417 C   0  0  0  0  0  0  0  0  0  0  0  0
    1.7105    3.3445    4.9078 H   0  0  0  0  0  0  0  0  0  0  0  0
    2.0388    1.4581    3.8733 C   0  0  0  0  0  0  0  0  0  0  0  0
    2.3502    0.9212    4.7822 H   0  0  0  0  0  0  0  0  0  0  0  0
    2.0179    0.7878    2.6433 C   0  0  0  0  0  0  0  0  0  0  0  0
    2.3396   -0.2619    2.5624 H   0  0  0  0  0  0  0  0  0  0  0  0
   -1.4303   -2.0634    1.2056 C   0  0  0  0  0  0  0  0  0  0  0  0
   -0.8435   -1.6380    2.4155 C   0  0  0  0  0  0  0  0  0  0  0  0
   -0.0811   -0.8451    2.4049 H   0  0  0  0  0  0  0  0  0  0  0  0
   -1.2358   -2.2238    3.6255 C   0  0  0  0  0  0  0  0  0  0  0  0
   -0.7760   -1.8864    4.5665 H   0  0  0  0  0  0  0  0  0  0  0  0
   -2.2099   -3.2361    3.6364 C   0  0  0  0  0  0  0  0  0  0  0  0
   -2.5175   -3.6940    4.5886 H   0  0  0  0  0  0  0  0  0  0  0  0
   -2.7866   -3.6689    2.4312 C   0  0  0  0  0  0  0  0  0  0  0  0
   -3.5447   -4.4664    2.4366 H   0  0  0  0  0  0  0  0  0  0  0  0
   -2.3956   -3.0917    1.2146 C   0  0  0  0  0  0  0  0  0  0  0  0
   -2.8386   -3.4444    0.2711 H   0  0  0  0  0  0  0  0  0  0  0  0
   -2.1362   -1.3842   -1.5664 C   0  0  0  0  0  0  0  0  0  0  0  0
   -1.8272   -1.6045   -2.9249 C   0  0  0  0  0  0  0  0  0  0  0  0
   -0.7957   -1.8754   -3.2016 H   0  0  0  0  0  0  0  0  0  0  0  0
   -2.8327   -1.4856   -3.8941 C   0  0  0  0  0  0  0  0  0  0  0  0
   -2.5931   -1.6662   -4.9527 H   0  0  0  0  0  0  0  0  0  0  0  0
   -4.1400   -1.1375   -3.5150 C   0  0  0  0  0  0  0  0  0  0  0  0
   -4.9257   -1.0398   -4.2795 H   0  0  0  0  0  0  0  0  0  0  0  0
   -4.4469   -0.9116   -2.1636 C   0  0  0  0  0  0  0  0  0  0  0  0
   -5.4661   -0.6263   -1.8635 H   0  0  0  0  0  0  0  0  0  0  0  0
   -3.4506   -1.0381   -1.1853 C   0  0  0  0  0  0  0  0  0  0  0  0
   -3.7000   -0.8551   -0.1292 H   0  0  0  0  0  0  0  0  0  0  0  0
   -1.2768    1.2957   -0.0095 C   0  0  0  0  0  0  0  0  0  0  0  0
   -2.0580    1.1626   -0.7887 H   0  0  0  0  0  0  0  0  0  0  0  0
   -0.7571    2.2371   -0.2825 H   0  0  0  0  0  0  0  0  0  0  0  0
   -1.9295    1.4411    1.3695 C   0  0  0  0  0  0  0  0  0  0  0  0
   -2.4201    0.4895    1.6612 H   0  0  0  0  0  0  0  0  0  0  0  0
   -1.1420    1.6323    2.1277 H   0  0  0  0  0  0  0  0  0  0  0  0
   -2.9530    2.5735    1.4211 C   0  0  0  0  0  0  0  0  0  0  0  0
   -2.4894    3.5381    1.1168 H   0  0  0  0  0  0  0  0  0  0  0  0
   -3.3349    2.6960    2.4563 H   0  0  0  0  0  0  0  0  0  0  0  0
   -5.3947    3.6775    0.6696 C   0  0  0  0  0  0  0  0  0  0  0  0
   -5.6853    3.7177    1.7395 H   0  0  0  0  0  0  0  0  0  0  0  0
   -6.3113    3.5902    0.0554 H   0  0  0  0  0  0  0  0  0  0  0  0
   -4.8704    4.6149    0.3929 H   0  0  0  0  0  0  0  0  0  0  0  0
  1 17  1  0  0  0  0
  2  5  1  0  0  0  0
  2 28  1  0  0  0  0
  3  2  1  0  0  0  0
  4 59  1  0  0  0  0
  4 56  1  0  0  0  0
  5  1  1  0  0  0  0
  5 50  1  0  0  0  0
  6  1  1  0  0  0  0
  7  6  2  0  0  0  0
  8  7  1  0  0  0  0
  9 11  2  0  0  0  0
  9  7  1  0  0  0  0
 10  9  1  0  0  0  0
 11 13  1  0  0  0  0
 12 11  1  0  0  0  0
 13 14  1  0  0  0  0
 13 15  2  0  0  0  0
 15  6  1  0  0  0  0
 15 16  1  0  0  0  0
 17 18  2  0  0  0  0
 17 26  1  0  0  0  0
 18 20  1  0  0  0  0
 19 18  1  0  0  0  0
 20 21  1  0  0  0  0
 20 22  2  0  0  0  0
 22 23  1  0  0  0  0
 24 22  1  0  0  0  0
 24 25  1  0  0  0  0
 26 24  2  0  0  0  0
 27 26  1  0  0  0  0
 28 37  2  0  0  0  0
 28 29  1  0  0  0  0
 29 31  2  0  0  0  0
 30 29  1  0  0  0  0
 31 33  1  0  0  0  0
 31 32  1  0  0  0  0
 33 34  1  0  0  0  0
 35 36  1  0  0  0  0
 35 33  2  0  0  0  0
 37 35  1  0  0  0  0
 38 37  1  0  0  0  0
 39 48  1  0  0  0  0
 39  2  1  0  0  0  0
 40 39  2  0  0  0  0
 41 40  1  0  0  0  0
 42 44  2  0  0  0  0
 42 40  1  0  0  0  0
 43 42  1  0  0  0  0
 44 46  1  0  0  0  0
 45 44  1  0  0  0  0
 46 47  1  0  0  0  0
 46 48  2  0  0  0  0
 48 49  1  0  0  0  0
 50 53  1  0  0  0  0
 51 50  1  0  0  0  0
 52 50  1  0  0  0  0
 53 56  1  0  0  0  0
 53 54  1  0  0  0  0
 53 55  1  0  0  0  0
 56 58  1  0  0  0  0
 57 56  1  0  0  0  0
 59 60  1  0  0  0  0
 61 59  1  0  0  0  0
 62 59  1  0  0  0  0
M  END
