1,2
q = 0.0, confidence = 0.996

 41 43  0  0  0  0  0  0  0  0999 V2000
   -0.1505    3.4562    0.1090 S   0  0  0  0  0  0  0  0  0  0  0  0
    0.8308    0.8129    1.5815 P   0  0  0  0  0  0  0  0  0  0  0  0
   -6.0071    2.5558   -0.4009 F   0  0  0  0  0  0  0  0  0  0  0  0
   -1.9406    3.2019    0.0306 C   0  0  0  0  0  0  0  0  0  0  0  0
   -2.4630    2.8035   -1.2184 C   0  0  0  0  0  0  0  0  0  0  0  0
   -1.7710    2.6300   -2.0608 H   0  0  0  0  0  0  0  0  0  0  0  0
   -3.8400    2.6060   -1.3700 C   0  0  0  0  0  0  0  0  0  0  0  0
   -4.2679    2.2919   -2.3330 H   0  0  0  0  0  0  0  0  0  0  0  0
   -4.6851    2.7975   -0.2688 C   0  0  0  0  0  0  0  0  0  0  0  0
   -4.1890    3.2111    0.9694 C   0  0  0  0  0  0  0  0  0  0  0  0
   -4.8817    3.3598    1.8098 H   0  0  0  0  0  0  0  0  0  0  0  0
   -2.8089    3.4273    1.1143 C   0  0  0  0  0  0  0  0  0  0  0  0
   -2.4320    3.7669    2.0883 H   0  0  0  0  0  0  0  0  0  0  0  0
    0.1632    3.4928    1.9270 C   0  0  0  0  0  0  0  0  0  0  0  0
    1.2282    3.7975    1.9836 H   0  0  0  0  0  0  0  0  0  0  0  0
   -0.4381    4.3080    2.3780 H   0  0  0  0  0  0  0  0  0  0  0  0
   -0.0670    2.1381    2.5730 C   0  0  0  0  0  0  0  0  0  0  0  0
   -1.1410    1.8650    2.5619 H   0  0  0  0  0  0  0  0  0  0  0  0
    0.2740    2.1268    3.6285 H   0  0  0  0  0  0  0  0  0  0  0  0
    2.4942    0.8136    2.3882 C   0  0  0  0  0  0  0  0  0  0  0  0
    3.6122    1.0753    1.5710 C   0  0  0  0  0  0  0  0  0  0  0  0
    3.4432    1.2341    0.4923 H   0  0  0  0  0  0  0  0  0  0  0  0
    4.9001    1.1382    2.1243 C   0  0  0  0  0  0  0  0  0  0  0  0
    5.7643    1.3400    1.4731 H   0  0  0  0  0  0  0  0  0  0  0  0
    5.0817    0.9465    3.5031 C   0  0  0  0  0  0  0  0  0  0  0  0
    6.0911    0.9940    3.9396 H   0  0  0  0  0  0  0  0  0  0  0  0
    3.9707    0.7052    4.3287 C   0  0  0  0  0  0  0  0  0  0  0  0
    4.1086    0.5662    5.4120 H   0  0  0  0  0  0  0  0  0  0  0  0
    2.6820    0.6445    3.7767 C   0  0  0  0  0  0  0  0  0  0  0  0
    1.8191    0.4619    4.4362 H   0  0  0  0  0  0  0  0  0  0  0  0
   -0.0520   -0.6986    2.1676 C   0  0  0  0  0  0  0  0  0  0  0  0
   -1.3741   -0.8474    1.6906 C   0  0  0  0  0  0  0  0  0  0  0  0
   -1.7982   -0.0841    1.0169 H   0  0  0  0  0  0  0  0  0  0  0  0
   -2.1393   -1.9643    2.0490 C   0  0  0  0  0  0  0  0  0  0  0  0
   -3.1625   -2.0699    1.6595 H   0  0  0  0  0  0  0  0  0  0  0  0
   -1.5884   -2.9494    2.8865 C   0  0  0  0  0  0  0  0  0  0  0  0
   -2.1853   -3.8315    3.1642 H   0  0  0  0  0  0  0  0  0  0  0  0
   -0.2724   -2.8134    3.3518 C   0  0  0  0  0  0  0  0  0  0  0  0
    0.1724   -3.5939    3.9876 H   0  0  0  0  0  0  0  0  0  0  0  0
    0.4979   -1.6950    2.9930 C   0  0  0  0  0  0  0  0  0  0  0  0
    1.5402   -1.6217    3.3325 H   0  0  0  0  0  0  0  0  0  0  0  0
  1 14  1  0  0  0  0
  2 31  1  0  0  0  0
  2 20  1  0  0  0  0
  2 17  1  0  0  0  0
  3  9  1  0  0  0  0
  4  1  1  0  0  0  0
  4 12  1  0  0  0  0
  5  4  2  0  0  0  0
  6  5  1  0  0  0  0
  7  5  1  0  0  0  0
  7  9  2  0  0  0  0
  8  7  1  0  0  0  0
  9 10  1  0  0  0  0
 10 12  2  0  0  0  0
 10 11  1  0  0  0  0
 12 13  1  0  0  0  0
 14 15  1  0  0  0  0
 14 16  1  0  0  0  0
 14 17  1  0  0  0  0
 17 19  1  0  0  0  0
 18 17  1  0  0  0  0
 20 29  1  0  0  0  0
 21 23  1  0  0  0  0
 21 20  2  0  0  0  0
 22 21  1  0  0  0  0
 23 25  2  0  0  0  0
 24 23  1  0  0  0  0
 25 26  1  0  0  0  0
 25 27  1  0  0  0  0
 27 28  1  0  0  0  0
 29 27  2  0  0  0  0
 29 30  1  0  0  0  0
 31 40  1  0  0  0  0
 32 34  1  0  0  0  0
 32 31  2  0  0  0  0
 33 32  1  0  0  0  0
 34 36  2  0  0  0  0
 35 34  1  0  0  0  0
 36 37  1  0  0  0  0
 36 38  1  0  0  0  0
 38 39  1  0  0  0  0
 40 41  1  0  0  0  0
 40 38  2  0  0  0  0
M  END
