1,2
q = 0.0, confidence = 0.992

 41 43  0  0  0  0  0  0  0  0999 V2000
    1.9831   -0.7774   -1.5585 S   0  0  0  0  0  0  0  0  0  0  0  0
   -1.0667   -1.3241   -1.0411 P   0  0  0  0  0  0  0  0  0  0  0  0
   -0.2777   -1.9046   -2.6431 C   0  0  0  0  0  0  0  0  0  0  0  0
   -0.8241   -2.7828   -3.0429 H   0  0  0  0  0  0  0  0  0  0  0  0
   -0.3755   -1.0818   -3.3813 H   0  0  0  0  0  0  0  0  0  0  0  0
    1.1792   -2.2482   -2.3771 C   0  0  0  0  0  0  0  0  0  0  0  0
    1.7465   -2.4548   -3.3056 H   0  0  0  0  0  0  0  0  0  0  0  0
    1.2792   -3.1117   -1.6894 H   0  0  0  0  0  0  0  0  0  0  0  0
    3.4413   -1.5099   -0.8015 C   0  0  0  0  0  0  0  0  0  0  0  0
    4.6971   -1.1894   -1.3441 C   0  0  0  0  0  0  0  0  0  0  0  0
    4.7626   -0.5432   -2.2317 H   0  0  0  0  0  0  0  0  0  0  0  0
    5.8572   -1.6834   -0.7274 C   0  0  0  0  0  0  0  0  0  0  0  0
    6.8437   -1.4309   -1.1437 H   0  0  0  0  0  0  0  0  0  0  0  0
    5.7584   -2.4897    0.4167 C   0  0  0  0  0  0  0  0  0  0  0  0
    6.6700   -2.8749    0.8976 H   0  0  0  0  0  0  0  0  0  0  0  0
    4.4974   -2.8050    0.9526 C   0  0  0  0  0  0  0  0  0  0  0  0
    4.4209   -3.4354    1.8512 H   0  0  0  0  0  0  0  0  0  0  0  0
    3.3321   -2.3115    0.3503 C   0  0  0  0  0  0  0  0  0  0  0  0
    2.3391   -2.5314    0.7714 H   0  0  0  0  0  0  0  0  0  0  0  0
   -1.2841   -2.9065   -0.1272 C   0  0  0  0  0  0  0  0  0  0  0  0
   -0.6986   -3.0357    1.1487 C   0  0  0  0  0  0  0  0  0  0  0  0
   -0.1552   -2.1669    1.5613 H   0  0  0  0  0  0  0  0  0  0  0  0
   -0.7992   -4.2435    1.8559 C   0  0  0  0  0  0  0  0  0  0  0  0
   -0.3383   -4.3372    2.8508 H   0  0  0  0  0  0  0  0  0  0  0  0
   -1.4853   -5.3307    1.2920 C   0  0  0  0  0  0  0  0  0  0  0  0
   -1.5659   -6.2787    1.8449 H   0  0  0  0  0  0  0  0  0  0  0  0
   -2.0655   -5.2113    0.0179 C   0  0  0  0  0  0  0  0  0  0  0  0
   -2.5998   -6.0642   -0.4269 H   0  0  0  0  0  0  0  0  0  0  0  0
   -1.9643   -4.0062   -0.6930 C   0  0  0  0  0  0  0  0  0  0  0  0
   -2.4256   -3.9251   -1.6898 H   0  0  0  0  0  0  0  0  0  0  0  0
   -2.7406   -0.7659   -1.5361 C   0  0  0  0  0  0  0  0  0  0  0  0
   -3.9213   -1.3654   -1.0567 C   0  0  0  0  0  0  0  0  0  0  0  0
   -3.8695   -2.2184   -0.3657 H   0  0  0  0  0  0  0  0  0  0  0  0
   -5.1713   -0.8574   -1.4427 C   0  0  0  0  0  0  0  0  0  0  0  0
   -6.0884   -1.3300   -1.0608 H   0  0  0  0  0  0  0  0  0  0  0  0
   -5.2536    0.2508   -2.2987 C   0  0  0  0  0  0  0  0  0  0  0  0
   -6.2361    0.6444   -2.5994 H   0  0  0  0  0  0  0  0  0  0  0  0
   -4.0780    0.8643   -2.7634 C   0  0  0  0  0  0  0  0  0  0  0  0
   -4.1348    1.7416   -3.4250 H   0  0  0  0  0  0  0  0  0  0  0  0
   -2.8272    0.3623   -2.3810 C   0  0  0  0  0  0  0  0  0  0  0  0
   -1.9105    0.8606   -2.7327 H   0  0  0  0  0  0  0  0  0  0  0  0
  1  9  1  0  0  0  0
  2 20  1  0  0  0  0
  3  6  1  0  0  0  0
  3  2  1  0  0  0  0
  4  3  1  0  0  0  0
  5  3  1  0  0  0  0
  6  8  1  0  0  0  0
  6  1  1  0  0  0  0
  7  6  1  0  0  0  0
  9 18  1  0  0  0  0
 10  9  2  0  0  0  0
 10 12  1  0  0  0  0
 11 10  1  0  0  0  0
 12 14  2  0  0  0  0
 13 12  1  0  0  0  0
 14 15  1  0  0  0  0
 14 16  1  0  0  0  0
 16 17  1  0  0  0  0
 18 19  1  0  0  0  0
 18 16  2  0  0  0  0
 20 21  1  0  0  0  0
 21 22  1  0  0  0  0
 21 23  2  0  0  0  0
 23 24  1  0  0  0  0
 25 26  1  0  0  0  0
 25 23  1  0  0  0  0
 27 25  2  0  0  0  0
 28 27  1  0  0  0  0
 29 20  2  0  0  0  0
 29 27  1  0  0  0  0
 30 29  1  0  0  0  0
 31 32  1  0  0  0  0
 31  2  1  0  0  0  0
 32 33  1  0  0  0  0
 34 35  1  0  0  0  0
 34 32  2  0  0  0  0
 36 34  1  0  0  0  0
 37 36  1  0  0  0  0
 38 40  1  0  0  0  0
 38 36  2  0  0  0  0
 39 38  1  0  0  0  0
 40 31  2  0  0  0  0
 41 40  1  0  0  0  0
M  END
