1,3
q = 0.0, confidence = 0.888

 14 14  0  0  0  0  0  0  0  0999 V2000
   -0.9007   -0.9619   -2.5972 S   0  0  0  0  0  1  0  0  0  0  0  0
   -2.7591    2.0629   -2.0120 S   0  0  0  0  0  1  0  0  0  0  0  0
   -2.0595    0.3031   -1.4237 P   0  0  0  0  0  0  0  0  0  0  0  0
   -3.3118   -0.6910   -0.5137 C   0  0  0  0  0  0  0  0  0  0  0  0
   -2.9370   -1.9157    0.0754 C   0  0  0  0  0  0  0  0  0  0  0  0
   -1.9169   -2.2986   -0.0833 H   0  0  0  0  0  0  0  0  0  0  0  0
   -3.8600   -2.6319    0.8490 C   0  0  0  0  0  0  0  0  0  0  0  0
   -3.5630   -3.5869    1.3095 H   0  0  0  0  0  0  0  0  0  0  0  0
   -5.1616   -2.1330    1.0358 C   0  0  0  0  0  0  0  0  0  0  0  0
   -5.8856   -2.6969    1.6438 H   0  0  0  0  0  0  0  0  0  0  0  0
   -5.5355   -0.9152    0.4455 C   0  0  0  0  0  0  0  0  0  0  0  0
   -6.5545   -0.5233    0.5874 H   0  0  0  0  0  0  0  0  0  0  0  0
   -4.6120   -0.1897   -0.3237 C   0  0  0  0  0  0  0  0  0  0  0  0
   -4.8744    0.7769   -0.7836 H   0  0  0  0  0  0  0  0  0  0  0  0
  1  3  1  0  0  0  0
  2  3  1  0  0  0  0
  3  4  1  0  0  0  0
  4 13  2  0  0  0  0
  4  5  1  0  0  0  0
  5  7  2  0  0  0  0
  6  5  1  0  0  0  0
  7  9  1  0  0  0  0
  7  8  1  0  0  0  0
  9 10  1  0  0  0  0
 11 12  1  0  0  0  0
 11  9  2  0  0  0  0
 13 11  1  0  0  0  0
 14 13  1  0  0  0  0
M  END
