1
q = -1.0

 42 45  0  0  0  0  0  0  0  0999 V2000
   -0.4815    0.0589   -2.2984 S   0  0  0  0  0  1  0  0  0  0  0  0
   -1.9473   -0.9079   -2.4787 C   0  0  0  0  0  0  0  0  0  0  0  0
   -2.5119   -1.0684   -3.7704 C   0  0  0  0  0  0  0  0  0  0  0  0
   -3.6612   -1.8410   -3.9546 C   0  0  0  0  0  0  0  0  0  0  0  0
   -4.2909   -2.4852   -2.8686 C   0  0  0  0  0  0  0  0  0  0  0  0
   -3.7518   -2.3381   -1.5881 C   0  0  0  0  0  0  0  0  0  0  0  0
   -2.5956   -1.5567   -1.3935 C   0  0  0  0  0  0  0  0  0  0  0  0
   -1.8702   -1.2860    0.2450 P   0  0  0  0  0  0  0  0  0  0  0  0
   -3.1236   -0.7868    1.3222 N   0  0  0  0  0  0  0  0  0  0  0  0
   -3.5457   -1.8294    2.2489 C   0  0  0  0  0  0  0  0  0  0  0  0
   -2.3722   -2.8033    2.3578 C   0  0  0  0  0  0  0  0  0  0  0  0
   -1.7288   -2.8174    1.0447 N   0  0  0  0  0  0  0  0  0  0  0  0
   -3.8400    0.4085    1.1512 C   0  0  0  0  0  0  0  0  0  0  0  0
   -3.3927    1.3911    0.2340 C   0  0  0  0  0  0  0  0  0  0  0  0
   -4.1034    2.5844    0.0715 C   0  0  0  0  0  0  0  0  0  0  0  0
   -5.2729    2.8325    0.8097 C   0  0  0  0  0  0  0  0  0  0  0  0
   -5.7222    1.8608    1.7152 C   0  0  0  0  0  0  0  0  0  0  0  0
   -5.0224    0.6572    1.8873 C   0  0  0  0  0  0  0  0  0  0  0  0
   -0.6344   -3.6640    0.7823 C   0  0  0  0  0  0  0  0  0  0  0  0
    0.0789   -3.5542   -0.4372 C   0  0  0  0  0  0  0  0  0  0  0  0
    1.1658   -4.3937   -0.7006 C   0  0  0  0  0  0  0  0  0  0  0  0
    1.5648   -5.3678    0.2299 C   0  0  0  0  0  0  0  0  0  0  0  0
    0.8616   -5.4807    1.4376 C   0  0  0  0  0  0  0  0  0  0  0  0
   -0.2230   -4.6374    1.7214 C   0  0  0  0  0  0  0  0  0  0  0  0
   -2.0295   -0.5750   -4.6275 H   0  0  0  0  0  0  0  0  0  0  0  0
   -4.0782   -1.9480   -4.9681 H   0  0  0  0  0  0  0  0  0  0  0  0
   -5.1922   -3.0946   -3.0276 H   0  0  0  0  0  0  0  0  0  0  0  0
   -4.2184   -2.8363   -0.7238 H   0  0  0  0  0  0  0  0  0  0  0  0
   -3.7742   -1.3918    3.2423 H   0  0  0  0  0  0  0  0  0  0  0  0
   -4.4671   -2.3429    1.8841 H   0  0  0  0  0  0  0  0  0  0  0  0
   -1.6548   -2.4788    3.1470 H   0  0  0  0  0  0  0  0  0  0  0  0
   -2.7340   -3.8194    2.6168 H   0  0  0  0  0  0  0  0  0  0  0  0
   -2.4686    1.2366   -0.3476 H   0  0  0  0  0  0  0  0  0  0  0  0
   -3.7223    3.3318   -0.6400 H   0  0  0  0  0  0  0  0  0  0  0  0
   -5.8287    3.7723    0.6770 H   0  0  0  0  0  0  0  0  0  0  0  0
   -6.6386    2.0327    2.3007 H   0  0  0  0  0  0  0  0  0  0  0  0
   -5.4056   -0.0888    2.5964 H   0  0  0  0  0  0  0  0  0  0  0  0
   -0.2083   -2.8030   -1.1880 H   0  0  0  0  0  0  0  0  0  0  0  0
    1.7126   -4.2737   -1.6475 H   0  0  0  0  0  0  0  0  0  0  0  0
    2.4189   -6.0269    0.0156 H   0  0  0  0  0  0  0  0  0  0  0  0
    1.1627   -6.2315    2.1843 H   0  0  0  0  0  0  0  0  0  0  0  0
   -0.7412   -4.7388    2.6840 H   0  0  0  0  0  0  0  0  0  0  0  0
  2  1  1  0  0  0  0
  2  7  1  0  0  0  0
  3  2  2  0  0  0  0
  4  3  1  0  0  0  0
  4  5  2  0  0  0  0
  5  6  1  0  0  0  0
  6  7  2  0  0  0  0
  6 28  1  0  0  0  0
  7  8  1  0  0  0  0
  8 12  1  0  0  0  0
  8  9  1  0  0  0  0
  9 10  1  0  0  0  0
 10 11  1  0  0  0  0
 10 29  1  0  0  0  0
 11 32  1  0  0  0  0
 11 31  1  0  0  0  0
 12 11  1  0  0  0  0
 13  9  1  0  0  0  0
 13 18  1  0  0  0  0
 14 13  2  0  0  0  0
 15 14  1  0  0  0  0
 15 16  2  0  0  0  0
 16 17  1  0  0  0  0
 17 18  2  0  0  0  0
 17 36  1  0  0  0  0
 18 37  1  0  0  0  0
 19 12  1  0  0  0  0
 19 24  1  0  0  0  0
 20 19  2  0  0  0  0
 21 20  1  0  0  0  0
 21 22  2  0  0  0  0
 22 23  1  0  0  0  0
 23 24  2  0  0  0  0
 23 41  1  0  0  0  0
 24 42  1  0  0  0  0
 25  3  1  0  0  0  0
 26  4  1  0  0  0  0
 27  5  1  0  0  0  0
 30 10  1  0  0  0  0
 33 14  1  0  0  0  0
 34 15  1  0  0  0  0
 35 16  1  0  0  0  0
 38 20  1  0  0  0  0
 39 21  1  0  0  0  0
 40 22  1  0  0  0  0
M  END
