1,2
q = -1.0, confidence = 0.0

 46 48  0  0  0  0  0  0  0  0999 V2000
    1.6334    0.7636   -0.2133 S   0  0  0  0  0  1  0  0  0  0  0  0
   -1.1234   -0.6922    0.0731 P   0  0  0  0  0  0  0  0  0  0  0  0
    4.5627   -0.7860    0.2927 Si  0  0  0  0  0  0  0  0  0  0  0  0
    0.4034   -1.6785    0.2787 C   0  0  0  0  0  0  0  0  0  0  0  0
    0.3988   -3.0702    0.5012 C   0  0  0  0  0  0  0  0  0  0  0  0
   -0.5609   -3.6105    0.5300 H   0  0  0  0  0  0  0  0  0  0  0  0
    1.6037   -3.7594    0.6706 C   0  0  0  0  0  0  0  0  0  0  0  0
    1.6055   -4.8458    0.8451 H   0  0  0  0  0  0  0  0  0  0  0  0
    2.8155   -3.0440    0.6143 C   0  0  0  0  0  0  0  0  0  0  0  0
    3.7567   -3.5977    0.7585 H   0  0  0  0  0  0  0  0  0  0  0  0
    2.8689   -1.6582    0.3686 C   0  0  0  0  0  0  0  0  0  0  0  0
    1.6305   -0.9625    0.1793 C   0  0  0  0  0  0  0  0  0  0  0  0
    5.9157   -2.0708    0.6435 C   0  0  0  0  0  0  0  0  0  0  0  0
    5.8020   -2.5315    1.6463 H   0  0  0  0  0  0  0  0  0  0  0  0
    6.9095   -1.5777    0.6133 H   0  0  0  0  0  0  0  0  0  0  0  0
    5.9242   -2.8836   -0.1115 H   0  0  0  0  0  0  0  0  0  0  0  0
    4.8715   -0.0665   -1.4328 C   0  0  0  0  0  0  0  0  0  0  0  0
    4.8707   -0.8723   -2.1953 H   0  0  0  0  0  0  0  0  0  0  0  0
    4.0788    0.6607   -1.6964 H   0  0  0  0  0  0  0  0  0  0  0  0
    5.8553    0.4457   -1.4730 H   0  0  0  0  0  0  0  0  0  0  0  0
    4.6747    0.5614    1.6202 C   0  0  0  0  0  0  0  0  0  0  0  0
    3.8733    1.3123    1.4759 H   0  0  0  0  0  0  0  0  0  0  0  0
    5.6579    1.0745    1.5762 H   0  0  0  0  0  0  0  0  0  0  0  0
    4.5601    0.1209    2.6319 H   0  0  0  0  0  0  0  0  0  0  0  0
   -2.1281   -1.7135   -1.0943 C   0  0  0  0  0  0  0  0  0  0  0  0
   -1.4721   -2.2798   -2.2106 C   0  0  0  0  0  0  0  0  0  0  0  0
   -0.3794   -2.1808   -2.3027 H   0  0  0  0  0  0  0  0  0  0  0  0
   -2.1963   -2.9776   -3.1868 C   0  0  0  0  0  0  0  0  0  0  0  0
   -1.6669   -3.4188   -4.0455 H   0  0  0  0  0  0  0  0  0  0  0  0
   -3.5892   -3.1200   -3.0677 C   0  0  0  0  0  0  0  0  0  0  0  0
   -4.1582   -3.6679   -3.8340 H   0  0  0  0  0  0  0  0  0  0  0  0
   -4.2473   -2.5668   -1.9585 C   0  0  0  0  0  0  0  0  0  0  0  0
   -5.3366   -2.6840   -1.8484 H   0  0  0  0  0  0  0  0  0  0  0  0
   -3.5239   -1.8708   -0.9770 C   0  0  0  0  0  0  0  0  0  0  0  0
   -4.0529   -1.4574   -0.1057 H   0  0  0  0  0  0  0  0  0  0  0  0
   -2.0523   -0.8302    1.6645 C   0  0  0  0  0  0  0  0  0  0  0  0
   -1.6288   -1.6292    2.7453 C   0  0  0  0  0  0  0  0  0  0  0  0
   -0.7412   -2.2692    2.6367 H   0  0  0  0  0  0  0  0  0  0  0  0
   -2.3177   -1.5930    3.9690 C   0  0  0  0  0  0  0  0  0  0  0  0
   -1.9668   -2.2147    4.8071 H   0  0  0  0  0  0  0  0  0  0  0  0
   -3.4429   -0.7699    4.1279 C   0  0  0  0  0  0  0  0  0  0  0  0
   -3.9800   -0.7442    5.0881 H   0  0  0  0  0  0  0  0  0  0  0  0
   -3.8728    0.0307    3.0556 C   0  0  0  0  0  0  0  0  0  0  0  0
   -4.7489    0.6875    3.1727 H   0  0  0  0  0  0  0  0  0  0  0  0
   -3.1740    0.0118    1.8406 C   0  0  0  0  0  0  0  0  0  0  0  0
   -3.4755    0.6813    1.0193 H   0  0  0  0  0  0  0  0  0  0  0  0
  1 12  1  0  0  0  0
  2  4  1  0  0  0  0
  2 36  1  0  0  0  0
  3 11  1  0  0  0  0
  3 13  1  0  0  0  0
  3 21  1  0  0  0  0
  4  5  1  0  0  0  0
  5  6  1  0  0  0  0
  5  7  2  0  0  0  0
  7  8  1  0  0  0  0
  9  7  1  0  0  0  0
  9 10  1  0  0  0  0
 11  9  2  0  0  0  0
 12  4  2  0  0  0  0
 12 11  1  0  0  0  0
 13 14  1  0  0  0  0
 15 13  1  0  0  0  0
 16 13  1  0  0  0  0
 17  3  1  0  0  0  0
 18 17  1  0  0  0  0
 19 17  1  0  0  0  0
 20 17  1  0  0  0  0
 21 24  1  0  0  0  0
 22 21  1  0  0  0  0
 23 21  1  0  0  0  0
 25 34  1  0  0  0  0
 25  2  1  0  0  0  0
 26 25  2  0  0  0  0
 27 26  1  0  0  0  0
 28 30  2  0  0  0  0
 28 26  1  0  0  0  0
 29 28  1  0  0  0  0
 30 32  1  0  0  0  0
 31 30  1  0  0  0  0
 32 33  1  0  0  0  0
 32 34  2  0  0  0  0
 34 35  1  0  0  0  0
 36 45  2  0  0  0  0
 36 37  1  0  0  0  0
 37 39  2  0  0  0  0
 38 37  1  0  0  0  0
 39 41  1  0  0  0  0
 39 40  1  0  0  0  0
 41 42  1  0  0  0  0
 43 44  1  0  0  0  0
 43 41  2  0  0  0  0
 45 43  1  0  0  0  0
 46 45  1  0  0  0  0
M  END
