1,3
q = 0.0, confidence = 1.0

 59 63  0  0  0  0  0  0  0  0999 V2000
    0.1816   -1.7081   -1.9003 S   0  0  0  0  0  1  0  0  0  0  0  0
    1.4443   -0.8722   -0.5564 P   0  0  0  0  0  4  0  0  0  0  0  0
   -0.9164    0.7735   -0.0097 P   0  0  0  0  0  0  0  0  0  0  0  0
    0.8574    0.7118   -0.1774 N   0  0  0  0  0  0  0  0  0  0  0  0
    1.6394   -1.8610    0.9656 C   0  0  0  0  0  0  0  0  0  0  0  0
    0.6816   -2.8461    1.2874 C   0  0  0  0  0  0  0  0  0  0  0  0
    0.7899   -3.5463    2.4978 C   0  0  0  0  0  0  0  0  0  0  0  0
    1.8494   -3.2827    3.3804 C   0  0  0  0  0  0  0  0  0  0  0  0
    2.8168   -2.3199    3.0490 C   0  0  0  0  0  0  0  0  0  0  0  0
    2.7164   -1.6076    1.8455 C   0  0  0  0  0  0  0  0  0  0  0  0
    3.0792   -0.6450   -1.3082 C   0  0  0  0  0  0  0  0  0  0  0  0
    4.1088   -1.5857   -1.0992 C   0  0  0  0  0  0  0  0  0  0  0  0
    5.3194   -1.4598   -1.7962 C   0  0  0  0  0  0  0  0  0  0  0  0
    5.5046   -0.4070   -2.7055 C   0  0  0  0  0  0  0  0  0  0  0  0
    4.4712    0.5172   -2.9315 C   0  0  0  0  0  0  0  0  0  0  0  0
    3.2583    0.3966   -2.2425 C   0  0  0  0  0  0  0  0  0  0  0  0
    1.6752    1.7128    0.4557 C   0  0  0  0  0  0  0  0  0  0  0  0
    2.0414    2.8692   -0.2618 C   0  0  0  0  0  0  0  0  0  0  0  0
    2.8013    3.8718    0.3576 C   0  0  0  0  0  0  0  0  0  0  0  0
    3.2048    3.7295    1.6949 C   0  0  0  0  0  0  0  0  0  0  0  0
    2.8252    2.5882    2.4185 C   0  0  0  0  0  0  0  0  0  0  0  0
    2.0529    1.5900    1.8087 C   0  0  0  0  0  0  0  0  0  0  0  0
   -1.4128    2.1770   -1.0582 C   0  0  0  0  0  0  0  0  0  0  0  0
   -0.7827    2.3627   -2.3057 C   0  0  0  0  0  0  0  0  0  0  0  0
   -1.2490    3.3479   -3.1858 C   0  0  0  0  0  0  0  0  0  0  0  0
   -2.3572    4.1374   -2.8346 C   0  0  0  0  0  0  0  0  0  0  0  0
   -3.0096    3.9259   -1.6097 C   0  0  0  0  0  0  0  0  0  0  0  0
   -2.5473    2.9434   -0.7216 C   0  0  0  0  0  0  0  0  0  0  0  0
   -1.1186    1.2898    1.7294 C   0  0  0  0  0  0  0  0  0  0  0  0
   -0.9431    2.6288    2.1328 C   0  0  0  0  0  0  0  0  0  0  0  0
   -0.9635    2.9558    3.4970 C   0  0  0  0  0  0  0  0  0  0  0  0
   -1.1454    1.9496    4.4585 C   0  0  0  0  0  0  0  0  0  0  0  0
   -1.3164    0.6136    4.0570 C   0  0  0  0  0  0  0  0  0  0  0  0
   -1.3103    0.2806    2.6961 C   0  0  0  0  0  0  0  0  0  0  0  0
   -0.1523   -3.0604    0.5983 H   0  0  0  0  0  0  0  0  0  0  0  0
    0.0358   -4.3082    2.7449 H   0  0  0  0  0  0  0  0  0  0  0  0
    1.9286   -3.8371    4.3279 H   0  0  0  0  0  0  0  0  0  0  0  0
    3.6568   -2.1200    3.7312 H   0  0  0  0  0  0  0  0  0  0  0  0
    3.4774   -0.8544    1.5938 H   0  0  0  0  0  0  0  0  0  0  0  0
    3.9627   -2.4207   -0.3990 H   0  0  0  0  0  0  0  0  0  0  0  0
    6.1210   -2.1947   -1.6298 H   0  0  0  0  0  0  0  0  0  0  0  0
    6.4566   -0.3110   -3.2490 H   0  0  0  0  0  0  0  0  0  0  0  0
    4.6087    1.3353   -3.6542 H   0  0  0  0  0  0  0  0  0  0  0  0
    2.4410    1.1056   -2.4315 H   0  0  0  0  0  0  0  0  0  0  0  0
    1.7072    2.9855   -1.3013 H   0  0  0  0  0  0  0  0  0  0  0  0
    3.0795    4.7715   -0.2116 H   0  0  0  0  0  0  0  0  0  0  0  0
    3.8043    4.5161    2.1771 H   0  0  0  0  0  0  0  0  0  0  0  0
    3.1119    2.4813    3.4755 H   0  0  0  0  0  0  0  0  0  0  0  0
    1.7055    0.7248    2.3883 H   0  0  0  0  0  0  0  0  0  0  0  0
    0.0552    1.7079   -2.5897 H   0  0  0  0  0  0  0  0  0  0  0  0
   -0.7541    3.4916   -4.1582 H   0  0  0  0  0  0  0  0  0  0  0  0
   -2.7247    4.9089   -3.5279 H   0  0  0  0  0  0  0  0  0  0  0  0
   -3.8942    4.5243   -1.3447 H   0  0  0  0  0  0  0  0  0  0  0  0
   -3.0798    2.7502    0.2212 H   0  0  0  0  0  0  0  0  0  0  0  0
   -0.7751    3.4155    1.3826 H   0  0  0  0  0  0  0  0  0  0  0  0
   -0.8270    4.0022    3.8086 H   0  0  0  0  0  0  0  0  0  0  0  0
   -1.1588    2.2082    5.5285 H   0  0  0  0  0  0  0  0  0  0  0  0
   -1.4691   -0.1751    4.8089 H   0  0  0  0  0  0  0  0  0  0  0  0
   -1.4656   -0.7574    2.3663 H   0  0  0  0  0  0  0  0  0  0  0  0
  1  2  1  0  0  0  0
  2  4  1  0  0  0  0
  2  5  1  0  0  0  0
  3 29  1  0  0  0  0
  4  3  1  0  0  0  0
  4 17  1  0  0  0  0
  5  6  2  0  0  0  0
  5 10  1  0  0  0  0
  6  7  1  0  0  0  0
  7 36  1  0  0  0  0
  7  8  2  0  0  0  0
  8 37  1  0  0  0  0
  9  8  1  0  0  0  0
  9 38  1  0  0  0  0
 10  9  2  0  0  0  0
 11 12  1  0  0  0  0
 11  2  1  0  0  0  0
 12 40  1  0  0  0  0
 13 41  1  0  0  0  0
 13 12  2  0  0  0  0
 14 13  1  0  0  0  0
 15 14  2  0  0  0  0
 15 16  1  0  0  0  0
 16 11  2  0  0  0  0
 17 22  1  0  0  0  0
 18 19  1  0  0  0  0
 18 17  2  0  0  0  0
 19 20  2  0  0  0  0
 20 47  1  0  0  0  0
 20 21  1  0  0  0  0
 21 48  1  0  0  0  0
 22 49  1  0  0  0  0
 22 21  2  0  0  0  0
 23 28  1  0  0  0  0
 23  3  1  0  0  0  0
 24 23  2  0  0  0  0
 25 26  2  0  0  0  0
 25 24  1  0  0  0  0
 26 27  1  0  0  0  0
 27 53  1  0  0  0  0
 27 28  2  0  0  0  0
 28 54  1  0  0  0  0
 29 30  2  0  0  0  0
 29 34  1  0  0  0  0
 30 31  1  0  0  0  0
 31 56  1  0  0  0  0
 31 32  2  0  0  0  0
 32 57  1  0  0  0  0
 33 32  1  0  0  0  0
 33 58  1  0  0  0  0
 34 33  2  0  0  0  0
 35  6  1  0  0  0  0
 39 10  1  0  0  0  0
 42 14  1  0  0  0  0
 43 15  1  0  0  0  0
 44 16  1  0  0  0  0
 45 18  1  0  0  0  0
 46 19  1  0  0  0  0
 50 24  1  0  0  0  0
 51 25  1  0  0  0  0
 52 26  1  0  0  0  0
 55 30  1  0  0  0  0
 59 34  1  0  0  0  0
M  END
