1,3
q = -1.0, confidence = 0.0

 42 43  0  0  0  0  0  0  0  0999 V2000
   -0.2921   -0.4071   -2.1650 S   0  0  0  0  0  1  0  0  0  0  0  0
   -2.0764   -0.2737   -1.9660 C   0  0  0  0  0  0  0  0  0  0  0  0
   -2.1406    0.2721   -0.2076 P   0  0  0  0  0  0  0  0  0  0  0  0
   -2.8117    2.0030   -0.1953 C   0  0  0  0  0  0  0  0  0  0  0  0
   -3.0220    2.4947    1.2483 C   0  0  0  0  0  0  0  0  0  0  0  0
   -3.4824    3.9595    1.2780 C   0  0  0  0  0  0  0  0  0  0  0  0
   -2.5173    4.8731    0.5130 C   0  0  0  0  0  0  0  0  0  0  0  0
   -2.3177    4.3844   -0.9269 C   0  0  0  0  0  0  0  0  0  0  0  0
   -1.8452    2.9259   -0.9609 C   0  0  0  0  0  0  0  0  0  0  0  0
   -3.7869    1.9674   -0.7317 H   0  0  0  0  0  0  0  0  0  0  0  0
   -1.7205    2.5718   -2.0048 H   0  0  0  0  0  0  0  0  0  0  0  0
   -0.8412    2.8456   -0.4857 H   0  0  0  0  0  0  0  0  0  0  0  0
   -1.5876    5.0281   -1.4607 H   0  0  0  0  0  0  0  0  0  0  0  0
   -3.2783    4.4727   -1.4829 H   0  0  0  0  0  0  0  0  0  0  0  0
   -1.5334    4.8804    1.0338 H   0  0  0  0  0  0  0  0  0  0  0  0
   -2.8859    5.9203    0.5225 H   0  0  0  0  0  0  0  0  0  0  0  0
   -3.5901    4.2974    2.3300 H   0  0  0  0  0  0  0  0  0  0  0  0
   -4.4949    4.0315    0.8203 H   0  0  0  0  0  0  0  0  0  0  0  0
   -2.0610    2.3923    1.8020 H   0  0  0  0  0  0  0  0  0  0  0  0
   -3.7613    1.8557    1.7749 H   0  0  0  0  0  0  0  0  0  0  0  0
   -3.3210   -0.8230    0.7112 C   0  0  0  0  0  0  0  0  0  0  0  0
   -4.7652   -0.7476    0.1854 C   0  0  0  0  0  0  0  0  0  0  0  0
   -5.6790   -1.7283    0.9353 C   0  0  0  0  0  0  0  0  0  0  0  0
   -5.1316   -3.1606    0.8923 C   0  0  0  0  0  0  0  0  0  0  0  0
   -3.7011   -3.2236    1.4426 C   0  0  0  0  0  0  0  0  0  0  0  0
   -2.7701   -2.2622    0.6936 C   0  0  0  0  0  0  0  0  0  0  0  0
   -3.2843   -0.4558    1.7635 H   0  0  0  0  0  0  0  0  0  0  0  0
   -1.7490   -2.2689    1.1302 H   0  0  0  0  0  0  0  0  0  0  0  0
   -2.6651   -2.5955   -0.3629 H   0  0  0  0  0  0  0  0  0  0  0  0
   -3.3029   -4.2581    1.3820 H   0  0  0  0  0  0  0  0  0  0  0  0
   -3.7112   -2.9544    2.5229 H   0  0  0  0  0  0  0  0  0  0  0  0
   -5.1329   -3.5194   -0.1616 H   0  0  0  0  0  0  0  0  0  0  0  0
   -5.7962   -3.8463    1.4586 H   0  0  0  0  0  0  0  0  0  0  0  0
   -6.7028   -1.6886    0.5077 H   0  0  0  0  0  0  0  0  0  0  0  0
   -5.7704   -1.4057    1.9974 H   0  0  0  0  0  0  0  0  0  0  0  0
   -4.7546   -0.9776   -0.9020 H   0  0  0  0  0  0  0  0  0  0  0  0
   -5.1572    0.2866    0.2825 H   0  0  0  0  0  0  0  0  0  0  0  0
   -3.0504   -0.5035   -2.7602 N   0  0  0  0  0  0  0  0  0  0  0  0
   -2.7667   -0.9682   -4.1022 C   0  0  0  0  0  0  0  0  0  0  0  0
   -1.8740   -1.6354   -4.1493 H   0  0  0  0  0  0  0  0  0  0  0  0
   -2.5595   -0.1037   -4.7730 H   0  0  0  0  0  0  0  0  0  0  0  0
   -3.6456   -1.5025   -4.5151 H   0  0  0  0  0  0  0  0  0  0  0  0
  1  2  1  0  0  0  0
  2  3  1  0  0  0  0
  3  4  1  0  0  0  0
  3 21  1  0  0  0  0
  4  5  1  0  0  0  0
  5  6  1  0  0  0  0
  5 20  1  0  0  0  0
  5 19  1  0  0  0  0
  6 17  1  0  0  0  0
  7 16  1  0  0  0  0
  7 15  1  0  0  0  0
  7  6  1  0  0  0  0
  8  7  1  0  0  0  0
  9  8  1  0  0  0  0
  9 12  1  0  0  0  0
  9  4  1  0  0  0  0
 10  4  1  0  0  0  0
 11  9  1  0  0  0  0
 13  8  1  0  0  0  0
 14  8  1  0  0  0  0
 18  6  1  0  0  0  0
 21 27  1  0  0  0  0
 22 37  1  0  0  0  0
 22 21  1  0  0  0  0
 22 23  1  0  0  0  0
 23 35  1  0  0  0  0
 24 23  1  0  0  0  0
 24 25  1  0  0  0  0
 24 33  1  0  0  0  0
 25 31  1  0  0  0  0
 26 21  1  0  0  0  0
 26 28  1  0  0  0  0
 26 25  1  0  0  0  0
 29 26  1  0  0  0  0
 30 25  1  0  0  0  0
 32 24  1  0  0  0  0
 34 23  1  0  0  0  0
 36 22  1  0  0  0  0
 38  2  2  0  0  0  0
 39 38  1  0  0  0  0
 40 39  1  0  0  0  0
 41 39  1  0  0  0  0
 42 39  1  0  0  0  0
M  END
