1,3
q = -1.0, confidence = 0.004

 49 52  0  0  0  0  0  0  0  0999 V2000
    0.8899   -1.4648    0.3394 P   0  0  0  0  0  0  0  0  0  0  0  0
    2.8668    0.6145    0.6300 P   0  0  0  0  0  4  0  0  0  0  0  0
    1.5068    1.6807   -0.5491 S   0  0  0  0  0  1  0  0  0  0  0  0
    2.1028   -0.7545    1.3773 C   0  0  0  0  0  3  0  0  0  0  0  0
    1.6130   -2.2285   -1.1736 C   0  0  0  0  0  0  0  0  0  0  0  0
    2.7955   -2.9860   -1.0401 C   0  0  0  0  0  0  0  0  0  0  0  0
    3.4379   -3.4931   -2.1764 C   0  0  0  0  0  0  0  0  0  0  0  0
    2.9127   -3.2351   -3.4544 C   0  0  0  0  0  0  0  0  0  0  0  0
    1.7425   -2.4728   -3.5916 C   0  0  0  0  0  0  0  0  0  0  0  0
    1.0908   -1.9689   -2.4548 C   0  0  0  0  0  0  0  0  0  0  0  0
    0.0064   -2.7925    1.2192 C   0  0  0  0  0  0  0  0  0  0  0  0
   -0.3011   -4.0085    0.5787 C   0  0  0  0  0  0  0  0  0  0  0  0
   -1.1394   -4.9377    1.2132 C   0  0  0  0  0  0  0  0  0  0  0  0
   -1.6717   -4.6568    2.4811 C   0  0  0  0  0  0  0  0  0  0  0  0
   -1.3558   -3.4477    3.1249 C   0  0  0  0  0  0  0  0  0  0  0  0
   -0.5206   -2.5139    2.4977 C   0  0  0  0  0  0  0  0  0  0  0  0
    3.5807    1.7141    1.8963 C   0  0  0  0  0  0  0  0  0  0  0  0
    2.9912    1.7364    3.1750 C   0  0  0  0  0  0  0  0  0  0  0  0
    3.4774    2.6206    4.1483 C   0  0  0  0  0  0  0  0  0  0  0  0
    4.5398    3.4876    3.8440 C   0  0  0  0  0  0  0  0  0  0  0  0
    5.1196    3.4721    2.5644 C   0  0  0  0  0  0  0  0  0  0  0  0
    4.6430    2.5871    1.5872 C   0  0  0  0  0  0  0  0  0  0  0  0
    4.2706    0.1523   -0.4677 C   0  0  0  0  0  0  0  0  0  0  0  0
    5.4365   -0.3817    0.1231 C   0  0  0  0  0  0  0  0  0  0  0  0
    6.4537   -0.9073   -0.6850 C   0  0  0  0  0  0  0  0  0  0  0  0
    6.3124   -0.9112   -2.0836 C   0  0  0  0  0  0  0  0  0  0  0  0
    5.1538   -0.3810   -2.6710 C   0  0  0  0  0  0  0  0  0  0  0  0
    4.1349    0.1534   -1.8682 C   0  0  0  0  0  0  0  0  0  0  0  0
    2.7292   -1.3947    2.0215 H   0  0  0  0  0  0  0  0  0  0  0  0
    3.2265   -3.1542   -0.0406 H   0  0  0  0  0  0  0  0  0  0  0  0
    4.3638   -4.0774   -2.0660 H   0  0  0  0  0  0  0  0  0  0  0  0
    3.4250   -3.6233   -4.3479 H   0  0  0  0  0  0  0  0  0  0  0  0
    1.3326   -2.2630   -4.5912 H   0  0  0  0  0  0  0  0  0  0  0  0
    0.1751   -1.3692   -2.5631 H   0  0  0  0  0  0  0  0  0  0  0  0
    0.0956   -4.2157   -0.4258 H   0  0  0  0  0  0  0  0  0  0  0  0
   -1.3885   -5.8817    0.7060 H   0  0  0  0  0  0  0  0  0  0  0  0
   -2.3413   -5.3807    2.9696 H   0  0  0  0  0  0  0  0  0  0  0  0
   -1.7759   -3.2245    4.1172 H   0  0  0  0  0  0  0  0  0  0  0  0
   -0.2864   -1.5536    2.9831 H   0  0  0  0  0  0  0  0  0  0  0  0
    2.1517    1.0552    3.3856 H   0  0  0  0  0  0  0  0  0  0  0  0
    3.0208    2.6369    5.1494 H   0  0  0  0  0  0  0  0  0  0  0  0
    4.9171    4.1837    4.6086 H   0  0  0  0  0  0  0  0  0  0  0  0
    5.9492    4.1547    2.3258 H   0  0  0  0  0  0  0  0  0  0  0  0
    5.0967    2.5707    0.5845 H   0  0  0  0  0  0  0  0  0  0  0  0
    5.5482   -0.3883    1.2191 H   0  0  0  0  0  0  0  0  0  0  0  0
    7.3629   -1.3183   -0.2201 H   0  0  0  0  0  0  0  0  0  0  0  0
    7.1108   -1.3288   -2.7156 H   0  0  0  0  0  0  0  0  0  0  0  0
    5.0360   -0.3850   -3.7650 H   0  0  0  0  0  0  0  0  0  0  0  0
    3.2182    0.5651   -2.3170 H   0  0  0  0  0  0  0  0  0  0  0  0
  1 11  1  0  0  0  0
  1  4  1  0  0  0  0
  2  4  1  0  0  0  0
  2 17  1  0  0  0  0
  3  2  1  0  0  0  0
  4 29  1  0  0  0  0
  5  6  1  0  0  0  0
  5  1  1  0  0  0  0
  6 30  1  0  0  0  0
  7 31  1  0  0  0  0
  7  6  2  0  0  0  0
  8  7  1  0  0  0  0
  9  8  2  0  0  0  0
  9 10  1  0  0  0  0
 10  5  2  0  0  0  0
 11 16  1  0  0  0  0
 12 13  1  0  0  0  0
 12 11  2  0  0  0  0
 13 14  2  0  0  0  0
 14 37  1  0  0  0  0
 14 15  1  0  0  0  0
 15 38  1  0  0  0  0
 16 39  1  0  0  0  0
 16 15  2  0  0  0  0
 17 18  1  0  0  0  0
 18 40  1  0  0  0  0
 18 19  2  0  0  0  0
 19 41  1  0  0  0  0
 20 19  1  0  0  0  0
 20 42  1  0  0  0  0
 21 20  2  0  0  0  0
 22 17  2  0  0  0  0
 22 21  1  0  0  0  0
 23 24  1  0  0  0  0
 23  2  1  0  0  0  0
 24 45  1  0  0  0  0
 25 46  1  0  0  0  0
 25 24  2  0  0  0  0
 26 25  1  0  0  0  0
 27 26  2  0  0  0  0
 27 28  1  0  0  0  0
 28 23  2  0  0  0  0
 32  8  1  0  0  0  0
 33  9  1  0  0  0  0
 34 10  1  0  0  0  0
 35 12  1  0  0  0  0
 36 13  1  0  0  0  0
 43 21  1  0  0  0  0
 44 22  1  0  0  0  0
 47 26  1  0  0  0  0
 48 27  1  0  0  0  0
 49 28  1  0  0  0  0
M  END
