1,2
q = 0.0, confidence = 0.998

 67 72  0  0  1  0  0  0  0  0999 V2000
    1.6761   -1.8221   -1.7050 S   0  0  0  0  0  1  0  0  0  0  0  0
    1.0080    0.2375    0.9470 P   0  0  0  0  0  0  0  0  0  0  0  0
    1.9882    0.1387   -3.5140 N   0  0  0  0  0  0  0  0  0  0  0  0
   -0.0065    0.1543   -2.4808 O   0  0  0  0  0  0  0  0  0  0  0  0
   -1.0920   -0.5260   -1.9045 C   0  0  0  0  0  0  0  0  0  0  0  0
   -1.5460   -1.7332   -2.4846 C   0  0  0  0  0  0  0  0  0  0  0  0
   -1.0180   -2.1534   -3.3508 H   0  0  0  0  0  0  0  0  0  0  0  0
   -2.5999   -2.4025   -1.8915 C   0  0  0  0  0  0  0  0  0  0  0  0
   -2.9355   -3.3673   -2.2974 H   0  0  0  0  0  0  0  0  0  0  0  0
   -3.2395   -1.8809   -0.7306 C   0  0  0  0  0  0  0  0  0  0  0  0
   -4.2912   -2.5853   -0.0786 C   0  0  0  0  0  0  0  0  0  0  0  0
   -4.6032   -3.5582   -0.4877 H   0  0  0  0  0  0  0  0  0  0  0  0
   -4.8967   -2.0692    1.0564 C   0  0  0  0  0  0  0  0  0  0  0  0
   -5.7000   -2.6301    1.5570 H   0  0  0  0  0  0  0  0  0  0  0  0
   -4.4712   -0.8231    1.5851 C   0  0  0  0  0  0  0  0  0  0  0  0
   -4.9468   -0.4254    2.4942 H   0  0  0  0  0  0  0  0  0  0  0  0
   -3.4475   -0.1126    0.9771 C   0  0  0  0  0  0  0  0  0  0  0  0
   -3.1082    0.8425    1.4030 H   0  0  0  0  0  0  0  0  0  0  0  0
   -2.8044   -0.6179   -0.1890 C   0  0  0  0  0  0  0  0  0  0  0  0
   -1.7019    0.0679   -0.8049 C   0  0  0  0  0  0  0  0  0  0  0  0
   -1.2747    1.4097   -0.3107 C   0  0  0  0  0  0  0  0  0  0  0  0
   -2.0995    2.5424   -0.6603 C   0  0  0  0  0  0  0  0  0  0  0  0
   -3.2360    2.4117   -1.5139 C   0  0  0  0  0  0  0  0  0  0  0  0
   -3.4893    1.4191   -1.9118 H   0  0  0  0  0  0  0  0  0  0  0  0
   -4.0135    3.5131   -1.8412 C   0  0  0  0  0  0  0  0  0  0  0  0
   -4.8847    3.3894   -2.5021 H   0  0  0  0  0  0  0  0  0  0  0  0
   -3.6951    4.7979   -1.3284 C   0  0  0  0  0  0  0  0  0  0  0  0
   -4.3217    5.6635   -1.5918 H   0  0  0  0  0  0  0  0  0  0  0  0
   -2.5966    4.9603   -0.4979 C   0  0  0  0  0  0  0  0  0  0  0  0
   -2.3401    5.9525   -0.0952 H   0  0  0  0  0  0  0  0  0  0  0  0
   -1.7754    3.8499   -0.1468 C   0  0  0  0  0  0  0  0  0  0  0  0
   -0.6427    3.9947    0.7057 C   0  0  0  0  0  0  0  0  0  0  0  0
   -0.4055    4.9889    1.1150 H   0  0  0  0  0  0  0  0  0  0  0  0
    0.1452    2.9051    1.0199 C   0  0  0  0  0  0  0  0  0  0  0  0
    1.0101    3.0270    1.6886 H   0  0  0  0  0  0  0  0  0  0  0  0
   -0.1517    1.6050    0.5012 C   0  0  0  0  0  0  0  0  0  0  0  0
    1.1923   -0.4544   -2.5969 C   0  0  1  0  0  3  0  0  0  0  0  0
    1.5086    1.1870   -4.4063 C   0  0  0  0  0  0  0  0  0  0  0  0
    0.4130    1.2796   -4.3352 H   0  0  0  0  0  0  0  0  0  0  0  0
    1.7934    0.9458   -5.4511 H   0  0  0  0  0  0  0  0  0  0  0  0
    1.9692    2.1608   -4.1323 H   0  0  0  0  0  0  0  0  0  0  0  0
    3.3844   -0.2406   -3.6630 C   0  0  0  0  0  0  0  0  0  0  0  0
    3.7358   -0.7271   -2.7350 H   0  0  0  0  0  0  0  0  0  0  0  0
    3.9866    0.6708   -3.8473 H   0  0  0  0  0  0  0  0  0  0  0  0
    3.5194   -0.9437   -4.5128 H   0  0  0  0  0  0  0  0  0  0  0  0
    2.6052    0.7556    0.1733 C   0  0  0  0  0  0  0  0  0  0  0  0
    2.7586    1.9178   -0.6061 C   0  0  0  0  0  0  0  0  0  0  0  0
    1.8998    2.5820   -0.7792 H   0  0  0  0  0  0  0  0  0  0  0  0
    4.0095    2.2359   -1.1633 C   0  0  0  0  0  0  0  0  0  0  0  0
    4.1185    3.1523   -1.7641 H   0  0  0  0  0  0  0  0  0  0  0  0
    5.1150    1.4000   -0.9467 C   0  0  0  0  0  0  0  0  0  0  0  0
    6.0959    1.6573   -1.3749 H   0  0  0  0  0  0  0  0  0  0  0  0
    4.9620    0.2252   -0.1901 C   0  0  0  0  0  0  0  0  0  0  0  0
    5.8189   -0.4467   -0.0307 H   0  0  0  0  0  0  0  0  0  0  0  0
    3.7126   -0.1045    0.3523 C   0  0  0  0  0  0  0  0  0  0  0  0
    3.5830   -1.0465    0.9088 H   0  0  0  0  0  0  0  0  0  0  0  0
    1.2674    0.5901    2.7382 C   0  0  0  0  0  0  0  0  0  0  0  0
    2.5377    0.8184    3.3004 C   0  0  0  0  0  0  0  0  0  0  0  0
    3.4375    0.8001    2.6699 H   0  0  0  0  0  0  0  0  0  0  0  0
    2.6629    1.0862    4.6733 C   0  0  0  0  0  0  0  0  0  0  0  0
    3.6610    1.2635    5.1021 H   0  0  0  0  0  0  0  0  0  0  0  0
    1.5242    1.1323    5.4905 C   0  0  0  0  0  0  0  0  0  0  0  0
    1.6247    1.3422    6.5663 H   0  0  0  0  0  0  0  0  0  0  0  0
    0.2551    0.9113    4.9310 C   0  0  0  0  0  0  0  0  0  0  0  0
   -0.6427    0.9428    5.5666 H   0  0  0  0  0  0  0  0  0  0  0  0
    0.1217    0.6365    3.5641 C   0  0  0  0  0  0  0  0  0  0  0  0
   -0.8695    0.4416    3.1327 H   0  0  0  0  0  0  0  0  0  0  0  0
  2 57  1  0  0  0  0
  3 37  1  0  0  0  0
  4  5  1  0  0  0  0
  5 20  1  0  0  0  0
  6  5  2  0  0  0  0
  6  8  1  0  0  0  0
  7  6  1  0  0  0  0
  8 10  2  0  0  0  0
  9  8  1  0  0  0  0
 10 19  1  0  0  0  0
 10 11  1  0  0  0  0
 11 13  2  0  0  0  0
 12 11  1  0  0  0  0
 13 14  1  0  0  0  0
 13 15  1  0  0  0  0
 15 16  1  0  0  0  0
 17 18  1  0  0  0  0
 17 15  2  0  0  0  0
 19 17  1  0  0  0  0
 20 21  1  0  0  0  0
 20 19  2  0  0  0  0
 21 36  1  0  0  0  0
 22 21  2  0  0  0  0
 22 31  1  0  0  0  0
 23 22  1  0  0  0  0
 24 23  1  0  0  0  0
 25 23  2  0  0  0  0
 25 27  1  0  0  0  0
 26 25  1  0  0  0  0
 27 29  2  0  0  0  0
 28 27  1  0  0  0  0
 29 31  1  0  0  0  0
 29 30  1  0  0  0  0
 31 32  2  0  0  0  0
 32 34  1  0  0  0  0
 32 33  1  0  0  0  0
 34 35  1  0  0  0  0
 36  2  1  0  0  0  0
 36 34  2  0  0  0  0
 37  4  1  0  0  0  0
 37  1  1  6  0  0  0
 38 39  1  0  0  0  0
 38 41  1  0  0  0  0
 38  3  1  0  0  0  0
 40 38  1  0  0  0  0
 42  3  1  0  0  0  0
 42 43  1  0  0  0  0
 44 42  1  0  0  0  0
 45 42  1  0  0  0  0
 46 55  1  0  0  0  0
 46  2  1  0  0  0  0
 47 46  2  0  0  0  0
 48 47  1  0  0  0  0
 49 51  2  0  0  0  0
 49 47  1  0  0  0  0
 50 49  1  0  0  0  0
 51 53  1  0  0  0  0
 52 51  1  0  0  0  0
 53 54  1  0  0  0  0
 53 55  2  0  0  0  0
 55 56  1  0  0  0  0
 57 58  2  0  0  0  0
 57 66  1  0  0  0  0
 58 60  1  0  0  0  0
 59 58  1  0  0  0  0
 60 61  1  0  0  0  0
 60 62  2  0  0  0  0
 62 63  1  0  0  0  0
 64 62  1  0  0  0  0
 64 65  1  0  0  0  0
 66 64  2  0  0  0  0
 67 66  1  0  0  0  0
M  END
