1,2
q = -1.0, confidence = 0.004

 49 50  0  0  1  0  0  0  0  0999 V2000
    0.9072    1.8425   -0.7495 S   0  0  0  0  0  0  0  0  0  0  0  0
    1.9085   -1.0355    0.4778 P   0  0  0  0  0  0  0  0  0  0  0  0
    3.6416    1.9885   -1.4589 C   0  0  0  0  0  0  0  0  0  0  0  0
    3.5527    2.8917   -2.0742 H   0  0  0  0  0  0  0  0  0  0  0  0
    2.6096    1.3590   -0.7427 C   0  0  2  0  0  3  0  0  0  0  0  0
    3.0895    0.1705   -0.0808 C   0  0  0  0  0  0  0  0  0  0  0  0
    4.4834    0.0543   -0.4347 C   0  0  0  0  0  0  0  0  0  0  0  0
    5.4895   -0.9103   -0.1698 C   0  0  0  0  0  0  0  0  0  0  0  0
    5.2710   -1.7980    0.4403 H   0  0  0  0  0  0  0  0  0  0  0  0
    6.7773   -0.7353   -0.6806 C   0  0  0  0  0  0  0  0  0  0  0  0
    7.5507   -1.4900   -0.4677 H   0  0  0  0  0  0  0  0  0  0  0  0
    7.1069    0.4009   -1.4653 C   0  0  0  0  0  0  0  0  0  0  0  0
    8.1328    0.5177   -1.8480 H   0  0  0  0  0  0  0  0  0  0  0  0
    6.1407    1.3627   -1.7575 C   0  0  0  0  0  0  0  0  0  0  0  0
    6.3932    2.2402   -2.3745 H   0  0  0  0  0  0  0  0  0  0  0  0
    4.8208    1.2043   -1.2673 C   0  0  0  0  0  0  0  0  0  0  0  0
    2.2003   -1.6251    2.2366 C   0  0  0  0  0  0  0  0  0  0  0  0
    1.4139   -2.4000    2.3757 H   0  0  0  0  0  0  0  0  0  0  0  0
    1.9289   -0.4799    3.2155 C   0  0  0  0  0  0  0  0  0  0  0  0
    0.9078   -0.0713    3.0804 H   0  0  0  0  0  0  0  0  0  0  0  0
    2.6500    0.3477    3.0581 H   0  0  0  0  0  0  0  0  0  0  0  0
    2.0337   -0.8333    4.2625 H   0  0  0  0  0  0  0  0  0  0  0  0
    3.5733   -2.2561    2.4783 C   0  0  0  0  0  0  0  0  0  0  0  0
    3.7924   -3.0907    1.7832 H   0  0  0  0  0  0  0  0  0  0  0  0
    3.6253   -2.6618    3.5106 H   0  0  0  0  0  0  0  0  0  0  0  0
    4.3775   -1.5015    2.3740 H   0  0  0  0  0  0  0  0  0  0  0  0
    2.2420   -2.5291   -0.6180 C   0  0  0  0  0  0  0  0  0  0  0  0
    3.3437   -2.6508   -0.5267 H   0  0  0  0  0  0  0  0  0  0  0  0
    1.5667   -3.8406   -0.2101 C   0  0  0  0  0  0  0  0  0  0  0  0
    1.7691   -4.1211    0.8427 H   0  0  0  0  0  0  0  0  0  0  0  0
    1.9431   -4.6681   -0.8479 H   0  0  0  0  0  0  0  0  0  0  0  0
    0.4684   -3.7998   -0.3475 H   0  0  0  0  0  0  0  0  0  0  0  0
    1.9329   -2.1354   -2.0669 C   0  0  0  0  0  0  0  0  0  0  0  0
    2.4988   -1.2314   -2.3658 H   0  0  0  0  0  0  0  0  0  0  0  0
    0.8517   -1.9150   -2.1931 H   0  0  0  0  0  0  0  0  0  0  0  0
    2.2042   -2.9603   -2.7579 H   0  0  0  0  0  0  0  0  0  0  0  0
    0.8377    3.3240    0.4636 C   0  0  0  0  0  0  0  0  0  0  0  0
   -0.6120    3.8111    0.4213 C   0  0  0  0  0  0  0  0  0  0  0  0
   -1.3119    3.0586    0.8272 H   0  0  0  0  0  0  0  0  0  0  0  0
   -0.9269    4.0564   -0.6133 H   0  0  0  0  0  0  0  0  0  0  0  0
   -0.7067    4.7317    1.0345 H   0  0  0  0  0  0  0  0  0  0  0  0
    1.2552    2.8613    1.8544 C   0  0  0  0  0  0  0  0  0  0  0  0
    0.5535    2.0972    2.2430 H   0  0  0  0  0  0  0  0  0  0  0  0
    1.2712    3.7243    2.5540 H   0  0  0  0  0  0  0  0  0  0  0  0
    2.2683    2.4128    1.8279 H   0  0  0  0  0  0  0  0  0  0  0  0
    1.7820    4.4003   -0.0742 C   0  0  0  0  0  0  0  0  0  0  0  0
    2.8314    4.0483   -0.0799 H   0  0  0  0  0  0  0  0  0  0  0  0
    1.7183    5.2964    0.5790 H   0  0  0  0  0  0  0  0  0  0  0  0
    1.5068    4.7042   -1.1042 H   0  0  0  0  0  0  0  0  0  0  0  0
  1 37  1  0  0  0  0
  2 17  1  0  0  0  0
  3 16  2  0  0  0  0
  3  5  1  0  0  0  0
  4  3  1  0  0  0  0
  5  1  1  6  0  0  0
  5  6  1  0  0  0  0
  6  2  1  0  0  0  0
  7  8  1  0  0  0  0
  7  6  2  0  0  0  0
  8  9  1  0  0  0  0
 10 11  1  0  0  0  0
 10  8  2  0  0  0  0
 12 10  1  0  0  0  0
 13 12  1  0  0  0  0
 14 12  2  0  0  0  0
 14 16  1  0  0  0  0
 15 14  1  0  0  0  0
 16  7  1  0  0  0  0
 17 18  1  0  0  0  0
 17 23  1  0  0  0  0
 17 19  1  0  0  0  0
 19 22  1  0  0  0  0
 20 19  1  0  0  0  0
 21 19  1  0  0  0  0
 23 25  1  0  0  0  0
 24 23  1  0  0  0  0
 26 23  1  0  0  0  0
 27 28  1  0  0  0  0
 27 29  1  0  0  0  0
 27  2  1  0  0  0  0
 29 30  1  0  0  0  0
 31 29  1  0  0  0  0
 32 29  1  0  0  0  0
 33 27  1  0  0  0  0
 34 33  1  0  0  0  0
 35 33  1  0  0  0  0
 36 33  1  0  0  0  0
 37 42  1  0  0  0  0
 38 37  1  0  0  0  0
 38 39  1  0  0  0  0
 38 41  1  0  0  0  0
 40 38  1  0  0  0  0
 42 43  1  0  0  0  0
 42 44  1  0  0  0  0
 45 42  1  0  0  0  0
 46 37  1  0  0  0  0
 46 48  1  0  0  0  0
 47 46  1  0  0  0  0
 49 46  1  0  0  0  0
M  END
