1,2
q = 0.0, confidence = 0.996

 66 65  0  0  0  0  0  0  0  0999 V2000
   -1.3141    1.7567   -1.0736 S   0  0  0  0  0  1  0  0  0  0  0  0
    1.1067   -0.7606   -0.0812 P   0  0  0  0  0  0  0  0  0  0  0  0
   -2.0107    0.1017   -0.1743 P   0  0  0  0  0  4  0  0  0  0  0  0
    1.3772   -1.5551    1.4345 N   0  0  0  0  0  0  0  0  0  0  0  0
    1.9359   -1.6093   -1.3227 N   0  0  0  0  0  0  0  0  0  0  0  0
   -2.4113    0.1266    1.4561 N   0  0  0  0  0  0  0  0  0  0  0  0
   -3.4153   -0.4056   -0.9596 N   0  0  0  0  0  0  0  0  0  0  0  0
   -0.7179   -1.2986   -0.4498 C   0  0  0  0  0  0  0  0  0  0  0  0
   -1.1377   -2.4423    0.2101 F   0  0  0  0  0  0  0  0  0  0  0  0
   -0.8901   -1.5398   -1.7928 F   0  0  0  0  0  0  0  0  0  0  0  0
    2.1026   -0.8357    2.4920 C   0  0  0  0  0  0  0  0  0  0  0  0
    1.6318   -1.0788    3.4703 H   0  0  0  0  0  0  0  0  0  0  0  0
    1.9253    0.2426    2.3292 H   0  0  0  0  0  0  0  0  0  0  0  0
    3.6087   -1.0894    2.5520 C   0  0  0  0  0  0  0  0  0  0  0  0
    4.0526   -0.5065    3.3836 H   0  0  0  0  0  0  0  0  0  0  0  0
    4.1053   -0.7585    1.6185 H   0  0  0  0  0  0  0  0  0  0  0  0
    3.8579   -2.1563    2.7241 H   0  0  0  0  0  0  0  0  0  0  0  0
    1.4957   -3.0203    1.4632 C   0  0  0  0  0  0  0  0  0  0  0  0
    2.5429   -3.3337    1.2379 H   0  0  0  0  0  0  0  0  0  0  0  0
    0.8747   -3.4310    0.6491 H   0  0  0  0  0  0  0  0  0  0  0  0
    1.0410   -3.6464    2.7801 C   0  0  0  0  0  0  0  0  0  0  0  0
    1.0907   -4.7512    2.7068 H   0  0  0  0  0  0  0  0  0  0  0  0
   -0.0050   -3.3641    3.0120 H   0  0  0  0  0  0  0  0  0  0  0  0
    1.6775   -3.3449    3.6353 H   0  0  0  0  0  0  0  0  0  0  0  0
    1.5843   -2.9339   -1.8461 C   0  0  0  0  0  0  0  0  0  0  0  0
    0.6190   -3.2483   -1.4119 H   0  0  0  0  0  0  0  0  0  0  0  0
    2.3283   -3.6908   -1.5047 H   0  0  0  0  0  0  0  0  0  0  0  0
    1.4760   -2.9675   -3.3710 C   0  0  0  0  0  0  0  0  0  0  0  0
    1.1570   -3.9743   -3.7085 H   0  0  0  0  0  0  0  0  0  0  0  0
    2.4440   -2.7456   -3.8628 H   0  0  0  0  0  0  0  0  0  0  0  0
    0.7331   -2.2250   -3.7215 H   0  0  0  0  0  0  0  0  0  0  0  0
    3.2699   -1.1125   -1.6941 C   0  0  0  0  0  0  0  0  0  0  0  0
    3.3878   -0.1123   -1.2349 H   0  0  0  0  0  0  0  0  0  0  0  0
    3.3084   -0.9443   -2.7929 H   0  0  0  0  0  0  0  0  0  0  0  0
    4.4299   -2.0092   -1.2582 C   0  0  0  0  0  0  0  0  0  0  0  0
    5.3940   -1.5210   -1.5043 H   0  0  0  0  0  0  0  0  0  0  0  0
    4.4214   -2.9945   -1.7672 H   0  0  0  0  0  0  0  0  0  0  0  0
    4.4095   -2.1885   -0.1644 H   0  0  0  0  0  0  0  0  0  0  0  0
   -1.6427   -0.4901    2.5447 C   0  0  0  0  0  0  0  0  0  0  0  0
   -1.4110    0.2932    3.2961 H   0  0  0  0  0  0  0  0  0  0  0  0
   -0.6605   -0.8238    2.1556 H   0  0  0  0  0  0  0  0  0  0  0  0
   -2.3705   -1.6676    3.1910 C   0  0  0  0  0  0  0  0  0  0  0  0
   -1.7914   -2.0465    4.0575 H   0  0  0  0  0  0  0  0  0  0  0  0
   -2.4916   -2.4989    2.4685 H   0  0  0  0  0  0  0  0  0  0  0  0
   -3.3748   -1.3833    3.5665 H   0  0  0  0  0  0  0  0  0  0  0  0
   -3.4878    1.0612    1.8384 C   0  0  0  0  0  0  0  0  0  0  0  0
   -4.0695    0.5790    2.6540 H   0  0  0  0  0  0  0  0  0  0  0  0
   -4.1833    1.1446    0.9773 H   0  0  0  0  0  0  0  0  0  0  0  0
   -3.0083    2.4501    2.2567 C   0  0  0  0  0  0  0  0  0  0  0  0
   -3.8759    3.0779    2.5436 H   0  0  0  0  0  0  0  0  0  0  0  0
   -2.4764    2.9435    1.4199 H   0  0  0  0  0  0  0  0  0  0  0  0
   -2.3163    2.4091    3.1198 H   0  0  0  0  0  0  0  0  0  0  0  0
   -3.7928    0.1213   -2.2797 C   0  0  0  0  0  0  0  0  0  0  0  0
   -4.1809   -0.7257   -2.8847 H   0  0  0  0  0  0  0  0  0  0  0  0
   -2.8772    0.4756   -2.7917 H   0  0  0  0  0  0  0  0  0  0  0  0
   -4.8186    1.2504   -2.2000 C   0  0  0  0  0  0  0  0  0  0  0  0
   -5.1200    1.5760   -3.2161 H   0  0  0  0  0  0  0  0  0  0  0  0
   -4.3852    2.1247   -1.6745 H   0  0  0  0  0  0  0  0  0  0  0  0
   -5.7366    0.9363   -1.6616 H   0  0  0  0  0  0  0  0  0  0  0  0
   -4.2871   -1.4403   -0.3883 C   0  0  0  0  0  0  0  0  0  0  0  0
   -5.3382   -1.0795   -0.4530 H   0  0  0  0  0  0  0  0  0  0  0  0
   -4.0544   -1.5203    0.6919 H   0  0  0  0  0  0  0  0  0  0  0  0
   -4.1588   -2.8120   -1.0527 C   0  0  0  0  0  0  0  0  0  0  0  0
   -4.8684   -3.5266   -0.5885 H   0  0  0  0  0  0  0  0  0  0  0  0
   -3.1344   -3.2124   -0.9374 H   0  0  0  0  0  0  0  0  0  0  0  0
   -4.3921   -2.7704   -2.1358 H   0  0  0  0  0  0  0  0  0  0  0  0
  1  3  1  0  0  0  0
  2  4  1  0  0  0  0
  3  6  1  0  0  0  0
  4 18  1  0  0  0  0
  4 11  1  0  0  0  0
  5  2  1  0  0  0  0
  6 46  1  0  0  0  0
  6 39  1  0  0  0  0
  7 60  1  0  0  0  0
  7  3  1  0  0  0  0
  8  3  1  0  0  0  0
  8  2  1  0  0  0  0
  8  9  1  0  0  0  0
 10  8  1  0  0  0  0
 11 14  1  0  0  0  0
 11 12  1  0  0  0  0
 13 11  1  0  0  0  0
 14 17  1  0  0  0  0
 14 15  1  0  0  0  0
 16 14  1  0  0  0  0
 18 21  1  0  0  0  0
 19 18  1  0  0  0  0
 20 18  1  0  0  0  0
 21 23  1  0  0  0  0
 21 24  1  0  0  0  0
 22 21  1  0  0  0  0
 25 27  1  0  0  0  0
 25 26  1  0  0  0  0
 25  5  1  0  0  0  0
 28 25  1  0  0  0  0
 29 28  1  0  0  0  0
 30 28  1  0  0  0  0
 31 28  1  0  0  0  0
 32  5  1  0  0  0  0
 32 35  1  0  0  0  0
 32 33  1  0  0  0  0
 34 32  1  0  0  0  0
 35 38  1  0  0  0  0
 36 35  1  0  0  0  0
 37 35  1  0  0  0  0
 39 42  1  0  0  0  0
 39 40  1  0  0  0  0
 41 39  1  0  0  0  0
 42 45  1  0  0  0  0
 42 43  1  0  0  0  0
 44 42  1  0  0  0  0
 46 49  1  0  0  0  0
 46 47  1  0  0  0  0
 48 46  1  0  0  0  0
 49 50  1  0  0  0  0
 49 52  1  0  0  0  0
 51 49  1  0  0  0  0
 53 56  1  0  0  0  0
 53  7  1  0  0  0  0
 54 53  1  0  0  0  0
 55 53  1  0  0  0  0
 56 58  1  0  0  0  0
 56 59  1  0  0  0  0
 57 56  1  0  0  0  0
 60 62  1  0  0  0  0
 61 60  1  0  0  0  0
 63 65  1  0  0  0  0
 63 64  1  0  0  0  0
 63 60  1  0  0  0  0
 66 63  1  0  0  0  0
M  END
