1,3
q = 0.0, confidence = 1.0

 42 44  0  0  0  0  0  0  0  0999 V2000
    1.1249   -2.0902    1.5598 S   0  0  0  0  0  0  0  0  0  0  0  0
    0.5474    4.1217   -0.5769 S   0  0  0  0  0  0  0  0  0  0  0  0
   -1.0765    0.0908    0.6691 P   0  0  0  0  0  0  0  0  0  0  0  0
    2.9204   -1.5767    1.3253 C   0  0  0  0  0  0  0  0  0  0  0  0
    3.3916   -1.6629    2.3244 H   0  0  0  0  0  0  0  0  0  0  0  0
    3.2776   -2.3895    0.6634 H   0  0  0  0  0  0  0  0  0  0  0  0
    3.0487   -0.2201    0.7030 C   0  0  0  0  0  0  0  0  0  0  0  0
    3.2132    0.9493    1.4791 C   0  0  0  0  0  0  0  0  0  0  0  0
    3.4436    0.8648    2.5538 H   0  0  0  0  0  0  0  0  0  0  0  0
    3.0567    2.2193    0.9020 C   0  0  0  0  0  0  0  0  0  0  0  0
    3.1260    3.1201    1.5313 H   0  0  0  0  0  0  0  0  0  0  0  0
    2.7264    2.3491   -0.4640 C   0  0  0  0  0  0  0  0  0  0  0  0
    2.6877    1.1843   -1.2566 C   0  0  0  0  0  0  0  0  0  0  0  0
    2.4698    1.2622   -2.3329 H   0  0  0  0  0  0  0  0  0  0  0  0
    2.8498   -0.0823   -0.6876 C   0  0  0  0  0  0  0  0  0  0  0  0
    2.7620   -0.9850   -1.3128 H   0  0  0  0  0  0  0  0  0  0  0  0
    2.2827    3.6569   -1.0541 C   0  0  0  0  0  0  0  0  0  0  0  0
    2.3541    3.6322   -2.1597 H   0  0  0  0  0  0  0  0  0  0  0  0
    2.8838    4.5132   -0.6870 H   0  0  0  0  0  0  0  0  0  0  0  0
   -0.3570    2.5240   -0.6872 C   0  0  0  0  0  0  0  0  0  0  0  0
   -1.3853    2.7852   -1.0086 H   0  0  0  0  0  0  0  0  0  0  0  0
    0.0642    1.8837   -1.4883 H   0  0  0  0  0  0  0  0  0  0  0  0
   -0.3692    1.7994    0.6601 C   0  0  0  0  0  0  0  0  0  0  0  0
   -0.8984    2.4056    1.4262 H   0  0  0  0  0  0  0  0  0  0  0  0
    0.6699    1.6660    1.0194 H   0  0  0  0  0  0  0  0  0  0  0  0
   -0.9012   -0.4091    2.4639 C   0  0  0  0  0  0  0  0  0  0  0  0
   -1.2362    0.4115    3.1335 H   0  0  0  0  0  0  0  0  0  0  0  0
   -1.5906   -1.2658    2.6143 H   0  0  0  0  0  0  0  0  0  0  0  0
    0.5431   -0.7977    2.7588 C   0  0  0  0  0  0  0  0  0  0  0  0
    0.6589   -1.2189    3.7777 H   0  0  0  0  0  0  0  0  0  0  0  0
    1.2195    0.0753    2.6560 H   0  0  0  0  0  0  0  0  0  0  0  0
   -2.8788    0.2443    0.4104 C   0  0  0  0  0  0  0  0  0  0  0  0
   -3.6110    1.2601    1.0612 C   0  0  0  0  0  0  0  0  0  0  0  0
   -3.1009    1.9970    1.7014 H   0  0  0  0  0  0  0  0  0  0  0  0
   -5.0010    1.3389    0.8946 C   0  0  0  0  0  0  0  0  0  0  0  0
   -5.5682    2.1338    1.4020 H   0  0  0  0  0  0  0  0  0  0  0  0
   -5.6644    0.4073    0.0792 C   0  0  0  0  0  0  0  0  0  0  0  0
   -6.7551    0.4729   -0.0534 H   0  0  0  0  0  0  0  0  0  0  0  0
   -4.9367   -0.6013   -0.5714 C   0  0  0  0  0  0  0  0  0  0  0  0
   -5.4531   -1.3260   -1.2187 H   0  0  0  0  0  0  0  0  0  0  0  0
   -3.5456   -0.6861   -0.4115 C   0  0  0  0  0  0  0  0  0  0  0  0
   -2.9611   -1.4503   -0.9451 H   0  0  0  0  0  0  0  0  0  0  0  0
  1 29  1  0  0  0  0
  3 26  1  0  0  0  0
  4  1  1  0  0  0  0
  4  5  1  0  0  0  0
  6  4  1  0  0  0  0
  7  4  1  0  0  0  0
  7  8  1  0  0  0  0
  8  9  1  0  0  0  0
 10  8  2  0  0  0  0
 10 11  1  0  0  0  0
 12 10  1  0  0  0  0
 13 15  1  0  0  0  0
 13 12  2  0  0  0  0
 14 13  1  0  0  0  0
 15  7  2  0  0  0  0
 16 15  1  0  0  0  0
 17 19  1  0  0  0  0
 17  2  1  0  0  0  0
 17 12  1  0  0  0  0
 18 17  1  0  0  0  0
 20  2  1  0  0  0  0
 20 23  1  0  0  0  0
 21 20  1  0  0  0  0
 22 20  1  0  0  0  0
 23  3  1  0  0  0  0
 23 25  1  0  0  0  0
 23 24  1  0  0  0  0
 26 28  1  0  0  0  0
 26 29  1  0  0  0  0
 26 27  1  0  0  0  0
 29 30  1  0  0  0  0
 31 29  1  0  0  0  0
 32  3  1  0  0  0  0
 32 33  1  0  0  0  0
 33 34  1  0  0  0  0
 35 33  2  0  0  0  0
 35 36  1  0  0  0  0
 37 35  1  0  0  0  0
 38 37  1  0  0  0  0
 39 41  1  0  0  0  0
 39 37  2  0  0  0  0
 40 39  1  0  0  0  0
 41 32  2  0  0  0  0
 42 41  1  0  0  0  0
M  END
