1,2
q = -1.0, confidence = 0.0

 45 46  0  0  1  0  0  0  0  0999 V2000
    0.8226   -1.9409   -1.1904 Se  0  0  0  0  0  1  0  0  0  0  0  0
   -0.9772    0.4454    0.0606 N   0  0  0  0  0  2  0  0  0  0  0  0
   -0.4656   -3.7937    0.5339 N   0  0  0  0  0  0  0  0  0  0  0  0
   -1.6062   -1.8140    0.3661 N   0  0  0  0  0  0  0  0  0  0  0  0
   -0.5562   -2.5285    0.0297 C   0  0  0  0  0  0  0  0  0  0  0  0
   -3.3468   -0.2787   -0.1284 C   0  0  0  0  0  0  0  0  0  0  0  0
   -1.1845    3.9873   -1.0911 C   0  0  0  0  0  0  0  0  0  0  0  0
   -0.7784    4.6084   -1.9055 H   0  0  0  0  0  0  0  0  0  0  0  0
   -0.8504    2.6274   -1.0354 C   0  0  0  0  0  0  0  0  0  0  0  0
   -0.1900    2.1778   -1.7927 H   0  0  0  0  0  0  0  0  0  0  0  0
   -2.0310    4.5753   -0.1309 C   0  0  0  0  0  0  0  0  0  0  0  0
   -1.5012   -4.2738    1.4573 C   0  0  0  0  0  0  0  0  0  0  0  0
   -1.8101   -3.4281    2.1012 H   0  0  0  0  0  0  0  0  0  0  0  0
   -1.0282   -5.0338    2.1130 H   0  0  0  0  0  0  0  0  0  0  0  0
   -2.2052    2.3886    0.9621 C   0  0  0  0  0  0  0  0  0  0  0  0
   -2.5890    1.7623    1.7799 H   0  0  0  0  0  0  0  0  0  0  0  0
    0.6321   -4.7120    0.2301 C   0  0  0  0  0  0  0  0  0  0  0  0
    0.9812   -4.5223   -0.8030 H   0  0  0  0  0  0  0  0  0  0  0  0
    0.2106   -5.7393    0.2390 H   0  0  0  0  0  0  0  0  0  0  0  0
   -3.8003    0.5401   -1.1844 C   0  0  0  0  0  0  0  0  0  0  0  0
   -3.0728    1.0514   -1.8295 H   0  0  0  0  0  0  0  0  0  0  0  0
   -2.5314    3.7456    0.8955 C   0  0  0  0  0  0  0  0  0  0  0  0
   -3.1862    4.1784    1.6690 H   0  0  0  0  0  0  0  0  0  0  0  0
   -4.2954   -0.9471    0.6744 C   0  0  0  0  0  0  0  0  0  0  0  0
   -3.9355   -1.6019    1.4806 H   0  0  0  0  0  0  0  0  0  0  0  0
   -5.6676   -0.7728    0.4498 C   0  0  0  0  0  0  0  0  0  0  0  0
   -6.3967   -1.2868    1.0947 H   0  0  0  0  0  0  0  0  0  0  0  0
   -1.3645    1.8087   -0.0106 C   0  0  0  0  0  0  0  0  0  0  0  0
   -5.1726    0.6944   -1.4205 C   0  0  0  0  0  0  0  0  0  0  0  0
   -5.5118    1.3271   -2.2547 H   0  0  0  0  0  0  0  0  0  0  0  0
   -1.8835   -0.5222    0.1033 C   0  0  1  0  0  3  0  0  0  0  0  0
   -2.7146   -4.8560    0.7329 C   0  0  0  0  0  0  0  0  0  0  0  0
   -3.1969   -4.0751    0.1134 H   0  0  0  0  0  0  0  0  0  0  0  0
   -3.4599   -5.2313    1.4632 H   0  0  0  0  0  0  0  0  0  0  0  0
   -2.4265   -5.7006    0.0742 H   0  0  0  0  0  0  0  0  0  0  0  0
   -6.1110    0.0487   -0.5992 C   0  0  0  0  0  0  0  0  0  0  0  0
   -7.1885    0.1813   -0.7808 H   0  0  0  0  0  0  0  0  0  0  0  0
    1.7990   -4.5903    1.2103 C   0  0  0  0  0  0  0  0  0  0  0  0
    2.2416   -3.5762    1.1461 H   0  0  0  0  0  0  0  0  0  0  0  0
    2.5878   -5.3313    0.9699 H   0  0  0  0  0  0  0  0  0  0  0  0
    1.4709   -4.7664    2.2551 H   0  0  0  0  0  0  0  0  0  0  0  0
   -2.3837    6.0408   -0.1803 C   0  0  0  0  0  0  0  0  0  0  0  0
   -3.4831    6.1947   -0.1843 H   0  0  0  0  0  0  0  0  0  0  0  0
   -1.9700    6.5302   -1.0834 H   0  0  0  0  0  0  0  0  0  0  0  0
   -1.9895    6.5825    0.7058 H   0  0  0  0  0  0  0  0  0  0  0  0
  1  5  1  0  0  0  0
  3 12  1  0  0  0  0
  5  4  2  0  0  0  0
  5  3  1  0  0  0  0
  6 31  1  0  0  0  0
  6 24  1  0  0  0  0
  7  9  2  0  0  0  0
  7 11  1  0  0  0  0
  8  7  1  0  0  0  0
  9 28  1  0  0  0  0
 10  9  1  0  0  0  0
 11 22  2  0  0  0  0
 12 13  1  0  0  0  0
 12 14  1  0  0  0  0
 15 16  1  0  0  0  0
 17 19  1  0  0  0  0
 17  3  1  0  0  0  0
 17 38  1  0  0  0  0
 18 17  1  0  0  0  0
 20  6  2  0  0  0  0
 21 20  1  0  0  0  0
 22 15  1  0  0  0  0
 22 23  1  0  0  0  0
 24 25  1  0  0  0  0
 26 24  2  0  0  0  0
 26 27  1  0  0  0  0
 28  2  1  0  0  0  0
 28 15  2  0  0  0  0
 29 20  1  0  0  0  0
 29 36  2  0  0  0  0
 30 29  1  0  0  0  0
 31  2  1  1  0  0  0
 31  4  1  0  0  0  0
 32 12  1  0  0  0  0
 32 34  1  0  0  0  0
 33 32  1  0  0  0  0
 35 32  1  0  0  0  0
 36 26  1  0  0  0  0
 37 36  1  0  0  0  0
 38 41  1  0  0  0  0
 39 38  1  0  0  0  0
 40 38  1  0  0  0  0
 42 11  1  0  0  0  0
 42 45  1  0  0  0  0
 43 42  1  0  0  0  0
 44 42  1  0  0  0  0
M  END
