1,4
q = -1.0

 27 29  0  0  0  0  0  0  0  0999 V2000
   -2.0129    2.4917    0.2815 Se  0  0  0  0  0  1  0  0  0  0  0  0
    0.9029   -1.3831   -1.8437 C   0  0  0  0  0  0  0  0  0  0  0  0
   -0.5698   -1.3199   -1.6889 C   0  0  0  0  0  0  0  0  0  0  0  0
   -1.1213   -0.2244   -1.1420 N   0  0  0  0  0  2  0  0  0  0  0  0
   -2.7482   -2.3171   -2.0395 C   0  0  0  0  0  0  0  0  0  0  0  0
   -4.7662   -1.0256   -1.3820 C   0  0  0  0  0  3  0  0  0  0  0  0
   -5.3034    0.1286   -0.8262 C   0  0  0  0  0  0  0  0  0  0  0  0
   -1.3736   -2.4069   -2.1357 C   0  0  0  0  0  0  0  0  0  0  0  0
    1.6146   -0.2828   -2.3657 C   0  0  0  0  0  0  0  0  0  0  0  0
   -2.4842   -0.1012   -1.0256 C   0  0  0  0  0  0  0  0  0  0  0  0
   -3.0624    1.0801   -0.4248 C   0  0  0  0  0  0  0  0  0  0  0  0
    1.6103   -2.5540   -1.4892 C   0  0  0  0  0  0  0  0  0  0  0  0
   -3.3560   -1.1558   -1.4902 C   0  0  0  0  0  0  0  0  0  0  0  0
   -4.4622    1.1595   -0.3548 C   0  0  0  0  0  0  0  0  0  0  0  0
    3.0025   -2.6103   -1.6280 C   0  0  0  0  0  0  0  0  0  0  0  0
    3.7045   -1.5058   -2.1396 C   0  0  0  0  0  0  0  0  0  0  0  0
    3.0077   -0.3472   -2.5107 C   0  0  0  0  0  0  0  0  0  0  0  0
   -0.8860   -3.2823   -2.5858 H   0  0  0  0  0  0  0  0  0  0  0  0
   -3.3918   -3.1375   -2.3943 H   0  0  0  0  0  0  0  0  0  0  0  0
   -5.4081   -1.8433   -1.7420 H   0  0  0  0  0  0  0  0  0  0  0  0
   -6.3947    0.2450   -0.7399 H   0  0  0  0  0  0  0  0  0  0  0  0
   -4.9095    2.0575    0.0972 H   0  0  0  0  0  0  0  0  0  0  0  0
    1.0725    0.6239   -2.6686 H   0  0  0  0  0  0  0  0  0  0  0  0
    3.5487    0.5265   -2.9019 H   0  0  0  0  0  0  0  0  0  0  0  0
    4.7993   -1.5464   -2.2381 H   0  0  0  0  0  0  0  0  0  0  0  0
    3.5463   -3.5166   -1.3219 H   0  0  0  0  0  0  0  0  0  0  0  0
    1.0645   -3.4110   -1.0661 H   0  0  0  0  0  0  0  0  0  0  0  0
  2  3  1  0  0  0  0
  2 12  1  0  0  0  0
  3  4  1  0  0  0  0
  4 10  1  0  0  0  0
  5 13  2  0  0  0  0
  6  7  1  0  0  0  0
  7 21  1  0  0  0  0
  7 14  2  0  0  0  0
  8  5  1  0  0  0  0
  8  3  2  0  0  0  0
  9  2  2  0  0  0  0
 10 11  2  0  0  0  0
 11 14  1  0  0  0  0
 11  1  1  0  0  0  0
 12 27  1  0  0  0  0
 13  6  1  0  0  0  0
 13 10  1  0  0  0  0
 14 22  1  0  0  0  0
 15 12  2  0  0  0  0
 15 26  1  0  0  0  0
 16 15  1  0  0  0  0
 17  9  1  0  0  0  0
 17 16  2  0  0  0  0
 18  8  1  0  0  0  0
 19  5  1  0  0  0  0
 20  6  1  0  0  0  0
 23  9  1  0  0  0  0
 24 17  1  0  0  0  0
 25 16  1  0  0  0  0
M  END
