1,2
q = -1.0

 11 11  0  0  1  0  0  0  0  0999 V2000
   -1.2737   -2.2009   -2.5302 Se  0  0  0  0  0  1  0  0  0  0  0  0
   -2.8836   -0.3308   -1.2545 N   0  0  0  0  0  2  0  0  0  0  0  0
   -2.9243   -1.3585   -2.1456 C   0  0  1  0  0  3  0  0  0  0  0  0
   -4.1564   -1.7400   -2.7394 C   0  0  0  0  0  0  0  0  0  0  0  0
   -4.1802   -2.5742   -3.4544 H   0  0  0  0  0  0  0  0  0  0  0  0
   -5.3176   -1.0420   -2.4034 C   0  0  0  0  0  0  0  0  0  0  0  0
   -6.2797   -1.3276   -2.8576 H   0  0  0  0  0  0  0  0  0  0  0  0
   -5.2537    0.0281   -1.4881 C   0  0  0  0  0  0  0  0  0  0  0  0
   -6.1478    0.6031   -1.2085 H   0  0  0  0  0  0  0  0  0  0  0  0
   -4.0028    0.3415   -0.9436 C   0  0  0  0  0  0  0  0  0  0  0  0
   -3.8768    1.1737   -0.2289 H   0  0  0  0  0  0  0  0  0  0  0  0
  2 10  1  0  0  0  0
  3  1  1  6  0  0  0
  3  2  1  0  0  0  0
  4  6  2  0  0  0  0
  4  3  1  0  0  0  0
  5  4  1  0  0  0  0
  6  8  1  0  0  0  0
  7  6  1  0  0  0  0
  8  9  1  0  0  0  0
  8 10  2  0  0  0  0
 10 11  1  0  0  0  0
M  END
