1,4
q = -1.0

 16 15  0  0  0  0  0  0  0  0999 V2000
   -2.0690   -1.0235    0.9344 Se  0  0  0  0  0  1  0  0  0  0  0  0
   -3.1226    0.2949   -0.1227 C   0  0  0  0  0  0  0  0  0  0  0  0
   -2.3542    0.9244   -1.2798 C   0  0  0  0  0  0  0  0  0  0  0  0
   -1.0609    1.5196   -0.8863 N   0  0  0  0  0  0  0  0  0  0  0  0
   -0.2737    1.9492   -2.0461 C   0  0  0  0  0  0  0  0  0  0  0  0
   -0.7487    2.8079   -2.5773 H   0  0  0  0  0  0  0  0  0  0  0  0
   -0.1751    1.1118   -2.7645 H   0  0  0  0  0  0  0  0  0  0  0  0
    0.7384    2.2419   -1.6995 H   0  0  0  0  0  0  0  0  0  0  0  0
   -1.2174    2.6345    0.0607 C   0  0  0  0  0  0  0  0  0  0  0  0
   -1.8114    3.4675   -0.3843 H   0  0  0  0  0  0  0  0  0  0  0  0
   -0.2124    3.0104    0.3359 H   0  0  0  0  0  0  0  0  0  0  0  0
   -1.7180    2.2813    0.9822 H   0  0  0  0  0  0  0  0  0  0  0  0
   -2.1343    0.1474   -2.0412 H   0  0  0  0  0  0  0  0  0  0  0  0
   -2.9901    1.7032   -1.7731 H   0  0  0  0  0  0  0  0  0  0  0  0
   -4.0018   -0.2375   -0.5346 H   0  0  0  0  0  0  0  0  0  0  0  0
   -3.5096    1.0706    0.5682 H   0  0  0  0  0  0  0  0  0  0  0  0
  2 16  1  0  0  0  0
  2  1  1  0  0  0  0
  3  4  1  0  0  0  0
  3  2  1  0  0  0  0
  4  9  1  0  0  0  0
  5  8  1  0  0  0  0
  5  4  1  0  0  0  0
  6  5  1  0  0  0  0
  7  5  1  0  0  0  0
  9 11  1  0  0  0  0
  9 12  1  0  0  0  0
 10  9  1  0  0  0  0
 13  3  1  0  0  0  0
 14  3  1  0  0  0  0
 15  2  1  0  0  0  0
M  END
