1,5
q = -1.0

 53 57  0  0  0  0  0  0  0  0999 V2000
    2.2949   -1.3634   -1.3106 Se  0  0  0  0  0  1  0  0  0  0  0  0
   -3.2422   -1.0636    1.8425 Se  0  0  0  0  0  1  0  0  0  0  0  0
   -2.9284    0.5372    0.4729 P   0  0  0  0  0  4  0  0  0  0  0  0
    0.4613   -1.3621   -0.0848 P   0  0  0  0  0  4  0  0  0  0  0  0
    0.9898    1.2918    0.0958 N   0  0  0  0  0  0  0  0  0  0  0  0
    0.4537    2.5128    0.2562 N   0  0  0  0  0  2  0  0  0  0  0  0
   -0.8548    2.4061    0.3906 N   0  0  0  0  0  0  0  0  0  0  0  0
   -1.1999    1.0882    0.3261 C   0  0  0  0  0  0  0  0  0  0  0  0
   -0.0115    0.3564    0.1249 C   0  0  0  0  0  0  0  0  0  0  0  0
   -3.4220    0.1559   -1.2600 C   0  0  0  0  0  0  0  0  0  0  0  0
   -4.4824   -0.7404   -1.4814 C   0  0  0  0  0  0  0  0  0  0  0  0
   -4.9391   -1.2496   -0.6175 H   0  0  0  0  0  0  0  0  0  0  0  0
   -4.9242   -0.9865   -2.7891 C   0  0  0  0  0  0  0  0  0  0  0  0
   -5.7540   -1.6887   -2.9613 H   0  0  0  0  0  0  0  0  0  0  0  0
   -4.3061   -0.3464   -3.8758 C   0  0  0  0  0  0  0  0  0  0  0  0
   -4.6548   -0.5419   -4.9014 H   0  0  0  0  0  0  0  0  0  0  0  0
   -3.2373    0.5374   -3.6553 C   0  0  0  0  0  0  0  0  0  0  0  0
   -2.7441    1.0329   -4.5054 H   0  0  0  0  0  0  0  0  0  0  0  0
   -2.7913    0.7902   -2.3493 C   0  0  0  0  0  0  0  0  0  0  0  0
   -1.9471    1.4759   -2.1774 H   0  0  0  0  0  0  0  0  0  0  0  0
   -3.8594    2.0645    0.9019 C   0  0  0  0  0  0  0  0  0  0  0  0
   -3.8509    3.1820    0.0432 C   0  0  0  0  0  0  0  0  0  0  0  0
   -3.2689    3.1677   -0.8882 H   0  0  0  0  0  0  0  0  0  0  0  0
   -4.5835    4.3254    0.3882 C   0  0  0  0  0  0  0  0  0  0  0  0
   -4.5730    5.1997   -0.2798 H   0  0  0  0  0  0  0  0  0  0  0  0
   -5.3233    4.3581    1.5823 C   0  0  0  0  0  0  0  0  0  0  0  0
   -5.8973    5.2590    1.8479 H   0  0  0  0  0  0  0  0  0  0  0  0
   -5.3303    3.2436    2.4347 C   0  0  0  0  0  0  0  0  0  0  0  0
   -5.9089    3.2655    3.3706 H   0  0  0  0  0  0  0  0  0  0  0  0
   -4.5987    2.0951    2.0961 C   0  0  0  0  0  0  0  0  0  0  0  0
   -4.5915    1.2055    2.7473 H   0  0  0  0  0  0  0  0  0  0  0  0
    0.7587   -2.0700    1.5653 C   0  0  0  0  0  0  0  0  0  0  0  0
    1.5588   -3.2258    1.6711 C   0  0  0  0  0  0  0  0  0  0  0  0
    1.9919   -3.6778    0.7652 H   0  0  0  0  0  0  0  0  0  0  0  0
    1.8242   -3.7679    2.9347 C   0  0  0  0  0  0  0  0  0  0  0  0
    2.4518   -4.6672    3.0224 H   0  0  0  0  0  0  0  0  0  0  0  0
    1.3035   -3.1532    4.0867 C   0  0  0  0  0  0  0  0  0  0  0  0
    1.5245   -3.5742    5.0793 H   0  0  0  0  0  0  0  0  0  0  0  0
    0.5117   -2.0002    3.9767 C   0  0  0  0  0  0  0  0  0  0  0  0
    0.1051   -1.5176    4.8776 H   0  0  0  0  0  0  0  0  0  0  0  0
    0.2322   -1.4522    2.7160 C   0  0  0  0  0  0  0  0  0  0  0  0
   -0.4020   -0.5586    2.6276 H   0  0  0  0  0  0  0  0  0  0  0  0
   -0.8150   -2.3273   -0.9408 C   0  0  0  0  0  0  0  0  0  0  0  0
   -1.5625   -3.3017   -0.2523 C   0  0  0  0  0  0  0  0  0  0  0  0
   -1.3994   -3.4651    0.8216 H   0  0  0  0  0  0  0  0  0  0  0  0
   -2.5211   -4.0506   -0.9500 C   0  0  0  0  0  0  0  0  0  0  0  0
   -3.1101   -4.8097   -0.4146 H   0  0  0  0  0  0  0  0  0  0  0  0
   -2.7352   -3.8236   -2.3175 C   0  0  0  0  0  0  0  0  0  0  0  0
   -3.4926   -4.4109   -2.8585 H   0  0  0  0  0  0  0  0  0  0  0  0
   -1.9894   -2.8482   -3.0004 C   0  0  0  0  0  0  0  0  0  0  0  0
   -2.1629   -2.6651   -4.0704 H   0  0  0  0  0  0  0  0  0  0  0  0
   -1.0261   -2.0977   -2.3166 C   0  0  0  0  0  0  0  0  0  0  0  0
   -0.4264   -1.3421   -2.8455 H   0  0  0  0  0  0  0  0  0  0  0  0
  1  4  1  0  0  0  0
  3 21  1  0  0  0  0
  3  2  1  0  0  0  0
  4  9  1  0  0  0  0
  4 32  1  0  0  0  0
  5  9  2  0  0  0  0
  5  6  1  0  0  0  0
  6  7  1  0  0  0  0
  8  7  2  0  0  0  0
  8  3  1  0  0  0  0
  9  8  1  0  0  0  0
 10  3  1  0  0  0  0
 11 10  1  0  0  0  0
 11 12  1  0  0  0  0
 13 11  2  0  0  0  0
 14 13  1  0  0  0  0
 15 17  2  0  0  0  0
 15 13  1  0  0  0  0
 16 15  1  0  0  0  0
 17 19  1  0  0  0  0
 18 17  1  0  0  0  0
 19 20  1  0  0  0  0
 19 10  2  0  0  0  0
 21 30  1  0  0  0  0
 22 24  1  0  0  0  0
 22 21  2  0  0  0  0
 23 22  1  0  0  0  0
 24 26  2  0  0  0  0
 25 24  1  0  0  0  0
 26 27  1  0  0  0  0
 26 28  1  0  0  0  0
 28 29  1  0  0  0  0
 30 28  2  0  0  0  0
 30 31  1  0  0  0  0
 32 33  2  0  0  0  0
 32 41  1  0  0  0  0
 33 35  1  0  0  0  0
 34 33  1  0  0  0  0
 35 36  1  0  0  0  0
 35 37  2  0  0  0  0
 37 38  1  0  0  0  0
 39 37  1  0  0  0  0
 39 40  1  0  0  0  0
 41 39  2  0  0  0  0
 42 41  1  0  0  0  0
 43 44  1  0  0  0  0
 43  4  1  0  0  0  0
 44 45  1  0  0  0  0
 46 47  1  0  0  0  0
 46 44  2  0  0  0  0
 48 46  1  0  0  0  0
 49 48  1  0  0  0  0
 50 48  2  0  0  0  0
 50 52  1  0  0  0  0
 51 50  1  0  0  0  0
 52 43  2  0  0  0  0
 53 52  1  0  0  0  0
M  END
