1,3
q = -1.0

 26 27  0  0  1  0  0  0  0  0999 V2000
   -1.1196   -1.5399   -0.7412 Se  0  0  0  0  0  1  0  0  0  0  0  0
   -4.6593    1.5095   -0.4277 O   0  0  0  0  0  0  0  0  0  0  0  0
   -2.4251    1.3823   -0.1636 N   0  0  0  0  0  2  0  0  0  0  0  0
   -2.9211   -1.7204   -0.1632 C   0  0  0  0  0  0  0  0  0  0  0  0
   -3.3564   -3.0578    0.0189 C   0  0  0  0  0  0  0  0  0  0  0  0
   -2.6301   -3.8711   -0.1336 H   0  0  0  0  0  0  0  0  0  0  0  0
   -4.6663   -3.3560    0.3953 C   0  0  0  0  0  0  0  0  0  0  0  0
   -4.9649   -4.4063    0.5367 H   0  0  0  0  0  0  0  0  0  0  0  0
   -5.5967   -2.3188    0.6025 C   0  0  0  0  0  0  0  0  0  0  0  0
   -6.6286   -2.5442    0.9087 H   0  0  0  0  0  0  0  0  0  0  0  0
   -5.1959   -0.9979    0.4127 C   0  0  0  0  0  0  0  0  0  0  0  0
   -5.9107   -0.1764    0.5562 H   0  0  0  0  0  0  0  0  0  0  0  0
   -3.8649   -0.6739    0.0374 C   0  0  0  0  0  0  0  0  0  0  0  0
   -3.5648    0.7403   -0.1839 C   0  0  1  0  0  3  0  0  0  0  0  0
   -4.1691    2.7921   -0.8580 C   0  0  0  0  0  0  0  0  0  0  0  0
   -4.8322    3.5794   -0.4525 H   0  0  0  0  0  0  0  0  0  0  0  0
   -4.1976    2.8172   -1.9701 H   0  0  0  0  0  0  0  0  0  0  0  0
   -2.7317    2.8506   -0.3055 C   0  0  0  0  0  0  0  0  0  0  0  0
   -2.7180    3.4868    1.0937 C   0  0  0  0  0  0  0  0  0  0  0  0
   -1.7174    3.3704    1.5505 H   0  0  0  0  0  0  0  0  0  0  0  0
   -3.4749    3.0056    1.7458 H   0  0  0  0  0  0  0  0  0  0  0  0
   -2.9564    4.5675    1.0165 H   0  0  0  0  0  0  0  0  0  0  0  0
   -1.7838    3.5554   -1.2742 C   0  0  0  0  0  0  0  0  0  0  0  0
   -0.7711    3.6213   -0.8332 H   0  0  0  0  0  0  0  0  0  0  0  0
   -2.1511    4.5835   -1.4719 H   0  0  0  0  0  0  0  0  0  0  0  0
   -1.7292    3.0088   -2.2367 H   0  0  0  0  0  0  0  0  0  0  0  0
  1  4  1  0  0  0  0
  2 14  1  0  0  0  0
  4  5  2  0  0  0  0
  4 13  1  0  0  0  0
  5  7  1  0  0  0  0
  6  5  1  0  0  0  0
  7  8  1  0  0  0  0
  7  9  2  0  0  0  0
  9 10  1  0  0  0  0
 11 12  1  0  0  0  0
 11  9  1  0  0  0  0
 13 11  2  0  0  0  0
 14  3  1  0  0  0  0
 14 13  1  1  0  0  0
 15 16  1  0  0  0  0
 15  2  1  0  0  0  0
 15 18  1  0  0  0  0
 17 15  1  0  0  0  0
 18  3  1  0  0  0  0
 18 19  1  0  0  0  0
 19 20  1  0  0  0  0
 19 21  1  0  0  0  0
 22 19  1  0  0  0  0
 23 24  1  0  0  0  0
 23 18  1  0  0  0  0
 25 23  1  0  0  0  0
 26 23  1  0  0  0  0
M  END
