1,2
q = 0.0, confidence = 0.99

 20 20  0  0  1  0  0  0  0  0999 V2000
    2.5534    0.3791   -0.8719 Se  0  0  0  0  0  1  0  0  0  0  0  0
   -2.0771   -0.1914   -0.3180 N   0  0  0  0  0  2  0  0  0  0  0  0
    0.2099   -1.6049   -0.3759 N   0  0  0  0  0  0  0  0  0  0  0  0
    1.4116   -2.1432   -0.1940 N   0  0  0  0  0  0  0  0  0  0  0  0
    3.7038   -2.0293   -0.0724 N   0  0  0  0  0  0  0  0  0  0  0  0
   -3.1944    0.5331   -0.4470 C   0  0  0  0  0  3  0  0  0  0  0  0
   -3.0371    1.6279   -0.4644 H   0  0  0  0  0  0  0  0  0  0  0  0
   -4.4660   -0.0610   -0.5383 C   0  0  0  0  0  0  0  0  0  0  0  0
   -5.3620    0.5681   -0.6394 H   0  0  0  0  0  0  0  0  0  0  0  0
   -4.5589   -1.4588   -0.4801 C   0  0  0  0  0  0  0  0  0  0  0  0
   -5.5379   -1.9584   -0.5348 H   0  0  0  0  0  0  0  0  0  0  0  0
   -3.3864   -2.2162   -0.3527 C   0  0  0  0  0  0  0  0  0  0  0  0
   -3.4200   -3.3153   -0.3124 H   0  0  0  0  0  0  0  0  0  0  0  0
   -2.1504   -1.5426   -0.2900 C   0  0  0  0  0  0  0  0  0  0  0  0
   -0.8792   -2.2698   -0.1808 C   0  0  0  0  0  0  0  0  0  0  0  0
   -0.8975   -3.3452    0.0988 H   0  0  0  0  0  0  0  0  0  0  0  0
    2.5506   -1.3765   -0.3336 C   0  0  1  0  0  3  0  0  0  0  0  0
    4.5688   -1.4902   -0.0878 H   0  0  0  0  0  0  0  0  0  0  0  0
    1.4872   -3.0654    0.2650 H   0  0  0  0  0  0  0  0  0  0  0  0
    3.7396   -3.0095    0.2147 H   0  0  0  0  0  0  0  0  0  0  0  0
  2 14  1  0  0  0  0
  3  4  1  0  0  0  0
  3 15  2  0  0  0  0
  4 19  1  0  0  0  0
  5 20  1  0  0  0  0
  6  2  1  0  0  0  0
  7  6  1  0  0  0  0
  8 10  2  0  0  0  0
  8  6  1  0  0  0  0
  9  8  1  0  0  0  0
 10 12  1  0  0  0  0
 11 10  1  0  0  0  0
 12 13  1  0  0  0  0
 12 14  2  0  0  0  0
 14 15  1  0  0  0  0
 15 16  1  0  0  0  0
 17  1  1  6  0  0  0
 17  4  1  0  0  0  0
 17  5  1  0  0  0  0
 18  5  1  0  0  0  0
M  END
