1,2
q = -1.0, confidence = 0.002

 20 21  0  0  1  0  0  0  0  0999 V2000
    1.6906   -1.7408   -1.3483 Se  0  0  0  0  0  1  0  0  0  0  0  0
    1.4416    0.5857    0.8383 N   0  0  0  0  0  2  0  0  0  0  0  0
    4.3540   -0.7406   -1.0190 C   0  0  0  0  0  0  0  0  0  0  0  0
   -0.2940    1.6797    2.1670 C   0  0  0  0  0  0  0  0  0  0  0  0
    1.1403    1.5144    1.7593 C   0  0  0  0  0  0  0  0  0  0  0  0
    2.7299    0.4007    0.3963 C   0  0  2  0  0  3  0  0  0  0  0  0
    5.3958    0.0581   -0.4982 C   0  0  0  0  0  0  0  0  0  0  0  0
    3.4670    2.1843    1.9031 C   0  0  0  0  0  0  0  0  0  0  0  0
    2.1577    2.3361    2.3194 C   0  0  0  0  0  0  0  0  0  0  0  0
    3.8029    1.2113    0.9219 C   0  0  0  0  0  0  0  0  0  0  0  0
    5.1350    1.0262    0.4630 C   0  0  0  0  0  0  0  0  0  0  0  0
    3.0211   -0.6029   -0.6010 C   0  0  0  0  0  0  0  0  0  0  0  0
    1.8842    3.0838    3.0774 H   0  0  0  0  0  0  0  0  0  0  0  0
    4.2675    2.8127    2.3248 H   0  0  0  0  0  0  0  0  0  0  0  0
    5.9368    1.6547    0.8782 H   0  0  0  0  0  0  0  0  0  0  0  0
    6.4226   -0.0962   -0.8634 H   0  0  0  0  0  0  0  0  0  0  0  0
    4.5862   -1.5021   -1.7785 H   0  0  0  0  0  0  0  0  0  0  0  0
   -0.3822    2.2874    3.0864 H   0  0  0  0  0  0  0  0  0  0  0  0
   -0.7754    0.6897    2.3274 H   0  0  0  0  0  0  0  0  0  0  0  0
   -0.8731    2.1846    1.3653 H   0  0  0  0  0  0  0  0  0  0  0  0
  1 12  1  0  0  0  0
  2  5  1  0  0  0  0
  3 12  2  0  0  0  0
  3  7  1  0  0  0  0
  4 19  1  0  0  0  0
  4 18  1  0  0  0  0
  5  4  1  0  0  0  0
  5  9  2  0  0  0  0
  6 12  1  6  0  0  0
  6  2  1  0  0  0  0
  6 10  1  0  0  0  0
  7 11  2  0  0  0  0
  8  9  1  0  0  0  0
  8 14  1  0  0  0  0
  9 13  1  0  0  0  0
 10  8  2  0  0  0  0
 11 15  1  0  0  0  0
 11 10  1  0  0  0  0
 16  7  1  0  0  0  0
 17  3  1  0  0  0  0
 20  4  1  0  0  0  0
M  END
