1,3
q = -1.0

 15 15  0  0  0  0  0  0  0  0999 V2000
    0.4794   -2.8582    0.1985 Se  0  0  0  0  0  1  0  0  0  0  0  0
    4.7967   -4.9855    0.0434 O   0  0  0  0  0  0  0  0  0  0  0  0
    2.2263   -0.9700   -0.4875 N   0  0  0  0  0  2  0  0  0  0  0  0
    2.5441   -5.2835   -0.1496 N   0  0  0  0  0  0  0  0  0  0  0  0
    2.6582   -6.2893   -0.0234 H   0  0  0  0  0  0  0  0  0  0  0  0
    1.6159   -4.8954   -0.3518 H   0  0  0  0  0  0  0  0  0  0  0  0
    3.3316   -0.2813   -0.8066 C   0  0  0  0  0  3  0  0  0  0  0  0
    3.1837    0.7910   -1.0115 H   0  0  0  0  0  0  0  0  0  0  0  0
    4.5777   -0.9153   -0.8764 C   0  0  0  0  0  0  0  0  0  0  0  0
    5.4781   -0.3374   -1.1259 H   0  0  0  0  0  0  0  0  0  0  0  0
    4.6359   -2.2930   -0.6306 C   0  0  0  0  0  0  0  0  0  0  0  0
    5.5806   -2.8576   -0.6655 H   0  0  0  0  0  0  0  0  0  0  0  0
    3.4754   -3.0292   -0.3294 C   0  0  0  0  0  0  0  0  0  0  0  0
    2.2554   -2.3133   -0.2417 C   0  0  0  0  0  0  0  0  0  0  0  0
    3.6690   -4.5156   -0.1197 C   0  0  0  0  0  0  0  0  0  0  0  0
  3 14  1  0  0  0  0
  4 15  1  0  0  0  0
  4  5  1  0  0  0  0
  6  4  1  0  0  0  0
  7  3  1  0  0  0  0
  8  7  1  0  0  0  0
  9  7  1  0  0  0  0
  9 11  2  0  0  0  0
 10  9  1  0  0  0  0
 11 13  1  0  0  0  0
 12 11  1  0  0  0  0
 13 14  2  0  0  0  0
 13 15  1  0  0  0  0
 14  1  1  0  0  0  0
 15  2  2  0  0  0  0
M  END
