1,3
q = -1.0, confidence = 0.0

 13 13  0  0  1  0  0  0  0  0999 V2000
    1.1215   -0.3807    1.5084 Se  0  0  0  0  0  1  0  0  0  0  0  0
    3.4970   -1.2024    1.2885 Se  0  0  0  0  0  0  0  0  0  0  0  0
    2.2960   -0.9194   -1.3353 N   0  0  0  0  0  2  0  0  0  0  0  0
    3.4001   -1.1239   -0.5926 C   0  0  1  0  0  3  0  0  0  0  0  0
    4.4897   -1.2621   -1.4144 N   0  0  0  0  0  0  0  0  0  0  0  0
    2.6858   -0.9340   -2.6599 C   0  0  0  0  0  0  0  0  0  0  0  0
    1.9349   -0.8154   -3.4494 H   0  0  0  0  0  0  0  0  0  0  0  0
    4.0441   -1.1549   -2.7253 C   0  0  0  0  0  0  0  0  0  0  0  0
    4.7270   -1.2576   -3.5739 H   0  0  0  0  0  0  0  0  0  0  0  0
    5.8473   -1.5337   -0.9824 C   0  0  0  0  0  0  0  0  0  0  0  0
    6.5406   -1.3302   -1.8189 H   0  0  0  0  0  0  0  0  0  0  0  0
    5.9648   -2.5904   -0.6644 H   0  0  0  0  0  0  0  0  0  0  0  0
    6.1101   -0.8761   -0.1299 H   0  0  0  0  0  0  0  0  0  0  0  0
  2  1  1  0  0  0  0
  3  4  1  0  0  0  0
  4  2  1  1  0  0  0
  5 10  1  0  0  0  0
  5  4  1  0  0  0  0
  6  3  1  0  0  0  0
  7  6  1  0  0  0  0
  8  6  2  0  0  0  0
  8  5  1  0  0  0  0
  9  8  1  0  0  0  0
 10 12  1  0  0  0  0
 10 13  1  0  0  0  0
 11 10  1  0  0  0  0
M  END
