1,3
q = -1.0, confidence = 0.002

 39 38  0  0  0  0  0  0  0  0999 V2000
   -1.6867   -1.4823   -1.3091 Se  0  0  0  0  0  1  0  0  0  0  0  0
   -2.8370   -0.0384   -0.0971 P   0  0  0  0  0  4  0  0  0  0  0  0
   -1.6592    0.7614    0.7412 N   0  0  0  0  0  2  0  0  0  0  0  0
   -1.7964    1.8871    1.6756 C   0  0  0  0  0  0  0  0  0  0  0  0
   -1.1702    1.5340    3.0316 C   0  0  0  0  0  0  0  0  0  0  0  0
   -1.1397    3.1520    1.1039 C   0  0  0  0  0  0  0  0  0  0  0  0
   -3.7806    1.1228   -1.2933 C   0  0  0  0  0  0  0  0  0  0  0  0
   -4.8085    0.3385   -2.1217 C   0  0  0  0  0  0  0  0  0  0  0  0
   -4.4672    2.2815   -0.5474 C   0  0  0  0  0  0  0  0  0  0  0  0
   -2.6992    1.6995   -2.2281 C   0  0  0  0  0  0  0  0  0  0  0  0
   -3.9864   -1.0426    1.0625 C   0  0  0  0  0  0  0  0  0  0  0  0
   -4.9260   -0.1312    1.8707 C   0  0  0  0  0  0  0  0  0  0  0  0
   -3.0314   -1.7773    2.0221 C   0  0  0  0  0  0  0  0  0  0  0  0
   -4.7983   -2.0853    0.2773 C   0  0  0  0  0  0  0  0  0  0  0  0
   -2.8742    2.1079    1.8532 H   0  0  0  0  0  0  0  0  0  0  0  0
   -1.2333    2.3847    3.7406 H   0  0  0  0  0  0  0  0  0  0  0  0
   -0.1000    1.2762    2.8947 H   0  0  0  0  0  0  0  0  0  0  0  0
   -1.6691    0.6596    3.4940 H   0  0  0  0  0  0  0  0  0  0  0  0
   -1.1799    3.9935    1.8258 H   0  0  0  0  0  0  0  0  0  0  0  0
   -1.6316    3.4763    0.1657 H   0  0  0  0  0  0  0  0  0  0  0  0
   -0.0772    2.9436    0.8589 H   0  0  0  0  0  0  0  0  0  0  0  0
   -5.6903    0.0391   -1.5226 H   0  0  0  0  0  0  0  0  0  0  0  0
   -4.3575   -0.5688   -2.5718 H   0  0  0  0  0  0  0  0  0  0  0  0
   -5.1760    0.9829   -2.9486 H   0  0  0  0  0  0  0  0  0  0  0  0
   -3.7466    2.8968    0.0229 H   0  0  0  0  0  0  0  0  0  0  0  0
   -5.2608    1.9409    0.1426 H   0  0  0  0  0  0  0  0  0  0  0  0
   -4.9456    2.9489   -1.2958 H   0  0  0  0  0  0  0  0  0  0  0  0
   -1.8901    2.1964   -1.6584 H   0  0  0  0  0  0  0  0  0  0  0  0
   -3.1677    2.4496   -2.8994 H   0  0  0  0  0  0  0  0  0  0  0  0
   -2.2357    0.9064   -2.8453 H   0  0  0  0  0  0  0  0  0  0  0  0
   -5.7119    0.3270    1.2401 H   0  0  0  0  0  0  0  0  0  0  0  0
   -4.3823    0.6769    2.3992 H   0  0  0  0  0  0  0  0  0  0  0  0
   -5.4418   -0.7406    2.6432 H   0  0  0  0  0  0  0  0  0  0  0  0
   -2.3233   -2.4204    1.4633 H   0  0  0  0  0  0  0  0  0  0  0  0
   -3.6289   -2.4205    2.7017 H   0  0  0  0  0  0  0  0  0  0  0  0
   -2.4417   -1.0708    2.6348 H   0  0  0  0  0  0  0  0  0  0  0  0
   -4.1357   -2.7145   -0.3497 H   0  0  0  0  0  0  0  0  0  0  0  0
   -5.5655   -1.6277   -0.3740 H   0  0  0  0  0  0  0  0  0  0  0  0
   -5.3249   -2.7477    0.9973 H   0  0  0  0  0  0  0  0  0  0  0  0
  1  2  1  0  0  0  0
  2  3  1  0  0  0  0
  2 11  1  0  0  0  0
  3  4  1  0  0  0  0
  4 15  1  0  0  0  0
  4  5  1  0  0  0  0
  5 18  1  0  0  0  0
  5 16  1  0  0  0  0
  6  4  1  0  0  0  0
  6 19  1  0  0  0  0
  7  9  1  0  0  0  0
  7  2  1  0  0  0  0
  8 22  1  0  0  0  0
  8  7  1  0  0  0  0
  9 25  1  0  0  0  0
  9 26  1  0  0  0  0
 10 28  1  0  0  0  0
 10  7  1  0  0  0  0
 11 12  1  0  0  0  0
 11 13  1  0  0  0  0
 12 32  1  0  0  0  0
 12 33  1  0  0  0  0
 13 36  1  0  0  0  0
 13 35  1  0  0  0  0
 14 39  1  0  0  0  0
 14 11  1  0  0  0  0
 17  5  1  0  0  0  0
 20  6  1  0  0  0  0
 21  6  1  0  0  0  0
 23  8  1  0  0  0  0
 24  8  1  0  0  0  0
 27  9  1  0  0  0  0
 29 10  1  0  0  0  0
 30 10  1  0  0  0  0
 31 12  1  0  0  0  0
 34 13  1  0  0  0  0
 37 14  1  0  0  0  0
 38 14  1  0  0  0  0
M  END
