1,2,3,4
 OpenBabel05122313063D

 34 35  0  0  1  0  0  0  0  0999 V2000
   -1.6449   -1.5112    0.2577 Se  0  0  0  0  0  1  0  0  0  0  0  0
    1.6448   -1.5112   -0.2574 Se  0  0  0  0  0  1  0  0  0  0  0  0
   -1.3498    1.7745    0.1936 N   0  0  0  0  0  2  0  0  0  0  0  0
    1.3497    1.7745   -0.1935 N   0  0  0  0  0  2  0  0  0  0  0  0
   -2.6571    1.8049    0.1542 C   0  0  0  0  0  0  0  0  0  0  0  0
   -3.1187    2.8104    0.2326 H   0  0  0  0  0  0  0  0  0  0  0  0
   -3.6101    0.7298    0.0248 C   0  0  0  0  0  0  0  0  0  0  0  0
   -3.3258   -0.6766    0.0463 C   0  0  0  0  0  0  0  0  0  0  0  0
   -4.4198   -1.5780   -0.0568 C   0  0  0  0  0  0  0  0  0  0  0  0
   -4.2092   -2.6586   -0.0409 H   0  0  0  0  0  0  0  0  0  0  0  0
   -5.7335   -1.1338   -0.1845 C   0  0  0  0  0  0  0  0  0  0  0  0
   -6.5487   -1.8692   -0.2667 H   0  0  0  0  0  0  0  0  0  0  0  0
   -6.0195    0.2494   -0.2116 C   0  0  0  0  0  0  0  0  0  0  0  0
   -7.0542    0.6070   -0.3134 H   0  0  0  0  0  0  0  0  0  0  0  0
   -4.9691    1.1509   -0.1027 C   0  0  0  0  0  3  0  0  0  0  0  0
   -5.1755    2.2334   -0.1130 H   0  0  0  0  0  0  0  0  0  0  0  0
   -0.6381    3.0388    0.4159 C   0  0  0  0  0  0  0  0  0  0  0  0
   -0.3756    3.1116    1.4939 H   0  0  0  0  0  0  0  0  0  0  0  0
   -1.2778    3.9088    0.1547 H   0  0  0  0  0  0  0  0  0  0  0  0
    0.6381    3.0389   -0.4156 C   0  0  0  0  0  0  0  0  0  0  0  0
    0.3756    3.1117   -1.4937 H   0  0  0  0  0  0  0  0  0  0  0  0
    1.2778    3.9088   -0.1544 H   0  0  0  0  0  0  0  0  0  0  0  0
    2.6571    1.8048   -0.1543 C   0  0  0  0  0  0  0  0  0  0  0  0
    3.1187    2.8104   -0.2327 H   0  0  0  0  0  0  0  0  0  0  0  0
    3.6101    0.7298   -0.0251 C   0  0  0  0  0  0  0  0  0  0  0  0
    4.9692    1.1509    0.1022 C   0  0  0  0  0  0  0  0  0  0  0  0
    5.1756    2.2334    0.1125 H   0  0  0  0  0  0  0  0  0  0  0  0
    6.0196    0.2494    0.2109 C   0  0  0  0  0  0  0  0  0  0  0  0
    7.0543    0.6070    0.3125 H   0  0  0  0  0  0  0  0  0  0  0  0
    5.7335   -1.1339    0.1839 C   0  0  0  0  0  0  0  0  0  0  0  0
    6.5487   -1.8692    0.2659 H   0  0  0  0  0  0  0  0  0  0  0  0
    4.4199   -1.5780    0.0565 C   0  0  0  0  0  0  0  0  0  0  0  0
    4.2092   -2.6586    0.0406 H   0  0  0  0  0  0  0  0  0  0  0  0
    3.3258   -0.6766   -0.0465 C   0  0  2  0  0  3  0  0  0  0  0  0
  3 17  1  0  0  0  0
  4 23  1  0  0  0  0
  5  3  1  0  0  0  0
  5  6  1  0  0  0  0
  7  8  1  0  0  0  0
  7  5  2  0  0  0  0
  8  1  1  0  0  0  0
  9 10  1  0  0  0  0
  9  8  2  0  0  0  0
 11  9  1  0  0  0  0
 12 11  1  0  0  0  0
 13 11  2  0  0  0  0
 13 15  1  0  0  0  0
 14 13  1  0  0  0  0
 15  7  1  0  0  0  0
 16 15  1  0  0  0  0
 17 18  1  0  0  0  0
 19 17  1  0  0  0  0
 20  4  1  0  0  0  0
 20 22  1  0  0  0  0
 20 17  1  0  0  0  0
 21 20  1  0  0  0  0
 23 25  2  0  0  0  0
 24 23  1  0  0  0  0
 25 26  1  0  0  0  0
 26 27  1  0  0  0  0
 26 28  2  0  0  0  0
 28 29  1  0  0  0  0
 30 28  1  0  0  0  0
 30 31  1  0  0  0  0
 32 30  2  0  0  0  0
 33 32  1  0  0  0  0
 34  2  1  6  0  0  0
 34 25  1  0  0  0  0
 34 32  1  0  0  0  0
M  END
