1,2,3
q = -1.0

 37 40  0  0  1  0  0  0  0  0999 V2000
   -1.3989   -0.1677    1.5292 Si  0  0  2  0  0  3  0  0  0  0  0  0
   -0.8210    1.3617   -0.9505 N   0  0  0  0  0  2  0  0  0  0  0  0
   -2.3969   -1.1345   -1.0856 N   0  0  0  0  0  2  0  0  0  0  0  0
   -0.5851    1.8237   -2.1824 C   0  0  0  0  0  0  0  0  0  0  0  0
   -0.8252    3.1663   -2.5581 C   0  0  0  0  0  0  0  0  0  0  0  0
   -1.3062    4.0617   -1.6205 C   0  0  0  0  0  0  0  0  0  0  0  0
   -1.5672    3.6072   -0.2987 C   0  0  0  0  0  0  0  0  0  0  0  0
   -2.0216    4.4757    0.7353 C   0  0  0  0  0  0  0  0  0  0  0  0
   -2.2352    3.9932    2.0177 C   0  0  0  0  0  0  0  0  0  0  0  0
   -2.0299    2.6172    2.3021 C   0  0  0  0  0  0  0  0  0  0  0  0
   -1.5978    1.7220    1.3237 C   0  0  0  0  0  0  0  0  0  0  0  0
   -1.3331    2.2220    0.0138 C   0  0  2  0  0  3  0  0  0  0  0  0
   -2.6236   -1.4654   -2.3567 C   0  0  0  0  0  0  0  0  0  0  0  0
   -3.8885   -1.9100   -2.8136 C   0  0  0  0  0  0  0  0  0  0  0  0
   -4.9336   -2.0246   -1.9134 C   0  0  0  0  0  0  0  0  0  0  0  0
   -4.7216   -1.6812   -0.5496 C   0  0  0  0  0  0  0  0  0  0  0  0
   -5.7388   -1.7833    0.4429 C   0  0  0  0  0  0  0  0  0  0  0  0
   -5.4702   -1.4414    1.7592 C   0  0  0  0  0  0  0  0  0  0  0  0
   -4.1806   -0.9720    2.1271 C   0  0  0  0  0  0  0  0  0  0  0  0
   -3.1520   -0.8479    1.1955 C   0  0  0  0  0  0  0  0  0  0  0  0
   -3.4165   -1.2185   -0.1567 C   0  0  1  0  0  3  0  0  0  0  0  0
   -0.9393   -0.5535    3.3176 C   0  0  0  0  0  0  0  0  0  0  0  0
   -0.1643    1.0766   -2.8824 H   0  0  0  0  0  0  0  0  0  0  0  0
   -0.6006    3.4728   -3.5892 H   0  0  0  0  0  0  0  0  0  0  0  0
   -1.4801    5.1196   -1.8729 H   0  0  0  0  0  0  0  0  0  0  0  0
   -2.1893    5.5371    0.4954 H   0  0  0  0  0  0  0  0  0  0  0  0
   -2.5748    4.6728    2.8142 H   0  0  0  0  0  0  0  0  0  0  0  0
   -2.2280    2.2504    3.3224 H   0  0  0  0  0  0  0  0  0  0  0  0
   -1.7427   -1.3921   -3.0229 H   0  0  0  0  0  0  0  0  0  0  0  0
   -4.0088   -2.1704   -3.8747 H   0  0  0  0  0  0  0  0  0  0  0  0
   -5.9256   -2.3825   -2.2317 H   0  0  0  0  0  0  0  0  0  0  0  0
   -6.7355   -2.1429    0.1438 H   0  0  0  0  0  0  0  0  0  0  0  0
   -6.2576   -1.5293    2.5233 H   0  0  0  0  0  0  0  0  0  0  0  0
   -3.9989   -0.6986    3.1791 H   0  0  0  0  0  0  0  0  0  0  0  0
   -0.0280   -0.0120    3.6342 H   0  0  0  0  0  0  0  0  0  0  0  0
   -1.7734   -0.2585    3.9892 H   0  0  0  0  0  0  0  0  0  0  0  0
   -0.7633   -1.6394    3.4401 H   0  0  0  0  0  0  0  0  0  0  0  0
  1 22  1  1  0  0  0
  4  2  1  0  0  0  0
  5  4  2  0  0  0  0
  5  6  1  0  0  0  0
  6  7  2  0  0  0  0
  7 12  1  0  0  0  0
  7  8  1  0  0  0  0
  8  9  2  0  0  0  0
  9 10  1  0  0  0  0
  9 27  1  0  0  0  0
 10 28  1  0  0  0  0
 11  1  1  0  0  0  0
 11 10  2  0  0  0  0
 12  2  1  1  0  0  0
 12 11  1  0  0  0  0
 13  3  1  0  0  0  0
 14 13  2  0  0  0  0
 14 15  1  0  0  0  0
 15 16  2  0  0  0  0
 16 21  1  0  0  0  0
 16 17  1  0  0  0  0
 17 18  2  0  0  0  0
 18 19  1  0  0  0  0
 18 33  1  0  0  0  0
 19 34  1  0  0  0  0
 20  1  1  0  0  0  0
 20 19  2  0  0  0  0
 21  3  1  1  0  0  0
 21 20  1  0  0  0  0
 22 37  1  0  0  0  0
 22 35  1  0  0  0  0
 22 36  1  0  0  0  0
 23  4  1  0  0  0  0
 24  5  1  0  0  0  0
 25  6  1  0  0  0  0
 26  8  1  0  0  0  0
 29 13  1  0  0  0  0
 30 14  1  0  0  0  0
 31 15  1  0  0  0  0
 32 17  1  0  0  0  0
M  END
