1,4,5
q = -1.0

 27 28  0  0  1  0  0  0  0  0999 V2000
   -1.3904   -0.4873    1.8626 Si  0  0  2  0  0  3  0  0  0  0  0  0
   -2.1360    1.1258    1.9991 O   0  0  0  0  0  0  0  0  0  0  0  0
   -2.8451   -1.5012    1.8270 O   0  0  0  0  0  0  0  0  0  0  0  0
   -1.8769    1.3688   -0.2979 N   0  0  0  0  0  2  0  0  0  0  0  0
   -2.6362   -1.5361   -0.4920 N   0  0  0  0  0  2  0  0  0  0  0  0
   -0.7976   -0.7517    3.6187 C   0  0  0  0  0  0  0  0  0  0  0  0
   -2.3795    1.8144    0.8872 C   0  0  2  0  0  3  0  0  0  0  0  0
   -3.1412    3.0043    0.9573 C   0  0  0  0  0  0  0  0  0  0  0  0
   -3.4057    3.7103   -0.2156 C   0  0  0  0  0  0  0  0  0  0  0  0
   -2.9161    3.2205   -1.4413 C   0  0  0  0  0  0  0  0  0  0  0  0
   -2.1601    2.0485   -1.4348 C   0  0  0  0  0  0  0  0  0  0  0  0
   -3.3306   -1.8526    0.6425 C   0  0  1  0  0  3  0  0  0  0  0  0
   -4.5583   -2.5498    0.5736 C   0  0  0  0  0  0  0  0  0  0  0  0
   -5.0657   -2.9180   -0.6708 C   0  0  0  0  0  0  0  0  0  0  0  0
   -4.3458   -2.5839   -1.8324 C   0  0  0  0  0  0  0  0  0  0  0  0
   -3.1414   -1.8954   -1.6986 C   0  0  0  0  0  0  0  0  0  0  0  0
   -1.6590   -0.6297    4.3061 H   0  0  0  0  0  0  0  0  0  0  0  0
   -0.0203   -0.0139    3.8973 H   0  0  0  0  0  0  0  0  0  0  0  0
   -0.3828   -1.7701    3.7475 H   0  0  0  0  0  0  0  0  0  0  0  0
   -3.5092    3.3288    1.9397 H   0  0  0  0  0  0  0  0  0  0  0  0
   -3.9991    4.6366   -0.1781 H   0  0  0  0  0  0  0  0  0  0  0  0
   -3.1133    3.7385   -2.3899 H   0  0  0  0  0  0  0  0  0  0  0  0
   -1.7347    1.5959   -2.3493 H   0  0  0  0  0  0  0  0  0  0  0  0
   -5.0746   -2.7774    1.5155 H   0  0  0  0  0  0  0  0  0  0  0  0
   -6.0200   -3.4626   -0.7373 H   0  0  0  0  0  0  0  0  0  0  0  0
   -4.7078   -2.8528   -2.8341 H   0  0  0  0  0  0  0  0  0  0  0  0
   -2.5166   -1.5978   -2.5587 H   0  0  0  0  0  0  0  0  0  0  0  0
  1  3  1  1  0  0  0
  1  2  1  0  0  0  0
  1  6  1  0  0  0  0
  4  7  1  0  0  0  0
  5 12  1  0  0  0  0
  6 19  1  0  0  0  0
  6 18  1  0  0  0  0
  6 17  1  0  0  0  0
  7  8  1  0  0  0  0
  7  2  1  1  0  0  0
  8 20  1  0  0  0  0
  9 21  1  0  0  0  0
  9  8  2  0  0  0  0
 10 11  2  0  0  0  0
 10  9  1  0  0  0  0
 11  4  1  0  0  0  0
 12  3  1  1  0  0  0
 13 12  1  0  0  0  0
 13 24  1  0  0  0  0
 14 13  2  0  0  0  0
 15 16  2  0  0  0  0
 15 14  1  0  0  0  0
 16  5  1  0  0  0  0
 22 10  1  0  0  0  0
 23 11  1  0  0  0  0
 25 14  1  0  0  0  0
 26 15  1  0  0  0  0
 27 16  1  0  0  0  0
M  END
