1,2,4,8,15
q = -2.0, confidence = 0.824

 42 44  0  0  1  0  0  0  0  0999 V2000
   -1.3773   -0.8533    1.8007 S   0  0  0  0  0  0  0  0  0  0  0  0
   -1.2341   -1.8175   -1.6028 S   0  0  0  0  0  0  0  0  0  0  0  0
   -3.3291    1.5475   -0.5023 S   0  0  0  0  0  0  0  0  0  0  0  0
    1.5411   -1.9800   -0.2687 N   0  0  0  0  0  2  0  0  0  0  0  0
    2.7492   -1.6744    0.3706 C   0  0  0  0  0  0  0  0  0  0  0  0
    3.1413   -2.7009    1.1567 C   0  0  0  0  0  2  0  0  0  0  0  0
    3.1982   -0.2557    0.2781 C   0  0  1  0  0  3  0  0  0  0  0  0
    2.1864    0.5951    0.0548 N   0  0  0  0  0  2  0  0  0  0  0  0
    2.3044    1.9393   -0.0288 C   0  0  0  0  0  0  0  0  0  0  0  0
    3.5752    2.5153    0.1293 C   0  0  0  0  0  0  0  0  0  0  0  0
    4.6669    1.6550    0.3610 C   0  0  0  0  0  0  0  0  0  0  0  0
    4.4977    0.2615    0.4376 C   0  0  0  0  0  0  0  0  0  0  0  0
    0.9893    2.5465   -0.3032 C   0  0  1  0  0  3  0  0  0  0  0  0
    0.3451    3.6291   -0.8846 C   0  0  0  0  0  3  0  0  0  0  0  0
   -0.1566    1.7720   -0.1294 N   0  0  0  0  0  2  0  0  0  0  0  0
   -0.9084    2.7486   -0.9759 C   0  0  1  0  0  0  0  0  0  0  0  0
   -2.2943    3.0781   -0.4464 C   0  0  0  0  0  0  0  0  0  0  0  0
   -3.5265    1.0940    1.2580 C   0  0  0  0  0  0  0  0  0  0  0  0
   -2.3086    0.7112    2.0916 C   0  0  0  0  0  0  0  0  0  0  0  0
   -2.4761   -2.0814    1.0171 C   0  0  0  0  0  0  0  0  0  0  0  0
   -2.6797   -2.0212   -0.5017 C   0  0  0  0  0  0  0  0  0  0  0  0
   -0.1751   -3.3152   -1.3875 C   0  0  0  0  0  0  0  0  0  0  0  0
    0.8756   -3.2723   -0.2613 C   0  0  0  0  0  0  0  0  0  0  0  0
    3.7075    3.6055    0.0905 H   0  0  0  0  0  0  0  0  0  0  0  0
    5.6732    2.0823    0.4834 H   0  0  0  0  0  0  0  0  0  0  0  0
    5.3528   -0.4103    0.5982 H   0  0  0  0  0  0  0  0  0  0  0  0
    0.5654    4.6893   -1.0626 H   0  0  0  0  0  0  0  0  0  0  0  0
   -0.9961    2.3362   -2.0060 H   0  0  0  0  0  0  0  0  0  0  0  0
   -2.2611    3.4627    0.5927 H   0  0  0  0  0  0  0  0  0  0  0  0
   -2.7996    3.8346   -1.0797 H   0  0  0  0  0  0  0  0  0  0  0  0
   -4.2823    0.2812    1.2373 H   0  0  0  0  0  0  0  0  0  0  0  0
   -4.0219    1.9415    1.7782 H   0  0  0  0  0  0  0  0  0  0  0  0
   -1.5096    1.4760    1.9848 H   0  0  0  0  0  0  0  0  0  0  0  0
   -2.6117    0.6761    3.1582 H   0  0  0  0  0  0  0  0  0  0  0  0
   -3.4668   -2.0491    1.5164 H   0  0  0  0  0  0  0  0  0  0  0  0
   -2.0170   -3.0464    1.3140 H   0  0  0  0  0  0  0  0  0  0  0  0
   -3.2216   -2.9311   -0.8338 H   0  0  0  0  0  0  0  0  0  0  0  0
   -3.2910   -1.1419   -0.7911 H   0  0  0  0  0  0  0  0  0  0  0  0
    0.3276   -3.3886   -2.3726 H   0  0  0  0  0  0  0  0  0  0  0  0
   -0.8361   -4.1985   -1.2845 H   0  0  0  0  0  0  0  0  0  0  0  0
    1.6042   -4.1001   -0.4197 H   0  0  0  0  0  0  0  0  0  0  0  0
    0.3965   -3.4849    0.7220 H   0  0  0  0  0  0  0  0  0  0  0  0
  1 19  1  0  0  0  0
  2 22  1  0  0  0  0
  2 21  1  0  0  0  0
  3 17  1  0  0  0  0
  3 18  1  0  0  0  0
  4 23  1  0  0  0  0
  4  5  1  0  0  0  0
  5  6  2  0  0  0  0
  7  8  1  1  0  0  0
  7  5  1  0  0  0  0
  7 12  1  0  0  0  0
  9  8  1  0  0  0  0
  9 10  2  0  0  0  0
 10 11  1  0  0  0  0
 11 12  2  0  0  0  0
 11 25  1  0  0  0  0
 12 26  1  0  0  0  0
 13 14  1  6  0  0  0
 13 15  1  0  0  0  0
 13  9  1  0  0  0  0
 16 28  1  6  0  0  0
 16 14  1  0  0  0  0
 16 17  1  0  0  0  0
 16 15  1  0  0  0  0
 17 29  1  0  0  0  0
 18 32  1  0  0  0  0
 18 19  1  0  0  0  0
 19 34  1  0  0  0  0
 20 36  1  0  0  0  0
 20 35  1  0  0  0  0
 20  1  1  0  0  0  0
 21 20  1  0  0  0  0
 22 40  1  0  0  0  0
 22 23  1  0  0  0  0
 23 42  1  0  0  0  0
 24 10  1  0  0  0  0
 27 14  1  0  0  0  0
 30 17  1  0  0  0  0
 31 18  1  0  0  0  0
 33 19  1  0  0  0  0
 37 21  1  0  0  0  0
 38 21  1  0  0  0  0
 39 22  1  0  0  0  0
 41 23  1  0  0  0  0
M  END
