1,2,5,6,8
q = -2.0, confidence = 0.972

 38 37  0  0  1  0  0  0  0  0999 V2000
   -1.0577    1.7288   -1.1118 S   0  0  0  0  0  1  0  0  0  0  0  0
    0.9733   -1.9505   -0.7742 S   0  0  0  0  0  1  0  0  0  0  0  0
   -3.6556    1.6497   -1.7085 O   0  0  0  0  0  0  0  0  0  0  0  0
    3.5757   -2.0462   -1.3487 O   0  0  0  0  0  0  0  0  0  0  0  0
   -1.7197   -0.8180   -0.0690 N   0  0  0  0  0  2  0  0  0  0  0  0
    0.2164    0.1687    1.9269 N   0  0  0  0  0  0  0  0  0  0  0  0
    1.1009   -0.3378    2.0805 H   0  0  0  0  0  0  0  0  0  0  0  0
    1.6877    0.7788   -0.3579 N   0  0  0  0  0  2  0  0  0  0  0  0
   -2.6889    1.0740   -1.2105 C   0  0  0  0  0  0  0  0  0  0  0  0
   -2.8113   -0.2689   -0.5491 C   0  0  2  0  0  3  0  0  0  0  0  0
   -1.8119   -2.0365    0.7380 C   0  0  0  0  0  0  0  0  0  0  0  0
   -1.4382   -2.8886    0.1300 H   0  0  0  0  0  0  0  0  0  0  0  0
   -2.8732   -2.2421    0.9789 H   0  0  0  0  0  0  0  0  0  0  0  0
   -0.9963   -1.9580    2.0483 C   0  0  0  0  0  0  0  0  0  0  0  0
   -1.4879   -2.6175    2.7919 H   0  0  0  0  0  0  0  0  0  0  0  0
    0.0199   -2.3740    1.8818 H   0  0  0  0  0  0  0  0  0  0  0  0
   -0.8539   -0.5484    2.6280 C   0  0  0  0  0  0  0  0  0  0  0  0
   -0.6505   -0.5987    3.7243 H   0  0  0  0  0  0  0  0  0  0  0  0
   -1.7923    0.0335    2.5032 H   0  0  0  0  0  0  0  0  0  0  0  0
    0.3855    1.5817    2.2816 C   0  0  0  0  0  0  0  0  0  0  0  0
    0.3936    1.7198    3.3907 H   0  0  0  0  0  0  0  0  0  0  0  0
   -0.4923    2.1324    1.8813 H   0  0  0  0  0  0  0  0  0  0  0  0
    1.6818    2.1552    1.7066 C   0  0  0  0  0  0  0  0  0  0  0  0
    1.7807    3.2058    2.0485 H   0  0  0  0  0  0  0  0  0  0  0  0
    2.5479    1.6058    2.1413 H   0  0  0  0  0  0  0  0  0  0  0  0
    1.7985    2.1413    0.1708 C   0  0  0  0  0  0  0  0  0  0  0  0
    2.7654    2.5977   -0.1198 H   0  0  0  0  0  0  0  0  0  0  0  0
    0.9919    2.7589   -0.2722 H   0  0  0  0  0  0  0  0  0  0  0  0
    2.7696    0.1002   -0.6593 C   0  0  2  0  0  3  0  0  0  0  0  0
    2.6180   -1.3576   -0.9987 C   0  0  0  0  0  0  0  0  0  0  0  0
   -4.1884   -0.8516   -0.4710 C   0  0  0  0  0  0  0  0  0  0  0  0
   -4.2272   -1.8867   -0.8661 H   0  0  0  0  0  0  0  0  0  0  0  0
   -4.8512   -0.1987   -1.0710 H   0  0  0  0  0  0  0  0  0  0  0  0
   -4.5755   -0.8737    0.5702 H   0  0  0  0  0  0  0  0  0  0  0  0
    4.1630    0.6491   -0.6671 C   0  0  0  0  0  0  0  0  0  0  0  0
    4.2566    1.5244   -1.3427 H   0  0  0  0  0  0  0  0  0  0  0  0
    4.8312   -0.1580   -1.0236 H   0  0  0  0  0  0  0  0  0  0  0  0
    4.4952    0.9695    0.3426 H   0  0  0  0  0  0  0  0  0  0  0  0
  3  9  2  0  0  0  0
  4 30  2  0  0  0  0
  5 11  1  0  0  0  0
  6  7  1  0  0  0  0
  6 20  1  0  0  0  0
  6 17  1  0  0  0  0
  8 26  1  0  0  0  0
  9  1  1  0  0  0  0
 10  9  1  1  0  0  0
 10 31  1  0  0  0  0
 10  5  1  0  0  0  0
 11 13  1  0  0  0  0
 11 14  1  0  0  0  0
 12 11  1  0  0  0  0
 14 17  1  0  0  0  0
 14 15  1  0  0  0  0
 16 14  1  0  0  0  0
 17 18  1  0  0  0  0
 19 17  1  0  0  0  0
 20 21  1  0  0  0  0
 22 20  1  0  0  0  0
 23 24  1  0  0  0  0
 23 25  1  0  0  0  0
 23 20  1  0  0  0  0
 26 23  1  0  0  0  0
 27 26  1  0  0  0  0
 28 26  1  0  0  0  0
 29 30  1  1  0  0  0
 29  8  1  0  0  0  0
 30  2  1  0  0  0  0
 31 34  1  0  0  0  0
 32 31  1  0  0  0  0
 33 31  1  0  0  0  0
 35 29  1  0  0  0  0
 35 38  1  0  0  0  0
 36 35  1  0  0  0  0
 37 35  1  0  0  0  0
M  END
