1,2,3,5,7
q = -2.0, confidence = 0.916

 41 43  0  0  1  0  0  0  0  0999 V2000
   -1.1451   -0.6518   -1.7812 S   0  0  0  0  0  1  0  0  0  0  0  0
    1.1461   -0.6571    1.7814 S   0  0  0  0  0  1  0  0  0  0  0  0
   -1.8116    0.2278    0.9203 N   0  0  0  0  0  0  0  0  0  0  0  0
   -1.6999    0.1526    1.9413 H   0  0  0  0  0  0  0  0  0  0  0  0
    1.8111    0.2311   -0.9180 N   0  0  0  0  0  0  0  0  0  0  0  0
    1.6987    0.1577   -1.9390 H   0  0  0  0  0  0  0  0  0  0  0  0
   -0.0016    1.8390    0.0015 N   0  0  0  0  0  2  0  0  0  0  0  0
   -2.5492   -1.2441   -0.8759 C   0  0  0  0  0  0  0  0  0  0  0  0
   -3.4721   -2.1757   -1.3963 C   0  0  0  0  0  0  0  0  0  0  0  0
   -3.3380   -2.5372   -2.4268 H   0  0  0  0  0  0  0  0  0  0  0  0
   -4.5230   -2.6590   -0.6014 C   0  0  0  0  0  0  0  0  0  0  0  0
   -5.2195   -3.4009   -1.0213 H   0  0  0  0  0  0  0  0  0  0  0  0
   -4.6862   -2.2192    0.7225 C   0  0  0  0  0  0  0  0  0  0  0  0
   -5.5023   -2.6111    1.3466 H   0  0  0  0  0  0  0  0  0  0  0  0
   -3.7928   -1.2671    1.2457 C   0  0  0  0  0  0  0  0  0  0  0  0
   -3.9105   -0.8958    2.2769 H   0  0  0  0  0  0  0  0  0  0  0  0
   -2.7428   -0.7934    0.4541 C   0  0  0  0  0  0  0  0  0  0  0  0
   -2.3032    1.6056    0.5730 C   0  0  0  0  0  0  0  0  0  0  0  0
   -3.0261    1.9860    1.3253 H   0  0  0  0  0  0  0  0  0  0  0  0
   -2.8487    1.4959   -0.3883 H   0  0  0  0  0  0  0  0  0  0  0  0
    2.5514   -1.2441    0.8744 C   0  0  0  0  0  0  0  0  0  0  0  0
    3.4760   -2.1754    1.3923 C   0  0  0  0  0  0  0  0  0  0  0  0
    3.3425   -2.5399    2.4219 H   0  0  0  0  0  0  0  0  0  0  0  0
    4.5277   -2.6547    0.5962 C   0  0  0  0  0  0  0  0  0  0  0  0
    5.2256   -3.3966    1.0141 H   0  0  0  0  0  0  0  0  0  0  0  0
    4.6902   -2.2111   -0.7265 C   0  0  0  0  0  0  0  0  0  0  0  0
    5.5071   -2.5998   -1.3516 H   0  0  0  0  0  0  0  0  0  0  0  0
    3.7951   -1.2592   -1.2471 C   0  0  0  0  0  0  0  0  0  0  0  0
    3.9123   -0.8848   -2.2773 H   0  0  0  0  0  0  0  0  0  0  0  0
    2.7442   -0.7895   -0.4544 C   0  0  0  0  0  0  0  0  0  0  0  0
    2.3004    1.6089   -0.5683 C   0  0  0  0  0  0  0  0  0  0  0  0
    3.0254    1.9907   -1.3178 H   0  0  0  0  0  0  0  0  0  0  0  0
    2.8428    1.4988    0.3948 H   0  0  0  0  0  0  0  0  0  0  0  0
   -1.1363    2.5290    0.3606 C   0  0  2  0  0  3  0  0  0  0  0  0
   -1.1540    3.9213    0.3816 C   0  0  0  0  0  0  0  0  0  0  0  0
   -2.0751    4.4432    0.6817 H   0  0  0  0  0  0  0  0  0  0  0  0
   -0.0044    4.6427   -0.0009 C   0  0  0  0  0  0  0  0  0  0  0  0
   -0.0055    5.7411   -0.0019 H   0  0  0  0  0  0  0  0  0  0  0  0
    1.1468    3.9230   -0.3820 C   0  0  0  0  0  0  0  0  0  0  0  0
    2.0669    4.4462   -0.6828 H   0  0  0  0  0  0  0  0  0  0  0  0
    1.1319    2.5308   -0.3586 C   0  0  0  0  0  0  0  0  0  0  0  0
  1  8  1  0  0  0  0
  3  4  1  0  0  0  0
  5 31  1  0  0  0  0
  5 30  1  0  0  0  0
  6  5  1  0  0  0  0
  7 34  1  0  0  0  0
  8 17  1  0  0  0  0
  9  8  2  0  0  0  0
  9 11  1  0  0  0  0
 10  9  1  0  0  0  0
 11 13  2  0  0  0  0
 12 11  1  0  0  0  0
 13 15  1  0  0  0  0
 13 14  1  0  0  0  0
 15 16  1  0  0  0  0
 17  3  1  0  0  0  0
 17 15  2  0  0  0  0
 18  3  1  0  0  0  0
 18 19  1  0  0  0  0
 20 18  1  0  0  0  0
 21 22  1  0  0  0  0
 21  2  1  0  0  0  0
 22 23  1  0  0  0  0
 24 25  1  0  0  0  0
 24 22  2  0  0  0  0
 26 24  1  0  0  0  0
 27 26  1  0  0  0  0
 28 26  2  0  0  0  0
 28 30  1  0  0  0  0
 29 28  1  0  0  0  0
 30 21  2  0  0  0  0
 31 41  1  0  0  0  0
 31 33  1  0  0  0  0
 32 31  1  0  0  0  0
 34 35  1  0  0  0  0
 34 18  1  6  0  0  0
 35 36  1  0  0  0  0
 37 35  2  0  0  0  0
 38 37  1  0  0  0  0
 39 41  2  0  0  0  0
 39 37  1  0  0  0  0
 40 39  1  0  0  0  0
 41  7  1  0  0  0  0
M  END
