1,2,3,4,5
q = 0.0, confidence = 0.998

 45 48  0  0  0  0  0  0  0  0999 V2000
    1.9601    2.4334   -0.7902 S   0  0  0  0  0  0  0  0  0  0  0  0
    1.9606   -2.4330   -0.7903 S   0  0  0  0  0  0  0  0  0  0  0  0
   -0.9341    1.3742   -0.5162 N   0  0  0  0  0  2  0  0  0  0  0  0
   -0.9338   -1.3744   -0.5162 N   0  0  0  0  0  2  0  0  0  0  0  0
    2.0414    0.0002    1.5126 N   0  0  0  0  0  0  0  0  0  0  0  0
    0.4003    3.3690   -0.9937 C   0  0  0  0  0  0  0  0  0  0  0  0
    0.5220    4.3717   -0.5376 H   0  0  0  0  0  0  0  0  0  0  0  0
    0.3321    3.5292   -2.0917 H   0  0  0  0  0  0  0  0  0  0  0  0
   -0.8732    2.7014   -0.4991 C   0  0  0  0  0  0  0  0  0  0  0  0
   -1.9811    3.4860   -0.0762 C   0  0  0  0  0  0  0  0  0  0  0  0
   -1.9088    4.5838   -0.0643 H   0  0  0  0  0  0  0  0  0  0  0  0
   -3.1529    2.8468    0.3121 C   0  0  0  0  0  0  0  0  0  0  0  0
   -4.0262    3.4320    0.6389 H   0  0  0  0  0  0  0  0  0  0  0  0
   -3.2261    1.4276    0.3006 C   0  0  0  0  0  0  0  0  0  0  0  0
   -2.0549    0.7279   -0.1263 C   0  0  0  0  0  0  0  0  0  0  0  0
   -2.0548   -0.7283   -0.1263 C   0  0  0  0  0  0  0  0  0  0  0  0
   -3.2258   -1.4282    0.3006 C   0  0  0  0  0  0  0  0  0  0  0  0
   -4.3902   -0.6883    0.7062 C   0  0  0  0  0  0  0  0  0  0  0  0
   -5.2845   -1.2452    1.0242 H   0  0  0  0  0  0  0  0  0  0  0  0
   -4.3904    0.6874    0.7062 C   0  0  0  0  0  0  0  0  0  0  0  0
   -5.2848    1.2441    1.0242 H   0  0  0  0  0  0  0  0  0  0  0  0
   -3.1523   -2.8475    0.3122 C   0  0  0  0  0  0  0  0  0  0  0  0
   -4.0254   -3.4328    0.6390 H   0  0  0  0  0  0  0  0  0  0  0  0
   -1.9803   -3.4864   -0.0761 C   0  0  0  0  0  0  0  0  0  0  0  0
   -1.9077   -4.5841   -0.0642 H   0  0  0  0  0  0  0  0  0  0  0  0
   -0.8726   -2.7015   -0.4991 C   0  0  0  0  0  0  0  0  0  0  0  0
    0.4010   -3.3689   -0.9938 C   0  0  0  0  0  0  0  0  0  0  0  0
    0.3328   -3.5290   -2.0918 H   0  0  0  0  0  0  0  0  0  0  0  0
    0.5229   -4.3716   -0.5378 H   0  0  0  0  0  0  0  0  0  0  0  0
    2.1580   -2.4757    1.0476 C   0  0  0  0  0  0  0  0  0  0  0  0
    1.1536   -2.6144    1.4950 H   0  0  0  0  0  0  0  0  0  0  0  0
    2.7666   -3.3666    1.2996 H   0  0  0  0  0  0  0  0  0  0  0  0
    2.8470   -1.2232    1.5977 C   0  0  0  0  0  0  0  0  0  0  0  0
    3.7932   -1.0553    1.0430 H   0  0  0  0  0  0  0  0  0  0  0  0
    3.1384   -1.4416    2.6561 H   0  0  0  0  0  0  0  0  0  0  0  0
    2.8466    1.2238    1.5979 C   0  0  0  0  0  0  0  0  0  0  0  0
    3.7929    1.0562    1.0432 H   0  0  0  0  0  0  0  0  0  0  0  0
    3.1379    1.4421    2.6563 H   0  0  0  0  0  0  0  0  0  0  0  0
    2.1573    2.4761    1.0477 C   0  0  0  0  0  0  0  0  0  0  0  0
    2.7655    3.3671    1.2999 H   0  0  0  0  0  0  0  0  0  0  0  0
    1.1528    2.6144    1.4950 H   0  0  0  0  0  0  0  0  0  0  0  0
    0.9316   -0.0001    2.4667 C   0  0  0  0  0  0  0  0  0  0  0  0
    0.2886    0.8866    2.3119 H   0  0  0  0  0  0  0  0  0  0  0  0
    1.2868   -0.0003    3.5264 H   0  0  0  0  0  0  0  0  0  0  0  0
    0.2886   -0.8866    2.3115 H   0  0  0  0  0  0  0  0  0  0  0  0
  1 39  1  0  0  0  0
  2 30  1  0  0  0  0
  3  9  1  0  0  0  0
  3 15  1  0  0  0  0
  4 26  1  0  0  0  0
  4 16  1  0  0  0  0
  5 33  1  0  0  0  0
  5 36  1  0  0  0  0
  5 42  1  0  0  0  0
  6  1  1  0  0  0  0
  6  7  1  0  0  0  0
  6  9  1  0  0  0  0
  8  6  1  0  0  0  0
  9 10  2  0  0  0  0
 10 11  1  0  0  0  0
 10 12  1  0  0  0  0
 12 13  1  0  0  0  0
 14 12  2  0  0  0  0
 14 20  1  0  0  0  0
 15 16  2  0  0  0  0
 15 14  1  0  0  0  0
 16 17  1  0  0  0  0
 17 22  2  0  0  0  0
 17 18  1  0  0  0  0
 18 19  1  0  0  0  0
 20 18  2  0  0  0  0
 20 21  1  0  0  0  0
 22 23  1  0  0  0  0
 24 25  1  0  0  0  0
 24 22  1  0  0  0  0
 26 24  2  0  0  0  0
 27  2  1  0  0  0  0
 27 29  1  0  0  0  0
 27 26  1  0  0  0  0
 28 27  1  0  0  0  0
 30 32  1  0  0  0  0
 30 31  1  0  0  0  0
 30 33  1  0  0  0  0
 33 35  1  0  0  0  0
 34 33  1  0  0  0  0
 36 38  1  0  0  0  0
 37 36  1  0  0  0  0
 39 40  1  0  0  0  0
 39 41  1  0  0  0  0
 39 36  1  0  0  0  0
 42 44  1  0  0  0  0
 43 42  1  0  0  0  0
 45 42  1  0  0  0  0
M  END
