1,7,13,18,21
q = 0.0, confidence = 0.988

 48 49  0  0  1  0  0  0  0  0999 V2000
    2.0275    0.3518   -0.3774 N   0  0  0  0  0  2  0  0  0  0  0  0
    2.8652   -0.6720   -0.6159 C   0  0  1  0  0  3  0  0  0  0  0  0
    4.1734   -0.4409   -1.0916 C   0  0  0  0  0  0  0  0  0  0  0  0
    4.5876    0.8781   -1.3096 C   0  0  0  0  0  0  0  0  0  0  0  0
    2.3363   -2.0529   -0.3454 C   0  0  1  0  0  3  0  0  0  0  0  0
    3.2987   -3.1842   -0.0921 C   0  0  0  0  0  0  0  0  0  0  0  0
    1.0520   -2.1763   -0.3019 N   0  0  0  0  0  2  0  0  0  0  0  0
    0.4068   -3.4329    0.0053 C   0  0  0  0  0  0  0  0  0  0  0  0
   -0.9631   -3.5383   -0.6740 C   0  0  0  0  0  0  0  0  0  0  0  0
   -2.1148   -2.2427   -0.0658 S   0  0  0  0  0  0  0  0  0  0  0  0
   -2.9737   -1.7264   -1.5925 C   0  0  0  0  0  0  0  0  0  0  0  0
   -2.1376   -1.0901   -2.7088 C   0  0  0  0  0  0  0  0  0  0  0  0
   -1.0330    0.3061   -2.2957 S   0  0  0  0  0  0  0  0  0  0  0  0
    2.4165    1.6268   -0.5460 C   0  0  0  0  0  0  0  0  0  0  0  0
    3.7102    1.9305   -1.0220 C   0  0  0  0  0  0  0  0  0  0  0  0
    1.4358    2.7036   -0.1678 C   0  0  2  0  0  3  0  0  0  0  0  0
    1.9086    4.1308   -0.2595 C   0  0  0  0  0  0  0  0  0  0  0  0
    0.2635    2.3293    0.2241 N   0  0  0  0  0  2  0  0  0  0  0  0
   -0.7448    3.2737    0.6642 C   0  0  0  0  0  0  0  0  0  0  0  0
   -1.8871    2.6106    1.4363 C   0  0  0  0  0  0  0  0  0  0  0  0
   -2.7075    1.1864    0.6363 S   0  0  0  0  0  0  0  0  0  0  0  0
   -3.1898    1.7855   -1.0229 C   0  0  0  0  0  0  0  0  0  0  0  0
   -2.1394    1.7532   -2.1458 C   0  0  0  0  0  0  0  0  0  0  0  0
    4.8539   -1.2759   -1.3037 H   0  0  0  0  0  0  0  0  0  0  0  0
    5.5972    1.0866   -1.6928 H   0  0  0  0  0  0  0  0  0  0  0  0
    3.1589   -4.0055   -0.8254 H   0  0  0  0  0  0  0  0  0  0  0  0
    4.3561   -2.8732   -0.1188 H   0  0  0  0  0  0  0  0  0  0  0  0
    3.1034   -3.6108    0.9134 H   0  0  0  0  0  0  0  0  0  0  0  0
    1.0114   -4.3178   -0.2922 H   0  0  0  0  0  0  0  0  0  0  0  0
    0.2834   -3.4872    1.1129 H   0  0  0  0  0  0  0  0  0  0  0  0
   -0.8487   -3.4340   -1.7715 H   0  0  0  0  0  0  0  0  0  0  0  0
   -1.4078   -4.5314   -0.4667 H   0  0  0  0  0  0  0  0  0  0  0  0
   -3.5098   -2.6051   -2.0091 H   0  0  0  0  0  0  0  0  0  0  0  0
   -3.7567   -1.0363   -1.2212 H   0  0  0  0  0  0  0  0  0  0  0  0
   -1.4426   -1.8350   -3.1481 H   0  0  0  0  0  0  0  0  0  0  0  0
   -2.8044   -0.7683   -3.5365 H   0  0  0  0  0  0  0  0  0  0  0  0
    4.0341    2.9691   -1.1646 H   0  0  0  0  0  0  0  0  0  0  0  0
    2.8010    4.2916    0.3792 H   0  0  0  0  0  0  0  0  0  0  0  0
    2.2100    4.3735   -1.2992 H   0  0  0  0  0  0  0  0  0  0  0  0
    1.1345    4.8551    0.0444 H   0  0  0  0  0  0  0  0  0  0  0  0
   -1.1550    3.8212   -0.2154 H   0  0  0  0  0  0  0  0  0  0  0  0
   -0.3121    4.0560    1.3275 H   0  0  0  0  0  0  0  0  0  0  0  0
   -2.6509    3.3690    1.7002 H   0  0  0  0  0  0  0  0  0  0  0  0
   -1.5065    2.1553    2.3763 H   0  0  0  0  0  0  0  0  0  0  0  0
   -3.5930    2.8160   -0.9299 H   0  0  0  0  0  0  0  0  0  0  0  0
   -4.0562    1.1489   -1.2921 H   0  0  0  0  0  0  0  0  0  0  0  0
   -1.4160    2.5858   -2.0423 H   0  0  0  0  0  0  0  0  0  0  0  0
   -2.6461    1.8950   -3.1234 H   0  0  0  0  0  0  0  0  0  0  0  0
  2  3  1  1  0  0  0
  2  1  1  0  0  0  0
  2  5  1  0  0  0  0
  4  3  2  0  0  0  0
  4 15  1  0  0  0  0
  5  7  1  0  0  0  0
  5  6  1  1  0  0  0
  6 28  1  0  0  0  0
  7  8  1  0  0  0  0
  8 30  1  0  0  0  0
  9 32  1  0  0  0  0
  9 10  1  0  0  0  0
  9  8  1  0  0  0  0
 11 34  1  0  0  0  0
 11 10  1  0  0  0  0
 12 13  1  0  0  0  0
 12 11  1  0  0  0  0
 13 23  1  0  0  0  0
 14  1  1  0  0  0  0
 14 16  1  0  0  0  0
 15 14  2  0  0  0  0
 16 17  1  1  0  0  0
 16 18  1  0  0  0  0
 17 40  1  0  0  0  0
 17 38  1  0  0  0  0
 18 19  1  0  0  0  0
 19 42  1  0  0  0  0
 19 20  1  0  0  0  0
 20 43  1  0  0  0  0
 20 44  1  0  0  0  0
 21 20  1  0  0  0  0
 22 45  1  0  0  0  0
 22 21  1  0  0  0  0
 23 47  1  0  0  0  0
 23 22  1  0  0  0  0
 24  3  1  0  0  0  0
 25  4  1  0  0  0  0
 26  6  1  0  0  0  0
 27  6  1  0  0  0  0
 29  8  1  0  0  0  0
 31  9  1  0  0  0  0
 33 11  1  0  0  0  0
 35 12  1  0  0  0  0
 36 12  1  0  0  0  0
 37 15  1  0  0  0  0
 39 17  1  0  0  0  0
 41 19  1  0  0  0  0
 46 22  1  0  0  0  0
 48 23  1  0  0  0  0
M  END
