1,2,3,4,7
q = -1.0, confidence = 0.05

 59 62  0  0  0  0  0  0  0  0999 V2000
    1.2355   -1.9057    1.2563 S   0  0  0  0  0  0  0  0  0  0  0  0
   -1.7634   -1.1249    1.8180 S   0  0  0  0  0  0  0  0  0  0  0  0
    1.1237    1.1026    2.0970 N   0  0  0  0  0  2  0  0  0  0  0  0
    1.1730    0.2111   -0.7180 N   0  0  0  0  0  2  0  0  0  0  0  0
    1.1588    1.2656   -1.4510 N   0  0  0  0  0  0  0  0  0  0  0  0
   -1.0555    1.9848   -0.8540 N   0  0  0  0  0  2  0  0  0  0  0  0
   -1.3321    1.0100   -0.0741 N   0  0  0  0  0  2  0  0  0  0  0  0
   -0.6630   -2.5197   -1.0373 N   0  0  0  0  0  0  0  0  0  0  0  0
   -0.6088    4.2416   -2.2416 O   0  0  0  0  0  0  0  0  0  0  0  0
    1.1940    2.4265    1.8817 C   0  0  0  0  0  3  0  0  0  0  0  0
    0.2472    2.9328    1.6270 H   0  0  0  0  0  0  0  0  0  0  0  0
    2.3959    3.1491    1.9570 C   0  0  0  0  0  0  0  0  0  0  0  0
    2.4022    4.2322    1.7680 H   0  0  0  0  0  0  0  0  0  0  0  0
    3.5716    2.4558    2.2711 C   0  0  0  0  0  0  0  0  0  0  0  0
    4.5359    2.9819    2.3318 H   0  0  0  0  0  0  0  0  0  0  0  0
    3.5019    1.0727    2.5087 C   0  0  0  0  0  0  0  0  0  0  0  0
    4.4033    0.4973    2.7660 H   0  0  0  0  0  0  0  0  0  0  0  0
    2.2555    0.4351    2.4167 C   0  0  0  0  0  0  0  0  0  0  0  0
    2.0912   -1.0410    2.6640 C   0  0  0  0  0  0  0  0  0  0  0  0
    1.4105   -1.2266    3.5212 H   0  0  0  0  0  0  0  0  0  0  0  0
    3.0491   -1.5606    2.8537 H   0  0  0  0  0  0  0  0  0  0  0  0
    2.4449   -1.7383   -0.0421 C   0  0  0  0  0  0  0  0  0  0  0  0
    3.5001   -2.6488   -0.1881 C   0  0  0  0  0  0  0  0  0  0  0  0
    3.5891   -3.5005    0.5024 H   0  0  0  0  0  0  0  0  0  0  0  0
    4.4267   -2.4618   -1.2244 C   0  0  0  0  0  0  0  0  0  0  0  0
    5.2561   -3.1721   -1.3527 H   0  0  0  0  0  0  0  0  0  0  0  0
    4.2826   -1.3709   -2.1024 C   0  0  0  0  0  0  0  0  0  0  0  0
    5.0070   -1.2278   -2.9179 H   0  0  0  0  0  0  0  0  0  0  0  0
    3.2246   -0.4664   -1.9617 C   0  0  0  0  0  0  0  0  0  0  0  0
    3.1000    0.3845   -2.6439 H   0  0  0  0  0  0  0  0  0  0  0  0
    2.2874   -0.6476   -0.9221 C   0  0  0  0  0  0  0  0  0  0  0  0
    0.1412    2.1433   -1.4510 C   0  0  0  0  0  0  0  0  0  0  0  0
    0.2915    3.4161   -2.2468 C   0  0  0  0  0  0  0  0  0  0  0  0
    1.5856    3.5983   -3.0067 C   0  0  0  0  0  0  0  0  0  0  0  0
    1.5784    4.5849   -3.5025 H   0  0  0  0  0  0  0  0  0  0  0  0
    1.7064    2.7974   -3.7650 H   0  0  0  0  0  0  0  0  0  0  0  0
    2.4566    3.5177   -2.3250 H   0  0  0  0  0  0  0  0  0  0  0  0
   -2.6943    0.9613    0.3446 C   0  0  0  0  0  0  0  0  0  0  0  0
   -3.6649    1.8800   -0.1087 C   0  0  0  0  0  0  0  0  0  0  0  0
   -3.3536    2.6715   -0.8043 H   0  0  0  0  0  0  0  0  0  0  0  0
   -4.9829    1.7568    0.3416 C   0  0  0  0  0  0  0  0  0  0  0  0
   -5.7404    2.4713   -0.0131 H   0  0  0  0  0  0  0  0  0  0  0  0
   -5.3510    0.7396    1.2441 C   0  0  0  0  0  0  0  0  0  0  0  0
   -6.3899    0.6598    1.5955 H   0  0  0  0  0  0  0  0  0  0  0  0
   -4.3859   -0.1630    1.7134 C   0  0  0  0  0  0  0  0  0  0  0  0
   -4.6522   -0.9451    2.4401 H   0  0  0  0  0  0  0  0  0  0  0  0
   -3.0659   -0.0494    1.2527 C   0  0  0  0  0  0  0  0  0  0  0  0
   -2.1470   -2.6871    0.8602 C   0  0  0  0  0  0  0  0  0  0  0  0
   -1.4310   -3.4267    1.2673 H   0  0  0  0  0  0  0  0  0  0  0  0
   -3.1795   -2.9738    1.1342 H   0  0  0  0  0  0  0  0  0  0  0  0
   -1.9444   -2.4830   -0.6118 C   0  0  0  0  0  0  0  0  0  0  0  0
   -3.0208   -2.2006   -1.4707 C   0  0  0  0  0  0  0  0  0  0  0  0
   -4.0494   -2.1712   -1.0819 H   0  0  0  0  0  0  0  0  0  0  0  0
   -2.7525   -1.9562   -2.8267 C   0  0  0  0  0  0  0  0  0  0  0  0
   -3.5717   -1.7282   -3.5247 H   0  0  0  0  0  0  0  0  0  0  0  0
   -1.4256   -2.0137   -3.2726 C   0  0  0  0  0  0  0  0  0  0  0  0
   -1.1701   -1.8388   -4.3277 H   0  0  0  0  0  0  0  0  0  0  0  0
   -0.4174   -2.3040   -2.3377 C   0  0  0  0  0  0  0  0  0  0  0  0
    0.6405   -2.3526   -2.6494 H   0  0  0  0  0  0  0  0  0  0  0  0
  1 19  1  0  0  0  0
  3 18  1  0  0  0  0
  5 32  2  0  0  0  0
  5  4  1  0  0  0  0
  6  7  1  0  0  0  0
  7 38  1  0  0  0  0
  8 51  1  0  0  0  0
 10 12  1  0  0  0  0
 10  3  1  0  0  0  0
 11 10  1  0  0  0  0
 12 14  2  0  0  0  0
 13 12  1  0  0  0  0
 14 15  1  0  0  0  0
 14 16  1  0  0  0  0
 16 17  1  0  0  0  0
 18 16  2  0  0  0  0
 18 19  1  0  0  0  0
 19 21  1  0  0  0  0
 19 20  1  0  0  0  0
 22  1  1  0  0  0  0
 23 22  1  0  0  0  0
 23 24  1  0  0  0  0
 25 23  2  0  0  0  0
 26 25  1  0  0  0  0
 27 29  2  0  0  0  0
 27 25  1  0  0  0  0
 28 27  1  0  0  0  0
 29 31  1  0  0  0  0
 30 29  1  0  0  0  0
 31  4  1  0  0  0  0
 31 22  2  0  0  0  0
 32  6  1  0  0  0  0
 33  9  2  0  0  0  0
 33 32  1  0  0  0  0
 34 37  1  0  0  0  0
 34 33  1  0  0  0  0
 35 34  1  0  0  0  0
 36 34  1  0  0  0  0
 38 47  1  0  0  0  0
 39 41  1  0  0  0  0
 39 38  2  0  0  0  0
 40 39  1  0  0  0  0
 41 43  2  0  0  0  0
 42 41  1  0  0  0  0
 43 44  1  0  0  0  0
 43 45  1  0  0  0  0
 45 46  1  0  0  0  0
 47 45  2  0  0  0  0
 47  2  1  0  0  0  0
 48 50  1  0  0  0  0
 48 49  1  0  0  0  0
 48  2  1  0  0  0  0
 51 48  1  0  0  0  0
 52 53  1  0  0  0  0
 52 51  2  0  0  0  0
 54 52  1  0  0  0  0
 55 54  1  0  0  0  0
 56 54  2  0  0  0  0
 56 58  1  0  0  0  0
 57 56  1  0  0  0  0
 58  8  2  0  0  0  0
 59 58  1  0  0  0  0
M  END
