1,2,7,8,10
q = -2.0, confidence = 0.978

 52 55  0  0  1  0  0  0  0  0999 V2000
   -0.8227   -1.8033    1.6067 S   0  0  0  0  0  0  0  0  0  0  0  0
    0.6368   -1.5511   -1.4533 S   0  0  0  0  0  0  0  0  0  0  0  0
   -3.0422    1.3288   -2.1332 O   0  0  0  0  0  0  0  0  0  0  0  0
    3.2388    1.1236    2.1966 O   0  0  0  0  0  0  0  0  0  0  0  0
    0.4757    1.5085   -1.7880 N   0  0  0  0  0  0  0  0  0  0  0  0
   -0.0551    4.2253   -2.3266 N   0  0  0  0  0  0  0  0  0  0  0  0
   -1.7222    0.0545   -0.6714 N   0  0  0  0  0  2  0  0  0  0  0  0
    1.8471   -0.0267    0.6855 N   0  0  0  0  0  2  0  0  0  0  0  0
   -0.1541    3.5171    3.1438 N   0  0  0  0  0  0  0  0  0  0  0  0
   -0.1715    1.4628    1.2178 N   0  0  0  0  0  2  0  0  0  0  0  0
    1.4671    2.3982   -1.9705 C   0  0  0  0  0  0  0  0  0  0  0  0
    2.5013    2.0147   -1.9264 H   0  0  0  0  0  0  0  0  0  0  0  0
    1.1979    3.7568   -2.2058 C   0  0  0  0  0  0  0  0  0  0  0  0
    2.0234    4.4826   -2.3153 H   0  0  0  0  0  0  0  0  0  0  0  0
   -1.0418    3.3273   -2.1740 C   0  0  0  0  0  0  0  0  0  0  0  0
   -2.0840    3.6676   -2.2921 H   0  0  0  0  0  0  0  0  0  0  0  0
   -0.7868    1.9768   -1.8591 C   0  0  0  0  0  0  0  0  0  0  0  0
   -1.9612    1.0607   -1.5875 C   0  0  0  0  0  0  0  0  0  0  0  0
   -2.7168   -0.8280   -0.2306 C   0  0  0  0  0  0  0  0  0  0  0  0
   -4.0330   -0.8811   -0.7786 C   0  0  0  0  0  0  0  0  0  0  0  0
   -4.2715   -0.1913   -1.5943 H   0  0  0  0  0  0  0  0  0  0  0  0
   -4.9912   -1.7718   -0.2863 C   0  0  0  0  0  0  0  0  0  0  0  0
   -5.9924   -1.7737   -0.7445 H   0  0  0  0  0  0  0  0  0  0  0  0
   -4.7034   -2.6482    0.7726 C   0  0  0  0  0  0  0  0  0  0  0  0
   -5.4657   -3.3384    1.1624 H   0  0  0  0  0  0  0  0  0  0  0  0
   -3.4204   -2.6210    1.3288 C   0  0  0  0  0  0  0  0  0  0  0  0
   -3.1551   -3.2858    2.1651 H   0  0  0  0  0  0  0  0  0  0  0  0
   -2.4367   -1.7446    0.8355 C   0  0  0  0  0  0  0  0  0  0  0  0
   -0.0524   -3.2215    0.7195 C   0  0  0  0  0  0  0  0  0  0  0  0
    0.9942   -3.2484    1.0885 H   0  0  0  0  0  0  0  0  0  0  0  0
   -0.5584   -4.1541    1.0436 H   0  0  0  0  0  0  0  0  0  0  0  0
   -0.1054   -3.1063   -0.7923 C   0  0  0  0  0  0  0  0  0  0  0  0
   -1.1519   -3.0881   -1.1612 H   0  0  0  0  0  0  0  0  0  0  0  0
    0.4184   -3.9550   -1.2776 H   0  0  0  0  0  0  0  0  0  0  0  0
    2.3414   -1.7378   -0.9248 C   0  0  0  0  0  0  0  0  0  0  0  0
    3.1972   -2.6358   -1.5773 C   0  0  0  0  0  0  0  0  0  0  0  0
    2.8150   -3.2415   -2.4137 H   0  0  0  0  0  0  0  0  0  0  0  0
    4.5307   -2.7464   -1.1607 C   0  0  0  0  0  0  0  0  0  0  0  0
    5.2104   -3.4511   -1.6615 H   0  0  0  0  0  0  0  0  0  0  0  0
    4.9856   -1.9346   -0.1058 C   0  0  0  0  0  0  0  0  0  0  0  0
    6.0327   -2.0101    0.2257 H   0  0  0  0  0  0  0  0  0  0  0  0
    4.1421   -1.0224    0.5378 C   0  0  0  0  0  0  0  0  0  0  0  0
    4.4993   -0.3843    1.3539 H   0  0  0  0  0  0  0  0  0  0  0  0
    2.7819   -0.9020    0.1374 C   0  0  0  0  0  0  0  0  0  0  0  0
    2.1544    0.9219    1.6359 C   0  0  0  0  0  0  0  0  0  0  0  0
    0.9468    1.7515    1.9358 C   0  0  1  0  0  3  0  0  0  0  0  0
    0.9359    2.7779    2.8911 C   0  0  0  0  0  0  0  0  0  0  0  0
    1.8651    2.9811    3.4499 H   0  0  0  0  0  0  0  0  0  0  0  0
   -1.2522    3.2120    2.4290 C   0  0  0  0  0  0  0  0  0  0  0  0
   -2.1627    3.8065    2.6165 H   0  0  0  0  0  0  0  0  0  0  0  0
   -1.2825    2.1900    1.4704 C   0  0  0  0  0  0  0  0  0  0  0  0
   -2.1901    1.9466    0.8999 H   0  0  0  0  0  0  0  0  0  0  0  0
  2 35  1  0  0  0  0
  2 32  1  0  0  0  0
  3 18  2  0  0  0  0
  6 13  2  0  0  0  0
  6 15  1  0  0  0  0
  7 19  1  0  0  0  0
  8 45  1  0  0  0  0
 10 51  1  0  0  0  0
 10 46  1  0  0  0  0
 11 12  1  0  0  0  0
 11  5  2  0  0  0  0
 13 11  1  0  0  0  0
 14 13  1  0  0  0  0
 15 17  2  0  0  0  0
 16 15  1  0  0  0  0
 17  5  1  0  0  0  0
 17 18  1  0  0  0  0
 18  7  1  0  0  0  0
 19 28  1  0  0  0  0
 20 22  1  0  0  0  0
 20 19  2  0  0  0  0
 21 20  1  0  0  0  0
 22 24  2  0  0  0  0
 23 22  1  0  0  0  0
 24 25  1  0  0  0  0
 24 26  1  0  0  0  0
 26 27  1  0  0  0  0
 28 26  2  0  0  0  0
 28  1  1  0  0  0  0
 29 31  1  0  0  0  0
 29 30  1  0  0  0  0
 29  1  1  0  0  0  0
 32 29  1  0  0  0  0
 33 32  1  0  0  0  0
 34 32  1  0  0  0  0
 35 44  1  0  0  0  0
 36 38  1  0  0  0  0
 36 35  2  0  0  0  0
 37 36  1  0  0  0  0
 38 40  2  0  0  0  0
 39 38  1  0  0  0  0
 40 41  1  0  0  0  0
 40 42  1  0  0  0  0
 42 43  1  0  0  0  0
 44 42  2  0  0  0  0
 44  8  1  0  0  0  0
 45  4  2  0  0  0  0
 46 45  1  6  0  0  0
 46 47  1  0  0  0  0
 47  9  2  0  0  0  0
 47 48  1  0  0  0  0
 49 50  1  0  0  0  0
 49  9  1  0  0  0  0
 51 49  2  0  0  0  0
 52 51  1  0  0  0  0
M  END
