1,2,3,5,7
 OpenBabel05122313063D

 46 47  0  0  0  0  0  0  0  0999 V2000
   -1.7612    1.4734   -0.8933 S   0  0  0  0  0  1  0  0  0  0  0  0
    1.6263   -1.2513   -1.3126 S   0  0  0  0  0  1  0  0  0  0  0  0
   -1.0942   -1.5394   -0.4160 N   0  0  0  0  0  0  0  0  0  0  0  0
   -0.4894   -2.2419   -0.8755 H   0  0  0  0  0  0  0  0  0  0  0  0
   -0.0059    0.0702    1.7159 N   0  0  0  0  0  0  0  0  0  0  0  0
   -0.8780    0.5105    2.0263 H   0  0  0  0  0  0  0  0  0  0  0  0
    1.1036    1.6889   -0.4740 N   0  0  0  0  0  0  0  0  0  0  0  0
    0.5748    2.4163   -0.9813 H   0  0  0  0  0  0  0  0  0  0  0  0
   -3.2131    0.7081   -0.2688 C   0  0  0  0  0  0  0  0  0  0  0  0
   -4.2175    1.4980    0.3461 C   0  0  0  0  0  0  0  0  0  0  0  0
   -4.0370    2.5784    0.4530 H   0  0  0  0  0  0  0  0  0  0  0  0
   -5.4089    0.9269    0.8061 C   0  0  0  0  0  0  0  0  0  0  0  0
   -6.1712    1.5670    1.2772 H   0  0  0  0  0  0  0  0  0  0  0  0
   -5.6297   -0.4558    0.6787 C   0  0  0  0  0  0  0  0  0  0  0  0
   -6.5604   -0.9118    1.0472 H   0  0  0  0  0  0  0  0  0  0  0  0
   -4.6435   -1.2490    0.0742 C   0  0  0  0  0  0  0  0  0  0  0  0
   -4.8047   -2.3343   -0.0346 H   0  0  0  0  0  0  0  0  0  0  0  0
   -3.4471   -0.6915   -0.4135 C   0  0  0  0  0  0  0  0  0  0  0  0
   -2.4261   -1.5591   -1.0960 C   0  0  0  0  0  0  0  0  0  0  0  0
   -2.8045   -2.6044   -1.1420 H   0  0  0  0  0  0  0  0  0  0  0  0
   -2.2430   -1.2027   -2.1311 H   0  0  0  0  0  0  0  0  0  0  0  0
   -1.1777   -1.9182    1.0280 C   0  0  0  0  0  0  0  0  0  0  0  0
   -1.2542   -3.0224    1.1324 H   0  0  0  0  0  0  0  0  0  0  0  0
   -2.1231   -1.4907    1.4205 H   0  0  0  0  0  0  0  0  0  0  0  0
   -0.0047   -1.3695    1.8446 C   0  0  0  0  0  0  0  0  0  0  0  0
   -0.1006   -1.7522    2.8936 H   0  0  0  0  0  0  0  0  0  0  0  0
    0.9550   -1.7532    1.4390 H   0  0  0  0  0  0  0  0  0  0  0  0
    1.1645    0.8927    1.9218 C   0  0  0  0  0  0  0  0  0  0  0  0
    2.0666    0.2836    1.7190 H   0  0  0  0  0  0  0  0  0  0  0  0
    1.2744    1.2859    2.9636 H   0  0  0  0  0  0  0  0  0  0  0  0
    1.1051    2.0920    0.9646 C   0  0  0  0  0  0  0  0  0  0  0  0
    0.1517    2.6343    1.1337 H   0  0  0  0  0  0  0  0  0  0  0  0
    1.9447    2.7936    1.1667 H   0  0  0  0  0  0  0  0  0  0  0  0
    2.4686    1.6516   -1.0867 C   0  0  0  0  0  0  0  0  0  0  0  0
    2.9095    2.6722   -1.0471 H   0  0  0  0  0  0  0  0  0  0  0  0
    2.3127    1.3632   -2.1475 H   0  0  0  0  0  0  0  0  0  0  0  0
    3.4002    0.6731   -0.4336 C   0  0  0  0  0  0  0  0  0  0  0  0
    4.5659    1.0986    0.2261 C   0  0  0  0  0  0  0  0  0  0  0  0
    4.7861    2.1776    0.2793 H   0  0  0  0  0  0  0  0  0  0  0  0
    5.4515    0.1747    0.8028 C   0  0  0  0  0  0  0  0  0  0  0  0
    6.3614    0.5232    1.3134 H   0  0  0  0  0  0  0  0  0  0  0  0
    5.1628   -1.1984    0.7159 C   0  0  0  0  0  0  0  0  0  0  0  0
    5.8503   -1.9350    1.1603 H   0  0  0  0  0  0  0  0  0  0  0  0
    3.9983   -1.6396    0.0742 C   0  0  0  0  0  0  0  0  0  0  0  0
    3.7632   -2.7130    0.0140 H   0  0  0  0  0  0  0  0  0  0  0  0
    3.0942   -0.7166   -0.5024 C   0  0  0  0  0  0  0  0  0  0  0  0
  1  9  1  0  0  0  0
  2 46  1  0  0  0  0
  3 22  1  0  0  0  0
  4  3  1  0  0  0  0
  5 25  1  0  0  0  0
  5 28  1  0  0  0  0
  5  6  1  0  0  0  0
  7 31  1  0  0  0  0
  8  7  1  0  0  0  0
  9 10  1  0  0  0  0
 10 11  1  0  0  0  0
 10 12  2  0  0  0  0
 12 13  1  0  0  0  0
 14 12  1  0  0  0  0
 14 15  1  0  0  0  0
 16 14  2  0  0  0  0
 17 16  1  0  0  0  0
 18  9  2  0  0  0  0
 18 16  1  0  0  0  0
 19  3  1  0  0  0  0
 19 18  1  0  0  0  0
 20 19  1  0  0  0  0
 21 19  1  0  0  0  0
 22 23  1  0  0  0  0
 22 24  1  0  0  0  0
 22 25  1  0  0  0  0
 25 26  1  0  0  0  0
 27 25  1  0  0  0  0
 28 30  1  0  0  0  0
 29 28  1  0  0  0  0
 31 32  1  0  0  0  0
 31 33  1  0  0  0  0
 31 28  1  0  0  0  0
 34 35  1  0  0  0  0
 34  7  1  0  0  0  0
 34 37  1  0  0  0  0
 36 34  1  0  0  0  0
 37 38  1  0  0  0  0
 38 39  1  0  0  0  0
 38 40  2  0  0  0  0
 40 41  1  0  0  0  0
 42 40  1  0  0  0  0
 42 43  1  0  0  0  0
 44 42  2  0  0  0  0
 45 44  1  0  0  0  0
 46 37  2  0  0  0  0
 46 44  1  0  0  0  0
M  END
