1,2,3,4
q = -2.0, confidence = 0.752

 36 35  0  0  0  0  0  0  0  0999 V2000
   -1.4102   -1.9179    0.4027 S   0  0  0  0  0  1  0  0  0  0  0  0
    1.4102   -1.9179   -0.4025 S   0  0  0  0  0  1  0  0  0  0  0  0
   -1.4015    1.1781    0.2260 N   0  0  0  0  0  0  0  0  0  0  0  0
    1.4014    1.1781   -0.2259 N   0  0  0  0  0  0  0  0  0  0  0  0
   -2.8958   -1.4961   -0.5875 C   0  0  0  0  0  0  0  0  0  0  0  0
   -2.6470   -1.5505   -1.6708 H   0  0  0  0  0  0  0  0  0  0  0  0
   -3.6221   -2.3135   -0.3922 H   0  0  0  0  0  0  0  0  0  0  0  0
   -3.5401   -0.1530   -0.2708 C   0  0  0  0  0  0  0  0  0  0  0  0
   -3.8787   -0.1327    0.7864 H   0  0  0  0  0  0  0  0  0  0  0  0
   -4.4573   -0.0185   -0.8883 H   0  0  0  0  0  0  0  0  0  0  0  0
   -2.6514    1.0467   -0.5747 C   0  0  0  0  0  0  0  0  0  0  0  0
   -2.3371    1.0050   -1.6393 H   0  0  0  0  0  0  0  0  0  0  0  0
   -3.2412    1.9869   -0.4418 H   0  0  0  0  0  0  0  0  0  0  0  0
   -0.7258    2.4205   -0.2134 C   0  0  0  0  0  0  0  0  0  0  0  0
   -1.2490    3.3240    0.1810 H   0  0  0  0  0  0  0  0  0  0  0  0
   -0.7998    2.4685   -1.3180 H   0  0  0  0  0  0  0  0  0  0  0  0
    0.7258    2.4204    0.2137 C   0  0  0  0  0  0  0  0  0  0  0  0
    1.2491    3.3240   -0.1804 H   0  0  0  0  0  0  0  0  0  0  0  0
    0.7998    2.4682    1.3183 H   0  0  0  0  0  0  0  0  0  0  0  0
    2.6516    1.0467    0.5744 C   0  0  0  0  0  0  0  0  0  0  0  0
    2.3375    1.0050    1.6391 H   0  0  0  0  0  0  0  0  0  0  0  0
    3.2413    1.9869    0.4413 H   0  0  0  0  0  0  0  0  0  0  0  0
    3.5402   -0.1529    0.2703 C   0  0  0  0  0  0  0  0  0  0  0  0
    3.8786   -0.1326   -0.7870 H   0  0  0  0  0  0  0  0  0  0  0  0
    4.4576   -0.0183    0.8875 H   0  0  0  0  0  0  0  0  0  0  0  0
    2.8961   -1.4960    0.5873 C   0  0  0  0  0  0  0  0  0  0  0  0
    2.6476   -1.5504    1.6706 H   0  0  0  0  0  0  0  0  0  0  0  0
    3.6223   -2.3134    0.3918 H   0  0  0  0  0  0  0  0  0  0  0  0
   -1.7007    1.2170    1.6724 C   0  0  0  0  0  0  0  0  0  0  0  0
   -0.7789    1.4405    2.2403 H   0  0  0  0  0  0  0  0  0  0  0  0
   -2.0466    0.2137    1.9854 H   0  0  0  0  0  0  0  0  0  0  0  0
   -2.4672    1.9956    1.9027 H   0  0  0  0  0  0  0  0  0  0  0  0
    1.7003    1.2171   -1.6724 C   0  0  0  0  0  0  0  0  0  0  0  0
    2.4666    1.9958   -1.9029 H   0  0  0  0  0  0  0  0  0  0  0  0
    0.7783    1.4405   -2.2401 H   0  0  0  0  0  0  0  0  0  0  0  0
    2.0462    0.2139   -1.9855 H   0  0  0  0  0  0  0  0  0  0  0  0
  2 26  1  0  0  0  0
  3 29  1  0  0  0  0
  4 17  1  0  0  0  0
  4 20  1  0  0  0  0
  5  7  1  0  0  0  0
  5  8  1  0  0  0  0
  5  1  1  0  0  0  0
  6  5  1  0  0  0  0
  8  9  1  0  0  0  0
 10  8  1  0  0  0  0
 11 13  1  0  0  0  0
 11  8  1  0  0  0  0
 11  3  1  0  0  0  0
 12 11  1  0  0  0  0
 14 15  1  0  0  0  0
 14 17  1  0  0  0  0
 14  3  1  0  0  0  0
 16 14  1  0  0  0  0
 17 19  1  0  0  0  0
 18 17  1  0  0  0  0
 20 21  1  0  0  0  0
 22 20  1  0  0  0  0
 23 20  1  0  0  0  0
 23 26  1  0  0  0  0
 23 25  1  0  0  0  0
 24 23  1  0  0  0  0
 26 27  1  0  0  0  0
 28 26  1  0  0  0  0
 29 32  1  0  0  0  0
 29 31  1  0  0  0  0
 29 30  1  0  0  0  0
 33  4  1  0  0  0  0
 34 33  1  0  0  0  0
 35 33  1  0  0  0  0
 36 33  1  0  0  0  0
M  END
