1,2,3,5
q = -2.0, confidence = 0.87

 38 39  0  0  1  0  0  0  0  0999 V2000
    1.6055   -1.5388    1.5256 S   0  0  0  0  0  1  0  0  0  0  0  0
   -1.6055   -1.5386   -1.5258 S   0  0  0  0  0  1  0  0  0  0  0  0
    1.2836    0.5753   -0.7108 N   0  0  0  0  0  0  0  0  0  0  0  0
    1.1562    0.7389   -1.7196 H   0  0  0  0  0  0  0  0  0  0  0  0
   -1.2835    0.5753    0.7108 N   0  0  0  0  0  0  0  0  0  0  0  0
   -1.1561    0.7388    1.7196 H   0  0  0  0  0  0  0  0  0  0  0  0
    2.6519    0.2003   -0.4275 C   0  0  0  0  0  0  0  0  0  0  0  0
    2.8974   -0.7369    0.6183 C   0  0  0  0  0  0  0  0  0  0  0  0
    4.2482   -1.0474    0.9093 C   0  0  0  0  0  0  0  0  0  0  0  0
    4.4523   -1.7679    1.7152 H   0  0  0  0  0  0  0  0  0  0  0  0
    5.3016   -0.4937    0.1732 C   0  0  0  0  0  0  0  0  0  0  0  0
    6.3379   -0.7712    0.4195 H   0  0  0  0  0  0  0  0  0  0  0  0
    5.0427    0.3867   -0.8907 C   0  0  0  0  0  0  0  0  0  0  0  0
    5.8648    0.8025   -1.4912 H   0  0  0  0  0  0  0  0  0  0  0  0
    3.7147    0.7316   -1.1787 C   0  0  0  0  0  0  0  0  0  0  0  0
    3.4918    1.4222   -2.0078 H   0  0  0  0  0  0  0  0  0  0  0  0
   -2.6518    0.2003    0.4276 C   0  0  0  0  0  0  0  0  0  0  0  0
   -2.8975   -0.7368   -0.6183 C   0  0  0  0  0  0  0  0  0  0  0  0
   -4.2482   -1.0473   -0.9092 C   0  0  0  0  0  0  0  0  0  0  0  0
   -4.4523   -1.7678   -1.7152 H   0  0  0  0  0  0  0  0  0  0  0  0
   -5.3015   -0.4937   -0.1730 C   0  0  0  0  0  0  0  0  0  0  0  0
   -6.3379   -0.7712   -0.4192 H   0  0  0  0  0  0  0  0  0  0  0  0
   -5.0426    0.3866    0.8910 C   0  0  0  0  0  0  0  0  0  0  0  0
   -5.8647    0.8024    1.4916 H   0  0  0  0  0  0  0  0  0  0  0  0
   -3.7146    0.7315    1.1789 C   0  0  0  0  0  0  0  0  0  0  0  0
   -3.4917    1.4221    2.0080 H   0  0  0  0  0  0  0  0  0  0  0  0
    0.7736    1.7672    0.0406 C   0  0  2  0  0  0  0  0  0  0  0  0
    1.0600    1.5831    1.1006 H   0  0  0  0  0  0  0  0  0  0  0  0
   -0.7736    1.7671   -0.0406 C   0  0  2  0  0  0  0  0  0  0  0  0
   -1.0600    1.5830   -1.1006 H   0  0  0  0  0  0  0  0  0  0  0  0
    1.4190    3.0674   -0.4335 C   0  0  0  0  0  0  0  0  0  0  0  0
    1.1413    3.9188    0.2162 H   0  0  0  0  0  0  0  0  0  0  0  0
    1.1123    3.3133   -1.4726 H   0  0  0  0  0  0  0  0  0  0  0  0
    2.5216    2.9770   -0.4072 H   0  0  0  0  0  0  0  0  0  0  0  0
   -1.4191    3.0673    0.4335 C   0  0  0  0  0  0  0  0  0  0  0  0
   -1.1415    3.9187   -0.2162 H   0  0  0  0  0  0  0  0  0  0  0  0
   -1.1124    3.3133    1.4725 H   0  0  0  0  0  0  0  0  0  0  0  0
   -2.5217    2.9768    0.4073 H   0  0  0  0  0  0  0  0  0  0  0  0
  2 18  1  0  0  0  0
  3  7  1  0  0  0  0
  3 27  1  0  0  0  0
  4  3  1  0  0  0  0
  5  6  1  0  0  0  0
  7  8  1  0  0  0  0
  8  9  2  0  0  0  0
  8  1  1  0  0  0  0
  9 10  1  0  0  0  0
 11 12  1  0  0  0  0
 11  9  1  0  0  0  0
 13 11  2  0  0  0  0
 14 13  1  0  0  0  0
 15 13  1  0  0  0  0
 15  7  2  0  0  0  0
 16 15  1  0  0  0  0
 17  5  1  0  0  0  0
 17 25  1  0  0  0  0
 18 17  2  0  0  0  0
 19 18  1  0  0  0  0
 19 21  2  0  0  0  0
 20 19  1  0  0  0  0
 21 23  1  0  0  0  0
 22 21  1  0  0  0  0
 23 25  2  0  0  0  0
 23 24  1  0  0  0  0
 25 26  1  0  0  0  0
 27 28  1  1  0  0  0
 29 30  1  6  0  0  0
 29 27  1  0  0  0  0
 29 35  1  0  0  0  0
 29  5  1  0  0  0  0
 31 34  1  0  0  0  0
 31 27  1  0  0  0  0
 31 32  1  0  0  0  0
 33 31  1  0  0  0  0
 35 37  1  0  0  0  0
 36 35  1  0  0  0  0
 38 35  1  0  0  0  0
M  END
