1,2,3,4
q = 0.0, confidence = 0.974

 74 78  0  0  1  0  0  0  0  0999 V2000
    0.6031   -1.5151    0.7202 S   0  0  2  0  0  3  0  0  0  0  0  0
    0.6033    1.5150   -0.7202 S   0  0  2  0  0  3  0  0  0  0  0  0
   -2.4651   -1.2429    0.5209 N   0  0  0  0  0  2  0  0  0  0  0  0
   -2.4650    1.2432   -0.5208 N   0  0  0  0  0  2  0  0  0  0  0  0
   -3.7259   -0.4807    0.6093 C   0  0  2  0  0  0  0  0  0  0  0  0
   -3.6183    0.1529    1.5216 H   0  0  0  0  0  0  0  0  0  0  0  0
   -5.0119   -1.3080    0.6881 C   0  0  0  0  0  0  0  0  0  0  0  0
   -5.0102   -1.9147    1.6171 H   0  0  0  0  0  0  0  0  0  0  0  0
   -5.0431   -2.0185   -0.1673 H   0  0  0  0  0  0  0  0  0  0  0  0
   -6.2628   -0.4253    0.6353 C   0  0  0  0  0  0  0  0  0  0  0  0
   -7.1703   -1.0610    0.6855 H   0  0  0  0  0  0  0  0  0  0  0  0
   -6.2919    0.2385    1.5274 H   0  0  0  0  0  0  0  0  0  0  0  0
   -6.2627    0.4257   -0.6353 C   0  0  0  0  0  0  0  0  0  0  0  0
   -7.1702    1.0615   -0.6855 H   0  0  0  0  0  0  0  0  0  0  0  0
   -6.2920   -0.2381   -1.5274 H   0  0  0  0  0  0  0  0  0  0  0  0
   -5.0119    1.3084   -0.6881 C   0  0  0  0  0  0  0  0  0  0  0  0
   -5.0102    1.9151   -1.6171 H   0  0  0  0  0  0  0  0  0  0  0  0
   -5.0430    2.0189    0.1673 H   0  0  0  0  0  0  0  0  0  0  0  0
   -3.7259    0.4810   -0.6093 C   0  0  1  0  0  0  0  0  0  0  0  0
   -3.6183   -0.1526   -1.5216 H   0  0  0  0  0  0  0  0  0  0  0  0
   -2.4860    2.5403   -0.5969 C   0  0  0  0  0  3  0  0  0  0  0  0
   -3.4577    3.0333   -0.7694 H   0  0  0  0  0  0  0  0  0  0  0  0
   -1.3891    3.4907   -0.4469 C   0  0  0  0  0  0  0  0  0  0  0  0
   -1.7757    4.8537   -0.3740 C   0  0  0  0  0  0  0  0  0  0  0  0
   -2.8475    5.0973   -0.4458 H   0  0  0  0  0  0  0  0  0  0  0  0
   -0.8427    5.8785   -0.1991 C   0  0  0  0  0  0  0  0  0  0  0  0
   -1.1801    6.9233   -0.1330 H   0  0  0  0  0  0  0  0  0  0  0  0
    0.5222    5.5645   -0.1114 C   0  0  0  0  0  0  0  0  0  0  0  0
    1.2709    6.3590    0.0256 H   0  0  0  0  0  0  0  0  0  0  0  0
    0.9354    4.2276   -0.2069 C   0  0  0  0  0  0  0  0  0  0  0  0
    2.0044    3.9773   -0.1544 H   0  0  0  0  0  0  0  0  0  0  0  0
   -0.0044    3.2008   -0.3577 C   0  0  0  0  0  0  0  0  0  0  0  0
   -2.4863   -2.5401    0.5968 C   0  0  0  0  0  3  0  0  0  0  0  0
   -3.4581   -3.0329    0.7692 H   0  0  0  0  0  0  0  0  0  0  0  0
   -1.3896   -3.4906    0.4468 C   0  0  0  0  0  0  0  0  0  0  0  0
   -1.7763   -4.8535    0.3738 C   0  0  0  0  0  0  0  0  0  0  0  0
   -2.8481   -5.0970    0.4455 H   0  0  0  0  0  0  0  0  0  0  0  0
   -0.8434   -5.8784    0.1990 C   0  0  0  0  0  0  0  0  0  0  0  0
   -1.1809   -6.9232    0.1328 H   0  0  0  0  0  0  0  0  0  0  0  0
    0.5215   -5.5646    0.1114 C   0  0  0  0  0  0  0  0  0  0  0  0
    1.2702   -6.3591   -0.0255 H   0  0  0  0  0  0  0  0  0  0  0  0
    0.9349   -4.2277    0.2069 C   0  0  0  0  0  0  0  0  0  0  0  0
    2.0039   -3.9775    0.1546 H   0  0  0  0  0  0  0  0  0  0  0  0
   -0.0048   -3.2008    0.3577 C   0  0  0  0  0  0  0  0  0  0  0  0
    5.9852    1.4793    2.2240 C   0  0  0  0  0  0  0  0  0  0  0  0
    5.9139    1.7872    3.2853 H   0  0  0  0  0  0  0  0  0  0  0  0
    6.7381    2.1202    1.7234 H   0  0  0  0  0  0  0  0  0  0  0  0
    6.3832    0.4410    2.2103 H   0  0  0  0  0  0  0  0  0  0  0  0
    4.6482    1.5425    1.5315 C   0  0  0  0  0  0  0  0  0  0  0  0
    3.4466    1.4198    2.2597 C   0  0  0  0  0  0  0  0  0  0  0  0
    3.4856    1.3122    3.3551 H   0  0  0  0  0  0  0  0  0  0  0  0
    2.1976    1.4152    1.6237 C   0  0  0  0  0  0  0  0  0  0  0  0
    1.2606    1.3052    2.1933 H   0  0  0  0  0  0  0  0  0  0  0  0
    2.1665    1.5387    0.2286 C   0  0  0  0  0  0  0  0  0  0  0  0
    3.3362    1.6704   -0.5308 C   0  0  0  0  0  0  0  0  0  0  0  0
    3.2505    1.7501   -1.6246 H   0  0  0  0  0  0  0  0  0  0  0  0
    4.5711    1.6744    0.1289 C   0  0  0  0  0  0  0  0  0  0  0  0
    5.4983    1.7695   -0.4589 H   0  0  0  0  0  0  0  0  0  0  0  0
    5.9849   -1.4797   -2.2240 C   0  0  0  0  0  0  0  0  0  0  0  0
    5.9137   -1.7881   -3.2853 H   0  0  0  0  0  0  0  0  0  0  0  0
    6.7380   -2.1201   -1.7231 H   0  0  0  0  0  0  0  0  0  0  0  0
    6.3826   -0.4412   -2.2109 H   0  0  0  0  0  0  0  0  0  0  0  0
    4.6480   -1.5429   -1.5316 C   0  0  0  0  0  0  0  0  0  0  0  0
    4.5708   -1.6749   -0.1290 C   0  0  0  0  0  0  0  0  0  0  0  0
    5.4981   -1.7701    0.4589 H   0  0  0  0  0  0  0  0  0  0  0  0
    3.3360   -1.6708    0.5308 C   0  0  0  0  0  0  0  0  0  0  0  0
    3.2503   -1.7505    1.6246 H   0  0  0  0  0  0  0  0  0  0  0  0
    2.1663   -1.5390   -0.2286 C   0  0  0  0  0  0  0  0  0  0  0  0
    2.1974   -1.4154   -1.6236 C   0  0  0  0  0  0  0  0  0  0  0  0
    1.2604   -1.3053   -2.1933 H   0  0  0  0  0  0  0  0  0  0  0  0
    3.4464   -1.4201   -2.2597 C   0  0  0  0  0  0  0  0  0  0  0  0
    3.4853   -1.3125   -3.3551 H   0  0  0  0  0  0  0  0  0  0  0  0
    1.0099   -1.5649    2.1773 O   0  0  0  0  0  1  0  0  0  0  0  0
    1.0101    1.5648   -2.1773 O   0  0  0  0  0  1  0  0  0  0  0  0
  1 73  1  1  0  0  0
  2 74  1  6  0  0  0
  2 32  1  0  0  0  0
  2 54  1  0  0  0  0
  3 33  1  0  0  0  0
  3  5  1  0  0  0  0
  5  7  1  0  0  0  0
  5  6  1  1  0  0  0
  7  8  1  0  0  0  0
  9  7  1  0  0  0  0
 10 11  1  0  0  0  0
 10  7  1  0  0  0  0
 10 12  1  0  0  0  0
 13 10  1  0  0  0  0
 14 13  1  0  0  0  0
 15 13  1  0  0  0  0
 16 13  1  0  0  0  0
 16 19  1  0  0  0  0
 16 18  1  0  0  0  0
 17 16  1  0  0  0  0
 19 20  1  6  0  0  0
 19  4  1  0  0  0  0
 19  5  1  0  0  0  0
 21  4  1  0  0  0  0
 21 23  1  0  0  0  0
 22 21  1  0  0  0  0
 23 24  2  0  0  0  0
 23 32  1  0  0  0  0
 24 26  1  0  0  0  0
 25 24  1  0  0  0  0
 26 27  1  0  0  0  0
 26 28  2  0  0  0  0
 28 29  1  0  0  0  0
 30 31  1  0  0  0  0
 30 28  1  0  0  0  0
 32 30  2  0  0  0  0
 33 34  1  0  0  0  0
 35 33  1  0  0  0  0
 36 37  1  0  0  0  0
 36 35  1  0  0  0  0
 38 36  2  0  0  0  0
 39 38  1  0  0  0  0
 40 38  1  0  0  0  0
 40 42  2  0  0  0  0
 41 40  1  0  0  0  0
 42 44  1  0  0  0  0
 43 42  1  0  0  0  0
 44 35  2  0  0  0  0
 44  1  1  0  0  0  0
 45 46  1  0  0  0  0
 47 45  1  0  0  0  0
 48 45  1  0  0  0  0
 49 45  1  0  0  0  0
 49 50  1  0  0  0  0
 50 51  1  0  0  0  0
 52 53  1  0  0  0  0
 52 50  2  0  0  0  0
 54 52  1  0  0  0  0
 55 57  1  0  0  0  0
 55 54  2  0  0  0  0
 56 55  1  0  0  0  0
 57 49  2  0  0  0  0
 58 57  1  0  0  0  0
 59 62  1  0  0  0  0
 59 61  1  0  0  0  0
 59 63  1  0  0  0  0
 60 59  1  0  0  0  0
 63 64  1  0  0  0  0
 64 65  1  0  0  0  0
 64 66  2  0  0  0  0
 66 67  1  0  0  0  0
 68 66  1  0  0  0  0
 68  1  1  0  0  0  0
 69 68  2  0  0  0  0
 70 69  1  0  0  0  0
 71 69  1  0  0  0  0
 71 63  2  0  0  0  0
 72 71  1  0  0  0  0
M  END
