1,2,3,6
q = -2.0, confidence = 0.936

 58 61  0  0  1  0  0  0  0  0999 V2000
   -1.9639   -2.5201   -1.0155 S   0  0  0  0  0  1  0  0  0  0  0  0
    2.0207   -2.3567   -0.9781 S   0  0  0  0  0  1  0  0  0  0  0  0
    1.2464    0.3934   -0.1634 N   0  0  0  0  0  2  0  0  0  0  0  0
    4.3601   -1.1040   -0.5966 N   0  0  0  0  0  0  0  0  0  0  0  0
    1.3596    2.8626   -0.1663 C   0  0  0  0  0  0  0  0  0  0  0  0
   -1.3665    0.3394   -0.4433 N   0  0  0  0  0  2  0  0  0  0  0  0
   -2.6760    0.1154   -0.4437 N   0  0  0  0  0  2  0  0  0  0  0  0
   -4.3683   -1.3787   -0.7432 N   0  0  0  0  0  0  0  0  0  0  0  0
    2.5724    0.2760   -0.2560 N   0  0  0  0  0  2  0  0  0  0  0  0
    2.5405    3.0731    0.5834 C   0  0  0  0  0  0  0  0  0  0  0  0
    0.6385    1.5672   -0.1187 C   0  0  1  0  0  3  0  0  0  0  0  0
   -0.8457    1.5127   -0.1128 C   0  0  2  0  0  3  0  0  0  0  0  0
    0.8831    3.9150   -0.9818 C   0  0  0  0  0  0  0  0  0  0  0  0
    1.5626    5.1382   -1.0450 C   0  0  0  0  0  0  0  0  0  0  0  0
   -1.6560    2.6816    0.3033 C   0  0  0  0  0  0  0  0  0  0  0  0
   -3.0262   -1.1613   -0.7070 C   0  0  1  0  0  3  0  0  0  0  0  0
    3.0065   -0.9551   -0.5624 C   0  0  1  0  0  3  0  0  0  0  0  0
    5.2787    0.0175   -0.3664 C   0  0  0  0  0  0  0  0  0  0  0  0
    2.7261    5.3400   -0.2856 C   0  0  0  0  0  0  0  0  0  0  0  0
    5.0545   -2.3287   -0.9933 C   0  0  0  0  0  0  0  0  0  0  0  0
    3.2092    4.3032    0.5297 C   0  0  0  0  0  0  0  0  0  0  0  0
   -2.8452    3.0368   -0.3750 C   0  0  0  0  0  0  0  0  0  0  0  0
   -4.9990   -2.6847   -0.9203 C   0  0  0  0  0  0  0  0  0  0  0  0
   -1.2561    3.4617    1.4133 C   0  0  0  0  0  0  0  0  0  0  0  0
   -5.3464   -0.2997   -0.5503 C   0  0  0  0  0  0  0  0  0  0  0  0
   -2.0174    4.5606    1.8310 C   0  0  0  0  0  0  0  0  0  0  0  0
   -3.5971    4.1449    0.0367 C   0  0  0  0  0  0  0  0  0  0  0  0
   -3.1897    4.9102    1.1419 C   0  0  0  0  0  0  0  0  0  0  0  0
    6.6041   -0.4896   -0.9480 C   0  0  0  0  0  0  0  0  0  0  0  0
    6.6441   -0.2752   -2.0369 H   0  0  0  0  0  0  0  0  0  0  0  0
    7.4866   -0.0116   -0.4801 H   0  0  0  0  0  0  0  0  0  0  0  0
   -6.4429   -2.4418   -0.4617 C   0  0  0  0  0  0  0  0  0  0  0  0
   -7.1591   -3.1524   -0.9180 H   0  0  0  0  0  0  0  0  0  0  0  0
   -6.5115   -2.5545    0.6410 H   0  0  0  0  0  0  0  0  0  0  0  0
    6.5289   -2.0053   -0.7127 C   0  0  0  0  0  0  0  0  0  0  0  0
    6.7734   -2.2390    0.3453 H   0  0  0  0  0  0  0  0  0  0  0  0
    7.2180   -2.5903   -1.3520 H   0  0  0  0  0  0  0  0  0  0  0  0
   -6.6881   -0.9788   -0.8590 C   0  0  0  0  0  0  0  0  0  0  0  0
   -7.5342   -0.5091   -0.3207 H   0  0  0  0  0  0  0  0  0  0  0  0
   -6.9055   -0.9131   -1.9461 H   0  0  0  0  0  0  0  0  0  0  0  0
    2.9264    2.2588    1.2098 H   0  0  0  0  0  0  0  0  0  0  0  0
   -3.1691    2.4347   -1.2334 H   0  0  0  0  0  0  0  0  0  0  0  0
   -4.9499   -3.0032   -1.9877 H   0  0  0  0  0  0  0  0  0  0  0  0
   -0.0302    3.7665   -1.5756 H   0  0  0  0  0  0  0  0  0  0  0  0
    4.1201    4.4538    1.1296 H   0  0  0  0  0  0  0  0  0  0  0  0
   -4.4579   -3.4552   -0.3345 H   0  0  0  0  0  0  0  0  0  0  0  0
    1.1771    5.9420   -1.6906 H   0  0  0  0  0  0  0  0  0  0  0  0
    3.2565    6.3036   -0.3297 H   0  0  0  0  0  0  0  0  0  0  0  0
   -1.6903    5.1508    2.7007 H   0  0  0  0  0  0  0  0  0  0  0  0
    5.3575    0.2355    0.7239 H   0  0  0  0  0  0  0  0  0  0  0  0
    4.8838    0.9364   -0.8436 H   0  0  0  0  0  0  0  0  0  0  0  0
    4.8705   -2.5478   -2.0707 H   0  0  0  0  0  0  0  0  0  0  0  0
   -0.3373    3.1955    1.9557 H   0  0  0  0  0  0  0  0  0  0  0  0
   -5.1153    0.5576   -1.2127 H   0  0  0  0  0  0  0  0  0  0  0  0
   -5.2878    0.0866    0.4918 H   0  0  0  0  0  0  0  0  0  0  0  0
   -4.5136    4.4138   -0.5111 H   0  0  0  0  0  0  0  0  0  0  0  0
   -3.7854    5.7774    1.4658 H   0  0  0  0  0  0  0  0  0  0  0  0
    4.6732   -3.2017   -0.4255 H   0  0  0  0  0  0  0  0  0  0  0  0
  4 17  1  0  0  0  0
  4 18  1  0  0  0  0
  5 11  1  0  0  0  0
  5 10  1  0  0  0  0
  7  6  1  0  0  0  0
  8 16  1  0  0  0  0
  8 25  1  0  0  0  0
  9  3  1  0  0  0  0
 10 41  1  0  0  0  0
 11  3  1  6  0  0  0
 11 12  1  0  0  0  0
 12  6  1  1  0  0  0
 12 15  1  0  0  0  0
 13  5  2  0  0  0  0
 14 13  1  0  0  0  0
 14 19  2  0  0  0  0
 15 24  1  0  0  0  0
 16  1  1  6  0  0  0
 16  7  1  0  0  0  0
 17  2  1  6  0  0  0
 17  9  1  0  0  0  0
 18 50  1  0  0  0  0
 19 21  1  0  0  0  0
 20 35  1  0  0  0  0
 20  4  1  0  0  0  0
 20 58  1  0  0  0  0
 21 10  2  0  0  0  0
 21 45  1  0  0  0  0
 22 27  1  0  0  0  0
 22 15  2  0  0  0  0
 23  8  1  0  0  0  0
 23 32  1  0  0  0  0
 23 46  1  0  0  0  0
 24 26  2  0  0  0  0
 24 53  1  0  0  0  0
 25 55  1  0  0  0  0
 26 49  1  0  0  0  0
 27 28  2  0  0  0  0
 28 57  1  0  0  0  0
 28 26  1  0  0  0  0
 29 35  1  0  0  0  0
 29 31  1  0  0  0  0
 29 18  1  0  0  0  0
 30 29  1  0  0  0  0
 32 34  1  0  0  0  0
 33 32  1  0  0  0  0
 35 36  1  0  0  0  0
 37 35  1  0  0  0  0
 38 25  1  0  0  0  0
 38 32  1  0  0  0  0
 38 39  1  0  0  0  0
 40 38  1  0  0  0  0
 42 22  1  0  0  0  0
 43 23  1  0  0  0  0
 44 13  1  0  0  0  0
 47 14  1  0  0  0  0
 48 19  1  0  0  0  0
 51 18  1  0  0  0  0
 52 20  1  0  0  0  0
 54 25  1  0  0  0  0
 56 27  1  0  0  0  0
M  END
