1,5,12,16
q = -2.0, confidence = 0.852

 60 62  0  0  1  0  0  0  0  0999 V2000
    1.4360   -0.6661    0.0436 S   0  0  0  0  0  1  0  0  0  0  0  0
    3.0621   -0.1055    0.0782 C   0  0  1  0  0  3  0  0  0  0  0  0
    3.4344    1.2327    0.2098 C   0  0  0  0  0  0  0  0  0  0  0  0
    2.5717    2.3445    0.3355 C   0  0  0  0  0  0  0  0  0  0  0  0
    1.2510    2.3706    0.2812 N   0  0  0  0  0  2  0  0  0  0  0  0
    0.5392    3.6473    0.4790 C   0  0  1  0  0  0  0  0  0  0  0  0
    1.3675    4.9347    0.4175 C   0  0  0  0  0  0  0  0  0  0  0  0
    0.4665    6.1662    0.5738 C   0  0  0  0  0  0  0  0  0  0  0  0
   -0.6470    6.1738   -0.4756 C   0  0  0  0  0  0  0  0  0  0  0  0
   -1.4833    4.8892   -0.4156 C   0  0  0  0  0  0  0  0  0  0  0  0
   -0.5953    3.6457   -0.5526 C   0  0  2  0  0  0  0  0  0  0  0  0
   -1.2576    2.3327   -0.4053 N   0  0  0  0  0  2  0  0  0  0  0  0
   -2.5493    2.2371   -0.6761 C   0  0  0  0  0  3  0  0  0  0  0  0
   -3.3894    1.1040   -0.6006 C   0  0  0  0  0  0  0  0  0  0  0  0
   -3.0309   -0.1832   -0.1976 C   0  0  0  0  0  0  0  0  0  0  0  0
   -1.4344   -0.6534    0.2336 S   0  0  0  0  0  1  0  0  0  0  0  0
    4.1013   -1.1595   -0.0225 C   0  0  0  0  0  0  0  0  0  0  0  0
    5.3444   -1.0267    0.6338 C   0  0  0  0  0  0  0  0  0  0  0  0
    6.3349   -2.0143    0.5475 C   0  0  0  0  0  0  0  0  0  0  0  0
    6.0988   -3.1776   -0.2147 C   0  0  0  0  0  0  0  0  0  0  0  0
    4.8586   -3.3297   -0.8739 C   0  0  0  0  0  0  0  0  0  0  0  0
    3.8818   -2.3423   -0.7738 C   0  0  0  0  0  0  0  0  0  0  0  0
   -4.0623   -1.2440   -0.0920 C   0  0  0  0  0  0  0  0  0  0  0  0
   -3.7451   -2.6068   -0.3243 C   0  0  0  0  0  0  0  0  0  0  0  0
   -4.7140   -3.6025   -0.2318 C   0  0  0  0  0  0  0  0  0  0  0  0
   -6.0457   -3.2745    0.1080 C   0  0  0  0  0  0  0  0  0  0  0  0
   -6.3815   -1.9267    0.3545 C   0  0  0  0  0  0  0  0  0  0  0  0
   -5.3964   -0.9353    0.2526 C   0  0  0  0  0  0  0  0  0  0  0  0
    6.9890   -4.1942   -0.3691 O   0  0  0  0  0  0  0  0  0  0  0  0
    8.2488   -4.0881    0.2655 C   0  0  0  0  0  0  0  0  0  0  0  0
   -6.9204   -4.3133    0.1759 O   0  0  0  0  0  0  0  0  0  0  0  0
   -8.2682   -4.0388    0.5068 C   0  0  0  0  0  0  0  0  0  0  0  0
    4.5083    1.4693    0.1939 H   0  0  0  0  0  0  0  0  0  0  0  0
    3.0845    3.3098    0.4932 H   0  0  0  0  0  0  0  0  0  0  0  0
    0.0518    3.6003    1.4827 H   0  0  0  0  0  0  0  0  0  0  0  0
    1.9028    4.9829   -0.5566 H   0  0  0  0  0  0  0  0  0  0  0  0
    2.1412    4.9354    1.2123 H   0  0  0  0  0  0  0  0  0  0  0  0
    1.0764    7.0904    0.5045 H   0  0  0  0  0  0  0  0  0  0  0  0
    0.0146    6.1645    1.5905 H   0  0  0  0  0  0  0  0  0  0  0  0
   -0.1956    6.2707   -1.4881 H   0  0  0  0  0  0  0  0  0  0  0  0
   -1.3054    7.0568   -0.3422 H   0  0  0  0  0  0  0  0  0  0  0  0
   -2.0313    4.8356    0.5511 H   0  0  0  0  0  0  0  0  0  0  0  0
   -2.2484    4.9151   -1.2175 H   0  0  0  0  0  0  0  0  0  0  0  0
   -0.1086    3.6690   -1.5581 H   0  0  0  0  0  0  0  0  0  0  0  0
   -3.0571    3.1600   -1.0086 H   0  0  0  0  0  0  0  0  0  0  0  0
   -4.4311    1.2703   -0.9115 H   0  0  0  0  0  0  0  0  0  0  0  0
    5.5337   -0.1413    1.2585 H   0  0  0  0  0  0  0  0  0  0  0  0
    7.2802   -1.8736    1.0883 H   0  0  0  0  0  0  0  0  0  0  0  0
    4.6921   -4.2402   -1.4675 H   0  0  0  0  0  0  0  0  0  0  0  0
    2.9214   -2.4660   -1.2956 H   0  0  0  0  0  0  0  0  0  0  0  0
   -2.7117   -2.8693   -0.5950 H   0  0  0  0  0  0  0  0  0  0  0  0
   -4.4701   -4.6572   -0.4245 H   0  0  0  0  0  0  0  0  0  0  0  0
   -7.4025   -1.6404    0.6399 H   0  0  0  0  0  0  0  0  0  0  0  0
   -5.6680    0.1062    0.4799 H   0  0  0  0  0  0  0  0  0  0  0  0
    8.1525   -4.0255    1.3729 H   0  0  0  0  0  0  0  0  0  0  0  0
    8.8091   -5.0054    0.0059 H   0  0  0  0  0  0  0  0  0  0  0  0
    8.8206   -3.2020   -0.0916 H   0  0  0  0  0  0  0  0  0  0  0  0
   -8.3633   -3.5842    1.5187 H   0  0  0  0  0  0  0  0  0  0  0  0
   -8.7479   -3.3600   -0.2339 H   0  0  0  0  0  0  0  0  0  0  0  0
   -8.7971   -5.0099    0.4991 H   0  0  0  0  0  0  0  0  0  0  0  0
  2  1  1  1  0  0  0
  2  3  1  0  0  0  0
  3  4  2  0  0  0  0
  4 34  1  0  0  0  0
  5  4  1  0  0  0  0
  5  6  1  0  0  0  0
  6 35  1  1  0  0  0
  7  6  1  0  0  0  0
  7  8  1  0  0  0  0
  7 37  1  0  0  0  0
  8 39  1  0  0  0  0
  9 10  1  0  0  0  0
  9 41  1  0  0  0  0
  9  8  1  0  0  0  0
 10 42  1  0  0  0  0
 11 44  1  6  0  0  0
 11 10  1  0  0  0  0
 11 12  1  0  0  0  0
 11  6  1  0  0  0  0
 13 14  1  0  0  0  0
 13 12  1  0  0  0  0
 14 15  2  0  0  0  0
 15 23  1  0  0  0  0
 15 16  1  0  0  0  0
 17  2  1  0  0  0  0
 17 18  1  0  0  0  0
 18 47  1  0  0  0  0
 19 18  2  0  0  0  0
 19 48  1  0  0  0  0
 20 19  1  0  0  0  0
 21 22  1  0  0  0  0
 21 20  2  0  0  0  0
 22 17  2  0  0  0  0
 23 28  1  0  0  0  0
 24 25  1  0  0  0  0
 24 23  2  0  0  0  0
 25 26  2  0  0  0  0
 26 31  1  0  0  0  0
 26 27  1  0  0  0  0
 27 53  1  0  0  0  0
 28 27  2  0  0  0  0
 28 54  1  0  0  0  0
 29 20  1  0  0  0  0
 29 30  1  0  0  0  0
 30 55  1  0  0  0  0
 31 32  1  0  0  0  0
 32 58  1  0  0  0  0
 33  3  1  0  0  0  0
 36  7  1  0  0  0  0
 38  8  1  0  0  0  0
 40  9  1  0  0  0  0
 43 10  1  0  0  0  0
 45 13  1  0  0  0  0
 46 14  1  0  0  0  0
 49 21  1  0  0  0  0
 50 22  1  0  0  0  0
 51 24  1  0  0  0  0
 52 25  1  0  0  0  0
 56 30  1  0  0  0  0
 57 30  1  0  0  0  0
 59 32  1  0  0  0  0
 60 32  1  0  0  0  0
M  END
