1,2,3,5
q = -1.0, confidence = 0.008

 45 44  0  0  0  0  0  0  0  0999 V2000
    3.4391   -1.3917    0.2104 S   0  0  0  0  0  1  0  0  0  0  0  0
    0.2303   -2.3188   -0.1846 S   0  0  0  0  0  1  0  0  0  0  0  0
    2.2760    1.1710   -0.0428 N   0  0  0  0  0  2  0  0  0  0  0  0
    3.5919    1.3478    0.0952 N   0  0  0  0  0  0  0  0  0  0  0  0
   -0.1081    0.4788   -0.2876 N   0  0  0  0  0  2  0  0  0  0  0  0
   -1.3474   -0.0824   -0.4060 N   0  0  0  0  0  0  0  0  0  0  0  0
    5.5784    0.2394    0.3403 N   0  0  0  0  0  0  0  0  0  0  0  0
    5.9637    1.1869    0.3721 H   0  0  0  0  0  0  0  0  0  0  0  0
   -2.4150   -2.1335   -0.5075 N   0  0  0  0  0  0  0  0  0  0  0  0
   -2.3324   -3.1497   -0.5116 H   0  0  0  0  0  0  0  0  0  0  0  0
   -5.1841    0.2702    0.4512 N   0  3  0  0  0  0  0  0  0  0  0  0
    1.4454    2.2094   -0.1846 C   0  0  0  0  0  0  0  0  0  0  0  0
    0.0600    1.7951   -0.3342 C   0  0  0  0  0  0  0  0  0  0  0  0
    1.9161    3.6278   -0.1992 C   0  0  0  0  0  0  0  0  0  0  0  0
    3.0022    3.6489   -0.0005 H   0  0  0  0  0  0  0  0  0  0  0  0
    1.3995    4.2392    0.5697 H   0  0  0  0  0  0  0  0  0  0  0  0
    1.7329    4.1087   -1.1839 H   0  0  0  0  0  0  0  0  0  0  0  0
   -1.0790    2.7454   -0.5269 C   0  0  0  0  0  0  0  0  0  0  0  0
   -1.7055    2.4234   -1.3831 H   0  0  0  0  0  0  0  0  0  0  0  0
   -0.7221    3.7737   -0.7135 H   0  0  0  0  0  0  0  0  0  0  0  0
   -1.7300    2.7724    0.3743 H   0  0  0  0  0  0  0  0  0  0  0  0
    4.2383    0.1775    0.2141 C   0  0  0  0  0  0  0  0  0  0  0  0
   -1.2552   -1.4100   -0.3810 C   0  0  0  0  0  0  0  0  0  0  0  0
    6.4600   -0.8946    0.5195 C   0  0  0  0  0  0  0  0  0  0  0  0
    6.4947   -1.2337    1.5779 H   0  0  0  0  0  0  0  0  0  0  0  0
    7.4819   -0.6170    0.2013 H   0  0  0  0  0  0  0  0  0  0  0  0
    6.1094   -1.7434   -0.1006 H   0  0  0  0  0  0  0  0  0  0  0  0
   -3.6900   -1.5000   -0.7249 C   0  0  0  0  0  0  0  0  0  0  0  0
   -4.4174   -2.2628   -1.0641 H   0  0  0  0  0  0  0  0  0  0  0  0
   -3.5794   -0.7404   -1.5279 H   0  0  0  0  0  0  0  0  0  0  0  0
   -4.1342   -0.8264    0.5859 C   0  0  0  0  0  0  0  0  0  0  0  0
   -4.5351   -1.5643    1.3071 H   0  0  0  0  0  0  0  0  0  0  0  0
   -3.2423   -0.3307    1.0160 H   0  0  0  0  0  0  0  0  0  0  0  0
   -6.4847   -0.2936   -0.0439 C   0  0  0  0  0  0  0  0  0  0  0  0
   -6.8467   -1.0504    0.6752 H   0  0  0  0  0  0  0  0  0  0  0  0
   -6.3273   -0.7580   -1.0330 H   0  0  0  0  0  0  0  0  0  0  0  0
   -7.2221    0.5248   -0.1322 H   0  0  0  0  0  0  0  0  0  0  0  0
   -5.3887    0.8743    1.8136 C   0  0  0  0  0  0  0  0  0  0  0  0
   -6.1810    1.6421    1.7538 H   0  0  0  0  0  0  0  0  0  0  0  0
   -4.4394    1.3327    2.1437 H   0  0  0  0  0  0  0  0  0  0  0  0
   -5.6853    0.0784    2.5199 H   0  0  0  0  0  0  0  0  0  0  0  0
   -4.6984    1.3470   -0.4874 C   0  0  0  0  0  0  0  0  0  0  0  0
   -5.3242    2.2462   -0.3476 H   0  0  0  0  0  0  0  0  0  0  0  0
   -4.7873    0.9945   -1.5284 H   0  0  0  0  0  0  0  0  0  0  0  0
   -3.6354    1.5525   -0.2646 H   0  0  0  0  0  0  0  0  0  0  0  0
  1 22  1  0  0  0  0
  3  4  1  0  0  0  0
  4 22  2  0  0  0  0
  6 23  2  0  0  0  0
  6  5  1  0  0  0  0
  7  8  1  0  0  0  0
  7 24  1  0  0  0  0
  9 23  1  0  0  0  0
 10  9  1  0  0  0  0
 11 31  1  0  0  0  0
 11 38  1  0  0  0  0
 12  3  1  0  0  0  0
 13  5  1  0  0  0  0
 13 12  2  0  0  0  0
 14 12  1  0  0  0  0
 14 15  1  0  0  0  0
 14 16  1  0  0  0  0
 17 14  1  0  0  0  0
 18 13  1  0  0  0  0
 18 21  1  0  0  0  0
 19 18  1  0  0  0  0
 20 18  1  0  0  0  0
 22  7  1  0  0  0  0
 23  2  1  0  0  0  0
 24 25  1  0  0  0  0
 26 24  1  0  0  0  0
 27 24  1  0  0  0  0
 28  9  1  0  0  0  0
 28 31  1  0  0  0  0
 29 28  1  0  0  0  0
 30 28  1  0  0  0  0
 31 33  1  0  0  0  0
 31 32  1  0  0  0  0
 34 11  1  0  0  0  0
 34 35  1  0  0  0  0
 36 34  1  0  0  0  0
 37 34  1  0  0  0  0
 38 40  1  0  0  0  0
 38 41  1  0  0  0  0
 39 38  1  0  0  0  0
 42 43  1  0  0  0  0
 42 45  1  0  0  0  0
 42 11  1  0  0  0  0
 44 42  1  0  0  0  0
M  CHG  1  11   1
M  END
