1,2,3,4
q = -1.0

 40 40  0  0  0  0  0  0  0  0999 V2000
    0.7885    1.4098    0.5799 N   0  0  0  0  0  2  0  0  0  0  0  0
   -1.5309   -0.1549    0.0483 N   0  0  0  0  0  2  0  0  0  0  0  0
    2.6652   -0.7336    0.1593 S   0  0  0  0  0  1  0  0  0  0  0  0
    0.1234   -2.5697    0.0427 S   0  0  0  0  0  1  0  0  0  0  0  0
    3.2416    1.0308    0.4215 C   0  0  0  0  0  0  0  0  0  0  0  0
    2.1017    1.6826    1.2004 C   0  0  0  0  0  0  0  0  0  0  0  0
    2.0873    1.2648    2.2305 H   0  0  0  0  0  0  0  0  0  0  0  0
    2.2444    2.7843    1.2803 H   0  0  0  0  0  0  0  0  0  0  0  0
   -1.6792   -2.5893    0.5827 C   0  0  0  0  0  0  0  0  0  0  0  0
   -2.3528   -1.3760   -0.0503 C   0  0  0  0  0  0  0  0  0  0  0  0
   -2.5757   -1.5844   -1.1226 H   0  0  0  0  0  0  0  0  0  0  0  0
   -3.3223   -1.2266    0.4708 H   0  0  0  0  0  0  0  0  0  0  0  0
   -0.1178    2.3649    0.6514 C   0  0  0  0  0  3  0  0  0  0  0  0
    0.2287    3.3436    1.0413 H   0  0  0  0  0  0  0  0  0  0  0  0
   -1.4994    2.2902    0.3180 C   0  0  0  0  0  0  0  0  0  0  0  0
   -2.1921    1.0427    0.0590 C   0  0  0  0  0  0  0  0  0  0  0  0
   -3.5998    1.1468   -0.1915 C   0  0  0  0  0  0  0  0  0  0  0  0
   -4.1727    0.2479   -0.4441 H   0  0  0  0  0  0  0  0  0  0  0  0
   -4.2621    2.3696   -0.1850 C   0  0  0  0  0  0  0  0  0  0  0  0
   -5.3390    2.3894   -0.4142 H   0  0  0  0  0  0  0  0  0  0  0  0
   -3.5832    3.5780    0.0941 C   0  0  0  0  0  0  0  0  0  0  0  0
   -4.1198    4.5369    0.1049 H   0  0  0  0  0  0  0  0  0  0  0  0
   -2.2216    3.5192    0.3454 C   0  0  0  0  0  0  0  0  0  0  0  0
   -1.6596    4.4399    0.5683 H   0  0  0  0  0  0  0  0  0  0  0  0
    4.5199    1.0011    1.2629 C   0  0  0  0  0  0  0  0  0  0  0  0
    4.3549    0.4770    2.2255 H   0  0  0  0  0  0  0  0  0  0  0  0
    4.8768    2.0313    1.4772 H   0  0  0  0  0  0  0  0  0  0  0  0
    5.3264    0.4697    0.7200 H   0  0  0  0  0  0  0  0  0  0  0  0
    3.4713    1.7193   -0.9274 C   0  0  0  0  0  0  0  0  0  0  0  0
    4.2390    1.1775   -1.5136 H   0  0  0  0  0  0  0  0  0  0  0  0
    3.8203    2.7647   -0.7791 H   0  0  0  0  0  0  0  0  0  0  0  0
    2.5444    1.7406   -1.5345 H   0  0  0  0  0  0  0  0  0  0  0  0
   -1.7053   -2.5000    2.1137 C   0  0  0  0  0  0  0  0  0  0  0  0
   -1.1068   -3.3148    2.5665 H   0  0  0  0  0  0  0  0  0  0  0  0
   -2.7475   -2.5817    2.4918 H   0  0  0  0  0  0  0  0  0  0  0  0
   -1.2828   -1.5349    2.4580 H   0  0  0  0  0  0  0  0  0  0  0  0
   -2.3132   -3.8907    0.0874 C   0  0  0  0  0  0  0  0  0  0  0  0
   -2.2611   -3.9671   -1.0169 H   0  0  0  0  0  0  0  0  0  0  0  0
   -3.3796   -3.9503    0.3948 H   0  0  0  0  0  0  0  0  0  0  0  0
   -1.7897   -4.7680    0.5175 H   0  0  0  0  0  0  0  0  0  0  0  0
  1 13  1  0  0  0  0
  1  6  1  0  0  0  0
  2 16  1  0  0  0  0
  3  5  1  0  0  0  0
  4  9  1  0  0  0  0
  5  6  1  0  0  0  0
  5 25  1  0  0  0  0
  6  8  1  0  0  0  0
  6  7  1  0  0  0  0
  9 33  1  0  0  0  0
 10  2  1  0  0  0  0
 10 12  1  0  0  0  0
 10  9  1  0  0  0  0
 11 10  1  0  0  0  0
 13 14  1  0  0  0  0
 15 23  1  0  0  0  0
 15 13  1  0  0  0  0
 16 15  2  0  0  0  0
 17 19  2  0  0  0  0
 17 16  1  0  0  0  0
 18 17  1  0  0  0  0
 19 21  1  0  0  0  0
 20 19  1  0  0  0  0
 21 22  1  0  0  0  0
 21 23  2  0  0  0  0
 23 24  1  0  0  0  0
 25 27  1  0  0  0  0
 25 26  1  0  0  0  0
 28 25  1  0  0  0  0
 29 31  1  0  0  0  0
 29  5  1  0  0  0  0
 30 29  1  0  0  0  0
 32 29  1  0  0  0  0
 33 36  1  0  0  0  0
 33 35  1  0  0  0  0
 33 34  1  0  0  0  0
 37 39  1  0  0  0  0
 37 40  1  0  0  0  0
 37  9  1  0  0  0  0
 38 37  1  0  0  0  0
M  END
