1,2,3,4
q = -2.0, confidence = 0.824

 31 31  0  0  0  0  0  0  0  0999 V2000
    1.3006    0.9136   -0.2409 N   0  0  0  0  0  0  0  0  0  0  0  0
   -1.3006    0.9118   -0.2436 N   0  0  0  0  0  0  0  0  0  0  0  0
    1.5676   -2.0359    0.0978 S   0  0  0  0  0  1  0  0  0  0  0  0
   -1.5653   -2.0358    0.1073 S   0  0  0  0  0  1  0  0  0  0  0  0
    2.9622   -0.8414    0.2494 C   0  0  0  0  0  0  0  0  0  0  0  0
    3.1522   -0.5617    1.3097 H   0  0  0  0  0  0  0  0  0  0  0  0
    3.8933   -1.3183   -0.1215 H   0  0  0  0  0  0  0  0  0  0  0  0
    2.6509    0.3836   -0.5884 C   0  0  0  0  0  0  0  0  0  0  0  0
    3.4102    1.1970   -0.4731 H   0  0  0  0  0  0  0  0  0  0  0  0
    2.6079    0.0819   -1.6536 H   0  0  0  0  0  0  0  0  0  0  0  0
    1.2910    1.5295    1.1159 C   0  0  0  0  0  0  0  0  0  0  0  0
    2.1510    2.2381    1.2050 H   0  0  0  0  0  0  0  0  0  0  0  0
    1.4461    0.7117    1.8453 H   0  0  0  0  0  0  0  0  0  0  0  0
   -0.0032    2.2887    1.4141 C   0  0  0  0  0  0  0  0  0  0  0  0
   -0.0045    2.5610    2.4889 H   0  0  0  0  0  0  0  0  0  0  0  0
   -0.0031    3.2547    0.8674 H   0  0  0  0  0  0  0  0  0  0  0  0
   -1.2958    1.5280    1.1130 C   0  0  0  0  0  0  0  0  0  0  0  0
   -1.4517    0.7102    1.8421 H   0  0  0  0  0  0  0  0  0  0  0  0
   -2.1569    2.2357    1.1996 H   0  0  0  0  0  0  0  0  0  0  0  0
    0.7759    1.8400   -1.2730 C   0  0  0  0  0  0  0  0  0  0  0  0
    1.1406    1.4690   -2.2479 H   0  0  0  0  0  0  0  0  0  0  0  0
    1.1925    2.8655   -1.1360 H   0  0  0  0  0  0  0  0  0  0  0  0
   -0.7749    1.8388   -1.2747 C   0  0  0  0  0  0  0  0  0  0  0  0
   -1.1934    2.8637   -1.1387 H   0  0  0  0  0  0  0  0  0  0  0  0
   -1.1369    1.4672   -2.2504 H   0  0  0  0  0  0  0  0  0  0  0  0
   -2.6489    0.3794   -0.5953 C   0  0  0  0  0  0  0  0  0  0  0  0
   -2.6009    0.0745   -1.6593 H   0  0  0  0  0  0  0  0  0  0  0  0
   -3.4095    1.1924   -0.4859 H   0  0  0  0  0  0  0  0  0  0  0  0
   -2.9631   -0.8431    0.2452 C   0  0  0  0  0  0  0  0  0  0  0  0
   -3.8911   -1.3229   -0.1299 H   0  0  0  0  0  0  0  0  0  0  0  0
   -3.1603   -0.5597    1.3031 H   0  0  0  0  0  0  0  0  0  0  0  0
  1 11  1  0  0  0  0
  2 17  1  0  0  0  0
  3  5  1  0  0  0  0
  4 29  1  0  0  0  0
  5  6  1  0  0  0  0
  7  5  1  0  0  0  0
  8  9  1  0  0  0  0
  8  1  1  0  0  0  0
  8  5  1  0  0  0  0
 10  8  1  0  0  0  0
 11 12  1  0  0  0  0
 11 14  1  0  0  0  0
 11 13  1  0  0  0  0
 14 15  1  0  0  0  0
 16 14  1  0  0  0  0
 17 19  1  0  0  0  0
 17 14  1  0  0  0  0
 17 18  1  0  0  0  0
 20 22  1  0  0  0  0
 20  1  1  0  0  0  0
 21 20  1  0  0  0  0
 23 20  1  0  0  0  0
 23 24  1  0  0  0  0
 23  2  1  0  0  0  0
 25 23  1  0  0  0  0
 26 28  1  0  0  0  0
 26  2  1  0  0  0  0
 26 29  1  0  0  0  0
 27 26  1  0  0  0  0
 29 31  1  0  0  0  0
 30 29  1  0  0  0  0
M  END
