1,2,4,9
q = -1.0, confidence = 0.006

 69 72  0  0  1  0  0  0  0  0999 V2000
    2.3996   -2.6948   -0.4519 S   0  0  0  0  0  1  0  0  0  0  0  0
   -2.2771   -2.6867   -0.2007 S   0  0  0  0  0  1  0  0  0  0  0  0
    2.8046    2.5452   -0.8205 N   0  0  0  0  0  0  0  0  0  0  0  0
    1.3719    0.1360   -0.1034 N   0  0  0  0  0  2  0  0  0  0  0  0
    2.6906    0.0003   -0.3282 N   0  0  0  0  0  0  0  0  0  0  0  0
    3.1909    0.9199   -0.4857 H   0  0  0  0  0  0  0  0  0  0  0  0
    4.6475   -1.2111   -0.4283 N   0  0  0  0  0  0  0  0  0  0  0  0
   -0.3239    3.2415    1.2361 N   0  0  0  0  0  0  0  0  0  0  0  0
   -1.3269    0.1868   -0.4828 N   0  0  0  0  0  2  0  0  0  0  0  0
   -2.6281    0.0578   -0.3431 N   0  0  0  0  0  2  0  0  0  0  0  0
   -4.4998   -1.2496   -0.6458 N   0  0  0  0  0  0  0  0  0  0  0  0
    3.4520    3.6048   -1.3331 C   0  0  0  0  0  0  0  0  0  0  0  0
    4.5510    3.6004   -1.2288 H   0  0  0  0  0  0  0  0  0  0  0  0
    2.7980    4.6606   -1.9758 C   0  0  0  0  0  0  0  0  0  0  0  0
    3.3699    5.5104   -2.3753 H   0  0  0  0  0  0  0  0  0  0  0  0
    1.4000    4.5847   -2.1112 C   0  0  0  0  0  0  0  0  0  0  0  0
    0.8448    5.3783   -2.6338 H   0  0  0  0  0  0  0  0  0  0  0  0
    0.7207    3.4910   -1.5757 C   0  0  0  0  0  0  0  0  0  0  0  0
   -0.3697    3.4005   -1.6673 H   0  0  0  0  0  0  0  0  0  0  0  0
    1.4504    2.4793   -0.9035 C   0  0  0  0  0  0  0  0  0  0  0  0
    0.7730    1.2851   -0.3392 C   0  0  1  0  0  3  0  0  0  0  0  0
    3.2815   -1.2334   -0.3925 C   0  0  2  0  0  3  0  0  0  0  0  0
    5.4091    0.0137   -0.1703 C   0  0  0  0  0  0  0  0  0  0  0  0
    5.0493    0.8347   -0.8276 H   0  0  0  0  0  0  0  0  0  0  0  0
    6.4414   -0.2030   -0.5051 H   0  0  0  0  0  0  0  0  0  0  0  0
    5.4178    0.4573    1.3060 C   0  0  0  0  0  0  0  0  0  0  0  0
    4.5487    1.1161    1.5100 H   0  0  0  0  0  0  0  0  0  0  0  0
    6.3212    1.0879    1.4529 H   0  0  0  0  0  0  0  0  0  0  0  0
   -0.7353    4.2961    1.9437 C   0  0  0  0  0  0  0  0  0  0  0  0
    0.0576    4.9083    2.4120 H   0  0  0  0  0  0  0  0  0  0  0  0
   -2.0877    4.6421    2.1138 C   0  0  0  0  0  0  0  0  0  0  0  0
   -2.3712    5.5192    2.7142 H   0  0  0  0  0  0  0  0  0  0  0  0
   -3.0494    3.8291    1.4946 C   0  0  0  0  0  0  0  0  0  0  0  0
   -4.1230    4.0547    1.5939 H   0  0  0  0  0  0  0  0  0  0  0  0
   -2.6374    2.7218    0.7456 C   0  0  0  0  0  0  0  0  0  0  0  0
   -3.3465    2.0455    0.2560 H   0  0  0  0  0  0  0  0  0  0  0  0
   -1.2500    2.4461    0.6332 C   0  0  0  0  0  0  0  0  0  0  0  0
   -0.6956    1.2974   -0.1041 C   0  0  2  0  0  3  0  0  0  0  0  0
   -3.1430   -1.1958   -0.4281 C   0  0  2  0  0  3  0  0  0  0  0  0
   -5.2375   -0.0255   -0.9612 C   0  0  0  0  0  0  0  0  0  0  0  0
   -6.0382   -0.2762   -1.6893 H   0  0  0  0  0  0  0  0  0  0  0  0
   -4.5374    0.6636   -1.4667 H   0  0  0  0  0  0  0  0  0  0  0  0
   -5.8274    0.6539    0.2858 C   0  0  0  0  0  0  0  0  0  0  0  0
   -6.0884    1.7031    0.0262 H   0  0  0  0  0  0  0  0  0  0  0  0
   -5.0178    0.7112    1.0436 H   0  0  0  0  0  0  0  0  0  0  0  0
    5.4112   -0.7078    2.3112 C   0  0  0  0  0  0  0  0  0  0  0  0
    4.3717   -1.0861    2.4236 H   0  0  0  0  0  0  0  0  0  0  0  0
    5.6839   -0.2961    3.3048 H   0  0  0  0  0  0  0  0  0  0  0  0
    6.3276   -1.9037    1.9785 C   0  0  0  0  0  0  0  0  0  0  0  0
    7.3001   -1.5426    1.5713 H   0  0  0  0  0  0  0  0  0  0  0  0
    6.5811   -2.4246    2.9251 H   0  0  0  0  0  0  0  0  0  0  0  0
    5.7000   -2.9424    1.0334 C   0  0  0  0  0  0  0  0  0  0  0  0
    4.7391   -3.2932    1.4677 H   0  0  0  0  0  0  0  0  0  0  0  0
    6.3568   -3.8357    0.9621 H   0  0  0  0  0  0  0  0  0  0  0  0
    5.4188   -2.4560   -0.3931 C   0  0  0  0  0  0  0  0  0  0  0  0
    6.3682   -2.2628   -0.9362 H   0  0  0  0  0  0  0  0  0  0  0  0
    4.8501   -3.2250   -0.9519 H   0  0  0  0  0  0  0  0  0  0  0  0
   -7.0593   -0.0394    0.8764 C   0  0  0  0  0  0  0  0  0  0  0  0
   -7.3537    0.4857    1.8102 H   0  0  0  0  0  0  0  0  0  0  0  0
   -7.9167    0.0857    0.1760 H   0  0  0  0  0  0  0  0  0  0  0  0
   -6.8945   -1.5386    1.1662 C   0  0  0  0  0  0  0  0  0  0  0  0
   -7.8085   -1.8929    1.6875 H   0  0  0  0  0  0  0  0  0  0  0  0
   -6.0533   -1.7016    1.8764 H   0  0  0  0  0  0  0  0  0  0  0  0
   -6.6778   -2.3939   -0.0942 C   0  0  0  0  0  0  0  0  0  0  0  0
   -7.3296   -2.0121   -0.9107 H   0  0  0  0  0  0  0  0  0  0  0  0
   -7.0229   -3.4331    0.0894 H   0  0  0  0  0  0  0  0  0  0  0  0
   -5.2241   -2.5158   -0.5631 C   0  0  0  0  0  0  0  0  0  0  0  0
   -4.6559   -3.1573    0.1421 H   0  0  0  0  0  0  0  0  0  0  0  0
   -5.1858   -3.0477   -1.5427 H   0  0  0  0  0  0  0  0  0  0  0  0
  5  4  1  0  0  0  0
  6  5  1  0  0  0  0
  7 55  1  0  0  0  0
  7 22  1  0  0  0  0
  7 23  1  0  0  0  0
  8 29  1  0  0  0  0
  9 10  1  0  0  0  0
 11 67  1  0  0  0  0
 11 39  1  0  0  0  0
 12 13  1  0  0  0  0
 12  3  2  0  0  0  0
 14 12  1  0  0  0  0
 15 14  1  0  0  0  0
 16 14  2  0  0  0  0
 16 18  1  0  0  0  0
 17 16  1  0  0  0  0
 18 20  2  0  0  0  0
 19 18  1  0  0  0  0
 20  3  1  0  0  0  0
 20 21  1  0  0  0  0
 21 38  1  0  0  0  0
 21  4  1  6  0  0  0
 22  1  1  6  0  0  0
 22  5  1  0  0  0  0
 23 26  1  0  0  0  0
 24 23  1  0  0  0  0
 25 23  1  0  0  0  0
 26 28  1  0  0  0  0
 26 27  1  0  0  0  0
 26 46  1  0  0  0  0
 29 31  2  0  0  0  0
 29 30  1  0  0  0  0
 31 32  1  0  0  0  0
 33 34  1  0  0  0  0
 33 31  1  0  0  0  0
 35 33  2  0  0  0  0
 36 35  1  0  0  0  0
 37 35  1  0  0  0  0
 37  8  2  0  0  0  0
 38  9  1  1  0  0  0
 38 37  1  0  0  0  0
 39 10  1  0  0  0  0
 39  2  1  1  0  0  0
 40 11  1  0  0  0  0
 40 43  1  0  0  0  0
 41 40  1  0  0  0  0
 42 40  1  0  0  0  0
 43 58  1  0  0  0  0
 43 45  1  0  0  0  0
 44 43  1  0  0  0  0
 46 47  1  0  0  0  0
 46 48  1  0  0  0  0
 49 46  1  0  0  0  0
 49 51  1  0  0  0  0
 50 49  1  0  0  0  0
 52 53  1  0  0  0  0
 52 49  1  0  0  0  0
 54 52  1  0  0  0  0
 55 52  1  0  0  0  0
 56 55  1  0  0  0  0
 57 55  1  0  0  0  0
 58 61  1  0  0  0  0
 58 59  1  0  0  0  0
 60 58  1  0  0  0  0
 61 62  1  0  0  0  0
 61 63  1  0  0  0  0
 64 66  1  0  0  0  0
 64 61  1  0  0  0  0
 65 64  1  0  0  0  0
 67 64  1  0  0  0  0
 67 68  1  0  0  0  0
 69 67  1  0  0  0  0
M  END
