1,2,4,7
q = 0.0, confidence = 1.0

 40 40  0  0  0  0  0  0  0  0999 V2000
   -1.2183    1.6249   -1.7731 S   0  0  0  0  0  0  0  0  0  0  0  0
    0.6585   -1.0999    1.8788 S   0  0  0  0  0  0  0  0  0  0  0  0
    0.1168    1.8793    1.0410 O   0  0  0  0  0  0  0  0  0  0  0  0
   -0.1661   -1.7039   -1.5819 N   0  0  0  0  0  0  0  0  0  0  0  0
   -0.2139   -1.3030   -2.5308 H   0  0  0  0  0  0  0  0  0  0  0  0
    0.8077   -2.0674   -1.5006 H   0  0  0  0  0  0  0  0  0  0  0  0
   -2.2532   -0.3756    0.5877 N   0  0  0  0  0  0  0  0  0  0  0  0
    0.3728    2.9572    0.1282 C   0  0  0  0  0  0  0  0  0  0  0  0
    1.3020    2.7359   -0.4411 H   0  0  0  0  0  0  0  0  0  0  0  0
    0.5233    3.9009    0.7000 H   0  0  0  0  0  0  0  0  0  0  0  0
   -0.8050    3.1442   -0.8078 C   0  0  0  0  0  0  0  0  0  0  0  0
   -0.5675    3.9398   -1.5407 H   0  0  0  0  0  0  0  0  0  0  0  0
   -1.7192    3.4490   -0.2606 H   0  0  0  0  0  0  0  0  0  0  0  0
   -2.9260    1.2999   -1.1903 C   0  0  0  0  0  0  0  0  0  0  0  0
   -3.5258    2.2194   -1.3425 H   0  0  0  0  0  0  0  0  0  0  0  0
   -3.3327    0.5422   -1.8879 H   0  0  0  0  0  0  0  0  0  0  0  0
   -2.9982    0.8643    0.2670 C   0  0  0  0  0  0  0  0  0  0  0  0
   -4.0699    0.7516    0.5562 H   0  0  0  0  0  0  0  0  0  0  0  0
   -2.5768    1.6706    0.8999 H   0  0  0  0  0  0  0  0  0  0  0  0
   -2.0914   -0.4593    2.0626 C   0  0  0  0  0  0  0  0  0  0  0  0
   -3.0638   -0.7178    2.5439 H   0  0  0  0  0  0  0  0  0  0  0  0
   -1.8162    0.5524    2.4205 H   0  0  0  0  0  0  0  0  0  0  0  0
   -1.0280   -1.4523    2.5118 C   0  0  0  0  0  0  0  0  0  0  0  0
   -1.2401   -2.4867    2.1719 H   0  0  0  0  0  0  0  0  0  0  0  0
   -0.9871   -1.4928    3.6188 H   0  0  0  0  0  0  0  0  0  0  0  0
    1.0334    0.4608    2.7965 C   0  0  0  0  0  0  0  0  0  0  0  0
    0.2151    0.6125    3.5277 H   0  0  0  0  0  0  0  0  0  0  0  0
    1.9678    0.2717    3.3591 H   0  0  0  0  0  0  0  0  0  0  0  0
    1.2413    1.6760    1.9138 C   0  0  0  0  0  0  0  0  0  0  0  0
    2.1613    1.5480    1.3078 H   0  0  0  0  0  0  0  0  0  0  0  0
    1.3651    2.5693    2.5673 H   0  0  0  0  0  0  0  0  0  0  0  0
   -1.1869   -2.7533   -1.4167 C   0  0  0  0  0  0  0  0  0  0  0  0
   -1.1571   -3.4726   -2.2626 H   0  0  0  0  0  0  0  0  0  0  0  0
   -0.9346   -3.3355   -0.5050 H   0  0  0  0  0  0  0  0  0  0  0  0
   -2.5922   -2.1606   -1.2919 C   0  0  0  0  0  0  0  0  0  0  0  0
   -3.3267   -2.9681   -1.4915 H   0  0  0  0  0  0  0  0  0  0  0  0
   -2.7535   -1.4204   -2.1040 H   0  0  0  0  0  0  0  0  0  0  0  0
   -2.9669   -1.5960    0.0834 C   0  0  0  0  0  0  0  0  0  0  0  0
   -4.0609   -1.3889    0.1103 H   0  0  0  0  0  0  0  0  0  0  0  0
   -2.7975   -2.4049    0.8212 H   0  0  0  0  0  0  0  0  0  0  0  0
  1 14  1  0  0  0  0
  1 11  1  0  0  0  0
  2 23  1  0  0  0  0
  2 26  1  0  0  0  0
  3 29  1  0  0  0  0
  4  6  1  0  0  0  0
  4 32  1  0  0  0  0
  5  4  1  0  0  0  0
  7 20  1  0  0  0  0
  8 10  1  0  0  0  0
  8  3  1  0  0  0  0
  9  8  1  0  0  0  0
 11 13  1  0  0  0  0
 11  8  1  0  0  0  0
 12 11  1  0  0  0  0
 14 17  1  0  0  0  0
 15 14  1  0  0  0  0
 16 14  1  0  0  0  0
 17 18  1  0  0  0  0
 17  7  1  0  0  0  0
 17 19  1  0  0  0  0
 20 22  1  0  0  0  0
 20 23  1  0  0  0  0
 20 21  1  0  0  0  0
 23 25  1  0  0  0  0
 24 23  1  0  0  0  0
 26 28  1  0  0  0  0
 26 27  1  0  0  0  0
 29 31  1  0  0  0  0
 29 26  1  0  0  0  0
 30 29  1  0  0  0  0
 32 35  1  0  0  0  0
 32 34  1  0  0  0  0
 33 32  1  0  0  0  0
 35 38  1  0  0  0  0
 36 35  1  0  0  0  0
 37 35  1  0  0  0  0
 38 39  1  0  0  0  0
 38  7  1  0  0  0  0
 38 40  1  0  0  0  0
M  END
