1,4,7,10
q = -2.0, confidence = 0.96

 30 29  0  0  1  0  0  0  0  0999 V2000
   -1.0742    1.8123   -2.2618 S   0  0  0  0  0  1  0  0  0  0  0  0
   -0.9784    3.0450   -1.0242 C   0  0  2  0  0  3  0  0  0  0  0  0
   -1.1028    2.8974    0.3063 N   0  0  0  0  0  2  0  0  0  0  0  0
   -1.3151    1.6269    0.6770 N   0  0  0  0  0  2  0  0  0  0  0  0
   -1.5926    1.2951    1.9190 C   0  0  0  0  0  0  0  0  0  0  0  0
   -1.8386   -0.1366    2.1600 C   0  0  0  0  0  0  0  0  0  0  0  0
   -1.7672   -0.9180    1.1011 N   0  0  0  0  0  2  0  0  0  0  0  0
   -2.0109   -2.2261    1.1731 N   0  0  0  0  0  2  0  0  0  0  0  0
   -1.9543   -2.8559   -0.0145 C   0  0  2  0  0  3  0  0  0  0  0  0
   -1.6129   -2.1671   -1.5843 S   0  0  0  0  0  1  0  0  0  0  0  0
   -2.2130   -4.1929    0.0534 N   0  0  0  0  0  0  0  0  0  0  0  0
   -2.2977   -5.0902   -1.0726 C   0  0  0  0  0  0  0  0  0  0  0  0
   -2.1852   -0.6469    3.5284 C   0  0  0  0  0  0  0  0  0  0  0  0
   -1.6919    2.2988    3.0308 C   0  0  0  0  0  0  0  0  0  0  0  0
   -0.7680    4.3223   -1.4547 N   0  0  0  0  0  0  0  0  0  0  0  0
   -0.7031    5.4666   -0.5737 C   0  0  0  0  0  0  0  0  0  0  0  0
   -2.4363   -6.1223   -0.6976 H   0  0  0  0  0  0  0  0  0  0  0  0
   -1.3723   -5.0518   -1.6848 H   0  0  0  0  0  0  0  0  0  0  0  0
   -3.1438   -4.8397   -1.7512 H   0  0  0  0  0  0  0  0  0  0  0  0
   -2.2944   -1.7458    3.4836 H   0  0  0  0  0  0  0  0  0  0  0  0
   -1.4031   -0.3854    4.2715 H   0  0  0  0  0  0  0  0  0  0  0  0
   -3.1363   -0.2083    3.8983 H   0  0  0  0  0  0  0  0  0  0  0  0
   -2.6845    2.2612    3.5260 H   0  0  0  0  0  0  0  0  0  0  0  0
   -0.9350    2.1045    3.8201 H   0  0  0  0  0  0  0  0  0  0  0  0
   -1.5296    3.3108    2.6175 H   0  0  0  0  0  0  0  0  0  0  0  0
   -0.5625    6.3803   -1.1816 H   0  0  0  0  0  0  0  0  0  0  0  0
    0.1381    5.3831    0.1479 H   0  0  0  0  0  0  0  0  0  0  0  0
   -1.6316    5.5712    0.0274 H   0  0  0  0  0  0  0  0  0  0  0  0
   -2.4712   -4.5173    0.9881 H   0  0  0  0  0  0  0  0  0  0  0  0
   -0.6895    4.4421   -2.4632 H   0  0  0  0  0  0  0  0  0  0  0  0
  2  1  1  6  0  0  0
  2  3  1  0  0  0  0
  3  4  1  0  0  0  0
  4  5  1  0  0  0  0
  5  6  2  0  0  0  0
  5 14  1  0  0  0  0
  6 13  1  0  0  0  0
  7  8  1  0  0  0  0
  7  6  1  0  0  0  0
  9 10  1  6  0  0  0
  9 11  1  0  0  0  0
  9  8  1  0  0  0  0
 11 29  1  0  0  0  0
 12 17  1  0  0  0  0
 12 11  1  0  0  0  0
 13 22  1  0  0  0  0
 13 21  1  0  0  0  0
 14 23  1  0  0  0  0
 14 24  1  0  0  0  0
 15  2  1  0  0  0  0
 15 16  1  0  0  0  0
 16 28  1  0  0  0  0
 16 27  1  0  0  0  0
 18 12  1  0  0  0  0
 19 12  1  0  0  0  0
 20 13  1  0  0  0  0
 25 14  1  0  0  0  0
 26 16  1  0  0  0  0
 30 15  1  0  0  0  0
M  END
