1,2,5,6
q = -2.0, confidence = 0.938

 32 31  0  0  0  0  0  0  0  0999 V2000
   -1.8099   -0.9920   -0.2513 S   0  0  0  0  0  5  0  0  0  0  0  0
    1.0361   -2.0809    0.6182 S   0  0  0  0  0  1  0  0  0  0  0  0
   -1.8165   -0.9631   -1.7644 O   0  0  0  0  0  0  0  0  0  0  0  0
   -2.4446   -2.1391    0.4608 O   0  0  0  0  0  0  0  0  0  0  0  0
    1.8422    0.6092   -0.3572 N   0  0  0  0  0  0  0  0  0  0  0  0
   -0.6598    1.6337    0.3222 N   0  0  0  0  0  0  0  0  0  0  0  0
    2.7863   -1.5778    0.2951 C   0  0  0  0  0  0  0  0  0  0  0  0
    3.4428   -2.0654    1.0448 H   0  0  0  0  0  0  0  0  0  0  0  0
    3.1245   -1.9383   -0.7004 H   0  0  0  0  0  0  0  0  0  0  0  0
    2.9302   -0.0670    0.4029 C   0  0  0  0  0  0  0  0  0  0  0  0
    2.8108    0.2377    1.4625 H   0  0  0  0  0  0  0  0  0  0  0  0
    3.9267    0.2890    0.0411 H   0  0  0  0  0  0  0  0  0  0  0  0
    1.7351    2.0575   -0.0738 C   0  0  0  0  0  0  0  0  0  0  0  0
    2.4675    2.6525   -0.6680 H   0  0  0  0  0  0  0  0  0  0  0  0
    1.9888    2.2118    0.9938 H   0  0  0  0  0  0  0  0  0  0  0  0
    0.3095    2.5279   -0.3592 C   0  0  0  0  0  0  0  0  0  0  0  0
    0.1767    3.5904   -0.0467 H   0  0  0  0  0  0  0  0  0  0  0  0
    0.0961    2.4785   -1.4449 H   0  0  0  0  0  0  0  0  0  0  0  0
   -2.0273    1.7110   -0.2709 C   0  0  0  0  0  0  0  0  0  0  0  0
   -1.9059    1.6617   -1.3711 H   0  0  0  0  0  0  0  0  0  0  0  0
   -2.5057    2.6826   -0.0040 H   0  0  0  0  0  0  0  0  0  0  0  0
   -2.8491    0.5158    0.1643 C   0  0  0  0  0  0  0  0  0  0  0  0
   -3.7821    0.4052   -0.4213 H   0  0  0  0  0  0  0  0  0  0  0  0
   -3.0869    0.4845    1.2452 H   0  0  0  0  0  0  0  0  0  0  0  0
    1.9451    0.3489   -1.8107 C   0  0  0  0  0  0  0  0  0  0  0  0
    1.0855    0.8009   -2.3373 H   0  0  0  0  0  0  0  0  0  0  0  0
    1.8923   -0.7383   -1.9931 H   0  0  0  0  0  0  0  0  0  0  0  0
    2.8953    0.7641   -2.2222 H   0  0  0  0  0  0  0  0  0  0  0  0
   -0.6940    1.8961    1.7776 C   0  0  0  0  0  0  0  0  0  0  0  0
   -1.0520    2.9320    1.9868 H   0  0  0  0  0  0  0  0  0  0  0  0
    0.3125    1.7644    2.2131 H   0  0  0  0  0  0  0  0  0  0  0  0
   -1.3619    1.1716    2.2741 H   0  0  0  0  0  0  0  0  0  0  0  0
  1 22  1  0  0  0  0
  1  4  2  0  0  0  0
  3  1  2  0  0  0  0
  5 13  1  0  0  0  0
  5 10  1  0  0  0  0
  6 29  1  0  0  0  0
  7 10  1  0  0  0  0
  7  2  1  0  0  0  0
  7  8  1  0  0  0  0
  9  7  1  0  0  0  0
 10 11  1  0  0  0  0
 12 10  1  0  0  0  0
 13 15  1  0  0  0  0
 14 13  1  0  0  0  0
 16 13  1  0  0  0  0
 16 17  1  0  0  0  0
 16  6  1  0  0  0  0
 18 16  1  0  0  0  0
 19 21  1  0  0  0  0
 19 22  1  0  0  0  0
 19  6  1  0  0  0  0
 20 19  1  0  0  0  0
 22 24  1  0  0  0  0
 23 22  1  0  0  0  0
 25  5  1  0  0  0  0
 26 25  1  0  0  0  0
 27 25  1  0  0  0  0
 28 25  1  0  0  0  0
 29 30  1  0  0  0  0
 29 31  1  0  0  0  0
 29 32  1  0  0  0  0
M  END
