1,4,7,10
q = -1.0, confidence = 0.002

 45 46  0  0  1  0  0  0  0  0999 V2000
   -1.8744   -1.2708   -1.6577 S   0  0  0  0  0  1  0  0  0  0  0  0
   -2.8786   -0.1208   -0.9135 C   0  0  2  0  0  3  0  0  0  0  0  0
   -2.4626    1.1988   -0.7457 N   0  0  0  0  0  0  0  0  0  0  0  0
   -1.1311    1.3962   -0.7361 N   0  0  0  0  0  2  0  0  0  0  0  0
   -0.5732    2.5215   -0.3624 C   0  0  2  0  0  3  0  0  0  0  0  0
    0.8795    2.4345   -0.1868 C   0  0  1  0  0  3  0  0  0  0  0  0
    1.3381    1.1955   -0.0757 N   0  0  0  0  0  2  0  0  0  0  0  0
    2.6391    0.9662   -0.0235 N   0  0  0  0  0  0  0  0  0  0  0  0
    2.9639   -0.3545   -0.0104 C   0  0  0  0  0  0  0  0  0  0  0  0
    1.8806   -1.7154   -0.1355 S   0  0  0  0  0  1  0  0  0  0  0  0
   -4.1036   -0.4105   -0.4275 N   0  0  0  0  0  0  0  0  0  0  0  0
   -4.6531   -1.7729   -0.5226 C   0  0  0  0  0  0  0  0  0  0  0  0
   -5.9447   -1.6931    0.2950 C   0  0  0  0  0  0  0  0  0  0  0  0
   -5.5855   -0.6822    1.3915 C   0  0  0  0  0  0  0  0  0  0  0  0
   -4.7574    0.3694    0.6413 C   0  0  0  0  0  0  0  0  0  0  0  0
   -1.3729    3.7520   -0.0438 C   0  0  0  0  0  0  0  0  0  0  0  0
    1.8076    3.6098   -0.1598 C   0  0  0  0  0  0  0  0  0  0  0  0
    4.2948   -0.6021    0.0791 N   0  0  0  0  0  0  0  0  0  0  0  0
    5.2983    0.4613    0.2165 C   0  0  0  0  0  0  0  0  0  0  0  0
    6.5712   -0.3073    0.5933 C   0  0  0  0  0  0  0  0  0  0  0  0
    6.3898   -1.6540   -0.1223 C   0  0  0  0  0  0  0  0  0  0  0  0
    4.8905   -1.9380    0.0434 C   0  0  0  0  0  0  0  0  0  0  0  0
   -3.0523    1.8056   -0.1613 H   0  0  0  0  0  0  0  0  0  0  0  0
   -3.9148   -2.4830   -0.0886 H   0  0  0  0  0  0  0  0  0  0  0  0
   -4.7975   -2.0591   -1.5830 H   0  0  0  0  0  0  0  0  0  0  0  0
   -6.2478   -2.6810    0.6913 H   0  0  0  0  0  0  0  0  0  0  0  0
   -6.7785   -1.3093   -0.3306 H   0  0  0  0  0  0  0  0  0  0  0  0
   -4.9366   -1.1615    2.1530 H   0  0  0  0  0  0  0  0  0  0  0  0
   -6.4624   -0.2450    1.9064 H   0  0  0  0  0  0  0  0  0  0  0  0
   -3.9769    0.8126    1.2974 H   0  0  0  0  0  0  0  0  0  0  0  0
   -5.3977    1.1750    0.2141 H   0  0  0  0  0  0  0  0  0  0  0  0
   -0.7386    4.6457    0.0893 H   0  0  0  0  0  0  0  0  0  0  0  0
   -1.9239    3.5982    0.9117 H   0  0  0  0  0  0  0  0  0  0  0  0
   -2.1205    3.9660   -0.8360 H   0  0  0  0  0  0  0  0  0  0  0  0
    2.6212    3.4495   -0.8976 H   0  0  0  0  0  0  0  0  0  0  0  0
    2.3114    3.6910    0.8272 H   0  0  0  0  0  0  0  0  0  0  0  0
    1.3015    4.5661   -0.3842 H   0  0  0  0  0  0  0  0  0  0  0  0
    4.9726    1.2027    0.9713 H   0  0  0  0  0  0  0  0  0  0  0  0
    5.4064    1.0119   -0.7457 H   0  0  0  0  0  0  0  0  0  0  0  0
    6.6077   -0.4615    1.6924 H   0  0  0  0  0  0  0  0  0  0  0  0
    7.4937    0.2300    0.2995 H   0  0  0  0  0  0  0  0  0  0  0  0
    7.0215   -2.4645    0.2893 H   0  0  0  0  0  0  0  0  0  0  0  0
    6.6375   -1.5494   -1.1997 H   0  0  0  0  0  0  0  0  0  0  0  0
    4.6650   -2.4847    0.9878 H   0  0  0  0  0  0  0  0  0  0  0  0
    4.4513   -2.5357   -0.7815 H   0  0  0  0  0  0  0  0  0  0  0  0
  2  1  1  1  0  0  0
  2  3  1  0  0  0  0
  2 11  1  0  0  0  0
  3  4  1  0  0  0  0
  3 23  1  0  0  0  0
  5  4  1  1  0  0  0
  5  6  1  0  0  0  0
  5 16  1  0  0  0  0
  6 17  1  0  0  0  0
  6  7  1  6  0  0  0
  7  8  1  0  0  0  0
  8  9  2  0  0  0  0
  9 18  1  0  0  0  0
 10  9  1  0  0  0  0
 11 15  1  0  0  0  0
 12 11  1  0  0  0  0
 12 24  1  0  0  0  0
 12 13  1  0  0  0  0
 13 26  1  0  0  0  0
 13 14  1  0  0  0  0
 14 29  1  0  0  0  0
 14 28  1  0  0  0  0
 15 30  1  0  0  0  0
 15 14  1  0  0  0  0
 16 32  1  0  0  0  0
 16 33  1  0  0  0  0
 17 36  1  0  0  0  0
 18 19  1  0  0  0  0
 19 20  1  0  0  0  0
 19 38  1  0  0  0  0
 20 40  1  0  0  0  0
 21 22  1  0  0  0  0
 21 42  1  0  0  0  0
 21 20  1  0  0  0  0
 22 18  1  0  0  0  0
 22 44  1  0  0  0  0
 25 12  1  0  0  0  0
 27 13  1  0  0  0  0
 31 15  1  0  0  0  0
 34 16  1  0  0  0  0
 35 17  1  0  0  0  0
 37 17  1  0  0  0  0
 39 19  1  0  0  0  0
 41 20  1  0  0  0  0
 43 21  1  0  0  0  0
 45 22  1  0  0  0  0
M  END
