1,2,3,4
q = -2.0, confidence = 0.716

 72 77  0  0  0  0  0  0  0  0999 V2000
   -1.3567    0.7239    0.8223 S   0  0  0  0  0  1  0  0  0  0  0  0
    1.4229    1.1267    0.3306 S   0  0  0  0  0  1  0  0  0  0  0  0
   -1.3275   -1.5868   -1.0527 N   0  0  0  0  0  2  0  0  0  0  0  0
    1.1854   -1.6871   -1.0226 N   0  0  0  0  0  2  0  0  0  0  0  0
    0.5939   -2.9436   -1.0826 C   0  0  0  0  0  0  0  0  0  0  0  0
   -4.1094   -0.0037    1.0254 C   0  0  0  0  0  0  0  0  0  0  0  0
   -3.4048    2.2358   -0.0100 C   0  0  0  0  0  0  0  0  0  0  0  0
   -3.1083    0.7398    0.1362 C   0  0  0  0  0  0  0  0  0  0  0  0
   -4.3158    2.9172    0.8232 C   0  0  0  0  0  0  0  0  0  0  0  0
   -4.8588    2.3619    1.6012 H   0  0  0  0  0  0  0  0  0  0  0  0
   -0.8554   -2.8825   -1.1060 C   0  0  0  0  0  0  0  0  0  0  0  0
    1.3506   -4.1265   -1.1216 C   0  0  0  0  0  0  0  0  0  0  0  0
    0.8321   -5.0960   -1.1293 H   0  0  0  0  0  0  0  0  0  0  0  0
    4.4294    2.3698   -1.1803 C   0  0  0  0  0  0  0  0  0  0  0  0
    4.1831    1.8894   -2.1372 H   0  0  0  0  0  0  0  0  0  0  0  0
    3.1697    0.5105    0.0864 C   0  0  0  0  0  0  0  0  0  0  0  0
   -5.4828    0.0008    0.6888 C   0  0  0  0  0  0  0  0  0  0  0  0
   -5.8258    0.5982   -0.1703 H   0  0  0  0  0  0  0  0  0  0  0  0
    2.5522   -1.6222   -1.1582 C   0  0  0  0  0  0  0  0  0  0  0  0
    3.9958    1.7890    0.0295 C   0  0  0  0  0  0  0  0  0  0  0  0
   -2.6720   -1.3765   -1.2014 C   0  0  0  0  0  0  0  0  0  0  0  0
    3.2222   -2.0610    2.9625 C   0  0  0  0  0  0  0  0  0  0  0  0
    2.4984   -2.5993    3.5949 H   0  0  0  0  0  0  0  0  0  0  0  0
   -4.5316    4.2989    0.6840 C   0  0  0  0  0  0  0  0  0  0  0  0
   -5.2477    4.8049    1.3516 H   0  0  0  0  0  0  0  0  0  0  0  0
   -3.7052   -0.7745    2.1299 C   0  0  0  0  0  0  0  0  0  0  0  0
   -2.6318   -0.7855    2.3765 H   0  0  0  0  0  0  0  0  0  0  0  0
   -2.6886    2.9915   -0.9708 C   0  0  0  0  0  0  0  0  0  0  0  0
   -1.9105    2.5022   -1.5791 H   0  0  0  0  0  0  0  0  0  0  0  0
    3.6569   -0.4274    1.1985 C   0  0  0  0  0  0  0  0  0  0  0  0
   -3.8410    5.0300   -0.2919 C   0  0  0  0  0  0  0  0  0  0  0  0
   -4.0103    6.1127   -0.4029 H   0  0  0  0  0  0  0  0  0  0  0  0
   -6.4164   -0.7336    1.4331 C   0  0  0  0  0  0  0  0  0  0  0  0
   -7.4811   -0.7098    1.1503 H   0  0  0  0  0  0  0  0  0  0  0  0
    2.7576   -1.1255    2.0251 C   0  0  0  0  0  0  0  0  0  0  0  0
    1.6834   -0.9106    1.9084 H   0  0  0  0  0  0  0  0  0  0  0  0
    5.4644    4.2240    0.0162 C   0  0  0  0  0  0  0  0  0  0  0  0
    6.0331    5.1671    0.0099 H   0  0  0  0  0  0  0  0  0  0  0  0
   -3.1087    0.0526   -1.2594 C   0  0  0  0  0  0  0  0  0  0  0  0
   -4.1266    0.1165   -1.6965 H   0  0  0  0  0  0  0  0  0  0  0  0
   -2.4027    0.5837   -1.9303 H   0  0  0  0  0  0  0  0  0  0  0  0
    5.0372   -0.6875    1.3395 C   0  0  0  0  0  0  0  0  0  0  0  0
    5.7537   -0.1453    0.7023 H   0  0  0  0  0  0  0  0  0  0  0  0
   -5.9959   -1.4990    2.5343 C   0  0  0  0  0  0  0  0  0  0  0  0
   -6.7265   -2.0802    3.1190 H   0  0  0  0  0  0  0  0  0  0  0  0
    3.1890   -0.2681   -1.2546 C   0  0  0  0  0  0  0  0  0  0  0  0
    2.6372    0.3275   -2.0128 H   0  0  0  0  0  0  0  0  0  0  0  0
    4.2398   -0.4046   -1.5878 H   0  0  0  0  0  0  0  0  0  0  0  0
   -1.7245   -3.9849   -1.1904 C   0  0  0  0  0  0  0  0  0  0  0  0
   -1.3097   -5.0030   -1.2026 H   0  0  0  0  0  0  0  0  0  0  0  0
    3.3353   -2.7792   -1.2035 C   0  0  0  0  0  0  0  0  0  0  0  0
    4.4264   -2.6637   -1.2780 H   0  0  0  0  0  0  0  0  0  0  0  0
   -2.9121    4.3655   -1.1134 C   0  0  0  0  0  0  0  0  0  0  0  0
   -2.3379    4.9281   -1.8662 H   0  0  0  0  0  0  0  0  0  0  0  0
    4.5967   -2.3114    3.0967 C   0  0  0  0  0  0  0  0  0  0  0  0
    4.9610   -3.0420    3.8363 H   0  0  0  0  0  0  0  0  0  0  0  0
    4.3098    2.4609    1.2344 C   0  0  0  0  0  0  0  0  0  0  0  0
    3.9638    2.0288    2.1851 H   0  0  0  0  0  0  0  0  0  0  0  0
    5.1551    3.5716   -1.1869 C   0  0  0  0  0  0  0  0  0  0  0  0
    5.4784    4.0030   -2.1477 H   0  0  0  0  0  0  0  0  0  0  0  0
    5.5049   -1.6176    2.2797 C   0  0  0  0  0  0  0  0  0  0  0  0
    6.5871   -1.8011    2.3763 H   0  0  0  0  0  0  0  0  0  0  0  0
    5.0312    3.6604    1.2290 C   0  0  0  0  0  0  0  0  0  0  0  0
    5.2568    4.1635    2.1829 H   0  0  0  0  0  0  0  0  0  0  0  0
   -4.6363   -1.5152    2.8765 C   0  0  0  0  0  0  0  0  0  0  0  0
   -4.2900   -2.1146    3.7335 H   0  0  0  0  0  0  0  0  0  0  0  0
    2.7442   -4.0568   -1.1605 C   0  0  0  0  0  0  0  0  0  0  0  0
    3.3595   -4.9679   -1.1813 H   0  0  0  0  0  0  0  0  0  0  0  0
   -3.5720   -2.4432   -1.2904 C   0  0  0  0  0  0  0  0  0  0  0  0
   -4.6451   -2.2192   -1.3768 H   0  0  0  0  0  0  0  0  0  0  0  0
   -3.1037   -3.7715   -1.2670 C   0  0  0  0  0  0  0  0  0  0  0  0
   -3.8035   -4.6182   -1.3250 H   0  0  0  0  0  0  0  0  0  0  0  0
  5  4  1  0  0  0  0
  6 26  1  0  0  0  0
  7  8  1  0  0  0  0
  7  9  1  0  0  0  0
  8  1  1  0  0  0  0
  8  6  1  0  0  0  0
  9 10  1  0  0  0  0
 11  5  2  0  0  0  0
 11  3  1  0  0  0  0
 12  5  1  0  0  0  0
 13 12  1  0  0  0  0
 14 20  1  0  0  0  0
 15 14  1  0  0  0  0
 16  2  1  0  0  0  0
 16 30  1  0  0  0  0
 17  6  2  0  0  0  0
 17 33  1  0  0  0  0
 18 17  1  0  0  0  0
 19  4  1  0  0  0  0
 20 16  1  0  0  0  0
 20 57  2  0  0  0  0
 21  3  1  0  0  0  0
 22 55  1  0  0  0  0
 22 23  1  0  0  0  0
 24  9  2  0  0  0  0
 24 25  1  0  0  0  0
 26 27  1  0  0  0  0
 26 65  2  0  0  0  0
 28  7  2  0  0  0  0
 29 28  1  0  0  0  0
 30 42  2  0  0  0  0
 30 35  1  0  0  0  0
 31 24  1  0  0  0  0
 32 31  1  0  0  0  0
 33 44  2  0  0  0  0
 34 33  1  0  0  0  0
 35 22  2  0  0  0  0
 36 35  1  0  0  0  0
 37 63  2  0  0  0  0
 38 37  1  0  0  0  0
 39 21  1  0  0  0  0
 39  8  1  0  0  0  0
 40 39  1  0  0  0  0
 41 39  1  0  0  0  0
 42 61  1  0  0  0  0
 43 42  1  0  0  0  0
 44 65  1  0  0  0  0
 44 45  1  0  0  0  0
 46 19  1  0  0  0  0
 46 16  1  0  0  0  0
 47 46  1  0  0  0  0
 48 46  1  0  0  0  0
 49 11  1  0  0  0  0
 50 49  1  0  0  0  0
 51 67  1  0  0  0  0
 51 19  2  0  0  0  0
 52 51  1  0  0  0  0
 53 28  1  0  0  0  0
 53 31  2  0  0  0  0
 54 53  1  0  0  0  0
 55 56  1  0  0  0  0
 57 58  1  0  0  0  0
 59 14  2  0  0  0  0
 59 37  1  0  0  0  0
 60 59  1  0  0  0  0
 61 62  1  0  0  0  0
 61 55  2  0  0  0  0
 63 57  1  0  0  0  0
 63 64  1  0  0  0  0
 65 66  1  0  0  0  0
 67 12  2  0  0  0  0
 68 67  1  0  0  0  0
 69 71  1  0  0  0  0
 69 21  2  0  0  0  0
 70 69  1  0  0  0  0
 71 49  2  0  0  0  0
 72 71  1  0  0  0  0
M  END
