1,25,35,46
q = 0.0, confidence = 0.996

 55 56  0  0  0  0  0  0  0  0999 V2000
    0.9130   -0.3721   -0.4899 N   0  0  0  0  0  0  0  0  0  0  0  0
    1.6445    0.1500    0.7165 C   0  0  0  0  0  0  0  0  0  0  0  0
    1.2063   -0.3747    1.5900 H   0  0  0  0  0  0  0  0  0  0  0  0
    1.3831    1.2203    0.8201 H   0  0  0  0  0  0  0  0  0  0  0  0
    3.1505   -0.0222    0.7299 C   0  0  0  0  0  0  0  0  0  0  0  0
    3.7380   -1.1660    1.3098 C   0  0  0  0  0  0  0  0  0  0  0  0
    3.0978   -1.9234    1.7899 H   0  0  0  0  0  0  0  0  0  0  0  0
    5.1288   -1.3449    1.3020 C   0  0  0  0  0  0  0  0  0  0  0  0
    5.5687   -2.2410    1.7645 H   0  0  0  0  0  0  0  0  0  0  0  0
    5.9580   -0.3763    0.7151 C   0  0  0  0  0  0  0  0  0  0  0  0
    7.0496   -0.5133    0.7103 H   0  0  0  0  0  0  0  0  0  0  0  0
    5.3901    0.7755    0.1489 C   0  0  0  0  0  0  0  0  0  0  0  0
    6.0356    1.5473   -0.2962 H   0  0  0  0  0  0  0  0  0  0  0  0
    3.9984    0.9508    0.1597 C   0  0  0  0  0  0  0  0  0  0  0  0
    3.5689    1.8700   -0.2683 H   0  0  0  0  0  0  0  0  0  0  0  0
    1.1616   -1.8372   -0.6133 C   0  0  0  0  0  0  0  0  0  0  0  0
    1.0963   -2.2626    0.4096 H   0  0  0  0  0  0  0  0  0  0  0  0
    2.2135   -1.9952   -0.9458 H   0  0  0  0  0  0  0  0  0  0  0  0
    0.2336   -2.6474   -1.5279 C   0  0  0  0  0  0  0  0  0  0  0  0
    0.1057   -2.1610   -2.5187 H   0  0  0  0  0  0  0  0  0  0  0  0
    0.7738   -3.5920   -1.7477 H   0  0  0  0  0  0  0  0  0  0  0  0
   -1.1303   -3.0439   -0.9537 C   0  0  0  0  0  0  0  0  0  0  0  0
   -1.0362   -3.3326    0.1141 H   0  0  0  0  0  0  0  0  0  0  0  0
   -1.5504   -3.9077   -1.5076 H   0  0  0  0  0  0  0  0  0  0  0  0
   -2.3329   -1.6607   -1.0919 S   0  0  0  0  0  0  0  0  0  0  0  0
   -3.5700   -2.1019    0.1936 C   0  0  0  0  0  0  0  0  0  0  0  0
   -4.4810   -1.5453   -0.1083 H   0  0  0  0  0  0  0  0  0  0  0  0
   -3.8002   -3.1798    0.0691 H   0  0  0  0  0  0  0  0  0  0  0  0
   -3.1965   -1.7815    1.6422 C   0  0  0  0  0  0  0  0  0  0  0  0
   -3.9929   -2.2231    2.2781 H   0  0  0  0  0  0  0  0  0  0  0  0
   -2.2667   -2.3210    1.9326 H   0  0  0  0  0  0  0  0  0  0  0  0
   -3.0729   -0.2971    2.0188 C   0  0  0  0  0  0  0  0  0  0  0  0
   -3.7810    0.3086    1.4158 H   0  0  0  0  0  0  0  0  0  0  0  0
   -3.3711   -0.1627    3.0854 H   0  0  0  0  0  0  0  0  0  0  0  0
   -1.7085    0.2463    1.8180 N   0  0  0  0  0  0  0  0  0  0  0  0
   -1.0759   -0.3536    2.3663 H   0  0  0  0  0  0  0  0  0  0  0  0
   -1.5445    1.6210    2.3550 C   0  0  0  0  0  0  0  0  0  0  0  0
   -0.4563    1.7889    2.4946 H   0  0  0  0  0  0  0  0  0  0  0  0
   -2.0093    1.6787    3.3676 H   0  0  0  0  0  0  0  0  0  0  0  0
   -2.1193    2.7596    1.5022 C   0  0  0  0  0  0  0  0  0  0  0  0
   -2.1492    3.6534    2.1598 H   0  0  0  0  0  0  0  0  0  0  0  0
   -3.1821    2.5626    1.2427 H   0  0  0  0  0  0  0  0  0  0  0  0
   -1.3363    3.1580    0.2453 C   0  0  0  0  0  0  0  0  0  0  0  0
   -0.2455    3.1704    0.4503 H   0  0  0  0  0  0  0  0  0  0  0  0
   -1.6326    4.1734   -0.0875 H   0  0  0  0  0  0  0  0  0  0  0  0
   -1.6770    1.9968   -1.1392 S   0  0  0  0  0  0  0  0  0  0  0  0
   -0.2752    2.3109   -2.2801 C   0  0  0  0  0  0  0  0  0  0  0  0
   -0.5897    1.8075   -3.2179 H   0  0  0  0  0  0  0  0  0  0  0  0
   -0.2578    3.3998   -2.4927 H   0  0  0  0  0  0  0  0  0  0  0  0
    1.1033    1.8244   -1.8320 C   0  0  0  0  0  0  0  0  0  0  0  0
    1.8256    2.2078   -2.5843 H   0  0  0  0  0  0  0  0  0  0  0  0
    1.3962    2.3305   -0.8890 H   0  0  0  0  0  0  0  0  0  0  0  0
    1.3445    0.3097   -1.7433 C   0  0  0  0  0  0  0  0  0  0  0  0
    0.8168   -0.1865   -2.5823 H   0  0  0  0  0  0  0  0  0  0  0  0
    2.4316    0.1149   -1.8956 H   0  0  0  0  0  0  0  0  0  0  0  0
  1  2  1  0  0  0  0
  2  5  1  0  0  0  0
  2  4  1  0  0  0  0
  2  3  1  0  0  0  0
  5  6  1  0  0  0  0
  6  7  1  0  0  0  0
  8  6  2  0  0  0  0
  8  9  1  0  0  0  0
 10  8  1  0  0  0  0
 11 10  1  0  0  0  0
 12 14  1  0  0  0  0
 12 10  2  0  0  0  0
 13 12  1  0  0  0  0
 14  5  2  0  0  0  0
 15 14  1  0  0  0  0
 16  1  1  0  0  0  0
 16 17  1  0  0  0  0
 18 16  1  0  0  0  0
 19 22  1  0  0  0  0
 19 16  1  0  0  0  0
 20 19  1  0  0  0  0
 21 19  1  0  0  0  0
 22 23  1  0  0  0  0
 24 22  1  0  0  0  0
 25 22  1  0  0  0  0
 25 26  1  0  0  0  0
 26 29  1  0  0  0  0
 27 26  1  0  0  0  0
 28 26  1  0  0  0  0
 29 31  1  0  0  0  0
 29 32  1  0  0  0  0
 29 30  1  0  0  0  0
 32 34  1  0  0  0  0
 33 32  1  0  0  0  0
 35 32  1  0  0  0  0
 35 37  1  0  0  0  0
 35 36  1  0  0  0  0
 37 38  1  0  0  0  0
 37 39  1  0  0  0  0
 40 41  1  0  0  0  0
 40 37  1  0  0  0  0
 42 40  1  0  0  0  0
 43 44  1  0  0  0  0
 43 40  1  0  0  0  0
 45 43  1  0  0  0  0
 46 43  1  0  0  0  0
 47 50  1  0  0  0  0
 47 46  1  0  0  0  0
 48 47  1  0  0  0  0
 49 47  1  0  0  0  0
 50 53  1  0  0  0  0
 50 52  1  0  0  0  0
 51 50  1  0  0  0  0
 53  1  1  0  0  0  0
 54 53  1  0  0  0  0
 55 53  1  0  0  0  0
M  END
