1,2,3,4
q = -1.0

 43 43  0  0  0  0  0  0  0  0999 V2000
   -4.3226    0.7569   -0.7217 S   0  0  0  0  0  0  0  0  0  0  0  0
   -3.3211   -1.7315    1.0309 S   0  0  0  0  0  1  0  0  0  0  0  0
   -0.5630   -0.5615    0.7759 N   0  0  0  0  0  2  0  0  0  0  0  0
   -1.6744    1.6362    0.0887 N   0  0  0  0  0  2  0  0  0  0  0  0
    5.4460   -2.0548   -0.6521 F   0  0  0  0  0  0  0  0  0  0  0  0
    7.6087   -0.6690    0.2399 F   0  0  0  0  0  0  0  0  0  0  0  0
    5.0216    3.3102    0.3676 F   0  0  0  0  0  0  0  0  0  0  0  0
    2.8422    1.9248   -0.4890 F   0  0  0  0  0  0  0  0  0  0  0  0
   -2.1287    3.8878    0.3248 O   0  0  0  0  0  0  0  0  0  0  0  0
    1.3762    0.4458    1.5673 O   0  0  0  0  0  0  0  0  0  0  0  0
    3.0559   -2.2532    0.7671 O   0  0  0  0  0  0  0  0  0  0  0  0
    2.9653   -0.7534   -0.9649 O   0  0  0  0  0  0  0  0  0  0  0  0
   -5.1276   -1.4005    0.7280 C   0  0  0  0  0  0  0  0  0  0  0  0
   -5.4514   -1.9421   -0.1846 H   0  0  0  0  0  0  0  0  0  0  0  0
   -5.6747   -1.8292    1.5919 H   0  0  0  0  0  0  0  0  0  0  0  0
   -5.4142    0.0853    0.6219 C   0  0  0  0  0  0  0  0  0  0  0  0
   -5.1601    0.6171    1.5610 H   0  0  0  0  0  0  0  0  0  0  0  0
   -6.4619    0.3017    0.3308 H   0  0  0  0  0  0  0  0  0  0  0  0
   -3.9790    2.4929   -0.2469 C   0  0  0  0  0  0  0  0  0  0  0  0
   -4.2999    3.1526   -1.0757 H   0  0  0  0  0  0  0  0  0  0  0  0
   -4.5785    2.7543    0.6475 H   0  0  0  0  0  0  0  0  0  0  0  0
   -2.4944    2.7490    0.0651 C   0  0  0  0  0  0  0  0  0  0  0  0
   -0.3093    1.8489    0.5637 C   0  0  0  0  0  0  0  0  0  0  0  0
   -0.2831    2.5756    1.4015 H   0  0  0  0  0  0  0  0  0  0  0  0
    0.3411    2.2711   -0.2326 H   0  0  0  0  0  0  0  0  0  0  0  0
    0.2818    0.5275    1.0228 C   0  0  0  0  0  0  0  0  0  0  0  0
   -0.1369   -1.8562    1.3228 C   0  0  0  0  0  0  0  0  0  0  0  0
   -0.9486   -2.2638    1.9624 H   0  0  0  0  0  0  0  0  0  0  0  0
    0.7417   -1.6617    1.9696 H   0  0  0  0  0  0  0  0  0  0  0  0
    0.2287   -2.8791    0.2384 C   0  0  0  0  0  0  0  0  0  0  0  0
    0.6720   -3.7625    0.7421 H   0  0  0  0  0  0  0  0  0  0  0  0
   -0.6873   -3.2261   -0.2836 H   0  0  0  0  0  0  0  0  0  0  0  0
    1.2031   -2.3353   -0.8121 C   0  0  0  0  0  0  0  0  0  0  0  0
    1.4748   -3.1401   -1.5293 H   0  0  0  0  0  0  0  0  0  0  0  0
    0.7436   -1.5299   -1.4168 H   0  0  0  0  0  0  0  0  0  0  0  0
    2.4911   -1.8283   -0.2091 C   0  0  0  0  0  0  0  0  0  0  0  0
    4.0911   -0.1007   -0.5278 C   0  0  0  0  0  0  0  0  0  0  0  0
    5.3261   -0.7563   -0.3642 C   0  0  0  0  0  0  0  0  0  0  0  0
    6.4424   -0.0281    0.0810 C   0  0  0  0  0  0  0  0  0  0  0  0
    6.3535    1.3440    0.3346 C   0  0  0  0  0  0  0  0  0  0  0  0
    7.2339    1.9051    0.6738 H   0  0  0  0  0  0  0  0  0  0  0  0
    5.1295    1.9933    0.1440 C   0  0  0  0  0  0  0  0  0  0  0  0
    3.9978    1.2840   -0.2886 C   0  0  0  0  0  0  0  0  0  0  0  0
  1 19  1  0  0  0  0
  1 16  1  0  0  0  0
  3 26  1  0  0  0  0
  3 27  1  0  0  0  0
  4 23  1  0  0  0  0
  5 38  1  0  0  0  0
  8 43  1  0  0  0  0
 12 37  1  0  0  0  0
 12 36  1  0  0  0  0
 13  2  1  0  0  0  0
 13 15  1  0  0  0  0
 14 13  1  0  0  0  0
 16 13  1  0  0  0  0
 16 17  1  0  0  0  0
 18 16  1  0  0  0  0
 19 22  1  0  0  0  0
 19 21  1  0  0  0  0
 20 19  1  0  0  0  0
 22  4  1  0  0  0  0
 22  9  2  0  0  0  0
 23 26  1  0  0  0  0
 23 24  1  0  0  0  0
 25 23  1  0  0  0  0
 26 10  2  0  0  0  0
 27 28  1  0  0  0  0
 27 29  1  0  0  0  0
 30 31  1  0  0  0  0
 30 27  1  0  0  0  0
 32 30  1  0  0  0  0
 33 36  1  0  0  0  0
 33 30  1  0  0  0  0
 34 33  1  0  0  0  0
 35 33  1  0  0  0  0
 36 11  2  0  0  0  0
 37 38  2  0  0  0  0
 37 43  1  0  0  0  0
 38 39  1  0  0  0  0
 39  6  1  0  0  0  0
 39 40  2  0  0  0  0
 40 41  1  0  0  0  0
 42 40  1  0  0  0  0
 42  7  1  0  0  0  0
 43 42  2  0  0  0  0
M  END
