1,14,18,31
q = 0.0, confidence = 1.0

 34 35  0  0  0  0  0  0  0  0999 V2000
    1.2411   -1.3023    1.1867 N   0  0  0  0  0  2  0  0  0  0  0  0
    1.7635   -0.4905    2.1403 C   0  0  0  0  0  3  0  0  0  0  0  0
    1.1636    0.4036    2.3608 H   0  0  0  0  0  0  0  0  0  0  0  0
    2.9678   -0.7723    2.7866 C   0  0  0  0  0  0  0  0  0  0  0  0
    3.3409   -0.0745    3.5494 H   0  0  0  0  0  0  0  0  0  0  0  0
    3.6790   -1.9276    2.4371 C   0  0  0  0  0  0  0  0  0  0  0  0
    4.6347   -2.1756    2.9219 H   0  0  0  0  0  0  0  0  0  0  0  0
    3.1531   -2.7525    1.4361 C   0  0  0  0  0  0  0  0  0  0  0  0
    3.6889   -3.6543    1.1059 H   0  0  0  0  0  0  0  0  0  0  0  0
    1.9382   -2.4166    0.8231 C   0  0  0  0  0  0  0  0  0  0  0  0
    1.3863   -3.2787   -0.2805 C   0  0  0  0  0  0  0  0  0  0  0  0
    0.9741   -4.2330    0.1077 H   0  0  0  0  0  0  0  0  0  0  0  0
    2.1829   -3.5100   -1.0127 H   0  0  0  0  0  0  0  0  0  0  0  0
    0.0555   -2.3886   -1.1958 S   0  0  0  0  0  0  0  0  0  0  0  0
   -1.3884   -3.5272   -0.9135 C   0  0  0  0  0  0  0  0  0  0  0  0
   -2.1935   -3.0727   -1.5249 H   0  0  0  0  0  0  0  0  0  0  0  0
   -1.1419   -4.5132   -1.3581 H   0  0  0  0  0  0  0  0  0  0  0  0
   -1.9285   -0.2758   -0.8827 N   0  0  0  0  0  2  0  0  0  0  0  0
   -1.8008    0.3340   -2.0896 C   0  0  0  0  0  3  0  0  0  0  0  0
   -0.7839    0.6310   -2.3799 H   0  0  0  0  0  0  0  0  0  0  0  0
   -2.8940    0.5765   -2.9236 C   0  0  0  0  0  0  0  0  0  0  0  0
   -2.7251    1.0782   -3.8867 H   0  0  0  0  0  0  0  0  0  0  0  0
   -4.1732    0.1709   -2.5197 C   0  0  0  0  0  0  0  0  0  0  0  0
   -5.0520    0.3422   -3.1586 H   0  0  0  0  0  0  0  0  0  0  0  0
   -4.3076   -0.4541   -1.2732 C   0  0  0  0  0  0  0  0  0  0  0  0
   -5.2916   -0.7743   -0.9010 H   0  0  0  0  0  0  0  0  0  0  0  0
   -3.1768   -0.6508   -0.4714 C   0  0  0  0  0  0  0  0  0  0  0  0
   -3.2775   -1.2099    0.9134 C   0  0  0  0  0  0  0  0  0  0  0  0
   -4.1330   -1.8982    1.0568 H   0  0  0  0  0  0  0  0  0  0  0  0
   -3.3771   -0.3502    1.6126 H   0  0  0  0  0  0  0  0  0  0  0  0
   -1.6990   -2.0001    1.4252 S   0  0  0  0  0  0  0  0  0  0  0  0
   -1.7817   -3.6338    0.5458 C   0  0  0  0  0  0  0  0  0  0  0  0
   -1.0838   -4.2810    1.1154 H   0  0  0  0  0  0  0  0  0  0  0  0
   -2.8008   -4.0485    0.6831 H   0  0  0  0  0  0  0  0  0  0  0  0
  1  2  1  0  0  0  0
  2  3  1  0  0  0  0
  2  4  1  0  0  0  0
  4  5  1  0  0  0  0
  6  4  2  0  0  0  0
  6  7  1  0  0  0  0
  8  6  1  0  0  0  0
  9  8  1  0  0  0  0
 10  1  1  0  0  0  0
 10  8  2  0  0  0  0
 11 12  1  0  0  0  0
 11 10  1  0  0  0  0
 13 11  1  0  0  0  0
 14 15  1  0  0  0  0
 14 11  1  0  0  0  0
 15 32  1  0  0  0  0
 16 15  1  0  0  0  0
 17 15  1  0  0  0  0
 18 27  1  0  0  0  0
 19 18  1  0  0  0  0
 20 19  1  0  0  0  0
 21 23  2  0  0  0  0
 21 19  1  0  0  0  0
 22 21  1  0  0  0  0
 23 25  1  0  0  0  0
 24 23  1  0  0  0  0
 25 26  1  0  0  0  0
 25 27  2  0  0  0  0
 27 28  1  0  0  0  0
 28 29  1  0  0  0  0
 28 31  1  0  0  0  0
 28 30  1  0  0  0  0
 32 34  1  0  0  0  0
 32 33  1  0  0  0  0
 32 31  1  0  0  0  0
M  END
