1,2,3,5
q = 0.0, confidence = 1.0

 48 51  0  0  1  0  0  0  0  0999 V2000
   -0.1952   -1.0798    2.3255 S   0  0  0  0  0  0  0  0  0  0  0  0
   -0.8211   -3.1468   -0.4807 S   0  0  0  0  0  0  0  0  0  0  0  0
   -2.3492   -0.5477   -0.2915 N   0  0  0  0  0  2  0  0  0  0  0  0
   -4.4521   -1.3033   -0.2489 N   0  0  0  0  0  0  0  0  0  0  0  0
    1.6914   -1.1005   -0.1158 N   0  0  0  0  0  2  0  0  0  0  0  0
    3.6645   -0.9613    0.9292 N   0  0  0  0  0  0  0  0  0  0  0  0
   -3.1952    0.5500   -0.4140 C   0  0  0  0  0  0  0  0  0  0  0  0
   -2.9072    1.9204   -0.5500 C   0  0  0  0  0  0  0  0  0  0  0  0
   -1.8703    2.2803   -0.5392 H   0  0  0  0  0  0  0  0  0  0  0  0
   -3.9983    2.7883   -0.6649 C   0  0  0  0  0  0  0  0  0  0  0  0
   -3.8142    3.8677   -0.7668 H   0  0  0  0  0  0  0  0  0  0  0  0
   -5.3336    2.3146   -0.6404 C   0  0  0  0  0  0  0  0  0  0  0  0
   -6.1592    3.0356   -0.7308 H   0  0  0  0  0  0  0  0  0  0  0  0
   -5.6321    0.9529   -0.4998 C   0  0  0  0  0  0  0  0  0  0  0  0
   -6.6706    0.5941   -0.4785 H   0  0  0  0  0  0  0  0  0  0  0  0
   -4.5359    0.0837   -0.3897 C   0  0  0  0  0  0  0  0  0  0  0  0
   -5.5989   -2.1927   -0.1697 C   0  0  0  0  0  0  0  0  0  0  0  0
   -6.2276   -2.0872   -1.0761 H   0  0  0  0  0  0  0  0  0  0  0  0
   -6.2135   -1.9504    0.7203 H   0  0  0  0  0  0  0  0  0  0  0  0
   -5.2646   -3.2419   -0.0920 H   0  0  0  0  0  0  0  0  0  0  0  0
   -3.1209   -1.6310   -0.1942 C   0  0  1  0  0  3  0  0  0  0  0  0
   -2.6072   -3.0396   -0.0737 C   0  0  0  0  0  0  0  0  0  0  0  0
   -3.1466   -3.7091   -0.7745 H   0  0  0  0  0  0  0  0  0  0  0  0
   -2.7760   -3.4485    0.9450 H   0  0  0  0  0  0  0  0  0  0  0  0
   -0.0322   -3.6829    1.0834 C   0  0  0  0  0  0  0  0  0  0  0  0
   -0.2642   -4.7563    1.2440 H   0  0  0  0  0  0  0  0  0  0  0  0
    1.0442   -3.6173    0.8246 H   0  0  0  0  0  0  0  0  0  0  0  0
    2.6909   -1.1521   -1.0868 C   0  0  0  0  0  0  0  0  0  0  0  0
    2.6155   -1.2754   -2.4853 C   0  0  0  0  0  0  0  0  0  0  0  0
    1.6439   -1.3275   -2.9940 H   0  0  0  0  0  0  0  0  0  0  0  0
    3.8229   -1.2903   -3.1915 C   0  0  0  0  0  0  0  0  0  0  0  0
    3.8039   -1.3774   -4.2876 H   0  0  0  0  0  0  0  0  0  0  0  0
    5.0721   -1.1865   -2.5326 C   0  0  0  0  0  0  0  0  0  0  0  0
    5.9959   -1.1944   -3.1292 H   0  0  0  0  0  0  0  0  0  0  0  0
    5.1611   -1.0652   -1.1406 C   0  0  0  0  0  0  0  0  0  0  0  0
    6.1335   -0.9732   -0.6371 H   0  0  0  0  0  0  0  0  0  0  0  0
    3.9490   -1.0562   -0.4346 C   0  0  0  0  0  0  0  0  0  0  0  0
    4.6296   -0.6260    1.9627 C   0  0  0  0  0  0  0  0  0  0  0  0
    4.2825   -0.9919    2.9460 H   0  0  0  0  0  0  0  0  0  0  0  0
    4.7629    0.4740    2.0096 H   0  0  0  0  0  0  0  0  0  0  0  0
    5.5970   -1.1101    1.7356 H   0  0  0  0  0  0  0  0  0  0  0  0
    2.3064   -0.9781    1.0648 C   0  0  1  0  0  3  0  0  0  0  0  0
    1.6057   -0.7933    2.3765 C   0  0  0  0  0  0  0  0  0  0  0  0
    1.7048    0.2731    2.6767 H   0  0  0  0  0  0  0  0  0  0  0  0
    2.0521   -1.4137    3.1805 H   0  0  0  0  0  0  0  0  0  0  0  0
   -0.3512   -2.9016    2.3571 C   0  0  0  0  0  0  0  0  0  0  0  0
    0.2634   -3.2997    3.1919 H   0  0  0  0  0  0  0  0  0  0  0  0
   -1.4072   -3.0562    2.6628 H   0  0  0  0  0  0  0  0  0  0  0  0
  1 46  1  0  0  0  0
  1 43  1  0  0  0  0
  2 22  1  0  0  0  0
  2 25  1  0  0  0  0
  3 21  1  0  0  0  0
  4 21  1  0  0  0  0
  4 17  1  0  0  0  0
  5 42  1  0  0  0  0
  6 42  1  0  0  0  0
  6 38  1  0  0  0  0
  7 16  1  0  0  0  0
  7  3  1  0  0  0  0
  8  9  1  0  0  0  0
  8  7  2  0  0  0  0
 10 12  2  0  0  0  0
 10  8  1  0  0  0  0
 11 10  1  0  0  0  0
 12 14  1  0  0  0  0
 13 12  1  0  0  0  0
 14 15  1  0  0  0  0
 14 16  2  0  0  0  0
 16  4  1  0  0  0  0
 17 20  1  0  0  0  0
 17 19  1  0  0  0  0
 18 17  1  0  0  0  0
 21 22  1  6  0  0  0
 22 24  1  0  0  0  0
 23 22  1  0  0  0  0
 25 26  1  0  0  0  0
 25 46  1  0  0  0  0
 27 25  1  0  0  0  0
 28 37  1  0  0  0  0
 28  5  1  0  0  0  0
 29 28  2  0  0  0  0
 30 29  1  0  0  0  0
 31 33  2  0  0  0  0
 31 29  1  0  0  0  0
 32 31  1  0  0  0  0
 33 35  1  0  0  0  0
 34 33  1  0  0  0  0
 35 36  1  0  0  0  0
 35 37  2  0  0  0  0
 37  6  1  0  0  0  0
 38 40  1  0  0  0  0
 38 39  1  0  0  0  0
 41 38  1  0  0  0  0
 42 43  1  6  0  0  0
 43 44  1  0  0  0  0
 43 45  1  0  0  0  0
 46 48  1  0  0  0  0
 46 47  1  0  0  0  0
M  END
