1,2,3,4
q = 0.0, confidence = 1.0

 40 41  0  0  1  0  0  0  0  0999 V2000
    0.1822    2.3455   -0.3459 N   0  0  0  0  0  2  0  0  0  0  0  0
    1.9468   -1.5035    0.1037 N   0  0  0  0  0  2  0  0  0  0  0  0
    3.0279    1.4756   -0.6334 S   0  0  0  0  0  0  0  0  0  0  0  0
    1.4819    0.6887    2.1058 S   0  0  0  0  0  0  0  0  0  0  0  0
    0.3622    2.9481   -1.5543 C   0  0  0  0  0  3  0  0  0  0  0  0
    0.8831    2.3407   -2.3078 H   0  0  0  0  0  0  0  0  0  0  0  0
   -0.1284    4.2175   -1.8639 C   0  0  0  0  0  0  0  0  0  0  0  0
    0.0536    4.6293   -2.8664 H   0  0  0  0  0  0  0  0  0  0  0  0
   -0.8478    4.9226   -0.8941 C   0  0  0  0  0  0  0  0  0  0  0  0
   -1.2650    5.9191   -1.1009 H   0  0  0  0  0  0  0  0  0  0  0  0
   -1.0141    4.3222    0.3575 C   0  0  0  0  0  0  0  0  0  0  0  0
   -1.5606    4.8392    1.1587 H   0  0  0  0  0  0  0  0  0  0  0  0
   -0.4868    3.0459    0.6204 C   0  0  0  0  0  0  0  0  0  0  0  0
   -0.6413    2.4748    2.0056 C   0  0  0  0  0  0  0  0  0  0  0  0
   -1.2305    1.5375    1.9654 H   0  0  0  0  0  0  0  0  0  0  0  0
   -1.2455    3.1828    2.6058 H   0  0  0  0  0  0  0  0  0  0  0  0
    0.6807    2.2343    2.7324 C   0  0  0  0  0  0  0  0  0  0  0  0
    0.5177    2.0890    3.8187 H   0  0  0  0  0  0  0  0  0  0  0  0
    1.3755    3.0868    2.5965 H   0  0  0  0  0  0  0  0  0  0  0  0
    3.2627    1.2144    2.1394 C   0  0  0  0  0  0  0  0  0  0  0  0
    3.4595    1.6770    3.1279 H   0  0  0  0  0  0  0  0  0  0  0  0
    3.8274    0.2610    2.0962 H   0  0  0  0  0  0  0  0  0  0  0  0
    3.6127    2.1337    0.9891 C   0  0  0  0  0  0  0  0  0  0  0  0
    4.7042    2.3134    0.9125 H   0  0  0  0  0  0  0  0  0  0  0  0
    3.1187    3.1221    1.0813 H   0  0  0  0  0  0  0  0  0  0  0  0
    4.3067    0.1939   -0.9781 C   0  0  0  0  0  0  0  0  0  0  0  0
    5.0417    0.6674   -1.6577 H   0  0  0  0  0  0  0  0  0  0  0  0
    4.8234   -0.0691   -0.0330 H   0  0  0  0  0  0  0  0  0  0  0  0
    3.6723   -1.0318   -1.6390 C   0  0  0  0  0  0  0  0  0  0  0  0
    2.9422   -0.7076   -2.4136 H   0  0  0  0  0  0  0  0  0  0  0  0
    4.4716   -1.5995   -2.1530 H   0  0  0  0  0  0  0  0  0  0  0  0
    2.9934   -1.9508   -0.6588 C   0  0  1  0  0  3  0  0  0  0  0  0
    3.4872   -3.2612   -0.5038 C   0  0  0  0  0  0  0  0  0  0  0  0
    4.3133   -3.5865   -1.1522 H   0  0  0  0  0  0  0  0  0  0  0  0
    2.9511   -4.1285    0.4520 C   0  0  0  0  0  0  0  0  0  0  0  0
    3.3340   -5.1537    0.5617 H   0  0  0  0  0  0  0  0  0  0  0  0
    1.9278   -3.6395    1.2733 C   0  0  0  0  0  0  0  0  0  0  0  0
    1.4683   -4.2506    2.0624 H   0  0  0  0  0  0  0  0  0  0  0  0
    1.4673   -2.3401    1.0683 C   0  0  0  0  0  0  0  0  0  0  0  0
    0.6533   -1.9452    1.6869 H   0  0  0  0  0  0  0  0  0  0  0  0
  1 13  1  0  0  0  0
  2 39  1  0  0  0  0
  3 23  1  0  0  0  0
  4 20  1  0  0  0  0
  4 17  1  0  0  0  0
  5  1  1  0  0  0  0
  6  5  1  0  0  0  0
  7  5  1  0  0  0  0
  7  9  2  0  0  0  0
  8  7  1  0  0  0  0
  9 11  1  0  0  0  0
 10  9  1  0  0  0  0
 11 13  2  0  0  0  0
 11 12  1  0  0  0  0
 13 14  1  0  0  0  0
 14 16  1  0  0  0  0
 14 17  1  0  0  0  0
 15 14  1  0  0  0  0
 17 18  1  0  0  0  0
 19 17  1  0  0  0  0
 20 21  1  0  0  0  0
 22 20  1  0  0  0  0
 23 25  1  0  0  0  0
 23 20  1  0  0  0  0
 24 23  1  0  0  0  0
 26  3  1  0  0  0  0
 26 28  1  0  0  0  0
 27 26  1  0  0  0  0
 29 26  1  0  0  0  0
 30 29  1  0  0  0  0
 31 29  1  0  0  0  0
 32 29  1  1  0  0  0
 32 33  1  0  0  0  0
 32  2  1  0  0  0  0
 33 35  2  0  0  0  0
 34 33  1  0  0  0  0
 35 36  1  0  0  0  0
 35 37  1  0  0  0  0
 37 38  1  0  0  0  0
 39 37  2  0  0  0  0
 39 40  1  0  0  0  0
M  END
