1,4,9,11
q = -2.0, confidence = 0.914

 47 48  0  0  1  0  0  0  0  0999 V2000
    1.1889   -1.7854   -1.0493 S   0  0  0  0  0  1  0  0  0  0  0  0
    2.5289   -0.8824   -0.3585 C   0  0  2  0  0  3  0  0  0  0  0  0
    2.4824    0.4152   -0.1292 N   0  0  0  0  0  2  0  0  0  0  0  0
    1.2936    0.9811   -0.5121 N   0  0  0  0  0  2  0  0  0  0  0  0
    1.2660    2.2977   -0.4788 C   0  0  2  0  0  3  0  0  0  0  0  0
    0.0535    3.0229   -1.0076 C   0  0  0  0  0  0  0  0  0  0  0  0
   -1.0672    3.1372    0.0073 C   0  0  0  0  0  0  0  0  0  0  0  0
   -1.9007    2.1586    0.2034 N   0  0  0  0  0  0  0  0  0  0  0  0
   -1.6802    1.0145   -0.4950 N   0  0  0  0  0  2  0  0  0  0  0  0
   -2.6243    0.0515   -0.3857 C   0  0  1  0  0  3  0  0  0  0  0  0
   -2.0551   -1.3855   -1.1682 S   0  0  0  0  0  1  0  0  0  0  0  0
    3.6613   -1.6104   -0.0920 N   0  0  0  0  0  0  0  0  0  0  0  0
    4.9200   -1.2314    0.3942 C   0  0  0  0  0  0  0  0  0  0  0  0
    5.8888   -2.2531    0.5435 C   0  0  0  0  0  0  0  0  0  0  0  0
    7.1684   -1.9559    1.0222 C   0  0  0  0  0  0  0  0  0  0  0  0
    7.5114   -0.6365    1.3622 C   0  0  0  0  0  0  0  0  0  0  0  0
    6.5511    0.3760    1.2145 C   0  0  0  0  0  0  0  0  0  0  0  0
    5.2632    0.0963    0.7368 C   0  0  0  0  0  0  0  0  0  0  0  0
    2.4390    3.0728    0.0418 C   0  0  0  0  0  0  0  0  0  0  0  0
   -1.2343    4.3978    0.7968 C   0  0  0  0  0  0  0  0  0  0  0  0
   -3.7744    0.3053    0.2757 N   0  0  0  0  0  0  0  0  0  0  0  0
   -4.9005   -0.4808    0.5601 C   0  0  0  0  0  0  0  0  0  0  0  0
   -6.0134    0.1705    1.1397 C   0  0  0  0  0  0  0  0  0  0  0  0
   -7.1715   -0.5495    1.4512 C   0  0  0  0  0  0  0  0  0  0  0  0
   -7.2427   -1.9275    1.1886 C   0  0  0  0  0  0  0  0  0  0  0  0
   -6.1352   -2.5740    0.6183 C   0  0  0  0  0  0  0  0  0  0  0  0
   -4.9656   -1.8679    0.3058 C   0  0  0  0  0  0  0  0  0  0  0  0
    3.5575   -2.6065   -0.2941 H   0  0  0  0  0  0  0  0  0  0  0  0
   -3.7588    1.2713    0.6431 H   0  0  0  0  0  0  0  0  0  0  0  0
   -0.3393    2.4760   -1.8897 H   0  0  0  0  0  0  0  0  0  0  0  0
    0.3620    4.0372   -1.3266 H   0  0  0  0  0  0  0  0  0  0  0  0
    5.6271   -3.2903    0.2778 H   0  0  0  0  0  0  0  0  0  0  0  0
    7.9054   -2.7662    1.1300 H   0  0  0  0  0  0  0  0  0  0  0  0
    8.5179   -0.4022    1.7389 H   0  0  0  0  0  0  0  0  0  0  0  0
    6.8051    1.4146    1.4777 H   0  0  0  0  0  0  0  0  0  0  0  0
    4.5061    0.8798    0.6203 H   0  0  0  0  0  0  0  0  0  0  0  0
    2.7350    2.7082    1.0470 H   0  0  0  0  0  0  0  0  0  0  0  0
    2.2177    4.1553    0.0864 H   0  0  0  0  0  0  0  0  0  0  0  0
    3.3283    2.9138   -0.6059 H   0  0  0  0  0  0  0  0  0  0  0  0
   -2.1094    4.3207    1.4684 H   0  0  0  0  0  0  0  0  0  0  0  0
   -1.3612    5.2761    0.1276 H   0  0  0  0  0  0  0  0  0  0  0  0
   -0.3318    4.5990    1.4143 H   0  0  0  0  0  0  0  0  0  0  0  0
   -5.9619    1.2523    1.3409 H   0  0  0  0  0  0  0  0  0  0  0  0
   -8.0281   -0.0258    1.9018 H   0  0  0  0  0  0  0  0  0  0  0  0
   -8.1542   -2.4934    1.4307 H   0  0  0  0  0  0  0  0  0  0  0  0
   -6.1730   -3.6550    0.4154 H   0  0  0  0  0  0  0  0  0  0  0  0
   -4.0967   -2.3879   -0.1191 H   0  0  0  0  0  0  0  0  0  0  0  0
  2  1  1  6  0  0  0
  2  3  1  0  0  0  0
  2 12  1  0  0  0  0
  4  3  1  0  0  0  0
  5  4  1  6  0  0  0
  5 19  1  0  0  0  0
  6  5  1  0  0  0  0
  6  7  1  0  0  0  0
  7  8  2  0  0  0  0
  7 20  1  0  0  0  0
  9 10  1  0  0  0  0
  9  8  1  0  0  0  0
 10 11  1  1  0  0  0
 10 21  1  0  0  0  0
 12 13  1  0  0  0  0
 13 14  2  0  0  0  0
 13 18  1  0  0  0  0
 14 15  1  0  0  0  0
 15 33  1  0  0  0  0
 15 16  2  0  0  0  0
 16 34  1  0  0  0  0
 17 16  1  0  0  0  0
 17 35  1  0  0  0  0
 18 17  2  0  0  0  0
 19 38  1  0  0  0  0
 19 37  1  0  0  0  0
 20 42  1  0  0  0  0
 20 40  1  0  0  0  0
 21 22  1  0  0  0  0
 21 29  1  0  0  0  0
 22 23  1  0  0  0  0
 23 43  1  0  0  0  0
 23 24  2  0  0  0  0
 24 44  1  0  0  0  0
 25 45  1  0  0  0  0
 25 24  1  0  0  0  0
 26 25  2  0  0  0  0
 27 22  2  0  0  0  0
 27 26  1  0  0  0  0
 28 12  1  0  0  0  0
 30  6  1  0  0  0  0
 31  6  1  0  0  0  0
 32 14  1  0  0  0  0
 36 18  1  0  0  0  0
 39 19  1  0  0  0  0
 41 20  1  0  0  0  0
 46 26  1  0  0  0  0
 47 27  1  0  0  0  0
M  END
