1,2,4,6
q = -2.0, confidence = 0.95

 33 32  0  0  1  0  0  0  0  0999 V2000
   -1.5491   -2.0897   -0.3244 S   0  0  0  0  0  1  0  0  0  0  0  0
    1.7228   -2.2051   -0.4925 S   0  0  0  0  0  1  0  0  0  0  0  0
   -2.4801    0.4061    0.2208 N   0  0  0  0  0  2  0  0  0  0  0  0
   -1.2281    0.7225   -0.2379 N   0  0  0  0  0  2  0  0  0  0  0  0
   -3.9619   -1.3243    0.5573 N   0  0  0  0  0  0  0  0  0  0  0  0
    1.7173    0.3169   -0.2212 N   0  0  0  0  0  2  0  0  0  0  0  0
    2.1181    1.5016    0.3145 N   0  0  0  0  0  0  0  0  0  0  0  0
    3.6815   -0.6372    0.6702 N   0  0  0  0  0  0  0  0  0  0  0  0
   -2.7231   -0.8936    0.1952 C   0  0  1  0  0  3  0  0  0  0  0  0
   -1.0015    2.0096   -0.4057 C   0  0  2  0  0  3  0  0  0  0  0  0
   -4.9995   -0.4294    1.0189 C   0  0  0  0  0  0  0  0  0  0  0  0
   -2.0428    3.0176   -0.0203 C   0  0  0  0  0  0  0  0  0  0  0  0
    0.2977    2.4615   -1.0253 C   0  0  0  0  0  0  0  0  0  0  0  0
    2.4990   -0.7506    0.0443 C   0  0  1  0  0  3  0  0  0  0  0  0
    1.4357    2.5540   -0.0279 C   0  0  0  0  0  0  0  0  0  0  0  0
    4.5405   -1.7336    1.0463 C   0  0  0  0  0  0  0  0  0  0  0  0
    1.7941    3.8758    0.5776 C   0  0  0  0  0  0  0  0  0  0  0  0
   -4.0944   -2.3319    0.6204 H   0  0  0  0  0  0  0  0  0  0  0  0
    3.8847    0.3294    0.9581 H   0  0  0  0  0  0  0  0  0  0  0  0
   -5.9421   -0.9955    1.1406 H   0  0  0  0  0  0  0  0  0  0  0  0
   -5.1601    0.3878    0.2860 H   0  0  0  0  0  0  0  0  0  0  0  0
   -4.7392    0.0501    1.9890 H   0  0  0  0  0  0  0  0  0  0  0  0
   -1.6541    4.0500   -0.1036 H   0  0  0  0  0  0  0  0  0  0  0  0
   -2.9397    2.9164   -0.6696 H   0  0  0  0  0  0  0  0  0  0  0  0
   -2.4078    2.8275    1.0094 H   0  0  0  0  0  0  0  0  0  0  0  0
    0.1383    3.4529   -1.4925 H   0  0  0  0  0  0  0  0  0  0  0  0
    0.5943    1.7390   -1.8138 H   0  0  0  0  0  0  0  0  0  0  0  0
    4.6961   -1.7664    2.1454 H   0  0  0  0  0  0  0  0  0  0  0  0
    4.0587   -2.6821    0.7383 H   0  0  0  0  0  0  0  0  0  0  0  0
    5.5334   -1.6640    0.5527 H   0  0  0  0  0  0  0  0  0  0  0  0
    2.6581    3.7654    1.2592 H   0  0  0  0  0  0  0  0  0  0  0  0
    0.9395    4.2914    1.1551 H   0  0  0  0  0  0  0  0  0  0  0  0
    2.0391    4.6245   -0.2067 H   0  0  0  0  0  0  0  0  0  0  0  0
  4  3  1  0  0  0  0
  5 18  1  0  0  0  0
  5 11  1  0  0  0  0
  6 14  1  0  0  0  0
  6  7  1  0  0  0  0
  8 19  1  0  0  0  0
  8 16  1  0  0  0  0
  9  1  1  6  0  0  0
  9  3  1  0  0  0  0
  9  5  1  0  0  0  0
 10  4  1  6  0  0  0
 10 12  1  0  0  0  0
 11 20  1  0  0  0  0
 11 22  1  0  0  0  0
 12 25  1  0  0  0  0
 13 10  1  0  0  0  0
 13 15  1  0  0  0  0
 14  2  1  1  0  0  0
 14  8  1  0  0  0  0
 15  7  2  0  0  0  0
 15 17  1  0  0  0  0
 16 28  1  0  0  0  0
 17 32  1  0  0  0  0
 17 31  1  0  0  0  0
 21 11  1  0  0  0  0
 23 12  1  0  0  0  0
 24 12  1  0  0  0  0
 26 13  1  0  0  0  0
 27 13  1  0  0  0  0
 29 16  1  0  0  0  0
 30 16  1  0  0  0  0
 33 17  1  0  0  0  0
M  END
