1,2,3,4
q = -2.0, confidence = 0.854

 32 33  0  0  0  0  0  0  0  0999 V2000
   -0.6683   -1.4097   -1.9084 S   0  0  0  0  0  1  0  0  0  0  0  0
    1.6980    1.1320    1.1007 S   0  0  0  0  0  1  0  0  0  0  0  0
    0.1527   -1.5184    0.9620 N   0  0  0  0  0  0  0  0  0  0  0  0
    2.1891   -1.0493   -0.8840 N   0  0  0  0  0  0  0  0  0  0  0  0
   -1.3775   -2.4819   -0.7096 C   0  0  0  0  0  0  0  0  0  0  0  0
   -2.4118   -3.3976   -1.0279 C   0  0  0  0  0  0  0  0  0  0  0  0
   -2.9969   -4.1949   -0.0382 C   0  0  0  0  0  0  0  0  0  0  0  0
   -2.5697   -4.1085    1.3005 C   0  0  0  0  0  0  0  0  0  0  0  0
   -1.5323   -3.2232    1.6291 C   0  0  0  0  0  0  0  0  0  0  0  0
   -0.9445   -2.4201    0.6386 C   0  0  0  0  0  0  0  0  0  0  0  0
    1.4616   -2.2170    1.1178 C   0  0  0  0  0  0  0  0  0  0  0  0
    3.2880    0.6673    0.5046 C   0  0  0  0  0  0  0  0  0  0  0  0
    4.4765    1.2922    0.9532 C   0  0  0  0  0  0  0  0  0  0  0  0
    5.7195    0.9355    0.4186 C   0  0  0  0  0  0  0  0  0  0  0  0
    5.8150   -0.0531   -0.5781 C   0  0  0  0  0  0  0  0  0  0  0  0
    4.6484   -0.6968   -1.0165 C   0  0  0  0  0  0  0  0  0  0  0  0
    3.4013   -0.3453   -0.4784 C   0  0  0  0  0  0  0  0  0  0  0  0
    2.0633   -2.3980   -0.2605 C   0  0  0  0  0  0  0  0  0  0  0  0
   -0.0407   -1.0393    1.8524 H   0  0  0  0  0  0  0  0  0  0  0  0
    2.1849   -1.1784   -1.9057 H   0  0  0  0  0  0  0  0  0  0  0  0
   -2.7608   -3.4540   -2.0701 H   0  0  0  0  0  0  0  0  0  0  0  0
   -3.8084   -4.8871   -0.3109 H   0  0  0  0  0  0  0  0  0  0  0  0
   -3.0404   -4.7241    2.0807 H   0  0  0  0  0  0  0  0  0  0  0  0
   -1.1743   -3.1464    2.6693 H   0  0  0  0  0  0  0  0  0  0  0  0
    1.3334   -3.1928    1.6323 H   0  0  0  0  0  0  0  0  0  0  0  0
    2.1085   -1.5639    1.7383 H   0  0  0  0  0  0  0  0  0  0  0  0
    4.4008    2.0830    1.7145 H   0  0  0  0  0  0  0  0  0  0  0  0
    6.6278    1.4468    0.7730 H   0  0  0  0  0  0  0  0  0  0  0  0
    6.7896   -0.3193   -1.0122 H   0  0  0  0  0  0  0  0  0  0  0  0
    4.7030   -1.4817   -1.7888 H   0  0  0  0  0  0  0  0  0  0  0  0
    1.3848   -2.9956   -0.9024 H   0  0  0  0  0  0  0  0  0  0  0  0
    3.0499   -2.9049   -0.2050 H   0  0  0  0  0  0  0  0  0  0  0  0
  1  5  1  0  0  0  0
  3 11  1  0  0  0  0
  3 19  1  0  0  0  0
  4 17  1  0  0  0  0
  4 18  1  0  0  0  0
  5 10  1  0  0  0  0
  6  5  2  0  0  0  0
  6  7  1  0  0  0  0
  7  8  2  0  0  0  0
  8  9  1  0  0  0  0
  8 23  1  0  0  0  0
  9 24  1  0  0  0  0
 10  3  1  0  0  0  0
 10  9  2  0  0  0  0
 11 25  1  0  0  0  0
 11 26  1  0  0  0  0
 12 13  1  0  0  0  0
 12  2  1  0  0  0  0
 13 27  1  0  0  0  0
 14 28  1  0  0  0  0
 14 13  2  0  0  0  0
 15 14  1  0  0  0  0
 16 15  2  0  0  0  0
 16 17  1  0  0  0  0
 17 12  2  0  0  0  0
 18 32  1  0  0  0  0
 18 11  1  0  0  0  0
 20  4  1  0  0  0  0
 21  6  1  0  0  0  0
 22  7  1  0  0  0  0
 29 15  1  0  0  0  0
 30 16  1  0  0  0  0
 31 18  1  0  0  0  0
M  END
