3,4,28,29
q = -2.0, confidence = 0.55

 50 53  0  0  1  0  0  0  0  0999 V2000
    4.8310   -0.5311   -2.1992 Cl  0  0  0  0  0  0  0  0  0  0  0  0
    4.2079    4.4709   -0.1815 Cl  0  0  0  0  0  0  0  0  0  0  0  0
    0.5956   -3.3466    1.4624 S   0  0  0  0  0  1  0  0  0  0  0  0
    0.5405   -0.5567    1.1341 N   0  0  0  0  0  2  0  0  0  0  0  0
    1.1398   -2.2351    2.6832 C   0  0  0  0  0  0  0  0  0  0  0  0
    1.0842   -0.8327    2.3475 C   0  0  0  0  0  0  0  0  0  0  0  0
    1.5916    0.1232    3.2776 C   0  0  0  0  0  0  0  0  0  0  0  0
    1.5965    1.1920    3.0238 H   0  0  0  0  0  0  0  0  0  0  0  0
    2.0873   -0.3087    4.5019 C   0  0  0  0  0  0  0  0  0  0  0  0
    2.4741    0.4306    5.2192 H   0  0  0  0  0  0  0  0  0  0  0  0
    2.1091   -1.6882    4.8402 C   0  0  0  0  0  0  0  0  0  0  0  0
    2.5069   -2.0040    5.8159 H   0  0  0  0  0  0  0  0  0  0  0  0
    1.6439   -2.6436    3.9388 C   0  0  0  0  0  0  0  0  0  0  0  0
    1.6718   -3.7159    4.1833 H   0  0  0  0  0  0  0  0  0  0  0  0
    0.5465    0.7796    0.5564 C   0  0  1  0  0  0  0  0  0  0  0  0
    0.2644    1.5359    1.3207 H   0  0  0  0  0  0  0  0  0  0  0  0
    1.9109    1.1648   -0.0081 C   0  0  0  0  0  0  0  0  0  0  0  0
    2.6672    0.2308   -0.7382 C   0  0  0  0  0  0  0  0  0  0  0  0
    2.3057   -0.7995   -0.8634 H   0  0  0  0  0  0  0  0  0  0  0  0
    3.8924    0.6249   -1.2942 C   0  0  0  0  0  0  0  0  0  0  0  0
    4.3866    1.9303   -1.1370 C   0  0  0  0  0  0  0  0  0  0  0  0
    5.3503    2.2246   -1.5716 H   0  0  0  0  0  0  0  0  0  0  0  0
    3.6179    2.8446   -0.4016 C   0  0  0  0  0  0  0  0  0  0  0  0
    2.3871    2.4757    0.1646 C   0  0  0  0  0  0  0  0  0  0  0  0
    1.8093    3.2152    0.7381 H   0  0  0  0  0  0  0  0  0  0  0  0
   -4.8309   -0.5317    2.1992 Cl  0  0  0  0  0  0  0  0  0  0  0  0
   -4.2081    4.4708    0.1824 Cl  0  0  0  0  0  0  0  0  0  0  0  0
   -0.5955   -3.3462   -1.4633 S   0  0  0  0  0  1  0  0  0  0  0  0
   -0.5404   -0.5564   -1.1343 N   0  0  0  0  0  2  0  0  0  0  0  0
   -1.1399   -2.2343   -2.6837 C   0  0  0  0  0  0  0  0  0  0  0  0
   -1.0842   -0.8321   -2.3477 C   0  0  0  0  0  0  0  0  0  0  0  0
   -1.5916    0.1241   -3.2775 C   0  0  0  0  0  0  0  0  0  0  0  0
   -1.5965    1.1929   -3.0235 H   0  0  0  0  0  0  0  0  0  0  0  0
   -2.0874   -0.3075   -4.5019 C   0  0  0  0  0  0  0  0  0  0  0  0
   -2.4742    0.4320   -5.2190 H   0  0  0  0  0  0  0  0  0  0  0  0
   -2.1092   -1.6869   -4.8406 C   0  0  0  0  0  0  0  0  0  0  0  0
   -2.5070   -2.0025   -5.8163 H   0  0  0  0  0  0  0  0  0  0  0  0
   -1.6440   -2.6425   -3.9395 C   0  0  0  0  0  0  0  0  0  0  0  0
   -1.6718   -3.7148   -4.1843 H   0  0  0  0  0  0  0  0  0  0  0  0
   -0.5464    0.7798   -0.5562 C   0  0  1  0  0  0  0  0  0  0  0  0
   -0.2644    1.5363   -1.3203 H   0  0  0  0  0  0  0  0  0  0  0  0
   -1.9109    1.1648    0.0085 C   0  0  0  0  0  0  0  0  0  0  0  0
   -2.6671    0.2306    0.7384 C   0  0  0  0  0  0  0  0  0  0  0  0
   -2.3056   -0.7998    0.8633 H   0  0  0  0  0  0  0  0  0  0  0  0
   -3.8923    0.6245    1.2944 C   0  0  0  0  0  0  0  0  0  0  0  0
   -4.3866    1.9300    1.1375 C   0  0  0  0  0  0  0  0  0  0  0  0
   -5.3503    2.2241    1.5722 H   0  0  0  0  0  0  0  0  0  0  0  0
   -3.6180    2.8444    0.4023 C   0  0  0  0  0  0  0  0  0  0  0  0
   -2.3871    2.4757   -0.1641 C   0  0  0  0  0  0  0  0  0  0  0  0
   -1.8094    3.2153   -0.7374 H   0  0  0  0  0  0  0  0  0  0  0  0
  1 20  1  0  0  0  0
  3  5  1  0  0  0  0
  4  6  1  0  0  0  0
  5 13  1  0  0  0  0
  6  5  2  0  0  0  0
  6  7  1  0  0  0  0
  7  9  2  0  0  0  0
  8  7  1  0  0  0  0
  9 11  1  0  0  0  0
  9 10  1  0  0  0  0
 11 12  1  0  0  0  0
 13 14  1  0  0  0  0
 13 11  2  0  0  0  0
 15  4  1  0  0  0  0
 15 16  1  1  0  0  0
 17 24  1  0  0  0  0
 17 15  1  0  0  0  0
 18 17  2  0  0  0  0
 19 18  1  0  0  0  0
 20 21  2  0  0  0  0
 20 18  1  0  0  0  0
 21 23  1  0  0  0  0
 22 21  1  0  0  0  0
 23  2  1  0  0  0  0
 23 24  2  0  0  0  0
 24 25  1  0  0  0  0
 27 48  1  0  0  0  0
 29 40  1  0  0  0  0
 30 31  1  0  0  0  0
 30 28  1  0  0  0  0
 31 29  1  0  0  0  0
 32 33  1  0  0  0  0
 32 31  2  0  0  0  0
 34 32  1  0  0  0  0
 35 34  1  0  0  0  0
 36 34  2  0  0  0  0
 36 38  1  0  0  0  0
 37 36  1  0  0  0  0
 38 30  2  0  0  0  0
 39 38  1  0  0  0  0
 40 41  1  6  0  0  0
 40 42  1  0  0  0  0
 40 15  1  0  0  0  0
 42 43  1  0  0  0  0
 43 44  1  0  0  0  0
 43 45  2  0  0  0  0
 45 26  1  0  0  0  0
 46 45  1  0  0  0  0
 46 47  1  0  0  0  0
 48 46  2  0  0  0  0
 49 42  2  0  0  0  0
 49 48  1  0  0  0  0
 50 49  1  0  0  0  0
M  END
