1,2,3,6
q = -2.0, confidence = 0.93

 52 52  0  0  0  0  0  0  0  0999 V2000
   -0.6095   -2.4852    0.2012 S   0  0  0  0  0  1  0  0  0  0  0  0
    2.5853   -1.5287   -0.0989 S   0  0  0  0  0  1  0  0  0  0  0  0
   -1.0163    0.3067    0.0395 N   0  0  0  0  0  2  0  0  0  0  0  0
   -2.2158   -0.2680    0.2022 N   0  0  0  0  0  0  0  0  0  0  0  0
   -3.2971   -2.2789    0.5310 N   0  0  0  0  0  0  0  0  0  0  0  0
    1.3818    0.9950   -0.2164 N   0  0  0  0  0  2  0  0  0  0  0  0
    2.7011    1.1955   -0.3727 N   0  0  0  0  0  0  0  0  0  0  0  0
    4.7253    0.0939   -0.5182 N   0  0  0  0  0  0  0  0  0  0  0  0
   -1.9305    2.6554    0.0002 C   0  0  0  0  0  0  0  0  0  0  0  0
   -1.6005    3.9863    0.3708 C   0  0  0  0  0  0  0  0  0  0  0  0
   -2.5750    4.9892    0.4156 C   0  0  0  0  0  0  0  0  0  0  0  0
   -3.9081    4.6974    0.0849 C   0  0  0  0  0  0  0  0  0  0  0  0
   -4.2514    3.3875   -0.2865 C   0  0  0  0  0  0  0  0  0  0  0  0
   -3.2835    2.3767   -0.3250 C   0  0  0  0  0  0  0  0  0  0  0  0
   -0.8666    1.6415   -0.0539 C   0  0  0  0  0  0  0  0  0  0  0  0
   -2.1381   -1.5971    0.3166 C   0  0  0  0  0  0  0  0  0  0  0  0
   -4.5670   -1.5458    0.5768 C   0  0  0  0  0  0  0  0  0  0  0  0
   -5.1696   -1.2546   -0.7995 C   0  0  0  0  0  0  0  0  0  0  0  0
   -3.3087   -3.7389    0.6212 C   0  0  0  0  0  0  0  0  0  0  0  0
   -3.3856   -4.4547   -0.7297 C   0  0  0  0  0  0  0  0  0  0  0  0
    0.5295    2.0050   -0.2112 C   0  0  0  0  0  0  0  0  0  0  0  0
    3.3769    0.0435   -0.3481 C   0  0  0  0  0  0  0  0  0  0  0  0
    5.3827    1.3983   -0.6669 C   0  0  0  0  0  0  0  0  0  0  0  0
    5.5851    2.1509    0.6494 C   0  0  0  0  0  0  0  0  0  0  0  0
    5.5438   -1.1164   -0.4488 C   0  0  0  0  0  0  0  0  0  0  0  0
    5.9787   -1.5022    0.9670 C   0  0  0  0  0  0  0  0  0  0  0  0
   -0.5681    4.2344    0.6556 H   0  0  0  0  0  0  0  0  0  0  0  0
   -2.2903    6.0089    0.7169 H   0  0  0  0  0  0  0  0  0  0  0  0
   -4.6746    5.4864    0.1183 H   0  0  0  0  0  0  0  0  0  0  0  0
   -5.2922    3.1461   -0.5521 H   0  0  0  0  0  0  0  0  0  0  0  0
   -3.5565    1.3539   -0.6064 H   0  0  0  0  0  0  0  0  0  0  0  0
   -5.2680   -2.1481    1.1904 H   0  0  0  0  0  0  0  0  0  0  0  0
   -4.3806   -0.5922    1.1087 H   0  0  0  0  0  0  0  0  0  0  0  0
   -6.0891   -0.6444   -0.6910 H   0  0  0  0  0  0  0  0  0  0  0  0
   -5.4377   -2.1824   -1.3418 H   0  0  0  0  0  0  0  0  0  0  0  0
   -4.4503   -0.6859   -1.4210 H   0  0  0  0  0  0  0  0  0  0  0  0
   -2.3855   -4.0469    1.1544 H   0  0  0  0  0  0  0  0  0  0  0  0
   -4.1691   -4.0179    1.2639 H   0  0  0  0  0  0  0  0  0  0  0  0
   -4.3199   -4.2133   -1.2739 H   0  0  0  0  0  0  0  0  0  0  0  0
   -3.3505   -5.5526   -0.5795 H   0  0  0  0  0  0  0  0  0  0  0  0
   -2.5215   -4.1671   -1.3606 H   0  0  0  0  0  0  0  0  0  0  0  0
    0.8958    3.0311   -0.3588 H   0  0  0  0  0  0  0  0  0  0  0  0
    6.3545    1.2128   -1.1685 H   0  0  0  0  0  0  0  0  0  0  0  0
    4.7582    2.0101   -1.3472 H   0  0  0  0  0  0  0  0  0  0  0  0
    6.0758    3.1265    0.4570 H   0  0  0  0  0  0  0  0  0  0  0  0
    6.2181    1.5828    1.3592 H   0  0  0  0  0  0  0  0  0  0  0  0
    4.6044    2.3459    1.1248 H   0  0  0  0  0  0  0  0  0  0  0  0
    4.9550   -1.9427   -0.8978 H   0  0  0  0  0  0  0  0  0  0  0  0
    6.4267   -0.9508   -1.1004 H   0  0  0  0  0  0  0  0  0  0  0  0
    6.6120   -0.7213    1.4326 H   0  0  0  0  0  0  0  0  0  0  0  0
    6.5612   -2.4452    0.9420 H   0  0  0  0  0  0  0  0  0  0  0  0
    5.0878   -1.6653    1.6051 H   0  0  0  0  0  0  0  0  0  0  0  0
  1 16  1  0  0  0  0
  3  4  1  0  0  0  0
  4 16  2  0  0  0  0
  5 17  1  0  0  0  0
  5 19  1  0  0  0  0
  6 21  1  0  0  0  0
  7 22  2  0  0  0  0
  7  6  1  0  0  0  0
  8 25  1  0  0  0  0
  8 22  1  0  0  0  0
  9 10  1  0  0  0  0
 10 11  2  0  0  0  0
 10 27  1  0  0  0  0
 11 28  1  0  0  0  0
 12 29  1  0  0  0  0
 12 11  1  0  0  0  0
 13 12  2  0  0  0  0
 14 13  1  0  0  0  0
 14  9  2  0  0  0  0
 15  9  1  0  0  0  0
 15  3  1  0  0  0  0
 16  5  1  0  0  0  0
 17 33  1  0  0  0  0
 17 32  1  0  0  0  0
 18 34  1  0  0  0  0
 18 17  1  0  0  0  0
 19 37  1  0  0  0  0
 19 38  1  0  0  0  0
 20 40  1  0  0  0  0
 20 19  1  0  0  0  0
 21 15  2  0  0  0  0
 22  2  1  0  0  0  0
 23  8  1  0  0  0  0
 23 24  1  0  0  0  0
 24 47  1  0  0  0  0
 24 46  1  0  0  0  0
 25 26  1  0  0  0  0
 26 50  1  0  0  0  0
 26 52  1  0  0  0  0
 30 13  1  0  0  0  0
 31 14  1  0  0  0  0
 35 18  1  0  0  0  0
 36 18  1  0  0  0  0
 39 20  1  0  0  0  0
 41 20  1  0  0  0  0
 42 21  1  0  0  0  0
 43 23  1  0  0  0  0
 44 23  1  0  0  0  0
 45 24  1  0  0  0  0
 48 25  1  0  0  0  0
 49 25  1  0  0  0  0
 51 26  1  0  0  0  0
M  END
