1,2,3,50
q = 0.0, confidence = 0.998

 50 54  0  0  0  0  0  0  0  0999 V2000
    1.4113    1.4425    0.9422 S   0  0  0  0  0  0  0  0  0  0  0  0
   -0.6755   -0.6215   -1.8391 S   0  0  0  0  0  0  0  0  0  0  0  0
    2.2380   -1.3335    0.1092 N   0  0  0  0  0  2  0  0  0  0  0  0
    2.4764   -2.6128   -0.1963 C   0  0  0  0  0  0  0  0  0  0  0  0
    1.6012   -3.2817   -0.2110 H   0  0  0  0  0  0  0  0  0  0  0  0
    3.7652   -3.1147   -0.4927 C   0  0  0  0  0  0  0  0  0  0  0  0
    3.8899   -4.1801   -0.7317 H   0  0  0  0  0  0  0  0  0  0  0  0
    4.8434   -2.2446   -0.4776 C   0  0  0  0  0  0  0  0  0  0  0  0
    5.8609   -2.5956   -0.7078 H   0  0  0  0  0  0  0  0  0  0  0  0
    4.6347   -0.8723   -0.1585 C   0  0  0  0  0  0  0  0  0  0  0  0
    3.2920   -0.4486    0.1411 C   0  0  0  0  0  0  0  0  0  0  0  0
    5.6936    0.0801   -0.1320 C   0  0  0  0  0  3  0  0  0  0  0  0
    6.7143   -0.2566   -0.3679 H   0  0  0  0  0  0  0  0  0  0  0  0
    5.4430    1.4049    0.1923 C   0  0  0  0  0  0  0  0  0  0  0  0
    6.2645    2.1354    0.2168 H   0  0  0  0  0  0  0  0  0  0  0  0
    4.1281    1.8246    0.5157 C   0  0  0  0  0  0  0  0  0  0  0  0
    3.9437    2.8694    0.8071 H   0  0  0  0  0  0  0  0  0  0  0  0
    3.0645    0.9265    0.4802 C   0  0  0  0  0  0  0  0  0  0  0  0
    0.8857    2.5552   -0.4661 C   0  0  0  0  0  0  0  0  0  0  0  0
    1.4019    3.5270   -0.3401 H   0  0  0  0  0  0  0  0  0  0  0  0
    1.2260    2.0824   -1.4044 H   0  0  0  0  0  0  0  0  0  0  0  0
   -0.6080    2.6977   -0.3533 C   0  0  0  0  0  0  0  0  0  0  0  0
   -1.1161    3.5008    0.6890 C   0  0  0  0  0  0  0  0  0  0  0  0
   -0.4089    4.0388    1.3398 H   0  0  0  0  0  0  0  0  0  0  0  0
   -2.4930    3.6215    0.9136 C   0  0  0  0  0  0  0  0  0  0  0  0
   -2.8629    4.2554    1.7328 H   0  0  0  0  0  0  0  0  0  0  0  0
   -3.3924    2.9396    0.0807 C   0  0  0  0  0  0  0  0  0  0  0  0
   -4.4770    3.0323    0.2384 H   0  0  0  0  0  0  0  0  0  0  0  0
   -2.9032    2.1531   -0.9696 C   0  0  0  0  0  0  0  0  0  0  0  0
   -3.6097    1.6370   -1.6373 H   0  0  0  0  0  0  0  0  0  0  0  0
   -1.5185    2.0131   -1.2045 C   0  0  0  0  0  0  0  0  0  0  0  0
   -1.0787    1.1399   -2.3400 C   0  0  0  0  0  0  0  0  0  0  0  0
   -0.1443    1.4778   -2.8288 H   0  0  0  0  0  0  0  0  0  0  0  0
   -1.8590    1.0684   -3.1216 H   0  0  0  0  0  0  0  0  0  0  0  0
   -2.2568   -1.1224   -1.1564 C   0  0  0  0  0  0  0  0  0  0  0  0
   -3.3333   -1.3671   -2.0047 C   0  0  0  0  0  0  0  0  0  0  0  0
   -3.1917   -1.2814   -3.0928 H   0  0  0  0  0  0  0  0  0  0  0  0
   -4.6045   -1.7160   -1.4838 C   0  0  0  0  0  0  0  0  0  0  0  0
   -5.4405   -1.8993   -2.1743 H   0  0  0  0  0  0  0  0  0  0  0  0
   -4.7889   -1.8297   -0.1140 C   0  0  0  0  0  3  0  0  0  0  0  0
   -5.7725   -2.0985    0.2997 H   0  0  0  0  0  0  0  0  0  0  0  0
   -3.7047   -1.6117    0.7834 C   0  0  0  0  0  0  0  0  0  0  0  0
   -2.4096   -1.2622    0.2609 C   0  0  0  0  0  0  0  0  0  0  0  0
   -3.8452   -1.7266    2.1960 C   0  0  0  0  0  0  0  0  0  0  0  0
   -4.8259   -1.9899    2.6205 H   0  0  0  0  0  0  0  0  0  0  0  0
   -2.7467   -1.5077    3.0113 C   0  0  0  0  0  0  0  0  0  0  0  0
   -2.8179   -1.5861    4.1051 H   0  0  0  0  0  0  0  0  0  0  0  0
   -1.5052   -1.1862    2.4156 C   0  0  0  0  0  0  0  0  0  0  0  0
   -0.6142   -1.0181    3.0412 H   0  0  0  0  0  0  0  0  0  0  0  0
   -1.3309   -1.0703    1.0948 N   0  0  0  0  0  2  0  0  0  0  0  0
  2 35  1  0  0  0  0
  3 11  1  0  0  0  0
  4  3  1  0  0  0  0
  5  4  1  0  0  0  0
  6  8  1  0  0  0  0
  6  4  2  0  0  0  0
  7  6  1  0  0  0  0
  8 10  2  0  0  0  0
  9  8  1  0  0  0  0
 10 12  1  0  0  0  0
 10 11  1  0  0  0  0
 11 18  2  0  0  0  0
 12 14  1  0  0  0  0
 13 12  1  0  0  0  0
 14 15  1  0  0  0  0
 14 16  2  0  0  0  0
 16 17  1  0  0  0  0
 18 16  1  0  0  0  0
 18  1  1  0  0  0  0
 19 22  1  0  0  0  0
 19 20  1  0  0  0  0
 19  1  1  0  0  0  0
 21 19  1  0  0  0  0
 22 23  1  0  0  0  0
 23 25  2  0  0  0  0
 23 24  1  0  0  0  0
 25 26  1  0  0  0  0
 27 28  1  0  0  0  0
 27 25  1  0  0  0  0
 29 27  2  0  0  0  0
 30 29  1  0  0  0  0
 31 29  1  0  0  0  0
 31 22  2  0  0  0  0
 32  2  1  0  0  0  0
 32 31  1  0  0  0  0
 33 32  1  0  0  0  0
 34 32  1  0  0  0  0
 35 43  2  0  0  0  0
 36 38  2  0  0  0  0
 36 35  1  0  0  0  0
 37 36  1  0  0  0  0
 38 40  1  0  0  0  0
 39 38  1  0  0  0  0
 40 41  1  0  0  0  0
 40 42  1  0  0  0  0
 42 44  2  0  0  0  0
 43 42  1  0  0  0  0
 43 50  1  0  0  0  0
 44 45  1  0  0  0  0
 44 46  1  0  0  0  0
 46 47  1  0  0  0  0
 48 46  2  0  0  0  0
 48 49  1  0  0  0  0
 50 48  1  0  0  0  0
M  END
