1,2,7,8
q = -2.0, confidence = 0.726

 43 42  0  0  0  0  0  0  0  0999 V2000
   -0.8433    1.6401   -1.7626 S   0  0  0  0  0  3  0  0  0  0  0  0
   -0.8490   -1.6353   -1.7661 S   0  0  0  0  0  3  0  0  0  0  0  0
   -2.3727    1.7336   -1.9852 O   0  0  0  0  0  0  0  0  0  0  0  0
   -2.3790   -1.7255   -1.9866 O   0  0  0  0  0  0  0  0  0  0  0  0
    2.4868    2.0943    2.1387 O   0  0  0  0  0  0  0  0  0  0  0  0
    2.4803   -2.1085    2.1352 O   0  0  0  0  0  0  0  0  0  0  0  0
    0.7229    1.4654    0.8101 N   0  0  0  0  0  2  0  0  0  0  0  0
    0.7202   -1.4706    0.8060 N   0  0  0  0  0  2  0  0  0  0  0  0
   -0.4173    3.1121   -0.6038 C   0  0  0  0  0  0  0  0  0  0  0  0
    0.8813    2.7130    0.0868 C   0  0  0  0  0  0  0  0  0  0  0  0
   -0.2472    4.3161   -1.5305 C   0  0  0  0  0  0  0  0  0  0  0  0
   -1.5757    3.3060    0.3629 C   0  0  0  0  0  0  0  0  0  0  0  0
   -0.4243   -3.1111   -0.6115 C   0  0  0  0  0  0  0  0  0  0  0  0
    0.8756   -2.7163    0.0790 C   0  0  0  0  0  0  0  0  0  0  0  0
   -1.5823   -3.3051    0.3558 C   0  0  0  0  0  0  0  0  0  0  0  0
   -0.2575   -4.3131   -1.5414 C   0  0  0  0  0  0  0  0  0  0  0  0
    1.5885    1.2746    1.8346 C   0  0  0  0  0  0  0  0  0  0  0  0
    1.3949   -0.0059    2.6919 C   0  0  0  0  0  0  0  0  0  0  0  0
    1.5853   -1.2851    1.8319 C   0  0  0  0  0  0  0  0  0  0  0  0
   -0.0219   -0.0048    3.3030 C   0  0  0  0  0  0  0  0  0  0  0  0
    2.4353   -0.0084    3.8175 C   0  0  0  0  0  0  0  0  0  0  0  0
    1.6925    2.6481   -0.6843 H   0  0  0  0  0  0  0  0  0  0  0  0
    1.2130    3.5108    0.7893 H   0  0  0  0  0  0  0  0  0  0  0  0
   -1.1782    4.4841   -2.1103 H   0  0  0  0  0  0  0  0  0  0  0  0
    0.5830    4.1573   -2.2495 H   0  0  0  0  0  0  0  0  0  0  0  0
   -0.0298    5.2357   -0.9446 H   0  0  0  0  0  0  0  0  0  0  0  0
   -2.5333    3.1846   -0.1870 H   0  0  0  0  0  0  0  0  0  0  0  0
   -1.5372    4.3197    0.8156 H   0  0  0  0  0  0  0  0  0  0  0  0
   -1.5286    2.5539    1.1732 H   0  0  0  0  0  0  0  0  0  0  0  0
    1.6862   -2.6506   -0.6928 H   0  0  0  0  0  0  0  0  0  0  0  0
    1.2066   -3.5166    0.7790 H   0  0  0  0  0  0  0  0  0  0  0  0
   -2.5401   -3.1811   -0.1931 H   0  0  0  0  0  0  0  0  0  0  0  0
   -1.5449   -4.3197    0.8066 H   0  0  0  0  0  0  0  0  0  0  0  0
   -1.5333   -2.5545    1.1675 H   0  0  0  0  0  0  0  0  0  0  0  0
   -1.1892   -4.4779   -2.1207 H   0  0  0  0  0  0  0  0  0  0  0  0
    0.5724   -4.1542   -2.2607 H   0  0  0  0  0  0  0  0  0  0  0  0
   -0.0412   -5.2346   -0.9579 H   0  0  0  0  0  0  0  0  0  0  0  0
   -0.1690   -0.9049    3.9368 H   0  0  0  0  0  0  0  0  0  0  0  0
   -0.1670    0.8943    3.9384 H   0  0  0  0  0  0  0  0  0  0  0  0
   -0.7974   -0.0032    2.5185 H   0  0  0  0  0  0  0  0  0  0  0  0
    2.3193    0.8988    4.4414 H   0  0  0  0  0  0  0  0  0  0  0  0
    3.4620   -0.0086    3.4094 H   0  0  0  0  0  0  0  0  0  0  0  0
    2.3178   -0.9171    4.4388 H   0  0  0  0  0  0  0  0  0  0  0  0
  1  9  1  0  0  0  0
  2 13  1  0  0  0  0
  3  1  2  0  0  0  0
  4  2  2  0  0  0  0
  7 17  1  0  0  0  0
  8 19  1  0  0  0  0
  9 10  1  0  0  0  0
  9 12  1  0  0  0  0
 10 23  1  0  0  0  0
 10  7  1  0  0  0  0
 11 26  1  0  0  0  0
 11  9  1  0  0  0  0
 12 28  1  0  0  0  0
 12 29  1  0  0  0  0
 13 14  1  0  0  0  0
 13 15  1  0  0  0  0
 14 31  1  0  0  0  0
 14  8  1  0  0  0  0
 15 33  1  0  0  0  0
 15 34  1  0  0  0  0
 16 37  1  0  0  0  0
 16 13  1  0  0  0  0
 17  5  2  0  0  0  0
 17 18  1  0  0  0  0
 18 20  1  0  0  0  0
 18 21  1  0  0  0  0
 19  6  2  0  0  0  0
 19 18  1  0  0  0  0
 20 38  1  0  0  0  0
 20 39  1  0  0  0  0
 21 43  1  0  0  0  0
 21 41  1  0  0  0  0
 22 10  1  0  0  0  0
 24 11  1  0  0  0  0
 25 11  1  0  0  0  0
 27 12  1  0  0  0  0
 30 14  1  0  0  0  0
 32 15  1  0  0  0  0
 35 16  1  0  0  0  0
 36 16  1  0  0  0  0
 40 20  1  0  0  0  0
 42 21  1  0  0  0  0
M  END
