1,2,3,7
q = 0.0, confidence = 1.0

 31 32  0  0  1  0  0  0  0  0999 V2000
   -0.1141    2.5408   -0.0470 S   0  0  0  0  0  0  0  0  0  0  0  0
   -0.5890   -2.3703    0.3281 S   0  0  0  0  0  0  0  0  0  0  0  0
    1.5230   -0.0698   -0.1040 N   0  0  0  0  0  2  0  0  0  0  0  0
    2.1870    0.9624   -0.6471 C   0  0  2  0  0  3  0  0  0  0  0  0
    3.3831    0.7605   -1.3619 C   0  0  0  0  0  0  0  0  0  0  0  0
    3.9090    1.6152   -1.8118 H   0  0  0  0  0  0  0  0  0  0  0  0
   -0.9373   -0.0579   -1.7405 N   0  0  0  0  0  0  0  0  0  0  0  0
   -1.9714   -0.1493   -1.5787 H   0  0  0  0  0  0  0  0  0  0  0  0
    3.8906   -0.5402   -1.4711 C   0  0  0  0  0  0  0  0  0  0  0  0
    4.8242   -0.7273   -2.0228 H   0  0  0  0  0  0  0  0  0  0  0  0
    3.2006   -1.6009   -0.8682 C   0  0  0  0  0  0  0  0  0  0  0  0
    3.5799   -2.6313   -0.9243 H   0  0  0  0  0  0  0  0  0  0  0  0
    2.0038   -1.3266   -0.1835 C   0  0  0  0  0  0  0  0  0  0  0  0
    1.2311   -2.4104    0.5303 C   0  0  0  0  0  0  0  0  0  0  0  0
    1.3504   -2.2484    1.6269 H   0  0  0  0  0  0  0  0  0  0  0  0
    1.6160   -3.4145    0.2670 H   0  0  0  0  0  0  0  0  0  0  0  0
   -0.8461   -2.5247   -1.4773 C   0  0  0  0  0  0  0  0  0  0  0  0
   -0.3434   -3.4396   -1.8499 H   0  0  0  0  0  0  0  0  0  0  0  0
   -1.9419   -2.6832   -1.5374 H   0  0  0  0  0  0  0  0  0  0  0  0
   -0.4395   -1.3047   -2.3117 C   0  0  0  0  0  0  0  0  0  0  0  0
    0.6665   -1.2425   -2.3983 H   0  0  0  0  0  0  0  0  0  0  0  0
   -0.8216   -1.4692   -3.3491 H   0  0  0  0  0  0  0  0  0  0  0  0
   -0.5706    1.1365   -2.4871 C   0  0  0  0  0  0  0  0  0  0  0  0
   -1.0937    1.1959   -3.4732 H   0  0  0  0  0  0  0  0  0  0  0  0
    0.5153    1.0825   -2.7241 H   0  0  0  0  0  0  0  0  0  0  0  0
   -0.8652    2.4255   -1.7191 C   0  0  0  0  0  0  0  0  0  0  0  0
   -1.9494    2.5168   -1.4987 H   0  0  0  0  0  0  0  0  0  0  0  0
   -0.5659    3.3099   -2.3170 H   0  0  0  0  0  0  0  0  0  0  0  0
    1.6682    2.3627   -0.3882 C   0  0  0  0  0  0  0  0  0  0  0  0
    1.9718    3.0619   -1.1927 H   0  0  0  0  0  0  0  0  0  0  0  0
    2.1259    2.7038    0.5653 H   0  0  0  0  0  0  0  0  0  0  0  0
  2 14  1  0  0  0  0
  4  5  1  1  0  0  0
  4 29  1  0  0  0  0
  4  3  1  0  0  0  0
  6  5  1  0  0  0  0
  7  8  1  0  0  0  0
  9  5  2  0  0  0  0
  9 11  1  0  0  0  0
 10  9  1  0  0  0  0
 11 13  2  0  0  0  0
 12 11  1  0  0  0  0
 13  3  1  0  0  0  0
 13 14  1  0  0  0  0
 14 15  1  0  0  0  0
 16 14  1  0  0  0  0
 17  2  1  0  0  0  0
 18 17  1  0  0  0  0
 19 17  1  0  0  0  0
 20  7  1  0  0  0  0
 20 17  1  0  0  0  0
 21 20  1  0  0  0  0
 22 20  1  0  0  0  0
 23  7  1  0  0  0  0
 23 26  1  0  0  0  0
 24 23  1  0  0  0  0
 25 23  1  0  0  0  0
 26 27  1  0  0  0  0
 26  1  1  0  0  0  0
 28 26  1  0  0  0  0
 29  1  1  0  0  0  0
 29 31  1  0  0  0  0
 30 29  1  0  0  0  0
M  END
