1,2,3,8
q = -2.0, confidence = 0.972

 30 29  0  0  1  0  0  0  0  0999 V2000
    1.3108   -2.2103   -0.0517 S   0  0  0  0  0  1  0  0  0  0  0  0
   -1.5725   -1.9225   -0.8480 S   0  0  0  0  0  1  0  0  0  0  0  0
    1.5894    0.5825   -0.0580 N   0  0  0  0  0  2  0  0  0  0  0  0
    2.7023    0.0422    0.5387 N   0  0  0  0  0  2  0  0  0  0  0  0
    3.7404   -1.9541    1.0515 N   0  0  0  0  0  0  0  0  0  0  0  0
    3.6272   -2.9349    1.2986 H   0  0  0  0  0  0  0  0  0  0  0  0
    4.4611   -1.4147    1.5312 H   0  0  0  0  0  0  0  0  0  0  0  0
   -1.4865    0.7826    0.1285 N   0  0  0  0  0  2  0  0  0  0  0  0
   -2.6612    0.1678    0.5072 N   0  0  0  0  0  2  0  0  0  0  0  0
   -3.9772   -1.7079    0.2996 N   0  0  0  0  0  0  0  0  0  0  0  0
   -4.6376   -1.2538    0.9311 H   0  0  0  0  0  0  0  0  0  0  0  0
   -3.9963   -2.7236    0.2335 H   0  0  0  0  0  0  0  0  0  0  0  0
    2.6631   -1.2729    0.5667 C   0  0  2  0  0  3  0  0  0  0  0  0
   -2.7894   -1.0697    0.0785 C   0  0  1  0  0  3  0  0  0  0  0  0
    2.9950    2.5759   -0.2866 C   0  0  0  0  0  0  0  0  0  0  0  0
    3.7901    2.1717   -0.9505 H   0  0  0  0  0  0  0  0  0  0  0  0
    3.3754    2.4393    0.7448 H   0  0  0  0  0  0  0  0  0  0  0  0
    2.8613    3.6510   -0.5109 H   0  0  0  0  0  0  0  0  0  0  0  0
    1.7172    1.8162   -0.4830 C   0  0  2  0  0  3  0  0  0  0  0  0
    0.5408    2.4542   -1.1601 C   0  0  0  0  0  0  0  0  0  0  0  0
    0.0272    1.7146   -1.8089 H   0  0  0  0  0  0  0  0  0  0  0  0
    0.9055    3.2749   -1.8084 H   0  0  0  0  0  0  0  0  0  0  0  0
   -0.4602    3.0203   -0.1497 C   0  0  0  0  0  0  0  0  0  0  0  0
    0.0724    3.5566    0.6707 H   0  0  0  0  0  0  0  0  0  0  0  0
   -1.0707    3.8113   -0.6441 H   0  0  0  0  0  0  0  0  0  0  0  0
   -1.4580    2.0626    0.4356 C   0  0  1  0  0  3  0  0  0  0  0  0
   -2.5476    2.6727    1.2709 C   0  0  0  0  0  0  0  0  0  0  0  0
   -2.7353    2.0596    2.1741 H   0  0  0  0  0  0  0  0  0  0  0  0
   -3.5083    2.6802    0.7129 H   0  0  0  0  0  0  0  0  0  0  0  0
   -2.2922    3.7107    1.5596 H   0  0  0  0  0  0  0  0  0  0  0  0
  3  4  1  0  0  0  0
  4 13  1  0  0  0  0
  5  6  1  0  0  0  0
  5  7  1  0  0  0  0
  8  9  1  0  0  0  0
 10 11  1  0  0  0  0
 12 10  1  0  0  0  0
 13  1  1  6  0  0  0
 13  5  1  0  0  0  0
 14  2  1  6  0  0  0
 14 10  1  0  0  0  0
 14  9  1  0  0  0  0
 15 17  1  0  0  0  0
 16 15  1  0  0  0  0
 18 15  1  0  0  0  0
 19 15  1  0  0  0  0
 19  3  1  1  0  0  0
 20 19  1  0  0  0  0
 20 23  1  0  0  0  0
 21 20  1  0  0  0  0
 22 20  1  0  0  0  0
 23 26  1  0  0  0  0
 23 24  1  0  0  0  0
 25 23  1  0  0  0  0
 26  8  1  6  0  0  0
 26 27  1  0  0  0  0
 27 30  1  0  0  0  0
 27 28  1  0  0  0  0
 29 27  1  0  0  0  0
M  END
