1,2,3,7
q = -2.0, confidence = 0.79

 58 61  0  0  0  0  0  0  0  0999 V2000
    1.6735   -3.1114    0.0843 S   0  0  0  0  0  1  0  0  0  0  0  0
   -1.6735   -3.1114   -0.0841 S   0  0  0  0  0  1  0  0  0  0  0  0
   -1.2434   -0.3248   -0.0546 N   0  0  0  0  0  2  0  0  0  0  0  0
   -2.5758   -0.5249   -0.0444 N   0  0  0  0  0  0  0  0  0  0  0  0
   -0.7324    0.9113   -0.0146 C   0  0  0  0  0  0  0  0  0  0  0  0
    0.7324    0.9113    0.0148 C   0  0  0  0  0  0  0  0  0  0  0  0
    1.2434   -0.3248    0.0549 N   0  0  0  0  0  2  0  0  0  0  0  0
    2.5758   -0.5249    0.0447 N   0  0  0  0  0  0  0  0  0  0  0  0
    2.8783   -1.8149    0.0508 C   0  0  0  0  0  0  0  0  0  0  0  0
    4.1815   -2.2232    0.0356 N   0  0  0  0  0  0  0  0  0  0  0  0
    4.2858   -3.2402    0.0623 H   0  0  0  0  0  0  0  0  0  0  0  0
    5.3862   -1.5017   -0.0101 C   0  0  0  0  0  0  0  0  0  0  0  0
    5.4547   -0.0946   -0.1200 C   0  0  0  0  0  0  0  0  0  0  0  0
    4.5248    0.4830   -0.1769 H   0  0  0  0  0  0  0  0  0  0  0  0
    6.7071    0.5326   -0.1581 C   0  0  0  0  0  0  0  0  0  0  0  0
    6.7447    1.6295   -0.2455 H   0  0  0  0  0  0  0  0  0  0  0  0
    7.8971   -0.2090   -0.0902 C   0  0  0  0  0  0  0  0  0  0  0  0
    8.8732    0.2971   -0.1204 H   0  0  0  0  0  0  0  0  0  0  0  0
    7.8261   -1.6080    0.0147 C   0  0  0  0  0  0  0  0  0  0  0  0
    8.7469   -2.2085    0.0668 H   0  0  0  0  0  0  0  0  0  0  0  0
    6.5847   -2.2510    0.0542 C   0  0  0  0  0  0  0  0  0  0  0  0
    6.5348   -3.3489    0.1374 H   0  0  0  0  0  0  0  0  0  0  0  0
    1.5611    2.1310   -0.0556 C   0  0  0  0  0  0  0  0  0  0  0  0
    1.2571    3.1420   -0.9969 C   0  0  0  0  0  0  0  0  0  0  0  0
    0.4037    3.0104   -1.6774 H   0  0  0  0  0  0  0  0  0  0  0  0
    2.0425    4.2991   -1.0772 C   0  0  0  0  0  0  0  0  0  0  0  0
    1.7974    5.0715   -1.8217 H   0  0  0  0  0  0  0  0  0  0  0  0
    3.1370    4.4722   -0.2153 C   0  0  0  0  0  0  0  0  0  0  0  0
    3.7516    5.3830   -0.2781 H   0  0  0  0  0  0  0  0  0  0  0  0
    3.4431    3.4774    0.7288 C   0  0  0  0  0  0  0  0  0  0  0  0
    4.2962    3.6075    1.4121 H   0  0  0  0  0  0  0  0  0  0  0  0
    2.6663    2.3149    0.8080 C   0  0  0  0  0  0  0  0  0  0  0  0
    2.9088    1.5371    1.5442 H   0  0  0  0  0  0  0  0  0  0  0  0
   -1.5611    2.1311    0.0557 C   0  0  0  0  0  0  0  0  0  0  0  0
   -1.2570    3.1421    0.9969 C   0  0  0  0  0  0  0  0  0  0  0  0
   -0.4037    3.0106    1.6775 H   0  0  0  0  0  0  0  0  0  0  0  0
   -2.0425    4.2992    1.0771 C   0  0  0  0  0  0  0  0  0  0  0  0
   -1.7974    5.0716    1.8216 H   0  0  0  0  0  0  0  0  0  0  0  0
   -3.1370    4.4722    0.2152 C   0  0  0  0  0  0  0  0  0  0  0  0
   -3.7516    5.3830    0.2780 H   0  0  0  0  0  0  0  0  0  0  0  0
   -3.4431    3.4774   -0.7287 C   0  0  0  0  0  0  0  0  0  0  0  0
   -4.2962    3.6074   -1.4121 H   0  0  0  0  0  0  0  0  0  0  0  0
   -2.6663    2.3148   -0.8079 C   0  0  0  0  0  0  0  0  0  0  0  0
   -2.9088    1.5370   -1.5440 H   0  0  0  0  0  0  0  0  0  0  0  0
   -2.8783   -1.8149   -0.0506 C   0  0  0  0  0  0  0  0  0  0  0  0
   -4.1815   -2.2232   -0.0353 N   0  0  0  0  0  0  0  0  0  0  0  0
   -4.2858   -3.2402   -0.0620 H   0  0  0  0  0  0  0  0  0  0  0  0
   -5.3862   -1.5017    0.0100 C   0  0  0  0  0  0  0  0  0  0  0  0
   -6.5847   -2.2510   -0.0549 C   0  0  0  0  0  0  0  0  0  0  0  0
   -6.5348   -3.3489   -0.1382 H   0  0  0  0  0  0  0  0  0  0  0  0
   -7.8261   -1.6080   -0.0157 C   0  0  0  0  0  0  0  0  0  0  0  0
   -8.7468   -2.2084   -0.0683 H   0  0  0  0  0  0  0  0  0  0  0  0
   -7.8971   -0.2090    0.0894 C   0  0  0  0  0  0  0  0  0  0  0  0
   -8.8733    0.2971    0.1192 H   0  0  0  0  0  0  0  0  0  0  0  0
   -6.7071    0.5326    0.1579 C   0  0  0  0  0  0  0  0  0  0  0  0
   -6.7448    1.6294    0.2454 H   0  0  0  0  0  0  0  0  0  0  0  0
   -5.4547   -0.0946    0.1202 C   0  0  0  0  0  0  0  0  0  0  0  0
   -4.5249    0.4830    0.1774 H   0  0  0  0  0  0  0  0  0  0  0  0
  2 45  1  0  0  0  0
  3  4  1  0  0  0  0
  3  5  1  0  0  0  0
  5  6  2  0  0  0  0
  5 34  1  0  0  0  0
  6  7  1  0  0  0  0
  8  9  2  0  0  0  0
  8  7  1  0  0  0  0
  9  1  1  0  0  0  0
 10  9  1  0  0  0  0
 10 11  1  0  0  0  0
 12 10  1  0  0  0  0
 12 21  1  0  0  0  0
 13 12  2  0  0  0  0
 14 13  1  0  0  0  0
 15 13  1  0  0  0  0
 15 17  2  0  0  0  0
 16 15  1  0  0  0  0
 17 19  1  0  0  0  0
 18 17  1  0  0  0  0
 19 21  2  0  0  0  0
 19 20  1  0  0  0  0
 21 22  1  0  0  0  0
 23  6  1  0  0  0  0
 23 32  1  0  0  0  0
 24 23  2  0  0  0  0
 25 24  1  0  0  0  0
 26 24  1  0  0  0  0
 26 28  2  0  0  0  0
 27 26  1  0  0  0  0
 28 30  1  0  0  0  0
 29 28  1  0  0  0  0
 30 32  2  0  0  0  0
 30 31  1  0  0  0  0
 32 33  1  0  0  0  0
 34 35  1  0  0  0  0
 35 37  2  0  0  0  0
 35 36  1  0  0  0  0
 37 38  1  0  0  0  0
 39 40  1  0  0  0  0
 39 37  1  0  0  0  0
 41 39  2  0  0  0  0
 42 41  1  0  0  0  0
 43 41  1  0  0  0  0
 43 34  2  0  0  0  0
 44 43  1  0  0  0  0
 45  4  2  0  0  0  0
 45 46  1  0  0  0  0
 46 48  1  0  0  0  0
 47 46  1  0  0  0  0
 48 57  1  0  0  0  0
 49 51  1  0  0  0  0
 49 48  2  0  0  0  0
 50 49  1  0  0  0  0
 51 53  2  0  0  0  0
 52 51  1  0  0  0  0
 53 54  1  0  0  0  0
 53 55  1  0  0  0  0
 55 56  1  0  0  0  0
 57 55  2  0  0  0  0
 57 58  1  0  0  0  0
M  END
