1,2,6,7
q = -1.0, confidence = 0.356

 31 30  0  0  1  0  0  0  0  0999 V2000
    1.8106    1.5887    0.3072 N   0  0  0  0  0  0  0  0  0  0  0  0
   -0.7130    0.7634   -0.1054 N   0  0  0  0  0  2  0  0  0  0  0  0
   -1.3742    2.8888   -0.7450 O   0  0  0  0  0  0  0  0  0  0  0  0
   -4.2212    1.0976   -0.7850 O   0  0  0  0  0  0  0  0  0  0  0  0
   -3.1536    1.4710    1.1762 O   0  0  0  0  0  0  0  0  0  0  0  0
    2.5983   -1.0100   -0.9829 S   0  0  0  0  0  1  0  0  0  0  0  0
   -0.4375   -2.0058   -0.6045 S   0  0  0  0  0  1  0  0  0  0  0  0
    3.6835    0.4928   -0.8468 C   0  0  0  0  0  0  0  0  0  0  0  0
    2.8103    1.7303   -0.7928 C   0  0  0  0  0  0  0  0  0  0  0  0
    0.7711    2.6462    0.3313 C   0  0  0  0  0  0  0  0  0  0  0  0
   -0.5513    2.1323   -0.2425 C   0  0  0  0  0  0  0  0  0  0  0  0
   -2.0020    0.2504   -0.6029 C   0  0  2  0  0  0  0  0  0  0  0  0
   -3.1489    1.0350    0.0428 C   0  0  0  0  0  0  0  0  0  0  0  0
   -2.1503   -1.2676   -0.3000 C   0  0  0  0  0  0  0  0  0  0  0  0
   -2.5359   -1.5592    1.1552 C   0  0  0  0  0  0  0  0  0  0  0  0
   -3.1209   -1.9302   -1.2798 C   0  0  0  0  0  0  0  0  0  0  0  0
    2.3264    1.5896    1.2011 H   0  0  0  0  0  0  0  0  0  0  0  0
   -4.9153    1.5691   -0.2740 H   0  0  0  0  0  0  0  0  0  0  0  0
    4.3429    0.5198   -1.7367 H   0  0  0  0  0  0  0  0  0  0  0  0
    4.3311    0.4124    0.0529 H   0  0  0  0  0  0  0  0  0  0  0  0
    3.4023    2.6592   -0.6337 H   0  0  0  0  0  0  0  0  0  0  0  0
    2.2412    1.8374   -1.7388 H   0  0  0  0  0  0  0  0  0  0  0  0
    1.0873    3.5474   -0.2298 H   0  0  0  0  0  0  0  0  0  0  0  0
    0.5804    2.9466    1.3817 H   0  0  0  0  0  0  0  0  0  0  0  0
   -2.0640    0.4004   -1.7018 H   0  0  0  0  0  0  0  0  0  0  0  0
   -3.5797   -1.2450    1.3628 H   0  0  0  0  0  0  0  0  0  0  0  0
   -2.4559   -2.6460    1.3526 H   0  0  0  0  0  0  0  0  0  0  0  0
   -1.8748   -1.0284    1.8672 H   0  0  0  0  0  0  0  0  0  0  0  0
   -4.1338   -1.4905   -1.1777 H   0  0  0  0  0  0  0  0  0  0  0  0
   -2.7887   -1.7918   -2.3278 H   0  0  0  0  0  0  0  0  0  0  0  0
   -3.1903   -3.0175   -1.0780 H   0  0  0  0  0  0  0  0  0  0  0  0
  1 10  1  0  0  0  0
  1 17  1  0  0  0  0
  3 11  2  0  0  0  0
  4 18  1  0  0  0  0
  4 13  1  0  0  0  0
  6  8  1  0  0  0  0
  7 14  1  0  0  0  0
  8  9  1  0  0  0  0
  8 20  1  0  0  0  0
  9 21  1  0  0  0  0
  9  1  1  0  0  0  0
 10 24  1  0  0  0  0
 11  2  1  0  0  0  0
 11 10  1  0  0  0  0
 12 25  1  6  0  0  0
 12 14  1  0  0  0  0
 12  2  1  0  0  0  0
 12 13  1  0  0  0  0
 13  5  2  0  0  0  0
 14 15  1  0  0  0  0
 15 27  1  0  0  0  0
 15 26  1  0  0  0  0
 15 28  1  0  0  0  0
 16 29  1  0  0  0  0
 16 31  1  0  0  0  0
 16 14  1  0  0  0  0
 19  8  1  0  0  0  0
 22  9  1  0  0  0  0
 23 10  1  0  0  0  0
 30 16  1  0  0  0  0
M  END
