1,17,34,50
q = -2.0, confidence = 0.888

 50 52  0  0  0  0  0  0  0  0999 V2000
   -1.6216   -2.0376   -1.2381 S   0  0  0  0  0  1  0  0  0  0  0  0
   -3.0448   -1.4103   -0.4748 C   0  0  0  0  0  0  0  0  0  0  0  0
   -4.2797   -1.9207   -0.7623 N   0  0  0  0  0  0  0  0  0  0  0  0
   -4.5692   -2.9973   -1.6831 C   0  0  0  0  0  0  0  0  0  0  0  0
   -4.4951   -2.6559   -2.7371 H   0  0  0  0  0  0  0  0  0  0  0  0
   -5.5970   -3.3435   -1.4773 H   0  0  0  0  0  0  0  0  0  0  0  0
   -3.8434   -3.8210   -1.5349 H   0  0  0  0  0  0  0  0  0  0  0  0
   -5.3035   -1.2848   -0.1142 N   0  0  0  0  0  0  0  0  0  0  0  0
   -4.7311   -0.3387    0.6207 C   0  0  0  0  0  0  0  0  0  0  0  0
   -5.5517    0.5648    1.4855 C   0  0  0  0  0  0  0  0  0  0  0  0
   -5.4135    1.6321    1.2129 H   0  0  0  0  0  0  0  0  0  0  0  0
   -5.2858    0.4616    2.5581 H   0  0  0  0  0  0  0  0  0  0  0  0
   -6.6218    0.3124    1.3670 H   0  0  0  0  0  0  0  0  0  0  0  0
   -3.2980   -0.3473    0.4547 C   0  0  0  0  0  0  0  0  0  0  0  0
   -2.3841    0.5511    1.0679 C   0  0  0  0  0  3  0  0  0  0  0  0
   -2.8336    1.3745    1.6662 H   0  0  0  0  0  0  0  0  0  0  0  0
   -1.0801    0.4920    0.9726 N   0  0  0  0  0  2  0  0  0  0  0  0
   -0.2718    1.5566    1.5567 C   0  0  0  0  0  0  0  0  0  0  0  0
    0.7379    1.1346    1.7554 H   0  0  0  0  0  0  0  0  0  0  0  0
   -0.6876    1.8607    2.5428 H   0  0  0  0  0  0  0  0  0  0  0  0
   -0.1403    2.8099    0.6977 C   0  0  0  0  0  0  0  0  0  0  0  0
   -0.2769    4.0490    1.3565 C   0  0  0  0  0  0  0  0  0  0  0  0
   -0.5003    4.0478    2.4355 H   0  0  0  0  0  0  0  0  0  0  0  0
   -0.1388    5.2717    0.6861 C   0  0  0  0  0  0  0  0  0  0  0  0
   -0.2517    6.2179    1.2364 H   0  0  0  0  0  0  0  0  0  0  0  0
    0.1394    5.2718   -0.6860 C   0  0  0  0  0  0  0  0  0  0  0  0
    0.2523    6.2180   -1.2362 H   0  0  0  0  0  0  0  0  0  0  0  0
    0.2776    4.0492   -1.3565 C   0  0  0  0  0  0  0  0  0  0  0  0
    0.5010    4.0481   -2.4355 H   0  0  0  0  0  0  0  0  0  0  0  0
    0.1410    2.8100   -0.6978 C   0  0  0  0  0  0  0  0  0  0  0  0
    0.2724    1.5568   -1.5570 C   0  0  0  0  0  0  0  0  0  0  0  0
   -0.7374    1.1350   -1.7559 H   0  0  0  0  0  0  0  0  0  0  0  0
    0.6884    1.8609   -2.5429 H   0  0  0  0  0  0  0  0  0  0  0  0
    1.0804    0.4920   -0.9729 N   0  0  0  0  0  2  0  0  0  0  0  0
    2.3845    0.5511   -1.0676 C   0  0  0  0  0  3  0  0  0  0  0  0
    2.8342    1.3747   -1.6654 H   0  0  0  0  0  0  0  0  0  0  0  0
    3.2981   -0.3475   -0.4542 C   0  0  0  0  0  0  0  0  0  0  0  0
    4.7313   -0.3388   -0.6196 C   0  0  0  0  0  0  0  0  0  0  0  0
    5.5523    0.5651   -1.4836 C   0  0  0  0  0  0  0  0  0  0  0  0
    5.4137    1.6322   -1.2109 H   0  0  0  0  0  0  0  0  0  0  0  0
    5.2871    0.4620   -2.5564 H   0  0  0  0  0  0  0  0  0  0  0  0
    6.6224    0.3128   -1.3644 H   0  0  0  0  0  0  0  0  0  0  0  0
    5.3033   -1.2852    0.1152 N   0  0  0  0  0  0  0  0  0  0  0  0
    4.2792   -1.9215    0.7625 N   0  0  0  0  0  0  0  0  0  0  0  0
    4.5681   -2.9987    1.6828 C   0  0  0  0  0  0  0  0  0  0  0  0
    4.4906   -2.6586    2.7369 H   0  0  0  0  0  0  0  0  0  0  0  0
    5.5971   -3.3428    1.4792 H   0  0  0  0  0  0  0  0  0  0  0  0
    3.8442   -3.8235    1.5318 H   0  0  0  0  0  0  0  0  0  0  0  0
    3.0444   -1.4109    0.4747 C   0  0  0  0  0  0  0  0  0  0  0  0
    1.6210   -2.0388    1.2369 S   0  0  0  0  0  1  0  0  0  0  0  0
  1  2  1  0  0  0  0
  2 14  2  0  0  0  0
  3  2  1  0  0  0  0
  3  8  1  0  0  0  0
  4  7  1  0  0  0  0
  4  6  1  0  0  0  0
  4  3  1  0  0  0  0
  5  4  1  0  0  0  0
  8  9  2  0  0  0  0
  9 10  1  0  0  0  0
 10 12  1  0  0  0  0
 11 10  1  0  0  0  0
 13 10  1  0  0  0  0
 14  9  1  0  0  0  0
 14 15  1  0  0  0  0
 15 16  1  0  0  0  0
 17 15  1  0  0  0  0
 17 18  1  0  0  0  0
 18 19  1  0  0  0  0
 18 20  1  0  0  0  0
 21 22  1  0  0  0  0
 21 18  1  0  0  0  0
 22 23  1  0  0  0  0
 24 25  1  0  0  0  0
 24 22  2  0  0  0  0
 26 24  1  0  0  0  0
 27 26  1  0  0  0  0
 28 30  1  0  0  0  0
 28 26  2  0  0  0  0
 29 28  1  0  0  0  0
 30 21  2  0  0  0  0
 31 34  1  0  0  0  0
 31 30  1  0  0  0  0
 32 31  1  0  0  0  0
 33 31  1  0  0  0  0
 35 34  1  0  0  0  0
 35 37  1  0  0  0  0
 36 35  1  0  0  0  0
 37 49  2  0  0  0  0
 38 37  1  0  0  0  0
 38 43  2  0  0  0  0
 39 42  1  0  0  0  0
 39 40  1  0  0  0  0
 39 38  1  0  0  0  0
 41 39  1  0  0  0  0
 43 44  1  0  0  0  0
 44 45  1  0  0  0  0
 45 46  1  0  0  0  0
 47 45  1  0  0  0  0
 48 45  1  0  0  0  0
 49 44  1  0  0  0  0
 49 50  1  0  0  0  0
M  END
