19,20,23,24
q = -1.0, confidence = 0.0

 39 40  0  0  1  0  0  0  0  0999 V2000
    1.5061    3.3588   -0.2009 C   0  0  1  0  0  3  0  0  0  0  0  0
   -0.9442    0.8642   -0.2929 C   0  0  0  0  0  0  0  0  0  0  0  0
   -0.7550   -0.5799   -0.5137 C   0  0  0  0  0  0  0  0  0  0  0  0
    2.1300   -2.5654   -1.0937 C   0  0  1  0  0  3  0  0  0  0  0  0
   -2.2862    1.4673   -0.1119 C   0  0  0  0  0  0  0  0  0  0  0  0
   -2.6708    2.5973   -0.8696 C   0  0  0  0  0  0  0  0  0  0  0  0
   -3.9399    3.1665   -0.7017 C   0  0  0  0  0  0  0  0  0  0  0  0
   -4.8406    2.6293    0.2326 C   0  0  0  0  0  0  0  0  0  0  0  0
   -4.4618    1.5187    1.0028 C   0  0  0  0  0  0  0  0  0  0  0  0
   -3.1965    0.9409    0.8326 C   0  0  0  0  0  0  0  0  0  0  0  0
   -1.8568   -1.5720   -0.3897 C   0  0  0  0  0  0  0  0  0  0  0  0
   -2.9651   -1.5539   -1.2615 C   0  0  0  0  0  0  0  0  0  0  0  0
   -3.9781   -2.5129   -1.1269 C   0  0  0  0  0  0  0  0  0  0  0  0
   -3.8970   -3.4911   -0.1218 C   0  0  0  0  0  0  0  0  0  0  0  0
   -2.7967   -3.5112    0.7502 C   0  0  0  0  0  0  0  0  0  0  0  0
   -1.7729   -2.5591    0.6224 C   0  0  0  0  0  0  0  0  0  0  0  0
    1.5550    4.7029   -0.0491 N   0  0  0  0  0  0  0  0  0  0  0  0
    0.2413    2.8560   -0.1697 N   0  0  0  0  0  2  0  0  0  0  0  0
    0.1934    1.5474   -0.2780 N   0  0  0  0  0  2  0  0  0  0  0  0
    0.4674   -0.9506   -0.8187 N   0  0  0  0  0  2  0  0  0  0  0  0
    0.8045   -2.2335   -1.0283 N   0  0  0  0  0  0  0  0  0  0  0  0
    2.3969   -3.8873   -1.2265 N   0  0  0  0  0  0  0  0  0  0  0  0
    2.9923    2.5091   -0.4610 S   0  0  0  0  0  1  0  0  0  0  0  0
    3.3829   -1.4212   -1.0896 S   0  0  0  0  0  1  0  0  0  0  0  0
    2.4528    5.1785    0.0053 H   0  0  0  0  0  0  0  0  0  0  0  0
    0.6822    5.1982    0.1403 H   0  0  0  0  0  0  0  0  0  0  0  0
    0.0997   -2.9577   -0.8192 H   0  0  0  0  0  0  0  0  0  0  0  0
   -1.9626    3.0245   -1.5920 H   0  0  0  0  0  0  0  0  0  0  0  0
    3.3704   -4.1772   -1.1476 H   0  0  0  0  0  0  0  0  0  0  0  0
    1.6714   -4.5966   -1.1112 H   0  0  0  0  0  0  0  0  0  0  0  0
   -4.2286    4.0405   -1.3055 H   0  0  0  0  0  0  0  0  0  0  0  0
   -5.8357    3.0808    0.3647 H   0  0  0  0  0  0  0  0  0  0  0  0
   -5.1549    1.0997    1.7480 H   0  0  0  0  0  0  0  0  0  0  0  0
   -2.9022    0.0813    1.4514 H   0  0  0  0  0  0  0  0  0  0  0  0
   -3.0326   -0.7769   -2.0370 H   0  0  0  0  0  0  0  0  0  0  0  0
   -4.8423   -2.4918   -1.8077 H   0  0  0  0  0  0  0  0  0  0  0  0
   -4.6989   -4.2373   -0.0148 H   0  0  0  0  0  0  0  0  0  0  0  0
   -2.7379   -4.2667    1.5485 H   0  0  0  0  0  0  0  0  0  0  0  0
   -0.9142   -2.5442    1.3179 H   0  0  0  0  0  0  0  0  0  0  0  0
  1 23  1  6  0  0  0
  1 18  1  0  0  0  0
  1 17  1  0  0  0  0
  2 19  1  0  0  0  0
  2  5  1  0  0  0  0
  3 11  1  0  0  0  0
  3  2  2  0  0  0  0
  4 24  1  6  0  0  0
  4 21  1  0  0  0  0
  5 10  1  0  0  0  0
  6  7  1  0  0  0  0
  6  5  2  0  0  0  0
  7  8  2  0  0  0  0
  8 32  1  0  0  0  0
  8  9  1  0  0  0  0
  9 33  1  0  0  0  0
 10  9  2  0  0  0  0
 10 34  1  0  0  0  0
 11 16  1  0  0  0  0
 12 13  1  0  0  0  0
 12 11  2  0  0  0  0
 13 14  2  0  0  0  0
 14 37  1  0  0  0  0
 14 15  1  0  0  0  0
 15 38  1  0  0  0  0
 16 15  2  0  0  0  0
 16 39  1  0  0  0  0
 17 25  1  0  0  0  0
 17 26  1  0  0  0  0
 19 18  1  0  0  0  0
 20  3  1  0  0  0  0
 21 27  1  0  0  0  0
 21 20  1  0  0  0  0
 22 29  1  0  0  0  0
 22 30  1  0  0  0  0
 22  4  1  0  0  0  0
 28  6  1  0  0  0  0
 31  7  1  0  0  0  0
 35 12  1  0  0  0  0
 36 13  1  0  0  0  0
M  END
