1,2,35,36
q = 0.0, confidence = 0.988

 68 69  0  0  0  0  0  0  0  0999 V2000
    0.8242    1.8345    1.5338 S   0  0  0  0  0  0  0  0  0  0  0  0
    1.9116   -0.2945   -0.3217 N   0  0  0  0  0  2  0  0  0  0  0  0
    3.3661   -2.1398    0.1121 N   0  0  0  0  0  0  0  0  0  0  0  0
    1.6504   -2.3010   -1.4836 N   0  0  0  0  0  0  0  0  0  0  0  0
    2.3194   -1.5445   -0.5549 C   0  0  0  0  0  3  0  0  0  0  0  0
    4.3119   -3.0251   -0.5555 C   0  0  0  0  0  0  0  0  0  0  0  0
    4.0462   -3.1309   -1.6222 H   0  0  0  0  0  0  0  0  0  0  0  0
    4.3412   -4.0338   -0.0901 H   0  0  0  0  0  0  0  0  0  0  0  0
    5.3349   -2.5922   -0.4952 H   0  0  0  0  0  0  0  0  0  0  0  0
    3.7496   -1.6940    1.4426 C   0  0  0  0  0  0  0  0  0  0  0  0
    4.6114   -0.9912    1.4201 H   0  0  0  0  0  0  0  0  0  0  0  0
    4.0302   -2.5761    2.0547 H   0  0  0  0  0  0  0  0  0  0  0  0
    2.8996   -1.1800    1.9270 H   0  0  0  0  0  0  0  0  0  0  0  0
    0.8137   -1.6379   -2.4707 C   0  0  0  0  0  0  0  0  0  0  0  0
   -0.1985   -1.4040   -2.0602 H   0  0  0  0  0  0  0  0  0  0  0  0
    0.7066   -2.2937   -3.3570 H   0  0  0  0  0  0  0  0  0  0  0  0
    1.2723   -0.6808   -2.7768 H   0  0  0  0  0  0  0  0  0  0  0  0
    1.4132   -3.7262   -1.3005 C   0  0  0  0  0  0  0  0  0  0  0  0
    1.8463   -4.3307   -2.1253 H   0  0  0  0  0  0  0  0  0  0  0  0
    0.3197   -3.9243   -1.2701 H   0  0  0  0  0  0  0  0  0  0  0  0
    1.8527   -4.0639   -0.3451 H   0  0  0  0  0  0  0  0  0  0  0  0
    2.8267    0.7326   -0.0505 C   0  0  0  0  0  0  0  0  0  0  0  0
    4.1191    0.7678   -0.6347 C   0  0  0  0  0  0  0  0  0  0  0  0
    4.4232   -0.0513   -1.3034 H   0  0  0  0  0  0  0  0  0  0  0  0
    4.9912    1.8358   -0.4050 C   0  0  0  0  0  0  0  0  0  0  0  0
    5.9829    1.8356   -0.8820 H   0  0  0  0  0  0  0  0  0  0  0  0
    4.6067    2.9094    0.4182 C   0  0  0  0  0  0  0  0  0  0  0  0
    5.2944    3.7465    0.6047 H   0  0  0  0  0  0  0  0  0  0  0  0
    3.3360    2.8981    1.0048 C   0  0  0  0  0  0  0  0  0  0  0  0
    3.0244    3.7205    1.6667 H   0  0  0  0  0  0  0  0  0  0  0  0
    2.4436    1.8367    0.7651 C   0  0  0  0  0  0  0  0  0  0  0  0
    0.0254    3.3044    0.7596 C   0  0  0  0  0  0  0  0  0  0  0  0
   -0.9949    3.3077    1.1965 H   0  0  0  0  0  0  0  0  0  0  0  0
    0.5452    4.2180    1.1148 H   0  0  0  0  0  0  0  0  0  0  0  0
   -0.8242    1.8345   -1.5338 S   0  0  0  0  0  0  0  0  0  0  0  0
   -1.9117   -0.2945    0.3217 N   0  0  0  0  0  2  0  0  0  0  0  0
   -3.3661   -2.1399   -0.1121 N   0  0  0  0  0  0  0  0  0  0  0  0
   -1.6504   -2.3010    1.4837 N   0  0  0  0  0  0  0  0  0  0  0  0
   -2.3194   -1.5445    0.5549 C   0  0  0  0  0  3  0  0  0  0  0  0
   -4.3119   -3.0251    0.5555 C   0  0  0  0  0  0  0  0  0  0  0  0
   -4.0462   -3.1309    1.6222 H   0  0  0  0  0  0  0  0  0  0  0  0
   -4.3412   -4.0338    0.0901 H   0  0  0  0  0  0  0  0  0  0  0  0
   -5.3349   -2.5922    0.4951 H   0  0  0  0  0  0  0  0  0  0  0  0
   -3.7496   -1.6941   -1.4427 C   0  0  0  0  0  0  0  0  0  0  0  0
   -4.6114   -0.9913   -1.4202 H   0  0  0  0  0  0  0  0  0  0  0  0
   -4.0301   -2.5762   -2.0547 H   0  0  0  0  0  0  0  0  0  0  0  0
   -2.8996   -1.1801   -1.9270 H   0  0  0  0  0  0  0  0  0  0  0  0
   -0.8137   -1.6378    2.4708 C   0  0  0  0  0  0  0  0  0  0  0  0
    0.1985   -1.4039    2.0602 H   0  0  0  0  0  0  0  0  0  0  0  0
   -0.7067   -2.2936    3.3571 H   0  0  0  0  0  0  0  0  0  0  0  0
   -1.2724   -0.6807    2.7768 H   0  0  0  0  0  0  0  0  0  0  0  0
   -1.4132   -3.7262    1.3005 C   0  0  0  0  0  0  0  0  0  0  0  0
   -1.8463   -4.3307    2.1253 H   0  0  0  0  0  0  0  0  0  0  0  0
   -0.3196   -3.9242    1.2702 H   0  0  0  0  0  0  0  0  0  0  0  0
   -1.8527   -4.0639    0.3451 H   0  0  0  0  0  0  0  0  0  0  0  0
   -2.8267    0.7326    0.0504 C   0  0  0  0  0  0  0  0  0  0  0  0
   -4.1191    0.7679    0.6347 C   0  0  0  0  0  0  0  0  0  0  0  0
   -4.4232   -0.0512    1.3034 H   0  0  0  0  0  0  0  0  0  0  0  0
   -4.9912    1.8359    0.4050 C   0  0  0  0  0  0  0  0  0  0  0  0
   -5.9829    1.8356    0.8820 H   0  0  0  0  0  0  0  0  0  0  0  0
   -4.6067    2.9094   -0.4182 C   0  0  0  0  0  0  0  0  0  0  0  0
   -5.2944    3.7465   -0.6047 H   0  0  0  0  0  0  0  0  0  0  0  0
   -3.3360    2.8981   -1.0048 C   0  0  0  0  0  0  0  0  0  0  0  0
   -3.0244    3.7205   -1.6667 H   0  0  0  0  0  0  0  0  0  0  0  0
   -2.4436    1.8367   -0.7651 C   0  0  0  0  0  0  0  0  0  0  0  0
   -0.0254    3.3044   -0.7596 C   0  0  0  0  0  0  0  0  0  0  0  0
    0.9949    3.3077   -1.1965 H   0  0  0  0  0  0  0  0  0  0  0  0
   -0.5452    4.2180   -1.1148 H   0  0  0  0  0  0  0  0  0  0  0  0
  2 22  1  0  0  0  0
  3 10  1  0  0  0  0
  4 18  1  0  0  0  0
  4  5  1  0  0  0  0
  5  2  1  0  0  0  0
  5  3  1  0  0  0  0
  6  9  1  0  0  0  0
  6  8  1  0  0  0  0
  6  3  1  0  0  0  0
  7  6  1  0  0  0  0
 10 13  1  0  0  0  0
 10 12  1  0  0  0  0
 11 10  1  0  0  0  0
 14 15  1  0  0  0  0
 14  4  1  0  0  0  0
 16 14  1  0  0  0  0
 17 14  1  0  0  0  0
 18 20  1  0  0  0  0
 18 21  1  0  0  0  0
 19 18  1  0  0  0  0
 22 31  1  0  0  0  0
 23 25  1  0  0  0  0
 23 22  2  0  0  0  0
 24 23  1  0  0  0  0
 25 27  2  0  0  0  0
 26 25  1  0  0  0  0
 27 28  1  0  0  0  0
 27 29  1  0  0  0  0
 29 30  1  0  0  0  0
 31 29  2  0  0  0  0
 31  1  1  0  0  0  0
 32 34  1  0  0  0  0
 32 33  1  0  0  0  0
 32  1  1  0  0  0  0
 35 65  1  0  0  0  0
 35 66  1  0  0  0  0
 36 39  1  0  0  0  0
 37 39  1  0  0  0  0
 37 40  1  0  0  0  0
 38 48  1  0  0  0  0
 39 38  1  0  0  0  0
 40 41  1  0  0  0  0
 42 40  1  0  0  0  0
 43 40  1  0  0  0  0
 44 45  1  0  0  0  0
 44 37  1  0  0  0  0
 46 44  1  0  0  0  0
 47 44  1  0  0  0  0
 48 51  1  0  0  0  0
 48 50  1  0  0  0  0
 49 48  1  0  0  0  0
 52 38  1  0  0  0  0
 52 53  1  0  0  0  0
 54 52  1  0  0  0  0
 55 52  1  0  0  0  0
 56 36  1  0  0  0  0
 56 57  1  0  0  0  0
 57 58  1  0  0  0  0
 59 57  2  0  0  0  0
 59 60  1  0  0  0  0
 61 59  1  0  0  0  0
 62 61  1  0  0  0  0
 63 65  1  0  0  0  0
 63 61  2  0  0  0  0
 64 63  1  0  0  0  0
 65 56  2  0  0  0  0
 66 32  1  0  0  0  0
 67 66  1  0  0  0  0
 68 66  1  0  0  0  0
M  END
