22,25,28,29
q = -1.0

 66 68  0  0  1  0  0  0  0  0999 V2000
   -5.6339    1.9634   -0.6618 O   0  0  0  0  0  0  0  0  0  0  0  0
    2.6008    0.2026    2.9969 O   0  0  0  0  0  0  0  0  0  0  0  0
    2.1832   -0.6298    0.9335 O   0  0  0  0  0  0  0  0  0  0  0  0
    6.5155   -4.3864   -0.6500 F   0  0  0  0  0  0  0  0  0  0  0  0
    4.8429   -0.5807   -0.4352 C   0  0  0  0  0  0  0  0  0  0  0  0
    4.1844   -1.6245   -1.1143 C   0  0  0  0  0  0  0  0  0  0  0  0
    4.7420   -2.9088   -1.1933 C   0  0  0  0  0  0  0  0  0  0  0  0
    5.9748   -3.1547   -0.5795 C   0  0  0  0  0  0  0  0  0  0  0  0
    6.6604   -2.1426    0.1027 C   0  0  0  0  0  0  0  0  0  0  0  0
    6.0882   -0.8652    0.1636 C   0  0  0  0  0  0  0  0  0  0  0  0
    3.1437    2.5715    1.1650 C   0  0  1  0  0  0  0  0  0  0  0  0
    3.7866    1.1605    1.1300 C   0  0  2  0  0  0  0  0  0  0  0  0
    4.2705    0.8234   -0.3085 C   0  0  2  0  0  0  0  0  0  0  0  0
    3.2113    1.2079   -1.3541 C   0  0  0  0  0  0  0  0  0  0  0  0
    2.6277    2.6014   -1.0632 C   0  0  2  0  0  0  0  0  0  0  0  0
    3.7285    3.6972   -0.9235 C   0  0  0  0  0  0  0  0  0  0  0  0
    4.0833    3.6692    0.5861 C   0  0  0  0  0  0  0  0  0  0  0  0
    1.9811    2.5451    0.2638 N   0  0  0  0  0  0  0  0  0  0  0  0
    0.9690    3.5623    0.5179 C   0  0  0  0  0  0  0  0  0  0  0  0
   -0.3502    3.2420   -0.2007 C   0  0  0  0  0  0  0  0  0  0  0  0
   -0.8766    1.8683    0.2170 C   0  0  0  0  0  0  0  0  0  0  0  0
   -2.0598    1.3597   -0.5600 N   0  0  0  0  0  0  0  0  0  0  0  0
   -3.2552    2.2206   -0.3693 C   0  0  0  0  0  0  0  0  0  0  0  0
   -4.5652    1.4252   -0.3985 C   0  0  0  0  0  0  0  0  0  0  0  0
   -4.4056    0.0892   -0.0687 N   0  0  0  0  0  2  0  0  0  0  0  0
   -5.6301   -0.7385   -0.1101 C   0  0  0  0  0  0  0  0  0  0  0  0
   -5.3872   -2.0219    0.6675 C   0  0  0  0  0  0  0  0  0  0  0  0
   -3.7052   -2.6617    0.2051 S   0  0  0  0  0  1  0  0  0  0  0  0
   -1.1947   -1.4345   -1.4090 S   0  0  0  0  0  1  0  0  0  0  0  0
   -0.6641    0.1509   -2.2225 C   0  0  0  0  0  0  0  0  0  0  0  0
   -1.7425    1.1965   -2.0142 C   0  0  0  0  0  0  0  0  0  0  0  0
    2.8086    0.1973    1.7971 C   0  0  0  0  0  0  0  0  0  0  0  0
    1.2844   -1.5863    1.5264 C   0  0  0  0  0  0  0  0  0  0  0  0
    3.2079   -1.4443   -1.5838 H   0  0  0  0  0  0  0  0  0  0  0  0
    4.2303   -3.7260   -1.7217 H   0  0  0  0  0  0  0  0  0  0  0  0
    7.6308   -2.3657    0.5687 H   0  0  0  0  0  0  0  0  0  0  0  0
    6.6299   -0.0640    0.6923 H   0  0  0  0  0  0  0  0  0  0  0  0
    2.8195    2.7770    2.2040 H   0  0  0  0  0  0  0  0  0  0  0  0
    4.6639    1.1744    1.8096 H   0  0  0  0  0  0  0  0  0  0  0  0
    5.1356    1.5029   -0.4736 H   0  0  0  0  0  0  0  0  0  0  0  0
    3.6590    1.1783   -2.3696 H   0  0  0  0  0  0  0  0  0  0  0  0
    2.3751    0.4823   -1.3294 H   0  0  0  0  0  0  0  0  0  0  0  0
    1.8823    2.8556   -1.8436 H   0  0  0  0  0  0  0  0  0  0  0  0
    4.5980    3.4918   -1.5791 H   0  0  0  0  0  0  0  0  0  0  0  0
    3.3309    4.6867   -1.2237 H   0  0  0  0  0  0  0  0  0  0  0  0
    3.8646    4.6421    1.0687 H   0  0  0  0  0  0  0  0  0  0  0  0
    5.1523    3.4501    0.7797 H   0  0  0  0  0  0  0  0  0  0  0  0
    1.2881    4.5982    0.2324 H   0  0  0  0  0  0  0  0  0  0  0  0
    0.7921    3.5818    1.6143 H   0  0  0  0  0  0  0  0  0  0  0  0
   -0.1765    3.2805   -1.2963 H   0  0  0  0  0  0  0  0  0  0  0  0
   -1.0849    4.0434    0.0237 H   0  0  0  0  0  0  0  0  0  0  0  0
   -0.0608    1.1261    0.1366 H   0  0  0  0  0  0  0  0  0  0  0  0
   -1.1776    1.8753    1.2822 H   0  0  0  0  0  0  0  0  0  0  0  0
   -3.3125    3.0296   -1.1259 H   0  0  0  0  0  0  0  0  0  0  0  0
   -3.1839    2.7003    0.6281 H   0  0  0  0  0  0  0  0  0  0  0  0
   -5.8812   -0.9688   -1.1695 H   0  0  0  0  0  0  0  0  0  0  0  0
   -6.4743   -0.1467    0.3013 H   0  0  0  0  0  0  0  0  0  0  0  0
   -6.1394   -2.7967    0.4201 H   0  0  0  0  0  0  0  0  0  0  0  0
   -5.4091   -1.8427    1.7622 H   0  0  0  0  0  0  0  0  0  0  0  0
    0.3221    0.4806   -1.8370 H   0  0  0  0  0  0  0  0  0  0  0  0
   -0.5488   -0.0631   -3.3032 H   0  0  0  0  0  0  0  0  0  0  0  0
   -1.4549    2.1807   -2.4442 H   0  0  0  0  0  0  0  0  0  0  0  0
   -2.6795    0.8737   -2.5123 H   0  0  0  0  0  0  0  0  0  0  0  0
    0.8007   -2.1062    0.6815 H   0  0  0  0  0  0  0  0  0  0  0  0
    0.5213   -1.0766    2.1438 H   0  0  0  0  0  0  0  0  0  0  0  0
    1.8502   -2.2969    2.1607 H   0  0  0  0  0  0  0  0  0  0  0  0
  1 24  2  0  0  0  0
  3 33  1  0  0  0  0
  3 32  1  0  0  0  0
  4  8  1  0  0  0  0
  5 13  1  0  0  0  0
  5 10  1  0  0  0  0
  6  5  2  0  0  0  0
  7  6  1  0  0  0  0
  7  8  2  0  0  0  0
  8  9  1  0  0  0  0
  9 10  2  0  0  0  0
  9 36  1  0  0  0  0
 10 37  1  0  0  0  0
 11 38  1  1  0  0  0
 12 11  1  0  0  0  0
 12 32  1  0  0  0  0
 12 39  1  1  0  0  0
 13 40  1  6  0  0  0
 13 12  1  0  0  0  0
 14 42  1  0  0  0  0
 14 15  1  0  0  0  0
 14 13  1  0  0  0  0
 15 43  1  6  0  0  0
 15 16  1  0  0  0  0
 15 18  1  0  0  0  0
 16 17  1  0  0  0  0
 17 47  1  0  0  0  0
 17 46  1  0  0  0  0
 17 11  1  0  0  0  0
 18 19  1  0  0  0  0
 18 11  1  0  0  0  0
 19 49  1  0  0  0  0
 20 51  1  0  0  0  0
 20 21  1  0  0  0  0
 20 19  1  0  0  0  0
 21 53  1  0  0  0  0
 22 23  1  0  0  0  0
 22 21  1  0  0  0  0
 23 55  1  0  0  0  0
 24 23  1  0  0  0  0
 24 25  1  0  0  0  0
 26 25  1  0  0  0  0
 26 57  1  0  0  0  0
 26 27  1  0  0  0  0
 27 59  1  0  0  0  0
 28 27  1  0  0  0  0
 30 31  1  0  0  0  0
 30 60  1  0  0  0  0
 30 29  1  0  0  0  0
 31 22  1  0  0  0  0
 32  2  2  0  0  0  0
 33 65  1  0  0  0  0
 33 66  1  0  0  0  0
 34  6  1  0  0  0  0
 35  7  1  0  0  0  0
 41 14  1  0  0  0  0
 44 16  1  0  0  0  0
 45 16  1  0  0  0  0
 48 19  1  0  0  0  0
 50 20  1  0  0  0  0
 52 21  1  0  0  0  0
 54 23  1  0  0  0  0
 56 26  1  0  0  0  0
 58 27  1  0  0  0  0
 61 30  1  0  0  0  0
 62 31  1  0  0  0  0
 63 31  1  0  0  0  0
 64 33  1  0  0  0  0
M  END
