1,7,9,15
q = -2.0, confidence = 0.776

 57 60  0  0  0  0  0  0  0  0999 V2000
    1.1911   -2.5435    0.7043 N   0  0  0  0  0  2  0  0  0  0  0  0
    2.4881   -2.4931    0.9290 C   0  0  0  0  0  3  0  0  0  0  0  0
    3.3602   -1.4266    0.6066 C   0  0  0  0  0  0  0  0  0  0  0  0
    4.7827   -1.3579    0.8225 C   0  0  0  0  0  0  0  0  0  0  0  0
    5.2625   -0.1834    0.4436 N   0  0  0  0  0  0  0  0  0  0  0  0
    3.0028   -0.1587    0.0693 C   0  0  0  0  0  0  0  0  0  0  0  0
    1.4324    0.4321   -0.3146 S   0  0  0  0  0  1  0  0  0  0  0  0
    5.6818   -2.4168    1.3751 C   0  0  0  0  0  0  0  0  0  0  0  0
   -1.1910   -2.5435   -0.7042 N   0  0  0  0  0  2  0  0  0  0  0  0
   -2.4880   -2.4932   -0.9290 C   0  0  0  0  0  3  0  0  0  0  0  0
   -3.3602   -1.4266   -0.6067 C   0  0  0  0  0  0  0  0  0  0  0  0
   -4.7826   -1.3580   -0.8227 C   0  0  0  0  0  0  0  0  0  0  0  0
   -5.2625   -0.1835   -0.4438 N   0  0  0  0  0  0  0  0  0  0  0  0
   -3.0028   -0.1588   -0.0692 C   0  0  0  0  0  0  0  0  0  0  0  0
   -1.4324    0.4320    0.3148 S   0  0  0  0  0  1  0  0  0  0  0  0
   -5.6816   -2.4168   -1.3755 C   0  0  0  0  0  0  0  0  0  0  0  0
    0.4831   -3.7395    1.1707 C   0  0  0  0  0  0  0  0  0  0  0  0
    0.0001   -4.6055    0.0001 C   0  0  0  0  0  0  0  0  0  0  0  0
   -0.4830   -3.7395   -1.1706 C   0  0  0  0  0  0  0  0  0  0  0  0
    3.5936    2.4898   -1.4122 C   0  0  0  0  0  0  0  0  0  0  0  0
    3.8571    3.8076   -1.8123 C   0  0  0  0  0  0  0  0  0  0  0  0
    4.1893    0.5460   -0.0148 N   0  0  0  0  0  0  0  0  0  0  0  0
    4.4232    1.8762   -0.4540 C   0  0  0  0  0  0  0  0  0  0  0  0
    4.9464    4.5136   -1.2805 C   0  0  0  0  0  0  0  0  0  0  0  0
    5.5277    2.5753    0.0752 C   0  0  0  0  0  0  0  0  0  0  0  0
    5.7825    3.8868   -0.3413 C   0  0  0  0  0  0  0  0  0  0  0  0
   -3.5938    2.4897    1.4123 C   0  0  0  0  0  0  0  0  0  0  0  0
   -3.8574    3.8075    1.8124 C   0  0  0  0  0  0  0  0  0  0  0  0
   -4.1893    0.5459    0.0148 N   0  0  0  0  0  0  0  0  0  0  0  0
   -4.4233    1.8761    0.4540 C   0  0  0  0  0  0  0  0  0  0  0  0
   -4.9466    4.5135    1.2805 C   0  0  0  0  0  0  0  0  0  0  0  0
   -5.5277    2.5752   -0.0753 C   0  0  0  0  0  0  0  0  0  0  0  0
   -5.7826    3.8867    0.3412 C   0  0  0  0  0  0  0  0  0  0  0  0
    2.7526    1.9362   -1.8502 H   0  0  0  0  0  0  0  0  0  0  0  0
    3.2023    4.2807   -2.5596 H   0  0  0  0  0  0  0  0  0  0  0  0
    5.1468    5.5473   -1.5998 H   0  0  0  0  0  0  0  0  0  0  0  0
    6.1724    2.0652    0.8022 H   0  0  0  0  0  0  0  0  0  0  0  0
    6.6441    4.4277    0.0789 H   0  0  0  0  0  0  0  0  0  0  0  0
   -2.7528    1.9361    1.8504 H   0  0  0  0  0  0  0  0  0  0  0  0
   -3.2027    4.2805    2.5599 H   0  0  0  0  0  0  0  0  0  0  0  0
   -5.1471    5.5471    1.5998 H   0  0  0  0  0  0  0  0  0  0  0  0
   -6.1723    2.0651   -0.8025 H   0  0  0  0  0  0  0  0  0  0  0  0
   -6.6441    4.4275   -0.0791 H   0  0  0  0  0  0  0  0  0  0  0  0
    2.9452   -3.3601    1.4488 H   0  0  0  0  0  0  0  0  0  0  0  0
   -2.9450   -3.3601   -1.4489 H   0  0  0  0  0  0  0  0  0  0  0  0
   -0.3907   -3.4057    1.7669 H   0  0  0  0  0  0  0  0  0  0  0  0
    1.1330   -4.3350    1.8479 H   0  0  0  0  0  0  0  0  0  0  0  0
   -0.8178   -5.2637    0.3604 H   0  0  0  0  0  0  0  0  0  0  0  0
    0.8178   -5.2637   -0.3602 H   0  0  0  0  0  0  0  0  0  0  0  0
    0.3909   -3.4058   -1.7668 H   0  0  0  0  0  0  0  0  0  0  0  0
   -1.1329   -4.3351   -1.8478 H   0  0  0  0  0  0  0  0  0  0  0  0
    6.7202   -2.0387    1.4111 H   0  0  0  0  0  0  0  0  0  0  0  0
    5.6644   -3.3342    0.7508 H   0  0  0  0  0  0  0  0  0  0  0  0
    5.3807   -2.7112    2.4023 H   0  0  0  0  0  0  0  0  0  0  0  0
   -6.7200   -2.0386   -1.4118 H   0  0  0  0  0  0  0  0  0  0  0  0
   -5.6645   -3.3342   -0.7510 H   0  0  0  0  0  0  0  0  0  0  0  0
   -5.3802   -2.7114   -2.4025 H   0  0  0  0  0  0  0  0  0  0  0  0
  1  2  1  0  0  0  0
  1 17  1  0  0  0  0
  2 44  1  0  0  0  0
  3  4  1  0  0  0  0
  3  2  1  0  0  0  0
  4  8  1  0  0  0  0
  5  4  2  0  0  0  0
  6  3  2  0  0  0  0
  7  6  1  0  0  0  0
  8 52  1  0  0  0  0
  8 54  1  0  0  0  0
 10  9  1  0  0  0  0
 10 11  1  0  0  0  0
 11 14  2  0  0  0  0
 12 11  1  0  0  0  0
 12 13  2  0  0  0  0
 13 29  1  0  0  0  0
 14 29  1  0  0  0  0
 14 15  1  0  0  0  0
 16 12  1  0  0  0  0
 16 56  1  0  0  0  0
 17 46  1  0  0  0  0
 17 47  1  0  0  0  0
 18 48  1  0  0  0  0
 18 17  1  0  0  0  0
 19  9  1  0  0  0  0
 19 18  1  0  0  0  0
 20 23  1  0  0  0  0
 21 20  2  0  0  0  0
 21 24  1  0  0  0  0
 22  6  1  0  0  0  0
 22  5  1  0  0  0  0
 23 22  1  0  0  0  0
 23 25  2  0  0  0  0
 24 26  2  0  0  0  0
 25 37  1  0  0  0  0
 26 25  1  0  0  0  0
 26 38  1  0  0  0  0
 27 28  1  0  0  0  0
 27 39  1  0  0  0  0
 28 40  1  0  0  0  0
 29 30  1  0  0  0  0
 30 27  2  0  0  0  0
 31 41  1  0  0  0  0
 31 28  2  0  0  0  0
 32 33  2  0  0  0  0
 32 30  1  0  0  0  0
 33 31  1  0  0  0  0
 34 20  1  0  0  0  0
 35 21  1  0  0  0  0
 36 24  1  0  0  0  0
 42 32  1  0  0  0  0
 43 33  1  0  0  0  0
 45 10  1  0  0  0  0
 49 18  1  0  0  0  0
 50 19  1  0  0  0  0
 51 19  1  0  0  0  0
 53  8  1  0  0  0  0
 55 16  1  0  0  0  0
 57 16  1  0  0  0  0
M  END
