1,9,10,18
q = -2.0, confidence = 0.906

 43 44  0  0  0  0  0  0  0  0999 V2000
   -1.2687    1.4651   -0.5646 N   0  0  0  0  0  2  0  0  0  0  0  0
   -2.5852    1.4321   -0.6257 C   0  0  0  0  0  3  0  0  0  0  0  0
   -3.0944    2.3120   -1.0705 H   0  0  0  0  0  0  0  0  0  0  0  0
   -3.4138    0.3617   -0.2152 C   0  0  0  0  0  0  0  0  0  0  0  0
   -4.8520    0.2699   -0.2370 C   0  0  0  0  0  0  0  0  0  0  0  0
   -5.2555   -0.9301    0.1712 N   0  0  0  0  0  0  0  0  0  0  0  0
   -4.1169   -1.6384    0.4387 N   0  0  0  0  0  0  0  0  0  0  0  0
   -2.9744   -0.9141    0.2378 C   0  0  0  0  0  0  0  0  0  0  0  0
   -1.3858   -1.5163    0.5040 S   0  0  0  0  0  1  0  0  0  0  0  0
    1.2684    1.4653    0.5639 N   0  0  0  0  0  2  0  0  0  0  0  0
    2.5848    1.4322    0.6259 C   0  0  0  0  0  3  0  0  0  0  0  0
    3.0939    2.3121    1.0710 H   0  0  0  0  0  0  0  0  0  0  0  0
    3.4137    0.3618    0.2158 C   0  0  0  0  0  0  0  0  0  0  0  0
    4.8519    0.2700    0.2385 C   0  0  0  0  0  0  0  0  0  0  0  0
    5.2557   -0.9298   -0.1698 N   0  0  0  0  0  0  0  0  0  0  0  0
    4.1172   -1.6381   -0.4382 N   0  0  0  0  0  0  0  0  0  0  0  0
    2.9746   -0.9139   -0.2378 C   0  0  0  0  0  0  0  0  0  0  0  0
    1.3861   -1.5159   -0.5052 S   0  0  0  0  0  1  0  0  0  0  0  0
   -4.2040   -2.9938    0.9314 C   0  0  0  0  0  0  0  0  0  0  0  0
   -5.1278   -3.4490    0.5313 H   0  0  0  0  0  0  0  0  0  0  0  0
   -4.2345   -3.0228    2.0415 H   0  0  0  0  0  0  0  0  0  0  0  0
   -3.3166   -3.5597    0.5867 H   0  0  0  0  0  0  0  0  0  0  0  0
   -5.8362    1.3193   -0.6446 C   0  0  0  0  0  0  0  0  0  0  0  0
   -6.8632    0.9219   -0.5426 H   0  0  0  0  0  0  0  0  0  0  0  0
   -5.6875    1.6326   -1.6994 H   0  0  0  0  0  0  0  0  0  0  0  0
   -5.7496    2.2301   -0.0160 H   0  0  0  0  0  0  0  0  0  0  0  0
    4.2046   -2.9932   -0.9314 C   0  0  0  0  0  0  0  0  0  0  0  0
    5.1284   -3.4485   -0.5313 H   0  0  0  0  0  0  0  0  0  0  0  0
    4.2352   -3.0218   -2.0415 H   0  0  0  0  0  0  0  0  0  0  0  0
    3.3172   -3.5594   -0.5872 H   0  0  0  0  0  0  0  0  0  0  0  0
    5.8359    1.3192    0.6472 C   0  0  0  0  0  0  0  0  0  0  0  0
    6.8630    0.9223    0.5446 H   0  0  0  0  0  0  0  0  0  0  0  0
    5.6872    1.6313    1.7024 H   0  0  0  0  0  0  0  0  0  0  0  0
    5.7488    2.2308    0.0197 H   0  0  0  0  0  0  0  0  0  0  0  0
    0.6126    2.6588    1.1069 C   0  0  0  0  0  0  0  0  0  0  0  0
    1.3314    3.2560    1.7089 H   0  0  0  0  0  0  0  0  0  0  0  0
   -0.1888    2.3214    1.7957 H   0  0  0  0  0  0  0  0  0  0  0  0
   -0.0002    3.5252   -0.0007 C   0  0  0  0  0  0  0  0  0  0  0  0
   -0.7719    4.1836    0.4499 H   0  0  0  0  0  0  0  0  0  0  0  0
    0.7716    4.1834   -0.4515 H   0  0  0  0  0  0  0  0  0  0  0  0
   -0.6131    2.6585   -1.1080 C   0  0  0  0  0  0  0  0  0  0  0  0
   -1.3321    3.2554   -1.7101 H   0  0  0  0  0  0  0  0  0  0  0  0
    0.1882    2.3209   -1.7968 H   0  0  0  0  0  0  0  0  0  0  0  0
  2  1  1  0  0  0  0
  2  4  1  0  0  0  0
  3  2  1  0  0  0  0
  4  8  2  0  0  0  0
  5  4  1  0  0  0  0
  5  6  2  0  0  0  0
  6  7  1  0  0  0  0
  7 19  1  0  0  0  0
  8  7  1  0  0  0  0
  8  9  1  0  0  0  0
 10 11  1  0  0  0  0
 10 35  1  0  0  0  0
 11 12  1  0  0  0  0
 13 14  1  0  0  0  0
 13 11  1  0  0  0  0
 14 31  1  0  0  0  0
 15 14  2  0  0  0  0
 16 17  1  0  0  0  0
 16 15  1  0  0  0  0
 17 13  2  0  0  0  0
 18 17  1  0  0  0  0
 19 21  1  0  0  0  0
 20 19  1  0  0  0  0
 22 19  1  0  0  0  0
 23 24  1  0  0  0  0
 23  5  1  0  0  0  0
 23 26  1  0  0  0  0
 25 23  1  0  0  0  0
 27 30  1  0  0  0  0
 27 28  1  0  0  0  0
 27 16  1  0  0  0  0
 29 27  1  0  0  0  0
 31 33  1  0  0  0  0
 32 31  1  0  0  0  0
 34 31  1  0  0  0  0
 35 36  1  0  0  0  0
 35 37  1  0  0  0  0
 38 39  1  0  0  0  0
 38 35  1  0  0  0  0
 40 38  1  0  0  0  0
 41  1  1  0  0  0  0
 41 38  1  0  0  0  0
 42 41  1  0  0  0  0
 43 41  1  0  0  0  0
M  END
