1,12,26,41
q = -2.0, confidence = 0.69

 47 48  0  0  0  0  0  0  0  0999 V2000
    1.3705    1.1546    0.4493 S   0  0  0  0  0  1  0  0  0  0  0  0
    4.5557    3.8517   -0.6177 O   0  0  0  0  0  0  0  0  0  0  0  0
    3.7077    2.9988   -0.3973 C   0  0  0  0  0  0  0  0  0  0  0  0
    4.0255    1.5693   -0.1240 C   0  0  0  0  0  0  0  0  0  0  0  0
    5.3720    1.1856   -0.2178 C   0  0  0  0  0  0  0  0  0  0  0  0
    5.7986   -0.1424   -0.0241 C   0  0  0  0  0  0  0  0  0  0  0  0
    7.2545   -0.5177   -0.1280 C   0  0  0  0  0  0  0  0  0  0  0  0
    4.8051   -1.0845    0.2652 C   0  0  0  0  0  0  0  0  0  0  0  0
    3.4288   -0.7508    0.3569 C   0  0  0  0  0  0  0  0  0  0  0  0
    3.0042    0.6084    0.1788 C   0  0  0  0  0  0  0  0  0  0  0  0
    2.5265   -1.8115    0.7229 C   0  0  0  0  0  3  0  0  0  0  0  0
    1.2197   -1.8158    0.6453 N   0  0  0  0  0  2  0  0  0  0  0  0
    0.5357   -3.0121    1.1522 C   0  0  0  0  0  0  0  0  0  0  0  0
   -0.0000   -3.8726   -0.0000 C   0  0  0  0  0  0  0  0  0  0  0  0
    2.6086    3.2447   -0.4056 H   0  0  0  0  0  0  0  0  0  0  0  0
    6.0899    1.9872   -0.4589 H   0  0  0  0  0  0  0  0  0  0  0  0
    7.8737    0.0746    0.5770 H   0  0  0  0  0  0  0  0  0  0  0  0
    7.6500   -0.3174   -1.1457 H   0  0  0  0  0  0  0  0  0  0  0  0
    7.4183   -1.5901    0.0933 H   0  0  0  0  0  0  0  0  0  0  0  0
    5.0939   -2.1362    0.4302 H   0  0  0  0  0  0  0  0  0  0  0  0
    3.0073   -2.7231    1.1339 H   0  0  0  0  0  0  0  0  0  0  0  0
   -0.3044   -2.6727    1.7906 H   0  0  0  0  0  0  0  0  0  0  0  0
    1.2162   -3.6089    1.7963 H   0  0  0  0  0  0  0  0  0  0  0  0
    0.8011   -4.5314   -0.3942 H   0  0  0  0  0  0  0  0  0  0  0  0
   -0.8012   -4.5314    0.3942 H   0  0  0  0  0  0  0  0  0  0  0  0
   -1.3705    1.1546   -0.4492 S   0  0  0  0  0  1  0  0  0  0  0  0
   -3.0043    0.6084   -0.1788 C   0  0  0  0  0  0  0  0  0  0  0  0
   -4.0255    1.5693    0.1240 C   0  0  0  0  0  0  0  0  0  0  0  0
   -3.7077    2.9988    0.3973 C   0  0  0  0  0  0  0  0  0  0  0  0
   -4.5557    3.8517    0.6175 O   0  0  0  0  0  0  0  0  0  0  0  0
   -2.6086    3.2447    0.4054 H   0  0  0  0  0  0  0  0  0  0  0  0
   -5.3720    1.1856    0.2179 C   0  0  0  0  0  0  0  0  0  0  0  0
   -5.7986   -0.1424    0.0242 C   0  0  0  0  0  0  0  0  0  0  0  0
   -7.2545   -0.5177    0.1280 C   0  0  0  0  0  0  0  0  0  0  0  0
   -7.8737    0.0745   -0.5770 H   0  0  0  0  0  0  0  0  0  0  0  0
   -7.6500   -0.3173    1.1457 H   0  0  0  0  0  0  0  0  0  0  0  0
   -7.4183   -1.5902   -0.0932 H   0  0  0  0  0  0  0  0  0  0  0  0
   -4.8051   -1.0845   -0.2651 C   0  0  0  0  0  0  0  0  0  0  0  0
   -3.4288   -0.7508   -0.3569 C   0  0  0  0  0  0  0  0  0  0  0  0
   -2.5265   -1.8115   -0.7229 C   0  0  0  0  0  3  0  0  0  0  0  0
   -1.2197   -1.8157   -0.6454 N   0  0  0  0  0  2  0  0  0  0  0  0
   -0.5357   -3.0121   -1.1522 C   0  0  0  0  0  0  0  0  0  0  0  0
    0.3044   -2.6727   -1.7906 H   0  0  0  0  0  0  0  0  0  0  0  0
   -1.2162   -3.6089   -1.7964 H   0  0  0  0  0  0  0  0  0  0  0  0
   -3.0073   -2.7231   -1.1337 H   0  0  0  0  0  0  0  0  0  0  0  0
   -5.0939   -2.1362   -0.4302 H   0  0  0  0  0  0  0  0  0  0  0  0
   -6.0899    1.9872    0.4589 H   0  0  0  0  0  0  0  0  0  0  0  0
  2  3  2  0  0  0  0
  3  4  1  0  0  0  0
  4 10  1  0  0  0  0
  5  4  2  0  0  0  0
  5  6  1  0  0  0  0
  6  8  2  0  0  0  0
  7  6  1  0  0  0  0
  7 19  1  0  0  0  0
  7 17  1  0  0  0  0
  8  9  1  0  0  0  0
  8 20  1  0  0  0  0
  9 11  1  0  0  0  0
 10  9  2  0  0  0  0
 10  1  1  0  0  0  0
 11 21  1  0  0  0  0
 12 11  1  0  0  0  0
 12 13  1  0  0  0  0
 13 22  1  0  0  0  0
 13 23  1  0  0  0  0
 14 25  1  0  0  0  0
 14 13  1  0  0  0  0
 15  3  1  0  0  0  0
 16  5  1  0  0  0  0
 18  7  1  0  0  0  0
 24 14  1  0  0  0  0
 26 27  1  0  0  0  0
 27 28  1  0  0  0  0
 28 32  2  0  0  0  0
 28 29  1  0  0  0  0
 29 31  1  0  0  0  0
 29 30  2  0  0  0  0
 32 47  1  0  0  0  0
 33 34  1  0  0  0  0
 33 32  1  0  0  0  0
 34 36  1  0  0  0  0
 35 34  1  0  0  0  0
 37 34  1  0  0  0  0
 38 33  2  0  0  0  0
 39 38  1  0  0  0  0
 39 27  2  0  0  0  0
 40 41  1  0  0  0  0
 40 39  1  0  0  0  0
 42 41  1  0  0  0  0
 42 14  1  0  0  0  0
 43 42  1  0  0  0  0
 44 42  1  0  0  0  0
 45 40  1  0  0  0  0
 46 38  1  0  0  0  0
M  END
