1,2,3,5
q = 0.0, confidence = 1.0

 51 54  0  0  1  0  0  0  0  0999 V2000
    0.6522    1.9002    1.7986 S   0  0  0  0  0  0  0  0  0  0  0  0
   -0.6515    1.8996   -1.7990 S   0  0  0  0  0  0  0  0  0  0  0  0
   -1.8729   -0.3295   -0.1270 N   0  0  0  0  0  2  0  0  0  0  0  0
   -3.9799   -0.3053   -0.8988 N   0  0  0  0  0  0  0  0  0  0  0  0
    1.8727   -0.3301    0.1276 N   0  0  0  0  0  2  0  0  0  0  0  0
    3.9800   -0.3054    0.8985 N   0  0  0  0  0  0  0  0  0  0  0  0
   -2.6375   -1.1653    0.6808 C   0  0  0  0  0  0  0  0  0  0  0  0
   -2.2785   -1.9355    1.7995 C   0  0  0  0  0  0  0  0  0  0  0  0
   -1.2408   -1.9393    2.1636 H   0  0  0  0  0  0  0  0  0  0  0  0
   -3.2865   -2.6877    2.4119 C   0  0  0  0  0  0  0  0  0  0  0  0
   -3.0440   -3.3054    3.2889 H   0  0  0  0  0  0  0  0  0  0  0  0
   -4.6180   -2.6760    1.9270 C   0  0  0  0  0  0  0  0  0  0  0  0
   -5.3793   -3.2831    2.4382 H   0  0  0  0  0  0  0  0  0  0  0  0
   -4.9905   -1.9133    0.8124 C   0  0  0  0  0  0  0  0  0  0  0  0
   -6.0249   -1.9114    0.4410 H   0  0  0  0  0  0  0  0  0  0  0  0
   -3.9748   -1.1606    0.2026 C   0  0  0  0  0  0  0  0  0  0  0  0
   -5.1462   -0.0250   -1.7176 C   0  0  0  0  0  0  0  0  0  0  0  0
   -4.8887    0.6939   -2.5147 H   0  0  0  0  0  0  0  0  0  0  0  0
   -5.9566    0.4078   -1.0975 H   0  0  0  0  0  0  0  0  0  0  0  0
   -5.5194   -0.9556   -2.1908 H   0  0  0  0  0  0  0  0  0  0  0  0
   -2.6975    0.1661   -1.0543 C   0  0  2  0  0  3  0  0  0  0  0  0
   -2.2519    1.0869   -2.1521 C   0  0  0  0  0  0  0  0  0  0  0  0
   -3.0116    1.8640   -2.3746 H   0  0  0  0  0  0  0  0  0  0  0  0
   -2.0814    0.5254   -3.0964 H   0  0  0  0  0  0  0  0  0  0  0  0
   -1.1902    3.1051   -0.5175 C   0  0  0  0  0  0  0  0  0  0  0  0
   -1.9422    3.7844   -0.9677 H   0  0  0  0  0  0  0  0  0  0  0  0
   -1.6764    2.5347    0.3022 H   0  0  0  0  0  0  0  0  0  0  0  0
    2.6370   -1.1662   -0.6801 C   0  0  0  0  0  0  0  0  0  0  0  0
    2.2775   -1.9370   -1.7983 C   0  0  0  0  0  0  0  0  0  0  0  0
    1.2397   -1.9411   -2.1620 H   0  0  0  0  0  0  0  0  0  0  0  0
    3.2854   -2.6894   -2.4108 C   0  0  0  0  0  0  0  0  0  0  0  0
    3.0424   -3.3076   -3.2874 H   0  0  0  0  0  0  0  0  0  0  0  0
    4.6171   -2.6773   -1.9266 C   0  0  0  0  0  0  0  0  0  0  0  0
    5.3782   -3.2846   -2.4378 H   0  0  0  0  0  0  0  0  0  0  0  0
    4.9900   -1.9141   -0.8125 C   0  0  0  0  0  0  0  0  0  0  0  0
    6.0246   -1.9119   -0.4416 H   0  0  0  0  0  0  0  0  0  0  0  0
    3.9745   -1.1612   -0.2026 C   0  0  0  0  0  0  0  0  0  0  0  0
    5.1467   -0.0244    1.7164 C   0  0  0  0  0  0  0  0  0  0  0  0
    5.5206   -0.9548    2.1894 H   0  0  0  0  0  0  0  0  0  0  0  0
    4.8894    0.6944    2.5136 H   0  0  0  0  0  0  0  0  0  0  0  0
    5.9565    0.4087    1.0958 H   0  0  0  0  0  0  0  0  0  0  0  0
    2.6976    0.1660    1.0543 C   0  0  2  0  0  3  0  0  0  0  0  0
    2.2524    1.0873    2.1518 C   0  0  0  0  0  0  0  0  0  0  0  0
    3.0123    1.8642    2.3740 H   0  0  0  0  0  0  0  0  0  0  0  0
    2.0818    0.5261    3.0963 H   0  0  0  0  0  0  0  0  0  0  0  0
    1.1911    3.1050    0.5164 C   0  0  0  0  0  0  0  0  0  0  0  0
    1.9433    3.7843    0.9664 H   0  0  0  0  0  0  0  0  0  0  0  0
    1.6771    2.5341   -0.3030 H   0  0  0  0  0  0  0  0  0  0  0  0
    0.0005    3.9173   -0.0007 C   0  0  0  0  0  0  0  0  0  0  0  0
   -0.3757    4.5832    0.8044 H   0  0  0  0  0  0  0  0  0  0  0  0
    0.3769    4.5828   -0.8061 H   0  0  0  0  0  0  0  0  0  0  0  0
  1 43  1  0  0  0  0
  2 25  1  0  0  0  0
  3  7  1  0  0  0  0
  4 16  1  0  0  0  0
  5 42  1  0  0  0  0
  6 42  1  0  0  0  0
  6 38  1  0  0  0  0
  7  8  1  0  0  0  0
  8  9  1  0  0  0  0
  8 10  2  0  0  0  0
 10 11  1  0  0  0  0
 12 10  1  0  0  0  0
 12 13  1  0  0  0  0
 14 12  2  0  0  0  0
 15 14  1  0  0  0  0
 16  7  2  0  0  0  0
 16 14  1  0  0  0  0
 17 19  1  0  0  0  0
 17  4  1  0  0  0  0
 18 17  1  0  0  0  0
 20 17  1  0  0  0  0
 21 22  1  6  0  0  0
 21  4  1  0  0  0  0
 21  3  1  0  0  0  0
 22  2  1  0  0  0  0
 23 22  1  0  0  0  0
 24 22  1  0  0  0  0
 25 49  1  0  0  0  0
 25 27  1  0  0  0  0
 26 25  1  0  0  0  0
 28 37  1  0  0  0  0
 28  5  1  0  0  0  0
 29 28  2  0  0  0  0
 30 29  1  0  0  0  0
 31 33  2  0  0  0  0
 31 29  1  0  0  0  0
 32 31  1  0  0  0  0
 33 35  1  0  0  0  0
 34 33  1  0  0  0  0
 35 36  1  0  0  0  0
 35 37  2  0  0  0  0
 37  6  1  0  0  0  0
 38 39  1  0  0  0  0
 38 40  1  0  0  0  0
 41 38  1  0  0  0  0
 42 43  1  1  0  0  0
 43 44  1  0  0  0  0
 43 45  1  0  0  0  0
 46 47  1  0  0  0  0
 46  1  1  0  0  0  0
 48 46  1  0  0  0  0
 49 46  1  0  0  0  0
 49 50  1  0  0  0  0
 51 49  1  0  0  0  0
M  END
