1,2,3,6
q = -1.0

 55 57  0  0  1  0  0  0  0  0999 V2000
   -1.0391   -2.4402    0.0465 S   0  0  0  0  0  1  0  0  0  0  0  0
    2.4791   -1.4095   -1.6130 S   0  0  0  0  0  1  0  0  0  0  0  0
   -1.0767    0.5126    0.0076 N   0  0  0  0  0  2  0  0  0  0  0  0
   -2.2786    0.0304    0.2233 N   0  0  0  0  0  0  0  0  0  0  0  0
   -3.5809   -1.8066    0.6667 N   0  0  0  0  0  0  0  0  0  0  0  0
    1.3124    1.1018   -0.7871 N   0  0  0  0  0  2  0  0  0  0  0  0
    2.6374    1.1907   -0.9820 N   0  0  0  0  0  0  0  0  0  0  0  0
    4.6806    0.0593   -1.0600 N   0  0  0  0  0  0  0  0  0  0  0  0
   -1.8461    2.9029   -0.0999 C   0  0  0  0  0  0  0  0  0  0  0  0
   -3.1908    2.7217   -0.5075 C   0  0  0  0  0  0  0  0  0  0  0  0
   -4.1077    3.7782   -0.4319 C   0  0  0  0  0  0  0  0  0  0  0  0
   -3.7136    5.0338    0.0577 C   0  0  0  0  0  0  0  0  0  0  0  0
   -2.3854    5.2270    0.4693 C   0  0  0  0  0  0  0  0  0  0  0  0
   -1.4631    4.1761    0.3889 C   0  0  0  0  0  0  0  0  0  0  0  0
   -0.8505    1.8139   -0.1860 C   0  0  0  0  0  0  0  0  0  0  0  0
   -2.3454   -1.3254    0.3365 C   0  0  0  0  0  0  0  0  0  0  0  0
   -4.7488   -0.9319    0.8021 C   0  0  0  0  0  0  0  0  0  0  0  0
   -5.7176   -1.1608   -0.3659 C   0  0  0  0  0  0  0  0  0  0  0  0
   -6.1023   -2.6427   -0.4809 C   0  0  0  0  0  0  0  0  0  0  0  0
   -4.8551   -3.5370   -0.5218 C   0  0  0  0  0  0  0  0  0  0  0  0
   -3.9164   -3.2263    0.6528 C   0  0  0  0  0  0  0  0  0  0  0  0
    0.5376    2.1118   -0.5219 C   0  0  0  0  0  0  0  0  0  0  0  0
    3.3272    0.0039   -1.1916 C   0  0  2  0  0  3  0  0  0  0  0  0
    5.3667    1.1825   -0.4037 C   0  0  0  0  0  0  0  0  0  0  0  0
    5.4250    0.9448    1.1122 C   0  0  0  0  0  0  0  0  0  0  0  0
    6.1300   -0.3898    1.4036 C   0  0  0  0  0  0  0  0  0  0  0  0
    5.5061   -1.5399    0.5984 C   0  0  0  0  0  0  0  0  0  0  0  0
    5.4347   -1.1951   -0.8957 C   0  0  0  0  0  0  0  0  0  0  0  0
   -3.5015    1.7419   -0.8895 H   0  0  0  0  0  0  0  0  0  0  0  0
   -5.1456    3.6179   -0.7621 H   0  0  0  0  0  0  0  0  0  0  0  0
   -4.4394    5.8587    0.1211 H   0  0  0  0  0  0  0  0  0  0  0  0
   -2.0656    6.2030    0.8652 H   0  0  0  0  0  0  0  0  0  0  0  0
   -0.4342    4.3387    0.7444 H   0  0  0  0  0  0  0  0  0  0  0  0
    0.8881    3.1613   -0.5637 H   0  0  0  0  0  0  0  0  0  0  0  0
    3.1357    1.9867   -0.5686 H   0  0  0  0  0  0  0  0  0  0  0  0
   -5.2488   -1.1840    1.7646 H   0  0  0  0  0  0  0  0  0  0  0  0
   -4.3966    0.1123    0.8537 H   0  0  0  0  0  0  0  0  0  0  0  0
   -5.2232   -0.8222   -1.3027 H   0  0  0  0  0  0  0  0  0  0  0  0
   -6.6188   -0.5272   -0.2281 H   0  0  0  0  0  0  0  0  0  0  0  0
   -6.7356   -2.8146   -1.3759 H   0  0  0  0  0  0  0  0  0  0  0  0
   -6.7224   -2.9248    0.4001 H   0  0  0  0  0  0  0  0  0  0  0  0
   -4.2946   -3.3708   -1.4672 H   0  0  0  0  0  0  0  0  0  0  0  0
   -5.1356   -4.6105   -0.4962 H   0  0  0  0  0  0  0  0  0  0  0  0
   -2.9787   -3.8096    0.5987 H   0  0  0  0  0  0  0  0  0  0  0  0
   -4.4185   -3.4694    1.6169 H   0  0  0  0  0  0  0  0  0  0  0  0
    6.3914    1.2258   -0.8312 H   0  0  0  0  0  0  0  0  0  0  0  0
    4.9018    2.1512   -0.6780 H   0  0  0  0  0  0  0  0  0  0  0  0
    5.9496    1.7902    1.6045 H   0  0  0  0  0  0  0  0  0  0  0  0
    4.3862    0.9042    1.5094 H   0  0  0  0  0  0  0  0  0  0  0  0
    7.2106   -0.2972    1.1478 H   0  0  0  0  0  0  0  0  0  0  0  0
    6.0794   -0.6124    2.4889 H   0  0  0  0  0  0  0  0  0  0  0  0
    4.4692   -1.7246    0.9551 H   0  0  0  0  0  0  0  0  0  0  0  0
    6.0830   -2.4778    0.7355 H   0  0  0  0  0  0  0  0  0  0  0  0
    4.9227   -1.9841   -1.4751 H   0  0  0  0  0  0  0  0  0  0  0  0
    6.4464   -1.0325   -1.3256 H   0  0  0  0  0  0  0  0  0  0  0  0
  1 16  1  0  0  0  0
  3  4  1  0  0  0  0
  4 16  2  0  0  0  0
  5 17  1  0  0  0  0
  6 22  1  0  0  0  0
  7  6  1  0  0  0  0
  7 35  1  0  0  0  0
  8 28  1  0  0  0  0
  8 24  1  0  0  0  0
  9 14  1  0  0  0  0
 10 11  1  0  0  0  0
 10  9  2  0  0  0  0
 11 12  2  0  0  0  0
 12 31  1  0  0  0  0
 12 13  1  0  0  0  0
 13 32  1  0  0  0  0
 14 13  2  0  0  0  0
 14 33  1  0  0  0  0
 15  9  1  0  0  0  0
 15  3  1  0  0  0  0
 16  5  1  0  0  0  0
 17 37  1  0  0  0  0
 17 36  1  0  0  0  0
 18 39  1  0  0  0  0
 18 17  1  0  0  0  0
 19 18  1  0  0  0  0
 19 41  1  0  0  0  0
 20 43  1  0  0  0  0
 20 19  1  0  0  0  0
 20 21  1  0  0  0  0
 21  5  1  0  0  0  0
 21 45  1  0  0  0  0
 22 15  2  0  0  0  0
 23  2  1  6  0  0  0
 23  8  1  0  0  0  0
 23  7  1  0  0  0  0
 24 25  1  0  0  0  0
 25 26  1  0  0  0  0
 25 49  1  0  0  0  0
 25 48  1  0  0  0  0
 26 51  1  0  0  0  0
 27 53  1  0  0  0  0
 27 52  1  0  0  0  0
 27 26  1  0  0  0  0
 28 27  1  0  0  0  0
 29 10  1  0  0  0  0
 30 11  1  0  0  0  0
 34 22  1  0  0  0  0
 38 18  1  0  0  0  0
 40 19  1  0  0  0  0
 42 20  1  0  0  0  0
 44 21  1  0  0  0  0
 46 24  1  0  0  0  0
 47 24  1  0  0  0  0
 50 26  1  0  0  0  0
 54 28  1  0  0  0  0
 55 28  1  0  0  0  0
M  END
