2,10,17,19
q = -1.0, confidence = 0.0

 41 42  0  0  1  0  0  0  0  0999 V2000
   -2.6058   -0.6194   -0.6679 N   0  0  0  0  0  0  0  0  0  0  0  0
   -1.6761   -0.7438    0.3249 N   0  0  0  0  0  2  0  0  0  0  0  0
   -2.0709   -1.7628    1.1221 C   0  0  1  0  0  3  0  0  0  0  0  0
   -3.2864   -2.2842    0.6181 C   0  0  0  0  0  0  0  0  0  0  0  0
   -3.6127   -1.5366   -0.5145 C   0  0  0  0  0  0  0  0  0  0  0  0
   -1.2901   -2.1986    2.3166 C   0  0  0  0  0  0  0  0  0  0  0  0
   -4.7777   -1.6293   -1.4416 C   0  0  0  0  0  0  0  0  0  0  0  0
   -2.5061    0.5048   -1.5774 C   0  0  0  0  0  0  0  0  0  0  0  0
   -2.7778    1.8344   -0.8675 C   0  0  0  0  0  0  0  0  0  0  0  0
   -1.6168    2.1208    0.5443 S   0  0  0  0  0  0  0  0  0  0  0  0
    2.6884   -1.0422   -0.2454 C   0  0  0  0  0  0  0  0  0  0  0  0
    3.2939    0.2496   -0.1339 C   0  0  0  0  0  0  0  0  0  0  0  0
    4.7074    0.3712   -0.3034 C   0  0  0  0  0  3  0  0  0  0  0  0
    5.5007   -0.7340   -0.5725 C   0  0  0  0  0  0  0  0  0  0  0  0
    4.8944   -2.0070   -0.6839 C   0  0  0  0  0  0  0  0  0  0  0  0
    3.5186   -2.1590   -0.5257 C   0  0  0  0  0  0  0  0  0  0  0  0
    0.9913   -1.3622   -0.0764 S   0  0  0  0  0  1  0  0  0  0  0  0
    2.5685    1.4508    0.1315 C   0  0  0  0  0  0  0  0  0  0  0  0
    1.2754    1.6322    0.3210 N   0  0  0  0  0  2  0  0  0  0  0  0
    0.8778    3.0267    0.6196 C   0  0  0  0  0  0  0  0  0  0  0  0
   -0.4230    3.3601   -0.0901 C   0  0  0  0  0  0  0  0  0  0  0  0
   -3.8645   -3.1150    1.0351 H   0  0  0  0  0  0  0  0  0  0  0  0
   -0.7069   -3.1153    2.0941 H   0  0  0  0  0  0  0  0  0  0  0  0
   -0.5713   -1.4193    2.6299 H   0  0  0  0  0  0  0  0  0  0  0  0
   -1.9702   -2.4275    3.1596 H   0  0  0  0  0  0  0  0  0  0  0  0
   -5.3919   -0.7048   -1.4388 H   0  0  0  0  0  0  0  0  0  0  0  0
   -4.4597   -1.8236   -2.4868 H   0  0  0  0  0  0  0  0  0  0  0  0
   -5.4323   -2.4634   -1.1314 H   0  0  0  0  0  0  0  0  0  0  0  0
   -1.4964    0.4995   -2.0397 H   0  0  0  0  0  0  0  0  0  0  0  0
   -3.2481    0.3571   -2.3860 H   0  0  0  0  0  0  0  0  0  0  0  0
   -2.6817    2.6905   -1.5639 H   0  0  0  0  0  0  0  0  0  0  0  0
   -3.7952    1.8539   -0.4301 H   0  0  0  0  0  0  0  0  0  0  0  0
    5.1631    1.3698   -0.2137 H   0  0  0  0  0  0  0  0  0  0  0  0
    6.5870   -0.6230   -0.6976 H   0  0  0  0  0  0  0  0  0  0  0  0
    5.5125   -2.8923   -0.8970 H   0  0  0  0  0  0  0  0  0  0  0  0
    3.0577   -3.1540   -0.6142 H   0  0  0  0  0  0  0  0  0  0  0  0
    3.1958    2.3622    0.1779 H   0  0  0  0  0  0  0  0  0  0  0  0
    0.7515    3.1462    1.7189 H   0  0  0  0  0  0  0  0  0  0  0  0
    1.6712    3.7371    0.3051 H   0  0  0  0  0  0  0  0  0  0  0  0
   -0.7821    4.3800    0.1511 H   0  0  0  0  0  0  0  0  0  0  0  0
   -0.3232    3.2442   -1.1876 H   0  0  0  0  0  0  0  0  0  0  0  0
  1  5  1  0  0  0  0
  1  2  1  0  0  0  0
  2  3  1  0  0  0  0
  3  6  1  6  0  0  0
  4 22  1  0  0  0  0
  4  3  1  0  0  0  0
  5  4  2  0  0  0  0
  6 24  1  0  0  0  0
  6 25  1  0  0  0  0
  7 26  1  0  0  0  0
  7 28  1  0  0  0  0
  7  5  1  0  0  0  0
  8  9  1  0  0  0  0
  8  1  1  0  0  0  0
  9 32  1  0  0  0  0
  9 10  1  0  0  0  0
 11 12  1  0  0  0  0
 11 17  1  0  0  0  0
 12 18  2  0  0  0  0
 13 33  1  0  0  0  0
 13 12  1  0  0  0  0
 14 13  1  0  0  0  0
 15 14  2  0  0  0  0
 15 16  1  0  0  0  0
 16 11  2  0  0  0  0
 18 37  1  0  0  0  0
 18 19  1  0  0  0  0
 19 20  1  0  0  0  0
 20 38  1  0  0  0  0
 21 40  1  0  0  0  0
 21 10  1  0  0  0  0
 21 20  1  0  0  0  0
 23  6  1  0  0  0  0
 27  7  1  0  0  0  0
 29  8  1  0  0  0  0
 30  8  1  0  0  0  0
 31  9  1  0  0  0  0
 34 14  1  0  0  0  0
 35 15  1  0  0  0  0
 36 16  1  0  0  0  0
 39 20  1  0  0  0  0
 41 21  1  0  0  0  0
M  END
