1,9,12,20
q = -1.0, confidence = 0.0

 37 38  0  0  1  0  0  0  0  0999 V2000
    1.8178   -0.8829   -0.2464 N   0  0  0  0  0  2  0  0  0  0  0  0
    2.7344   -0.7898    0.7582 C   0  0  1  0  0  3  0  0  0  0  0  0
    3.8025   -1.6956    0.8317 C   0  0  0  0  0  0  0  0  0  0  0  0
    3.9332   -2.7009   -0.1361 C   0  0  0  0  0  0  0  0  0  0  0  0
    2.9884   -2.7728   -1.1684 C   0  0  0  0  0  0  0  0  0  0  0  0
    1.9402   -1.8506   -1.1887 C   0  0  0  0  0  0  0  0  0  0  0  0
    2.5705    0.3583    1.7183 C   0  0  0  0  0  0  0  0  0  0  0  0
    2.8931    1.7048    1.0534 C   0  0  0  0  0  0  0  0  0  0  0  0
    1.8534    1.9982   -0.4470 S   0  0  0  0  0  0  0  0  0  0  0  0
    0.6658    3.2914    0.0783 C   0  0  0  0  0  0  0  0  0  0  0  0
   -0.6067    2.9730   -0.6843 C   0  0  0  0  0  0  0  0  0  0  0  0
   -1.0532    1.5981   -0.3682 N   0  0  0  0  0  2  0  0  0  0  0  0
   -2.3570    1.4559   -0.2303 C   0  0  0  0  0  0  0  0  0  0  0  0
   -3.1301    0.2794    0.0120 C   0  0  0  0  0  0  0  0  0  0  0  0
   -2.5735   -1.0336    0.1236 C   0  0  2  0  0  3  0  0  0  0  0  0
   -3.4474   -2.1245    0.3674 C   0  0  0  0  0  0  0  0  0  0  0  0
   -4.8213   -1.9267    0.4906 C   0  0  0  0  0  0  0  0  0  0  0  0
   -5.3798   -0.6322    0.3804 C   0  0  0  0  0  0  0  0  0  0  0  0
   -4.5422    0.4482    0.1458 C   0  0  0  0  0  0  0  0  0  0  0  0
   -0.8847   -1.4058   -0.0143 S   0  0  0  0  0  1  0  0  0  0  0  0
    4.5240   -1.6081    1.6566 H   0  0  0  0  0  0  0  0  0  0  0  0
    4.7650   -3.4188   -0.0841 H   0  0  0  0  0  0  0  0  0  0  0  0
    3.0496   -3.5394   -1.9533 H   0  0  0  0  0  0  0  0  0  0  0  0
    1.1587   -1.8791   -1.9615 H   0  0  0  0  0  0  0  0  0  0  0  0
    1.5301    0.3674    2.1089 H   0  0  0  0  0  0  0  0  0  0  0  0
    3.2501    0.2233    2.5834 H   0  0  0  0  0  0  0  0  0  0  0  0
    2.7237    2.5550    1.7426 H   0  0  0  0  0  0  0  0  0  0  0  0
    3.9441    1.7437    0.7068 H   0  0  0  0  0  0  0  0  0  0  0  0
    0.5091    3.2161    1.1727 H   0  0  0  0  0  0  0  0  0  0  0  0
    1.0695    4.2908   -0.1769 H   0  0  0  0  0  0  0  0  0  0  0  0
   -1.3961    3.7110   -0.4285 H   0  0  0  0  0  0  0  0  0  0  0  0
   -0.4257    3.0577   -1.7791 H   0  0  0  0  0  0  0  0  0  0  0  0
   -2.9547    2.3847   -0.3122 H   0  0  0  0  0  0  0  0  0  0  0  0
   -3.0230   -3.1355    0.4566 H   0  0  0  0  0  0  0  0  0  0  0  0
   -5.4749   -2.7923    0.6764 H   0  0  0  0  0  0  0  0  0  0  0  0
   -6.4645   -0.4849    0.4795 H   0  0  0  0  0  0  0  0  0  0  0  0
   -4.9608    1.4628    0.0567 H   0  0  0  0  0  0  0  0  0  0  0  0
  1  2  1  0  0  0  0
  2  3  1  0  0  0  0
  2  7  1  6  0  0  0
  3 21  1  0  0  0  0
  4 22  1  0  0  0  0
  4  3  2  0  0  0  0
  5  4  1  0  0  0  0
  6  5  2  0  0  0  0
  6  1  1  0  0  0  0
  7 25  1  0  0  0  0
  7 26  1  0  0  0  0
  8  7  1  0  0  0  0
  8 27  1  0  0  0  0
  9 10  1  0  0  0  0
  9  8  1  0  0  0  0
 10 29  1  0  0  0  0
 11 31  1  0  0  0  0
 11 12  1  0  0  0  0
 11 10  1  0  0  0  0
 12 13  1  0  0  0  0
 13 14  2  0  0  0  0
 14 15  1  0  0  0  0
 14 19  1  0  0  0  0
 15 20  1  1  0  0  0
 15 16  1  0  0  0  0
 16 34  1  0  0  0  0
 16 17  2  0  0  0  0
 17 35  1  0  0  0  0
 18 36  1  0  0  0  0
 18 17  1  0  0  0  0
 19 18  2  0  0  0  0
 23  5  1  0  0  0  0
 24  6  1  0  0  0  0
 28  8  1  0  0  0  0
 30 10  1  0  0  0  0
 32 11  1  0  0  0  0
 33 13  1  0  0  0  0
 37 19  1  0  0  0  0
M  END
