1,2,4,5
q = -1.0

 47 47  0  0  0  0  0  0  0  0999 V2000
   -0.2875    2.4668   -0.9992 S   0  0  0  0  0  1  0  0  0  0  0  0
   -3.0185    0.6415   -0.8883 S   0  0  0  0  0  1  0  0  0  0  0  0
   -2.8102   -2.8732    1.0216 O   0  0  0  0  0  0  0  0  0  0  0  0
   -1.3588   -1.1615    0.4909 N   0  0  0  0  0  2  0  0  0  0  0  0
    0.9106    0.2012    0.3850 N   0  0  0  0  0  0  0  0  0  0  0  0
   -3.6485   -1.0159   -0.3174 C   0  0  0  0  0  0  0  0  0  0  0  0
   -2.5613   -1.7783    0.4725 C   0  0  0  0  0  0  0  0  0  0  0  0
   -0.2794   -1.7863    1.2290 C   0  0  0  0  0  0  0  0  0  0  0  0
    0.2075   -2.6081    0.6421 H   0  0  0  0  0  0  0  0  0  0  0  0
   -0.6520   -2.2793    2.1552 H   0  0  0  0  0  0  0  0  0  0  0  0
    0.7244   -0.6877    1.5630 C   0  0  0  0  0  0  0  0  0  0  0  0
    0.3073   -0.0477    2.3648 H   0  0  0  0  0  0  0  0  0  0  0  0
    1.6991   -1.0940    1.9254 H   0  0  0  0  0  0  0  0  0  0  0  0
    1.5910    1.4890    0.7270 C   0  0  0  0  0  0  0  0  0  0  0  0
    2.4534    1.6331    0.0493 H   0  0  0  0  0  0  0  0  0  0  0  0
    2.0117    1.4145    1.7561 H   0  0  0  0  0  0  0  0  0  0  0  0
    0.6580    2.7069    0.5856 C   0  0  0  0  0  0  0  0  0  0  0  0
    1.5024    3.9833    0.4944 C   0  0  0  0  0  0  0  0  0  0  0  0
    2.1116    4.1403    1.4137 H   0  0  0  0  0  0  0  0  0  0  0  0
    0.8413    4.8636    0.3631 H   0  0  0  0  0  0  0  0  0  0  0  0
    2.1848    3.9399   -0.3796 H   0  0  0  0  0  0  0  0  0  0  0  0
   -0.3202    2.8048    1.7664 C   0  0  0  0  0  0  0  0  0  0  0  0
   -0.9583    1.8969    1.8082 H   0  0  0  0  0  0  0  0  0  0  0  0
   -1.0040    3.6638    1.6173 H   0  0  0  0  0  0  0  0  0  0  0  0
    0.2184    2.9330    2.7353 H   0  0  0  0  0  0  0  0  0  0  0  0
   -4.8584   -0.8121    0.6044 C   0  0  0  0  0  0  0  0  0  0  0  0
   -5.1854   -1.7935    1.0119 H   0  0  0  0  0  0  0  0  0  0  0  0
   -5.6993   -0.3405    0.0539 H   0  0  0  0  0  0  0  0  0  0  0  0
   -4.5858   -0.1473    1.4482 H   0  0  0  0  0  0  0  0  0  0  0  0
   -4.0362   -1.8748   -1.5313 C   0  0  0  0  0  0  0  0  0  0  0  0
   -3.1652   -1.9925   -2.2065 H   0  0  0  0  0  0  0  0  0  0  0  0
   -4.8540   -1.3943   -2.1078 H   0  0  0  0  0  0  0  0  0  0  0  0
   -4.3665   -2.8817   -1.1926 H   0  0  0  0  0  0  0  0  0  0  0  0
    1.5539   -0.4743   -0.7916 C   0  0  0  0  0  0  0  0  0  0  0  0
    1.4929    0.2750   -1.6063 H   0  0  0  0  0  0  0  0  0  0  0  0
    0.8955   -1.3186   -1.0727 H   0  0  0  0  0  0  0  0  0  0  0  0
    2.9771   -0.9485   -0.5908 C   0  0  0  0  0  0  0  0  0  0  0  0
    3.2561   -2.1985    0.0063 C   0  0  0  0  0  0  0  0  0  0  0  0
    2.4168   -2.8490    0.2992 H   0  0  0  0  0  0  0  0  0  0  0  0
    4.5758   -2.6251    0.2134 C   0  0  0  0  0  0  0  0  0  0  0  0
    4.7663   -3.6045    0.6801 H   0  0  0  0  0  0  0  0  0  0  0  0
    5.6522   -1.8116   -0.1795 C   0  0  0  0  0  0  0  0  0  0  0  0
    6.6890   -2.1450   -0.0165 H   0  0  0  0  0  0  0  0  0  0  0  0
    5.3933   -0.5755   -0.7946 C   0  0  0  0  0  0  0  0  0  0  0  0
    6.2286    0.0623   -1.1247 H   0  0  0  0  0  0  0  0  0  0  0  0
    4.0714   -0.1536   -0.9990 C   0  0  0  0  0  0  0  0  0  0  0  0
    3.8739    0.8067   -1.5020 H   0  0  0  0  0  0  0  0  0  0  0  0
  1 17  1  0  0  0  0
  2  6  1  0  0  0  0
  4  8  1  0  0  0  0
  5 14  1  0  0  0  0
  5 11  1  0  0  0  0
  6  7  1  0  0  0  0
  6 26  1  0  0  0  0
  7  4  1  0  0  0  0
  7  3  2  0  0  0  0
  8 11  1  0  0  0  0
  8 10  1  0  0  0  0
  9  8  1  0  0  0  0
 11 13  1  0  0  0  0
 11 12  1  0  0  0  0
 14 16  1  0  0  0  0
 15 14  1  0  0  0  0
 17 14  1  0  0  0  0
 17 22  1  0  0  0  0
 18 17  1  0  0  0  0
 18 19  1  0  0  0  0
 20 18  1  0  0  0  0
 21 18  1  0  0  0  0
 22 23  1  0  0  0  0
 22 25  1  0  0  0  0
 24 22  1  0  0  0  0
 26 27  1  0  0  0  0
 26 29  1  0  0  0  0
 28 26  1  0  0  0  0
 30 33  1  0  0  0  0
 30  6  1  0  0  0  0
 31 30  1  0  0  0  0
 32 30  1  0  0  0  0
 34 37  1  0  0  0  0
 34  5  1  0  0  0  0
 35 34  1  0  0  0  0
 36 34  1  0  0  0  0
 37 38  1  0  0  0  0
 38 40  2  0  0  0  0
 38 39  1  0  0  0  0
 40 41  1  0  0  0  0
 42 43  1  0  0  0  0
 42 40  1  0  0  0  0
 44 42  2  0  0  0  0
 45 44  1  0  0  0  0
 46 44  1  0  0  0  0
 46 37  2  0  0  0  0
 47 46  1  0  0  0  0
M  END
