1,2,5,6
q = -2.0, confidence = 0.586

 35 34  0  0  0  0  0  0  0  0999 V2000
    1.7838   -1.2706   -1.0781 S   0  0  0  0  0  1  0  0  0  0  0  0
   -1.2077   -1.7331    0.3729 S   0  0  0  0  0  1  0  0  0  0  0  0
    2.0976    2.4913    1.3406 O   0  0  0  0  0  0  0  0  0  0  0  0
   -2.5483    2.8591   -0.4934 O   0  0  0  0  0  0  0  0  0  0  0  0
    0.6527    1.2807    0.0349 N   0  0  0  0  0  2  0  0  0  0  0  0
   -1.6634    0.7319   -0.8245 N   0  0  0  0  0  2  0  0  0  0  0  0
   -0.1529    2.4665   -0.2306 C   0  0  0  0  0  0  0  0  0  0  0  0
   -1.5989    2.0570   -0.5305 C   0  0  0  0  0  0  0  0  0  0  0  0
    1.7025    1.3965    0.8925 C   0  0  0  0  0  0  0  0  0  0  0  0
    2.3944    0.0897    1.2792 C   0  0  0  0  0  0  0  0  0  0  0  0
    3.0821   -0.6415    0.1123 C   0  0  0  0  0  0  0  0  0  0  0  0
    4.0187    0.2979   -0.6599 C   0  0  0  0  0  0  0  0  0  0  0  0
    3.8528   -1.8572    0.6436 C   0  0  0  0  0  0  0  0  0  0  0  0
   -2.9375    0.0460   -0.7740 C   0  0  0  0  0  0  0  0  0  0  0  0
   -2.9204   -0.9272    0.4178 C   0  0  0  0  0  0  0  0  0  0  0  0
   -3.9722   -2.0289    0.2927 C   0  0  0  0  0  0  0  0  0  0  0  0
   -3.0397   -0.1803    1.7499 C   0  0  0  0  0  0  0  0  0  0  0  0
   -0.1335    3.1607    0.6357 H   0  0  0  0  0  0  0  0  0  0  0  0
    0.2500    3.0463   -1.0951 H   0  0  0  0  0  0  0  0  0  0  0  0
    3.1547    0.3611    2.0422 H   0  0  0  0  0  0  0  0  0  0  0  0
    1.6589   -0.6026    1.7418 H   0  0  0  0  0  0  0  0  0  0  0  0
    4.5105   -0.2404   -1.4956 H   0  0  0  0  0  0  0  0  0  0  0  0
    4.8063    0.7062    0.0123 H   0  0  0  0  0  0  0  0  0  0  0  0
    3.4539    1.1503   -1.0846 H   0  0  0  0  0  0  0  0  0  0  0  0
    3.1747   -2.5392    1.1946 H   0  0  0  0  0  0  0  0  0  0  0  0
    4.6664   -1.5364    1.3330 H   0  0  0  0  0  0  0  0  0  0  0  0
    4.3075   -2.4317   -0.1896 H   0  0  0  0  0  0  0  0  0  0  0  0
   -3.7544    0.7969   -0.6711 H   0  0  0  0  0  0  0  0  0  0  0  0
   -3.1105   -0.5365   -1.7086 H   0  0  0  0  0  0  0  0  0  0  0  0
   -3.8593   -2.5802   -0.6632 H   0  0  0  0  0  0  0  0  0  0  0  0
   -4.9953   -1.5930    0.3248 H   0  0  0  0  0  0  0  0  0  0  0  0
   -3.8877   -2.7604    1.1231 H   0  0  0  0  0  0  0  0  0  0  0  0
   -2.9065   -0.8732    2.6056 H   0  0  0  0  0  0  0  0  0  0  0  0
   -4.0337    0.3107    1.8379 H   0  0  0  0  0  0  0  0  0  0  0  0
   -2.2600    0.6032    1.8172 H   0  0  0  0  0  0  0  0  0  0  0  0
  1 11  1  0  0  0  0
  2 15  1  0  0  0  0
  5  9  1  0  0  0  0
  6 14  1  0  0  0  0
  6  8  1  0  0  0  0
  7  5  1  0  0  0  0
  7 18  1  0  0  0  0
  8  4  2  0  0  0  0
  8  7  1  0  0  0  0
  9 10  1  0  0  0  0
  9  3  2  0  0  0  0
 10 21  1  0  0  0  0
 10 20  1  0  0  0  0
 11 13  1  0  0  0  0
 11 10  1  0  0  0  0
 12 23  1  0  0  0  0
 12 11  1  0  0  0  0
 13 25  1  0  0  0  0
 13 26  1  0  0  0  0
 14 28  1  0  0  0  0
 14 15  1  0  0  0  0
 15 17  1  0  0  0  0
 16 31  1  0  0  0  0
 16 15  1  0  0  0  0
 16 32  1  0  0  0  0
 17 35  1  0  0  0  0
 17 34  1  0  0  0  0
 17 33  1  0  0  0  0
 19  7  1  0  0  0  0
 22 12  1  0  0  0  0
 24 12  1  0  0  0  0
 27 13  1  0  0  0  0
 29 14  1  0  0  0  0
 30 16  1  0  0  0  0
M  END
