1,2,3,4
q = -1.0

 43 45  0  0  0  0  0  0  0  0999 V2000
   -0.7652    0.2540    1.9985 S   0  0  0  0  0  0  0  0  0  0  0  0
   -0.9576   -2.5875   -0.0233 S   0  0  0  0  0  0  0  0  0  0  0  0
   -2.6421   -0.2100   -0.4131 N   0  0  0  0  0  2  0  0  0  0  0  0
   -0.7391    1.7753   -0.5565 N   0  0  0  0  0  0  0  0  0  0  0  0
   -0.1396    1.9633   -1.3798 H   0  0  0  0  0  0  0  0  0  0  0  0
   -2.5180    0.4214    2.5501 C   0  0  0  0  0  0  0  0  0  0  0  0
   -3.0892    1.0478    1.8424 H   0  0  0  0  0  0  0  0  0  0  0  0
   -2.5174    0.8583    3.5662 H   0  0  0  0  0  0  0  0  0  0  0  0
   -2.9434   -0.5994    2.5701 H   0  0  0  0  0  0  0  0  0  0  0  0
   -0.4212   -3.1999    1.6193 C   0  0  0  0  0  0  0  0  0  0  0  0
    0.6841   -3.1451    1.6191 H   0  0  0  0  0  0  0  0  0  0  0  0
   -0.7483   -4.2472    1.7591 H   0  0  0  0  0  0  0  0  0  0  0  0
   -0.8207   -2.5519    2.4219 H   0  0  0  0  0  0  0  0  0  0  0  0
   -0.2512    2.5598    0.5701 C   0  0  0  0  0  0  0  0  0  0  0  0
   -0.3458    2.0120    1.8642 C   0  0  0  0  0  0  0  0  0  0  0  0
    0.0656    2.7520    2.9827 C   0  0  0  0  0  0  0  0  0  0  0  0
    0.0026    2.2983    3.9838 H   0  0  0  0  0  0  0  0  0  0  0  0
    0.6028    4.0381    2.8089 C   0  0  0  0  0  0  0  0  0  0  0  0
    0.9382    4.6151    3.6835 H   0  0  0  0  0  0  0  0  0  0  0  0
    0.7495    4.5633    1.5160 C   0  0  0  0  0  0  0  0  0  0  0  0
    1.2130    5.5501    1.3694 H   0  0  0  0  0  0  0  0  0  0  0  0
    0.3194    3.8300    0.3991 C   0  0  0  0  0  0  0  0  0  0  0  0
    0.4574    4.2310   -0.6154 H   0  0  0  0  0  0  0  0  0  0  0  0
   -3.4081   -1.2924   -0.0440 C   0  0  0  0  0  0  0  0  0  0  0  0
   -2.7493   -2.5415    0.2007 C   0  0  0  0  0  0  0  0  0  0  0  0
   -3.4470   -3.6998    0.5665 C   0  0  0  0  0  0  0  0  0  0  0  0
   -2.8954   -4.6449    0.6903 H   0  0  0  0  0  0  0  0  0  0  0  0
   -4.8307   -3.6572    0.7877 C   0  0  0  0  0  0  0  0  0  0  0  0
   -5.3771   -4.5638    1.0843 H   0  0  0  0  0  0  0  0  0  0  0  0
   -5.4934   -2.4258    0.6384 C   0  0  0  0  0  0  0  0  0  0  0  0
   -6.5724   -2.3552    0.8467 H   0  0  0  0  0  0  0  0  0  0  0  0
   -4.8099   -1.2753    0.2344 C   0  0  0  0  0  0  0  0  0  0  0  0
   -5.3578   -0.3278    0.1727 H   0  0  0  0  0  0  0  0  0  0  0  0
   -3.0803    0.9963   -0.9111 C   0  0  0  0  0  0  0  0  0  0  0  0
   -2.1392    2.0724   -0.9410 C   0  0  0  0  0  0  0  0  0  0  0  0
   -2.4859    3.3476   -1.3967 C   0  0  0  0  0  0  0  0  0  0  0  0
   -1.7307    4.1470   -1.3897 H   0  0  0  0  0  0  0  0  0  0  0  0
   -3.7761    3.6078   -1.8812 C   0  0  0  0  0  0  0  0  0  0  0  0
   -4.0433    4.6113   -2.2416 H   0  0  0  0  0  0  0  0  0  0  0  0
   -4.6980    2.5486   -1.9334 C   0  0  0  0  0  0  0  0  0  0  0  0
   -5.6984    2.7124   -2.3632 H   0  0  0  0  0  0  0  0  0  0  0  0
   -4.3634    1.2738   -1.4686 C   0  0  0  0  0  0  0  0  0  0  0  0
   -5.0845    0.4570   -1.5858 H   0  0  0  0  0  0  0  0  0  0  0  0
  1  6  1  0  0  0  0
  2 25  1  0  0  0  0
  2 10  1  0  0  0  0
  3 24  1  0  0  0  0
  4 14  1  0  0  0  0
  5  4  1  0  0  0  0
  6  9  1  0  0  0  0
  6  8  1  0  0  0  0
  7  6  1  0  0  0  0
 10 12  1  0  0  0  0
 10 13  1  0  0  0  0
 11 10  1  0  0  0  0
 14 15  1  0  0  0  0
 15  1  1  0  0  0  0
 15 16  2  0  0  0  0
 16 17  1  0  0  0  0
 18 16  1  0  0  0  0
 18 19  1  0  0  0  0
 20 18  2  0  0  0  0
 21 20  1  0  0  0  0
 22 14  2  0  0  0  0
 22 20  1  0  0  0  0
 23 22  1  0  0  0  0
 24 25  2  0  0  0  0
 24 32  1  0  0  0  0
 25 26  1  0  0  0  0
 26 27  1  0  0  0  0
 26 28  2  0  0  0  0
 28 29  1  0  0  0  0
 30 28  1  0  0  0  0
 30 31  1  0  0  0  0
 32 30  2  0  0  0  0
 33 32  1  0  0  0  0
 34  3  1  0  0  0  0
 35 34  1  0  0  0  0
 35  4  1  0  0  0  0
 36 37  1  0  0  0  0
 36 35  2  0  0  0  0
 38 36  1  0  0  0  0
 39 38  1  0  0  0  0
 40 38  2  0  0  0  0
 40 42  1  0  0  0  0
 41 40  1  0  0  0  0
 42 34  2  0  0  0  0
 43 42  1  0  0  0  0
M  END
