1,2,3,4
q = 0.0, confidence = 0.59

 30 31  0  0  0  0  0  0  0  0999 V2000
   -1.5762   -0.3506   -2.1756 S   0  0  0  0  0  1  0  0  0  0  0  0
    1.7297   -0.3267   -2.2292 S   0  0  0  0  0  1  0  0  0  0  0  0
   -1.0986   -2.0590   -0.0021 N   0  0  0  0  0  2  0  0  0  0  0  0
    1.4065   -1.9025    0.0591 N   0  0  0  0  0  2  0  0  0  0  0  0
   -2.4399   -2.0362   -0.2517 C   0  0  0  0  0  0  0  0  0  0  0  0
   -3.4327   -2.8024    0.4275 C   0  0  0  0  0  0  0  0  0  0  0  0
   -4.7765   -2.6375    0.1065 C   0  0  0  0  0  0  0  0  0  0  0  0
   -5.1788   -1.7293   -0.9063 C   0  0  0  0  0  0  0  0  0  0  0  0
   -4.2252   -0.9979   -1.6124 C   0  0  0  0  0  0  0  0  0  0  0  0
   -2.8530   -1.1473   -1.3097 C   0  0  0  0  0  0  0  0  0  0  0  0
    2.7332   -1.8666   -0.2488 C   0  0  0  0  0  0  0  0  0  0  0  0
    3.7902   -2.4828    0.4860 C   0  0  0  0  0  0  0  0  0  0  0  0
    5.1049   -2.3583    0.0489 C   0  0  0  0  0  0  0  0  0  0  0  0
    5.4196   -1.6209   -1.1226 C   0  0  0  0  0  0  0  0  0  0  0  0
    4.4081   -0.9966   -1.8511 C   0  0  0  0  0  0  0  0  0  0  0  0
    3.0635   -1.1021   -1.4274 C   0  0  0  0  0  0  0  0  0  0  0  0
   -0.5390   -3.0079    0.9580 C   0  0  0  0  0  0  0  0  0  0  0  0
    0.9098   -2.5937    1.2405 C   0  0  0  0  0  0  0  0  0  0  0  0
   -3.1401   -3.5107    1.2153 H   0  0  0  0  0  0  0  0  0  0  0  0
   -5.5380   -3.2199    0.6474 H   0  0  0  0  0  0  0  0  0  0  0  0
   -6.2471   -1.6103   -1.1415 H   0  0  0  0  0  0  0  0  0  0  0  0
   -4.5206   -0.3018   -2.4118 H   0  0  0  0  0  0  0  0  0  0  0  0
    3.5687   -3.0421    1.4058 H   0  0  0  0  0  0  0  0  0  0  0  0
    5.9136   -2.8337    0.6247 H   0  0  0  0  0  0  0  0  0  0  0  0
    6.4661   -1.5366   -1.4517 H   0  0  0  0  0  0  0  0  0  0  0  0
    4.6370   -0.4103   -2.7539 H   0  0  0  0  0  0  0  0  0  0  0  0
   -0.5698   -4.0343    0.5268 H   0  0  0  0  0  0  0  0  0  0  0  0
   -1.1320   -3.0412    1.9010 H   0  0  0  0  0  0  0  0  0  0  0  0
    0.9548   -1.8943    2.1095 H   0  0  0  0  0  0  0  0  0  0  0  0
    1.5232   -3.4810    1.5053 H   0  0  0  0  0  0  0  0  0  0  0  0
  1 10  1  0  0  0  0
  2 16  1  0  0  0  0
  3 17  1  0  0  0  0
  4 18  1  0  0  0  0
  5  3  1  0  0  0  0
  5  6  1  0  0  0  0
  6 19  1  0  0  0  0
  7  6  2  0  0  0  0
  7 20  1  0  0  0  0
  8  7  1  0  0  0  0
  9 10  1  0  0  0  0
  9  8  2  0  0  0  0
 10  5  2  0  0  0  0
 11  4  1  0  0  0  0
 11 12  1  0  0  0  0
 12 23  1  0  0  0  0
 13 12  2  0  0  0  0
 13 24  1  0  0  0  0
 14 13  1  0  0  0  0
 15 16  1  0  0  0  0
 15 14  2  0  0  0  0
 16 11  2  0  0  0  0
 17 18  1  0  0  0  0
 17 28  1  0  0  0  0
 18 30  1  0  0  0  0
 18 29  1  0  0  0  0
 21  8  1  0  0  0  0
 22  9  1  0  0  0  0
 25 14  1  0  0  0  0
 26 15  1  0  0  0  0
 27 17  1  0  0  0  0
M  END
