1,4,8,11
q = 0.0, confidence = 0.998

 36 36  0  0  0  0  0  0  0  0999 V2000
   -1.5655   -1.6939    0.4031 S   0  0  0  0  0  0  0  0  0  0  0  0
   -0.5466   -2.8156   -0.6672 C   0  0  0  0  0  0  0  0  0  0  0  0
    0.7982   -3.0827   -0.0033 C   0  0  0  0  0  0  0  0  0  0  0  0
    1.7046   -1.5516    0.5432 S   0  0  0  0  0  0  0  0  0  0  0  0
    2.6903   -1.0398   -0.9263 C   0  0  0  0  0  0  0  0  0  0  0  0
    3.3120    0.3472   -0.6905 C   0  0  0  0  0  0  0  0  0  0  0  0
    2.4217    1.5928   -0.8234 C   0  0  0  0  0  0  0  0  0  0  0  0
    1.4668    1.7643    0.3013 N   0  0  0  0  0  0  0  0  0  0  0  0
    0.6900    3.0403    0.3065 C   0  0  0  0  0  0  0  0  0  0  0  0
   -0.6294    2.8989   -0.4446 C   0  0  0  0  0  0  0  0  0  0  0  0
   -1.4393    1.7770    0.1082 N   0  0  0  0  0  0  0  0  0  0  0  0
   -2.6218    1.4777   -0.7382 C   0  0  0  0  0  0  0  0  0  0  0  0
   -3.4282    0.2395   -0.3276 C   0  0  0  0  0  0  0  0  0  0  0  0
   -2.8649   -1.1217   -0.7637 C   0  0  0  0  0  0  0  0  0  0  0  0
   -0.4290   -2.2940   -1.6379 H   0  0  0  0  0  0  0  0  0  0  0  0
   -1.1005   -3.7661   -0.8080 H   0  0  0  0  0  0  0  0  0  0  0  0
    0.6875   -3.6695    0.9308 H   0  0  0  0  0  0  0  0  0  0  0  0
    1.4682   -3.6509   -0.6794 H   0  0  0  0  0  0  0  0  0  0  0  0
    2.0130   -1.0382   -1.8031 H   0  0  0  0  0  0  0  0  0  0  0  0
    3.4877   -1.7988   -1.0534 H   0  0  0  0  0  0  0  0  0  0  0  0
    4.1141    0.4580   -1.4499 H   0  0  0  0  0  0  0  0  0  0  0  0
    3.8419    0.3611    0.2886 H   0  0  0  0  0  0  0  0  0  0  0  0
    1.8336    1.5477   -1.7608 H   0  0  0  0  0  0  0  0  0  0  0  0
    3.0795    2.4883   -0.8706 H   0  0  0  0  0  0  0  0  0  0  0  0
    1.9923    1.7155    1.1858 H   0  0  0  0  0  0  0  0  0  0  0  0
    0.4970    3.2986    1.3672 H   0  0  0  0  0  0  0  0  0  0  0  0
    1.2860    3.8682   -0.1333 H   0  0  0  0  0  0  0  0  0  0  0  0
   -0.4439    2.6617   -1.5107 H   0  0  0  0  0  0  0  0  0  0  0  0
   -1.1930    3.8565   -0.4062 H   0  0  0  0  0  0  0  0  0  0  0  0
   -1.7492    2.0129    1.0646 H   0  0  0  0  0  0  0  0  0  0  0  0
   -3.2923    2.3651   -0.7357 H   0  0  0  0  0  0  0  0  0  0  0  0
   -2.2475    1.3521   -1.7737 H   0  0  0  0  0  0  0  0  0  0  0  0
   -4.4223    0.3370   -0.8112 H   0  0  0  0  0  0  0  0  0  0  0  0
   -3.6376    0.2461    0.7649 H   0  0  0  0  0  0  0  0  0  0  0  0
   -3.6586   -1.8947   -0.7684 H   0  0  0  0  0  0  0  0  0  0  0  0
   -2.4033   -1.0626   -1.7700 H   0  0  0  0  0  0  0  0  0  0  0  0
  2  3  1  0  0  0  0
  2  1  1  0  0  0  0
  3  4  1  0  0  0  0
  3 17  1  0  0  0  0
  5  6  1  0  0  0  0
  5  4  1  0  0  0  0
  6 22  1  0  0  0  0
  7  6  1  0  0  0  0
  7  8  1  0  0  0  0
  8  9  1  0  0  0  0
  8 25  1  0  0  0  0
  9 26  1  0  0  0  0
 10 29  1  0  0  0  0
 10 11  1  0  0  0  0
 10  9  1  0  0  0  0
 11 30  1  0  0  0  0
 12 31  1  0  0  0  0
 12 13  1  0  0  0  0
 12 11  1  0  0  0  0
 13 34  1  0  0  0  0
 14 13  1  0  0  0  0
 14  1  1  0  0  0  0
 15  2  1  0  0  0  0
 16  2  1  0  0  0  0
 18  3  1  0  0  0  0
 19  5  1  0  0  0  0
 20  5  1  0  0  0  0
 21  6  1  0  0  0  0
 23  7  1  0  0  0  0
 24  7  1  0  0  0  0
 27  9  1  0  0  0  0
 28 10  1  0  0  0  0
 32 12  1  0  0  0  0
 33 13  1  0  0  0  0
 35 14  1  0  0  0  0
 36 14  1  0  0  0  0
M  END
