1,2,3,4
q = -2.0, confidence = 0.754

 34 33  0  0  1  0  0  0  0  0999 V2000
    1.4883   -1.7772    0.0465 S   0  0  0  0  0  1  0  0  0  0  0  0
   -1.3542   -1.7208   -0.5463 S   0  0  0  0  0  1  0  0  0  0  0  0
    1.3626    1.2776    0.1049 N   0  0  0  0  0  2  0  0  0  0  0  0
   -1.3017    1.3213   -0.1824 N   0  0  0  0  0  2  0  0  0  0  0  0
    3.0357   -1.2016   -0.3988 C   0  0  1  0  0  3  0  0  0  0  0  0
    3.4176    0.1286   -0.5166 C   0  0  0  0  0  0  0  0  0  0  0  0
    2.6451    1.2964   -0.2401 C   0  0  0  0  0  0  0  0  0  0  0  0
    0.6838    2.4973    0.5115 C   0  0  0  0  0  0  0  0  0  0  0  0
   -0.6067    2.6020   -0.2817 C   0  0  0  0  0  0  0  0  0  0  0  0
   -2.6238    1.2971   -0.2596 C   0  0  0  0  0  0  0  0  0  0  0  0
   -3.4124    0.1012   -0.2343 C   0  0  0  0  0  0  0  0  0  0  0  0
   -2.9868   -1.2067   -0.4025 C   0  0  1  0  0  3  0  0  0  0  0  0
   -4.0036   -2.3172   -0.5255 C   0  0  0  0  0  0  0  0  0  0  0  0
    4.0480   -2.2918   -0.6710 C   0  0  0  0  0  0  0  0  0  0  0  0
    3.3951    2.6139   -0.3399 C   0  0  0  0  0  0  0  0  0  0  0  0
   -3.4042    2.5874   -0.4323 C   0  0  0  0  0  0  0  0  0  0  0  0
    4.4583    0.3126   -0.8228 H   0  0  0  0  0  0  0  0  0  0  0  0
    0.4331    2.4107    1.5944 H   0  0  0  0  0  0  0  0  0  0  0  0
    1.2903    3.4141    0.3762 H   0  0  0  0  0  0  0  0  0  0  0  0
   -0.3705    2.8260   -1.3489 H   0  0  0  0  0  0  0  0  0  0  0  0
   -1.2135    3.4463    0.1038 H   0  0  0  0  0  0  0  0  0  0  0  0
   -4.5012    0.2590   -0.1970 H   0  0  0  0  0  0  0  0  0  0  0  0
   -3.7834   -2.9568   -1.4045 H   0  0  0  0  0  0  0  0  0  0  0  0
   -3.9620   -2.9795    0.3645 H   0  0  0  0  0  0  0  0  0  0  0  0
   -5.0328   -1.9198   -0.6220 H   0  0  0  0  0  0  0  0  0  0  0  0
    4.1142   -2.9912    0.1871 H   0  0  0  0  0  0  0  0  0  0  0  0
    3.7443   -2.8969   -1.5504 H   0  0  0  0  0  0  0  0  0  0  0  0
    5.0538   -1.8702   -0.8627 H   0  0  0  0  0  0  0  0  0  0  0  0
    4.4229    2.4439   -0.7063 H   0  0  0  0  0  0  0  0  0  0  0  0
    2.8987    3.3221   -1.0344 H   0  0  0  0  0  0  0  0  0  0  0  0
    3.4689    3.1170    0.6469 H   0  0  0  0  0  0  0  0  0  0  0  0
   -4.4877    2.3840   -0.4969 H   0  0  0  0  0  0  0  0  0  0  0  0
   -3.2381    3.2866    0.4142 H   0  0  0  0  0  0  0  0  0  0  0  0
   -3.1015    3.1208   -1.3571 H   0  0  0  0  0  0  0  0  0  0  0  0
  3  8  1  0  0  0  0
  5  1  1  1  0  0  0
  6  5  1  0  0  0  0
  6  7  2  0  0  0  0
  7  3  1  0  0  0  0
  8 18  1  0  0  0  0
  9  4  1  0  0  0  0
  9 21  1  0  0  0  0
  9  8  1  0  0  0  0
 10 11  2  0  0  0  0
 10  4  1  0  0  0  0
 11 22  1  0  0  0  0
 12  2  1  6  0  0  0
 12 11  1  0  0  0  0
 13 12  1  0  0  0  0
 13 24  1  0  0  0  0
 14  5  1  0  0  0  0
 14 26  1  0  0  0  0
 15  7  1  0  0  0  0
 15 31  1  0  0  0  0
 16 10  1  0  0  0  0
 16 33  1  0  0  0  0
 17  6  1  0  0  0  0
 19  8  1  0  0  0  0
 20  9  1  0  0  0  0
 23 13  1  0  0  0  0
 25 13  1  0  0  0  0
 27 14  1  0  0  0  0
 28 14  1  0  0  0  0
 29 15  1  0  0  0  0
 30 15  1  0  0  0  0
 32 16  1  0  0  0  0
 34 16  1  0  0  0  0
M  END
