1,4,10,16
q = -2.0, confidence = 0.722

 24 24  0  0  0  0  0  0  0  0999 V2000
   -1.0506   -1.8867   -0.4862 S   0  0  0  0  0  1  0  0  0  0  0  0
   -2.4698   -0.8200   -0.3708 C   0  0  0  0  0  0  0  0  0  0  0  0
   -2.2410    0.5596   -0.1040 C   0  0  0  0  0  0  0  0  0  0  0  0
   -0.8867    0.9395    0.0679 N   0  0  0  0  0  2  0  0  0  0  0  0
   -0.4748    2.2716    0.0582 C   0  0  0  0  0  0  0  0  0  0  0  0
   -1.1984    3.2684    0.0733 O   0  0  0  0  0  0  0  0  0  0  0  0
    1.0449    2.4146    0.0042 C   0  0  0  0  0  0  0  0  0  0  0  0
    1.3106    3.0835   -0.8427 H   0  0  0  0  0  0  0  0  0  0  0  0
    1.3783    2.9512    0.9226 H   0  0  0  0  0  0  0  0  0  0  0  0
    1.6800    1.1180   -0.1260 N   0  0  0  0  0  2  0  0  0  0  0  0
    2.9736    1.0853   -0.6027 C   0  0  0  0  0  0  0  0  0  0  0  0
    3.6344    2.0965   -0.8585 O   0  0  0  0  0  0  0  0  0  0  0  0
    3.5345   -0.3236   -0.7763 C   0  0  0  0  0  0  0  0  0  0  0  0
    4.2615   -0.5122    0.0426 H   0  0  0  0  0  0  0  0  0  0  0  0
    4.0987   -0.3567   -1.7301 H   0  0  0  0  0  0  0  0  0  0  0  0
    2.2231   -1.6241   -0.7481 S   0  0  0  0  0  1  0  0  0  0  0  0
   -3.7745   -1.2998   -0.5752 C   0  0  0  0  0  0  0  0  0  0  0  0
   -3.9171   -2.3713   -0.7876 H   0  0  0  0  0  0  0  0  0  0  0  0
   -4.8717   -0.4277   -0.5025 C   0  0  0  0  0  0  0  0  0  0  0  0
   -5.8931   -0.8128   -0.6513 H   0  0  0  0  0  0  0  0  0  0  0  0
   -4.6535    0.9330   -0.2340 C   0  0  0  0  0  0  0  0  0  0  0  0
   -5.5064    1.6278   -0.1719 H   0  0  0  0  0  0  0  0  0  0  0  0
   -3.3543    1.4300   -0.0400 C   0  0  0  0  0  0  0  0  0  0  0  0
   -3.1711    2.4921    0.1554 H   0  0  0  0  0  0  0  0  0  0  0  0
  1  2  1  0  0  0  0
  2  3  1  0  0  0  0
  3 23  2  0  0  0  0
  3  4  1  0  0  0  0
  5  4  1  0  0  0  0
  5  6  2  0  0  0  0
  7  5  1  0  0  0  0
  7  9  1  0  0  0  0
  8  7  1  0  0  0  0
 10  7  1  0  0  0  0
 11 10  1  0  0  0  0
 12 11  2  0  0  0  0
 13 16  1  0  0  0  0
 13 11  1  0  0  0  0
 13 14  1  0  0  0  0
 15 13  1  0  0  0  0
 17 19  1  0  0  0  0
 17  2  2  0  0  0  0
 18 17  1  0  0  0  0
 19 21  2  0  0  0  0
 20 19  1  0  0  0  0
 21 22  1  0  0  0  0
 21 23  1  0  0  0  0
 23 24  1  0  0  0  0
M  END
