1,3,5,7
q = -2.0, confidence = 0.86

 56 60  0  0  0  0  0  0  0  0999 V2000
   -1.6365   -3.1116    0.4444 S   0  0  0  0  0  1  0  0  0  0  0  0
   -4.3748   -2.3782    1.2669 S   0  0  0  0  0  0  0  0  0  0  0  0
    1.6366   -3.1116   -0.4445 S   0  0  0  0  0  1  0  0  0  0  0  0
    4.3749   -2.3782   -1.2669 S   0  0  0  0  0  0  0  0  0  0  0  0
   -1.2280   -0.3460    0.3488 N   0  0  0  0  0  2  0  0  0  0  0  0
   -2.5117   -0.5372    0.7147 N   0  0  0  0  0  0  0  0  0  0  0  0
    1.2281   -0.3460   -0.3489 N   0  0  0  0  0  2  0  0  0  0  0  0
    2.5117   -0.5372   -0.7147 N   0  0  0  0  0  0  0  0  0  0  0  0
   -0.7100    0.8641    0.1995 C   0  0  0  0  0  0  0  0  0  0  0  0
   -1.1562    2.2410    0.3202 C   0  0  0  0  0  0  0  0  0  0  0  0
   -2.3503    2.8872    0.6457 C   0  0  0  0  0  0  0  0  0  0  0  0
   -3.2560    2.3153    0.8890 H   0  0  0  0  0  0  0  0  0  0  0  0
   -2.3650    4.3094    0.6468 C   0  0  0  0  0  0  0  0  0  0  0  0
   -3.3042    4.8237    0.9008 H   0  0  0  0  0  0  0  0  0  0  0  0
   -1.2381    5.0764    0.3386 C   0  0  0  0  0  0  0  0  0  0  0  0
   -1.3003    6.1754    0.3539 H   0  0  0  0  0  0  0  0  0  0  0  0
   -0.0000    4.4465   -0.0000 C   0  0  0  0  0  0  0  0  0  0  0  0
    1.2380    5.0764   -0.3386 C   0  0  0  0  0  0  0  0  0  0  0  0
    1.3002    6.1754   -0.3540 H   0  0  0  0  0  0  0  0  0  0  0  0
    2.3649    4.3094   -0.6469 C   0  0  0  0  0  0  0  0  0  0  0  0
    3.3042    4.8237   -0.9009 H   0  0  0  0  0  0  0  0  0  0  0  0
    2.3503    2.8873   -0.6458 C   0  0  0  0  0  0  0  0  0  0  0  0
    3.2560    2.3153   -0.8890 H   0  0  0  0  0  0  0  0  0  0  0  0
    1.1562    2.2410   -0.3203 C   0  0  0  0  0  0  0  0  0  0  0  0
    0.7100    0.8641   -0.1996 C   0  0  0  0  0  0  0  0  0  0  0  0
   -0.0000    3.0312   -0.0000 C   0  0  0  0  0  0  0  0  0  0  0  0
   -2.7884   -1.8315    0.7894 C   0  0  0  0  0  0  0  0  0  0  0  0
   -5.2840   -0.7892    1.5511 C   0  0  0  0  0  0  0  0  0  0  0  0
   -5.9587   -1.0172    2.3991 H   0  0  0  0  0  0  0  0  0  0  0  0
   -4.5145   -0.0655    1.8813 H   0  0  0  0  0  0  0  0  0  0  0  0
   -6.0559   -0.3056    0.3521 C   0  0  0  0  0  0  0  0  0  0  0  0
   -5.4021    0.3515   -0.7126 C   0  0  0  0  0  0  0  0  0  0  0  0
   -4.3128    0.4965   -0.6588 H   0  0  0  0  0  0  0  0  0  0  0  0
   -6.1290    0.7987   -1.8240 C   0  0  0  0  0  0  0  0  0  0  0  0
   -5.6062    1.3116   -2.6458 H   0  0  0  0  0  0  0  0  0  0  0  0
   -7.5174    0.5950   -1.8922 C   0  0  0  0  0  0  0  0  0  0  0  0
   -8.0862    0.9468   -2.7663 H   0  0  0  0  0  0  0  0  0  0  0  0
   -8.1754   -0.0601   -0.8402 C   0  0  0  0  0  0  0  0  0  0  0  0
   -9.2629   -0.2242   -0.8851 H   0  0  0  0  0  0  0  0  0  0  0  0
   -7.4481   -0.5076    0.2730 C   0  0  0  0  0  0  0  0  0  0  0  0
   -7.9689   -1.0206    1.0976 H   0  0  0  0  0  0  0  0  0  0  0  0
    2.7884   -1.8314   -0.7895 C   0  0  0  0  0  0  0  0  0  0  0  0
    5.2841   -0.7891   -1.5511 C   0  0  0  0  0  0  0  0  0  0  0  0
    5.9588   -1.0171   -2.3991 H   0  0  0  0  0  0  0  0  0  0  0  0
    4.5145   -0.0654   -1.8812 H   0  0  0  0  0  0  0  0  0  0  0  0
    6.0559   -0.3055   -0.3520 C   0  0  0  0  0  0  0  0  0  0  0  0
    5.4021    0.3518    0.7125 C   0  0  0  0  0  0  0  0  0  0  0  0
    4.3128    0.4970    0.6586 H   0  0  0  0  0  0  0  0  0  0  0  0
    6.1290    0.7990    1.8240 C   0  0  0  0  0  0  0  0  0  0  0  0
    5.6061    1.3120    2.6457 H   0  0  0  0  0  0  0  0  0  0  0  0
    7.5173    0.5950    1.8924 C   0  0  0  0  0  0  0  0  0  0  0  0
    8.0860    0.9468    2.7666 H   0  0  0  0  0  0  0  0  0  0  0  0
    8.1754   -0.0604    0.8406 C   0  0  0  0  0  0  0  0  0  0  0  0
    9.2628   -0.2247    0.8856 H   0  0  0  0  0  0  0  0  0  0  0  0
    7.4481   -0.5078   -0.2727 C   0  0  0  0  0  0  0  0  0  0  0  0
    7.9688   -1.0209   -1.0972 H   0  0  0  0  0  0  0  0  0  0  0  0
  1 27  1  0  0  0  0
  2 28  1  0  0  0  0
  4 42  1  0  0  0  0
  5  6  1  0  0  0  0
  6 27  2  0  0  0  0
  7 25  1  0  0  0  0
  8  7  1  0  0  0  0
  9 10  1  0  0  0  0
  9  5  1  0  0  0  0
 10 11  1  0  0  0  0
 11 13  2  0  0  0  0
 11 12  1  0  0  0  0
 13 14  1  0  0  0  0
 15 16  1  0  0  0  0
 15 13  1  0  0  0  0
 17 15  2  0  0  0  0
 18 17  1  0  0  0  0
 19 18  1  0  0  0  0
 20 22  1  0  0  0  0
 20 18  2  0  0  0  0
 21 20  1  0  0  0  0
 22 24  2  0  0  0  0
 23 22  1  0  0  0  0
 24 25  1  0  0  0  0
 24 26  1  0  0  0  0
 25  9  2  0  0  0  0
 26 17  1  0  0  0  0
 26 10  2  0  0  0  0
 27  2  1  0  0  0  0
 28 30  1  0  0  0  0
 28 29  1  0  0  0  0
 31 28  1  0  0  0  0
 32 33  1  0  0  0  0
 32 31  2  0  0  0  0
 34 32  1  0  0  0  0
 35 34  1  0  0  0  0
 36 34  2  0  0  0  0
 36 38  1  0  0  0  0
 37 36  1  0  0  0  0
 38 40  2  0  0  0  0
 39 38  1  0  0  0  0
 40 31  1  0  0  0  0
 40 41  1  0  0  0  0
 42  8  2  0  0  0  0
 42  3  1  0  0  0  0
 43  4  1  0  0  0  0
 43 46  1  0  0  0  0
 44 43  1  0  0  0  0
 45 43  1  0  0  0  0
 46 55  2  0  0  0  0
 46 47  1  0  0  0  0
 47 49  2  0  0  0  0
 48 47  1  0  0  0  0
 49 51  1  0  0  0  0
 49 50  1  0  0  0  0
 51 52  1  0  0  0  0
 53 54  1  0  0  0  0
 53 51  2  0  0  0  0
 55 53  1  0  0  0  0
 56 55  1  0  0  0  0
M  END
