1,2,3,4
q = -2.0, confidence = 0.502

 72 77  0  0  1  0  0  0  0  0999 V2000
    0.3080    1.9436   -2.9686 S   0  0  0  0  0  1  0  0  0  0  0  0
    2.5181   -0.3173   -2.7770 S   0  0  0  0  0  1  0  0  0  0  0  0
   -0.6157    0.7810   -0.5861 N   0  0  0  0  0  2  0  0  0  0  0  0
    1.2484   -0.8870   -0.3334 N   0  0  0  0  0  2  0  0  0  0  0  0
   -1.0645    2.5472   -2.0857 C   0  0  0  0  0  0  0  0  0  0  0  0
   -1.8188    3.6728   -2.4870 C   0  0  0  0  0  0  0  0  0  0  0  0
   -1.5198    4.2241   -3.3911 H   0  0  0  0  0  0  0  0  0  0  0  0
   -2.9315    4.0627   -1.7427 C   0  0  0  0  0  0  0  0  0  0  0  0
   -3.5210    4.9369   -2.0561 H   0  0  0  0  0  0  0  0  0  0  0  0
   -3.3169    3.3297   -0.5888 C   0  0  0  0  0  0  0  0  0  0  0  0
   -4.2070    3.6410   -0.0215 H   0  0  0  0  0  0  0  0  0  0  0  0
   -2.5926    2.2203   -0.1677 C   0  0  0  0  0  0  0  0  0  0  0  0
   -2.9124    1.6498    0.7149 H   0  0  0  0  0  0  0  0  0  0  0  0
   -1.4336    1.8163   -0.8979 C   0  0  0  0  0  0  0  0  0  0  0  0
   -0.8955   -0.1542    0.4886 C   0  0  1  0  0  0  0  0  0  0  0  0
   -1.3056    0.3826    1.3744 H   0  0  0  0  0  0  0  0  0  0  0  0
   -2.4683   -2.1053    1.1891 C   0  0  1  0  0  0  0  0  0  0  0  0
   -2.1010   -1.8346    2.2013 H   0  0  0  0  0  0  0  0  0  0  0  0
   -1.8839   -1.2312    0.0940 C   0  0  0  0  0  0  0  0  0  0  0  0
   -2.2563   -1.4967   -1.1779 C   0  0  0  0  0  0  0  0  0  0  0  0
   -1.8597   -0.9091   -2.0208 H   0  0  0  0  0  0  0  0  0  0  0  0
   -3.2534   -2.6007   -1.4333 C   0  0  0  0  0  0  0  0  0  0  0  0
   -2.8275   -3.3435   -2.1453 H   0  0  0  0  0  0  0  0  0  0  0  0
   -4.1553   -2.1904   -1.9427 H   0  0  0  0  0  0  0  0  0  0  0  0
   -3.6420   -3.2962   -0.1166 C   0  0  2  0  0  0  0  0  0  0  0  0
   -4.3535   -4.1310   -0.2885 H   0  0  0  0  0  0  0  0  0  0  0  0
   -4.0309   -2.2417    0.9882 C   0  0  0  0  0  0  0  0  0  0  0  0
   -2.3525   -3.5808    0.7042 C   0  0  0  0  0  0  0  0  0  0  0  0
   -2.5114   -4.3206    1.5097 H   0  0  0  0  0  0  0  0  0  0  0  0
   -1.4355   -3.8425    0.1390 H   0  0  0  0  0  0  0  0  0  0  0  0
   -4.7117   -2.8958    2.1972 C   0  0  0  0  0  0  0  0  0  0  0  0
   -4.7649   -2.1821    3.0457 H   0  0  0  0  0  0  0  0  0  0  0  0
   -4.1901   -3.8035    2.5561 H   0  0  0  0  0  0  0  0  0  0  0  0
   -5.7517   -3.1876    1.9417 H   0  0  0  0  0  0  0  0  0  0  0  0
   -4.8341   -1.0083    0.5815 C   0  0  0  0  0  0  0  0  0  0  0  0
   -4.3752   -0.4497   -0.2548 H   0  0  0  0  0  0  0  0  0  0  0  0
   -4.9303   -0.3096    1.4397 H   0  0  0  0  0  0  0  0  0  0  0  0
   -5.8621   -1.2998    0.2806 H   0  0  0  0  0  0  0  0  0  0  0  0
    3.0623   -1.5590   -1.6896 C   0  0  0  0  0  0  0  0  0  0  0  0
    4.1802   -2.3845   -1.9466 C   0  0  0  0  0  0  0  0  0  0  0  0
    4.7275   -2.2663   -2.8938 H   0  0  0  0  0  0  0  0  0  0  0  0
    4.5792   -3.3250   -0.9983 C   0  0  0  0  0  0  0  0  0  0  0  0
    5.4515   -3.9656   -1.1957 H   0  0  0  0  0  0  0  0  0  0  0  0
    3.8741   -3.4527    0.2281 C   0  0  0  0  0  0  0  0  0  0  0  0
    4.2117   -4.1903    0.9719 H   0  0  0  0  0  0  0  0  0  0  0  0
    2.7686   -2.6584    0.5080 C   0  0  0  0  0  0  0  0  0  0  0  0
    2.2436   -2.7538    1.4676 H   0  0  0  0  0  0  0  0  0  0  0  0
    2.3234   -1.7038   -0.4574 C   0  0  0  0  0  0  0  0  0  0  0  0
    0.4746   -0.7820    0.9013 C   0  0  2  0  0  0  0  0  0  0  0  0
    0.2909   -1.7921    1.3280 H   0  0  0  0  0  0  0  0  0  0  0  0
    1.7053    1.4292    1.6020 C   0  0  1  0  0  0  0  0  0  0  0  0
    1.5558    1.6886    0.5363 H   0  0  0  0  0  0  0  0  0  0  0  0
    1.1833    0.0491    1.9507 C   0  0  0  0  0  0  0  0  0  0  0  0
    1.3549   -0.3721    3.2250 C   0  0  0  0  0  0  0  0  0  0  0  0
    1.0116   -1.3696    3.5501 H   0  0  0  0  0  0  0  0  0  0  0  0
    1.9954    0.5568    4.2300 C   0  0  0  0  0  0  0  0  0  0  0  0
    2.8820    0.0701    4.6962 H   0  0  0  0  0  0  0  0  0  0  0  0
    1.2909    0.7519    5.0711 H   0  0  0  0  0  0  0  0  0  0  0  0
    2.4145    1.8754    3.5536 C   0  0  2  0  0  0  0  0  0  0  0  0
    2.9155    2.5589    4.2713 H   0  0  0  0  0  0  0  0  0  0  0  0
    1.2364    2.4717    2.6936 C   0  0  0  0  0  0  0  0  0  0  0  0
    3.1319    1.5429    2.2165 C   0  0  0  0  0  0  0  0  0  0  0  0
    3.7083    2.3942    1.8122 H   0  0  0  0  0  0  0  0  0  0  0  0
    3.7558    0.6278    2.1817 H   0  0  0  0  0  0  0  0  0  0  0  0
    1.5064    3.9140    2.2471 C   0  0  0  0  0  0  0  0  0  0  0  0
    0.7887    4.2096    1.4539 H   0  0  0  0  0  0  0  0  0  0  0  0
    2.5264    4.0624    1.8450 H   0  0  0  0  0  0  0  0  0  0  0  0
    1.3760    4.6147    3.0983 H   0  0  0  0  0  0  0  0  0  0  0  0
   -0.1893    2.3911    3.2347 C   0  0  0  0  0  0  0  0  0  0  0  0
   -0.3058    3.0548    4.1171 H   0  0  0  0  0  0  0  0  0  0  0  0
   -0.4787    1.3674    3.5389 H   0  0  0  0  0  0  0  0  0  0  0  0
   -0.9128    2.7360    2.4658 H   0  0  0  0  0  0  0  0  0  0  0  0
  1  5  1  0  0  0  0
  2 39  1  0  0  0  0
  3 15  1  0  0  0  0
  4 49  1  0  0  0  0
  5 14  1  0  0  0  0
  6  5  2  0  0  0  0
  6  8  1  0  0  0  0
  7  6  1  0  0  0  0
  8 10  2  0  0  0  0
  9  8  1  0  0  0  0
 10 12  1  0  0  0  0
 10 11  1  0  0  0  0
 12 13  1  0  0  0  0
 14  3  1  0  0  0  0
 14 12  2  0  0  0  0
 15 49  1  0  0  0  0
 15 16  1  1  0  0  0
 17 18  1  1  0  0  0
 19 15  1  0  0  0  0
 19 17  1  0  0  0  0
 20 19  2  0  0  0  0
 21 20  1  0  0  0  0
 22 20  1  0  0  0  0
 22 25  1  0  0  0  0
 23 22  1  0  0  0  0
 24 22  1  0  0  0  0
 25 26  1  6  0  0  0
 25 28  1  0  0  0  0
 25 27  1  0  0  0  0
 27 17  1  0  0  0  0
 27 31  1  0  0  0  0
 28 17  1  0  0  0  0
 28 29  1  0  0  0  0
 30 28  1  0  0  0  0
 31 33  1  0  0  0  0
 31 32  1  0  0  0  0
 34 31  1  0  0  0  0
 35 27  1  0  0  0  0
 35 37  1  0  0  0  0
 36 35  1  0  0  0  0
 38 35  1  0  0  0  0
 39 48  1  0  0  0  0
 40 39  2  0  0  0  0
 40 42  1  0  0  0  0
 41 40  1  0  0  0  0
 42 44  2  0  0  0  0
 43 42  1  0  0  0  0
 44 46  1  0  0  0  0
 44 45  1  0  0  0  0
 46 47  1  0  0  0  0
 48  4  1  0  0  0  0
 48 46  2  0  0  0  0
 49 50  1  1  0  0  0
 49 53  1  0  0  0  0
 51 52  1  6  0  0  0
 51 53  1  0  0  0  0
 51 62  1  0  0  0  0
 51 61  1  0  0  0  0
 53 54  2  0  0  0  0
 54 55  1  0  0  0  0
 54 56  1  0  0  0  0
 56 57  1  0  0  0  0
 56 58  1  0  0  0  0
 59 56  1  0  0  0  0
 59 60  1  1  0  0  0
 61 69  1  0  0  0  0
 61 59  1  0  0  0  0
 62 59  1  0  0  0  0
 63 62  1  0  0  0  0
 64 62  1  0  0  0  0
 65 61  1  0  0  0  0
 65 68  1  0  0  0  0
 66 65  1  0  0  0  0
 67 65  1  0  0  0  0
 69 71  1  0  0  0  0
 69 70  1  0  0  0  0
 72 69  1  0  0  0  0
M  END
