1,2,3,5
q = -2.0, confidence = 0.896

 47 48  0  0  0  0  0  0  0  0999 V2000
   -1.8459   -1.9852   -0.9937 S   0  0  0  0  0  1  0  0  0  0  0  0
    1.9675   -2.1899    0.3315 S   0  0  0  0  0  1  0  0  0  0  0  0
   -0.4749    0.1529    1.3374 N   0  0  0  0  0  0  0  0  0  0  0  0
    0.3197   -0.1001    1.9407 H   0  0  0  0  0  0  0  0  0  0  0  0
    0.9356    0.5392   -1.4606 N   0  0  0  0  0  0  0  0  0  0  0  0
    0.3371    0.5315   -2.2990 H   0  0  0  0  0  0  0  0  0  0  0  0
   -1.6846   -0.5226    1.8938 C   0  0  0  0  0  0  0  0  0  0  0  0
   -1.8838   -0.1572    2.9260 H   0  0  0  0  0  0  0  0  0  0  0  0
   -1.4291   -1.6031    1.9520 H   0  0  0  0  0  0  0  0  0  0  0  0
   -2.9219   -0.3373    1.0559 C   0  0  0  0  0  0  0  0  0  0  0  0
   -3.0693   -0.9576   -0.2206 C   0  0  0  0  0  0  0  0  0  0  0  0
   -4.2853   -0.7620   -0.9208 C   0  0  0  0  0  0  0  0  0  0  0  0
   -4.3993   -1.2455   -1.9028 H   0  0  0  0  0  0  0  0  0  0  0  0
   -5.3119    0.0340   -0.4022 C   0  0  0  0  0  0  0  0  0  0  0  0
   -6.2401    0.1669   -0.9794 H   0  0  0  0  0  0  0  0  0  0  0  0
   -5.1572    0.6634    0.8443 C   0  0  0  0  0  0  0  0  0  0  0  0
   -5.9572    1.2931    1.2607 H   0  0  0  0  0  0  0  0  0  0  0  0
   -3.9674    0.4650    1.5566 C   0  0  0  0  0  0  0  0  0  0  0  0
   -3.8402    0.9351    2.5460 H   0  0  0  0  0  0  0  0  0  0  0  0
   -0.5515    1.6315    1.2381 C   0  0  0  0  0  0  0  0  0  0  0  0
    0.2605    2.0592    1.8634 H   0  0  0  0  0  0  0  0  0  0  0  0
   -1.5096    1.9724    1.6845 H   0  0  0  0  0  0  0  0  0  0  0  0
   -0.4362    2.2686   -0.1740 C   0  0  0  0  0  0  0  0  0  0  0  0
   -0.4039    3.7921    0.0604 C   0  0  0  0  0  0  0  0  0  0  0  0
   -1.3093    4.1256    0.6066 H   0  0  0  0  0  0  0  0  0  0  0  0
   -0.3731    4.3383   -0.9034 H   0  0  0  0  0  0  0  0  0  0  0  0
    0.4835    4.0971    0.6535 H   0  0  0  0  0  0  0  0  0  0  0  0
   -1.6316    1.9219   -1.0751 C   0  0  0  0  0  0  0  0  0  0  0  0
   -1.7040    0.8360   -1.2807 H   0  0  0  0  0  0  0  0  0  0  0  0
   -1.5493    2.4546   -2.0460 H   0  0  0  0  0  0  0  0  0  0  0  0
   -2.5886    2.2206   -0.6031 H   0  0  0  0  0  0  0  0  0  0  0  0
    0.8956    1.8903   -0.8625 C   0  0  0  0  0  0  0  0  0  0  0  0
    1.1266    2.6497   -1.6467 H   0  0  0  0  0  0  0  0  0  0  0  0
    1.7225    1.9452   -0.1249 H   0  0  0  0  0  0  0  0  0  0  0  0
    2.3105    0.1233   -1.8723 C   0  0  0  0  0  0  0  0  0  0  0  0
    2.6952    0.8118   -2.6578 H   0  0  0  0  0  0  0  0  0  0  0  0
    2.2133   -0.8941   -2.3082 H   0  0  0  0  0  0  0  0  0  0  0  0
    3.2796    0.0907   -0.7184 C   0  0  0  0  0  0  0  0  0  0  0  0
    3.1788   -0.8930    0.3109 C   0  0  0  0  0  0  0  0  0  0  0  0
    4.1468   -0.8744    1.3466 C   0  0  0  0  0  0  0  0  0  0  0  0
    4.0739   -1.6393    2.1344 H   0  0  0  0  0  0  0  0  0  0  0  0
    5.1693    0.0796    1.3790 C   0  0  0  0  0  0  0  0  0  0  0  0
    5.9029    0.0617    2.2000 H   0  0  0  0  0  0  0  0  0  0  0  0
    5.2593    1.0546    0.3713 C   0  0  0  0  0  0  0  0  0  0  0  0
    6.0594    1.8093    0.3878 H   0  0  0  0  0  0  0  0  0  0  0  0
    4.3141    1.0471   -0.6623 C   0  0  0  0  0  0  0  0  0  0  0  0
    4.3770    1.8007   -1.4648 H   0  0  0  0  0  0  0  0  0  0  0  0
  1 11  1  0  0  0  0
  3  7  1  0  0  0  0
  3  4  1  0  0  0  0
  5 32  1  0  0  0  0
  6  5  1  0  0  0  0
  7  9  1  0  0  0  0
  7  8  1  0  0  0  0
 10 18  1  0  0  0  0
 10  7  1  0  0  0  0
 11 10  2  0  0  0  0
 12 14  2  0  0  0  0
 12 11  1  0  0  0  0
 13 12  1  0  0  0  0
 14 16  1  0  0  0  0
 15 14  1  0  0  0  0
 16 17  1  0  0  0  0
 16 18  2  0  0  0  0
 18 19  1  0  0  0  0
 20  3  1  0  0  0  0
 20 22  1  0  0  0  0
 20 21  1  0  0  0  0
 23 24  1  0  0  0  0
 23 20  1  0  0  0  0
 24 25  1  0  0  0  0
 24 27  1  0  0  0  0
 26 24  1  0  0  0  0
 28 31  1  0  0  0  0
 28 23  1  0  0  0  0
 29 28  1  0  0  0  0
 30 28  1  0  0  0  0
 32 23  1  0  0  0  0
 32 34  1  0  0  0  0
 33 32  1  0  0  0  0
 35  5  1  0  0  0  0
 35 38  1  0  0  0  0
 36 35  1  0  0  0  0
 37 35  1  0  0  0  0
 38 46  2  0  0  0  0
 38 39  1  0  0  0  0
 39  2  1  0  0  0  0
 39 40  2  0  0  0  0
 40 42  1  0  0  0  0
 40 41  1  0  0  0  0
 42 43  1  0  0  0  0
 44 45  1  0  0  0  0
 44 42  2  0  0  0  0
 46 44  1  0  0  0  0
 47 46  1  0  0  0  0
M  END
