1,5,11,14
q = -2.0, confidence = 0.922

 56 57  0  0  1  0  0  0  0  0999 V2000
    0.5449   -2.4515   -0.3355 S   0  0  0  0  0  1  0  0  0  0  0  0
    2.0710   -1.6658   -0.0708 C   0  0  1  0  0  3  0  0  0  0  0  0
    2.2247   -0.4617    0.4913 N   0  0  0  0  0  0  0  0  0  0  0  0
    1.3636    0.5453    0.4244 C   0  0  0  0  0  0  0  0  0  0  0  0
    0.1857    0.5418   -0.2720 N   0  0  0  0  0  2  0  0  0  0  0  0
   -2.6159    1.4320   -0.6462 C   0  0  0  0  0  0  0  0  0  0  0  0
   -3.9386    2.1459   -0.5487 C   0  0  0  0  0  0  0  0  0  0  0  0
   -4.6748    1.7214   -1.2640 H   0  0  0  0  0  0  0  0  0  0  0  0
   -3.8400    3.2300   -0.7261 H   0  0  0  0  0  0  0  0  0  0  0  0
   -4.3721    1.9703    0.4542 H   0  0  0  0  0  0  0  0  0  0  0  0
   -2.5471    0.1801   -0.1867 N   0  0  0  0  0  2  0  0  0  0  0  0
   -3.7332   -0.2981    0.2861 N   0  0  0  0  0  0  0  0  0  0  0  0
   -3.7132   -1.5750    0.6220 C   0  0  0  0  0  0  0  0  0  0  0  0
   -2.2760   -2.5646    0.5520 S   0  0  0  0  0  1  0  0  0  0  0  0
   -4.8769   -2.1497    1.0333 N   0  0  0  0  0  0  0  0  0  0  0  0
   -4.8209   -3.1091    1.3695 H   0  0  0  0  0  0  0  0  0  0  0  0
   -6.1157   -1.4139    1.1554 C   0  0  0  0  0  0  0  0  0  0  0  0
   -6.0690   -0.6436    1.9573 H   0  0  0  0  0  0  0  0  0  0  0  0
   -6.9368   -2.1189    1.3841 H   0  0  0  0  0  0  0  0  0  0  0  0
   -6.3468   -0.8839    0.2086 H   0  0  0  0  0  0  0  0  0  0  0  0
    3.2160   -2.3400   -0.3915 N   0  0  0  0  0  0  0  0  0  0  0  0
    3.1880   -3.6734   -0.9883 C   0  0  0  0  0  0  0  0  0  0  0  0
    4.0824   -3.7636   -1.6396 H   0  0  0  0  0  0  0  0  0  0  0  0
    2.2977   -3.7341   -1.6479 H   0  0  0  0  0  0  0  0  0  0  0  0
    3.1534   -4.7968    0.0493 C   0  0  0  0  0  0  0  0  0  0  0  0
    4.0360   -4.7564    0.7197 H   0  0  0  0  0  0  0  0  0  0  0  0
    3.1479   -5.7854   -0.4520 H   0  0  0  0  0  0  0  0  0  0  0  0
    2.2381   -4.7187    0.6685 H   0  0  0  0  0  0  0  0  0  0  0  0
    4.5220   -1.7325   -0.1272 C   0  0  0  0  0  0  0  0  0  0  0  0
    5.2433   -2.5603    0.0328 H   0  0  0  0  0  0  0  0  0  0  0  0
    4.4433   -1.1646    0.8205 H   0  0  0  0  0  0  0  0  0  0  0  0
    4.9944   -0.8121   -1.2526 C   0  0  0  0  0  0  0  0  0  0  0  0
    5.9967   -0.3976   -1.0221 H   0  0  0  0  0  0  0  0  0  0  0  0
    4.2903    0.0345   -1.3771 H   0  0  0  0  0  0  0  0  0  0  0  0
    5.0614   -1.3514   -2.2194 H   0  0  0  0  0  0  0  0  0  0  0  0
    1.7380    1.7680    1.1956 C   0  0  0  0  0  0  0  0  0  0  0  0
    3.0904    2.0442    1.4881 C   0  0  0  0  0  0  0  0  0  0  0  0
    3.8607    1.3650    1.0963 H   0  0  0  0  0  0  0  0  0  0  0  0
    3.4382    3.1659    2.2512 C   0  0  0  0  0  0  0  0  0  0  0  0
    4.4976    3.3770    2.4629 H   0  0  0  0  0  0  0  0  0  0  0  0
    2.4386    4.0214    2.7435 C   0  0  0  0  0  0  0  0  0  0  0  0
    2.7118    4.9027    3.3439 H   0  0  0  0  0  0  0  0  0  0  0  0
    1.0881    3.7440    2.4723 C   0  0  0  0  0  0  0  0  0  0  0  0
    0.2994    4.4011    2.8688 H   0  0  0  0  0  0  0  0  0  0  0  0
    0.7390    2.6268    1.7046 C   0  0  0  0  0  0  0  0  0  0  0  0
   -0.3177    2.3966    1.5068 H   0  0  0  0  0  0  0  0  0  0  0  0
   -0.1210    1.6497   -1.0581 C   0  0  0  0  0  0  0  0  0  0  0  0
    0.9340    2.3545   -1.6954 C   0  0  0  0  0  0  0  0  0  0  0  0
    1.9608    1.9879   -1.5544 H   0  0  0  0  0  0  0  0  0  0  0  0
    0.6950    3.4622   -2.5061 C   0  0  0  0  0  0  0  0  0  0  0  0
    1.5376    3.9766   -2.9923 H   0  0  0  0  0  0  0  0  0  0  0  0
   -0.6273    3.8937   -2.7188 C   0  0  0  0  0  0  0  0  0  0  0  0
   -0.8384    4.7508   -3.3750 H   0  0  0  0  0  0  0  0  0  0  0  0
   -1.6781    3.2097   -2.1082 C   0  0  0  0  0  3  0  0  0  0  0  0
   -2.7058    3.5416   -2.3062 H   0  0  0  0  0  0  0  0  0  0  0  0
   -1.4713    2.0825   -1.2663 C   0  0  0  0  0  0  0  0  0  0  0  0
  2  1  1  1  0  0  0
  2  3  1  0  0  0  0
  4  3  2  0  0  0  0
  4 36  1  0  0  0  0
  5  4  1  0  0  0  0
  6  7  1  0  0  0  0
  6 11  1  0  0  0  0
  7 10  1  0  0  0  0
  8  7  1  0  0  0  0
  9  7  1  0  0  0  0
 11 12  1  0  0  0  0
 12 13  2  0  0  0  0
 13 15  1  0  0  0  0
 14 13  1  0  0  0  0
 15 17  1  0  0  0  0
 15 16  1  0  0  0  0
 17 19  1  0  0  0  0
 17 18  1  0  0  0  0
 20 17  1  0  0  0  0
 21 29  1  0  0  0  0
 21  2  1  0  0  0  0
 22 21  1  0  0  0  0
 22 25  1  0  0  0  0
 23 22  1  0  0  0  0
 24 22  1  0  0  0  0
 25 28  1  0  0  0  0
 25 26  1  0  0  0  0
 27 25  1  0  0  0  0
 29 30  1  0  0  0  0
 29 31  1  0  0  0  0
 32 33  1  0  0  0  0
 32 29  1  0  0  0  0
 34 32  1  0  0  0  0
 35 32  1  0  0  0  0
 36 37  2  0  0  0  0
 36 45  1  0  0  0  0
 37 39  1  0  0  0  0
 38 37  1  0  0  0  0
 39 40  1  0  0  0  0
 39 41  2  0  0  0  0
 41 42  1  0  0  0  0
 43 41  1  0  0  0  0
 43 44  1  0  0  0  0
 45 43  2  0  0  0  0
 46 45  1  0  0  0  0
 47  5  1  0  0  0  0
 48 49  1  0  0  0  0
 48 47  2  0  0  0  0
 50 48  1  0  0  0  0
 51 50  1  0  0  0  0
 52 50  2  0  0  0  0
 52 54  1  0  0  0  0
 53 52  1  0  0  0  0
 54 56  1  0  0  0  0
 55 54  1  0  0  0  0
 56 47  1  0  0  0  0
 56  6  2  0  0  0  0
M  END
