1,2,5,9
q = -2.0, confidence = 0.878

 52 53  0  0  0  0  0  0  0  0999 V2000
   -1.9226   -2.4656    0.0000 S   0  0  0  0  0  1  0  0  0  0  0  0
    1.9226   -2.4658   -0.0001 S   0  0  0  0  0  1  0  0  0  0  0  0
   -9.1578    1.4613   -0.0003 O   0  0  0  0  0  0  0  0  0  0  0  0
    9.1576    1.4615    0.0000 O   0  0  0  0  0  0  0  0  0  0  0  0
   -1.2964    0.3704    0.0002 N   0  0  0  0  0  2  0  0  0  0  0  0
   -2.6278    0.2228    0.0001 N   0  0  0  0  0  0  0  0  0  0  0  0
   -4.3327   -1.3713    0.0000 N   0  0  0  0  0  0  0  0  0  0  0  0
   -4.5001   -2.3806   -0.0000 H   0  0  0  0  0  0  0  0  0  0  0  0
    1.2966    0.3703    0.0002 N   0  0  0  0  0  2  0  0  0  0  0  0
    2.6280    0.2227    0.0001 N   0  0  0  0  0  0  0  0  0  0  0  0
    4.3327   -1.3715   -0.0001 N   0  0  0  0  0  0  0  0  0  0  0  0
    4.5001   -2.3808   -0.0001 H   0  0  0  0  0  0  0  0  0  0  0  0
   -3.0048   -1.0568    0.0000 C   0  0  0  0  0  0  0  0  0  0  0  0
   -5.4923   -0.5786   -0.0001 C   0  0  0  0  0  0  0  0  0  0  0  0
   -5.4915    0.8310   -0.0000 C   0  0  0  0  0  0  0  0  0  0  0  0
   -4.5302    1.3574    0.0000 H   0  0  0  0  0  0  0  0  0  0  0  0
   -6.7019    1.5404   -0.0001 C   0  0  0  0  0  0  0  0  0  0  0  0
   -6.6648    2.6380   -0.0001 H   0  0  0  0  0  0  0  0  0  0  0  0
   -7.9358    0.8599   -0.0002 C   0  0  0  0  0  0  0  0  0  0  0  0
   -7.9373   -0.5526   -0.0002 C   0  0  0  0  0  0  0  0  0  0  0  0
   -8.9035   -1.0768   -0.0003 H   0  0  0  0  0  0  0  0  0  0  0  0
   -6.7366   -1.2568   -0.0002 C   0  0  0  0  0  0  0  0  0  0  0  0
   -6.7552   -2.3586   -0.0002 H   0  0  0  0  0  0  0  0  0  0  0  0
   -9.2080    2.8742   -0.0000 C   0  0  0  0  0  0  0  0  0  0  0  0
  -10.2786    3.1508    0.0001 H   0  0  0  0  0  0  0  0  0  0  0  0
   -8.7233    3.3080   -0.9040 H   0  0  0  0  0  0  0  0  0  0  0  0
   -8.7232    3.3077    0.9041 H   0  0  0  0  0  0  0  0  0  0  0  0
   -0.7307    1.5787    0.0003 C   0  0  0  0  0  0  0  0  0  0  0  0
    0.7309    1.5786    0.0003 C   0  0  0  0  0  0  0  0  0  0  0  0
   -1.5947    2.8008    0.0003 C   0  0  0  0  0  0  0  0  0  0  0  0
   -2.2616    2.7994   -0.8870 H   0  0  0  0  0  0  0  0  0  0  0  0
   -1.0035    3.7327    0.0007 H   0  0  0  0  0  0  0  0  0  0  0  0
   -2.2620    2.7990    0.8873 H   0  0  0  0  0  0  0  0  0  0  0  0
    1.5950    2.8007    0.0004 C   0  0  0  0  0  0  0  0  0  0  0  0
    2.2615    2.7996   -0.8873 H   0  0  0  0  0  0  0  0  0  0  0  0
    2.2628    2.7985    0.8871 H   0  0  0  0  0  0  0  0  0  0  0  0
    1.0038    3.7326    0.0014 H   0  0  0  0  0  0  0  0  0  0  0  0
    3.0049   -1.0570    0.0000 C   0  0  0  0  0  0  0  0  0  0  0  0
    5.4923   -0.5787   -0.0001 C   0  0  0  0  0  0  0  0  0  0  0  0
    5.4914    0.8309   -0.0003 C   0  0  0  0  0  0  0  0  0  0  0  0
    4.5299    1.3572   -0.0005 H   0  0  0  0  0  0  0  0  0  0  0  0
    6.7017    1.5404   -0.0003 C   0  0  0  0  0  0  0  0  0  0  0  0
    6.6644    2.6380   -0.0005 H   0  0  0  0  0  0  0  0  0  0  0  0
    7.9357    0.8600   -0.0000 C   0  0  0  0  0  0  0  0  0  0  0  0
    7.9373   -0.5526    0.0002 C   0  0  0  0  0  0  0  0  0  0  0  0
    8.9036   -1.0766    0.0004 H   0  0  0  0  0  0  0  0  0  0  0  0
    6.7367   -1.2568    0.0002 C   0  0  0  0  0  0  0  0  0  0  0  0
    6.7554   -2.3586    0.0004 H   0  0  0  0  0  0  0  0  0  0  0  0
    9.2076    2.8745   -0.0005 C   0  0  0  0  0  0  0  0  0  0  0  0
    8.7229    3.3077   -0.9047 H   0  0  0  0  0  0  0  0  0  0  0  0
   10.2782    3.1512   -0.0006 H   0  0  0  0  0  0  0  0  0  0  0  0
    8.7228    3.3083    0.9034 H   0  0  0  0  0  0  0  0  0  0  0  0
  2 38  1  0  0  0  0
  3 19  1  0  0  0  0
  3 24  1  0  0  0  0
  5 28  1  0  0  0  0
  6  5  1  0  0  0  0
  8  7  1  0  0  0  0
  9 29  1  0  0  0  0
 10  9  1  0  0  0  0
 11 39  1  0  0  0  0
 11 38  1  0  0  0  0
 12 11  1  0  0  0  0
 13  7  1  0  0  0  0
 13  1  1  0  0  0  0
 13  6  2  0  0  0  0
 14 15  1  0  0  0  0
 14  7  1  0  0  0  0
 15 16  1  0  0  0  0
 17 18  1  0  0  0  0
 17 15  2  0  0  0  0
 19 17  1  0  0  0  0
 20 19  2  0  0  0  0
 20 22  1  0  0  0  0
 21 20  1  0  0  0  0
 22 14  2  0  0  0  0
 23 22  1  0  0  0  0
 24 25  1  0  0  0  0
 24 27  1  0  0  0  0
 26 24  1  0  0  0  0
 28 29  2  0  0  0  0
 28 30  1  0  0  0  0
 29 34  1  0  0  0  0
 30 32  1  0  0  0  0
 30 33  1  0  0  0  0
 31 30  1  0  0  0  0
 34 37  1  0  0  0  0
 34 36  1  0  0  0  0
 35 34  1  0  0  0  0
 38 10  2  0  0  0  0
 39 47  1  0  0  0  0
 40 42  1  0  0  0  0
 40 39  2  0  0  0  0
 41 40  1  0  0  0  0
 42 44  2  0  0  0  0
 43 42  1  0  0  0  0
 44  4  1  0  0  0  0
 44 45  1  0  0  0  0
 45 46  1  0  0  0  0
 47 45  2  0  0  0  0
 47 48  1  0  0  0  0
 49  4  1  0  0  0  0
 49 52  1  0  0  0  0
 50 49  1  0  0  0  0
 51 49  1  0  0  0  0
M  END
