1,2,5,6
q = 0.0, confidence = 0.992

 60 64  0  0  1  0  0  0  0  0999 V2000
   -0.2044    2.0717    1.2689 S   0  0  0  0  0  0  0  0  0  0  0  0
    1.3287   -1.7194   -1.8965 S   0  0  0  0  0  0  0  0  0  0  0  0
   -2.2294    0.7847   -1.4350 O   0  0  0  0  0  0  0  0  0  0  0  0
    0.6714   -2.6795    1.1807 O   0  0  0  0  0  0  0  0  0  0  0  0
   -1.7252   -1.6291   -0.0419 N   0  0  0  0  0  2  0  0  0  0  0  0
    1.9448    1.2422   -0.8495 N   0  0  0  0  0  2  0  0  0  0  0  0
   -3.6757   -3.6207   -0.1035 C   0  0  0  0  0  0  0  0  0  0  0  0
   -4.4456   -4.4061   -0.1284 H   0  0  0  0  0  0  0  0  0  0  0  0
   -3.7022   -2.5701   -1.0286 C   0  0  0  0  0  0  0  0  0  0  0  0
   -4.4935   -2.5064   -1.7904 H   0  0  0  0  0  0  0  0  0  0  0  0
   -2.6976   -1.5886   -0.9718 C   0  0  2  0  0  3  0  0  0  0  0  0
   -2.6286   -0.4617   -1.9910 C   0  0  0  0  0  0  0  0  0  0  0  0
   -1.8384   -0.7032   -2.7327 H   0  0  0  0  0  0  0  0  0  0  0  0
   -3.5888   -0.3736   -2.5418 H   0  0  0  0  0  0  0  0  0  0  0  0
   -3.1049    1.4632   -0.6139 C   0  0  0  0  0  0  0  0  0  0  0  0
   -4.4479    1.0888   -0.4332 C   0  0  0  0  0  0  0  0  0  0  0  0
   -4.8593    0.2043   -0.9360 H   0  0  0  0  0  0  0  0  0  0  0  0
   -5.2821    1.8513    0.3989 C   0  0  0  0  0  0  0  0  0  0  0  0
   -6.3322    1.5495    0.5277 H   0  0  0  0  0  0  0  0  0  0  0  0
   -4.7862    2.9836    1.0584 C   0  0  0  0  0  0  0  0  0  0  0  0
   -5.4398    3.5817    1.7091 H   0  0  0  0  0  0  0  0  0  0  0  0
   -3.4436    3.3438    0.8833 C   0  0  0  0  0  0  0  0  0  0  0  0
   -3.0391    4.2249    1.4056 H   0  0  0  0  0  0  0  0  0  0  0  0
   -2.5831    2.6041    0.0508 C   0  0  0  0  0  0  0  0  0  0  0  0
   -1.1336    2.9838   -0.0627 C   0  0  0  0  0  0  0  0  0  0  0  0
   -0.9908    4.0653    0.1293 H   0  0  0  0  0  0  0  0  0  0  0  0
   -0.6982    2.7197   -1.0449 H   0  0  0  0  0  0  0  0  0  0  0  0
    1.4849    2.7192    1.0961 C   0  0  0  0  0  0  0  0  0  0  0  0
    1.4356    3.8282    1.0901 H   0  0  0  0  0  0  0  0  0  0  0  0
    1.9749    2.4339    2.0519 H   0  0  0  0  0  0  0  0  0  0  0  0
    2.3626    2.2301   -0.0460 C   0  0  1  0  0  3  0  0  0  0  0  0
    3.6408    2.8084   -0.1891 C   0  0  0  0  0  0  0  0  0  0  0  0
    3.9551    3.6239    0.4793 H   0  0  0  0  0  0  0  0  0  0  0  0
    4.4977    2.3169   -1.1766 C   0  0  0  0  0  0  0  0  0  0  0  0
    5.5042    2.7419   -1.3065 H   0  0  0  0  0  0  0  0  0  0  0  0
    4.0592    1.2625   -1.9909 C   0  0  0  0  0  0  0  0  0  0  0  0
    4.7090    0.8434   -2.7732 H   0  0  0  0  0  0  0  0  0  0  0  0
    2.7668    0.7493   -1.7993 C   0  0  0  0  0  0  0  0  0  0  0  0
    2.2576   -0.3624   -2.6942 C   0  0  0  0  0  0  0  0  0  0  0  0
    3.0922   -0.7882   -3.2855 H   0  0  0  0  0  0  0  0  0  0  0  0
    1.5250    0.0496   -3.4220 H   0  0  0  0  0  0  0  0  0  0  0  0
    2.5953   -2.4799   -0.7731 C   0  0  0  0  0  0  0  0  0  0  0  0
    2.2197   -3.5129   -0.6396 H   0  0  0  0  0  0  0  0  0  0  0  0
    3.5500   -2.5295   -1.3320 H   0  0  0  0  0  0  0  0  0  0  0  0
    2.7553   -1.7763    0.5439 C   0  0  0  0  0  0  0  0  0  0  0  0
    3.8753   -0.9786    0.8274 C   0  0  0  0  0  0  0  0  0  0  0  0
    4.6753   -0.9047    0.0748 H   0  0  0  0  0  0  0  0  0  0  0  0
    3.9847   -0.2717    2.0355 C   0  0  0  0  0  0  0  0  0  0  0  0
    4.8717    0.3465    2.2348 H   0  0  0  0  0  0  0  0  0  0  0  0
    2.9641   -0.3807    2.9904 C   0  0  0  0  0  0  0  0  0  0  0  0
    3.0457    0.1464    3.9531 H   0  0  0  0  0  0  0  0  0  0  0  0
    1.8412   -1.1901    2.7467 C   0  0  0  0  0  0  0  0  0  0  0  0
    1.0708   -1.2940    3.5229 H   0  0  0  0  0  0  0  0  0  0  0  0
    1.7283   -1.8759    1.5236 C   0  0  0  0  0  0  0  0  0  0  0  0
   -0.5723   -2.5785    1.8753 C   0  0  0  0  0  0  0  0  0  0  0  0
   -0.6408   -1.6090    2.4152 H   0  0  0  0  0  0  0  0  0  0  0  0
   -0.6633   -3.4014    2.6148 H   0  0  0  0  0  0  0  0  0  0  0  0
   -1.6953   -2.6318    0.8625 C   0  0  0  0  0  0  0  0  0  0  0  0
   -2.6546   -3.6555    0.8571 C   0  0  0  0  0  0  0  0  0  0  0  0
   -2.5987   -4.4671    1.5968 H   0  0  0  0  0  0  0  0  0  0  0  0
  2 42  1  0  0  0  0
  3 15  1  0  0  0  0
  4 54  1  0  0  0  0
  4 55  1  0  0  0  0
  5 58  1  0  0  0  0
  7 59  1  0  0  0  0
  8  7  1  0  0  0  0
  9  7  2  0  0  0  0
 10  9  1  0  0  0  0
 11  9  1  6  0  0  0
 11  5  1  0  0  0  0
 12  3  1  0  0  0  0
 12 11  1  0  0  0  0
 13 12  1  0  0  0  0
 14 12  1  0  0  0  0
 15 16  2  0  0  0  0
 15 24  1  0  0  0  0
 16 18  1  0  0  0  0
 17 16  1  0  0  0  0
 18 19  1  0  0  0  0
 18 20  2  0  0  0  0
 20 21  1  0  0  0  0
 22 20  1  0  0  0  0
 22 23  1  0  0  0  0
 24 22  2  0  0  0  0
 25 24  1  0  0  0  0
 25 26  1  0  0  0  0
 25  1  1  0  0  0  0
 27 25  1  0  0  0  0
 28  1  1  0  0  0  0
 28 30  1  0  0  0  0
 29 28  1  0  0  0  0
 31  6  1  1  0  0  0
 31 28  1  0  0  0  0
 32 31  1  0  0  0  0
 32 33  1  0  0  0  0
 34 32  2  0  0  0  0
 35 34  1  0  0  0  0
 36 38  2  0  0  0  0
 36 34  1  0  0  0  0
 37 36  1  0  0  0  0
 38  6  1  0  0  0  0
 39  2  1  0  0  0  0
 39 38  1  0  0  0  0
 40 39  1  0  0  0  0
 41 39  1  0  0  0  0
 42 43  1  0  0  0  0
 42 45  1  0  0  0  0
 44 42  1  0  0  0  0
 45 46  2  0  0  0  0
 45 54  1  0  0  0  0
 46 48  1  0  0  0  0
 47 46  1  0  0  0  0
 48 49  1  0  0  0  0
 48 50  2  0  0  0  0
 50 51  1  0  0  0  0
 52 50  1  0  0  0  0
 52 53  1  0  0  0  0
 54 52  2  0  0  0  0
 55 56  1  0  0  0  0
 55 57  1  0  0  0  0
 58 55  1  0  0  0  0
 59 58  2  0  0  0  0
 59 60  1  0  0  0  0
M  END
