1,2,12,14
q = -2.0, confidence = 0.938

 69 72  0  0  1  0  0  0  0  0999 V2000
    1.5733   -3.1686   -0.4765 S   0  0  0  0  0  1  0  0  0  0  0  0
   -1.5960   -3.1882    0.1242 S   0  0  0  0  0  1  0  0  0  0  0  0
    9.2848    0.5765    0.0051 Cl  0  0  0  0  0  0  0  0  0  0  0  0
   -9.3291    0.5422    0.3923 Cl  0  0  0  0  0  0  0  0  0  0  0  0
    0.1234    3.1286    1.3605 O   0  0  0  0  0  0  0  0  0  0  0  0
    0.1194    3.3313   -1.5493 O   0  0  0  0  0  0  0  0  0  0  0  0
    4.1037   -2.3270   -0.5475 N   0  0  0  0  0  0  0  0  0  0  0  0
    4.2021   -3.3377   -0.4381 H   0  0  0  0  0  0  0  0  0  0  0  0
   -2.5073   -0.7218    0.8085 N   0  0  0  0  0  2  0  0  0  0  0  0
   -4.1211   -2.3653    0.3723 N   0  0  0  0  0  0  0  0  0  0  0  0
   -4.2232   -3.3598    0.1626 H   0  0  0  0  0  0  0  0  0  0  0  0
    1.1537   -0.4267   -0.9062 N   0  0  0  0  0  2  0  0  0  0  0  0
    2.5033   -0.6490   -0.8856 N   0  0  0  0  0  2  0  0  0  0  0  0
   -1.1569   -0.5076    0.8087 N   0  0  0  0  0  2  0  0  0  0  0  0
    5.2921   -1.5922   -0.4451 C   0  0  0  0  0  0  0  0  0  0  0  0
    1.0602    2.2316    1.7694 C   0  0  0  0  0  0  0  0  0  0  0  0
   -5.3145   -1.6323    0.4067 C   0  0  0  0  0  0  0  0  0  0  0  0
   -0.9217    2.4779   -1.7637 C   0  0  0  0  0  0  0  0  0  0  0  0
   -1.6000    0.1445   -2.0303 C   0  0  0  0  0  0  0  0  0  0  0  0
   -1.3272   -0.9230   -2.0584 H   0  0  0  0  0  0  0  0  0  0  0  0
    2.7991   -1.9092   -0.6517 C   0  0  1  0  0  3  0  0  0  0  0  0
    2.3777    2.5526    2.1383 C   0  0  0  0  0  0  0  0  0  0  0  0
    2.7122    3.5981    2.1706 H   0  0  0  0  0  0  0  0  0  0  0  0
   -2.8137   -1.9548    0.4663 C   0  0  2  0  0  3  0  0  0  0  0  0
    6.5014   -2.3180   -0.3296 C   0  0  0  0  0  0  0  0  0  0  0  0
    6.4796   -3.4196   -0.3457 H   0  0  0  0  0  0  0  0  0  0  0  0
    7.7583   -0.2556   -0.1686 C   0  0  0  0  0  0  0  0  0  0  0  0
    3.2825    1.5238    2.4576 C   0  0  0  0  0  0  0  0  0  0  0  0
    4.3159    1.7843    2.7325 H   0  0  0  0  0  0  0  0  0  0  0  0
    2.8814    0.1807    2.4290 C   0  0  0  0  0  0  0  0  0  0  0  0
    3.5954   -0.6184    2.6747 H   0  0  0  0  0  0  0  0  0  0  0  0
   -0.5855    1.0884   -1.7497 C   0  0  0  0  0  0  0  0  0  0  0  0
    5.3396   -0.1793   -0.4255 C   0  0  0  0  0  0  0  0  0  0  0  0
    4.4032    0.3832   -0.5221 H   0  0  0  0  0  0  0  0  0  0  0  0
   -2.2524    2.8754   -1.9759 C   0  0  0  0  0  0  0  0  0  0  0  0
   -2.5309    3.9374   -1.9480 H   0  0  0  0  0  0  0  0  0  0  0  0
   -0.7544    0.5743    1.4384 C   0  0  0  0  0  3  0  0  0  0  0  0
   -1.5444    1.2679    1.7752 H   0  0  0  0  0  0  0  0  0  0  0  0
    7.7263   -1.6597   -0.1916 C   0  0  0  0  0  0  0  0  0  0  0  0
    8.6607   -2.2310   -0.1015 H   0  0  0  0  0  0  0  0  0  0  0  0
    0.6315    0.8705    1.7535 C   0  0  0  0  0  0  0  0  0  0  0  0
   -7.7942   -0.2921    0.3989 C   0  0  0  0  0  0  0  0  0  0  0  0
    0.4628    4.4940    1.1415 C   0  0  0  0  0  0  0  0  0  0  0  0
    1.5107    4.5807    0.7770 H   0  0  0  0  0  0  0  0  0  0  0  0
    0.3927    5.0537    2.1018 H   0  0  0  0  0  0  0  0  0  0  0  0
   -2.9193    0.5454   -2.2646 C   0  0  0  0  0  0  0  0  0  0  0  0
   -3.6961   -0.2060   -2.4659 H   0  0  0  0  0  0  0  0  0  0  0  0
   -3.2439    1.9087   -2.2212 C   0  0  0  0  0  0  0  0  0  0  0  0
   -4.2828    2.2339   -2.3827 H   0  0  0  0  0  0  0  0  0  0  0  0
    6.5675    0.4782   -0.2857 C   0  0  0  0  0  0  0  0  0  0  0  0
    6.6033    1.5768   -0.2675 H   0  0  0  0  0  0  0  0  0  0  0  0
   -6.6015    0.4322    0.5503 C   0  0  0  0  0  0  0  0  0  0  0  0
   -6.6413    1.5247    0.6652 H   0  0  0  0  0  0  0  0  0  0  0  0
   -0.5017    5.0578    0.1007 C   0  0  0  0  0  0  0  0  0  0  0  0
   -0.5336    6.1640    0.1931 H   0  0  0  0  0  0  0  0  0  0  0  0
   -1.5225    4.6879    0.3311 H   0  0  0  0  0  0  0  0  0  0  0  0
   -6.5258   -2.3490    0.2586 C   0  0  0  0  0  0  0  0  0  0  0  0
   -6.5002   -3.4445    0.1427 H   0  0  0  0  0  0  0  0  0  0  0  0
   -0.1061    4.7213   -1.3400 C   0  0  0  0  0  0  0  0  0  0  0  0
   -0.8491    5.1230   -2.0636 H   0  0  0  0  0  0  0  0  0  0  0  0
    0.8683    5.1957   -1.5779 H   0  0  0  0  0  0  0  0  0  0  0  0
   -7.7573   -1.6888    0.2535 C   0  0  0  0  0  0  0  0  0  0  0  0
   -8.6931   -2.2528    0.1371 H   0  0  0  0  0  0  0  0  0  0  0  0
   -5.3666   -0.2274    0.5570 C   0  0  0  0  0  0  0  0  0  0  0  0
   -4.4283    0.3267    0.6799 H   0  0  0  0  0  0  0  0  0  0  0  0
    0.7844    0.7045   -1.4709 C   0  0  0  0  0  3  0  0  0  0  0  0
    1.5990    1.3928   -1.7527 H   0  0  0  0  0  0  0  0  0  0  0  0
    1.5622   -0.1383    2.0869 C   0  0  0  0  0  0  0  0  0  0  0  0
    1.2233   -1.1864    2.0804 H   0  0  0  0  0  0  0  0  0  0  0  0
  4 42  1  0  0  0  0
  5 16  1  0  0  0  0
  6 59  1  0  0  0  0
  7 15  1  0  0  0  0
  7  8  1  0  0  0  0
  9 14  1  0  0  0  0
 10 17  1  0  0  0  0
 10 24  1  0  0  0  0
 11 10  1  0  0  0  0
 12 13  1  0  0  0  0
 13 21  1  0  0  0  0
 14 37  1  0  0  0  0
 15 33  2  0  0  0  0
 15 25  1  0  0  0  0
 16 22  1  0  0  0  0
 17 64  1  0  0  0  0
 18 32  1  0  0  0  0
 18  6  1  0  0  0  0
 19 32  2  0  0  0  0
 20 19  1  0  0  0  0
 21  7  1  0  0  0  0
 21  1  1  6  0  0  0
 22 23  1  0  0  0  0
 22 28  2  0  0  0  0
 24  2  1  1  0  0  0
 24  9  1  0  0  0  0
 25 39  2  0  0  0  0
 26 25  1  0  0  0  0
 27  3  1  0  0  0  0
 28 29  1  0  0  0  0
 30 28  1  0  0  0  0
 30 31  1  0  0  0  0
 32 66  1  0  0  0  0
 33 50  1  0  0  0  0
 34 33  1  0  0  0  0
 35 36  1  0  0  0  0
 35 18  2  0  0  0  0
 37 41  1  0  0  0  0
 37 38  1  0  0  0  0
 39 27  1  0  0  0  0
 39 40  1  0  0  0  0
 41 16  2  0  0  0  0
 41 68  1  0  0  0  0
 42 52  1  0  0  0  0
 43  5  1  0  0  0  0
 43 45  1  0  0  0  0
 44 43  1  0  0  0  0
 46 48  2  0  0  0  0
 46 19  1  0  0  0  0
 47 46  1  0  0  0  0
 48 35  1  0  0  0  0
 49 48  1  0  0  0  0
 50 51  1  0  0  0  0
 50 27  2  0  0  0  0
 52 64  2  0  0  0  0
 52 53  1  0  0  0  0
 54 55  1  0  0  0  0
 54 56  1  0  0  0  0
 54 43  1  0  0  0  0
 57 17  2  0  0  0  0
 58 57  1  0  0  0  0
 59 54  1  0  0  0  0
 60 59  1  0  0  0  0
 61 59  1  0  0  0  0
 62 57  1  0  0  0  0
 62 42  2  0  0  0  0
 63 62  1  0  0  0  0
 64 65  1  0  0  0  0
 66 12  1  0  0  0  0
 67 66  1  0  0  0  0
 68 30  2  0  0  0  0
 69 68  1  0  0  0  0
M  END
