1,2,6,7
q = -2.0, confidence = 0.956

 30 29  0  0  1  0  0  0  0  0999 V2000
   -1.8495    0.4808   -2.1225 S   0  0  0  0  0  1  0  0  0  0  0  0
    2.1933    0.0750   -1.8271 S   0  0  0  0  0  1  0  0  0  0  0  0
   -4.3221   -0.0267   -1.2944 N   0  0  0  0  0  0  0  0  0  0  0  0
   -4.5114    0.4652   -2.1662 H   0  0  0  0  0  0  0  0  0  0  0  0
   -2.7561   -0.9397    0.1043 N   0  0  0  0  0  0  0  0  0  0  0  0
   -1.4499   -1.0979    0.3549 N   0  0  0  0  0  2  0  0  0  0  0  0
    1.1508   -1.3364    0.5583 N   0  0  0  0  0  2  0  0  0  0  0  0
    2.4834   -1.3764    0.5333 N   0  0  0  0  0  2  0  0  0  0  0  0
    4.3812   -0.8146   -0.5847 N   0  0  0  0  0  0  0  0  0  0  0  0
    4.7993   -1.3658    0.1682 H   0  0  0  0  0  0  0  0  0  0  0  0
   -5.4088   -0.5895   -0.5230 C   0  0  0  0  0  0  0  0  0  0  0  0
   -6.3692   -0.2622   -0.9641 H   0  0  0  0  0  0  0  0  0  0  0  0
   -5.3651   -0.2551    0.5345 H   0  0  0  0  0  0  0  0  0  0  0  0
   -5.3757   -1.7006   -0.5117 H   0  0  0  0  0  0  0  0  0  0  0  0
   -3.0064   -0.2241   -0.9973 C   0  0  0  0  0  0  0  0  0  0  0  0
   -1.0184   -1.8394    1.3525 C   0  0  0  0  0  0  0  0  0  0  0  0
   -1.9400   -2.5520    2.2984 C   0  0  0  0  0  0  0  0  0  0  0  0
   -1.7145   -2.2975    3.3546 H   0  0  0  0  0  0  0  0  0  0  0  0
   -1.8390   -3.6544    2.2069 H   0  0  0  0  0  0  0  0  0  0  0  0
   -2.9831   -2.2713    2.0655 H   0  0  0  0  0  0  0  0  0  0  0  0
    0.4440   -1.9645    1.4762 C   0  0  0  0  0  0  0  0  0  0  0  0
    1.0682   -2.7848    2.5669 C   0  0  0  0  0  0  0  0  0  0  0  0
    0.6784   -3.8238    2.5712 H   0  0  0  0  0  0  0  0  0  0  0  0
    0.8524   -2.3595    3.5704 H   0  0  0  0  0  0  0  0  0  0  0  0
    2.1631   -2.8077    2.4178 H   0  0  0  0  0  0  0  0  0  0  0  0
    3.0215   -0.7537   -0.5403 C   0  0  1  0  0  3  0  0  0  0  0  0
    5.2087   -0.2736   -1.6355 C   0  0  0  0  0  0  0  0  0  0  0  0
    6.2713   -0.4359   -1.3731 H   0  0  0  0  0  0  0  0  0  0  0  0
    5.0322    0.8150   -1.7669 H   0  0  0  0  0  0  0  0  0  0  0  0
    5.0039   -0.7549   -2.6174 H   0  0  0  0  0  0  0  0  0  0  0  0
  1 15  1  0  0  0  0
  3 15  1  0  0  0  0
  3 11  1  0  0  0  0
  4  3  1  0  0  0  0
  5  6  1  0  0  0  0
  6 16  1  0  0  0  0
  7 21  1  0  0  0  0
  8  7  1  0  0  0  0
  9 26  1  0  0  0  0
  9 10  1  0  0  0  0
 11 14  1  0  0  0  0
 11 13  1  0  0  0  0
 12 11  1  0  0  0  0
 15  5  2  0  0  0  0
 16 21  2  0  0  0  0
 16 17  1  0  0  0  0
 17 18  1  0  0  0  0
 19 17  1  0  0  0  0
 20 17  1  0  0  0  0
 21 22  1  0  0  0  0
 22 23  1  0  0  0  0
 22 24  1  0  0  0  0
 25 22  1  0  0  0  0
 26  2  1  6  0  0  0
 26  8  1  0  0  0  0
 27 28  1  0  0  0  0
 27  9  1  0  0  0  0
 29 27  1  0  0  0  0
 30 27  1  0  0  0  0
M  END
