1,2,5,6
q = -1.0

 38 37  0  0  1  0  0  0  0  0999 V2000
   -1.5300   -1.4170    0.4516 S   0  0  0  0  0  0  0  0  0  0  0  0
    1.5302   -1.4170    0.4514 S   0  0  0  0  0  0  0  0  0  0  0  0
   -1.1878    2.6231   -0.4296 O   0  0  0  0  0  0  0  0  0  0  0  0
    1.1874    2.6232   -0.4295 O   0  0  0  0  0  1  0  0  0  0  0  0
   -1.4297    1.3729   -0.1250 N   0  0  0  0  0  2  0  0  0  0  0  0
    1.4296    1.3729   -0.1250 N   0  0  0  0  0  2  0  0  0  0  0  0
   -2.6917    0.9897   -0.1787 C   0  0  1  0  0  3  0  0  0  0  0  0
   -3.0613   -0.3906    0.2785 C   0  0  2  0  0  0  0  0  0  0  0  0
   -1.3049   -2.1138   -1.2515 C   0  0  0  0  0  0  0  0  0  0  0  0
   -0.0000   -2.9077   -1.3535 C   0  0  0  0  0  0  0  0  0  0  0  0
    1.3047   -2.1136   -1.2517 C   0  0  0  0  0  0  0  0  0  0  0  0
    3.0614   -0.3904    0.2781 C   0  0  1  0  0  0  0  0  0  0  0  0
    2.6916    0.9900   -0.1784 C   0  0  2  0  0  3  0  0  0  0  0  0
   -3.7478    1.9649   -0.5824 C   0  0  0  0  0  0  0  0  0  0  0  0
   -3.7925   -0.4062    1.6287 C   0  0  0  0  0  0  0  0  0  0  0  0
    3.7932   -0.4066    1.6280 C   0  0  0  0  0  0  0  0  0  0  0  0
    3.7477    1.9654   -0.5819 C   0  0  0  0  0  0  0  0  0  0  0  0
   -0.0004    2.7296   -0.4413 H   0  0  0  0  0  0  0  0  0  0  0  0
   -3.6860   -0.8961   -0.4909 H   0  0  0  0  0  0  0  0  0  0  0  0
   -1.3487   -1.2792   -1.9802 H   0  0  0  0  0  0  0  0  0  0  0  0
   -2.1701   -2.7851   -1.4246 H   0  0  0  0  0  0  0  0  0  0  0  0
   -0.0001   -3.4024   -2.3482 H   0  0  0  0  0  0  0  0  0  0  0  0
    0.0001   -3.7299   -0.6064 H   0  0  0  0  0  0  0  0  0  0  0  0
    2.1699   -2.7847   -1.4252 H   0  0  0  0  0  0  0  0  0  0  0  0
    1.3481   -1.2788   -1.9803 H   0  0  0  0  0  0  0  0  0  0  0  0
    3.6858   -0.8957   -0.4918 H   0  0  0  0  0  0  0  0  0  0  0  0
   -3.4531    2.4684   -1.5262 H   0  0  0  0  0  0  0  0  0  0  0  0
   -4.7319    1.4773   -0.7078 H   0  0  0  0  0  0  0  0  0  0  0  0
   -3.8387    2.7749    0.1732 H   0  0  0  0  0  0  0  0  0  0  0  0
   -4.7080    0.2142    1.5637 H   0  0  0  0  0  0  0  0  0  0  0  0
   -4.0909   -1.4341    1.9106 H   0  0  0  0  0  0  0  0  0  0  0  0
   -3.1514    0.0173    2.4273 H   0  0  0  0  0  0  0  0  0  0  0  0
    4.7087    0.2138    1.5627 H   0  0  0  0  0  0  0  0  0  0  0  0
    3.1525    0.0166    2.4270 H   0  0  0  0  0  0  0  0  0  0  0  0
    4.0917   -1.4346    1.9093 H   0  0  0  0  0  0  0  0  0  0  0  0
    3.4531    2.4689   -1.5257 H   0  0  0  0  0  0  0  0  0  0  0  0
    3.8382    2.7754    0.1739 H   0  0  0  0  0  0  0  0  0  0  0  0
    4.7319    1.4780   -0.7069 H   0  0  0  0  0  0  0  0  0  0  0  0
  3  5  1  0  0  0  0
  4  6  1  0  0  0  0
  7  5  1  1  0  0  0
  7  8  1  0  0  0  0
  8 19  1  6  0  0  0
  8  1  1  0  0  0  0
  8 15  1  0  0  0  0
  9  1  1  0  0  0  0
 10 11  1  0  0  0  0
 10  9  1  0  0  0  0
 10 23  1  0  0  0  0
 11  2  1  0  0  0  0
 12 26  1  6  0  0  0
 12  2  1  0  0  0  0
 12 16  1  0  0  0  0
 13  6  1  1  0  0  0
 13 12  1  0  0  0  0
 14  7  1  0  0  0  0
 14 29  1  0  0  0  0
 15 31  1  0  0  0  0
 15 32  1  0  0  0  0
 16 35  1  0  0  0  0
 16 34  1  0  0  0  0
 17 13  1  0  0  0  0
 17 37  1  0  0  0  0
 18  3  1  0  0  0  0
 20  9  1  0  0  0  0
 21  9  1  0  0  0  0
 22 10  1  0  0  0  0
 24 11  1  0  0  0  0
 25 11  1  0  0  0  0
 27 14  1  0  0  0  0
 28 14  1  0  0  0  0
 30 15  1  0  0  0  0
 33 16  1  0  0  0  0
 36 17  1  0  0  0  0
 38 17  1  0  0  0  0
M  END
