5,6,11,12
q = -2.0, confidence = 0.906

 69 72  0  0  1  0  0  0  0  0999 V2000
   -4.3854   -0.2413   -2.5213 Br  0  0  0  0  0  0  0  0  0  0  0  0
    4.2354   -1.2885    2.4659 Br  0  0  0  0  0  0  0  0  0  0  0  0
    9.3100    0.7482   -0.7986 Cl  0  0  0  0  0  0  0  0  0  0  0  0
   -9.3098    0.2373    1.6693 Cl  0  0  0  0  0  0  0  0  0  0  0  0
    1.5355   -2.8920   -0.9497 S   0  0  0  0  0  1  0  0  0  0  0  0
   -1.5531   -3.0067   -0.1192 S   0  0  0  0  0  1  0  0  0  0  0  0
    0.0644    3.6907   -1.2550 O   0  0  0  0  0  0  0  0  0  0  0  0
    0.2254    3.1814    1.6040 O   0  0  0  0  0  0  0  0  0  0  0  0
    4.0571   -2.0524   -1.1479 N   0  0  0  0  0  0  0  0  0  0  0  0
    2.4536   -0.3434   -1.1462 N   0  0  0  0  0  2  0  0  0  0  0  0
    1.1085   -0.1220   -1.0518 N   0  0  0  0  0  2  0  0  0  0  0  0
   -1.1092   -0.3975    0.7820 N   0  0  0  0  0  2  0  0  0  0  0  0
   -2.4513   -0.6382    0.8626 N   0  0  0  0  0  2  0  0  0  0  0  0
   -4.0525   -2.3098    0.4763 N   0  0  0  0  0  0  0  0  0  0  0  0
    5.2605   -1.3377   -1.0874 C   0  0  0  0  0  0  0  0  0  0  0  0
    5.3326    0.0695   -0.9808 C   0  0  0  0  0  0  0  0  0  0  0  0
    6.5779    0.7020   -0.8929 C   0  0  0  0  0  0  0  0  0  0  0  0
    7.7612   -0.0524   -0.9120 C   0  0  0  0  0  0  0  0  0  0  0  0
    7.7043   -1.4515   -1.0220 C   0  0  0  0  0  0  0  0  0  0  0  0
    6.4616   -2.0842   -1.1096 C   0  0  0  0  0  0  0  0  0  0  0  0
    2.7569   -1.6240   -1.0813 C   0  0  1  0  0  3  0  0  0  0  0  0
    0.7128    1.0657   -1.4618 C   0  0  0  0  0  3  0  0  0  0  0  0
   -0.6682    1.4777   -1.6204 C   0  0  0  0  0  0  0  0  0  0  0  0
   -1.6963    0.5621   -1.9405 C   0  0  0  0  0  0  0  0  0  0  0  0
   -3.0164    1.0026   -2.0768 C   0  0  0  0  0  0  0  0  0  0  0  0
   -3.3428    2.3536   -1.8895 C   0  0  0  0  0  0  0  0  0  0  0  0
   -2.3288    3.2812   -1.5976 C   0  0  0  0  0  0  0  0  0  0  0  0
   -0.9921    2.8636   -1.4885 C   0  0  0  0  0  0  0  0  0  0  0  0
   -0.1401    5.0528   -0.8917 C   0  0  0  0  0  0  0  0  0  0  0  0
   -0.4503    5.2374    0.5963 C   0  0  0  0  0  0  0  0  0  0  0  0
    0.5658    4.5618    1.5137 C   0  0  0  0  0  0  0  0  0  0  0  0
    1.1737    2.2441    1.8658 C   0  0  0  0  0  0  0  0  0  0  0  0
    2.5140    2.5166    2.1876 C   0  0  0  0  0  0  0  0  0  0  0  0
    3.4294    1.4631    2.3584 C   0  0  0  0  0  0  0  0  0  0  0  0
    2.9976    0.1363    2.2233 C   0  0  0  0  0  0  0  0  0  0  0  0
    1.6612   -0.1533    1.9245 C   0  0  0  0  0  0  0  0  0  0  0  0
    0.7319    0.8935    1.7414 C   0  0  0  0  0  0  0  0  0  0  0  0
   -0.6723    0.6262    1.4828 C   0  0  0  0  0  3  0  0  0  0  0  0
   -2.7621   -1.8509    0.4495 C   0  0  2  0  0  3  0  0  0  0  0  0
   -5.2552   -1.6611    0.7839 C   0  0  0  0  0  0  0  0  0  0  0  0
   -5.3373   -0.3093    1.1867 C   0  0  0  0  0  0  0  0  0  0  0  0
   -6.5842    0.2655    1.4579 C   0  0  0  0  0  0  0  0  0  0  0  0
   -7.7588   -0.4923    1.3318 C   0  0  0  0  0  0  0  0  0  0  0  0
   -7.6916   -1.8375    0.9336 C   0  0  0  0  0  0  0  0  0  0  0  0
   -6.4472   -2.4129    0.6638 C   0  0  0  0  0  0  0  0  0  0  0  0
    4.1529   -3.0688   -1.1142 H   0  0  0  0  0  0  0  0  0  0  0  0
   -4.1498   -3.2682    0.1366 H   0  0  0  0  0  0  0  0  0  0  0  0
    4.4010    0.6473   -0.9641 H   0  0  0  0  0  0  0  0  0  0  0  0
    6.6343    1.7963   -0.8062 H   0  0  0  0  0  0  0  0  0  0  0  0
    8.6330   -2.0387   -1.0371 H   0  0  0  0  0  0  0  0  0  0  0  0
    6.4195   -3.1822   -1.1911 H   0  0  0  0  0  0  0  0  0  0  0  0
    1.5111    1.7819   -1.7188 H   0  0  0  0  0  0  0  0  0  0  0  0
   -1.4412   -0.4992   -2.0868 H   0  0  0  0  0  0  0  0  0  0  0  0
   -4.3859    2.6873   -1.9797 H   0  0  0  0  0  0  0  0  0  0  0  0
   -2.6020    4.3355   -1.4576 H   0  0  0  0  0  0  0  0  0  0  0  0
    0.8223    5.5478   -1.1358 H   0  0  0  0  0  0  0  0  0  0  0  0
   -0.9201    5.5272   -1.5268 H   0  0  0  0  0  0  0  0  0  0  0  0
   -0.4649    6.3277    0.8066 H   0  0  0  0  0  0  0  0  0  0  0  0
   -1.4604    4.8505    0.8456 H   0  0  0  0  0  0  0  0  0  0  0  0
    0.5557    5.0142    2.5311 H   0  0  0  0  0  0  0  0  0  0  0  0
    1.5920    4.6828    1.1005 H   0  0  0  0  0  0  0  0  0  0  0  0
    2.8672    3.5500    2.3025 H   0  0  0  0  0  0  0  0  0  0  0  0
    4.4789    1.6794    2.6022 H   0  0  0  0  0  0  0  0  0  0  0  0
    1.3173   -1.1955    1.8436 H   0  0  0  0  0  0  0  0  0  0  0  0
   -1.4380    1.2753    1.9417 H   0  0  0  0  0  0  0  0  0  0  0  0
   -4.4128    0.2728    1.2774 H   0  0  0  0  0  0  0  0  0  0  0  0
   -6.6491    1.3177    1.7691 H   0  0  0  0  0  0  0  0  0  0  0  0
   -8.6135   -2.4275    0.8364 H   0  0  0  0  0  0  0  0  0  0  0  0
   -6.3971   -3.4678    0.3494 H   0  0  0  0  0  0  0  0  0  0  0  0
  1 25  1  0  0  0  0
  7 29  1  0  0  0  0
  8 32  1  0  0  0  0
  9 46  1  0  0  0  0
  9 15  1  0  0  0  0
  9 21  1  0  0  0  0
 10 21  1  0  0  0  0
 10 11  1  0  0  0  0
 12 13  1  0  0  0  0
 12 38  1  0  0  0  0
 14 40  1  0  0  0  0
 15 16  1  0  0  0  0
 16 48  1  0  0  0  0
 16 17  2  0  0  0  0
 17 49  1  0  0  0  0
 18 17  1  0  0  0  0
 18  3  1  0  0  0  0
 19 18  2  0  0  0  0
 20 15  2  0  0  0  0
 20 19  1  0  0  0  0
 21  5  1  6  0  0  0
 22 11  1  0  0  0  0
 23 28  1  0  0  0  0
 23 22  1  0  0  0  0
 24 23  2  0  0  0  0
 25 24  1  0  0  0  0
 25 26  2  0  0  0  0
 26 27  1  0  0  0  0
 27 28  2  0  0  0  0
 27 55  1  0  0  0  0
 28  7  1  0  0  0  0
 29 30  1  0  0  0  0
 30 58  1  0  0  0  0
 30 59  1  0  0  0  0
 30 31  1  0  0  0  0
 31  8  1  0  0  0  0
 31 60  1  0  0  0  0
 32 33  1  0  0  0  0
 33 62  1  0  0  0  0
 33 34  2  0  0  0  0
 34 63  1  0  0  0  0
 35 34  1  0  0  0  0
 35  2  1  0  0  0  0
 36 35  2  0  0  0  0
 37 32  2  0  0  0  0
 37 36  1  0  0  0  0
 38 37  1  0  0  0  0
 38 65  1  0  0  0  0
 39  6  1  1  0  0  0
 39 14  1  0  0  0  0
 39 13  1  0  0  0  0
 40 41  1  0  0  0  0
 41 66  1  0  0  0  0
 41 42  2  0  0  0  0
 42 67  1  0  0  0  0
 43 42  1  0  0  0  0
 43  4  1  0  0  0  0
 44 43  2  0  0  0  0
 45 40  2  0  0  0  0
 45 44  1  0  0  0  0
 47 14  1  0  0  0  0
 50 19  1  0  0  0  0
 51 20  1  0  0  0  0
 52 22  1  0  0  0  0
 53 24  1  0  0  0  0
 54 26  1  0  0  0  0
 56 29  1  0  0  0  0
 57 29  1  0  0  0  0
 61 31  1  0  0  0  0
 64 36  1  0  0  0  0
 68 44  1  0  0  0  0
 69 45  1  0  0  0  0
M  END
