1,2,4,8
q = -2.0, confidence = 0.934

 60 61  0  0  0  0  0  0  0  0999 V2000
   -1.6568   -2.8010   -0.0483 S   0  0  0  0  0  1  0  0  0  0  0  0
    1.6685   -2.7909   -0.1702 S   0  0  0  0  0  1  0  0  0  0  0  0
   -0.9442    3.3414   -1.1816 N   0  0  0  0  0  0  0  0  0  0  0  0
   -1.2559   -0.0128   -0.0677 N   0  0  0  0  0  2  0  0  0  0  0  0
   -2.5795   -0.2260   -0.1239 N   0  0  0  0  0  0  0  0  0  0  0  0
   -4.1998   -1.8639   -0.2367 N   0  0  0  0  0  0  0  0  0  0  0  0
    0.9568    3.3149    1.0631 N   0  0  0  0  0  0  0  0  0  0  0  0
    1.2523   -0.0047   -0.1151 N   0  0  0  0  0  2  0  0  0  0  0  0
    2.5774   -0.2104   -0.0503 N   0  0  0  0  0  0  0  0  0  0  0  0
    4.2045   -1.8417    0.0079 N   0  0  0  0  0  0  0  0  0  0  0  0
   -1.5974    4.4753   -1.4531 C   0  0  0  0  0  0  0  0  0  0  0  0
   -1.0905    5.1781   -2.1392 H   0  0  0  0  0  0  0  0  0  0  0  0
   -2.8581    4.7935   -0.9189 C   0  0  0  0  0  0  0  0  0  0  0  0
   -3.3490    5.7450   -1.1722 H   0  0  0  0  0  0  0  0  0  0  0  0
   -3.4617    3.8639   -0.0590 C   0  0  0  0  0  0  0  0  0  0  0  0
   -4.4465    4.0696    0.3882 H   0  0  0  0  0  0  0  0  0  0  0  0
   -2.7944    2.6684    0.2295 C   0  0  0  0  0  0  0  0  0  0  0  0
   -3.2328    1.9121    0.8909 H   0  0  0  0  0  0  0  0  0  0  0  0
   -1.5238    2.4474   -0.3493 C   0  0  0  0  0  0  0  0  0  0  0  0
   -0.7370    1.2189   -0.1144 C   0  0  0  0  0  0  0  0  0  0  0  0
   -2.8845   -1.5257   -0.1427 C   0  0  0  0  0  0  0  0  0  0  0  0
   -4.6245   -3.2634   -0.2097 C   0  0  0  0  0  0  0  0  0  0  0  0
   -5.5761   -3.3253   -0.7770 H   0  0  0  0  0  0  0  0  0  0  0  0
   -3.8684   -3.8517   -0.7699 H   0  0  0  0  0  0  0  0  0  0  0  0
   -5.2138   -0.8039   -0.2666 C   0  0  0  0  0  0  0  0  0  0  0  0
   -6.1013   -1.2176   -0.7882 H   0  0  0  0  0  0  0  0  0  0  0  0
   -4.8094    0.0240   -0.8812 H   0  0  0  0  0  0  0  0  0  0  0  0
   -4.7916   -3.8463    1.1959 C   0  0  0  0  0  0  0  0  0  0  0  0
   -3.8352   -3.7777    1.7509 H   0  0  0  0  0  0  0  0  0  0  0  0
   -5.0752   -4.9162    1.1317 H   0  0  0  0  0  0  0  0  0  0  0  0
   -5.5762   -3.3182    1.7728 H   0  0  0  0  0  0  0  0  0  0  0  0
   -5.5995   -0.2709    1.1149 C   0  0  0  0  0  0  0  0  0  0  0  0
   -6.0684   -1.0504    1.7470 H   0  0  0  0  0  0  0  0  0  0  0  0
   -6.3202    0.5657    1.0128 H   0  0  0  0  0  0  0  0  0  0  0  0
   -4.7019    0.1094    1.6407 H   0  0  0  0  0  0  0  0  0  0  0  0
    1.6161    4.4430    1.3468 C   0  0  0  0  0  0  0  0  0  0  0  0
    1.1310    5.1232    2.0704 H   0  0  0  0  0  0  0  0  0  0  0  0
    2.8570    4.7815    0.7804 C   0  0  0  0  0  0  0  0  0  0  0  0
    3.3539    5.7265    1.0461 H   0  0  0  0  0  0  0  0  0  0  0  0
    3.4341    3.8812   -0.1282 C   0  0  0  0  0  0  0  0  0  0  0  0
    4.4024    4.1051   -0.6019 H   0  0  0  0  0  0  0  0  0  0  0  0
    2.7601    2.6931   -0.4299 C   0  0  0  0  0  0  0  0  0  0  0  0
    3.1753    1.9582   -1.1303 H   0  0  0  0  0  0  0  0  0  0  0  0
    1.5117    2.4506    0.1854 C   0  0  0  0  0  0  0  0  0  0  0  0
    0.7257    1.2222   -0.0600 C   0  0  0  0  0  0  0  0  0  0  0  0
    2.8886   -1.5090   -0.0601 C   0  0  0  0  0  0  0  0  0  0  0  0
    4.6471   -3.2340    0.0453 C   0  0  0  0  0  0  0  0  0  0  0  0
    5.5556   -3.2761    0.6826 H   0  0  0  0  0  0  0  0  0  0  0  0
    3.8627   -3.8271    0.5580 H   0  0  0  0  0  0  0  0  0  0  0  0
    5.2255   -0.7895    0.0605 C   0  0  0  0  0  0  0  0  0  0  0  0
    4.9129    0.0268   -0.6186 H   0  0  0  0  0  0  0  0  0  0  0  0
    6.1616   -1.2239   -0.3473 H   0  0  0  0  0  0  0  0  0  0  0  0
    4.9250   -3.8124   -1.3427 C   0  0  0  0  0  0  0  0  0  0  0  0
    3.9974   -3.8041   -1.9484 H   0  0  0  0  0  0  0  0  0  0  0  0
    5.2780   -4.8601   -1.2616 H   0  0  0  0  0  0  0  0  0  0  0  0
    5.7017   -3.2298   -1.8789 H   0  0  0  0  0  0  0  0  0  0  0  0
    5.4446   -0.2412    1.4700 C   0  0  0  0  0  0  0  0  0  0  0  0
    4.5132    0.2304    1.8386 H   0  0  0  0  0  0  0  0  0  0  0  0
    6.2450    0.5260    1.4662 H   0  0  0  0  0  0  0  0  0  0  0  0
    5.7414   -1.0432    2.1761 H   0  0  0  0  0  0  0  0  0  0  0  0
  2 46  1  0  0  0  0
  3 19  1  0  0  0  0
  5  4  1  0  0  0  0
  6 22  1  0  0  0  0
  6 21  1  0  0  0  0
  7 36  1  0  0  0  0
  8 45  1  0  0  0  0
  8  9  1  0  0  0  0
 10 47  1  0  0  0  0
 10 50  1  0  0  0  0
 11  3  2  0  0  0  0
 11 13  1  0  0  0  0
 12 11  1  0  0  0  0
 13 15  2  0  0  0  0
 14 13  1  0  0  0  0
 15 17  1  0  0  0  0
 15 16  1  0  0  0  0
 17 18  1  0  0  0  0
 19 20  1  0  0  0  0
 19 17  2  0  0  0  0
 20  4  1  0  0  0  0
 20 45  2  0  0  0  0
 21  5  2  0  0  0  0
 21  1  1  0  0  0  0
 22 28  1  0  0  0  0
 23 22  1  0  0  0  0
 24 22  1  0  0  0  0
 25  6  1  0  0  0  0
 25 32  1  0  0  0  0
 26 25  1  0  0  0  0
 27 25  1  0  0  0  0
 28 29  1  0  0  0  0
 28 31  1  0  0  0  0
 30 28  1  0  0  0  0
 32 35  1  0  0  0  0
 32 33  1  0  0  0  0
 34 32  1  0  0  0  0
 36 37  1  0  0  0  0
 38 39  1  0  0  0  0
 38 36  2  0  0  0  0
 40 38  1  0  0  0  0
 41 40  1  0  0  0  0
 42 40  2  0  0  0  0
 42 44  1  0  0  0  0
 43 42  1  0  0  0  0
 44  7  2  0  0  0  0
 45 44  1  0  0  0  0
 46  9  2  0  0  0  0
 46 10  1  0  0  0  0
 47 49  1  0  0  0  0
 47 48  1  0  0  0  0
 50 57  1  0  0  0  0
 51 50  1  0  0  0  0
 52 50  1  0  0  0  0
 53 55  1  0  0  0  0
 53 47  1  0  0  0  0
 54 53  1  0  0  0  0
 56 53  1  0  0  0  0
 57 58  1  0  0  0  0
 57 60  1  0  0  0  0
 59 57  1  0  0  0  0
M  END
