1,2,3,4
q = -1.0, confidence = 0.002

 38 39  0  0  0  0  0  0  0  0999 V2000
   -1.5741   -1.5692   -0.2182 S   0  0  0  0  0  1  0  0  0  0  0  0
    1.5423   -1.5212    0.3735 S   0  0  0  0  0  0  0  0  0  0  0  0
   -1.3908    1.6304   -0.1377 N   0  0  0  0  0  2  0  0  0  0  0  0
    1.2740    1.6444    0.3344 N   0  0  0  0  0  2  0  0  0  0  0  0
   -3.1967   -0.9238   -0.2217 C   0  0  0  0  0  0  0  0  0  0  0  0
   -3.5836    0.4597   -0.2203 C   0  0  0  0  0  0  0  0  0  0  0  0
   -4.9774    0.7797   -0.2513 C   0  0  0  0  0  3  0  0  0  0  0  0
   -5.2675    1.8419   -0.2538 H   0  0  0  0  0  0  0  0  0  0  0  0
   -5.9560   -0.2023   -0.2798 C   0  0  0  0  0  0  0  0  0  0  0  0
   -7.0199    0.0724   -0.3016 H   0  0  0  0  0  0  0  0  0  0  0  0
   -5.5653   -1.5601   -0.2845 C   0  0  0  0  0  0  0  0  0  0  0  0
   -6.3278   -2.3531   -0.3091 H   0  0  0  0  0  0  0  0  0  0  0  0
   -4.2175   -1.9097   -0.2580 C   0  0  0  0  0  0  0  0  0  0  0  0
   -3.9232   -2.9699   -0.2629 H   0  0  0  0  0  0  0  0  0  0  0  0
   -2.7003    1.5892   -0.2087 C   0  0  0  0  0  0  0  0  0  0  0  0
   -3.2055    2.5725   -0.2719 H   0  0  0  0  0  0  0  0  0  0  0  0
   -0.7060    2.9315   -0.2236 C   0  0  0  0  0  0  0  0  0  0  0  0
   -1.3773    3.7515    0.1034 H   0  0  0  0  0  0  0  0  0  0  0  0
   -0.4236    3.1157   -1.2826 H   0  0  0  0  0  0  0  0  0  0  0  0
    0.5520    2.8884    0.6406 C   0  0  0  0  0  0  0  0  0  0  0  0
    1.1900    3.7782    0.4619 H   0  0  0  0  0  0  0  0  0  0  0  0
    0.2692    2.8664    1.7147 H   0  0  0  0  0  0  0  0  0  0  0  0
    2.5725    1.6623    0.2209 C   0  0  0  0  0  3  0  0  0  0  0  0
    3.0780    2.6391    0.3509 H   0  0  0  0  0  0  0  0  0  0  0  0
    3.4525    0.5546   -0.1242 C   0  0  0  0  0  0  0  0  0  0  0  0
    3.1113   -0.8282   -0.1709 C   0  0  0  0  0  0  0  0  0  0  0  0
    1.8001   -1.5684    2.1890 C   0  0  0  0  0  0  0  0  0  0  0  0
    2.6433   -2.2534    2.3972 H   0  0  0  0  0  0  0  0  0  0  0  0
    0.8619   -1.9709    2.6154 H   0  0  0  0  0  0  0  0  0  0  0  0
    1.9979   -0.5547    2.5817 H   0  0  0  0  0  0  0  0  0  0  0  0
    4.0443   -1.7799   -0.6097 C   0  0  0  0  0  0  0  0  0  0  0  0
    3.7518   -2.8400   -0.6498 H   0  0  0  0  0  0  0  0  0  0  0  0
    5.3400   -1.3901   -0.9859 C   0  0  0  0  0  0  0  0  0  0  0  0
    6.0594   -2.1481   -1.3286 H   0  0  0  0  0  0  0  0  0  0  0  0
    5.7080   -0.0386   -0.9146 C   0  0  0  0  0  0  0  0  0  0  0  0
    6.7224    0.2770   -1.1979 H   0  0  0  0  0  0  0  0  0  0  0  0
    4.7768    0.9128   -0.4875 C   0  0  0  0  0  0  0  0  0  0  0  0
    5.0647    1.9747   -0.4453 H   0  0  0  0  0  0  0  0  0  0  0  0
  2 27  1  0  0  0  0
  4 20  1  0  0  0  0
  5  6  1  0  0  0  0
  5  1  1  0  0  0  0
  6 15  2  0  0  0  0
  7  6  1  0  0  0  0
  8  7  1  0  0  0  0
  9  7  1  0  0  0  0
 10  9  1  0  0  0  0
 11  9  2  0  0  0  0
 11 13  1  0  0  0  0
 12 11  1  0  0  0  0
 13  5  2  0  0  0  0
 14 13  1  0  0  0  0
 15  3  1  0  0  0  0
 16 15  1  0  0  0  0
 17  3  1  0  0  0  0
 17 18  1  0  0  0  0
 17 20  1  0  0  0  0
 19 17  1  0  0  0  0
 20 22  1  0  0  0  0
 21 20  1  0  0  0  0
 23  4  1  0  0  0  0
 23 24  1  0  0  0  0
 25 23  1  0  0  0  0
 26 25  1  0  0  0  0
 26  2  1  0  0  0  0
 27 28  1  0  0  0  0
 27 30  1  0  0  0  0
 27 29  1  0  0  0  0
 31 26  2  0  0  0  0
 32 31  1  0  0  0  0
 33 35  2  0  0  0  0
 33 31  1  0  0  0  0
 34 33  1  0  0  0  0
 35 37  1  0  0  0  0
 36 35  1  0  0  0  0
 37 38  1  0  0  0  0
 37 25  2  0  0  0  0
M  END
