1,2,4,5
q = -1.0, confidence = 0.396

 42 41  0  0  0  0  0  0  0  0999 V2000
   -3.5605   -0.8358    0.1284 S   0  0  0  0  0  1  0  0  0  0  0  0
   -0.7294   -2.1564    0.9144 S   0  0  0  0  0  1  0  0  0  0  0  0
   -0.9789    3.4320    1.1248 O   0  0  0  0  0  0  0  0  0  0  0  0
    0.6927    0.4020    0.0410 N   0  0  0  0  0  0  0  0  0  0  0  0
   -1.8178    1.4124    0.3563 N   0  0  0  0  0  2  0  0  0  0  0  0
    3.8949    0.1688   -0.0335 N   0  0  0  0  0  0  0  0  0  0  0  0
    1.1457   -0.1633    1.3592 C   0  0  0  0  0  0  0  0  0  0  0  0
    1.0021   -1.6722    1.3875 C   0  0  0  0  0  0  0  0  0  0  0  0
    0.5642    1.8791    0.1191 C   0  0  0  0  0  0  0  0  0  0  0  0
   -4.1936    0.9113    0.1064 C   0  0  0  0  0  0  0  0  0  0  0  0
   -0.8158    2.3334    0.6062 C   0  0  0  0  0  0  0  0  0  0  0  0
   -3.1726    1.7881    0.8132 C   0  0  0  0  0  0  0  0  0  0  0  0
    3.0065    0.6009   -1.1062 C   0  0  0  0  0  0  0  0  0  0  0  0
    1.5975   -0.0070   -1.0910 C   0  0  0  0  0  0  0  0  0  0  0  0
    4.4367   -1.1719   -0.2558 C   0  0  0  0  0  0  0  0  0  0  0  0
    4.8786    1.1818    0.3610 C   0  0  0  0  0  0  0  0  0  0  0  0
    5.9658    1.5229   -0.6675 C   0  0  0  0  0  0  0  0  0  0  0  0
    5.0624   -1.7999    0.9859 C   0  0  0  0  0  0  0  0  0  0  0  0
    2.2015    0.1408    1.5200 H   0  0  0  0  0  0  0  0  0  0  0  0
    0.4938    0.2869    2.1356 H   0  0  0  0  0  0  0  0  0  0  0  0
    1.1697   -2.0432    2.4182 H   0  0  0  0  0  0  0  0  0  0  0  0
    1.7431   -2.1780    0.7354 H   0  0  0  0  0  0  0  0  0  0  0  0
    0.6965    2.2986   -0.8994 H   0  0  0  0  0  0  0  0  0  0  0  0
    1.3387    2.3310    0.7721 H   0  0  0  0  0  0  0  0  0  0  0  0
   -4.3346    1.2251   -0.9486 H   0  0  0  0  0  0  0  0  0  0  0  0
   -5.1762    0.9369    0.6177 H   0  0  0  0  0  0  0  0  0  0  0  0
   -3.3295    2.8687    0.6130 H   0  0  0  0  0  0  0  0  0  0  0  0
   -3.2400    1.6494    1.9153 H   0  0  0  0  0  0  0  0  0  0  0  0
    3.4222    0.3790   -2.1246 H   0  0  0  0  0  0  0  0  0  0  0  0
    2.9248    1.7065   -1.0623 H   0  0  0  0  0  0  0  0  0  0  0  0
    1.6302   -1.1126   -1.1026 H   0  0  0  0  0  0  0  0  0  0  0  0
    1.0819    0.2866   -2.0247 H   0  0  0  0  0  0  0  0  0  0  0  0
    5.1732   -1.1869   -1.1023 H   0  0  0  0  0  0  0  0  0  0  0  0
    3.5974   -1.8158   -0.5922 H   0  0  0  0  0  0  0  0  0  0  0  0
    5.3543    0.8496    1.3072 H   0  0  0  0  0  0  0  0  0  0  0  0
    4.3121    2.1022    0.6224 H   0  0  0  0  0  0  0  0  0  0  0  0
    6.6313    2.3175   -0.2744 H   0  0  0  0  0  0  0  0  0  0  0  0
    5.5329    1.8930   -1.6194 H   0  0  0  0  0  0  0  0  0  0  0  0
    6.6029    0.6469   -0.9050 H   0  0  0  0  0  0  0  0  0  0  0  0
    5.3578   -2.8470    0.7770 H   0  0  0  0  0  0  0  0  0  0  0  0
    4.3441   -1.8049    1.8309 H   0  0  0  0  0  0  0  0  0  0  0  0
    5.9741   -1.2634    1.3168 H   0  0  0  0  0  0  0  0  0  0  0  0
  2  8  1  0  0  0  0
  4  9  1  0  0  0  0
  4  7  1  0  0  0  0
  5 11  1  0  0  0  0
  5 12  1  0  0  0  0
  6 16  1  0  0  0  0
  7  8  1  0  0  0  0
  7 19  1  0  0  0  0
  7 20  1  0  0  0  0
  8 21  1  0  0  0  0
  9 11  1  0  0  0  0
  9 24  1  0  0  0  0
 10  1  1  0  0  0  0
 10 26  1  0  0  0  0
 10 12  1  0  0  0  0
 11  3  2  0  0  0  0
 12 28  1  0  0  0  0
 13 14  1  0  0  0  0
 13 30  1  0  0  0  0
 13  6  1  0  0  0  0
 14  4  1  0  0  0  0
 15  6  1  0  0  0  0
 15 18  1  0  0  0  0
 16 36  1  0  0  0  0
 16 35  1  0  0  0  0
 17 37  1  0  0  0  0
 17 16  1  0  0  0  0
 18 42  1  0  0  0  0
 18 41  1  0  0  0  0
 22  8  1  0  0  0  0
 23  9  1  0  0  0  0
 25 10  1  0  0  0  0
 27 12  1  0  0  0  0
 29 13  1  0  0  0  0
 31 14  1  0  0  0  0
 32 14  1  0  0  0  0
 33 15  1  0  0  0  0
 34 15  1  0  0  0  0
 38 17  1  0  0  0  0
 39 17  1  0  0  0  0
 40 18  1  0  0  0  0
M  END
