1,2,3,4
q = 0.0, confidence = 0.998

 59 59  0  0  1  0  0  0  0  0999 V2000
   -0.1756   -1.1661    2.3196 S   0  0  0  0  0  0  0  0  0  0  0  0
    1.6224   -1.8339   -1.3500 S   0  0  0  0  0  0  0  0  0  0  0  0
   -1.1151   -2.9249   -0.1336 N   0  0  0  0  0  0  0  0  0  0  0  0
   -2.1468   -0.4398   -0.9115 N   0  0  0  0  0  2  0  0  0  0  0  0
   -2.0239    1.8813   -0.6422 N   0  0  0  0  0  0  0  0  0  0  0  0
   -1.9158    0.1226    4.1220 C   0  0  0  0  0  0  0  0  0  0  0  0
   -1.5632    0.0047    2.6485 C   0  0  0  0  0  0  0  0  0  0  0  0
   -1.0008   -2.7989    2.3866 C   0  0  0  0  0  0  0  0  0  0  0  0
   -1.8306   -3.1225    1.1431 C   0  0  0  0  0  0  0  0  0  0  0  0
    4.1711   -2.6721   -0.5330 C   0  0  0  0  0  0  0  0  0  0  0  0
    4.0193   -3.7000   -0.9202 H   0  0  0  0  0  0  0  0  0  0  0  0
    4.9042   -2.7353    0.2965 H   0  0  0  0  0  0  0  0  0  0  0  0
    4.6222   -2.0570   -1.3355 H   0  0  0  0  0  0  0  0  0  0  0  0
    2.8874   -2.0415   -0.0194 C   0  0  0  0  0  0  0  0  0  0  0  0
    3.0549   -1.0100    0.3477 H   0  0  0  0  0  0  0  0  0  0  0  0
    2.4232   -2.6123    0.8108 H   0  0  0  0  0  0  0  0  0  0  0  0
    0.9273   -3.5290   -1.4710 C   0  0  0  0  0  0  0  0  0  0  0  0
   -0.0380   -3.9069   -0.3466 C   0  0  0  0  0  0  0  0  0  0  0  0
   -2.0664   -2.8501   -1.2575 C   0  0  0  0  0  0  0  0  0  0  0  0
   -2.8504   -1.5541   -1.2508 C   0  0  2  0  0  3  0  0  0  0  0  0
   -4.1878   -1.5190   -1.6277 C   0  0  0  0  0  0  0  0  0  0  0  0
   -4.8259   -0.2582   -1.6839 C   0  0  0  0  0  0  0  0  0  0  0  0
   -4.1241    0.8913   -1.3651 C   0  0  0  0  0  0  0  0  0  0  0  0
   -2.7496    0.7982   -0.9688 C   0  0  0  0  0  0  0  0  0  0  0  0
   -2.5522    3.2382   -0.6291 C   0  0  0  0  0  0  0  0  0  0  0  0
   -1.5172    4.2857   -0.1615 C   0  0  0  0  0  0  0  0  0  0  0  0
   -1.0275    3.9585    1.2629 C   0  0  0  0  0  0  0  0  0  0  0  0
   -2.2299    5.6501   -0.1609 C   0  0  0  0  0  0  0  0  0  0  0  0
   -0.3235    4.3303   -1.1346 C   0  0  0  0  0  0  0  0  0  0  0  0
   -2.2880   -0.8330    4.5435 H   0  0  0  0  0  0  0  0  0  0  0  0
   -2.7210    0.8744    4.2509 H   0  0  0  0  0  0  0  0  0  0  0  0
   -1.0439    0.4485    4.7216 H   0  0  0  0  0  0  0  0  0  0  0  0
   -2.4288   -0.3003    2.0247 H   0  0  0  0  0  0  0  0  0  0  0  0
   -1.1780    0.9534    2.2231 H   0  0  0  0  0  0  0  0  0  0  0  0
   -1.6405   -2.8454    3.2903 H   0  0  0  0  0  0  0  0  0  0  0  0
   -0.1810   -3.5265    2.5515 H   0  0  0  0  0  0  0  0  0  0  0  0
   -1.0147    1.7303   -0.4076 H   0  0  0  0  0  0  0  0  0  0  0  0
   -2.7262   -2.4687    1.1159 H   0  0  0  0  0  0  0  0  0  0  0  0
   -2.2088   -4.1693    1.2229 H   0  0  0  0  0  0  0  0  0  0  0  0
    0.4501   -3.5699   -2.4703 H   0  0  0  0  0  0  0  0  0  0  0  0
    1.7716   -4.2457   -1.5025 H   0  0  0  0  0  0  0  0  0  0  0  0
    0.5290   -3.9958    0.6009 H   0  0  0  0  0  0  0  0  0  0  0  0
   -0.4580   -4.9192   -0.5582 H   0  0  0  0  0  0  0  0  0  0  0  0
   -1.4876   -2.8961   -2.2036 H   0  0  0  0  0  0  0  0  0  0  0  0
   -2.7618   -3.7192   -1.2668 H   0  0  0  0  0  0  0  0  0  0  0  0
   -4.7203   -2.4452   -1.8823 H   0  0  0  0  0  0  0  0  0  0  0  0
   -5.8823   -0.1880   -1.9834 H   0  0  0  0  0  0  0  0  0  0  0  0
   -4.6076    1.8741   -1.4146 H   0  0  0  0  0  0  0  0  0  0  0  0
   -2.9091    3.5162   -1.6476 H   0  0  0  0  0  0  0  0  0  0  0  0
   -3.4392    3.2850    0.0437 H   0  0  0  0  0  0  0  0  0  0  0  0
   -1.8779    3.8835    1.9726 H   0  0  0  0  0  0  0  0  0  0  0  0
   -0.4558    3.0088    1.2900 H   0  0  0  0  0  0  0  0  0  0  0  0
   -0.3541    4.7584    1.6305 H   0  0  0  0  0  0  0  0  0  0  0  0
   -3.0903    5.6591    0.5395 H   0  0  0  0  0  0  0  0  0  0  0  0
   -1.5319    6.4510    0.1537 H   0  0  0  0  0  0  0  0  0  0  0  0
   -2.6069    5.9116   -1.1709 H   0  0  0  0  0  0  0  0  0  0  0  0
    0.4005    5.1087   -0.8217 H   0  0  0  0  0  0  0  0  0  0  0  0
    0.2272    3.3691   -1.1667 H   0  0  0  0  0  0  0  0  0  0  0  0
   -0.6556    4.5734   -2.1648 H   0  0  0  0  0  0  0  0  0  0  0  0
  1  8  1  0  0  0  0
  1  7  1  0  0  0  0
  2 14  1  0  0  0  0
  3  9  1  0  0  0  0
  5 25  1  0  0  0  0
  5 37  1  0  0  0  0
  6 31  1  0  0  0  0
  6 30  1  0  0  0  0
  6 32  1  0  0  0  0
  7  6  1  0  0  0  0
  8 36  1  0  0  0  0
  8 35  1  0  0  0  0
  9 39  1  0  0  0  0
  9  8  1  0  0  0  0
 10 14  1  0  0  0  0
 10 12  1  0  0  0  0
 11 10  1  0  0  0  0
 13 10  1  0  0  0  0
 14 15  1  0  0  0  0
 14 16  1  0  0  0  0
 17  2  1  0  0  0  0
 17 18  1  0  0  0  0
 18  3  1  0  0  0  0
 18 42  1  0  0  0  0
 19  3  1  0  0  0  0
 20 19  1  6  0  0  0
 20  4  1  0  0  0  0
 21 20  1  0  0  0  0
 22 21  2  0  0  0  0
 22 23  1  0  0  0  0
 23 24  2  0  0  0  0
 24  4  1  0  0  0  0
 24  5  1  0  0  0  0
 25 26  1  0  0  0  0
 25 50  1  0  0  0  0
 26 28  1  0  0  0  0
 26 27  1  0  0  0  0
 27 52  1  0  0  0  0
 27 53  1  0  0  0  0
 27 51  1  0  0  0  0
 28 55  1  0  0  0  0
 28 54  1  0  0  0  0
 29 57  1  0  0  0  0
 29 26  1  0  0  0  0
 33  7  1  0  0  0  0
 34  7  1  0  0  0  0
 38  9  1  0  0  0  0
 40 17  1  0  0  0  0
 41 17  1  0  0  0  0
 43 18  1  0  0  0  0
 44 19  1  0  0  0  0
 45 19  1  0  0  0  0
 46 21  1  0  0  0  0
 47 22  1  0  0  0  0
 48 23  1  0  0  0  0
 49 25  1  0  0  0  0
 56 28  1  0  0  0  0
 58 29  1  0  0  0  0
 59 29  1  0  0  0  0
M  END
