1,2,3,6
q = 0.0, confidence = 0.99

 71 72  0  0  0  0  0  0  0  0999 V2000
   -1.2584   -1.8292   -1.5459 S   0  0  0  0  0  0  0  0  0  0  0  0
    1.1052   -1.9622    1.4194 S   0  0  0  0  0  0  0  0  0  0  0  0
   -1.7488    0.3616    0.4612 N   0  0  0  0  0  2  0  0  0  0  0  0
   -2.6961    2.5539    0.2797 N   0  0  0  0  0  0  0  0  0  0  0  0
   -0.9472    2.1082    1.7827 N   0  0  0  0  0  0  0  0  0  0  0  0
    1.8204    0.2581   -0.4769 N   0  0  0  0  0  2  0  0  0  0  0  0
    1.1696    2.0928   -1.7608 N   0  0  0  0  0  0  0  0  0  0  0  0
    2.9221    2.3716   -0.2229 N   0  0  0  0  0  0  0  0  0  0  0  0
   -1.8167    1.6421    0.8289 C   0  0  0  0  0  3  0  0  0  0  0  0
   -3.3844    3.5506    1.0909 C   0  0  0  0  0  0  0  0  0  0  0  0
   -3.0534    3.4826    2.1422 H   0  0  0  0  0  0  0  0  0  0  0  0
   -4.4815    3.3662    1.0615 H   0  0  0  0  0  0  0  0  0  0  0  0
   -3.2040    4.5837    0.7233 H   0  0  0  0  0  0  0  0  0  0  0  0
   -3.2364    2.3597   -1.0563 C   0  0  0  0  0  0  0  0  0  0  0  0
   -2.5716    1.6993   -1.6410 H   0  0  0  0  0  0  0  0  0  0  0  0
   -3.3034    3.3424   -1.5683 H   0  0  0  0  0  0  0  0  0  0  0  0
   -4.2499    1.9014   -1.0400 H   0  0  0  0  0  0  0  0  0  0  0  0
   -0.2895    1.1638    2.6707 C   0  0  0  0  0  0  0  0  0  0  0  0
   -0.9572    0.3089    2.8774 H   0  0  0  0  0  0  0  0  0  0  0  0
   -0.0357    1.6723    3.6219 H   0  0  0  0  0  0  0  0  0  0  0  0
    0.6403    0.7543    2.2143 H   0  0  0  0  0  0  0  0  0  0  0  0
   -0.3768    3.4468    1.7494 C   0  0  0  0  0  0  0  0  0  0  0  0
   -0.7988    4.0201    0.9070 H   0  0  0  0  0  0  0  0  0  0  0  0
    0.7253    3.3865    1.6105 H   0  0  0  0  0  0  0  0  0  0  0  0
   -0.5740    3.9997    2.6920 H   0  0  0  0  0  0  0  0  0  0  0  0
   -2.9051   -0.3639    0.1461 C   0  0  0  0  0  0  0  0  0  0  0  0
   -4.1577   -0.1116    0.7638 C   0  0  0  0  0  0  0  0  0  0  0  0
   -4.2294    0.6912    1.5125 H   0  0  0  0  0  0  0  0  0  0  0  0
   -5.2854   -0.8810    0.4631 C   0  0  0  0  0  0  0  0  0  0  0  0
   -6.2389   -0.6630    0.9669 H   0  0  0  0  0  0  0  0  0  0  0  0
   -5.2053   -1.9306   -0.4692 C   0  0  0  0  0  0  0  0  0  0  0  0
   -6.0934   -2.5293   -0.7169 H   0  0  0  0  0  0  0  0  0  0  0  0
   -3.9775   -2.2078   -1.0812 C   0  0  0  0  0  0  0  0  0  0  0  0
   -3.9039   -3.0192   -1.8214 H   0  0  0  0  0  0  0  0  0  0  0  0
   -2.8313   -1.4576   -0.7624 C   0  0  0  0  0  0  0  0  0  0  0  0
   -1.0151   -3.5959   -1.0641 C   0  0  0  0  0  0  0  0  0  0  0  0
   -1.9283   -4.1307   -1.3905 H   0  0  0  0  0  0  0  0  0  0  0  0
   -0.1897   -3.9371   -1.7231 H   0  0  0  0  0  0  0  0  0  0  0  0
   -0.7187   -3.8929    0.4066 C   0  0  0  0  0  0  0  0  0  0  0  0
   -0.9553   -4.9681    0.5614 H   0  0  0  0  0  0  0  0  0  0  0  0
   -1.4307   -3.3429    1.0605 H   0  0  0  0  0  0  0  0  0  0  0  0
    0.7276   -3.6967    0.8754 C   0  0  0  0  0  0  0  0  0  0  0  0
    1.4539   -3.9467    0.0763 H   0  0  0  0  0  0  0  0  0  0  0  0
    0.9370   -4.3486    1.7454 H   0  0  0  0  0  0  0  0  0  0  0  0
    1.9876    1.5394   -0.8069 C   0  0  0  0  0  3  0  0  0  0  0  0
    0.4599    1.2217   -2.6828 C   0  0  0  0  0  0  0  0  0  0  0  0
    1.0795    0.3404   -2.9266 H   0  0  0  0  0  0  0  0  0  0  0  0
    0.2343    1.7807   -3.6123 H   0  0  0  0  0  0  0  0  0  0  0  0
   -0.4913    0.8458   -2.2399 H   0  0  0  0  0  0  0  0  0  0  0  0
    0.6839    3.4630   -1.6877 C   0  0  0  0  0  0  0  0  0  0  0  0
    1.1388    3.9839   -0.8285 H   0  0  0  0  0  0  0  0  0  0  0  0
   -0.4205    3.4683   -1.5516 H   0  0  0  0  0  0  0  0  0  0  0  0
    0.9183    4.0298   -2.6133 H   0  0  0  0  0  0  0  0  0  0  0  0
    3.6864    3.3403   -0.9993 C   0  0  0  0  0  0  0  0  0  0  0  0
    3.3653    3.3215   -2.0557 H   0  0  0  0  0  0  0  0  0  0  0  0
    4.7683    3.0822   -0.9619 H   0  0  0  0  0  0  0  0  0  0  0  0
    3.5706    4.3734   -0.6065 H   0  0  0  0  0  0  0  0  0  0  0  0
    3.4309    2.1082    1.1134 C   0  0  0  0  0  0  0  0  0  0  0  0
    2.7172    1.4781    1.6733 H   0  0  0  0  0  0  0  0  0  0  0  0
    3.5554    3.0709    1.6521 H   0  0  0  0  0  0  0  0  0  0  0  0
    4.4124    1.5847    1.0966 H   0  0  0  0  0  0  0  0  0  0  0  0
    2.9114   -0.5604   -0.1516 C   0  0  0  0  0  0  0  0  0  0  0  0
    4.1979   -0.3841   -0.7223 C   0  0  0  0  0  0  0  0  0  0  0  0
    4.3554    0.4391   -1.4350 H   0  0  0  0  0  0  0  0  0  0  0  0
    5.2519   -1.2541   -0.4261 C   0  0  0  0  0  0  0  0  0  0  0  0
    6.2343   -1.0920   -0.8943 H   0  0  0  0  0  0  0  0  0  0  0  0
    5.0604   -2.3340    0.4531 C   0  0  0  0  0  0  0  0  0  0  0  0
    5.8896   -3.0147    0.6934 H   0  0  0  0  0  0  0  0  0  0  0  0
    3.7974   -2.5364    1.0226 C   0  0  0  0  0  0  0  0  0  0  0  0
    3.6339   -3.3707    1.7210 H   0  0  0  0  0  0  0  0  0  0  0  0
    2.7263   -1.6795    0.7103 C   0  0  0  0  0  0  0  0  0  0  0  0
  1 36  1  0  0  0  0
  1 35  1  0  0  0  0
  3  9  1  0  0  0  0
  4  9  1  0  0  0  0
  4 10  1  0  0  0  0
  5 18  1  0  0  0  0
  6 62  1  0  0  0  0
  7 50  1  0  0  0  0
  7 45  1  0  0  0  0
  8 58  1  0  0  0  0
  9  5  1  0  0  0  0
 10 11  1  0  0  0  0
 12 10  1  0  0  0  0
 13 10  1  0  0  0  0
 14 17  1  0  0  0  0
 14  4  1  0  0  0  0
 15 14  1  0  0  0  0
 16 14  1  0  0  0  0
 18 19  1  0  0  0  0
 18 20  1  0  0  0  0
 21 18  1  0  0  0  0
 22  5  1  0  0  0  0
 22 25  1  0  0  0  0
 23 22  1  0  0  0  0
 24 22  1  0  0  0  0
 26  3  1  0  0  0  0
 26 27  1  0  0  0  0
 27 28  1  0  0  0  0
 29 27  2  0  0  0  0
 29 30  1  0  0  0  0
 31 29  1  0  0  0  0
 32 31  1  0  0  0  0
 33 35  1  0  0  0  0
 33 31  2  0  0  0  0
 34 33  1  0  0  0  0
 35 26  2  0  0  0  0
 36 39  1  0  0  0  0
 37 36  1  0  0  0  0
 38 36  1  0  0  0  0
 39 40  1  0  0  0  0
 39 42  1  0  0  0  0
 39 41  1  0  0  0  0
 42  2  1  0  0  0  0
 42 44  1  0  0  0  0
 43 42  1  0  0  0  0
 45  6  1  0  0  0  0
 45  8  1  0  0  0  0
 46 49  1  0  0  0  0
 46  7  1  0  0  0  0
 47 46  1  0  0  0  0
 48 46  1  0  0  0  0
 50 52  1  0  0  0  0
 50 51  1  0  0  0  0
 53 50  1  0  0  0  0
 54 56  1  0  0  0  0
 54 57  1  0  0  0  0
 54  8  1  0  0  0  0
 55 54  1  0  0  0  0
 58 60  1  0  0  0  0
 58 59  1  0  0  0  0
 61 58  1  0  0  0  0
 62 71  1  0  0  0  0
 63 65  1  0  0  0  0
 63 62  2  0  0  0  0
 64 63  1  0  0  0  0
 65 67  2  0  0  0  0
 66 65  1  0  0  0  0
 67 68  1  0  0  0  0
 67 69  1  0  0  0  0
 69 70  1  0  0  0  0
 71 69  2  0  0  0  0
 71  2  1  0  0  0  0
M  END
