1,2,4,5
q = -2.0, confidence = 0.942

 35 35  0  0  0  0  0  0  0  0999 V2000
    1.0572   -2.5092   -0.3019 S   0  0  0  0  0  1  0  0  0  0  0  0
   -2.1455   -1.4549   -0.0738 S   0  0  0  0  0  3  0  0  0  0  0  0
   -2.6291   -1.2889    1.3865 O   0  0  0  0  0  0  0  0  0  0  0  0
    1.8730    0.5466    0.0127 N   0  0  0  0  0  0  0  0  0  0  0  0
   -1.0278    1.4434    0.0637 N   0  0  0  0  0  0  0  0  0  0  0  0
    2.5957   -1.8247    0.4444 C   0  0  0  0  0  0  0  0  0  0  0  0
    2.9498   -0.4744   -0.1625 C   0  0  0  0  0  0  0  0  0  0  0  0
    1.9939    1.6536   -0.9798 C   0  0  0  0  0  0  0  0  0  0  0  0
    0.7028    1.9388   -1.7544 C   0  0  0  0  0  0  0  0  0  0  0  0
   -0.5433    2.3907   -0.9836 C   0  0  0  0  0  0  0  0  0  0  0  0
    1.8395    1.0530    1.4090 C   0  0  0  0  0  0  0  0  0  0  0  0
    0.8215    2.1676    1.6691 C   0  0  0  0  0  0  0  0  0  0  0  0
   -0.6596    1.8610    1.4451 C   0  0  0  0  0  0  0  0  0  0  0  0
   -2.5098    1.2413   -0.0064 C   0  0  0  0  0  0  0  0  0  0  0  0
   -2.8646    0.0904   -0.9201 C   0  0  0  0  0  0  0  0  0  0  0  0
    3.4260   -2.5327    0.2373 H   0  0  0  0  0  0  0  0  0  0  0  0
    2.5053   -1.7609    1.5504 H   0  0  0  0  0  0  0  0  0  0  0  0
    3.9063   -0.0731    0.2567 H   0  0  0  0  0  0  0  0  0  0  0  0
    3.0804   -0.6172   -1.2530 H   0  0  0  0  0  0  0  0  0  0  0  0
    2.7652    1.3614   -1.7188 H   0  0  0  0  0  0  0  0  0  0  0  0
    2.3792    2.5723   -0.4851 H   0  0  0  0  0  0  0  0  0  0  0  0
    0.4393    1.0194   -2.3205 H   0  0  0  0  0  0  0  0  0  0  0  0
    0.9299    2.7281   -2.5046 H   0  0  0  0  0  0  0  0  0  0  0  0
   -0.3948    3.3983   -0.5316 H   0  0  0  0  0  0  0  0  0  0  0  0
   -1.3571    2.5071   -1.7265 H   0  0  0  0  0  0  0  0  0  0  0  0
    2.8534    1.4405    1.6793 H   0  0  0  0  0  0  0  0  0  0  0  0
    1.6309    0.1878    2.0699 H   0  0  0  0  0  0  0  0  0  0  0  0
    1.1090    3.0805    1.1073 H   0  0  0  0  0  0  0  0  0  0  0  0
    0.9264    2.4515    2.7367 H   0  0  0  0  0  0  0  0  0  0  0  0
   -0.9931    1.0374    2.1099 H   0  0  0  0  0  0  0  0  0  0  0  0
   -1.2452    2.7729    1.7185 H   0  0  0  0  0  0  0  0  0  0  0  0
   -3.0158    2.1956   -0.2781 H   0  0  0  0  0  0  0  0  0  0  0  0
   -2.8538    0.9403    1.0064 H   0  0  0  0  0  0  0  0  0  0  0  0
   -3.9640   -0.0481   -0.9856 H   0  0  0  0  0  0  0  0  0  0  0  0
   -2.4341    0.1602   -1.9405 H   0  0  0  0  0  0  0  0  0  0  0  0
  1  6  1  0  0  0  0
  2  3  2  0  0  0  0
  4 11  1  0  0  0  0
  5 13  1  0  0  0  0
  6 17  1  0  0  0  0
  7  4  1  0  0  0  0
  7 18  1  0  0  0  0
  7  6  1  0  0  0  0
  8 21  1  0  0  0  0
  8  4  1  0  0  0  0
  9 10  1  0  0  0  0
  9  8  1  0  0  0  0
 10 24  1  0  0  0  0
 10  5  1  0  0  0  0
 11 12  1  0  0  0  0
 11 26  1  0  0  0  0
 11 27  1  0  0  0  0
 12 29  1  0  0  0  0
 13 12  1  0  0  0  0
 13 31  1  0  0  0  0
 13 30  1  0  0  0  0
 14  5  1  0  0  0  0
 14 33  1  0  0  0  0
 15  2  1  0  0  0  0
 15 14  1  0  0  0  0
 16  6  1  0  0  0  0
 19  7  1  0  0  0  0
 20  8  1  0  0  0  0
 22  9  1  0  0  0  0
 23  9  1  0  0  0  0
 25 10  1  0  0  0  0
 28 12  1  0  0  0  0
 32 14  1  0  0  0  0
 34 15  1  0  0  0  0
 35 15  1  0  0  0  0
M  END
