1,2,21,24
q = -2.0, confidence = 0.854

 34 34  0  0  0  0  0  0  0  0999 V2000
    1.6673   -2.1913   -0.1292 S   0  0  0  0  0  1  0  0  0  0  0  0
    1.4839    0.9409   -0.0520 N   0  0  0  0  0  0  0  0  0  0  0  0
    2.9311   -1.0313    0.5299 C   0  0  0  0  0  0  0  0  0  0  0  0
    2.8391    0.3091   -0.1773 C   0  0  0  0  0  0  0  0  0  0  0  0
    1.3341    1.5268    1.3060 C   0  0  0  0  0  0  0  0  0  0  0  0
    0.0001    2.2117    1.6516 C   0  0  0  0  0  0  0  0  0  0  0  0
    1.3165    1.9024   -1.1709 C   0  0  0  0  0  0  0  0  0  0  0  0
    0.0000    2.6837   -1.2508 C   0  0  0  0  0  0  0  0  0  0  0  0
    3.9360   -1.4658    0.3430 H   0  0  0  0  0  0  0  0  0  0  0  0
    2.8369   -0.9175    1.6323 H   0  0  0  0  0  0  0  0  0  0  0  0
    3.6050    1.0367    0.1897 H   0  0  0  0  0  0  0  0  0  0  0  0
    3.0132    0.1409   -1.2580 H   0  0  0  0  0  0  0  0  0  0  0  0
    2.1493    2.2745    1.4706 H   0  0  0  0  0  0  0  0  0  0  0  0
    1.5162    0.6930    2.0118 H   0  0  0  0  0  0  0  0  0  0  0  0
    0.0002    3.2481    1.2698 H   0  0  0  0  0  0  0  0  0  0  0  0
    0.0002    2.3278    2.7557 H   0  0  0  0  0  0  0  0  0  0  0  0
    1.4396    1.2998   -2.0928 H   0  0  0  0  0  0  0  0  0  0  0  0
    2.1551    2.6411   -1.1462 H   0  0  0  0  0  0  0  0  0  0  0  0
    0.0000    3.1718   -2.2482 H   0  0  0  0  0  0  0  0  0  0  0  0
    0.0000    3.5251   -0.5356 H   0  0  0  0  0  0  0  0  0  0  0  0
   -1.6675   -2.1912   -0.1293 S   0  0  0  0  0  1  0  0  0  0  0  0
   -2.9311   -1.0312    0.5299 C   0  0  0  0  0  0  0  0  0  0  0  0
   -2.8391    0.3093   -0.1771 C   0  0  0  0  0  0  0  0  0  0  0  0
   -1.4839    0.9410   -0.0518 N   0  0  0  0  0  0  0  0  0  0  0  0
   -1.3339    1.5270    1.3061 C   0  0  0  0  0  0  0  0  0  0  0  0
   -1.3164    1.9024   -1.1708 C   0  0  0  0  0  0  0  0  0  0  0  0
   -1.4395    1.2997   -2.0927 H   0  0  0  0  0  0  0  0  0  0  0  0
   -2.1550    2.6411   -1.1462 H   0  0  0  0  0  0  0  0  0  0  0  0
   -2.1490    2.2748    1.4706 H   0  0  0  0  0  0  0  0  0  0  0  0
   -1.5162    0.6933    2.0120 H   0  0  0  0  0  0  0  0  0  0  0  0
   -3.6050    1.0370    0.1900 H   0  0  0  0  0  0  0  0  0  0  0  0
   -3.0133    0.1412   -1.2578 H   0  0  0  0  0  0  0  0  0  0  0  0
   -3.9361   -1.4656    0.3431 H   0  0  0  0  0  0  0  0  0  0  0  0
   -2.8368   -0.9174    1.6323 H   0  0  0  0  0  0  0  0  0  0  0  0
  1  3  1  0  0  0  0
  2  5  1  0  0  0  0
  3 10  1  0  0  0  0
  4  2  1  0  0  0  0
  4 11  1  0  0  0  0
  4  3  1  0  0  0  0
  5 13  1  0  0  0  0
  5  6  1  0  0  0  0
  5 14  1  0  0  0  0
  6 16  1  0  0  0  0
  7 18  1  0  0  0  0
  7  2  1  0  0  0  0
  8  7  1  0  0  0  0
  8 26  1  0  0  0  0
  8 20  1  0  0  0  0
  9  3  1  0  0  0  0
 12  4  1  0  0  0  0
 15  6  1  0  0  0  0
 17  7  1  0  0  0  0
 19  8  1  0  0  0  0
 21 22  1  0  0  0  0
 22 34  1  0  0  0  0
 23 24  1  0  0  0  0
 23 31  1  0  0  0  0
 23 22  1  0  0  0  0
 24 25  1  0  0  0  0
 25 29  1  0  0  0  0
 25  6  1  0  0  0  0
 25 30  1  0  0  0  0
 26 28  1  0  0  0  0
 26 24  1  0  0  0  0
 27 26  1  0  0  0  0
 32 23  1  0  0  0  0
 33 22  1  0  0  0  0
M  END
