1,2,5,6
q = -2.0, confidence = 0.898

 36 36  0  0  0  0  0  0  0  0999 V2000
    2.3462    0.5147    0.0588 S   0  0  0  0  0  5  0  0  0  0  0  0
   -0.2413    2.6699   -0.0863 S   0  0  0  0  0  1  0  0  0  0  0  0
    3.0644    1.4400   -0.8648 O   0  0  0  0  0  0  0  0  0  0  0  0
    2.8068    0.3974    1.4860 O   0  0  0  0  0  0  0  0  0  0  0  0
    0.3065   -1.7895    0.1169 N   0  0  0  0  0  0  0  0  0  0  0  0
   -2.0652    0.0836   -0.1139 N   0  0  0  0  0  0  0  0  0  0  0  0
    2.6134   -1.2158   -0.6244 C   0  0  0  0  0  0  0  0  0  0  0  0
    1.7584   -2.1397    0.2147 C   0  0  0  0  0  0  0  0  0  0  0  0
   -0.3401   -2.4420   -1.0623 C   0  0  0  0  0  0  0  0  0  0  0  0
   -1.2463   -1.5298   -1.8969 C   0  0  0  0  0  0  0  0  0  0  0  0
   -2.4403   -0.8457   -1.2227 C   0  0  0  0  0  0  0  0  0  0  0  0
   -0.3586   -2.1349    1.4049 C   0  0  0  0  0  0  0  0  0  0  0  0
   -1.8684   -1.9086    1.4534 C   0  0  0  0  0  0  0  0  0  0  0  0
   -2.3865   -0.4884    1.2202 C   0  0  0  0  0  0  0  0  0  0  0  0
   -2.7092    1.4253   -0.2818 C   0  0  0  0  0  0  0  0  0  0  0  0
   -1.9859    2.5236    0.4813 C   0  0  0  0  0  0  0  0  0  0  0  0
    3.6965   -1.4215   -0.5107 H   0  0  0  0  0  0  0  0  0  0  0  0
    2.3457   -1.1918   -1.6998 H   0  0  0  0  0  0  0  0  0  0  0  0
    1.9021   -3.2121   -0.0495 H   0  0  0  0  0  0  0  0  0  0  0  0
    2.0662   -2.0036    1.2703 H   0  0  0  0  0  0  0  0  0  0  0  0
   -0.8806   -3.3570   -0.7285 H   0  0  0  0  0  0  0  0  0  0  0  0
    0.4696   -2.7923   -1.7327 H   0  0  0  0  0  0  0  0  0  0  0  0
   -0.6116   -0.7350   -2.3451 H   0  0  0  0  0  0  0  0  0  0  0  0
   -1.6423   -2.1396   -2.7385 H   0  0  0  0  0  0  0  0  0  0  0  0
   -2.9575   -0.2488   -1.9986 H   0  0  0  0  0  0  0  0  0  0  0  0
   -3.1850   -1.5892   -0.8630 H   0  0  0  0  0  0  0  0  0  0  0  0
    0.1422   -1.5291    2.1868 H   0  0  0  0  0  0  0  0  0  0  0  0
   -0.1628   -3.2102    1.6355 H   0  0  0  0  0  0  0  0  0  0  0  0
   -2.3815   -2.6176    0.7715 H   0  0  0  0  0  0  0  0  0  0  0  0
   -2.1991   -2.2075    2.4695 H   0  0  0  0  0  0  0  0  0  0  0  0
   -3.4965   -0.4975    1.3513 H   0  0  0  0  0  0  0  0  0  0  0  0
   -1.9704    0.1984    1.9846 H   0  0  0  0  0  0  0  0  0  0  0  0
   -2.6565    1.6726   -1.3597 H   0  0  0  0  0  0  0  0  0  0  0  0
   -3.7854    1.3492    0.0123 H   0  0  0  0  0  0  0  0  0  0  0  0
   -2.0402    2.3622    1.5798 H   0  0  0  0  0  0  0  0  0  0  0  0
   -2.4948    3.4900    0.2803 H   0  0  0  0  0  0  0  0  0  0  0  0
  1  4  2  0  0  0  0
  2 16  1  0  0  0  0
  3  1  2  0  0  0  0
  5  8  1  0  0  0  0
  5 12  1  0  0  0  0
  6 14  1  0  0  0  0
  7 17  1  0  0  0  0
  7  1  1  0  0  0  0
  7  8  1  0  0  0  0
  8 20  1  0  0  0  0
  9 21  1  0  0  0  0
  9  5  1  0  0  0  0
 10 11  1  0  0  0  0
 10  9  1  0  0  0  0
 11 26  1  0  0  0  0
 11  6  1  0  0  0  0
 12 13  1  0  0  0  0
 12 28  1  0  0  0  0
 12 27  1  0  0  0  0
 13 30  1  0  0  0  0
 14 31  1  0  0  0  0
 14 13  1  0  0  0  0
 14 32  1  0  0  0  0
 15  6  1  0  0  0  0
 15 34  1  0  0  0  0
 15 16  1  0  0  0  0
 16 35  1  0  0  0  0
 18  7  1  0  0  0  0
 19  8  1  0  0  0  0
 22  9  1  0  0  0  0
 23 10  1  0  0  0  0
 24 10  1  0  0  0  0
 25 11  1  0  0  0  0
 29 13  1  0  0  0  0
 33 15  1  0  0  0  0
 36 16  1  0  0  0  0
M  END
