1,2,3,4
q = 0.0, confidence = 0.998

 44 46  0  0  0  0  0  0  0  0999 V2000
    0.9889   -0.8970    1.4200 S   0  0  0  0  0  0  0  0  0  0  0  0
   -0.9883   -0.8972   -1.4197 S   0  0  0  0  0  0  0  0  0  0  0  0
   -1.4462    2.1110    0.0920 N   0  0  0  0  0  0  0  0  0  0  0  0
    1.4458    2.1110   -0.0920 N   0  0  0  0  0  0  0  0  0  0  0  0
    0.1404   -2.3821    0.7502 C   0  0  0  0  0  0  0  0  0  0  0  0
   -0.1399   -2.3822   -0.7497 C   0  0  0  0  0  0  0  0  0  0  0  0
   -2.5661   -0.8407   -0.5400 C   0  0  0  0  0  0  0  0  0  0  0  0
   -3.1970   -2.0217   -0.1131 C   0  0  0  0  0  0  0  0  0  0  0  0
   -4.4375   -1.9661    0.5408 C   0  0  0  0  0  0  0  0  0  0  0  0
   -5.0665   -0.7319    0.7484 C   0  0  0  0  0  0  0  0  0  0  0  0
   -4.4471    0.4421    0.2958 C   0  0  0  0  0  0  0  0  0  0  0  0
   -3.1961    0.4196   -0.3485 C   0  0  0  0  0  0  0  0  0  0  0  0
   -2.5713    1.7265   -0.7927 C   0  0  0  0  0  0  0  0  0  0  0  0
   -0.6970    3.3167   -0.3190 C   0  0  0  0  0  0  0  0  0  0  0  0
    0.6967    3.3166    0.3191 C   0  0  0  0  0  0  0  0  0  0  0  0
    2.5715    1.7269    0.7919 C   0  0  0  0  0  0  0  0  0  0  0  0
    3.1962    0.4200    0.3478 C   0  0  0  0  0  0  0  0  0  0  0  0
    4.4470    0.4424   -0.2970 C   0  0  0  0  0  0  0  0  0  0  0  0
    5.0664   -0.7316   -0.7495 C   0  0  0  0  0  0  0  0  0  0  0  0
    4.4376   -1.9659   -0.5413 C   0  0  0  0  0  0  0  0  0  0  0  0
    3.1974   -2.0215    0.1130 C   0  0  0  0  0  0  0  0  0  0  0  0
    2.5664   -0.8404    0.5398 C   0  0  0  0  0  0  0  0  0  0  0  0
   -1.8082    2.2338    1.0480 H   0  0  0  0  0  0  0  0  0  0  0  0
    1.8068    2.2333   -1.0484 H   0  0  0  0  0  0  0  0  0  0  0  0
   -0.8006   -2.4006    1.3371 H   0  0  0  0  0  0  0  0  0  0  0  0
    0.7119   -3.2903    1.0303 H   0  0  0  0  0  0  0  0  0  0  0  0
    0.8012   -2.4007   -1.3366 H   0  0  0  0  0  0  0  0  0  0  0  0
   -0.7113   -3.2905   -1.0297 H   0  0  0  0  0  0  0  0  0  0  0  0
   -2.7346   -3.0010   -0.3009 H   0  0  0  0  0  0  0  0  0  0  0  0
   -4.9165   -2.8988    0.8735 H   0  0  0  0  0  0  0  0  0  0  0  0
   -6.0426   -0.6817    1.2520 H   0  0  0  0  0  0  0  0  0  0  0  0
   -4.9482    1.4127    0.4385 H   0  0  0  0  0  0  0  0  0  0  0  0
   -3.3570    2.5144   -0.8276 H   0  0  0  0  0  0  0  0  0  0  0  0
   -2.1618    1.6396   -1.8217 H   0  0  0  0  0  0  0  0  0  0  0  0
   -1.2327    4.2602   -0.0699 H   0  0  0  0  0  0  0  0  0  0  0  0
   -0.5999    3.2895   -1.4252 H   0  0  0  0  0  0  0  0  0  0  0  0
    0.5996    3.2893    1.4253 H   0  0  0  0  0  0  0  0  0  0  0  0
    1.2324    4.2602    0.0700 H   0  0  0  0  0  0  0  0  0  0  0  0
    2.1628    1.6402    1.8213 H   0  0  0  0  0  0  0  0  0  0  0  0
    3.3572    2.5148    0.8260 H   0  0  0  0  0  0  0  0  0  0  0  0
    4.9479    1.4130   -0.4402 H   0  0  0  0  0  0  0  0  0  0  0  0
    6.0423   -0.6815   -1.2534 H   0  0  0  0  0  0  0  0  0  0  0  0
    4.9166   -2.8986   -0.8739 H   0  0  0  0  0  0  0  0  0  0  0  0
    2.7351   -3.0008    0.3014 H   0  0  0  0  0  0  0  0  0  0  0  0
  2  6  1  0  0  0  0
  2  7  1  0  0  0  0
  3 23  1  0  0  0  0
  4 15  1  0  0  0  0
  4 16  1  0  0  0  0
  5 26  1  0  0  0  0
  5 25  1  0  0  0  0
  5  1  1  0  0  0  0
  6  5  1  0  0  0  0
  7 12  2  0  0  0  0
  7  8  1  0  0  0  0
  8  9  2  0  0  0  0
  9 10  1  0  0  0  0
  9 30  1  0  0  0  0
 10 31  1  0  0  0  0
 11 32  1  0  0  0  0
 11 10  2  0  0  0  0
 12 11  1  0  0  0  0
 13 12  1  0  0  0  0
 13  3  1  0  0  0  0
 14 35  1  0  0  0  0
 14  3  1  0  0  0  0
 14 15  1  0  0  0  0
 15 37  1  0  0  0  0
 16 40  1  0  0  0  0
 16 39  1  0  0  0  0
 17 22  1  0  0  0  0
 17 16  1  0  0  0  0
 18 17  2  0  0  0  0
 19 20  2  0  0  0  0
 19 18  1  0  0  0  0
 20 21  1  0  0  0  0
 21 44  1  0  0  0  0
 21 22  2  0  0  0  0
 22  1  1  0  0  0  0
 24  4  1  0  0  0  0
 27  6  1  0  0  0  0
 28  6  1  0  0  0  0
 29  8  1  0  0  0  0
 33 13  1  0  0  0  0
 34 13  1  0  0  0  0
 36 14  1  0  0  0  0
 38 15  1  0  0  0  0
 41 18  1  0  0  0  0
 42 19  1  0  0  0  0
 43 20  1  0  0  0  0
M  END
