4,7,16,19
q = -2.0, confidence = 0.84

 27 28  0  0  1  0  0  0  0  0999 V2000
    2.6941    0.0000   -0.0000 Si  0  0  0  0  0  0  0  0  0  0  0  0
    3.7250   -0.0001    1.5720 C   0  0  0  0  0  0  0  0  0  0  0  0
    1.4109    1.3854   -0.0001 C   0  0  2  0  0  3  0  0  0  0  0  0
    0.6500    1.7910    1.1481 C   0  0  0  0  0  3  0  0  0  0  0  0
   -0.5217    2.4808    0.7084 C   0  0  0  0  0  0  0  0  0  0  0  0
   -0.5217    2.4808   -0.7084 C   0  0  0  0  0  0  0  0  0  0  0  0
    0.6499    1.7909   -1.1481 C   0  0  0  0  0  3  0  0  0  0  0  0
    0.9184    1.6043    2.1965 H   0  0  0  0  0  0  0  0  0  0  0  0
   -1.3015    2.9006    1.3542 H   0  0  0  0  0  0  0  0  0  0  0  0
   -1.3015    2.9006   -1.3542 H   0  0  0  0  0  0  0  0  0  0  0  0
    0.9183    1.6042   -2.1966 H   0  0  0  0  0  0  0  0  0  0  0  0
    4.3730   -0.8988    1.6162 H   0  0  0  0  0  0  0  0  0  0  0  0
    4.3740    0.8979    1.6157 H   0  0  0  0  0  0  0  0  0  0  0  0
    3.0830    0.0005    2.4757 H   0  0  0  0  0  0  0  0  0  0  0  0
    1.4110   -1.3854   -0.0001 C   0  0  2  0  0  3  0  0  0  0  0  0
    0.6500   -1.7908   -1.1483 C   0  0  0  0  0  3  0  0  0  0  0  0
   -0.5217   -2.4807   -0.7087 C   0  0  0  0  0  0  0  0  0  0  0  0
   -0.5217   -2.4809    0.7081 C   0  0  0  0  0  0  0  0  0  0  0  0
    0.6500   -1.7911    1.1479 C   0  0  0  0  0  3  0  0  0  0  0  0
    3.7252    0.0001   -1.5720 C   0  0  0  0  0  0  0  0  0  0  0  0
    0.9184   -1.6040   -2.1967 H   0  0  0  0  0  0  0  0  0  0  0  0
   -1.3014   -2.9005   -1.3546 H   0  0  0  0  0  0  0  0  0  0  0  0
   -1.3015   -2.9008    1.3538 H   0  0  0  0  0  0  0  0  0  0  0  0
    0.9183   -1.6045    2.1964 H   0  0  0  0  0  0  0  0  0  0  0  0
    4.3731    0.8989   -1.6160 H   0  0  0  0  0  0  0  0  0  0  0  0
    4.3742   -0.8979   -1.6155 H   0  0  0  0  0  0  0  0  0  0  0  0
    3.0833   -0.0005   -2.4756 H   0  0  0  0  0  0  0  0  0  0  0  0
  1  2  1  0  0  0  0
  2 13  1  0  0  0  0
  2 12  1  0  0  0  0
  2 14  1  0  0  0  0
  3  1  1  1  0  0  0
  3  4  1  0  0  0  0
  4  8  1  0  0  0  0
  5  4  1  0  0  0  0
  5  9  1  0  0  0  0
  6  5  2  0  0  0  0
  7  6  1  0  0  0  0
  7  3  1  0  0  0  0
 10  6  1  0  0  0  0
 11  7  1  0  0  0  0
 15  1  1  1  0  0  0
 15 19  1  0  0  0  0
 16 17  1  0  0  0  0
 16 15  1  0  0  0  0
 17 18  2  0  0  0  0
 18 19  1  0  0  0  0
 18 23  1  0  0  0  0
 19 24  1  0  0  0  0
 20  1  1  0  0  0  0
 21 16  1  0  0  0  0
 22 17  1  0  0  0  0
 25 20  1  0  0  0  0
 26 20  1  0  0  0  0
 27 20  1  0  0  0  0
M  END
