2,6,26,30
q = -2.0, confidence = 0.814

 48 51  0  0  1  0  0  0  0  0999 V2000
   -0.6499   -0.4756    2.4689 C   0  0  1  0  0  3  0  0  0  0  0  0
   -1.8018   -0.9369    1.7734 C   0  0  0  0  0  3  0  0  0  0  0  0
   -2.3016   -1.8982    1.9380 H   0  0  0  0  0  0  0  0  0  0  0  0
   -2.2449    0.1040    0.8765 C   0  0  0  0  0  0  0  0  0  0  0  0
   -1.2976    1.1984    0.9799 C   0  0  0  0  0  0  0  0  0  0  0  0
   -0.2674    0.7835    1.9056 C   0  0  0  0  0  3  0  0  0  0  0  0
    0.5959    1.3828    2.2209 H   0  0  0  0  0  0  0  0  0  0  0  0
   -1.5342    2.4333    0.2939 C   0  0  0  0  0  0  0  0  0  0  0  0
   -2.6711    2.4980   -0.5082 C   0  0  0  0  0  0  0  0  0  0  0  0
   -2.8992    3.4419   -1.0292 H   0  0  0  0  0  0  0  0  0  0  0  0
   -3.5706    1.4056   -0.6498 C   0  0  0  0  0  0  0  0  0  0  0  0
   -4.4596    1.5299   -1.2879 H   0  0  0  0  0  0  0  0  0  0  0  0
   -3.3992    0.2029    0.0327 C   0  0  0  0  0  0  0  0  0  0  0  0
   -0.6164    3.6135    0.4690 C   0  0  0  0  0  0  0  0  0  0  0  0
   -0.2604    3.6562    1.5200 H   0  0  0  0  0  0  0  0  0  0  0  0
   -1.1876    4.5470    0.2860 H   0  0  0  0  0  0  0  0  0  0  0  0
    0.0180   -1.1547    3.6232 C   0  0  0  0  0  0  0  0  0  0  0  0
   -0.4510   -0.8092    4.5694 H   0  0  0  0  0  0  0  0  0  0  0  0
    1.0971   -0.9157    3.6688 H   0  0  0  0  0  0  0  0  0  0  0  0
   -0.0871   -2.2540    3.5660 H   0  0  0  0  0  0  0  0  0  0  0  0
   -4.3943   -0.9180   -0.0309 C   0  0  0  0  0  0  0  0  0  0  0  0
   -5.2382   -0.6745   -0.7041 H   0  0  0  0  0  0  0  0  0  0  0  0
   -4.8069   -1.1385    0.9768 H   0  0  0  0  0  0  0  0  0  0  0  0
   -3.9087   -1.8479   -0.3919 H   0  0  0  0  0  0  0  0  0  0  0  0
    0.6499   -0.4756   -2.4689 C   0  0  1  0  0  3  0  0  0  0  0  0
    1.8018   -0.9369   -1.7734 C   0  0  0  0  0  3  0  0  0  0  0  0
    2.3016   -1.8982   -1.9380 H   0  0  0  0  0  0  0  0  0  0  0  0
    2.2449    0.1040   -0.8765 C   0  0  0  0  0  0  0  0  0  0  0  0
    1.2976    1.1984   -0.9799 C   0  0  0  0  0  0  0  0  0  0  0  0
    0.2674    0.7835   -1.9057 C   0  0  0  0  0  3  0  0  0  0  0  0
   -0.5959    1.3828   -2.2209 H   0  0  0  0  0  0  0  0  0  0  0  0
    1.5341    2.4333   -0.2939 C   0  0  0  0  0  0  0  0  0  0  0  0
    2.6711    2.4980    0.5082 C   0  0  0  0  0  0  0  0  0  0  0  0
    2.8991    3.4419    1.0293 H   0  0  0  0  0  0  0  0  0  0  0  0
    3.5706    1.4056    0.6499 C   0  0  0  0  0  0  0  0  0  0  0  0
    4.4596    1.5299    1.2879 H   0  0  0  0  0  0  0  0  0  0  0  0
    3.3992    0.2029   -0.0327 C   0  0  0  0  0  0  0  0  0  0  0  0
    0.6164    3.6135   -0.4690 C   0  0  0  0  0  0  0  0  0  0  0  0
    0.2604    3.6562   -1.5200 H   0  0  0  0  0  0  0  0  0  0  0  0
    1.1875    4.5470   -0.2860 H   0  0  0  0  0  0  0  0  0  0  0  0
   -0.0179   -1.1547   -3.6233 C   0  0  0  0  0  0  0  0  0  0  0  0
    0.4510   -0.8092   -4.5694 H   0  0  0  0  0  0  0  0  0  0  0  0
   -1.0971   -0.9157   -3.6688 H   0  0  0  0  0  0  0  0  0  0  0  0
    0.0871   -2.2540   -3.5660 H   0  0  0  0  0  0  0  0  0  0  0  0
    4.3943   -0.9180    0.0310 C   0  0  0  0  0  0  0  0  0  0  0  0
    5.2382   -0.6745    0.7041 H   0  0  0  0  0  0  0  0  0  0  0  0
    4.8069   -1.1385   -0.9768 H   0  0  0  0  0  0  0  0  0  0  0  0
    3.9087   -1.8479    0.3919 H   0  0  0  0  0  0  0  0  0  0  0  0
  1 17  1  1  0  0  0
  2  3  1  0  0  0  0
  2  1  1  0  0  0  0
  4  5  1  0  0  0  0
  4  2  1  0  0  0  0
  5  6  1  0  0  0  0
  6  7  1  0  0  0  0
  6  1  1  0  0  0  0
  8 14  1  0  0  0  0
  8  5  2  0  0  0  0
  9  8  1  0  0  0  0
 10  9  1  0  0  0  0
 11  9  2  0  0  0  0
 11 13  1  0  0  0  0
 12 11  1  0  0  0  0
 13  4  2  0  0  0  0
 14 15  1  0  0  0  0
 16 14  1  0  0  0  0
 17 19  1  0  0  0  0
 17 18  1  0  0  0  0
 20 17  1  0  0  0  0
 21 13  1  0  0  0  0
 21 23  1  0  0  0  0
 22 21  1  0  0  0  0
 24 21  1  0  0  0  0
 25 41  1  6  0  0  0
 25 30  1  0  0  0  0
 25 26  1  0  0  0  0
 26 28  1  0  0  0  0
 27 26  1  0  0  0  0
 28 37  1  0  0  0  0
 29 28  2  0  0  0  0
 29 32  1  0  0  0  0
 30 29  1  0  0  0  0
 31 30  1  0  0  0  0
 32 33  2  0  0  0  0
 33 35  1  0  0  0  0
 33 34  1  0  0  0  0
 35 36  1  0  0  0  0
 37 45  1  0  0  0  0
 37 35  2  0  0  0  0
 38 32  1  0  0  0  0
 38 40  1  0  0  0  0
 38 14  1  0  0  0  0
 39 38  1  0  0  0  0
 41 44  1  0  0  0  0
 42 41  1  0  0  0  0
 43 41  1  0  0  0  0
 45 48  1  0  0  0  0
 45 46  1  0  0  0  0
 47 45  1  0  0  0  0
M  END
