2,4,21
q = -2.0, confidence = 0.768

 72 75  0  0  1  0  0  0  0  0999 V2000
    1.7165   -0.7985   -0.9743 C   0  0  0  0  0  0  0  0  0  0  0  0
    0.4878   -1.5286   -1.3019 C   0  0  2  0  0  3  0  0  0  0  0  0
   -0.4071   -0.5912   -1.9482 C   0  0  2  0  0  3  0  0  0  0  0  0
    0.1524    0.7482   -1.8384 C   0  0  1  0  0  3  0  0  0  0  0  0
    1.4818    0.6236   -1.2615 C   0  0  0  0  0  0  0  0  0  0  0  0
    2.4823    1.6100   -0.9356 C   0  0  0  0  0  0  0  0  0  0  0  0
    2.2454    3.0503   -1.3090 C   0  0  0  0  0  0  0  0  0  0  0  0
    3.6497    1.1681   -0.3066 C   0  0  0  0  0  0  0  0  0  0  0  0
    3.9066   -0.2501   -0.0980 C   0  0  0  0  0  0  0  0  0  0  0  0
    2.9776   -1.2345   -0.4518 C   0  0  0  0  0  0  0  0  0  0  0  0
    3.3075   -2.7038   -0.3501 C   0  0  0  0  0  0  0  0  0  0  0  0
    5.2420   -0.6396    0.4828 C   0  0  0  0  0  0  0  0  0  0  0  0
    4.7233    2.1301    0.1392 C   0  0  0  0  0  0  0  0  0  0  0  0
   -0.5730    1.9652   -2.3250 C   0  0  0  0  0  0  0  0  0  0  0  0
   -1.7223   -0.8918   -2.5888 C   0  0  0  0  0  0  0  0  0  0  0  0
    0.0271   -2.8895   -0.7758 C   0  0  0  0  0  0  0  0  0  0  0  0
   -0.0271   -2.8894    0.7761 C   0  0  0  0  0  0  0  0  0  0  0  0
   -0.4877   -1.5284    1.3021 C   0  0  2  0  0  3  0  0  0  0  0  0
   -1.7165   -0.7984    0.9745 C   0  0  0  0  0  0  0  0  0  0  0  0
   -1.4818    0.6237    1.2615 C   0  0  0  0  0  0  0  0  0  0  0  0
   -0.1523    0.7485    1.8382 C   0  0  2  0  0  3  0  0  0  0  0  0
    0.4073   -0.5909    1.9480 C   0  0  2  0  0  3  0  0  0  0  0  0
    1.7225   -0.8914    2.5886 C   0  0  0  0  0  0  0  0  0  0  0  0
    0.5731    1.9655    2.3245 C   0  0  0  0  0  0  0  0  0  0  0  0
   -2.4824    1.6100    0.9356 C   0  0  0  0  0  0  0  0  0  0  0  0
   -3.6497    1.1681    0.3065 C   0  0  0  0  0  0  0  0  0  0  0  0
   -3.9065   -0.2501    0.0979 C   0  0  0  0  0  0  0  0  0  0  0  0
   -2.9776   -1.2345    0.4520 C   0  0  0  0  0  0  0  0  0  0  0  0
   -3.3075   -2.7038    0.3506 C   0  0  0  0  0  0  0  0  0  0  0  0
   -5.2419   -0.6397   -0.4829 C   0  0  0  0  0  0  0  0  0  0  0  0
   -4.7233    2.1301   -0.1393 C   0  0  0  0  0  0  0  0  0  0  0  0
   -2.2457    3.0503    1.3092 C   0  0  0  0  0  0  0  0  0  0  0  0
    3.1657    3.6562   -1.2660 H   0  0  0  0  0  0  0  0  0  0  0  0
    1.8516    3.1333   -2.3395 H   0  0  0  0  0  0  0  0  0  0  0  0
    1.5026    3.5325   -0.6374 H   0  0  0  0  0  0  0  0  0  0  0  0
    4.2861   -2.9261   -0.8190 H   0  0  0  0  0  0  0  0  0  0  0  0
    2.5608   -3.3306   -0.8642 H   0  0  0  0  0  0  0  0  0  0  0  0
    3.3760   -3.0533    0.7023 H   0  0  0  0  0  0  0  0  0  0  0  0
    5.3521   -1.7278    0.6192 H   0  0  0  0  0  0  0  0  0  0  0  0
    6.0785   -0.2939   -0.1599 H   0  0  0  0  0  0  0  0  0  0  0  0
    5.4045   -0.1634    1.4717 H   0  0  0  0  0  0  0  0  0  0  0  0
    4.9939    1.9581    1.2006 H   0  0  0  0  0  0  0  0  0  0  0  0
    5.6605    1.9957   -0.4408 H   0  0  0  0  0  0  0  0  0  0  0  0
    4.4244    3.1872    0.0495 H   0  0  0  0  0  0  0  0  0  0  0  0
   -0.3643    2.8557   -1.7086 H   0  0  0  0  0  0  0  0  0  0  0  0
   -0.2924    2.2064   -3.3728 H   0  0  0  0  0  0  0  0  0  0  0  0
   -1.6667    1.7973   -2.3081 H   0  0  0  0  0  0  0  0  0  0  0  0
   -2.5466   -0.2971   -2.1460 H   0  0  0  0  0  0  0  0  0  0  0  0
   -1.6752   -0.6442   -3.6695 H   0  0  0  0  0  0  0  0  0  0  0  0
   -1.9951   -1.9587   -2.5011 H   0  0  0  0  0  0  0  0  0  0  0  0
    0.6450   -3.7310   -1.1502 H   0  0  0  0  0  0  0  0  0  0  0  0
   -0.9889   -3.0713   -1.1743 H   0  0  0  0  0  0  0  0  0  0  0  0
   -0.6450   -3.7309    1.1506 H   0  0  0  0  0  0  0  0  0  0  0  0
    0.9889   -3.0713    1.1747 H   0  0  0  0  0  0  0  0  0  0  0  0
    1.6751   -0.6446    3.6695 H   0  0  0  0  0  0  0  0  0  0  0  0
    2.5466   -0.2960    2.1464 H   0  0  0  0  0  0  0  0  0  0  0  0
    1.9958   -1.9581    2.5003 H   0  0  0  0  0  0  0  0  0  0  0  0
    1.6668    1.7980    2.3070 H   0  0  0  0  0  0  0  0  0  0  0  0
    0.3638    2.8561    1.7083 H   0  0  0  0  0  0  0  0  0  0  0  0
    0.2929    2.2066    3.3725 H   0  0  0  0  0  0  0  0  0  0  0  0
   -4.2863   -2.9259    0.8192 H   0  0  0  0  0  0  0  0  0  0  0  0
   -3.3757   -3.0535   -0.7017 H   0  0  0  0  0  0  0  0  0  0  0  0
   -2.5611   -3.3305    0.8651 H   0  0  0  0  0  0  0  0  0  0  0  0
   -5.3513   -1.7278   -0.6209 H   0  0  0  0  0  0  0  0  0  0  0  0
   -5.4052   -0.1622   -1.4710 H   0  0  0  0  0  0  0  0  0  0  0  0
   -6.0783   -0.2955    0.1607 H   0  0  0  0  0  0  0  0  0  0  0  0
   -4.9935    1.9583   -1.2009 H   0  0  0  0  0  0  0  0  0  0  0  0
   -4.4246    3.1872   -0.0493 H   0  0  0  0  0  0  0  0  0  0  0  0
   -5.6607    1.9953    0.4404 H   0  0  0  0  0  0  0  0  0  0  0  0
   -3.1662    3.6561    1.2666 H   0  0  0  0  0  0  0  0  0  0  0  0
   -1.5032    3.5329    0.6376 H   0  0  0  0  0  0  0  0  0  0  0  0
   -1.8517    3.1333    2.3396 H   0  0  0  0  0  0  0  0  0  0  0  0
  1 10  1  0  0  0  0
  2  1  1  0  0  0  0
  2 16  1  1  0  0  0
  3 15  1  1  0  0  0
  3  4  1  0  0  0  0
  3  2  1  0  0  0  0
  4 14  1  6  0  0  0
  4  5  1  0  0  0  0
  5  1  2  0  0  0  0
  5  6  1  0  0  0  0
  6  8  2  0  0  0  0
  7 33  1  0  0  0  0
  7  6  1  0  0  0  0
  7 35  1  0  0  0  0
  8  9  1  0  0  0  0
  8 13  1  0  0  0  0
  9 12  1  0  0  0  0
 10 11  1  0  0  0  0
 10  9  2  0  0  0  0
 11 38  1  0  0  0  0
 12 39  1  0  0  0  0
 12 41  1  0  0  0  0
 13 42  1  0  0  0  0
 14 47  1  0  0  0  0
 14 45  1  0  0  0  0
 15 50  1  0  0  0  0
 15 48  1  0  0  0  0
 16 17  1  0  0  0  0
 17 53  1  0  0  0  0
 17 54  1  0  0  0  0
 18 17  1  6  0  0  0
 18 22  1  0  0  0  0
 19 20  1  0  0  0  0
 19 18  1  0  0  0  0
 20 21  1  0  0  0  0
 21 22  1  0  0  0  0
 21 24  1  1  0  0  0
 22 23  1  6  0  0  0
 23 55  1  0  0  0  0
 24 60  1  0  0  0  0
 25 20  2  0  0  0  0
 25 32  1  0  0  0  0
 26 25  1  0  0  0  0
 27 26  2  0  0  0  0
 27 28  1  0  0  0  0
 28 19  2  0  0  0  0
 29 28  1  0  0  0  0
 29 61  1  0  0  0  0
 29 63  1  0  0  0  0
 30 27  1  0  0  0  0
 30 66  1  0  0  0  0
 31 68  1  0  0  0  0
 31 26  1  0  0  0  0
 31 69  1  0  0  0  0
 32 72  1  0  0  0  0
 34  7  1  0  0  0  0
 36 11  1  0  0  0  0
 37 11  1  0  0  0  0
 40 12  1  0  0  0  0
 43 13  1  0  0  0  0
 44 13  1  0  0  0  0
 46 14  1  0  0  0  0
 49 15  1  0  0  0  0
 51 16  1  0  0  0  0
 52 16  1  0  0  0  0
 56 23  1  0  0  0  0
 57 23  1  0  0  0  0
 58 24  1  0  0  0  0
 59 24  1  0  0  0  0
 62 29  1  0  0  0  0
 64 30  1  0  0  0  0
 65 30  1  0  0  0  0
 67 31  1  0  0  0  0
 70 32  1  0  0  0  0
 71 32  1  0  0  0  0
M  END
