15,16
q = -1.0, confidence = 0.014

 16 16  0  0  0  0  0  0  0  0999 V2000
   -1.6092   -0.0001    0.0003 C   0  0  0  0  0  3  0  0  0  0  0  0
   -3.7587   -1.2247    0.0119 C   0  0  0  0  0  0  0  0  0  0  0  0
   -3.6981   -1.6998    1.0161 H   0  0  0  0  0  0  0  0  0  0  0  0
   -3.3648   -1.9519   -0.7276 H   0  0  0  0  0  0  0  0  0  0  0  0
   -5.1665   -0.7055   -0.3051 C   0  0  0  0  0  0  0  0  0  0  0  0
   -5.3105   -0.6506   -1.4041 H   0  0  0  0  0  0  0  0  0  0  0  0
   -5.9566   -1.3623    0.1051 H   0  0  0  0  0  0  0  0  0  0  0  0
   -5.1667    0.7056    0.3040 C   0  0  0  0  0  0  0  0  0  0  0  0
   -5.3119    0.6507    1.4029 H   0  0  0  0  0  0  0  0  0  0  0  0
   -5.9564    1.3624   -0.1070 H   0  0  0  0  0  0  0  0  0  0  0  0
   -3.7586    1.2247   -0.0116 C   0  0  0  0  0  0  0  0  0  0  0  0
   -3.6970    1.7002   -1.0155 H   0  0  0  0  0  0  0  0  0  0  0  0
   -3.3652    1.9515    0.7285 H   0  0  0  0  0  0  0  0  0  0  0  0
   -2.9395   -0.0000    0.0002 N   0  0  0  0  0  0  0  0  0  0  0  0
   -0.6616   -1.4512    0.0345 S   0  0  0  0  0  1  0  0  0  0  0  0
   -0.6616    1.4511   -0.0342 S   0  0  0  0  0  1  0  0  0  0  0  0
  1 15  1  0  0  0  0
  2  3  1  0  0  0  0
  4  2  1  0  0  0  0
  5  2  1  0  0  0  0
  5  7  1  0  0  0  0
  5  8  1  0  0  0  0
  6  5  1  0  0  0  0
  8  9  1  0  0  0  0
 10  8  1  0  0  0  0
 11 14  1  0  0  0  0
 11  8  1  0  0  0  0
 11 13  1  0  0  0  0
 12 11  1  0  0  0  0
 14  1  1  0  0  0  0
 14  2  1  0  0  0  0
 16  1  1  0  0  0  0
M  END
