1,2
q = 0.0, confidence = 0.996

 16 15  0  0  0  0  0  0  0  0999 V2000
    1.0555   -1.2981    1.2244 S   0  0  0  0  0  0  0  0  0  0  0  0
    1.0550    1.2986   -1.2238 S   0  0  0  0  0  0  0  0  0  0  0  0
    2.4461   -0.2193    0.7304 C   0  0  0  0  0  0  0  0  0  0  0  0
    2.3757    0.6476    1.4170 H   0  0  0  0  0  0  0  0  0  0  0  0
    3.3868   -0.7575    0.9715 H   0  0  0  0  0  0  0  0  0  0  0  0
    2.4455    0.2188   -0.7316 C   0  0  0  0  0  0  0  0  0  0  0  0
    2.3737   -0.6480   -1.4182 H   0  0  0  0  0  0  0  0  0  0  0  0
    3.3863    0.7564   -0.9736 H   0  0  0  0  0  0  0  0  0  0  0  0
    1.4785   -2.8407    0.3619 C   0  0  0  0  0  0  0  0  0  0  0  0
    0.6889   -3.5640    0.6403 H   0  0  0  0  0  0  0  0  0  0  0  0
    2.4600   -3.2121    0.7149 H   0  0  0  0  0  0  0  0  0  0  0  0
    1.4564   -2.7094   -0.7366 H   0  0  0  0  0  0  0  0  0  0  0  0
    1.4795    2.8403   -0.3604 C   0  0  0  0  0  0  0  0  0  0  0  0
    0.6877    3.5629   -0.6341 H   0  0  0  0  0  0  0  0  0  0  0  0
    2.4589    3.2137   -0.7174 H   0  0  0  0  0  0  0  0  0  0  0  0
    1.4629    2.7076    0.7380 H   0  0  0  0  0  0  0  0  0  0  0  0
  2  6  1  0  0  0  0
  2 13  1  0  0  0  0
  3  5  1  0  0  0  0
  3  1  1  0  0  0  0
  3  4  1  0  0  0  0
  6  3  1  0  0  0  0
  7  6  1  0  0  0  0
  8  6  1  0  0  0  0
  9 10  1  0  0  0  0
  9 11  1  0  0  0  0
  9  1  1  0  0  0  0
 12  9  1  0  0  0  0
 13 16  1  0  0  0  0
 14 13  1  0  0  0  0
 15 13  1  0  0  0  0
M  END
