1,2
q = 0.0, confidence = 0.612

 22 23  0  0  0  0  0  0  0  0999 V2000
   -1.6841   -1.6712   -0.2966 S   0  0  0  0  0  1  0  0  0  0  0  0
   -1.6841    1.6711   -0.2969 S   0  0  0  0  0  1  0  0  0  0  0  0
   -4.5466   -1.6381   -1.0182 S   0  0  0  0  0  0  0  0  0  0  0  0
   -4.5466    1.6379   -1.0185 S   0  0  0  0  0  0  0  0  0  0  0  0
   -3.0862   -0.6885   -0.6860 C   0  0  0  0  0  0  0  0  0  0  0  0
   -3.0862    0.6884   -0.6861 C   0  0  0  0  0  0  0  0  0  0  0  0
   -5.4454   -1.5192    0.6140 C   0  0  0  0  0  0  0  0  0  0  0  0
   -5.4454    1.5194    0.6137 C   0  0  0  0  0  0  0  0  0  0  0  0
   -6.7121   -0.7121    0.5261 C   0  0  0  0  0  0  0  0  0  0  0  0
   -6.7121    0.7123    0.5260 C   0  0  0  0  0  0  0  0  0  0  0  0
   -7.9435    1.3891    0.4179 C   0  0  0  0  0  0  0  0  0  0  0  0
   -9.1602    0.7008    0.3014 C   0  0  0  0  0  0  0  0  0  0  0  0
   -9.1602   -0.7006    0.3015 C   0  0  0  0  0  0  0  0  0  0  0  0
   -7.9435   -1.3889    0.4182 C   0  0  0  0  0  0  0  0  0  0  0  0
   -4.7076   -1.1011    1.3255 H   0  0  0  0  0  0  0  0  0  0  0  0
   -5.6732   -2.5568    0.9299 H   0  0  0  0  0  0  0  0  0  0  0  0
   -5.6732    2.5570    0.9294 H   0  0  0  0  0  0  0  0  0  0  0  0
   -4.7076    1.1015    1.3253 H   0  0  0  0  0  0  0  0  0  0  0  0
   -7.9389    2.4912    0.4246 H   0  0  0  0  0  0  0  0  0  0  0  0
  -10.1044    1.2605    0.2143 H   0  0  0  0  0  0  0  0  0  0  0  0
  -10.1044   -1.2602    0.2146 H   0  0  0  0  0  0  0  0  0  0  0  0
   -7.9389   -2.4909    0.4250 H   0  0  0  0  0  0  0  0  0  0  0  0
  3  5  1  0  0  0  0
  3  7  1  0  0  0  0
  4  6  1  0  0  0  0
  4  8  1  0  0  0  0
  5  1  1  0  0  0  0
  6  5  2  0  0  0  0
  6  2  1  0  0  0  0
  7 16  1  0  0  0  0
  7 15  1  0  0  0  0
  8 17  1  0  0  0  0
  8 18  1  0  0  0  0
  9  7  1  0  0  0  0
 10  9  1  0  0  0  0
 10  8  1  0  0  0  0
 11 19  1  0  0  0  0
 11 10  2  0  0  0  0
 12 13  2  0  0  0  0
 12 11  1  0  0  0  0
 13 14  1  0  0  0  0
 14 22  1  0  0  0  0
 14  9  2  0  0  0  0
 20 12  1  0  0  0  0
 21 13  1  0  0  0  0
M  END
