1,2
q = -1.0, confidence = 0.0

 27 28  0  0  1  0  0  0  0  0999 V2000
   -5.2840    1.0145   -0.3657 S   0  0  0  0  0  1  0  0  0  0  0  0
   -3.7701   -1.1560    2.0302 S   0  0  0  0  0  1  0  0  0  0  0  0
   -3.6412    2.8004    1.0073 N   0  0  0  0  0  0  0  0  0  0  0  0
   -3.6924    3.1033   -1.1795 N   0  0  0  0  0  0  0  0  0  0  0  0
   -2.6109    1.2678    2.7732 N   0  0  0  0  0  0  0  0  0  0  0  0
   -1.2728   -0.4803    2.9566 N   0  0  0  0  0  0  0  0  0  0  0  0
   -4.1766    2.3219   -0.1520 C   0  0  2  0  0  3  0  0  0  0  0  0
   -2.8276    3.8763    0.7004 C   0  0  0  0  0  0  0  0  0  0  0  0
   -2.3193    4.4417    1.4865 H   0  0  0  0  0  0  0  0  0  0  0  0
   -2.8467    4.0693   -0.6603 C   0  0  0  0  0  0  0  0  0  0  0  0
   -2.3609    4.8176   -1.2934 H   0  0  0  0  0  0  0  0  0  0  0  0
   -3.9790    2.8883   -2.5859 C   0  0  0  0  0  0  0  0  0  0  0  0
   -4.1689    3.8568   -3.0860 H   0  0  0  0  0  0  0  0  0  0  0  0
   -4.8734    2.2389   -2.6465 H   0  0  0  0  0  0  0  0  0  0  0  0
   -3.1366    2.3678   -3.0854 H   0  0  0  0  0  0  0  0  0  0  0  0
   -2.5364   -0.0795    2.5719 C   0  0  1  0  0  3  0  0  0  0  0  0
   -1.4024    1.7003    3.2879 C   0  0  0  0  0  0  0  0  0  0  0  0
   -1.2500    2.7473    3.5647 H   0  0  0  0  0  0  0  0  0  0  0  0
   -0.5604    0.6201    3.4054 C   0  0  0  0  0  0  0  0  0  0  0  0
    0.4584    0.5351    3.7947 H   0  0  0  0  0  0  0  0  0  0  0  0
   -0.7636   -1.8344    2.8447 C   0  0  0  0  0  0  0  0  0  0  0  0
   -0.2813   -2.1429    3.7919 H   0  0  0  0  0  0  0  0  0  0  0  0
   -0.0337   -1.9117    2.0125 H   0  0  0  0  0  0  0  0  0  0  0  0
   -1.6266   -2.4914    2.6212 H   0  0  0  0  0  0  0  0  0  0  0  0
   -3.8204    2.2359    2.4682 B   0  0  0  0  0  0  0  0  0  0  0  0
   -4.8718    1.6330    2.5587 H   0  0  0  0  0  0  0  0  0  0  0  0
   -3.6972    3.1927    3.2316 H   0  0  0  0  0  0  0  0  0  0  0  0
  3 25  1  0  0  0  0
  4 10  1  0  0  0  0
  4  7  1  0  0  0  0
  5 17  1  0  0  0  0
  6 19  1  0  0  0  0
  7  1  1  1  0  0  0
  7  3  1  0  0  0  0
  8  3  1  0  0  0  0
  8  9  1  0  0  0  0
 10  8  2  0  0  0  0
 11 10  1  0  0  0  0
 12  4  1  0  0  0  0
 13 12  1  0  0  0  0
 14 12  1  0  0  0  0
 15 12  1  0  0  0  0
 16  2  1  1  0  0  0
 16  5  1  0  0  0  0
 16  6  1  0  0  0  0
 17 19  2  0  0  0  0
 17 18  1  0  0  0  0
 19 20  1  0  0  0  0
 21  6  1  0  0  0  0
 21 22  1  0  0  0  0
 23 21  1  0  0  0  0
 24 21  1  0  0  0  0
 25 26  1  0  0  0  0
 25  5  1  0  0  0  0
 25 27  1  0  0  0  0
M  END
