8,15
q = 0.0, confidence = 1.0

 21 21  0  0  0  0  0  0  0  0999 V2000
   -1.4404    0.2984    2.1076 S   0  0  0  0  0  0  0  0  0  0  0  0
   -2.2953   -1.1757    1.4182 C   0  0  0  0  0  0  0  0  0  0  0  0
   -2.7791   -1.6775    2.2826 H   0  0  0  0  0  0  0  0  0  0  0  0
   -3.1220   -0.8419    0.7600 H   0  0  0  0  0  0  0  0  0  0  0  0
   -1.4231   -2.2361    0.7439 C   0  0  0  0  0  0  0  0  0  0  0  0
   -2.0364   -3.1316    0.5064 H   0  0  0  0  0  0  0  0  0  0  0  0
   -0.5966   -2.5566    1.4136 H   0  0  0  0  0  0  0  0  0  0  0  0
   -0.4661   -1.8453   -0.7808 S   0  0  0  0  0  0  0  0  0  0  0  0
   -1.7090   -1.1501   -1.9640 C   0  0  0  0  0  0  0  0  0  0  0  0
   -1.1868   -1.2466   -2.9371 H   0  0  0  0  0  0  0  0  0  0  0  0
   -2.5846   -1.8315   -1.9841 H   0  0  0  0  0  0  0  0  0  0  0  0
   -2.1346    0.2898   -1.7139 C   0  0  0  0  0  0  0  0  0  0  0  0
   -2.8717    0.3598   -0.8945 H   0  0  0  0  0  0  0  0  0  0  0  0
   -2.5961    0.7181   -2.6262 H   0  0  0  0  0  0  0  0  0  0  0  0
   -0.6895    1.3837   -1.2780 S   0  0  0  0  0  0  0  0  0  0  0  0
   -1.3709    2.3867    0.1131 C   0  0  0  0  0  0  0  0  0  0  0  0
   -0.4249    2.7991    0.5272 H   0  0  0  0  0  0  0  0  0  0  0  0
   -1.9554    3.2166   -0.3375 H   0  0  0  0  0  0  0  0  0  0  0  0
   -2.2028    1.6901    1.1904 C   0  0  0  0  0  0  0  0  0  0  0  0
   -3.1931    1.3625    0.8106 H   0  0  0  0  0  0  0  0  0  0  0  0
   -2.4238    2.4583    1.9608 H   0  0  0  0  0  0  0  0  0  0  0  0
  2  1  1  0  0  0  0
  2  3  1  0  0  0  0
  4  2  1  0  0  0  0
  5  7  1  0  0  0  0
  5  2  1  0  0  0  0
  6  5  1  0  0  0  0
  8  5  1  0  0  0  0
  9 12  1  0  0  0  0
  9  8  1  0  0  0  0
 10  9  1  0  0  0  0
 11  9  1  0  0  0  0
 12 15  1  0  0  0  0
 12 13  1  0  0  0  0
 14 12  1  0  0  0  0
 15 16  1  0  0  0  0
 16 17  1  0  0  0  0
 16 19  1  0  0  0  0
 18 16  1  0  0  0  0
 19 21  1  0  0  0  0
 19  1  1  0  0  0  0
 20 19  1  0  0  0  0
M  END
