1,2
q = 0.0, confidence = 0.666

 12 12  0  0  0  0  0  0  0  0999 V2000
    1.6440   -1.5989   -0.0101 S   0  0  0  0  0  1  0  0  0  0  0  0
    1.6440    1.5989    0.0094 S   0  0  0  0  0  1  0  0  0  0  0  0
    4.5384   -1.7604   -0.0759 S   0  0  0  0  0  0  0  0  0  0  0  0
    4.5384    1.7604    0.0766 S   0  0  0  0  0  0  0  0  0  0  0  0
    3.1230   -0.7039   -0.0072 C   0  0  0  0  0  0  0  0  0  0  0  0
    3.1229    0.7039    0.0074 C   0  0  0  0  0  0  0  0  0  0  0  0
    5.9097   -0.6482    0.3967 C   0  0  0  0  0  0  0  0  0  0  0  0
    5.9098    0.6482   -0.3956 C   0  0  0  0  0  0  0  0  0  0  0  0
    5.8809   -0.4534    1.4878 H   0  0  0  0  0  0  0  0  0  0  0  0
    6.8163   -1.2470    0.1715 H   0  0  0  0  0  0  0  0  0  0  0  0
    5.8813    0.4534   -1.4867 H   0  0  0  0  0  0  0  0  0  0  0  0
    6.8164    1.2469   -0.1701 H   0  0  0  0  0  0  0  0  0  0  0  0
  1  5  1  0  0  0  0
  3  5  1  0  0  0  0
  3  7  1  0  0  0  0
  5  6  2  0  0  0  0
  6  2  1  0  0  0  0
  6  4  1  0  0  0  0
  7  9  1  0  0  0  0
  8 12  1  0  0  0  0
  8  4  1  0  0  0  0
  8  7  1  0  0  0  0
 10  7  1  0  0  0  0
 11  8  1  0  0  0  0
M  END
