1,2
q = -1.0

 30 29  0  0  0  0  0  0  0  0999 V2000
    2.2505   -0.5039    1.1425 S   0  0  0  0  0  1  0  0  0  0  0  0
    1.3581    0.9992   -1.2998 S   0  0  0  0  0  1  0  0  0  0  0  0
    3.7320    1.3605   -0.0965 N   0  0  0  0  0  0  0  0  0  0  0  0
    2.5558    0.6750   -0.0850 C   0  0  0  0  0  3  0  0  0  0  0  0
    4.0316    2.3573   -1.1247 C   0  0  0  0  0  0  0  0  0  0  0  0
    3.5222    3.7575   -0.7604 C   0  0  0  0  0  0  0  0  0  0  0  0
    3.7860    4.8084   -1.8457 C   0  0  0  0  0  0  0  0  0  0  0  0
    5.2660    5.1089   -2.1001 C   0  0  0  0  0  0  0  0  0  0  0  0
    4.7513    1.1400    0.9291 C   0  0  0  0  0  0  0  0  0  0  0  0
    5.7268    0.0156    0.5607 C   0  0  0  0  0  0  0  0  0  0  0  0
    6.7845   -0.2614    1.6369 C   0  0  0  0  0  0  0  0  0  0  0  0
    6.2145   -0.7939    2.9551 C   0  0  0  0  0  0  0  0  0  0  0  0
    5.1308    2.3563   -1.2783 H   0  0  0  0  0  0  0  0  0  0  0  0
    3.5579    2.0265   -2.0721 H   0  0  0  0  0  0  0  0  0  0  0  0
    2.4306    3.6726   -0.5795 H   0  0  0  0  0  0  0  0  0  0  0  0
    3.9852    4.0803    0.1991 H   0  0  0  0  0  0  0  0  0  0  0  0
    3.3016    4.4782   -2.7915 H   0  0  0  0  0  0  0  0  0  0  0  0
    3.2674    5.7477   -1.5579 H   0  0  0  0  0  0  0  0  0  0  0  0
    5.8143    4.2237   -2.4837 H   0  0  0  0  0  0  0  0  0  0  0  0
    5.3930    5.9174   -2.8482 H   0  0  0  0  0  0  0  0  0  0  0  0
    5.7756    5.4344   -1.1685 H   0  0  0  0  0  0  0  0  0  0  0  0
    5.2974    2.0958    1.0808 H   0  0  0  0  0  0  0  0  0  0  0  0
    4.2249    0.8968    1.8735 H   0  0  0  0  0  0  0  0  0  0  0  0
    5.1264   -0.9018    0.3785 H   0  0  0  0  0  0  0  0  0  0  0  0
    6.2260    0.2704   -0.3996 H   0  0  0  0  0  0  0  0  0  0  0  0
    7.5143   -0.9946    1.2309 H   0  0  0  0  0  0  0  0  0  0  0  0
    7.3702    0.6664    1.8288 H   0  0  0  0  0  0  0  0  0  0  0  0
    5.5967   -1.6998    2.7850 H   0  0  0  0  0  0  0  0  0  0  0  0
    7.0224   -1.0597    3.6665 H   0  0  0  0  0  0  0  0  0  0  0  0
    5.5638   -0.0511    3.4594 H   0  0  0  0  0  0  0  0  0  0  0  0
  2  4  1  0  0  0  0
  3  4  1  0  0  0  0
  3  9  1  0  0  0  0
  4  1  1  0  0  0  0
  5  6  1  0  0  0  0
  5  3  1  0  0  0  0
  6 15  1  0  0  0  0
  6 16  1  0  0  0  0
  7 18  1  0  0  0  0
  7  6  1  0  0  0  0
  8  7  1  0  0  0  0
  8 21  1  0  0  0  0
  9 22  1  0  0  0  0
  9 23  1  0  0  0  0
 10  9  1  0  0  0  0
 10 11  1  0  0  0  0
 11 27  1  0  0  0  0
 11 12  1  0  0  0  0
 12 30  1  0  0  0  0
 12 29  1  0  0  0  0
 13  5  1  0  0  0  0
 14  5  1  0  0  0  0
 17  7  1  0  0  0  0
 19  8  1  0  0  0  0
 20  8  1  0  0  0  0
 24 10  1  0  0  0  0
 25 10  1  0  0  0  0
 26 11  1  0  0  0  0
 28 12  1  0  0  0  0
M  END
