1,2
q = 0.0, confidence = 1.0

 50 51  0  0  0  0  0  0  0  0999 V2000
   -2.3784    0.8494   -0.2306 S   0  0  0  0  0  0  0  0  0  0  0  0
   -0.9967   -3.4703   -0.8707 S   0  0  0  0  0  0  0  0  0  0  0  0
   -0.2387   -0.0974    2.0138 O   0  0  0  0  0  0  0  0  0  0  0  0
    1.1503   -2.3435    1.0590 O   0  0  0  0  0  0  0  0  0  0  0  0
   -1.5594    4.6004   -0.2308 C   0  0  0  0  0  0  0  0  0  0  0  0
   -0.4690    4.4538   -0.1817 H   0  0  0  0  0  0  0  0  0  0  0  0
   -2.1314    5.8011    0.2217 C   0  0  0  0  0  0  0  0  0  0  0  0
   -1.4835    6.5855    0.6419 H   0  0  0  0  0  0  0  0  0  0  0  0
   -3.5170    6.0022    0.1370 C   0  0  0  0  0  0  0  0  0  0  0  0
   -3.9629    6.9439    0.4919 H   0  0  0  0  0  0  0  0  0  0  0  0
   -4.3347    4.9956   -0.4059 C   0  0  0  0  0  0  0  0  0  0  0  0
   -5.4224    5.1485   -0.4791 H   0  0  0  0  0  0  0  0  0  0  0  0
   -3.7670    3.7970   -0.8566 C   0  0  0  0  0  0  0  0  0  0  0  0
   -4.4089    3.0019   -1.2683 H   0  0  0  0  0  0  0  0  0  0  0  0
   -2.3733    3.5863   -0.7774 C   0  0  0  0  0  0  0  0  0  0  0  0
   -1.7648    2.2872   -1.2309 C   0  0  0  0  0  0  0  0  0  0  0  0
   -0.6587    2.2945   -1.2098 H   0  0  0  0  0  0  0  0  0  0  0  0
   -2.0826    2.0128   -2.2577 H   0  0  0  0  0  0  0  0  0  0  0  0
   -2.0084    1.4202    1.4727 C   0  0  0  0  0  0  0  0  0  0  0  0
   -2.3291    2.4801    1.5326 H   0  0  0  0  0  0  0  0  0  0  0  0
   -2.6758    0.8241    2.1256 H   0  0  0  0  0  0  0  0  0  0  0  0
   -0.5694    1.2802    1.9318 C   0  0  0  0  0  0  0  0  0  0  0  0
    0.1227    1.8102    1.2406 H   0  0  0  0  0  0  0  0  0  0  0  0
   -0.4653    1.7625    2.9350 H   0  0  0  0  0  0  0  0  0  0  0  0
    1.1123   -0.3378    2.3660 C   0  0  0  0  0  0  0  0  0  0  0  0
    1.3365    0.0577    3.3865 H   0  0  0  0  0  0  0  0  0  0  0  0
    1.8028    0.1731    1.6566 H   0  0  0  0  0  0  0  0  0  0  0  0
    1.3632   -1.8309    2.3609 C   0  0  0  0  0  0  0  0  0  0  0  0
    2.4070   -2.0255    2.7066 H   0  0  0  0  0  0  0  0  0  0  0  0
    0.6691   -2.3269    3.0831 H   0  0  0  0  0  0  0  0  0  0  0  0
    1.1320   -3.7543    0.9943 C   0  0  0  0  0  0  0  0  0  0  0  0
    0.5187   -4.1624    1.8355 H   0  0  0  0  0  0  0  0  0  0  0  0
    2.1616   -4.1711    1.1112 H   0  0  0  0  0  0  0  0  0  0  0  0
    0.5883   -4.2250   -0.3499 C   0  0  0  0  0  0  0  0  0  0  0  0
    0.4696   -5.3276   -0.3364 H   0  0  0  0  0  0  0  0  0  0  0  0
    1.2882   -3.9577   -1.1665 H   0  0  0  0  0  0  0  0  0  0  0  0
   -2.1139   -3.9594    0.5228 C   0  0  0  0  0  0  0  0  0  0  0  0
   -1.5655   -3.8173    1.4733 H   0  0  0  0  0  0  0  0  0  0  0  0
   -2.3408   -5.0376    0.3959 H   0  0  0  0  0  0  0  0  0  0  0  0
   -3.3582   -3.1168    0.5001 C   0  0  0  0  0  0  0  0  0  0  0  0
   -3.5011   -2.0392    1.3977 C   0  0  0  0  0  0  0  0  0  0  0  0
   -2.6974   -1.8298    2.1217 H   0  0  0  0  0  0  0  0  0  0  0  0
   -4.6495   -1.2347    1.3639 C   0  0  0  0  0  0  0  0  0  0  0  0
   -4.7594   -0.4030    2.0764 H   0  0  0  0  0  0  0  0  0  0  0  0
   -5.6596   -1.4862    0.4226 C   0  0  0  0  0  0  0  0  0  0  0  0
   -6.5573   -0.8507    0.3937 H   0  0  0  0  0  0  0  0  0  0  0  0
   -5.5191   -2.5495   -0.4827 C   0  0  0  0  0  0  0  0  0  0  0  0
   -6.3071   -2.7507   -1.2241 H   0  0  0  0  0  0  0  0  0  0  0  0
   -4.3765   -3.3618   -0.4426 C   0  0  0  0  0  0  0  0  0  0  0  0
   -4.2687   -4.1965   -1.1530 H   0  0  0  0  0  0  0  0  0  0  0  0
  1 19  1  0  0  0  0
  2 34  1  0  0  0  0
  2 37  1  0  0  0  0
  3 25  1  0  0  0  0
  4 28  1  0  0  0  0
  5  6  1  0  0  0  0
  5  7  1  0  0  0  0
  7  8  1  0  0  0  0
  9  7  2  0  0  0  0
  9 10  1  0  0  0  0
 11  9  1  0  0  0  0
 12 11  1  0  0  0  0
 13 15  1  0  0  0  0
 13 11  2  0  0  0  0
 14 13  1  0  0  0  0
 15  5  2  0  0  0  0
 16 17  1  0  0  0  0
 16 15  1  0  0  0  0
 16  1  1  0  0  0  0
 18 16  1  0  0  0  0
 19 20  1  0  0  0  0
 19 22  1  0  0  0  0
 19 21  1  0  0  0  0
 22  3  1  0  0  0  0
 22 24  1  0  0  0  0
 23 22  1  0  0  0  0
 25 26  1  0  0  0  0
 27 25  1  0  0  0  0
 28 25  1  0  0  0  0
 28 29  1  0  0  0  0
 28 30  1  0  0  0  0
 31  4  1  0  0  0  0
 31 33  1  0  0  0  0
 31 32  1  0  0  0  0
 34 35  1  0  0  0  0
 34 31  1  0  0  0  0
 36 34  1  0  0  0  0
 37 38  1  0  0  0  0
 39 37  1  0  0  0  0
 40 37  1  0  0  0  0
 40 41  1  0  0  0  0
 41 42  1  0  0  0  0
 43 41  2  0  0  0  0
 43 44  1  0  0  0  0
 45 43  1  0  0  0  0
 46 45  1  0  0  0  0
 47 49  1  0  0  0  0
 47 45  2  0  0  0  0
 48 47  1  0  0  0  0
 49 40  2  0  0  0  0
 50 49  1  0  0  0  0
M  END
