1,2
q = -1.0

  8  7  0  0  0  0  0  0  0  0999 V2000
    0.4542   -1.0747   -2.7387 S   0  0  0  0  0  1  0  0  0  0  0  0
    1.6935   -2.7658   -0.7675 S   0  0  0  0  0  1  0  0  0  0  0  0
    1.4935   -2.3963   -2.4193 C   0  0  0  0  0  3  0  0  0  0  0  0
    2.0725   -3.0429   -3.4339 O   0  0  0  0  0  0  0  0  0  0  0  0
    2.9196   -4.1516   -3.1159 C   0  0  0  0  0  0  0  0  0  0  0  0
    3.7650   -3.8262   -2.4738 H   0  0  0  0  0  0  0  0  0  0  0  0
    3.2940   -4.5367   -4.0812 H   0  0  0  0  0  0  0  0  0  0  0  0
    2.3491   -4.9385   -2.5795 H   0  0  0  0  0  0  0  0  0  0  0  0
  1  3  1  0  0  0  0
  3  2  1  0  0  0  0
  4  5  1  0  0  0  0
  4  3  1  0  0  0  0
  5  8  1  0  0  0  0
  5  6  1  0  0  0  0
  7  5  1  0  0  0  0
M  END
