1,2
q = 0.0, confidence = 1.0

 45 45  0  0  0  0  0  0  0  0999 V2000
   -2.0411    1.6142   -0.5469 S   0  0  0  0  0  0  0  0  0  0  0  0
   -2.6386   -1.6950   -0.3856 S   0  0  0  0  0  0  0  0  0  0  0  0
    1.1545   -0.7025   -1.1039 N   0  0  0  0  0  0  0  0  0  0  0  0
   -1.6687    2.3968    1.0688 C   0  0  0  0  0  0  0  0  0  0  0  0
   -2.5910    2.9650    1.3013 H   0  0  0  0  0  0  0  0  0  0  0  0
   -0.7937    3.0652    0.9598 H   0  0  0  0  0  0  0  0  0  0  0  0
   -1.4952    1.6189    1.8338 H   0  0  0  0  0  0  0  0  0  0  0  0
   -2.5352   -2.4003    1.3037 C   0  0  0  0  0  0  0  0  0  0  0  0
   -3.5933   -2.5900    1.5718 H   0  0  0  0  0  0  0  0  0  0  0  0
   -2.0922   -1.6606    1.9945 H   0  0  0  0  0  0  0  0  0  0  0  0
   -1.9466   -3.3367    1.2751 H   0  0  0  0  0  0  0  0  0  0  0  0
   -1.0084   -1.0158   -0.6174 C   0  0  0  0  0  0  0  0  0  0  0  0
   -0.7543    0.3903   -0.6855 C   0  0  0  0  0  0  0  0  0  0  0  0
    0.5949    0.5520   -0.9950 C   0  0  0  0  0  0  0  0  0  0  0  0
    1.1922    1.4565   -1.1518 H   0  0  0  0  0  0  0  0  0  0  0  0
    0.1942   -1.6666   -0.8876 C   0  0  0  0  0  0  0  0  0  0  0  0
    0.4353   -2.7332   -0.9487 H   0  0  0  0  0  0  0  0  0  0  0  0
    2.5770   -0.9687   -1.3006 C   0  0  0  0  0  0  0  0  0  0  0  0
    2.9841   -0.1673   -1.9506 H   0  0  0  0  0  0  0  0  0  0  0  0
    2.6682   -1.9163   -1.8702 H   0  0  0  0  0  0  0  0  0  0  0  0
    3.3646   -1.0504    0.0102 C   0  0  0  0  0  0  0  0  0  0  0  0
    2.9214   -1.8454    0.6487 H   0  0  0  0  0  0  0  0  0  0  0  0
    3.2332   -0.0982    0.5692 H   0  0  0  0  0  0  0  0  0  0  0  0
    4.8537   -1.3236   -0.2119 C   0  0  0  0  0  0  0  0  0  0  0  0
    4.9779   -2.2764   -0.7753 H   0  0  0  0  0  0  0  0  0  0  0  0
    5.2746   -0.5301   -0.8685 H   0  0  0  0  0  0  0  0  0  0  0  0
    5.6533   -1.3971    1.0927 C   0  0  0  0  0  0  0  0  0  0  0  0
    5.5505   -0.4314    1.6353 H   0  0  0  0  0  0  0  0  0  0  0  0
    5.1899   -2.1593    1.7566 H   0  0  0  0  0  0  0  0  0  0  0  0
    7.1395   -1.7395    0.9102 C   0  0  0  0  0  0  0  0  0  0  0  0
    7.6115   -1.7995    1.9153 H   0  0  0  0  0  0  0  0  0  0  0  0
    7.2228   -2.7604    0.4765 H   0  0  0  0  0  0  0  0  0  0  0  0
    7.9463   -0.7645    0.0394 C   0  0  0  0  0  0  0  0  0  0  0  0
    7.5687   -0.7867   -1.0076 H   0  0  0  0  0  0  0  0  0  0  0  0
    8.9937   -1.1328   -0.0229 H   0  0  0  0  0  0  0  0  0  0  0  0
    7.9589    0.6836    0.5380 C   0  0  0  0  0  0  0  0  0  0  0  0
    8.2971    0.7050    1.5993 H   0  0  0  0  0  0  0  0  0  0  0  0
    6.9229    1.0917    0.5492 H   0  0  0  0  0  0  0  0  0  0  0  0
    8.8458    1.6132   -0.2963 C   0  0  0  0  0  0  0  0  0  0  0  0
    9.8855    1.2166   -0.3003 H   0  0  0  0  0  0  0  0  0  0  0  0
    8.5111    1.5785   -1.3574 H   0  0  0  0  0  0  0  0  0  0  0  0
    8.8477    3.0605    0.1966 C   0  0  0  0  0  0  0  0  0  0  0  0
    9.4980    3.7068   -0.4264 H   0  0  0  0  0  0  0  0  0  0  0  0
    9.2121    3.1295    1.2429 H   0  0  0  0  0  0  0  0  0  0  0  0
    7.8264    3.4957    0.1758 H   0  0  0  0  0  0  0  0  0  0  0  0
  1  4  1  0  0  0  0
  2  8  1  0  0  0  0
  3 14  1  0  0  0  0
  3 16  1  0  0  0  0
  4  5  1  0  0  0  0
  4  7  1  0  0  0  0
  6  4  1  0  0  0  0
  8  9  1  0  0  0  0
  8 10  1  0  0  0  0
 11  8  1  0  0  0  0
 12  2  1  0  0  0  0
 13 12  1  0  0  0  0
 13  1  1  0  0  0  0
 14 13  2  0  0  0  0
 15 14  1  0  0  0  0
 16 12  2  0  0  0  0
 17 16  1  0  0  0  0
 18  3  1  0  0  0  0
 18 21  1  0  0  0  0
 19 18  1  0  0  0  0
 20 18  1  0  0  0  0
 21 23  1  0  0  0  0
 21 22  1  0  0  0  0
 24 21  1  0  0  0  0
 24 27  1  0  0  0  0
 25 24  1  0  0  0  0
 26 24  1  0  0  0  0
 27 28  1  0  0  0  0
 27 29  1  0  0  0  0
 30 27  1  0  0  0  0
 30 31  1  0  0  0  0
 32 30  1  0  0  0  0
 33 36  1  0  0  0  0
 33 30  1  0  0  0  0
 34 33  1  0  0  0  0
 35 33  1  0  0  0  0
 36 38  1  0  0  0  0
 36 37  1  0  0  0  0
 39 42  1  0  0  0  0
 39 36  1  0  0  0  0
 40 39  1  0  0  0  0
 41 39  1  0  0  0  0
 42 44  1  0  0  0  0
 43 42  1  0  0  0  0
 45 42  1  0  0  0  0
M  END
