1,2
q = -1.0

 22 21  0  0  0  0  0  0  0  0999 V2000
    1.7178   -1.6806    1.0004 S   0  0  0  0  0  1  0  0  0  0  0  0
    2.2030    0.0325   -1.4469 S   0  0  0  0  0  1  0  0  0  0  0  0
    4.7098   -5.0415    0.9855 O   0  0  0  0  0  0  0  0  0  0  0  0
    4.2979   -5.9182    0.8996 H   0  0  0  0  0  0  0  0  0  0  0  0
    3.9527   -1.7499   -0.4796 N   0  0  0  0  0  0  0  0  0  0  0  0
    2.7253   -1.1761   -0.3255 C   0  0  0  0  0  3  0  0  0  0  0  0
    4.4640   -2.7447    0.4588 C   0  0  0  0  0  0  0  0  0  0  0  0
    4.0878   -2.5158    1.4755 H   0  0  0  0  0  0  0  0  0  0  0  0
    5.5716   -2.6811    0.4764 H   0  0  0  0  0  0  0  0  0  0  0  0
    4.0496   -4.1686    0.0866 C   0  0  0  0  0  0  0  0  0  0  0  0
    2.9387   -4.2322    0.1586 H   0  0  0  0  0  0  0  0  0  0  0  0
    4.3302   -4.3662   -0.9795 H   0  0  0  0  0  0  0  0  0  0  0  0
    4.8370   -1.3797   -1.5868 C   0  0  0  0  0  0  0  0  0  0  0  0
    4.2020   -1.1418   -2.4648 H   0  0  0  0  0  0  0  0  0  0  0  0
    5.4506   -2.2697   -1.8426 H   0  0  0  0  0  0  0  0  0  0  0  0
    5.7367   -0.1823   -1.2608 C   0  0  0  0  0  0  0  0  0  0  0  0
    5.0770    0.6697   -0.9926 H   0  0  0  0  0  0  0  0  0  0  0  0
    6.3468   -0.4155   -0.3606 H   0  0  0  0  0  0  0  0  0  0  0  0
    6.6415    0.1958   -2.4323 C   0  0  0  0  0  0  0  0  0  0  0  0
    7.2886    1.0604   -2.1835 H   0  0  0  0  0  0  0  0  0  0  0  0
    6.0430    0.4722   -3.3251 H   0  0  0  0  0  0  0  0  0  0  0  0
    7.3057   -0.6448   -2.7248 H   0  0  0  0  0  0  0  0  0  0  0  0
  2  6  1  0  0  0  0
  4  3  1  0  0  0  0
  5  6  1  0  0  0  0
  5  7  1  0  0  0  0
  6  1  1  0  0  0  0
  7  9  1  0  0  0  0
  7  8  1  0  0  0  0
 10 11  1  0  0  0  0
 10  7  1  0  0  0  0
 10  3  1  0  0  0  0
 12 10  1  0  0  0  0
 13 16  1  0  0  0  0
 13  5  1  0  0  0  0
 14 13  1  0  0  0  0
 15 13  1  0  0  0  0
 16 17  1  0  0  0  0
 16 18  1  0  0  0  0
 19 20  1  0  0  0  0
 19 16  1  0  0  0  0
 21 19  1  0  0  0  0
 22 19  1  0  0  0  0
M  END
