1,28
q = -1.0

 37 38  0  0  1  0  0  0  0  0999 V2000
   -1.6731    1.3373   -1.8284 S   0  0  0  0  0  1  0  0  0  0  0  0
   -2.9658    0.6148   -0.9385 C   0  0  0  0  0  0  0  0  0  0  0  0
   -3.3753   -1.0775   -1.6062 P   0  0  0  0  0  0  0  0  0  0  0  0
   -4.8180   -1.4746   -0.5138 C   0  0  0  0  0  0  0  0  0  0  0  0
   -4.6953   -1.9882    0.7925 C   0  0  0  0  0  0  0  0  0  0  0  0
   -3.6988   -2.2298    1.1921 H   0  0  0  0  0  0  0  0  0  0  0  0
   -5.8361   -2.1790    1.5863 C   0  0  0  0  0  0  0  0  0  0  0  0
   -5.7299   -2.5809    2.6059 H   0  0  0  0  0  0  0  0  0  0  0  0
   -7.1086   -1.8527    1.0886 C   0  0  0  0  0  0  0  0  0  0  0  0
   -8.0016   -2.0024    1.7147 H   0  0  0  0  0  0  0  0  0  0  0  0
   -7.2388   -1.3427   -0.2135 C   0  0  0  0  0  0  0  0  0  0  0  0
   -8.2339   -1.0925   -0.6125 H   0  0  0  0  0  0  0  0  0  0  0  0
   -6.0994   -1.1632   -1.0132 C   0  0  0  0  0  0  0  0  0  0  0  0
   -6.2009   -0.7691   -2.0375 H   0  0  0  0  0  0  0  0  0  0  0  0
   -2.0114   -2.0353   -0.7843 C   0  0  0  0  0  0  0  0  0  0  0  0
   -1.1177   -1.4981    0.1684 C   0  0  0  0  0  0  0  0  0  0  0  0
   -1.1703   -0.4354    0.4498 H   0  0  0  0  0  0  0  0  0  0  0  0
   -0.1229   -2.3044    0.7422 C   0  0  0  0  0  0  0  0  0  0  0  0
    0.5804   -1.8660    1.4659 H   0  0  0  0  0  0  0  0  0  0  0  0
   -0.0125   -3.6580    0.3870 C   0  0  0  0  0  0  0  0  0  0  0  0
    0.7782   -4.2771    0.8365 H   0  0  0  0  0  0  0  0  0  0  0  0
   -0.8973   -4.2019   -0.5588 C   0  0  0  0  0  0  0  0  0  0  0  0
   -0.8137   -5.2602   -0.8508 H   0  0  0  0  0  0  0  0  0  0  0  0
   -1.8825   -3.3938   -1.1486 C   0  0  0  0  0  0  0  0  0  0  0  0
   -2.5660   -3.8220   -1.8998 H   0  0  0  0  0  0  0  0  0  0  0  0
   -3.5988    1.0654    0.1122 N   0  0  0  0  0  0  0  0  0  0  0  0
   -3.2799    2.0800    0.9219 C   0  0  2  0  0  3  0  0  0  0  0  0
   -1.6360    2.4957    1.3461 S   0  0  0  0  0  1  0  0  0  0  0  0
   -4.3079    2.7086    1.5604 N   0  0  0  0  0  0  0  0  0  0  0  0
   -4.0928    3.7918    2.5015 C   0  0  0  0  0  0  0  0  0  0  0  0
   -4.0727    3.4246    3.5521 H   0  0  0  0  0  0  0  0  0  0  0  0
   -3.1265    4.2866    2.2886 H   0  0  0  0  0  0  0  0  0  0  0  0
   -4.9134    4.5304    2.4029 H   0  0  0  0  0  0  0  0  0  0  0  0
   -5.6829    2.2617    1.3796 C   0  0  0  0  0  0  0  0  0  0  0  0
   -6.2605    2.9865    0.7654 H   0  0  0  0  0  0  0  0  0  0  0  0
   -5.6829    1.2795    0.8726 H   0  0  0  0  0  0  0  0  0  0  0  0
   -6.1765    2.1700    2.3693 H   0  0  0  0  0  0  0  0  0  0  0  0
  1  2  1  0  0  0  0
  2 26  2  0  0  0  0
  3  2  1  0  0  0  0
  3 15  1  0  0  0  0
  3  4  1  0  0  0  0
  4  5  1  0  0  0  0
  5  6  1  0  0  0  0
  5  7  2  0  0  0  0
  7  8  1  0  0  0  0
  9  7  1  0  0  0  0
  9 10  1  0  0  0  0
 11  9  2  0  0  0  0
 12 11  1  0  0  0  0
 13  4  2  0  0  0  0
 13 11  1  0  0  0  0
 14 13  1  0  0  0  0
 15 16  1  0  0  0  0
 16 17  1  0  0  0  0
 16 18  2  0  0  0  0
 18 19  1  0  0  0  0
 20 18  1  0  0  0  0
 20 21  1  0  0  0  0
 22 20  2  0  0  0  0
 23 22  1  0  0  0  0
 24 15  2  0  0  0  0
 24 22  1  0  0  0  0
 25 24  1  0  0  0  0
 26 27  1  0  0  0  0
 27 28  1  1  0  0  0
 27 29  1  0  0  0  0
 29 30  1  0  0  0  0
 30 31  1  0  0  0  0
 32 30  1  0  0  0  0
 33 30  1  0  0  0  0
 34 29  1  0  0  0  0
 34 37  1  0  0  0  0
 35 34  1  0  0  0  0
 36 34  1  0  0  0  0
M  END
