1,2
q = -1.0

 32 33  0  0  0  0  0  0  0  0999 V2000
    2.1652   -1.0940    1.0433 S   0  0  0  0  0  1  0  0  0  0  0  0
    2.1653    1.0942   -1.0433 S   0  0  0  0  0  1  0  0  0  0  0  0
    4.3813   -0.0000   -0.0000 N   0  0  0  0  0  0  0  0  0  0  0  0
    3.0277    0.0001   -0.0000 C   0  0  0  0  0  3  0  0  0  0  0  0
    5.1766    0.8185   -0.9280 C   0  0  0  0  0  0  0  0  0  0  0  0
    4.4833    1.2091   -1.6992 H   0  0  0  0  0  0  0  0  0  0  0  0
    5.9040    0.1457   -1.4286 H   0  0  0  0  0  0  0  0  0  0  0  0
    5.9024    1.9457   -0.2265 C   0  0  0  0  0  0  0  0  0  0  0  0
    7.3088    1.9982   -0.2124 C   0  0  0  0  0  0  0  0  0  0  0  0
    7.8833    1.2125   -0.7291 H   0  0  0  0  0  0  0  0  0  0  0  0
    7.9783    3.0397    0.4506 C   0  0  0  0  0  0  0  0  0  0  0  0
    9.0785    3.0705    0.4529 H   0  0  0  0  0  0  0  0  0  0  0  0
    7.2440    4.0350    1.1124 C   0  0  0  0  0  0  0  0  0  0  0  0
    7.7662    4.8509    1.6349 H   0  0  0  0  0  0  0  0  0  0  0  0
    5.8391    3.9873    1.1060 C   0  0  0  0  0  0  0  0  0  0  0  0
    5.2594    4.7686    1.6209 H   0  0  0  0  0  0  0  0  0  0  0  0
    5.1711    2.9507    0.4406 C   0  0  0  0  0  0  0  0  0  0  0  0
    4.0700    2.9138    0.4249 H   0  0  0  0  0  0  0  0  0  0  0  0
    5.1765   -0.8186    0.9279 C   0  0  0  0  0  0  0  0  0  0  0  0
    4.4832   -1.2091    1.6991 H   0  0  0  0  0  0  0  0  0  0  0  0
    5.9040   -0.1459    1.4284 H   0  0  0  0  0  0  0  0  0  0  0  0
    5.9023   -1.9459    0.2264 C   0  0  0  0  0  0  0  0  0  0  0  0
    7.3086   -1.9987    0.2125 C   0  0  0  0  0  0  0  0  0  0  0  0
    7.8832   -1.2130    0.7294 H   0  0  0  0  0  0  0  0  0  0  0  0
    7.9780   -3.0402   -0.4504 C   0  0  0  0  0  0  0  0  0  0  0  0
    9.0783   -3.0712   -0.4525 H   0  0  0  0  0  0  0  0  0  0  0  0
    7.2437   -4.0353   -1.1124 C   0  0  0  0  0  0  0  0  0  0  0  0
    7.7658   -4.8512   -1.6350 H   0  0  0  0  0  0  0  0  0  0  0  0
    5.8388   -3.9873   -1.1063 C   0  0  0  0  0  0  0  0  0  0  0  0
    5.2590   -4.7684   -1.6213 H   0  0  0  0  0  0  0  0  0  0  0  0
    5.1708   -2.9506   -0.4409 C   0  0  0  0  0  0  0  0  0  0  0  0
    4.0698   -2.9136   -0.4254 H   0  0  0  0  0  0  0  0  0  0  0  0
  2  4  1  0  0  0  0
  3  4  1  0  0  0  0
  3 19  1  0  0  0  0
  4  1  1  0  0  0  0
  5  8  1  0  0  0  0
  5  3  1  0  0  0  0
  6  5  1  0  0  0  0
  7  5  1  0  0  0  0
  8  9  2  0  0  0  0
  8 17  1  0  0  0  0
  9 11  1  0  0  0  0
 10  9  1  0  0  0  0
 11 12  1  0  0  0  0
 11 13  2  0  0  0  0
 13 14  1  0  0  0  0
 15 13  1  0  0  0  0
 15 16  1  0  0  0  0
 17 15  2  0  0  0  0
 18 17  1  0  0  0  0
 19 21  1  0  0  0  0
 19 20  1  0  0  0  0
 22 19  1  0  0  0  0
 23 22  1  0  0  0  0
 23 24  1  0  0  0  0
 25 23  2  0  0  0  0
 26 25  1  0  0  0  0
 27 29  2  0  0  0  0
 27 25  1  0  0  0  0
 28 27  1  0  0  0  0
 29 31  1  0  0  0  0
 30 29  1  0  0  0  0
 31 32  1  0  0  0  0
 31 22  2  0  0  0  0
M  END
