17,18
q = -1.0, confidence = 0.012

 18 17  0  0  0  0  0  0  0  0999 V2000
   -3.3413    0.0013    0.0004 C   0  0  0  0  0  3  0  0  0  0  0  0
   -5.4396   -0.8949    0.8836 C   0  0  0  0  0  0  0  0  0  0  0  0
   -5.7468   -2.2441    0.2358 C   0  0  0  0  0  0  0  0  0  0  0  0
   -5.4396    0.8980   -0.8823 C   0  0  0  0  0  0  0  0  0  0  0  0
   -5.7463    2.2473   -0.2345 C   0  0  0  0  0  0  0  0  0  0  0  0
   -6.3706   -0.3641    1.1716 H   0  0  0  0  0  0  0  0  0  0  0  0
   -4.8453   -1.0328    1.8110 H   0  0  0  0  0  0  0  0  0  0  0  0
   -4.8080   -2.7762   -0.0136 H   0  0  0  0  0  0  0  0  0  0  0  0
   -6.3297   -2.8778    0.9333 H   0  0  0  0  0  0  0  0  0  0  0  0
   -6.3401   -2.1242   -0.6932 H   0  0  0  0  0  0  0  0  0  0  0  0
   -6.3708    0.3674   -1.1701 H   0  0  0  0  0  0  0  0  0  0  0  0
   -4.8454    1.0358   -1.8099 H   0  0  0  0  0  0  0  0  0  0  0  0
   -6.3292    2.8812   -0.9318 H   0  0  0  0  0  0  0  0  0  0  0  0
   -4.8073    2.7792    0.0147 H   0  0  0  0  0  0  0  0  0  0  0  0
   -6.3394    2.1275    0.6946 H   0  0  0  0  0  0  0  0  0  0  0  0
   -4.6841    0.0015    0.0005 N   0  0  0  0  0  0  0  0  0  0  0  0
   -2.4018    1.0548   -1.0056 S   0  0  0  0  0  1  0  0  0  0  0  0
   -2.4018   -1.0525    1.0060 S   0  0  0  0  0  1  0  0  0  0  0  0
  1 16  1  0  0  0  0
  1 18  1  0  0  0  0
  2  6  1  0  0  0  0
  2  7  1  0  0  0  0
  3  2  1  0  0  0  0
  3  9  1  0  0  0  0
  4  5  1  0  0  0  0
  4 16  1  0  0  0  0
  5 14  1  0  0  0  0
  5 15  1  0  0  0  0
  8  3  1  0  0  0  0
 10  3  1  0  0  0  0
 11  4  1  0  0  0  0
 12  4  1  0  0  0  0
 13  5  1  0  0  0  0
 16  2  1  0  0  0  0
 17  1  1  0  0  0  0
M  END
