1,2
q = -2.0, confidence = 0.862

 18 17  0  0  0  0  0  0  0  0999 V2000
    1.2941   -1.6335   -1.6960 S   0  0  0  0  0  1  0  0  0  0  0  0
    0.3723   -0.6260    1.2261 S   0  0  0  0  0  1  0  0  0  0  0  0
    3.5793   -3.8583    0.6355 O   0  0  0  0  0  0  0  0  0  0  0  0
    3.2377   -3.7369   -1.6033 O   0  0  0  0  0  0  0  0  0  0  0  0
    1.7746   -3.0859    3.0773 O   0  0  0  0  0  0  0  0  0  0  0  0
    3.4110   -1.6172    2.4907 O   0  0  0  0  0  0  0  0  0  0  0  0
    1.9681   -2.2953   -0.2254 C   0  0  0  0  0  0  0  0  0  0  0  0
    1.5881   -1.8029    1.0204 C   0  0  0  0  0  0  0  0  0  0  0  0
    2.9885   -3.3549   -0.3163 C   0  0  0  0  0  0  0  0  0  0  0  0
    4.2145   -4.7615   -1.7450 C   0  0  0  0  0  0  0  0  0  0  0  0
    2.2419   -2.2890    2.2911 C   0  0  0  0  0  0  0  0  0  0  0  0
    4.1666   -2.0612    3.6157 C   0  0  0  0  0  0  0  0  0  0  0  0
    5.1957   -4.4433   -1.3340 H   0  0  0  0  0  0  0  0  0  0  0  0
    4.2995   -4.9576   -2.8298 H   0  0  0  0  0  0  0  0  0  0  0  0
    3.9100   -5.6858   -1.2104 H   0  0  0  0  0  0  0  0  0  0  0  0
    3.5582   -2.0421    4.5430 H   0  0  0  0  0  0  0  0  0  0  0  0
    5.0274   -1.3727    3.7019 H   0  0  0  0  0  0  0  0  0  0  0  0
    4.5205   -3.0999    3.4486 H   0  0  0  0  0  0  0  0  0  0  0  0
  1  7  1  0  0  0  0
  4  9  1  0  0  0  0
  6 12  1  0  0  0  0
  7  8  2  0  0  0  0
  8  2  1  0  0  0  0
  8 11  1  0  0  0  0
  9  7  1  0  0  0  0
  9  3  2  0  0  0  0
 10  4  1  0  0  0  0
 10 13  1  0  0  0  0
 10 15  1  0  0  0  0
 11  6  1  0  0  0  0
 11  5  2  0  0  0  0
 12 17  1  0  0  0  0
 12 16  1  0  0  0  0
 14 10  1  0  0  0  0
 18 12  1  0  0  0  0
M  END
