1,5
q = 0.0, confidence = 0.542

  6  5  0  0  0  0  0  0  0  0999 V2000
    2.2591    1.5905   -0.0007 S   0  0  0  0  0  1  0  0  0  0  0  0
    3.7459    0.6811   -0.0002 C   0  0  0  0  0  0  0  0  0  0  0  0
    4.6747    1.2730   -0.0004 H   0  0  0  0  0  0  0  0  0  0  0  0
    3.7460   -0.6812    0.0005 C   0  0  0  0  0  0  0  0  0  0  0  0
    2.2591   -1.5906    0.0008 S   0  0  0  0  0  1  0  0  0  0  0  0
    4.6747   -1.2731    0.0009 H   0  0  0  0  0  0  0  0  0  0  0  0
  1  2  1  0  0  0  0
  2  4  2  0  0  0  0
  3  2  1  0  0  0  0
  4  5  1  0  0  0  0
  4  6  1  0  0  0  0
M  END
