1,2
q = -1.0

 25 24  0  0  0  0  0  0  0  0999 V2000
   -0.4577    2.2418    1.4941 S   0  0  0  0  0  1  0  0  0  0  0  0
    1.1621    1.9710   -1.4893 S   0  0  0  0  0  1  0  0  0  0  0  0
    0.5305    3.1837    0.0013 P   0  0  0  0  0  4  0  0  0  0  0  0
    1.7672    4.1006    0.5789 O   0  0  0  0  0  0  0  0  0  0  0  0
   -0.3454    4.4483   -0.5789 O   0  0  0  0  0  0  0  0  0  0  0  0
    2.8700    3.3550    1.1705 C   0  0  0  0  0  0  0  0  0  0  0  0
   -1.6296    4.0960   -1.1697 C   0  0  0  0  0  0  0  0  0  0  0  0
    4.1220    3.6623    0.3606 C   0  0  0  0  0  0  0  0  0  0  0  0
    2.9536    3.7343    2.6421 C   0  0  0  0  0  0  0  0  0  0  0  0
    2.6558    2.2641    1.0917 H   0  0  0  0  0  0  0  0  0  0  0  0
   -1.5860    4.4797   -2.6419 C   0  0  0  0  0  0  0  0  0  0  0  0
   -2.7164    4.7911   -0.3612 C   0  0  0  0  0  0  0  0  0  0  0  0
   -1.7777    2.9943   -1.0895 H   0  0  0  0  0  0  0  0  0  0  0  0
    3.9664    3.3505   -0.6910 H   0  0  0  0  0  0  0  0  0  0  0  0
    4.3447    4.7494    0.3804 H   0  0  0  0  0  0  0  0  0  0  0  0
    4.9942    3.1116    0.7679 H   0  0  0  0  0  0  0  0  0  0  0  0
    1.9999    3.4777    3.1432 H   0  0  0  0  0  0  0  0  0  0  0  0
    3.7755    3.1808    3.1401 H   0  0  0  0  0  0  0  0  0  0  0  0
    3.1357    4.8232    2.7565 H   0  0  0  0  0  0  0  0  0  0  0  0
   -2.5424    4.2197   -3.1396 H   0  0  0  0  0  0  0  0  0  0  0  0
   -1.4076    5.5690   -2.7580 H   0  0  0  0  0  0  0  0  0  0  0  0
   -0.7657    3.9288   -3.1419 H   0  0  0  0  0  0  0  0  0  0  0  0
   -3.7194    4.5485   -0.7676 H   0  0  0  0  0  0  0  0  0  0  0  0
   -2.6686    4.4482    0.6911 H   0  0  0  0  0  0  0  0  0  0  0  0
   -2.5782    5.8920   -0.3838 H   0  0  0  0  0  0  0  0  0  0  0  0
  2  3  1  0  0  0  0
  3  4  1  0  0  0  0
  3  1  1  0  0  0  0
  4  6  1  0  0  0  0
  5  3  1  0  0  0  0
  6  9  1  0  0  0  0
  7 13  1  0  0  0  0
  7  5  1  0  0  0  0
  7 12  1  0  0  0  0
  8 15  1  0  0  0  0
  8 16  1  0  0  0  0
  8  6  1  0  0  0  0
  9 19  1  0  0  0  0
  9 18  1  0  0  0  0
  9 17  1  0  0  0  0
 10  6  1  0  0  0  0
 11  7  1  0  0  0  0
 12 24  1  0  0  0  0
 14  8  1  0  0  0  0
 20 11  1  0  0  0  0
 21 11  1  0  0  0  0
 22 11  1  0  0  0  0
 23 12  1  0  0  0  0
 25 12  1  0  0  0  0
M  END
