1,10
q = 0.0, confidence = 0.992

 30 31  0  0  0  0  0  0  0  0999 V2000
    1.3954   -0.3519    1.1994 S   0  0  2  0  0  3  0  0  0  0  0  0
    1.7737    0.0500    2.5895 O   0  0  0  0  0  1  0  0  0  0  0  0
    0.6061   -1.9921    1.3122 C   0  0  0  0  0  0  0  0  0  0  0  0
    2.8890   -0.8093    0.2863 C   0  0  0  0  0  0  0  0  0  0  0  0
    2.7876   -1.2108   -1.0548 C   0  0  0  0  0  0  0  0  0  0  0  0
    3.9701   -1.5216   -1.7386 C   0  0  0  0  0  0  0  0  0  0  0  0
    5.2126   -1.4121   -1.0882 C   0  0  0  0  0  0  0  0  0  0  0  0
    5.2842   -0.9962    0.2510 C   0  0  0  0  0  0  0  0  0  0  0  0
    4.1105   -0.6881    0.9567 C   0  0  0  0  0  0  0  0  0  0  0  0
   -1.1686   -1.0194   -0.5353 S   0  0  2  0  0  3  0  0  0  0  0  0
   -1.1060   -1.7004   -1.8735 O   0  0  0  0  0  1  0  0  0  0  0  0
   -0.5280   -2.2443    0.6507 C   0  0  0  0  0  0  0  0  0  0  0  0
   -2.8909   -0.9091   -0.0125 C   0  0  0  0  0  0  0  0  0  0  0  0
   -3.8214   -1.7001   -0.6979 C   0  0  0  0  0  0  0  0  0  0  0  0
   -5.1659   -1.6300   -0.3038 C   0  0  0  0  0  0  0  0  0  0  0  0
   -5.5484   -0.7788    0.7463 C   0  0  0  0  0  0  0  0  0  0  0  0
   -4.5953    0.0160    1.4069 C   0  0  0  0  0  0  0  0  0  0  0  0
   -3.2481   -0.0359    1.0244 C   0  0  0  0  0  0  0  0  0  0  0  0
    1.1299   -2.6881    1.9870 H   0  0  0  0  0  0  0  0  0  0  0  0
    1.8066   -1.2780   -1.5525 H   0  0  0  0  0  0  0  0  0  0  0  0
    3.9207   -1.8404   -2.7902 H   0  0  0  0  0  0  0  0  0  0  0  0
    6.1369   -1.6476   -1.6368 H   0  0  0  0  0  0  0  0  0  0  0  0
    6.2602   -0.9031    0.7502 H   0  0  0  0  0  0  0  0  0  0  0  0
    4.1213   -0.3455    2.0022 H   0  0  0  0  0  0  0  0  0  0  0  0
   -1.0778   -3.1990    0.6626 H   0  0  0  0  0  0  0  0  0  0  0  0
   -3.4855   -2.3332   -1.5327 H   0  0  0  0  0  0  0  0  0  0  0  0
   -5.9199   -2.2360   -0.8279 H   0  0  0  0  0  0  0  0  0  0  0  0
   -6.6058   -0.7233    1.0459 H   0  0  0  0  0  0  0  0  0  0  0  0
   -4.9047    0.6957    2.2145 H   0  0  0  0  0  0  0  0  0  0  0  0
   -2.4875    0.6017    1.5017 H   0  0  0  0  0  0  0  0  0  0  0  0
  1  3  1  0  0  0  0
  1  2  1  1  0  0  0
  3 19  1  0  0  0  0
  4  9  1  0  0  0  0
  4  1  1  0  0  0  0
  5  4  2  0  0  0  0
  6  7  2  0  0  0  0
  6  5  1  0  0  0  0
  7  8  1  0  0  0  0
  8 23  1  0  0  0  0
  8  9  2  0  0  0  0
  9 24  1  0  0  0  0
 10 11  1  6  0  0  0
 10 13  1  0  0  0  0
 10 12  1  0  0  0  0
 12 25  1  0  0  0  0
 12  3  2  0  0  0  0
 13 18  1  0  0  0  0
 14 15  1  0  0  0  0
 14 13  2  0  0  0  0
 15 16  2  0  0  0  0
 16 28  1  0  0  0  0
 16 17  1  0  0  0  0
 17 29  1  0  0  0  0
 18 17  2  0  0  0  0
 18 30  1  0  0  0  0
 20  5  1  0  0  0  0
 21  6  1  0  0  0  0
 22  7  1  0  0  0  0
 26 14  1  0  0  0  0
 27 15  1  0  0  0  0
M  END
