1,2
q = -2.0, confidence = 0.706

 18 18  0  0  0  0  0  0  0  0999 V2000
    1.0733   -1.0494   -2.0375 S   0  0  0  0  0  1  0  0  0  0  0  0
    1.0731   -1.0508    2.0371 S   0  0  0  0  0  1  0  0  0  0  0  0
    2.7811   -1.5792   -1.5279 C   0  0  0  0  0  0  0  0  0  0  0  0
    2.7230   -2.5489   -0.9976 H   0  0  0  0  0  0  0  0  0  0  0  0
    3.3302   -1.7572   -2.4743 H   0  0  0  0  0  0  0  0  0  0  0  0
    2.7802   -1.5811    1.5257 C   0  0  0  0  0  0  0  0  0  0  0  0
    3.3297   -1.7615    2.4715 H   0  0  0  0  0  0  0  0  0  0  0  0
    2.7210   -2.5497    0.9935 H   0  0  0  0  0  0  0  0  0  0  0  0
    3.4970   -0.5355   -0.7115 C   0  0  0  0  0  0  0  0  0  0  0  0
    4.1517    0.5173   -1.3895 C   0  0  0  0  0  0  0  0  0  0  0  0
    4.1386    0.5162   -2.4912 H   0  0  0  0  0  0  0  0  0  0  0  0
    4.7948    1.5519   -0.7015 C   0  0  0  0  0  0  0  0  0  0  0  0
    5.3012    2.3550   -1.2589 H   0  0  0  0  0  0  0  0  0  0  0  0
    4.7943    1.5511    0.7044 C   0  0  0  0  0  0  0  0  0  0  0  0
    5.3004    2.3535    1.2631 H   0  0  0  0  0  0  0  0  0  0  0  0
    4.1508    0.5156    1.3907 C   0  0  0  0  0  0  0  0  0  0  0  0
    4.1370    0.5131    2.4924 H   0  0  0  0  0  0  0  0  0  0  0  0
    3.4966   -0.5364    0.7110 C   0  0  0  0  0  0  0  0  0  0  0  0
  1  3  1  0  0  0  0
  3  4  1  0  0  0  0
  3  9  1  0  0  0  0
  5  3  1  0  0  0  0
  6  2  1  0  0  0  0
  6  7  1  0  0  0  0
  8  6  1  0  0  0  0
  9 18  1  0  0  0  0
 10  9  2  0  0  0  0
 10 12  1  0  0  0  0
 11 10  1  0  0  0  0
 12 14  2  0  0  0  0
 13 12  1  0  0  0  0
 14 15  1  0  0  0  0
 14 16  1  0  0  0  0
 16 17  1  0  0  0  0
 18 16  2  0  0  0  0
 18  6  1  0  0  0  0
M  END
