1,2
q = -1.0, confidence = 0.0

 28 28  0  0  1  0  0  0  0  0999 V2000
    1.4387    1.2913    0.8494 S   0  0  0  0  0  1  0  0  0  0  0  0
    1.3271    1.7177   -2.0954 S   0  0  0  0  0  1  0  0  0  0  0  0
    2.1393    1.1410   -0.7192 C   0  0  0  0  0  3  0  0  0  0  0  0
    3.4447    0.3619   -0.8502 C   0  0  2  0  0  0  0  0  0  0  0  0
    3.0362   -1.1197   -0.7558 C   0  0  0  0  0  0  0  0  0  0  0  0
    3.6660   -1.6678    0.3296 C   0  0  0  0  0  0  0  0  0  0  0  0
    4.4681   -0.6382    1.0207 C   0  0  0  0  0  0  0  0  0  0  0  0
    4.3405    0.5578    0.3678 C   0  0  0  0  0  0  0  0  0  0  0  0
    4.2143    0.6432   -2.1521 C   0  0  0  0  0  0  0  0  0  0  0  0
    4.5247    1.7061   -2.2040 H   0  0  0  0  0  0  0  0  0  0  0  0
    3.5823    0.4376   -3.0373 H   0  0  0  0  0  0  0  0  0  0  0  0
    5.1170    0.0024   -2.1918 H   0  0  0  0  0  0  0  0  0  0  0  0
    2.0753   -1.7515   -1.7055 C   0  0  0  0  0  0  0  0  0  0  0  0
    2.0674   -2.8534   -1.5973 H   0  0  0  0  0  0  0  0  0  0  0  0
    2.3169   -1.5122   -2.7625 H   0  0  0  0  0  0  0  0  0  0  0  0
    1.0335   -1.3950   -1.5349 H   0  0  0  0  0  0  0  0  0  0  0  0
    3.5853   -3.0843    0.8090 C   0  0  0  0  0  0  0  0  0  0  0  0
    3.1226   -3.1374    1.8187 H   0  0  0  0  0  0  0  0  0  0  0  0
    4.5926   -3.5429    0.9029 H   0  0  0  0  0  0  0  0  0  0  0  0
    2.9837   -3.7195    0.1320 H   0  0  0  0  0  0  0  0  0  0  0  0
    5.2527   -0.9248    2.2631 C   0  0  0  0  0  0  0  0  0  0  0  0
    5.8158   -0.0395    2.6146 H   0  0  0  0  0  0  0  0  0  0  0  0
    5.9794   -1.7505    2.1071 H   0  0  0  0  0  0  0  0  0  0  0  0
    4.5847   -1.2475    3.0908 H   0  0  0  0  0  0  0  0  0  0  0  0
    4.9138    1.8891    0.7185 C   0  0  0  0  0  0  0  0  0  0  0  0
    4.1088    2.6012    1.0084 H   0  0  0  0  0  0  0  0  0  0  0  0
    5.4505    2.3480   -0.1401 H   0  0  0  0  0  0  0  0  0  0  0  0
    5.6230    1.8237    1.5660 H   0  0  0  0  0  0  0  0  0  0  0  0
  2  3  1  0  0  0  0
  3  1  1  0  0  0  0
  4  5  1  0  0  0  0
  4  3  1  1  0  0  0
  4  8  1  0  0  0  0
  5  6  2  0  0  0  0
  6 17  1  0  0  0  0
  6  7  1  0  0  0  0
  7 21  1  0  0  0  0
  8 25  1  0  0  0  0
  8  7  2  0  0  0  0
  9  4  1  0  0  0  0
 10  9  1  0  0  0  0
 11  9  1  0  0  0  0
 12  9  1  0  0  0  0
 13 14  1  0  0  0  0
 13 16  1  0  0  0  0
 13  5  1  0  0  0  0
 15 13  1  0  0  0  0
 17 19  1  0  0  0  0
 17 18  1  0  0  0  0
 20 17  1  0  0  0  0
 21 22  1  0  0  0  0
 21 24  1  0  0  0  0
 23 21  1  0  0  0  0
 25 26  1  0  0  0  0
 25 28  1  0  0  0  0
 27 25  1  0  0  0  0
M  END
