1,2
q = -1.0, confidence = 0.0

 26 25  0  0  1  0  0  0  0  0999 V2000
   -1.9403    0.2519   -1.0843 S   0  0  0  0  0  1  0  0  0  0  0  0
   -1.4249   -0.0092    1.7258 S   0  0  0  0  0  1  0  0  0  0  0  0
   -3.8815    0.2651    0.8277 O   0  0  0  0  0  0  0  0  0  0  0  0
   -4.6277    2.9261   -0.1053 C   0  0  0  0  0  0  0  0  0  0  0  0
   -3.8468    2.8917    0.6803 H   0  0  0  0  0  0  0  0  0  0  0  0
   -5.1655    3.8889   -0.0005 H   0  0  0  0  0  0  0  0  0  0  0  0
   -4.1102    2.9273   -1.0861 H   0  0  0  0  0  0  0  0  0  0  0  0
   -4.9176    0.3924   -0.2024 C   0  0  2  0  0  0  0  0  0  0  0  0
   -4.4024    0.3971   -1.1883 H   0  0  0  0  0  0  0  0  0  0  0  0
   -5.5915    1.7444    0.0192 C   0  0  0  0  0  0  0  0  0  0  0  0
   -6.0770    1.7513    1.0173 H   0  0  0  0  0  0  0  0  0  0  0  0
   -6.4060    1.8382   -0.7283 H   0  0  0  0  0  0  0  0  0  0  0  0
   -5.8081   -0.8768   -0.1299 C   0  0  0  0  0  0  0  0  0  0  0  0
   -2.6056    0.1841    0.5021 C   0  0  0  0  0  3  0  0  0  0  0  0
   -4.9078   -2.1154   -0.3128 C   0  0  0  0  0  0  0  0  0  0  0  0
   -4.2022   -2.2336    0.5329 H   0  0  0  0  0  0  0  0  0  0  0  0
   -4.3100   -2.0487   -1.2446 H   0  0  0  0  0  0  0  0  0  0  0  0
   -5.5275   -3.0331   -0.3656 H   0  0  0  0  0  0  0  0  0  0  0  0
   -6.5381   -0.9707    1.2218 C   0  0  0  0  0  0  0  0  0  0  0  0
   -7.0924   -1.9284    1.2904 H   0  0  0  0  0  0  0  0  0  0  0  0
   -7.2728   -0.1516    1.3556 H   0  0  0  0  0  0  0  0  0  0  0  0
   -5.8179   -0.9316    2.0630 H   0  0  0  0  0  0  0  0  0  0  0  0
   -6.8270   -0.8256   -1.2839 C   0  0  0  0  0  0  0  0  0  0  0  0
   -6.3219   -0.7259   -2.2671 H   0  0  0  0  0  0  0  0  0  0  0  0
   -7.5415    0.0146   -1.1761 H   0  0  0  0  0  0  0  0  0  0  0  0
   -7.4190   -1.7627   -1.3057 H   0  0  0  0  0  0  0  0  0  0  0  0
  1 14  1  0  0  0  0
  4  6  1  0  0  0  0
  4 10  1  0  0  0  0
  4  5  1  0  0  0  0
  7  4  1  0  0  0  0
  8  9  1  6  0  0  0
  8 13  1  0  0  0  0
  8 10  1  0  0  0  0
  8  3  1  0  0  0  0
 10 11  1  0  0  0  0
 12 10  1  0  0  0  0
 13 19  1  0  0  0  0
 14  3  1  0  0  0  0
 14  2  1  0  0  0  0
 15 13  1  0  0  0  0
 15 16  1  0  0  0  0
 17 15  1  0  0  0  0
 18 15  1  0  0  0  0
 19 20  1  0  0  0  0
 19 21  1  0  0  0  0
 19 22  1  0  0  0  0
 23 25  1  0  0  0  0
 23 13  1  0  0  0  0
 24 23  1  0  0  0  0
 26 23  1  0  0  0  0
M  END
