1,2
q = -1.0, confidence = 0.0

 29 29  0  0  0  0  0  0  0  0999 V2000
   -1.9336    1.0259    0.4383 S   0  0  0  0  0  1  0  0  0  0  0  0
   -1.4581   -1.6480   -0.4499 S   0  0  0  0  0  1  0  0  0  0  0  0
   -3.9831   -0.6367   -0.2701 N   0  0  0  0  0  0  0  0  0  0  0  0
   -2.6568   -0.4466   -0.1111 C   0  0  0  0  0  3  0  0  0  0  0  0
   -4.4712   -1.9037   -0.8299 C   0  0  0  0  0  0  0  0  0  0  0  0
   -5.3918   -1.7026   -1.4137 H   0  0  0  0  0  0  0  0  0  0  0  0
   -3.6939   -2.2574   -1.5443 H   0  0  0  0  0  0  0  0  0  0  0  0
   -4.7096   -2.9624    0.2148 C   0  0  0  0  0  0  0  0  0  0  0  0
   -3.8515   -3.1548    0.8827 H   0  0  0  0  0  0  0  0  0  0  0  0
   -5.8435   -3.6710    0.3373 C   0  0  0  0  0  0  0  0  0  0  0  0
   -6.7084   -3.4944   -0.3251 H   0  0  0  0  0  0  0  0  0  0  0  0
   -5.9507   -4.4591    1.0984 H   0  0  0  0  0  0  0  0  0  0  0  0
   -4.9270    0.4602    0.0067 C   0  0  0  0  0  0  0  0  0  0  0  0
   -4.3748    1.1493    0.6831 H   0  0  0  0  0  0  0  0  0  0  0  0
   -6.1890    0.0010    0.7495 C   0  0  0  0  0  0  0  0  0  0  0  0
   -6.7571   -0.7228    0.1258 H   0  0  0  0  0  0  0  0  0  0  0  0
   -5.9050   -0.5382    1.6760 H   0  0  0  0  0  0  0  0  0  0  0  0
   -7.0893    1.2050    1.0618 C   0  0  0  0  0  0  0  0  0  0  0  0
   -6.5625    1.8808    1.7720 H   0  0  0  0  0  0  0  0  0  0  0  0
   -8.0075    0.8617    1.5818 H   0  0  0  0  0  0  0  0  0  0  0  0
   -7.4471    1.9870   -0.2089 C   0  0  0  0  0  0  0  0  0  0  0  0
   -8.0768    2.8658    0.0425 H   0  0  0  0  0  0  0  0  0  0  0  0
   -8.0636    1.3403   -0.8736 H   0  0  0  0  0  0  0  0  0  0  0  0
   -6.1865    2.4297   -0.9625 C   0  0  0  0  0  0  0  0  0  0  0  0
   -6.4546    2.9588   -1.9004 H   0  0  0  0  0  0  0  0  0  0  0  0
   -5.6262    3.1629   -0.3404 H   0  0  0  0  0  0  0  0  0  0  0  0
   -5.2678    1.2414   -1.2740 C   0  0  0  0  0  0  0  0  0  0  0  0
   -4.3235    1.5836   -1.7446 H   0  0  0  0  0  0  0  0  0  0  0  0
   -5.7692    0.5592   -1.9972 H   0  0  0  0  0  0  0  0  0  0  0  0
  2  4  1  0  0  0  0
  3  4  1  0  0  0  0
  3 13  1  0  0  0  0
  4  1  1  0  0  0  0
  5  3  1  0  0  0  0
  5  8  1  0  0  0  0
  6  5  1  0  0  0  0
  7  5  1  0  0  0  0
  8 10  2  0  0  0  0
  8  9  1  0  0  0  0
 10 12  1  0  0  0  0
 11 10  1  0  0  0  0
 13 14  1  0  0  0  0
 13 15  1  0  0  0  0
 15 18  1  0  0  0  0
 15 17  1  0  0  0  0
 16 15  1  0  0  0  0
 18 20  1  0  0  0  0
 18 19  1  0  0  0  0
 21 22  1  0  0  0  0
 21 18  1  0  0  0  0
 23 21  1  0  0  0  0
 24 26  1  0  0  0  0
 24 21  1  0  0  0  0
 25 24  1  0  0  0  0
 27 24  1  0  0  0  0
 27 13  1  0  0  0  0
 28 27  1  0  0  0  0
 29 27  1  0  0  0  0
M  END
