1,3
q = -1.0

 15 14  0  0  0  0  0  0  0  0999 V2000
    2.0887   -0.2575   -1.6577 S   0  0  0  0  0  1  0  0  0  0  0  0
    2.7517   -1.2326   -0.4185 C   0  0  0  0  0  3  0  0  0  0  0  0
    1.9618   -1.6093    1.0649 S   0  0  0  0  0  1  0  0  0  0  0  0
    3.9752   -1.7141   -0.6836 O   0  0  0  0  0  0  0  0  0  0  0  0
    4.6287   -2.5690    0.2671 C   0  0  0  0  0  0  0  0  0  0  0  0
    4.0346   -3.4990    0.3971 H   0  0  0  0  0  0  0  0  0  0  0  0
    4.6796   -2.0599    1.2530 H   0  0  0  0  0  0  0  0  0  0  0  0
    6.0142   -2.8788   -0.2499 C   0  0  0  0  0  0  0  0  0  0  0  0
    6.8244   -1.7333   -0.1398 O   0  0  0  0  0  0  0  0  0  0  0  0
    8.1074   -1.9179   -0.6823 C   0  0  0  0  0  0  0  0  0  0  0  0
    8.6689   -0.9724   -0.5516 H   0  0  0  0  0  0  0  0  0  0  0  0
    8.0734   -2.1623   -1.7728 H   0  0  0  0  0  0  0  0  0  0  0  0
    8.6706   -2.7383   -0.1705 H   0  0  0  0  0  0  0  0  0  0  0  0
    6.4298   -3.7309    0.3482 H   0  0  0  0  0  0  0  0  0  0  0  0
    5.9458   -3.2287   -1.3107 H   0  0  0  0  0  0  0  0  0  0  0  0
  1  2  1  0  0  0  0
  2  3  1  0  0  0  0
  4  2  1  0  0  0  0
  4  5  1  0  0  0  0
  5  6  1  0  0  0  0
  5  7  1  0  0  0  0
  8  9  1  0  0  0  0
  8  5  1  0  0  0  0
  8 14  1  0  0  0  0
 10 11  1  0  0  0  0
 10 13  1  0  0  0  0
 10  9  1  0  0  0  0
 12 10  1  0  0  0  0
 15  8  1  0  0  0  0
M  END
