1,2
q = -1.0

 11 10  0  0  0  0  0  0  0  0999 V2000
    1.9216   -1.8099   -0.7565 S   0  0  0  0  0  1  0  0  0  0  0  0
    1.7245    0.4376   -2.5574 S   0  0  0  0  0  1  0  0  0  0  0  0
    2.6495   -0.8889   -2.0156 C   0  0  0  0  0  3  0  0  0  0  0  0
    3.8342   -1.1431   -2.5724 O   0  0  0  0  0  0  0  0  0  0  0  0
    4.6373   -2.2239   -2.0426 C   0  0  0  0  0  0  0  0  0  0  0  0
    5.2887   -2.5188   -2.8885 H   0  0  0  0  0  0  0  0  0  0  0  0
    3.9688   -3.0766   -1.7951 H   0  0  0  0  0  0  0  0  0  0  0  0
    5.4461   -1.7777   -0.8367 C   0  0  0  0  0  0  0  0  0  0  0  0
    6.0958   -0.9177   -1.0914 H   0  0  0  0  0  0  0  0  0  0  0  0
    6.0884   -2.6114   -0.4873 H   0  0  0  0  0  0  0  0  0  0  0  0
    4.7822   -1.4772   -0.0029 H   0  0  0  0  0  0  0  0  0  0  0  0
  2  3  1  0  0  0  0
  3  1  1  0  0  0  0
  4  5  1  0  0  0  0
  4  3  1  0  0  0  0
  5  7  1  0  0  0  0
  5  8  1  0  0  0  0
  6  5  1  0  0  0  0
  8 10  1  0  0  0  0
  8 11  1  0  0  0  0
  9  8  1  0  0  0  0
M  END
