1,2
q = -1.0

 17 17  0  0  0  0  0  0  0  0999 V2000
   -1.1643   -2.2870    1.1504 S   0  0  0  0  0  1  0  0  0  0  0  0
   -1.8656   -0.8256   -1.3544 S   0  0  0  0  0  1  0  0  0  0  0  0
   -2.2497   -1.9070   -0.1026 C   0  0  0  0  0  3  0  0  0  0  0  0
   -3.5976   -2.5520   -0.0790 C   0  0  0  0  0  0  0  0  0  0  0  0
   -3.6872   -3.9560   -0.1904 C   0  0  0  0  0  0  0  0  0  0  0  0
   -2.7524   -4.5290   -0.2840 H   0  0  0  0  0  0  0  0  0  0  0  0
   -4.9268   -4.6078   -0.1778 C   0  0  0  0  0  0  0  0  0  0  0  0
   -4.9729   -5.7036   -0.2773 H   0  0  0  0  0  0  0  0  0  0  0  0
   -6.1020   -3.8563   -0.0256 C   0  0  0  0  0  0  0  0  0  0  0  0
   -7.0842   -4.3541   -0.0036 H   0  0  0  0  0  0  0  0  0  0  0  0
   -6.0180   -2.4627    0.1116 C   0  0  0  0  0  0  0  0  0  0  0  0
   -6.9388   -1.8728    0.2520 H   0  0  0  0  0  0  0  0  0  0  0  0
   -4.7845   -1.7823    0.0813 C   0  0  0  0  0  0  0  0  0  0  0  0
   -4.7387   -0.2840    0.2352 C   0  0  0  0  0  0  0  0  0  0  0  0
   -3.9404    0.0316    0.9377 H   0  0  0  0  0  0  0  0  0  0  0  0
   -5.7110    0.1080    0.5941 H   0  0  0  0  0  0  0  0  0  0  0  0
   -4.4917    0.2048   -0.7297 H   0  0  0  0  0  0  0  0  0  0  0  0
  2  3  1  0  0  0  0
  3  4  1  0  0  0  0
  3  1  1  0  0  0  0
  4 13  1  0  0  0  0
  5  7  1  0  0  0  0
  5  4  2  0  0  0  0
  6  5  1  0  0  0  0
  7  9  2  0  0  0  0
  8  7  1  0  0  0  0
  9 10  1  0  0  0  0
  9 11  1  0  0  0  0
 11 12  1  0  0  0  0
 13 11  2  0  0  0  0
 13 14  1  0  0  0  0
 14 16  1  0  0  0  0
 14 15  1  0  0  0  0
 17 14  1  0  0  0  0
M  END
