1,2
q = -1.0

 20 20  0  0  0  0  0  0  0  0999 V2000
    1.5721    1.3410   -0.7806 S   0  0  0  0  0  1  0  0  0  0  0  0
    1.4752   -1.5368   -0.5891 S   0  0  0  0  0  1  0  0  0  0  0  0
    7.4848   -0.1683    0.5243 O   0  0  0  0  0  0  0  0  0  0  0  0
    8.0866   -0.9322    0.4593 H   0  0  0  0  0  0  0  0  0  0  0  0
    3.7405   -0.2136   -1.3096 N   0  0  0  0  0  0  0  0  0  0  0  0
    2.4571   -0.1469   -0.9497 C   0  0  0  0  0  3  0  0  0  0  0  0
    4.5696    0.9825   -1.5119 C   0  0  0  0  0  0  0  0  0  0  0  0
    3.9216    1.8765   -1.4388 H   0  0  0  0  0  0  0  0  0  0  0  0
    4.9708    0.9408   -2.5482 H   0  0  0  0  0  0  0  0  0  0  0  0
    5.7044    1.0206   -0.4872 C   0  0  0  0  0  0  0  0  0  0  0  0
    6.3597    1.8926   -0.6827 H   0  0  0  0  0  0  0  0  0  0  0  0
    5.2853    1.1469    0.5335 H   0  0  0  0  0  0  0  0  0  0  0  0
    6.5330   -0.2660   -0.5138 C   0  0  0  0  0  0  0  0  0  0  0  0
    7.0291   -0.3357   -1.5172 H   0  0  0  0  0  0  0  0  0  0  0  0
    5.6113   -1.4880   -0.3515 C   0  0  0  0  0  0  0  0  0  0  0  0
    5.1874   -1.4736    0.6748 H   0  0  0  0  0  0  0  0  0  0  0  0
    6.1903   -2.4296   -0.4574 H   0  0  0  0  0  0  0  0  0  0  0  0
    4.4773   -1.4815   -1.3807 C   0  0  0  0  0  0  0  0  0  0  0  0
    4.8795   -1.5788   -2.4131 H   0  0  0  0  0  0  0  0  0  0  0  0
    3.7658   -2.3132   -1.2167 H   0  0  0  0  0  0  0  0  0  0  0  0
  4  3  1  0  0  0  0
  5  6  1  0  0  0  0
  6  1  1  0  0  0  0
  6  2  1  0  0  0  0
  7  8  1  0  0  0  0
  7  5  1  0  0  0  0
  7 10  1  0  0  0  0
  9  7  1  0  0  0  0
 10 12  1  0  0  0  0
 11 10  1  0  0  0  0
 13 10  1  0  0  0  0
 13 15  1  0  0  0  0
 13  3  1  0  0  0  0
 14 13  1  0  0  0  0
 15 16  1  0  0  0  0
 17 15  1  0  0  0  0
 18  5  1  0  0  0  0
 18 20  1  0  0  0  0
 18 15  1  0  0  0  0
 19 18  1  0  0  0  0
M  END
