1,2
q = 0.0, confidence = 0.622

 40 40  0  0  0  0  0  0  0  0999 V2000
   -1.9029   -0.6242    0.7992 S   0  0  0  0  0  1  0  0  0  0  0  0
   -0.8292    0.2444   -1.9726 S   0  0  0  0  0  1  0  0  0  0  0  0
   -2.9954   -0.5610   -0.5484 C   0  0  0  0  0  0  0  0  0  0  0  0
   -2.4726   -0.1693   -1.7828 C   0  0  0  0  0  0  0  0  0  0  0  0
   -4.4120   -0.9150   -0.3445 C   0  0  0  0  0  0  0  0  0  0  0  0
   -5.0155   -0.8103    0.9315 C   0  0  0  0  0  0  0  0  0  0  0  0
   -6.3587   -1.1462    1.1215 C   0  0  0  0  0  0  0  0  0  0  0  0
   -7.1596   -1.6009    0.0530 C   0  0  0  0  0  0  0  0  0  0  0  0
   -6.5577   -1.7083   -1.2180 C   0  0  0  0  0  0  0  0  0  0  0  0
   -5.2142   -1.3765   -1.4168 C   0  0  0  0  0  0  0  0  0  0  0  0
   -8.6245   -1.9028    0.2499 C   0  0  0  0  0  0  0  0  0  0  0  0
   -9.5219   -0.6706    0.0299 C   0  0  0  0  0  0  0  0  0  0  0  0
  -11.0120   -0.9581    0.2255 C   0  0  0  0  0  0  0  0  0  0  0  0
  -11.9077    0.2642    0.0083 C   0  0  0  0  0  0  0  0  0  0  0  0
  -13.3997   -0.0183    0.2028 C   0  0  0  0  0  0  0  0  0  0  0  0
  -14.2957    1.2037   -0.0140 C   0  0  0  0  0  0  0  0  0  0  0  0
  -15.7888    0.9226    0.1801 C   0  0  0  0  0  0  0  0  0  0  0  0
  -16.6747    2.1496   -0.0386 C   0  0  0  0  0  0  0  0  0  0  0  0
   -3.1125   -0.0783   -2.6756 H   0  0  0  0  0  0  0  0  0  0  0  0
   -4.4130   -0.4486    1.7783 H   0  0  0  0  0  0  0  0  0  0  0  0
   -6.8028   -1.0511    2.1253 H   0  0  0  0  0  0  0  0  0  0  0  0
   -7.1551   -2.0749   -2.0681 H   0  0  0  0  0  0  0  0  0  0  0  0
   -4.7700   -1.5080   -2.4144 H   0  0  0  0  0  0  0  0  0  0  0  0
   -8.9377   -2.7083   -0.4486 H   0  0  0  0  0  0  0  0  0  0  0  0
   -8.7912   -2.2937    1.2766 H   0  0  0  0  0  0  0  0  0  0  0  0
   -9.2008    0.1390    0.7220 H   0  0  0  0  0  0  0  0  0  0  0  0
   -9.3465   -0.2734   -0.9944 H   0  0  0  0  0  0  0  0  0  0  0  0
  -11.3243   -1.7724   -0.4671 H   0  0  0  0  0  0  0  0  0  0  0  0
  -11.1782   -1.3600    1.2507 H   0  0  0  0  0  0  0  0  0  0  0  0
  -11.5935    1.0777    0.7008 H   0  0  0  0  0  0  0  0  0  0  0  0
  -11.7394    0.6657   -1.0167 H   0  0  0  0  0  0  0  0  0  0  0  0
  -13.7132   -0.8321   -0.4899 H   0  0  0  0  0  0  0  0  0  0  0  0
  -13.5672   -0.4203    1.2279 H   0  0  0  0  0  0  0  0  0  0  0  0
  -13.9819    2.0177    0.6787 H   0  0  0  0  0  0  0  0  0  0  0  0
  -14.1278    1.6061   -1.0391 H   0  0  0  0  0  0  0  0  0  0  0  0
  -16.0986    0.1083   -0.5124 H   0  0  0  0  0  0  0  0  0  0  0  0
  -15.9527    0.5197    1.2046 H   0  0  0  0  0  0  0  0  0  0  0  0
  -16.5588    2.5523   -1.0667 H   0  0  0  0  0  0  0  0  0  0  0  0
  -17.7482    1.9149    0.1089 H   0  0  0  0  0  0  0  0  0  0  0  0
  -16.4116    2.9672    0.6649 H   0  0  0  0  0  0  0  0  0  0  0  0
  2  4  1  0  0  0  0
  3  5  1  0  0  0  0
  3  1  1  0  0  0  0
  4  3  2  0  0  0  0
  5  6  1  0  0  0  0
  6  7  2  0  0  0  0
  6 20  1  0  0  0  0
  7 21  1  0  0  0  0
  8 11  1  0  0  0  0
  8  7  1  0  0  0  0
  9  8  2  0  0  0  0
 10  9  1  0  0  0  0
 10  5  2  0  0  0  0
 11 25  1  0  0  0  0
 12 13  1  0  0  0  0
 12 11  1  0  0  0  0
 12 26  1  0  0  0  0
 13 29  1  0  0  0  0
 14 15  1  0  0  0  0
 14 13  1  0  0  0  0
 14 30  1  0  0  0  0
 15 33  1  0  0  0  0
 16 17  1  0  0  0  0
 16 15  1  0  0  0  0
 16 34  1  0  0  0  0
 17 37  1  0  0  0  0
 18 39  1  0  0  0  0
 18 17  1  0  0  0  0
 18 40  1  0  0  0  0
 19  4  1  0  0  0  0
 22  9  1  0  0  0  0
 23 10  1  0  0  0  0
 24 11  1  0  0  0  0
 27 12  1  0  0  0  0
 28 13  1  0  0  0  0
 31 14  1  0  0  0  0
 32 15  1  0  0  0  0
 35 16  1  0  0  0  0
 36 17  1  0  0  0  0
 38 18  1  0  0  0  0
M  END
