1,2
q = 0.0, confidence = 0.998

 39 41  0  0  0  0  0  0  0  0999 V2000
    1.1174   -0.2910    1.1542 S   0  0  2  0  0  3  0  0  0  0  0  0
   -0.8987   -0.6544   -0.8073 S   0  0  2  0  0  3  0  0  0  0  0  0
    1.2193   -0.3836    2.6477 O   0  0  0  0  0  1  0  0  0  0  0  0
   -0.6376   -1.2801   -2.1494 O   0  0  0  0  0  1  0  0  0  0  0  0
    0.0005   -1.6132    0.4938 C   0  0  0  0  0  0  0  0  0  0  0  0
    0.3517   -3.0596    0.3477 C   0  0  0  0  0  0  0  0  0  0  0  0
   -0.0566   -3.5494   -0.5525 H   0  0  0  0  0  0  0  0  0  0  0  0
    1.3831   -3.3483    0.6098 H   0  0  0  0  0  0  0  0  0  0  0  0
   -0.5936   -2.6169    1.4350 C   0  0  0  0  0  0  0  0  0  0  0  0
   -0.2130   -2.5446    2.4689 H   0  0  0  0  0  0  0  0  0  0  0  0
   -1.6722   -2.8206    1.3348 H   0  0  0  0  0  0  0  0  0  0  0  0
    2.7082   -0.7474    0.4378 C   0  0  0  0  0  0  0  0  0  0  0  0
    2.8388   -0.8742   -0.9545 C   0  0  0  0  0  0  0  0  0  0  0  0
    1.9708   -0.7411   -1.6199 H   0  0  0  0  0  0  0  0  0  0  0  0
    4.0967   -1.1949   -1.4733 C   0  0  0  0  0  0  0  0  0  0  0  0
    4.2145   -1.3041   -2.5627 H   0  0  0  0  0  0  0  0  0  0  0  0
    5.2180   -1.3729   -0.6295 C   0  0  0  0  0  0  0  0  0  0  0  0
    5.0412   -1.2342    0.7617 C   0  0  0  0  0  0  0  0  0  0  0  0
    5.9031   -1.3707    1.4331 H   0  0  0  0  0  0  0  0  0  0  0  0
    3.7881   -0.9186    1.3083 C   0  0  0  0  0  0  0  0  0  0  0  0
    3.6349   -0.8007    2.3912 H   0  0  0  0  0  0  0  0  0  0  0  0
    6.5696   -1.6832   -1.2174 C   0  0  0  0  0  0  0  0  0  0  0  0
    7.3008   -1.9702   -0.4380 H   0  0  0  0  0  0  0  0  0  0  0  0
    6.9771   -0.7994   -1.7525 H   0  0  0  0  0  0  0  0  0  0  0  0
    6.5092   -2.5059   -1.9583 H   0  0  0  0  0  0  0  0  0  0  0  0
   -2.6330   -0.8845   -0.3933 C   0  0  0  0  0  0  0  0  0  0  0  0
   -3.3785   -1.7874   -1.1600 C   0  0  0  0  0  0  0  0  0  0  0  0
   -2.8979   -2.3146   -1.9975 H   0  0  0  0  0  0  0  0  0  0  0  0
   -4.7310   -1.9730   -0.8413 C   0  0  0  0  0  0  0  0  0  0  0  0
   -5.3332   -2.6791   -1.4337 H   0  0  0  0  0  0  0  0  0  0  0  0
   -5.3374   -1.2627    0.2160 C   0  0  0  0  0  0  0  0  0  0  0  0
   -4.5503   -0.3509    0.9562 C   0  0  0  0  0  0  0  0  0  0  0  0
   -5.0110    0.2223    1.7756 H   0  0  0  0  0  0  0  0  0  0  0  0
   -3.1995   -0.1467    0.6563 C   0  0  0  0  0  0  0  0  0  0  0  0
   -2.5907    0.5832    1.2134 H   0  0  0  0  0  0  0  0  0  0  0  0
   -6.7992   -1.4383    0.5331 C   0  0  0  0  0  0  0  0  0  0  0  0
   -7.2213   -2.3367    0.0438 H   0  0  0  0  0  0  0  0  0  0  0  0
   -7.3832   -0.5606    0.1832 H   0  0  0  0  0  0  0  0  0  0  0  0
   -6.9698   -1.5219    1.6252 H   0  0  0  0  0  0  0  0  0  0  0  0
  1  3  1  1  0  0  0
  2  4  1  6  0  0  0
  2 26  1  0  0  0  0
  2  5  1  0  0  0  0
  5  1  1  0  0  0  0
  5  9  1  0  0  0  0
  6  5  1  0  0  0  0
  6  8  1  0  0  0  0
  6  9  1  0  0  0  0
  7  6  1  0  0  0  0
  9 10  1  0  0  0  0
 11  9  1  0  0  0  0
 12  1  1  0  0  0  0
 12 20  1  0  0  0  0
 13 12  2  0  0  0  0
 14 13  1  0  0  0  0
 15 13  1  0  0  0  0
 15 17  2  0  0  0  0
 16 15  1  0  0  0  0
 17 18  1  0  0  0  0
 18 20  2  0  0  0  0
 18 19  1  0  0  0  0
 20 21  1  0  0  0  0
 22 17  1  0  0  0  0
 22 23  1  0  0  0  0
 24 22  1  0  0  0  0
 25 22  1  0  0  0  0
 26 34  1  0  0  0  0
 27 29  1  0  0  0  0
 27 26  2  0  0  0  0
 28 27  1  0  0  0  0
 29 31  2  0  0  0  0
 30 29  1  0  0  0  0
 31 36  1  0  0  0  0
 31 32  1  0  0  0  0
 32 33  1  0  0  0  0
 34 32  2  0  0  0  0
 34 35  1  0  0  0  0
 36 39  1  0  0  0  0
 37 36  1  0  0  0  0
 38 36  1  0  0  0  0
M  END
