1,2
q = -1.0

 22 22  0  0  0  0  0  0  0  0999 V2000
   -2.0011    0.1853   -2.1369 S   0  0  0  0  0  1  0  0  0  0  0  0
   -2.0628   -0.7886    0.7289 S   0  0  0  0  0  1  0  0  0  0  0  0
   -4.2183   -0.5682   -0.8310 N   0  0  0  0  0  0  0  0  0  0  0  0
   -4.9618   -1.1237    0.2678 C   0  0  0  0  0  0  0  0  0  0  0  0
   -5.7454   -0.2780    1.0716 C   0  0  0  0  0  0  0  0  0  0  0  0
   -5.7358    0.8051    0.8798 H   0  0  0  0  0  0  0  0  0  0  0  0
   -6.5130   -0.8198    2.1128 C   0  0  0  0  0  0  0  0  0  0  0  0
   -7.1212   -0.1555    2.7451 H   0  0  0  0  0  0  0  0  0  0  0  0
   -6.4992   -2.2031    2.3518 C   0  0  0  0  0  0  0  0  0  0  0  0
   -7.1004   -2.6268    3.1703 H   0  0  0  0  0  0  0  0  0  0  0  0
   -5.7154   -3.0455    1.5461 C   0  0  0  0  0  0  0  0  0  0  0  0
   -5.7000   -4.1300    1.7323 H   0  0  0  0  0  0  0  0  0  0  0  0
   -4.9470   -2.5102    0.5034 C   0  0  0  0  0  0  0  0  0  0  0  0
   -4.3153   -3.1540   -0.1250 H   0  0  0  0  0  0  0  0  0  0  0  0
   -2.8656   -0.4095   -0.7515 C   0  0  0  0  0  3  0  0  0  0  0  0
   -4.9763   -0.2919   -2.0626 C   0  0  0  0  0  0  0  0  0  0  0  0
   -4.4707    0.5525   -2.5739 H   0  0  0  0  0  0  0  0  0  0  0  0
   -5.9870    0.0428   -1.7527 H   0  0  0  0  0  0  0  0  0  0  0  0
   -5.0626   -1.5020   -2.9898 C   0  0  0  0  0  0  0  0  0  0  0  0
   -5.5564   -2.3591   -2.4892 H   0  0  0  0  0  0  0  0  0  0  0  0
   -4.0476   -1.8095   -3.3103 H   0  0  0  0  0  0  0  0  0  0  0  0
   -5.6494   -1.2489   -3.8956 H   0  0  0  0  0  0  0  0  0  0  0  0
  1 15  1  0  0  0  0
  3 15  1  0  0  0  0
  3  4  1  0  0  0  0
  4 13  2  0  0  0  0
  4  5  1  0  0  0  0
  5  7  2  0  0  0  0
  6  5  1  0  0  0  0
  7  9  1  0  0  0  0
  7  8  1  0  0  0  0
  9 10  1  0  0  0  0
 11 12  1  0  0  0  0
 11  9  2  0  0  0  0
 13 11  1  0  0  0  0
 14 13  1  0  0  0  0
 15  2  1  0  0  0  0
 16 18  1  0  0  0  0
 16  3  1  0  0  0  0
 17 16  1  0  0  0  0
 19 20  1  0  0  0  0
 19 16  1  0  0  0  0
 21 19  1  0  0  0  0
 22 19  1  0  0  0  0
M  END
