1,23
q = -1.0, confidence = 0.0

 27 28  0  0  0  0  0  0  0  0999 V2000
    1.8108   -0.3201   -1.2016 S   0  0  0  0  0  0  0  0  0  0  0  0
    2.9660    0.9560   -0.7043 C   0  0  0  0  0  0  0  0  0  0  0  0
    3.6663    1.6392   -1.7132 C   0  0  0  0  0  0  0  0  0  0  0  0
    4.5061    2.7112   -1.3839 C   0  0  0  0  0  0  0  0  0  0  0  0
    4.6434    3.0953   -0.0395 C   0  0  0  0  0  0  0  0  0  0  0  0
    3.9514    2.4125    0.9696 C   0  0  0  0  0  0  0  0  0  0  0  0
    3.0971    1.3366    0.6575 C   0  0  0  0  0  0  0  0  0  0  0  0
    2.1887    0.4475    1.8938 S   0  0  0  0  0  0  0  0  0  0  0  0
    1.5425    1.8173    2.9057 C   0  0  0  0  0  0  0  0  0  0  0  0
    0.8070    1.3517    3.5897 H   0  0  0  0  0  0  0  0  0  0  0  0
    1.0228    2.5358    2.2403 H   0  0  0  0  0  0  0  0  0  0  0  0
    2.3286    2.3132    3.5068 H   0  0  0  0  0  0  0  0  0  0  0  0
    4.0783    2.7156    2.0189 H   0  0  0  0  0  0  0  0  0  0  0  0
    5.3037    3.9333    0.2303 H   0  0  0  0  0  0  0  0  0  0  0  0
    5.0485    3.2479   -2.1760 H   0  0  0  0  0  0  0  0  0  0  0  0
    3.5295    1.3294   -2.7599 H   0  0  0  0  0  0  0  0  0  0  0  0
    2.5332   -1.7954   -0.4567 C   0  0  0  0  0  0  0  0  0  0  0  0
    3.8747   -2.1411   -0.6707 C   0  0  0  0  0  0  0  0  0  0  0  0
    4.3573   -3.3580   -0.1693 C   0  0  0  0  0  0  0  0  0  0  0  0
    3.4784   -4.2215    0.5127 C   0  0  0  0  0  0  0  0  0  0  0  0
    2.1380   -3.8729    0.7123 C   0  0  0  0  0  0  0  0  0  0  0  0
    1.6350   -2.6368    0.2380 C   0  0  0  0  0  0  0  0  0  0  0  0
   -0.0396   -2.1675    0.4902 S   0  0  0  0  0  1  0  0  0  0  0  0
    1.4603   -4.5438    1.2615 H   0  0  0  0  0  0  0  0  0  0  0  0
    3.8498   -5.1800    0.9070 H   0  0  0  0  0  0  0  0  0  0  0  0
    5.4128   -3.6321   -0.3111 H   0  0  0  0  0  0  0  0  0  0  0  0
    4.5373   -1.4515   -1.2162 H   0  0  0  0  0  0  0  0  0  0  0  0
  1  2  1  0  0  0  0
  1 17  1  0  0  0  0
  2  7  1  0  0  0  0
  3  4  1  0  0  0  0
  3  2  2  0  0  0  0
  4  5  2  0  0  0  0
  5 14  1  0  0  0  0
  5  6  1  0  0  0  0
  6 13  1  0  0  0  0
  7  6  2  0  0  0  0
  7  8  1  0  0  0  0
  8  9  1  0  0  0  0
  9 12  1  0  0  0  0
  9 10  1  0  0  0  0
 11  9  1  0  0  0  0
 15  4  1  0  0  0  0
 16  3  1  0  0  0  0
 17 22  1  0  0  0  0
 18 17  2  0  0  0  0
 18 19  1  0  0  0  0
 19 20  2  0  0  0  0
 20 21  1  0  0  0  0
 20 25  1  0  0  0  0
 21 24  1  0  0  0  0
 22 23  1  0  0  0  0
 22 21  2  0  0  0  0
 26 19  1  0  0  0  0
 27 18  1  0  0  0  0
M  END
