1,2
q = 0.0, confidence = 1.0

 26 26  0  0  0  0  0  0  0  0999 V2000
    2.0440   -1.3019    0.9854 S   0  0  0  0  0  0  0  0  0  0  0  0
    0.3761    0.8804   -1.5493 S   0  0  0  0  0  0  0  0  0  0  0  0
    2.2536   -3.1087    1.0229 C   0  0  0  0  0  0  0  0  0  0  0  0
    1.4267   -3.5089    1.6352 H   0  0  0  0  0  0  0  0  0  0  0  0
    3.2376   -3.3185    1.4834 H   0  0  0  0  0  0  0  0  0  0  0  0
    2.1790   -3.5017   -0.0085 H   0  0  0  0  0  0  0  0  0  0  0  0
    3.4127   -0.8783   -0.1750 C   0  0  0  0  0  0  0  0  0  0  0  0
    4.2763   -1.4585    0.2063 H   0  0  0  0  0  0  0  0  0  0  0  0
    3.1216   -1.2834   -1.1639 H   0  0  0  0  0  0  0  0  0  0  0  0
    3.7064    0.5939   -0.1537 C   0  0  0  0  0  0  0  0  0  0  0  0
    4.5958    1.1013    0.8144 C   0  0  0  0  0  0  0  0  0  0  0  0
    5.0595    0.4063    1.5320 H   0  0  0  0  0  0  0  0  0  0  0  0
    4.9115    2.4653    0.8669 C   0  0  0  0  0  0  0  0  0  0  0  0
    5.6147    2.8382    1.6260 H   0  0  0  0  0  0  0  0  0  0  0  0
    4.3410    3.3455   -0.0645 C   0  0  0  0  0  0  0  0  0  0  0  0
    4.5950    4.4155   -0.0461 H   0  0  0  0  0  0  0  0  0  0  0  0
    3.4528    2.8533   -1.0301 C   0  0  0  0  0  0  0  0  0  0  0  0
    3.0190    3.5423   -1.7716 H   0  0  0  0  0  0  0  0  0  0  0  0
    3.1158    1.4848   -1.0851 C   0  0  0  0  0  0  0  0  0  0  0  0
    2.1352    1.0133   -2.1144 C   0  0  0  0  0  0  0  0  0  0  0  0
    2.3294   -0.0019   -2.5115 H   0  0  0  0  0  0  0  0  0  0  0  0
    2.0809    1.7092   -2.9751 H   0  0  0  0  0  0  0  0  0  0  0  0
    0.1496    2.4761   -0.7156 C   0  0  0  0  0  0  0  0  0  0  0  0
   -0.9048    2.5153   -0.3819 H   0  0  0  0  0  0  0  0  0  0  0  0
    0.3249    3.2736   -1.4629 H   0  0  0  0  0  0  0  0  0  0  0  0
    0.8316    2.5945    0.1468 H   0  0  0  0  0  0  0  0  0  0  0  0
  1  3  1  0  0  0  0
  2 23  1  0  0  0  0
  3  5  1  0  0  0  0
  3  4  1  0  0  0  0
  6  3  1  0  0  0  0
  7 10  1  0  0  0  0
  7  8  1  0  0  0  0
  7  1  1  0  0  0  0
  9  7  1  0  0  0  0
 10 11  1  0  0  0  0
 11 13  2  0  0  0  0
 11 12  1  0  0  0  0
 13 14  1  0  0  0  0
 15 16  1  0  0  0  0
 15 13  1  0  0  0  0
 17 15  2  0  0  0  0
 18 17  1  0  0  0  0
 19 17  1  0  0  0  0
 19 10  2  0  0  0  0
 20  2  1  0  0  0  0
 20 19  1  0  0  0  0
 21 20  1  0  0  0  0
 22 20  1  0  0  0  0
 23 24  1  0  0  0  0
 23 26  1  0  0  0  0
 25 23  1  0  0  0  0
M  END
