2,3
q = -2.0, confidence = 0.588

 18 18  0  0  0  0  0  0  0  0999 V2000
    9.4483    0.2773    0.0176 Br  0  0  0  0  0  0  0  0  0  0  0  0
    0.1485   -1.1121   -0.0154 S   0  0  0  0  0  1  0  0  0  0  0  0
   -0.1861    1.7458   -0.1343 S   0  0  0  0  0  1  0  0  0  0  0  0
    2.8731   -1.7012    0.0350 O   0  0  0  0  0  0  0  0  0  0  0  0
    0.9873    0.4310   -0.0659 C   0  0  0  0  0  0  0  0  0  0  0  0
    2.3531    0.6039   -0.0588 C   0  0  0  0  0  0  0  0  0  0  0  0
    2.7240    1.6376   -0.0963 H   0  0  0  0  0  0  0  0  0  0  0  0
    3.2699   -0.5204   -0.0069 C   0  0  0  0  0  0  0  0  0  0  0  0
    4.7584   -0.2513   -0.0042 C   0  0  0  0  0  0  0  0  0  0  0  0
    5.6131   -1.3727    0.0444 C   0  0  0  0  0  0  0  0  0  0  0  0
    5.1373   -2.3644    0.0766 H   0  0  0  0  0  0  0  0  0  0  0  0
    7.0040   -1.2296    0.0512 C   0  0  0  0  0  0  0  0  0  0  0  0
    7.6630   -2.1088    0.0891 H   0  0  0  0  0  0  0  0  0  0  0  0
    7.5551    0.0623    0.0088 C   0  0  0  0  0  0  0  0  0  0  0  0
    6.7317    1.1981   -0.0399 C   0  0  0  0  0  0  0  0  0  0  0  0
    7.1783    2.2019   -0.0728 H   0  0  0  0  0  0  0  0  0  0  0  0
    5.3397    1.0329   -0.0461 C   0  0  0  0  0  0  0  0  0  0  0  0
    4.7076    1.9314   -0.0845 H   0  0  0  0  0  0  0  0  0  0  0  0
  3  5  1  0  0  0  0
  5  6  2  0  0  0  0
  5  2  1  0  0  0  0
  6  8  1  0  0  0  0
  7  6  1  0  0  0  0
  8  9  1  0  0  0  0
  8  4  2  0  0  0  0
  9 10  1  0  0  0  0
 10 12  2  0  0  0  0
 10 11  1  0  0  0  0
 12 13  1  0  0  0  0
 14  1  1  0  0  0  0
 14 12  1  0  0  0  0
 15 14  2  0  0  0  0
 16 15  1  0  0  0  0
 17 15  1  0  0  0  0
 17  9  2  0  0  0  0
 18 17  1  0  0  0  0
M  END
