1,2
q = -1.0

 21 21  0  0  0  0  0  0  0  0999 V2000
   -1.7311    0.6671   -0.4054 S   0  0  0  0  0  1  0  0  0  0  0  0
   -2.0923   -2.1592   -0.1435 S   0  0  0  0  0  1  0  0  0  0  0  0
   -2.8662   -0.6499   -0.4259 C   0  0  0  0  0  3  0  0  0  0  0  0
   -4.1841   -0.4881   -0.6448 N   0  0  0  0  0  0  0  0  0  0  0  0
   -4.8077    0.8198   -0.8267 C   0  0  0  0  0  0  0  0  0  0  0  0
   -5.8726    1.0417    0.2488 C   0  0  0  0  0  0  0  0  0  0  0  0
   -6.8421   -0.0446    0.2459 N   0  0  0  0  0  0  0  0  0  0  0  0
   -6.1926   -1.3291    0.4716 C   0  0  0  0  0  0  0  0  0  0  0  0
   -5.1343   -1.5967   -0.5994 C   0  0  0  0  0  0  0  0  0  0  0  0
   -7.9482    0.1903    1.1540 C   0  0  0  0  0  0  0  0  0  0  0  0
   -5.2799    0.8497   -1.8331 H   0  0  0  0  0  0  0  0  0  0  0  0
   -4.0238    1.5996   -0.7793 H   0  0  0  0  0  0  0  0  0  0  0  0
   -6.3985    1.9977    0.0454 H   0  0  0  0  0  0  0  0  0  0  0  0
   -5.3605    1.1492    1.2445 H   0  0  0  0  0  0  0  0  0  0  0  0
   -6.9567   -2.1330    0.4336 H   0  0  0  0  0  0  0  0  0  0  0  0
   -5.7034   -1.3832    1.4826 H   0  0  0  0  0  0  0  0  0  0  0  0
   -4.5776   -2.5303   -0.3903 H   0  0  0  0  0  0  0  0  0  0  0  0
   -5.6213   -1.6854   -1.5952 H   0  0  0  0  0  0  0  0  0  0  0  0
   -7.6361    0.2494    2.2308 H   0  0  0  0  0  0  0  0  0  0  0  0
   -8.6926   -0.6266    1.0629 H   0  0  0  0  0  0  0  0  0  0  0  0
   -8.4542    1.1429    0.8962 H   0  0  0  0  0  0  0  0  0  0  0  0
  3  1  1  0  0  0  0
  3  2  1  0  0  0  0
  4  9  1  0  0  0  0
  4  3  1  0  0  0  0
  5 12  1  0  0  0  0
  5  4  1  0  0  0  0
  5  6  1  0  0  0  0
  6 14  1  0  0  0  0
  7  6  1  0  0  0  0
  7  8  1  0  0  0  0
  7 10  1  0  0  0  0
  8 16  1  0  0  0  0
  9 17  1  0  0  0  0
  9  8  1  0  0  0  0
 10 19  1  0  0  0  0
 11  5  1  0  0  0  0
 13  6  1  0  0  0  0
 15  8  1  0  0  0  0
 18  9  1  0  0  0  0
 20 10  1  0  0  0  0
 21 10  1  0  0  0  0
M  END
