1,2
q = -1.0

 16 15  0  0  0  0  0  0  0  0999 V2000
   -1.8950    0.8350    0.1325 S   0  0  0  0  0  1  0  0  0  0  0  0
   -2.7694   -1.8475    0.2708 S   0  0  0  0  0  1  0  0  0  0  0  0
   -4.5767    0.1932    0.3280 N   0  0  0  0  0  0  0  0  0  0  0  0
   -3.2748   -0.2002    0.2429 C   0  0  0  0  0  3  0  0  0  0  0  0
   -5.0482    1.5193    0.2270 C   0  0  0  0  0  0  0  0  0  0  0  0
   -4.4334    2.6077   -0.2803 C   0  0  0  0  0  0  0  0  0  0  0  0
   -5.6132   -0.8496    0.4689 C   0  0  0  0  0  0  0  0  0  0  0  0
   -6.1394   -1.3409   -0.8764 C   0  0  0  0  0  0  0  0  0  0  0  0
   -6.0684    1.6112    0.6339 H   0  0  0  0  0  0  0  0  0  0  0  0
   -3.4315    2.5866   -0.7278 H   0  0  0  0  0  0  0  0  0  0  0  0
   -4.9694    3.5666   -0.2439 H   0  0  0  0  0  0  0  0  0  0  0  0
   -5.1677   -1.6841    1.0466 H   0  0  0  0  0  0  0  0  0  0  0  0
   -6.4269   -0.4154    1.0848 H   0  0  0  0  0  0  0  0  0  0  0  0
   -5.3200   -1.7965   -1.4665 H   0  0  0  0  0  0  0  0  0  0  0  0
   -6.5798   -0.5105   -1.4639 H   0  0  0  0  0  0  0  0  0  0  0  0
   -6.9218   -2.1105   -0.7222 H   0  0  0  0  0  0  0  0  0  0  0  0
  1  4  1  0  0  0  0
  3  7  1  0  0  0  0
  4  2  1  0  0  0  0
  4  3  1  0  0  0  0
  5  3  1  0  0  0  0
  5  9  1  0  0  0  0
  6 11  1  0  0  0  0
  6  5  2  0  0  0  0
  7 12  1  0  0  0  0
  7 13  1  0  0  0  0
  8 16  1  0  0  0  0
  8  7  1  0  0  0  0
 10  6  1  0  0  0  0
 14  8  1  0  0  0  0
 15  8  1  0  0  0  0
M  END
