1,2
q = -1.0

 35 36  0  0  1  0  0  0  0  0999 V2000
    1.6167    1.6219    0.3866 S   0  0  0  0  0  1  0  0  0  0  0  0
    1.6919   -1.4538   -0.6921 S   0  0  0  0  0  1  0  0  0  0  0  0
    4.3015    1.4601    0.1955 N   0  0  0  0  0  0  0  0  0  0  0  0
    4.3432   -1.2417   -0.2780 N   0  0  0  0  0  0  0  0  0  0  0  0
    3.1001    0.7933    0.0783 C   0  0  0  0  0  0  0  0  0  0  0  0
    3.1313   -0.5919   -0.2605 C   0  0  0  0  0  0  0  0  0  0  0  0
    4.4350   -2.7128   -0.0698 C   0  0  2  0  0  0  0  0  0  0  0  0
    5.1211   -3.0067    1.1932 C   0  0  0  0  0  3  0  0  0  0  0  0
    6.2815   -3.9232    0.9976 C   0  0  0  0  0  0  0  0  0  0  0  0
    5.9816   -4.5599   -0.3801 C   0  0  0  0  0  0  0  0  0  0  0  0
    5.2761   -3.4343   -1.1536 C   0  0  0  0  0  0  0  0  0  0  0  0
    4.4139    2.8473    0.6422 C   0  0  0  0  0  0  0  0  0  0  0  0
    4.0616    3.8860   -0.4696 C   0  0  0  0  0  0  0  0  0  0  0  0
    5.4157    4.4398   -0.9932 C   0  0  0  0  0  0  0  0  0  0  0  0
    6.5002    3.5451   -0.3614 C   0  0  0  0  0  0  0  0  0  0  0  0
    5.8833    3.1540    0.9895 C   0  0  0  0  0  0  0  0  0  0  0  0
    3.7389    2.9459    1.5156 H   0  0  0  0  0  0  0  0  0  0  0  0
    3.4233    4.6899   -0.0537 H   0  0  0  0  0  0  0  0  0  0  0  0
    3.4582    3.3981   -1.2596 H   0  0  0  0  0  0  0  0  0  0  0  0
    5.5575    5.4852   -0.6488 H   0  0  0  0  0  0  0  0  0  0  0  0
    5.4722    4.4619   -2.0994 H   0  0  0  0  0  0  0  0  0  0  0  0
    7.4846    4.0453   -0.2673 H   0  0  0  0  0  0  0  0  0  0  0  0
    6.6704    2.6377   -0.9845 H   0  0  0  0  0  0  0  0  0  0  0  0
    5.9134    4.0236    1.6790 H   0  0  0  0  0  0  0  0  0  0  0  0
    6.3797    2.3051    1.5008 H   0  0  0  0  0  0  0  0  0  0  0  0
    3.3547   -3.0380   -0.0956 H   0  0  0  0  0  0  0  0  0  0  0  0
    4.7763   -2.6129    2.1602 H   0  0  0  0  0  0  0  0  0  0  0  0
    6.3971   -4.6668    1.8175 H   0  0  0  0  0  0  0  0  0  0  0  0
    7.2650   -3.3831    0.9593 H   0  0  0  0  0  0  0  0  0  0  0  0
    5.2888   -5.4164   -0.2434 H   0  0  0  0  0  0  0  0  0  0  0  0
    6.8848   -4.9404   -0.8985 H   0  0  0  0  0  0  0  0  0  0  0  0
    4.6633   -3.7834   -2.0074 H   0  0  0  0  0  0  0  0  0  0  0  0
    6.0205   -2.7128   -1.5532 H   0  0  0  0  0  0  0  0  0  0  0  0
    5.0218    1.1666   -0.4727 H   0  0  0  0  0  0  0  0  0  0  0  0
    5.0735   -0.7542    0.2703 H   0  0  0  0  0  0  0  0  0  0  0  0
  2  6  1  0  0  0  0
  3 12  1  0  0  0  0
  4  6  1  0  0  0  0
  4  7  1  0  0  0  0
  4 35  1  0  0  0  0
  5  3  1  0  0  0  0
  5  1  1  0  0  0  0
  6  5  2  0  0  0  0
  7 26  1  1  0  0  0
  7  8  1  0  0  0  0
  8 27  1  0  0  0  0
  9  8  1  0  0  0  0
  9 28  1  0  0  0  0
 10 30  1  0  0  0  0
 10  9  1  0  0  0  0
 11 10  1  0  0  0  0
 11  7  1  0  0  0  0
 12 16  1  0  0  0  0
 12 17  1  0  0  0  0
 13 18  1  0  0  0  0
 13 12  1  0  0  0  0
 14 20  1  0  0  0  0
 14 13  1  0  0  0  0
 14 15  1  0  0  0  0
 15 22  1  0  0  0  0
 15 16  1  0  0  0  0
 16 25  1  0  0  0  0
 16 24  1  0  0  0  0
 19 13  1  0  0  0  0
 21 14  1  0  0  0  0
 23 15  1  0  0  0  0
 29  9  1  0  0  0  0
 31 10  1  0  0  0  0
 32 11  1  0  0  0  0
 33 11  1  0  0  0  0
 34  3  1  0  0  0  0
M  END
