2,4
q = -1.0, confidence = 0.0

  4  3  0  0  0  0  0  0  0  0999 V2000
   -3.9825    0.6426    0.9466 N   0  0  0  0  0  0  0  0  0  0  0  0
   -3.6771   -1.0195   -1.6443 S   0  0  0  0  0  0  0  0  0  0  0  0
   -4.8049   -0.3025   -0.0790 S   0  0  0  0  0  0  0  0  0  0  0  0
   -2.3854    1.0437    0.7986 S   0  0  0  0  0  0  0  0  0  0  0  0
  2  3  1  0  0  0  0
  3  1  1  0  0  0  0
  4  1  1  0  0  0  0
M  END
