1,2
q = -1.0

 18 17  0  0  0  0  0  0  0  0999 V2000
   -1.8823   -1.1570    0.8543 S   0  0  0  0  0  1  0  0  0  0  0  0
   -1.8823    1.1568   -0.8546 S   0  0  0  0  0  1  0  0  0  0  0  0
   -4.1928   -0.0000   -0.0002 N   0  0  0  0  0  0  0  0  0  0  0  0
   -4.3478    2.7706    0.7852 F   0  0  0  0  0  0  0  0  0  0  0  0
   -6.0193    3.1032   -0.5859 F   0  0  0  0  0  0  0  0  0  0  0  0
   -6.2490    1.7571    1.1239 F   0  0  0  0  0  0  0  0  0  0  0  0
   -4.3479   -2.7709   -0.7848 F   0  0  0  0  0  0  0  0  0  0  0  0
   -6.2489   -1.7570   -1.1240 F   0  0  0  0  0  0  0  0  0  0  0  0
   -6.0197   -3.1029    0.5860 F   0  0  0  0  0  0  0  0  0  0  0  0
   -2.8277   -0.0001   -0.0002 C   0  0  0  0  0  3  0  0  0  0  0  0
   -4.9353    1.0180   -0.7249 C   0  0  0  0  0  0  0  0  0  0  0  0
   -5.3814    2.1803    0.1626 C   0  0  0  0  0  0  0  0  0  0  0  0
   -4.9353   -1.0179    0.7248 C   0  0  0  0  0  0  0  0  0  0  0  0
   -5.3815   -2.1802   -0.1626 C   0  0  0  0  0  0  0  0  0  0  0  0
   -4.2943    1.4275   -1.5314 H   0  0  0  0  0  0  0  0  0  0  0  0
   -5.8339    0.5697   -1.1888 H   0  0  0  0  0  0  0  0  0  0  0  0
   -4.2944   -1.4271    1.5314 H   0  0  0  0  0  0  0  0  0  0  0  0
   -5.8340   -0.5694    1.1885 H   0  0  0  0  0  0  0  0  0  0  0  0
  2 10  1  0  0  0  0
  3 10  1  0  0  0  0
  3 13  1  0  0  0  0
  5 12  1  0  0  0  0
  7 14  1  0  0  0  0
  8 14  1  0  0  0  0
 10  1  1  0  0  0  0
 11  3  1  0  0  0  0
 11 12  1  0  0  0  0
 12  4  1  0  0  0  0
 12  6  1  0  0  0  0
 13 18  1  0  0  0  0
 13 17  1  0  0  0  0
 14  9  1  0  0  0  0
 14 13  1  0  0  0  0
 15 11  1  0  0  0  0
 16 11  1  0  0  0  0
M  END
