1,2
q = -1.0, confidence = 0.01

 20 19  0  0  0  0  0  0  0  0999 V2000
   -1.7228   -1.1248   -0.8730 S   0  0  0  0  0  1  0  0  0  0  0  0
   -1.7114    1.1720    0.8302 S   0  0  0  0  0  1  0  0  0  0  0  0
   -2.6948    0.0060    0.0261 C   0  0  0  0  0  3  0  0  0  0  0  0
   -4.0386   -0.0189    0.0685 N   0  0  0  0  0  0  0  0  0  0  0  0
   -4.7807   -1.0866   -0.6038 C   0  0  0  0  0  0  0  0  0  0  0  0
   -5.0062   -2.3102    0.3022 C   0  0  0  0  0  0  0  0  0  0  0  0
   -4.7853    0.9551    0.8674 C   0  0  0  0  0  0  0  0  0  0  0  0
   -5.1160    2.2171    0.0620 C   0  0  0  0  0  0  0  0  0  0  0  0
   -3.8559   -2.7321    0.9848 O   0  0  0  0  0  0  0  0  0  0  0  0
   -5.8727    1.9383   -1.1045 O   0  0  0  0  0  0  0  0  0  0  0  0
   -5.7463   -0.6671   -0.9504 H   0  0  0  0  0  0  0  0  0  0  0  0
   -4.1953   -1.3776   -1.5020 H   0  0  0  0  0  0  0  0  0  0  0  0
   -5.4634   -3.1058   -0.3415 H   0  0  0  0  0  0  0  0  0  0  0  0
   -5.7656   -2.0664    1.0784 H   0  0  0  0  0  0  0  0  0  0  0  0
   -4.1837    1.2163    1.7635 H   0  0  0  0  0  0  0  0  0  0  0  0
   -5.7182    0.4639    1.2096 H   0  0  0  0  0  0  0  0  0  0  0  0
   -4.1674    2.7530   -0.1713 H   0  0  0  0  0  0  0  0  0  0  0  0
   -5.7260    2.8900    0.7015 H   0  0  0  0  0  0  0  0  0  0  0  0
   -3.0918   -2.6897    0.3676 H   0  0  0  0  0  0  0  0  0  0  0  0
   -5.2442    1.6569   -1.7936 H   0  0  0  0  0  0  0  0  0  0  0  0
  1  3  1  0  0  0  0
  3  4  1  0  0  0  0
  3  2  1  0  0  0  0
  4  7  1  0  0  0  0
  5  4  1  0  0  0  0
  5  6  1  0  0  0  0
  6  9  1  0  0  0  0
  6 14  1  0  0  0  0
  7 16  1  0  0  0  0
  7 15  1  0  0  0  0
  8 18  1  0  0  0  0
  8  7  1  0  0  0  0
 10  8  1  0  0  0  0
 11  5  1  0  0  0  0
 12  5  1  0  0  0  0
 13  6  1  0  0  0  0
 17  8  1  0  0  0  0
 19  9  1  0  0  0  0
 20 10  1  0  0  0  0
M  END
