1,2
q = -1.0, confidence = 0.0

 23 24  0  0  0  0  0  0  0  0999 V2000
   -2.0518   -0.6115    0.9429 S   0  0  0  0  0  1  0  0  0  0  0  0
   -1.6650   -0.0107   -1.9515 S   0  0  0  0  0  1  0  0  0  0  0  0
   -4.0096   -0.8369   -0.9185 N   0  0  0  0  0  0  0  0  0  0  0  0
   -2.6933   -0.5309   -0.6759 C   0  0  0  0  0  3  0  0  0  0  0  0
   -6.2207   -0.5832    0.1004 C   0  0  0  0  0  0  0  0  0  0  0  0
   -4.9514   -1.2139    0.0902 C   0  0  0  0  0  0  0  0  0  0  0  0
   -4.6614   -2.2443    1.0090 C   0  0  0  0  0  0  0  0  0  0  0  0
   -7.1502   -0.9749    1.0846 C   0  0  0  0  0  0  0  0  0  0  0  0
   -6.6179    0.4432   -0.9445 C   0  0  0  0  0  0  0  0  0  0  0  0
   -7.5015    0.0391   -1.4868 H   0  0  0  0  0  0  0  0  0  0  0  0
   -6.9787    1.3665   -0.4439 H   0  0  0  0  0  0  0  0  0  0  0  0
   -4.6392   -0.4646   -2.1938 C   0  0  0  0  0  0  0  0  0  0  0  0
   -3.8328   -0.2727   -2.9252 H   0  0  0  0  0  0  0  0  0  0  0  0
   -5.2473   -1.3247   -2.5470 H   0  0  0  0  0  0  0  0  0  0  0  0
   -6.8494   -1.9664    2.0247 C   0  0  0  0  0  0  0  0  0  0  0  0
   -5.6018   -2.6113    1.9757 C   0  0  0  0  0  0  0  0  0  0  0  0
   -5.5071    0.7695   -1.9528 C   0  0  0  0  0  0  0  0  0  0  0  0
   -5.9388    1.1328   -2.9075 H   0  0  0  0  0  0  0  0  0  0  0  0
   -4.8432    1.5754   -1.5739 H   0  0  0  0  0  0  0  0  0  0  0  0
   -3.6893   -2.7507    0.9559 H   0  0  0  0  0  0  0  0  0  0  0  0
   -7.5922   -2.2487    2.7859 H   0  0  0  0  0  0  0  0  0  0  0  0
   -8.1363   -0.4831    1.1020 H   0  0  0  0  0  0  0  0  0  0  0  0
   -5.3607   -3.4129    2.6898 H   0  0  0  0  0  0  0  0  0  0  0  0
  2  4  1  0  0  0  0
  3  4  1  0  0  0  0
  3  6  1  0  0  0  0
  4  1  1  0  0  0  0
  5  8  1  0  0  0  0
  6  5  2  0  0  0  0
  6  7  1  0  0  0  0
  7 16  2  0  0  0  0
  8 22  1  0  0  0  0
  8 15  2  0  0  0  0
  9 11  1  0  0  0  0
  9  5  1  0  0  0  0
 10  9  1  0  0  0  0
 12 17  1  0  0  0  0
 12  3  1  0  0  0  0
 13 12  1  0  0  0  0
 14 12  1  0  0  0  0
 15 21  1  0  0  0  0
 16 15  1  0  0  0  0
 16 23  1  0  0  0  0
 17 19  1  0  0  0  0
 17  9  1  0  0  0  0
 18 17  1  0  0  0  0
 20  7  1  0  0  0  0
M  END
