1,2
q = 0.0, confidence = 1.0

 24 24  0  0  0  0  0  0  0  0999 V2000
   -2.1207    1.5439    0.2998 S   0  0  0  0  0  0  0  0  0  0  0  0
   -1.3804   -1.4414   -1.2412 S   0  0  0  0  0  0  0  0  0  0  0  0
   -1.8408   -1.2088    1.8883 O   0  0  0  0  0  0  0  0  0  0  0  0
   -3.3387    0.4210    1.0994 C   0  0  0  0  0  0  0  0  0  0  0  0
   -3.0094   -1.0691    1.1081 C   0  0  0  0  0  0  0  0  0  0  0  0
   -2.9132   -1.7669   -0.2597 C   0  0  0  0  0  0  0  0  0  0  0  0
   -2.0209   -0.4471   -2.6634 C   0  0  0  0  0  0  0  0  0  0  0  0
   -1.9852    1.0718   -2.5378 C   0  0  0  0  0  0  0  0  0  0  0  0
   -2.7961    1.7208   -1.4209 C   0  0  0  0  0  0  0  0  0  0  0  0
   -1.4649   -2.5377    2.2116 C   0  0  0  0  0  0  0  0  0  0  0  0
   -4.3286    0.6160    0.6412 H   0  0  0  0  0  0  0  0  0  0  0  0
   -3.3822    0.7628    2.1519 H   0  0  0  0  0  0  0  0  0  0  0  0
   -3.8724   -1.5630    1.6269 H   0  0  0  0  0  0  0  0  0  0  0  0
   -2.9297   -2.8645   -0.1169 H   0  0  0  0  0  0  0  0  0  0  0  0
   -3.7882   -1.5159   -0.8915 H   0  0  0  0  0  0  0  0  0  0  0  0
   -3.0418   -0.8281   -2.8735 H   0  0  0  0  0  0  0  0  0  0  0  0
   -1.3838   -0.7647   -3.5127 H   0  0  0  0  0  0  0  0  0  0  0  0
   -2.3772    1.4757   -3.4980 H   0  0  0  0  0  0  0  0  0  0  0  0
   -0.9331    1.4185   -2.4802 H   0  0  0  0  0  0  0  0  0  0  0  0
   -2.8408    2.8152   -1.5848 H   0  0  0  0  0  0  0  0  0  0  0  0
   -3.8437    1.3568   -1.3931 H   0  0  0  0  0  0  0  0  0  0  0  0
   -0.6364   -2.4638    2.9401 H   0  0  0  0  0  0  0  0  0  0  0  0
   -1.0983   -3.1051    1.3249 H   0  0  0  0  0  0  0  0  0  0  0  0
   -2.3073   -3.1005    2.6745 H   0  0  0  0  0  0  0  0  0  0  0  0
  1  4  1  0  0  0  0
  2  6  1  0  0  0  0
  3 10  1  0  0  0  0
  4  5  1  0  0  0  0
  4 12  1  0  0  0  0
  5 13  1  0  0  0  0
  5  3  1  0  0  0  0
  6 14  1  0  0  0  0
  6  5  1  0  0  0  0
  7  8  1  0  0  0  0
  7  2  1  0  0  0  0
  8 19  1  0  0  0  0
  8  9  1  0  0  0  0
  9 21  1  0  0  0  0
  9  1  1  0  0  0  0
 10 24  1  0  0  0  0
 10 22  1  0  0  0  0
 11  4  1  0  0  0  0
 15  6  1  0  0  0  0
 16  7  1  0  0  0  0
 17  7  1  0  0  0  0
 18  8  1  0  0  0  0
 20  9  1  0  0  0  0
 23 10  1  0  0  0  0
M  END
