1,2
q = 0.0, confidence = 0.664

 26 27  0  0  0  0  0  0  0  0999 V2000
   -1.6907    1.5584    0.6241 S   0  0  0  0  0  1  0  0  0  0  0  0
   -1.6419   -1.5739    0.5585 S   0  0  0  0  0  1  0  0  0  0  0  0
   -2.9919    0.6834   -0.1364 C   0  0  0  0  0  0  0  0  0  0  0  0
   -4.1066    1.5156   -0.6526 C   0  0  0  0  0  0  0  0  0  0  0  0
   -3.8462    2.6775   -1.4136 C   0  0  0  0  0  0  0  0  0  0  0  0
   -2.8034    2.9512   -1.6340 H   0  0  0  0  0  0  0  0  0  0  0  0
   -4.9008    3.4662   -1.8930 C   0  0  0  0  0  0  0  0  0  0  0  0
   -4.6812    4.3628   -2.4922 H   0  0  0  0  0  0  0  0  0  0  0  0
   -6.2305    3.1147   -1.6114 C   0  0  0  0  0  0  0  0  0  0  0  0
   -7.0581    3.7355   -1.9868 H   0  0  0  0  0  0  0  0  0  0  0  0
   -6.4994    1.9702   -0.8424 C   0  0  0  0  0  0  0  0  0  0  0  0
   -7.5385    1.6954   -0.6060 H   0  0  0  0  0  0  0  0  0  0  0  0
   -5.4492    1.1761   -0.3663 C   0  0  0  0  0  0  0  0  0  0  0  0
   -5.6627    0.2856    0.2419 H   0  0  0  0  0  0  0  0  0  0  0  0
   -2.9545   -0.7063   -0.1912 C   0  0  0  0  0  0  0  0  0  0  0  0
   -3.9409   -1.5486   -0.9114 C   0  0  0  0  0  0  0  0  0  0  0  0
   -4.4663   -2.7149   -0.3105 C   0  0  0  0  0  0  0  0  0  0  0  0
   -4.1486   -2.9825    0.7085 H   0  0  0  0  0  0  0  0  0  0  0  0
   -5.3906   -3.5151   -0.9957 C   0  0  0  0  0  0  0  0  0  0  0  0
   -5.7977   -4.4146   -0.5094 H   0  0  0  0  0  0  0  0  0  0  0  0
   -5.7967   -3.1708   -2.2946 C   0  0  0  0  0  0  0  0  0  0  0  0
   -6.5217   -3.8002   -2.8326 H   0  0  0  0  0  0  0  0  0  0  0  0
   -5.2683   -2.0221   -2.9069 C   0  0  0  0  0  0  0  0  0  0  0  0
   -5.5715   -1.7526   -3.9299 H   0  0  0  0  0  0  0  0  0  0  0  0
   -4.3491   -1.2165   -2.2241 C   0  0  0  0  0  0  0  0  0  0  0  0
   -3.9319   -0.3225   -2.7090 H   0  0  0  0  0  0  0  0  0  0  0  0
  3  1  1  0  0  0  0
  4 13  1  0  0  0  0
  4  3  1  0  0  0  0
  5  4  2  0  0  0  0
  6  5  1  0  0  0  0
  7  9  2  0  0  0  0
  7  5  1  0  0  0  0
  8  7  1  0  0  0  0
  9 11  1  0  0  0  0
 10  9  1  0  0  0  0
 11 12  1  0  0  0  0
 11 13  2  0  0  0  0
 13 14  1  0  0  0  0
 15  3  2  0  0  0  0
 15  2  1  0  0  0  0
 16 17  1  0  0  0  0
 16 15  1  0  0  0  0
 17 18  1  0  0  0  0
 19 20  1  0  0  0  0
 19 17  2  0  0  0  0
 21 19  1  0  0  0  0
 22 21  1  0  0  0  0
 23 21  2  0  0  0  0
 23 25  1  0  0  0  0
 24 23  1  0  0  0  0
 25 16  2  0  0  0  0
 26 25  1  0  0  0  0
M  END
