1,2
q = -1.0, confidence = 0.0

 14 13  0  0  1  0  0  0  0  0999 V2000
   -1.7381    0.7280    1.0100 S   0  0  0  0  0  5  0  0  0  0  0  0
   -0.8804    1.6751   -1.5646 S   0  0  0  0  0  1  0  0  0  0  0  0
   -3.2661    2.5631   -0.5366 N   0  0  0  0  0  0  0  0  0  0  0  0
   -1.6120    1.6492    2.2045 O   0  0  0  0  0  0  0  0  0  0  0  0
   -2.8629   -0.2665    1.0955 O   0  0  0  0  0  0  0  0  0  0  0  0
   -2.1592    1.8479   -0.4378 C   0  0  1  0  0  3  0  0  0  0  0  0
   -3.5930    3.3310   -1.7358 C   0  0  0  0  0  0  0  0  0  0  0  0
   -2.8941    3.0677   -2.5507 H   0  0  0  0  0  0  0  0  0  0  0  0
   -3.5176    4.4178   -1.5247 H   0  0  0  0  0  0  0  0  0  0  0  0
   -4.6318    3.1007   -2.0465 H   0  0  0  0  0  0  0  0  0  0  0  0
   -4.2370    2.5987    0.5637 C   0  0  0  0  0  0  0  0  0  0  0  0
   -3.7549    2.2651    1.4998 H   0  0  0  0  0  0  0  0  0  0  0  0
   -5.0992    1.9415    0.3308 H   0  0  0  0  0  0  0  0  0  0  0  0
   -4.5945    3.6394    0.6872 H   0  0  0  0  0  0  0  0  0  0  0  0
  1  5  2  0  0  0  0
  1  4  2  0  0  0  0
  3  6  1  0  0  0  0
  3 11  1  0  0  0  0
  6  2  1  6  0  0  0
  6  1  1  0  0  0  0
  7  9  1  0  0  0  0
  7  3  1  0  0  0  0
  8  7  1  0  0  0  0
 10  7  1  0  0  0  0
 11 14  1  0  0  0  0
 11 12  1  0  0  0  0
 13 11  1  0  0  0  0
M  END
