1,2
q = 0.0, confidence = 0.744

  8  8  0  0  0  0  0  0  0  0999 V2000
    1.7422   -1.5784   -0.0869 S   0  0  0  0  0  0  0  0  0  0  0  0
    1.7421    1.5784    0.0865 S   0  0  0  0  0  0  0  0  0  0  0  0
    4.7742   -1.5049   -0.1012 S   0  0  0  0  0  0  0  0  0  0  0  0
    4.7742    1.5049    0.1014 S   0  0  0  0  0  0  0  0  0  0  0  0
    6.9926   -0.0000    0.0005 O   0  0  0  0  0  0  0  0  0  0  0  0
    3.2185   -0.7007   -0.0437 C   0  0  0  0  0  0  0  0  0  0  0  0
    3.2185    0.7007    0.0437 C   0  0  0  0  0  0  0  0  0  0  0  0
    5.7892   -0.0000    0.0003 C   0  0  0  0  0  0  0  0  0  0  0  0
  1  6  1  0  0  0  0
  3  6  1  0  0  0  0
  3  8  1  0  0  0  0
  6  7  2  0  0  0  0
  7  2  1  0  0  0  0
  7  4  1  0  0  0  0
  8  5  2  0  0  0  0
  8  4  1  0  0  0  0
M  END
