1,2
q = 0.0, confidence = 1.0

 19 18  0  0  1  0  0  0  0  0999 V2000
    0.9398   -1.1251   -0.3241 S   0  0  0  0  0  0  0  0  0  0  0  0
   -0.1540    1.9719   -0.3269 S   0  0  0  0  0  0  0  0  0  0  0  0
    3.7846   -0.1998   -1.3342 F   0  0  0  0  0  0  0  0  0  0  0  0
    3.8868   -1.1759    0.6166 F   0  0  0  0  0  0  0  0  0  0  0  0
    4.2926    0.9621    0.4452 F   0  0  0  0  0  0  0  0  0  0  0  0
    1.0750   -2.2671    1.0934 C   0  0  0  0  0  0  0  0  0  0  0  0
   -0.1949    2.6402    1.3732 C   0  0  0  0  0  0  0  0  0  0  0  0
    2.0403    0.2815    0.2212 C   0  0  1  0  0  0  0  0  0  0  0  0
    3.5173   -0.0451   -0.0235 C   0  0  0  0  0  0  0  0  0  0  0  0
    1.6285    1.5491   -0.5207 C   0  0  0  0  0  0  0  0  0  0  0  0
    2.0217   -2.8310    1.0229 H   0  0  0  0  0  0  0  0  0  0  0  0
    0.1851   -2.9185    0.9779 H   0  0  0  0  0  0  0  0  0  0  0  0
    0.9932   -1.7069    2.0433 H   0  0  0  0  0  0  0  0  0  0  0  0
    0.2951    3.6326    1.3921 H   0  0  0  0  0  0  0  0  0  0  0  0
    0.2638    1.9392    2.0951 H   0  0  0  0  0  0  0  0  0  0  0  0
   -1.2776    2.7276    1.5887 H   0  0  0  0  0  0  0  0  0  0  0  0
    1.9043    0.3977    1.3160 H   0  0  0  0  0  0  0  0  0  0  0  0
    2.2348    2.4142   -0.1867 H   0  0  0  0  0  0  0  0  0  0  0  0
    1.7787    1.4247   -1.6122 H   0  0  0  0  0  0  0  0  0  0  0  0
  1  8  1  0  0  0  0
  1  6  1  0  0  0  0
  2  7  1  0  0  0  0
  3  9  1  0  0  0  0
  6 13  1  0  0  0  0
  7 14  1  0  0  0  0
  7 16  1  0  0  0  0
  7 15  1  0  0  0  0
  8 17  1  1  0  0  0
  9  8  1  0  0  0  0
  9  5  1  0  0  0  0
  9  4  1  0  0  0  0
 10  2  1  0  0  0  0
 10 18  1  0  0  0  0
 10  8  1  0  0  0  0
 11  6  1  0  0  0  0
 12  6  1  0  0  0  0
 19 10  1  0  0  0  0
M  END
