1,2
q = -1.0, confidence = 0.0

 28 28  0  0  0  0  0  0  0  0999 V2000
    0.3358   -1.6183    0.3327 S   0  0  0  0  0  1  0  0  0  0  0  0
    0.1517    1.2230    0.8568 S   0  0  0  0  0  1  0  0  0  0  0  0
   -1.9296   -0.4658    1.2851 N   0  0  0  0  0  0  0  0  0  0  0  0
   -6.7095    0.6313    0.0009 O   0  0  0  0  0  0  0  0  0  0  0  0
   -6.1861   -1.2558   -1.1565 O   0  0  0  0  0  0  0  0  0  0  0  0
   -0.6633   -0.3099    0.8824 C   0  0  0  0  0  3  0  0  0  0  0  0
   -2.6209   -1.7590    1.2359 C   0  0  0  0  0  0  0  0  0  0  0  0
   -2.9428   -2.0107    2.2710 H   0  0  0  0  0  0  0  0  0  0  0  0
   -1.8976   -2.5334    0.9145 H   0  0  0  0  0  0  0  0  0  0  0  0
   -3.8247   -1.6894    0.2938 C   0  0  0  0  0  0  0  0  0  0  0  0
   -3.4718   -1.5510   -0.7493 H   0  0  0  0  0  0  0  0  0  0  0  0
   -4.3724   -2.6517    0.3132 H   0  0  0  0  0  0  0  0  0  0  0  0
   -4.7564   -0.5329    0.6746 C   0  0  0  0  0  0  0  0  0  0  0  0
   -5.1853   -0.7286    1.6857 H   0  0  0  0  0  0  0  0  0  0  0  0
   -3.9781    0.7948    0.7532 C   0  0  0  0  0  0  0  0  0  0  0  0
   -4.6398    1.6073    1.1101 H   0  0  0  0  0  0  0  0  0  0  0  0
   -3.6222    1.0802   -0.2599 H   0  0  0  0  0  0  0  0  0  0  0  0
   -2.7723    0.6644    1.6867 C   0  0  0  0  0  0  0  0  0  0  0  0
   -2.1552    1.5842    1.6851 H   0  0  0  0  0  0  0  0  0  0  0  0
   -3.1059    0.4859    2.7331 H   0  0  0  0  0  0  0  0  0  0  0  0
   -5.9468   -0.4513   -0.2760 C   0  0  0  0  0  0  0  0  0  0  0  0
   -7.8691    0.8389   -0.8445 C   0  0  0  0  0  0  0  0  0  0  0  0
   -8.3210   -0.1477   -1.0714 H   0  0  0  0  0  0  0  0  0  0  0  0
   -8.5669    1.4260   -0.2167 H   0  0  0  0  0  0  0  0  0  0  0  0
   -7.4999    1.5768   -2.1197 C   0  0  0  0  0  0  0  0  0  0  0  0
   -7.0022    2.5408   -1.8938 H   0  0  0  0  0  0  0  0  0  0  0  0
   -8.4136    1.7909   -2.7098 H   0  0  0  0  0  0  0  0  0  0  0  0
   -6.8253    0.9618   -2.7466 H   0  0  0  0  0  0  0  0  0  0  0  0
  1  6  1  0  0  0  0
  2  6  1  0  0  0  0
  3 18  1  0  0  0  0
  5 21  2  0  0  0  0
  6  3  1  0  0  0  0
  7  3  1  0  0  0  0
  7  8  1  0  0  0  0
  9  7  1  0  0  0  0
 10 12  1  0  0  0  0
 10 13  1  0  0  0  0
 10  7  1  0  0  0  0
 11 10  1  0  0  0  0
 13 15  1  0  0  0  0
 13 14  1  0  0  0  0
 15 16  1  0  0  0  0
 15 18  1  0  0  0  0
 17 15  1  0  0  0  0
 18 20  1  0  0  0  0
 19 18  1  0  0  0  0
 21  4  1  0  0  0  0
 21 13  1  0  0  0  0
 22 24  1  0  0  0  0
 22  4  1  0  0  0  0
 23 22  1  0  0  0  0
 25 26  1  0  0  0  0
 25 22  1  0  0  0  0
 27 25  1  0  0  0  0
 28 25  1  0  0  0  0
M  END
