1,3
q = -1.0

 28 29  0  0  0  0  0  0  0  0999 V2000
   -1.6337   -1.2492   -0.8712 S   0  0  0  0  0  1  0  0  0  0  0  0
   -2.5241    0.2332   -0.9142 C   0  0  0  0  0  3  0  0  0  0  0  0
   -1.5992    1.5381   -0.2575 S   0  0  0  0  0  1  0  0  0  0  0  0
   -3.7765    0.3597   -1.4016 N   0  0  0  0  0  0  0  0  0  0  0  0
   -4.5535   -0.8132   -1.8176 C   0  0  0  0  0  0  0  0  0  0  0  0
   -3.8216   -1.6023   -2.0881 H   0  0  0  0  0  0  0  0  0  0  0  0
   -5.1121   -0.5410   -2.7368 H   0  0  0  0  0  0  0  0  0  0  0  0
   -5.5133   -1.3152   -0.7562 C   0  0  0  0  0  0  0  0  0  0  0  0
   -5.0309   -1.9048    0.4343 C   0  0  0  0  0  0  0  0  0  0  0  0
   -3.9401   -2.0132    0.5813 H   0  0  0  0  0  0  0  0  0  0  0  0
   -5.8211   -2.3505    1.4194 N   0  0  0  0  0  0  0  0  0  0  0  0
   -7.1492   -2.2308    1.2581 C   0  0  0  0  0  0  0  0  0  0  0  0
   -7.7800   -2.6032    2.0855 H   0  0  0  0  0  0  0  0  0  0  0  0
   -7.7418   -1.6718    0.1159 C   0  0  0  0  0  0  0  0  0  0  0  0
   -8.8366   -1.5988    0.0321 H   0  0  0  0  0  0  0  0  0  0  0  0
   -6.9052   -1.2058   -0.9074 C   0  0  0  0  0  0  0  0  0  0  0  0
   -7.3293   -0.7478   -1.8151 H   0  0  0  0  0  0  0  0  0  0  0  0
   -4.4616    1.6591   -1.3646 C   0  0  0  0  0  0  0  0  0  0  0  0
   -5.0324    1.7816   -2.3073 H   0  0  0  0  0  0  0  0  0  0  0  0
   -3.6695    2.4357   -1.3397 H   0  0  0  0  0  0  0  0  0  0  0  0
   -5.3986    1.8119   -0.2107 C   0  0  0  0  0  0  0  0  0  0  0  0
   -5.2150    1.8170    1.1549 C   0  0  0  0  0  0  0  0  0  0  0  0
   -4.2482    1.7529    1.6666 H   0  0  0  0  0  0  0  0  0  0  0  0
   -6.5237    1.9038    1.7359 C   0  0  0  0  0  0  0  0  0  0  0  0
   -6.7766    1.9302    2.8013 H   0  0  0  0  0  0  0  0  0  0  0  0
   -7.4074    1.9536    0.6830 C   0  0  0  0  0  0  0  0  0  0  0  0
   -8.4964    2.0346    0.6123 H   0  0  0  0  0  0  0  0  0  0  0  0
   -6.7355    1.8972   -0.5029 O   0  0  0  0  0  0  0  0  0  0  0  0
  2  1  1  0  0  0  0
  2  3  1  0  0  0  0
  4 18  1  0  0  0  0
  4  2  1  0  0  0  0
  5  4  1  0  0  0  0
  5  8  1  0  0  0  0
  6  5  1  0  0  0  0
  7  5  1  0  0  0  0
  8  9  1  0  0  0  0
  9 10  1  0  0  0  0
  9 11  2  0  0  0  0
 12 11  1  0  0  0  0
 12 13  1  0  0  0  0
 14 12  2  0  0  0  0
 15 14  1  0  0  0  0
 16  8  2  0  0  0  0
 16 14  1  0  0  0  0
 17 16  1  0  0  0  0
 18 20  1  0  0  0  0
 18 21  1  0  0  0  0
 19 18  1  0  0  0  0
 21 22  2  0  0  0  0
 22 23  1  0  0  0  0
 22 24  1  0  0  0  0
 24 25  1  0  0  0  0
 26 24  2  0  0  0  0
 27 26  1  0  0  0  0
 28 21  1  0  0  0  0
 28 26  1  0  0  0  0
M  END
