1,2
q = -1.0, confidence = 0.002

 12 12  0  0  0  0  0  0  0  0999 V2000
    1.1180    0.7429   -2.1961 S   0  0  0  0  0  1  0  0  0  0  0  0
    2.4242   -0.5882   -0.0349 S   0  0  0  0  0  1  0  0  0  0  0  0
    2.5923    0.2825   -1.4843 C   0  0  0  0  0  3  0  0  0  0  0  0
    3.8210    0.5778   -2.0507 N   0  0  0  0  0  0  0  0  0  0  0  0
    4.0208    1.2837   -3.2436 C   0  0  0  0  0  0  0  0  0  0  0  0
    3.1617    1.6578   -3.8089 H   0  0  0  0  0  0  0  0  0  0  0  0
    5.3773    1.3616   -3.4639 C   0  0  0  0  0  0  0  0  0  0  0  0
    5.8573    1.8542   -4.3170 H   0  0  0  0  0  0  0  0  0  0  0  0
    6.0384    0.6841   -2.3750 C   0  0  0  0  0  0  0  0  0  0  0  0
    7.1188    0.5610   -2.2392 H   0  0  0  0  0  0  0  0  0  0  0  0
    5.0656    0.2132   -1.5225 C   0  0  0  0  0  0  0  0  0  0  0  0
    5.1194   -0.3486   -0.5848 H   0  0  0  0  0  0  0  0  0  0  0  0
  1  3  1  0  0  0  0
  3  2  1  0  0  0  0
  4 11  1  0  0  0  0
  4  3  1  0  0  0  0
  5  4  1  0  0  0  0
  6  5  1  0  0  0  0
  7  5  2  0  0  0  0
  7  9  1  0  0  0  0
  8  7  1  0  0  0  0
  9 10  1  0  0  0  0
  9 11  2  0  0  0  0
 11 12  1  0  0  0  0
M  END
