1,2
q = -1.0

 24 23  0  0  0  0  0  0  0  0999 V2000
   -0.3749   -1.4758    0.0000 S   0  0  0  0  0  1  0  0  0  0  0  0
   -0.3857    1.3956    0.0000 S   0  0  0  0  0  1  0  0  0  0  0  0
   -2.7049   -0.0728   -0.0000 N   0  0  0  0  0  0  0  0  0  0  0  0
   -1.3679   -0.0409   -0.0000 C   0  0  0  0  0  3  0  0  0  0  0  0
   -3.4080   -1.3837    0.0001 C   0  0  0  0  0  0  0  0  0  0  0  0
   -2.6010   -2.1459    0.0001 H   0  0  0  0  0  0  0  0  0  0  0  0
   -4.2219   -1.5751   -1.2820 C   0  0  0  0  0  0  0  0  0  0  0  0
   -5.0672   -0.8606   -1.3531 H   0  0  0  0  0  0  0  0  0  0  0  0
   -4.6509   -2.5961   -1.2978 H   0  0  0  0  0  0  0  0  0  0  0  0
   -3.5831   -1.4567   -2.1787 H   0  0  0  0  0  0  0  0  0  0  0  0
   -3.5565    1.1534    0.0000 C   0  0  0  0  0  0  0  0  0  0  0  0
   -4.5899    0.7547    0.0003 H   0  0  0  0  0  0  0  0  0  0  0  0
   -3.3902    1.9695   -1.2863 C   0  0  0  0  0  0  0  0  0  0  0  0
   -2.3796    2.4134   -1.3710 H   0  0  0  0  0  0  0  0  0  0  0  0
   -4.1276    2.7961   -1.2931 H   0  0  0  0  0  0  0  0  0  0  0  0
   -3.5668    1.3402   -2.1801 H   0  0  0  0  0  0  0  0  0  0  0  0
   -4.2220   -1.5749    1.2822 C   0  0  0  0  0  0  0  0  0  0  0  0
   -5.0672   -0.8604    1.3532 H   0  0  0  0  0  0  0  0  0  0  0  0
   -4.6509   -2.5960    1.2982 H   0  0  0  0  0  0  0  0  0  0  0  0
   -3.5831   -1.4564    2.1789 H   0  0  0  0  0  0  0  0  0  0  0  0
   -3.3897    1.9698    1.2861 C   0  0  0  0  0  0  0  0  0  0  0  0
   -2.3790    2.4137    1.3703 H   0  0  0  0  0  0  0  0  0  0  0  0
   -4.1270    2.7964    1.2930 H   0  0  0  0  0  0  0  0  0  0  0  0
   -3.5659    1.3406    2.1801 H   0  0  0  0  0  0  0  0  0  0  0  0
  3 11  1  0  0  0  0
  3  5  1  0  0  0  0
  4  3  1  0  0  0  0
  4  1  1  0  0  0  0
  4  2  1  0  0  0  0
  5  6  1  0  0  0  0
  5 17  1  0  0  0  0
  7  5  1  0  0  0  0
  8  7  1  0  0  0  0
  9  7  1  0  0  0  0
 10  7  1  0  0  0  0
 11 12  1  0  0  0  0
 11 21  1  0  0  0  0
 13 11  1  0  0  0  0
 14 13  1  0  0  0  0
 15 13  1  0  0  0  0
 16 13  1  0  0  0  0
 17 19  1  0  0  0  0
 17 18  1  0  0  0  0
 17 20  1  0  0  0  0
 21 23  1  0  0  0  0
 21 22  1  0  0  0  0
 21 24  1  0  0  0  0
M  END
