1,5
q = -1.0, confidence = 0.0

 42 41  0  0  0  0  0  0  0  0999 V2000
   -1.4105   -1.2366   -1.2368 S   0  0  0  0  0  1  0  0  0  0  0  0
   -2.8632   -1.2322    0.1836 P   0  0  0  0  0  4  0  0  0  0  0  0
   -3.9752   -2.3645   -0.1868 O   0  0  0  0  0  0  0  0  0  0  0  0
   -2.3686   -1.7206    1.6431 O   0  0  0  0  0  0  0  0  0  0  0  0
   -1.3661    1.7166    0.3755 S   0  0  0  0  0  1  0  0  0  0  0  0
   -3.0924    1.3499    0.3563 C   0  0  0  0  0  0  0  0  0  0  0  0
   -3.6799    0.1599    0.3741 N   0  0  0  0  0  0  0  0  0  0  0  0
   -3.8631    2.4684    0.3763 N   0  0  0  0  0  0  0  0  0  0  0  0
   -5.3390    2.5614    0.4480 C   0  0  0  0  0  0  0  0  0  0  0  0
   -5.8589    1.8712    1.7231 C   0  0  0  0  0  0  0  0  0  0  0  0
   -5.9687    1.9328   -0.8096 C   0  0  0  0  0  0  0  0  0  0  0  0
   -5.6643    4.0625    0.4970 C   0  0  0  0  0  0  0  0  0  0  0  0
   -1.4512   -2.8507    1.8135 C   0  0  0  0  0  0  0  0  0  0  0  0
   -4.7390   -2.2288   -1.4238 C   0  0  0  0  0  0  0  0  0  0  0  0
   -6.2128   -2.2314   -1.0458 C   0  0  0  0  0  0  0  0  0  0  0  0
   -0.4038   -2.4130    2.8225 C   0  0  0  0  0  0  0  0  0  0  0  0
   -2.2658   -4.0689    2.2248 C   0  0  0  0  0  0  0  0  0  0  0  0
   -4.3289   -3.3568   -2.3600 C   0  0  0  0  0  0  0  0  0  0  0  0
   -3.3392    3.3458    0.3786 H   0  0  0  0  0  0  0  0  0  0  0  0
   -4.4780   -1.2505   -1.8870 H   0  0  0  0  0  0  0  0  0  0  0  0
   -4.8794   -3.2863   -3.3196 H   0  0  0  0  0  0  0  0  0  0  0  0
   -3.2432   -3.3043   -2.5723 H   0  0  0  0  0  0  0  0  0  0  0  0
   -4.5513   -4.3408   -1.8994 H   0  0  0  0  0  0  0  0  0  0  0  0
   -0.9571   -3.0359    0.8336 H   0  0  0  0  0  0  0  0  0  0  0  0
   -3.0294   -4.2994    1.4570 H   0  0  0  0  0  0  0  0  0  0  0  0
   -2.7818   -3.8863    3.1893 H   0  0  0  0  0  0  0  0  0  0  0  0
   -1.6040   -4.9504    2.3435 H   0  0  0  0  0  0  0  0  0  0  0  0
   -6.4811   -3.1838   -0.5454 H   0  0  0  0  0  0  0  0  0  0  0  0
   -6.8465   -2.1178   -1.9481 H   0  0  0  0  0  0  0  0  0  0  0  0
   -6.4319   -1.3979   -0.3508 H   0  0  0  0  0  0  0  0  0  0  0  0
   -0.8786   -2.1370    3.7858 H   0  0  0  0  0  0  0  0  0  0  0  0
    0.1560   -1.5424    2.4274 H   0  0  0  0  0  0  0  0  0  0  0  0
   -5.7058    0.8610   -0.8740 H   0  0  0  0  0  0  0  0  0  0  0  0
   -7.0726    2.0280   -0.7732 H   0  0  0  0  0  0  0  0  0  0  0  0
   -5.6026    2.4407   -1.7243 H   0  0  0  0  0  0  0  0  0  0  0  0
   -5.2894    4.5828   -0.4087 H   0  0  0  0  0  0  0  0  0  0  0  0
   -6.7598    4.2133    0.5464 H   0  0  0  0  0  0  0  0  0  0  0  0
   -5.2141    4.5393    1.3921 H   0  0  0  0  0  0  0  0  0  0  0  0
    0.3193   -3.2335    3.0012 H   0  0  0  0  0  0  0  0  0  0  0  0
   -6.9618    1.9661    1.7835 H   0  0  0  0  0  0  0  0  0  0  0  0
   -5.4178    2.3393    2.6259 H   0  0  0  0  0  0  0  0  0  0  0  0
   -5.5891    0.7988    1.7180 H   0  0  0  0  0  0  0  0  0  0  0  0
  1  2  1  0  0  0  0
  2  7  1  0  0  0  0
  2  4  1  0  0  0  0
  3  2  1  0  0  0  0
  4 13  1  0  0  0  0
  6  7  2  0  0  0  0
  6  5  1  0  0  0  0
  6  8  1  0  0  0  0
  8 19  1  0  0  0  0
  8  9  1  0  0  0  0
  9 12  1  0  0  0  0
  9 10  1  0  0  0  0
 10 40  1  0  0  0  0
 10 41  1  0  0  0  0
 11 34  1  0  0  0  0
 11  9  1  0  0  0  0
 12 37  1  0  0  0  0
 12 38  1  0  0  0  0
 13 17  1  0  0  0  0
 13 16  1  0  0  0  0
 14 15  1  0  0  0  0
 14  3  1  0  0  0  0
 15 28  1  0  0  0  0
 15 30  1  0  0  0  0
 16 39  1  0  0  0  0
 16 31  1  0  0  0  0
 17 27  1  0  0  0  0
 17 26  1  0  0  0  0
 18 23  1  0  0  0  0
 18 14  1  0  0  0  0
 20 14  1  0  0  0  0
 21 18  1  0  0  0  0
 22 18  1  0  0  0  0
 24 13  1  0  0  0  0
 25 17  1  0  0  0  0
 29 15  1  0  0  0  0
 32 16  1  0  0  0  0
 33 11  1  0  0  0  0
 35 11  1  0  0  0  0
 36 12  1  0  0  0  0
 42 10  1  0  0  0  0
M  END
