1,2
q = -1.0, confidence = 0.0

 19 18  0  0  0  0  0  0  0  0999 V2000
   -2.0558   -0.1064   -1.7653 S   0  0  0  0  0  1  0  0  0  0  0  0
   -1.6426   -1.5712    1.2727 S   0  0  0  0  0  1  0  0  0  0  0  0
   -2.6122   -1.5977   -0.5191 P   0  0  0  0  0  4  0  0  0  0  0  0
   -4.2383   -1.6285   -0.3123 O   0  0  0  0  0  0  0  0  0  0  0  0
   -2.5400   -3.0785   -1.2023 O   0  0  0  0  0  0  0  0  0  0  0  0
   -4.8700   -0.4928    0.2951 C   0  0  0  0  0  0  0  0  0  0  0  0
   -4.4628    0.4423   -0.1540 H   0  0  0  0  0  0  0  0  0  0  0  0
   -4.6269   -0.4817    1.3821 H   0  0  0  0  0  0  0  0  0  0  0  0
   -6.3646   -0.6024    0.0652 C   0  0  0  0  0  0  0  0  0  0  0  0
   -6.8886    0.2501    0.5422 H   0  0  0  0  0  0  0  0  0  0  0  0
   -6.7613   -1.5428    0.4965 H   0  0  0  0  0  0  0  0  0  0  0  0
   -6.5943   -0.5946   -1.0185 H   0  0  0  0  0  0  0  0  0  0  0  0
   -1.2442   -3.6107   -1.5659 C   0  0  0  0  0  0  0  0  0  0  0  0
   -1.2583   -4.6719   -1.2417 H   0  0  0  0  0  0  0  0  0  0  0  0
   -0.4428   -3.0973   -0.9902 H   0  0  0  0  0  0  0  0  0  0  0  0
   -0.9995   -3.4841   -3.0583 C   0  0  0  0  0  0  0  0  0  0  0  0
   -0.0147   -3.9241   -3.3154 H   0  0  0  0  0  0  0  0  0  0  0  0
   -0.9947   -2.4170   -3.3554 H   0  0  0  0  0  0  0  0  0  0  0  0
   -1.7854   -4.0088   -3.6373 H   0  0  0  0  0  0  0  0  0  0  0  0
  1  3  1  0  0  0  0
  3  4  1  0  0  0  0
  3  2  1  0  0  0  0
  4  6  1  0  0  0  0
  5  3  1  0  0  0  0
  6  8  1  0  0  0  0
  7  6  1  0  0  0  0
  9  6  1  0  0  0  0
  9 11  1  0  0  0  0
  9 10  1  0  0  0  0
 12  9  1  0  0  0  0
 13 14  1  0  0  0  0
 13  5  1  0  0  0  0
 13 15  1  0  0  0  0
 16 13  1  0  0  0  0
 17 16  1  0  0  0  0
 18 16  1  0  0  0  0
 19 16  1  0  0  0  0
M  END
