1,2
q = -1.0, confidence = 0.002

 17 17  0  0  0  0  0  0  0  0999 V2000
   -0.9658   -1.7130   -1.5812 S   0  0  0  0  0  1  0  0  0  0  0  0
   -2.3366   -0.1046    0.3977 S   0  0  0  0  0  1  0  0  0  0  0  0
   -5.3956   -4.1224   -0.5718 O   0  0  0  0  0  0  0  0  0  0  0  0
   -3.6060   -1.9939   -1.0720 N   0  0  0  0  0  0  0  0  0  0  0  0
   -2.4497   -1.3472   -0.7861 C   0  0  0  0  0  3  0  0  0  0  0  0
   -3.6853   -3.1220   -1.9970 C   0  0  0  0  0  0  0  0  0  0  0  0
   -2.6865   -3.2868   -2.4460 H   0  0  0  0  0  0  0  0  0  0  0  0
   -4.4055   -2.8728   -2.8075 H   0  0  0  0  0  0  0  0  0  0  0  0
   -4.1660   -4.3623   -1.2369 C   0  0  0  0  0  0  0  0  0  0  0  0
   -4.3355   -5.2037   -1.9381 H   0  0  0  0  0  0  0  0  0  0  0  0
   -3.3753   -4.6642   -0.5056 H   0  0  0  0  0  0  0  0  0  0  0  0
   -5.2770   -3.0545    0.3536 C   0  0  0  0  0  0  0  0  0  0  0  0
   -4.5311   -3.3043    1.1493 H   0  0  0  0  0  0  0  0  0  0  0  0
   -6.2693   -2.9274    0.8308 H   0  0  0  0  0  0  0  0  0  0  0  0
   -4.8455   -1.7566   -0.3362 C   0  0  0  0  0  0  0  0  0  0  0  0
   -5.6319   -1.4297   -1.0520 H   0  0  0  0  0  0  0  0  0  0  0  0
   -4.6729   -0.9472    0.4001 H   0  0  0  0  0  0  0  0  0  0  0  0
  1  5  1  0  0  0  0
  3 12  1  0  0  0  0
  4  5  1  0  0  0  0
  4 15  1  0  0  0  0
  5  2  1  0  0  0  0
  6  9  1  0  0  0  0
  6  4  1  0  0  0  0
  7  6  1  0  0  0  0
  8  6  1  0  0  0  0
  9  3  1  0  0  0  0
  9 11  1  0  0  0  0
 10  9  1  0  0  0  0
 12 14  1  0  0  0  0
 12 13  1  0  0  0  0
 15 12  1  0  0  0  0
 15 17  1  0  0  0  0
 16 15  1  0  0  0  0
M  END
