1,2
q = -1.0, confidence = 0.002

 29 28  0  0  0  0  0  0  0  0999 V2000
    1.6663    0.1445   -1.9545 S   0  0  0  0  0  1  0  0  0  0  0  0
    1.7031   -1.4418    1.0277 S   0  0  0  0  0  1  0  0  0  0  0  0
    2.7605   -0.9836   -0.6652 P   0  0  0  0  0  4  0  0  0  0  0  0
    3.3868   -2.5177   -1.4977 C   0  0  0  0  0  0  0  0  0  0  0  0
    4.2663   -2.1890   -2.0937 H   0  0  0  0  0  0  0  0  0  0  0  0
    3.7594   -3.1862   -0.6910 H   0  0  0  0  0  0  0  0  0  0  0  0
    2.3841   -3.2499   -2.4056 C   0  0  0  0  0  0  0  0  0  0  0  0
    1.9857   -2.4873   -3.1124 H   0  0  0  0  0  0  0  0  0  0  0  0
    1.1998   -3.8357   -1.6308 C   0  0  0  0  0  0  0  0  0  0  0  0
    0.6106   -3.0504   -1.1202 H   0  0  0  0  0  0  0  0  0  0  0  0
    1.5437   -4.5531   -0.8552 H   0  0  0  0  0  0  0  0  0  0  0  0
    0.5163   -4.3764   -2.3167 H   0  0  0  0  0  0  0  0  0  0  0  0
    3.1155   -4.3290   -3.2153 C   0  0  0  0  0  0  0  0  0  0  0  0
    3.9467   -3.9038   -3.8154 H   0  0  0  0  0  0  0  0  0  0  0  0
    2.4190   -4.8373   -3.9130 H   0  0  0  0  0  0  0  0  0  0  0  0
    3.5445   -5.1069   -2.5478 H   0  0  0  0  0  0  0  0  0  0  0  0
    4.3093   -0.0284   -0.2997 C   0  0  0  0  0  0  0  0  0  0  0  0
    4.6816    0.2342   -1.3140 H   0  0  0  0  0  0  0  0  0  0  0  0
    3.9651    0.9249    0.1556 H   0  0  0  0  0  0  0  0  0  0  0  0
    5.4239   -0.6807    0.5408 C   0  0  0  0  0  0  0  0  0  0  0  0
    5.5786   -1.7178    0.1656 H   0  0  0  0  0  0  0  0  0  0  0  0
    6.7396    0.0833    0.3311 C   0  0  0  0  0  0  0  0  0  0  0  0
    7.0429    0.0949   -0.7359 H   0  0  0  0  0  0  0  0  0  0  0  0
    7.5645   -0.3726    0.9162 H   0  0  0  0  0  0  0  0  0  0  0  0
    6.6375    1.1389    0.6626 H   0  0  0  0  0  0  0  0  0  0  0  0
    5.0682   -0.7612    2.0302 C   0  0  0  0  0  0  0  0  0  0  0  0
    5.8763   -1.2593    2.6037 H   0  0  0  0  0  0  0  0  0  0  0  0
    4.1220   -1.3133    2.1945 H   0  0  0  0  0  0  0  0  0  0  0  0
    4.9385    0.2594    2.4519 H   0  0  0  0  0  0  0  0  0  0  0  0
  1  3  1  0  0  0  0
  3 17  1  0  0  0  0
  3  2  1  0  0  0  0
  4  6  1  0  0  0  0
  4  3  1  0  0  0  0
  5  4  1  0  0  0  0
  7  9  1  0  0  0  0
  7  4  1  0  0  0  0
  8  7  1  0  0  0  0
  9 10  1  0  0  0  0
  9 11  1  0  0  0  0
 12  9  1  0  0  0  0
 13 16  1  0  0  0  0
 13  7  1  0  0  0  0
 14 13  1  0  0  0  0
 15 13  1  0  0  0  0
 17 19  1  0  0  0  0
 17 20  1  0  0  0  0
 18 17  1  0  0  0  0
 20 26  1  0  0  0  0
 21 20  1  0  0  0  0
 22 20  1  0  0  0  0
 22 25  1  0  0  0  0
 22 24  1  0  0  0  0
 23 22  1  0  0  0  0
 26 28  1  0  0  0  0
 26 29  1  0  0  0  0
 26 27  1  0  0  0  0
M  END
