1,2
q = -1.0

 22 21  0  0  0  0  0  0  0  0999 V2000
    0.4025   -2.2685    1.2989 S   0  0  0  0  0  1  0  0  0  0  0  0
    1.0157   -1.8163   -1.5920 S   0  0  0  0  0  1  0  0  0  0  0  0
    1.8823   -5.9240    2.8790 O   0  0  0  0  0  0  0  0  0  0  0  0
    1.2542   -5.3899    3.4002 H   0  0  0  0  0  0  0  0  0  0  0  0
    1.1873   -4.2203   -0.3778 N   0  0  0  0  0  0  0  0  0  0  0  0
    0.9010   -2.8985   -0.2325 C   0  0  0  0  0  3  0  0  0  0  0  0
    1.0062   -5.1360    0.7480 C   0  0  0  0  0  0  0  0  0  0  0  0
    0.8103   -6.1550    0.3591 H   0  0  0  0  0  0  0  0  0  0  0  0
    0.1066   -4.8096    1.3118 H   0  0  0  0  0  0  0  0  0  0  0  0
    2.1952   -5.1663    1.7268 C   0  0  0  0  0  0  0  0  0  0  0  0
    3.0705   -5.6530    1.2502 H   0  0  0  0  0  0  0  0  0  0  0  0
    2.4800   -4.1156    1.9647 H   0  0  0  0  0  0  0  0  0  0  0  0
    1.5551   -4.7904   -1.6940 C   0  0  0  0  0  0  0  0  0  0  0  0
    1.8641   -3.9148   -2.3012 H   0  0  0  0  0  0  0  0  0  0  0  0
    0.3323   -5.4245   -2.3655 C   0  0  0  0  0  0  0  0  0  0  0  0
    0.5972   -5.7964   -3.3755 H   0  0  0  0  0  0  0  0  0  0  0  0
   -0.0568   -6.2843   -1.7813 H   0  0  0  0  0  0  0  0  0  0  0  0
   -0.4758   -4.6748   -2.4755 H   0  0  0  0  0  0  0  0  0  0  0  0
    2.7488   -5.7417   -1.5970 C   0  0  0  0  0  0  0  0  0  0  0  0
    3.0464   -6.0608   -2.6155 H   0  0  0  0  0  0  0  0  0  0  0  0
    3.6202   -5.2443   -1.1278 H   0  0  0  0  0  0  0  0  0  0  0  0
    2.5149   -6.6599   -1.0198 H   0  0  0  0  0  0  0  0  0  0  0  0
  2  6  1  0  0  0  0
  3  4  1  0  0  0  0
  5  6  1  0  0  0  0
  5  7  1  0  0  0  0
  6  1  1  0  0  0  0
  7  9  1  0  0  0  0
  7 10  1  0  0  0  0
  8  7  1  0  0  0  0
 10 12  1  0  0  0  0
 10  3  1  0  0  0  0
 11 10  1  0  0  0  0
 13 19  1  0  0  0  0
 13  5  1  0  0  0  0
 14 13  1  0  0  0  0
 15 17  1  0  0  0  0
 15 13  1  0  0  0  0
 16 15  1  0  0  0  0
 18 15  1  0  0  0  0
 19 21  1  0  0  0  0
 19 22  1  0  0  0  0
 20 19  1  0  0  0  0
M  END
