1,2
q = -1.0, confidence = 0.0

 15 14  0  0  0  0  0  0  0  0999 V2000
    0.4664    0.7036   -0.9289 S   0  0  0  0  0  1  0  0  0  0  0  0
   -0.1411   -1.5429    0.7978 S   0  0  0  0  0  1  0  0  0  0  0  0
    2.3348   -1.1236   -0.2190 N   0  0  0  0  0  0  0  0  0  0  0  0
    3.7478    0.7999    1.2359 O   0  0  0  0  0  0  0  0  0  0  0  0
    4.7177    1.5926   -0.6561 O   0  0  0  0  0  0  0  0  0  0  0  0
    5.0884    2.2220    0.0009 H   0  0  0  0  0  0  0  0  0  0  0  0
    1.0481   -0.7057   -0.1220 C   0  0  0  0  0  3  0  0  0  0  0  0
    3.3041   -0.2921   -0.8975 C   0  0  0  0  0  0  0  0  0  0  0  0
    2.8259    0.2291   -1.7529 H   0  0  0  0  0  0  0  0  0  0  0  0
    4.1156   -0.9235   -1.3159 H   0  0  0  0  0  0  0  0  0  0  0  0
    3.9237    0.7488    0.0373 C   0  0  0  0  0  0  0  0  0  0  0  0
    2.8326   -2.2233    0.5966 C   0  0  0  0  0  0  0  0  0  0  0  0
    2.0120   -2.9401    0.7888 H   0  0  0  0  0  0  0  0  0  0  0  0
    3.2231   -1.8471    1.5656 H   0  0  0  0  0  0  0  0  0  0  0  0
    3.6431   -2.7445    0.0507 H   0  0  0  0  0  0  0  0  0  0  0  0
  1  7  1  0  0  0  0
  3  7  1  0  0  0  0
  3 12  1  0  0  0  0
  5  6  1  0  0  0  0
  5 11  1  0  0  0  0
  7  2  1  0  0  0  0
  8  3  1  0  0  0  0
  8 11  1  0  0  0  0
  9  8  1  0  0  0  0
 10  8  1  0  0  0  0
 11  4  2  0  0  0  0
 12 13  1  0  0  0  0
 12 14  1  0  0  0  0
 15 12  1  0  0  0  0
M  END
