1,2
q = -1.0

 25 26  0  0  0  0  0  0  0  0999 V2000
   -1.1963    0.5116   -1.8313 S   0  0  0  0  0  1  0  0  0  0  0  0
   -1.1965    0.5109    1.8316 S   0  0  0  0  0  1  0  0  0  0  0  0
   -2.1832    0.2383    0.0001 P   0  0  0  0  0  4  0  0  0  0  0  0
   -3.5114    1.5563    0.0003 C   0  0  0  0  0  0  0  0  0  0  0  0
   -4.0406    2.0244    1.2165 C   0  0  0  0  0  0  0  0  0  0  0  0
   -3.6134    1.6662    2.1663 H   0  0  0  0  0  0  0  0  0  0  0  0
   -5.0922    2.9531    1.2156 C   0  0  0  0  0  0  0  0  0  0  0  0
   -5.4986    3.3192    2.1710 H   0  0  0  0  0  0  0  0  0  0  0  0
   -5.6195    3.4195    0.0006 C   0  0  0  0  0  0  0  0  0  0  0  0
   -6.4410    4.1522    0.0008 H   0  0  0  0  0  0  0  0  0  0  0  0
   -5.0915    2.9543   -1.2145 C   0  0  0  0  0  0  0  0  0  0  0  0
   -5.4974    3.3215   -2.1697 H   0  0  0  0  0  0  0  0  0  0  0  0
   -4.0398    2.0257   -1.2157 C   0  0  0  0  0  0  0  0  0  0  0  0
   -3.6121    1.6684   -2.1657 H   0  0  0  0  0  0  0  0  0  0  0  0
   -3.1937   -1.2964   -0.0003 C   0  0  0  0  0  0  0  0  0  0  0  0
   -3.5833   -1.8790    1.2192 C   0  0  0  0  0  0  0  0  0  0  0  0
   -3.2545   -1.4248    2.1667 H   0  0  0  0  0  0  0  0  0  0  0  0
   -4.3576   -3.0479    1.2146 C   0  0  0  0  0  0  0  0  0  0  0  0
   -4.6545   -3.5083    2.1694 H   0  0  0  0  0  0  0  0  0  0  0  0
   -4.7472   -3.6333   -0.0009 C   0  0  0  0  0  0  0  0  0  0  0  0
   -5.3522   -4.5528   -0.0012 H   0  0  0  0  0  0  0  0  0  0  0  0
   -4.3581   -3.0470   -1.2161 C   0  0  0  0  0  0  0  0  0  0  0  0
   -4.6554   -3.5066   -2.1712 H   0  0  0  0  0  0  0  0  0  0  0  0
   -3.5837   -1.8781   -1.2201 C   0  0  0  0  0  0  0  0  0  0  0  0
   -3.2553   -1.4231   -2.1674 H   0  0  0  0  0  0  0  0  0  0  0  0
  1  3  1  0  0  0  0
  3  4  1  0  0  0  0
  3  2  1  0  0  0  0
  4  5  1  0  0  0  0
  5  6  1  0  0  0  0
  7  5  2  0  0  0  0
  7  8  1  0  0  0  0
  9 10  1  0  0  0  0
  9  7  1  0  0  0  0
 11  9  2  0  0  0  0
 12 11  1  0  0  0  0
 13 11  1  0  0  0  0
 13  4  2  0  0  0  0
 14 13  1  0  0  0  0
 15  3  1  0  0  0  0
 15 16  1  0  0  0  0
 16 17  1  0  0  0  0
 18 16  2  0  0  0  0
 18 19  1  0  0  0  0
 20 18  1  0  0  0  0
 21 20  1  0  0  0  0
 22 20  2  0  0  0  0
 23 22  1  0  0  0  0
 24 22  1  0  0  0  0
 24 15  2  0  0  0  0
 25 24  1  0  0  0  0
M  END
