1,2
q = -1.0

 22 22  0  0  0  0  0  0  0  0999 V2000
    1.2686   -0.7201   -1.4517 S   0  0  0  0  0  1  0  0  0  0  0  0
    0.4892   -2.3895    0.7305 S   0  0  0  0  0  1  0  0  0  0  0  0
    2.6392   -2.9889   -0.8297 N   0  0  0  0  0  0  0  0  0  0  0  0
    1.6019   -2.1553   -0.5610 C   0  0  0  0  0  3  0  0  0  0  0  0
    3.0438   -4.0143    0.1305 C   0  0  0  0  0  0  0  0  0  0  0  0
    3.3598   -4.9148   -0.4408 H   0  0  0  0  0  0  0  0  0  0  0  0
    2.1630   -4.2908    0.7418 H   0  0  0  0  0  0  0  0  0  0  0  0
    4.1954   -3.4889    0.9965 C   0  0  0  0  0  0  0  0  0  0  0  0
    4.5305   -4.2810    1.6992 H   0  0  0  0  0  0  0  0  0  0  0  0
    3.8065   -2.6493    1.6144 H   0  0  0  0  0  0  0  0  0  0  0  0
    5.3769   -2.9978    0.1390 C   0  0  0  0  0  0  0  0  0  0  0  0
    5.7885   -3.8857   -0.3982 H   0  0  0  0  0  0  0  0  0  0  0  0
    4.8812   -2.0062   -0.9303 C   0  0  0  0  0  0  0  0  0  0  0  0
    4.5347   -1.0689   -0.4405 H   0  0  0  0  0  0  0  0  0  0  0  0
    5.7109   -1.7286   -1.6146 H   0  0  0  0  0  0  0  0  0  0  0  0
    3.7101   -2.5803   -1.7370 C   0  0  0  0  0  0  0  0  0  0  0  0
    3.3020   -1.8401   -2.4523 H   0  0  0  0  0  0  0  0  0  0  0  0
    4.0311   -3.4742   -2.3156 H   0  0  0  0  0  0  0  0  0  0  0  0
    6.4919   -2.3980    0.9974 C   0  0  0  0  0  0  0  0  0  0  0  0
    6.8655   -3.1278    1.7444 H   0  0  0  0  0  0  0  0  0  0  0  0
    6.1255   -1.5083    1.5517 H   0  0  0  0  0  0  0  0  0  0  0  0
    7.3527   -2.0757    0.3764 H   0  0  0  0  0  0  0  0  0  0  0  0
  1  4  1  0  0  0  0
  3  4  1  0  0  0  0
  3  5  1  0  0  0  0
  4  2  1  0  0  0  0
  5  7  1  0  0  0  0
  5  8  1  0  0  0  0
  6  5  1  0  0  0  0
  8 10  1  0  0  0  0
  8  9  1  0  0  0  0
 11  8  1  0  0  0  0
 11 19  1  0  0  0  0
 12 11  1  0  0  0  0
 13 14  1  0  0  0  0
 13 11  1  0  0  0  0
 15 13  1  0  0  0  0
 16 13  1  0  0  0  0
 16  3  1  0  0  0  0
 17 16  1  0  0  0  0
 18 16  1  0  0  0  0
 19 21  1  0  0  0  0
 19 20  1  0  0  0  0
 22 19  1  0  0  0  0
M  END
