1,2
q = 0.0, confidence = 0.998

 30 31  0  0  0  0  0  0  0  0999 V2000
    1.1023   -0.6839   -1.1963 S   0  0  0  0  0  0  0  0  0  0  0  0
   -1.1685   -1.0515    1.3336 S   0  0  0  0  0  0  0  0  0  0  0  0
    0.2087   -2.2543   -0.8041 C   0  0  0  0  0  0  0  0  0  0  0  0
    0.8509   -3.0857   -1.1596 H   0  0  0  0  0  0  0  0  0  0  0  0
   -0.7058   -2.2214   -1.4307 H   0  0  0  0  0  0  0  0  0  0  0  0
   -0.1267   -2.4044    0.6700 C   0  0  0  0  0  0  0  0  0  0  0  0
   -0.6149   -3.3793    0.8709 H   0  0  0  0  0  0  0  0  0  0  0  0
    0.7900   -2.3643    1.2939 H   0  0  0  0  0  0  0  0  0  0  0  0
    2.6825   -1.0334   -0.3853 C   0  0  0  0  0  0  0  0  0  0  0  0
    3.5976   -1.8627   -1.0584 C   0  0  0  0  0  0  0  0  0  0  0  0
    3.3442   -2.2771   -2.0466 H   0  0  0  0  0  0  0  0  0  0  0  0
    4.8365   -2.1445   -0.4642 C   0  0  0  0  0  0  0  0  0  0  0  0
    5.5553   -2.7951   -0.9848 H   0  0  0  0  0  0  0  0  0  0  0  0
    5.1643   -1.5820    0.7805 C   0  0  0  0  0  0  0  0  0  0  0  0
    6.1413   -1.7965    1.2392 H   0  0  0  0  0  0  0  0  0  0  0  0
    4.2531   -0.7365    1.4331 C   0  0  0  0  0  0  0  0  0  0  0  0
    4.5134   -0.2840    2.4017 H   0  0  0  0  0  0  0  0  0  0  0  0
    3.0065   -0.4556    0.8536 C   0  0  0  0  0  0  0  0  0  0  0  0
    2.2779    0.2166    1.3356 H   0  0  0  0  0  0  0  0  0  0  0  0
   -2.7175   -1.2601    0.4450 C   0  0  0  0  0  0  0  0  0  0  0  0
   -3.1768   -2.5068   -0.0194 C   0  0  0  0  0  0  0  0  0  0  0  0
   -2.5819   -3.4205    0.1220 H   0  0  0  0  0  0  0  0  0  0  0  0
   -4.4209   -2.5906   -0.6650 C   0  0  0  0  0  0  0  0  0  0  0  0
   -4.7731   -3.5669   -1.0316 H   0  0  0  0  0  0  0  0  0  0  0  0
   -5.2125   -1.4449   -0.8344 C   0  0  0  0  0  0  0  0  0  0  0  0
   -6.1871   -1.5168   -1.3397 H   0  0  0  0  0  0  0  0  0  0  0  0
   -4.7525   -0.2075   -0.3551 C   0  0  0  0  0  0  0  0  0  0  0  0
   -5.3645    0.6981   -0.4839 H   0  0  0  0  0  0  0  0  0  0  0  0
   -3.5068   -0.1039    0.2791 C   0  0  0  0  0  0  0  0  0  0  0  0
   -3.1305    0.8682    0.6393 H   0  0  0  0  0  0  0  0  0  0  0  0
  1  3  1  0  0  0  0
  1  9  1  0  0  0  0
  3  6  1  0  0  0  0
  4  3  1  0  0  0  0
  5  3  1  0  0  0  0
  6  7  1  0  0  0  0
  6  8  1  0  0  0  0
  6  2  1  0  0  0  0
  9 18  1  0  0  0  0
 10 12  1  0  0  0  0
 10  9  2  0  0  0  0
 11 10  1  0  0  0  0
 12 14  2  0  0  0  0
 13 12  1  0  0  0  0
 14 15  1  0  0  0  0
 14 16  1  0  0  0  0
 16 17  1  0  0  0  0
 18 19  1  0  0  0  0
 18 16  2  0  0  0  0
 20  2  1  0  0  0  0
 21 22  1  0  0  0  0
 21 20  2  0  0  0  0
 23 21  1  0  0  0  0
 24 23  1  0  0  0  0
 25 23  2  0  0  0  0
 25 27  1  0  0  0  0
 26 25  1  0  0  0  0
 27 29  2  0  0  0  0
 28 27  1  0  0  0  0
 29 20  1  0  0  0  0
 29 30  1  0  0  0  0
M  END
