1,2
q = -1.0

 17 16  0  0  0  0  0  0  0  0999 V2000
   -1.4421   -0.1515   -2.2677 S   0  0  0  0  0  1  0  0  0  0  0  0
   -2.2244   -1.5198    0.3190 S   0  0  0  0  0  1  0  0  0  0  0  0
   -2.4912   -1.1165   -1.3252 C   0  0  0  0  0  3  0  0  0  0  0  0
   -3.8918   -1.6961   -2.2188 S   0  0  0  0  0  0  0  0  0  0  0  0
   -4.8689   -2.6217   -0.9788 C   0  0  0  0  0  0  0  0  0  0  0  0
   -5.7503   -1.7368   -0.0990 C   0  0  0  0  0  0  0  0  0  0  0  0
   -4.1444   -3.2030   -0.3697 H   0  0  0  0  0  0  0  0  0  0  0  0
   -5.4723   -3.3365   -1.5775 H   0  0  0  0  0  0  0  0  0  0  0  0
   -6.5214   -2.5374    0.9560 C   0  0  0  0  0  0  0  0  0  0  0  0
   -5.1019   -0.9898    0.4078 H   0  0  0  0  0  0  0  0  0  0  0  0
   -6.4577   -1.1647   -0.7384 H   0  0  0  0  0  0  0  0  0  0  0  0
   -7.4043   -1.6604    1.8444 C   0  0  0  0  0  0  0  0  0  0  0  0
   -5.7938   -3.0966    1.5846 H   0  0  0  0  0  0  0  0  0  0  0  0
   -7.1441   -3.3104    0.4525 H   0  0  0  0  0  0  0  0  0  0  0  0
   -6.8003   -0.9027    2.3862 H   0  0  0  0  0  0  0  0  0  0  0  0
   -7.9471   -2.2592    2.6032 H   0  0  0  0  0  0  0  0  0  0  0  0
   -8.1617   -1.1121    1.2458 H   0  0  0  0  0  0  0  0  0  0  0  0
  1  3  1  0  0  0  0
  3  2  1  0  0  0  0
  4  3  1  0  0  0  0
  4  5  1  0  0  0  0
  5  7  1  0  0  0  0
  5  6  1  0  0  0  0
  6 10  1  0  0  0  0
  6  9  1  0  0  0  0
  8  5  1  0  0  0  0
  9 13  1  0  0  0  0
  9 12  1  0  0  0  0
 11  6  1  0  0  0  0
 12 15  1  0  0  0  0
 12 16  1  0  0  0  0
 14  9  1  0  0  0  0
 17 12  1  0  0  0  0
M  END
