1,2
q = -1.0, confidence = 0.0

 25 26  0  0  1  0  0  0  0  0999 V2000
   -0.6078    2.2690    0.4578 S   0  0  0  0  0  1  0  0  0  0  0  0
    0.3263   -0.8074    1.6749 S   0  0  0  0  0  1  0  0  0  0  0  0
    1.0742    2.2959    0.1291 C   0  0  2  0  0  3  0  0  0  0  0  0
    1.8191    3.4317    0.5796 C   0  0  0  0  0  0  0  0  0  0  0  0
    1.2610    4.2079    1.1206 H   0  0  0  0  0  0  0  0  0  0  0  0
    3.1792    3.5376    0.3644 C   0  0  0  0  0  0  0  0  0  0  0  0
    3.7329    4.4145    0.7317 H   0  0  0  0  0  0  0  0  0  0  0  0
    3.8487    2.4993   -0.3331 C   0  0  0  0  0  0  0  0  0  0  0  0
    4.9272    2.5334   -0.5349 H   0  0  0  0  0  0  0  0  0  0  0  0
    3.1016    1.4286   -0.7750 C   0  0  0  0  0  0  0  0  0  0  0  0
    3.5614    0.6044   -1.3371 H   0  0  0  0  0  0  0  0  0  0  0  0
    1.7521    1.3035   -0.5577 N   0  0  0  0  0  0  0  0  0  0  0  0
    1.1305    0.0147   -1.2224 B   0  0  0  0  0  0  0  0  0  0  0  0
   -0.1155    0.0397   -1.4804 H   0  0  0  0  0  0  0  0  0  0  0  0
    1.4850    0.0067   -2.3960 H   0  0  0  0  0  0  0  0  0  0  0  0
    1.7571   -1.2708   -0.5687 N   0  0  0  0  0  0  0  0  0  0  0  0
    2.6475   -1.9983   -1.3124 C   0  0  0  0  0  3  0  0  0  0  0  0
    2.6930   -1.7219   -2.3745 H   0  0  0  0  0  0  0  0  0  0  0  0
    3.4352   -2.9964   -0.7701 C   0  0  0  0  0  0  0  0  0  0  0  0
    4.1219   -3.5611   -1.4141 H   0  0  0  0  0  0  0  0  0  0  0  0
    3.3352   -3.2471    0.6214 C   0  0  0  0  0  0  0  0  0  0  0  0
    3.9625   -4.0169    1.0957 H   0  0  0  0  0  0  0  0  0  0  0  0
    2.4191   -2.5342    1.3773 C   0  0  0  0  0  0  0  0  0  0  0  0
    2.2823   -2.7264    2.4502 H   0  0  0  0  0  0  0  0  0  0  0  0
    1.5685   -1.5640    0.7715 C   0  0  0  0  0  0  0  0  0  0  0  0
  3  1  1  6  0  0  0
  3  4  1  0  0  0  0
  4  5  1  0  0  0  0
  6  4  2  0  0  0  0
  6  7  1  0  0  0  0
  8  6  1  0  0  0  0
  9  8  1  0  0  0  0
 10 12  1  0  0  0  0
 10  8  2  0  0  0  0
 11 10  1  0  0  0  0
 12  3  1  0  0  0  0
 13 16  1  0  0  0  0
 13 12  1  0  0  0  0
 14 13  1  0  0  0  0
 15 13  1  0  0  0  0
 16 25  1  0  0  0  0
 17 19  1  0  0  0  0
 17 16  1  0  0  0  0
 18 17  1  0  0  0  0
 19 21  2  0  0  0  0
 20 19  1  0  0  0  0
 21 22  1  0  0  0  0
 21 23  1  0  0  0  0
 23 24  1  0  0  0  0
 25 23  2  0  0  0  0
 25  2  1  0  0  0  0
M  END
