1,2
q = -1.0

 45 46  0  0  1  0  0  0  0  0999 V2000
    0.9604    0.0578    1.0250 S   0  0  0  0  0  1  0  0  0  0  0  0
   -2.1566    1.0743    0.3047 S   0  0  0  0  0  1  0  0  0  0  0  0
    0.0227    0.0220   -2.0191 B   0  0  0  0  0  0  0  0  0  0  0  0
    1.3644   -0.6150   -1.5743 N   0  0  0  0  0  0  0  0  0  0  0  0
    2.9587   -1.4245   -0.2725 N   0  0  0  0  0  0  0  0  0  0  0  0
   -1.1712   -0.7928   -1.4620 N   0  0  0  0  0  0  0  0  0  0  0  0
   -2.9211   -1.5236   -0.3156 N   0  0  0  0  0  0  0  0  0  0  0  0
    1.7986   -0.6818   -0.2843 C   0  0  2  0  0  3  0  0  0  0  0  0
    2.2439   -1.3142   -2.3793 C   0  0  0  0  0  0  0  0  0  0  0  0
    3.2349   -1.8235   -1.5808 C   0  0  0  0  0  0  0  0  0  0  0  0
    3.8320   -1.6751    0.9215 C   0  0  0  0  0  0  0  0  0  0  0  0
    5.0346   -2.5310    0.5005 C   0  0  0  0  0  0  0  0  0  0  0  0
    4.3293   -0.3186    1.4527 C   0  0  0  0  0  0  0  0  0  0  0  0
    3.0163   -2.4386    1.9791 C   0  0  0  0  0  0  0  0  0  0  0  0
   -2.0672   -0.4502   -0.4894 C   0  0  2  0  0  3  0  0  0  0  0  0
   -1.4676   -2.0696   -1.9080 C   0  0  0  0  0  0  0  0  0  0  0  0
   -2.5463   -2.5294   -1.2040 C   0  0  0  0  0  0  0  0  0  0  0  0
   -4.0303   -1.6261    0.6904 C   0  0  0  0  0  0  0  0  0  0  0  0
   -3.4309   -1.4733    2.1000 C   0  0  0  0  0  0  0  0  0  0  0  0
   -5.0809   -0.5426    0.3898 C   0  0  0  0  0  0  0  0  0  0  0  0
   -4.6936   -3.0064    0.5756 C   0  0  0  0  0  0  0  0  0  0  0  0
   -0.0708    1.2547   -1.7486 H   0  0  0  0  0  0  0  0  0  0  0  0
   -0.0028    0.0229   -3.2452 H   0  0  0  0  0  0  0  0  0  0  0  0
    2.0977   -1.3827   -3.4608 H   0  0  0  0  0  0  0  0  0  0  0  0
    4.1101   -2.4197   -1.8410 H   0  0  0  0  0  0  0  0  0  0  0  0
    4.7254   -3.5163    0.0982 H   0  0  0  0  0  0  0  0  0  0  0  0
    5.6575   -2.7175    1.3959 H   0  0  0  0  0  0  0  0  0  0  0  0
    5.6723   -2.0169   -0.2454 H   0  0  0  0  0  0  0  0  0  0  0  0
    4.9809   -0.4799    2.3337 H   0  0  0  0  0  0  0  0  0  0  0  0
    4.9116    0.2134    0.6744 H   0  0  0  0  0  0  0  0  0  0  0  0
    3.4787    0.3232    1.7514 H   0  0  0  0  0  0  0  0  0  0  0  0
    2.6733   -3.4134    1.5782 H   0  0  0  0  0  0  0  0  0  0  0  0
    2.1311   -1.8562    2.2989 H   0  0  0  0  0  0  0  0  0  0  0  0
    3.6484   -2.6291    2.8685 H   0  0  0  0  0  0  0  0  0  0  0  0
   -0.8782   -2.5526   -2.6921 H   0  0  0  0  0  0  0  0  0  0  0  0
   -3.0713   -3.4828   -1.2686 H   0  0  0  0  0  0  0  0  0  0  0  0
   -2.6977   -2.2806    2.2971 H   0  0  0  0  0  0  0  0  0  0  0  0
   -4.2378   -1.5371    2.8560 H   0  0  0  0  0  0  0  0  0  0  0  0
   -2.9161   -0.5001    2.2106 H   0  0  0  0  0  0  0  0  0  0  0  0
   -5.9022   -0.6067    1.1302 H   0  0  0  0  0  0  0  0  0  0  0  0
   -4.6410    0.4713    0.4413 H   0  0  0  0  0  0  0  0  0  0  0  0
   -5.5096   -0.6882   -0.6219 H   0  0  0  0  0  0  0  0  0  0  0  0
   -5.5050   -3.0627    1.3260 H   0  0  0  0  0  0  0  0  0  0  0  0
   -3.9844   -3.8301    0.7904 H   0  0  0  0  0  0  0  0  0  0  0  0
   -5.1508   -3.1696   -0.4205 H   0  0  0  0  0  0  0  0  0  0  0  0
  3 22  1  0  0  0  0
  3  4  1  0  0  0  0
  3  6  1  0  0  0  0
  4  8  1  0  0  0  0
  5 11  1  0  0  0  0
  6 15  1  0  0  0  0
  7 18  1  0  0  0  0
  8  5  1  0  0  0  0
  8  1  1  1  0  0  0
  9 10  2  0  0  0  0
  9  4  1  0  0  0  0
 10  5  1  0  0  0  0
 11 13  1  0  0  0  0
 11 14  1  0  0  0  0
 12 11  1  0  0  0  0
 12 27  1  0  0  0  0
 13 31  1  0  0  0  0
 13 29  1  0  0  0  0
 14 33  1  0  0  0  0
 14 34  1  0  0  0  0
 15  7  1  0  0  0  0
 15  2  1  6  0  0  0
 16  6  1  0  0  0  0
 16 17  2  0  0  0  0
 17  7  1  0  0  0  0
 18 19  1  0  0  0  0
 19 39  1  0  0  0  0
 19 37  1  0  0  0  0
 19 38  1  0  0  0  0
 20 41  1  0  0  0  0
 20 18  1  0  0  0  0
 20 40  1  0  0  0  0
 21 18  1  0  0  0  0
 21 44  1  0  0  0  0
 21 43  1  0  0  0  0
 23  3  1  0  0  0  0
 24  9  1  0  0  0  0
 25 10  1  0  0  0  0
 26 12  1  0  0  0  0
 28 12  1  0  0  0  0
 30 13  1  0  0  0  0
 32 14  1  0  0  0  0
 35 16  1  0  0  0  0
 36 17  1  0  0  0  0
 42 20  1  0  0  0  0
 45 21  1  0  0  0  0
M  END
