4,5
q = -1.0

 47 50  0  0  1  0  0  0  0  0999 V2000
    0.0586    1.4995    2.0404 B   0  0  0  0  0  0  0  0  0  0  0  0
    0.0094    2.0959    3.1107 H   0  0  0  0  0  0  0  0  0  0  0  0
   -0.0834    2.4391    1.2041 H   0  0  0  0  0  0  0  0  0  0  0  0
   -2.0691    1.0893   -0.5624 S   0  0  0  0  0  1  0  0  0  0  0  0
    1.1746    0.1949   -0.6969 S   0  0  0  0  0  1  0  0  0  0  0  0
   -2.8159   -0.7695    1.3247 N   0  0  0  0  0  0  0  0  0  0  0  0
   -1.0979    0.4714    1.9538 N   0  0  0  0  0  0  0  0  0  0  0  0
    3.0314   -0.5548    1.2318 N   0  0  0  0  0  0  0  0  0  0  0  0
    1.4263    0.7783    1.9585 N   0  0  0  0  0  0  0  0  0  0  0  0
   -1.9747    0.2593    0.9291 C   0  0  2  0  0  3  0  0  0  0  0  0
   -2.4446   -1.1924    2.6027 C   0  0  0  0  0  0  0  0  0  0  0  0
   -2.9976   -1.9760    3.1267 H   0  0  0  0  0  0  0  0  0  0  0  0
   -1.3865   -0.4158    2.9834 C   0  0  0  0  0  0  0  0  0  0  0  0
   -0.8137   -0.4112    3.9148 H   0  0  0  0  0  0  0  0  0  0  0  0
   -4.8166   -0.5563   -0.0956 C   0  0  0  0  0  0  0  0  0  0  0  0
   -4.7424    0.5378   -0.0334 H   0  0  0  0  0  0  0  0  0  0  0  0
   -5.8471   -1.1630   -0.8213 C   0  0  0  0  0  0  0  0  0  0  0  0
   -6.5867   -0.5260   -1.3314 H   0  0  0  0  0  0  0  0  0  0  0  0
   -5.9659   -2.5666   -0.9057 C   0  0  0  0  0  0  0  0  0  0  0  0
   -5.0081   -3.3494   -0.2315 C   0  0  0  0  0  0  0  0  0  0  0  0
   -5.0737   -4.4474   -0.2817 H   0  0  0  0  0  0  0  0  0  0  0  0
   -3.9619   -2.7586    0.4894 C   0  0  0  0  0  0  0  0  0  0  0  0
   -3.2061   -3.3842    0.9866 H   0  0  0  0  0  0  0  0  0  0  0  0
   -3.8656   -1.3585    0.5603 C   0  0  0  0  0  0  0  0  0  0  0  0
   -7.0708   -3.1998   -1.7119 C   0  0  0  0  0  0  0  0  0  0  0  0
   -7.1707   -4.2804   -1.4933 H   0  0  0  0  0  0  0  0  0  0  0  0
   -6.8774   -3.0959   -2.8010 H   0  0  0  0  0  0  0  0  0  0  0  0
   -8.0479   -2.7150   -1.5124 H   0  0  0  0  0  0  0  0  0  0  0  0
    1.8885    0.1275    0.8537 C   0  0  1  0  0  3  0  0  0  0  0  0
    3.2745   -0.3068    2.5872 C   0  0  0  0  0  0  0  0  0  0  0  0
    4.1194   -0.7638    3.1083 H   0  0  0  0  0  0  0  0  0  0  0  0
    2.2755    0.5205    3.0242 C   0  0  0  0  0  0  0  0  0  0  0  0
    2.0918    0.9496    4.0131 H   0  0  0  0  0  0  0  0  0  0  0  0
    3.3348   -2.2257   -0.5464 C   0  0  0  0  0  0  0  0  0  0  0  0
    2.2448   -2.3363   -0.6258 H   0  0  0  0  0  0  0  0  0  0  0  0
    4.1893   -2.9763   -1.3618 C   0  0  0  0  0  0  0  0  0  0  0  0
    3.7520   -3.6783   -2.0889 H   0  0  0  0  0  0  0  0  0  0  0  0
    5.5917   -2.8612   -1.2671 C   0  0  0  0  0  0  0  0  0  0  0  0
    6.1148   -1.9607   -0.3172 C   0  0  0  0  0  0  0  0  0  0  0  0
    7.2059   -1.8463   -0.2227 H   0  0  0  0  0  0  0  0  0  0  0  0
    5.2750   -1.1922    0.4982 C   0  0  0  0  0  0  0  0  0  0  0  0
    5.7018   -0.4705    1.2099 H   0  0  0  0  0  0  0  0  0  0  0  0
    3.8798   -1.3253    0.3861 C   0  0  0  0  0  0  0  0  0  0  0  0
    6.4970   -3.6527   -2.1756 C   0  0  0  0  0  0  0  0  0  0  0  0
    7.5174   -3.7483   -1.7561 H   0  0  0  0  0  0  0  0  0  0  0  0
    6.5925   -3.1590   -3.1666 H   0  0  0  0  0  0  0  0  0  0  0  0
    6.1006   -4.6711   -2.3597 H   0  0  0  0  0  0  0  0  0  0  0  0
  1  2  1  0  0  0  0
  3  1  1  0  0  0  0
  6 11  1  0  0  0  0
  7  1  1  0  0  0  0
  7 13  1  0  0  0  0
  8 30  1  0  0  0  0
  9  1  1  0  0  0  0
  9 32  1  0  0  0  0
 10  4  1  1  0  0  0
 10  6  1  0  0  0  0
 10  7  1  0  0  0  0
 11 13  2  0  0  0  0
 11 12  1  0  0  0  0
 13 14  1  0  0  0  0
 15 16  1  0  0  0  0
 15 24  1  0  0  0  0
 17 15  2  0  0  0  0
 18 17  1  0  0  0  0
 19 17  1  0  0  0  0
 19 20  2  0  0  0  0
 20 22  1  0  0  0  0
 21 20  1  0  0  0  0
 22 24  2  0  0  0  0
 22 23  1  0  0  0  0
 24  6  1  0  0  0  0
 25 28  1  0  0  0  0
 25 26  1  0  0  0  0
 25 19  1  0  0  0  0
 27 25  1  0  0  0  0
 29  5  1  6  0  0  0
 29  8  1  0  0  0  0
 29  9  1  0  0  0  0
 30 32  2  0  0  0  0
 30 31  1  0  0  0  0
 32 33  1  0  0  0  0
 34 43  1  0  0  0  0
 35 34  1  0  0  0  0
 36 38  1  0  0  0  0
 36 34  2  0  0  0  0
 37 36  1  0  0  0  0
 38 39  2  0  0  0  0
 39 40  1  0  0  0  0
 39 41  1  0  0  0  0
 41 42  1  0  0  0  0
 43 41  2  0  0  0  0
 43  8  1  0  0  0  0
 44 45  1  0  0  0  0
 44 38  1  0  0  0  0
 46 44  1  0  0  0  0
 47 44  1  0  0  0  0
M  END
