1,2
q = -1.0

 41 42  0  0  0  0  0  0  0  0999 V2000
   -1.6794    1.6079   -0.0131 S   0  0  0  0  0  1  0  0  0  0  0  0
   -1.6352   -1.6699   -0.0340 S   0  0  0  0  0  1  0  0  0  0  0  0
   -3.1168    0.7049    0.0874 C   0  0  0  0  0  0  0  0  0  0  0  0
   -3.1484   -0.7997    0.0955 C   0  0  0  0  0  0  0  0  0  0  0  0
   -4.3182    1.2644    0.1749 N   0  0  0  0  0  0  0  0  0  0  0  0
   -4.3360   -1.3119    0.1984 N   0  0  0  0  0  2  0  0  0  0  0  0
   -4.6272    2.6841    0.2017 C   0  0  0  0  0  0  0  0  0  0  0  0
   -5.0536    0.5221    0.2193 H   0  0  0  0  0  0  0  0  0  0  0  0
   -4.5316   -2.7458    0.2266 C   0  0  0  0  0  0  0  0  0  0  0  0
   -4.7031    3.2792   -1.2187 C   0  0  0  0  0  0  0  0  0  0  0  0
   -5.9277    2.9241    0.9794 C   0  0  0  0  0  0  0  0  0  0  0  0
   -3.7859    3.1834    0.7360 H   0  0  0  0  0  0  0  0  0  0  0  0
   -4.5927   -3.3153   -1.2087 C   0  0  0  0  0  0  0  0  0  0  0  0
   -5.8128   -3.0901    1.0006 C   0  0  0  0  0  0  0  0  0  0  0  0
   -3.6610   -3.2328    0.7352 H   0  0  0  0  0  0  0  0  0  0  0  0
   -5.0508    4.7716   -1.1670 C   0  0  0  0  0  0  0  0  0  0  0  0
   -5.4815    2.7256   -1.7892 H   0  0  0  0  0  0  0  0  0  0  0  0
   -3.7371    3.1118   -1.7370 H   0  0  0  0  0  0  0  0  0  0  0  0
   -6.2813    4.4161    1.0194 C   0  0  0  0  0  0  0  0  0  0  0  0
   -6.7483    2.3600    0.4797 H   0  0  0  0  0  0  0  0  0  0  0  0
   -5.8314    2.5112    2.0050 H   0  0  0  0  0  0  0  0  0  0  0  0
   -4.8590   -4.8250   -1.1985 C   0  0  0  0  0  0  0  0  0  0  0  0
   -3.6420   -3.0840   -1.7315 H   0  0  0  0  0  0  0  0  0  0  0  0
   -5.4052   -2.7868   -1.7551 H   0  0  0  0  0  0  0  0  0  0  0  0
   -6.0786   -4.6000    1.0101 C   0  0  0  0  0  0  0  0  0  0  0  0
   -5.7351   -2.6927    2.0341 H   0  0  0  0  0  0  0  0  0  0  0  0
   -6.6612   -2.5555    0.5176 H   0  0  0  0  0  0  0  0  0  0  0  0
   -6.3501    5.0203   -0.3895 C   0  0  0  0  0  0  0  0  0  0  0  0
   -5.1268    5.1770   -2.1970 H   0  0  0  0  0  0  0  0  0  0  0  0
   -4.2169    5.3224   -0.6771 H   0  0  0  0  0  0  0  0  0  0  0  0
   -7.2416    4.5612    1.5558 H   0  0  0  0  0  0  0  0  0  0  0  0
   -5.5090    4.9553    1.6124 H   0  0  0  0  0  0  0  0  0  0  0  0
   -6.1313   -5.1706   -0.4134 C   0  0  0  0  0  0  0  0  0  0  0  0
   -3.9899   -5.3437   -0.7352 H   0  0  0  0  0  0  0  0  0  0  0  0
   -4.9281   -5.2043   -2.2398 H   0  0  0  0  0  0  0  0  0  0  0  0
   -5.2677   -5.1102    1.5775 H   0  0  0  0  0  0  0  0  0  0  0  0
   -7.0216   -4.8191    1.5536 H   0  0  0  0  0  0  0  0  0  0  0  0
   -7.2004    4.5614   -0.9427 H   0  0  0  0  0  0  0  0  0  0  0  0
   -6.5654    6.1074   -0.3316 H   0  0  0  0  0  0  0  0  0  0  0  0
   -6.2839   -6.2701   -0.3857 H   0  0  0  0  0  0  0  0  0  0  0  0
   -7.0132   -4.7448   -0.9435 H   0  0  0  0  0  0  0  0  0  0  0  0
  1  3  1  0  0  0  0
  2  4  1  0  0  0  0
  3  4  2  0  0  0  0
  3  5  1  0  0  0  0
  4  6  1  0  0  0  0
  5  7  1  0  0  0  0
  5  8  1  0  0  0  0
  6  9  1  0  0  0  0
  7 12  1  0  0  0  0
  7 11  1  0  0  0  0
  9 15  1  0  0  0  0
  9 14  1  0  0  0  0
 10 16  1  0  0  0  0
 10  7  1  0  0  0  0
 11 19  1  0  0  0  0
 11 21  1  0  0  0  0
 13 22  1  0  0  0  0
 13  9  1  0  0  0  0
 14 25  1  0  0  0  0
 14 26  1  0  0  0  0
 16 30  1  0  0  0  0
 16 28  1  0  0  0  0
 17 10  1  0  0  0  0
 18 10  1  0  0  0  0
 19 31  1  0  0  0  0
 19 32  1  0  0  0  0
 20 11  1  0  0  0  0
 22 34  1  0  0  0  0
 22 33  1  0  0  0  0
 23 13  1  0  0  0  0
 24 13  1  0  0  0  0
 25 37  1  0  0  0  0
 25 36  1  0  0  0  0
 27 14  1  0  0  0  0
 28 39  1  0  0  0  0
 28 19  1  0  0  0  0
 29 16  1  0  0  0  0
 33 40  1  0  0  0  0
 33 25  1  0  0  0  0
 35 22  1  0  0  0  0
 38 28  1  0  0  0  0
 41 33  1  0  0  0  0
M  END
