1,9
q = 0.0, confidence = 0.984

 16 15  0  0  1  0  0  0  0  0999 V2000
    0.2756   -1.4374    0.9605 S   0  0  0  0  0  1  0  0  0  0  0  0
    1.5921   -0.7146    0.2312 C   0  0  2  0  0  3  0  0  0  0  0  0
    2.7667   -1.3705    0.0433 N   0  0  0  0  0  0  0  0  0  0  0  0
    2.9548   -2.7644    0.3999 C   0  0  0  0  0  0  0  0  0  0  0  0
    3.4333   -0.9473   -0.6084 H   0  0  0  0  0  0  0  0  0  0  0  0
    2.8064   -2.9042    1.4898 H   0  0  0  0  0  0  0  0  0  0  0  0
    3.9786   -3.0740    0.1217 H   0  0  0  0  0  0  0  0  0  0  0  0
    2.2108   -3.4091   -0.1166 H   0  0  0  0  0  0  0  0  0  0  0  0
    0.2757    1.4372   -0.9606 S   0  0  0  0  0  1  0  0  0  0  0  0
    1.5921    0.7145   -0.2313 C   0  0  2  0  0  3  0  0  0  0  0  0
    2.7667    1.3704   -0.0433 N   0  0  0  0  0  0  0  0  0  0  0  0
    2.9548    2.7643   -0.3999 C   0  0  0  0  0  0  0  0  0  0  0  0
    3.4332    0.9472    0.6084 H   0  0  0  0  0  0  0  0  0  0  0  0
    2.8065    2.9042   -1.4898 H   0  0  0  0  0  0  0  0  0  0  0  0
    3.9785    3.0739   -0.1216 H   0  0  0  0  0  0  0  0  0  0  0  0
    2.2107    3.4090    0.1166 H   0  0  0  0  0  0  0  0  0  0  0  0
  2  1  1  1  0  0  0
  3  2  1  0  0  0  0
  3  4  1  0  0  0  0
  4  6  1  0  0  0  0
  5  3  1  0  0  0  0
  7  4  1  0  0  0  0
  8  4  1  0  0  0  0
 10  9  1  6  0  0  0
 10 11  1  0  0  0  0
 10  2  1  0  0  0  0
 11 13  1  0  0  0  0
 12 15  1  0  0  0  0
 12 11  1  0  0  0  0
 12 16  1  0  0  0  0
 14 12  1  0  0  0  0
M  END
