1,2
q = -1.0

 33 34  0  0  0  0  0  0  0  0999 V2000
   -1.8636   -1.0384   -0.9533 S   0  0  0  0  0  1  0  0  0  0  0  0
   -1.8387    1.0905    1.1509 S   0  0  0  0  0  1  0  0  0  0  0  0
   -2.7432    0.0718    0.0621 C   0  0  0  0  0  3  0  0  0  0  0  0
   -4.0897    0.1481   -0.0029 N   0  0  0  0  0  0  0  0  0  0  0  0
   -4.8766    1.0506    0.8649 C   0  0  0  0  0  0  0  0  0  0  0  0
   -4.1491    1.6089    1.4881 H   0  0  0  0  0  0  0  0  0  0  0  0
   -5.4911    0.4289    1.5486 H   0  0  0  0  0  0  0  0  0  0  0  0
   -5.7910    1.9476    0.0981 C   0  0  0  0  0  0  0  0  0  0  0  0
   -7.1858    2.0177    0.1173 C   0  0  0  0  0  0  0  0  0  0  0  0
   -7.8362    1.3993    0.7470 H   0  0  0  0  0  0  0  0  0  0  0  0
   -7.5795    3.0377   -0.7963 C   0  0  0  0  0  0  0  0  0  0  0  0
   -8.5996    3.3692   -1.0195 H   0  0  0  0  0  0  0  0  0  0  0  0
   -6.4141    3.5537   -1.3538 C   0  0  0  0  0  0  0  0  0  0  0  0
   -6.2634    4.3419   -2.1001 H   0  0  0  0  0  0  0  0  0  0  0  0
   -5.3334    2.8961   -0.8057 N   0  0  0  0  0  0  0  0  0  0  0  0
   -3.9500    3.1018   -1.1980 C   0  0  0  0  0  0  0  0  0  0  0  0
   -3.2705    2.9710   -0.3327 H   0  0  0  0  0  0  0  0  0  0  0  0
   -3.8306    4.1304   -1.5865 H   0  0  0  0  0  0  0  0  0  0  0  0
   -3.6352    2.3850   -1.9861 H   0  0  0  0  0  0  0  0  0  0  0  0
   -4.8866   -0.7107   -0.8926 C   0  0  0  0  0  0  0  0  0  0  0  0
   -4.1920   -1.1508   -1.6343 H   0  0  0  0  0  0  0  0  0  0  0  0
   -5.6075   -0.0594   -1.4273 H   0  0  0  0  0  0  0  0  0  0  0  0
   -5.6280   -1.7883   -0.1295 C   0  0  0  0  0  0  0  0  0  0  0  0
   -7.0345   -1.7938   -0.0806 C   0  0  0  0  0  0  0  0  0  0  0  0
   -7.5944   -1.0064   -0.6099 H   0  0  0  0  0  0  0  0  0  0  0  0
   -7.7187   -2.7868    0.6389 C   0  0  0  0  0  0  0  0  0  0  0  0
   -8.8191   -2.7819    0.6684 H   0  0  0  0  0  0  0  0  0  0  0  0
   -7.0001   -3.7788    1.3229 C   0  0  0  0  0  0  0  0  0  0  0  0
   -7.5346   -4.5564    1.8896 H   0  0  0  0  0  0  0  0  0  0  0  0
   -5.5952   -3.7764    1.2825 C   0  0  0  0  0  0  0  0  0  0  0  0
   -5.0275   -4.5547    1.8151 H   0  0  0  0  0  0  0  0  0  0  0  0
   -4.9118   -2.7884    0.5606 C   0  0  0  0  0  0  0  0  0  0  0  0
   -3.8108   -2.7874    0.5198 H   0  0  0  0  0  0  0  0  0  0  0  0
  1  3  1  0  0  0  0
  3  2  1  0  0  0  0
  4  3  1  0  0  0  0
  4  5  1  0  0  0  0
  5  6  1  0  0  0  0
  5  7  1  0  0  0  0
  8  9  2  0  0  0  0
  8  5  1  0  0  0  0
  9 10  1  0  0  0  0
 11  9  1  0  0  0  0
 12 11  1  0  0  0  0
 13 15  1  0  0  0  0
 13 11  2  0  0  0  0
 14 13  1  0  0  0  0
 15  8  1  0  0  0  0
 16 15  1  0  0  0  0
 16 17  1  0  0  0  0
 18 16  1  0  0  0  0
 19 16  1  0  0  0  0
 20 23  1  0  0  0  0
 20  4  1  0  0  0  0
 21 20  1  0  0  0  0
 22 20  1  0  0  0  0
 23 24  2  0  0  0  0
 23 32  1  0  0  0  0
 24 26  1  0  0  0  0
 25 24  1  0  0  0  0
 26 27  1  0  0  0  0
 26 28  2  0  0  0  0
 28 29  1  0  0  0  0
 30 28  1  0  0  0  0
 30 31  1  0  0  0  0
 32 30  2  0  0  0  0
 33 32  1  0  0  0  0
M  END
