1,2
q = -1.0, confidence = 0.0

 16 16  0  0  0  0  0  0  0  0999 V2000
   -0.6805   -0.8979    1.5601 S   0  0  0  0  0  1  0  0  0  0  0  0
   -0.7335    1.3857   -0.8072 S   0  0  0  0  0  0  0  0  0  0  0  0
   -2.1444   -0.5050    0.6966 C   0  0  0  0  0  0  0  0  0  0  0  0
   -3.3796   -1.1223    1.0531 C   0  0  0  0  0  0  0  0  0  0  0  0
   -4.5651   -0.8548    0.3645 C   0  0  0  0  0  0  0  0  0  0  0  0
   -4.5885    0.0540   -0.7131 C   0  0  0  0  0  0  0  0  0  0  0  0
   -3.3961    0.7023   -1.0689 C   0  0  0  0  0  0  0  0  0  0  0  0
   -2.2032    0.4340   -0.3780 C   0  0  0  0  0  0  0  0  0  0  0  0
   -0.8929    2.6819    0.4851 C   0  0  0  0  0  0  0  0  0  0  0  0
   -3.3679   -1.8437    1.8850 H   0  0  0  0  0  0  0  0  0  0  0  0
   -5.4906   -1.3738    0.6641 H   0  0  0  0  0  0  0  0  0  0  0  0
   -5.5187    0.2510   -1.2674 H   0  0  0  0  0  0  0  0  0  0  0  0
   -3.3759    1.4319   -1.8943 H   0  0  0  0  0  0  0  0  0  0  0  0
   -0.9361    2.1797    1.4711 H   0  0  0  0  0  0  0  0  0  0  0  0
   -1.8031    3.2848    0.2993 H   0  0  0  0  0  0  0  0  0  0  0  0
    0.0140    3.3121    0.4248 H   0  0  0  0  0  0  0  0  0  0  0  0
  2  8  1  0  0  0  0
  2  9  1  0  0  0  0
  3  4  1  0  0  0  0
  3  1  1  0  0  0  0
  4 10  1  0  0  0  0
  5 11  1  0  0  0  0
  5  4  2  0  0  0  0
  6  5  1  0  0  0  0
  7  6  2  0  0  0  0
  7  8  1  0  0  0  0
  8  3  2  0  0  0  0
  9 14  1  0  0  0  0
 12  6  1  0  0  0  0
 13  7  1  0  0  0  0
 15  9  1  0  0  0  0
 16  9  1  0  0  0  0
M  END
