1,2
q = 0.0, confidence = 0.99

 19 18  0  0  0  0  0  0  0  0999 V2000
   -1.3543    1.0295   -1.0398 S   0  0  0  0  0  0  0  0  0  0  0  0
    1.5668    1.3265    0.7963 S   0  0  0  0  0  0  0  0  0  0  0  0
   -0.5720    2.6088   -0.5219 C   0  0  0  0  0  0  0  0  0  0  0  0
    0.1945    2.5388    0.7919 C   0  0  0  0  0  0  0  0  0  0  0  0
   -2.8380    1.0357    0.0480 C   0  0  0  0  0  0  0  0  0  0  0  0
   -3.7424   -0.1417   -0.2854 C   0  0  0  0  0  0  0  0  0  0  0  0
    2.6565    2.0152   -0.4909 C   0  0  0  0  0  0  0  0  0  0  0  0
   -1.3783    3.3692   -0.4608 H   0  0  0  0  0  0  0  0  0  0  0  0
    0.0842    2.9036   -1.3657 H   0  0  0  0  0  0  0  0  0  0  0  0
    0.6053    3.5335    1.0651 H   0  0  0  0  0  0  0  0  0  0  0  0
   -0.4436    2.1712    1.6221 H   0  0  0  0  0  0  0  0  0  0  0  0
   -3.3408    2.0096   -0.1265 H   0  0  0  0  0  0  0  0  0  0  0  0
   -2.4747    0.9542    1.0940 H   0  0  0  0  0  0  0  0  0  0  0  0
   -4.6641   -0.0793    0.3273 H   0  0  0  0  0  0  0  0  0  0  0  0
   -3.2434   -1.0979   -0.0393 H   0  0  0  0  0  0  0  0  0  0  0  0
   -4.0392   -0.1553   -1.3537 H   0  0  0  0  0  0  0  0  0  0  0  0
    3.5236    1.3311   -0.5542 H   0  0  0  0  0  0  0  0  0  0  0  0
    3.0092    3.0211   -0.1912 H   0  0  0  0  0  0  0  0  0  0  0  0
    2.1648    2.0480   -1.4814 H   0  0  0  0  0  0  0  0  0  0  0  0
  1  3  1  0  0  0  0
  1  5  1  0  0  0  0
  3  8  1  0  0  0  0
  3  4  1  0  0  0  0
  4  2  1  0  0  0  0
  4 10  1  0  0  0  0
  4 11  1  0  0  0  0
  5 13  1  0  0  0  0
  6 15  1  0  0  0  0
  6  5  1  0  0  0  0
  6 14  1  0  0  0  0
  7 18  1  0  0  0  0
  7  2  1  0  0  0  0
  9  3  1  0  0  0  0
 12  5  1  0  0  0  0
 16  6  1  0  0  0  0
 17  7  1  0  0  0  0
 19  7  1  0  0  0  0
M  END
