1,5
q = -1.0

 23 22  0  0  0  0  0  0  0  0999 V2000
    1.7833    1.3063   -0.2805 S   0  0  0  0  0  1  0  0  0  0  0  0
    2.8235   -0.4809   -0.1383 P   0  0  0  0  0  4  0  0  0  0  0  0
    3.6044   -0.6881    1.5640 C   0  0  0  0  0  0  0  0  0  0  0  0
    4.5473   -1.2392    1.3442 H   0  0  0  0  0  0  0  0  0  0  0  0
    1.3376   -1.8790   -0.4797 S   0  0  0  0  0  1  0  0  0  0  0  0
    3.9370    0.6776    2.1781 C   0  0  0  0  0  0  0  0  0  0  0  0
    3.0061    1.2445    2.3780 H   0  0  0  0  0  0  0  0  0  0  0  0
    4.5732    1.3044    1.5242 H   0  0  0  0  0  0  0  0  0  0  0  0
    4.4722    0.5309    3.1389 H   0  0  0  0  0  0  0  0  0  0  0  0
    2.7331   -1.5356    2.4965 C   0  0  0  0  0  0  0  0  0  0  0  0
    3.2569   -1.6666    3.4659 H   0  0  0  0  0  0  0  0  0  0  0  0
    2.5251   -2.5356    2.0712 H   0  0  0  0  0  0  0  0  0  0  0  0
    1.7596   -1.0433    2.6891 H   0  0  0  0  0  0  0  0  0  0  0  0
    4.2339   -0.6315   -1.3598 C   0  0  0  0  0  0  0  0  0  0  0  0
    4.6126   -1.6625   -1.1690 H   0  0  0  0  0  0  0  0  0  0  0  0
    3.6900   -0.5430   -2.7877 C   0  0  0  0  0  0  0  0  0  0  0  0
    3.3009    0.4755   -2.9908 H   0  0  0  0  0  0  0  0  0  0  0  0
    2.8666   -1.2645   -2.9546 H   0  0  0  0  0  0  0  0  0  0  0  0
    4.4984   -0.7534   -3.5174 H   0  0  0  0  0  0  0  0  0  0  0  0
    5.3408    0.3933   -1.0894 C   0  0  0  0  0  0  0  0  0  0  0  0
    6.1314    0.3047   -1.8630 H   0  0  0  0  0  0  0  0  0  0  0  0
    5.8239    0.2527   -0.1030 H   0  0  0  0  0  0  0  0  0  0  0  0
    4.9413    1.4275   -1.1380 H   0  0  0  0  0  0  0  0  0  0  0  0
  1  2  1  0  0  0  0
  2  3  1  0  0  0  0
  3  6  1  0  0  0  0
  3 10  1  0  0  0  0
  4  3  1  0  0  0  0
  5  2  1  0  0  0  0
  6  7  1  0  0  0  0
  6  9  1  0  0  0  0
  8  6  1  0  0  0  0
 10 13  1  0  0  0  0
 10 11  1  0  0  0  0
 12 10  1  0  0  0  0
 14 15  1  0  0  0  0
 14 20  1  0  0  0  0
 14  2  1  0  0  0  0
 16 14  1  0  0  0  0
 17 16  1  0  0  0  0
 18 16  1  0  0  0  0
 19 16  1  0  0  0  0
 20 22  1  0  0  0  0
 21 20  1  0  0  0  0
 23 20  1  0  0  0  0
M  END
