1,2
q = -2.0, confidence = 0.664

 42 47  0  0  0  0  0  0  0  0999 V2000
   -0.4524    0.5870   -0.7093 S   0  0  0  0  0  1  0  0  0  0  0  0
   -1.4743   -2.3027    0.1789 S   0  0  0  0  0  1  0  0  0  0  0  0
    0.7022   -0.7118   -0.4352 C   0  0  0  0  0  0  0  0  0  0  0  0
    2.0703   -0.4662   -0.5804 C   0  0  0  0  0  0  0  0  0  0  0  0
    2.3881    0.5353   -0.8961 H   0  0  0  0  0  0  0  0  0  0  0  0
    3.0392   -1.4626   -0.3211 C   0  0  0  0  0  0  0  0  0  0  0  0
    4.4742   -1.2045   -0.3589 C   0  0  0  0  0  0  0  0  0  0  0  0
    5.0684    0.1230   -0.3587 C   0  0  0  0  0  0  0  0  0  0  0  0
    4.4581    1.3268    0.1885 C   0  0  0  0  0  0  0  0  0  0  0  0
    3.4793    1.3366    1.2697 C   0  0  0  0  0  0  0  0  0  0  0  0
    3.2444    0.2171    2.1157 C   0  0  0  0  0  0  0  0  0  0  0  0
    3.8597   -0.6828    1.9935 H   0  0  0  0  0  0  0  0  0  0  0  0
    2.2626    0.2405    3.0990 C   0  0  0  0  0  0  0  0  0  0  0  0
    2.1067   -0.6467    3.7308 H   0  0  0  0  0  0  0  0  0  0  0  0
    1.4638    1.3932    3.2876 C   0  0  0  0  0  0  0  0  0  0  0  0
    0.6669    1.3959    4.0464 H   0  0  0  0  0  0  0  0  0  0  0  0
    1.7188    2.5300    2.5327 C   0  0  0  0  0  0  0  0  0  0  0  0
    1.1443    3.4543    2.7016 H   0  0  0  0  0  0  0  0  0  0  0  0
    2.7410    2.5410    1.5436 C   0  0  0  0  0  0  0  0  0  0  0  0
    3.0832    3.7514    0.8556 C   0  0  0  0  0  0  0  0  0  0  0  0
    2.5021    4.6625    1.0671 H   0  0  0  0  0  0  0  0  0  0  0  0
    4.1674    3.7869    0.0135 C   0  0  0  0  0  0  0  0  0  0  0  0
    4.4952    4.7345   -0.4418 H   0  0  0  0  0  0  0  0  0  0  0  0
    4.9003    2.5950   -0.3075 C   0  0  0  0  0  0  0  0  0  0  0  0
    6.0934    2.6800   -1.0912 C   0  0  0  0  0  0  0  0  0  0  0  0
    6.4232    3.6692   -1.4445 H   0  0  0  0  0  0  0  0  0  0  0  0
    6.8558    1.5571   -1.3175 C   0  0  0  0  0  0  0  0  0  0  0  0
    7.8341    1.6291   -1.8175 H   0  0  0  0  0  0  0  0  0  0  0  0
    6.3718    0.2617   -0.9544 C   0  0  0  0  0  0  0  0  0  0  0  0
    7.1755   -0.8961   -1.1881 C   0  0  0  0  0  0  0  0  0  0  0  0
    8.1871   -0.7586   -1.6004 H   0  0  0  0  0  0  0  0  0  0  0  0
    6.7070   -2.1502   -0.8650 C   0  0  0  0  0  0  0  0  0  0  0  0
    7.3505   -3.0375   -0.9690 H   0  0  0  0  0  0  0  0  0  0  0  0
    5.3444   -2.3359   -0.4784 C   0  0  0  0  0  0  0  0  0  0  0  0
    4.8374   -3.6602   -0.2472 C   0  0  0  0  0  0  0  0  0  0  0  0
    5.5474   -4.5009   -0.2849 H   0  0  0  0  0  0  0  0  0  0  0  0
    3.5087   -3.8772    0.0255 C   0  0  0  0  0  0  0  0  0  0  0  0
    3.1359   -4.8907    0.2403 H   0  0  0  0  0  0  0  0  0  0  0  0
    2.5666   -2.7981   -0.0403 C   0  0  0  0  0  0  0  0  0  0  0  0
    1.1789   -3.0347    0.1106 C   0  0  0  0  0  0  0  0  0  0  0  0
    0.8319   -4.0543    0.3407 H   0  0  0  0  0  0  0  0  0  0  0  0
    0.2448   -2.0070   -0.0485 C   0  0  0  0  0  0  0  0  0  0  0  0
  1  3  1  0  0  0  0
  3 42  1  0  0  0  0
  4  3  2  0  0  0  0
  4  6  1  0  0  0  0
  5  4  1  0  0  0  0
  6 39  1  0  0  0  0
  7  8  1  0  0  0  0
  7  6  2  0  0  0  0
  8  9  1  0  0  0  0
  9 10  1  0  0  0  0
 10 19  2  0  0  0  0
 10 11  1  0  0  0  0
 11 13  2  0  0  0  0
 12 11  1  0  0  0  0
 13 15  1  0  0  0  0
 13 14  1  0  0  0  0
 15 16  1  0  0  0  0
 17 18  1  0  0  0  0
 17 15  2  0  0  0  0
 19 17  1  0  0  0  0
 20 21  1  0  0  0  0
 20 19  1  0  0  0  0
 22 20  2  0  0  0  0
 23 22  1  0  0  0  0
 24 22  1  0  0  0  0
 24  9  2  0  0  0  0
 25 24  1  0  0  0  0
 26 25  1  0  0  0  0
 27 25  2  0  0  0  0
 27 29  1  0  0  0  0
 28 27  1  0  0  0  0
 29  8  2  0  0  0  0
 30 29  1  0  0  0  0
 30 32  2  0  0  0  0
 31 30  1  0  0  0  0
 32 34  1  0  0  0  0
 33 32  1  0  0  0  0
 34  7  1  0  0  0  0
 34 35  2  0  0  0  0
 35 37  1  0  0  0  0
 36 35  1  0  0  0  0
 37 38  1  0  0  0  0
 39 37  2  0  0  0  0
 39 40  1  0  0  0  0
 40 41  1  0  0  0  0
 42 40  2  0  0  0  0
 42  2  1  0  0  0  0
M  END
