1,2
q = -1.0, confidence = 0.002

 19 19  0  0  0  0  0  0  0  0999 V2000
   -2.5861   -0.1500    0.7480 S   0  0  0  0  0  1  0  0  0  0  0  0
   -1.4735   -1.6311   -1.6447 S   0  0  0  0  0  1  0  0  0  0  0  0
   -4.0217   -1.7371   -0.8791 N   0  0  0  0  0  0  0  0  0  0  0  0
   -5.1724   -1.4426   -0.0755 C   0  0  0  0  0  0  0  0  0  0  0  0
   -6.2694   -0.7774   -0.6529 C   0  0  0  0  0  0  0  0  0  0  0  0
   -6.2116   -0.4490   -1.7014 H   0  0  0  0  0  0  0  0  0  0  0  0
   -7.4207   -0.5285    0.1100 C   0  0  0  0  0  0  0  0  0  0  0  0
   -8.2742   -0.0052   -0.3474 H   0  0  0  0  0  0  0  0  0  0  0  0
   -7.4794   -0.9373    1.4506 C   0  0  0  0  0  0  0  0  0  0  0  0
   -8.3814   -0.7402    2.0494 H   0  0  0  0  0  0  0  0  0  0  0  0
   -6.3829   -1.6033    2.0246 C   0  0  0  0  0  0  0  0  0  0  0  0
   -6.4252   -1.9325    3.0740 H   0  0  0  0  0  0  0  0  0  0  0  0
   -5.2329   -1.8601    1.2675 C   0  0  0  0  0  0  0  0  0  0  0  0
   -4.3702   -2.3789    1.7072 H   0  0  0  0  0  0  0  0  0  0  0  0
   -2.7818   -1.2191   -0.6042 C   0  0  0  0  0  3  0  0  0  0  0  0
   -4.2208   -2.5810   -2.0577 C   0  0  0  0  0  0  0  0  0  0  0  0
   -3.5061   -3.4290   -2.0397 H   0  0  0  0  0  0  0  0  0  0  0  0
   -4.0332   -2.0160   -2.9951 H   0  0  0  0  0  0  0  0  0  0  0  0
   -5.2566   -2.9647   -2.0489 H   0  0  0  0  0  0  0  0  0  0  0  0
  2 15  1  0  0  0  0
  3 15  1  0  0  0  0
  3  4  1  0  0  0  0
  4 13  1  0  0  0  0
  5  4  2  0  0  0  0
  5  7  1  0  0  0  0
  6  5  1  0  0  0  0
  7  9  2  0  0  0  0
  8  7  1  0  0  0  0
  9 11  1  0  0  0  0
  9 10  1  0  0  0  0
 11 12  1  0  0  0  0
 13 14  1  0  0  0  0
 13 11  2  0  0  0  0
 15  1  1  0  0  0  0
 16 19  1  0  0  0  0
 16 17  1  0  0  0  0
 16  3  1  0  0  0  0
 18 16  1  0  0  0  0
M  END
