1,2
q = -2.0, confidence = 0.652

 12 12  0  0  0  0  0  0  0  0999 V2000
    1.4740    1.0658   -1.0630 S   0  0  0  0  0  1  0  0  0  0  0  0
    1.4759   -1.0642    1.0664 S   0  0  0  0  0  1  0  0  0  0  0  0
    4.2899    2.2294   -2.2293 Cl  0  0  0  0  0  0  0  0  0  0  0  0
    4.2938   -2.2284    2.2273 Cl  0  0  0  0  0  0  0  0  0  0  0  0
    3.0408    0.5045   -0.5037 C   0  0  0  0  0  0  0  0  0  0  0  0
    3.0417   -0.5034    0.5040 C   0  0  0  0  0  0  0  0  0  0  0  0
    4.2797   -0.9876    0.9867 C   0  0  0  0  0  0  0  0  0  0  0  0
    5.4944   -0.4983    0.4962 C   0  0  0  0  0  0  0  0  0  0  0  0
    6.4392   -0.8960    0.8927 H   0  0  0  0  0  0  0  0  0  0  0  0
    5.4936    0.4989   -0.5007 C   0  0  0  0  0  0  0  0  0  0  0  0
    6.4376    0.8964   -0.8991 H   0  0  0  0  0  0  0  0  0  0  0  0
    4.2780    0.9885   -0.9888 C   0  0  0  0  0  0  0  0  0  0  0  0
  1  5  1  0  0  0  0
  3 12  1  0  0  0  0
  5  6  1  0  0  0  0
  6  7  2  0  0  0  0
  6  2  1  0  0  0  0
  7  4  1  0  0  0  0
  8  9  1  0  0  0  0
  8  7  1  0  0  0  0
 10  8  2  0  0  0  0
 11 10  1  0  0  0  0
 12  5  2  0  0  0  0
 12 10  1  0  0  0  0
M  END
