1,2
q = -1.0

 12 12  0  0  0  0  0  0  0  0999 V2000
   -1.1279    0.1934    1.0697 S   0  0  0  0  0  1  0  0  0  0  0  0
   -0.7373   -0.6477   -2.2312 S   0  0  0  0  0  0  0  0  0  0  0  0
   -4.0291   -0.3990    0.6195 S   0  0  0  0  0  0  0  0  0  0  0  0
   -3.7257   -1.1864   -2.1764 S   0  0  0  0  0  0  0  0  0  0  0  0
   -6.4284   -1.4749   -0.8577 S   0  0  0  0  0  0  0  0  0  0  0  0
   -2.3922   -0.2646   -0.0299 C   0  0  0  0  0  0  0  0  0  0  0  0
   -2.2694   -0.6204   -1.3603 C   0  0  0  0  0  0  0  0  0  0  0  0
   -4.8395   -1.0421   -0.8217 C   0  0  0  0  0  0  0  0  0  0  0  0
   -0.8685    0.8546   -3.2677 C   0  0  0  0  0  0  0  0  0  0  0  0
    0.0265    0.8589   -3.9188 H   0  0  0  0  0  0  0  0  0  0  0  0
   -0.8550    1.7518   -2.6223 H   0  0  0  0  0  0  0  0  0  0  0  0
   -1.7890    0.8017   -3.8785 H   0  0  0  0  0  0  0  0  0  0  0  0
  2  7  1  0  0  0  0
  4  7  1  0  0  0  0
  4  8  1  0  0  0  0
  5  8  2  0  0  0  0
  6  3  1  0  0  0  0
  6  1  1  0  0  0  0
  7  6  2  0  0  0  0
  8  3  1  0  0  0  0
  9 11  1  0  0  0  0
  9  2  1  0  0  0  0
 10  9  1  0  0  0  0
 12  9  1  0  0  0  0
M  END
