1,2
q = -1.0

 24 23  0  0  0  0  0  0  0  0999 V2000
    1.3998   -0.0005   -1.7359 S   0  0  0  0  0  1  0  0  0  0  0  0
    1.9643    0.0010    1.0456 S   0  0  0  0  0  1  0  0  0  0  0  0
    7.0666   -0.0001   -0.5317 S   0  0  0  0  0  1  0  0  0  0  0  0
    5.3139   -0.0001    0.3410 P   0  0  0  0  0  4  0  0  0  0  0  0
    3.9702   -0.0006   -0.8764 N   0  0  0  0  0  0  0  0  0  0  0  0
    2.6539   -0.0001   -0.5479 C   0  0  0  0  0  3  0  0  0  0  0  0
    4.3146   -0.0014   -2.3004 C   0  0  0  0  0  0  0  0  0  0  0  0
    4.9853    1.4903    1.3647 C   0  0  0  0  0  0  0  0  0  0  0  0
    5.0832    2.7837    0.5580 C   0  0  0  0  0  0  0  0  0  0  0  0
    4.9853   -1.4898    1.3656 C   0  0  0  0  0  0  0  0  0  0  0  0
    5.0856   -2.7838    0.5603 C   0  0  0  0  0  0  0  0  0  0  0  0
    3.8947    0.8985   -2.7944 H   0  0  0  0  0  0  0  0  0  0  0  0
    3.8946   -0.9018   -2.7935 H   0  0  0  0  0  0  0  0  0  0  0  0
    5.4178   -0.0015   -2.3885 H   0  0  0  0  0  0  0  0  0  0  0  0
    5.7559    1.4437    2.1634 H   0  0  0  0  0  0  0  0  0  0  0  0
    3.9877    1.3676    1.8358 H   0  0  0  0  0  0  0  0  0  0  0  0
    4.9923    3.6626    1.2259 H   0  0  0  0  0  0  0  0  0  0  0  0
    4.2706    2.8461   -0.1936 H   0  0  0  0  0  0  0  0  0  0  0  0
    6.0537    2.8439    0.0263 H   0  0  0  0  0  0  0  0  0  0  0  0
    5.7546   -1.4417    2.1655 H   0  0  0  0  0  0  0  0  0  0  0  0
    3.9870   -1.3674    1.8352 H   0  0  0  0  0  0  0  0  0  0  0  0
    6.0569   -2.8436    0.0301 H   0  0  0  0  0  0  0  0  0  0  0  0
    4.9945   -3.6622    1.2289 H   0  0  0  0  0  0  0  0  0  0  0  0
    4.2743   -2.8477   -0.1925 H   0  0  0  0  0  0  0  0  0  0  0  0
  1  6  1  0  0  0  0
  3  4  1  0  0  0  0
  4  8  1  0  0  0  0
  4 10  1  0  0  0  0
  5  6  1  0  0  0  0
  5  4  1  0  0  0  0
  6  2  1  0  0  0  0
  7  5  1  0  0  0  0
  8 16  1  0  0  0  0
  8 15  1  0  0  0  0
  9 17  1  0  0  0  0
  9  8  1  0  0  0  0
 10 21  1  0  0  0  0
 10 20  1  0  0  0  0
 11 23  1  0  0  0  0
 11 10  1  0  0  0  0
 12  7  1  0  0  0  0
 13  7  1  0  0  0  0
 14  7  1  0  0  0  0
 18  9  1  0  0  0  0
 19  9  1  0  0  0  0
 22 11  1  0  0  0  0
 24 11  1  0  0  0  0
M  END
