1,2
q = -1.0

 40 41  0  0  0  0  0  0  0  0999 V2000
   -1.7294    0.7321    1.2087 S   0  0  0  0  0  1  0  0  0  0  0  0
   -1.7045   -0.7699   -1.2203 S   0  0  0  0  0  1  0  0  0  0  0  0
   -2.6968   -0.0334   -0.0067 C   0  0  0  0  0  3  0  0  0  0  0  0
   -4.0416   -0.0537   -0.0081 N   0  0  0  0  0  0  0  0  0  0  0  0
   -4.8245    0.5051    1.1011 C   0  0  0  0  0  0  0  0  0  0  0  0
   -4.1235    0.6552    1.9474 H   0  0  0  0  0  0  0  0  0  0  0  0
   -5.5665   -0.2617    1.4080 H   0  0  0  0  0  0  0  0  0  0  0  0
   -5.5193    1.7934    0.7246 C   0  0  0  0  0  0  0  0  0  0  0  0
   -4.7608    2.9422    0.4016 C   0  0  0  0  0  0  0  0  0  0  0  0
   -3.6610    2.8903    0.4501 H   0  0  0  0  0  0  0  0  0  0  0  0
   -5.3878    4.1302    0.0295 C   0  0  0  0  0  0  0  0  0  0  0  0
   -4.8085    5.0308   -0.2205 H   0  0  0  0  0  0  0  0  0  0  0  0
   -6.7988    4.2049   -0.0305 C   0  0  0  0  0  0  0  0  0  0  0  0
   -7.5672    3.0674    0.2872 C   0  0  0  0  0  0  0  0  0  0  0  0
   -8.6642    3.0947    0.2486 H   0  0  0  0  0  0  0  0  0  0  0  0
   -6.9187    1.8761    0.6566 C   0  0  0  0  0  0  0  0  0  0  0  0
   -7.5254    0.9893    0.9028 H   0  0  0  0  0  0  0  0  0  0  0  0
   -8.7221    5.5398   -0.4770 C   0  0  0  0  0  0  0  0  0  0  0  0
   -9.1661    4.8455   -1.2260 H   0  0  0  0  0  0  0  0  0  0  0  0
   -8.9234    6.5810   -0.7903 H   0  0  0  0  0  0  0  0  0  0  0  0
   -9.2100    5.3582    0.5073 H   0  0  0  0  0  0  0  0  0  0  0  0
   -4.8042   -0.6433   -1.1155 C   0  0  0  0  0  0  0  0  0  0  0  0
   -4.1010   -0.7611   -1.9650 H   0  0  0  0  0  0  0  0  0  0  0  0
   -5.5790    0.0924   -1.4171 H   0  0  0  0  0  0  0  0  0  0  0  0
   -5.4430   -1.9610   -0.7395 C   0  0  0  0  0  0  0  0  0  0  0  0
   -6.8435   -2.0989   -0.6547 C   0  0  0  0  0  0  0  0  0  0  0  0
   -7.4875   -1.2357   -0.8893 H   0  0  0  0  0  0  0  0  0  0  0  0
   -7.4287   -3.3126   -0.2835 C   0  0  0  0  0  0  0  0  0  0  0  0
   -8.5199   -3.4298   -0.2172 H   0  0  0  0  0  0  0  0  0  0  0  0
   -6.6158   -4.4255    0.0209 C   0  0  0  0  0  0  0  0  0  0  0  0
   -5.2115   -4.3002   -0.0557 C   0  0  0  0  0  0  0  0  0  0  0  0
   -4.5546   -5.1499    0.1733 H   0  0  0  0  0  0  0  0  0  0  0  0
   -4.6412   -3.0765   -0.4332 C   0  0  0  0  0  0  0  0  0  0  0  0
   -3.5448   -2.9816   -0.4944 H   0  0  0  0  0  0  0  0  0  0  0  0
   -6.5025   -6.7107    0.6919 C   0  0  0  0  0  0  0  0  0  0  0  0
   -5.8825   -7.0474   -0.1693 H   0  0  0  0  0  0  0  0  0  0  0  0
   -7.2231   -7.5093    0.9486 H   0  0  0  0  0  0  0  0  0  0  0  0
   -5.8328   -6.5348    1.5637 H   0  0  0  0  0  0  0  0  0  0  0  0
   -7.3161    5.4075   -0.4022 O   0  0  0  0  0  0  0  0  0  0  0  0
   -7.2701   -5.5651    0.3748 O   0  0  0  0  0  0  0  0  0  0  0  0
  2  3  1  0  0  0  0
  3  1  1  0  0  0  0
  4  3  1  0  0  0  0
  4  5  1  0  0  0  0
  5  7  1  0  0  0  0
  5  6  1  0  0  0  0
  8  5  1  0  0  0  0
  9 10  1  0  0  0  0
  9  8  2  0  0  0  0
 11  9  1  0  0  0  0
 12 11  1  0  0  0  0
 13 11  2  0  0  0  0
 13 14  1  0  0  0  0
 14 16  2  0  0  0  0
 15 14  1  0  0  0  0
 16  8  1  0  0  0  0
 16 17  1  0  0  0  0
 18 39  1  0  0  0  0
 18 21  1  0  0  0  0
 19 18  1  0  0  0  0
 20 18  1  0  0  0  0
 22 25  1  0  0  0  0
 22  4  1  0  0  0  0
 23 22  1  0  0  0  0
 24 22  1  0  0  0  0
 25 26  2  0  0  0  0
 25 33  1  0  0  0  0
 26 28  1  0  0  0  0
 27 26  1  0  0  0  0
 28 29  1  0  0  0  0
 28 30  2  0  0  0  0
 30 40  1  0  0  0  0
 31 30  1  0  0  0  0
 31 32  1  0  0  0  0
 33 31  2  0  0  0  0
 34 33  1  0  0  0  0
 35 37  1  0  0  0  0
 35 38  1  0  0  0  0
 36 35  1  0  0  0  0
 39 13  1  0  0  0  0
 40 35  1  0  0  0  0
M  END
