1,2
q = 0.0, confidence = 1.0

 24 23  0  0  0  0  0  0  0  0999 V2000
   -1.4172   -0.6027    0.7408 S   0  0  0  0  0  0  0  0  0  0  0  0
    1.5690   -0.4442   -0.6859 S   0  0  0  0  0  0  0  0  0  0  0  0
   -3.2561   -3.0036   -0.3748 O   0  0  0  0  0  0  0  0  0  0  0  0
    3.9222   -2.2694   -0.3349 O   0  0  0  0  0  0  0  0  0  0  0  0
   -0.3906   -2.1237    0.4856 C   0  0  0  0  0  0  0  0  0  0  0  0
    0.5831   -2.0052   -0.6694 C   0  0  0  0  0  0  0  0  0  0  0  0
   -2.6598   -0.6980   -0.6136 C   0  0  0  0  0  0  0  0  0  0  0  0
   -3.7797   -1.6824   -0.3402 C   0  0  0  0  0  0  0  0  0  0  0  0
    2.6366   -0.6123    0.8137 C   0  0  0  0  0  0  0  0  0  0  0  0
    3.3468   -1.9526    0.9152 C   0  0  0  0  0  0  0  0  0  0  0  0
   -3.9712   -3.6172   -0.1300 H   0  0  0  0  0  0  0  0  0  0  0  0
    4.4266   -3.0962   -0.2348 H   0  0  0  0  0  0  0  0  0  0  0  0
    0.1327   -2.2553    1.4545 H   0  0  0  0  0  0  0  0  0  0  0  0
   -1.1061   -2.9588    0.3469 H   0  0  0  0  0  0  0  0  0  0  0  0
    0.0544   -1.9776   -1.6437 H   0  0  0  0  0  0  0  0  0  0  0  0
    1.3038   -2.8479   -0.7122 H   0  0  0  0  0  0  0  0  0  0  0  0
   -3.0303    0.3479   -0.6445 H   0  0  0  0  0  0  0  0  0  0  0  0
   -2.1449   -0.9135   -1.5712 H   0  0  0  0  0  0  0  0  0  0  0  0
   -4.2464   -1.4424    0.6449 H   0  0  0  0  0  0  0  0  0  0  0  0
   -4.5612   -1.5272   -1.1243 H   0  0  0  0  0  0  0  0  0  0  0  0
    3.3434    0.2305    0.6773 H   0  0  0  0  0  0  0  0  0  0  0  0
    2.0372   -0.4079    1.7216 H   0  0  0  0  0  0  0  0  0  0  0  0
    4.1061   -1.8619    1.7307 H   0  0  0  0  0  0  0  0  0  0  0  0
    2.6183   -2.7340    1.2509 H   0  0  0  0  0  0  0  0  0  0  0  0
  2  6  1  0  0  0  0
  2  9  1  0  0  0  0
  3  8  1  0  0  0  0
  3 11  1  0  0  0  0
  4 12  1  0  0  0  0
  4 10  1  0  0  0  0
  5  1  1  0  0  0  0
  5 13  1  0  0  0  0
  6  5  1  0  0  0  0
  7  8  1  0  0  0  0
  7  1  1  0  0  0  0
  8 19  1  0  0  0  0
  9 10  1  0  0  0  0
  9 22  1  0  0  0  0
 10 24  1  0  0  0  0
 10 23  1  0  0  0  0
 14  5  1  0  0  0  0
 15  6  1  0  0  0  0
 16  6  1  0  0  0  0
 17  7  1  0  0  0  0
 18  7  1  0  0  0  0
 20  8  1  0  0  0  0
 21  9  1  0  0  0  0
M  END
