1,2
q = -1.0

 23 22  0  0  0  0  0  0  0  0999 V2000
    1.3402    1.7969   -0.0010 S   0  0  0  0  0  1  0  0  0  0  0  0
    2.0021   -1.0007   -0.0015 S   0  0  0  0  0  1  0  0  0  0  0  0
    3.8508    0.9804   -0.0010 O   0  0  0  0  0  0  0  0  0  0  0  0
    2.5784    0.6171   -0.0012 C   0  0  0  0  0  3  0  0  0  0  0  0
    4.8673   -0.0515   -0.0010 C   0  0  0  0  0  0  0  0  0  0  0  0
    6.2264    0.6220    0.0002 C   0  0  0  0  0  0  0  0  0  0  0  0
    7.3744   -0.3913    0.0003 C   0  0  0  0  0  0  0  0  0  0  0  0
    8.7593    0.2612    0.0015 C   0  0  0  0  0  0  0  0  0  0  0  0
    9.9148   -0.7441    0.0016 C   0  0  0  0  0  0  0  0  0  0  0  0
   11.2943   -0.0847    0.0029 C   0  0  0  0  0  0  0  0  0  0  0  0
    4.7189   -0.6922   -0.8977 H   0  0  0  0  0  0  0  0  0  0  0  0
    4.7179   -0.6933    0.8948 H   0  0  0  0  0  0  0  0  0  0  0  0
    6.2991    1.2831    0.8903 H   0  0  0  0  0  0  0  0  0  0  0  0
    6.3001    1.2842   -0.8889 H   0  0  0  0  0  0  0  0  0  0  0  0
    7.2828   -1.0574   -0.8872 H   0  0  0  0  0  0  0  0  0  0  0  0
    7.2817   -1.0585    0.8868 H   0  0  0  0  0  0  0  0  0  0  0  0
    8.8505    0.9282    0.8885 H   0  0  0  0  0  0  0  0  0  0  0  0
    8.8516    0.9293   -0.8845 H   0  0  0  0  0  0  0  0  0  0  0  0
    9.8179   -1.4099   -0.8849 H   0  0  0  0  0  0  0  0  0  0  0  0
    9.8168   -1.4110    0.8872 H   0  0  0  0  0  0  0  0  0  0  0  0
   11.4340    0.5597   -0.8902 H   0  0  0  0  0  0  0  0  0  0  0  0
   12.1090   -0.8364    0.0029 H   0  0  0  0  0  0  0  0  0  0  0  0
   11.4329    0.5586    0.8969 H   0  0  0  0  0  0  0  0  0  0  0  0
  2  4  1  0  0  0  0
  3  5  1  0  0  0  0
  4  1  1  0  0  0  0
  4  3  1  0  0  0  0
  5  6  1  0  0  0  0
  5 12  1  0  0  0  0
  6  7  1  0  0  0  0
  6 13  1  0  0  0  0
  7  8  1  0  0  0  0
  7 16  1  0  0  0  0
  8  9  1  0  0  0  0
  8 17  1  0  0  0  0
  9 10  1  0  0  0  0
  9 20  1  0  0  0  0
 10 22  1  0  0  0  0
 10 23  1  0  0  0  0
 11  5  1  0  0  0  0
 14  6  1  0  0  0  0
 15  7  1  0  0  0  0
 18  8  1  0  0  0  0
 19  9  1  0  0  0  0
 21 10  1  0  0  0  0
M  END
