1,3
q = -1.0

 17 16  0  0  0  0  0  0  0  0999 V2000
   -1.4828    1.6477   -0.3353 S   0  0  0  0  0  1  0  0  0  0  0  0
   -2.6163    0.3742   -0.2007 C   0  0  0  0  0  3  0  0  0  0  0  0
   -1.9093   -1.1664    0.0720 S   0  0  0  0  0  1  0  0  0  0  0  0
   -3.9125    0.6176   -0.3069 O   0  0  0  0  0  0  0  0  0  0  0  0
   -4.8430   -0.4847   -0.1794 C   0  0  0  0  0  0  0  0  0  0  0  0
   -6.2621    0.0669   -0.2507 C   0  0  0  0  0  0  0  0  0  0  0  0
   -7.2582   -1.0988   -0.2359 C   0  0  0  0  0  0  0  0  0  0  0  0
   -8.2980   -0.7258   -0.3210 H   0  0  0  0  0  0  0  0  0  0  0  0
   -7.1872   -1.6724    0.7125 H   0  0  0  0  0  0  0  0  0  0  0  0
   -7.0825   -1.8050   -1.0730 H   0  0  0  0  0  0  0  0  0  0  0  0
   -6.5323    1.0704    0.8757 C   0  0  0  0  0  0  0  0  0  0  0  0
   -7.5474    1.5055    0.7835 H   0  0  0  0  0  0  0  0  0  0  0  0
   -5.7984    1.8995    0.8575 H   0  0  0  0  0  0  0  0  0  0  0  0
   -6.4654    0.5761    1.8684 H   0  0  0  0  0  0  0  0  0  0  0  0
   -6.3531    0.5968   -1.2254 H   0  0  0  0  0  0  0  0  0  0  0  0
   -4.6518   -0.9973    0.7899 H   0  0  0  0  0  0  0  0  0  0  0  0
   -4.6375   -1.2116   -0.9945 H   0  0  0  0  0  0  0  0  0  0  0  0
  1  2  1  0  0  0  0
  2  3  1  0  0  0  0
  4  2  1  0  0  0  0
  4  5  1  0  0  0  0
  5 16  1  0  0  0  0
  6  7  1  0  0  0  0
  6  5  1  0  0  0  0
  6 11  1  0  0  0  0
  7  9  1  0  0  0  0
  8  7  1  0  0  0  0
 10  7  1  0  0  0  0
 11 14  1  0  0  0  0
 12 11  1  0  0  0  0
 13 11  1  0  0  0  0
 15  6  1  0  0  0  0
 17  5  1  0  0  0  0
M  END
