1,2
q = -1.0

 20 19  0  0  0  0  0  0  0  0999 V2000
    2.2646   -1.8386   -0.4794 S   0  0  0  0  0  1  0  0  0  0  0  0
    1.5433    0.9363   -0.4212 S   0  0  0  0  0  1  0  0  0  0  0  0
    4.0443    0.1844   -0.7816 O   0  0  0  0  0  0  0  0  0  0  0  0
    2.7989   -0.2211   -0.5922 C   0  0  0  0  0  3  0  0  0  0  0  0
    6.4286   -0.1003   -0.8474 C   0  0  0  0  0  0  0  0  0  0  0  0
    5.0911   -0.8139   -0.9026 C   0  0  0  0  0  0  0  0  0  0  0  0
    6.6983    0.6908    0.4470 C   0  0  0  0  0  0  0  0  0  0  0  0
    8.0275    1.4462    0.3352 C   0  0  0  0  0  0  0  0  0  0  0  0
    6.6713   -0.2004    1.6950 C   0  0  0  0  0  0  0  0  0  0  0  0
    4.9459   -1.3536   -1.8624 H   0  0  0  0  0  0  0  0  0  0  0  0
    4.9663   -1.5508   -0.0811 H   0  0  0  0  0  0  0  0  0  0  0  0
    7.2182   -0.8722   -0.9865 H   0  0  0  0  0  0  0  0  0  0  0  0
    6.5047    0.5832   -1.7201 H   0  0  0  0  0  0  0  0  0  0  0  0
    5.8817    1.4406    0.5432 H   0  0  0  0  0  0  0  0  0  0  0  0
    7.4380   -1.0023    1.6296 H   0  0  0  0  0  0  0  0  0  0  0  0
    6.8868    0.3917    2.6072 H   0  0  0  0  0  0  0  0  0  0  0  0
    5.6862   -0.6855    1.8486 H   0  0  0  0  0  0  0  0  0  0  0  0
    8.8790    0.7396    0.2337 H   0  0  0  0  0  0  0  0  0  0  0  0
    8.2148    2.0669    1.2347 H   0  0  0  0  0  0  0  0  0  0  0  0
    8.0424    2.1173   -0.5480 H   0  0  0  0  0  0  0  0  0  0  0  0
  3  4  1  0  0  0  0
  4  1  1  0  0  0  0
  4  2  1  0  0  0  0
  5  7  1  0  0  0  0
  6  5  1  0  0  0  0
  6  3  1  0  0  0  0
  6 11  1  0  0  0  0
  7 14  1  0  0  0  0
  7  9  1  0  0  0  0
  8  7  1  0  0  0  0
  8 19  1  0  0  0  0
  9 17  1  0  0  0  0
  9 16  1  0  0  0  0
 10  6  1  0  0  0  0
 12  5  1  0  0  0  0
 13  5  1  0  0  0  0
 15  9  1  0  0  0  0
 18  8  1  0  0  0  0
 20  8  1  0  0  0  0
M  END
