1,2
q = -2.0, confidence = 0.724

 20 22  0  0  0  0  0  0  0  0999 V2000
   -1.1145    1.5002   -0.4806 S   0  0  0  0  0  1  0  0  0  0  0  0
   -1.2884   -1.7970   -1.0949 S   0  0  0  0  0  1  0  0  0  0  0  0
   -2.8096    1.1570   -0.1328 C   0  0  0  0  0  0  0  0  0  0  0  0
   -3.5582    2.2979    0.2413 C   0  0  0  0  0  0  0  0  0  0  0  0
   -4.9533    2.2795    0.4688 C   0  0  0  0  0  0  0  0  0  0  0  0
   -5.6400    1.0736    0.3318 C   0  0  0  0  0  0  0  0  0  0  0  0
   -4.8848   -0.0797   -0.0433 C   0  0  0  0  0  0  0  0  0  0  0  0
   -5.7757   -1.1868   -0.1749 C   0  0  0  0  0  0  0  0  0  0  0  0
   -5.2335   -2.4058   -0.5826 C   0  0  0  0  0  0  0  0  0  0  0  0
   -3.8432   -2.4880   -0.8197 C   0  0  0  0  0  0  0  0  0  0  0  0
   -2.9563   -1.3932   -0.6837 C   0  0  0  0  0  0  0  0  0  0  0  0
   -3.4877   -0.1097   -0.2843 C   0  0  0  0  0  0  0  0  0  0  0  0
   -7.0350    0.6492    0.4526 C   0  0  0  0  0  0  0  0  0  0  0  0
   -7.1158   -0.6972    0.1496 C   0  0  0  0  0  0  0  0  0  0  0  0
   -3.0096    3.2451    0.3584 H   0  0  0  0  0  0  0  0  0  0  0  0
   -5.4673    3.2109    0.7555 H   0  0  0  0  0  0  0  0  0  0  0  0
   -5.8572   -3.3050   -0.7104 H   0  0  0  0  0  0  0  0  0  0  0  0
   -3.4085   -3.4560   -1.1130 H   0  0  0  0  0  0  0  0  0  0  0  0
   -7.8724    1.3043    0.7278 H   0  0  0  0  0  0  0  0  0  0  0  0
   -8.0297   -1.3062    0.1389 H   0  0  0  0  0  0  0  0  0  0  0  0
  1  3  1  0  0  0  0
  2 11  1  0  0  0  0
  3  4  1  0  0  0  0
  4 15  1  0  0  0  0
  4  5  2  0  0  0  0
  5 16  1  0  0  0  0
  6 13  1  0  0  0  0
  6  5  1  0  0  0  0
  7  6  2  0  0  0  0
  8  7  1  0  0  0  0
  8 14  1  0  0  0  0
  9  8  2  0  0  0  0
 10 11  2  0  0  0  0
 10  9  1  0  0  0  0
 11 12  1  0  0  0  0
 12  3  2  0  0  0  0
 12  7  1  0  0  0  0
 13 19  1  0  0  0  0
 14 13  2  0  0  0  0
 17  9  1  0  0  0  0
 18 10  1  0  0  0  0
 20 14  1  0  0  0  0
M  END
