2,3
q = 0.0, confidence = 0.546

 17 17  0  0  0  0  0  0  0  0999 V2000
    9.6208   -1.8679   -0.0533 N   0  0  0  0  0  0  0  0  0  0  0  0
    0.1495   -2.5167   -0.4772 S   0  0  0  0  0  1  0  0  0  0  0  0
    1.9746    0.1003    0.1787 S   0  0  0  0  0  1  0  0  0  0  0  0
    1.8841   -2.5779   -0.3702 C   0  0  0  0  0  0  0  0  0  0  0  0
    2.3107   -3.5753   -0.5651 H   0  0  0  0  0  0  0  0  0  0  0  0
    2.6945   -1.4986   -0.1308 C   0  0  0  0  0  0  0  0  0  0  0  0
    4.1650   -1.5825   -0.1051 C   0  0  0  0  0  0  0  0  0  0  0  0
    4.8403   -2.8214    0.0631 C   0  0  0  0  0  0  0  0  0  0  0  0
    4.2574   -3.7411    0.2134 H   0  0  0  0  0  0  0  0  0  0  0  0
    6.2311   -2.9004    0.0715 C   0  0  0  0  0  0  0  0  0  0  0  0
    6.7286   -3.8716    0.2073 H   0  0  0  0  0  0  0  0  0  0  0  0
    7.0181   -1.7309   -0.0778 C   0  0  0  0  0  0  0  0  0  0  0  0
    6.3612   -0.4869   -0.2327 C   0  0  0  0  0  0  0  0  0  0  0  0
    6.9594    0.4287   -0.3477 H   0  0  0  0  0  0  0  0  0  0  0  0
    4.9682   -0.4201   -0.2432 C   0  0  0  0  0  0  0  0  0  0  0  0
    4.4705    0.5525   -0.3703 H   0  0  0  0  0  0  0  0  0  0  0  0
    8.4466   -1.8062   -0.0634 C   0  0  0  0  0  0  0  0  0  0  0  0
  2  4  1  0  0  0  0
  4  6  2  0  0  0  0
  5  4  1  0  0  0  0
  6  7  1  0  0  0  0
  6  3  1  0  0  0  0
  7  8  1  0  0  0  0
  8 10  2  0  0  0  0
  8  9  1  0  0  0  0
 10 11  1  0  0  0  0
 12 17  1  0  0  0  0
 12 10  1  0  0  0  0
 13 12  2  0  0  0  0
 14 13  1  0  0  0  0
 15 13  1  0  0  0  0
 15  7  2  0  0  0  0
 16 15  1  0  0  0  0
 17  1  3  0  0  0  0
M  END
