1,2
q = 0.0, confidence = 0.53

 15 15  0  0  0  0  0  0  0  0999 V2000
   -1.3613   -1.9545    0.2268 S   0  0  0  0  0  1  0  0  0  0  0  0
   -1.9207    1.3859   -0.2617 S   0  0  0  0  0  1  0  0  0  0  0  0
   -4.4537   -2.0983    0.0745 S   0  0  0  0  0  0  0  0  0  0  0  0
   -6.6448   -0.5076   -0.2135 O   0  0  0  0  0  0  0  0  0  0  0  0
   -4.5276    0.4749   -0.2556 N   0  0  0  0  0  0  0  0  0  0  0  0
   -2.9305   -1.1928    0.0389 C   0  0  0  0  0  0  0  0  0  0  0  0
   -3.1640    0.1430   -0.1444 C   0  0  0  0  0  0  0  0  0  0  0  0
   -5.4224   -0.5798   -0.1545 C   0  0  0  0  0  0  0  0  0  0  0  0
   -5.0230    1.8370   -0.4123 C   0  0  0  0  0  0  0  0  0  0  0  0
   -4.3534    2.3580   -1.1290 H   0  0  0  0  0  0  0  0  0  0  0  0
   -6.0278    1.7456   -0.8709 H   0  0  0  0  0  0  0  0  0  0  0  0
   -5.0975    2.6002    0.9108 C   0  0  0  0  0  0  0  0  0  0  0  0
   -4.0944    2.6671    1.3774 H   0  0  0  0  0  0  0  0  0  0  0  0
   -5.4718    3.6308    0.7417 H   0  0  0  0  0  0  0  0  0  0  0  0
   -5.7853    2.0908    1.6148 H   0  0  0  0  0  0  0  0  0  0  0  0
  2  7  1  0  0  0  0
  4  8  2  0  0  0  0
  5  8  1  0  0  0  0
  5  7  1  0  0  0  0
  6  3  1  0  0  0  0
  6  1  1  0  0  0  0
  7  6  2  0  0  0  0
  8  3  1  0  0  0  0
  9  5  1  0  0  0  0
  9 12  1  0  0  0  0
 10  9  1  0  0  0  0
 11  9  1  0  0  0  0
 12 13  1  0  0  0  0
 12 15  1  0  0  0  0
 14 12  1  0  0  0  0
M  END
