1,2
q = -1.0

 38 39  0  0  0  0  0  0  0  0999 V2000
    1.8629   -1.0233    0.9795 S   0  0  0  0  0  1  0  0  0  0  0  0
    1.8438    1.0552   -1.1501 S   0  0  0  0  0  1  0  0  0  0  0  0
    4.1205    0.0432   -0.1024 N   0  0  0  0  0  0  0  0  0  0  0  0
    2.7656    0.0208   -0.0858 C   0  0  0  0  0  3  0  0  0  0  0  0
    4.8399    0.9483   -1.0248 C   0  0  0  0  0  0  0  0  0  0  0  0
    5.6707    0.1828   -2.0673 C   0  0  0  0  0  0  0  0  0  0  0  0
    6.3364    1.1585   -3.0480 C   0  0  0  0  0  0  0  0  0  0  0  0
    7.1770    2.2104   -2.3131 C   0  0  0  0  0  0  0  0  0  0  0  0
    6.3375    2.9661   -1.2751 C   0  0  0  0  0  0  0  0  0  0  0  0
    5.6719    2.0048   -0.2800 C   0  0  0  0  0  0  0  0  0  0  0  0
    4.9832   -0.8009    0.7622 C   0  0  0  0  0  0  0  0  0  0  0  0
    4.8634   -0.4744    2.2614 C   0  0  0  0  0  0  0  0  0  0  0  0
    5.8858   -1.2846    3.0690 C   0  0  0  0  0  0  0  0  0  0  0  0
    5.7538   -2.7888    2.7979 C   0  0  0  0  0  0  0  0  0  0  0  0
    5.8898   -3.0939    1.3005 C   0  0  0  0  0  0  0  0  0  0  0  0
    4.8673   -2.3074    0.4698 C   0  0  0  0  0  0  0  0  0  0  0  0
    4.0458    1.4914   -1.5777 H   0  0  0  0  0  0  0  0  0  0  0  0
    6.4582   -0.4210   -1.5633 H   0  0  0  0  0  0  0  0  0  0  0  0
    5.0112   -0.5294   -2.6046 H   0  0  0  0  0  0  0  0  0  0  0  0
    5.5471    1.6708   -3.6420 H   0  0  0  0  0  0  0  0  0  0  0  0
    6.9590    0.5973   -3.7752 H   0  0  0  0  0  0  0  0  0  0  0  0
    8.0274    1.7066   -1.7999 H   0  0  0  0  0  0  0  0  0  0  0  0
    7.6268    2.9208   -3.0375 H   0  0  0  0  0  0  0  0  0  0  0  0
    5.5482    3.5505   -1.7983 H   0  0  0  0  0  0  0  0  0  0  0  0
    6.9608    3.7037   -0.7284 H   0  0  0  0  0  0  0  0  0  0  0  0
    5.0134    2.5563    0.4223 H   0  0  0  0  0  0  0  0  0  0  0  0
    6.4597    1.5125    0.3328 H   0  0  0  0  0  0  0  0  0  0  0  0
    6.0155   -0.5154    0.4720 H   0  0  0  0  0  0  0  0  0  0  0  0
    3.8358   -0.7062    2.6073 H   0  0  0  0  0  0  0  0  0  0  0  0
    5.0155    0.6147    2.4098 H   0  0  0  0  0  0  0  0  0  0  0  0
    6.9166   -0.9565    2.8013 H   0  0  0  0  0  0  0  0  0  0  0  0
    5.7638   -1.0698    4.1510 H   0  0  0  0  0  0  0  0  0  0  0  0
    6.5122   -3.3547    3.3784 H   0  0  0  0  0  0  0  0  0  0  0  0
    4.7586   -3.1377    3.1526 H   0  0  0  0  0  0  0  0  0  0  0  0
    5.7706   -4.1808    1.1101 H   0  0  0  0  0  0  0  0  0  0  0  0
    6.9207   -2.8314    0.9686 H   0  0  0  0  0  0  0  0  0  0  0  0
    3.8400   -2.6504    0.7073 H   0  0  0  0  0  0  0  0  0  0  0  0
    5.0221   -2.4803   -0.6153 H   0  0  0  0  0  0  0  0  0  0  0  0
  2  4  1  0  0  0  0
  3  4  1  0  0  0  0
  3 11  1  0  0  0  0
  4  1  1  0  0  0  0
  5 10  1  0  0  0  0
  5  3  1  0  0  0  0
  6 18  1  0  0  0  0
  6  5  1  0  0  0  0
  7  8  1  0  0  0  0
  7  6  1  0  0  0  0
  8 22  1  0  0  0  0
  8  9  1  0  0  0  0
  9 25  1  0  0  0  0
  9 10  1  0  0  0  0
 10 27  1  0  0  0  0
 10 26  1  0  0  0  0
 11 12  1  0  0  0  0
 12 30  1  0  0  0  0
 12 29  1  0  0  0  0
 12 13  1  0  0  0  0
 13 32  1  0  0  0  0
 14 13  1  0  0  0  0
 14 34  1  0  0  0  0
 14 33  1  0  0  0  0
 15 14  1  0  0  0  0
 16 37  1  0  0  0  0
 16 11  1  0  0  0  0
 16 15  1  0  0  0  0
 17  5  1  0  0  0  0
 19  6  1  0  0  0  0
 20  7  1  0  0  0  0
 21  7  1  0  0  0  0
 23  8  1  0  0  0  0
 24  9  1  0  0  0  0
 28 11  1  0  0  0  0
 31 13  1  0  0  0  0
 35 15  1  0  0  0  0
 36 15  1  0  0  0  0
 38 16  1  0  0  0  0
M  END
