1,2
q = -1.0

 15 14  0  0  0  0  0  0  0  0999 V2000
   -0.5203   -0.7545   -1.7957 S   0  0  0  0  0  1  0  0  0  0  0  0
   -0.0784   -1.2938    1.0052 S   0  0  0  0  0  1  0  0  0  0  0  0
    2.8952   -1.5388    1.2395 O   0  0  0  0  0  0  0  0  0  0  0  0
    4.1492   -1.3167   -0.6705 O   0  0  0  0  0  0  0  0  0  0  0  0
    1.9351   -1.1885   -0.8496 N   0  0  0  0  0  0  0  0  0  0  0  0
    0.5951   -1.1117   -0.5495 C   0  0  0  0  0  3  0  0  0  0  0  0
    2.9941   -1.3656    0.0426 C   0  0  0  0  0  0  0  0  0  0  0  0
    5.3618   -1.5159    0.0901 C   0  0  0  0  0  0  0  0  0  0  0  0
    5.8406   -0.2320    0.7460 C   0  0  0  0  0  0  0  0  0  0  0  0
    2.1894   -1.0181   -1.8274 H   0  0  0  0  0  0  0  0  0  0  0  0
    5.1786   -2.3031    0.8495 H   0  0  0  0  0  0  0  0  0  0  0  0
    6.0919   -1.8922   -0.6526 H   0  0  0  0  0  0  0  0  0  0  0  0
    6.8173   -0.4041    1.2413 H   0  0  0  0  0  0  0  0  0  0  0  0
    5.9695    0.5748   -0.0028 H   0  0  0  0  0  0  0  0  0  0  0  0
    5.1191    0.1025    1.5159 H   0  0  0  0  0  0  0  0  0  0  0  0
  1  6  1  0  0  0  0
  4  7  1  0  0  0  0
  4  8  1  0  0  0  0
  5  6  1  0  0  0  0
  5  7  1  0  0  0  0
  6  2  1  0  0  0  0
  7  3  2  0  0  0  0
  8  9  1  0  0  0  0
  8 11  1  0  0  0  0
  9 13  1  0  0  0  0
  9 15  1  0  0  0  0
 10  5  1  0  0  0  0
 12  8  1  0  0  0  0
 14  9  1  0  0  0  0
M  END
