1,2
q = -1.0

 25 25  0  0  0  0  0  0  0  0999 V2000
   -1.4911    1.3700    0.9556 S   0  0  0  0  0  1  0  0  0  0  0  0
   -1.5995    0.0016   -1.5713 S   0  0  0  0  0  1  0  0  0  0  0  0
   -2.3853    1.0514   -0.4743 C   0  0  0  0  0  3  0  0  0  0  0  0
   -3.5784    1.5454   -0.7629 O   0  0  0  0  0  0  0  0  0  0  0  0
   -4.2283    2.4190    0.1924 C   0  0  0  0  0  0  0  0  0  0  0  0
   -4.2009    1.9333    1.1910 H   0  0  0  0  0  0  0  0  0  0  0  0
   -3.6465    3.3643    0.2472 H   0  0  0  0  0  0  0  0  0  0  0  0
   -5.6579    2.6542   -0.2809 C   0  0  0  0  0  0  0  0  0  0  0  0
   -5.6204    3.0747   -1.3083 H   0  0  0  0  0  0  0  0  0  0  0  0
   -6.0872    3.4442    0.3693 H   0  0  0  0  0  0  0  0  0  0  0  0
   -6.5275    1.4176   -0.2368 C   0  0  0  0  0  0  0  0  0  0  0  0
   -7.4447    1.2130    0.8080 C   0  0  0  0  0  0  0  0  0  0  0  0
   -7.5579    1.9835    1.5880 H   0  0  0  0  0  0  0  0  0  0  0  0
   -8.2312    0.0516    0.8872 C   0  0  0  0  0  0  0  0  0  0  0  0
   -8.9388   -0.0636    1.7189 H   0  0  0  0  0  0  0  0  0  0  0  0
   -8.1018   -0.9438   -0.1019 C   0  0  0  0  0  0  0  0  0  0  0  0
   -7.1832   -0.7528   -1.1575 C   0  0  0  0  0  0  0  0  0  0  0  0
   -7.0955   -1.5399   -1.9202 H   0  0  0  0  0  0  0  0  0  0  0  0
   -6.4118    0.4083   -1.2199 C   0  0  0  0  0  0  0  0  0  0  0  0
   -5.6936    0.5348   -2.0437 H   0  0  0  0  0  0  0  0  0  0  0  0
   -8.8107   -2.1061   -0.1275 O   0  0  0  0  0  0  0  0  0  0  0  0
   -9.7392   -2.3480    0.9108 C   0  0  0  0  0  0  0  0  0  0  0  0
  -10.5438   -1.5784    0.9381 H   0  0  0  0  0  0  0  0  0  0  0  0
  -10.1942   -3.3342    0.7022 H   0  0  0  0  0  0  0  0  0  0  0  0
   -9.2477   -2.3817    1.9095 H   0  0  0  0  0  0  0  0  0  0  0  0
  2  3  1  0  0  0  0
  3  1  1  0  0  0  0
  4  3  1  0  0  0  0
  4  5  1  0  0  0  0
  5  7  1  0  0  0  0
  5  6  1  0  0  0  0
  8 11  1  0  0  0  0
  8  5  1  0  0  0  0
  8 10  1  0  0  0  0
  9  8  1  0  0  0  0
 11 12  1  0  0  0  0
 12 14  2  0  0  0  0
 12 13  1  0  0  0  0
 14 15  1  0  0  0  0
 16 14  1  0  0  0  0
 17 16  2  0  0  0  0
 18 17  1  0  0  0  0
 19 17  1  0  0  0  0
 19 11  2  0  0  0  0
 20 19  1  0  0  0  0
 21 16  1  0  0  0  0
 21 22  1  0  0  0  0
 22 23  1  0  0  0  0
 22 25  1  0  0  0  0
 24 22  1  0  0  0  0
M  END
