1,2
q = 0.0, confidence = 0.998

 32 33  0  0  0  0  0  0  0  0999 V2000
    2.1960    2.3064    0.1932 S   0  0  0  0  0  0  0  0  0  0  0  0
    1.0500   -0.0824   -2.1063 S   0  0  0  0  0  0  0  0  0  0  0  0
    3.3805   -0.8700    0.5203 N   0  0  0  0  0  0  0  0  0  0  0  0
    2.9606   -0.0540    1.6518 C   0  0  0  0  0  0  0  0  0  0  0  0
    3.1476    1.4630    1.5126 C   0  0  0  0  0  0  0  0  0  0  0  0
    3.1089    1.7526   -1.3106 C   0  0  0  0  0  0  0  0  0  0  0  0
    2.2158    1.2880   -2.4535 C   0  0  0  0  0  0  0  0  0  0  0  0
    2.1430   -1.4813   -1.6284 C   0  0  0  0  0  0  0  0  0  0  0  0
    2.4017   -1.7232   -0.1299 C   0  0  0  0  0  0  0  0  0  0  0  0
    4.7504   -1.1629    0.3525 C   0  0  0  0  0  0  0  0  0  0  0  0
    5.1920   -2.1091   -0.6105 C   0  0  0  0  0  0  0  0  0  0  0  0
    6.5555   -2.3866   -0.7789 C   0  0  0  0  0  0  0  0  0  0  0  0
    7.5266   -1.7404   -0.0020 C   0  0  0  0  0  0  0  0  0  0  0  0
    7.1039   -0.8151    0.9626 C   0  0  0  0  0  0  0  0  0  0  0  0
    5.7445   -0.5273    1.1426 C   0  0  0  0  0  0  0  0  0  0  0  0
    1.8869   -0.2540    1.8385 H   0  0  0  0  0  0  0  0  0  0  0  0
    3.5026   -0.3659    2.5760 H   0  0  0  0  0  0  0  0  0  0  0  0
    4.2075    1.7456    1.3610 H   0  0  0  0  0  0  0  0  0  0  0  0
    2.8132    1.9583    2.4472 H   0  0  0  0  0  0  0  0  0  0  0  0
    3.7109    2.6158   -1.6609 H   0  0  0  0  0  0  0  0  0  0  0  0
    3.8008    0.9485   -0.9984 H   0  0  0  0  0  0  0  0  0  0  0  0
    2.8475    0.9757   -3.3111 H   0  0  0  0  0  0  0  0  0  0  0  0
    1.5559    2.1026   -2.8177 H   0  0  0  0  0  0  0  0  0  0  0  0
    1.6329   -2.3712   -2.0510 H   0  0  0  0  0  0  0  0  0  0  0  0
    3.0858   -1.3545   -2.1964 H   0  0  0  0  0  0  0  0  0  0  0  0
    2.7053   -2.7920   -0.0297 H   0  0  0  0  0  0  0  0  0  0  0  0
    1.4385   -1.6219    0.4107 H   0  0  0  0  0  0  0  0  0  0  0  0
    4.4768   -2.6583   -1.2353 H   0  0  0  0  0  0  0  0  0  0  0  0
    6.8562   -3.1296   -1.5329 H   0  0  0  0  0  0  0  0  0  0  0  0
    8.5947   -1.9589   -0.1413 H   0  0  0  0  0  0  0  0  0  0  0  0
    7.8426   -0.3044    1.5987 H   0  0  0  0  0  0  0  0  0  0  0  0
    5.4705    0.1911    1.9247 H   0  0  0  0  0  0  0  0  0  0  0  0
  1  5  1  0  0  0  0
  2  8  1  0  0  0  0
  3  4  1  0  0  0  0
  4 16  1  0  0  0  0
  4 17  1  0  0  0  0
  5  4  1  0  0  0  0
  5 19  1  0  0  0  0
  6 21  1  0  0  0  0
  6  1  1  0  0  0  0
  7  2  1  0  0  0  0
  7  6  1  0  0  0  0
  8  9  1  0  0  0  0
  9 26  1  0  0  0  0
  9 27  1  0  0  0  0
  9  3  1  0  0  0  0
 10  3  1  0  0  0  0
 10 15  1  0  0  0  0
 11 10  2  0  0  0  0
 12 11  1  0  0  0  0
 12 13  2  0  0  0  0
 13 14  1  0  0  0  0
 14 15  2  0  0  0  0
 14 31  1  0  0  0  0
 15 32  1  0  0  0  0
 18  5  1  0  0  0  0
 20  6  1  0  0  0  0
 22  7  1  0  0  0  0
 23  7  1  0  0  0  0
 24  8  1  0  0  0  0
 25  8  1  0  0  0  0
 28 11  1  0  0  0  0
 29 12  1  0  0  0  0
 30 13  1  0  0  0  0
M  END
