1,2
q = -1.0

 59 62  0  0  1  0  0  0  0  0999 V2000
    2.3606    1.6552   -0.0382 S   0  0  0  0  0  1  0  0  0  0  0  0
   -1.0777   -0.1484   -0.4879 S   0  0  0  0  0  1  0  0  0  0  0  0
    1.3010    0.0789    2.0262 N   0  0  0  0  0  0  0  0  0  0  0  0
    3.0897   -0.7423    1.0319 N   0  0  0  0  0  0  0  0  0  0  0  0
   -1.2416    0.1969    2.2722 N   0  0  0  0  0  0  0  0  0  0  0  0
   -3.0154   -0.7287    1.3450 N   0  0  0  0  0  0  0  0  0  0  0  0
    0.0968    0.9674    2.4563 B   0  0  0  0  0  0  0  0  0  0  0  0
    0.1971    1.2873    3.6346 H   0  0  0  0  0  0  0  0  0  0  0  0
    0.0778    1.9958    1.7638 H   0  0  0  0  0  0  0  0  0  0  0  0
    2.2131    0.3162    1.0392 C   0  0  2  0  0  3  0  0  0  0  0  0
    1.6108   -1.1312    2.6302 C   0  0  0  0  0  0  0  0  0  0  0  0
    1.0077   -1.5236    3.4537 H   0  0  0  0  0  0  0  0  0  0  0  0
    2.7225   -1.6508    2.0201 C   0  0  0  0  0  0  0  0  0  0  0  0
    3.2870   -2.5720    2.1862 H   0  0  0  0  0  0  0  0  0  0  0  0
   -1.7717   -0.2090    1.0843 C   0  0  2  0  0  3  0  0  0  0  0  0
   -2.1594   -0.0701    3.2780 C   0  0  0  0  0  0  0  0  0  0  0  0
   -1.9454    0.1906    4.3182 H   0  0  0  0  0  0  0  0  0  0  0  0
   -3.2671   -0.6491    2.7119 C   0  0  0  0  0  0  0  0  0  0  0  0
   -4.2087   -1.0021    3.1407 H   0  0  0  0  0  0  0  0  0  0  0  0
    4.1551   -0.9223    0.0858 C   0  0  0  0  0  0  0  0  0  0  0  0
    3.8496   -1.5037   -1.1654 C   0  0  0  0  0  0  0  0  0  0  0  0
    4.9088   -1.6898   -2.0681 C   0  0  0  0  0  0  0  0  0  0  0  0
    4.6925   -2.1409   -3.0499 H   0  0  0  0  0  0  0  0  0  0  0  0
    6.2295   -1.3098   -1.7569 C   0  0  0  0  0  0  0  0  0  0  0  0
    6.4806   -0.7204   -0.5048 C   0  0  0  0  0  0  0  0  0  0  0  0
    7.5054   -0.4052   -0.2516 H   0  0  0  0  0  0  0  0  0  0  0  0
    5.4560   -0.5090    0.4357 C   0  0  0  0  0  0  0  0  0  0  0  0
   -3.9491   -1.1379    0.3335 C   0  0  0  0  0  0  0  0  0  0  0  0
   -3.9918   -2.4918   -0.0523 C   0  0  0  0  0  0  0  0  0  0  0  0
   -4.9194   -2.8560   -1.0451 C   0  0  0  0  0  0  0  0  0  0  0  0
   -4.9712   -3.9099   -1.3620 H   0  0  0  0  0  0  0  0  0  0  0  0
   -5.7681   -1.9109   -1.6491 C   0  0  0  0  0  0  0  0  0  0  0  0
   -5.6729   -0.5645   -1.2439 C   0  0  0  0  0  0  0  0  0  0  0  0
   -6.3203    0.1904   -1.7184 H   0  0  0  0  0  0  0  0  0  0  0  0
   -4.7675   -0.1470   -0.2550 C   0  0  0  0  0  0  0  0  0  0  0  0
    2.4308   -1.8612   -1.5162 C   0  0  0  0  0  0  0  0  0  0  0  0
    1.9538   -2.4912   -0.7380 H   0  0  0  0  0  0  0  0  0  0  0  0
    2.3781   -2.3969   -2.4823 H   0  0  0  0  0  0  0  0  0  0  0  0
    1.8099   -0.9430   -1.5919 H   0  0  0  0  0  0  0  0  0  0  0  0
    7.3379   -1.5179   -2.7579 C   0  0  0  0  0  0  0  0  0  0  0  0
    7.1705   -0.9076   -3.6700 H   0  0  0  0  0  0  0  0  0  0  0  0
    7.3910   -2.5763   -3.0868 H   0  0  0  0  0  0  0  0  0  0  0  0
    8.3248   -1.2389   -2.3416 H   0  0  0  0  0  0  0  0  0  0  0  0
    5.7180    0.1704    1.7544 C   0  0  0  0  0  0  0  0  0  0  0  0
    5.1584    1.1276    1.8171 H   0  0  0  0  0  0  0  0  0  0  0  0
    6.7939    0.3929    1.8824 H   0  0  0  0  0  0  0  0  0  0  0  0
    5.3877   -0.4476    2.6144 H   0  0  0  0  0  0  0  0  0  0  0  0
   -3.0415   -3.4920    0.5528 C   0  0  0  0  0  0  0  0  0  0  0  0
   -3.1014   -3.5047    1.6605 H   0  0  0  0  0  0  0  0  0  0  0  0
   -1.9920   -3.2370    0.2925 H   0  0  0  0  0  0  0  0  0  0  0  0
   -3.2479   -4.5141    0.1837 H   0  0  0  0  0  0  0  0  0  0  0  0
   -6.7550   -2.3166   -2.7147 C   0  0  0  0  0  0  0  0  0  0  0  0
   -7.7962   -2.0876   -2.4057 H   0  0  0  0  0  0  0  0  0  0  0  0
   -6.6968   -3.3992   -2.9376 H   0  0  0  0  0  0  0  0  0  0  0  0
   -6.5733   -1.7633   -3.6594 H   0  0  0  0  0  0  0  0  0  0  0  0
   -4.6426    1.2971    0.1525 C   0  0  0  0  0  0  0  0  0  0  0  0
   -3.6312    1.6983   -0.0725 H   0  0  0  0  0  0  0  0  0  0  0  0
   -4.7948    1.4302    1.2437 H   0  0  0  0  0  0  0  0  0  0  0  0
   -5.3819    1.9265   -0.3767 H   0  0  0  0  0  0  0  0  0  0  0  0
  3  7  1  0  0  0  0
  3 11  1  0  0  0  0
  4 10  1  0  0  0  0
  4 13  1  0  0  0  0
  5  7  1  0  0  0  0
  5 16  1  0  0  0  0
  6 18  1  0  0  0  0
  7  8  1  0  0  0  0
  9  7  1  0  0  0  0
 10  1  1  1  0  0  0
 10  3  1  0  0  0  0
 11 12  1  0  0  0  0
 13 14  1  0  0  0  0
 13 11  2  0  0  0  0
 15  2  1  1  0  0  0
 15  6  1  0  0  0  0
 15  5  1  0  0  0  0
 16 17  1  0  0  0  0
 18 19  1  0  0  0  0
 18 16  2  0  0  0  0
 20 27  1  0  0  0  0
 20  4  1  0  0  0  0
 21 20  2  0  0  0  0
 22 24  2  0  0  0  0
 22 21  1  0  0  0  0
 23 22  1  0  0  0  0
 24 25  1  0  0  0  0
 25 26  1  0  0  0  0
 25 27  2  0  0  0  0
 27 44  1  0  0  0  0
 28  6  1  0  0  0  0
 29 28  1  0  0  0  0
 29 48  1  0  0  0  0
 30 29  2  0  0  0  0
 31 30  1  0  0  0  0
 32 33  2  0  0  0  0
 32 30  1  0  0  0  0
 33 35  1  0  0  0  0
 34 33  1  0  0  0  0
 35 56  1  0  0  0  0
 35 28  2  0  0  0  0
 36 21  1  0  0  0  0
 36 37  1  0  0  0  0
 38 36  1  0  0  0  0
 39 36  1  0  0  0  0
 40 43  1  0  0  0  0
 40 24  1  0  0  0  0
 41 40  1  0  0  0  0
 42 40  1  0  0  0  0
 44 45  1  0  0  0  0
 44 46  1  0  0  0  0
 44 47  1  0  0  0  0
 48 49  1  0  0  0  0
 50 48  1  0  0  0  0
 51 48  1  0  0  0  0
 52 53  1  0  0  0  0
 52 32  1  0  0  0  0
 54 52  1  0  0  0  0
 55 52  1  0  0  0  0
 56 58  1  0  0  0  0
 57 56  1  0  0  0  0
 59 56  1  0  0  0  0
M  END
