1,2
q = -1.0, confidence = 0.0

 17 17  0  0  0  0  0  0  0  0999 V2000
   -1.8436   -0.9549    1.3079 S   0  0  0  0  0  1  0  0  0  0  0  0
   -1.9867   -0.3433   -1.6147 S   0  0  0  0  0  1  0  0  0  0  0  0
   -4.7497   -1.7336    1.0202 C   0  0  0  0  0  0  0  0  0  0  0  0
   -5.3707   -2.6327    0.8221 H   0  0  0  0  0  0  0  0  0  0  0  0
   -4.0062   -1.9750    1.8054 H   0  0  0  0  0  0  0  0  0  0  0  0
   -6.9022   -0.1405    0.2056 S   0  0  0  0  0  0  0  0  0  0  0  0
   -5.6392   -0.5692    1.4629 C   0  0  0  0  0  0  0  0  0  0  0  0
   -5.0063    0.3144    1.6934 H   0  0  0  0  0  0  0  0  0  0  0  0
   -6.2039   -0.8349    2.3789 H   0  0  0  0  0  0  0  0  0  0  0  0
   -4.8776   -1.2410   -1.3849 C   0  0  0  0  0  0  0  0  0  0  0  0
   -4.2166   -1.1342   -2.2681 H   0  0  0  0  0  0  0  0  0  0  0  0
   -5.4927   -2.1590   -1.4948 H   0  0  0  0  0  0  0  0  0  0  0  0
   -5.7815   -0.0148   -1.2401 C   0  0  0  0  0  0  0  0  0  0  0  0
   -5.1551    0.8998   -1.1667 H   0  0  0  0  0  0  0  0  0  0  0  0
   -6.4417    0.0914   -2.1241 H   0  0  0  0  0  0  0  0  0  0  0  0
   -4.0252   -1.3953   -0.2053 N   0  0  0  0  0  0  0  0  0  0  0  0
   -2.7412   -0.9401   -0.1878 C   0  0  0  0  0  3  0  0  0  0  0  0
  2 17  1  0  0  0  0
  3  7  1  0  0  0  0
  3  5  1  0  0  0  0
  4  3  1  0  0  0  0
  6  7  1  0  0  0  0
  7  8  1  0  0  0  0
  7  9  1  0  0  0  0
 10 13  1  0  0  0  0
 10 16  1  0  0  0  0
 11 10  1  0  0  0  0
 12 10  1  0  0  0  0
 13 14  1  0  0  0  0
 13  6  1  0  0  0  0
 15 13  1  0  0  0  0
 16 17  1  0  0  0  0
 16  3  1  0  0  0  0
 17  1  1  0  0  0  0
M  END
