1,2
q = 0.0, confidence = 0.75

 14 13  0  0  0  0  0  0  0  0999 V2000
    1.1634   -1.5499   -0.0241 S   0  0  0  0  0  1  0  0  0  0  0  0
    1.1634    1.5499    0.0241 S   0  0  0  0  0  1  0  0  0  0  0  0
    4.2112   -1.5557   -0.0417 S   0  0  0  0  0  0  0  0  0  0  0  0
    4.2112    1.5557    0.0418 S   0  0  0  0  0  0  0  0  0  0  0  0
    2.6675   -0.7057   -0.0140 C   0  0  0  0  0  0  0  0  0  0  0  0
    2.6675    0.7057    0.0141 C   0  0  0  0  0  0  0  0  0  0  0  0
    3.6961   -3.2952   -0.0370 C   0  0  0  0  0  0  0  0  0  0  0  0
    3.6961    3.2952    0.0370 C   0  0  0  0  0  0  0  0  0  0  0  0
    4.6356   -3.8797   -0.0425 H   0  0  0  0  0  0  0  0  0  0  0  0
    3.1093   -3.5321    0.8718 H   0  0  0  0  0  0  0  0  0  0  0  0
    3.0981   -3.5342   -0.9378 H   0  0  0  0  0  0  0  0  0  0  0  0
    3.1097    3.5322   -0.8720 H   0  0  0  0  0  0  0  0  0  0  0  0
    3.0977    3.5341    0.9376 H   0  0  0  0  0  0  0  0  0  0  0  0
    4.6356    3.8797    0.0428 H   0  0  0  0  0  0  0  0  0  0  0  0
  1  5  1  0  0  0  0
  3  7  1  0  0  0  0
  3  5  1  0  0  0  0
  5  6  2  0  0  0  0
  6  2  1  0  0  0  0
  6  4  1  0  0  0  0
  7 10  1  0  0  0  0
  8  4  1  0  0  0  0
  8 14  1  0  0  0  0
  8 13  1  0  0  0  0
  9  7  1  0  0  0  0
 11  7  1  0  0  0  0
 12  8  1  0  0  0  0
M  END
