1,2
q = -1.0

 14 13  0  0  0  0  0  0  0  0999 V2000
    2.5322    0.7142   -1.1231 S   0  0  0  0  0  1  0  0  0  0  0  0
    2.1639    0.0709    1.8013 S   0  0  0  0  0  1  0  0  0  0  0  0
    4.4735    0.2895    0.6604 O   0  0  0  0  0  0  0  0  0  0  0  0
    3.1564    0.3500    0.4394 C   0  0  0  0  0  3  0  0  0  0  0  0
    5.4013    0.5514   -0.4128 C   0  0  0  0  0  0  0  0  0  0  0  0
    5.2282    1.5826   -0.7891 H   0  0  0  0  0  0  0  0  0  0  0  0
    5.1804   -0.1473   -1.2503 H   0  0  0  0  0  0  0  0  0  0  0  0
    6.8072    0.3624    0.1317 C   0  0  0  0  0  0  0  0  0  0  0  0
    6.9690    1.0908    0.9548 H   0  0  0  0  0  0  0  0  0  0  0  0
    7.5134    0.6460   -0.6781 H   0  0  0  0  0  0  0  0  0  0  0  0
    7.0874   -1.0597    0.6187 C   0  0  0  0  0  0  0  0  0  0  0  0
    6.3785   -1.3427    1.4219 H   0  0  0  0  0  0  0  0  0  0  0  0
    8.1159   -1.1549    1.0198 H   0  0  0  0  0  0  0  0  0  0  0  0
    6.9754   -1.7962   -0.2043 H   0  0  0  0  0  0  0  0  0  0  0  0
  1  4  1  0  0  0  0
  4  3  1  0  0  0  0
  4  2  1  0  0  0  0
  5  8  1  0  0  0  0
  5  3  1  0  0  0  0
  6  5  1  0  0  0  0
  7  5  1  0  0  0  0
  8 11  1  0  0  0  0
  8  9  1  0  0  0  0
 10  8  1  0  0  0  0
 11 13  1  0  0  0  0
 11 12  1  0  0  0  0
 14 11  1  0  0  0  0
M  END
