4,7
q = -2.0, confidence = 0.532

  7  7  0  0  0  0  0  0  0  0999 V2000
    4.6597    0.0000    0.0001 S   0  0  0  0  0  0  0  0  0  0  0  0
    2.3595    0.7251    0.0429 C   0  0  0  0  0  0  0  0  0  0  0  0
    3.5618    1.2751    0.0726 N   0  0  0  0  0  0  0  0  0  0  0  0
    0.8294    1.5736    0.0856 S   0  0  0  0  0  0  0  0  0  0  0  0
    2.3595   -0.7251   -0.0429 C   0  0  0  0  0  0  0  0  0  0  0  0
    3.5618   -1.2751   -0.0727 N   0  0  0  0  0  0  0  0  0  0  0  0
    0.8294   -1.5736   -0.0857 S   0  0  0  0  0  0  0  0  0  0  0  0
  1  3  1  0  0  0  0
  2  3  2  0  0  0  0
  2  4  1  0  0  0  0
  5  2  1  0  0  0  0
  6  5  2  0  0  0  0
  6  1  1  0  0  0  0
  7  5  1  0  0  0  0
M  END
