1,2
q = -1.0

 37 38  0  0  0  0  0  0  0  0999 V2000
    1.8046   -0.3610    1.8382 S   0  0  0  0  0  1  0  0  0  0  0  0
    1.7761   -0.3350   -1.3507 S   0  0  0  0  0  1  0  0  0  0  0  0
    2.6702   -1.2773    0.2249 P   0  0  0  0  0  4  0  0  0  0  0  0
    8.6207   -0.6935    0.4608 O   0  0  0  0  0  0  0  0  0  0  0  0
    2.4259   -2.9537    0.0423 N   0  0  0  0  0  0  0  0  0  0  0  0
    2.7532   -3.4806    0.8612 H   0  0  0  0  0  0  0  0  0  0  0  0
    4.4775   -1.1777    0.3279 C   0  0  0  0  0  0  0  0  0  0  0  0
    5.2923   -2.0655   -0.4015 C   0  0  0  0  0  0  0  0  0  0  0  0
    4.8217   -2.8705   -0.9852 H   0  0  0  0  0  0  0  0  0  0  0  0
    6.6874   -1.9385   -0.3816 C   0  0  0  0  0  0  0  0  0  0  0  0
    7.2998   -2.6463   -0.9557 H   0  0  0  0  0  0  0  0  0  0  0  0
    7.2845   -0.9047    0.3737 C   0  0  0  0  0  0  0  0  0  0  0  0
    6.4682   -0.0096    1.1042 C   0  0  0  0  0  0  0  0  0  0  0  0
    6.9573    0.7846    1.6862 H   0  0  0  0  0  0  0  0  0  0  0  0
    5.0821   -0.1419    1.0761 C   0  0  0  0  0  0  0  0  0  0  0  0
    4.4399    0.5492    1.6444 H   0  0  0  0  0  0  0  0  0  0  0  0
    9.4935   -1.5507   -0.2543 C   0  0  0  0  0  0  0  0  0  0  0  0
    9.3111   -1.5044   -1.3510 H   0  0  0  0  0  0  0  0  0  0  0  0
    9.4004   -2.6079    0.0802 H   0  0  0  0  0  0  0  0  0  0  0  0
   10.5193   -1.1961   -0.0447 H   0  0  0  0  0  0  0  0  0  0  0  0
    1.2338   -3.5034   -0.6005 C   0  0  0  0  0  0  0  0  0  0  0  0
    1.1854   -3.0744   -1.6219 H   0  0  0  0  0  0  0  0  0  0  0  0
    1.3931   -4.5957   -0.7206 H   0  0  0  0  0  0  0  0  0  0  0  0
   -0.1092   -3.2365    0.1096 C   0  0  0  0  0  0  0  0  0  0  0  0
   -0.2245   -2.1319    0.2037 H   0  0  0  0  0  0  0  0  0  0  0  0
   -0.0869   -3.6475    1.1400 H   0  0  0  0  0  0  0  0  0  0  0  0
   -1.2564   -3.8165   -0.6764 C   0  0  0  0  0  0  0  0  0  0  0  0
   -1.6106   -3.2526   -1.9227 C   0  0  0  0  0  0  0  0  0  0  0  0
   -1.0729   -2.3581   -2.2777 H   0  0  0  0  0  0  0  0  0  0  0  0
   -2.6464   -3.8013   -2.6925 C   0  0  0  0  0  0  0  0  0  0  0  0
   -2.9129   -3.3410   -3.6564 H   0  0  0  0  0  0  0  0  0  0  0  0
   -3.3465   -4.9312   -2.2345 C   0  0  0  0  0  0  0  0  0  0  0  0
   -4.1566   -5.3647   -2.8407 H   0  0  0  0  0  0  0  0  0  0  0  0
   -3.0013   -5.5041   -0.9996 C   0  0  0  0  0  0  0  0  0  0  0  0
   -3.5390   -6.3928   -0.6338 H   0  0  0  0  0  0  0  0  0  0  0  0
   -1.9654   -4.9494   -0.2302 C   0  0  0  0  0  0  0  0  0  0  0  0
   -1.7010   -5.4001    0.7397 H   0  0  0  0  0  0  0  0  0  0  0  0
  2  3  1  0  0  0  0
  3  7  1  0  0  0  0
  3  1  1  0  0  0  0
  5  3  1  0  0  0  0
  5  6  1  0  0  0  0
  7 15  1  0  0  0  0
  8 10  1  0  0  0  0
  8  7  2  0  0  0  0
  9  8  1  0  0  0  0
 10 12  2  0  0  0  0
 11 10  1  0  0  0  0
 12  4  1  0  0  0  0
 12 13  1  0  0  0  0
 13 14  1  0  0  0  0
 15 13  2  0  0  0  0
 15 16  1  0  0  0  0
 17 20  1  0  0  0  0
 17 19  1  0  0  0  0
 17  4  1  0  0  0  0
 18 17  1  0  0  0  0
 21  5  1  0  0  0  0
 21 24  1  0  0  0  0
 22 21  1  0  0  0  0
 23 21  1  0  0  0  0
 24 25  1  0  0  0  0
 24 26  1  0  0  0  0
 27 36  1  0  0  0  0
 27 24  1  0  0  0  0
 28 27  2  0  0  0  0
 29 28  1  0  0  0  0
 30 32  2  0  0  0  0
 30 28  1  0  0  0  0
 31 30  1  0  0  0  0
 32 34  1  0  0  0  0
 33 32  1  0  0  0  0
 34 35  1  0  0  0  0
 34 36  2  0  0  0  0
 36 37  1  0  0  0  0
M  END
