1,2
q = -1.0

 23 24  0  0  0  0  0  0  0  0999 V2000
    0.2915   -2.3619    0.8798 S   0  0  0  0  0  1  0  0  0  0  0  0
    1.4530    0.0726   -0.9305 S   0  0  0  0  0  0  0  0  0  0  0  0
    1.9361   -2.3815    0.2640 C   0  0  0  0  0  0  0  0  0  0  0  0
    2.5023   -1.3258   -0.4935 C   0  0  0  0  0  0  0  0  0  0  0  0
    3.8130   -1.3885   -1.0013 C   0  0  0  0  0  0  0  0  0  0  0  0
    4.2057   -0.5482   -1.5945 H   0  0  0  0  0  0  0  0  0  0  0  0
    4.6097   -2.5072   -0.7374 C   0  0  0  0  0  0  0  0  0  0  0  0
    5.6398   -2.5545   -1.1194 H   0  0  0  0  0  0  0  0  0  0  0  0
    4.0709   -3.5711    0.0160 C   0  0  0  0  0  0  0  0  0  0  0  0
    4.6858   -4.4595    0.2273 H   0  0  0  0  0  0  0  0  0  0  0  0
    2.7643   -3.5131    0.5026 C   0  0  0  0  0  0  0  0  0  0  0  0
    2.3515   -4.3449    1.0935 H   0  0  0  0  0  0  0  0  0  0  0  0
    2.4429    1.4803   -0.3906 C   0  0  0  0  0  0  0  0  0  0  0  0
    2.3712    2.6448   -1.1753 C   0  0  0  0  0  0  0  0  0  0  0  0
    1.7644    2.6484   -2.0932 H   0  0  0  0  0  0  0  0  0  0  0  0
    3.0737    3.7919   -0.7727 C   0  0  0  0  0  0  0  0  0  0  0  0
    3.0182    4.7059   -1.3832 H   0  0  0  0  0  0  0  0  0  0  0  0
    3.8515    3.7679    0.3952 C   0  0  0  0  0  0  0  0  0  0  0  0
    4.4056    4.6660    0.7069 H   0  0  0  0  0  0  0  0  0  0  0  0
    3.9282    2.5929    1.1635 C   0  0  0  0  0  0  0  0  0  0  0  0
    4.5380    2.5707    2.0792 H   0  0  0  0  0  0  0  0  0  0  0  0
    3.2246    1.4442    0.7775 C   0  0  0  0  0  0  0  0  0  0  0  0
    3.2784    0.5225    1.3742 H   0  0  0  0  0  0  0  0  0  0  0  0
  2  4  1  0  0  0  0
  2 13  1  0  0  0  0
  3 11  1  0  0  0  0
  3  1  1  0  0  0  0
  4  3  2  0  0  0  0
  5  7  2  0  0  0  0
  5  4  1  0  0  0  0
  6  5  1  0  0  0  0
  7  9  1  0  0  0  0
  8  7  1  0  0  0  0
  9 10  1  0  0  0  0
  9 11  2  0  0  0  0
 11 12  1  0  0  0  0
 13 22  1  0  0  0  0
 14 16  1  0  0  0  0
 14 13  2  0  0  0  0
 15 14  1  0  0  0  0
 16 18  2  0  0  0  0
 17 16  1  0  0  0  0
 18 19  1  0  0  0  0
 18 20  1  0  0  0  0
 20 21  1  0  0  0  0
 22 20  2  0  0  0  0
 22 23  1  0  0  0  0
M  END
