1,2
q = -1.0

 23 22  0  0  1  0  0  0  0  0999 V2000
   -1.0506    0.7390   -1.6301 S   0  0  0  0  0  1  0  0  0  0  0  0
   -1.7445   -1.8786    0.8768 S   0  0  0  0  0  1  0  0  0  0  0  0
   -3.2002    0.2698   -0.0140 N   0  0  0  0  0  2  0  0  0  0  0  0
   -2.5439    2.4644   -0.1761 N   0  0  0  0  0  0  0  0  0  0  0  0
   -4.2827   -1.7576    0.0378 N   0  0  0  0  0  0  0  0  0  0  0  0
   -2.3365    1.1477   -0.5042 C   0  0  2  0  0  3  0  0  0  0  0  0
   -3.1277   -1.0374    0.2157 C   0  0  2  0  0  3  0  0  0  0  0  0
   -1.7473    3.5530   -0.7025 C   0  0  0  0  0  0  0  0  0  0  0  0
   -2.3500    4.1960   -1.3827 H   0  0  0  0  0  0  0  0  0  0  0  0
   -0.8908    3.1320   -1.2604 H   0  0  0  0  0  0  0  0  0  0  0  0
   -1.3755    4.1868    0.1309 H   0  0  0  0  0  0  0  0  0  0  0  0
   -3.6043    2.8562    0.7357 C   0  0  0  0  0  0  0  0  0  0  0  0
   -3.1774    3.3235    1.6501 H   0  0  0  0  0  0  0  0  0  0  0  0
   -4.1820    1.9615    1.0245 H   0  0  0  0  0  0  0  0  0  0  0  0
   -4.2782    3.5976    0.2528 H   0  0  0  0  0  0  0  0  0  0  0  0
   -4.3970   -3.1667    0.3610 C   0  0  0  0  0  0  0  0  0  0  0  0
   -4.8894   -3.3218    1.3479 H   0  0  0  0  0  0  0  0  0  0  0  0
   -3.3913   -3.6239    0.3935 H   0  0  0  0  0  0  0  0  0  0  0  0
   -5.0078   -3.6724   -0.4149 H   0  0  0  0  0  0  0  0  0  0  0  0
   -5.5092   -1.1196   -0.4078 C   0  0  0  0  0  0  0  0  0  0  0  0
   -5.3235   -0.0422   -0.5553 H   0  0  0  0  0  0  0  0  0  0  0  0
   -6.3159   -1.2574    0.3458 H   0  0  0  0  0  0  0  0  0  0  0  0
   -5.8542   -1.5651   -1.3661 H   0  0  0  0  0  0  0  0  0  0  0  0
  3  7  1  0  0  0  0
  4 12  1  0  0  0  0
  5  7  1  0  0  0  0
  5 16  1  0  0  0  0
  6  1  1  6  0  0  0
  6  4  1  0  0  0  0
  6  3  1  0  0  0  0
  7  2  1  1  0  0  0
  8  4  1  0  0  0  0
  8 11  1  0  0  0  0
  9  8  1  0  0  0  0
 10  8  1  0  0  0  0
 12 14  1  0  0  0  0
 12 13  1  0  0  0  0
 15 12  1  0  0  0  0
 16 18  1  0  0  0  0
 16 17  1  0  0  0  0
 19 16  1  0  0  0  0
 20  5  1  0  0  0  0
 20 22  1  0  0  0  0
 21 20  1  0  0  0  0
 23 20  1  0  0  0  0
M  END
