1,2
q = -1.0

 11 10  0  0  0  0  0  0  0  0999 V2000
    0.8617   -0.7967   -2.5362 S   0  0  0  0  0  1  0  0  0  0  0  0
    2.3283   -1.8580    0.1957 S   0  0  0  0  0  1  0  0  0  0  0  0
    2.4110   -1.9523   -1.8517 P   0  0  0  0  0  4  0  0  0  0  0  0
    2.2245   -3.6824   -2.4062 C   0  0  0  0  0  0  0  0  0  0  0  0
    4.0184   -1.3775   -2.4974 C   0  0  0  0  0  0  0  0  0  0  0  0
    1.2655   -4.0495   -1.9887 H   0  0  0  0  0  0  0  0  0  0  0  0
    3.0666   -4.2911   -2.0205 H   0  0  0  0  0  0  0  0  0  0  0  0
    2.1962   -3.7179   -3.5135 H   0  0  0  0  0  0  0  0  0  0  0  0
    4.1693   -0.3294   -2.1763 H   0  0  0  0  0  0  0  0  0  0  0  0
    4.0061   -1.4308   -3.6044 H   0  0  0  0  0  0  0  0  0  0  0  0
    4.8292   -2.0172   -2.0953 H   0  0  0  0  0  0  0  0  0  0  0  0
  1  3  1  0  0  0  0
  3  2  1  0  0  0  0
  4  7  1  0  0  0  0
  4  6  1  0  0  0  0
  4  3  1  0  0  0  0
  5  9  1  0  0  0  0
  5 11  1  0  0  0  0
  5  3  1  0  0  0  0
  8  4  1  0  0  0  0
 10  5  1  0  0  0  0
M  END
