1,8
q = -1.0

 23 23  0  0  1  0  0  0  0  0999 V2000
    1.4893   -1.5909   -0.1031 S   0  0  0  0  0  1  0  0  0  0  0  0
    2.9619   -0.7397   -0.2225 C   0  0  1  0  0  3  0  0  0  0  0  0
    4.1588   -1.3813   -0.3068 N   0  0  0  0  0  0  0  0  0  0  0  0
    5.3831   -0.7494   -0.4122 C   0  0  0  0  0  0  0  0  0  0  0  0
    5.3587    0.6497   -0.4292 C   0  0  0  0  0  0  0  0  0  0  0  0
    4.1937    1.3438   -0.3495 N   0  0  0  0  0  0  0  0  0  0  0  0
    3.0278    0.7063   -0.2473 C   0  0  0  0  0  0  0  0  0  0  0  0
    1.5301    1.5729   -0.1446 S   0  0  0  0  0  1  0  0  0  0  0  0
    6.6112    1.4929   -0.4954 C   0  0  0  0  0  0  0  0  0  0  0  0
    6.8342    2.2926    0.7956 C   0  0  0  0  0  0  0  0  0  0  0  0
    7.0170    1.6218    1.6605 H   0  0  0  0  0  0  0  0  0  0  0  0
    5.9329    2.8962    1.0207 H   0  0  0  0  0  0  0  0  0  0  0  0
    7.7014    2.9760    0.7007 H   0  0  0  0  0  0  0  0  0  0  0  0
    6.4875    2.2014   -1.3418 H   0  0  0  0  0  0  0  0  0  0  0  0
    7.4973    0.8684   -0.7240 H   0  0  0  0  0  0  0  0  0  0  0  0
    6.5992   -1.6352   -0.4255 C   0  0  0  0  0  0  0  0  0  0  0  0
    7.2276   -1.8386    0.9636 C   0  0  0  0  0  0  0  0  0  0  0  0
    6.4992   -2.2810    1.6729 H   0  0  0  0  0  0  0  0  0  0  0  0
    7.5633   -0.8730    1.3912 H   0  0  0  0  0  0  0  0  0  0  0  0
    8.1051   -2.5136    0.9077 H   0  0  0  0  0  0  0  0  0  0  0  0
    7.3522   -1.2098   -1.1190 H   0  0  0  0  0  0  0  0  0  0  0  0
    6.3198   -2.6211   -0.8587 H   0  0  0  0  0  0  0  0  0  0  0  0
    4.1384   -2.4073   -0.2985 H   0  0  0  0  0  0  0  0  0  0  0  0
  2  1  1  6  0  0  0
  3 23  1  0  0  0  0
  3  2  1  0  0  0  0
  4  3  1  0  0  0  0
  5  4  2  0  0  0  0
  5  6  1  0  0  0  0
  6  7  2  0  0  0  0
  7  2  1  0  0  0  0
  7  8  1  0  0  0  0
  9  5  1  0  0  0  0
  9 10  1  0  0  0  0
 10 12  1  0  0  0  0
 10 11  1  0  0  0  0
 13 10  1  0  0  0  0
 14  9  1  0  0  0  0
 15  9  1  0  0  0  0
 16  4  1  0  0  0  0
 16 17  1  0  0  0  0
 17 19  1  0  0  0  0
 17 18  1  0  0  0  0
 20 17  1  0  0  0  0
 21 16  1  0  0  0  0
 22 16  1  0  0  0  0
M  END
