1,2
q = 0.0, confidence = 0.774

 38 39  0  0  0  0  0  0  0  0999 V2000
   -1.7394    1.2741   -0.0254 S   0  0  0  0  0  1  0  0  0  0  0  0
   -1.1727   -1.7447   -0.4807 S   0  0  0  0  0  1  0  0  0  0  0  0
   -4.7068    0.7949   -0.5414 S   0  0  0  0  0  0  0  0  0  0  0  0
   -4.1383   -2.2224   -1.0045 S   0  0  0  0  0  0  0  0  0  0  0  0
   -3.0480    0.2143   -0.4061 C   0  0  0  0  0  0  0  0  0  0  0  0
   -4.5286    2.5838   -0.2124 C   0  0  0  0  0  0  0  0  0  0  0  0
   -3.8291    3.0286   -0.9473 H   0  0  0  0  0  0  0  0  0  0  0  0
   -4.0767    2.7337    0.7880 H   0  0  0  0  0  0  0  0  0  0  0  0
   -5.9099    3.2254   -0.3003 C   0  0  0  0  0  0  0  0  0  0  0  0
   -6.6017    2.7451    0.4267 H   0  0  0  0  0  0  0  0  0  0  0  0
   -6.3554    3.0369   -1.3023 H   0  0  0  0  0  0  0  0  0  0  0  0
   -5.8844    4.7199   -0.0451 C   0  0  0  0  0  0  0  0  0  0  0  0
   -7.0789    5.4725   -0.0785 C   0  0  0  0  0  0  0  0  0  0  0  0
   -8.0389    4.9763   -0.2895 H   0  0  0  0  0  0  0  0  0  0  0  0
   -7.0190    6.8495    0.1598 C   0  0  0  0  0  0  0  0  0  0  0  0
   -7.9350    7.4599    0.1396 H   0  0  0  0  0  0  0  0  0  0  0  0
   -5.7715    7.4374    0.4244 C   0  0  0  0  0  0  0  0  0  0  0  0
   -5.6756    8.5162    0.6174 H   0  0  0  0  0  0  0  0  0  0  0  0
   -4.6420    6.6070    0.4366 C   0  0  0  0  0  0  0  0  0  0  0  0
   -3.6413    7.0286    0.6406 H   0  0  0  0  0  0  0  0  0  0  0  0
   -4.6918    5.2847    0.2089 N   0  0  0  0  0  0  0  0  0  0  0  0
   -2.7910   -1.1568   -0.6143 C   0  0  0  0  0  0  0  0  0  0  0  0
   -3.3153   -3.8480   -1.1881 C   0  0  0  0  0  0  0  0  0  0  0  0
   -2.8052   -4.0959   -0.2351 H   0  0  0  0  0  0  0  0  0  0  0  0
   -2.5582   -3.7761   -1.9944 H   0  0  0  0  0  0  0  0  0  0  0  0
   -4.3773   -4.9080   -1.4909 C   0  0  0  0  0  0  0  0  0  0  0  0
   -3.8392   -5.8555   -1.7087 H   0  0  0  0  0  0  0  0  0  0  0  0
   -4.9551   -4.6427   -2.3995 H   0  0  0  0  0  0  0  0  0  0  0  0
   -5.3075   -5.1434   -0.3183 C   0  0  0  0  0  0  0  0  0  0  0  0
   -6.7038   -4.9977   -0.4337 C   0  0  0  0  0  0  0  0  0  0  0  0
   -7.1512   -4.7090   -1.3969 H   0  0  0  0  0  0  0  0  0  0  0  0
   -7.5045   -5.2170    0.6957 C   0  0  0  0  0  0  0  0  0  0  0  0
   -8.5981   -5.1064    0.6345 H   0  0  0  0  0  0  0  0  0  0  0  0
   -6.8862   -5.5716    1.9022 C   0  0  0  0  0  0  0  0  0  0  0  0
   -7.4718   -5.7502    2.8162 H   0  0  0  0  0  0  0  0  0  0  0  0
   -5.4862   -5.6914    1.9170 C   0  0  0  0  0  0  0  0  0  0  0  0
   -4.9624   -5.9682    2.8499 H   0  0  0  0  0  0  0  0  0  0  0  0
   -4.7143   -5.4864    0.8419 N   0  0  0  0  0  0  0  0  0  0  0  0
  3  5  1  0  0  0  0
  3  6  1  0  0  0  0
  4 22  1  0  0  0  0
  5  1  1  0  0  0  0
  6  8  1  0  0  0  0
  7  6  1  0  0  0  0
  9  6  1  0  0  0  0
  9 12  1  0  0  0  0
  9 10  1  0  0  0  0
 11  9  1  0  0  0  0
 12 21  1  0  0  0  0
 13 12  2  0  0  0  0
 13 15  1  0  0  0  0
 14 13  1  0  0  0  0
 15 17  2  0  0  0  0
 16 15  1  0  0  0  0
 17 19  1  0  0  0  0
 17 18  1  0  0  0  0
 19 20  1  0  0  0  0
 21 19  2  0  0  0  0
 22  2  1  0  0  0  0
 22  5  2  0  0  0  0
 23  4  1  0  0  0  0
 23 24  1  0  0  0  0
 25 23  1  0  0  0  0
 26 23  1  0  0  0  0
 26 29  1  0  0  0  0
 27 26  1  0  0  0  0
 28 26  1  0  0  0  0
 29 38  1  0  0  0  0
 30 29  2  0  0  0  0
 30 32  1  0  0  0  0
 31 30  1  0  0  0  0
 32 34  2  0  0  0  0
 33 32  1  0  0  0  0
 34 36  1  0  0  0  0
 34 35  1  0  0  0  0
 36 37  1  0  0  0  0
 38 36  2  0  0  0  0
M  END
