1,2
q = 0.0, confidence = 0.988

 20 20  0  0  0  0  0  0  0  0999 V2000
    1.7034   -0.0003    1.6078 S   0  0  0  0  0  0  0  0  0  0  0  0
    1.7034    0.0002   -1.6078 S   0  0  0  0  0  0  0  0  0  0  0  0
    2.7988    1.4525    1.3230 C   0  0  0  0  0  0  0  0  0  0  0  0
    2.7990   -1.4528    1.3224 C   0  0  0  0  0  0  0  0  0  0  0  0
    2.7991    1.4526   -1.3225 C   0  0  0  0  0  0  0  0  0  0  0  0
    2.7987   -1.4526   -1.3229 C   0  0  0  0  0  0  0  0  0  0  0  0
    3.5624    1.5908    0.0004 C   0  0  0  0  0  0  0  0  0  0  0  0
    2.0753    2.2852    1.4358 H   0  0  0  0  0  0  0  0  0  0  0  0
    3.5098    1.4785    2.1741 H   0  0  0  0  0  0  0  0  0  0  0  0
    3.5626   -1.5905   -0.0003 C   0  0  0  0  0  0  0  0  0  0  0  0
    3.5101   -1.4789    2.1735 H   0  0  0  0  0  0  0  0  0  0  0  0
    2.0757   -2.2856    1.4351 H   0  0  0  0  0  0  0  0  0  0  0  0
    3.5103    1.4785   -2.1735 H   0  0  0  0  0  0  0  0  0  0  0  0
    2.0759    2.2855   -1.4355 H   0  0  0  0  0  0  0  0  0  0  0  0
    2.0752   -2.2853   -1.4354 H   0  0  0  0  0  0  0  0  0  0  0  0
    3.5096   -1.4789   -2.1741 H   0  0  0  0  0  0  0  0  0  0  0  0
    3.9898    2.6195    0.0005 H   0  0  0  0  0  0  0  0  0  0  0  0
    4.4424    0.9207    0.0004 H   0  0  0  0  0  0  0  0  0  0  0  0
    3.9906   -2.6190   -0.0004 H   0  0  0  0  0  0  0  0  0  0  0  0
    4.4421   -0.9199   -0.0004 H   0  0  0  0  0  0  0  0  0  0  0  0
  2  6  1  0  0  0  0
  2  5  1  0  0  0  0
  3  8  1  0  0  0  0
  3  1  1  0  0  0  0
  3  9  1  0  0  0  0
  4 12  1  0  0  0  0
  4  1  1  0  0  0  0
  4 11  1  0  0  0  0
  5  7  1  0  0  0  0
  6 10  1  0  0  0  0
  7 18  1  0  0  0  0
  7 17  1  0  0  0  0
  7  3  1  0  0  0  0
 10  4  1  0  0  0  0
 13  5  1  0  0  0  0
 14  5  1  0  0  0  0
 15  6  1  0  0  0  0
 16  6  1  0  0  0  0
 19 10  1  0  0  0  0
 20 10  1  0  0  0  0
M  END
