1,2
q = -1.0, confidence = 0.0

 22 22  0  0  0  0  0  0  0  0999 V2000
   -0.2259    0.0605   -1.2331 S   0  0  0  0  0  1  0  0  0  0  0  0
   -0.8862   -1.2358    1.2735 S   0  0  0  0  0  1  0  0  0  0  0  0
    1.5533   -1.4746    0.1245 N   0  0  0  0  0  0  0  0  0  0  0  0
    3.6104   -0.2433   -0.5073 C   0  0  0  0  0  0  0  0  0  0  0  0
    4.9678   -0.6127   -0.4896 C   0  0  0  0  0  0  0  0  0  0  0  0
    5.2574   -1.6309   -0.7960 H   0  0  0  0  0  0  0  0  0  0  0  0
    5.9525    0.3053   -0.0893 C   0  0  0  0  0  0  0  0  0  0  0  0
    7.0110    0.0043   -0.0812 H   0  0  0  0  0  0  0  0  0  0  0  0
    5.5844    1.6001    0.3042 C   0  0  0  0  0  0  0  0  0  0  0  0
    6.3538    2.3206    0.6206 H   0  0  0  0  0  0  0  0  0  0  0  0
    4.2297    1.9748    0.2939 C   0  0  0  0  0  0  0  0  0  0  0  0
    3.9362    2.9905    0.5998 H   0  0  0  0  0  0  0  0  0  0  0  0
    3.2476    1.0608   -0.1097 C   0  0  0  0  0  0  0  0  0  0  0  0
    2.1864    1.3565   -0.1260 H   0  0  0  0  0  0  0  0  0  0  0  0
    2.5415   -1.2301   -0.9318 C   0  0  0  0  0  0  0  0  0  0  0  0
    1.9901   -0.8595   -1.8206 H   0  0  0  0  0  0  0  0  0  0  0  0
    3.0006   -2.2024   -1.2086 H   0  0  0  0  0  0  0  0  0  0  0  0
    0.3088   -0.9561    0.0616 C   0  0  0  0  0  3  0  0  0  0  0  0
    1.9959   -2.2682    1.2607 C   0  0  0  0  0  0  0  0  0  0  0  0
    3.0433   -1.9984    1.5025 H   0  0  0  0  0  0  0  0  0  0  0  0
    1.9434   -3.3553    1.0356 H   0  0  0  0  0  0  0  0  0  0  0  0
    1.3580   -2.0544    2.1390 H   0  0  0  0  0  0  0  0  0  0  0  0
  1 18  1  0  0  0  0
  3 19  1  0  0  0  0
  4  5  2  0  0  0  0
  4 13  1  0  0  0  0
  5  7  1  0  0  0  0
  6  5  1  0  0  0  0
  7  8  1  0  0  0  0
  7  9  2  0  0  0  0
  9 10  1  0  0  0  0
 11  9  1  0  0  0  0
 11 12  1  0  0  0  0
 13 11  2  0  0  0  0
 14 13  1  0  0  0  0
 15  4  1  0  0  0  0
 15  3  1  0  0  0  0
 16 15  1  0  0  0  0
 17 15  1  0  0  0  0
 18  3  1  0  0  0  0
 18  2  1  0  0  0  0
 19 20  1  0  0  0  0
 19 22  1  0  0  0  0
 21 19  1  0  0  0  0
M  END
