1,3
q = -1.0

 15 15  0  0  1  0  0  0  0  0999 V2000
   -0.9785   -2.3393   -0.1163 S   0  0  0  0  0  1  0  0  0  0  0  0
   -2.9873   -1.7792   -0.1414 S   0  0  0  0  0  0  0  0  0  0  0  0
   -1.6615    0.9321    0.0465 S   0  0  0  0  0  1  0  0  0  0  0  0
   -3.0390   -0.0771   -0.0148 C   0  0  1  0  0  3  0  0  0  0  0  0
   -4.3841    0.5346    0.0227 C   0  0  0  0  0  0  0  0  0  0  0  0
   -5.4734   -0.1259    0.6432 C   0  0  0  0  0  0  0  0  0  0  0  0
   -6.7419    0.4651    0.6685 C   0  0  0  0  0  0  0  0  0  0  0  0
   -6.9476    1.7262    0.0859 C   0  0  0  0  0  0  0  0  0  0  0  0
   -5.8732    2.3932   -0.5260 C   0  0  0  0  0  0  0  0  0  0  0  0
   -4.6040    1.8056   -0.5622 C   0  0  0  0  0  0  0  0  0  0  0  0
   -5.3095   -1.0985    1.1311 H   0  0  0  0  0  0  0  0  0  0  0  0
   -7.5748   -0.0594    1.1605 H   0  0  0  0  0  0  0  0  0  0  0  0
   -7.9449    2.1905    0.1107 H   0  0  0  0  0  0  0  0  0  0  0  0
   -6.0273    3.3792   -0.9897 H   0  0  0  0  0  0  0  0  0  0  0  0
   -3.7668    2.3175   -1.0592 H   0  0  0  0  0  0  0  0  0  0  0  0
  2  1  1  0  0  0  0
  2  4  1  0  0  0  0
  4  5  1  0  0  0  0
  4  3  1  6  0  0  0
  5  6  1  0  0  0  0
  6  7  2  0  0  0  0
  6 11  1  0  0  0  0
  7 12  1  0  0  0  0
  8 13  1  0  0  0  0
  8  7  1  0  0  0  0
  9  8  2  0  0  0  0
 10  9  1  0  0  0  0
 10  5  2  0  0  0  0
 14  9  1  0  0  0  0
 15 10  1  0  0  0  0
M  END
