1,2
q = -1.0

 18 17  0  0  0  0  0  0  0  0999 V2000
    0.4870    2.5938    0.2105 S   0  0  0  0  0  1  0  0  0  0  0  0
   -1.6574   -0.0250    0.7676 S   0  0  0  0  0  0  0  0  0  0  0  0
   -4.7231    0.2146    0.5780 O   0  0  0  0  0  0  0  0  0  0  0  0
   -4.8797   -1.3084   -1.0964 O   0  0  0  0  0  0  0  0  0  0  0  0
   -0.8788    2.5385    1.4584 C   0  0  0  0  0  0  0  0  0  0  0  0
   -0.4586    2.1206    2.3981 H   0  0  0  0  0  0  0  0  0  0  0  0
   -1.1681    3.5919    1.6515 H   0  0  0  0  0  0  0  0  0  0  0  0
   -2.0979    1.7570    1.0006 C   0  0  0  0  0  0  0  0  0  0  0  0
   -2.4726    2.1342    0.0280 H   0  0  0  0  0  0  0  0  0  0  0  0
   -2.9245    1.7824    1.7363 H   0  0  0  0  0  0  0  0  0  0  0  0
   -2.7251   -0.4919   -0.6279 C   0  0  0  0  0  0  0  0  0  0  0  0
   -2.5126    0.1786   -1.4879 H   0  0  0  0  0  0  0  0  0  0  0  0
   -2.4100   -1.5046   -0.9447 H   0  0  0  0  0  0  0  0  0  0  0  0
   -4.2031   -0.4719   -0.2805 C   0  0  0  0  0  0  0  0  0  0  0  0
   -6.3049   -1.3238   -0.9179 C   0  0  0  0  0  0  0  0  0  0  0  0
   -6.6971   -2.0404   -1.6605 H   0  0  0  0  0  0  0  0  0  0  0  0
   -6.7323   -0.3152   -1.0871 H   0  0  0  0  0  0  0  0  0  0  0  0
   -6.5666   -1.6456    0.1098 H   0  0  0  0  0  0  0  0  0  0  0  0
  1  5  1  0  0  0  0
  2  8  1  0  0  0  0
  4 15  1  0  0  0  0
  4 14  1  0  0  0  0
  5  7  1  0  0  0  0
  5  6  1  0  0  0  0
  8  5  1  0  0  0  0
  8 10  1  0  0  0  0
  9  8  1  0  0  0  0
 11 14  1  0  0  0  0
 11  2  1  0  0  0  0
 12 11  1  0  0  0  0
 13 11  1  0  0  0  0
 14  3  2  0  0  0  0
 15 18  1  0  0  0  0
 16 15  1  0  0  0  0
 17 15  1  0  0  0  0
M  END
