1,2
q = -1.0

 23 22  0  0  0  0  0  0  0  0999 V2000
   -1.5526   -1.7778   -0.2591 S   0  0  0  0  0  1  0  0  0  0  0  0
   -2.1314    1.0392    0.0808 S   0  0  0  0  0  1  0  0  0  0  0  0
   -4.0219   -0.8713   -0.2015 O   0  0  0  0  0  0  0  0  0  0  0  0
   -2.7405   -0.5525   -0.1326 C   0  0  0  0  0  3  0  0  0  0  0  0
   -5.0131    0.1805   -0.0916 C   0  0  0  0  0  0  0  0  0  0  0  0
   -4.8301    0.9225   -0.8993 H   0  0  0  0  0  0  0  0  0  0  0  0
   -4.8676    0.7014    0.8800 H   0  0  0  0  0  0  0  0  0  0  0  0
   -6.3871   -0.4535   -0.1965 C   0  0  0  0  0  0  0  0  0  0  0  0
   -6.4768   -1.2288    0.5923 H   0  0  0  0  0  0  0  0  0  0  0  0
   -6.4666   -0.9825   -1.1706 H   0  0  0  0  0  0  0  0  0  0  0  0
   -7.5046    0.5859   -0.0686 C   0  0  0  0  0  0  0  0  0  0  0  0
   -7.3406    1.3891   -0.8211 H   0  0  0  0  0  0  0  0  0  0  0  0
   -7.4373    1.0855    0.9253 H   0  0  0  0  0  0  0  0  0  0  0  0
   -8.9304    0.0310   -0.2483 C   0  0  0  0  0  0  0  0  0  0  0  0
   -8.9682   -0.4668   -1.2452 H   0  0  0  0  0  0  0  0  0  0  0  0
   -9.2904   -1.0150    0.8146 C   0  0  0  0  0  0  0  0  0  0  0  0
  -10.3239   -1.3899    0.6697 H   0  0  0  0  0  0  0  0  0  0  0  0
   -9.2349   -0.5759    1.8340 H   0  0  0  0  0  0  0  0  0  0  0  0
   -8.6149   -1.8933    0.7892 H   0  0  0  0  0  0  0  0  0  0  0  0
   -9.9510    1.1756   -0.2550 C   0  0  0  0  0  0  0  0  0  0  0  0
  -10.9795    0.7995   -0.4290 H   0  0  0  0  0  0  0  0  0  0  0  0
   -9.7242    1.9210   -1.0445 H   0  0  0  0  0  0  0  0  0  0  0  0
   -9.9517    1.7097    0.7193 H   0  0  0  0  0  0  0  0  0  0  0  0
  1  4  1  0  0  0  0
  3  4  1  0  0  0  0
  3  5  1  0  0  0  0
  4  2  1  0  0  0  0
  5  7  1  0  0  0  0
  6  5  1  0  0  0  0
  8  5  1  0  0  0  0
  8 11  1  0  0  0  0
  8  9  1  0  0  0  0
 10  8  1  0  0  0  0
 11 13  1  0  0  0  0
 12 11  1  0  0  0  0
 14 11  1  0  0  0  0
 14 16  1  0  0  0  0
 15 14  1  0  0  0  0
 16 18  1  0  0  0  0
 17 16  1  0  0  0  0
 19 16  1  0  0  0  0
 20 14  1  0  0  0  0
 20 23  1  0  0  0  0
 21 20  1  0  0  0  0
 22 20  1  0  0  0  0
M  END
