1,2
q = -1.0

 25 24  0  0  0  0  0  0  0  0999 V2000
   -1.7401   -1.2991   -0.4693 S   0  0  0  0  0  1  0  0  0  0  0  0
   -1.6722    1.4410    0.2156 S   0  0  0  0  0  1  0  0  0  0  0  0
   -4.0657    0.1171   -0.3081 N   0  0  0  0  0  0  0  0  0  0  0  0
   -2.7153    0.1164   -0.1994 C   0  0  0  0  0  3  0  0  0  0  0  0
   -4.9122    1.3458   -0.0306 C   0  0  0  0  0  0  0  0  0  0  0  0
   -4.6987   -1.1679   -0.6192 C   0  0  0  0  0  0  0  0  0  0  0  0
   -4.0302   -1.7311   -1.3015 H   0  0  0  0  0  0  0  0  0  0  0  0
   -5.6468   -1.0039   -1.1588 H   0  0  0  0  0  0  0  0  0  0  0  0
   -4.5168    2.4667   -1.0110 C   0  0  0  0  0  0  0  0  0  0  0  0
   -5.1413    3.3621   -0.8214 H   0  0  0  0  0  0  0  0  0  0  0  0
   -4.6864    2.1387   -2.0559 H   0  0  0  0  0  0  0  0  0  0  0  0
   -3.4543    2.7537   -0.9057 H   0  0  0  0  0  0  0  0  0  0  0  0
   -5.6088   -3.1993    0.1698 O   0  0  0  0  0  0  0  0  0  0  0  0
   -5.5761   -3.8538    0.8884 H   0  0  0  0  0  0  0  0  0  0  0  0
   -6.4040    1.0419   -0.2501 C   0  0  0  0  0  0  0  0  0  0  0  0
   -6.7790    0.2310    0.4038 H   0  0  0  0  0  0  0  0  0  0  0  0
   -6.6365    0.7933   -1.3039 H   0  0  0  0  0  0  0  0  0  0  0  0
   -6.9720    1.9579    0.0027 H   0  0  0  0  0  0  0  0  0  0  0  0
   -4.7219    1.7675    1.4395 C   0  0  0  0  0  0  0  0  0  0  0  0
   -5.0758    0.9667    2.1194 H   0  0  0  0  0  0  0  0  0  0  0  0
   -5.3105    2.6833    1.6457 H   0  0  0  0  0  0  0  0  0  0  0  0
   -3.6603    1.9766    1.6693 H   0  0  0  0  0  0  0  0  0  0  0  0
   -4.9584   -2.0275    0.6205 C   0  0  0  0  0  0  0  0  0  0  0  0
   -3.9781   -2.2362    1.1092 H   0  0  0  0  0  0  0  0  0  0  0  0
   -5.5811   -1.4522    1.3519 H   0  0  0  0  0  0  0  0  0  0  0  0
  1  4  1  0  0  0  0
  3  4  1  0  0  0  0
  3  5  1  0  0  0  0
  4  2  1  0  0  0  0
  5 19  1  0  0  0  0
  6  3  1  0  0  0  0
  6 23  1  0  0  0  0
  7  6  1  0  0  0  0
  8  6  1  0  0  0  0
  9 12  1  0  0  0  0
  9 10  1  0  0  0  0
  9  5  1  0  0  0  0
 11  9  1  0  0  0  0
 13 23  1  0  0  0  0
 13 14  1  0  0  0  0
 15  5  1  0  0  0  0
 15 18  1  0  0  0  0
 15 16  1  0  0  0  0
 17 15  1  0  0  0  0
 19 21  1  0  0  0  0
 19 22  1  0  0  0  0
 19 20  1  0  0  0  0
 23 24  1  0  0  0  0
 23 25  1  0  0  0  0
M  END
