1,2
q = -1.0, confidence = 0.002

 26 27  0  0  0  0  0  0  0  0999 V2000
   -1.8348   -0.2976   -1.3058 S   0  0  0  0  0  1  0  0  0  0  0  0
   -1.1955   -1.5662    1.1601 S   0  0  0  0  0  1  0  0  0  0  0  0
   -2.3445   -1.4128   -0.1046 C   0  0  0  0  0  3  0  0  0  0  0  0
   -3.5351   -2.0992   -0.1474 N   0  0  0  0  0  0  0  0  0  0  0  0
   -4.3288   -2.1412   -1.3396 C   0  0  0  0  0  0  0  0  0  0  0  0
   -5.7031   -1.8450   -1.2628 C   0  0  0  0  0  0  0  0  0  0  0  0
   -6.4955   -1.9101   -2.4165 C   0  0  0  0  0  0  0  0  0  0  0  0
   -5.9234   -2.2626   -3.6496 C   0  0  0  0  0  0  0  0  0  0  0  0
   -4.5528   -2.5601   -3.7211 C   0  0  0  0  0  0  0  0  0  0  0  0
   -3.7531   -2.5075   -2.5715 C   0  0  0  0  0  0  0  0  0  0  0  0
   -4.0310   -2.7955    1.0031 C   0  0  0  0  0  0  0  0  0  0  0  0
   -4.1433   -2.1383    2.2435 C   0  0  0  0  0  0  0  0  0  0  0  0
   -4.6504   -2.8317    3.3507 C   0  0  0  0  0  0  0  0  0  0  0  0
   -5.0564   -4.1705    3.2273 C   0  0  0  0  0  0  0  0  0  0  0  0
   -4.9532   -4.8178    1.9853 C   0  0  0  0  0  0  0  0  0  0  0  0
   -4.4391   -4.1365    0.8741 C   0  0  0  0  0  0  0  0  0  0  0  0
   -6.1407   -1.5673   -0.2929 H   0  0  0  0  0  0  0  0  0  0  0  0
   -7.5687   -1.6757   -2.3515 H   0  0  0  0  0  0  0  0  0  0  0  0
   -6.5470   -2.3091   -4.5549 H   0  0  0  0  0  0  0  0  0  0  0  0
   -4.0990   -2.8468   -4.6817 H   0  0  0  0  0  0  0  0  0  0  0  0
   -2.6815   -2.7450   -2.6204 H   0  0  0  0  0  0  0  0  0  0  0  0
   -3.8280   -1.0895    2.3318 H   0  0  0  0  0  0  0  0  0  0  0  0
   -4.7369   -2.3150    4.3185 H   0  0  0  0  0  0  0  0  0  0  0  0
   -5.4569   -4.7089    4.0992 H   0  0  0  0  0  0  0  0  0  0  0  0
   -5.2689   -5.8668    1.8804 H   0  0  0  0  0  0  0  0  0  0  0  0
   -4.3509   -4.6343   -0.1023 H   0  0  0  0  0  0  0  0  0  0  0  0
  1  3  1  0  0  0  0
  3  2  1  0  0  0  0
  4  3  1  0  0  0  0
  4 11  1  0  0  0  0
  5  6  1  0  0  0  0
  5  4  1  0  0  0  0
  6 17  1  0  0  0  0
  7 18  1  0  0  0  0
  7  6  2  0  0  0  0
  8  7  1  0  0  0  0
  9  8  2  0  0  0  0
  9 10  1  0  0  0  0
 10  5  2  0  0  0  0
 11 12  1  0  0  0  0
 12 22  1  0  0  0  0
 12 13  2  0  0  0  0
 13 23  1  0  0  0  0
 14 13  1  0  0  0  0
 14 24  1  0  0  0  0
 15 14  2  0  0  0  0
 16 11  2  0  0  0  0
 16 15  1  0  0  0  0
 19  8  1  0  0  0  0
 20  9  1  0  0  0  0
 21 10  1  0  0  0  0
 25 15  1  0  0  0  0
 26 16  1  0  0  0  0
M  END
