1,2
q = -1.0

 12 11  0  0  0  0  0  0  0  0999 V2000
    1.5704   -2.0304   -0.8169 S   0  0  0  0  0  1  0  0  0  0  0  0
    2.6430    0.7964    0.1518 S   0  0  0  0  0  0  0  0  0  0  0  0
    3.3539   -1.8103   -0.4360 C   0  0  0  0  0  0  0  0  0  0  0  0
    3.5670   -2.1240    0.6068 H   0  0  0  0  0  0  0  0  0  0  0  0
    3.9092   -2.5050   -1.1006 H   0  0  0  0  0  0  0  0  0  0  0  0
    3.7811   -0.3814   -0.6859 C   0  0  0  0  0  0  0  0  0  0  0  0
    3.6884   -0.1142   -1.7579 H   0  0  0  0  0  0  0  0  0  0  0  0
    4.8122   -0.1460   -0.3470 H   0  0  0  0  0  0  0  0  0  0  0  0
    3.0317    0.4936    1.9099 C   0  0  0  0  0  0  0  0  0  0  0  0
    2.8975   -0.5712    2.1766 H   0  0  0  0  0  0  0  0  0  0  0  0
    2.3309    1.1108    2.5013 H   0  0  0  0  0  0  0  0  0  0  0  0
    4.0699    0.8212    2.1101 H   0  0  0  0  0  0  0  0  0  0  0  0
  1  3  1  0  0  0  0
  2  9  1  0  0  0  0
  3  4  1  0  0  0  0
  5  3  1  0  0  0  0
  6  3  1  0  0  0  0
  6  8  1  0  0  0  0
  6  2  1  0  0  0  0
  7  6  1  0  0  0  0
  9 12  1  0  0  0  0
  9 10  1  0  0  0  0
  9 11  1  0  0  0  0
M  END
