1,2
q = -1.0

 31 31  0  0  0  0  0  0  0  0999 V2000
   -0.8340    0.7201    0.4323 S   0  0  0  0  0  1  0  0  0  0  0  0
   -1.7209   -0.8974   -1.7308 S   0  0  0  0  0  1  0  0  0  0  0  0
   -2.2047    0.2054   -0.4972 C   0  0  0  0  0  3  0  0  0  0  0  0
   -3.4651    0.6209   -0.2725 N   0  0  0  0  0  0  0  0  0  0  0  0
   -3.7982    1.5033    0.8493 C   0  0  0  0  0  0  0  0  0  0  0  0
   -4.0608    2.9562    0.4365 C   0  0  0  0  0  0  0  0  0  0  0  0
   -2.8727    3.6548   -0.2317 C   0  0  0  0  0  0  0  0  0  0  0  0
   -3.1683    5.1074   -0.6037 C   0  0  0  0  0  0  0  0  0  0  0  0
   -4.5777    0.1439   -1.1026 C   0  0  0  0  0  0  0  0  0  0  0  0
   -5.4229   -0.8948   -0.3950 C   0  0  0  0  0  0  0  0  0  0  0  0
   -6.7638   -0.6304   -0.0603 C   0  0  0  0  0  0  0  0  0  0  0  0
   -7.5358   -1.5926    0.6110 C   0  0  0  0  0  0  0  0  0  0  0  0
   -6.9684   -2.8274    0.9584 C   0  0  0  0  0  0  0  0  0  0  0  0
   -5.6284   -3.0974    0.6307 C   0  0  0  0  0  0  0  0  0  0  0  0
   -4.8589   -2.1389   -0.0418 C   0  0  0  0  0  0  0  0  0  0  0  0
   -2.9571    1.4497    1.5707 H   0  0  0  0  0  0  0  0  0  0  0  0
   -4.6913    1.0739    1.3511 H   0  0  0  0  0  0  0  0  0  0  0  0
   -4.3588    3.5095    1.3543 H   0  0  0  0  0  0  0  0  0  0  0  0
   -4.9482    3.0019   -0.2348 H   0  0  0  0  0  0  0  0  0  0  0  0
   -1.9905    3.6010    0.4417 H   0  0  0  0  0  0  0  0  0  0  0  0
   -2.5777    3.0870   -1.1407 H   0  0  0  0  0  0  0  0  0  0  0  0
   -3.4271    5.7112    0.2915 H   0  0  0  0  0  0  0  0  0  0  0  0
   -2.2957    5.5880   -1.0894 H   0  0  0  0  0  0  0  0  0  0  0  0
   -4.0239    5.1803   -1.3079 H   0  0  0  0  0  0  0  0  0  0  0  0
   -5.1992    1.0175   -1.3880 H   0  0  0  0  0  0  0  0  0  0  0  0
   -4.1343   -0.2694   -2.0320 H   0  0  0  0  0  0  0  0  0  0  0  0
   -7.2097    0.3399   -0.3331 H   0  0  0  0  0  0  0  0  0  0  0  0
   -8.5842   -1.3743    0.8653 H   0  0  0  0  0  0  0  0  0  0  0  0
   -7.5709   -3.5830    1.4852 H   0  0  0  0  0  0  0  0  0  0  0  0
   -5.1803   -4.0666    0.8978 H   0  0  0  0  0  0  0  0  0  0  0  0
   -3.8102   -2.3486   -0.3071 H   0  0  0  0  0  0  0  0  0  0  0  0
  2  3  1  0  0  0  0
  3  4  1  0  0  0  0
  3  1  1  0  0  0  0
  4  5  1  0  0  0  0
  5 17  1  0  0  0  0
  5 16  1  0  0  0  0
  6  5  1  0  0  0  0
  6 18  1  0  0  0  0
  7  6  1  0  0  0  0
  7 20  1  0  0  0  0
  8  7  1  0  0  0  0
  8 22  1  0  0  0  0
  9 10  1  0  0  0  0
  9  4  1  0  0  0  0
 10 11  2  0  0  0  0
 10 15  1  0  0  0  0
 11 12  1  0  0  0  0
 12 28  1  0  0  0  0
 12 13  2  0  0  0  0
 13 29  1  0  0  0  0
 14 30  1  0  0  0  0
 14 13  1  0  0  0  0
 15 14  2  0  0  0  0
 19  6  1  0  0  0  0
 21  7  1  0  0  0  0
 23  8  1  0  0  0  0
 24  8  1  0  0  0  0
 25  9  1  0  0  0  0
 26  9  1  0  0  0  0
 27 11  1  0  0  0  0
 31 15  1  0  0  0  0
M  END
