1,2
q = -1.0, confidence = 0.008

 41 44  0  0  1  0  0  0  0  0999 V2000
   -0.1077    1.1323   -0.5522 S   0  0  0  0  0  1  0  0  0  0  0  0
    2.7607   -0.7368   -0.4052 S   0  0  0  0  0  1  0  0  0  0  0  0
    2.2959    0.1888    2.1373 N   0  0  0  0  0  0  0  0  0  0  0  0
    4.3579    0.5752    1.4358 N   0  0  0  0  0  0  0  0  0  0  0  0
    3.1392    0.0144    1.0798 C   0  0  2  0  0  3  0  0  0  0  0  0
    5.5283    0.6566    0.6303 C   0  0  0  0  0  0  0  0  0  0  0  0
    7.8633    0.8431   -0.9019 C   0  0  0  0  0  0  0  0  0  0  0  0
    4.2515    1.1030    2.7271 C   0  0  0  0  0  0  0  0  0  0  0  0
    5.1074    1.5601    3.2300 H   0  0  0  0  0  0  0  0  0  0  0  0
    7.1322   -0.3564   -0.8877 C   0  0  0  0  0  0  0  0  0  0  0  0
    7.4817   -1.2162   -1.4757 H   0  0  0  0  0  0  0  0  0  0  0  0
    5.9680   -0.4517   -0.1171 C   0  0  0  0  0  0  0  0  0  0  0  0
    5.3936   -1.3877   -0.0972 H   0  0  0  0  0  0  0  0  0  0  0  0
    6.2615    1.8578    0.6044 C   0  0  0  0  0  0  0  0  0  0  0  0
    5.9020    2.7317    1.1666 H   0  0  0  0  0  0  0  0  0  0  0  0
    2.9788    0.8505    3.1530 C   0  0  0  0  0  0  0  0  0  0  0  0
    2.4996    1.0744    4.1099 H   0  0  0  0  0  0  0  0  0  0  0  0
    7.4338    1.9522   -0.1547 C   0  0  0  0  0  0  0  0  0  0  0  0
    8.0096    2.8874   -0.1838 H   0  0  0  0  0  0  0  0  0  0  0  0
    9.3154    0.9594   -1.8580 Cl  0  0  0  0  0  0  0  0  0  0  0  0
   -0.1171    1.0464    2.1752 N   0  0  0  0  0  0  0  0  0  0  0  0
   -1.2462    2.7689    1.3801 N   0  0  0  0  0  0  0  0  0  0  0  0
   -0.5101    1.6549    1.0211 C   0  0  1  0  0  3  0  0  0  0  0  0
   -1.9560    3.6371    0.5009 C   0  0  0  0  0  0  0  0  0  0  0  0
   -0.5842    1.7794    3.2557 C   0  0  0  0  0  0  0  0  0  0  0  0
   -0.4205    1.4443    4.2833 H   0  0  0  0  0  0  0  0  0  0  0  0
   -2.7256    3.1083   -0.5526 C   0  0  0  0  0  0  0  0  0  0  0  0
   -2.7453    2.0260   -0.7375 H   0  0  0  0  0  0  0  0  0  0  0  0
   -3.4226    5.3519   -1.1524 C   0  0  0  0  0  0  0  0  0  0  0  0
   -2.6590    5.8865   -0.1019 C   0  0  0  0  0  0  0  0  0  0  0  0
   -2.6362    6.9730    0.0594 H   0  0  0  0  0  0  0  0  0  0  0  0
   -3.4559    3.9655   -1.3814 C   0  0  0  0  0  0  0  0  0  0  0  0
   -4.0585    3.5533   -2.2027 H   0  0  0  0  0  0  0  0  0  0  0  0
   -1.2764    2.8583    2.7776 C   0  0  0  0  0  0  0  0  0  0  0  0
   -1.8465    3.6390    3.2873 H   0  0  0  0  0  0  0  0  0  0  0  0
   -1.9208    5.0254    0.7205 C   0  0  0  0  0  0  0  0  0  0  0  0
   -1.3014    5.4370    1.5307 H   0  0  0  0  0  0  0  0  0  0  0  0
   -4.3366    6.4196   -2.1826 Cl  0  0  0  0  0  0  0  0  0  0  0  0
    0.8011   -0.1951    2.2571 B   0  0  0  0  0  0  0  0  0  0  0  0
    0.3633   -1.2475    1.6186 H   0  0  0  0  0  0  0  0  0  0  0  0
    0.6210   -0.7022    3.3621 H   0  0  0  0  0  0  0  0  0  0  0  0
  3 39  1  0  0  0  0
  3 16  1  0  0  0  0
  4  8  1  0  0  0  0
  5  2  1  6  0  0  0
  5  4  1  0  0  0  0
  5  3  1  0  0  0  0
  6  4  1  0  0  0  0
  7 10  2  0  0  0  0
  7 18  1  0  0  0  0
  8 16  2  0  0  0  0
  8  9  1  0  0  0  0
 10 12  1  0  0  0  0
 11 10  1  0  0  0  0
 12 13  1  0  0  0  0
 12  6  2  0  0  0  0
 14  6  1  0  0  0  0
 14 15  1  0  0  0  0
 16 17  1  0  0  0  0
 18 14  2  0  0  0  0
 19 18  1  0  0  0  0
 20  7  1  0  0  0  0
 21 39  1  0  0  0  0
 21 25  1  0  0  0  0
 22 34  1  0  0  0  0
 23  1  1  1  0  0  0
 23 22  1  0  0  0  0
 23 21  1  0  0  0  0
 24 36  1  0  0  0  0
 24 22  1  0  0  0  0
 25 26  1  0  0  0  0
 27 24  2  0  0  0  0
 28 27  1  0  0  0  0
 29 30  1  0  0  0  0
 30 31  1  0  0  0  0
 30 36  2  0  0  0  0
 32 29  2  0  0  0  0
 32 27  1  0  0  0  0
 33 32  1  0  0  0  0
 34 25  2  0  0  0  0
 34 35  1  0  0  0  0
 36 37  1  0  0  0  0
 38 29  1  0  0  0  0
 39 41  1  0  0  0  0
 40 39  1  0  0  0  0
M  END
