1,2
q = 0.0, confidence = 0.998

 40 41  0  0  0  0  0  0  0  0999 V2000
   -1.4823    0.2327   -0.7278 S   0  0  0  0  0  0  0  0  0  0  0  0
    1.4816    0.2320    0.7273 S   0  0  0  0  0  0  0  0  0  0  0  0
   -4.6855   -3.0002    0.6115 O   0  0  0  0  0  0  0  0  0  0  0  0
    4.6862   -2.9999   -0.6109 O   0  0  0  0  0  0  0  0  0  0  0  0
    2.6874    0.0833   -0.6914 C   0  0  0  0  0  0  0  0  0  0  0  0
    5.3300   -2.2795    0.3995 N   0  0  0  0  0  0  0  0  0  0  0  0
   -2.6877    0.0836    0.6912 C   0  0  0  0  0  0  0  0  0  0  0  0
    3.6348   -1.0384   -0.4925 C   0  0  0  0  0  0  0  0  0  0  0  0
    3.6794   -2.2639   -1.1322 C   0  0  0  0  0  0  0  0  0  0  0  0
   -3.6348   -1.0384    0.4926 C   0  0  0  0  0  0  0  0  0  0  0  0
   -5.3299   -2.2801   -0.3988 N   0  0  0  0  0  0  0  0  0  0  0  0
    4.7065   -1.1153    0.4698 C   0  0  0  0  0  0  0  0  0  0  0  0
   -3.6789   -2.2639    1.1325 C   0  0  0  0  0  0  0  0  0  0  0  0
    0.4982   -1.3239    0.5718 C   0  0  0  0  0  0  0  0  0  0  0  0
   -0.4991   -1.3234   -0.5733 C   0  0  0  0  0  0  0  0  0  0  0  0
   -4.7068   -1.1157   -0.4693 C   0  0  0  0  0  0  0  0  0  0  0  0
    5.1314   -0.0648    1.4428 C   0  0  0  0  0  0  0  0  0  0  0  0
   -2.8899   -2.8733    2.2368 C   0  0  0  0  0  0  0  0  0  0  0  0
   -5.1323   -0.0655   -1.4424 C   0  0  0  0  0  0  0  0  0  0  0  0
    2.8911   -2.8737   -2.2369 C   0  0  0  0  0  0  0  0  0  0  0  0
   -5.4662    0.8507   -0.9130 H   0  0  0  0  0  0  0  0  0  0  0  0
    5.4658    0.8511    0.9134 H   0  0  0  0  0  0  0  0  0  0  0  0
    2.1143    0.0170   -1.6359 H   0  0  0  0  0  0  0  0  0  0  0  0
    3.5591   -3.2269   -3.0482 H   0  0  0  0  0  0  0  0  0  0  0  0
   -5.9657   -0.4381   -2.0655 H   0  0  0  0  0  0  0  0  0  0  0  0
    4.2880    0.2321    2.0986 H   0  0  0  0  0  0  0  0  0  0  0  0
   -4.2894    0.2312   -2.0988 H   0  0  0  0  0  0  0  0  0  0  0  0
    3.1602    1.0866   -0.6541 H   0  0  0  0  0  0  0  0  0  0  0  0
   -3.5577   -3.2297    3.0469 H   0  0  0  0  0  0  0  0  0  0  0  0
    2.1878   -2.1361   -2.6666 H   0  0  0  0  0  0  0  0  0  0  0  0
   -2.1143    0.0174    1.6355 H   0  0  0  0  0  0  0  0  0  0  0  0
   -3.1608    1.0867    0.6541 H   0  0  0  0  0  0  0  0  0  0  0  0
    2.3110   -3.7526   -1.8862 H   0  0  0  0  0  0  0  0  0  0  0  0
   -2.3071   -3.7501    1.8852 H   0  0  0  0  0  0  0  0  0  0  0  0
    5.9643   -0.4373    2.0667 H   0  0  0  0  0  0  0  0  0  0  0  0
   -0.0061   -1.4136    1.5548 H   0  0  0  0  0  0  0  0  0  0  0  0
    0.0051   -1.4124   -1.5565 H   0  0  0  0  0  0  0  0  0  0  0  0
   -1.2202   -2.1650   -0.4940 H   0  0  0  0  0  0  0  0  0  0  0  0
    1.2191   -2.1655    0.4918 H   0  0  0  0  0  0  0  0  0  0  0  0
   -2.1889   -2.1345    2.6684 H   0  0  0  0  0  0  0  0  0  0  0  0
  1 15  1  0  0  0  0
  1  7  1  0  0  0  0
  3 13  1  0  0  0  0
  4  6  1  0  0  0  0
  5 28  1  0  0  0  0
  5  8  1  0  0  0  0
  5  2  1  0  0  0  0
  6 12  2  0  0  0  0
  7 31  1  0  0  0  0
  8 12  1  0  0  0  0
  9  4  1  0  0  0  0
  9  8  2  0  0  0  0
 10  7  1  0  0  0  0
 10 13  2  0  0  0  0
 11  3  1  0  0  0  0
 12 17  1  0  0  0  0
 13 18  1  0  0  0  0
 14  2  1  0  0  0  0
 14 36  1  0  0  0  0
 15 38  1  0  0  0  0
 15 14  1  0  0  0  0
 16 11  2  0  0  0  0
 16 10  1  0  0  0  0
 17 35  1  0  0  0  0
 17 26  1  0  0  0  0
 18 40  1  0  0  0  0
 18 29  1  0  0  0  0
 19 21  1  0  0  0  0
 19 16  1  0  0  0  0
 20 33  1  0  0  0  0
 20  9  1  0  0  0  0
 22 17  1  0  0  0  0
 23  5  1  0  0  0  0
 24 20  1  0  0  0  0
 25 19  1  0  0  0  0
 27 19  1  0  0  0  0
 30 20  1  0  0  0  0
 32  7  1  0  0  0  0
 34 18  1  0  0  0  0
 37 15  1  0  0  0  0
 39 14  1  0  0  0  0
M  END
