1,2
q = 0.0, confidence = 0.998

 45 48  0  0  0  0  0  0  0  0999 V2000
   -1.5820   -2.5472   -0.2647 S   0  0  0  0  0  0  0  0  0  0  0  0
   -1.5827    2.5472   -0.2617 S   0  0  0  0  0  0  0  0  0  0  0  0
    1.2557   -1.3703    0.0088 N   0  0  0  0  0  0  0  0  0  0  0  0
    1.2553    1.3713    0.0101 N   0  0  0  0  0  0  0  0  0  0  0  0
   -0.9448    0.0013   -2.3473 N   0  0  0  0  0  0  0  0  0  0  0  0
   -0.0972   -3.3690    0.3996 C   0  0  0  0  0  0  0  0  0  0  0  0
   -0.2518   -3.3140    1.5006 H   0  0  0  0  0  0  0  0  0  0  0  0
   -0.0757   -4.4367    0.1044 H   0  0  0  0  0  0  0  0  0  0  0  0
    1.2228   -2.6982    0.0908 C   0  0  0  0  0  0  0  0  0  0  0  0
    2.4038   -3.4790   -0.0458 C   0  0  0  0  0  0  0  0  0  0  0  0
    2.3415   -4.5759    0.0085 H   0  0  0  0  0  0  0  0  0  0  0  0
    3.6220   -2.8416   -0.2359 C   0  0  0  0  0  0  0  0  0  0  0  0
    4.5508   -3.4227   -0.3441 H   0  0  0  0  0  0  0  0  0  0  0  0
    3.6757   -1.4238   -0.2780 C   0  0  0  0  0  0  0  0  0  0  0  0
    2.4328   -0.7269   -0.1456 C   0  0  0  0  0  0  0  0  0  0  0  0
    2.4326    0.7284   -0.1447 C   0  0  0  0  0  0  0  0  0  0  0  0
    3.6754    1.4258   -0.2761 C   0  0  0  0  0  0  0  0  0  0  0  0
    4.8982    0.6886   -0.4363 C   0  0  0  0  0  0  0  0  0  0  0  0
    5.8396    1.2485   -0.5449 H   0  0  0  0  0  0  0  0  0  0  0  0
    4.8983   -0.6861   -0.4373 C   0  0  0  0  0  0  0  0  0  0  0  0
    5.8399   -1.2456   -0.5467 H   0  0  0  0  0  0  0  0  0  0  0  0
    3.6212    2.8435   -0.2320 C   0  0  0  0  0  0  0  0  0  0  0  0
    4.5499    3.4251   -0.3393 H   0  0  0  0  0  0  0  0  0  0  0  0
    2.4029    3.4803   -0.0411 C   0  0  0  0  0  0  0  0  0  0  0  0
    2.3403    4.5771    0.0147 H   0  0  0  0  0  0  0  0  0  0  0  0
    1.2220    2.6990    0.0941 C   0  0  0  0  0  0  0  0  0  0  0  0
   -0.0983    3.3689    0.4037 C   0  0  0  0  0  0  0  0  0  0  0  0
   -0.0772    4.4370    0.1098 H   0  0  0  0  0  0  0  0  0  0  0  0
   -0.2529    3.3126    1.5047 H   0  0  0  0  0  0  0  0  0  0  0  0
   -1.2035    2.4982   -2.0620 C   0  0  0  0  0  0  0  0  0  0  0  0
   -1.7078    3.3600   -2.5424 H   0  0  0  0  0  0  0  0  0  0  0  0
   -0.1113    2.6345   -2.1922 H   0  0  0  0  0  0  0  0  0  0  0  0
   -1.7000    1.2066   -2.7138 C   0  0  0  0  0  0  0  0  0  0  0  0
   -2.7546    1.0440   -2.4165 H   0  0  0  0  0  0  0  0  0  0  0  0
   -1.6795    1.3593   -3.8242 H   0  0  0  0  0  0  0  0  0  0  0  0
   -1.6999   -1.2037   -2.7152 C   0  0  0  0  0  0  0  0  0  0  0  0
   -2.7544   -1.0416   -2.4176 H   0  0  0  0  0  0  0  0  0  0  0  0
   -1.6794   -1.3550   -3.8258 H   0  0  0  0  0  0  0  0  0  0  0  0
   -1.2032   -2.4960   -2.0650 C   0  0  0  0  0  0  0  0  0  0  0  0
   -0.1110   -2.6322   -2.1956 H   0  0  0  0  0  0  0  0  0  0  0  0
   -1.7076   -3.3572   -2.5464 H   0  0  0  0  0  0  0  0  0  0  0  0
    0.3843    0.0017   -2.9489 C   0  0  0  0  0  0  0  0  0  0  0  0
    0.3381    0.0024   -4.0683 H   0  0  0  0  0  0  0  0  0  0  0  0
    0.9586   -0.8855   -2.6255 H   0  0  0  0  0  0  0  0  0  0  0  0
    0.9584    0.8888   -2.6245 H   0  0  0  0  0  0  0  0  0  0  0  0
  1  6  1  0  0  0  0
  2 27  1  0  0  0  0
  3  9  1  0  0  0  0
  4 26  1  0  0  0  0
  6  7  1  0  0  0  0
  8  6  1  0  0  0  0
  9  6  1  0  0  0  0
 10 11  1  0  0  0  0
 10  9  2  0  0  0  0
 12 10  1  0  0  0  0
 13 12  1  0  0  0  0
 14 12  2  0  0  0  0
 14 15  1  0  0  0  0
 15 16  1  0  0  0  0
 15  3  2  0  0  0  0
 16  4  2  0  0  0  0
 17 22  2  0  0  0  0
 17 16  1  0  0  0  0
 18 17  1  0  0  0  0
 19 18  1  0  0  0  0
 20 18  2  0  0  0  0
 20 14  1  0  0  0  0
 21 20  1  0  0  0  0
 22 24  1  0  0  0  0
 23 22  1  0  0  0  0
 24 25  1  0  0  0  0
 24 26  2  0  0  0  0
 26 27  1  0  0  0  0
 27 29  1  0  0  0  0
 28 27  1  0  0  0  0
 30  2  1  0  0  0  0
 31 30  1  0  0  0  0
 32 30  1  0  0  0  0
 33 34  1  0  0  0  0
 33  5  1  0  0  0  0
 33 30  1  0  0  0  0
 35 33  1  0  0  0  0
 36 37  1  0  0  0  0
 36  5  1  0  0  0  0
 36 39  1  0  0  0  0
 38 36  1  0  0  0  0
 39  1  1  0  0  0  0
 40 39  1  0  0  0  0
 41 39  1  0  0  0  0
 42 44  1  0  0  0  0
 42 45  1  0  0  0  0
 42  5  1  0  0  0  0
 43 42  1  0  0  0  0
M  END
