1,2
q = 0.0, confidence = 1.0

 31 32  0  0  0  0  0  0  0  0999 V2000
    1.2932    2.0069    0.5282 S   0  0  0  0  0  0  0  0  0  0  0  0
    0.7883   -0.9486    1.9153 S   0  0  0  0  0  0  0  0  0  0  0  0
   -2.9125   -2.4857   -0.0602 S   0  0  0  0  0  0  0  0  0  0  0  0
   -1.4201    0.7954   -1.2219 C   0  0  0  0  0  0  0  0  0  0  0  0
   -2.6430    0.1161   -1.0841 C   0  0  0  0  0  0  0  0  0  0  0  0
   -3.7304    0.7812   -0.4747 C   0  0  0  0  0  0  0  0  0  0  0  0
   -3.5902    2.0917   -0.0064 C   0  0  0  0  0  0  0  0  0  0  0  0
   -2.3489    2.7448   -0.1022 C   0  0  0  0  0  0  0  0  0  0  0  0
   -1.2514    2.0999   -0.7052 C   0  0  0  0  0  0  0  0  0  0  0  0
    0.1000    2.7461   -0.7103 C   0  0  0  0  0  0  0  0  0  0  0  0
    0.2369    1.8255    2.0351 C   0  0  0  0  0  0  0  0  0  0  0  0
    0.6965    0.6363    2.8627 C   0  0  0  0  0  0  0  0  0  0  0  0
   -1.0165   -1.2265    1.5716 C   0  0  0  0  0  0  0  0  0  0  0  0
   -1.2140   -2.3996    0.6108 C   0  0  0  0  0  0  0  0  0  0  0  0
   -2.7683   -1.3304   -1.4924 C   0  0  0  0  0  0  0  0  0  0  0  0
   -0.5616    0.2983   -1.7046 H   0  0  0  0  0  0  0  0  0  0  0  0
   -4.6866    0.2493   -0.3515 H   0  0  0  0  0  0  0  0  0  0  0  0
   -4.4465    2.6068    0.4546 H   0  0  0  0  0  0  0  0  0  0  0  0
   -2.2302    3.7657    0.2947 H   0  0  0  0  0  0  0  0  0  0  0  0
    0.0575    3.8305   -0.4902 H   0  0  0  0  0  0  0  0  0  0  0  0
    0.6715    2.5667   -1.6458 H   0  0  0  0  0  0  0  0  0  0  0  0
    0.3136    2.7636    2.6226 H   0  0  0  0  0  0  0  0  0  0  0  0
   -0.8140    1.7128    1.6993 H   0  0  0  0  0  0  0  0  0  0  0  0
    0.0277    0.4758    3.7337 H   0  0  0  0  0  0  0  0  0  0  0  0
    1.7272    0.7744    3.2478 H   0  0  0  0  0  0  0  0  0  0  0  0
   -1.5008   -1.4116    2.5525 H   0  0  0  0  0  0  0  0  0  0  0  0
   -1.4217   -0.2943    1.1382 H   0  0  0  0  0  0  0  0  0  0  0  0
   -1.0335   -3.3669    1.1205 H   0  0  0  0  0  0  0  0  0  0  0  0
   -0.4899   -2.3563   -0.2309 H   0  0  0  0  0  0  0  0  0  0  0  0
   -1.9137   -1.6503   -2.1216 H   0  0  0  0  0  0  0  0  0  0  0  0
   -3.7015   -1.5095   -2.0645 H   0  0  0  0  0  0  0  0  0  0  0  0
  1 11  1  0  0  0  0
  2 12  1  0  0  0  0
  3 14  1  0  0  0  0
  4  5  2  0  0  0  0
  4  9  1  0  0  0  0
  5  6  1  0  0  0  0
  6 17  1  0  0  0  0
  6  7  2  0  0  0  0
  7 18  1  0  0  0  0
  8  7  1  0  0  0  0
  8 19  1  0  0  0  0
  9  8  2  0  0  0  0
 10  9  1  0  0  0  0
 10 20  1  0  0  0  0
 10  1  1  0  0  0  0
 11 22  1  0  0  0  0
 11 12  1  0  0  0  0
 12 25  1  0  0  0  0
 12 24  1  0  0  0  0
 13  2  1  0  0  0  0
 13 26  1  0  0  0  0
 14 28  1  0  0  0  0
 14 13  1  0  0  0  0
 15  5  1  0  0  0  0
 15  3  1  0  0  0  0
 16  4  1  0  0  0  0
 21 10  1  0  0  0  0
 23 11  1  0  0  0  0
 27 13  1  0  0  0  0
 29 14  1  0  0  0  0
 30 15  1  0  0  0  0
 31 15  1  0  0  0  0
M  END
