2,3
q = -1.0

 31 31  0  0  0  0  0  0  0  0999 V2000
    7.4591    2.4504    1.8407 Cl  0  0  0  0  0  0  0  0  0  0  0  0
    0.6474    0.2609   -1.0742 S   0  0  0  0  0  1  0  0  0  0  0  0
    0.8024   -2.5050   -0.3619 S   0  0  0  0  0  1  0  0  0  0  0  0
    2.9014   -1.2166   -1.5153 N   0  0  0  0  0  0  0  0  0  0  0  0
    3.7048   -2.4338   -1.3556 C   0  0  0  0  0  0  0  0  0  0  0  0
    4.4779   -2.4252   -2.1520 H   0  0  0  0  0  0  0  0  0  0  0  0
    3.0379   -3.3009   -1.5501 H   0  0  0  0  0  0  0  0  0  0  0  0
    3.5470   -0.0267   -2.0827 C   0  0  0  0  0  0  0  0  0  0  0  0
    2.7382    0.6796   -2.3623 H   0  0  0  0  0  0  0  0  0  0  0  0
    4.0634   -0.3311   -3.0163 H   0  0  0  0  0  0  0  0  0  0  0  0
    1.6399   -1.1711   -1.0496 C   0  0  0  0  0  3  0  0  0  0  0  0
    4.0638    1.2125    0.0661 C   0  0  0  0  0  0  0  0  0  0  0  0
    2.9824    1.2203    0.2779 H   0  0  0  0  0  0  0  0  0  0  0  0
    4.5268    0.6264   -1.1306 C   0  0  0  0  0  0  0  0  0  0  0  0
    4.3517   -2.5732    0.0274 C   0  0  0  0  0  0  0  0  0  0  0  0
    5.0162   -1.7040    0.2157 H   0  0  0  0  0  0  0  0  0  0  0  0
    3.5474   -2.5335    0.7929 H   0  0  0  0  0  0  0  0  0  0  0  0
    6.3373    1.7545    0.7010 C   0  0  0  0  0  0  0  0  0  0  0  0
    5.1403   -3.8771    0.1700 C   0  0  0  0  0  0  0  0  0  0  0  0
    5.9190   -3.9267   -0.6242 H   0  0  0  0  0  0  0  0  0  0  0  0
    4.4610   -4.7378   -0.0189 H   0  0  0  0  0  0  0  0  0  0  0  0
    6.8195    1.1839   -0.4872 C   0  0  0  0  0  0  0  0  0  0  0  0
    7.8991    1.1794   -0.6919 H   0  0  0  0  0  0  0  0  0  0  0  0
    4.9595    1.7739    0.9826 C   0  0  0  0  0  0  0  0  0  0  0  0
    4.6015    2.2291    1.9166 H   0  0  0  0  0  0  0  0  0  0  0  0
    5.9082    0.6221   -1.3935 C   0  0  0  0  0  0  0  0  0  0  0  0
    6.2854    0.1665   -2.3230 H   0  0  0  0  0  0  0  0  0  0  0  0
    5.7955   -4.0276    1.5433 C   0  0  0  0  0  0  0  0  0  0  0  0
    6.5026   -3.1961    1.7445 H   0  0  0  0  0  0  0  0  0  0  0  0
    6.3609   -4.9772    1.6252 H   0  0  0  0  0  0  0  0  0  0  0  0
    5.0361   -4.0180    2.3523 H   0  0  0  0  0  0  0  0  0  0  0  0
  2 11  1  0  0  0  0
  4  5  1  0  0  0  0
  4 11  1  0  0  0  0
  5 15  1  0  0  0  0
  6  5  1  0  0  0  0
  7  5  1  0  0  0  0
  8  4  1  0  0  0  0
  8 14  1  0  0  0  0
  9  8  1  0  0  0  0
 10  8  1  0  0  0  0
 11  3  1  0  0  0  0
 12 13  1  0  0  0  0
 12 24  1  0  0  0  0
 14 12  2  0  0  0  0
 15 19  1  0  0  0  0
 15 16  1  0  0  0  0
 15 17  1  0  0  0  0
 18 24  2  0  0  0  0
 18  1  1  0  0  0  0
 19 28  1  0  0  0  0
 20 19  1  0  0  0  0
 21 19  1  0  0  0  0
 22 18  1  0  0  0  0
 23 22  1  0  0  0  0
 24 25  1  0  0  0  0
 26 14  1  0  0  0  0
 26 22  2  0  0  0  0
 27 26  1  0  0  0  0
 28 30  1  0  0  0  0
 28 29  1  0  0  0  0
 28 31  1  0  0  0  0
M  END
