1,2
q = -1.0

 32 33  0  0  0  0  0  0  0  0999 V2000
   -2.0398    0.0603   -1.5502 S   0  0  0  0  0  1  0  0  0  0  0  0
   -1.7581   -0.5564    1.3626 S   0  0  0  0  0  1  0  0  0  0  0  0
   -8.6619   -1.4592   -1.5127 O   0  0  0  0  0  0  0  0  0  0  0  0
   -6.7679   -0.7333    0.3209 N   0  0  0  0  0  0  0  0  0  0  0  0
   -9.1130   -0.7776   -0.4157 C   0  0  0  0  0  0  0  0  0  0  0  0
   -6.1157   -0.2329   -0.8912 C   0  0  0  0  0  0  0  0  0  0  0  0
   -5.8118    0.8372   -0.7604 H   0  0  0  0  0  0  0  0  0  0  0  0
   -6.8244   -0.2910   -1.7354 H   0  0  0  0  0  0  0  0  0  0  0  0
   -3.9723   -1.0833   -0.0673 N   0  0  0  0  0  0  0  0  0  0  0  0
   -2.7137   -0.5713   -0.0920 C   0  0  0  0  0  3  0  0  0  0  0  0
   -9.9074    0.5464    1.9402 C   0  0  0  0  0  0  0  0  0  0  0  0
  -10.2063    1.0608    2.8657 H   0  0  0  0  0  0  0  0  0  0  0  0
   -4.8738   -1.0603   -1.2169 C   0  0  0  0  0  0  0  0  0  0  0  0
   -5.1789   -2.1039   -1.4512 H   0  0  0  0  0  0  0  0  0  0  0  0
   -4.3259   -0.6383   -2.0802 H   0  0  0  0  0  0  0  0  0  0  0  0
   -5.8664   -0.7502    1.4622 C   0  0  0  0  0  0  0  0  0  0  0  0
   -6.3876   -1.2035    2.3287 H   0  0  0  0  0  0  0  0  0  0  0  0
   -5.5381    0.2787    1.7632 H   0  0  0  0  0  0  0  0  0  0  0  0
  -10.4647   -0.4739   -0.1889 C   0  0  0  0  0  0  0  0  0  0  0  0
  -11.2245   -0.7726   -0.9232 H   0  0  0  0  0  0  0  0  0  0  0  0
   -8.1165   -0.3927    0.5396 C   0  0  0  0  0  0  0  0  0  0  0  0
   -8.5500    0.2671    1.7081 C   0  0  0  0  0  0  0  0  0  0  0  0
   -7.8042    0.5808    2.4513 H   0  0  0  0  0  0  0  0  0  0  0  0
   -4.6206   -1.5821    1.1415 C   0  0  0  0  0  0  0  0  0  0  0  0
   -3.8957   -1.5437    1.9758 H   0  0  0  0  0  0  0  0  0  0  0  0
   -4.9189   -2.6402    0.9714 H   0  0  0  0  0  0  0  0  0  0  0  0
   -9.6058   -1.9054   -2.4660 C   0  0  0  0  0  0  0  0  0  0  0  0
   -9.0331   -2.4417   -3.2454 H   0  0  0  0  0  0  0  0  0  0  0  0
  -10.1550   -1.0597   -2.9381 H   0  0  0  0  0  0  0  0  0  0  0  0
  -10.3479   -2.6032   -2.0170 H   0  0  0  0  0  0  0  0  0  0  0  0
  -10.8648    0.1841    0.9887 C   0  0  0  0  0  0  0  0  0  0  0  0
  -11.9305    0.4025    1.1524 H   0  0  0  0  0  0  0  0  0  0  0  0
  1 10  1  0  0  0  0
  3  5  1  0  0  0  0
  4 21  1  0  0  0  0
  4 16  1  0  0  0  0
  5 19  2  0  0  0  0
  5 21  1  0  0  0  0
  6  7  1  0  0  0  0
  6  4  1  0  0  0  0
  8  6  1  0  0  0  0
  9 24  1  0  0  0  0
 10  9  1  0  0  0  0
 10  2  1  0  0  0  0
 11 12  1  0  0  0  0
 13  6  1  0  0  0  0
 13  9  1  0  0  0  0
 14 13  1  0  0  0  0
 15 13  1  0  0  0  0
 16 18  1  0  0  0  0
 16 17  1  0  0  0  0
 19 31  1  0  0  0  0
 20 19  1  0  0  0  0
 21 22  2  0  0  0  0
 22 11  1  0  0  0  0
 22 23  1  0  0  0  0
 24 16  1  0  0  0  0
 24 25  1  0  0  0  0
 26 24  1  0  0  0  0
 27 30  1  0  0  0  0
 27  3  1  0  0  0  0
 28 27  1  0  0  0  0
 29 27  1  0  0  0  0
 31 32  1  0  0  0  0
 31 11  2  0  0  0  0
M  END
