1,2
q = -1.0

 28 29  0  0  1  0  0  0  0  0999 V2000
   -0.7720    1.6252    0.0459 S   0  0  0  0  0  1  0  0  0  0  0  0
   -0.8022   -1.6731   -0.0460 S   0  0  0  0  0  1  0  0  0  0  0  0
   -2.4483    1.2662    0.0173 C   0  0  1  0  0  3  0  0  0  0  0  0
   -3.0505   -0.0038   -0.0008 C   0  0  0  0  0  0  0  0  0  0  0  0
   -2.4718   -1.2848   -0.0185 C   0  0  0  0  0  0  0  0  0  0  0  0
   -3.3778   -2.4663   -0.0477 C   0  0  0  0  0  0  0  0  0  0  0  0
   -4.5814   -2.4378   -0.7917 C   0  0  0  0  0  0  0  0  0  0  0  0
   -5.4338   -3.5493   -0.8200 C   0  0  0  0  0  0  0  0  0  0  0  0
   -5.1058   -4.7118   -0.1042 C   0  0  0  0  0  0  0  0  0  0  0  0
   -3.9127   -4.7551    0.6355 C   0  0  0  0  0  0  0  0  0  0  0  0
   -3.0561   -3.6479    0.6611 C   0  0  0  0  0  0  0  0  0  0  0  0
   -3.3323    2.4643    0.0465 C   0  0  0  0  0  0  0  0  0  0  0  0
   -2.9893    3.6395   -0.6629 C   0  0  0  0  0  0  0  0  0  0  0  0
   -3.8253    4.7624   -0.6371 C   0  0  0  0  0  0  0  0  0  0  0  0
   -5.0185    4.7414    0.1034 C   0  0  0  0  0  0  0  0  0  0  0  0
   -5.3674    3.5854    0.8198 C   0  0  0  0  0  0  0  0  0  0  0  0
   -4.5357    2.4583    0.7914 C   0  0  0  0  0  0  0  0  0  0  0  0
   -4.1515    0.0065   -0.0011 H   0  0  0  0  0  0  0  0  0  0  0  0
   -4.8331   -1.5435   -1.3809 H   0  0  0  0  0  0  0  0  0  0  0  0
   -6.3587   -3.5097   -1.4154 H   0  0  0  0  0  0  0  0  0  0  0  0
   -5.7776   -5.5834   -0.1250 H   0  0  0  0  0  0  0  0  0  0  0  0
   -3.6484   -5.6596    1.2042 H   0  0  0  0  0  0  0  0  0  0  0  0
   -2.1252   -3.6776    1.2463 H   0  0  0  0  0  0  0  0  0  0  0  0
   -2.0585    3.6519   -1.2489 H   0  0  0  0  0  0  0  0  0  0  0  0
   -3.5447    5.6617   -1.2063 H   0  0  0  0  0  0  0  0  0  0  0  0
   -5.6739    5.6252    0.1244 H   0  0  0  0  0  0  0  0  0  0  0  0
   -6.2925    3.5631    1.4158 H   0  0  0  0  0  0  0  0  0  0  0  0
   -4.8034    1.5690    1.3810 H   0  0  0  0  0  0  0  0  0  0  0  0
  2  5  1  0  0  0  0
  3  1  1  1  0  0  0
  3 12  1  0  0  0  0
  4  3  1  0  0  0  0
  5  4  2  0  0  0  0
  6  5  1  0  0  0  0
  6 11  1  0  0  0  0
  7  6  2  0  0  0  0
  8  7  1  0  0  0  0
  8  9  2  0  0  0  0
  9 10  1  0  0  0  0
 10 11  2  0  0  0  0
 10 22  1  0  0  0  0
 11 23  1  0  0  0  0
 12 17  1  0  0  0  0
 13 14  1  0  0  0  0
 13 12  2  0  0  0  0
 14 15  2  0  0  0  0
 15 26  1  0  0  0  0
 15 16  1  0  0  0  0
 16 27  1  0  0  0  0
 17 16  2  0  0  0  0
 17 28  1  0  0  0  0
 18  4  1  0  0  0  0
 19  7  1  0  0  0  0
 20  8  1  0  0  0  0
 21  9  1  0  0  0  0
 24 13  1  0  0  0  0
 25 14  1  0  0  0  0
M  END
