1,2
q = -1.0

  7  6  0  0  0  0  0  0  0  0999 V2000
    2.1885    1.3061   -0.0109 S   0  0  0  0  0  1  0  0  0  0  0  0
    1.9425   -1.5008   -0.0177 S   0  0  0  0  0  1  0  0  0  0  0  0
    3.0202   -0.1819   -0.0071 C   0  0  0  0  0  3  0  0  0  0  0  0
    4.5054   -0.3109    0.0453 C   0  0  0  0  0  0  0  0  0  0  0  0
    4.8355   -1.2593   -0.4228 H   0  0  0  0  0  0  0  0  0  0  0  0
    4.8496   -0.3173    1.1028 H   0  0  0  0  0  0  0  0  0  0  0  0
    4.9931    0.5459   -0.4606 H   0  0  0  0  0  0  0  0  0  0  0  0
  1  3  1  0  0  0  0
  2  3  1  0  0  0  0
  3  4  1  0  0  0  0
  4  6  1  0  0  0  0
  5  4  1  0  0  0  0
  7  4  1  0  0  0  0
M  END
