1,2
q = -1.0

  8  7  0  0  1  0  0  0  0  0999 V2000
   -1.3593   -1.9078   -0.0007 S   0  0  0  0  0  1  0  0  0  0  0  0
   -1.8311    1.4329    0.0004 S   0  0  0  0  0  1  0  0  0  0  0  0
   -3.3108   -1.1935    0.0003 S   0  0  0  0  0  0  0  0  0  0  0  0
   -3.2466    0.4966    0.0004 C   0  0  2  0  0  3  0  0  0  0  0  0
   -4.5805    1.2043    0.0004 C   0  0  0  0  0  0  0  0  0  0  0  0
   -4.6689    1.8513   -0.8963 H   0  0  0  0  0  0  0  0  0  0  0  0
   -5.4265    0.4904    0.0029 H   0  0  0  0  0  0  0  0  0  0  0  0
   -4.6669    1.8554    0.8943 H   0  0  0  0  0  0  0  0  0  0  0  0
  1  3  1  0  0  0  0
  3  4  1  0  0  0  0
  4  2  1  6  0  0  0
  5  4  1  0  0  0  0
  5  7  1  0  0  0  0
  5  8  1  0  0  0  0
  6  5  1  0  0  0  0
M  END
