1,2
q = 0.0, confidence = 1.0

 42 42  0  0  0  0  0  0  0  0999 V2000
    0.1631    2.4238   -1.2165 S   0  0  0  0  0  0  0  0  0  0  0  0
   -0.3550   -2.6065   -0.3617 S   0  0  0  0  0  0  0  0  0  0  0  0
    1.2703    1.5405    1.7244 O   0  0  0  0  0  0  0  0  0  0  0  0
    1.7911   -1.1226    1.4040 O   0  0  0  0  0  0  0  0  0  0  0  0
   -1.1294   -0.8293    2.0712 O   0  0  0  0  0  0  0  0  0  0  0  0
   -1.5991    1.9098    1.2183 O   0  0  0  0  0  0  0  0  0  0  0  0
    1.5001    3.1094   -0.1687 C   0  0  0  0  0  0  0  0  0  0  0  0
    2.4076    2.5797   -0.5331 H   0  0  0  0  0  0  0  0  0  0  0  0
    1.6049    4.1892   -0.4023 H   0  0  0  0  0  0  0  0  0  0  0  0
    1.2989    2.9110    1.3311 C   0  0  0  0  0  0  0  0  0  0  0  0
    2.1121    3.4393    1.8783 H   0  0  0  0  0  0  0  0  0  0  0  0
    0.3303    3.3393    1.6579 H   0  0  0  0  0  0  0  0  0  0  0  0
    2.5480    1.0043    2.0930 C   0  0  0  0  0  0  0  0  0  0  0  0
    2.9693    1.5830    2.9466 H   0  0  0  0  0  0  0  0  0  0  0  0
    3.2485    1.0359    1.2302 H   0  0  0  0  0  0  0  0  0  0  0  0
    2.3368   -0.4311    2.5102 C   0  0  0  0  0  0  0  0  0  0  0  0
    3.3211   -0.8695    2.7959 H   0  0  0  0  0  0  0  0  0  0  0  0
    1.6524   -0.5046    3.3904 H   0  0  0  0  0  0  0  0  0  0  0  0
    1.7514   -2.5270    1.5550 C   0  0  0  0  0  0  0  0  0  0  0  0
    1.1002   -2.7999    2.4211 H   0  0  0  0  0  0  0  0  0  0  0  0
    2.7778   -2.9075    1.7693 H   0  0  0  0  0  0  0  0  0  0  0  0
    1.2739   -3.1632    0.2639 C   0  0  0  0  0  0  0  0  0  0  0  0
    1.2525   -4.2666    0.3681 H   0  0  0  0  0  0  0  0  0  0  0  0
    1.9784   -2.8945   -0.5495 H   0  0  0  0  0  0  0  0  0  0  0  0
   -1.4513   -3.0175    1.0637 C   0  0  0  0  0  0  0  0  0  0  0  0
   -2.2488   -3.6726    0.6643 H   0  0  0  0  0  0  0  0  0  0  0  0
   -0.8458   -3.5975    1.7879 H   0  0  0  0  0  0  0  0  0  0  0  0
   -2.1128   -1.8184    1.7284 C   0  0  0  0  0  0  0  0  0  0  0  0
   -2.8875   -1.3893    1.0604 H   0  0  0  0  0  0  0  0  0  0  0  0
   -2.6143   -2.1655    2.6620 H   0  0  0  0  0  0  0  0  0  0  0  0
   -1.6169    0.2314    2.8973 C   0  0  0  0  0  0  0  0  0  0  0  0
   -0.7109    0.7307    3.2958 H   0  0  0  0  0  0  0  0  0  0  0  0
   -2.2051   -0.1878    3.7448 H   0  0  0  0  0  0  0  0  0  0  0  0
   -2.4542    1.2513    2.1444 C   0  0  0  0  0  0  0  0  0  0  0  0
   -3.3003    0.7689    1.6064 H   0  0  0  0  0  0  0  0  0  0  0  0
   -2.8782    1.9821    2.8755 H   0  0  0  0  0  0  0  0  0  0  0  0
   -2.2880    2.6881    0.2445 C   0  0  0  0  0  0  0  0  0  0  0  0
   -2.9251    3.4530    0.7502 H   0  0  0  0  0  0  0  0  0  0  0  0
   -2.9460    2.0330   -0.3595 H   0  0  0  0  0  0  0  0  0  0  0  0
   -1.2782    3.4179   -0.6358 C   0  0  0  0  0  0  0  0  0  0  0  0
   -0.8554    4.3071   -0.1265 H   0  0  0  0  0  0  0  0  0  0  0  0
   -1.7922    3.7719   -1.5507 H   0  0  0  0  0  0  0  0  0  0  0  0
  1 40  1  0  0  0  0
  1  7  1  0  0  0  0
  2 22  1  0  0  0  0
  2 25  1  0  0  0  0
  3 13  1  0  0  0  0
  4 19  1  0  0  0  0
  4 16  1  0  0  0  0
  5 31  1  0  0  0  0
  6 34  1  0  0  0  0
  7 10  1  0  0  0  0
  8  7  1  0  0  0  0
  9  7  1  0  0  0  0
 10 12  1  0  0  0  0
 10  3  1  0  0  0  0
 10 11  1  0  0  0  0
 13 16  1  0  0  0  0
 13 14  1  0  0  0  0
 15 13  1  0  0  0  0
 16 17  1  0  0  0  0
 16 18  1  0  0  0  0
 19 21  1  0  0  0  0
 19 20  1  0  0  0  0
 22 23  1  0  0  0  0
 22 19  1  0  0  0  0
 24 22  1  0  0  0  0
 25 28  1  0  0  0  0
 25 27  1  0  0  0  0
 26 25  1  0  0  0  0
 28  5  1  0  0  0  0
 28 30  1  0  0  0  0
 29 28  1  0  0  0  0
 31 32  1  0  0  0  0
 31 33  1  0  0  0  0
 34 36  1  0  0  0  0
 34 31  1  0  0  0  0
 35 34  1  0  0  0  0
 37 38  1  0  0  0  0
 37  6  1  0  0  0  0
 39 37  1  0  0  0  0
 40 41  1  0  0  0  0
 40 37  1  0  0  0  0
 42 40  1  0  0  0  0
M  END
