1,2
q = -2.0, confidence = 0.768

 13 13  0  0  0  0  0  0  0  0999 V2000
   -1.7093   -1.3985   -0.2974 S   0  0  0  0  0  1  0  0  0  0  0  0
   -1.3614    1.7397    0.3122 S   0  0  0  0  0  1  0  0  0  0  0  0
   -7.9426   -1.1104   -0.1350 N   0  0  0  0  0  0  0  0  0  0  0  0
   -3.1140   -0.3629   -0.0723 C   0  0  0  0  0  0  0  0  0  0  0  0
   -2.9550    1.0430    0.1071 C   0  0  0  0  0  0  0  0  0  0  0  0
   -4.4083   -0.9117   -0.1118 C   0  0  0  0  0  0  0  0  0  0  0  0
   -4.5318   -1.9993   -0.2203 H   0  0  0  0  0  0  0  0  0  0  0  0
   -4.1033    1.8681    0.1636 C   0  0  0  0  0  0  0  0  0  0  0  0
   -3.9688    2.9551    0.2746 H   0  0  0  0  0  0  0  0  0  0  0  0
   -5.5502   -0.0795   -0.0323 C   0  0  0  0  0  0  0  0  0  0  0  0
   -5.3863    1.3240    0.0997 C   0  0  0  0  0  0  0  0  0  0  0  0
   -6.2720    1.9725    0.1566 H   0  0  0  0  0  0  0  0  0  0  0  0
   -6.8610   -0.6485   -0.0893 C   0  0  0  0  0  0  0  0  0  0  0  0
  1  4  1  0  0  0  0
  3 13  3  0  0  0  0
  4  5  1  0  0  0  0
  5  8  2  0  0  0  0
  5  2  1  0  0  0  0
  6  4  2  0  0  0  0
  6 10  1  0  0  0  0
  7  6  1  0  0  0  0
  8  9  1  0  0  0  0
 10 11  2  0  0  0  0
 11 12  1  0  0  0  0
 11  8  1  0  0  0  0
 13 10  1  0  0  0  0
M  END
