1,2
q = -1.0

 33 33  0  0  1  0  0  0  0  0999 V2000
   -2.0265   -0.3637    0.9460 S   0  0  0  0  0  1  0  0  0  0  0  0
   -1.2916   -0.3487   -1.8289 S   0  0  0  0  0  1  0  0  0  0  0  0
   -3.8213   -0.2699   -1.0950 O   0  0  0  0  0  0  0  0  0  0  0  0
   -2.5667   -0.3241   -0.6894 C   0  0  0  0  0  3  0  0  0  0  0  0
   -4.9046   -0.2312   -0.1130 C   0  0  1  0  0  0  0  0  0  0  0  0
   -4.4733    0.1326    0.8446 H   0  0  0  0  0  0  0  0  0  0  0  0
   -6.6352   -1.6563    1.0536 C   0  0  2  0  0  0  0  0  0  0  0  0
   -6.2599   -1.3013    2.0419 H   0  0  0  0  0  0  0  0  0  0  0  0
   -5.3590    2.1649   -0.9112 C   0  0  0  0  0  0  0  0  0  0  0  0
   -4.5598    1.9930   -1.6647 H   0  0  0  0  0  0  0  0  0  0  0  0
   -5.9546    0.7622   -0.6164 C   0  0  2  0  0  0  0  0  0  0  0  0
   -6.3304    0.3619   -1.5868 H   0  0  0  0  0  0  0  0  0  0  0  0
   -7.7040   -0.6580    0.5809 C   0  0  0  0  0  0  0  0  0  0  0  0
   -8.5414   -0.6293    1.3098 H   0  0  0  0  0  0  0  0  0  0  0  0
   -8.1366   -1.0262   -0.3772 H   0  0  0  0  0  0  0  0  0  0  0  0
   -5.4460   -1.6437    0.0789 C   0  0  0  0  0  0  0  0  0  0  0  0
   -4.6299   -2.2979    0.4504 H   0  0  0  0  0  0  0  0  0  0  0  0
   -5.7660   -2.0417   -0.9093 H   0  0  0  0  0  0  0  0  0  0  0  0
   -7.1967   -3.0677    1.2348 C   0  0  0  0  0  0  0  0  0  0  0  0
   -8.0332   -3.0777    1.9627 H   0  0  0  0  0  0  0  0  0  0  0  0
   -6.4200   -3.7702    1.5994 H   0  0  0  0  0  0  0  0  0  0  0  0
   -7.5838   -3.4651    0.2727 H   0  0  0  0  0  0  0  0  0  0  0  0
   -4.7012    2.8305    0.3062 C   0  0  0  0  0  0  0  0  0  0  0  0
   -4.2750    3.8138    0.0221 H   0  0  0  0  0  0  0  0  0  0  0  0
   -3.8694    2.2270    0.7232 H   0  0  0  0  0  0  0  0  0  0  0  0
   -5.4321    3.0156    1.1211 H   0  0  0  0  0  0  0  0  0  0  0  0
   -7.1339    0.7500    0.3749 C   0  0  0  0  0  0  0  0  0  0  0  0
   -6.7983    1.1563    1.3545 H   0  0  0  0  0  0  0  0  0  0  0  0
   -7.9294    1.4320    0.0130 H   0  0  0  0  0  0  0  0  0  0  0  0
   -6.3970    3.0921   -1.5559 C   0  0  0  0  0  0  0  0  0  0  0  0
   -5.9196    4.0266   -1.9137 H   0  0  0  0  0  0  0  0  0  0  0  0
   -7.1913    3.3863   -0.8386 H   0  0  0  0  0  0  0  0  0  0  0  0
   -6.8896    2.6111   -2.4262 H   0  0  0  0  0  0  0  0  0  0  0  0
  2  4  1  0  0  0  0
  3  4  1  0  0  0  0
  3  5  1  0  0  0  0
  4  1  1  0  0  0  0
  5 16  1  0  0  0  0
  5  6  1  1  0  0  0
  7 19  1  0  0  0  0
  7  8  1  1  0  0  0
  9 11  1  0  0  0  0
  9 23  1  0  0  0  0
 10  9  1  0  0  0  0
 11 12  1  6  0  0  0
 11  5  1  0  0  0  0
 11 27  1  0  0  0  0
 13  7  1  0  0  0  0
 13 14  1  0  0  0  0
 15 13  1  0  0  0  0
 16 17  1  0  0  0  0
 16  7  1  0  0  0  0
 18 16  1  0  0  0  0
 19 21  1  0  0  0  0
 19 20  1  0  0  0  0
 22 19  1  0  0  0  0
 23 25  1  0  0  0  0
 23 26  1  0  0  0  0
 24 23  1  0  0  0  0
 27 13  1  0  0  0  0
 27 28  1  0  0  0  0
 29 27  1  0  0  0  0
 30  9  1  0  0  0  0
 30 32  1  0  0  0  0
 31 30  1  0  0  0  0
 33 30  1  0  0  0  0
M  END
