1,2
q = -1.0

 18 18  0  0  1  0  0  0  0  0999 V2000
   -1.4963    0.1502   -1.6914 S   0  0  0  0  0  1  0  0  0  0  0  0
   -1.6860   -0.9135    1.6150 S   0  0  0  0  0  1  0  0  0  0  0  0
   -4.4735   -0.0559   -1.6090 S   0  0  0  0  0  0  0  0  0  0  0  0
   -4.6299   -0.9355    1.1197 S   0  0  0  0  0  0  0  0  0  0  0  0
   -7.2279   -0.5894   -0.4285 S   0  0  0  0  0  0  0  0  0  0  0  0
   -2.9276   -0.2098   -0.8151 C   0  0  0  0  0  0  0  0  0  0  0  0
   -3.0058   -0.6492    0.5501 C   0  0  0  0  0  0  0  0  0  0  0  0
   -5.4962   -0.5325   -0.3106 C   0  0  1  0  0  3  0  0  0  0  0  0
   -7.7060    1.1260    0.1049 C   0  0  0  0  0  0  0  0  0  0  0  0
   -7.3094    1.2863    1.1285 H   0  0  0  0  0  0  0  0  0  0  0  0
   -7.2124    1.8449   -0.5808 H   0  0  0  0  0  0  0  0  0  0  0  0
   -9.2261    1.2628    0.0636 C   0  0  0  0  0  0  0  0  0  0  0  0
   -9.6809    0.4914    0.7220 H   0  0  0  0  0  0  0  0  0  0  0  0
   -9.5854    1.0435   -0.9652 H   0  0  0  0  0  0  0  0  0  0  0  0
   -9.6876    2.6573    0.4938 C   0  0  0  0  0  0  0  0  0  0  0  0
  -10.7922    2.7397    0.4583 H   0  0  0  0  0  0  0  0  0  0  0  0
   -9.2706    3.4438   -0.1683 H   0  0  0  0  0  0  0  0  0  0  0  0
   -9.3666    2.8879    1.5305 H   0  0  0  0  0  0  0  0  0  0  0  0
  1  6  1  0  0  0  0
  3  6  1  0  0  0  0
  3  8  1  0  0  0  0
  5  9  1  0  0  0  0
  6  7  2  0  0  0  0
  7  4  1  0  0  0  0
  7  2  1  0  0  0  0
  8  5  1  1  0  0  0
  8  4  1  0  0  0  0
  9 10  1  0  0  0  0
 11  9  1  0  0  0  0
 12  9  1  0  0  0  0
 12 15  1  0  0  0  0
 12 13  1  0  0  0  0
 14 12  1  0  0  0  0
 15 18  1  0  0  0  0
 16 15  1  0  0  0  0
 17 15  1  0  0  0  0
M  END
