1,2
q = -1.0, confidence = 0.0

 24 24  0  0  1  0  0  0  0  0999 V2000
    1.4751   -0.3681    1.6692 S   0  0  0  0  0  1  0  0  0  0  0  0
    1.6721   -0.8363   -1.7720 S   0  0  0  0  0  1  0  0  0  0  0  0
    4.4258   -0.8167    1.5922 S   0  0  0  0  0  0  0  0  0  0  0  0
    4.5879   -1.2056   -1.2479 S   0  0  0  0  0  0  0  0  0  0  0  0
    7.1597   -1.3681    0.3728 S   0  0  0  0  0  0  0  0  0  0  0  0
    2.8964   -0.6900    0.7622 C   0  0  0  0  0  0  0  0  0  0  0  0
    2.9776   -0.8836   -0.6586 C   0  0  0  0  0  0  0  0  0  0  0  0
    5.4426   -1.1423    0.2436 C   0  0  1  0  0  3  0  0  0  0  0  0
    7.7919    0.3677    0.1622 C   0  0  0  0  0  0  0  0  0  0  0  0
    7.4392    0.7399   -0.8213 H   0  0  0  0  0  0  0  0  0  0  0  0
    7.3384    0.9926    0.9586 H   0  0  0  0  0  0  0  0  0  0  0  0
    9.3148    0.3640    0.2488 C   0  0  0  0  0  0  0  0  0  0  0  0
    9.6292   -0.0616    1.2271 H   0  0  0  0  0  0  0  0  0  0  0  0
    9.7283   -0.3132   -0.5307 H   0  0  0  0  0  0  0  0  0  0  0  0
    9.9120    1.7660    0.0817 C   0  0  0  0  0  0  0  0  0  0  0  0
    9.4896    2.4422    0.8587 H   0  0  0  0  0  0  0  0  0  0  0  0
    9.5888    2.1908   -0.8953 H   0  0  0  0  0  0  0  0  0  0  0  0
   11.4418    1.7893    0.1649 C   0  0  0  0  0  0  0  0  0  0  0  0
   11.7591    1.3602    1.1412 H   0  0  0  0  0  0  0  0  0  0  0  0
   11.8582    1.1086   -0.6105 H   0  0  0  0  0  0  0  0  0  0  0  0
   12.0352    3.1882   -0.0023 C   0  0  0  0  0  0  0  0  0  0  0  0
   13.1417    3.1738    0.0623 H   0  0  0  0  0  0  0  0  0  0  0  0
   11.6636    3.8808    0.7816 H   0  0  0  0  0  0  0  0  0  0  0  0
   11.7635    3.6272   -0.9850 H   0  0  0  0  0  0  0  0  0  0  0  0
  2  7  1  0  0  0  0
  4  7  1  0  0  0  0
  4  8  1  0  0  0  0
  6  3  1  0  0  0  0
  6  1  1  0  0  0  0
  7  6  2  0  0  0  0
  8  5  1  6  0  0  0
  8  3  1  0  0  0  0
  9 12  1  0  0  0  0
  9  5  1  0  0  0  0
  9 11  1  0  0  0  0
 10  9  1  0  0  0  0
 12 13  1  0  0  0  0
 14 12  1  0  0  0  0
 15 18  1  0  0  0  0
 15 12  1  0  0  0  0
 15 16  1  0  0  0  0
 17 15  1  0  0  0  0
 18 19  1  0  0  0  0
 20 18  1  0  0  0  0
 21 22  1  0  0  0  0
 21 18  1  0  0  0  0
 21 23  1  0  0  0  0
 24 21  1  0  0  0  0
M  END
