1,2
q = 0.0, confidence = 0.98

 22 22  0  0  1  0  0  0  0  0999 V2000
    1.9623    1.2041    1.1406 S   0  0  0  0  0  1  0  0  0  0  0  0
    1.8064   -1.0336   -1.4536 S   0  0  0  0  0  1  0  0  0  0  0  0
    4.3892   -1.1404   -0.9435 N   0  0  0  0  0  0  0  0  0  0  0  0
    5.6680    0.6886   -0.1533 N   0  0  0  0  0  0  0  0  0  0  0  0
    4.5048    1.2178    0.4270 N   0  0  0  0  0  0  0  0  0  0  0  0
    3.2858    0.6377    0.2638 C   0  0  1  0  0  3  0  0  0  0  0  0
    3.2160   -0.5251   -0.6920 C   0  0  1  0  0  3  0  0  0  0  0  0
    5.6477   -0.7647   -0.2544 C   0  0  0  0  0  0  0  0  0  0  0  0
    6.8303   -1.1993   -1.1187 C   0  0  0  0  0  0  0  0  0  0  0  0
    5.6963   -1.3974    1.1426 C   0  0  0  0  0  0  0  0  0  0  0  0
    4.6988    2.3600    1.3130 C   0  0  0  0  0  0  0  0  0  0  0  0
    4.3685   -1.9436   -1.5809 H   0  0  0  0  0  0  0  0  0  0  0  0
    5.8183    1.1234   -1.0779 H   0  0  0  0  0  0  0  0  0  0  0  0
    6.7832   -0.7379   -2.1257 H   0  0  0  0  0  0  0  0  0  0  0  0
    6.8335   -2.3000   -1.2381 H   0  0  0  0  0  0  0  0  0  0  0  0
    7.7776   -0.9027   -0.6322 H   0  0  0  0  0  0  0  0  0  0  0  0
    4.8412   -1.0722    1.7668 H   0  0  0  0  0  0  0  0  0  0  0  0
    5.6555   -2.5003    1.0600 H   0  0  0  0  0  0  0  0  0  0  0  0
    6.6360   -1.1108    1.6515 H   0  0  0  0  0  0  0  0  0  0  0  0
    3.9808    3.1649    1.0601 H   0  0  0  0  0  0  0  0  0  0  0  0
    4.5154    2.0647    2.3684 H   0  0  0  0  0  0  0  0  0  0  0  0
    5.7416    2.7005    1.1945 H   0  0  0  0  0  0  0  0  0  0  0  0
  3  7  1  0  0  0  0
  3  8  1  0  0  0  0
  4  5  1  0  0  0  0
  5 11  1  0  0  0  0
  6  5  1  0  0  0  0
  6  1  1  1  0  0  0
  7  2  1  6  0  0  0
  7  6  1  0  0  0  0
  8  4  1  0  0  0  0
  8 10  1  0  0  0  0
  9 16  1  0  0  0  0
  9  8  1  0  0  0  0
 10 19  1  0  0  0  0
 10 17  1  0  0  0  0
 11 21  1  0  0  0  0
 12  3  1  0  0  0  0
 13  4  1  0  0  0  0
 14  9  1  0  0  0  0
 15  9  1  0  0  0  0
 18 10  1  0  0  0  0
 20 11  1  0  0  0  0
 22 11  1  0  0  0  0
M  END
