1,2
q = -1.0, confidence = 0.0

 15 15  0  0  0  0  0  0  0  0999 V2000
   -1.9745   -1.1830   -1.3549 S   0  0  0  0  0  1  0  0  0  0  0  0
   -2.2843    0.3056    1.1700 S   0  0  0  0  0  1  0  0  0  0  0  0
   -5.0577    0.3014    1.9334 O   0  0  0  0  0  0  0  0  0  0  0  0
   -4.0541    0.4712    1.9061 H   0  0  0  0  0  0  0  0  0  0  0  0
   -2.9944   -0.6138   -0.0997 C   0  0  0  0  0  3  0  0  0  0  0  0
   -4.4441   -0.9142   -0.1191 C   0  0  0  0  0  0  0  0  0  0  0  0
   -5.3784   -0.4502    0.8754 C   0  0  0  0  0  0  0  0  0  0  0  0
   -6.7500   -0.7949    0.7563 C   0  0  0  0  0  0  0  0  0  0  0  0
   -7.4247   -0.4167    1.5384 H   0  0  0  0  0  0  0  0  0  0  0  0
   -7.2166   -1.5742   -0.2985 C   0  0  0  0  0  0  0  0  0  0  0  0
   -8.2879   -1.8242   -0.3603 H   0  0  0  0  0  0  0  0  0  0  0  0
   -6.3169   -2.0391   -1.2800 C   0  0  0  0  0  0  0  0  0  0  0  0
   -6.6706   -2.6571   -2.1187 H   0  0  0  0  0  0  0  0  0  0  0  0
   -4.9687   -1.7066   -1.1764 C   0  0  0  0  0  0  0  0  0  0  0  0
   -4.2480   -2.0577   -1.9309 H   0  0  0  0  0  0  0  0  0  0  0  0
  1  5  1  0  0  0  0
  4  3  1  0  0  0  0
  5  2  1  0  0  0  0
  6  5  1  0  0  0  0
  6  7  1  0  0  0  0
  7  3  1  0  0  0  0
  8  7  2  0  0  0  0
  8  9  1  0  0  0  0
 10  8  1  0  0  0  0
 11 10  1  0  0  0  0
 12 14  1  0  0  0  0
 12 10  2  0  0  0  0
 13 12  1  0  0  0  0
 14  6  2  0  0  0  0
 15 14  1  0  0  0  0
M  END
