1,2
q = -2.0, confidence = 0.558

 24 23  0  0  0  0  0  0  0  0999 V2000
    2.6991   -1.1837    0.8498 S   0  0  0  0  0  1  0  0  0  0  0  0
    2.7151    1.0405   -0.9330 S   0  0  0  0  0  1  0  0  0  0  0  0
    5.2029   -1.9903    1.4098 O   0  0  0  0  0  0  0  0  0  0  0  0
    7.1248   -0.8883    0.9676 O   0  0  0  0  0  0  0  0  0  0  0  0
    5.2343    1.7599   -1.5497 O   0  0  0  0  0  0  0  0  0  0  0  0
    7.1187    0.5501   -1.2018 O   0  0  0  0  0  0  0  0  0  0  0  0
    3.7292   -0.0924   -0.0582 C   0  0  0  0  0  0  0  0  0  0  0  0
    5.1268   -0.1224   -0.0819 C   0  0  0  0  0  0  0  0  0  0  0  0
    5.7926   -1.0932    0.8083 C   0  0  0  0  0  0  0  0  0  0  0  0
    7.7945   -1.8110    1.8396 C   0  0  0  0  0  0  0  0  0  0  0  0
    9.2678   -1.4530    1.8357 C   0  0  0  0  0  0  0  0  0  0  0  0
    5.8049    0.8257   -0.9867 C   0  0  0  0  0  0  0  0  0  0  0  0
    7.8257    1.4693   -2.0517 C   0  0  0  0  0  0  0  0  0  0  0  0
    8.2991    2.6922   -1.2798 C   0  0  0  0  0  0  0  0  0  0  0  0
    7.6138   -2.8491    1.4860 H   0  0  0  0  0  0  0  0  0  0  0  0
    7.3494   -1.7466    2.8565 H   0  0  0  0  0  0  0  0  0  0  0  0
    9.8329   -2.1406    2.4960 H   0  0  0  0  0  0  0  0  0  0  0  0
    9.4240   -0.4166    2.1963 H   0  0  0  0  0  0  0  0  0  0  0  0
    9.6872   -1.5258    0.8125 H   0  0  0  0  0  0  0  0  0  0  0  0
    7.1693    1.7672   -2.8951 H   0  0  0  0  0  0  0  0  0  0  0  0
    8.6811    0.8839   -2.4440 H   0  0  0  0  0  0  0  0  0  0  0  0
    7.4325    3.2858   -0.9295 H   0  0  0  0  0  0  0  0  0  0  0  0
    8.9231    3.3400   -1.9288 H   0  0  0  0  0  0  0  0  0  0  0  0
    8.9033    2.3914   -0.4006 H   0  0  0  0  0  0  0  0  0  0  0  0
  2  7  1  0  0  0  0
  4 10  1  0  0  0  0
  5 12  2  0  0  0  0
  6 12  1  0  0  0  0
  7  1  1  0  0  0  0
  8  7  2  0  0  0  0
  8  9  1  0  0  0  0
  9  4  1  0  0  0  0
  9  3  2  0  0  0  0
 10 16  1  0  0  0  0
 11 10  1  0  0  0  0
 11 18  1  0  0  0  0
 11 17  1  0  0  0  0
 12  8  1  0  0  0  0
 13 14  1  0  0  0  0
 13  6  1  0  0  0  0
 14 22  1  0  0  0  0
 14 24  1  0  0  0  0
 15 10  1  0  0  0  0
 19 11  1  0  0  0  0
 20 13  1  0  0  0  0
 21 13  1  0  0  0  0
 23 14  1  0  0  0  0
M  END
