1,2
q = -1.0

 53 55  0  0  1  0  0  0  0  0999 V2000
   -1.1477    1.9988   -1.4813 S   0  0  0  0  0  1  0  0  0  0  0  0
    0.5638    2.4230    1.5947 S   0  0  0  0  0  1  0  0  0  0  0  0
    1.0929   -2.8490    1.8417 S   0  0  0  0  0  0  0  0  0  0  0  0
    1.2998    0.6667   -1.4900 N   0  0  0  0  0  0  0  0  0  0  0  0
    2.5054    0.7205   -2.1433 N   0  0  0  0  0  0  0  0  0  0  0  0
    1.1138    2.2161   -3.0059 N   0  0  0  0  0  0  0  0  0  0  0  0
    2.0778    0.2080    0.8373 N   0  0  0  0  0  0  0  0  0  0  0  0
    3.2877   -0.3652    1.1017 N   0  0  0  0  0  0  0  0  0  0  0  0
    2.9775    1.3988    2.4126 N   0  0  0  0  0  0  0  0  0  0  0  0
    1.3972   -1.7273   -0.6717 N   0  0  0  0  0  0  0  0  0  0  0  0
    1.5603   -2.1143   -1.9782 N   0  0  0  0  0  0  0  0  0  0  0  0
    1.5096   -3.9000   -0.6612 N   0  0  0  0  0  0  0  0  0  0  0  0
    1.1287   -0.2756   -0.2822 B   0  0  2  0  0  0  0  0  0  0  0  0
   -0.0413   -0.2046    0.1617 H   0  0  0  0  0  0  0  0  0  0  0  0
    0.4293    1.5923   -1.9797 C   0  0  2  0  0  3  0  0  0  0  0  0
    2.3815    1.6546   -3.0556 C   0  0  0  0  0  0  0  0  0  0  0  0
    3.4425    2.0529   -4.0203 C   0  0  0  0  0  0  0  0  0  0  0  0
    4.3441    1.4504   -3.8094 H   0  0  0  0  0  0  0  0  0  0  0  0
    3.7025    3.1277   -3.9308 H   0  0  0  0  0  0  0  0  0  0  0  0
    3.1335    1.8666   -5.0700 H   0  0  0  0  0  0  0  0  0  0  0  0
    0.6113    3.3617   -3.7546 C   0  0  0  0  0  0  0  0  0  0  0  0
   -0.4744    3.1922   -3.9045 H   0  0  0  0  0  0  0  0  0  0  0  0
    1.0958    3.3511   -4.7514 H   0  0  0  0  0  0  0  0  0  0  0  0
    0.8489    4.6817   -3.0230 C   0  0  0  0  0  0  0  0  0  0  0  0
    0.3602    4.6555   -2.0290 H   0  0  0  0  0  0  0  0  0  0  0  0
    0.4204    5.5238   -3.6016 H   0  0  0  0  0  0  0  0  0  0  0  0
    1.9309    4.8753   -2.8786 H   0  0  0  0  0  0  0  0  0  0  0  0
    1.8604    1.3019    1.6075 C   0  0  1  0  0  3  0  0  0  0  0  0
    3.8261    0.3589    2.0573 C   0  0  0  0  0  0  0  0  0  0  0  0
    5.1421    0.0883    2.6960 C   0  0  0  0  0  0  0  0  0  0  0  0
    5.5993   -0.7785    2.1864 H   0  0  0  0  0  0  0  0  0  0  0  0
    5.0310   -0.1603    3.7722 H   0  0  0  0  0  0  0  0  0  0  0  0
    5.8304    0.9548    2.6167 H   0  0  0  0  0  0  0  0  0  0  0  0
    3.1969    2.4423    3.4051 C   0  0  0  0  0  0  0  0  0  0  0  0
    3.8331    2.0158    4.2060 H   0  0  0  0  0  0  0  0  0  0  0  0
    2.2026    2.6723    3.8411 H   0  0  0  0  0  0  0  0  0  0  0  0
    3.8170    3.7039    2.8069 C   0  0  0  0  0  0  0  0  0  0  0  0
    4.8075    3.4953    2.3544 H   0  0  0  0  0  0  0  0  0  0  0  0
    3.9502    4.4737    3.5926 H   0  0  0  0  0  0  0  0  0  0  0  0
    3.1523    4.1202    2.0244 H   0  0  0  0  0  0  0  0  0  0  0  0
    1.3393   -2.8014    0.1831 C   0  0  0  0  0  0  0  0  0  0  0  0
    1.6368   -3.4264   -1.9538 C   0  0  0  0  0  0  0  0  0  0  0  0
    1.8211   -4.2856   -3.1558 C   0  0  0  0  0  0  0  0  0  0  0  0
    1.9011   -3.6305   -4.0420 H   0  0  0  0  0  0  0  0  0  0  0  0
    0.9662   -4.9782   -3.3049 H   0  0  0  0  0  0  0  0  0  0  0  0
    2.7418   -4.9015   -3.0862 H   0  0  0  0  0  0  0  0  0  0  0  0
    1.5799   -5.2721   -0.1873 C   0  0  0  0  0  0  0  0  0  0  0  0
    1.2115   -5.9357   -0.9955 H   0  0  0  0  0  0  0  0  0  0  0  0
    0.8760   -5.3316    0.6701 H   0  0  0  0  0  0  0  0  0  0  0  0
    2.9846   -5.6602    0.2713 C   0  0  0  0  0  0  0  0  0  0  0  0
    3.7212   -5.5786   -0.5537 H   0  0  0  0  0  0  0  0  0  0  0  0
    2.9942   -6.7038    0.6444 H   0  0  0  0  0  0  0  0  0  0  0  0
    3.2990   -4.9913    1.0966 H   0  0  0  0  0  0  0  0  0  0  0  0
  4 13  1  0  0  0  0
  5  4  1  0  0  0  0
  6 15  1  0  0  0  0
  7  8  1  0  0  0  0
  7 28  1  0  0  0  0
  8 29  2  0  0  0  0
  9 34  1  0  0  0  0
 10 13  1  0  0  0  0
 10 41  1  0  0  0  0
 11 42  2  0  0  0  0
 11 10  1  0  0  0  0
 12 47  1  0  0  0  0
 12 41  1  0  0  0  0
 13 14  1  1  0  0  0
 13  7  1  0  0  0  0
 15  4  1  0  0  0  0
 15  1  1  1  0  0  0
 16  6  1  0  0  0  0
 16  5  2  0  0  0  0
 17 19  1  0  0  0  0
 17 18  1  0  0  0  0
 17 16  1  0  0  0  0
 20 17  1  0  0  0  0
 21 24  1  0  0  0  0
 21  6  1  0  0  0  0
 22 21  1  0  0  0  0
 23 21  1  0  0  0  0
 24 27  1  0  0  0  0
 24 25  1  0  0  0  0
 26 24  1  0  0  0  0
 28  2  1  6  0  0  0
 28  9  1  0  0  0  0
 29  9  1  0  0  0  0
 29 30  1  0  0  0  0
 30 32  1  0  0  0  0
 31 30  1  0  0  0  0
 33 30  1  0  0  0  0
 34 36  1  0  0  0  0
 34 35  1  0  0  0  0
 37 34  1  0  0  0  0
 37 39  1  0  0  0  0
 38 37  1  0  0  0  0
 40 37  1  0  0  0  0
 41  3  2  0  0  0  0
 42 12  1  0  0  0  0
 43 46  1  0  0  0  0
 43 42  1  0  0  0  0
 44 43  1  0  0  0  0
 45 43  1  0  0  0  0
 47 50  1  0  0  0  0
 47 49  1  0  0  0  0
 48 47  1  0  0  0  0
 50 52  1  0  0  0  0
 50 53  1  0  0  0  0
 51 50  1  0  0  0  0
M  END
