1,7
q = 0.0, confidence = 0.856

 23 25  0  0  0  0  0  0  0  0999 V2000
   -1.4911   -1.5816   -0.1120 S   0  0  0  0  0  1  0  0  0  0  0  0
   -2.9604   -0.6995   -0.2474 C   0  0  0  0  0  0  0  0  0  0  0  0
   -4.5223   -1.4914   -0.4303 S   0  0  0  0  0  0  0  0  0  0  0  0
   -5.4719   -0.0000   -0.3833 C   0  0  0  0  0  0  0  0  0  0  0  0
   -4.5223    1.4914   -0.4303 S   0  0  0  0  0  0  0  0  0  0  0  0
   -2.9604    0.6995   -0.2474 C   0  0  0  0  0  0  0  0  0  0  0  0
   -1.4911    1.5816   -0.1120 S   0  0  0  0  0  1  0  0  0  0  0  0
   -6.8423   -0.0000   -0.3333 C   0  0  0  0  0  0  0  0  0  0  0  0
   -7.8153   -1.4819   -0.3237 S   0  0  0  0  0  0  0  0  0  0  0  0
   -9.2909   -0.6857    0.2542 C   0  0  0  0  0  0  0  0  0  0  0  0
  -10.6026   -1.7315    0.7705 S   0  0  0  0  0  0  0  0  0  0  0  0
  -11.9490   -1.2950   -0.4051 C   0  0  0  0  0  0  0  0  0  0  0  0
  -12.7076    0.0000   -0.1165 C   0  0  0  0  0  0  0  0  0  0  0  0
  -11.9490    1.2950   -0.4051 C   0  0  0  0  0  0  0  0  0  0  0  0
  -10.6026    1.7315    0.7705 S   0  0  0  0  0  0  0  0  0  0  0  0
   -9.2909    0.6857    0.2542 C   0  0  0  0  0  0  0  0  0  0  0  0
   -7.8153    1.4819   -0.3237 S   0  0  0  0  0  0  0  0  0  0  0  0
  -12.6352    2.1627   -0.3221 H   0  0  0  0  0  0  0  0  0  0  0  0
  -11.5214    1.3065   -1.4289 H   0  0  0  0  0  0  0  0  0  0  0  0
  -13.6188   -0.0000   -0.7565 H   0  0  0  0  0  0  0  0  0  0  0  0
  -13.0584    0.0000    0.9371 H   0  0  0  0  0  0  0  0  0  0  0  0
  -12.6352   -2.1627   -0.3221 H   0  0  0  0  0  0  0  0  0  0  0  0
  -11.5214   -1.3065   -1.4289 H   0  0  0  0  0  0  0  0  0  0  0  0
  2  6  2  0  0  0  0
  2  1  1  0  0  0  0
  3  4  1  0  0  0  0
  3  2  1  0  0  0  0
  4  8  2  0  0  0  0
  5  4  1  0  0  0  0
  5  6  1  0  0  0  0
  6  7  1  0  0  0  0
  8 17  1  0  0  0  0
  8  9  1  0  0  0  0
  9 10  1  0  0  0  0
 10 16  2  0  0  0  0
 10 11  1  0  0  0  0
 12 22  1  0  0  0  0
 12 13  1  0  0  0  0
 12 11  1  0  0  0  0
 13 21  1  0  0  0  0
 14 18  1  0  0  0  0
 14 13  1  0  0  0  0
 14 15  1  0  0  0  0
 16 15  1  0  0  0  0
 17 16  1  0  0  0  0
 19 14  1  0  0  0  0
 20 13  1  0  0  0  0
 23 12  1  0  0  0  0
M  END
