1,2
q = -1.0, confidence = 0.004

 49 52  0  0  0  0  0  0  0  0999 V2000
    0.5976    1.3343    1.4408 S   0  0  0  0  0  1  0  0  0  0  0  0
    0.5989   -1.3321   -1.4409 S   0  0  0  0  0  1  0  0  0  0  0  0
   -1.1450    1.3959    0.3492 P   0  0  0  0  0  4  0  0  0  0  0  0
   -1.1427   -1.3979   -0.3479 P   0  0  0  0  0  4  0  0  0  0  0  0
   -1.9056   -0.0019    0.0017 N   0  0  0  0  0  2  0  0  0  0  0  0
   -0.8621    2.3439   -1.1916 C   0  0  0  0  0  0  0  0  0  0  0  0
   -0.2691    3.6211   -1.1326 C   0  0  0  0  0  0  0  0  0  0  0  0
    0.0417    4.0379   -0.1623 H   0  0  0  0  0  0  0  0  0  0  0  0
   -0.0549    4.3435   -2.3128 C   0  0  0  0  0  0  0  0  0  0  0  0
    0.4111    5.3394   -2.2682 H   0  0  0  0  0  0  0  0  0  0  0  0
   -0.4197    3.7903   -3.5524 C   0  0  0  0  0  0  0  0  0  0  0  0
   -0.2391    4.3550   -4.4797 H   0  0  0  0  0  0  0  0  0  0  0  0
   -1.0063    2.5171   -3.6099 C   0  0  0  0  0  0  0  0  0  0  0  0
   -1.2856    2.0802   -4.5806 H   0  0  0  0  0  0  0  0  0  0  0  0
   -1.2357    1.7924   -2.4303 C   0  0  0  0  0  0  0  0  0  0  0  0
   -1.6947    0.7938   -2.4591 H   0  0  0  0  0  0  0  0  0  0  0  0
   -2.3313    2.3795    1.3309 C   0  0  0  0  0  0  0  0  0  0  0  0
   -1.8940    3.3977    2.1999 C   0  0  0  0  0  0  0  0  0  0  0  0
   -0.8158    3.5760    2.3325 H   0  0  0  0  0  0  0  0  0  0  0  0
   -2.8346    4.1580    2.9104 C   0  0  0  0  0  0  0  0  0  0  0  0
   -2.4916    4.9494    3.5939 H   0  0  0  0  0  0  0  0  0  0  0  0
   -4.2072    3.9051    2.7568 C   0  0  0  0  0  0  0  0  0  0  0  0
   -4.9426    4.5028    3.3166 H   0  0  0  0  0  0  0  0  0  0  0  0
   -4.6418    2.8845    1.8953 C   0  0  0  0  0  0  0  0  0  0  0  0
   -5.7171    2.6799    1.7804 H   0  0  0  0  0  0  0  0  0  0  0  0
   -3.7079    2.1193    1.1822 C   0  0  0  0  0  0  0  0  0  0  0  0
   -4.0308    1.3087    0.5123 H   0  0  0  0  0  0  0  0  0  0  0  0
   -2.3279   -2.3830   -1.3295 C   0  0  0  0  0  0  0  0  0  0  0  0
   -3.7050   -2.1272   -1.1774 C   0  0  0  0  0  0  0  0  0  0  0  0
   -4.0291   -1.3192   -0.5049 H   0  0  0  0  0  0  0  0  0  0  0  0
   -4.6380   -2.8934   -1.8905 C   0  0  0  0  0  0  0  0  0  0  0  0
   -5.7137   -2.6923   -1.7729 H   0  0  0  0  0  0  0  0  0  0  0  0
   -4.2022   -3.9106   -2.7554 C   0  0  0  0  0  0  0  0  0  0  0  0
   -4.9370   -4.5091   -3.3153 H   0  0  0  0  0  0  0  0  0  0  0  0
   -2.8292   -4.1591   -2.9124 C   0  0  0  0  0  0  0  0  0  0  0  0
   -2.4852   -4.9478   -3.5985 H   0  0  0  0  0  0  0  0  0  0  0  0
   -1.8894   -3.3978   -2.2018 C   0  0  0  0  0  0  0  0  0  0  0  0
   -0.8109   -3.5728   -2.3368 H   0  0  0  0  0  0  0  0  0  0  0  0
   -0.8566   -2.3466    1.1918 C   0  0  0  0  0  0  0  0  0  0  0  0
   -0.2626   -3.6232    1.1312 C   0  0  0  0  0  0  0  0  0  0  0  0
    0.0468   -4.0393    0.1602 H   0  0  0  0  0  0  0  0  0  0  0  0
   -0.0458   -4.3459    2.3106 C   0  0  0  0  0  0  0  0  0  0  0  0
    0.4210   -5.3414    2.2648 H   0  0  0  0  0  0  0  0  0  0  0  0
   -0.4090   -3.7937    3.5512 C   0  0  0  0  0  0  0  0  0  0  0  0
   -0.2265   -4.3587    4.4778 H   0  0  0  0  0  0  0  0  0  0  0  0
   -0.9967   -2.5210    3.6103 C   0  0  0  0  0  0  0  0  0  0  0  0
   -1.2747   -2.0848    4.5816 H   0  0  0  0  0  0  0  0  0  0  0  0
   -1.2286   -1.7960    2.4314 C   0  0  0  0  0  0  0  0  0  0  0  0
   -1.6883   -0.7977    2.4614 H   0  0  0  0  0  0  0  0  0  0  0  0
  2  4  1  0  0  0  0
  3 17  1  0  0  0  0
  3  1  1  0  0  0  0
  4  5  1  0  0  0  0
  4 39  1  0  0  0  0
  5  3  1  0  0  0  0
  6  7  1  0  0  0  0
  6  3  1  0  0  0  0
  7  8  1  0  0  0  0
  9 10  1  0  0  0  0
  9  7  2  0  0  0  0
 11  9  1  0  0  0  0
 12 11  1  0  0  0  0
 13 11  2  0  0  0  0
 13 15  1  0  0  0  0
 14 13  1  0  0  0  0
 15  6  2  0  0  0  0
 16 15  1  0  0  0  0
 17 18  1  0  0  0  0
 18 19  1  0  0  0  0
 18 20  2  0  0  0  0
 20 21  1  0  0  0  0
 22 20  1  0  0  0  0
 22 23  1  0  0  0  0
 24 22  2  0  0  0  0
 25 24  1  0  0  0  0
 26 17  2  0  0  0  0
 26 24  1  0  0  0  0
 27 26  1  0  0  0  0
 28 29  1  0  0  0  0
 28  4  1  0  0  0  0
 29 30  1  0  0  0  0
 31 32  1  0  0  0  0
 31 29  2  0  0  0  0
 33 31  1  0  0  0  0
 34 33  1  0  0  0  0
 35 33  2  0  0  0  0
 35 37  1  0  0  0  0
 36 35  1  0  0  0  0
 37 28  2  0  0  0  0
 38 37  1  0  0  0  0
 39 48  1  0  0  0  0
 40 39  2  0  0  0  0
 40 42  1  0  0  0  0
 41 40  1  0  0  0  0
 42 44  2  0  0  0  0
 43 42  1  0  0  0  0
 44 46  1  0  0  0  0
 44 45  1  0  0  0  0
 46 47  1  0  0  0  0
 48 49  1  0  0  0  0
 48 46  2  0  0  0  0
M  END
