1,2
q = -1.0

 28 28  0  0  0  0  0  0  0  0999 V2000
   -1.7185   -0.3881    1.2674 S   0  0  0  0  0  0  0  0  0  0  0  0
   -1.2162    1.2753   -1.3537 S   0  0  0  0  0  1  0  0  0  0  0  0
   -2.7491    1.4320   -0.5054 C   0  0  0  0  0  0  0  0  0  0  0  0
   -3.7642    2.2992   -0.9776 C   0  0  0  0  0  0  0  0  0  0  0  0
   -5.0085    2.3514   -0.3402 C   0  0  0  0  0  0  0  0  0  0  0  0
   -5.2779    1.5557    0.7904 C   0  0  0  0  0  0  0  0  0  0  0  0
   -4.2802    0.7043    1.2842 C   0  0  0  0  0  0  0  0  0  0  0  0
   -3.0416    0.6384    0.6277 C   0  0  0  0  0  0  0  0  0  0  0  0
   -2.2887   -2.1281    0.9902 C   0  0  0  0  0  0  0  0  0  0  0  0
   -2.4215   -2.7161   -0.4315 C   0  0  0  0  0  0  0  0  0  0  0  0
   -3.4541   -1.9495   -1.2748 C   0  0  0  0  0  0  0  0  0  0  0  0
   -2.9091   -4.1660   -0.2134 C   0  0  0  0  0  0  0  0  0  0  0  0
   -1.0738   -2.7438   -1.1678 C   0  0  0  0  0  0  0  0  0  0  0  0
   -3.2566   -2.1868    1.5309 H   0  0  0  0  0  0  0  0  0  0  0  0
   -1.5370   -2.6981    1.5753 H   0  0  0  0  0  0  0  0  0  0  0  0
   -4.4190   -1.8312   -0.7407 H   0  0  0  0  0  0  0  0  0  0  0  0
   -3.6493   -2.4976   -2.2191 H   0  0  0  0  0  0  0  0  0  0  0  0
   -3.0805   -0.9436   -1.5443 H   0  0  0  0  0  0  0  0  0  0  0  0
   -3.0263   -4.6784   -1.1898 H   0  0  0  0  0  0  0  0  0  0  0  0
   -3.8920   -4.1918    0.3016 H   0  0  0  0  0  0  0  0  0  0  0  0
   -2.1869   -4.7519    0.3917 H   0  0  0  0  0  0  0  0  0  0  0  0
   -1.1840   -3.2612   -2.1426 H   0  0  0  0  0  0  0  0  0  0  0  0
   -0.7151   -1.7112   -1.3734 H   0  0  0  0  0  0  0  0  0  0  0  0
   -0.2910   -3.2602   -0.5770 H   0  0  0  0  0  0  0  0  0  0  0  0
   -3.5612    2.9239   -1.8604 H   0  0  0  0  0  0  0  0  0  0  0  0
   -5.7834    3.0305   -0.7278 H   0  0  0  0  0  0  0  0  0  0  0  0
   -4.4582    0.0922    2.1821 H   0  0  0  0  0  0  0  0  0  0  0  0
   -6.2540    1.6116    1.2936 H   0  0  0  0  0  0  0  0  0  0  0  0
  2  3  1  0  0  0  0
  3  8  1  0  0  0  0
  4  3  2  0  0  0  0
  4  5  1  0  0  0  0
  5  6  2  0  0  0  0
  6  7  1  0  0  0  0
  6 28  1  0  0  0  0
  7 27  1  0  0  0  0
  8  1  1  0  0  0  0
  8  7  2  0  0  0  0
  9  1  1  0  0  0  0
  9 14  1  0  0  0  0
  9 15  1  0  0  0  0
 10 12  1  0  0  0  0
 10  9  1  0  0  0  0
 11 16  1  0  0  0  0
 11 10  1  0  0  0  0
 12 20  1  0  0  0  0
 12 21  1  0  0  0  0
 13 24  1  0  0  0  0
 13 10  1  0  0  0  0
 17 11  1  0  0  0  0
 18 11  1  0  0  0  0
 19 12  1  0  0  0  0
 22 13  1  0  0  0  0
 23 13  1  0  0  0  0
 25  4  1  0  0  0  0
 26  5  1  0  0  0  0
M  END
