1,2
q = 0.0, confidence = 0.998

 76 82  0  0  0  0  0  0  0  0999 V2000
    1.0443   -0.8235   -1.7619 S   0  0  0  0  0  1  0  0  0  0  0  0
   -2.0473   -0.1971   -2.3365 S   0  0  0  0  0  1  0  0  0  0  0  0
   -0.2213    0.7971    0.9324 O   0  0  0  0  0  0  0  0  0  0  0  0
    0.9473    1.3469    1.3962 C   0  0  0  0  0  0  0  0  0  0  0  0
    2.1663    0.7307    1.0104 C   0  0  0  0  0  0  0  0  0  0  0  0
    3.3759    1.2164    1.5477 C   0  0  0  0  0  0  0  0  0  0  0  0
    4.3257    0.7549    1.2456 H   0  0  0  0  0  0  0  0  0  0  0  0
    3.3823    2.2980    2.4311 C   0  0  0  0  0  0  0  0  0  0  0  0
    4.3310    2.6636    2.8494 H   0  0  0  0  0  0  0  0  0  0  0  0
    2.1790    2.9450    2.7264 C   0  0  0  0  0  0  0  0  0  0  0  0
    2.1954    3.8418    3.3610 H   0  0  0  0  0  0  0  0  0  0  0  0
    0.9510    2.5023    2.2053 C   0  0  0  0  0  0  0  0  0  0  0  0
   -0.3098    3.3498    2.3709 C   0  0  0  0  0  0  0  0  0  0  0  0
   -1.5465    2.5290    2.0142 C   0  0  0  0  0  0  0  0  0  0  0  0
   -2.8347    3.0012    2.3217 C   0  0  0  0  0  0  0  0  0  0  0  0
   -2.9360    3.9240    2.9099 H   0  0  0  0  0  0  0  0  0  0  0  0
   -3.9883    2.3480    1.8780 C   0  0  0  0  0  0  0  0  0  0  0  0
   -4.9832    2.7421    2.1296 H   0  0  0  0  0  0  0  0  0  0  0  0
   -3.8665    1.2056    1.0836 C   0  0  0  0  0  0  0  0  0  0  0  0
   -4.7663    0.7056    0.7012 H   0  0  0  0  0  0  0  0  0  0  0  0
   -2.5959    0.6922    0.7575 C   0  0  0  0  0  0  0  0  0  0  0  0
   -1.4380    1.3535    1.2471 C   0  0  0  0  0  0  0  0  0  0  0  0
   -0.2177    4.5135    1.3436 C   0  0  0  0  0  0  0  0  0  0  0  0
   -0.1721    4.1257    0.3059 H   0  0  0  0  0  0  0  0  0  0  0  0
    0.6885    5.1228    1.5366 H   0  0  0  0  0  0  0  0  0  0  0  0
   -1.1107    5.1659    1.4281 H   0  0  0  0  0  0  0  0  0  0  0  0
   -0.4158    3.9072    3.8054 C   0  0  0  0  0  0  0  0  0  0  0  0
   -0.4699    3.0918    4.5540 H   0  0  0  0  0  0  0  0  0  0  0  0
   -1.3120    4.5458    3.9195 H   0  0  0  0  0  0  0  0  0  0  0  0
    0.4514    4.5496    4.0494 H   0  0  0  0  0  0  0  0  0  0  0  0
    2.4224   -2.1840    0.7381 C   0  0  0  0  0  0  0  0  0  0  0  0
    2.5637   -3.3938    0.0269 C   0  0  0  0  0  0  0  0  0  0  0  0
    2.5113   -3.3882   -1.0728 H   0  0  0  0  0  0  0  0  0  0  0  0
    2.7867   -4.5897    0.7211 C   0  0  0  0  0  0  0  0  0  0  0  0
    2.9101   -5.5297    0.1620 H   0  0  0  0  0  0  0  0  0  0  0  0
    2.8520   -4.5897    2.1249 C   0  0  0  0  0  0  0  0  0  0  0  0
    3.0335   -5.5301    2.6676 H   0  0  0  0  0  0  0  0  0  0  0  0
    2.6801   -3.3916    2.8343 C   0  0  0  0  0  0  0  0  0  0  0  0
    2.7200   -3.3891    3.9341 H   0  0  0  0  0  0  0  0  0  0  0  0
    2.4689   -2.1868    2.1445 C   0  0  0  0  0  0  0  0  0  0  0  0
    2.3581   -1.2421    2.6975 H   0  0  0  0  0  0  0  0  0  0  0  0
    4.0668   -0.4610   -0.8669 C   0  0  0  0  0  0  0  0  0  0  0  0
    4.2930    0.4506   -1.9182 C   0  0  0  0  0  0  0  0  0  0  0  0
    3.4560    1.0655   -2.2925 H   0  0  0  0  0  0  0  0  0  0  0  0
    5.5848    0.5866   -2.4449 C   0  0  0  0  0  0  0  0  0  0  0  0
    5.7609    1.3035   -3.2611 H   0  0  0  0  0  0  0  0  0  0  0  0
    6.6449   -0.1857   -1.9415 C   0  0  0  0  0  0  0  0  0  0  0  0
    7.6550   -0.0796   -2.3661 H   0  0  0  0  0  0  0  0  0  0  0  0
    6.4156   -1.0967   -0.8986 C   0  0  0  0  0  0  0  0  0  0  0  0
    7.2422   -1.7061   -0.5027 H   0  0  0  0  0  0  0  0  0  0  0  0
    5.1285   -1.2374   -0.3569 C   0  0  0  0  0  0  0  0  0  0  0  0
    4.9549   -1.9521    0.4607 H   0  0  0  0  0  0  0  0  0  0  0  0
   -1.5841   -2.0546    0.3382 C   0  0  0  0  0  0  0  0  0  0  0  0
   -1.2242   -3.1463   -0.4740 C   0  0  0  0  0  0  0  0  0  0  0  0
   -1.3637   -3.0752   -1.5634 H   0  0  0  0  0  0  0  0  0  0  0  0
   -0.6949   -4.3002    0.1156 C   0  0  0  0  0  0  0  0  0  0  0  0
   -0.4150   -5.1569   -0.5154 H   0  0  0  0  0  0  0  0  0  0  0  0
   -0.5135   -4.3617    1.5077 C   0  0  0  0  0  0  0  0  0  0  0  0
   -0.0946   -5.2686    1.9673 H   0  0  0  0  0  0  0  0  0  0  0  0
   -0.8421   -3.2599    2.3106 C   0  0  0  0  0  0  0  0  0  0  0  0
   -0.6783   -3.3006    3.3978 H   0  0  0  0  0  0  0  0  0  0  0  0
   -1.3839   -2.1025    1.7296 C   0  0  0  0  0  0  0  0  0  0  0  0
   -1.6634   -1.2434    2.3579 H   0  0  0  0  0  0  0  0  0  0  0  0
   -4.2435   -1.3677   -0.5001 C   0  0  0  0  0  0  0  0  0  0  0  0
   -5.1311   -0.8764   -1.4792 C   0  0  0  0  0  0  0  0  0  0  0  0
   -4.7778   -0.1178   -2.1948 H   0  0  0  0  0  0  0  0  0  0  0  0
   -6.4462   -1.3603   -1.5335 C   0  0  0  0  0  0  0  0  0  0  0  0
   -7.1353   -0.9757   -2.3003 H   0  0  0  0  0  0  0  0  0  0  0  0
   -6.8801   -2.3309   -0.6162 C   0  0  0  0  0  0  0  0  0  0  0  0
   -7.9123   -2.7100   -0.6626 H   0  0  0  0  0  0  0  0  0  0  0  0
   -5.9953   -2.8218    0.3574 C   0  0  0  0  0  0  0  0  0  0  0  0
   -6.3306   -3.5872    1.0736 H   0  0  0  0  0  0  0  0  0  0  0  0
   -4.6777   -2.3448    0.4183 C   0  0  0  0  0  0  0  0  0  0  0  0
   -3.9846   -2.7382    1.1765 H   0  0  0  0  0  0  0  0  0  0  0  0
    2.3530   -0.6198   -0.2156 P   0  0  0  0  0  4  0  0  0  0  0  0
   -2.5332   -0.6966   -0.4248 P   0  0  0  0  0  4  0  0  0  0  0  0
  1 75  1  0  0  0  0
  2 76  1  0  0  0  0
  3 22  1  0  0  0  0
  3  4  1  0  0  0  0
  4 12  1  0  0  0  0
  5  4  2  0  0  0  0
  5  6  1  0  0  0  0
  6  8  2  0  0  0  0
  7  6  1  0  0  0  0
  8 10  1  0  0  0  0
  8  9  1  0  0  0  0
 10 11  1  0  0  0  0
 12 13  1  0  0  0  0
 12 10  2  0  0  0  0
 13 27  1  0  0  0  0
 14 15  1  0  0  0  0
 14 13  1  0  0  0  0
 15 16  1  0  0  0  0
 17 18  1  0  0  0  0
 17 15  2  0  0  0  0
 19 17  1  0  0  0  0
 20 19  1  0  0  0  0
 21 19  2  0  0  0  0
 21 22  1  0  0  0  0
 22 14  2  0  0  0  0
 23 26  1  0  0  0  0
 23 25  1  0  0  0  0
 23 13  1  0  0  0  0
 24 23  1  0  0  0  0
 27 29  1  0  0  0  0
 27 30  1  0  0  0  0
 27 28  1  0  0  0  0
 31 40  1  0  0  0  0
 32 34  1  0  0  0  0
 32 31  2  0  0  0  0
 33 32  1  0  0  0  0
 34 36  2  0  0  0  0
 35 34  1  0  0  0  0
 36 37  1  0  0  0  0
 36 38  1  0  0  0  0
 38 39  1  0  0  0  0
 40 41  1  0  0  0  0
 40 38  2  0  0  0  0
 42 51  1  0  0  0  0
 42 75  1  0  0  0  0
 43 42  2  0  0  0  0
 44 43  1  0  0  0  0
 45 47  2  0  0  0  0
 45 43  1  0  0  0  0
 46 45  1  0  0  0  0
 47 49  1  0  0  0  0
 48 47  1  0  0  0  0
 49 50  1  0  0  0  0
 49 51  2  0  0  0  0
 51 52  1  0  0  0  0
 53 62  1  0  0  0  0
 54 56  1  0  0  0  0
 54 53  2  0  0  0  0
 55 54  1  0  0  0  0
 56 58  2  0  0  0  0
 57 56  1  0  0  0  0
 58 59  1  0  0  0  0
 58 60  1  0  0  0  0
 60 61  1  0  0  0  0
 62 60  2  0  0  0  0
 62 63  1  0  0  0  0
 64 76  1  0  0  0  0
 64 73  1  0  0  0  0
 65 64  2  0  0  0  0
 66 65  1  0  0  0  0
 67 65  1  0  0  0  0
 67 69  2  0  0  0  0
 68 67  1  0  0  0  0
 69 71  1  0  0  0  0
 70 69  1  0  0  0  0
 71 73  2  0  0  0  0
 71 72  1  0  0  0  0
 73 74  1  0  0  0  0
 75 31  1  0  0  0  0
 75  5  1  0  0  0  0
 76 53  1  0  0  0  0
 76 21  1  0  0  0  0
M  END
