1,2
q = -1.0

 32 33  0  0  0  0  0  0  0  0999 V2000
    0.8179   -2.6002   -0.7220 S   0  0  0  0  0  1  0  0  0  0  0  0
    0.5495    0.2694   -0.6642 S   0  0  0  0  0  1  0  0  0  0  0  0
    9.7705    1.8414    0.1977 O   0  0  0  0  0  0  0  0  0  0  0  0
    2.9311   -0.9437   -1.1523 N   0  0  0  0  0  0  0  0  0  0  0  0
    5.6314   -0.7008   -0.3176 N   0  0  0  0  0  0  0  0  0  0  0  0
    1.6182   -1.0831   -0.8821 C   0  0  0  0  0  3  0  0  0  0  0  0
    3.5967    0.3528   -1.2231 C   0  0  0  0  0  0  0  0  0  0  0  0
    2.8465    1.1497   -1.0555 H   0  0  0  0  0  0  0  0  0  0  0  0
    4.0270    0.4768   -2.2413 H   0  0  0  0  0  0  0  0  0  0  0  0
    4.7077    0.4206   -0.1746 C   0  0  0  0  0  0  0  0  0  0  0  0
    5.2514    1.3759   -0.2857 H   0  0  0  0  0  0  0  0  0  0  0  0
    4.2386    0.4228    0.8425 H   0  0  0  0  0  0  0  0  0  0  0  0
    4.9581   -1.9869   -0.2336 C   0  0  0  0  0  0  0  0  0  0  0  0
    4.5232   -2.1716    0.7819 H   0  0  0  0  0  0  0  0  0  0  0  0
    5.6887   -2.7930   -0.4377 H   0  0  0  0  0  0  0  0  0  0  0  0
    3.8406   -2.0775   -1.2779 C   0  0  0  0  0  0  0  0  0  0  0  0
    4.2808   -2.0654   -2.2991 H   0  0  0  0  0  0  0  0  0  0  0  0
    3.2613   -3.0125   -1.1533 H   0  0  0  0  0  0  0  0  0  0  0  0
    6.9366   -0.5757    0.2034 C   0  0  0  0  0  0  0  0  0  0  0  0
    7.5415   -1.6054    0.9577 C   0  0  0  0  0  0  0  0  0  0  0  0
    6.9874   -2.5173    1.2127 H   0  0  0  0  0  0  0  0  0  0  0  0
    8.8614   -1.4541    1.4179 C   0  0  0  0  0  0  0  0  0  0  0  0
    9.3177   -2.2645    2.0067 H   0  0  0  0  0  0  0  0  0  0  0  0
    9.5951   -0.2955    1.1652 C   0  0  0  0  0  0  0  0  0  0  0  0
   10.6238   -0.1613    1.5266 H   0  0  0  0  0  0  0  0  0  0  0  0
    8.9942    0.7429    0.4184 C   0  0  0  0  0  0  0  0  0  0  0  0
    7.6820    0.6027   -0.0625 C   0  0  0  0  0  0  0  0  0  0  0  0
    7.2381    1.3886   -0.6857 H   0  0  0  0  0  0  0  0  0  0  0  0
    9.2268    2.9164   -0.5395 C   0  0  0  0  0  0  0  0  0  0  0  0
    8.9612    2.6179   -1.5793 H   0  0  0  0  0  0  0  0  0  0  0  0
   10.0092    3.6969   -0.5818 H   0  0  0  0  0  0  0  0  0  0  0  0
    8.3203    3.3412   -0.0509 H   0  0  0  0  0  0  0  0  0  0  0  0
  3 26  1  0  0  0  0
  4  6  1  0  0  0  0
  5 13  1  0  0  0  0
  5 10  1  0  0  0  0
  5 19  1  0  0  0  0
  6  1  1  0  0  0  0
  6  2  1  0  0  0  0
  7  4  1  0  0  0  0
  7  8  1  0  0  0  0
  7 10  1  0  0  0  0
  9  7  1  0  0  0  0
 10 12  1  0  0  0  0
 11 10  1  0  0  0  0
 13 14  1  0  0  0  0
 15 13  1  0  0  0  0
 16 18  1  0  0  0  0
 16  4  1  0  0  0  0
 16 13  1  0  0  0  0
 17 16  1  0  0  0  0
 19 20  1  0  0  0  0
 20 21  1  0  0  0  0
 20 22  2  0  0  0  0
 22 23  1  0  0  0  0
 24 22  1  0  0  0  0
 24 25  1  0  0  0  0
 26 24  2  0  0  0  0
 27 19  2  0  0  0  0
 27 26  1  0  0  0  0
 28 27  1  0  0  0  0
 29 32  1  0  0  0  0
 29  3  1  0  0  0  0
 30 29  1  0  0  0  0
 31 29  1  0  0  0  0
M  END
