1,2
q = -1.0

 18 18  0  0  0  0  0  0  0  0999 V2000
    2.0627   -0.5191    0.3139 S   0  0  0  0  0  1  0  0  0  0  0  0
    0.0244   -2.4762   -0.2548 S   0  0  0  0  0  1  0  0  0  0  0  0
    2.9074   -3.3926   -0.3057 S   0  0  0  0  0  0  0  0  0  0  0  0
    1.6963   -2.1429   -0.0723 C   0  0  0  0  0  3  0  0  0  0  0  0
    4.3856   -2.4008   -0.0925 C   0  0  0  0  0  0  0  0  0  0  0  0
    4.8978   -1.6721   -1.1812 C   0  0  0  0  0  0  0  0  0  0  0  0
    4.4120   -1.7484   -2.1648 H   0  0  0  0  0  0  0  0  0  0  0  0
    6.0056   -0.8367   -0.9945 C   0  0  0  0  0  0  0  0  0  0  0  0
    6.3978   -0.2618   -1.8483 H   0  0  0  0  0  0  0  0  0  0  0  0
    6.6212   -0.7103    0.2684 C   0  0  0  0  0  0  0  0  0  0  0  0
    6.1060   -1.4688    1.3401 C   0  0  0  0  0  0  0  0  0  0  0  0
    6.5760   -1.3910    2.3331 H   0  0  0  0  0  0  0  0  0  0  0  0
    4.9959   -2.3059    1.1701 C   0  0  0  0  0  0  0  0  0  0  0  0
    4.5859   -2.8739    2.0179 H   0  0  0  0  0  0  0  0  0  0  0  0
    7.7694    0.2425    0.4782 C   0  0  0  0  0  0  0  0  0  0  0  0
    8.3476    0.4004   -0.4532 H   0  0  0  0  0  0  0  0  0  0  0  0
    8.4630   -0.1158    1.2641 H   0  0  0  0  0  0  0  0  0  0  0  0
    7.3930    1.2370    0.8020 H   0  0  0  0  0  0  0  0  0  0  0  0
  2  4  1  0  0  0  0
  3  5  1  0  0  0  0
  3  4  1  0  0  0  0
  4  1  1  0  0  0  0
  5 13  1  0  0  0  0
  6  8  1  0  0  0  0
  6  5  2  0  0  0  0
  7  6  1  0  0  0  0
  8 10  2  0  0  0  0
  9  8  1  0  0  0  0
 10 15  1  0  0  0  0
 10 11  1  0  0  0  0
 11 12  1  0  0  0  0
 13 11  2  0  0  0  0
 13 14  1  0  0  0  0
 15 18  1  0  0  0  0
 15 17  1  0  0  0  0
 16 15  1  0  0  0  0
M  END
