1,2
q = -1.0

 32 33  0  0  0  0  0  0  0  0999 V2000
    1.5358   -2.3645    1.1774 S   0  0  0  0  0  1  0  0  0  0  0  0
    1.5741   -1.7749   -1.7520 S   0  0  0  0  0  1  0  0  0  0  0  0
    3.7716   -2.4150   -0.3295 N   0  0  0  0  0  0  0  0  0  0  0  0
    6.8076    2.2853    2.6237 F   0  0  0  0  0  0  0  0  0  0  0  0
    7.6533    2.3868   -1.9563 F   0  0  0  0  0  0  0  0  0  0  0  0
    2.4267   -2.2091   -0.2921 C   0  0  0  0  0  3  0  0  0  0  0  0
    4.5540   -2.6218    0.9037 C   0  0  0  0  0  0  0  0  0  0  0  0
    5.1726   -1.3408    1.4342 C   0  0  0  0  0  0  0  0  0  0  0  0
    4.3555   -0.3286    1.9816 C   0  0  0  0  0  0  0  0  0  0  0  0
    4.9026    0.8947    2.3875 C   0  0  0  0  0  0  0  0  0  0  0  0
    6.2800    1.1040    2.2471 C   0  0  0  0  0  0  0  0  0  0  0  0
    7.1201    0.1130    1.7275 C   0  0  0  0  0  0  0  0  0  0  0  0
    6.5559   -1.1060    1.3265 C   0  0  0  0  0  0  0  0  0  0  0  0
    4.5368   -2.3291   -1.5764 C   0  0  0  0  0  0  0  0  0  0  0  0
    5.3658   -1.0659   -1.7062 C   0  0  0  0  0  0  0  0  0  0  0  0
    4.8105    0.1885   -1.3841 C   0  0  0  0  0  0  0  0  0  0  0  0
    5.5767    1.3556   -1.4625 C   0  0  0  0  0  0  0  0  0  0  0  0
    6.9095    1.2664   -1.8872 C   0  0  0  0  0  0  0  0  0  0  0  0
    7.4830    0.0396   -2.2363 C   0  0  0  0  0  0  0  0  0  0  0  0
    6.7029   -1.1228   -2.1366 C   0  0  0  0  0  0  0  0  0  0  0  0
    3.8055   -2.3970   -2.4083 H   0  0  0  0  0  0  0  0  0  0  0  0
    7.1533   -2.0966   -2.3872 H   0  0  0  0  0  0  0  0  0  0  0  0
    8.5313    0.0072   -2.5654 H   0  0  0  0  0  0  0  0  0  0  0  0
    7.2072   -1.8818    0.8952 H   0  0  0  0  0  0  0  0  0  0  0  0
    5.1637    2.3369   -1.1886 H   0  0  0  0  0  0  0  0  0  0  0  0
    3.2727   -0.5075    2.0710 H   0  0  0  0  0  0  0  0  0  0  0  0
    3.8651   -3.0657    1.6492 H   0  0  0  0  0  0  0  0  0  0  0  0
    8.1967    0.3119    1.6312 H   0  0  0  0  0  0  0  0  0  0  0  0
    5.1982   -3.2191   -1.6377 H   0  0  0  0  0  0  0  0  0  0  0  0
    3.7677    0.2416   -1.0405 H   0  0  0  0  0  0  0  0  0  0  0  0
    5.3480   -3.3615    0.6764 H   0  0  0  0  0  0  0  0  0  0  0  0
    4.2750    1.6926    2.8095 H   0  0  0  0  0  0  0  0  0  0  0  0
  2  6  1  0  0  0  0
  3  6  1  0  0  0  0
  3  7  1  0  0  0  0
  5 18  1  0  0  0  0
  6  1  1  0  0  0  0
  7  8  1  0  0  0  0
  7 27  1  0  0  0  0
  8  9  1  0  0  0  0
  9 26  1  0  0  0  0
  9 10  2  0  0  0  0
 10 32  1  0  0  0  0
 11 10  1  0  0  0  0
 11  4  1  0  0  0  0
 12 11  2  0  0  0  0
 13  8  2  0  0  0  0
 13 12  1  0  0  0  0
 14  3  1  0  0  0  0
 15 14  1  0  0  0  0
 15 16  1  0  0  0  0
 16 30  1  0  0  0  0
 17 16  2  0  0  0  0
 17 25  1  0  0  0  0
 18 17  1  0  0  0  0
 19 20  1  0  0  0  0
 19 18  2  0  0  0  0
 20 15  2  0  0  0  0
 21 14  1  0  0  0  0
 22 20  1  0  0  0  0
 23 19  1  0  0  0  0
 24 13  1  0  0  0  0
 28 12  1  0  0  0  0
 29 14  1  0  0  0  0
 31  7  1  0  0  0  0
M  END
