1,7
q = -1.0

 18 17  0  0  0  0  0  0  0  0999 V2000
    1.7926   -1.5256   -0.3306 S   0  0  0  0  0  1  0  0  0  0  0  0
    4.1009   -0.1861   -0.9255 N   0  0  0  0  0  0  0  0  0  0  0  0
    2.7878   -0.1420   -0.5903 C   0  0  0  0  0  3  0  0  0  0  0  0
    4.8485    1.0497   -1.0466 C   0  0  0  0  0  0  0  0  0  0  0  0
    4.2608    1.7982   -1.6184 H   0  0  0  0  0  0  0  0  0  0  0  0
    5.7895    0.8554   -1.5995 H   0  0  0  0  0  0  0  0  0  0  0  0
    1.9155    1.3382   -0.4200 S   0  0  0  0  0  1  0  0  0  0  0  0
    5.4022   -2.1699    1.1960 O   0  0  0  0  0  0  0  0  0  0  0  0
    5.7236    2.8808    0.1685 O   0  0  0  0  0  0  0  0  0  0  0  0
    5.1093    1.0649    1.3798 O   0  0  0  0  0  0  0  0  0  0  0  0
    6.9865   -1.0480    0.0224 O   0  0  0  0  0  0  0  0  0  0  0  0
    5.2204    1.6379    0.3174 C   0  0  0  0  0  0  0  0  0  0  0  0
    5.8741   -1.5327    0.1110 C   0  0  0  0  0  0  0  0  0  0  0  0
    4.8275   -1.4495   -1.0030 C   0  0  0  0  0  0  0  0  0  0  0  0
    5.3598   -1.5102   -1.9742 H   0  0  0  0  0  0  0  0  0  0  0  0
    4.0955   -2.2755   -0.9270 H   0  0  0  0  0  0  0  0  0  0  0  0
    6.0925   -2.0788    1.8898 H   0  0  0  0  0  0  0  0  0  0  0  0
    5.9659    3.1855    1.0703 H   0  0  0  0  0  0  0  0  0  0  0  0
  2  3  1  0  0  0  0
  3  7  1  0  0  0  0
  3  1  1  0  0  0  0
  4  2  1  0  0  0  0
  4 12  1  0  0  0  0
  5  4  1  0  0  0  0
  6  4  1  0  0  0  0
  8 17  1  0  0  0  0
  9 12  1  0  0  0  0
  9 18  1  0  0  0  0
 11 13  2  0  0  0  0
 12 10  2  0  0  0  0
 13  8  1  0  0  0  0
 14 16  1  0  0  0  0
 14  2  1  0  0  0  0
 14 13  1  0  0  0  0
 15 14  1  0  0  0  0
M  END
