1,2
q = -2.0, confidence = 0.534

 16 16  0  0  0  0  0  0  0  0999 V2000
   -1.7397   -1.4304   -0.0691 S   0  0  0  0  0  1  0  0  0  0  0  0
   -1.6911    1.4250   -0.3959 S   0  0  0  0  0  1  0  0  0  0  0  0
   -2.6631   -0.0015   -0.3376 C   0  0  0  0  0  3  0  0  0  0  0  0
   -4.0081   -0.0220   -0.4755 N   0  0  0  0  0  0  0  0  0  0  0  0
   -4.7427   -1.2878   -0.3310 C   0  0  0  0  0  0  0  0  0  0  0  0
   -4.8151    1.1899   -0.4662 C   0  0  0  0  0  0  0  0  0  0  0  0
   -6.1841   -1.0551   -0.0947 C   0  0  0  0  0  3  0  0  0  0  0  0
   -4.6112   -1.9315   -1.2316 H   0  0  0  0  0  0  0  0  0  0  0  0
   -4.2086   -1.8555    0.4922 H   0  0  0  0  0  0  0  0  0  0  0  0
   -5.7664    1.1276    0.7243 C   0  0  0  0  0  0  0  0  0  0  0  0
   -5.3920    1.2746   -1.4132 H   0  0  0  0  0  0  0  0  0  0  0  0
   -4.1382    2.0627   -0.3820 H   0  0  0  0  0  0  0  0  0  0  0  0
   -6.6427   -0.0012    0.6295 O   0  0  0  0  0  0  0  0  0  0  0  0
   -6.9294   -1.8488   -0.2268 H   0  0  0  0  0  0  0  0  0  0  0  0
   -5.1763    1.0591    1.6673 H   0  0  0  0  0  0  0  0  0  0  0  0
   -6.4115    2.0278    0.7813 H   0  0  0  0  0  0  0  0  0  0  0  0
  2  3  1  0  0  0  0
  3  1  1  0  0  0  0
  4  6  1  0  0  0  0
  4  3  1  0  0  0  0
  4  5  1  0  0  0  0
  5  7  1  0  0  0  0
  5  9  1  0  0  0  0
  6 12  1  0  0  0  0
  6 10  1  0  0  0  0
  7 13  1  0  0  0  0
  8  5  1  0  0  0  0
 10 16  1  0  0  0  0
 10 15  1  0  0  0  0
 11  6  1  0  0  0  0
 13 10  1  0  0  0  0
 14  7  1  0  0  0  0
M  END
