8,9
q = -1.0

  9  9  0  0  0  0  0  0  0  0999 V2000
   -0.0009    2.6559   -0.0002 C   0  0  0  0  0  0  0  0  0  0  0  0
    0.6763    4.7909    0.9585 C   0  0  0  0  0  0  0  0  0  0  0  0
    0.6701    6.1196    0.9490 C   0  0  0  0  0  0  0  0  0  0  0  0
   -0.6801    4.7902   -0.9591 C   0  0  0  0  0  0  0  0  0  0  0  0
   -0.6764    6.1189   -0.9488 C   0  0  0  0  0  0  0  0  0  0  0  0
   -0.0015    4.0798   -0.0003 N   0  0  0  0  0  0  0  0  0  0  0  0
   -0.0039    6.8620    0.0004 O   0  0  0  0  0  0  0  0  0  0  0  0
    0.8147    1.7513    1.1722 S   0  0  0  0  0  0  0  0  0  0  0  0
   -0.8158    1.7505   -1.1725 S   0  0  0  0  0  0  0  0  0  0  0  0
  1  8  1  0  0  0  0
  3  2  2  0  0  0  0
  4  5  2  0  0  0  0
  4  6  1  0  0  0  0
  5  7  1  0  0  0  0
  6  1  1  0  0  0  0
  6  2  1  0  0  0  0
  7  3  1  0  0  0  0
  9  1  1  0  0  0  0
M  END
