1,2
q = -1.0, confidence = 0.0

 25 25  0  0  0  0  0  0  0  0999 V2000
    1.6640   -1.6302   -1.3387 S   0  0  0  0  0  1  0  0  0  0  0  0
    1.9939    0.5133    0.7353 S   0  0  0  0  0  1  0  0  0  0  0  0
    4.0268   -0.5516   -0.7034 N   0  0  0  0  0  0  0  0  0  0  0  0
    2.6960   -0.5489   -0.4525 C   0  0  0  0  0  3  0  0  0  0  0  0
    4.5667   -1.4590   -1.7114 C   0  0  0  0  0  0  0  0  0  0  0  0
    4.3329   -2.5126   -1.4558 H   0  0  0  0  0  0  0  0  0  0  0  0
    5.6626   -1.3340   -1.7674 H   0  0  0  0  0  0  0  0  0  0  0  0
    4.1242   -1.2517   -2.7074 H   0  0  0  0  0  0  0  0  0  0  0  0
    4.9511    0.3613   -0.0089 C   0  0  0  0  0  0  0  0  0  0  0  0
    4.3108    0.9350    0.6938 H   0  0  0  0  0  0  0  0  0  0  0  0
    5.5998    1.3678   -0.9725 C   0  0  0  0  0  0  0  0  0  0  0  0
    4.8032    1.9113   -1.5212 H   0  0  0  0  0  0  0  0  0  0  0  0
    6.2051    0.8254   -1.7331 H   0  0  0  0  0  0  0  0  0  0  0  0
    6.5052    2.3445   -0.2095 C   0  0  0  0  0  0  0  0  0  0  0  0
    6.9918    3.0438   -0.9205 H   0  0  0  0  0  0  0  0  0  0  0  0
    5.8775    2.9699    0.4636 H   0  0  0  0  0  0  0  0  0  0  0  0
    7.5563    1.6024    0.6259 C   0  0  0  0  0  0  0  0  0  0  0  0
    8.1790    2.3246    1.1938 H   0  0  0  0  0  0  0  0  0  0  0  0
    8.2501    1.0602   -0.0560 H   0  0  0  0  0  0  0  0  0  0  0  0
    6.8999    0.5972    1.5810 C   0  0  0  0  0  0  0  0  0  0  0  0
    6.2881    1.1489    2.3291 H   0  0  0  0  0  0  0  0  0  0  0  0
    7.6700    0.0430    2.1566 H   0  0  0  0  0  0  0  0  0  0  0  0
    5.9977   -0.3908    0.8280 C   0  0  0  0  0  0  0  0  0  0  0  0
    6.6265   -1.0269    0.1654 H   0  0  0  0  0  0  0  0  0  0  0  0
    5.4796   -1.0726    1.5335 H   0  0  0  0  0  0  0  0  0  0  0  0
  1  4  1  0  0  0  0
  3  4  1  0  0  0  0
  3  9  1  0  0  0  0
  4  2  1  0  0  0  0
  5  6  1  0  0  0  0
  5  3  1  0  0  0  0
  7  5  1  0  0  0  0
  8  5  1  0  0  0  0
  9 10  1  0  0  0  0
  9 23  1  0  0  0  0
 11 14  1  0  0  0  0
 11  9  1  0  0  0  0
 12 11  1  0  0  0  0
 13 11  1  0  0  0  0
 14 16  1  0  0  0  0
 14 17  1  0  0  0  0
 15 14  1  0  0  0  0
 17 18  1  0  0  0  0
 17 20  1  0  0  0  0
 19 17  1  0  0  0  0
 20 22  1  0  0  0  0
 20 21  1  0  0  0  0
 23 25  1  0  0  0  0
 23 20  1  0  0  0  0
 24 23  1  0  0  0  0
M  END
