1,2
q = -1.0

 33 34  0  0  0  0  0  0  0  0999 V2000
    1.7667    0.4564   -1.1839 S   0  0  0  0  0  1  0  0  0  0  0  0
    1.9265   -1.6966    0.8953 S   0  0  0  0  0  1  0  0  0  0  0  0
    7.5645    4.4969    1.3354 O   0  0  0  0  0  0  0  0  0  0  0  0
    6.5447   -2.6250   -0.8286 O   0  0  0  0  0  0  0  0  0  0  0  0
    4.0792   -0.5978   -0.2870 N   0  0  0  0  0  0  0  0  0  0  0  0
    8.9748    4.5230    1.4388 C   0  0  0  0  0  0  0  0  0  0  0  0
    9.2326    5.4503    1.9833 H   0  0  0  0  0  0  0  0  0  0  0  0
    9.3664    3.6497    2.0078 H   0  0  0  0  0  0  0  0  0  0  0  0
    9.4647    4.5433    0.4390 H   0  0  0  0  0  0  0  0  0  0  0  0
    4.8132    0.2318   -1.2584 C   0  0  0  0  0  0  0  0  0  0  0  0
    4.0692    0.6183   -1.9817 H   0  0  0  0  0  0  0  0  0  0  0  0
    5.5117   -0.4340   -1.8057 H   0  0  0  0  0  0  0  0  0  0  0  0
    5.5732    1.3562   -0.5953 C   0  0  0  0  0  0  0  0  0  0  0  0
    6.9748    1.3353   -0.5097 C   0  0  0  0  0  0  0  0  0  0  0  0
    7.5292    0.4896   -0.9480 H   0  0  0  0  0  0  0  0  0  0  0  0
    5.3751   -2.6991   -0.1079 C   0  0  0  0  0  0  0  0  0  0  0  0
    7.6868    2.3674    0.1255 C   0  0  0  0  0  0  0  0  0  0  0  0
    8.7827    2.3180    0.1702 H   0  0  0  0  0  0  0  0  0  0  0  0
    6.9823    3.4456    0.6973 C   0  0  0  0  0  0  0  0  0  0  0  0
    5.5702    3.4720    0.6232 C   0  0  0  0  0  0  0  0  0  0  0  0
    5.0421    4.3240    1.0754 H   0  0  0  0  0  0  0  0  0  0  0  0
    4.9189   -1.4526    0.5706 C   0  0  0  0  0  0  0  0  0  0  0  0
    4.3318   -1.7084    1.4722 H   0  0  0  0  0  0  0  0  0  0  0  0
    5.7952   -0.8468    0.8804 H   0  0  0  0  0  0  0  0  0  0  0  0
    4.8793    2.4419   -0.0129 C   0  0  0  0  0  0  0  0  0  0  0  0
    3.7793    2.4682   -0.0686 H   0  0  0  0  0  0  0  0  0  0  0  0
    2.7315   -0.6119   -0.2030 C   0  0  0  0  0  3  0  0  0  0  0  0
    5.7248   -4.7047   -1.0753 C   0  0  0  0  0  0  0  0  0  0  0  0
    5.6244   -5.7486   -1.3922 H   0  0  0  0  0  0  0  0  0  0  0  0
    4.8325   -3.9594   -0.2340 C   0  0  0  0  0  0  0  0  0  0  0  0
    3.8928   -4.2922    0.2198 H   0  0  0  0  0  0  0  0  0  0  0  0
    6.7451   -3.8446   -1.4069 C   0  0  0  0  0  0  0  0  0  0  0  0
    7.6525   -3.9440   -2.0109 H   0  0  0  0  0  0  0  0  0  0  0  0
  1 27  1  0  0  0  0
  3  6  1  0  0  0  0
  4 16  1  0  0  0  0
  5 27  1  0  0  0  0
  5 22  1  0  0  0  0
  6  7  1  0  0  0  0
  6  8  1  0  0  0  0
  9  6  1  0  0  0  0
 10 13  1  0  0  0  0
 10  5  1  0  0  0  0
 11 10  1  0  0  0  0
 12 10  1  0  0  0  0
 13 14  2  0  0  0  0
 13 25  1  0  0  0  0
 14 17  1  0  0  0  0
 15 14  1  0  0  0  0
 16 22  1  0  0  0  0
 17 18  1  0  0  0  0
 17 19  2  0  0  0  0
 19  3  1  0  0  0  0
 20 19  1  0  0  0  0
 20 21  1  0  0  0  0
 22 24  1  0  0  0  0
 22 23  1  0  0  0  0
 25 20  2  0  0  0  0
 26 25  1  0  0  0  0
 27  2  1  0  0  0  0
 28 30  1  0  0  0  0
 29 28  1  0  0  0  0
 30 16  2  0  0  0  0
 30 31  1  0  0  0  0
 32 28  2  0  0  0  0
 32  4  1  0  0  0  0
 33 32  1  0  0  0  0
M  END
