1,2
q = -1.0

 18 18  0  0  0  0  0  0  0  0999 V2000
   -0.5755   -1.7418    1.5524 S   0  0  0  0  0  1  0  0  0  0  0  0
    0.6740    0.9799    1.4926 S   0  0  0  0  0  1  0  0  0  0  0  0
    2.1321   -1.4286    2.6118 S   0  0  0  0  0  0  0  0  0  0  0  0
    0.7292   -0.6797    1.8812 C   0  0  0  0  0  3  0  0  0  0  0  0
    3.4614   -0.2005    2.2896 C   0  0  0  0  0  0  0  0  0  0  0  0
    3.2078    0.7474    2.8033 H   0  0  0  0  0  0  0  0  0  0  0  0
    4.3409   -0.6464    2.8018 H   0  0  0  0  0  0  0  0  0  0  0  0
    3.7289    0.0194    0.8161 C   0  0  0  0  0  0  0  0  0  0  0  0
    3.8163   -1.0637   -0.0833 C   0  0  0  0  0  0  0  0  0  0  0  0
    3.6781   -2.0899    0.2914 H   0  0  0  0  0  0  0  0  0  0  0  0
    4.0719   -0.8441   -1.4465 C   0  0  0  0  0  0  0  0  0  0  0  0
    4.1555   -1.7029   -2.1303 H   0  0  0  0  0  0  0  0  0  0  0  0
    4.2443    0.4634   -1.9325 C   0  0  0  0  0  0  0  0  0  0  0  0
    4.4616    0.6346   -2.9979 H   0  0  0  0  0  0  0  0  0  0  0  0
    4.1622    1.5481   -1.0435 C   0  0  0  0  0  0  0  0  0  0  0  0
    4.3065    2.5755   -1.4111 H   0  0  0  0  0  0  0  0  0  0  0  0
    3.9028    1.3265    0.3180 C   0  0  0  0  0  0  0  0  0  0  0  0
    3.8283    2.1798    1.0092 H   0  0  0  0  0  0  0  0  0  0  0  0
  1  4  1  0  0  0  0
  2  4  1  0  0  0  0
  4  3  1  0  0  0  0
  5  3  1  0  0  0  0
  5  7  1  0  0  0  0
  5  6  1  0  0  0  0
  8  5  1  0  0  0  0
  9 10  1  0  0  0  0
  9  8  2  0  0  0  0
 11  9  1  0  0  0  0
 12 11  1  0  0  0  0
 13 11  2  0  0  0  0
 13 15  1  0  0  0  0
 14 13  1  0  0  0  0
 15 17  2  0  0  0  0
 16 15  1  0  0  0  0
 17  8  1  0  0  0  0
 17 18  1  0  0  0  0
M  END
