1,2
q = -1.0

 23 24  0  0  1  0  0  0  0  0999 V2000
   -0.1466   -1.2788   -1.5093 S   0  0  0  0  0  1  0  0  0  0  0  0
    0.4598    2.0887   -0.8493 S   0  0  0  0  0  1  0  0  0  0  0  0
   -1.4268   -1.7596   -0.5132 C   0  0  1  0  0  3  0  0  0  0  0  0
   -2.5057   -3.0597   -1.0316 S   0  0  0  0  0  0  0  0  0  0  0  0
   -3.6392   -2.6939    0.3709 C   0  0  0  0  0  0  0  0  0  0  0  0
   -4.4236   -1.9896    0.0240 H   0  0  0  0  0  0  0  0  0  0  0  0
   -4.1167   -3.6299    0.7159 H   0  0  0  0  0  0  0  0  0  0  0  0
   -2.7214   -2.0704    1.4221 C   0  0  0  0  0  0  0  0  0  0  0  0
   -3.2784   -1.4314    2.1335 H   0  0  0  0  0  0  0  0  0  0  0  0
   -2.2054   -2.8614    2.0133 H   0  0  0  0  0  0  0  0  0  0  0  0
   -1.7194   -1.2728    0.7021 N   0  0  0  0  0  0  0  0  0  0  0  0
   -1.1072    2.1465   -0.2102 C   0  0  2  0  0  3  0  0  0  0  0  0
   -2.1385    3.5207   -0.6480 S   0  0  0  0  0  0  0  0  0  0  0  0
   -3.0117    1.7357    1.1095 C   0  0  0  0  0  0  0  0  0  0  0  0
   -2.8843    2.2679    2.0799 H   0  0  0  0  0  0  0  0  0  0  0  0
   -3.6665    0.8603    1.2908 H   0  0  0  0  0  0  0  0  0  0  0  0
   -3.6021    2.6541    0.0431 C   0  0  0  0  0  0  0  0  0  0  0  0
   -4.3146    3.3911    0.4584 H   0  0  0  0  0  0  0  0  0  0  0  0
   -4.0964    2.0865   -0.7717 H   0  0  0  0  0  0  0  0  0  0  0  0
   -1.6936    1.2879    0.6352 N   0  0  0  0  0  0  0  0  0  0  0  0
   -1.1131    0.0186    1.3088 B   0  0  0  0  0  0  0  0  0  0  0  0
   -1.4202    0.0445    2.4984 H   0  0  0  0  0  0  0  0  0  0  0  0
    0.1567    0.0349    1.4820 H   0  0  0  0  0  0  0  0  0  0  0  0
  3  1  1  1  0  0  0
  3 11  1  0  0  0  0
  4  3  1  0  0  0  0
  4  5  1  0  0  0  0
  5  7  1  0  0  0  0
  5  8  1  0  0  0  0
  6  5  1  0  0  0  0
  8 10  1  0  0  0  0
  8  9  1  0  0  0  0
 11 21  1  0  0  0  0
 11  8  1  0  0  0  0
 12  2  1  1  0  0  0
 12 20  1  0  0  0  0
 13 12  1  0  0  0  0
 13 17  1  0  0  0  0
 14 16  1  0  0  0  0
 14 15  1  0  0  0  0
 17 18  1  0  0  0  0
 17 14  1  0  0  0  0
 19 17  1  0  0  0  0
 20 14  1  0  0  0  0
 20 21  1  0  0  0  0
 21 23  1  0  0  0  0
 21 22  1  0  0  0  0
M  END
