1,2
q = 0.0, confidence = 0.566

 34 35  0  0  0  0  0  0  0  0999 V2000
   -1.5347   -1.4863    0.0820 S   0  0  0  0  0  1  0  0  0  0  0  0
   -1.4706    1.5441   -0.1591 S   0  0  0  0  0  1  0  0  0  0  0  0
   -7.7404   -3.8593   -0.4879 O   0  0  0  0  0  0  0  0  0  0  0  0
   -7.5306    4.2509   -0.0309 O   0  0  0  0  0  0  0  0  0  0  0  0
   -3.0549   -0.6425   -0.0363 C   0  0  0  0  0  0  0  0  0  0  0  0
   -3.0258    0.7591   -0.1142 C   0  0  0  0  0  0  0  0  0  0  0  0
   -4.2713   -1.4778   -0.1275 C   0  0  0  0  0  0  0  0  0  0  0  0
   -4.4172   -2.6420    0.6595 C   0  0  0  0  0  0  0  0  0  0  0  0
   -3.6083   -2.9036    1.3581 H   0  0  0  0  0  0  0  0  0  0  0  0
   -5.5523   -3.4631    0.5713 C   0  0  0  0  0  0  0  0  0  0  0  0
   -5.6175   -4.3547    1.2103 H   0  0  0  0  0  0  0  0  0  0  0  0
   -6.5867   -3.1322   -0.3253 C   0  0  0  0  0  0  0  0  0  0  0  0
   -6.4555   -1.9826   -1.1322 C   0  0  0  0  0  0  0  0  0  0  0  0
   -7.2626   -1.7479   -1.8423 H   0  0  0  0  0  0  0  0  0  0  0  0
   -5.3204   -1.1773   -1.0363 C   0  0  0  0  0  0  0  0  0  0  0  0
   -5.2270   -0.2953   -1.6856 H   0  0  0  0  0  0  0  0  0  0  0  0
   -7.8946   -5.0260    0.2844 C   0  0  0  0  0  0  0  0  0  0  0  0
   -7.0929   -5.7747    0.0840 H   0  0  0  0  0  0  0  0  0  0  0  0
   -8.8713   -5.4666    0.0053 H   0  0  0  0  0  0  0  0  0  0  0  0
   -7.8985   -4.8114    1.3790 H   0  0  0  0  0  0  0  0  0  0  0  0
   -4.2124    1.6397   -0.0765 C   0  0  0  0  0  0  0  0  0  0  0  0
   -5.3074    1.3800    0.7792 C   0  0  0  0  0  0  0  0  0  0  0  0
   -5.2743    0.4978    1.4341 H   0  0  0  0  0  0  0  0  0  0  0  0
   -6.4297    2.2206    0.8238 C   0  0  0  0  0  0  0  0  0  0  0  0
   -7.2533    1.9735    1.5078 H   0  0  0  0  0  0  0  0  0  0  0  0
   -6.4805    3.3671    0.0068 C   0  0  0  0  0  0  0  0  0  0  0  0
   -5.3896    3.6574   -0.8387 C   0  0  0  0  0  0  0  0  0  0  0  0
   -5.4410    4.5595   -1.4666 H   0  0  0  0  0  0  0  0  0  0  0  0
   -4.2809    2.8105   -0.8751 C   0  0  0  0  0  0  0  0  0  0  0  0
   -3.4315    3.0420   -1.5352 H   0  0  0  0  0  0  0  0  0  0  0  0
   -8.6385    3.9891    0.7973 C   0  0  0  0  0  0  0  0  0  0  0  0
   -9.1201    3.0112    0.5620 H   0  0  0  0  0  0  0  0  0  0  0  0
   -9.3706    4.7998    0.6162 H   0  0  0  0  0  0  0  0  0  0  0  0
   -8.3670    3.9874    1.8789 H   0  0  0  0  0  0  0  0  0  0  0  0
  2  6  1  0  0  0  0
  3 12  1  0  0  0  0
  3 17  1  0  0  0  0
  4 26  1  0  0  0  0
  4 31  1  0  0  0  0
  5  1  1  0  0  0  0
  6 21  1  0  0  0  0
  6  5  2  0  0  0  0
  7  5  1  0  0  0  0
  7  8  1  0  0  0  0
  8  9  1  0  0  0  0
 10  8  2  0  0  0  0
 10 11  1  0  0  0  0
 12 10  1  0  0  0  0
 13 15  1  0  0  0  0
 13 12  2  0  0  0  0
 14 13  1  0  0  0  0
 15  7  2  0  0  0  0
 16 15  1  0  0  0  0
 17 20  1  0  0  0  0
 18 17  1  0  0  0  0
 19 17  1  0  0  0  0
 21 22  1  0  0  0  0
 22 24  2  0  0  0  0
 22 23  1  0  0  0  0
 24 25  1  0  0  0  0
 26 24  1  0  0  0  0
 27 26  2  0  0  0  0
 28 27  1  0  0  0  0
 29 27  1  0  0  0  0
 29 21  2  0  0  0  0
 30 29  1  0  0  0  0
 31 34  1  0  0  0  0
 32 31  1  0  0  0  0
 33 31  1  0  0  0  0
M  END
