1,20
q = -1.0, confidence = 0.002

 37 38  0  0  0  0  0  0  0  0999 V2000
   -0.4788    0.0002    1.6234 S   0  0  0  0  0  1  0  0  0  0  0  0
   -1.7563    0.0016    0.0000 P   0  0  0  0  0  4  0  0  0  0  0  0
   -2.8505   -1.4692    0.0000 C   0  0  0  0  0  0  0  0  0  0  0  0
   -3.5043   -1.3778    0.8950 H   0  0  0  0  0  0  0  0  0  0  0  0
   -3.5035   -1.3782   -0.8956 H   0  0  0  0  0  0  0  0  0  0  0  0
   -2.0807   -2.7994    0.0007 C   0  0  0  0  0  0  0  0  0  0  0  0
   -1.4195   -2.8275   -0.8897 H   0  0  0  0  0  0  0  0  0  0  0  0
   -1.4205   -2.8272    0.8916 H   0  0  0  0  0  0  0  0  0  0  0  0
   -3.0236   -3.9816    0.0004 C   0  0  0  0  0  0  0  0  0  0  0  0
   -3.4901   -4.5295    1.2121 C   0  0  0  0  0  0  0  0  0  0  0  0
   -3.1259   -4.1179    2.1674 H   0  0  0  0  0  0  0  0  0  0  0  0
   -3.4898   -4.5290   -1.2117 C   0  0  0  0  0  0  0  0  0  0  0  0
   -3.1255   -4.1171   -2.1668 H   0  0  0  0  0  0  0  0  0  0  0  0
   -4.3996   -5.5976    1.2136 C   0  0  0  0  0  0  0  0  0  0  0  0
   -4.7477   -6.0184    2.1692 H   0  0  0  0  0  0  0  0  0  0  0  0
   -4.3993   -5.5971   -1.2137 C   0  0  0  0  0  0  0  0  0  0  0  0
   -4.7473   -6.0176   -2.1695 H   0  0  0  0  0  0  0  0  0  0  0  0
   -4.8581   -6.1335   -0.0002 C   0  0  0  0  0  0  0  0  0  0  0  0
   -5.5686   -6.9739   -0.0004 H   0  0  0  0  0  0  0  0  0  0  0  0
   -0.4788   -0.0003   -1.6234 S   0  0  0  0  0  1  0  0  0  0  0  0
   -2.8467    1.4752   -0.0000 C   0  0  0  0  0  0  0  0  0  0  0  0
   -3.5007    1.3856   -0.8950 H   0  0  0  0  0  0  0  0  0  0  0  0
   -3.4999    1.3860    0.8956 H   0  0  0  0  0  0  0  0  0  0  0  0
   -2.0734    2.8035   -0.0006 C   0  0  0  0  0  0  0  0  0  0  0  0
   -1.4122    2.8298    0.8897 H   0  0  0  0  0  0  0  0  0  0  0  0
   -1.4131    2.8295   -0.8916 H   0  0  0  0  0  0  0  0  0  0  0  0
   -3.0133    3.9882   -0.0003 C   0  0  0  0  0  0  0  0  0  0  0  0
   -3.4782    4.5372   -1.2121 C   0  0  0  0  0  0  0  0  0  0  0  0
   -3.1151    4.1247   -2.1674 H   0  0  0  0  0  0  0  0  0  0  0  0
   -3.4781    4.5367    1.2117 C   0  0  0  0  0  0  0  0  0  0  0  0
   -3.1148    4.1238    2.1668 H   0  0  0  0  0  0  0  0  0  0  0  0
   -4.3850    5.6077   -1.2136 C   0  0  0  0  0  0  0  0  0  0  0  0
   -4.7320    6.0295   -2.1692 H   0  0  0  0  0  0  0  0  0  0  0  0
   -4.3848    5.6072    1.2137 C   0  0  0  0  0  0  0  0  0  0  0  0
   -4.7318    6.0286    2.1695 H   0  0  0  0  0  0  0  0  0  0  0  0
   -4.8422    6.1447    0.0002 C   0  0  0  0  0  0  0  0  0  0  0  0
   -5.5504    6.9870    0.0004 H   0  0  0  0  0  0  0  0  0  0  0  0
  2  3  1  0  0  0  0
  2  1  1  0  0  0  0
  3  6  1  0  0  0  0
  3  4  1  0  0  0  0
  5  3  1  0  0  0  0
  6  8  1  0  0  0  0
  7  6  1  0  0  0  0
  9  6  1  0  0  0  0
  9 10  1  0  0  0  0
 10 14  2  0  0  0  0
 10 11  1  0  0  0  0
 12  9  2  0  0  0  0
 13 12  1  0  0  0  0
 14 15  1  0  0  0  0
 16 12  1  0  0  0  0
 16 18  2  0  0  0  0
 17 16  1  0  0  0  0
 18 14  1  0  0  0  0
 19 18  1  0  0  0  0
 20  2  1  0  0  0  0
 21  2  1  0  0  0  0
 21 23  1  0  0  0  0
 22 21  1  0  0  0  0
 24 27  1  0  0  0  0
 24 21  1  0  0  0  0
 24 25  1  0  0  0  0
 26 24  1  0  0  0  0
 27 30  1  0  0  0  0
 28 27  2  0  0  0  0
 29 28  1  0  0  0  0
 30 34  2  0  0  0  0
 30 31  1  0  0  0  0
 32 28  1  0  0  0  0
 32 36  2  0  0  0  0
 33 32  1  0  0  0  0
 34 35  1  0  0  0  0
 36 37  1  0  0  0  0
 36 34  1  0  0  0  0
M  END
