1,2
q = -1.0, confidence = 0.0

 16 15  0  0  0  0  0  0  0  0999 V2000
   -1.6373    1.1598   -1.0325 S   0  0  0  0  0  1  0  0  0  0  0  0
   -1.5459   -1.4037    0.8542 S   0  0  0  0  0  1  0  0  0  0  0  0
   -2.7516    0.1602    0.3634 P   0  0  0  0  0  4  0  0  0  0  0  0
   -4.2935   -0.3853   -0.1291 N   0  0  0  0  0  0  0  0  0  0  0  0
   -3.0841    1.2229    1.8094 C   0  0  0  0  0  0  0  0  0  0  0  0
   -5.4333    0.5226   -0.1508 C   0  0  0  0  0  0  0  0  0  0  0  0
   -4.2929   -1.3593   -1.2180 C   0  0  0  0  0  0  0  0  0  0  0  0
   -3.7001    0.6757    2.5497 H   0  0  0  0  0  0  0  0  0  0  0  0
   -3.5735    2.1684    1.5067 H   0  0  0  0  0  0  0  0  0  0  0  0
   -2.0941    1.4555    2.2427 H   0  0  0  0  0  0  0  0  0  0  0  0
   -6.3699   -0.0742   -0.1596 H   0  0  0  0  0  0  0  0  0  0  0  0
   -5.4457    1.1852   -1.0492 H   0  0  0  0  0  0  0  0  0  0  0  0
   -5.4565    1.1579    0.7535 H   0  0  0  0  0  0  0  0  0  0  0  0
   -5.1955   -2.0012   -1.1392 H   0  0  0  0  0  0  0  0  0  0  0  0
   -4.2869   -0.8745   -2.2219 H   0  0  0  0  0  0  0  0  0  0  0  0
   -3.3956   -2.0023   -1.1330 H   0  0  0  0  0  0  0  0  0  0  0  0
  1  3  1  0  0  0  0
  3  2  1  0  0  0  0
  3  5  1  0  0  0  0
  4  3  1  0  0  0  0
  5 10  1  0  0  0  0
  5  8  1  0  0  0  0
  6  4  1  0  0  0  0
  6 13  1  0  0  0  0
  7 14  1  0  0  0  0
  7 16  1  0  0  0  0
  7  4  1  0  0  0  0
  9  5  1  0  0  0  0
 11  6  1  0  0  0  0
 12  6  1  0  0  0  0
 15  7  1  0  0  0  0
M  END
