1,2
q = -1.0

 29 30  0  0  0  0  0  0  0  0999 V2000
    1.4657   -1.9083   -1.9038 S   0  0  0  0  0  1  0  0  0  0  0  0
    1.6518   -1.2299    1.0042 S   0  0  0  0  0  1  0  0  0  0  0  0
    6.3643    2.6640    1.2058 S   0  0  0  0  0  0  0  0  0  0  0  0
    3.5982   -0.7096   -0.7604 N   0  0  0  0  0  0  0  0  0  0  0  0
    3.6795    1.5987   -2.8064 O   0  0  0  0  0  0  0  0  0  0  0  0
    2.3552   -1.2340   -0.5886 C   0  0  0  0  0  3  0  0  0  0  0  0
    4.2474   -0.6600   -2.0814 C   0  0  0  0  0  0  0  0  0  0  0  0
    6.7975    3.0183    2.8463 C   0  0  0  0  0  0  0  0  0  0  0  0
    4.7019    2.0019    3.0650 C   0  0  0  0  0  0  0  0  0  0  0  0
    4.8388    1.9572    1.6874 C   0  0  0  0  0  0  0  0  0  0  0  0
    4.3450   -0.1200    0.3510 C   0  0  0  0  0  0  0  0  0  0  0  0
    4.6700    0.7148   -2.4672 C   0  0  0  0  0  0  0  0  0  0  0  0
    3.9326    1.3347    0.6716 C   0  0  0  0  0  0  0  0  0  0  0  0
    5.8897    1.3597   -2.4803 C   0  0  0  0  0  0  0  0  0  0  0  0
    5.8141    2.6103    3.7262 C   0  0  0  0  0  0  0  0  0  0  0  0
    5.6279    2.7215   -2.8510 C   0  0  0  0  0  0  0  0  0  0  0  0
    4.2675    2.8073   -3.0341 C   0  0  0  0  0  0  0  0  0  0  0  0
    5.4207   -0.1473    0.0852 H   0  0  0  0  0  0  0  0  0  0  0  0
    4.1993   -0.7510    1.2508 H   0  0  0  0  0  0  0  0  0  0  0  0
    5.8850    2.7484    4.8141 H   0  0  0  0  0  0  0  0  0  0  0  0
    2.8943    1.3229    1.0599 H   0  0  0  0  0  0  0  0  0  0  0  0
    5.1456   -1.3141   -2.0714 H   0  0  0  0  0  0  0  0  0  0  0  0
    3.5199   -1.0767   -2.8081 H   0  0  0  0  0  0  0  0  0  0  0  0
    3.8145    1.6050    3.5783 H   0  0  0  0  0  0  0  0  0  0  0  0
    3.9271    1.9292   -0.2628 H   0  0  0  0  0  0  0  0  0  0  0  0
    3.5928    3.6193   -3.3233 H   0  0  0  0  0  0  0  0  0  0  0  0
    6.8598    0.9106   -2.2401 H   0  0  0  0  0  0  0  0  0  0  0  0
    7.7463    3.5218    3.0681 H   0  0  0  0  0  0  0  0  0  0  0  0
    6.3551    3.5326   -2.9646 H   0  0  0  0  0  0  0  0  0  0  0  0
  1  6  1  0  0  0  0
  3 10  1  0  0  0  0
  3  8  1  0  0  0  0
  4  6  1  0  0  0  0
  4 11  1  0  0  0  0
  5 12  1  0  0  0  0
  6  2  1  0  0  0  0
  7 22  1  0  0  0  0
  7  4  1  0  0  0  0
  8 28  1  0  0  0  0
  8 15  2  0  0  0  0
  9 24  1  0  0  0  0
  9 15  1  0  0  0  0
 10  9  2  0  0  0  0
 11 13  1  0  0  0  0
 11 19  1  0  0  0  0
 12  7  1  0  0  0  0
 13 21  1  0  0  0  0
 13 10  1  0  0  0  0
 14 12  2  0  0  0  0
 14 27  1  0  0  0  0
 15 20  1  0  0  0  0
 16 14  1  0  0  0  0
 17 16  2  0  0  0  0
 17  5  1  0  0  0  0
 18 11  1  0  0  0  0
 23  7  1  0  0  0  0
 25 13  1  0  0  0  0
 26 17  1  0  0  0  0
 29 16  1  0  0  0  0
M  END
