3,4
q = -1.0

 62 66  0  0  0  0  0  0  0  0999 V2000
   -1.8478    1.7388    0.5128 P   0  0  0  0  0  4  0  0  0  0  0  0
   -2.0863   -1.1138   -0.0701 P   0  0  0  0  0  4  0  0  0  0  0  0
   -0.2081    1.8028   -0.7632 S   0  0  0  0  0  1  0  0  0  0  0  0
   -0.4029   -1.4492    1.1360 S   0  0  0  0  0  1  0  0  0  0  0  0
   -2.9157    0.4032    0.1923 C   0  0  0  0  0  3  0  0  0  0  0  0
   -4.3748    0.4137    0.6393 C   0  0  0  0  0  0  0  0  0  0  0  0
   -5.3552   -0.1520   -0.3508 C   0  0  0  0  0  0  0  0  0  0  0  0
   -5.2980   -0.1690   -1.7180 C   0  0  0  0  0  0  0  0  0  0  0  0
   -6.4800   -0.8496   -2.2514 C   0  0  0  0  0  0  0  0  0  0  0  0
   -7.2705   -1.2637   -1.2197 C   0  0  0  0  0  0  0  0  0  0  0  0
   -6.6213   -0.8557    0.0719 C   0  0  0  0  0  0  0  0  0  0  0  0
   -2.7620    3.2970    0.2395 C   0  0  0  0  0  0  0  0  0  0  0  0
   -3.6334    3.3860   -0.8658 C   0  0  0  0  0  0  0  0  0  0  0  0
   -4.3039    4.5879   -1.1295 C   0  0  0  0  0  0  0  0  0  0  0  0
   -4.1005    5.7042   -0.3010 C   0  0  0  0  0  0  0  0  0  0  0  0
   -3.2288    5.6169    0.7963 C   0  0  0  0  0  0  0  0  0  0  0  0
   -2.5582    4.4158    1.0705 C   0  0  0  0  0  0  0  0  0  0  0  0
   -1.2007    1.8124    2.2342 C   0  0  0  0  0  0  0  0  0  0  0  0
    0.0749    2.3300    2.5264 C   0  0  0  0  0  0  0  0  0  0  0  0
    0.5577    2.2952    3.8430 C   0  0  0  0  0  0  0  0  0  0  0  0
   -0.2354    1.7610    4.8705 C   0  0  0  0  0  0  0  0  0  0  0  0
   -1.5153    1.2583    4.5819 C   0  0  0  0  0  0  0  0  0  0  0  0
   -1.9962    1.2750    3.2652 C   0  0  0  0  0  0  0  0  0  0  0  0
   -3.2463   -2.4550    0.3659 C   0  0  0  0  0  0  0  0  0  0  0  0
   -3.9841   -3.1226   -0.6300 C   0  0  0  0  0  0  0  0  0  0  0  0
   -4.9341   -4.0869   -0.2627 C   0  0  0  0  0  0  0  0  0  0  0  0
   -5.1463   -4.3866    1.0932 C   0  0  0  0  0  0  0  0  0  0  0  0
   -4.4055   -3.7238    2.0861 C   0  0  0  0  0  0  0  0  0  0  0  0
   -3.4556   -2.7562    1.7268 C   0  0  0  0  0  0  0  0  0  0  0  0
   -1.5418   -1.4083   -1.7917 C   0  0  0  0  0  0  0  0  0  0  0  0
   -0.8050   -2.5717   -2.0915 C   0  0  0  0  0  0  0  0  0  0  0  0
   -0.3352   -2.7780   -3.3946 C   0  0  0  0  0  0  0  0  0  0  0  0
   -0.5925   -1.8255   -4.3952 C   0  0  0  0  0  0  0  0  0  0  0  0
   -1.3260   -0.6673   -4.0946 C   0  0  0  0  0  0  0  0  0  0  0  0
   -1.8024   -0.4563   -2.7925 C   0  0  0  0  0  0  0  0  0  0  0  0
   -4.5242   -0.1215    1.6073 H   0  0  0  0  0  0  0  0  0  0  0  0
   -4.6544    1.4692    0.8656 H   0  0  0  0  0  0  0  0  0  0  0  0
   -4.4769    0.2305   -2.3266 H   0  0  0  0  0  0  0  0  0  0  0  0
   -6.6795   -1.0013   -3.3221 H   0  0  0  0  0  0  0  0  0  0  0  0
   -8.2241   -1.8032   -1.2924 H   0  0  0  0  0  0  0  0  0  0  0  0
   -6.3805   -1.7368    0.7116 H   0  0  0  0  0  0  0  0  0  0  0  0
   -7.2772   -0.2056    0.6963 H   0  0  0  0  0  0  0  0  0  0  0  0
   -3.7917    2.5029   -1.5033 H   0  0  0  0  0  0  0  0  0  0  0  0
   -4.9895    4.6532   -1.9877 H   0  0  0  0  0  0  0  0  0  0  0  0
   -4.6258    6.6481   -0.5118 H   0  0  0  0  0  0  0  0  0  0  0  0
   -3.0701    6.4903    1.4466 H   0  0  0  0  0  0  0  0  0  0  0  0
   -1.8784    4.3430    1.9325 H   0  0  0  0  0  0  0  0  0  0  0  0
    0.7040    2.7253    1.7162 H   0  0  0  0  0  0  0  0  0  0  0  0
    1.5685    2.6729    4.0575 H   0  0  0  0  0  0  0  0  0  0  0  0
    0.1490    1.7257    5.9012 H   0  0  0  0  0  0  0  0  0  0  0  0
   -2.1352    0.8321    5.3852 H   0  0  0  0  0  0  0  0  0  0  0  0
   -2.9822    0.8463    3.0316 H   0  0  0  0  0  0  0  0  0  0  0  0
   -3.8231   -2.8779   -1.6895 H   0  0  0  0  0  0  0  0  0  0  0  0
   -5.5153   -4.6012   -1.0422 H   0  0  0  0  0  0  0  0  0  0  0  0
   -5.8923   -5.1439    1.3783 H   0  0  0  0  0  0  0  0  0  0  0  0
   -4.5654   -3.9640    3.1481 H   0  0  0  0  0  0  0  0  0  0  0  0
   -2.8648   -2.2377    2.4983 H   0  0  0  0  0  0  0  0  0  0  0  0
   -0.5661   -3.2902   -1.2937 H   0  0  0  0  0  0  0  0  0  0  0  0
    0.2563   -3.6768   -3.6235 H   0  0  0  0  0  0  0  0  0  0  0  0
   -0.2069   -1.9828   -5.4140 H   0  0  0  0  0  0  0  0  0  0  0  0
   -1.5145    0.0864   -4.8738 H   0  0  0  0  0  0  0  0  0  0  0  0
   -2.3415    0.4631   -2.5234 H   0  0  0  0  0  0  0  0  0  0  0  0
  1 18  1  0  0  0  0
  2  5  1  0  0  0  0
  2 24  1  0  0  0  0
  2  4  1  0  0  0  0
  3  1  1  0  0  0  0
  5  1  1  0  0  0  0
  5  6  1  0  0  0  0
  6 37  1  0  0  0  0
  6 36  1  0  0  0  0
  7 11  1  0  0  0  0
  7  6  1  0  0  0  0
  8  7  2  0  0  0  0
  9  8  1  0  0  0  0
  9 10  2  0  0  0  0
 10 11  1  0  0  0  0
 11 42  1  0  0  0  0
 11 41  1  0  0  0  0
 12  1  1  0  0  0  0
 12 17  1  0  0  0  0
 13 12  2  0  0  0  0
 14 13  1  0  0  0  0
 14 15  2  0  0  0  0
 15 16  1  0  0  0  0
 16 17  2  0  0  0  0
 16 46  1  0  0  0  0
 17 47  1  0  0  0  0
 18 19  2  0  0  0  0
 18 23  1  0  0  0  0
 19 20  1  0  0  0  0
 20 49  1  0  0  0  0
 20 21  2  0  0  0  0
 21 50  1  0  0  0  0
 22 21  1  0  0  0  0
 22 51  1  0  0  0  0
 23 22  2  0  0  0  0
 24 29  1  0  0  0  0
 25 26  1  0  0  0  0
 25 24  2  0  0  0  0
 26 27  2  0  0  0  0
 27 55  1  0  0  0  0
 27 28  1  0  0  0  0
 28 56  1  0  0  0  0
 29 28  2  0  0  0  0
 29 57  1  0  0  0  0
 30  2  1  0  0  0  0
 31 30  1  0  0  0  0
 31 58  1  0  0  0  0
 32 31  2  0  0  0  0
 33 34  2  0  0  0  0
 33 32  1  0  0  0  0
 34 35  1  0  0  0  0
 35 62  1  0  0  0  0
 35 30  2  0  0  0  0
 38  8  1  0  0  0  0
 39  9  1  0  0  0  0
 40 10  1  0  0  0  0
 43 13  1  0  0  0  0
 44 14  1  0  0  0  0
 45 15  1  0  0  0  0
 48 19  1  0  0  0  0
 52 23  1  0  0  0  0
 53 25  1  0  0  0  0
 54 26  1  0  0  0  0
 59 32  1  0  0  0  0
 60 33  1  0  0  0  0
 61 34  1  0  0  0  0
M  END
