1,2
q = 0.0, confidence = 1.0

 34 35  0  0  0  0  0  0  0  0999 V2000
    1.2876    0.6729   -0.8986 S   0  0  0  0  0  0  0  0  0  0  0  0
   -1.5387    0.1875    1.2962 S   0  0  0  0  0  0  0  0  0  0  0  0
   -0.7777    4.0070    0.2249 O   0  0  0  0  0  0  0  0  0  0  0  0
   -0.5602    4.4483   -0.6169 H   0  0  0  0  0  0  0  0  0  0  0  0
    3.0022    0.5473   -0.3527 C   0  0  0  0  0  0  0  0  0  0  0  0
    3.9910    1.0928   -1.1874 C   0  0  0  0  0  0  0  0  0  0  0  0
    3.7109    1.5438   -2.1512 H   0  0  0  0  0  0  0  0  0  0  0  0
    5.3349    1.0386   -0.7852 C   0  0  0  0  0  0  0  0  0  0  0  0
    6.1153    1.4598   -1.4366 H   0  0  0  0  0  0  0  0  0  0  0  0
    5.6803    0.4358    0.4339 C   0  0  0  0  0  0  0  0  0  0  0  0
    6.7352    0.3861    0.7426 H   0  0  0  0  0  0  0  0  0  0  0  0
    4.6826   -0.1165    1.2549 C   0  0  0  0  0  0  0  0  0  0  0  0
    4.9534   -0.6040    2.2034 H   0  0  0  0  0  0  0  0  0  0  0  0
    3.3372   -0.0664    0.8660 C   0  0  0  0  0  0  0  0  0  0  0  0
    2.5482   -0.5203    1.4843 H   0  0  0  0  0  0  0  0  0  0  0  0
    0.9069    2.3262   -0.1555 C   0  0  0  0  0  0  0  0  0  0  0  0
    1.4576    2.4252    0.8008 H   0  0  0  0  0  0  0  0  0  0  0  0
    1.3255    3.0633   -0.8716 H   0  0  0  0  0  0  0  0  0  0  0  0
   -0.5894    2.6078    0.0467 C   0  0  0  0  0  0  0  0  0  0  0  0
   -1.1718    2.2264   -0.8288 H   0  0  0  0  0  0  0  0  0  0  0  0
   -1.1515    1.9827    1.3241 C   0  0  0  0  0  0  0  0  0  0  0  0
   -2.0976    2.5012    1.5750 H   0  0  0  0  0  0  0  0  0  0  0  0
   -0.4509    2.1193    2.1730 H   0  0  0  0  0  0  0  0  0  0  0  0
   -2.9989    0.2253    0.2303 C   0  0  0  0  0  0  0  0  0  0  0  0
   -5.3615    0.7276    0.0072 C   0  0  0  0  0  0  0  0  0  0  0  0
   -6.3022    1.0957    0.4435 H   0  0  0  0  0  0  0  0  0  0  0  0
   -5.3278    0.2718   -1.3208 C   0  0  0  0  0  0  0  0  0  0  0  0
   -6.2437    0.2873   -1.9305 H   0  0  0  0  0  0  0  0  0  0  0  0
   -4.1297   -0.2155   -1.8656 C   0  0  0  0  0  0  0  0  0  0  0  0
   -4.1014   -0.5863   -2.9011 H   0  0  0  0  0  0  0  0  0  0  0  0
   -2.9581   -0.2420   -1.0937 C   0  0  0  0  0  0  0  0  0  0  0  0
   -2.0164   -0.6404   -1.5025 H   0  0  0  0  0  0  0  0  0  0  0  0
   -4.1996    0.6963    0.7915 C   0  0  0  0  0  0  0  0  0  0  0  0
   -4.2275    1.0262    1.8415 H   0  0  0  0  0  0  0  0  0  0  0  0
  1  5  1  0  0  0  0
  1 16  1  0  0  0  0
  2 21  1  0  0  0  0
  4  3  1  0  0  0  0
  5 14  1  0  0  0  0
  6  8  1  0  0  0  0
  6  5  2  0  0  0  0
  7  6  1  0  0  0  0
  8 10  2  0  0  0  0
  9  8  1  0  0  0  0
 10 11  1  0  0  0  0
 10 12  1  0  0  0  0
 12 13  1  0  0  0  0
 14 12  2  0  0  0  0
 14 15  1  0  0  0  0
 16 19  1  0  0  0  0
 16 17  1  0  0  0  0
 18 16  1  0  0  0  0
 19  3  1  0  0  0  0
 19 21  1  0  0  0  0
 20 19  1  0  0  0  0
 21 22  1  0  0  0  0
 21 23  1  0  0  0  0
 24 33  1  0  0  0  0
 24  2  1  0  0  0  0
 25 26  1  0  0  0  0
 25 33  2  0  0  0  0
 27 25  1  0  0  0  0
 28 27  1  0  0  0  0
 29 27  2  0  0  0  0
 29 31  1  0  0  0  0
 30 29  1  0  0  0  0
 31 24  2  0  0  0  0
 32 31  1  0  0  0  0
 33 34  1  0  0  0  0
M  END
