11,12
q = -2.0, confidence = 0.516

 13 14  0  0  0  0  0  0  0  0999 V2000
    4.3918    1.4371    0.0000 C   0  0  0  0  0  0  0  0  0  0  0  0
    4.3926    2.5363    0.0002 H   0  0  0  0  0  0  0  0  0  0  0  0
    5.6258    0.7333    0.0001 C   0  0  0  0  0  0  0  0  0  0  0  0
    5.6258   -0.7333   -0.0001 C   0  0  0  0  0  0  0  0  0  0  0  0
    4.3918   -1.4371   -0.0002 C   0  0  0  0  0  0  0  0  0  0  0  0
    4.3926   -2.5363   -0.0002 H   0  0  0  0  0  0  0  0  0  0  0  0
    3.1905   -0.7278   -0.0003 C   0  0  0  0  0  0  0  0  0  0  0  0
    3.1905    0.7278   -0.0003 C   0  0  0  0  0  0  0  0  0  0  0  0
    6.8600   -1.2781    0.0001 N   0  0  0  0  0  0  0  0  0  0  0  0
    6.8600    1.2781    0.0003 N   0  0  0  0  0  0  0  0  0  0  0  0
    1.6909   -1.6527   -0.0006 S   0  0  0  0  0  1  0  0  0  0  0  0
    1.6909    1.6527   -0.0007 S   0  0  0  0  0  1  0  0  0  0  0  0
    7.9225    0.0000    0.0002 S   0  0  0  0  0  0  0  0  0  0  0  0
  1  3  1  0  0  0  0
  1  2  1  0  0  0  0
  3 10  2  0  0  0  0
  4  9  2  0  0  0  0
  4  3  1  0  0  0  0
  5  6  1  0  0  0  0
  5  4  1  0  0  0  0
  7  8  1  0  0  0  0
  7  5  2  0  0  0  0
  8  1  2  0  0  0  0
  9 13  1  0  0  0  0
 11  7  1  0  0  0  0
 12  8  1  0  0  0  0
 13 10  1  0  0  0  0
M  END
