1,2
q = 0.0, confidence = 0.574

 15 15  0  0  0  0  0  0  0  0999 V2000
    1.0448   -2.1170   -0.2226 S   0  0  0  0  0  1  0  0  0  0  0  0
    2.1477    1.0040    0.1152 S   0  0  0  0  0  1  0  0  0  0  0  0
    6.4900    1.4877   -0.3015 N   0  0  0  0  0  0  0  0  0  0  0  0
    2.7261   -1.6734   -0.1737 C   0  0  0  0  0  0  0  0  0  0  0  0
    3.2265   -0.4062   -0.0338 C   0  0  0  0  0  0  0  0  0  0  0  0
    4.6718   -0.1289   -0.0097 C   0  0  0  0  0  0  0  0  0  0  0  0
    5.1895    1.1649   -0.3003 C   0  0  0  0  0  0  0  0  0  0  0  0
    7.3778    0.5239   -0.0090 C   0  0  0  0  0  0  0  0  0  0  0  0
    6.9957   -0.7929    0.3025 C   0  0  0  0  0  0  0  0  0  0  0  0
    5.6363   -1.1166    0.3114 C   0  0  0  0  0  0  0  0  0  0  0  0
    3.4080   -2.5297   -0.3098 H   0  0  0  0  0  0  0  0  0  0  0  0
    4.4776    1.9711   -0.5535 H   0  0  0  0  0  0  0  0  0  0  0  0
    8.4456    0.8118   -0.0149 H   0  0  0  0  0  0  0  0  0  0  0  0
    7.7554   -1.5502    0.5531 H   0  0  0  0  0  0  0  0  0  0  0  0
    5.3106   -2.1305    0.5891 H   0  0  0  0  0  0  0  0  0  0  0  0
  1  4  1  0  0  0  0
  3  7  2  0  0  0  0
  3  8  1  0  0  0  0
  4  5  2  0  0  0  0
  5  6  1  0  0  0  0
  5  2  1  0  0  0  0
  6 10  2  0  0  0  0
  7  6  1  0  0  0  0
  8  9  2  0  0  0  0
  9 10  1  0  0  0  0
  9 14  1  0  0  0  0
 10 15  1  0  0  0  0
 11  4  1  0  0  0  0
 12  7  1  0  0  0  0
 13  8  1  0  0  0  0
M  END
