1,3
q = -2.0, confidence = 0.896

 64 67  0  0  0  0  0  0  0  0999 V2000
    2.3326   -2.1779    0.5716 S   0  0  0  0  0  1  0  0  0  0  0  0
    1.4171   -0.0654   -1.9846 S   0  0  0  0  0  0  0  0  0  0  0  0
   -2.3324   -2.1779   -0.5715 S   0  0  0  0  0  1  0  0  0  0  0  0
   -1.4168   -0.0650    1.9845 S   0  0  0  0  0  0  0  0  0  0  0  0
    3.2233   -0.7622    0.0004 C   0  0  0  0  0  0  0  0  0  0  0  0
    2.8564    0.1689   -0.9509 C   0  0  0  0  0  0  0  0  0  0  0  0
   -3.2231   -0.7623   -0.0004 C   0  0  0  0  0  0  0  0  0  0  0  0
   -2.8563    0.1689    0.9509 C   0  0  0  0  0  0  0  0  0  0  0  0
    0.5566    1.5627   -1.8855 C   0  0  0  0  0  0  0  0  0  0  0  0
   -0.3618    1.7254   -0.6752 C   0  0  0  0  0  0  0  0  0  0  0  0
    0.3620    1.7256    0.6746 C   0  0  0  0  0  0  0  0  0  0  0  0
   -0.5564    1.5630    1.8851 C   0  0  0  0  0  0  0  0  0  0  0  0
    4.5631   -0.6882    0.6586 C   0  0  0  0  0  0  0  0  0  0  0  0
    4.6836   -0.7369    2.0655 C   0  0  0  0  0  0  0  0  0  0  0  0
    5.9414   -0.6421    2.6757 C   0  0  0  0  0  0  0  0  0  0  0  0
    7.1006   -0.5183    1.8921 C   0  0  0  0  0  0  0  0  0  0  0  0
    6.9928   -0.4952    0.4922 C   0  0  0  0  0  0  0  0  0  0  0  0
    5.7362   -0.5812   -0.1206 C   0  0  0  0  0  0  0  0  0  0  0  0
    3.6300    1.4092   -1.2148 C   0  0  0  0  0  0  0  0  0  0  0  0
    3.9446    1.8089   -2.5350 C   0  0  0  0  0  0  0  0  0  0  0  0
    4.6638    2.9871   -2.7763 C   0  0  0  0  0  0  0  0  0  0  0  0
    5.0745    3.7990   -1.7062 C   0  0  0  0  0  0  0  0  0  0  0  0
    4.7515    3.4242   -0.3918 C   0  0  0  0  0  0  0  0  0  0  0  0
    4.0323    2.2472   -0.1482 C   0  0  0  0  0  0  0  0  0  0  0  0
   -4.5629   -0.6883   -0.6584 C   0  0  0  0  0  0  0  0  0  0  0  0
   -4.6836   -0.7373   -2.0653 C   0  0  0  0  0  0  0  0  0  0  0  0
   -5.9414   -0.6425   -2.6755 C   0  0  0  0  0  0  0  0  0  0  0  0
   -7.1005   -0.5185   -1.8919 C   0  0  0  0  0  0  0  0  0  0  0  0
   -6.9927   -0.4951   -0.4919 C   0  0  0  0  0  0  0  0  0  0  0  0
   -5.7360   -0.5811    0.1208 C   0  0  0  0  0  0  0  0  0  0  0  0
   -3.6303    1.4090    1.2148 C   0  0  0  0  0  0  0  0  0  0  0  0
   -3.9447    1.8088    2.5350 C   0  0  0  0  0  0  0  0  0  0  0  0
   -4.6642    2.9867    2.7764 C   0  0  0  0  0  0  0  0  0  0  0  0
   -5.0754    3.7984    1.7062 C   0  0  0  0  0  0  0  0  0  0  0  0
   -4.7526    3.4235    0.3918 C   0  0  0  0  0  0  0  0  0  0  0  0
   -4.0331    2.2467    0.1482 C   0  0  0  0  0  0  0  0  0  0  0  0
   -0.0242    1.6092   -2.8285 H   0  0  0  0  0  0  0  0  0  0  0  0
    1.3383    2.3482   -1.9383 H   0  0  0  0  0  0  0  0  0  0  0  0
   -1.1182    0.9127   -0.6966 H   0  0  0  0  0  0  0  0  0  0  0  0
   -0.9379    2.6705   -0.7927 H   0  0  0  0  0  0  0  0  0  0  0  0
    1.1184    0.9128    0.6962 H   0  0  0  0  0  0  0  0  0  0  0  0
    0.9380    2.6706    0.7920 H   0  0  0  0  0  0  0  0  0  0  0  0
    0.0244    1.6097    2.8280 H   0  0  0  0  0  0  0  0  0  0  0  0
   -1.3382    2.3485    1.9376 H   0  0  0  0  0  0  0  0  0  0  0  0
    3.7733   -0.8462    2.6736 H   0  0  0  0  0  0  0  0  0  0  0  0
    6.0175   -0.6678    3.7735 H   0  0  0  0  0  0  0  0  0  0  0  0
    8.0884   -0.4493    2.3725 H   0  0  0  0  0  0  0  0  0  0  0  0
    7.8971   -0.4135   -0.1300 H   0  0  0  0  0  0  0  0  0  0  0  0
    5.6508   -0.5636   -1.2166 H   0  0  0  0  0  0  0  0  0  0  0  0
    3.6189    1.1745   -3.3735 H   0  0  0  0  0  0  0  0  0  0  0  0
    4.9087    3.2726   -3.8109 H   0  0  0  0  0  0  0  0  0  0  0  0
    5.6376    4.7251   -1.8968 H   0  0  0  0  0  0  0  0  0  0  0  0
    5.0574    4.0586    0.4541 H   0  0  0  0  0  0  0  0  0  0  0  0
    3.7780    1.9593    0.8820 H   0  0  0  0  0  0  0  0  0  0  0  0
   -3.7733   -0.8467   -2.6735 H   0  0  0  0  0  0  0  0  0  0  0  0
   -6.0176   -0.6684   -3.7733 H   0  0  0  0  0  0  0  0  0  0  0  0
   -8.0884   -0.4495   -2.3721 H   0  0  0  0  0  0  0  0  0  0  0  0
   -7.8969   -0.4133    0.1303 H   0  0  0  0  0  0  0  0  0  0  0  0
   -5.6505   -0.5633    1.2168 H   0  0  0  0  0  0  0  0  0  0  0  0
   -3.6186    1.1746    3.3736 H   0  0  0  0  0  0  0  0  0  0  0  0
   -4.9090    3.2723    3.8110 H   0  0  0  0  0  0  0  0  0  0  0  0
   -5.6388    4.7243    1.8968 H   0  0  0  0  0  0  0  0  0  0  0  0
   -5.0590    4.0577   -0.4541 H   0  0  0  0  0  0  0  0  0  0  0  0
   -3.7789    1.9588   -0.8821 H   0  0  0  0  0  0  0  0  0  0  0  0
  2  9  1  0  0  0  0
  2  6  1  0  0  0  0
  3  7  1  0  0  0  0
  5  1  1  0  0  0  0
  5 13  1  0  0  0  0
  6  5  2  0  0  0  0
  7  8  2  0  0  0  0
  8 31  1  0  0  0  0
  8  4  1  0  0  0  0
  9 10  1  0  0  0  0
 10 11  1  0  0  0  0
 11 41  1  0  0  0  0
 11 42  1  0  0  0  0
 11 12  1  0  0  0  0
 12 44  1  0  0  0  0
 12  4  1  0  0  0  0
 12 43  1  0  0  0  0
 13 14  1  0  0  0  0
 14 45  1  0  0  0  0
 14 15  2  0  0  0  0
 15 46  1  0  0  0  0
 16 47  1  0  0  0  0
 16 15  1  0  0  0  0
 17 16  2  0  0  0  0
 18 17  1  0  0  0  0
 18 13  2  0  0  0  0
 19  6  1  0  0  0  0
 19 24  1  0  0  0  0
 20 19  2  0  0  0  0
 21 20  1  0  0  0  0
 21 22  2  0  0  0  0
 22 23  1  0  0  0  0
 23 24  2  0  0  0  0
 23 53  1  0  0  0  0
 24 54  1  0  0  0  0
 25  7  1  0  0  0  0
 25 30  1  0  0  0  0
 26 25  2  0  0  0  0
 27 26  1  0  0  0  0
 27 28  2  0  0  0  0
 28 29  1  0  0  0  0
 29 30  2  0  0  0  0
 29 58  1  0  0  0  0
 30 59  1  0  0  0  0
 31 32  1  0  0  0  0
 32 33  2  0  0  0  0
 32 60  1  0  0  0  0
 33 61  1  0  0  0  0
 34 62  1  0  0  0  0
 34 33  1  0  0  0  0
 35 34  2  0  0  0  0
 36 35  1  0  0  0  0
 36 31  2  0  0  0  0
 37  9  1  0  0  0  0
 38  9  1  0  0  0  0
 39 10  1  0  0  0  0
 40 10  1  0  0  0  0
 48 17  1  0  0  0  0
 49 18  1  0  0  0  0
 50 20  1  0  0  0  0
 51 21  1  0  0  0  0
 52 22  1  0  0  0  0
 55 26  1  0  0  0  0
 56 27  1  0  0  0  0
 57 28  1  0  0  0  0
 63 35  1  0  0  0  0
 64 36  1  0  0  0  0
M  END
