2,3
q = -1.0

 17 16  0  0  0  0  0  0  0  0999 V2000
    3.7722   -0.3159    0.0995 P   0  0  0  0  0  4  0  0  0  0  0  0
    1.3843    0.8181   -1.3431 S   0  0  0  0  0  1  0  0  0  0  0  0
    1.1461   -1.7362    0.1343 S   0  0  0  0  0  1  0  0  0  0  0  0
    2.2783   -0.7161   -0.8856 C   0  0  0  0  0  0  0  0  0  0  0  0
    4.8770    0.7361   -0.8817 C   0  0  0  0  0  0  0  0  0  0  0  0
    4.6349   -1.8489    0.5436 C   0  0  0  0  0  0  0  0  0  0  0  0
    3.2945    0.5570    1.6098 C   0  0  0  0  0  0  0  0  0  0  0  0
    2.6192   -1.2616   -1.7940 H   0  0  0  0  0  0  0  0  0  0  0  0
    4.3126    1.6359   -1.1960 H   0  0  0  0  0  0  0  0  0  0  0  0
    5.2136    0.1851   -1.7815 H   0  0  0  0  0  0  0  0  0  0  0  0
    5.7585    1.0337   -0.2810 H   0  0  0  0  0  0  0  0  0  0  0  0
    4.9580   -2.3737   -0.3766 H   0  0  0  0  0  0  0  0  0  0  0  0
    3.9324   -2.4953    1.1053 H   0  0  0  0  0  0  0  0  0  0  0  0
    5.5209   -1.6232    1.1687 H   0  0  0  0  0  0  0  0  0  0  0  0
    2.5790   -0.0756    2.1693 H   0  0  0  0  0  0  0  0  0  0  0  0
    2.7981    1.5038    1.3280 H   0  0  0  0  0  0  0  0  0  0  0  0
    4.1941    0.7616    2.2214 H   0  0  0  0  0  0  0  0  0  0  0  0
  1  6  1  0  0  0  0
  1  7  1  0  0  0  0
  2  4  1  0  0  0  0
  4  1  1  0  0  0  0
  4  3  1  0  0  0  0
  5 11  1  0  0  0  0
  5  1  1  0  0  0  0
  6 13  1  0  0  0  0
  6 14  1  0  0  0  0
  7 15  1  0  0  0  0
  7 17  1  0  0  0  0
  8  4  1  0  0  0  0
  9  5  1  0  0  0  0
 10  5  1  0  0  0  0
 12  6  1  0  0  0  0
 16  7  1  0  0  0  0
M  END
