1,2
q = 0.0, confidence = 1.0

 32 33  0  0  0  0  0  0  0  0999 V2000
   -1.3160   -2.1309   -0.0397 S   0  0  2  0  0  3  0  0  0  0  0  0
    1.3527   -1.3125   -1.6895 S   0  0  1  0  0  3  0  0  0  0  0  0
   -1.1209   -3.1283    1.0869 O   0  0  0  0  0  1  0  0  0  0  0  0
    1.3012   -0.9136   -3.1512 O   0  0  0  0  0  1  0  0  0  0  0  0
   -3.0938   -1.8878   -0.2512 C   0  0  0  0  0  0  0  0  0  0  0  0
   -3.8474   -2.0355    0.9239 C   0  0  0  0  0  0  0  0  0  0  0  0
   -3.3562   -2.3752    1.8470 H   0  0  0  0  0  0  0  0  0  0  0  0
   -5.2200   -1.7528    0.8812 C   0  0  0  0  0  0  0  0  0  0  0  0
   -5.8249   -1.8640    1.7932 H   0  0  0  0  0  0  0  0  0  0  0  0
   -5.8189   -1.3351   -0.3184 C   0  0  0  0  0  0  0  0  0  0  0  0
   -6.8962   -1.1147   -0.3459 H   0  0  0  0  0  0  0  0  0  0  0  0
   -5.0494   -1.2053   -1.4859 C   0  0  0  0  0  0  0  0  0  0  0  0
   -5.5201   -0.8879   -2.4280 H   0  0  0  0  0  0  0  0  0  0  0  0
   -3.6733   -1.4753   -1.4616 C   0  0  0  0  0  0  0  0  0  0  0  0
   -3.0789   -1.3544   -2.3779 H   0  0  0  0  0  0  0  0  0  0  0  0
   -0.7978   -2.9962   -1.5979 C   0  0  0  0  0  0  0  0  0  0  0  0
   -1.2637   -3.9997   -1.5425 H   0  0  0  0  0  0  0  0  0  0  0  0
   -1.1859   -2.4381   -2.4733 H   0  0  0  0  0  0  0  0  0  0  0  0
    0.7190   -3.0551   -1.5839 C   0  0  0  0  0  0  0  0  0  0  0  0
    1.1393   -3.5630   -2.4741 H   0  0  0  0  0  0  0  0  0  0  0  0
    1.0935   -3.5276   -0.6547 H   0  0  0  0  0  0  0  0  0  0  0  0
    3.0906   -1.4565   -1.2167 C   0  0  0  0  0  0  0  0  0  0  0  0
    3.9388   -0.5277   -1.8411 C   0  0  0  0  0  0  0  0  0  0  0  0
    3.5431    0.1304   -2.6283 H   0  0  0  0  0  0  0  0  0  0  0  0
    5.2822   -0.4702   -1.4438 C   0  0  0  0  0  0  0  0  0  0  0  0
    5.9589    0.2517   -1.9241 H   0  0  0  0  0  0  0  0  0  0  0  0
    5.7608   -1.3310   -0.4429 C   0  0  0  0  0  0  0  0  0  0  0  0
    6.8158   -1.2817   -0.1354 H   0  0  0  0  0  0  0  0  0  0  0  0
    4.8993   -2.2602    0.1627 C   0  0  0  0  0  0  0  0  0  0  0  0
    5.2761   -2.9416    0.9396 H   0  0  0  0  0  0  0  0  0  0  0  0
    3.5507   -2.3275   -0.2162 C   0  0  0  0  0  0  0  0  0  0  0  0
    2.8847   -3.0485    0.2766 H   0  0  0  0  0  0  0  0  0  0  0  0
  1  3  1  1  0  0  0
  2  4  1  6  0  0  0
  2 19  1  0  0  0  0
  2 22  1  0  0  0  0
  5  1  1  0  0  0  0
  5  6  1  0  0  0  0
  6  7  1  0  0  0  0
  8  6  2  0  0  0  0
  8  9  1  0  0  0  0
 10  8  1  0  0  0  0
 11 10  1  0  0  0  0
 12 14  1  0  0  0  0
 12 10  2  0  0  0  0
 13 12  1  0  0  0  0
 14  5  2  0  0  0  0
 15 14  1  0  0  0  0
 16 19  1  0  0  0  0
 16 17  1  0  0  0  0
 16  1  1  0  0  0  0
 18 16  1  0  0  0  0
 19 21  1  0  0  0  0
 20 19  1  0  0  0  0
 22 31  1  0  0  0  0
 23 25  1  0  0  0  0
 23 22  2  0  0  0  0
 24 23  1  0  0  0  0
 25 27  2  0  0  0  0
 26 25  1  0  0  0  0
 27 28  1  0  0  0  0
 27 29  1  0  0  0  0
 29 30  1  0  0  0  0
 31 29  2  0  0  0  0
 31 32  1  0  0  0  0
M  END
