1,2
q = -2.0, confidence = 0.524

 13 13  0  0  0  0  0  0  0  0999 V2000
   -1.5326   -1.5912   -0.4401 S   0  0  0  0  0  1  0  0  0  0  0  0
   -1.5700    1.6058    0.0600 S   0  0  0  0  0  1  0  0  0  0  0  0
   -4.4426   -1.5522   -1.0701 S   0  0  0  0  0  0  0  0  0  0  0  0
   -4.4534    1.7203   -0.6802 S   0  0  0  0  0  0  0  0  0  0  0  0
   -6.5029   -0.1114    0.8206 S   0  0  0  0  0  0  0  0  0  0  0  0
   -2.9835   -0.6320   -0.6570 C   0  0  0  0  0  0  0  0  0  0  0  0
   -2.9918    0.7319   -0.4768 C   0  0  0  0  0  0  0  0  0  0  0  0
   -5.3435   -1.4961    0.5306 C   0  0  0  0  0  0  0  0  0  0  0  0
   -5.3485    1.3086    0.8680 C   0  0  0  0  0  0  0  0  0  0  0  0
   -5.9788   -2.4038    0.5744 H   0  0  0  0  0  0  0  0  0  0  0  0
   -4.5841   -1.5518    1.3373 H   0  0  0  0  0  0  0  0  0  0  0  0
   -4.5903    1.1755    1.6666 H   0  0  0  0  0  0  0  0  0  0  0  0
   -5.9873    2.1789    1.1209 H   0  0  0  0  0  0  0  0  0  0  0  0
  3  6  1  0  0  0  0
  3  8  1  0  0  0  0
  4  7  1  0  0  0  0
  4  9  1  0  0  0  0
  5  9  1  0  0  0  0
  6  7  2  0  0  0  0
  6  1  1  0  0  0  0
  7  2  1  0  0  0  0
  8 10  1  0  0  0  0
  8  5  1  0  0  0  0
  8 11  1  0  0  0  0
  9 13  1  0  0  0  0
  9 12  1  0  0  0  0
M  END
