1,2
q = -1.0

 30 31  0  0  0  0  0  0  0  0999 V2000
    0.4112    1.6348   -1.4510 S   0  0  0  0  0  1  0  0  0  0  0  0
    0.6461   -1.2700   -1.7210 S   0  0  0  0  0  1  0  0  0  0  0  0
    1.4533    0.2745   -1.8174 C   0  0  0  0  0  3  0  0  0  0  0  0
    2.7809    0.3993   -2.0034 N   0  0  0  0  0  0  0  0  0  0  0  0
    3.6519   -0.7789   -2.1138 C   0  0  0  0  0  0  0  0  0  0  0  0
    4.4138   -0.5651   -2.8909 H   0  0  0  0  0  0  0  0  0  0  0  0
    3.0197   -1.6138   -2.4803 H   0  0  0  0  0  0  0  0  0  0  0  0
    4.3290   -1.1690   -0.8125 C   0  0  0  0  0  0  0  0  0  0  0  0
    5.6995   -1.4838   -0.7981 C   0  0  0  0  0  0  0  0  0  0  0  0
    6.2822   -1.4210   -1.7315 H   0  0  0  0  0  0  0  0  0  0  0  0
    6.3325   -1.8611    0.3962 C   0  0  0  0  0  0  0  0  0  0  0  0
    7.4072   -2.0991    0.3941 H   0  0  0  0  0  0  0  0  0  0  0  0
    5.6000   -1.9179    1.5911 C   0  0  0  0  0  0  0  0  0  0  0  0
    6.0973   -2.2000    2.5314 H   0  0  0  0  0  0  0  0  0  0  0  0
    4.2305   -1.6061    1.5824 C   0  0  0  0  0  0  0  0  0  0  0  0
    3.6440   -1.6423    2.5128 H   0  0  0  0  0  0  0  0  0  0  0  0
    3.5955   -1.2441    0.3885 C   0  0  0  0  0  0  0  0  0  0  0  0
    2.5232   -0.9982    0.3939 H   0  0  0  0  0  0  0  0  0  0  0  0
    3.4548    1.7095   -1.8097 C   0  0  0  0  0  0  0  0  0  0  0  0
    4.3345    1.7333   -2.4806 H   0  0  0  0  0  0  0  0  0  0  0  0
    2.7409    2.4874   -2.1501 H   0  0  0  0  0  0  0  0  0  0  0  0
    3.9034    1.9339   -0.4019 C   0  0  0  0  0  0  0  0  0  0  0  0
    5.1844    2.0165    0.1467 C   0  0  0  0  0  0  0  0  0  0  0  0
    6.1215    1.9717   -0.4198 H   0  0  0  0  0  0  0  0  0  0  0  0
    5.0386    2.1353    1.5597 C   0  0  0  0  0  0  0  0  0  0  0  0
    5.8425    2.2207    2.2990 H   0  0  0  0  0  0  0  0  0  0  0  0
    3.6729    2.1139    1.8359 C   0  0  0  0  0  0  0  0  0  0  0  0
    3.1257    2.1706    2.7828 H   0  0  0  0  0  0  0  0  0  0  0  0
    3.0040    2.0063    0.6431 N   0  0  0  0  0  0  0  0  0  0  0  0
    1.9898    1.9136    0.5239 H   0  0  0  0  0  0  0  0  0  0  0  0
  3  2  1  0  0  0  0
  3  1  1  0  0  0  0
  4  3  1  0  0  0  0
  4 19  1  0  0  0  0
  5  4  1  0  0  0  0
  5  8  1  0  0  0  0
  6  5  1  0  0  0  0
  7  5  1  0  0  0  0
  8  9  2  0  0  0  0
  8 17  1  0  0  0  0
  9 11  1  0  0  0  0
 10  9  1  0  0  0  0
 11 13  2  0  0  0  0
 12 11  1  0  0  0  0
 13 14  1  0  0  0  0
 15 13  1  0  0  0  0
 15 16  1  0  0  0  0
 17 18  1  0  0  0  0
 17 15  2  0  0  0  0
 19 22  1  0  0  0  0
 20 19  1  0  0  0  0
 21 19  1  0  0  0  0
 22 23  2  0  0  0  0
 22 29  1  0  0  0  0
 23 25  1  0  0  0  0
 24 23  1  0  0  0  0
 25 27  2  0  0  0  0
 25 26  1  0  0  0  0
 27 28  1  0  0  0  0
 29 27  1  0  0  0  0
 30 29  1  0  0  0  0
M  END
