1,6
q = -1.0

 28 28  0  0  0  0  0  0  0  0999 V2000
   -0.0373   -2.1364   -0.4426 S   0  0  0  0  0  0  0  0  0  0  0  0
   -0.7643   -3.1043    0.9281 C   0  0  0  0  0  0  0  0  0  0  0  0
   -0.8859   -4.1529    0.5957 H   0  0  0  0  0  0  0  0  0  0  0  0
   -1.7409   -2.6333    1.1478 H   0  0  0  0  0  0  0  0  0  0  0  0
   -0.1193   -3.0507    1.8265 H   0  0  0  0  0  0  0  0  0  0  0  0
    1.9857    0.0934   -0.9984 S   0  0  0  0  0  1  0  0  0  0  0  0
    3.1378   -0.7675    0.1935 C   0  0  0  0  0  0  0  0  0  0  0  0
    2.5144   -2.0912    0.6900 C   0  0  0  0  0  0  0  0  0  0  0  0
    1.8884   -1.8892    1.5867 H   0  0  0  0  0  0  0  0  0  0  0  0
    3.3389   -2.7547    1.0361 H   0  0  0  0  0  0  0  0  0  0  0  0
    1.6745   -2.8234   -0.3491 C   0  0  0  0  0  0  0  0  0  0  0  0
    1.5519   -3.9008   -0.1198 H   0  0  0  0  0  0  0  0  0  0  0  0
    2.0957   -2.7200   -1.3671 H   0  0  0  0  0  0  0  0  0  0  0  0
    4.4460   -1.0517   -0.5816 C   0  0  0  0  0  0  0  0  0  0  0  0
    4.2249   -1.6657   -1.4803 H   0  0  0  0  0  0  0  0  0  0  0  0
    5.0951   -1.6716    0.0801 H   0  0  0  0  0  0  0  0  0  0  0  0
    5.2058    0.2216   -0.9703 C   0  0  0  0  0  0  0  0  0  0  0  0
    6.1471   -0.0478   -1.4940 H   0  0  0  0  0  0  0  0  0  0  0  0
    4.5916    0.8014   -1.6926 H   0  0  0  0  0  0  0  0  0  0  0  0
    5.5027    1.0846    0.2627 C   0  0  0  0  0  0  0  0  0  0  0  0
    6.0220    2.0204   -0.0339 H   0  0  0  0  0  0  0  0  0  0  0  0
    6.2064    0.5357    0.9300 H   0  0  0  0  0  0  0  0  0  0  0  0
    4.2199    1.4077    1.0393 C   0  0  0  0  0  0  0  0  0  0  0  0
    4.4532    1.9854    1.9582 H   0  0  0  0  0  0  0  0  0  0  0  0
    3.5632    2.0493    0.4135 H   0  0  0  0  0  0  0  0  0  0  0  0
    3.4450    0.1388    1.4045 C   0  0  0  0  0  0  0  0  0  0  0  0
    4.0402   -0.4590    2.1355 H   0  0  0  0  0  0  0  0  0  0  0  0
    2.4866    0.3966    1.9029 H   0  0  0  0  0  0  0  0  0  0  0  0
  1 11  1  0  0  0  0
  1  2  1  0  0  0  0
  2  4  1  0  0  0  0
  2  5  1  0  0  0  0
  3  2  1  0  0  0  0
  6  7  1  0  0  0  0
  7  8  1  0  0  0  0
  7 26  1  0  0  0  0
  8 10  1  0  0  0  0
  8  9  1  0  0  0  0
 11 12  1  0  0  0  0
 11  8  1  0  0  0  0
 13 11  1  0  0  0  0
 14 16  1  0  0  0  0
 14  7  1  0  0  0  0
 15 14  1  0  0  0  0
 17 14  1  0  0  0  0
 17 20  1  0  0  0  0
 18 17  1  0  0  0  0
 19 17  1  0  0  0  0
 20 22  1  0  0  0  0
 20 23  1  0  0  0  0
 21 20  1  0  0  0  0
 23 26  1  0  0  0  0
 23 24  1  0  0  0  0
 25 23  1  0  0  0  0
 26 28  1  0  0  0  0
 26 27  1  0  0  0  0
M  END
