1,2
q = -1.0

 26 27  0  0  0  0  0  0  0  0999 V2000
    1.2927    0.3646   -0.4438 S   0  0  0  0  0  1  0  0  0  0  0  0
    1.7464   -2.4709   -0.6810 S   0  0  0  0  0  1  0  0  0  0  0  0
    3.7777   -0.6666   -0.8289 N   0  0  0  0  0  0  0  0  0  0  0  0
    6.3073   -0.3425    0.3517 N   0  0  0  0  0  0  0  0  0  0  0  0
    8.4704   -1.1870    0.1323 N   0  0  0  0  0  0  0  0  0  0  0  0
    8.0714    1.1835    0.3341 N   0  0  0  0  0  0  0  0  0  0  0  0
    2.4601   -0.9022   -0.6723 C   0  0  0  0  0  3  0  0  0  0  0  0
    4.7627   -1.7429   -0.9371 C   0  0  0  0  0  0  0  0  0  0  0  0
    5.3140   -1.6230   -1.8953 H   0  0  0  0  0  0  0  0  0  0  0  0
    4.2273   -2.7118   -0.9577 H   0  0  0  0  0  0  0  0  0  0  0  0
    5.7415   -1.6774    0.2425 C   0  0  0  0  0  0  0  0  0  0  0  0
    5.1956   -1.9314    1.1797 H   0  0  0  0  0  0  0  0  0  0  0  0
    6.5732   -2.3927    0.1082 H   0  0  0  0  0  0  0  0  0  0  0  0
    5.3371    0.7352    0.4475 C   0  0  0  0  0  0  0  0  0  0  0  0
    5.8884    1.6932    0.4560 H   0  0  0  0  0  0  0  0  0  0  0  0
    4.7630    0.6402    1.3974 H   0  0  0  0  0  0  0  0  0  0  0  0
    4.3584    0.6723   -0.7327 C   0  0  0  0  0  0  0  0  0  0  0  0
    3.5404    1.4085   -0.6108 H   0  0  0  0  0  0  0  0  0  0  0  0
    4.8936    0.8956   -1.6815 H   0  0  0  0  0  0  0  0  0  0  0  0
    7.6613   -0.1075    0.2688 C   0  0  0  0  0  0  0  0  0  0  0  0
    9.7813   -0.9420    0.0633 C   0  0  0  0  0  0  0  0  0  0  0  0
   10.4375   -1.8246   -0.0479 H   0  0  0  0  0  0  0  0  0  0  0  0
   10.3217    0.3526    0.1249 C   0  0  0  0  0  0  0  0  0  0  0  0
   11.4023    0.5394    0.0678 H   0  0  0  0  0  0  0  0  0  0  0  0
    9.3885    1.3927    0.2620 C   0  0  0  0  0  0  0  0  0  0  0  0
    9.7189    2.4462    0.3155 H   0  0  0  0  0  0  0  0  0  0  0  0
  2  7  1  0  0  0  0
  3 17  1  0  0  0  0
  3  7  1  0  0  0  0
  4 14  1  0  0  0  0
  5 20  1  0  0  0  0
  7  1  1  0  0  0  0
  8  3  1  0  0  0  0
  8 11  1  0  0  0  0
  9  8  1  0  0  0  0
 10  8  1  0  0  0  0
 11  4  1  0  0  0  0
 11 12  1  0  0  0  0
 13 11  1  0  0  0  0
 14 15  1  0  0  0  0
 14 16  1  0  0  0  0
 17 18  1  0  0  0  0
 17 14  1  0  0  0  0
 19 17  1  0  0  0  0
 20  6  2  0  0  0  0
 20  4  1  0  0  0  0
 21 23  1  0  0  0  0
 21  5  2  0  0  0  0
 22 21  1  0  0  0  0
 23 25  2  0  0  0  0
 24 23  1  0  0  0  0
 25 26  1  0  0  0  0
 25  6  1  0  0  0  0
M  END
