1,2
q = 0.0, confidence = 0.82

 21 23  0  0  0  0  0  0  0  0999 V2000
    1.4956   -1.5826   -0.0388 S   0  0  0  0  0  1  0  0  0  0  0  0
    1.4956    1.5826   -0.0388 S   0  0  0  0  0  1  0  0  0  0  0  0
    4.5409   -1.4911   -0.1537 S   0  0  0  0  0  0  0  0  0  0  0  0
    4.5409    1.4911   -0.1537 S   0  0  0  0  0  0  0  0  0  0  0  0
    7.8183   -1.5028   -0.0890 S   0  0  0  0  0  0  0  0  0  0  0  0
    7.8183    1.5028   -0.0890 S   0  0  0  0  0  0  0  0  0  0  0  0
    2.9707   -0.6991   -0.0873 C   0  0  0  0  0  0  0  0  0  0  0  0
    2.9707    0.6991   -0.0873 C   0  0  0  0  0  0  0  0  0  0  0  0
    5.4910    0.0000   -0.1366 C   0  0  0  0  0  0  0  0  0  0  0  0
    6.8646    0.0000   -0.1149 C   0  0  0  0  0  0  0  0  0  0  0  0
    9.3563   -0.6792    0.0575 C   0  0  0  0  0  0  0  0  0  0  0  0
    9.3563    0.6792    0.0575 C   0  0  0  0  0  0  0  0  0  0  0  0
   10.7491    1.2483    0.0608 C   0  0  0  0  0  0  0  0  0  0  0  0
   11.5941   -0.0000    0.4450 C   0  0  0  0  0  0  0  0  0  0  0  0
   10.7491   -1.2483    0.0608 C   0  0  0  0  0  0  0  0  0  0  0  0
   11.0100    1.6400   -0.9487 H   0  0  0  0  0  0  0  0  0  0  0  0
   10.8832    2.0877    0.7739 H   0  0  0  0  0  0  0  0  0  0  0  0
   12.5931   -0.0000   -0.0323 H   0  0  0  0  0  0  0  0  0  0  0  0
   11.7520   -0.0000    1.5422 H   0  0  0  0  0  0  0  0  0  0  0  0
   10.8832   -2.0877    0.7739 H   0  0  0  0  0  0  0  0  0  0  0  0
   11.0100   -1.6400   -0.9487 H   0  0  0  0  0  0  0  0  0  0  0  0
  3  9  1  0  0  0  0
  3  7  1  0  0  0  0
  4  9  1  0  0  0  0
  4  8  1  0  0  0  0
  5 11  1  0  0  0  0
  6 12  1  0  0  0  0
  7  1  1  0  0  0  0
  8  7  2  0  0  0  0
  8  2  1  0  0  0  0
  9 10  2  0  0  0  0
 10  5  1  0  0  0  0
 10  6  1  0  0  0  0
 11 12  2  0  0  0  0
 11 15  1  0  0  0  0
 12 13  1  0  0  0  0
 13 14  1  0  0  0  0
 13 17  1  0  0  0  0
 14 19  1  0  0  0  0
 15 14  1  0  0  0  0
 15 20  1  0  0  0  0
 16 13  1  0  0  0  0
 18 14  1  0  0  0  0
 21 15  1  0  0  0  0
M  END
