8,25
q = 0.0, confidence = 1.0

 41 41  0  0  0  0  0  0  0  0999 V2000
    1.0714    3.5909   -2.1422 S   0  0  0  0  0  0  0  0  0  0  0  0
   -0.4938    3.1423   -1.5591 C   0  0  0  0  0  0  0  0  0  0  0  0
   -1.2779    3.8989   -1.4328 H   0  0  0  0  0  0  0  0  0  0  0  0
   -0.5708    1.7818   -1.3213 C   0  0  0  0  0  0  0  0  0  0  0  0
    0.6560    1.0981   -1.6267 C   0  0  0  0  0  0  0  0  0  0  0  0
    1.6331    1.9554   -2.1035 C   0  0  0  0  0  0  0  0  0  0  0  0
    2.6444    1.7077   -2.4468 H   0  0  0  0  0  0  0  0  0  0  0  0
   -2.0507    0.9076   -0.8081 S   0  0  0  0  0  0  0  0  0  0  0  0
   -2.2213    1.4519    0.9517 C   0  0  0  0  0  0  0  0  0  0  0  0
   -2.4983    2.5247    0.9142 H   0  0  0  0  0  0  0  0  0  0  0  0
   -3.1002    0.8537    1.2716 H   0  0  0  0  0  0  0  0  0  0  0  0
   -1.0006    1.1599    1.8095 C   0  0  0  0  0  0  0  0  0  0  0  0
   -0.1110    1.6807    1.3874 H   0  0  0  0  0  0  0  0  0  0  0  0
   -0.8023    0.0677    1.7407 H   0  0  0  0  0  0  0  0  0  0  0  0
   -1.1523    1.5524    3.2918 C   0  0  0  0  0  0  0  0  0  0  0  0
   -2.0634    1.0425    3.6794 H   0  0  0  0  0  0  0  0  0  0  0  0
    0.0528    1.0295    4.0838 C   0  0  0  0  0  0  0  0  0  0  0  0
    0.1587   -0.0696    3.9812 H   0  0  0  0  0  0  0  0  0  0  0  0
   -0.0410    1.2633    5.1636 H   0  0  0  0  0  0  0  0  0  0  0  0
    0.9951    1.4953    3.7220 H   0  0  0  0  0  0  0  0  0  0  0  0
   -1.3266    3.0640    3.4860 C   0  0  0  0  0  0  0  0  0  0  0  0
   -2.2364    3.4538    2.9860 H   0  0  0  0  0  0  0  0  0  0  0  0
   -0.4531    3.6172    3.0780 H   0  0  0  0  0  0  0  0  0  0  0  0
   -1.4100    3.3204    4.5615 H   0  0  0  0  0  0  0  0  0  0  0  0
    0.8237   -0.6813   -1.4737 S   0  0  0  0  0  0  0  0  0  0  0  0
    1.8743   -0.8519    0.0427 C   0  0  0  0  0  0  0  0  0  0  0  0
    1.4053   -0.2416    0.8392 H   0  0  0  0  0  0  0  0  0  0  0  0
    1.6970   -1.9222    0.2784 H   0  0  0  0  0  0  0  0  0  0  0  0
    3.3396   -0.5092   -0.1746 C   0  0  0  0  0  0  0  0  0  0  0  0
    3.7500   -1.1261   -1.0046 H   0  0  0  0  0  0  0  0  0  0  0  0
    3.4321    0.5535   -0.4866 H   0  0  0  0  0  0  0  0  0  0  0  0
    4.1969   -0.7194    1.0927 C   0  0  0  0  0  0  0  0  0  0  0  0
    3.7423   -0.1046    1.9044 H   0  0  0  0  0  0  0  0  0  0  0  0
    5.6218   -0.2055    0.8543 C   0  0  0  0  0  0  0  0  0  0  0  0
    6.2426   -0.3060    1.7673 H   0  0  0  0  0  0  0  0  0  0  0  0
    5.6283    0.8630    0.5557 H   0  0  0  0  0  0  0  0  0  0  0  0
    6.1197   -0.7837    0.0470 H   0  0  0  0  0  0  0  0  0  0  0  0
    4.2071   -2.1823    1.5542 C   0  0  0  0  0  0  0  0  0  0  0  0
    4.8412   -2.3077    2.4548 H   0  0  0  0  0  0  0  0  0  0  0  0
    4.6179   -2.8426    0.7610 H   0  0  0  0  0  0  0  0  0  0  0  0
    3.1949   -2.5549    1.8085 H   0  0  0  0  0  0  0  0  0  0  0  0
  1  6  1  0  0  0  0
  1  2  1  0  0  0  0
  2  3  1  0  0  0  0
  2  4  2  0  0  0  0
  4  8  1  0  0  0  0
  5 25  1  0  0  0  0
  5  4  1  0  0  0  0
  6  5  2  0  0  0  0
  7  6  1  0  0  0  0
  8  9  1  0  0  0  0
  9 11  1  0  0  0  0
  9 12  1  0  0  0  0
 10  9  1  0  0  0  0
 12 15  1  0  0  0  0
 13 12  1  0  0  0  0
 14 12  1  0  0  0  0
 15 21  1  0  0  0  0
 15 16  1  0  0  0  0
 15 17  1  0  0  0  0
 17 19  1  0  0  0  0
 18 17  1  0  0  0  0
 20 17  1  0  0  0  0
 21 24  1  0  0  0  0
 22 21  1  0  0  0  0
 23 21  1  0  0  0  0
 25 26  1  0  0  0  0
 26 28  1  0  0  0  0
 26 27  1  0  0  0  0
 29 26  1  0  0  0  0
 29 32  1  0  0  0  0
 30 29  1  0  0  0  0
 31 29  1  0  0  0  0
 32 38  1  0  0  0  0
 32 33  1  0  0  0  0
 34 32  1  0  0  0  0
 34 35  1  0  0  0  0
 36 34  1  0  0  0  0
 37 34  1  0  0  0  0
 38 41  1  0  0  0  0
 38 39  1  0  0  0  0
 40 38  1  0  0  0  0
M  END
