1,2
q = -2.0, confidence = 0.842

 42 43  0  0  0  0  0  0  0  0999 V2000
    0.6299   -1.1866    1.3338 S   0  0  0  0  0  1  0  0  0  0  0  0
    0.6298    1.1858   -1.3342 S   0  0  0  0  0  1  0  0  0  0  0  0
    2.1869   -1.2322    0.4425 C   0  0  0  0  0  0  0  0  0  0  0  0
    2.9038   -2.4617    0.4611 C   0  0  0  0  0  0  0  0  0  0  0  0
    4.3146   -2.4134    0.2618 C   0  0  0  0  0  0  0  0  0  0  0  0
    4.8953   -3.3428    0.2910 H   0  0  0  0  0  0  0  0  0  0  0  0
    4.9923   -1.2212    0.1272 C   0  0  0  0  0  0  0  0  0  0  0  0
    6.0927   -1.1985    0.0962 H   0  0  0  0  0  0  0  0  0  0  0  0
    4.2817    0.0006    0.0007 C   0  0  0  0  0  0  0  0  0  0  0  0
    4.9918    1.2228   -0.1255 C   0  0  0  0  0  0  0  0  0  0  0  0
    6.0921    1.2007   -0.0936 H   0  0  0  0  0  0  0  0  0  0  0  0
    4.3136    2.4147   -0.2608 C   0  0  0  0  0  0  0  0  0  0  0  0
    4.8938    3.3443   -0.2897 H   0  0  0  0  0  0  0  0  0  0  0  0
    2.9029    2.4623   -0.4611 C   0  0  0  0  0  0  0  0  0  0  0  0
    2.1866    1.2324   -0.4426 C   0  0  0  0  0  0  0  0  0  0  0  0
    2.8379    0.0003    0.0002 C   0  0  0  0  0  0  0  0  0  0  0  0
    2.2784   -3.8568    0.7592 C   0  0  0  0  0  0  0  0  0  0  0  0
    3.2372   -5.0052    0.3674 C   0  0  0  0  0  0  0  0  0  0  0  0
    3.5645   -4.9323   -0.6897 H   0  0  0  0  0  0  0  0  0  0  0  0
    2.7076   -5.9714    0.4909 H   0  0  0  0  0  0  0  0  0  0  0  0
    4.1391   -5.0488    1.0095 H   0  0  0  0  0  0  0  0  0  0  0  0
    1.9903   -4.0156    2.2713 C   0  0  0  0  0  0  0  0  0  0  0  0
    2.9227   -3.8802    2.8566 H   0  0  0  0  0  0  0  0  0  0  0  0
    1.5980   -5.0336    2.4810 H   0  0  0  0  0  0  0  0  0  0  0  0
    1.2508   -3.2734    2.6231 H   0  0  0  0  0  0  0  0  0  0  0  0
    0.9939   -4.0844   -0.0701 C   0  0  0  0  0  0  0  0  0  0  0  0
    1.2310   -4.0648   -1.1542 H   0  0  0  0  0  0  0  0  0  0  0  0
    0.2322   -3.3130    0.1489 H   0  0  0  0  0  0  0  0  0  0  0  0
    0.5625   -5.0793    0.1664 H   0  0  0  0  0  0  0  0  0  0  0  0
    2.2771    3.8569   -0.7601 C   0  0  0  0  0  0  0  0  0  0  0  0
    1.9896    4.0149   -2.2725 C   0  0  0  0  0  0  0  0  0  0  0  0
    1.2505    3.2721   -2.6241 H   0  0  0  0  0  0  0  0  0  0  0  0
    2.9223    3.8797   -2.8572 H   0  0  0  0  0  0  0  0  0  0  0  0
    1.5968    5.0326   -2.4828 H   0  0  0  0  0  0  0  0  0  0  0  0
    0.9922    4.0844    0.0686 C   0  0  0  0  0  0  0  0  0  0  0  0
    0.2309    3.3126   -0.1502 H   0  0  0  0  0  0  0  0  0  0  0  0
    0.5604    5.0790   -0.1686 H   0  0  0  0  0  0  0  0  0  0  0  0
    1.2290    4.0656    1.1528 H   0  0  0  0  0  0  0  0  0  0  0  0
    3.2352    5.0059   -0.3686 C   0  0  0  0  0  0  0  0  0  0  0  0
    2.7053    5.9718   -0.4928 H   0  0  0  0  0  0  0  0  0  0  0  0
    4.1374    5.0495   -1.0103 H   0  0  0  0  0  0  0  0  0  0  0  0
    3.5621    4.9339    0.6888 H   0  0  0  0  0  0  0  0  0  0  0  0
  2 15  1  0  0  0  0
  3  4  1  0  0  0  0
  3  1  1  0  0  0  0
  4 17  1  0  0  0  0
  5  6  1  0  0  0  0
  5  4  2  0  0  0  0
  7  5  1  0  0  0  0
  8  7  1  0  0  0  0
  9  7  2  0  0  0  0
 10 11  1  0  0  0  0
 10  9  1  0  0  0  0
 12 10  2  0  0  0  0
 13 12  1  0  0  0  0
 14 15  2  0  0  0  0
 14 12  1  0  0  0  0
 15 16  1  0  0  0  0
 16  9  1  0  0  0  0
 16  3  2  0  0  0  0
 17 22  1  0  0  0  0
 18 20  1  0  0  0  0
 18 17  1  0  0  0  0
 18 21  1  0  0  0  0
 19 18  1  0  0  0  0
 22 24  1  0  0  0  0
 22 25  1  0  0  0  0
 22 23  1  0  0  0  0
 26 28  1  0  0  0  0
 26 29  1  0  0  0  0
 26 17  1  0  0  0  0
 27 26  1  0  0  0  0
 30 14  1  0  0  0  0
 30 39  1  0  0  0  0
 30 35  1  0  0  0  0
 31 30  1  0  0  0  0
 32 31  1  0  0  0  0
 33 31  1  0  0  0  0
 34 31  1  0  0  0  0
 35 38  1  0  0  0  0
 36 35  1  0  0  0  0
 37 35  1  0  0  0  0
 39 42  1  0  0  0  0
 40 39  1  0  0  0  0
 41 39  1  0  0  0  0
M  END
