1,2
q = -1.0

 40 39  0  0  0  0  0  0  0  0999 V2000
   -1.8822   -1.4951   -0.2810 S   0  0  0  0  0  1  0  0  0  0  0  0
   -1.9065    1.3640   -0.6023 S   0  0  0  0  0  1  0  0  0  0  0  0
   -4.2025   -0.0989   -0.5636 N   0  0  0  0  0  0  0  0  0  0  0  0
   -5.2203    4.1087   -0.4511 N   0  0  0  0  0  0  0  0  0  0  0  0
   -5.1436   -4.1931    0.4849 N   0  0  0  0  0  0  0  0  0  0  0  0
   -2.8576   -0.0791   -0.4898 C   0  0  0  0  0  3  0  0  0  0  0  0
   -4.9513    1.1520   -0.7020 C   0  0  0  0  0  0  0  0  0  0  0  0
   -5.8892    0.9212   -1.2487 H   0  0  0  0  0  0  0  0  0  0  0  0
   -4.3664    1.8454   -1.3404 H   0  0  0  0  0  0  0  0  0  0  0  0
   -5.2614    1.8501    0.6283 C   0  0  0  0  0  0  0  0  0  0  0  0
   -5.9165    1.2153    1.2597 H   0  0  0  0  0  0  0  0  0  0  0  0
   -4.3129    1.9766    1.1906 H   0  0  0  0  0  0  0  0  0  0  0  0
   -5.9564    3.1989    0.4164 C   0  0  0  0  0  0  0  0  0  0  0  0
   -6.9466    3.0195   -0.0574 H   0  0  0  0  0  0  0  0  0  0  0  0
   -6.1730    3.6588    1.4208 H   0  0  0  0  0  0  0  0  0  0  0  0
   -6.0415    5.2150   -0.9025 C   0  0  0  0  0  0  0  0  0  0  0  0
   -6.9508    4.8353   -1.4124 H   0  0  0  0  0  0  0  0  0  0  0  0
   -5.4773    5.8349   -1.6289 H   0  0  0  0  0  0  0  0  0  0  0  0
   -6.3768    5.8926   -0.0700 H   0  0  0  0  0  0  0  0  0  0  0  0
   -3.9669    4.5641    0.1271 C   0  0  0  0  0  0  0  0  0  0  0  0
   -3.4386    5.2169   -0.5964 H   0  0  0  0  0  0  0  0  0  0  0  0
   -3.2967    3.7085    0.3421 H   0  0  0  0  0  0  0  0  0  0  0  0
   -4.1095    5.1486    1.0766 H   0  0  0  0  0  0  0  0  0  0  0  0
   -4.9298   -1.3617   -0.4198 C   0  0  0  0  0  0  0  0  0  0  0  0
   -4.3312   -2.1697   -0.8881 H   0  0  0  0  0  0  0  0  0  0  0  0
   -5.8697   -1.2744   -1.0036 H   0  0  0  0  0  0  0  0  0  0  0  0
   -5.2323   -1.7518    1.0326 C   0  0  0  0  0  0  0  0  0  0  0  0
   -4.2840   -1.7320    1.6088 H   0  0  0  0  0  0  0  0  0  0  0  0
   -5.9017   -1.0050    1.5070 H   0  0  0  0  0  0  0  0  0  0  0  0
   -5.9013   -3.1270    1.1264 C   0  0  0  0  0  0  0  0  0  0  0  0
   -6.1150   -3.3552    2.2078 H   0  0  0  0  0  0  0  0  0  0  0  0
   -6.8919   -3.0767    0.6231 H   0  0  0  0  0  0  0  0  0  0  0  0
   -3.8864   -4.4852    1.1531 C   0  0  0  0  0  0  0  0  0  0  0  0
   -3.3417   -5.2723    0.5940 H   0  0  0  0  0  0  0  0  0  0  0  0
   -4.0249   -4.8469    2.2084 H   0  0  0  0  0  0  0  0  0  0  0  0
   -3.2328   -3.5909    1.1744 H   0  0  0  0  0  0  0  0  0  0  0  0
   -5.9423   -5.3872    0.2886 C   0  0  0  0  0  0  0  0  0  0  0  0
   -6.8545   -5.1473   -0.2955 H   0  0  0  0  0  0  0  0  0  0  0  0
   -6.2715   -5.8689    1.2501 H   0  0  0  0  0  0  0  0  0  0  0  0
   -5.3624   -6.1424   -0.2801 H   0  0  0  0  0  0  0  0  0  0  0  0
  2  6  1  0  0  0  0
  3  6  1  0  0  0  0
  3 24  1  0  0  0  0
  4 20  1  0  0  0  0
  4 13  1  0  0  0  0
  5 30  1  0  0  0  0
  5 33  1  0  0  0  0
  6  1  1  0  0  0  0
  7  3  1  0  0  0  0
  7 10  1  0  0  0  0
  8  7  1  0  0  0  0
  9  7  1  0  0  0  0
 10 12  1  0  0  0  0
 10 11  1  0  0  0  0
 13 10  1  0  0  0  0
 13 15  1  0  0  0  0
 14 13  1  0  0  0  0
 16  4  1  0  0  0  0
 16 19  1  0  0  0  0
 17 16  1  0  0  0  0
 18 16  1  0  0  0  0
 20 22  1  0  0  0  0
 20 23  1  0  0  0  0
 21 20  1  0  0  0  0
 24 27  1  0  0  0  0
 25 24  1  0  0  0  0
 26 24  1  0  0  0  0
 27 30  1  0  0  0  0
 27 29  1  0  0  0  0
 27 28  1  0  0  0  0
 30 31  1  0  0  0  0
 32 30  1  0  0  0  0
 33 36  1  0  0  0  0
 33 35  1  0  0  0  0
 34 33  1  0  0  0  0
 37  5  1  0  0  0  0
 37 39  1  0  0  0  0
 38 37  1  0  0  0  0
 40 37  1  0  0  0  0
M  END
