1,2
q = -1.0, confidence = 0.0

 17 18  0  0  1  0  0  0  0  0999 V2000
    1.5171   -1.5600   -0.0003 S   0  0  0  0  0  1  0  0  0  0  0  0
    1.5119    1.5925   -0.0003 S   0  0  0  0  0  1  0  0  0  0  0  0
    4.1801   -1.3498   -0.0000 N   0  0  0  0  0  0  0  0  0  0  0  0
    4.1772    1.4247   -0.0001 N   0  0  0  0  0  0  0  0  0  0  0  0
    2.9853   -0.7043   -0.0001 C   0  0  0  0  0  0  0  0  0  0  0  0
    3.0340    0.7561   -0.0002 C   0  0  0  0  0  0  0  0  0  0  0  0
    5.4023   -0.6964    0.0000 C   0  0  1  0  0  3  0  0  0  0  0  0
    5.3583    0.7373   -0.0000 C   0  0  0  0  0  0  0  0  0  0  0  0
    6.6245   -1.3956    0.0001 C   0  0  0  0  0  0  0  0  0  0  0  0
    6.5973    1.4331    0.0000 C   0  0  0  0  0  0  0  0  0  0  0  0
    7.8214   -0.6762    0.0002 C   0  0  0  0  0  0  0  0  0  0  0  0
    7.8045    0.7386    0.0001 C   0  0  0  0  0  0  0  0  0  0  0  0
    4.1679   -2.3756    0.0000 H   0  0  0  0  0  0  0  0  0  0  0  0
    6.6257   -2.4971    0.0001 H   0  0  0  0  0  0  0  0  0  0  0  0
    6.5548    2.5314   -0.0000 H   0  0  0  0  0  0  0  0  0  0  0  0
    8.7796   -1.2160    0.0002 H   0  0  0  0  0  0  0  0  0  0  0  0
    8.7546    1.2931    0.0002 H   0  0  0  0  0  0  0  0  0  0  0  0
  1  5  1  0  0  0  0
  2  6  1  0  0  0  0
  3 13  1  0  0  0  0
  3  7  1  0  0  0  0
  4  8  2  0  0  0  0
  5  3  1  0  0  0  0
  6  5  2  0  0  0  0
  6  4  1  0  0  0  0
  7  8  1  1  0  0  0
  7  9  1  0  0  0  0
  8 10  1  0  0  0  0
  9 14  1  0  0  0  0
  9 11  2  0  0  0  0
 10 12  2  0  0  0  0
 11 16  1  0  0  0  0
 12 17  1  0  0  0  0
 12 11  1  0  0  0  0
 15 10  1  0  0  0  0
M  END
