1,2
q = -2.0, confidence = 0.684

 16 15  0  0  0  0  0  0  0  0999 V2000
   -0.3206   -1.1647    0.0001 S   0  0  0  0  0  1  0  0  0  0  0  0
    0.1535    1.6543    0.0001 S   0  0  0  0  0  1  0  0  0  0  0  0
   -3.0575   -1.6647    0.0000 O   0  0  0  0  0  0  0  0  0  0  0  0
   -4.6879   -0.0770    0.0001 O   0  0  0  0  0  0  0  0  0  0  0  0
   -3.3296    3.0991   -0.0001 N   0  0  0  0  0  0  0  0  0  0  0  0
   -1.0703    0.4083    0.0000 C   0  0  0  0  0  0  0  0  0  0  0  0
   -2.4510    0.6513    0.0000 C   0  0  0  0  0  0  0  0  0  0  0  0
   -2.9370    1.9883   -0.0000 C   0  0  0  0  0  0  0  0  0  0  0  0
   -3.3797   -0.4788    0.0001 C   0  0  0  0  0  0  0  0  0  0  0  0
   -5.6549   -1.1319    0.0001 C   0  0  0  0  0  0  0  0  0  0  0  0
   -7.0315   -0.4949   -0.0003 C   0  0  0  0  0  0  0  0  0  0  0  0
   -5.4961   -1.7813   -0.8889 H   0  0  0  0  0  0  0  0  0  0  0  0
   -5.4965   -1.7811    0.8893 H   0  0  0  0  0  0  0  0  0  0  0  0
   -7.1703    0.1433    0.8952 H   0  0  0  0  0  0  0  0  0  0  0  0
   -7.1700    0.1430   -0.8960 H   0  0  0  0  0  0  0  0  0  0  0  0
   -7.8183   -1.2760   -0.0003 H   0  0  0  0  0  0  0  0  0  0  0  0
  3  9  2  0  0  0  0
  5  8  3  0  0  0  0
  6  2  1  0  0  0  0
  6  1  1  0  0  0  0
  7  6  2  0  0  0  0
  7  9  1  0  0  0  0
  8  7  1  0  0  0  0
  9  4  1  0  0  0  0
 10  4  1  0  0  0  0
 10 13  1  0  0  0  0
 11 10  1  0  0  0  0
 11 14  1  0  0  0  0
 12 10  1  0  0  0  0
 15 11  1  0  0  0  0
 16 11  1  0  0  0  0
M  END
