1,2
q = -1.0

 30 31  0  0  1  0  0  0  0  0999 V2000
    0.5866    2.2378   -0.5385 S   0  0  0  0  0  1  0  0  0  0  0  0
   -0.4283   -0.9490   -1.5869 S   0  0  0  0  0  1  0  0  0  0  0  0
   -1.7537    1.3072    0.6810 N   0  0  0  0  0  0  0  0  0  0  0  0
   -1.9841    3.1084   -0.5756 N   0  0  0  0  0  0  0  0  0  0  0  0
   -1.8366   -1.2204    0.7778 N   0  0  0  0  0  0  0  0  0  0  0  0
   -2.4197   -2.6613   -0.7893 N   0  0  0  0  0  0  0  0  0  0  0  0
   -1.0775    2.1754   -0.1286 C   0  0  1  0  0  3  0  0  0  0  0  0
   -3.2343    2.8252   -0.0417 C   0  0  0  0  0  0  0  0  0  0  0  0
   -4.1125    3.4380   -0.2639 H   0  0  0  0  0  0  0  0  0  0  0  0
   -3.0842    1.7059    0.7333 C   0  0  0  0  0  0  0  0  0  0  0  0
   -3.8257    1.1501    1.3131 H   0  0  0  0  0  0  0  0  0  0  0  0
   -1.6467    4.2067   -1.4599 C   0  0  0  0  0  0  0  0  0  0  0  0
   -2.5760    4.6309   -1.8814 H   0  0  0  0  0  0  0  0  0  0  0  0
   -0.9987    3.8315   -2.2764 H   0  0  0  0  0  0  0  0  0  0  0  0
   -1.0905    4.9985   -0.9175 H   0  0  0  0  0  0  0  0  0  0  0  0
   -1.5767   -1.6159   -0.5025 C   0  0  1  0  0  3  0  0  0  0  0  0
   -2.8473   -2.0224    1.2892 C   0  0  0  0  0  0  0  0  0  0  0  0
   -3.2130   -1.9030    2.3120 H   0  0  0  0  0  0  0  0  0  0  0  0
   -3.2202   -2.9173    0.3193 C   0  0  0  0  0  0  0  0  0  0  0  0
   -3.9618   -3.7210    0.3248 H   0  0  0  0  0  0  0  0  0  0  0  0
   -2.4375   -3.3776   -2.0498 C   0  0  0  0  0  0  0  0  0  0  0  0
   -2.7135   -4.4336   -1.8715 H   0  0  0  0  0  0  0  0  0  0  0  0
   -1.4245   -3.3219   -2.4941 H   0  0  0  0  0  0  0  0  0  0  0  0
   -3.1578   -2.9236   -2.7611 H   0  0  0  0  0  0  0  0  0  0  0  0
   -1.5723    0.1239    3.0309 C   0  0  0  0  0  0  0  0  0  0  0  0
   -1.1950   -0.7682    3.5712 H   0  0  0  0  0  0  0  0  0  0  0  0
   -2.6599    0.2101    3.2454 H   0  0  0  0  0  0  0  0  0  0  0  0
   -1.0868    1.0114    3.4839 H   0  0  0  0  0  0  0  0  0  0  0  0
   -1.2365    0.0514    1.4590 B   0  0  2  0  0  0  0  0  0  0  0  0
    0.0397    0.0250    1.4564 H   0  0  0  0  0  0  0  0  0  0  0  0
  3 10  1  0  0  0  0
  3 29  1  0  0  0  0
  4  7  1  0  0  0  0
  4  8  1  0  0  0  0
  5 17  1  0  0  0  0
  5 29  1  0  0  0  0
  6 16  1  0  0  0  0
  6 19  1  0  0  0  0
  7  1  1  1  0  0  0
  7  3  1  0  0  0  0
  8 10  2  0  0  0  0
  9  8  1  0  0  0  0
 10 11  1  0  0  0  0
 12 15  1  0  0  0  0
 12  4  1  0  0  0  0
 13 12  1  0  0  0  0
 14 12  1  0  0  0  0
 16  2  1  6  0  0  0
 16  5  1  0  0  0  0
 17 18  1  0  0  0  0
 19 20  1  0  0  0  0
 19 17  2  0  0  0  0
 21 22  1  0  0  0  0
 21  6  1  0  0  0  0
 23 21  1  0  0  0  0
 24 21  1  0  0  0  0
 25 27  1  0  0  0  0
 25 28  1  0  0  0  0
 25 26  1  0  0  0  0
 29 30  1  6  0  0  0
 29 25  1  0  0  0  0
M  END
