1,2
q = -1.0, confidence = 0.0

 27 27  0  0  0  0  0  0  0  0999 V2000
   -2.0766   -0.0425   -1.7690 S   0  0  0  0  0  1  0  0  0  0  0  0
   -2.1718   -0.9366    1.1153 S   0  0  0  0  0  1  0  0  0  0  0  0
   -4.2720   -0.9900   -0.5500 N   0  0  0  0  0  0  0  0  0  0  0  0
   -2.9544   -0.6759   -0.4148 C   0  0  0  0  0  3  0  0  0  0  0  0
   -5.1062   -1.4639    0.5547 C   0  0  0  0  0  0  0  0  0  0  0  0
   -5.5739   -2.4275    0.2541 H   0  0  0  0  0  0  0  0  0  0  0  0
   -4.4616   -1.6379    1.4365 H   0  0  0  0  0  0  0  0  0  0  0  0
   -5.0422   -0.7289   -1.7676 C   0  0  0  0  0  0  0  0  0  0  0  0
   -5.5066   -1.6826   -2.1021 H   0  0  0  0  0  0  0  0  0  0  0  0
   -4.3477   -0.3728   -2.5513 H   0  0  0  0  0  0  0  0  0  0  0  0
   -6.9429   -0.1047   -0.3435 N   0  0  0  0  0  0  0  0  0  0  0  0
   -6.1342    0.3074   -1.4809 C   0  0  0  0  0  0  0  0  0  0  0  0
   -5.6509    1.2885   -1.2667 H   0  0  0  0  0  0  0  0  0  0  0  0
   -6.8091    0.4278   -2.3486 H   0  0  0  0  0  0  0  0  0  0  0  0
   -6.2007   -0.4344    0.8651 C   0  0  0  0  0  0  0  0  0  0  0  0
   -5.7197    0.4839    1.2749 H   0  0  0  0  0  0  0  0  0  0  0  0
   -6.8994   -0.8275    1.6233 H   0  0  0  0  0  0  0  0  0  0  0  0
   -8.8976   -0.6529    0.6589 O   0  0  0  0  0  0  0  0  0  0  0  0
   -8.9188    0.0115   -1.5272 O   0  0  0  0  0  0  0  0  0  0  0  0
  -10.3266   -0.8089    0.5886 C   0  0  0  0  0  0  0  0  0  0  0  0
  -10.5753   -1.5300   -0.2189 H   0  0  0  0  0  0  0  0  0  0  0  0
  -10.7845    0.1609    0.2992 H   0  0  0  0  0  0  0  0  0  0  0  0
   -8.3060   -0.2285   -0.4955 C   0  0  0  0  0  0  0  0  0  0  0  0
  -10.8073   -1.2839    1.9446 C   0  0  0  0  0  0  0  0  0  0  0  0
  -11.9074   -1.4152    1.9323 H   0  0  0  0  0  0  0  0  0  0  0  0
  -10.5552   -0.5504    2.7363 H   0  0  0  0  0  0  0  0  0  0  0  0
  -10.3464   -2.2553    2.2135 H   0  0  0  0  0  0  0  0  0  0  0  0
  1  4  1  0  0  0  0
  3  4  1  0  0  0  0
  3  5  1  0  0  0  0
  4  2  1  0  0  0  0
  5 15  1  0  0  0  0
  5  7  1  0  0  0  0
  6  5  1  0  0  0  0
  8 12  1  0  0  0  0
  8  3  1  0  0  0  0
  9  8  1  0  0  0  0
 10  8  1  0  0  0  0
 11 15  1  0  0  0  0
 12 13  1  0  0  0  0
 12 11  1  0  0  0  0
 14 12  1  0  0  0  0
 15 16  1  0  0  0  0
 15 17  1  0  0  0  0
 19 23  2  0  0  0  0
 20 18  1  0  0  0  0
 20 24  1  0  0  0  0
 21 20  1  0  0  0  0
 22 20  1  0  0  0  0
 23 11  1  0  0  0  0
 23 18  1  0  0  0  0
 24 27  1  0  0  0  0
 24 26  1  0  0  0  0
 25 24  1  0  0  0  0
M  END
