1,2
q = -1.0

 31 30  0  0  0  0  0  0  0  0999 V2000
    1.5882   -2.0086    0.6679 S   0  0  0  0  0  1  0  0  0  0  0  0
    1.7984    0.9729   -0.5805 S   0  0  0  0  0  1  0  0  0  0  0  0
    2.5708   -0.2465    0.8913 P   0  0  0  0  0  4  0  0  0  0  0  0
    2.4413    0.4076    2.3785 O   0  0  0  0  0  0  0  0  0  0  0  0
    4.1917   -0.3521    0.9006 O   0  0  0  0  0  0  0  0  0  0  0  0
    1.1294    0.6097    2.9611 C   0  0  0  0  0  0  0  0  0  0  0  0
    1.2701    0.4450    4.0489 H   0  0  0  0  0  0  0  0  0  0  0  0
    0.4427   -0.1817    2.5856 H   0  0  0  0  0  0  0  0  0  0  0  0
    0.5562    1.9902    2.6615 C   0  0  0  0  0  0  0  0  0  0  0  0
    0.7029    2.1969    1.5815 H   0  0  0  0  0  0  0  0  0  0  0  0
    1.1248    2.7676    3.2161 H   0  0  0  0  0  0  0  0  0  0  0  0
   -0.9386    2.0699    2.9864 C   0  0  0  0  0  0  0  0  0  0  0  0
   -1.1057    1.8568    4.0663 H   0  0  0  0  0  0  0  0  0  0  0  0
   -1.4607    1.2616    2.4269 H   0  0  0  0  0  0  0  0  0  0  0  0
   -1.5587    3.4170    2.6156 C   0  0  0  0  0  0  0  0  0  0  0  0
   -2.6384    3.4516    2.8650 H   0  0  0  0  0  0  0  0  0  0  0  0
   -1.4621    3.6058    1.5262 H   0  0  0  0  0  0  0  0  0  0  0  0
   -1.0627    4.2550    3.1486 H   0  0  0  0  0  0  0  0  0  0  0  0
    4.8917   -1.2398   -0.0087 C   0  0  0  0  0  0  0  0  0  0  0  0
    4.4694   -2.2624    0.0944 H   0  0  0  0  0  0  0  0  0  0  0  0
    5.9299   -1.2480    0.3807 H   0  0  0  0  0  0  0  0  0  0  0  0
    4.8457   -0.7774   -1.4582 C   0  0  0  0  0  0  0  0  0  0  0  0
    5.4363   -1.5080   -2.0548 H   0  0  0  0  0  0  0  0  0  0  0  0
    3.8001   -0.8529   -1.8281 H   0  0  0  0  0  0  0  0  0  0  0  0
    5.3718    0.6423   -1.6844 C   0  0  0  0  0  0  0  0  0  0  0  0
    6.4402    0.6938   -1.3766 H   0  0  0  0  0  0  0  0  0  0  0  0
    4.8265    1.3338   -1.0078 H   0  0  0  0  0  0  0  0  0  0  0  0
    5.2121    1.1099   -3.1301 C   0  0  0  0  0  0  0  0  0  0  0  0
    5.7479    0.4421   -3.8371 H   0  0  0  0  0  0  0  0  0  0  0  0
    5.6065    2.1358   -3.2740 H   0  0  0  0  0  0  0  0  0  0  0  0
    4.1420    1.1171   -3.4243 H   0  0  0  0  0  0  0  0  0  0  0  0
  1  3  1  0  0  0  0
  2  3  1  0  0  0  0
  3  5  1  0  0  0  0
  3  4  1  0  0  0  0
  4  6  1  0  0  0  0
  6  7  1  0  0  0  0
  8  6  1  0  0  0  0
  9  6  1  0  0  0  0
  9 12  1  0  0  0  0
  9 11  1  0  0  0  0
 10  9  1  0  0  0  0
 12 13  1  0  0  0  0
 14 12  1  0  0  0  0
 15 16  1  0  0  0  0
 15 12  1  0  0  0  0
 15 18  1  0  0  0  0
 17 15  1  0  0  0  0
 19 20  1  0  0  0  0
 19 21  1  0  0  0  0
 19  5  1  0  0  0  0
 22 19  1  0  0  0  0
 23 22  1  0  0  0  0
 24 22  1  0  0  0  0
 25 22  1  0  0  0  0
 25 26  1  0  0  0  0
 25 27  1  0  0  0  0
 28 25  1  0  0  0  0
 29 28  1  0  0  0  0
 30 28  1  0  0  0  0
 31 28  1  0  0  0  0
M  END
