1,2
q = -1.0

 12 11  0  0  0  0  0  0  0  0999 V2000
    1.0809   -2.3336    1.3048 S   0  0  0  0  0  0  0  0  0  0  0  0
    1.4221   -1.6455   -1.9481 S   0  0  0  0  0  1  0  0  0  0  0  0
    4.5160   -3.6844    1.7895 N   0  0  0  0  0  0  0  0  0  0  0  0
    4.8581   -2.9103   -2.2629 N   0  0  0  0  0  0  0  0  0  0  0  0
    2.5850   -2.6560    0.3939 C   0  0  0  0  0  0  0  0  0  0  0  0
    2.6487   -2.3787   -0.9768 C   0  0  0  0  0  0  0  0  0  0  0  0
    3.6516   -3.2200    1.1356 C   0  0  0  0  0  0  0  0  0  0  0  0
    3.8655   -2.6931   -1.6721 C   0  0  0  0  0  0  0  0  0  0  0  0
    0.1266   -3.8453    0.8859 C   0  0  0  0  0  0  0  0  0  0  0  0
   -0.8981   -3.7087    1.2830 H   0  0  0  0  0  0  0  0  0  0  0  0
    0.6034   -4.7254    1.3566 H   0  0  0  0  0  0  0  0  0  0  0  0
    0.0835   -3.9560   -0.2134 H   0  0  0  0  0  0  0  0  0  0  0  0
  2  6  1  0  0  0  0
  4  8  3  0  0  0  0
  5  7  1  0  0  0  0
  5  1  1  0  0  0  0
  6  5  2  0  0  0  0
  7  3  3  0  0  0  0
  8  6  1  0  0  0  0
  9 10  1  0  0  0  0
  9  1  1  0  0  0  0
  9 11  1  0  0  0  0
 12  9  1  0  0  0  0
M  END
