1,8
q = 0.0, confidence = 0.826

 22 23  0  0  1  0  0  0  0  0999 V2000
    1.7630   -1.2358   -0.1162 S   0  0  0  0  0  1  0  0  0  0  0  0
    3.0876   -0.1223   -0.0633 C   0  0  0  0  0  0  0  0  0  0  0  0
    4.6640   -0.9111   -0.1313 S   0  0  0  0  0  0  0  0  0  0  0  0
    5.8487    0.4827   -0.4126 C   0  0  1  0  0  0  0  0  0  0  0  0
    5.5435    1.6664    0.5089 C   0  0  0  0  0  0  0  0  0  0  0  0
    4.0119    2.5536    0.0683 S   0  0  0  0  0  0  0  0  0  0  0  0
    2.8224    1.2523    0.0454 C   0  0  0  0  0  0  0  0  0  0  0  0
    1.1823    1.7965    0.1234 S   0  0  0  0  0  1  0  0  0  0  0  0
    6.3362    2.4347    0.3992 H   0  0  0  0  0  0  0  0  0  0  0  0
    5.5124    1.3515    1.5715 H   0  0  0  0  0  0  0  0  0  0  0  0
    7.2403   -0.0745   -0.1939 C   0  0  0  0  0  0  0  0  0  0  0  0
    7.6063   -0.6529    1.0396 C   0  0  0  0  0  0  0  0  0  0  0  0
    8.9113   -1.1226    1.2433 C   0  0  0  0  0  0  0  0  0  0  0  0
    9.8656   -1.0237    0.2178 C   0  0  0  0  0  0  0  0  0  0  0  0
    9.5078   -0.4550   -1.0143 C   0  0  0  0  0  0  0  0  0  0  0  0
    8.2021    0.0158   -1.2186 C   0  0  0  0  0  0  0  0  0  0  0  0
    7.9207    0.4589   -2.1869 H   0  0  0  0  0  0  0  0  0  0  0  0
   10.2484   -0.3803   -1.8248 H   0  0  0  0  0  0  0  0  0  0  0  0
   10.8889   -1.3957    0.3780 H   0  0  0  0  0  0  0  0  0  0  0  0
    9.1840   -1.5739    2.2093 H   0  0  0  0  0  0  0  0  0  0  0  0
    6.8546   -0.7508    1.8382 H   0  0  0  0  0  0  0  0  0  0  0  0
    5.7419    0.8099   -1.4662 H   0  0  0  0  0  0  0  0  0  0  0  0
  1  2  1  0  0  0  0
  2  7  2  0  0  0  0
  3  2  1  0  0  0  0
  4 22  1  6  0  0  0
  4 11  1  0  0  0  0
  4  3  1  0  0  0  0
  4  5  1  0  0  0  0
  5 10  1  0  0  0  0
  6  5  1  0  0  0  0
  7  6  1  0  0  0  0
  7  8  1  0  0  0  0
  9  5  1  0  0  0  0
 11 12  1  0  0  0  0
 12 13  2  0  0  0  0
 12 21  1  0  0  0  0
 13 20  1  0  0  0  0
 14 19  1  0  0  0  0
 14 13  1  0  0  0  0
 15 14  2  0  0  0  0
 16 15  1  0  0  0  0
 16 11  2  0  0  0  0
 17 16  1  0  0  0  0
 18 15  1  0  0  0  0
M  END
