1,2
q = -1.0, confidence = 0.0

 17 17  0  0  0  0  0  0  0  0999 V2000
   -0.0000   -2.6876    0.3205 S   0  0  0  0  0  1  0  0  0  0  0  0
    2.0670   -0.9092   -0.9101 S   0  0  0  0  0  1  0  0  0  0  0  0
    1.4254   -2.4707   -0.6094 C   0  0  0  0  0  3  0  0  0  0  0  0
    2.1162   -3.6621   -1.1697 C   0  0  0  0  0  0  0  0  0  0  0  0
    3.2653   -3.5264   -1.9869 C   0  0  0  0  0  0  0  0  0  0  0  0
    3.6371   -2.5139   -2.2039 H   0  0  0  0  0  0  0  0  0  0  0  0
    3.9151   -4.6472   -2.5075 C   0  0  0  0  0  0  0  0  0  0  0  0
    4.8071   -4.5092   -3.1393 H   0  0  0  0  0  0  0  0  0  0  0  0
    3.4512   -5.9538   -2.2402 C   0  0  0  0  0  0  0  0  0  0  0  0
    2.3091   -6.0901   -1.4235 C   0  0  0  0  0  0  0  0  0  0  0  0
    1.9274   -7.0976   -1.1934 H   0  0  0  0  0  0  0  0  0  0  0  0
    1.6535   -4.9723   -0.9004 C   0  0  0  0  0  0  0  0  0  0  0  0
    0.7633   -5.0927   -0.2651 H   0  0  0  0  0  0  0  0  0  0  0  0
    4.1387   -7.1557   -2.8321 C   0  0  0  0  0  0  0  0  0  0  0  0
    3.8991   -8.0822   -2.2748 H   0  0  0  0  0  0  0  0  0  0  0  0
    5.2401   -7.0305   -2.8455 H   0  0  0  0  0  0  0  0  0  0  0  0
    3.8205   -7.3130   -3.8856 H   0  0  0  0  0  0  0  0  0  0  0  0
  2  3  1  0  0  0  0
  3  1  1  0  0  0  0
  4 12  1  0  0  0  0
  4  3  1  0  0  0  0
  5  4  2  0  0  0  0
  6  5  1  0  0  0  0
  7  9  2  0  0  0  0
  7  5  1  0  0  0  0
  8  7  1  0  0  0  0
  9 10  1  0  0  0  0
 10 11  1  0  0  0  0
 10 12  2  0  0  0  0
 12 13  1  0  0  0  0
 14 15  1  0  0  0  0
 14  9  1  0  0  0  0
 16 14  1  0  0  0  0
 17 14  1  0  0  0  0
M  END
