1,10
q = 0.0, confidence = 0.97

 16 15  0  0  1  0  0  0  0  0999 V2000
    0.4771   -1.5557   -0.4610 S   0  0  0  0  0  0  0  0  0  0  0  0
    4.1274   -2.1785   -0.0849 N   0  0  0  0  0  0  0  0  0  0  0  0
    2.0041   -0.6849   -0.0765 C   0  0  1  0  0  3  0  0  0  0  0  0
    3.1890   -1.4699   -0.0893 C   0  0  0  0  0  0  0  0  0  0  0  0
    0.4384   -2.8876    0.7895 C   0  0  0  0  0  0  0  0  0  0  0  0
   -0.5753   -3.3135    0.6537 H   0  0  0  0  0  0  0  0  0  0  0  0
    0.5416   -2.4602    1.8026 H   0  0  0  0  0  0  0  0  0  0  0  0
    1.2283   -3.6275    0.5617 H   0  0  0  0  0  0  0  0  0  0  0  0
    2.0041    0.6850    0.0760 C   0  0  1  0  0  3  0  0  0  0  0  0
    0.4771    1.5557    0.4607 S   0  0  0  0  0  0  0  0  0  0  0  0
    0.4383    2.8875   -0.7899 C   0  0  0  0  0  0  0  0  0  0  0  0
   -0.5753    3.3136   -0.6539 H   0  0  0  0  0  0  0  0  0  0  0  0
    0.5412    2.4599   -1.8030 H   0  0  0  0  0  0  0  0  0  0  0  0
    1.2285    3.6273   -0.5624 H   0  0  0  0  0  0  0  0  0  0  0  0
    3.1891    1.4700    0.0897 C   0  0  0  0  0  0  0  0  0  0  0  0
    4.1277    2.1783    0.0855 N   0  0  0  0  0  0  0  0  0  0  0  0
  1  3  1  0  0  0  0
  1  5  1  0  0  0  0
  3  4  1  6  0  0  0
  3  9  1  0  0  0  0
  4  2  3  0  0  0  0
  5  7  1  0  0  0  0
  6  5  1  0  0  0  0
  8  5  1  0  0  0  0
  9 15  1  1  0  0  0
  9 10  1  0  0  0  0
 11 12  1  0  0  0  0
 11 14  1  0  0  0  0
 11 10  1  0  0  0  0
 13 11  1  0  0  0  0
 16 15  3  0  0  0  0
M  END
