1,2
q = -2.0, confidence = 0.73

 20 20  0  0  0  0  0  0  0  0999 V2000
    1.3004    1.4561   -0.6059 S   0  0  0  0  0  1  0  0  0  0  0  0
    1.2948   -1.4708    0.5944 S   0  0  0  0  0  1  0  0  0  0  0  0
    4.0624    1.3179   -0.4575 C   0  0  0  0  0  0  0  0  0  0  0  0
    4.0425    2.3580   -0.8096 H   0  0  0  0  0  0  0  0  0  0  0  0
    5.2774    0.6604   -0.2412 C   0  0  0  0  0  0  0  0  0  0  0  0
    5.2745   -0.7008    0.2038 C   0  0  0  0  0  0  0  0  0  0  0  0
    4.0567   -1.3505    0.4279 C   0  0  0  0  0  0  0  0  0  0  0  0
    4.0323   -2.3905    0.7803 H   0  0  0  0  0  0  0  0  0  0  0  0
    2.8269   -0.6774    0.2238 C   0  0  0  0  0  0  0  0  0  0  0  0
    2.8297    0.6528   -0.2453 C   0  0  0  0  0  0  0  0  0  0  0  0
    6.5556   -2.6029    0.8136 C   0  0  0  0  0  0  0  0  0  0  0  0
    6.0629   -3.2944    0.0913 H   0  0  0  0  0  0  0  0  0  0  0  0
    6.0741   -2.7410    1.8095 H   0  0  0  0  0  0  0  0  0  0  0  0
    7.6264   -2.8705    0.8930 H   0  0  0  0  0  0  0  0  0  0  0  0
    6.5669    2.5543   -0.8591 C   0  0  0  0  0  0  0  0  0  0  0  0
    6.0832    3.2489   -0.1336 H   0  0  0  0  0  0  0  0  0  0  0  0
    6.0798    2.6956   -1.8519 H   0  0  0  0  0  0  0  0  0  0  0  0
    7.6388    2.8150   -0.9454 H   0  0  0  0  0  0  0  0  0  0  0  0
    6.5063   -1.2625    0.3821 O   0  0  0  0  0  0  0  0  0  0  0  0
    6.5117    1.2141   -0.4274 O   0  0  0  0  0  0  0  0  0  0  0  0
  1 10  1  0  0  0  0
  3 10  2  0  0  0  0
  3  5  1  0  0  0  0
  4  3  1  0  0  0  0
  5  6  2  0  0  0  0
  6 19  1  0  0  0  0
  6  7  1  0  0  0  0
  7  8  1  0  0  0  0
  9  7  2  0  0  0  0
  9  2  1  0  0  0  0
 10  9  1  0  0  0  0
 11 14  1  0  0  0  0
 11 13  1  0  0  0  0
 12 11  1  0  0  0  0
 15 20  1  0  0  0  0
 15 16  1  0  0  0  0
 17 15  1  0  0  0  0
 18 15  1  0  0  0  0
 19 11  1  0  0  0  0
 20  5  1  0  0  0  0
M  END
