1,2
q = -1.0

 18 17  0  0  0  0  0  0  0  0999 V2000
   -1.9246   -0.6723    1.2068 S   0  0  0  0  0  1  0  0  0  0  0  0
   -1.8780   -0.0922   -1.7301 S   0  0  0  0  0  1  0  0  0  0  0  0
   -4.0204   -1.0611   -0.4623 N   0  0  0  0  0  0  0  0  0  0  0  0
   -2.7312   -0.6485   -0.3446 C   0  0  0  0  0  3  0  0  0  0  0  0
   -4.6660   -1.0233   -1.7694 C   0  0  0  0  0  0  0  0  0  0  0  0
   -4.8022   -1.5498    0.6921 C   0  0  0  0  0  0  0  0  0  0  0  0
   -5.2090   -3.0152    0.5108 C   0  0  0  0  0  0  0  0  0  0  0  0
   -5.9871   -0.6266    0.9915 C   0  0  0  0  0  0  0  0  0  0  0  0
   -5.6991   -1.4057   -1.6806 H   0  0  0  0  0  0  0  0  0  0  0  0
   -4.1066   -1.6407   -2.5018 H   0  0  0  0  0  0  0  0  0  0  0  0
   -4.6909    0.0118   -2.1685 H   0  0  0  0  0  0  0  0  0  0  0  0
   -4.0970   -1.4931    1.5464 H   0  0  0  0  0  0  0  0  0  0  0  0
   -5.9218   -3.1524   -0.3289 H   0  0  0  0  0  0  0  0  0  0  0  0
   -4.3191   -3.6467    0.3202 H   0  0  0  0  0  0  0  0  0  0  0  0
   -5.7053   -3.3860    1.4297 H   0  0  0  0  0  0  0  0  0  0  0  0
   -6.7351   -0.6268    0.1712 H   0  0  0  0  0  0  0  0  0  0  0  0
   -5.6419    0.4145    1.1481 H   0  0  0  0  0  0  0  0  0  0  0  0
   -6.5054   -0.9602    1.9126 H   0  0  0  0  0  0  0  0  0  0  0  0
  2  4  1  0  0  0  0
  3  4  1  0  0  0  0
  3  6  1  0  0  0  0
  4  1  1  0  0  0  0
  5  9  1  0  0  0  0
  5  3  1  0  0  0  0
  6  8  1  0  0  0  0
  6 12  1  0  0  0  0
  7  6  1  0  0  0  0
  7 15  1  0  0  0  0
  8 17  1  0  0  0  0
  8 18  1  0  0  0  0
 10  5  1  0  0  0  0
 11  5  1  0  0  0  0
 13  7  1  0  0  0  0
 14  7  1  0  0  0  0
 16  8  1  0  0  0  0
M  END
