1,5
q = -2.0, confidence = 0.544

  5  4  0  0  0  0  0  0  0  0999 V2000
   -0.0699    2.1001    1.7492 S   0  0  0  0  0  0  0  0  0  0  0  0
   -2.0431    2.6758    1.6517 S   0  0  0  0  0  0  0  0  0  0  0  0
   -2.1975    4.0381    0.0286 S   0  0  0  0  0  0  0  0  0  0  0  0
   -2.0384    2.6968   -1.6132 S   0  0  0  0  0  0  0  0  0  0  0  0
   -0.0670    2.1238   -1.7155 S   0  0  0  0  0  0  0  0  0  0  0  0
  2  1  1  0  0  0  0
  3  2  1  0  0  0  0
  4  3  1  0  0  0  0
  5  4  1  0  0  0  0
M  END
