2,3
q = 0.0, confidence = 0.792

 16 17  0  0  0  0  0  0  0  0999 V2000
   -7.9660    1.4680   -0.1698 S   0  0  0  0  0  0  0  0  0  0  0  0
   -1.6678    1.7015   -0.0758 S   0  0  0  0  0  1  0  0  0  0  0  0
   -1.6766   -1.6935   -0.0547 S   0  0  0  0  0  1  0  0  0  0  0  0
   -4.6632    1.4984   -0.5122 S   0  0  0  0  0  0  0  0  0  0  0  0
   -4.6694   -1.4729   -0.5104 S   0  0  0  0  0  0  0  0  0  0  0  0
   -7.9163   -1.5076   -0.0563 S   0  0  0  0  0  0  0  0  0  0  0  0
   -5.6188    0.0140   -0.3744 C   0  0  0  0  0  0  0  0  0  0  0  0
   -6.9784    0.0045   -0.2201 C   0  0  0  0  0  0  0  0  0  0  0  0
   -3.0980   -0.6744   -0.2429 C   0  0  0  0  0  0  0  0  0  0  0  0
   -3.0957    0.6895   -0.2509 C   0  0  0  0  0  0  0  0  0  0  0  0
   -9.4191   -0.6789    0.6395 C   0  0  0  0  0  0  0  0  0  0  0  0
   -9.7967   -1.3051    1.4740 H   0  0  0  0  0  0  0  0  0  0  0  0
  -10.1897   -0.6368   -0.1571 H   0  0  0  0  0  0  0  0  0  0  0  0
   -9.0532    0.7244    1.1174 C   0  0  0  0  0  0  0  0  0  0  0  0
   -9.9493    1.3678    1.2290 H   0  0  0  0  0  0  0  0  0  0  0  0
   -8.5013    0.6912    2.0788 H   0  0  0  0  0  0  0  0  0  0  0  0
  1 14  1  0  0  0  0
  4  7  1  0  0  0  0
  4 10  1  0  0  0  0
  5  7  1  0  0  0  0
  5  9  1  0  0  0  0
  6 11  1  0  0  0  0
  7  8  2  0  0  0  0
  8  1  1  0  0  0  0
  8  6  1  0  0  0  0
  9  3  1  0  0  0  0
 10  9  2  0  0  0  0
 10  2  1  0  0  0  0
 11 14  1  0  0  0  0
 11 12  1  0  0  0  0
 13 11  1  0  0  0  0
 14 15  1  0  0  0  0
 14 16  1  0  0  0  0
M  END
