1,2
q = -1.0

 29 30  0  0  0  0  0  0  0  0999 V2000
   -0.7028    0.7648    0.3132 S   0  0  0  0  0  1  0  0  0  0  0  0
   -1.3693   -1.7179    1.5472 S   0  0  0  0  0  1  0  0  0  0  0  0
   -3.2552    0.1965    1.0354 N   0  0  0  0  0  0  0  0  0  0  0  0
   -1.9663   -0.2068    0.9821 C   0  0  0  0  0  3  0  0  0  0  0  0
   -3.6317    1.4745    0.4954 C   0  0  0  0  0  0  0  0  0  0  0  0
   -4.2824    1.5504   -0.7488 C   0  0  0  0  0  0  0  0  0  0  0  0
   -4.6587    2.8042   -1.2530 C   0  0  0  0  0  0  0  0  0  0  0  0
   -4.3771    3.9725   -0.5274 C   0  0  0  0  0  0  0  0  0  0  0  0
   -3.7171    3.8903    0.7094 C   0  0  0  0  0  0  0  0  0  0  0  0
   -3.3451    2.6415    1.2259 C   0  0  0  0  0  0  0  0  0  0  0  0
   -4.3124   -0.6615    1.5983 C   0  0  0  0  0  0  0  0  0  0  0  0
   -5.1597   -1.3297    0.5364 C   0  0  0  0  0  0  0  0  0  0  0  0
   -6.5139   -0.9855    0.3732 C   0  0  0  0  0  0  0  0  0  0  0  0
   -7.2846   -1.5808   -0.6382 C   0  0  0  0  0  0  0  0  0  0  0  0
   -6.7029   -2.5222   -1.5005 C   0  0  0  0  0  0  0  0  0  0  0  0
   -5.3501   -2.8709   -1.3437 C   0  0  0  0  0  0  0  0  0  0  0  0
   -4.5821   -2.2814   -0.3305 C   0  0  0  0  0  0  0  0  0  0  0  0
   -4.4804    0.6291   -1.3134 H   0  0  0  0  0  0  0  0  0  0  0  0
   -5.1690    2.8671   -2.2258 H   0  0  0  0  0  0  0  0  0  0  0  0
   -4.6701    4.9539   -0.9300 H   0  0  0  0  0  0  0  0  0  0  0  0
   -3.4889    4.8048    1.2770 H   0  0  0  0  0  0  0  0  0  0  0  0
   -2.8219    2.5579    2.1894 H   0  0  0  0  0  0  0  0  0  0  0  0
   -6.9666   -0.2363    1.0419 H   0  0  0  0  0  0  0  0  0  0  0  0
   -8.3432   -1.3032   -0.7556 H   0  0  0  0  0  0  0  0  0  0  0  0
   -7.3043   -2.9880   -2.2960 H   0  0  0  0  0  0  0  0  0  0  0  0
   -4.8907   -3.6131   -2.0141 H   0  0  0  0  0  0  0  0  0  0  0  0
   -3.5219   -2.5528   -0.2017 H   0  0  0  0  0  0  0  0  0  0  0  0
   -4.9421   -0.0314    2.2580 H   0  0  0  0  0  0  0  0  0  0  0  0
   -3.7989   -1.4171    2.2291 H   0  0  0  0  0  0  0  0  0  0  0  0
  1  4  1  0  0  0  0
  3 11  1  0  0  0  0
  4  3  1  0  0  0  0
  4  2  1  0  0  0  0
  5  3  1  0  0  0  0
  5 10  1  0  0  0  0
  6  5  2  0  0  0  0
  7  6  1  0  0  0  0
  7  8  2  0  0  0  0
  8  9  1  0  0  0  0
  9 10  2  0  0  0  0
  9 21  1  0  0  0  0
 10 22  1  0  0  0  0
 11 29  1  0  0  0  0
 11 28  1  0  0  0  0
 12 11  1  0  0  0  0
 13 12  1  0  0  0  0
 13 23  1  0  0  0  0
 14 13  2  0  0  0  0
 15 16  2  0  0  0  0
 15 14  1  0  0  0  0
 16 17  1  0  0  0  0
 17 27  1  0  0  0  0
 17 12  2  0  0  0  0
 18  6  1  0  0  0  0
 19  7  1  0  0  0  0
 20  8  1  0  0  0  0
 24 14  1  0  0  0  0
 25 15  1  0  0  0  0
 26 16  1  0  0  0  0
M  END
