1,2
q = 0.0, confidence = 1.0

 30 31  0  0  0  0  0  0  0  0999 V2000
    1.4113    0.8823   -1.1980 S   0  0  0  0  0  0  0  0  0  0  0  0
   -1.4114   -0.8817   -1.1987 S   0  0  0  0  0  0  0  0  0  0  0  0
    2.7105   -0.3293   -1.5097 C   0  0  0  0  0  0  0  0  0  0  0  0
    2.6181   -1.6508   -1.0325 C   0  0  0  0  0  0  0  0  0  0  0  0
    1.7255   -1.9567   -0.4624 H   0  0  0  0  0  0  0  0  0  0  0  0
    3.6819   -2.5381   -1.2320 C   0  0  0  0  0  0  0  0  0  0  0  0
    3.6478   -3.5682   -0.8510 H   0  0  0  0  0  0  0  0  0  0  0  0
    4.8289   -2.0857   -1.8995 C   0  0  0  0  0  0  0  0  0  0  0  0
    5.8531   -2.9295   -2.0794 F   0  0  0  0  0  0  0  0  0  0  0  0
    4.9391   -0.7715   -2.3743 C   0  0  0  0  0  0  0  0  0  0  0  0
    5.8670   -0.4506   -2.8677 H   0  0  0  0  0  0  0  0  0  0  0  0
    3.8727    0.1136   -2.1686 C   0  0  0  0  0  0  0  0  0  0  0  0
    3.9536    1.1599   -2.5003 H   0  0  0  0  0  0  0  0  0  0  0  0
   -2.7105    0.3303   -1.5096 C   0  0  0  0  0  0  0  0  0  0  0  0
   -3.8727   -0.1120   -2.1687 C   0  0  0  0  0  0  0  0  0  0  0  0
   -3.9537   -1.1581   -2.5011 H   0  0  0  0  0  0  0  0  0  0  0  0
   -4.9390    0.7733   -2.3738 C   0  0  0  0  0  0  0  0  0  0  0  0
   -5.8670    0.4528   -2.8673 H   0  0  0  0  0  0  0  0  0  0  0  0
   -4.8286    2.0872   -1.8981 C   0  0  0  0  0  0  0  0  0  0  0  0
   -5.8528    2.9312   -2.0774 F   0  0  0  0  0  0  0  0  0  0  0  0
   -3.6816    2.5390   -1.2304 C   0  0  0  0  0  0  0  0  0  0  0  0
   -3.6473    3.5689   -0.8487 H   0  0  0  0  0  0  0  0  0  0  0  0
   -2.6178    1.6515   -1.0315 C   0  0  0  0  0  0  0  0  0  0  0  0
   -1.7252    1.9569   -0.4612 H   0  0  0  0  0  0  0  0  0  0  0  0
   -0.3777   -0.6544   -2.7191 C   0  0  0  0  0  0  0  0  0  0  0  0
    0.3095   -1.5250   -2.7267 H   0  0  0  0  0  0  0  0  0  0  0  0
   -1.0598   -0.7364   -3.5893 H   0  0  0  0  0  0  0  0  0  0  0  0
    0.3777    0.6560   -2.7186 C   0  0  0  0  0  0  0  0  0  0  0  0
   -0.3096    1.5266   -2.7255 H   0  0  0  0  0  0  0  0  0  0  0  0
    1.0598    0.7387   -3.5887 H   0  0  0  0  0  0  0  0  0  0  0  0
  3  1  1  0  0  0  0
  3  4  1  0  0  0  0
  4  5  1  0  0  0  0
  6  4  2  0  0  0  0
  6  7  1  0  0  0  0
  8  6  1  0  0  0  0
  9  8  1  0  0  0  0
 10 12  1  0  0  0  0
 10  8  2  0  0  0  0
 11 10  1  0  0  0  0
 12  3  2  0  0  0  0
 13 12  1  0  0  0  0
 14  2  1  0  0  0  0
 14 23  1  0  0  0  0
 15 14  2  0  0  0  0
 16 15  1  0  0  0  0
 17 15  1  0  0  0  0
 17 19  2  0  0  0  0
 18 17  1  0  0  0  0
 19 21  1  0  0  0  0
 20 19  1  0  0  0  0
 21 23  2  0  0  0  0
 21 22  1  0  0  0  0
 23 24  1  0  0  0  0
 25 28  1  0  0  0  0
 25  2  1  0  0  0  0
 26 25  1  0  0  0  0
 27 25  1  0  0  0  0
 28  1  1  0  0  0  0
 29 28  1  0  0  0  0
 30 28  1  0  0  0  0
M  END
