1,17
q = 0.0, confidence = 1.0

 30 31  0  0  0  0  0  0  0  0999 V2000
   -1.4778   -1.1410    0.7441 S   0  0  0  0  0  0  0  0  0  0  0  0
   -2.6255   -1.4559   -0.6083 C   0  0  0  0  0  0  0  0  0  0  0  0
   -3.7377   -2.2795   -0.3557 C   0  0  0  0  0  0  0  0  0  0  0  0
   -4.7247   -2.4828   -1.3248 C   0  0  0  0  0  0  0  0  0  0  0  0
   -5.5791   -3.1317   -1.0847 H   0  0  0  0  0  0  0  0  0  0  0  0
   -4.6042   -1.8381   -2.5648 C   0  0  0  0  0  0  0  0  0  0  0  0
   -5.3876   -1.9780   -3.3241 H   0  0  0  0  0  0  0  0  0  0  0  0
   -3.5010   -1.0117   -2.8342 C   0  0  0  0  0  0  0  0  0  0  0  0
   -3.4168   -0.4924   -3.7992 H   0  0  0  0  0  0  0  0  0  0  0  0
   -2.5132   -0.8213   -1.8586 C   0  0  0  0  0  0  0  0  0  0  0  0
   -1.6578   -0.1446   -2.0245 H   0  0  0  0  0  0  0  0  0  0  0  0
   -0.4297   -2.6629    0.6224 C   0  0  0  0  0  0  0  0  0  0  0  0
    0.1830   -2.6567    1.5472 H   0  0  0  0  0  0  0  0  0  0  0  0
   -1.1191   -3.5300    0.6627 H   0  0  0  0  0  0  0  0  0  0  0  0
   -3.8471   -2.8864    0.8400 F   0  0  0  0  0  0  0  0  0  0  0  0
    0.4298   -2.6630   -0.6218 C   0  0  0  0  0  0  0  0  0  0  0  0
    1.4778   -1.1411   -0.7438 S   0  0  0  0  0  0  0  0  0  0  0  0
    2.6255   -1.4555    0.6087 C   0  0  0  0  0  0  0  0  0  0  0  0
    3.7378   -2.2789    0.3561 C   0  0  0  0  0  0  0  0  0  0  0  0
    4.7250   -2.4818    1.3252 C   0  0  0  0  0  0  0  0  0  0  0  0
    5.5795   -3.1305    1.0851 H   0  0  0  0  0  0  0  0  0  0  0  0
    4.6043   -1.8370    2.5651 C   0  0  0  0  0  0  0  0  0  0  0  0
    5.3878   -1.9765    3.3244 H   0  0  0  0  0  0  0  0  0  0  0  0
    3.5009   -1.0109    2.8345 C   0  0  0  0  0  0  0  0  0  0  0  0
    3.4166   -0.4914    3.7994 H   0  0  0  0  0  0  0  0  0  0  0  0
    2.5131   -0.8208    1.8589 C   0  0  0  0  0  0  0  0  0  0  0  0
    1.6576   -0.1442    2.0246 H   0  0  0  0  0  0  0  0  0  0  0  0
    3.8473   -2.8860   -0.8394 F   0  0  0  0  0  0  0  0  0  0  0  0
   -0.1829   -2.6571   -1.5466 H   0  0  0  0  0  0  0  0  0  0  0  0
    1.1193   -3.5301   -0.6618 H   0  0  0  0  0  0  0  0  0  0  0  0
  2  3  1  0  0  0  0
  2  1  1  0  0  0  0
  3 15  1  0  0  0  0
  4  5  1  0  0  0  0
  4  3  2  0  0  0  0
  6  4  1  0  0  0  0
  7  6  1  0  0  0  0
  8  6  2  0  0  0  0
  8 10  1  0  0  0  0
  9  8  1  0  0  0  0
 10  2  2  0  0  0  0
 11 10  1  0  0  0  0
 12 14  1  0  0  0  0
 12  1  1  0  0  0  0
 12 13  1  0  0  0  0
 16 12  1  0  0  0  0
 17 16  1  0  0  0  0
 17 18  1  0  0  0  0
 18 26  1  0  0  0  0
 19 18  2  0  0  0  0
 19 20  1  0  0  0  0
 20 22  2  0  0  0  0
 21 20  1  0  0  0  0
 22 24  1  0  0  0  0
 22 23  1  0  0  0  0
 24 25  1  0  0  0  0
 26 27  1  0  0  0  0
 26 24  2  0  0  0  0
 28 19  1  0  0  0  0
 29 16  1  0  0  0  0
 30 16  1  0  0  0  0
M  END
