1,2
q = 0.0, confidence = 0.714

  3  2  0  0  0  0  0  0  0  0999 V2000
    2.0521    2.4774    0.0523 S   0  0  0  0  0  0  0  0  0  0  0  0
    0.1832    3.0665    0.9174 S   0  0  0  0  0  0  0  0  0  0  0  0
    2.5537    3.3442   -1.0740 O   0  0  0  0  0  0  0  0  0  0  0  0
  1  2  1  0  0  0  0
  3  1  2  0  0  0  0
M  END
