1,35
q = -1.0, confidence = 0.0

 35 36  0  0  0  0  0  0  0  0999 V2000
    1.8921    0.7884    1.0539 S   0  0  0  0  0  1  0  0  0  0  0  0
    3.3706    0.1618   -0.2581 P   0  0  0  0  0  4  0  0  0  0  0  0
    2.9723   -0.1120   -1.8195 N   0  0  0  0  0  2  0  0  0  0  0  0
    1.7830   -1.2022   -2.1082 P   0  0  0  0  0  4  0  0  0  0  0  0
    4.2732   -1.2789    0.4424 C   0  0  0  0  0  0  0  0  0  0  0  0
    4.0203   -1.7530    1.7407 C   0  0  0  0  0  0  0  0  0  0  0  0
    4.7345   -2.8572    2.2305 C   0  0  0  0  0  0  0  0  0  0  0  0
    5.6991   -3.4866    1.4277 C   0  0  0  0  0  0  0  0  0  0  0  0
    5.9515   -3.0124    0.1287 C   0  0  0  0  0  0  0  0  0  0  0  0
    5.2402   -1.9104   -0.3664 C   0  0  0  0  0  0  0  0  0  0  0  0
    4.5908    1.5120   -0.2925 C   0  0  0  0  0  0  0  0  0  0  0  0
    4.8016    2.2292   -1.4840 C   0  0  0  0  0  0  0  0  0  0  0  0
    5.7209    3.2890   -1.5019 C   0  0  0  0  0  0  0  0  0  0  0  0
    6.4234    3.6340   -0.3361 C   0  0  0  0  0  0  0  0  0  0  0  0
    6.2095    2.9164    0.8532 C   0  0  0  0  0  0  0  0  0  0  0  0
    5.2950    1.8549    0.8786 C   0  0  0  0  0  0  0  0  0  0  0  0
    0.5130   -0.3843   -3.1291 C   0  0  0  0  0  0  0  0  0  0  0  0
    2.4639   -2.5633   -3.1179 C   0  0  0  0  0  0  0  0  0  0  0  0
    3.2441   -1.2551    2.3434 H   0  0  0  0  0  0  0  0  0  0  0  0
    4.5307   -3.2336    3.2447 H   0  0  0  0  0  0  0  0  0  0  0  0
    6.2561   -4.3541    1.8136 H   0  0  0  0  0  0  0  0  0  0  0  0
    6.7068   -3.5062   -0.5019 H   0  0  0  0  0  0  0  0  0  0  0  0
    5.4224   -1.5362   -1.3861 H   0  0  0  0  0  0  0  0  0  0  0  0
    4.2387    1.9356   -2.3827 H   0  0  0  0  0  0  0  0  0  0  0  0
    5.8897    3.8504   -2.4337 H   0  0  0  0  0  0  0  0  0  0  0  0
    7.1433    4.4665   -0.3533 H   0  0  0  0  0  0  0  0  0  0  0  0
    6.7607    3.1854    1.7670 H   0  0  0  0  0  0  0  0  0  0  0  0
    5.1259    1.2893    1.8079 H   0  0  0  0  0  0  0  0  0  0  0  0
    0.1267    0.4657   -2.5349 H   0  0  0  0  0  0  0  0  0  0  0  0
    0.9764   -0.0077   -4.0627 H   0  0  0  0  0  0  0  0  0  0  0  0
   -0.3162   -1.0843   -3.3456 H   0  0  0  0  0  0  0  0  0  0  0  0
    3.2020   -3.1070   -2.4974 H   0  0  0  0  0  0  0  0  0  0  0  0
    1.6585   -3.2551   -3.4307 H   0  0  0  0  0  0  0  0  0  0  0  0
    2.9726   -2.1347   -4.0037 H   0  0  0  0  0  0  0  0  0  0  0  0
    0.9433   -2.0804   -0.4455 S   0  0  0  0  0  1  0  0  0  0  0  0
  2  5  1  0  0  0  0
  2  1  1  0  0  0  0
  3  2  1  0  0  0  0
  4  3  1  0  0  0  0
  4 35  1  0  0  0  0
  5  6  1  0  0  0  0
  6  7  2  0  0  0  0
  6 19  1  0  0  0  0
  7 20  1  0  0  0  0
  8 21  1  0  0  0  0
  8  7  1  0  0  0  0
  9  8  2  0  0  0  0
 10  9  1  0  0  0  0
 10  5  2  0  0  0  0
 11  2  1  0  0  0  0
 11 16  1  0  0  0  0
 12 11  2  0  0  0  0
 13 12  1  0  0  0  0
 13 14  2  0  0  0  0
 14 15  1  0  0  0  0
 15 16  2  0  0  0  0
 15 27  1  0  0  0  0
 16 28  1  0  0  0  0
 17 29  1  0  0  0  0
 17  4  1  0  0  0  0
 18 32  1  0  0  0  0
 18  4  1  0  0  0  0
 22  9  1  0  0  0  0
 23 10  1  0  0  0  0
 24 12  1  0  0  0  0
 25 13  1  0  0  0  0
 26 14  1  0  0  0  0
 30 17  1  0  0  0  0
 31 17  1  0  0  0  0
 33 18  1  0  0  0  0
 34 18  1  0  0  0  0
M  END
