5,6
q = -1.0

  6  5  0  0  0  0  0  0  0  0999 V2000
    1.4170    2.3253   -0.0001 C   0  0  0  0  0  3  0  0  0  0  0  0
    1.9972    4.1550    0.7534 H   0  0  0  0  0  0  0  0  0  0  0  0
    2.7822    3.6766   -0.7499 H   0  0  0  0  0  0  0  0  0  0  0  0
    2.1193    3.4788   -0.0004 N   0  0  0  0  0  0  0  0  0  0  0  0
    0.2909    1.9115    1.2230 S   0  0  0  0  0  1  0  0  0  0  0  0
    1.5654    1.1349   -1.2233 S   0  0  0  0  0  1  0  0  0  0  0  0
  1  5  1  0  0  0  0
  3  4  1  0  0  0  0
  4  1  1  0  0  0  0
  4  2  1  0  0  0  0
  6  1  1  0  0  0  0
M  END
