1,2
q = -1.0

 12 11  0  0  0  0  0  0  0  0999 V2000
   -0.2332    1.9206    1.3947 S   0  0  0  0  0  1  0  0  0  0  0  0
    1.2176    1.5017   -1.0430 S   0  0  0  0  0  1  0  0  0  0  0  0
    1.1353    3.9154    0.1897 N   0  0  0  0  0  0  0  0  0  0  0  0
    0.8587    4.4595    1.0106 H   0  0  0  0  0  0  0  0  0  0  0  0
    0.7600    2.6172    0.1810 C   0  0  0  0  0  3  0  0  0  0  0  0
    2.0682    4.5006   -0.7639 C   0  0  0  0  0  0  0  0  0  0  0  0
    1.8503    5.5868   -0.8246 H   0  0  0  0  0  0  0  0  0  0  0  0
    1.8353    4.0672   -1.7597 H   0  0  0  0  0  0  0  0  0  0  0  0
    3.5363    4.2506   -0.4111 C   0  0  0  0  0  0  0  0  0  0  0  0
    3.7961    4.6911    0.5728 H   0  0  0  0  0  0  0  0  0  0  0  0
    4.2012    4.6993   -1.1764 H   0  0  0  0  0  0  0  0  0  0  0  0
    3.7371    3.1616   -0.3715 H   0  0  0  0  0  0  0  0  0  0  0  0
  2  5  1  0  0  0  0
  3  4  1  0  0  0  0
  5  3  1  0  0  0  0
  5  1  1  0  0  0  0
  6  9  1  0  0  0  0
  6  3  1  0  0  0  0
  7  6  1  0  0  0  0
  8  6  1  0  0  0  0
  9 12  1  0  0  0  0
  9 10  1  0  0  0  0
 11  9  1  0  0  0  0
M  END
