2,3
q = -1.0, confidence = 0.0

 39 39  0  0  0  0  0  0  0  0999 V2000
   -2.8755    1.6468    0.2103 P   0  0  0  0  0  4  0  0  0  0  0  0
   -1.1182    1.8067   -0.7985 S   0  0  0  0  0  1  0  0  0  0  0  0
   -1.5590   -1.4118    0.8566 S   0  0  0  0  0  1  0  0  0  0  0  0
   -2.7722    2.0122    1.7785 O   0  0  0  0  0  0  0  0  0  0  0  0
   -3.8981    2.7833   -0.3417 O   0  0  0  0  0  0  0  0  0  0  0  0
   -3.6733    0.2329    0.0868 N   0  0  0  0  0  0  0  0  0  0  0  0
   -3.9535   -2.0699    0.0853 N   0  0  0  0  0  0  0  0  0  0  0  0
   -3.4908   -2.9799    0.1770 H   0  0  0  0  0  0  0  0  0  0  0  0
   -3.1609   -0.9654    0.2877 C   0  0  0  0  0  0  0  0  0  0  0  0
   -1.9225    3.1059    2.2640 C   0  0  0  0  0  0  0  0  0  0  0  0
   -1.2979    3.4498    1.4096 H   0  0  0  0  0  0  0  0  0  0  0  0
   -2.8345    4.2311    2.7288 C   0  0  0  0  0  0  0  0  0  0  0  0
   -3.4798    4.5718    1.8959 H   0  0  0  0  0  0  0  0  0  0  0  0
   -3.4837    3.8893    3.5601 H   0  0  0  0  0  0  0  0  0  0  0  0
   -2.2325    5.0907    3.0854 H   0  0  0  0  0  0  0  0  0  0  0  0
   -1.0212    2.5225    3.3386 C   0  0  0  0  0  0  0  0  0  0  0  0
   -0.4001    1.7069    2.9148 H   0  0  0  0  0  0  0  0  0  0  0  0
   -0.3458    3.3047    3.7387 H   0  0  0  0  0  0  0  0  0  0  0  0
   -1.6234    2.1114    4.1737 H   0  0  0  0  0  0  0  0  0  0  0  0
   -4.2741    2.8010   -1.7570 C   0  0  0  0  0  0  0  0  0  0  0  0
   -3.8797    1.8749   -2.2315 H   0  0  0  0  0  0  0  0  0  0  0  0
   -5.7938    2.7937   -1.8202 C   0  0  0  0  0  0  0  0  0  0  0  0
   -6.2004    1.8739   -1.3576 H   0  0  0  0  0  0  0  0  0  0  0  0
   -6.2073    3.6718   -1.2841 H   0  0  0  0  0  0  0  0  0  0  0  0
   -6.1348    2.8336   -2.8739 H   0  0  0  0  0  0  0  0  0  0  0  0
   -3.6309    4.0201   -2.4022 C   0  0  0  0  0  0  0  0  0  0  0  0
   -2.5283    3.9715   -2.3098 H   0  0  0  0  0  0  0  0  0  0  0  0
   -3.8896    4.0703   -3.4788 H   0  0  0  0  0  0  0  0  0  0  0  0
   -3.9864    4.9490   -1.9119 H   0  0  0  0  0  0  0  0  0  0  0  0
   -5.3138   -2.1972   -0.2234 C   0  0  0  0  0  0  0  0  0  0  0  0
   -5.6795   -3.4810   -0.4076 N   0  0  0  0  0  0  0  0  0  0  0  0
   -6.9588   -3.7374   -0.7063 C   0  0  0  0  0  0  0  0  0  0  0  0
   -7.2186   -4.8015   -0.8497 H   0  0  0  0  0  0  0  0  0  0  0  0
   -7.9406   -2.7427   -0.8366 C   0  0  0  0  0  0  0  0  0  0  0  0
   -8.9784   -3.0074   -1.0848 H   0  0  0  0  0  0  0  0  0  0  0  0
   -7.5483   -1.4099   -0.6332 C   0  0  0  0  0  0  0  0  0  0  0  0
   -8.2808   -0.5920   -0.7150 H   0  0  0  0  0  0  0  0  0  0  0  0
   -6.2175   -1.1136   -0.3216 C   0  0  0  0  0  0  0  0  0  0  0  0
   -5.8585   -0.0924   -0.1502 H   0  0  0  0  0  0  0  0  0  0  0  0
  1  4  1  0  0  0  0
  2  1  1  0  0  0  0
  4 10  1  0  0  0  0
  5  1  1  0  0  0  0
  6  1  1  0  0  0  0
  6  9  2  0  0  0  0
  7  8  1  0  0  0  0
  7  9  1  0  0  0  0
  9  3  1  0  0  0  0
 10 12  1  0  0  0  0
 10 16  1  0  0  0  0
 11 10  1  0  0  0  0
 12 15  1  0  0  0  0
 12 14  1  0  0  0  0
 13 12  1  0  0  0  0
 16 18  1  0  0  0  0
 16 19  1  0  0  0  0
 17 16  1  0  0  0  0
 20  5  1  0  0  0  0
 21 20  1  0  0  0  0
 22 20  1  0  0  0  0
 22 23  1  0  0  0  0
 22 24  1  0  0  0  0
 25 22  1  0  0  0  0
 26 27  1  0  0  0  0
 26 29  1  0  0  0  0
 26 20  1  0  0  0  0
 28 26  1  0  0  0  0
 30  7  1  0  0  0  0
 31 30  2  0  0  0  0
 32 31  1  0  0  0  0
 33 32  1  0  0  0  0
 34 32  2  0  0  0  0
 34 36  1  0  0  0  0
 35 34  1  0  0  0  0
 36 38  2  0  0  0  0
 37 36  1  0  0  0  0
 38 30  1  0  0  0  0
 38 39  1  0  0  0  0
M  END
