1,2
q = 0.0, confidence = 0.816

 22 23  0  0  0  0  0  0  0  0999 V2000
   -0.0784    1.5748   -0.4438 S   0  0  0  0  0  1  0  0  0  0  0  0
   -0.0578   -1.6544   -0.3471 S   0  0  0  0  0  1  0  0  0  0  0  0
   -3.0892    1.4182   -0.9368 S   0  0  0  0  0  0  0  0  0  0  0  0
   -3.0694   -1.5662   -0.8506 S   0  0  0  0  0  0  0  0  0  0  0  0
   -6.3717    1.3953   -0.6076 S   0  0  0  0  0  0  0  0  0  0  0  0
   -6.3586   -1.5614   -0.4864 S   0  0  0  0  0  0  0  0  0  0  0  0
   -9.0029    1.6546    0.8906 S   0  0  0  0  0  0  0  0  0  0  0  0
   -8.9294   -1.7900    1.0500 S   0  0  0  0  0  0  0  0  0  0  0  0
   -1.5323    0.6323   -0.6214 C   0  0  0  0  0  0  0  0  0  0  0  0
   -1.5235   -0.7430   -0.5804 C   0  0  0  0  0  0  0  0  0  0  0  0
   -4.0281   -0.0771   -0.7746 C   0  0  0  0  0  0  0  0  0  0  0  0
   -5.3874   -0.0808   -0.6359 C   0  0  0  0  0  0  0  0  0  0  0  0
   -7.7199    0.6277    0.2740 C   0  0  0  0  0  0  0  0  0  0  0  0
   -7.7194   -0.7439    0.3112 C   0  0  0  0  0  0  0  0  0  0  0  0
   -8.1117    2.5590    2.2098 C   0  0  0  0  0  0  0  0  0  0  0  0
   -7.2053    3.0448    1.8005 H   0  0  0  0  0  0  0  0  0  0  0  0
   -7.8378    1.8710    3.0322 H   0  0  0  0  0  0  0  0  0  0  0  0
   -8.8101    3.3323    2.5835 H   0  0  0  0  0  0  0  0  0  0  0  0
  -10.3958   -1.4623    0.0065 C   0  0  0  0  0  0  0  0  0  0  0  0
  -10.7615   -0.4279    0.1529 H   0  0  0  0  0  0  0  0  0  0  0  0
  -11.1709   -2.1783    0.3432 H   0  0  0  0  0  0  0  0  0  0  0  0
  -10.1622   -1.6490   -1.0588 H   0  0  0  0  0  0  0  0  0  0  0  0
  3 11  1  0  0  0  0
  3  9  1  0  0  0  0
  4 11  1  0  0  0  0
  4 10  1  0  0  0  0
  5 13  1  0  0  0  0
  6 14  1  0  0  0  0
  7 15  1  0  0  0  0
  9 10  2  0  0  0  0
  9  1  1  0  0  0  0
 10  2  1  0  0  0  0
 11 12  2  0  0  0  0
 12  5  1  0  0  0  0
 12  6  1  0  0  0  0
 13 14  2  0  0  0  0
 13  7  1  0  0  0  0
 14  8  1  0  0  0  0
 15 18  1  0  0  0  0
 15 17  1  0  0  0  0
 16 15  1  0  0  0  0
 19 20  1  0  0  0  0
 19 21  1  0  0  0  0
 19  8  1  0  0  0  0
 22 19  1  0  0  0  0
M  END
