2,3
q = 0.0, confidence = 0.996

 51 55  0  0  1  0  0  0  0  0999 V2000
   -2.4314   -1.1195   -0.1049 P   0  0  2  0  0  4  0  0  0  0  0  0
   -0.4017    0.6543   -1.0140 S   0  0  0  0  0  0  0  0  0  0  0  0
   -1.0116   -2.2539    0.7432 S   0  0  0  0  0  1  0  0  0  0  0  0
   -3.9776   -2.0427   -0.2865 C   0  0  0  0  0  0  0  0  0  0  0  0
   -3.9035   -3.3345   -0.8521 C   0  0  0  0  0  0  0  0  0  0  0  0
   -5.0729   -4.0888   -1.0129 C   0  0  0  0  0  0  0  0  0  0  0  0
   -6.3101   -3.5694   -0.5973 C   0  0  0  0  0  0  0  0  0  0  0  0
   -6.3808   -2.2922   -0.0184 C   0  0  0  0  0  0  0  0  0  0  0  0
   -5.2187   -1.5238    0.1365 C   0  0  0  0  0  0  0  0  0  0  0  0
   -1.8676   -0.3112   -1.6874 C   0  0  2  0  0  0  0  0  0  0  0  0
   -3.0141    0.6070   -2.0041 C   0  0  0  0  0  0  0  0  0  0  0  0
   -3.5631    1.1178   -0.8577 C   0  0  0  0  0  0  0  0  0  0  0  0
   -2.7975    0.6744    0.3828 C   0  0  2  0  0  0  0  0  0  0  0  0
   -1.4173    1.4184    0.4609 C   0  0  0  0  0  0  0  0  0  0  0  0
   -3.4109    0.8612   -3.4216 C   0  0  0  0  0  0  0  0  0  0  0  0
   -4.7105    2.0661   -0.7352 C   0  0  0  0  0  0  0  0  0  0  0  0
   -0.6361    1.2056    1.7517 C   0  0  0  0  0  0  0  0  0  0  0  0
    0.6006    1.8725    1.9027 C   0  0  0  0  0  0  0  0  0  0  0  0
    1.3432    1.7502    3.0817 C   0  0  0  0  0  0  0  0  0  0  0  0
    0.8546    0.9696    4.1440 C   0  0  0  0  0  0  0  0  0  0  0  0
   -0.3753    0.3112    4.0096 C   0  0  0  0  0  0  0  0  0  0  0  0
   -1.1155    0.4263    2.8207 C   0  0  0  0  0  0  0  0  0  0  0  0
   -1.6383    2.9145    0.2076 C   0  0  0  0  0  0  0  0  0  0  0  0
   -1.4999    3.5253   -1.0527 C   0  0  0  0  0  0  0  0  0  0  0  0
   -1.8234    4.8804   -1.2295 C   0  0  0  0  0  0  0  0  0  0  0  0
   -2.2944    5.6427   -0.1512 C   0  0  0  0  0  0  0  0  0  0  0  0
   -2.4302    5.0437    1.1120 C   0  0  0  0  0  0  0  0  0  0  0  0
   -2.1011    3.6933    1.2912 C   0  0  0  0  0  0  0  0  0  0  0  0
   -2.9294   -3.7497   -1.1523 H   0  0  0  0  0  0  0  0  0  0  0  0
   -5.0163   -5.0925   -1.4592 H   0  0  0  0  0  0  0  0  0  0  0  0
   -7.2253   -4.1677   -0.7188 H   0  0  0  0  0  0  0  0  0  0  0  0
   -7.3477   -1.8906    0.3187 H   0  0  0  0  0  0  0  0  0  0  0  0
   -5.2855   -0.5274    0.5943 H   0  0  0  0  0  0  0  0  0  0  0  0
   -1.4992   -0.9849   -2.4820 H   0  0  0  0  0  0  0  0  0  0  0  0
   -3.3569    0.8096    1.3262 H   0  0  0  0  0  0  0  0  0  0  0  0
   -4.2987    1.5152   -3.4967 H   0  0  0  0  0  0  0  0  0  0  0  0
   -3.6350   -0.0902   -3.9484 H   0  0  0  0  0  0  0  0  0  0  0  0
   -2.5818    1.3460   -3.9806 H   0  0  0  0  0  0  0  0  0  0  0  0
   -5.2137    2.2390   -1.7040 H   0  0  0  0  0  0  0  0  0  0  0  0
   -4.3649    3.0466   -0.3443 H   0  0  0  0  0  0  0  0  0  0  0  0
   -5.4687    1.6889   -0.0169 H   0  0  0  0  0  0  0  0  0  0  0  0
    0.9821    2.5028    1.0859 H   0  0  0  0  0  0  0  0  0  0  0  0
    2.3053    2.2755    3.1743 H   0  0  0  0  0  0  0  0  0  0  0  0
    1.4304    0.8819    5.0775 H   0  0  0  0  0  0  0  0  0  0  0  0
   -0.7713   -0.2976    4.8359 H   0  0  0  0  0  0  0  0  0  0  0  0
   -2.0701   -0.1108    2.7460 H   0  0  0  0  0  0  0  0  0  0  0  0
   -1.1304    2.9426   -1.9080 H   0  0  0  0  0  0  0  0  0  0  0  0
   -1.7011    5.3414   -2.2209 H   0  0  0  0  0  0  0  0  0  0  0  0
   -2.5470    6.7042   -0.2910 H   0  0  0  0  0  0  0  0  0  0  0  0
   -2.7885    5.6340    1.9685 H   0  0  0  0  0  0  0  0  0  0  0  0
   -2.2006    3.2365    2.2874 H   0  0  0  0  0  0  0  0  0  0  0  0
  1 13  1  0  0  0  0
  1  3  1  1  0  0  0
  2 14  1  0  0  0  0
  4  1  1  0  0  0  0
  4  9  1  0  0  0  0
  5  4  2  0  0  0  0
  6  5  1  0  0  0  0
  6  7  2  0  0  0  0
  7  8  1  0  0  0  0
  8  9  2  0  0  0  0
  8 32  1  0  0  0  0
  9 33  1  0  0  0  0
 10 34  1  6  0  0  0
 10  2  1  0  0  0  0
 10  1  1  0  0  0  0
 11 10  1  0  0  0  0
 11 12  2  0  0  0  0
 12 16  1  0  0  0  0
 12 13  1  0  0  0  0
 13 14  1  0  0  0  0
 13 35  1  1  0  0  0
 14 17  1  0  0  0  0
 15 11  1  0  0  0  0
 16 40  1  0  0  0  0
 16 41  1  0  0  0  0
 17 18  2  0  0  0  0
 17 22  1  0  0  0  0
 18 19  1  0  0  0  0
 19 43  1  0  0  0  0
 19 20  2  0  0  0  0
 20 44  1  0  0  0  0
 21 20  1  0  0  0  0
 21 45  1  0  0  0  0
 22 21  2  0  0  0  0
 23 14  1  0  0  0  0
 23 28  1  0  0  0  0
 24 23  2  0  0  0  0
 25 24  1  0  0  0  0
 25 26  2  0  0  0  0
 26 27  1  0  0  0  0
 27 28  2  0  0  0  0
 27 50  1  0  0  0  0
 28 51  1  0  0  0  0
 29  5  1  0  0  0  0
 30  6  1  0  0  0  0
 31  7  1  0  0  0  0
 36 15  1  0  0  0  0
 37 15  1  0  0  0  0
 38 15  1  0  0  0  0
 39 16  1  0  0  0  0
 42 18  1  0  0  0  0
 46 22  1  0  0  0  0
 47 24  1  0  0  0  0
 48 25  1  0  0  0  0
 49 26  1  0  0  0  0
M  END
