1,2
q = -1.0, confidence = 0.0

 24 25  0  0  0  0  0  0  0  0999 V2000
   -1.8933    1.3983   -0.2974 S   0  0  0  0  0  1  0  0  0  0  0  0
   -1.8932   -1.3982    0.2974 S   0  0  0  0  0  1  0  0  0  0  0  0
   -4.2258    0.0000   -0.0000 N   0  0  0  0  0  0  0  0  0  0  0  0
   -5.9750    1.2467   -0.9288 N   0  0  0  0  0  0  0  0  0  0  0  0
   -5.9749   -1.2468    0.9288 N   0  0  0  0  0  0  0  0  0  0  0  0
   -2.8611    0.0000    0.0000 C   0  0  0  0  0  3  0  0  0  0  0  0
   -4.9890    1.2189   -0.0290 C   0  0  0  0  0  0  0  0  0  0  0  0
   -4.7065    2.2669    0.8659 C   0  0  0  0  0  0  0  0  0  0  0  0
   -3.8981    2.1744    1.6031 H   0  0  0  0  0  0  0  0  0  0  0  0
   -5.4979    3.4183    0.7813 C   0  0  0  0  0  0  0  0  0  0  0  0
   -5.3149    4.2632    1.4620 H   0  0  0  0  0  0  0  0  0  0  0  0
   -6.5333    3.4687   -0.1647 C   0  0  0  0  0  0  0  0  0  0  0  0
   -7.1795    4.3537   -0.2585 H   0  0  0  0  0  0  0  0  0  0  0  0
   -6.7345    2.3493   -0.9881 C   0  0  0  0  0  0  0  0  0  0  0  0
   -7.5463    2.3431   -1.7366 H   0  0  0  0  0  0  0  0  0  0  0  0
   -4.9890   -1.2189    0.0290 C   0  0  0  0  0  0  0  0  0  0  0  0
   -4.7065   -2.2669   -0.8660 C   0  0  0  0  0  0  0  0  0  0  0  0
   -3.8982   -2.1743   -1.6032 H   0  0  0  0  0  0  0  0  0  0  0  0
   -5.4979   -3.4183   -0.7814 C   0  0  0  0  0  0  0  0  0  0  0  0
   -5.3149   -4.2632   -1.4621 H   0  0  0  0  0  0  0  0  0  0  0  0
   -6.5332   -3.4687    0.1648 C   0  0  0  0  0  0  0  0  0  0  0  0
   -7.1793   -4.3538    0.2586 H   0  0  0  0  0  0  0  0  0  0  0  0
   -6.7343   -2.3494    0.9881 C   0  0  0  0  0  0  0  0  0  0  0  0
   -7.5461   -2.3432    1.7368 H   0  0  0  0  0  0  0  0  0  0  0  0
  1  6  1  0  0  0  0
  3  6  1  0  0  0  0
  3 16  1  0  0  0  0
  4  7  1  0  0  0  0
  5 23  1  0  0  0  0
  6  2  1  0  0  0  0
  7  3  1  0  0  0  0
  7  8  2  0  0  0  0
  8  9  1  0  0  0  0
 10  8  1  0  0  0  0
 10 11  1  0  0  0  0
 12 10  2  0  0  0  0
 13 12  1  0  0  0  0
 14  4  2  0  0  0  0
 14 12  1  0  0  0  0
 15 14  1  0  0  0  0
 16  5  2  0  0  0  0
 17 19  2  0  0  0  0
 17 16  1  0  0  0  0
 18 17  1  0  0  0  0
 19 21  1  0  0  0  0
 20 19  1  0  0  0  0
 21 22  1  0  0  0  0
 21 23  2  0  0  0  0
 23 24  1  0  0  0  0
M  END
