1,2
q = -1.0

 16 15  0  0  0  0  0  0  0  0999 V2000
   -1.8470    1.6738    1.0997 S   0  0  0  0  0  1  0  0  0  0  0  0
   -1.6431    1.3739   -1.8666 S   0  0  0  0  0  1  0  0  0  0  0  0
   -5.6313    4.2383    0.1811 O   0  0  0  0  0  0  0  0  0  0  0  0
   -5.4563    5.1761    0.3699 H   0  0  0  0  0  0  0  0  0  0  0  0
   -3.9460    1.9207   -0.5669 N   0  0  0  0  0  0  0  0  0  0  0  0
   -2.6091    1.6930   -0.4635 C   0  0  0  0  0  3  0  0  0  0  0  0
   -4.7883    2.0355    0.6220 C   0  0  0  0  0  0  0  0  0  0  0  0
   -4.3511    1.3998    1.4180 H   0  0  0  0  0  0  0  0  0  0  0  0
   -5.7914    1.6347    0.3669 H   0  0  0  0  0  0  0  0  0  0  0  0
   -4.9199    3.4629    1.1364 C   0  0  0  0  0  0  0  0  0  0  0  0
   -5.4495    3.4296    2.1220 H   0  0  0  0  0  0  0  0  0  0  0  0
   -3.8937    3.8553    1.3246 H   0  0  0  0  0  0  0  0  0  0  0  0
   -4.6226    2.0227   -1.8522 C   0  0  0  0  0  0  0  0  0  0  0  0
   -3.8721    2.1854   -2.6471 H   0  0  0  0  0  0  0  0  0  0  0  0
   -5.3300    2.8724   -1.8114 H   0  0  0  0  0  0  0  0  0  0  0  0
   -5.1776    1.0853   -2.0786 H   0  0  0  0  0  0  0  0  0  0  0  0
  2  6  1  0  0  0  0
  3  4  1  0  0  0  0
  3 10  1  0  0  0  0
  5  6  1  0  0  0  0
  5  7  1  0  0  0  0
  6  1  1  0  0  0  0
  7 10  1  0  0  0  0
  7  8  1  0  0  0  0
  9  7  1  0  0  0  0
 10 12  1  0  0  0  0
 10 11  1  0  0  0  0
 13 15  1  0  0  0  0
 13  5  1  0  0  0  0
 14 13  1  0  0  0  0
 16 13  1  0  0  0  0
M  END
