1,2
q = -1.0, confidence = 0.0

 12 11  0  0  0  0  0  0  0  0999 V2000
   -1.5298    1.6461   -0.0002 S   0  0  0  0  0  1  0  0  0  0  0  0
   -1.8947   -1.2041   -0.0003 S   0  0  0  0  0  1  0  0  0  0  0  0
   -7.2622   -0.9913    0.0004 O   0  0  0  0  0  0  0  0  0  0  0  0
   -6.5937    1.1746    0.0002 O   0  0  0  0  0  0  0  0  0  0  0  0
   -3.9871    0.5067   -0.0002 N   0  0  0  0  0  0  0  0  0  0  0  0
   -2.6538    0.3427   -0.0002 C   0  0  0  0  0  3  0  0  0  0  0  0
   -4.9299   -0.5822   -0.0005 C   0  0  0  0  0  0  0  0  0  0  0  0
   -6.3364   -0.0146    0.0001 C   0  0  0  0  0  0  0  0  0  0  0  0
   -4.3909    1.4522   -0.0004 H   0  0  0  0  0  0  0  0  0  0  0  0
   -4.7985   -1.2442   -0.8871 H   0  0  0  0  0  0  0  0  0  0  0  0
   -4.7980   -1.2449    0.8856 H   0  0  0  0  0  0  0  0  0  0  0  0
   -8.1360   -0.5424    0.0007 H   0  0  0  0  0  0  0  0  0  0  0  0
  2  6  1  0  0  0  0
  3 12  1  0  0  0  0
  6  5  1  0  0  0  0
  6  1  1  0  0  0  0
  7  5  1  0  0  0  0
  7  8  1  0  0  0  0
  7 11  1  0  0  0  0
  8  4  2  0  0  0  0
  8  3  1  0  0  0  0
  9  5  1  0  0  0  0
 10  7  1  0  0  0  0
M  END
