1,2
q = -1.0

 25 24  0  0  1  0  0  0  0  0999 V2000
    1.1323    1.9346   -0.0471 S   0  0  0  0  0  1  0  0  0  0  0  0
    2.1087   -0.7592   -0.0221 S   0  0  0  0  0  1  0  0  0  0  0  0
    5.1151   -2.4566    1.0129 S   0  0  0  0  0  0  0  0  0  0  0  0
    5.8017    2.5503   -1.3609 O   0  0  0  0  0  0  0  0  0  0  0  0
    7.0289    0.6409   -1.3454 O   0  0  0  0  0  0  0  0  0  0  0  0
    3.7769    1.3989   -0.0251 N   0  0  0  0  0  0  0  0  0  0  0  0
    2.5213    0.9168   -0.0277 C   0  0  0  0  0  3  0  0  0  0  0  0
    4.9968    0.6175   -0.1228 C   0  0  1  0  0  0  0  0  0  0  0  0
    5.9596    1.3934   -1.0144 C   0  0  0  0  0  0  0  0  0  0  0  0
    8.0157    1.2928   -2.1608 C   0  0  0  0  0  0  0  0  0  0  0  0
    5.6457    0.3094    1.2484 C   0  0  0  0  0  0  0  0  0  0  0  0
    5.0224   -0.8957    1.9597 C   0  0  0  0  0  0  0  0  0  0  0  0
    6.9213   -2.6570    0.8864 C   0  0  0  0  0  0  0  0  0  0  0  0
    3.8979    2.4096   -0.1732 H   0  0  0  0  0  0  0  0  0  0  0  0
    4.7717   -0.3634   -0.6065 H   0  0  0  0  0  0  0  0  0  0  0  0
    8.4301    2.1796   -1.6411 H   0  0  0  0  0  0  0  0  0  0  0  0
    7.5710    1.6247   -3.1199 H   0  0  0  0  0  0  0  0  0  0  0  0
    8.8061    0.5432   -2.3394 H   0  0  0  0  0  0  0  0  0  0  0  0
    5.5628    1.2114    1.8915 H   0  0  0  0  0  0  0  0  0  0  0  0
    6.7285    0.1278    1.0942 H   0  0  0  0  0  0  0  0  0  0  0  0
    3.9345   -0.7471    2.1167 H   0  0  0  0  0  0  0  0  0  0  0  0
    5.4956   -1.0385    2.9540 H   0  0  0  0  0  0  0  0  0  0  0  0
    7.4046   -2.6422    1.8851 H   0  0  0  0  0  0  0  0  0  0  0  0
    7.0937   -3.6495    0.4274 H   0  0  0  0  0  0  0  0  0  0  0  0
    7.3807   -1.8868    0.2338 H   0  0  0  0  0  0  0  0  0  0  0  0
  1  7  1  0  0  0  0
  3 12  1  0  0  0  0
  4  9  2  0  0  0  0
  5  9  1  0  0  0  0
  7  6  1  0  0  0  0
  7  2  1  0  0  0  0
  8 15  1  6  0  0  0
  8  6  1  0  0  0  0
  8 11  1  0  0  0  0
  9  8  1  0  0  0  0
 10 16  1  0  0  0  0
 10  5  1  0  0  0  0
 11 19  1  0  0  0  0
 11 12  1  0  0  0  0
 12 21  1  0  0  0  0
 12 22  1  0  0  0  0
 13  3  1  0  0  0  0
 13 23  1  0  0  0  0
 14  6  1  0  0  0  0
 17 10  1  0  0  0  0
 18 10  1  0  0  0  0
 20 11  1  0  0  0  0
 24 13  1  0  0  0  0
 25 13  1  0  0  0  0
M  END
