1,2
q = 0.0, confidence = 0.658

 15 15  0  0  0  0  0  0  0  0999 V2000
    1.0648    1.3069   -0.1298 S   0  0  0  0  0  1  0  0  0  0  0  0
    0.6650   -1.9158    0.0285 S   0  0  0  0  0  1  0  0  0  0  0  0
    3.7916   -1.9842   -0.0400 S   0  0  0  0  0  0  0  0  0  0  0  0
    6.3225   -0.2962   -0.1544 S   0  0  0  0  0  0  0  0  0  0  0  0
    3.7402    0.5882   -0.1742 N   0  0  0  0  0  0  0  0  0  0  0  0
    2.4059    0.1951   -0.1160 C   0  0  0  0  0  0  0  0  0  0  0  0
    4.1513    1.9923   -0.2213 C   0  0  0  0  0  0  0  0  0  0  0  0
    4.3101    2.5981    1.1710 C   0  0  0  0  0  0  0  0  0  0  0  0
    4.6689   -0.4373   -0.1298 C   0  0  0  0  0  0  0  0  0  0  0  0
    2.2311   -1.1755   -0.0454 C   0  0  0  0  0  0  0  0  0  0  0  0
    3.3880    2.5334   -0.8178 H   0  0  0  0  0  0  0  0  0  0  0  0
    5.1156    2.0089   -0.7686 H   0  0  0  0  0  0  0  0  0  0  0  0
    5.0932    2.0543    1.7350 H   0  0  0  0  0  0  0  0  0  0  0  0
    3.3586    2.5528    1.7372 H   0  0  0  0  0  0  0  0  0  0  0  0
    4.6159    3.6602    1.0893 H   0  0  0  0  0  0  0  0  0  0  0  0
  1  6  1  0  0  0  0
  4  9  2  0  0  0  0
  5  9  1  0  0  0  0
  5  6  1  0  0  0  0
  6 10  2  0  0  0  0
  7  5  1  0  0  0  0
  7  8  1  0  0  0  0
  8 13  1  0  0  0  0
  8 14  1  0  0  0  0
  9  3  1  0  0  0  0
 10  3  1  0  0  0  0
 10  2  1  0  0  0  0
 11  7  1  0  0  0  0
 12  7  1  0  0  0  0
 15  8  1  0  0  0  0
M  END
