1,2
q = -1.0

 17 17  0  0  0  0  0  0  0  0999 V2000
    1.7944   -1.6635   -0.9948 S   0  0  0  0  0  1  0  0  0  0  0  0
    2.9579    0.8413    0.8772 S   0  0  0  0  0  0  0  0  0  0  0  0
    4.0433   -0.2040   -0.1002 C   0  0  0  0  0  0  0  0  0  0  0  0
    5.4217    0.0788   -0.0895 C   0  0  0  0  0  0  0  0  0  0  0  0
    6.3029   -0.6896   -0.8586 C   0  0  0  0  0  0  0  0  0  0  0  0
    5.7874   -1.7274   -1.6581 C   0  0  0  0  0  0  0  0  0  0  0  0
    4.4166   -1.9950   -1.6826 C   0  0  0  0  0  0  0  0  0  0  0  0
    3.5039   -1.2418   -0.8984 C   0  0  0  0  0  0  0  0  0  0  0  0
    3.4282    0.3729    2.5354 C   0  0  0  0  0  0  0  0  0  0  0  0
    3.1922    1.1974    3.5710 C   0  0  0  0  0  0  0  0  0  0  0  0
    5.7959    0.9086    0.5296 H   0  0  0  0  0  0  0  0  0  0  0  0
    7.3809   -0.4734   -0.8445 H   0  0  0  0  0  0  0  0  0  0  0  0
    6.4662   -2.3342   -2.2768 H   0  0  0  0  0  0  0  0  0  0  0  0
    4.0190   -2.8044   -2.3138 H   0  0  0  0  0  0  0  0  0  0  0  0
    3.8557   -0.6380    2.6402 H   0  0  0  0  0  0  0  0  0  0  0  0
    2.7476    2.1942    3.4248 H   0  0  0  0  0  0  0  0  0  0  0  0
    3.4185    0.8745    4.5990 H   0  0  0  0  0  0  0  0  0  0  0  0
  1  8  1  0  0  0  0
  2  9  1  0  0  0  0
  3  4  1  0  0  0  0
  3  2  1  0  0  0  0
  4 11  1  0  0  0  0
  5 12  1  0  0  0  0
  5  4  2  0  0  0  0
  6  5  1  0  0  0  0
  7  6  2  0  0  0  0
  7  8  1  0  0  0  0
  8  3  2  0  0  0  0
  9 15  1  0  0  0  0
  9 10  2  0  0  0  0
 10 17  1  0  0  0  0
 13  6  1  0  0  0  0
 14  7  1  0  0  0  0
 16 10  1  0  0  0  0
M  END
