1,2
q = -1.0

 23 23  0  0  0  0  0  0  0  0999 V2000
   -0.0394   -1.2294   -2.0632 S   0  0  0  0  0  1  0  0  0  0  0  0
   -0.4809   -1.9210    1.1806 S   0  0  0  0  0  1  0  0  0  0  0  0
    0.4539   -2.5156   -0.5521 P   0  0  0  0  0  4  0  0  0  0  0  0
    0.1087   -4.0854   -0.8950 O   0  0  0  0  0  0  0  0  0  0  0  0
    6.2550   -1.8919    0.5836 O   0  0  0  0  0  0  0  0  0  0  0  0
   -1.2669   -4.4626   -1.0645 C   0  0  0  0  0  0  0  0  0  0  0  0
   -1.8599   -4.2076   -0.1609 H   0  0  0  0  0  0  0  0  0  0  0  0
   -1.2761   -5.5570   -1.2211 H   0  0  0  0  0  0  0  0  0  0  0  0
   -1.7167   -3.9596   -1.9469 H   0  0  0  0  0  0  0  0  0  0  0  0
    6.7419   -2.1572    1.8932 C   0  0  0  0  0  0  0  0  0  0  0  0
    6.1006   -1.6668    2.6570 H   0  0  0  0  0  0  0  0  0  0  0  0
    7.7623   -1.7333    1.9344 H   0  0  0  0  0  0  0  0  0  0  0  0
    6.8009   -3.2487    2.0998 H   0  0  0  0  0  0  0  0  0  0  0  0
    2.2457   -2.5463   -0.3268 C   0  0  0  0  0  0  0  0  0  0  0  0
    3.0984   -1.8557   -1.2136 C   0  0  0  0  0  0  0  0  0  0  0  0
    2.6775   -1.4057   -2.1255 H   0  0  0  0  0  0  0  0  0  0  0  0
    4.4476   -1.6886   -0.9021 C   0  0  0  0  0  0  0  0  0  0  0  0
    5.1183   -1.1146   -1.5572 H   0  0  0  0  0  0  0  0  0  0  0  0
    4.9650   -2.1994    0.3091 C   0  0  0  0  0  0  0  0  0  0  0  0
    4.1289   -2.9483    1.1677 C   0  0  0  0  0  0  0  0  0  0  0  0
    4.5105   -3.3563    2.1117 H   0  0  0  0  0  0  0  0  0  0  0  0
    2.7781   -3.1095    0.8504 C   0  0  0  0  0  0  0  0  0  0  0  0
    2.1163   -3.6357    1.5552 H   0  0  0  0  0  0  0  0  0  0  0  0
  1  3  1  0  0  0  0
  3 14  1  0  0  0  0
  3  2  1  0  0  0  0
  4  3  1  0  0  0  0
  5 10  1  0  0  0  0
  6  4  1  0  0  0  0
  6  7  1  0  0  0  0
  8  6  1  0  0  0  0
  9  6  1  0  0  0  0
 10 12  1  0  0  0  0
 10 13  1  0  0  0  0
 10 11  1  0  0  0  0
 14 22  1  0  0  0  0
 15 17  1  0  0  0  0
 15 14  2  0  0  0  0
 16 15  1  0  0  0  0
 17 19  2  0  0  0  0
 18 17  1  0  0  0  0
 19  5  1  0  0  0  0
 19 20  1  0  0  0  0
 20 21  1  0  0  0  0
 22 20  2  0  0  0  0
 22 23  1  0  0  0  0
M  END
