1,2
q = -1.0

 51 58  0  0  1  0  0  0  0  0999 V2000
    1.7699   -0.9444    1.4080 S   0  0  0  0  0  0  0  0  0  0  0  0
   -2.0015    0.0628   -1.1052 S   0  0  0  0  0  0  0  0  0  0  0  0
    1.5612    1.8280    0.9392 C   0  0  1  0  0  0  0  0  0  0  0  0
   -0.6990    2.3942   -0.3284 C   0  0  2  0  0  0  0  0  0  0  0  0
    2.2214    0.8064    1.8485 C   0  0  0  0  0  0  0  0  0  0  0  0
    1.8636    0.9134    2.8895 H   0  0  0  0  0  0  0  0  0  0  0  0
    3.3211    0.9042    1.8607 H   0  0  0  0  0  0  0  0  0  0  0  0
    3.0684   -1.4939    0.2733 C   0  0  0  0  0  0  0  0  0  0  0  0
    4.3511   -0.9257    0.2235 C   0  0  0  0  0  0  0  0  0  0  0  0
    4.6227   -0.0559    0.8371 H   0  0  0  0  0  0  0  0  0  0  0  0
    5.3123   -1.4729   -0.6419 C   0  0  0  0  0  0  0  0  0  0  0  0
    6.3130   -1.0177   -0.6888 H   0  0  0  0  0  0  0  0  0  0  0  0
    5.0016   -2.5836   -1.4390 C   0  0  0  0  0  0  0  0  0  0  0  0
    5.7584   -3.0052   -2.1171 H   0  0  0  0  0  0  0  0  0  0  0  0
    3.7193   -3.1525   -1.3672 C   0  0  0  0  0  0  0  0  0  0  0  0
    3.4634   -4.0245   -1.9878 H   0  0  0  0  0  0  0  0  0  0  0  0
    2.7455   -2.6156   -0.5148 C   0  0  0  0  0  0  0  0  0  0  0  0
    1.7326   -3.0521   -0.4565 H   0  0  0  0  0  0  0  0  0  0  0  0
   -2.0967    1.8744   -0.5985 C   0  0  0  0  0  0  0  0  0  0  0  0
   -2.5845    2.4265   -1.4226 H   0  0  0  0  0  0  0  0  0  0  0  0
   -2.7305    1.9210    0.3055 H   0  0  0  0  0  0  0  0  0  0  0  0
   -3.5971   -0.4830   -0.4632 C   0  0  0  0  0  0  0  0  0  0  0  0
   -3.6848   -1.4505    0.5496 C   0  0  0  0  0  0  0  0  0  0  0  0
   -2.7671   -1.9169    0.9463 H   0  0  0  0  0  0  0  0  0  0  0  0
   -4.9560   -1.8470    0.9957 C   0  0  0  0  0  0  0  0  0  0  0  0
   -5.0316   -2.6114    1.7836 H   0  0  0  0  0  0  0  0  0  0  0  0
   -6.1168   -1.2806    0.4474 C   0  0  0  0  0  0  0  0  0  0  0  0
   -7.1077   -1.5940    0.8089 H   0  0  0  0  0  0  0  0  0  0  0  0
   -6.0146   -0.3215   -0.5740 C   0  0  0  0  0  0  0  0  0  0  0  0
   -6.9214    0.1152   -1.0190 H   0  0  0  0  0  0  0  0  0  0  0  0
   -4.7540    0.0721   -1.0448 C   0  0  0  0  0  0  0  0  0  0  0  0
   -4.6721    0.8023   -1.8643 H   0  0  0  0  0  0  0  0  0  0  0  0
    0.4407    1.1253   -0.1481 B   0  0  2  0  0  0  0  0  0  0  0  0
   -0.0910    2.1133    1.2335 B   0  0  2  0  0  0  0  0  0  0  0  0
   -0.7178    1.5670    2.1040 H   0  0  0  0  0  0  0  0  0  0  0  0
    1.1038    3.3813    1.5297 B   0  0  1  0  0  0  0  0  0  0  0  0
    1.3609    3.6729    2.6714 H   0  0  0  0  0  0  0  0  0  0  0  0
    2.3862    3.1944    0.3089 B   0  0  2  0  0  0  0  0  0  0  0  0
    3.5361    3.3756    0.6270 H   0  0  0  0  0  0  0  0  0  0  0  0
    1.9719    1.8053   -0.7303 B   0  0  2  0  0  0  0  0  0  0  0  0
    2.8275    1.0531   -1.1178 H   0  0  0  0  0  0  0  0  0  0  0  0
   -0.4144    3.7613    0.6787 B   0  0  0  0  0  0  0  0  0  0  0  0
   -1.3534    4.3527    1.1506 H   0  0  0  0  0  0  0  0  0  0  0  0
    1.1275    4.4419    0.0990 B   0  0  0  0  0  0  0  0  0  0  0  0
    1.3677    5.6210    0.1972 H   0  0  0  0  0  0  0  0  0  0  0  0
    1.6694    3.4640   -1.3010 B   0  0  0  0  0  0  0  0  0  0  0  0
    2.3021    3.9319   -2.2164 H   0  0  0  0  0  0  0  0  0  0  0  0
    0.4640    2.1841   -1.5736 B   0  0  2  0  0  0  0  0  0  0  0  0
    0.1066    1.7297   -2.6321 H   0  0  0  0  0  0  0  0  0  0  0  0
   -0.0647    3.8089   -1.0662 B   0  0  0  0  0  0  0  0  0  0  0  0
   -0.7779    4.4553   -1.7932 H   0  0  0  0  0  0  0  0  0  0  0  0
  1  5  1  0  0  0  0
  2 19  1  0  0  0  0
  2 22  1  0  0  0  0
  3 34  1  0  0  0  0
  3  5  1  1  0  0  0
  4 19  1  6  0  0  0
  4 33  1  0  0  0  0
  4 34  1  0  0  0  0
  5  7  1  0  0  0  0
  5  6  1  0  0  0  0
  8  1  1  0  0  0  0
  9  8  1  0  0  0  0
  9 10  1  0  0  0  0
 11  9  2  0  0  0  0
 12 11  1  0  0  0  0
 13 15  2  0  0  0  0
 13 11  1  0  0  0  0
 14 13  1  0  0  0  0
 15 17  1  0  0  0  0
 16 15  1  0  0  0  0
 17 18  1  0  0  0  0
 17  8  2  0  0  0  0
 19 21  1  0  0  0  0
 20 19  1  0  0  0  0
 22 23  1  0  0  0  0
 23 24  1  0  0  0  0
 23 25  2  0  0  0  0
 25 26  1  0  0  0  0
 27 28  1  0  0  0  0
 27 25  1  0  0  0  0
 29 27  2  0  0  0  0
 30 29  1  0  0  0  0
 31 29  1  0  0  0  0
 31 22  2  0  0  0  0
 32 31  1  0  0  0  0
 33  3  1  0  0  0  0
 34 36  1  0  0  0  0
 34 35  1  0  0  0  0
 36 37  1  0  0  0  0
 38 39  1  0  0  0  0
 38  3  1  0  0  0  0
 38 36  1  0  0  0  0
 40 33  1  0  0  0  0
 41 40  1  0  0  0  0
 42 43  1  0  0  0  0
 44 45  1  0  0  0  0
 44 42  1  0  0  0  0
 44 36  1  0  0  0  0
 46 40  1  0  0  0  0
 46 38  1  0  0  0  0
 47 46  1  0  0  0  0
 48 40  1  0  0  0  0
 48  4  1  0  0  0  0
 48 33  1  0  0  0  0
 49 48  1  0  0  0  0
 50 44  1  0  0  0  0
 50 42  1  0  0  0  0
 51 50  1  0  0  0  0
M  END
