1,8
q = 0.0, confidence = 0.742

 20 21  0  0  0  0  0  0  0  0999 V2000
    1.1639   -1.5766    0.0103 S   0  0  0  0  0  1  0  0  0  0  0  0
    2.7021   -0.7536   -0.0114 C   0  0  0  0  0  0  0  0  0  0  0  0
    3.8927   -1.6078    0.1260 C   0  0  0  0  0  0  0  0  0  0  0  0
    5.0173   -1.2848    0.8824 C   0  0  0  0  0  0  0  0  0  0  0  0
    6.2127   -2.5289    0.8352 S   0  0  0  0  0  0  0  0  0  0  0  0
    5.2248   -3.5211   -0.1902 C   0  0  0  0  0  0  0  0  0  0  0  0
    4.0247   -2.9093   -0.4798 C   0  0  0  0  0  0  0  0  0  0  0  0
    1.1932    1.4916   -0.1026 S   0  0  0  0  0  1  0  0  0  0  0  0
    2.7143    0.6389   -0.0972 C   0  0  0  0  0  0  0  0  0  0  0  0
    3.9206    1.4731   -0.2345 C   0  0  0  0  0  0  0  0  0  0  0  0
    4.0867    2.6959    0.4104 C   0  0  0  0  0  0  0  0  0  0  0  0
    5.5792    3.4596   -0.0079 S   0  0  0  0  0  0  0  0  0  0  0  0
    6.0114    2.1525   -1.0671 C   0  0  0  0  0  0  0  0  0  0  0  0
    5.0439    1.1733   -1.0889 C   0  0  0  0  0  0  0  0  0  0  0  0
    5.1888   -0.3750    1.4686 H   0  0  0  0  0  0  0  0  0  0  0  0
    3.2463   -3.3521   -1.1157 H   0  0  0  0  0  0  0  0  0  0  0  0
    3.3928    3.1694    1.1152 H   0  0  0  0  0  0  0  0  0  0  0  0
    6.9556    2.1875   -1.6239 H   0  0  0  0  0  0  0  0  0  0  0  0
    5.1106    0.2647   -1.7007 H   0  0  0  0  0  0  0  0  0  0  0  0
    5.5911   -4.4980   -0.5276 H   0  0  0  0  0  0  0  0  0  0  0  0
  2  1  1  0  0  0  0
  2  3  1  0  0  0  0
  3  4  2  0  0  0  0
  4 15  1  0  0  0  0
  5  4  1  0  0  0  0
  6  5  1  0  0  0  0
  7  6  2  0  0  0  0
  7  3  1  0  0  0  0
  8  9  1  0  0  0  0
  9  2  2  0  0  0  0
 10  9  1  0  0  0  0
 10 11  2  0  0  0  0
 11 17  1  0  0  0  0
 12 11  1  0  0  0  0
 13 12  1  0  0  0  0
 14 13  2  0  0  0  0
 14 10  1  0  0  0  0
 16  7  1  0  0  0  0
 18 13  1  0  0  0  0
 19 14  1  0  0  0  0
 20  6  1  0  0  0  0
M  END
