1,2
q = -1.0

 31 32  0  0  0  0  0  0  0  0999 V2000
    1.4450    0.0246    1.5950 S   0  0  0  0  0  1  0  0  0  0  0  0
    1.4570   -0.5970   -1.4962 S   0  0  0  0  0  1  0  0  0  0  0  0
    2.7470   -0.1361    0.0215 P   0  0  0  0  0  4  0  0  0  0  0  0
    3.6136    1.4741   -0.2450 C   0  0  0  0  0  0  0  0  0  0  0  0
    3.1470    2.2388   -1.3308 C   0  0  0  0  0  0  0  0  0  0  0  0
    2.3557    1.8116   -1.9668 H   0  0  0  0  0  0  0  0  0  0  0  0
    3.6752    3.5068   -1.6042 C   0  0  0  0  0  0  0  0  0  0  0  0
    3.2929    4.0816   -2.4609 H   0  0  0  0  0  0  0  0  0  0  0  0
    4.6843    4.0318   -0.7878 C   0  0  0  0  0  0  0  0  0  0  0  0
    5.1096    5.0256   -0.9917 H   0  0  0  0  0  0  0  0  0  0  0  0
    5.1531    3.2847    0.3007 C   0  0  0  0  0  0  0  0  0  0  0  0
    5.9374    3.6934    0.9523 H   0  0  0  0  0  0  0  0  0  0  0  0
    4.6292    2.0126    0.5889 C   0  0  0  0  0  0  0  0  0  0  0  0
    5.2380    1.2742    1.7667 C   0  0  0  0  0  0  0  0  0  0  0  0
    4.3171    0.5619    2.4606 F   0  0  0  0  0  0  0  0  0  0  0  0
    6.2008    0.4020    1.3732 F   0  0  0  0  0  0  0  0  0  0  0  0
    5.8194    2.1268    2.6414 F   0  0  0  0  0  0  0  0  0  0  0  0
    4.0137   -1.4600    0.2599 C   0  0  0  0  0  0  0  0  0  0  0  0
    3.7937   -2.2977    1.3693 C   0  0  0  0  0  0  0  0  0  0  0  0
    2.9320   -2.0838    2.0215 H   0  0  0  0  0  0  0  0  0  0  0  0
    4.6451   -3.3757    1.6430 C   0  0  0  0  0  0  0  0  0  0  0  0
    4.4554   -4.0109    2.5210 H   0  0  0  0  0  0  0  0  0  0  0  0
    5.7287   -3.6385    0.7957 C   0  0  0  0  0  0  0  0  0  0  0  0
    6.4041   -4.4831    0.9972 H   0  0  0  0  0  0  0  0  0  0  0  0
    5.9504   -2.8223   -0.3215 C   0  0  0  0  0  0  0  0  0  0  0  0
    6.7912   -3.0291   -0.9977 H   0  0  0  0  0  0  0  0  0  0  0  0
    5.1058   -1.7353   -0.6037 C   0  0  0  0  0  0  0  0  0  0  0  0
    5.4554   -0.8838   -1.8101 C   0  0  0  0  0  0  0  0  0  0  0  0
    4.3498   -0.4572   -2.4678 F   0  0  0  0  0  0  0  0  0  0  0  0
    6.1641    0.2189   -1.4634 F   0  0  0  0  0  0  0  0  0  0  0  0
    6.2089   -1.5691   -2.7005 F   0  0  0  0  0  0  0  0  0  0  0  0
  2  3  1  0  0  0  0
  3 18  1  0  0  0  0
  3  1  1  0  0  0  0
  4  3  1  0  0  0  0
  4 13  1  0  0  0  0
  5  4  2  0  0  0  0
  6  5  1  0  0  0  0
  7  5  1  0  0  0  0
  7  9  2  0  0  0  0
  8  7  1  0  0  0  0
  9 11  1  0  0  0  0
 10  9  1  0  0  0  0
 11 13  2  0  0  0  0
 11 12  1  0  0  0  0
 13 14  1  0  0  0  0
 14 15  1  0  0  0  0
 14 17  1  0  0  0  0
 16 14  1  0  0  0  0
 18 19  1  0  0  0  0
 19 21  2  0  0  0  0
 19 20  1  0  0  0  0
 21 22  1  0  0  0  0
 23 24  1  0  0  0  0
 23 21  1  0  0  0  0
 25 23  2  0  0  0  0
 26 25  1  0  0  0  0
 27 25  1  0  0  0  0
 27 18  2  0  0  0  0
 28 30  1  0  0  0  0
 28 27  1  0  0  0  0
 29 28  1  0  0  0  0
 31 28  1  0  0  0  0
M  END
