1,2
q = -1.0

 10  9  0  0  0  0  0  0  0  0999 V2000
   -1.4287    1.9044    1.7111 S   0  0  0  0  0  1  0  0  0  0  0  0
   -1.5563    2.1210   -1.2511 S   0  0  0  0  0  1  0  0  0  0  0  0
   -4.2257    3.1581   -0.7582 O   0  0  0  0  0  0  0  0  0  0  0  0
   -4.2227    3.0545    1.5062 O   0  0  0  0  0  0  0  0  0  0  0  0
   -2.2473    2.3587    0.2886 C   0  0  0  0  0  3  0  0  0  0  0  0
   -3.6546    2.8934    0.4408 C   0  0  0  0  0  0  0  0  0  0  0  0
   -5.5755    3.6179   -0.6922 C   0  0  0  0  0  0  0  0  0  0  0  0
   -5.8771    3.8365   -1.7323 H   0  0  0  0  0  0  0  0  0  0  0  0
   -5.6578    4.5268   -0.0618 H   0  0  0  0  0  0  0  0  0  0  0  0
   -6.2335    2.8368   -0.2582 H   0  0  0  0  0  0  0  0  0  0  0  0
  2  5  1  0  0  0  0
  3  7  1  0  0  0  0
  3  6  1  0  0  0  0
  5  6  1  0  0  0  0
  5  1  1  0  0  0  0
  6  4  2  0  0  0  0
  7 10  1  0  0  0  0
  7  9  1  0  0  0  0
  8  7  1  0  0  0  0
M  END
