1,2
q = 0.0, confidence = 0.998

 64 66  0  0  0  0  0  0  0  0999 V2000
    2.5316    1.4631   -0.0581 S   0  0  0  0  0  0  0  0  0  0  0  0
   -0.1102   -0.4111   -0.1861 S   0  0  0  0  0  0  0  0  0  0  0  0
    2.5886   -0.2862    2.5316 O   0  0  0  0  0  0  0  0  0  0  0  0
   -0.0402   -1.7761    2.5329 O   0  0  0  0  0  0  0  0  0  0  0  0
   -2.8351   -1.4362    1.2354 O   0  0  0  0  0  0  0  0  0  0  0  0
   -4.0640    0.6835    0.2957 O   0  0  0  0  0  0  0  0  0  0  0  0
   -2.6876    2.9199   -0.8991 O   0  0  0  0  0  0  0  0  0  0  0  0
    0.1245    2.3951   -1.7733 O   0  0  0  0  0  0  0  0  0  0  0  0
    1.1523    1.7502    1.0732 C   0  0  0  0  0  0  0  0  0  0  0  0
   -0.0220    0.9891    0.9542 C   0  0  0  0  0  0  0  0  0  0  0  0
   -1.1145    1.2392    1.7997 C   0  0  0  0  0  0  0  0  0  0  0  0
   -1.0341    2.2669    2.7518 C   0  0  0  0  0  0  0  0  0  0  0  0
    0.1298    3.0466    2.8550 C   0  0  0  0  0  0  0  0  0  0  0  0
    1.2178    2.7971    2.0064 C   0  0  0  0  0  0  0  0  0  0  0  0
    3.9128    1.1291    1.1285 C   0  0  0  0  0  0  0  0  0  0  0  0
    3.8092   -0.2099    1.8285 C   0  0  0  0  0  0  0  0  0  0  0  0
    2.3098   -1.5871    3.0051 C   0  0  0  0  0  0  0  0  0  0  0  0
    0.9073   -1.6504    3.5755 C   0  0  0  0  0  0  0  0  0  0  0  0
   -1.3193   -2.1490    2.9888 C   0  0  0  0  0  0  0  0  0  0  0  0
   -2.2127   -2.5697    1.8365 C   0  0  0  0  0  0  0  0  0  0  0  0
   -3.8174   -1.6701    0.3171 C   0  0  0  0  0  0  0  0  0  0  0  0
   -4.1744   -2.9404   -0.1631 C   0  0  0  0  0  0  0  0  0  0  0  0
   -5.2338   -3.0907   -1.0775 C   0  0  0  0  0  0  0  0  0  0  0  0
   -5.9455   -1.9713   -1.5131 C   0  0  0  0  0  0  0  0  0  0  0  0
   -5.5874   -0.6891   -1.0551 C   0  0  0  0  0  0  0  0  0  0  0  0
   -4.5174   -0.5218   -0.1633 C   0  0  0  0  0  0  0  0  0  0  0  0
   -4.6804    1.8772   -0.1726 C   0  0  0  0  0  0  0  0  0  0  0  0
   -3.7256    3.0322    0.0491 C   0  0  0  0  0  0  0  0  0  0  0  0
   -1.6071    3.8145   -0.7095 C   0  0  0  0  0  0  0  0  0  0  0  0
   -0.5847    3.6155   -1.8200 C   0  0  0  0  0  0  0  0  0  0  0  0
   -0.4253    1.2769   -2.4539 C   0  0  0  0  0  0  0  0  0  0  0  0
   -1.1459    0.2887   -1.5457 C   0  0  0  0  0  0  0  0  0  0  0  0
   -2.0214    0.6264    1.6989 H   0  0  0  0  0  0  0  0  0  0  0  0
   -1.8881    2.4565    3.4198 H   0  0  0  0  0  0  0  0  0  0  0  0
    0.1936    3.8557    3.5979 H   0  0  0  0  0  0  0  0  0  0  0  0
    2.1244    3.4172    2.0740 H   0  0  0  0  0  0  0  0  0  0  0  0
    4.8051    1.1424    0.4726 H   0  0  0  0  0  0  0  0  0  0  0  0
    3.9492    1.9875    1.8283 H   0  0  0  0  0  0  0  0  0  0  0  0
    3.8814   -1.0127    1.0570 H   0  0  0  0  0  0  0  0  0  0  0  0
    4.6837   -0.3192    2.5213 H   0  0  0  0  0  0  0  0  0  0  0  0
    3.0369   -1.8767    3.8049 H   0  0  0  0  0  0  0  0  0  0  0  0
    2.3958   -2.3335    2.1791 H   0  0  0  0  0  0  0  0  0  0  0  0
    0.8427   -2.5366    4.2551 H   0  0  0  0  0  0  0  0  0  0  0  0
    0.7142   -0.7396    4.1942 H   0  0  0  0  0  0  0  0  0  0  0  0
   -1.8149   -1.3288    3.5663 H   0  0  0  0  0  0  0  0  0  0  0  0
   -1.2329   -3.0242    3.6811 H   0  0  0  0  0  0  0  0  0  0  0  0
   -1.6021   -3.1251    1.0893 H   0  0  0  0  0  0  0  0  0  0  0  0
   -3.0009   -3.2513    2.2286 H   0  0  0  0  0  0  0  0  0  0  0  0
   -3.6202   -3.8277    0.1679 H   0  0  0  0  0  0  0  0  0  0  0  0
   -5.4940   -4.0956   -1.4409 H   0  0  0  0  0  0  0  0  0  0  0  0
   -6.7844   -2.0792   -2.2160 H   0  0  0  0  0  0  0  0  0  0  0  0
   -6.1539    0.1843   -1.4034 H   0  0  0  0  0  0  0  0  0  0  0  0
   -5.6435    2.0502    0.3602 H   0  0  0  0  0  0  0  0  0  0  0  0
   -4.8902    1.8123   -1.2628 H   0  0  0  0  0  0  0  0  0  0  0  0
   -4.2837    3.9940   -0.0751 H   0  0  0  0  0  0  0  0  0  0  0  0
   -3.3283    3.0080    1.0917 H   0  0  0  0  0  0  0  0  0  0  0  0
   -1.1289    3.6528    0.2850 H   0  0  0  0  0  0  0  0  0  0  0  0
   -1.9621    4.8759   -0.7444 H   0  0  0  0  0  0  0  0  0  0  0  0
   -1.0950    3.7345   -2.8057 H   0  0  0  0  0  0  0  0  0  0  0  0
    0.1714    4.4251   -1.7317 H   0  0  0  0  0  0  0  0  0  0  0  0
    0.4248    0.7523   -2.9417 H   0  0  0  0  0  0  0  0  0  0  0  0
   -1.1393    1.6095   -3.2438 H   0  0  0  0  0  0  0  0  0  0  0  0
   -1.4366   -0.6148   -2.1196 H   0  0  0  0  0  0  0  0  0  0  0  0
   -2.0361    0.7252   -1.0561 H   0  0  0  0  0  0  0  0  0  0  0  0
  1  9  1  0  0  0  0
  1 15  1  0  0  0  0
  2 10  1  0  0  0  0
  3 17  1  0  0  0  0
  4 19  1  0  0  0  0
  4 18  1  0  0  0  0
  5 20  1  0  0  0  0
  7 29  1  0  0  0  0
  7 28  1  0  0  0  0
  9 14  1  0  0  0  0
 10  9  2  0  0  0  0
 10 11  1  0  0  0  0
 11 12  2  0  0  0  0
 12 13  1  0  0  0  0
 12 34  1  0  0  0  0
 13 35  1  0  0  0  0
 14 36  1  0  0  0  0
 14 13  2  0  0  0  0
 15 38  1  0  0  0  0
 15 16  1  0  0  0  0
 16 40  1  0  0  0  0
 16  3  1  0  0  0  0
 17 18  1  0  0  0  0
 17 41  1  0  0  0  0
 18 44  1  0  0  0  0
 18 43  1  0  0  0  0
 19 45  1  0  0  0  0
 19 46  1  0  0  0  0
 20 48  1  0  0  0  0
 20 19  1  0  0  0  0
 21  5  1  0  0  0  0
 22 49  1  0  0  0  0
 22 21  1  0  0  0  0
 23 22  2  0  0  0  0
 24 23  1  0  0  0  0
 24 25  2  0  0  0  0
 25 26  1  0  0  0  0
 26  6  1  0  0  0  0
 26 21  2  0  0  0  0
 27 28  1  0  0  0  0
 27  6  1  0  0  0  0
 27 53  1  0  0  0  0
 28 56  1  0  0  0  0
 29 57  1  0  0  0  0
 30  8  1  0  0  0  0
 30 60  1  0  0  0  0
 30 29  1  0  0  0  0
 31  8  1  0  0  0  0
 31 32  1  0  0  0  0
 32 64  1  0  0  0  0
 32  2  1  0  0  0  0
 33 11  1  0  0  0  0
 37 15  1  0  0  0  0
 39 16  1  0  0  0  0
 42 17  1  0  0  0  0
 47 20  1  0  0  0  0
 50 23  1  0  0  0  0
 51 24  1  0  0  0  0
 52 25  1  0  0  0  0
 54 27  1  0  0  0  0
 55 28  1  0  0  0  0
 58 29  1  0  0  0  0
 59 30  1  0  0  0  0
 61 31  1  0  0  0  0
 62 31  1  0  0  0  0
 63 32  1  0  0  0  0
M  END
