1,2
q = -1.0

 19 18  0  0  0  0  0  0  0  0999 V2000
   -2.1321   -0.0235   -1.2971 S   0  0  0  0  0  1  0  0  0  0  0  0
   -1.6954   -0.2830    1.6562 S   0  0  0  0  0  1  0  0  0  0  0  0
   -5.6310   -2.5515   -2.5264 O   0  0  0  0  0  0  0  0  0  0  0  0
   -5.3087   -1.9493   -3.2221 H   0  0  0  0  0  0  0  0  0  0  0  0
   -3.9839   -0.9503    0.4195 N   0  0  0  0  0  0  0  0  0  0  0  0
   -2.7250   -0.4635    0.2654 C   0  0  0  0  0  3  0  0  0  0  0  0
   -4.8864   -1.0909   -0.7200 C   0  0  0  0  0  0  0  0  0  0  0  0
   -4.6680   -0.2721   -1.4370 H   0  0  0  0  0  0  0  0  0  0  0  0
   -5.9317   -0.9731   -0.3681 H   0  0  0  0  0  0  0  0  0  0  0  0
   -4.7326   -2.4410   -1.4403 C   0  0  0  0  0  0  0  0  0  0  0  0
   -3.6659   -2.5576   -1.7431 H   0  0  0  0  0  0  0  0  0  0  0  0
   -4.9718   -3.2694   -0.7399 H   0  0  0  0  0  0  0  0  0  0  0  0
   -4.5023   -1.3567    1.7312 C   0  0  0  0  0  0  0  0  0  0  0  0
   -3.6537   -1.7632    2.3175 H   0  0  0  0  0  0  0  0  0  0  0  0
   -5.2194   -2.1862    1.5610 H   0  0  0  0  0  0  0  0  0  0  0  0
   -5.1665   -0.2074    2.4881 C   0  0  0  0  0  0  0  0  0  0  0  0
   -4.4263    0.5916    2.6904 H   0  0  0  0  0  0  0  0  0  0  0  0
   -5.5645   -0.5645    3.4591 H   0  0  0  0  0  0  0  0  0  0  0  0
   -6.0090    0.2262    1.9116 H   0  0  0  0  0  0  0  0  0  0  0  0
  1  6  1  0  0  0  0
  3 10  1  0  0  0  0
  4  3  1  0  0  0  0
  5 13  1  0  0  0  0
  6  5  1  0  0  0  0
  6  2  1  0  0  0  0
  7  9  1  0  0  0  0
  7  5  1  0  0  0  0
  8  7  1  0  0  0  0
 10 12  1  0  0  0  0
 10  7  1  0  0  0  0
 11 10  1  0  0  0  0
 13 14  1  0  0  0  0
 13 16  1  0  0  0  0
 15 13  1  0  0  0  0
 16 17  1  0  0  0  0
 16 18  1  0  0  0  0
 19 16  1  0  0  0  0
M  END
