1,2
q = 0.0, confidence = 0.622

 11 11  0  0  0  0  0  0  0  0999 V2000
    1.7676    1.6060   -0.0175 S   0  0  0  0  0  1  0  0  0  0  0  0
    1.5919   -1.7798    0.0896 S   0  0  0  0  0  1  0  0  0  0  0  0
    4.8035    1.1595   -0.1898 S   0  0  0  0  0  0  0  0  0  0  0  0
    3.1341    0.5084   -0.0348 C   0  0  0  0  0  0  0  0  0  0  0  0
    3.0843   -0.8534   -0.0005 C   0  0  0  0  0  0  0  0  0  0  0  0
    5.4624   -0.4931    0.3089 C   0  0  0  0  0  0  0  0  0  0  0  0
    6.4698   -0.6293   -0.1338 H   0  0  0  0  0  0  0  0  0  0  0  0
    5.5464   -0.5098    1.4164 H   0  0  0  0  0  0  0  0  0  0  0  0
    4.4288   -1.5260   -0.1655 C   0  0  0  0  0  0  0  0  0  0  0  0
    4.5116   -2.4658    0.4220 H   0  0  0  0  0  0  0  0  0  0  0  0
    4.5986   -1.7936   -1.2374 H   0  0  0  0  0  0  0  0  0  0  0  0
  3  4  1  0  0  0  0
  3  6  1  0  0  0  0
  4  1  1  0  0  0  0
  4  5  2  0  0  0  0
  5  2  1  0  0  0  0
  6  8  1  0  0  0  0
  7  6  1  0  0  0  0
  9  5  1  0  0  0  0
  9  6  1  0  0  0  0
  9 10  1  0  0  0  0
 11  9  1  0  0  0  0
M  END
