1,2
q = -1.0

 18 17  0  0  0  0  0  0  0  0999 V2000
    1.1092    0.7806   -0.6313 S   0  0  0  0  0  1  0  0  0  0  0  0
    0.3417   -1.9512   -0.0512 S   0  0  0  0  0  1  0  0  0  0  0  0
    2.8754   -1.2713   -0.7525 N   0  0  0  0  0  0  0  0  0  0  0  0
    1.6167   -0.8731   -0.5065 C   0  0  0  0  0  3  0  0  0  0  0  0
    3.3053   -2.6420   -0.4977 C   0  0  0  0  0  0  0  0  0  0  0  0
    2.4313   -3.3192   -0.5367 H   0  0  0  0  0  0  0  0  0  0  0  0
    3.7815   -2.7092    0.5022 H   0  0  0  0  0  0  0  0  0  0  0  0
    4.0293   -2.9490   -1.2774 H   0  0  0  0  0  0  0  0  0  0  0  0
    4.3776   -0.2824    1.3760 O   0  0  0  0  0  0  0  0  0  0  0  0
    3.9027   -0.2800   -1.0137 C   0  0  0  0  0  0  0  0  0  0  0  0
    4.6919   -0.7268   -1.6529 H   0  0  0  0  0  0  0  0  0  0  0  0
    3.4754    0.5747   -1.5774 H   0  0  0  0  0  0  0  0  0  0  0  0
    4.5386    0.2271    0.2865 C   0  0  0  0  0  0  0  0  0  0  0  0
    5.3113    1.2952    0.0298 O   0  0  0  0  0  0  0  0  0  0  0  0
    5.9832    1.8639    1.1686 C   0  0  0  0  0  0  0  0  0  0  0  0
    5.2445    2.2254    1.9109 H   0  0  0  0  0  0  0  0  0  0  0  0
    6.5837    2.7036    0.7787 H   0  0  0  0  0  0  0  0  0  0  0  0
    6.6332    1.1098    1.6548 H   0  0  0  0  0  0  0  0  0  0  0  0
  1  4  1  0  0  0  0
  3  4  1  0  0  0  0
  3  5  1  0  0  0  0
  4  2  1  0  0  0  0
  5  7  1  0  0  0  0
  6  5  1  0  0  0  0
  8  5  1  0  0  0  0
 10  3  1  0  0  0  0
 10 13  1  0  0  0  0
 11 10  1  0  0  0  0
 12 10  1  0  0  0  0
 13  9  2  0  0  0  0
 14 13  1  0  0  0  0
 14 15  1  0  0  0  0
 15 18  1  0  0  0  0
 15 16  1  0  0  0  0
 17 15  1  0  0  0  0
M  END
