1,3
q = -1.0, confidence = 0.0

 58 59  0  0  0  0  0  0  0  0999 V2000
    1.1847   -1.5153    0.8106 S   0  0  0  0  0  0  0  0  0  0  0  0
   -1.4418   -2.0769   -2.0828 S   0  0  0  0  0  0  0  0  0  0  0  0
   -0.7740    0.9390    1.3801 S   0  0  0  0  0  0  0  0  0  0  0  0
   -1.4957   -0.7138    0.4066 B   0  0  0  0  0  0  0  0  0  0  0  0
   -3.4858   -0.8270    2.1397 C   0  0  0  0  0  0  0  0  0  0  0  0
   -2.7291   -0.8434    2.9425 H   0  0  0  0  0  0  0  0  0  0  0  0
   -4.8431   -0.8267    2.4920 C   0  0  0  0  0  0  0  0  0  0  0  0
   -5.1383   -0.8641    3.5528 H   0  0  0  0  0  0  0  0  0  0  0  0
   -5.8274   -0.7745    1.4898 C   0  0  0  0  0  0  0  0  0  0  0  0
   -6.8952   -0.7719    1.7594 H   0  0  0  0  0  0  0  0  0  0  0  0
   -5.4350   -0.7267    0.1438 C   0  0  0  0  0  0  0  0  0  0  0  0
   -6.1970   -0.6888   -0.6509 H   0  0  0  0  0  0  0  0  0  0  0  0
   -4.0714   -0.7262   -0.1955 C   0  0  0  0  0  0  0  0  0  0  0  0
   -3.7865   -0.7042   -1.2594 H   0  0  0  0  0  0  0  0  0  0  0  0
   -3.0590   -0.7748    0.7901 C   0  0  0  0  0  0  0  0  0  0  0  0
   -0.5888   -1.8687    1.1169 C   0  0  0  0  0  0  0  0  0  0  0  0
   -0.8031   -2.8575    0.6647 H   0  0  0  0  0  0  0  0  0  0  0  0
   -0.7558   -1.9178    2.2123 H   0  0  0  0  0  0  0  0  0  0  0  0
   -1.1361   -0.5255   -1.1693 C   0  0  0  0  0  0  0  0  0  0  0  0
   -0.0559   -0.2743   -1.2639 H   0  0  0  0  0  0  0  0  0  0  0  0
   -1.7057    0.3065   -1.6328 H   0  0  0  0  0  0  0  0  0  0  0  0
    2.0858   -2.3008    2.2698 C   0  0  0  0  0  0  0  0  0  0  0  0
    1.7893   -1.4998    3.5397 C   0  0  0  0  0  0  0  0  0  0  0  0
    2.2930   -1.9674    4.4125 H   0  0  0  0  0  0  0  0  0  0  0  0
    0.7036   -1.4607    3.7579 H   0  0  0  0  0  0  0  0  0  0  0  0
    2.1562   -0.4589    3.4367 H   0  0  0  0  0  0  0  0  0  0  0  0
    3.5749   -2.2350    1.9147 C   0  0  0  0  0  0  0  0  0  0  0  0
    4.1723   -2.6837    2.7355 H   0  0  0  0  0  0  0  0  0  0  0  0
    3.9080   -1.1872    1.7849 H   0  0  0  0  0  0  0  0  0  0  0  0
    3.7927   -2.7938    0.9827 H   0  0  0  0  0  0  0  0  0  0  0  0
    1.6247   -3.7563    2.3881 C   0  0  0  0  0  0  0  0  0  0  0  0
    2.2053   -4.2613    3.1884 H   0  0  0  0  0  0  0  0  0  0  0  0
    1.7897   -4.3080    1.4411 H   0  0  0  0  0  0  0  0  0  0  0  0
    0.5522   -3.8308    2.6511 H   0  0  0  0  0  0  0  0  0  0  0  0
   -0.3415   -1.9114   -3.5843 C   0  0  0  0  0  0  0  0  0  0  0  0
    1.1294   -2.0143   -3.1607 C   0  0  0  0  0  0  0  0  0  0  0  0
    1.7983   -1.9281   -4.0452 H   0  0  0  0  0  0  0  0  0  0  0  0
    1.3292   -2.9794   -2.6559 H   0  0  0  0  0  0  0  0  0  0  0  0
    1.4029   -1.2065   -2.4534 H   0  0  0  0  0  0  0  0  0  0  0  0
   -0.7264   -3.1019   -4.4730 C   0  0  0  0  0  0  0  0  0  0  0  0
   -0.0946   -3.1182   -5.3862 H   0  0  0  0  0  0  0  0  0  0  0  0
   -1.7883   -3.0394   -4.7839 H   0  0  0  0  0  0  0  0  0  0  0  0
   -0.5798   -4.0620   -3.9373 H   0  0  0  0  0  0  0  0  0  0  0  0
   -0.6139   -0.5877   -4.3069 C   0  0  0  0  0  0  0  0  0  0  0  0
   -0.0055   -0.5238   -5.2352 H   0  0  0  0  0  0  0  0  0  0  0  0
   -0.3526    0.2830   -3.6729 H   0  0  0  0  0  0  0  0  0  0  0  0
   -1.6836   -0.5003   -4.5824 H   0  0  0  0  0  0  0  0  0  0  0  0
   -2.8249    2.6779    0.8270 C   0  0  0  0  0  0  0  0  0  0  0  0
   -3.3096    2.2119    1.6973 H   0  0  0  0  0  0  0  0  0  0  0  0
   -3.4876    3.6637    0.0804 C   0  0  0  0  0  0  0  0  0  0  0  0
   -4.4988    3.9791    0.3797 H   0  0  0  0  0  0  0  0  0  0  0  0
   -2.8715    4.2425   -1.0405 C   0  0  0  0  0  0  0  0  0  0  0  0
   -3.3947    5.0173   -1.6208 H   0  0  0  0  0  0  0  0  0  0  0  0
   -1.5871    3.8215   -1.4228 C   0  0  0  0  0  0  0  0  0  0  0  0
   -1.1015    4.2600   -2.3083 H   0  0  0  0  0  0  0  0  0  0  0  0
   -0.9219    2.8305   -0.6872 C   0  0  0  0  0  0  0  0  0  0  0  0
    0.0699    2.4677   -0.9861 H   0  0  0  0  0  0  0  0  0  0  0  0
   -1.5344    2.2630    0.4453 C   0  0  0  0  0  0  0  0  0  0  0  0
  1 16  1  0  0  0  0
  1 22  1  0  0  0  0
  2 19  1  0  0  0  0
  4 15  1  0  0  0  0
  4 16  1  0  0  0  0
  4  3  1  0  0  0  0
  5  7  1  0  0  0  0
  5  6  1  0  0  0  0
  7  8  1  0  0  0  0
  9 10  1  0  0  0  0
  9  7  2  0  0  0  0
 11  9  1  0  0  0  0
 12 11  1  0  0  0  0
 13 11  2  0  0  0  0
 13 15  1  0  0  0  0
 14 13  1  0  0  0  0
 15  5  2  0  0  0  0
 16 18  1  0  0  0  0
 17 16  1  0  0  0  0
 19  4  1  0  0  0  0
 20 19  1  0  0  0  0
 21 19  1  0  0  0  0
 22 31  1  0  0  0  0
 22 23  1  0  0  0  0
 23 25  1  0  0  0  0
 23 24  1  0  0  0  0
 26 23  1  0  0  0  0
 27 22  1  0  0  0  0
 27 28  1  0  0  0  0
 29 27  1  0  0  0  0
 30 27  1  0  0  0  0
 31 34  1  0  0  0  0
 31 32  1  0  0  0  0
 33 31  1  0  0  0  0
 35 36  1  0  0  0  0
 35  2  1  0  0  0  0
 36 38  1  0  0  0  0
 36 39  1  0  0  0  0
 37 36  1  0  0  0  0
 40 43  1  0  0  0  0
 40 35  1  0  0  0  0
 41 40  1  0  0  0  0
 42 40  1  0  0  0  0
 44 46  1  0  0  0  0
 44 35  1  0  0  0  0
 45 44  1  0  0  0  0
 47 44  1  0  0  0  0
 48 49  1  0  0  0  0
 50 51  1  0  0  0  0
 50 48  2  0  0  0  0
 52 50  1  0  0  0  0
 53 52  1  0  0  0  0
 54 52  2  0  0  0  0
 54 56  1  0  0  0  0
 55 54  1  0  0  0  0
 56 58  2  0  0  0  0
 57 56  1  0  0  0  0
 58 48  1  0  0  0  0
 58  3  1  0  0  0  0
M  END
