1,2
q = -1.0

 27 28  0  0  0  0  0  0  0  0999 V2000
    0.5448    0.5123    2.2039 S   0  0  0  0  0  1  0  0  0  0  0  0
    1.3469   -0.1841   -0.8438 S   0  0  0  0  0  1  0  0  0  0  0  0
    2.2207    0.0250    1.0363 P   0  0  0  0  0  4  0  0  0  0  0  0
    4.1984    0.9881    1.1650 S   0  0  0  0  0  0  0  0  0  0  0  0
    2.8828   -1.8667    1.8447 S   0  0  0  0  0  0  0  0  0  0  0  0
    3.9591    2.4323    0.1415 C   0  0  0  0  0  0  0  0  0  0  0  0
    3.8184    3.7021    0.7369 C   0  0  0  0  0  0  0  0  0  0  0  0
    3.8183    3.7864    1.8336 H   0  0  0  0  0  0  0  0  0  0  0  0
    3.6753    4.8385   -0.0720 C   0  0  0  0  0  0  0  0  0  0  0  0
    3.5673    5.8291    0.3955 H   0  0  0  0  0  0  0  0  0  0  0  0
    3.6596    4.7133   -1.4710 C   0  0  0  0  0  0  0  0  0  0  0  0
    3.5409    5.6067   -2.1026 H   0  0  0  0  0  0  0  0  0  0  0  0
    3.7939    3.4467   -2.0632 C   0  0  0  0  0  0  0  0  0  0  0  0
    3.7786    3.3443   -3.1589 H   0  0  0  0  0  0  0  0  0  0  0  0
    3.9510    2.3059   -1.2634 C   0  0  0  0  0  0  0  0  0  0  0  0
    4.0589    1.3095   -1.7159 H   0  0  0  0  0  0  0  0  0  0  0  0
    3.4698   -2.6199    0.3308 C   0  0  0  0  0  0  0  0  0  0  0  0
    4.7803   -2.3980   -0.1332 C   0  0  0  0  0  0  0  0  0  0  0  0
    5.4524   -1.7390    0.4349 H   0  0  0  0  0  0  0  0  0  0  0  0
    5.2013   -3.0068   -1.3247 C   0  0  0  0  0  0  0  0  0  0  0  0
    6.2242   -2.8336   -1.6925 H   0  0  0  0  0  0  0  0  0  0  0  0
    4.3236   -3.8340   -2.0452 C   0  0  0  0  0  0  0  0  0  0  0  0
    4.6599   -4.3096   -2.9792 H   0  0  0  0  0  0  0  0  0  0  0  0
    3.0182   -4.0533   -1.5761 C   0  0  0  0  0  0  0  0  0  0  0  0
    2.3271   -4.6969   -2.1417 H   0  0  0  0  0  0  0  0  0  0  0  0
    2.5840   -3.4453   -0.3894 C   0  0  0  0  0  0  0  0  0  0  0  0
    1.5602   -3.5850   -0.0125 H   0  0  0  0  0  0  0  0  0  0  0  0
  2  3  1  0  0  0  0
  3  4  1  0  0  0  0
  3  5  1  0  0  0  0
  3  1  1  0  0  0  0
  6  7  1  0  0  0  0
  6  4  1  0  0  0  0
  7  8  1  0  0  0  0
  9 10  1  0  0  0  0
  9  7  2  0  0  0  0
 11  9  1  0  0  0  0
 12 11  1  0  0  0  0
 13 11  2  0  0  0  0
 13 15  1  0  0  0  0
 14 13  1  0  0  0  0
 15  6  2  0  0  0  0
 16 15  1  0  0  0  0
 17  5  1  0  0  0  0
 18 17  1  0  0  0  0
 18 19  1  0  0  0  0
 20 18  2  0  0  0  0
 21 20  1  0  0  0  0
 22 24  2  0  0  0  0
 22 20  1  0  0  0  0
 23 22  1  0  0  0  0
 24 26  1  0  0  0  0
 25 24  1  0  0  0  0
 26 27  1  0  0  0  0
 26 17  2  0  0  0  0
M  END
