1,2
q = -1.0

 22 22  0  0  0  0  0  0  0  0999 V2000
   -2.2514   -0.7433   -0.1199 S   0  0  0  0  0  1  0  0  0  0  0  0
   -1.3354    1.9630    0.0454 S   0  0  0  0  0  1  0  0  0  0  0  0
   -3.9601    1.4333   -0.0717 N   0  0  0  0  0  0  0  0  0  0  0  0
   -3.9716    2.4537    0.0290 H   0  0  0  0  0  0  0  0  0  0  0  0
   -2.7086    0.9153   -0.0609 C   0  0  0  0  0  3  0  0  0  0  0  0
   -5.2348    0.8430   -0.1583 C   0  0  0  0  0  0  0  0  0  0  0  0
   -5.4541   -0.5158   -0.4667 C   0  0  0  0  0  0  0  0  0  0  0  0
   -4.6052   -1.1823   -0.6661 H   0  0  0  0  0  0  0  0  0  0  0  0
   -6.7638   -1.0064   -0.5348 C   0  0  0  0  0  0  0  0  0  0  0  0
   -6.9160   -2.0695   -0.7802 H   0  0  0  0  0  0  0  0  0  0  0  0
   -7.8854   -0.1838   -0.3117 C   0  0  0  0  0  0  0  0  0  0  0  0
   -7.6478    1.1738   -0.0137 C   0  0  0  0  0  0  0  0  0  0  0  0
   -8.5005    1.8489    0.1609 H   0  0  0  0  0  0  0  0  0  0  0  0
   -6.3492    1.6833    0.0625 C   0  0  0  0  0  0  0  0  0  0  0  0
   -6.1894    2.7483    0.2963 H   0  0  0  0  0  0  0  0  0  0  0  0
   -9.2878   -0.7467   -0.3337 C   0  0  0  0  0  0  0  0  0  0  0  0
   -9.3403   -1.5736   -1.0732 H   0  0  0  0  0  0  0  0  0  0  0  0
   -9.9929    0.0348   -0.6882 H   0  0  0  0  0  0  0  0  0  0  0  0
   -9.7420   -1.2605    1.0416 C   0  0  0  0  0  0  0  0  0  0  0  0
   -9.0702   -2.0632    1.4080 H   0  0  0  0  0  0  0  0  0  0  0  0
  -10.7722   -1.6685    0.9989 H   0  0  0  0  0  0  0  0  0  0  0  0
   -9.7264   -0.4475    1.7957 H   0  0  0  0  0  0  0  0  0  0  0  0
  1  5  1  0  0  0  0
  3  5  1  0  0  0  0
  3  4  1  0  0  0  0
  5  2  1  0  0  0  0
  6  3  1  0  0  0  0
  6 14  1  0  0  0  0
  7  6  2  0  0  0  0
  8  7  1  0  0  0  0
  9  7  1  0  0  0  0
  9 11  2  0  0  0  0
 10  9  1  0  0  0  0
 11 12  1  0  0  0  0
 12 14  2  0  0  0  0
 12 13  1  0  0  0  0
 14 15  1  0  0  0  0
 16 11  1  0  0  0  0
 16 19  1  0  0  0  0
 17 16  1  0  0  0  0
 18 16  1  0  0  0  0
 19 20  1  0  0  0  0
 19 22  1  0  0  0  0
 21 19  1  0  0  0  0
M  END
