1,2
q = -2.0, confidence = 0.67

 20 20  0  0  0  0  0  0  0  0999 V2000
   -0.5260   -1.9595    1.6417 S   0  0  0  0  0  1  0  0  0  0  0  0
    0.4104    1.4021    2.1413 S   0  0  0  0  0  1  0  0  0  0  0  0
    6.1286   -1.6297   -0.8810 Cl  0  0  0  0  0  0  0  0  0  0  0  0
    1.6609   -0.9277    3.0475 N   0  0  0  0  0  0  0  0  0  0  0  0
    0.5970   -1.8985    3.1132 C   0  0  0  0  0  0  0  0  0  0  0  0
    0.0027   -1.6939    4.0243 H   0  0  0  0  0  0  0  0  0  0  0  0
    1.0116   -2.9221    3.2144 H   0  0  0  0  0  0  0  0  0  0  0  0
    1.2655    0.3970    3.4511 C   0  0  0  0  0  0  0  0  0  0  0  0
    2.1544    0.9811    3.7646 H   0  0  0  0  0  0  0  0  0  0  0  0
    0.5974    0.3028    4.3286 H   0  0  0  0  0  0  0  0  0  0  0  0
    2.6830   -1.0822    2.1058 C   0  0  0  0  0  0  0  0  0  0  0  0
    2.9595   -2.3459    1.5203 C   0  0  0  0  0  0  0  0  0  0  0  0
    2.3231   -3.2115    1.7408 H   0  0  0  0  0  0  0  0  0  0  0  0
    4.0283   -2.5179    0.6347 C   0  0  0  0  0  0  0  0  0  0  0  0
    4.2293   -3.5070    0.1985 H   0  0  0  0  0  0  0  0  0  0  0  0
    4.8336   -1.4242    0.2835 C   0  0  0  0  0  0  0  0  0  0  0  0
    4.5622   -0.1579    0.8186 C   0  0  0  0  0  0  0  0  0  0  0  0
    5.1719    0.7049    0.5155 H   0  0  0  0  0  0  0  0  0  0  0  0
    3.4991    0.0117    1.7126 C   0  0  0  0  0  0  0  0  0  0  0  0
    3.2775    1.0229    2.0747 H   0  0  0  0  0  0  0  0  0  0  0  0
  1  5  1  0  0  0  0
  2  8  1  0  0  0  0
  3 16  1  0  0  0  0
  4  5  1  0  0  0  0
  4  8  1  0  0  0  0
  5  7  1  0  0  0  0
  5  6  1  0  0  0  0
  8  9  1  0  0  0  0
  8 10  1  0  0  0  0
 11  4  1  0  0  0  0
 12 13  1  0  0  0  0
 12 11  2  0  0  0  0
 14 12  1  0  0  0  0
 15 14  1  0  0  0  0
 16 14  2  0  0  0  0
 16 17  1  0  0  0  0
 17 19  2  0  0  0  0
 18 17  1  0  0  0  0
 19 20  1  0  0  0  0
 19 11  1  0  0  0  0
M  END
