1,2
q = -1.0

 14 14  0  0  0  0  0  0  0  0999 V2000
   -1.0253    1.1449   -2.0414 S   0  0  0  0  0  1  0  0  0  0  0  0
   -1.8001    1.6036    0.6241 S   0  0  0  0  0  1  0  0  0  0  0  0
   -6.1075    5.4770   -2.7910 F   0  0  0  0  0  0  0  0  0  0  0  0
   -2.0996    1.9845   -1.0070 C   0  0  0  0  0  3  0  0  0  0  0  0
   -3.1455    2.8927   -1.4710 C   0  0  0  0  0  0  0  0  0  0  0  0
   -3.3331    3.1323   -2.8549 C   0  0  0  0  0  0  0  0  0  0  0  0
   -2.6823    2.6215   -3.5810 H   0  0  0  0  0  0  0  0  0  0  0  0
   -4.3288    4.0016   -3.3057 C   0  0  0  0  0  0  0  0  0  0  0  0
   -4.4847    4.1953   -4.3764 H   0  0  0  0  0  0  0  0  0  0  0  0
   -5.1484    4.6404   -2.3641 C   0  0  0  0  0  0  0  0  0  0  0  0
   -4.9910    4.4266   -0.9864 C   0  0  0  0  0  0  0  0  0  0  0  0
   -5.6541    4.9468   -0.2808 H   0  0  0  0  0  0  0  0  0  0  0  0
   -3.9924    3.5554   -0.5478 C   0  0  0  0  0  0  0  0  0  0  0  0
   -3.8563    3.3766    0.5297 H   0  0  0  0  0  0  0  0  0  0  0  0
  1  4  1  0  0  0  0
  3 10  1  0  0  0  0
  4  2  1  0  0  0  0
  5  4  1  0  0  0  0
  5 13  1  0  0  0  0
  6  5  2  0  0  0  0
  7  6  1  0  0  0  0
  8  6  1  0  0  0  0
  8 10  2  0  0  0  0
  9  8  1  0  0  0  0
 10 11  1  0  0  0  0
 11 13  2  0  0  0  0
 11 12  1  0  0  0  0
 13 14  1  0  0  0  0
M  END
