1,2
q = -1.0

 24 24  0  0  1  0  0  0  0  0999 V2000
   -2.0760   -0.7326    0.3928 S   0  0  0  0  0  1  0  0  0  0  0  0
   -1.1758    1.8306   -0.5324 S   0  0  0  0  0  1  0  0  0  0  0  0
   -3.7424    1.3393   -0.1811 O   0  0  0  0  0  0  0  0  0  0  0  0
   -2.5157    0.8537   -0.1108 C   0  0  0  0  0  3  0  0  0  0  0  0
   -4.8780    0.4846    0.1579 C   0  0  2  0  0  0  0  0  0  0  0  0
   -5.2979   -0.3372   -1.0590 C   0  0  0  0  0  0  0  0  0  0  0  0
   -6.5593   -1.1499   -0.7417 C   0  0  0  0  0  0  0  0  0  0  0  0
   -7.7166   -0.2658   -0.2446 C   0  0  2  0  0  0  0  0  0  0  0  0
   -7.2550    0.5779    0.9572 C   0  0  0  0  0  0  0  0  0  0  0  0
   -5.9948    1.3965    0.6491 C   0  0  0  0  0  0  0  0  0  0  0  0
   -8.9622   -1.0904    0.0855 C   0  0  0  0  0  0  0  0  0  0  0  0
   -4.5498   -0.1955    0.9759 H   0  0  0  0  0  0  0  0  0  0  0  0
   -5.4926    0.3625   -1.9003 H   0  0  0  0  0  0  0  0  0  0  0  0
   -4.4633   -1.0005   -1.3634 H   0  0  0  0  0  0  0  0  0  0  0  0
   -6.8726   -1.7224   -1.6396 H   0  0  0  0  0  0  0  0  0  0  0  0
   -6.3247   -1.9070    0.0410 H   0  0  0  0  0  0  0  0  0  0  0  0
   -7.9727    0.4413   -1.0684 H   0  0  0  0  0  0  0  0  0  0  0  0
   -7.0546   -0.1039    1.8151 H   0  0  0  0  0  0  0  0  0  0  0  0
   -8.0712    1.2547    1.2857 H   0  0  0  0  0  0  0  0  0  0  0  0
   -5.6534    1.9586    1.5421 H   0  0  0  0  0  0  0  0  0  0  0  0
   -6.2086    2.1452   -0.1442 H   0  0  0  0  0  0  0  0  0  0  0  0
   -8.7532   -1.8116    0.9041 H   0  0  0  0  0  0  0  0  0  0  0  0
   -9.8014   -0.4446    0.4152 H   0  0  0  0  0  0  0  0  0  0  0  0
   -9.3076   -1.6730   -0.7926 H   0  0  0  0  0  0  0  0  0  0  0  0
  2  4  1  0  0  0  0
  3  4  1  0  0  0  0
  3  5  1  0  0  0  0
  4  1  1  0  0  0  0
  5 10  1  0  0  0  0
  5 12  1  1  0  0  0
  6  7  1  0  0  0  0
  6  5  1  0  0  0  0
  7  8  1  0  0  0  0
  7 16  1  0  0  0  0
  8 17  1  6  0  0  0
  8 11  1  0  0  0  0
  8  9  1  0  0  0  0
  9 19  1  0  0  0  0
  9 18  1  0  0  0  0
 10  9  1  0  0  0  0
 10 20  1  0  0  0  0
 11 23  1  0  0  0  0
 11 22  1  0  0  0  0
 13  6  1  0  0  0  0
 14  6  1  0  0  0  0
 15  7  1  0  0  0  0
 21 10  1  0  0  0  0
 24 11  1  0  0  0  0
M  END
