1,2
q = -1.0

 25 25  0  0  0  0  0  0  0  0999 V2000
    1.8235   -1.3907   -0.6081 S   0  0  0  0  0  1  0  0  0  0  0  0
    1.8454    1.4599   -0.3201 S   0  0  0  0  0  1  0  0  0  0  0  0
    4.0934    0.0620   -1.0026 N   0  0  0  0  0  0  0  0  0  0  0  0
    2.7823    0.0501   -0.6928 C   0  0  0  0  0  3  0  0  0  0  0  0
    4.8069   -1.2003   -1.2366 C   0  0  0  0  0  0  0  0  0  0  0  0
    5.1506   -1.9790    0.0422 C   0  0  0  0  0  0  0  0  0  0  0  0
    6.0510   -1.2906    1.0791 C   0  0  0  0  0  0  0  0  0  0  0  0
    5.4797    0.0060    1.6985 C   0  0  0  0  0  0  0  0  0  0  0  0
    6.0330    1.3217    1.1153 C   0  0  0  0  0  0  0  0  0  0  0  0
    6.1353    1.4128   -0.4119 C   0  0  0  0  0  0  0  0  0  0  0  0
    4.8163    1.3251   -1.1787 C   0  0  0  0  0  0  0  0  0  0  0  0
    4.1641   -1.8350   -1.8843 H   0  0  0  0  0  0  0  0  0  0  0  0
    5.7201   -0.9592   -1.8171 H   0  0  0  0  0  0  0  0  0  0  0  0
    4.1926   -2.2611    0.5286 H   0  0  0  0  0  0  0  0  0  0  0  0
    5.6202   -2.9328   -0.2813 H   0  0  0  0  0  0  0  0  0  0  0  0
    6.2239   -2.0302    1.8881 H   0  0  0  0  0  0  0  0  0  0  0  0
    7.0591   -1.0967    0.6476 H   0  0  0  0  0  0  0  0  0  0  0  0
    4.3718   -0.0082    1.6289 H   0  0  0  0  0  0  0  0  0  0  0  0
    5.6980    0.0167    2.7865 H   0  0  0  0  0  0  0  0  0  0  0  0
    5.4168    2.1672    1.4909 H   0  0  0  0  0  0  0  0  0  0  0  0
    7.0547    1.4868    1.5219 H   0  0  0  0  0  0  0  0  0  0  0  0
    6.5968    2.3846   -0.6876 H   0  0  0  0  0  0  0  0  0  0  0  0
    6.8425    0.6434   -0.7904 H   0  0  0  0  0  0  0  0  0  0  0  0
    4.1327    2.1374   -0.8592 H   0  0  0  0  0  0  0  0  0  0  0  0
    5.0039    1.4698   -2.2675 H   0  0  0  0  0  0  0  0  0  0  0  0
  3  4  1  0  0  0  0
  4  1  1  0  0  0  0
  4  2  1  0  0  0  0
  5  3  1  0  0  0  0
  5  6  1  0  0  0  0
  6 14  1  0  0  0  0
  6  7  1  0  0  0  0
  7  8  1  0  0  0  0
  7 16  1  0  0  0  0
  8 19  1  0  0  0  0
  9 20  1  0  0  0  0
  9 21  1  0  0  0  0
  9  8  1  0  0  0  0
 10  9  1  0  0  0  0
 11  3  1  0  0  0  0
 11 24  1  0  0  0  0
 11 10  1  0  0  0  0
 12  5  1  0  0  0  0
 13  5  1  0  0  0  0
 15  6  1  0  0  0  0
 17  7  1  0  0  0  0
 18  8  1  0  0  0  0
 22 10  1  0  0  0  0
 23 10  1  0  0  0  0
 25 11  1  0  0  0  0
M  END
