1,2,3,38
q = -1.0

 68 68  0  0  1  0  0  0  0  0999 V2000
    2.3215    0.1227   -0.3703 P   0  0  0  0  0  0  0  0  0  0  0  0
   -2.3179    0.2671   -0.4278 P   0  0  2  0  0  0  0  0  0  0  0  0
    0.0218    2.0264   -0.4351 N   0  0  0  0  0  2  0  0  0  0  0  0
    3.3785    0.4625    1.1976 C   0  0  0  0  0  0  0  0  0  0  0  0
    3.3132   -1.0011   -1.5772 C   0  0  0  0  0  0  0  0  0  0  0  0
    2.3341    1.7668   -1.2518 C   0  0  0  0  0  0  0  0  0  0  0  0
    3.2940    2.3121   -1.1647 H   0  0  0  0  0  0  0  0  0  0  0  0
    2.2070    1.5102   -2.3268 H   0  0  0  0  0  0  0  0  0  0  0  0
    3.1761   -0.7096    2.1756 C   0  0  0  0  0  0  0  0  0  0  0  0
    3.6244   -1.6479    1.8006 H   0  0  0  0  0  0  0  0  0  0  0  0
    2.1025   -0.8887    2.3794 H   0  0  0  0  0  0  0  0  0  0  0  0
    3.6662   -0.4614    3.1409 H   0  0  0  0  0  0  0  0  0  0  0  0
    4.8784    0.6608    0.9248 C   0  0  0  0  0  0  0  0  0  0  0  0
    5.3651    0.9529    1.8798 H   0  0  0  0  0  0  0  0  0  0  0  0
    5.0790    1.4754    0.1991 H   0  0  0  0  0  0  0  0  0  0  0  0
    5.3811   -0.2597    0.5738 H   0  0  0  0  0  0  0  0  0  0  0  0
    2.8380    1.7688    1.8118 C   0  0  0  0  0  0  0  0  0  0  0  0
    3.3053    1.9080    2.8095 H   0  0  0  0  0  0  0  0  0  0  0  0
    1.7421    1.7386    1.9711 H   0  0  0  0  0  0  0  0  0  0  0  0
    3.1001    2.6558    1.2003 H   0  0  0  0  0  0  0  0  0  0  0  0
    2.3662   -1.4275   -2.7096 C   0  0  0  0  0  0  0  0  0  0  0  0
    2.9324   -2.0681   -3.4187 H   0  0  0  0  0  0  0  0  0  0  0  0
    1.9778   -0.5635   -3.2840 H   0  0  0  0  0  0  0  0  0  0  0  0
    1.5107   -2.0105   -2.3189 H   0  0  0  0  0  0  0  0  0  0  0  0
    3.7715   -2.2668   -0.8303 C   0  0  0  0  0  0  0  0  0  0  0  0
    2.9178   -2.7707   -0.3337 H   0  0  0  0  0  0  0  0  0  0  0  0
    4.5536   -2.0573   -0.0766 H   0  0  0  0  0  0  0  0  0  0  0  0
    4.2034   -2.9773   -1.5668 H   0  0  0  0  0  0  0  0  0  0  0  0
    4.5180   -0.2817   -2.2137 C   0  0  0  0  0  0  0  0  0  0  0  0
    5.0219   -0.9936   -2.9018 H   0  0  0  0  0  0  0  0  0  0  0  0
    5.2709    0.0564   -1.4820 H   0  0  0  0  0  0  0  0  0  0  0  0
    4.2111    0.5889   -2.8270 H   0  0  0  0  0  0  0  0  0  0  0  0
   -2.0962    0.1124   -2.3064 C   0  0  0  0  0  0  0  0  0  0  0  0
   -3.9399   -0.4456    0.2664 C   0  0  0  0  0  0  0  0  0  0  0  0
   -2.3825    2.0611    0.0723 C   0  0  0  0  0  0  0  0  0  0  0  0
   -3.2733    2.6229   -0.2716 H   0  0  0  0  0  0  0  0  0  0  0  0
   -2.4155    1.9771    1.1845 H   0  0  0  0  0  0  0  0  0  0  0  0
   -0.5390   -0.0616   -2.2444 C   0  0  0  0  0  3  0  0  0  0  0  0
   -0.0344    0.7667   -2.7878 H   0  0  0  0  0  0  0  0  0  0  0  0
   -0.2510   -1.0186   -2.7129 H   0  0  0  0  0  0  0  0  0  0  0  0
   -2.7159   -1.1630   -2.8942 C   0  0  0  0  0  0  0  0  0  0  0  0
   -3.8237   -1.1487   -2.9006 H   0  0  0  0  0  0  0  0  0  0  0  0
   -2.3654   -2.0650   -2.3544 H   0  0  0  0  0  0  0  0  0  0  0  0
   -2.3780   -1.2562   -3.9481 H   0  0  0  0  0  0  0  0  0  0  0  0
   -2.5544    1.3473   -3.0884 C   0  0  0  0  0  0  0  0  0  0  0  0
   -2.2725    1.2329   -4.1573 H   0  0  0  0  0  0  0  0  0  0  0  0
   -2.0777    2.2783   -2.7220 H   0  0  0  0  0  0  0  0  0  0  0  0
   -3.6553    1.4796   -3.0433 H   0  0  0  0  0  0  0  0  0  0  0  0
   -3.8819   -1.9818    0.2227 C   0  0  0  0  0  0  0  0  0  0  0  0
   -3.0142   -2.3660    0.7933 H   0  0  0  0  0  0  0  0  0  0  0  0
   -3.8114   -2.3789   -0.8056 H   0  0  0  0  0  0  0  0  0  0  0  0
   -4.8117   -2.3844    0.6776 H   0  0  0  0  0  0  0  0  0  0  0  0
   -5.1144    0.0955   -0.5702 C   0  0  0  0  0  0  0  0  0  0  0  0
   -5.0744   -0.2335   -1.6258 H   0  0  0  0  0  0  0  0  0  0  0  0
   -5.1665    1.2032   -0.5524 H   0  0  0  0  0  0  0  0  0  0  0  0
   -6.0654   -0.2834   -0.1385 H   0  0  0  0  0  0  0  0  0  0  0  0
   -4.1062   -0.0028    1.7316 C   0  0  0  0  0  0  0  0  0  0  0  0
   -4.9968   -0.5182    2.1493 H   0  0  0  0  0  0  0  0  0  0  0  0
   -4.2835    1.0865    1.8290 H   0  0  0  0  0  0  0  0  0  0  0  0
   -3.2223   -0.2680    2.3450 H   0  0  0  0  0  0  0  0  0  0  0  0
    1.1752    2.6368   -0.8571 C   0  0  1  0  0  3  0  0  0  0  0  0
    1.2426    4.0302   -0.9995 C   0  0  0  0  0  0  0  0  0  0  0  0
    2.1935    4.4854   -1.3100 H   0  0  0  0  0  0  0  0  0  0  0  0
    0.1048    4.8135   -0.7784 C   0  0  0  0  0  0  0  0  0  0  0  0
    0.1444    5.9072   -0.8866 H   0  0  0  0  0  0  0  0  0  0  0  0
   -1.0913    4.1697   -0.4465 C   0  0  0  0  0  0  0  0  0  0  0  0
   -2.0209    4.7371   -0.3004 H   0  0  0  0  0  0  0  0  0  0  0  0
   -1.1160    2.7765   -0.2838 C   0  0  0  0  0  0  0  0  0  0  0  0
  1  4  1  0  0  0  0
  2 33  1  6  0  0  0
  2 35  1  0  0  0  0
  2 34  1  0  0  0  0
  3 68  1  0  0  0  0
  4 17  1  0  0  0  0
  4  9  1  0  0  0  0
  5 25  1  0  0  0  0
  5  1  1  0  0  0  0
  6  7  1  0  0  0  0
  6  1  1  0  0  0  0
  8  6  1  0  0  0  0
  9 11  1  0  0  0  0
  9 12  1  0  0  0  0
 10  9  1  0  0  0  0
 13  4  1  0  0  0  0
 13 14  1  0  0  0  0
 15 13  1  0  0  0  0
 16 13  1  0  0  0  0
 17 19  1  0  0  0  0
 17 18  1  0  0  0  0
 20 17  1  0  0  0  0
 21 24  1  0  0  0  0
 21  5  1  0  0  0  0
 22 21  1  0  0  0  0
 23 21  1  0  0  0  0
 25 26  1  0  0  0  0
 25 27  1  0  0  0  0
 28 25  1  0  0  0  0
 29  5  1  0  0  0  0
 29 31  1  0  0  0  0
 30 29  1  0  0  0  0
 32 29  1  0  0  0  0
 33 38  1  0  0  0  0
 34 57  1  0  0  0  0
 35 37  1  0  0  0  0
 36 35  1  0  0  0  0
 39 38  1  0  0  0  0
 40 38  1  0  0  0  0
 41 43  1  0  0  0  0
 41 33  1  0  0  0  0
 42 41  1  0  0  0  0
 44 41  1  0  0  0  0
 45 48  1  0  0  0  0
 45 47  1  0  0  0  0
 45 33  1  0  0  0  0
 46 45  1  0  0  0  0
 49 34  1  0  0  0  0
 49 52  1  0  0  0  0
 49 50  1  0  0  0  0
 51 49  1  0  0  0  0
 53 55  1  0  0  0  0
 53 56  1  0  0  0  0
 53 34  1  0  0  0  0
 54 53  1  0  0  0  0
 57 59  1  0  0  0  0
 57 58  1  0  0  0  0
 57 60  1  0  0  0  0
 61  6  1  6  0  0  0
 61  3  1  0  0  0  0
 62 61  1  0  0  0  0
 62 64  2  0  0  0  0
 63 62  1  0  0  0  0
 64 66  1  0  0  0  0
 65 64  1  0  0  0  0
 66 67  1  0  0  0  0
 66 68  2  0  0  0  0
 68 35  1  0  0  0  0
M  END
