1,29,30,42
q = -1.0

 82 84  0  0  0  0  0  0  0  0999 V2000
   -2.2952   -0.7473    0.0387 P   0  0  0  0  0  0  0  0  0  0  0  0
    1.3698    1.8390   -0.0547 C   0  0  0  0  0  0  0  0  0  0  0  0
   -0.1016    0.9264    1.6360 C   0  0  0  0  0  0  0  0  0  0  0  0
    2.4776    0.9884   -0.3173 C   0  0  0  0  0  0  0  0  0  0  0  0
    3.7425    1.5673   -0.5488 C   0  0  0  0  0  0  0  0  0  0  0  0
    4.5918    0.9092   -0.7856 H   0  0  0  0  0  0  0  0  0  0  0  0
    3.9684    2.9542   -0.5026 C   0  0  0  0  0  0  0  0  0  0  0  0
    2.8748    3.7730   -0.1659 C   0  0  0  0  0  0  0  0  0  0  0  0
    3.0137    4.8619   -0.0760 H   0  0  0  0  0  0  0  0  0  0  0  0
    1.6078    3.2251    0.0614 C   0  0  0  0  0  0  0  0  0  0  0  0
    0.7862    3.8919    0.3442 H   0  0  0  0  0  0  0  0  0  0  0  0
    5.3231    3.5368   -0.8121 C   0  0  0  0  0  0  0  0  0  0  0  0
    5.5277    4.4399   -0.2036 H   0  0  0  0  0  0  0  0  0  0  0  0
    5.3883    3.8417   -1.8788 H   0  0  0  0  0  0  0  0  0  0  0  0
    6.1344    2.8049   -0.6311 H   0  0  0  0  0  0  0  0  0  0  0  0
   -1.1330    1.8008   -0.4710 C   0  0  0  0  0  0  0  0  0  0  0  0
   -2.3530    1.0584   -0.3842 C   0  0  0  0  0  0  0  0  0  0  0  0
   -3.5428    1.6467   -0.8449 C   0  0  0  0  0  0  0  0  0  0  0  0
   -4.4840    1.0855   -0.7441 H   0  0  0  0  0  0  0  0  0  0  0  0
   -3.5737    2.8919   -1.5053 C   0  0  0  0  0  0  0  0  0  0  0  0
   -2.3383    3.5180   -1.7329 C   0  0  0  0  0  0  0  0  0  0  0  0
   -2.3003    4.4527   -2.3142 H   0  0  0  0  0  0  0  0  0  0  0  0
   -1.1429    2.9918   -1.2197 C   0  0  0  0  0  0  0  0  0  0  0  0
   -0.2065    3.5248   -1.4174 H   0  0  0  0  0  0  0  0  0  0  0  0
   -4.8745    3.4793   -1.9890 C   0  0  0  0  0  0  0  0  0  0  0  0
   -5.5084    3.8112   -1.1393 H   0  0  0  0  0  0  0  0  0  0  0  0
   -5.4679    2.7358   -2.5604 H   0  0  0  0  0  0  0  0  0  0  0  0
   -4.7072    4.3564   -2.6436 H   0  0  0  0  0  0  0  0  0  0  0  0
    0.0423    1.2816    0.1921 N   0  0  0  0  0  0  0  0  0  0  0  0
    2.3032   -0.8606   -0.2517 P   0  0  0  0  0  0  0  0  0  0  0  0
   -0.6835    3.2804    2.5152 C   0  0  0  0  0  0  0  0  0  0  0  0
   -1.1971    3.4952    1.5577 H   0  0  0  0  0  0  0  0  0  0  0  0
    0.2511    3.8801    2.5368 H   0  0  0  0  0  0  0  0  0  0  0  0
   -1.3253    3.6509    3.3383 H   0  0  0  0  0  0  0  0  0  0  0  0
   -0.3967    1.8115    2.6894 C   0  0  0  0  0  0  0  0  0  0  0  0
   -0.4268    1.2291    3.9809 C   0  0  0  0  0  0  0  0  0  0  0  0
   -0.6555    1.8750    4.8433 H   0  0  0  0  0  0  0  0  0  0  0  0
   -0.1690   -0.1363    4.1814 C   0  0  0  0  0  0  0  0  0  0  0  0
   -0.1883   -0.5412    5.2060 H   0  0  0  0  0  0  0  0  0  0  0  0
    0.0720   -0.9968    3.0937 C   0  0  0  0  0  0  0  0  0  0  0  0
    0.2135   -2.0762    3.2598 H   0  0  0  0  0  0  0  0  0  0  0  0
    0.0704   -0.4671    1.7908 C   0  0  0  0  0  3  0  0  0  0  0  0
    3.2162   -1.3065    1.3404 C   0  0  0  0  0  0  0  0  0  0  0  0
    2.6604   -0.6766    2.0684 H   0  0  0  0  0  0  0  0  0  0  0  0
    3.3445   -1.5148   -1.6719 C   0  0  0  0  0  0  0  0  0  0  0  0
    4.4006   -1.4312   -1.3283 H   0  0  0  0  0  0  0  0  0  0  0  0
    2.9593   -2.7741    1.7086 C   0  0  0  0  0  0  0  0  0  0  0  0
    1.8938   -3.0425    1.5700 H   0  0  0  0  0  0  0  0  0  0  0  0
    3.2316   -2.9486    2.7702 H   0  0  0  0  0  0  0  0  0  0  0  0
    3.5722   -3.4634    1.0930 H   0  0  0  0  0  0  0  0  0  0  0  0
    4.7017   -0.9509    1.4137 C   0  0  0  0  0  0  0  0  0  0  0  0
    4.8841    0.1333    1.2894 H   0  0  0  0  0  0  0  0  0  0  0  0
    5.3000   -1.4970    0.6546 H   0  0  0  0  0  0  0  0  0  0  0  0
    5.1029   -1.2394    2.4081 H   0  0  0  0  0  0  0  0  0  0  0  0
    3.0009   -2.9968   -1.8953 C   0  0  0  0  0  0  0  0  0  0  0  0
    1.9491   -3.0856   -2.2348 H   0  0  0  0  0  0  0  0  0  0  0  0
    3.1262   -3.6085   -0.9817 H   0  0  0  0  0  0  0  0  0  0  0  0
    3.6642   -3.4173   -2.6796 H   0  0  0  0  0  0  0  0  0  0  0  0
    3.1626   -0.7078   -2.9644 C   0  0  0  0  0  0  0  0  0  0  0  0
    2.1021   -0.7411   -3.2843 H   0  0  0  0  0  0  0  0  0  0  0  0
    3.7862   -1.1590   -3.7648 H   0  0  0  0  0  0  0  0  0  0  0  0
    3.4653    0.3509   -2.8553 H   0  0  0  0  0  0  0  0  0  0  0  0
   -3.0848   -0.8617    1.7451 C   0  0  0  0  0  0  0  0  0  0  0  0
   -2.3787   -0.2641    2.3570 H   0  0  0  0  0  0  0  0  0  0  0  0
   -3.4980   -1.6384   -1.1108 C   0  0  0  0  0  0  0  0  0  0  0  0
   -4.4895   -1.5573   -0.6109 H   0  0  0  0  0  0  0  0  0  0  0  0
   -3.0565   -2.3030    2.2651 C   0  0  0  0  0  0  0  0  0  0  0  0
   -3.2678   -2.3141    3.3544 H   0  0  0  0  0  0  0  0  0  0  0  0
   -2.0654   -2.7702    2.1035 H   0  0  0  0  0  0  0  0  0  0  0  0
   -3.8244   -2.9332    1.7714 H   0  0  0  0  0  0  0  0  0  0  0  0
   -4.4708   -0.2245    1.8646 C   0  0  0  0  0  0  0  0  0  0  0  0
   -4.4576    0.8520    1.6070 H   0  0  0  0  0  0  0  0  0  0  0  0
   -4.8292   -0.3105    2.9120 H   0  0  0  0  0  0  0  0  0  0  0  0
   -5.2246   -0.7283    1.2235 H   0  0  0  0  0  0  0  0  0  0  0  0
   -3.0742   -3.1179   -1.1600 C   0  0  0  0  0  0  0  0  0  0  0  0
   -3.8396   -3.7020   -1.7122 H   0  0  0  0  0  0  0  0  0  0  0  0
   -2.9574   -3.5706   -0.1575 H   0  0  0  0  0  0  0  0  0  0  0  0
   -2.1061   -3.2050   -1.6926 H   0  0  0  0  0  0  0  0  0  0  0  0
   -3.5951   -1.0730   -2.5338 C   0  0  0  0  0  0  0  0  0  0  0  0
   -4.2752   -1.7197   -3.1275 H   0  0  0  0  0  0  0  0  0  0  0  0
   -2.5967   -1.0792   -3.0133 H   0  0  0  0  0  0  0  0  0  0  0  0
   -3.9936   -0.0428   -2.5695 H   0  0  0  0  0  0  0  0  0  0  0  0
  1 63  1  0  0  0  0
  2 10  1  0  0  0  0
  2 29  1  0  0  0  0
  3 42  2  0  0  0  0
  3 35  1  0  0  0  0
  4 30  1  0  0  0  0
  4  2  2  0  0  0  0
  5  7  2  0  0  0  0
  5  4  1  0  0  0  0
  6  5  1  0  0  0  0
  7  8  1  0  0  0  0
  8  9  1  0  0  0  0
  8 10  2  0  0  0  0
 10 11  1  0  0  0  0
 12 15  1  0  0  0  0
 12  7  1  0  0  0  0
 12 13  1  0  0  0  0
 14 12  1  0  0  0  0
 16 17  1  0  0  0  0
 16 29  1  0  0  0  0
 17  1  1  0  0  0  0
 18 19  1  0  0  0  0
 18 17  2  0  0  0  0
 20 18  1  0  0  0  0
 21 20  2  0  0  0  0
 21 23  1  0  0  0  0
 22 21  1  0  0  0  0
 23 16  2  0  0  0  0
 24 23  1  0  0  0  0
 25 20  1  0  0  0  0
 25 26  1  0  0  0  0
 27 25  1  0  0  0  0
 28 25  1  0  0  0  0
 29  3  1  0  0  0  0
 30 43  1  0  0  0  0
 31 33  1  0  0  0  0
 31 35  1  0  0  0  0
 31 34  1  0  0  0  0
 32 31  1  0  0  0  0
 35 36  2  0  0  0  0
 36 38  1  0  0  0  0
 36 37  1  0  0  0  0
 38 39  1  0  0  0  0
 40 41  1  0  0  0  0
 40 38  2  0  0  0  0
 42 40  1  0  0  0  0
 43 51  1  0  0  0  0
 43 47  1  0  0  0  0
 43 44  1  0  0  0  0
 45 46  1  0  0  0  0
 45 30  1  0  0  0  0
 47 49  1  0  0  0  0
 48 47  1  0  0  0  0
 50 47  1  0  0  0  0
 51 54  1  0  0  0  0
 52 51  1  0  0  0  0
 53 51  1  0  0  0  0
 55 45  1  0  0  0  0
 55 57  1  0  0  0  0
 56 55  1  0  0  0  0
 58 55  1  0  0  0  0
 59 62  1  0  0  0  0
 59 45  1  0  0  0  0
 60 59  1  0  0  0  0
 61 59  1  0  0  0  0
 63 71  1  0  0  0  0
 63 67  1  0  0  0  0
 63 64  1  0  0  0  0
 65 66  1  0  0  0  0
 65  1  1  0  0  0  0
 67 68  1  0  0  0  0
 69 67  1  0  0  0  0
 70 67  1  0  0  0  0
 71 73  1  0  0  0  0
 72 71  1  0  0  0  0
 74 71  1  0  0  0  0
 75 65  1  0  0  0  0
 75 77  1  0  0  0  0
 76 75  1  0  0  0  0
 78 75  1  0  0  0  0
 79 65  1  0  0  0  0
 80 79  1  0  0  0  0
 81 79  1  0  0  0  0
 82 79  1  0  0  0  0
M  END
