1,2,3,4
q = -1.0, confidence = 0.014

 75 79  0  0  1  0  0  0  0  0999 V2000
    1.2977    1.0221    0.3257 P   0  0  0  0  0  0  0  0  0  0  0  0
   -1.9172   -0.4633   -0.0032 P   0  0  0  0  0  0  0  0  0  0  0  0
    0.4626   -1.6218    1.6621 N   0  0  0  0  0  0  0  0  0  0  0  0
    2.1833   -1.7625   -0.5563 C   0  0  0  0  0  3  0  0  0  0  0  0
    3.2273   -1.5680   -1.4841 C   0  0  0  0  0  0  0  0  0  0  0  0
    4.4975   -2.1418   -1.2995 C   0  0  0  0  0  0  0  0  0  0  0  0
    4.7580   -2.9334   -0.1719 C   0  0  0  0  0  0  0  0  0  0  0  0
    3.7313   -3.1632    0.7597 C   0  0  0  0  0  0  0  0  0  0  0  0
    2.4579   -2.5966    0.5706 C   0  0  0  0  0  0  0  0  0  0  0  0
    1.2886   -2.8838    1.5000 C   0  0  1  0  0  0  0  0  0  0  0  0
    1.6362   -3.5906    2.8117 C   0  0  0  0  0  0  0  0  0  0  0  0
    1.1133   -0.6113    2.5570 C   0  0  0  0  0  0  0  0  0  0  0  0
    2.0936    0.3412    1.8659 C   0  0  0  0  0  0  0  0  0  0  0  0
    2.6679    1.8327   -0.5973 C   0  0  0  0  0  0  0  0  0  0  0  0
    2.6513    1.7662   -2.0040 C   0  0  0  0  0  0  0  0  0  0  0  0
    3.6563    2.3983   -2.7521 C   0  0  0  0  0  0  0  0  0  0  0  0
    4.6896    3.0887   -2.0999 C   0  0  0  0  0  0  0  0  0  0  0  0
    4.7117    3.1555   -0.6967 C   0  0  0  0  0  0  0  0  0  0  0  0
    3.7008    2.5366    0.0528 C   0  0  0  0  0  0  0  0  0  0  0  0
    0.3492    2.5002    0.9023 C   0  0  0  0  0  0  0  0  0  0  0  0
    0.1161    2.8035    2.2585 C   0  0  0  0  0  0  0  0  0  0  0  0
   -0.6485    3.9267    2.6181 C   0  0  0  0  0  0  0  0  0  0  0  0
   -1.1800    4.7643    1.6280 C   0  0  0  0  0  0  0  0  0  0  0  0
   -0.9540    4.4680    0.2732 C   0  0  0  0  0  0  0  0  0  0  0  0
   -0.2057    3.3417   -0.0866 C   0  0  0  0  0  0  0  0  0  0  0  0
   -0.9169   -1.9153    2.1478 C   0  0  0  0  0  0  0  0  0  0  0  0
   -1.9058   -0.7846    1.8460 C   0  0  0  0  0  0  0  0  0  0  0  0
   -2.7881    1.1525   -0.1851 C   0  0  0  0  0  0  0  0  0  0  0  0
   -3.3875    1.8661    0.8703 C   0  0  0  0  0  0  0  0  0  0  0  0
   -4.0573    3.0746    0.6176 C   0  0  0  0  0  0  0  0  0  0  0  0
   -4.1440    3.5757   -0.6892 C   0  0  0  0  0  0  0  0  0  0  0  0
   -3.5409    2.8727   -1.7464 C   0  0  0  0  0  0  0  0  0  0  0  0
   -2.8596    1.6752   -1.4947 C   0  0  0  0  0  0  0  0  0  0  0  0
   -3.2616   -1.6087   -0.5804 C   0  0  0  0  0  0  0  0  0  0  0  0
   -4.5992   -1.4152   -0.1730 C   0  0  0  0  0  0  0  0  0  0  0  0
   -5.6027   -2.2994   -0.5926 C   0  0  0  0  0  0  0  0  0  0  0  0
   -5.2828   -3.3810   -1.4315 C   0  0  0  0  0  0  0  0  0  0  0  0
   -3.9570   -3.5712   -1.8488 C   0  0  0  0  0  0  0  0  0  0  0  0
   -2.9493   -2.6887   -1.4259 C   0  0  0  0  0  0  0  0  0  0  0  0
    3.0488   -0.9460   -2.3734 H   0  0  0  0  0  0  0  0  0  0  0  0
    5.2912   -1.9634   -2.0428 H   0  0  0  0  0  0  0  0  0  0  0  0
    5.7530   -3.3778   -0.0166 H   0  0  0  0  0  0  0  0  0  0  0  0
    3.9359   -3.7986    1.6352 H   0  0  0  0  0  0  0  0  0  0  0  0
    0.5999   -3.5438    0.9264 H   0  0  0  0  0  0  0  0  0  0  0  0
    0.7446   -3.7170    3.4574 H   0  0  0  0  0  0  0  0  0  0  0  0
    2.0221   -4.6043    2.5905 H   0  0  0  0  0  0  0  0  0  0  0  0
    2.4204   -3.0653    3.3927 H   0  0  0  0  0  0  0  0  0  0  0  0
    1.6194   -1.1312    3.3983 H   0  0  0  0  0  0  0  0  0  0  0  0
    0.2997   -0.0138    3.0118 H   0  0  0  0  0  0  0  0  0  0  0  0
    2.4183    1.1282    2.5768 H   0  0  0  0  0  0  0  0  0  0  0  0
    2.9963   -0.1985    1.5179 H   0  0  0  0  0  0  0  0  0  0  0  0
    1.8459    1.1978   -2.4958 H   0  0  0  0  0  0  0  0  0  0  0  0
    3.6376    2.3413   -3.8512 H   0  0  0  0  0  0  0  0  0  0  0  0
    5.4833    3.5767   -2.6861 H   0  0  0  0  0  0  0  0  0  0  0  0
    5.5206    3.6971   -0.1828 H   0  0  0  0  0  0  0  0  0  0  0  0
    3.7170    2.6087    1.1513 H   0  0  0  0  0  0  0  0  0  0  0  0
    0.5432    2.1758    3.0546 H   0  0  0  0  0  0  0  0  0  0  0  0
   -0.8186    4.1512    3.6825 H   0  0  0  0  0  0  0  0  0  0  0  0
   -1.7757    5.6457    1.9095 H   0  0  0  0  0  0  0  0  0  0  0  0
   -1.3777    5.1127   -0.5109 H   0  0  0  0  0  0  0  0  0  0  0  0
   -0.0434    3.1080   -1.1502 H   0  0  0  0  0  0  0  0  0  0  0  0
   -0.9101   -2.1248    3.2431 H   0  0  0  0  0  0  0  0  0  0  0  0
   -1.2477   -2.8410    1.6352 H   0  0  0  0  0  0  0  0  0  0  0  0
   -2.9120   -1.0443    2.2342 H   0  0  0  0  0  0  0  0  0  0  0  0
   -1.5917    0.1608    2.3369 H   0  0  0  0  0  0  0  0  0  0  0  0
   -3.3357    1.4883    1.9018 H   0  0  0  0  0  0  0  0  0  0  0  0
   -4.5137    3.6279    1.4526 H   0  0  0  0  0  0  0  0  0  0  0  0
   -4.6747    4.5200   -0.8845 H   0  0  0  0  0  0  0  0  0  0  0  0
   -3.5974    3.2646   -2.7736 H   0  0  0  0  0  0  0  0  0  0  0  0
   -2.3702    1.1286   -2.3168 H   0  0  0  0  0  0  0  0  0  0  0  0
   -4.8616   -0.5564    0.4652 H   0  0  0  0  0  0  0  0  0  0  0  0
   -6.6430   -2.1399   -0.2694 H   0  0  0  0  0  0  0  0  0  0  0  0
   -6.0723   -4.0721   -1.7646 H   0  0  0  0  0  0  0  0  0  0  0  0
   -3.7017   -4.4115   -2.5127 H   0  0  0  0  0  0  0  0  0  0  0  0
   -1.9015   -2.8216   -1.7406 H   0  0  0  0  0  0  0  0  0  0  0  0
  1 20  1  0  0  0  0
  1 13  1  0  0  0  0
  2 27  1  0  0  0  0
  3 26  1  0  0  0  0
  3 12  1  0  0  0  0
  4  9  1  0  0  0  0
  5  6  1  0  0  0  0
  5  4  2  0  0  0  0
  6  7  2  0  0  0  0
  7 42  1  0  0  0  0
  7  8  1  0  0  0  0
  8 43  1  0  0  0  0
  9  8  2  0  0  0  0
  9 10  1  0  0  0  0
 10 44  1  6  0  0  0
 10  3  1  0  0  0  0
 10 11  1  0  0  0  0
 11 47  1  0  0  0  0
 11 45  1  0  0  0  0
 12 49  1  0  0  0  0
 12 48  1  0  0  0  0
 13 12  1  0  0  0  0
 13 50  1  0  0  0  0
 14 19  1  0  0  0  0
 14  1  1  0  0  0  0
 15 14  2  0  0  0  0
 16 17  2  0  0  0  0
 16 15  1  0  0  0  0
 17 18  1  0  0  0  0
 18 55  1  0  0  0  0
 18 19  2  0  0  0  0
 19 56  1  0  0  0  0
 20 21  1  0  0  0  0
 21 22  2  0  0  0  0
 21 57  1  0  0  0  0
 22 58  1  0  0  0  0
 23 59  1  0  0  0  0
 23 22  1  0  0  0  0
 24 23  2  0  0  0  0
 25 24  1  0  0  0  0
 25 20  2  0  0  0  0
 26 62  1  0  0  0  0
 27 26  1  0  0  0  0
 27 64  1  0  0  0  0
 27 65  1  0  0  0  0
 28  2  1  0  0  0  0
 28 29  1  0  0  0  0
 29 66  1  0  0  0  0
 30 29  2  0  0  0  0
 30 67  1  0  0  0  0
 31 30  1  0  0  0  0
 32 33  1  0  0  0  0
 32 31  2  0  0  0  0
 33 28  2  0  0  0  0
 34 35  1  0  0  0  0
 34  2  1  0  0  0  0
 35 71  1  0  0  0  0
 36 72  1  0  0  0  0
 36 35  2  0  0  0  0
 37 36  1  0  0  0  0
 38 37  2  0  0  0  0
 38 39  1  0  0  0  0
 39 34  2  0  0  0  0
 40  5  1  0  0  0  0
 41  6  1  0  0  0  0
 46 11  1  0  0  0  0
 51 13  1  0  0  0  0
 52 15  1  0  0  0  0
 53 16  1  0  0  0  0
 54 17  1  0  0  0  0
 60 24  1  0  0  0  0
 61 25  1  0  0  0  0
 63 26  1  0  0  0  0
 68 31  1  0  0  0  0
 69 32  1  0  0  0  0
 70 33  1  0  0  0  0
 73 37  1  0  0  0  0
 74 38  1  0  0  0  0
 75 39  1  0  0  0  0
M  END
