2,3,5,6
q = -2.0, confidence = 0.832

 64 67  0  0  1  0  0  0  0  0999 V2000
    2.1203    2.7928   -1.6588 O   0  0  0  0  0  0  0  0  0  0  0  0
    1.1039   -1.5367    1.6900 O   0  5  0  0  0  0  0  0  0  0  0  0
    2.6772    0.6898    1.2594 N   0  0  0  0  0  0  0  0  0  0  0  0
    0.2135   -3.6034    1.8330 O   0  0  0  0  0  0  0  0  0  0  0  0
    0.7103    1.6817   -0.1434 N   0  0  0  0  0  2  0  0  0  0  0  0
   -0.8833   -0.4267    0.5529 N   0  0  0  0  0  2  0  0  0  0  0  0
    2.5698    1.5656    2.4561 C   0  0  0  0  0  0  0  0  0  0  0  0
    3.5769    2.0099    2.6426 H   0  0  0  0  0  0  0  0  0  0  0  0
    1.8907    2.3977    2.1824 H   0  0  0  0  0  0  0  0  0  0  0  0
    2.0653    0.8552    3.7038 C   0  0  0  0  0  0  0  0  0  0  0  0
    1.9879    1.5839    4.5347 H   0  0  0  0  0  0  0  0  0  0  0  0
    2.7477    0.0448    4.0252 H   0  0  0  0  0  0  0  0  0  0  0  0
    1.0690    0.4030    3.5340 H   0  0  0  0  0  0  0  0  0  0  0  0
    3.6529   -0.4266    1.4153 C   0  0  0  0  0  0  0  0  0  0  0  0
    3.2164   -1.2186    2.0481 H   0  0  0  0  0  0  0  0  0  0  0  0
    4.5779   -0.0197    1.8872 H   0  0  0  0  0  0  0  0  0  0  0  0
    3.9048   -0.8621   -0.0209 C   0  0  0  0  0  0  0  0  0  0  0  0
    3.0514   -1.4750   -0.3717 H   0  0  0  0  0  0  0  0  0  0  0  0
    4.8204   -1.4758   -0.1214 H   0  0  0  0  0  0  0  0  0  0  0  0
    3.9806    0.4676   -0.7896 C   0  0  0  0  0  0  0  0  0  0  0  0
    3.6027    0.3885   -1.8256 H   0  0  0  0  0  0  0  0  0  0  0  0
    5.0228    0.8378   -0.8453 H   0  0  0  0  0  0  0  0  0  0  0  0
    3.1230    1.4521    0.0477 C   0  0  1  0  0  0  0  0  0  0  0  0
    3.7488    2.3164    0.3650 H   0  0  0  0  0  0  0  0  0  0  0  0
    1.9296    2.0555   -0.6930 C   0  0  0  0  0  0  0  0  0  0  0  0
   -0.4706    2.3537   -0.4151 C   0  0  2  0  0  3  0  0  0  0  0  0
   -0.4681    3.6840   -0.9285 C   0  0  0  0  0  0  0  0  0  0  0  0
    0.4923    4.1265   -1.2123 H   0  0  0  0  0  0  0  0  0  0  0  0
   -1.6444    4.4138   -1.0724 C   0  0  0  0  0  0  0  0  0  0  0  0
   -1.5890    5.4455   -1.4531 H   0  0  0  0  0  0  0  0  0  0  0  0
   -2.8905    3.8518   -0.7288 C   0  0  0  0  0  0  0  0  0  0  0  0
   -3.8187    4.4331   -0.8268 H   0  0  0  0  0  0  0  0  0  0  0  0
   -2.9285    2.5406   -0.2706 C   0  0  0  0  0  0  0  0  0  0  0  0
   -3.8945    2.0873   -0.0108 H   0  0  0  0  0  0  0  0  0  0  0  0
   -1.7501    1.7533   -0.1216 C   0  0  0  0  0  0  0  0  0  0  0  0
   -1.9032    0.3539    0.2531 C   0  0  0  0  0  0  0  0  0  0  0  0
   -3.2880   -0.2251    0.2578 C   0  0  0  0  0  0  0  0  0  0  0  0
   -3.9743   -0.4611   -0.9510 C   0  0  0  0  0  0  0  0  0  0  0  0
   -3.4914   -0.2015   -1.9054 H   0  0  0  0  0  0  0  0  0  0  0  0
   -5.2634   -1.0133   -0.9373 C   0  0  0  0  0  0  0  0  0  0  0  0
   -5.7877   -1.1982   -1.8869 H   0  0  0  0  0  0  0  0  0  0  0  0
   -5.8837   -1.3251    0.2831 C   0  0  0  0  0  0  0  0  0  0  0  0
   -6.8960   -1.7564    0.2929 H   0  0  0  0  0  0  0  0  0  0  0  0
   -5.2117   -1.0799    1.4910 C   0  0  0  0  0  0  0  0  0  0  0  0
   -5.6966   -1.3142    2.4506 H   0  0  0  0  0  0  0  0  0  0  0  0
   -3.9195   -0.5344    1.4800 C   0  0  0  0  0  0  0  0  0  0  0  0
   -3.3913   -0.3371    2.4255 H   0  0  0  0  0  0  0  0  0  0  0  0
   -1.0311   -1.8830    0.6818 C   0  0  1  0  0  0  0  0  0  0  0  0
   -1.9642   -2.1473    1.2176 H   0  0  0  0  0  0  0  0  0  0  0  0
   -1.0766   -2.5769   -0.7047 C   0  0  0  0  0  0  0  0  0  0  0  0
   -1.1374   -3.6625   -0.4910 H   0  0  0  0  0  0  0  0  0  0  0  0
   -2.0157   -2.2804   -1.2139 H   0  0  0  0  0  0  0  0  0  0  0  0
    0.1137   -2.2803   -1.5853 C   0  0  0  0  0  0  0  0  0  0  0  0
    0.1890   -1.0808   -2.3264 C   0  0  0  0  0  0  0  0  0  0  0  0
   -0.6356   -0.3534   -2.2734 H   0  0  0  0  0  0  0  0  0  0  0  0
    1.2977   -0.8030   -3.1389 C   0  0  0  0  0  0  0  0  0  0  0  0
    1.3399    0.1454   -3.6958 H   0  0  0  0  0  0  0  0  0  0  0  0
    2.3503   -1.7287   -3.2315 C   0  0  0  0  0  0  0  0  0  0  0  0
    3.2163   -1.5186   -3.8778 H   0  0  0  0  0  0  0  0  0  0  0  0
    2.2930   -2.9209   -2.4921 C   0  0  0  0  0  0  0  0  0  0  0  0
    3.1170   -3.6482   -2.5531 H   0  0  0  0  0  0  0  0  0  0  0  0
    1.1875   -3.1894   -1.6694 C   0  0  0  0  0  0  0  0  0  0  0  0
    1.1510   -4.1156   -1.0751 H   0  0  0  0  0  0  0  0  0  0  0  0
    0.1631   -2.4313    1.4845 C   0  0  0  0  0  0  0  0  0  0  0  0
  1 25  2  0  0  0  0
  3 14  1  0  0  0  0
  3  7  1  0  0  0  0
  6 48  1  0  0  0  0
  7  8  1  0  0  0  0
  7 10  1  0  0  0  0
  9  7  1  0  0  0  0
 10 12  1  0  0  0  0
 10 11  1  0  0  0  0
 13 10  1  0  0  0  0
 14 16  1  0  0  0  0
 14 15  1  0  0  0  0
 17 14  1  0  0  0  0
 18 17  1  0  0  0  0
 19 17  1  0  0  0  0
 20 17  1  0  0  0  0
 20 23  1  0  0  0  0
 21 20  1  0  0  0  0
 22 20  1  0  0  0  0
 23 24  1  1  0  0  0
 23  3  1  0  0  0  0
 25  5  1  0  0  0  0
 25 23  1  0  0  0  0
 26  5  1  1  0  0  0
 26 35  1  0  0  0  0
 27 26  1  0  0  0  0
 28 27  1  0  0  0  0
 29 27  2  0  0  0  0
 29 31  1  0  0  0  0
 30 29  1  0  0  0  0
 31 33  2  0  0  0  0
 32 31  1  0  0  0  0
 33 35  1  0  0  0  0
 33 34  1  0  0  0  0
 35 36  2  0  0  0  0
 36 37  1  0  0  0  0
 36  6  1  0  0  0  0
 37 46  1  0  0  0  0
 38 40  1  0  0  0  0
 38 37  2  0  0  0  0
 39 38  1  0  0  0  0
 40 42  2  0  0  0  0
 41 40  1  0  0  0  0
 42 43  1  0  0  0  0
 42 44  1  0  0  0  0
 44 45  1  0  0  0  0
 46 44  2  0  0  0  0
 46 47  1  0  0  0  0
 48 49  1  1  0  0  0
 48 64  1  0  0  0  0
 50 51  1  0  0  0  0
 50 48  1  0  0  0  0
 52 50  1  0  0  0  0
 53 50  1  0  0  0  0
 54 55  1  0  0  0  0
 54 53  2  0  0  0  0
 56 54  1  0  0  0  0
 57 56  1  0  0  0  0
 58 56  2  0  0  0  0
 58 60  1  0  0  0  0
 59 58  1  0  0  0  0
 60 62  2  0  0  0  0
 61 60  1  0  0  0  0
 62 53  1  0  0  0  0
 62 63  1  0  0  0  0
 64  2  1  0  0  0  0
 64  4  2  0  0  0  0
M  CHG  1   2  -1
M  END
