1,5,6,7
q = -2.0, confidence = 0.716

 36 35  0  0  0  0  0  0  0  0999 V2000
    0.9376   -1.5625   -0.1015 O   0  0  0  0  0  1  0  0  0  0  0  0
    2.7278   -2.7464   -0.2029 O   0  5  0  0  0  0  0  0  0  0  0  0
   -1.2849   -2.7347   -0.0656 O   0  0  0  0  0  1  0  0  0  0  0  0
    2.2657   -1.6130   -0.0951 N   0  3  0  0  0  3  0  0  0  0  0  0
    1.2367    1.1790   -0.0399 N   0  0  0  0  0  2  0  0  0  0  0  0
   -1.7750    1.0118    0.0094 N   0  0  0  0  0  2  0  0  0  0  0  0
   -1.6278   -1.5676   -0.0294 N   0  0  0  0  0  2  0  0  0  0  0  0
    3.0502   -0.4883    0.0413 C   0  0  0  0  0  0  0  0  0  0  0  0
    2.5125    0.8283    0.1773 C   0  0  0  0  0  0  0  0  0  0  0  0
    0.8774    2.5978    0.0074 C   0  0  0  0  0  0  0  0  0  0  0  0
   -0.4183    2.9347   -0.7238 C   0  0  0  0  0  0  0  0  0  0  0  0
   -1.6876    2.4602   -0.0236 C   0  0  0  0  0  0  0  0  0  0  0  0
   -2.9185    0.3636    0.1117 C   0  0  0  0  0  0  0  0  0  0  0  0
   -2.8732   -1.0821    0.0987 C   0  0  0  0  0  0  0  0  0  0  0  0
    4.5244   -0.7842    0.0271 C   0  0  0  0  0  0  0  0  0  0  0  0
    3.5026    1.9077    0.5606 C   0  0  0  0  0  0  0  0  0  0  0  0
   -4.2292    1.0819    0.2322 C   0  0  0  0  0  0  0  0  0  0  0  0
   -4.0476   -2.0055    0.1981 C   0  0  0  0  0  0  0  0  0  0  0  0
    0.8158    2.9538    1.0632 H   0  0  0  0  0  0  0  0  0  0  0  0
    1.6857    3.1860   -0.4732 H   0  0  0  0  0  0  0  0  0  0  0  0
   -0.4762    4.0379   -0.8131 H   0  0  0  0  0  0  0  0  0  0  0  0
   -0.3843    2.5349   -1.7599 H   0  0  0  0  0  0  0  0  0  0  0  0
   -1.7185    2.8579    1.0180 H   0  0  0  0  0  0  0  0  0  0  0  0
   -2.5711    2.8770   -0.5520 H   0  0  0  0  0  0  0  0  0  0  0  0
    5.1067    0.0480   -0.4055 H   0  0  0  0  0  0  0  0  0  0  0  0
    4.9188   -1.0027    1.0430 H   0  0  0  0  0  0  0  0  0  0  0  0
    4.7068   -1.6895   -0.5811 H   0  0  0  0  0  0  0  0  0  0  0  0
    3.0658    2.5922    1.3120 H   0  0  0  0  0  0  0  0  0  0  0  0
    4.4245    1.4827    0.9876 H   0  0  0  0  0  0  0  0  0  0  0  0
    3.7891    2.5222   -0.3200 H   0  0  0  0  0  0  0  0  0  0  0  0
   -5.0719    0.3854    0.3734 H   0  0  0  0  0  0  0  0  0  0  0  0
   -4.2095    1.7915    1.0841 H   0  0  0  0  0  0  0  0  0  0  0  0
   -4.4267    1.6807   -0.6823 H   0  0  0  0  0  0  0  0  0  0  0  0
   -4.7535   -1.8532   -0.6441 H   0  0  0  0  0  0  0  0  0  0  0  0
   -3.7040   -3.0547    0.1745 H   0  0  0  0  0  0  0  0  0  0  0  0
   -4.6057   -1.8448    1.1433 H   0  0  0  0  0  0  0  0  0  0  0  0
  1  4  1  0  0  0  0
  2  4  1  0  0  0  0
  3  7  1  0  0  0  0
  4  8  1  0  0  0  0
  5 10  1  0  0  0  0
  5  9  1  0  0  0  0
  6 13  1  0  0  0  0
  7 14  1  0  0  0  0
  8  9  2  0  0  0  0
  9 16  1  0  0  0  0
 10 19  1  0  0  0  0
 11 12  1  0  0  0  0
 11 10  1  0  0  0  0
 12  6  1  0  0  0  0
 12 23  1  0  0  0  0
 13 17  1  0  0  0  0
 14 13  2  0  0  0  0
 14 18  1  0  0  0  0
 15  8  1  0  0  0  0
 15 26  1  0  0  0  0
 16 29  1  0  0  0  0
 16 28  1  0  0  0  0
 17 31  1  0  0  0  0
 17 32  1  0  0  0  0
 18 36  1  0  0  0  0
 20 10  1  0  0  0  0
 21 11  1  0  0  0  0
 22 11  1  0  0  0  0
 24 12  1  0  0  0  0
 25 15  1  0  0  0  0
 27 15  1  0  0  0  0
 30 16  1  0  0  0  0
 33 17  1  0  0  0  0
 34 18  1  0  0  0  0
 35 18  1  0  0  0  0
M  CHG  2   2  -1   4   1
M  END
