2,5,6,7
q = -2.0, confidence = 0.828

 78 83  0  0  1  0  0  0  0  0999 V2000
   -5.4666    4.3755   -0.4472 Cl  0  0  0  0  0  0  0  0  0  0  0  0
    0.9190   -1.6015   -0.5426 O   0  5  0  0  0  0  0  0  0  0  0  0
    0.2583   -3.5512   -1.4673 O   0  0  0  0  0  0  0  0  0  0  0  0
    0.5950    3.2445    2.3365 O   0  0  0  0  0  0  0  0  0  0  0  0
   -1.4211   -0.5789   -0.3673 N   0  0  0  0  0  2  0  0  0  0  0  0
   -0.2936    1.6314    0.8583 N   0  0  0  0  0  2  0  0  0  0  0  0
    2.0373    0.4094    0.6545 N   0  0  0  0  0  0  0  0  0  0  0  0
    0.0211   -2.4763   -0.9414 C   0  0  0  0  0  0  0  0  0  0  0  0
   -1.4319   -2.0243   -0.6250 C   0  0  1  0  0  0  0  0  0  0  0  0
   -2.0589   -2.2615   -1.5075 H   0  0  0  0  0  0  0  0  0  0  0  0
   -1.9474   -2.8207    0.5641 C   0  0  0  0  0  0  0  0  0  0  0  0
   -1.9586   -2.2842    1.8655 C   0  0  0  0  0  0  0  0  0  0  0  0
   -1.6235   -1.2484    2.0287 H   0  0  0  0  0  0  0  0  0  0  0  0
   -2.4098   -3.0580    2.9463 C   0  0  0  0  0  0  0  0  0  0  0  0
   -2.4223   -2.6246    3.9581 H   0  0  0  0  0  0  0  0  0  0  0  0
   -2.8427   -4.3766    2.7388 C   0  0  0  0  0  0  0  0  0  0  0  0
   -3.2001   -4.9817    3.5857 H   0  0  0  0  0  0  0  0  0  0  0  0
   -2.8150   -4.9203    1.4437 C   0  0  0  0  0  0  0  0  0  0  0  0
   -3.1480   -5.9555    1.2730 H   0  0  0  0  0  0  0  0  0  0  0  0
   -2.3678   -4.1493    0.3624 C   0  0  0  0  0  0  0  0  0  0  0  0
   -2.3295   -4.5767   -0.6504 H   0  0  0  0  0  0  0  0  0  0  0  0
   -2.5238    0.1349   -0.4465 C   0  0  0  0  0  0  0  0  0  0  0  0
   -3.7783   -0.5391   -0.9211 C   0  0  0  0  0  0  0  0  0  0  0  0
   -4.6888   -1.0864    0.0036 C   0  0  0  0  0  0  0  0  0  0  0  0
   -4.4838   -1.0044    1.0806 H   0  0  0  0  0  0  0  0  0  0  0  0
   -5.8418   -1.7432   -0.4504 C   0  0  0  0  0  0  0  0  0  0  0  0
   -6.5450   -2.1725    0.2789 H   0  0  0  0  0  0  0  0  0  0  0  0
   -6.0955   -1.8563   -1.8262 C   0  0  0  0  0  0  0  0  0  0  0  0
   -7.0008   -2.3727   -2.1794 H   0  0  0  0  0  0  0  0  0  0  0  0
   -5.1934   -1.3076   -2.7515 C   0  0  0  0  0  0  0  0  0  0  0  0
   -5.3895   -1.3897   -3.8311 H   0  0  0  0  0  0  0  0  0  0  0  0
   -4.0374   -0.6520   -2.3024 C   0  0  0  0  0  0  0  0  0  0  0  0
   -3.3275   -0.2193   -3.0241 H   0  0  0  0  0  0  0  0  0  0  0  0
   -2.5771    1.5464   -0.0852 C   0  0  0  0  0  0  0  0  0  0  0  0
   -3.7892    2.2309   -0.3802 C   0  0  0  0  0  3  0  0  0  0  0  0
   -4.6028    1.6889   -0.8779 H   0  0  0  0  0  0  0  0  0  0  0  0
   -3.9668    3.5703   -0.0574 C   0  0  0  0  0  0  0  0  0  0  0  0
   -2.9333    4.2735    0.5885 C   0  0  0  0  0  0  0  0  0  0  0  0
   -3.0698    5.3332    0.8477 H   0  0  0  0  0  0  0  0  0  0  0  0
   -1.7414    3.6263    0.8996 C   0  0  0  0  0  0  0  0  0  0  0  0
   -0.9512    4.1698    1.4264 H   0  0  0  0  0  0  0  0  0  0  0  0
   -1.5041    2.2578    0.5728 C   0  0  0  0  0  0  0  0  0  0  0  0
    0.6713    2.2043    1.6856 C   0  0  0  0  0  0  0  0  0  0  0  0
    1.9409    1.3521    1.7801 C   0  0  0  0  0  0  0  0  0  0  0  0
    2.8086    2.0328    1.8661 H   0  0  0  0  0  0  0  0  0  0  0  0
    1.8902    0.7710    2.7239 H   0  0  0  0  0  0  0  0  0  0  0  0
    2.8481    0.7958   -0.5517 C   0  0  2  0  0  0  0  0  0  0  0  0
    2.4442    0.1426   -1.3535 H   0  0  0  0  0  0  0  0  0  0  0  0
    4.3478    0.3841   -0.4240 C   0  0  2  0  0  0  0  0  0  0  0  0
    5.0317    0.6103   -1.7983 C   0  0  0  0  0  0  0  0  0  0  0  0
    4.4687    0.0589   -2.5829 H   0  0  0  0  0  0  0  0  0  0  0  0
    4.9929    1.6863   -2.0673 H   0  0  0  0  0  0  0  0  0  0  0  0
    6.5000    0.1510   -1.7727 C   0  0  2  0  0  0  0  0  0  0  0  0
    6.9528    0.3342   -2.7702 H   0  0  0  0  0  0  0  0  0  0  0  0
    6.5645   -1.3499   -1.4400 C   0  0  0  0  0  0  0  0  0  0  0  0
    6.0323   -1.9379   -2.2179 H   0  0  0  0  0  0  0  0  0  0  0  0
    7.6196   -1.6978   -1.4353 H   0  0  0  0  0  0  0  0  0  0  0  0
    5.9210   -1.5907   -0.0628 C   0  0  2  0  0  0  0  0  0  0  0  0
    5.9530   -2.6732    0.1819 H   0  0  0  0  0  0  0  0  0  0  0  0
    4.4521   -1.1291   -0.0919 C   0  0  0  0  0  0  0  0  0  0  0  0
    4.0112   -1.3387    0.9095 H   0  0  0  0  0  0  0  0  0  0  0  0
    3.8587   -1.7193   -0.8223 H   0  0  0  0  0  0  0  0  0  0  0  0
    5.1408    1.1678    0.6496 C   0  0  0  0  0  0  0  0  0  0  0  0
    4.6962    0.9991    1.6535 H   0  0  0  0  0  0  0  0  0  0  0  0
    5.0874    2.2592    0.4486 H   0  0  0  0  0  0  0  0  0  0  0  0
    6.6152    0.7120    0.6752 C   0  0  1  0  0  0  0  0  0  0  0  0
    7.1582    1.2931    1.4505 H   0  0  0  0  0  0  0  0  0  0  0  0
    6.6826   -0.7902    1.0108 C   0  0  0  0  0  0  0  0  0  0  0  0
    6.2413   -0.9788    2.0136 H   0  0  0  0  0  0  0  0  0  0  0  0
    7.7414   -1.1233    1.0580 H   0  0  0  0  0  0  0  0  0  0  0  0
    7.2597    0.9566   -0.7018 C   0  0  0  0  0  0  0  0  0  0  0  0
    7.2350    2.0399   -0.9494 H   0  0  0  0  0  0  0  0  0  0  0  0
    8.3287    0.6548   -0.6810 H   0  0  0  0  0  0  0  0  0  0  0  0
    2.5771    2.2473   -0.9397 C   0  0  0  0  0  0  0  0  0  0  0  0
    2.9699    2.9761   -0.2039 H   0  0  0  0  0  0  0  0  0  0  0  0
    1.4877    2.4170   -1.0388 H   0  0  0  0  0  0  0  0  0  0  0  0
    3.0398    2.4747   -1.9171 H   0  0  0  0  0  0  0  0  0  0  0  0
    2.3840   -0.5089    0.9648 H   0  0  0  0  0  0  0  0  0  0  0  0
  1 37  1  0  0  0  0
  3  8  2  0  0  0  0
  6 43  1  0  0  0  0
  7 78  1  0  0  0  0
  7 44  1  0  0  0  0
  8  9  1  0  0  0  0
  8  2  1  0  0  0  0
  9 10  1  6  0  0  0
  9  5  1  0  0  0  0
  9 11  1  0  0  0  0
 11 12  1  0  0  0  0
 12 13  1  0  0  0  0
 12 14  2  0  0  0  0
 14 15  1  0  0  0  0
 16 14  1  0  0  0  0
 16 17  1  0  0  0  0
 18 16  2  0  0  0  0
 19 18  1  0  0  0  0
 20 11  2  0  0  0  0
 20 18  1  0  0  0  0
 21 20  1  0  0  0  0
 22  5  1  0  0  0  0
 22 34  2  0  0  0  0
 23 22  1  0  0  0  0
 23 24  1  0  0  0  0
 24 25  1  0  0  0  0
 26 24  2  0  0  0  0
 26 27  1  0  0  0  0
 28 26  1  0  0  0  0
 29 28  1  0  0  0  0
 30 32  1  0  0  0  0
 30 28  2  0  0  0  0
 31 30  1  0  0  0  0
 32 23  2  0  0  0  0
 33 32  1  0  0  0  0
 34 42  1  0  0  0  0
 35 34  1  0  0  0  0
 35 37  1  0  0  0  0
 36 35  1  0  0  0  0
 37 38  2  0  0  0  0
 38 39  1  0  0  0  0
 38 40  1  0  0  0  0
 40 41  1  0  0  0  0
 42  6  1  0  0  0  0
 42 40  2  0  0  0  0
 43 44  1  0  0  0  0
 43  4  2  0  0  0  0
 44 45  1  0  0  0  0
 44 46  1  0  0  0  0
 47 48  1  6  0  0  0
 47  7  1  0  0  0  0
 49 47  1  6  0  0  0
 49 60  1  0  0  0  0
 49 63  1  0  0  0  0
 50 53  1  0  0  0  0
 50 49  1  0  0  0  0
 51 50  1  0  0  0  0
 52 50  1  0  0  0  0
 53 54  1  6  0  0  0
 53 55  1  0  0  0  0
 53 71  1  0  0  0  0
 55 57  1  0  0  0  0
 55 58  1  0  0  0  0
 56 55  1  0  0  0  0
 58 59  1  1  0  0  0
 58 68  1  0  0  0  0
 60 58  1  0  0  0  0
 60 61  1  0  0  0  0
 62 60  1  0  0  0  0
 63 66  1  0  0  0  0
 63 64  1  0  0  0  0
 65 63  1  0  0  0  0
 66 68  1  0  0  0  0
 66 67  1  1  0  0  0
 68 70  1  0  0  0  0
 68 69  1  0  0  0  0
 71 73  1  0  0  0  0
 71 66  1  0  0  0  0
 72 71  1  0  0  0  0
 74 47  1  0  0  0  0
 74 75  1  0  0  0  0
 76 74  1  0  0  0  0
 77 74  1  0  0  0  0
M  CHG  1   2  -1
M  END
