3,5,6,7
q = -2.0, confidence = 0.804

 58 61  0  0  1  0  0  0  0  0999 V2000
   -3.5586    2.0541   -1.1626 F   0  0  0  0  0  0  0  0  0  0  0  0
   -2.5196    1.6960    2.3317 O   0  0  0  0  0  0  0  0  0  0  0  0
   -0.5910   -2.7051   -0.6390 O   0  5  0  0  0  0  0  0  0  0  0  0
    0.8684   -4.3421   -1.1660 O   0  0  0  0  0  0  0  0  0  0  0  0
   -2.6593   -1.0959   -0.0137 N   0  0  0  0  0  0  0  0  0  0  0  0
   -0.9147    0.6445    0.9771 N   0  0  0  0  0  2  0  0  0  0  0  0
    1.1325   -1.0397    0.2360 N   0  0  0  0  0  2  0  0  0  0  0  0
   -3.2275   -2.4414    0.3062 C   0  0  0  0  0  0  0  0  0  0  0  0
   -2.5915   -3.2170   -0.1571 H   0  0  0  0  0  0  0  0  0  0  0  0
   -4.2587   -2.4992   -0.1134 H   0  0  0  0  0  0  0  0  0  0  0  0
   -3.2694   -2.4454    1.8261 C   0  0  0  0  0  0  0  0  0  0  0  0
   -3.8992   -3.2599    2.2324 H   0  0  0  0  0  0  0  0  0  0  0  0
   -2.2416   -2.5780    2.2243 H   0  0  0  0  0  0  0  0  0  0  0  0
   -3.8132   -1.0437    2.1340 C   0  0  0  0  0  0  0  0  0  0  0  0
   -3.5406   -0.6510    3.1318 H   0  0  0  0  0  0  0  0  0  0  0  0
   -4.9195   -1.0437    2.0714 H   0  0  0  0  0  0  0  0  0  0  0  0
   -3.2239   -0.1527    1.0116 C   0  0  1  0  0  0  0  0  0  0  0  0
   -4.0163    0.4731    0.5524 H   0  0  0  0  0  0  0  0  0  0  0  0
   -2.1760    0.8365    1.5215 C   0  0  0  0  0  0  0  0  0  0  0  0
    0.0576    1.6338    1.0084 C   0  0  0  0  0  0  0  0  0  0  0  0
   -0.2720    2.9928    1.2910 C   0  0  0  0  0  0  0  0  0  0  0  0
   -1.3043    3.2262    1.5690 H   0  0  0  0  0  0  0  0  0  0  0  0
    0.6781    4.0076    1.2292 C   0  0  0  0  0  0  0  0  0  0  0  0
    0.3660    5.0427    1.4384 H   0  0  0  0  0  0  0  0  0  0  0  0
    2.0203    3.7233    0.9089 C   0  0  0  0  0  0  0  0  0  0  0  0
    2.7743    4.5226    0.8662 H   0  0  0  0  0  0  0  0  0  0  0  0
    2.3786    2.4048    0.6565 C   0  0  0  0  0  3  0  0  0  0  0  0
    3.4229    2.1662    0.4140 H   0  0  0  0  0  0  0  0  0  0  0  0
    1.4333    1.3394    0.6898 C   0  0  0  0  0  0  0  0  0  0  0  0
    1.9225   -0.0018    0.4107 C   0  0  0  0  0  0  0  0  0  0  0  0
    3.4052   -0.2121    0.3087 C   0  0  0  0  0  0  0  0  0  0  0  0
    4.0426   -0.1598   -0.9477 C   0  0  0  0  0  0  0  0  0  0  0  0
    3.4449    0.0561   -1.8468 H   0  0  0  0  0  0  0  0  0  0  0  0
    5.4247   -0.3758   -1.0480 C   0  0  0  0  0  0  0  0  0  0  0  0
    5.9147   -0.3317   -2.0323 H   0  0  0  0  0  0  0  0  0  0  0  0
    6.1803   -0.6474    0.1040 C   0  0  0  0  0  0  0  0  0  0  0  0
    7.2645   -0.8183    0.0244 H   0  0  0  0  0  0  0  0  0  0  0  0
    5.5502   -0.6984    1.3573 C   0  0  0  0  0  0  0  0  0  0  0  0
    6.1393   -0.9074    2.2631 H   0  0  0  0  0  0  0  0  0  0  0  0
    4.1680   -0.4807    1.4614 C   0  0  0  0  0  0  0  0  0  0  0  0
    3.6715   -0.5120    2.4431 H   0  0  0  0  0  0  0  0  0  0  0  0
    1.6747   -2.3780   -0.0072 C   0  0  0  0  0  0  0  0  0  0  0  0
    2.5949   -2.3629   -0.6230 H   0  0  0  0  0  0  0  0  0  0  0  0
    1.9527   -2.8551    0.9588 H   0  0  0  0  0  0  0  0  0  0  0  0
    0.6088   -3.2538   -0.6783 C   0  0  0  0  0  0  0  0  0  0  0  0
   -2.9094   -0.7181   -1.4402 C   0  0  0  0  0  0  0  0  0  0  0  0
   -2.6903   -1.6243   -2.0358 H   0  0  0  0  0  0  0  0  0  0  0  0
   -3.9855   -0.4641   -1.5609 H   0  0  0  0  0  0  0  0  0  0  0  0
   -2.0210    0.4063   -1.9153 C   0  0  0  0  0  0  0  0  0  0  0  0
   -2.3578    1.7542   -1.7146 C   0  0  0  0  0  0  0  0  0  0  0  0
   -1.4914    2.8055   -2.0320 C   0  0  0  0  0  0  0  0  0  0  0  0
   -1.8053    3.8376   -1.8235 H   0  0  0  0  0  0  0  0  0  0  0  0
   -0.2403    2.5061   -2.5868 C   0  0  0  0  0  0  0  0  0  0  0  0
    0.4576    3.3226   -2.8234 H   0  0  0  0  0  0  0  0  0  0  0  0
    0.1193    1.1701   -2.8313 C   0  0  0  0  0  0  0  0  0  0  0  0
    1.0958    0.9339   -3.2794 H   0  0  0  0  0  0  0  0  0  0  0  0
   -0.7636    0.1349   -2.4966 C   0  0  0  0  0  0  0  0  0  0  0  0
   -0.4852   -0.9148   -2.6735 H   0  0  0  0  0  0  0  0  0  0  0  0
  4 45  2  0  0  0  0
  5  8  1  0  0  0  0
  5 17  1  0  0  0  0
  6 20  1  0  0  0  0
  6 19  1  0  0  0  0
  7 30  1  0  0  0  0
  8 11  1  0  0  0  0
  9  8  1  0  0  0  0
 10  8  1  0  0  0  0
 11 14  1  0  0  0  0
 11 13  1  0  0  0  0
 11 12  1  0  0  0  0
 14 15  1  0  0  0  0
 16 14  1  0  0  0  0
 17 18  1  6  0  0  0
 17 19  1  0  0  0  0
 17 14  1  0  0  0  0
 19  2  2  0  0  0  0
 20 21  2  0  0  0  0
 21 22  1  0  0  0  0
 23 21  1  0  0  0  0
 23 24  1  0  0  0  0
 25 23  2  0  0  0  0
 26 25  1  0  0  0  0
 27 29  1  0  0  0  0
 27 25  1  0  0  0  0
 28 27  1  0  0  0  0
 29 20  1  0  0  0  0
 30 29  2  0  0  0  0
 31 30  1  0  0  0  0
 31 40  1  0  0  0  0
 32 31  2  0  0  0  0
 33 32  1  0  0  0  0
 34 32  1  0  0  0  0
 34 36  2  0  0  0  0
 35 34  1  0  0  0  0
 36 38  1  0  0  0  0
 37 36  1  0  0  0  0
 38 40  2  0  0  0  0
 38 39  1  0  0  0  0
 40 41  1  0  0  0  0
 42  7  1  0  0  0  0
 42 44  1  0  0  0  0
 43 42  1  0  0  0  0
 45  3  1  0  0  0  0
 45 42  1  0  0  0  0
 46  5  1  0  0  0  0
 47 46  1  0  0  0  0
 48 46  1  0  0  0  0
 49 50  1  0  0  0  0
 49 46  1  0  0  0  0
 50  1  1  0  0  0  0
 51 52  1  0  0  0  0
 51 50  2  0  0  0  0
 53 51  1  0  0  0  0
 54 53  1  0  0  0  0
 55 53  2  0  0  0  0
 55 57  1  0  0  0  0
 56 55  1  0  0  0  0
 57 49  2  0  0  0  0
 58 57  1  0  0  0  0
M  CHG  1   3  -1
M  END
