1,4,23,24
q = -2.0, confidence = 0.81

 73 76  0  0  1  0  0  0  0  0999 V2000
   -0.5715   -1.3978    1.7861 O   0  5  0  0  0  0  0  0  0  0  0  0
    3.1915   -1.5668   -2.4946 O   0  0  0  0  0  0  0  0  0  0  0  0
   -5.9896   -1.3956   -0.6022 O   0  0  0  0  0  0  0  0  0  0  0  0
    1.7353   -0.4442   -1.0128 N   0  0  0  0  0  2  0  0  0  0  0  0
   -1.6121   -0.6141    1.9600 C   0  0  0  0  0  0  0  0  0  0  0  0
    0.0817    1.8435   -0.1061 C   0  0  0  0  0  0  0  0  0  0  0  0
    1.8614    3.3056   -0.9684 C   0  0  0  0  0  0  0  0  0  0  0  0
    3.7856    2.4701   -2.1424 C   0  0  0  0  0  0  0  0  0  0  0  0
    2.1402    0.8634   -1.2561 C   0  0  1  0  0  3  0  0  0  0  0  0
    1.7992   -2.8567   -1.0453 C   0  0  2  0  0  0  0  0  0  0  0  0
   -0.4718   -3.7960   -0.7667 C   0  0  0  0  0  0  0  0  0  0  0  0
    2.3738   -2.7500    1.4105 C   0  0  0  0  0  0  0  0  0  0  0  0
    2.7488   -0.3822    2.1969 C   0  0  0  0  0  0  0  0  0  0  0  0
    4.6433    0.9339    1.4275 C   0  0  0  0  0  0  0  0  0  0  0  0
    4.4147   -1.3884    0.7437 C   0  0  0  0  0  0  0  0  0  0  0  0
   -4.0804   -0.2009    0.1931 C   0  0  1  0  0  0  0  0  0  0  0  0
   -4.6358   -1.4099   -0.5501 C   0  0  0  0  0  0  0  0  0  0  0  0
   -0.7978    3.0510    0.0294 C   0  0  0  0  0  0  0  0  0  0  0  0
   -1.8046    4.7929    1.4087 C   0  0  0  0  0  0  0  0  0  0  0  0
   -2.3539    4.6502   -0.9543 C   0  0  0  0  0  0  0  0  0  0  0  0
   -2.4757   -0.7671    2.8178 O   0  0  0  0  0  0  0  0  0  0  0  0
   -3.9706   -2.3228   -1.0118 O   0  0  0  0  0  0  0  0  0  0  0  0
   -0.3459    0.6933    0.3625 N   0  0  0  0  0  2  0  0  0  0  0  0
    1.3172   -2.7020    0.3552 N   0  0  0  0  0  0  0  0  0  0  0  0
   -1.6973    0.5019    0.9010 C   0  0  1  0  0  0  0  0  0  0  0  0
    1.3719    1.9851   -0.7673 C   0  0  0  0  0  0  0  0  0  0  0  0
    3.0575    3.5605   -1.6299 C   0  0  0  0  0  0  0  0  0  0  0  0
    3.3363    1.1625   -1.9736 C   0  0  0  0  0  0  0  0  0  0  0  0
    2.3475   -1.5428   -1.5977 C   0  0  0  0  0  0  0  0  0  0  0  0
    0.5592   -3.3609   -1.8375 C   0  0  0  0  0  0  0  0  0  0  0  0
    0.3152   -3.7900    0.5398 C   0  0  0  0  0  0  0  0  0  0  0  0
    3.2153   -1.4978    1.4683 C   0  0  0  0  0  0  0  0  0  0  0  0
    3.4575    0.8268    2.1728 C   0  0  0  0  0  0  0  0  0  0  0  0
    5.1242   -0.1765    0.7194 C   0  0  0  0  0  0  0  0  0  0  0  0
   -2.6321    0.0621   -0.2465 C   0  0  0  0  0  0  0  0  0  0  0  0
   -4.9611    1.0518    0.1271 C   0  0  0  0  0  0  0  0  0  0  0  0
   -6.5923   -2.5421   -1.2129 C   0  0  0  0  0  0  0  0  0  0  0  0
   -0.9540    3.6852    1.2791 C   0  0  0  0  0  0  0  0  0  0  0  0
   -2.5105    5.2735    0.2939 C   0  0  0  0  0  0  0  0  0  0  0  0
   -1.4973    3.5474   -1.0888 C   0  0  0  0  0  0  0  0  0  0  0  0
    1.2689    4.1437   -0.5760 H   0  0  0  0  0  0  0  0  0  0  0  0
    4.7283    2.6411   -2.6855 H   0  0  0  0  0  0  0  0  0  0  0  0
    2.6179   -3.6083   -1.0828 H   0  0  0  0  0  0  0  0  0  0  0  0
    0.1545   -2.5558   -2.4804 H   0  0  0  0  0  0  0  0  0  0  0  0
   -1.3231   -3.0889   -0.7107 H   0  0  0  0  0  0  0  0  0  0  0  0
   -0.2903   -3.5750    1.4387 H   0  0  0  0  0  0  0  0  0  0  0  0
    1.8344   -2.8837    2.3682 H   0  0  0  0  0  0  0  0  0  0  0  0
    3.0804    1.6936    2.7362 H   0  0  0  0  0  0  0  0  0  0  0  0
    6.0510   -0.0981    0.1318 H   0  0  0  0  0  0  0  0  0  0  0  0
   -2.2046   -0.8582   -0.6923 H   0  0  0  0  0  0  0  0  0  0  0  0
   -4.0441   -0.5424    1.2561 H   0  0  0  0  0  0  0  0  0  0  0  0
   -1.9183    5.2820    2.3878 H   0  0  0  0  0  0  0  0  0  0  0  0
   -2.9010    5.0264   -1.8319 H   0  0  0  0  0  0  0  0  0  0  0  0
   -5.0704    1.4111   -0.9168 H   0  0  0  0  0  0  0  0  0  0  0  0
   -5.9723    0.8590    0.5304 H   0  0  0  0  0  0  0  0  0  0  0  0
   -7.6827   -2.3677   -1.1837 H   0  0  0  0  0  0  0  0  0  0  0  0
   -2.0888    1.4237    1.3731 H   0  0  0  0  0  0  0  0  0  0  0  0
    3.4150    4.5926   -1.7574 H   0  0  0  0  0  0  0  0  0  0  0  0
    3.9003    0.3232   -2.3906 H   0  0  0  0  0  0  0  0  0  0  0  0
    0.8575   -4.1910   -2.5052 H   0  0  0  0  0  0  0  0  0  0  0  0
   -0.9028   -4.7943   -0.9739 H   0  0  0  0  0  0  0  0  0  0  0  0
    0.8714   -4.7455    0.6822 H   0  0  0  0  0  0  0  0  0  0  0  0
    3.0048   -3.6512    1.2367 H   0  0  0  0  0  0  0  0  0  0  0  0
    1.8214   -0.4708    2.7837 H   0  0  0  0  0  0  0  0  0  0  0  0
    5.1890    1.8887    1.3932 H   0  0  0  0  0  0  0  0  0  0  0  0
    4.7852   -2.2497    0.1664 H   0  0  0  0  0  0  0  0  0  0  0  0
   -2.6090    0.8450   -1.0346 H   0  0  0  0  0  0  0  0  0  0  0  0
   -0.4017    3.3030    2.1513 H   0  0  0  0  0  0  0  0  0  0  0  0
   -3.1816    6.1393    0.3979 H   0  0  0  0  0  0  0  0  0  0  0  0
   -1.3624    3.0626   -2.0675 H   0  0  0  0  0  0  0  0  0  0  0  0
   -4.5031    1.8701    0.7184 H   0  0  0  0  0  0  0  0  0  0  0  0
   -6.2459   -2.6602   -2.2595 H   0  0  0  0  0  0  0  0  0  0  0  0
   -6.3335   -3.4666   -0.6582 H   0  0  0  0  0  0  0  0  0  0  0  0
  1  5  1  0  0  0  0
  2 29  2  0  0  0  0
  3 17  1  0  0  0  0
  5 21  2  0  0  0  0
  6 18  1  0  0  0  0
  6 23  1  0  0  0  0
  7 26  1  0  0  0  0
  7 41  1  0  0  0  0
  8 28  2  0  0  0  0
  8 27  1  0  0  0  0
  9  4  1  1  0  0  0
  9 26  1  0  0  0  0
 10 43  1  6  0  0  0
 10 24  1  0  0  0  0
 11 45  1  0  0  0  0
 11 31  1  0  0  0  0
 12 32  1  0  0  0  0
 12 47  1  0  0  0  0
 13 64  1  0  0  0  0
 14 33  2  0  0  0  0
 15 32  1  0  0  0  0
 16 51  1  1  0  0  0
 17 16  1  0  0  0  0
 18 38  1  0  0  0  0
 19 52  1  0  0  0  0
 20 39  2  0  0  0  0
 22 17  2  0  0  0  0
 23 25  1  0  0  0  0
 24 31  1  0  0  0  0
 24 12  1  0  0  0  0
 25 57  1  1  0  0  0
 25  5  1  0  0  0  0
 26  6  2  0  0  0  0
 27  7  2  0  0  0  0
 28  9  1  0  0  0  0
 29 10  1  0  0  0  0
 29  4  1  0  0  0  0
 30 10  1  0  0  0  0
 30 11  1  0  0  0  0
 31 62  1  0  0  0  0
 31 46  1  0  0  0  0
 32 13  2  0  0  0  0
 33 13  1  0  0  0  0
 33 48  1  0  0  0  0
 34 15  2  0  0  0  0
 34 14  1  0  0  0  0
 35 16  1  0  0  0  0
 35 25  1  0  0  0  0
 36 16  1  0  0  0  0
 36 55  1  0  0  0  0
 36 71  1  0  0  0  0
 37 56  1  0  0  0  0
 37 73  1  0  0  0  0
 37  3  1  0  0  0  0
 38 19  2  0  0  0  0
 38 68  1  0  0  0  0
 39 69  1  0  0  0  0
 39 19  1  0  0  0  0
 40 20  1  0  0  0  0
 40 18  2  0  0  0  0
 42  8  1  0  0  0  0
 44 30  1  0  0  0  0
 49 34  1  0  0  0  0
 50 35  1  0  0  0  0
 53 20  1  0  0  0  0
 54 36  1  0  0  0  0
 58 27  1  0  0  0  0
 59 28  1  0  0  0  0
 60 30  1  0  0  0  0
 61 11  1  0  0  0  0
 63 12  1  0  0  0  0
 65 14  1  0  0  0  0
 66 15  1  0  0  0  0
 67 35  1  0  0  0  0
 70 40  1  0  0  0  0
 72 37  1  0  0  0  0
M  CHG  1   1  -1
M  END
