5,7,8,9
q = -2.0, confidence = 0.852

 70 73  0  0  1  0  0  0  0  0999 V2000
    2.3765    0.1123    2.6346 Cl  0  0  0  0  0  0  0  0  0  0  0  0
    4.1999   -2.0683    1.1979 Cl  0  0  0  0  0  0  0  0  0  0  0  0
    5.1939    0.1602   -1.7048 Cl  0  0  0  0  0  0  0  0  0  0  0  0
   -0.5746   -3.3189   -2.4131 O   0  0  0  0  0  0  0  0  0  0  0  0
   -2.7451    0.2947    1.4230 O   0  5  0  0  0  0  0  0  0  0  0  0
   -3.3025    2.2813    2.3234 O   0  0  0  0  0  0  0  0  0  0  0  0
   -2.5169   -2.2029    0.4075 N   0  0  0  0  0  0  0  0  0  0  0  0
   -0.5727   -1.3068   -1.1742 N   0  0  0  0  0  2  0  0  0  0  0  0
   -0.9006    1.1929   -0.0523 N   0  0  0  0  0  2  0  0  0  0  0  0
    0.7216   -0.8778   -1.4454 C   0  0  2  0  0  3  0  0  0  0  0  0
    1.6425   -1.6791   -2.1850 C   0  0  0  0  0  0  0  0  0  0  0  0
    1.2568   -2.5896   -2.6538 H   0  0  0  0  0  0  0  0  0  0  0  0
    2.9935   -1.3605   -2.2860 C   0  0  0  0  0  0  0  0  0  0  0  0
    3.6782   -2.0232   -2.8343 H   0  0  0  0  0  0  0  0  0  0  0  0
    3.4872   -0.2017   -1.6623 C   0  0  0  0  0  0  0  0  0  0  0  0
    2.6096    0.6542   -1.0086 C   0  0  0  0  0  0  0  0  0  0  0  0
    3.0056    1.5633   -0.5418 H   0  0  0  0  0  0  0  0  0  0  0  0
    1.2192    0.3720   -0.9178 C   0  0  0  0  0  0  0  0  0  0  0  0
    0.3677    1.4083   -0.3347 C   0  0  0  0  0  0  0  0  0  0  0  0
    0.9768    2.7523   -0.0659 C   0  0  0  0  0  0  0  0  0  0  0  0
    1.1085    3.2079    1.2625 C   0  0  0  0  0  0  0  0  0  0  0  0
    0.7713    2.5657    2.0892 H   0  0  0  0  0  0  0  0  0  0  0  0
    1.6850    4.4582    1.5284 C   0  0  0  0  0  0  0  0  0  0  0  0
    1.7860    4.8001    2.5694 H   0  0  0  0  0  0  0  0  0  0  0  0
    2.1337    5.2672    0.4727 C   0  0  0  0  0  0  0  0  0  0  0  0
    2.5840    6.2490    0.6827 H   0  0  0  0  0  0  0  0  0  0  0  0
    2.0139    4.8161   -0.8516 C   0  0  0  0  0  0  0  0  0  0  0  0
    2.3701    5.4424   -1.6833 H   0  0  0  0  0  0  0  0  0  0  0  0
    1.4440    3.5638   -1.1201 C   0  0  0  0  0  0  0  0  0  0  0  0
    1.3583    3.2045   -2.1562 H   0  0  0  0  0  0  0  0  0  0  0  0
   -1.8337    2.2380    0.3790 C   0  0  1  0  0  0  0  0  0  0  0  0
   -1.2944    3.1136    0.7865 H   0  0  0  0  0  0  0  0  0  0  0  0
   -2.7408    2.7741   -0.7980 C   0  0  0  0  0  0  0  0  0  0  0  0
   -1.8612    3.2101   -1.9811 C   0  0  0  0  0  0  0  0  0  0  0  0
   -1.2925    2.3603   -2.4099 H   0  0  0  0  0  0  0  0  0  0  0  0
   -1.1427    3.9981   -1.6833 H   0  0  0  0  0  0  0  0  0  0  0  0
   -2.5019    3.6233   -2.7866 H   0  0  0  0  0  0  0  0  0  0  0  0
   -3.5146    3.9949   -0.2679 C   0  0  0  0  0  0  0  0  0  0  0  0
   -4.1938    4.3816   -1.0548 H   0  0  0  0  0  0  0  0  0  0  0  0
   -2.8184    4.8119    0.0122 H   0  0  0  0  0  0  0  0  0  0  0  0
   -4.1091    3.7387    0.6292 H   0  0  0  0  0  0  0  0  0  0  0  0
   -3.7249    1.6975   -1.2792 C   0  0  0  0  0  0  0  0  0  0  0  0
   -4.4360    1.4088   -0.4803 H   0  0  0  0  0  0  0  0  0  0  0  0
   -3.1819    0.7872   -1.6115 H   0  0  0  0  0  0  0  0  0  0  0  0
   -4.3134    2.0754   -2.1398 H   0  0  0  0  0  0  0  0  0  0  0  0
   -1.0514   -2.5415   -1.5836 C   0  0  0  0  0  0  0  0  0  0  0  0
   -2.3622   -2.9114   -0.8933 C   0  0  2  0  0  0  0  0  0  0  0  0
   -2.3487   -4.0110   -0.7247 H   0  0  0  0  0  0  0  0  0  0  0  0
   -3.6141   -2.5139   -1.7215 C   0  0  0  0  0  0  0  0  0  0  0  0
   -3.3409   -1.7935   -2.5168 H   0  0  0  0  0  0  0  0  0  0  0  0
   -4.0278   -3.4076   -2.2249 H   0  0  0  0  0  0  0  0  0  0  0  0
   -4.5994   -1.8842   -0.7076 C   0  0  0  0  0  0  0  0  0  0  0  0
   -5.6207   -2.3031   -0.7863 H   0  0  0  0  0  0  0  0  0  0  0  0
   -4.6764   -0.7931   -0.8636 H   0  0  0  0  0  0  0  0  0  0  0  0
   -3.9854   -2.1667    0.6598 C   0  0  0  0  0  0  0  0  0  0  0  0
   -4.1986   -1.3986    1.4257 H   0  0  0  0  0  0  0  0  0  0  0  0
   -4.2918   -3.1684    1.0398 H   0  0  0  0  0  0  0  0  0  0  0  0
   -1.8073   -2.8301    1.5640 C   0  0  0  0  0  0  0  0  0  0  0  0
   -2.2045   -2.3272    2.4668 H   0  0  0  0  0  0  0  0  0  0  0  0
   -2.0972   -3.9046    1.6095 H   0  0  0  0  0  0  0  0  0  0  0  0
   -0.3056   -2.6862    1.5209 C   0  0  0  0  0  0  0  0  0  0  0  0
    0.5107   -3.6486    0.9025 C   0  0  0  0  0  0  0  0  0  0  0  0
    0.0645   -4.5544    0.4658 H   0  0  0  0  0  0  0  0  0  0  0  0
    1.8948   -3.4538    0.8041 C   0  0  0  0  0  0  0  0  0  0  0  0
    2.5347   -4.1945    0.3056 H   0  0  0  0  0  0  0  0  0  0  0  0
    2.4880   -2.2979    1.3344 C   0  0  0  0  0  0  0  0  0  0  0  0
    1.6748   -1.3326    1.9708 C   0  0  0  0  0  0  0  0  0  0  0  0
    0.2908   -1.5313    2.0632 C   0  0  0  0  0  0  0  0  0  0  0  0
   -0.3251   -0.7729    2.5677 H   0  0  0  0  0  0  0  0  0  0  0  0
   -2.6977    1.6121    1.4973 C   0  0  0  0  0  0  0  0  0  0  0  0
  2 66  1  0  0  0  0
  3 15  1  0  0  0  0
  4 46  2  0  0  0  0
  5 70  1  0  0  0  0
  7 55  1  0  0  0  0
  7 58  1  0  0  0  0
  9 31  1  0  0  0  0
 10  8  1  1  0  0  0
 10 18  1  0  0  0  0
 11 10  1  0  0  0  0
 12 11  1  0  0  0  0
 13 11  2  0  0  0  0
 13 15  1  0  0  0  0
 14 13  1  0  0  0  0
 15 16  2  0  0  0  0
 16 18  1  0  0  0  0
 16 17  1  0  0  0  0
 18 19  2  0  0  0  0
 19 20  1  0  0  0  0
 19  9  1  0  0  0  0
 20 21  1  0  0  0  0
 21 23  2  0  0  0  0
 21 22  1  0  0  0  0
 23 24  1  0  0  0  0
 25 26  1  0  0  0  0
 25 23  1  0  0  0  0
 27 25  2  0  0  0  0
 28 27  1  0  0  0  0
 29 27  1  0  0  0  0
 29 20  2  0  0  0  0
 30 29  1  0  0  0  0
 31 32  1  1  0  0  0
 31 70  1  0  0  0  0
 33 38  1  0  0  0  0
 33 31  1  0  0  0  0
 34 36  1  0  0  0  0
 34 33  1  0  0  0  0
 35 34  1  0  0  0  0
 37 34  1  0  0  0  0
 38 40  1  0  0  0  0
 38 41  1  0  0  0  0
 39 38  1  0  0  0  0
 42 33  1  0  0  0  0
 42 43  1  0  0  0  0
 44 42  1  0  0  0  0
 45 42  1  0  0  0  0
 46  8  1  0  0  0  0
 46 47  1  0  0  0  0
 47 48  1  1  0  0  0
 47  7  1  0  0  0  0
 49 47  1  0  0  0  0
 49 52  1  0  0  0  0
 50 49  1  0  0  0  0
 51 49  1  0  0  0  0
 52 55  1  0  0  0  0
 53 52  1  0  0  0  0
 54 52  1  0  0  0  0
 55 57  1  0  0  0  0
 55 56  1  0  0  0  0
 58 60  1  0  0  0  0
 58 59  1  0  0  0  0
 61 58  1  0  0  0  0
 61 68  1  0  0  0  0
 62 61  2  0  0  0  0
 63 62  1  0  0  0  0
 64 62  1  0  0  0  0
 64 66  2  0  0  0  0
 65 64  1  0  0  0  0
 66 67  1  0  0  0  0
 67 68  2  0  0  0  0
 67  1  1  0  0  0  0
 68 69  1  0  0  0  0
 70  6  2  0  0  0  0
M  CHG  1   5  -1
M  END
