2,5,7,8
q = -2.0, confidence = 0.87

 36 37  0  0  1  0  0  0  0  0999 V2000
   -2.9132    2.8527   -0.0350 S   0  0  0  0  0  0  0  0  0  0  0  0
    1.7398   -1.1189    0.0009 O   0  0  0  0  0  1  0  0  0  0  0  0
   -3.7670   -0.0476    0.7482 O   0  0  0  0  0  0  0  0  0  0  0  0
   -3.3699   -0.1019    1.6417 H   0  0  0  0  0  0  0  0  0  0  0  0
    0.7150    1.4584    0.0459 N   0  0  0  0  0  2  0  0  0  0  0  0
   -0.2473    2.4406    0.0523 N   0  0  0  0  0  0  0  0  0  0  0  0
   -1.5316    0.5175    0.0699 N   0  0  0  0  0  2  0  0  0  0  0  0
   -0.8757   -1.8890   -0.0802 N   0  0  0  0  0  2  0  0  0  0  0  0
    1.9856    1.8157    0.0472 C   0  0  0  0  0  0  0  0  0  0  0  0
    2.1806    2.9032    0.0485 H   0  0  0  0  0  0  0  0  0  0  0  0
    3.0907    0.9068    0.0395 C   0  0  0  0  0  0  0  0  0  0  0  0
    2.9124   -0.5283    0.0101 C   0  0  2  0  0  3  0  0  0  0  0  0
    4.0824   -1.3428   -0.0116 C   0  0  0  0  0  0  0  0  0  0  0  0
    3.9359   -2.4328   -0.0365 H   0  0  0  0  0  0  0  0  0  0  0  0
    5.3577   -0.7860    0.0016 C   0  0  0  0  0  0  0  0  0  0  0  0
    6.2372   -1.4486   -0.0127 H   0  0  0  0  0  0  0  0  0  0  0  0
    5.5337    0.6181    0.0323 C   0  0  0  0  0  0  0  0  0  0  0  0
    6.5434    1.0534    0.0416 H   0  0  0  0  0  0  0  0  0  0  0  0
    4.4126    1.4389    0.0492 C   0  0  0  0  0  0  0  0  0  0  0  0
    4.5294    2.5343    0.0713 H   0  0  0  0  0  0  0  0  0  0  0  0
   -1.4432    1.8715    0.0214 C   0  0  0  0  0  0  0  0  0  0  0  0
   -2.7080   -0.2724   -0.1675 C   0  0  1  0  0  0  0  0  0  0  0  0
   -3.1685   -0.0497   -1.1618 H   0  0  0  0  0  0  0  0  0  0  0  0
   -2.2263   -1.7212   -0.1442 C   0  0  2  0  0  3  0  0  0  0  0  0
   -3.0949   -2.8161   -0.1584 C   0  0  0  0  0  0  0  0  0  0  0  0
   -4.1783   -2.6304   -0.1779 H   0  0  0  0  0  0  0  0  0  0  0  0
   -2.5596   -4.1128   -0.1336 C   0  0  0  0  0  0  0  0  0  0  0  0
   -3.2226   -4.9905   -0.1481 H   0  0  0  0  0  0  0  0  0  0  0  0
   -1.1646   -4.2706   -0.0884 C   0  0  0  0  0  0  0  0  0  0  0  0
   -0.7034   -5.2684   -0.0690 H   0  0  0  0  0  0  0  0  0  0  0  0
   -0.3511   -3.1346   -0.0572 C   0  0  0  0  0  0  0  0  0  0  0  0
    0.7491   -3.1673   -0.0090 H   0  0  0  0  0  0  0  0  0  0  0  0
   -2.1810    4.4886   -0.3533 C   0  0  0  0  0  0  0  0  0  0  0  0
   -3.0310    5.1962   -0.3901 H   0  0  0  0  0  0  0  0  0  0  0  0
   -1.6352    4.4943   -1.3150 H   0  0  0  0  0  0  0  0  0  0  0  0
   -1.4858    4.7608    0.4615 H   0  0  0  0  0  0  0  0  0  0  0  0
  1 21  1  0  0  0  0
  3  4  1  0  0  0  0
  5  9  1  0  0  0  0
  5  6  1  0  0  0  0
  8 31  1  0  0  0  0
  9 10  1  0  0  0  0
 11  9  2  0  0  0  0
 11 19  1  0  0  0  0
 12  2  1  6  0  0  0
 12 11  1  0  0  0  0
 13 15  2  0  0  0  0
 13 12  1  0  0  0  0
 14 13  1  0  0  0  0
 15 17  1  0  0  0  0
 16 15  1  0  0  0  0
 17 18  1  0  0  0  0
 17 19  2  0  0  0  0
 19 20  1  0  0  0  0
 21  6  2  0  0  0  0
 21  7  1  0  0  0  0
 22 23  1  6  0  0  0
 22  7  1  0  0  0  0
 22  3  1  0  0  0  0
 24 22  1  1  0  0  0
 24  8  1  0  0  0  0
 25 24  1  0  0  0  0
 25 27  2  0  0  0  0
 26 25  1  0  0  0  0
 27 29  1  0  0  0  0
 28 27  1  0  0  0  0
 29 30  1  0  0  0  0
 29 31  2  0  0  0  0
 31 32  1  0  0  0  0
 33  1  1  0  0  0  0
 33 36  1  0  0  0  0
 34 33  1  0  0  0  0
 35 33  1  0  0  0  0
M  END
