1,5,6,7
q = -2.0, confidence = 0.966

 76 80  0  0  1  0  0  0  0  0999 V2000
    0.5118    1.3955   -0.2360 O   0  5  0  0  0  0  0  0  0  0  0  0
   -3.5467   -0.7278    2.2355 O   0  0  0  0  0  0  0  0  0  0  0  0
    2.2822   -3.5269   -0.8339 O   0  0  0  0  0  0  0  0  0  0  0  0
    5.2107   -2.1861    0.2647 O   0  0  0  0  0  0  0  0  0  0  0  0
   -1.8960    0.2256    0.8621 N   0  0  0  0  0  2  0  0  0  0  0  0
   -1.0350   -2.3266    0.1418 N   0  0  0  0  0  0  0  0  0  0  0  0
    1.3163   -1.4095   -0.9135 N   0  0  0  0  0  2  0  0  0  0  0  0
    1.9832    3.6555   -0.6585 C   0  0  0  0  0  0  0  0  0  0  0  0
    2.1544    2.8208   -1.3546 H   0  0  0  0  0  0  0  0  0  0  0  0
    2.9062    4.7012   -0.5558 C   0  0  0  0  0  0  0  0  0  0  0  0
    3.8040    4.6981   -1.1919 H   0  0  0  0  0  0  0  0  0  0  0  0
    2.6932    5.7437    0.3629 C   0  0  0  0  0  0  0  0  0  0  0  0
    3.4249    6.5615    0.4482 H   0  0  0  0  0  0  0  0  0  0  0  0
    1.5534    5.7339    1.1827 C   0  0  0  0  0  0  0  0  0  0  0  0
    1.3969    6.5347    1.9209 H   0  0  0  0  0  0  0  0  0  0  0  0
    0.6158    4.6979    1.0737 C   0  0  0  0  0  0  0  0  0  0  0  0
   -0.2616    4.6787    1.7361 H   0  0  0  0  0  0  0  0  0  0  0  0
    0.8161    3.6538    0.1420 C   0  0  0  0  0  0  0  0  0  0  0  0
   -0.0936    2.4751    0.0511 C   0  0  0  0  0  0  0  0  0  0  0  0
   -1.5336    2.5943    0.2747 C   0  0  0  0  0  0  0  0  0  0  0  0
   -2.1251    3.8689    0.0228 C   0  0  0  0  0  3  0  0  0  0  0  0
   -1.4882    4.6665   -0.3826 H   0  0  0  0  0  0  0  0  0  0  0  0
   -3.4767    4.1132    0.2261 C   0  0  0  0  0  0  0  0  0  0  0  0
   -3.9041    5.0997   -0.0040 H   0  0  0  0  0  0  0  0  0  0  0  0
   -4.2858    3.0712    0.7262 C   0  0  0  0  0  0  0  0  0  0  0  0
   -5.3576    3.2456    0.9090 H   0  0  0  0  0  0  0  0  0  0  0  0
   -3.7592    1.8079    0.9718 C   0  0  0  0  0  0  0  0  0  0  0  0
   -4.3931    1.0023    1.3562 H   0  0  0  0  0  0  0  0  0  0  0  0
   -2.3873    1.5052    0.7201 C   0  0  0  0  0  0  0  0  0  0  0  0
   -2.5449   -0.8067    1.5302 C   0  0  0  0  0  0  0  0  0  0  0  0
   -1.8025   -2.1563    1.4119 C   0  0  0  0  0  0  0  0  0  0  0  0
   -1.0712   -2.1932    2.2453 H   0  0  0  0  0  0  0  0  0  0  0  0
   -2.5350   -2.9753    1.5622 H   0  0  0  0  0  0  0  0  0  0  0  0
   -1.9338   -2.8510   -0.9740 C   0  0  2  0  0  0  0  0  0  0  0  0
   -2.2388   -3.8621   -0.6165 H   0  0  0  0  0  0  0  0  0  0  0  0
   -1.1851   -3.0132   -2.2970 C   0  0  0  0  0  0  0  0  0  0  0  0
   -1.8969   -3.3845   -3.0587 H   0  0  0  0  0  0  0  0  0  0  0  0
   -0.3509   -3.7360   -2.2265 H   0  0  0  0  0  0  0  0  0  0  0  0
   -0.7646   -2.0502   -2.6425 H   0  0  0  0  0  0  0  0  0  0  0  0
   -3.2020   -2.0270   -1.1265 C   0  0  0  0  0  0  0  0  0  0  0  0
   -3.1936   -0.7813   -1.7880 C   0  0  0  0  0  0  0  0  0  0  0  0
   -2.2499   -0.3849   -2.1926 H   0  0  0  0  0  0  0  0  0  0  0  0
   -4.3678   -0.0270   -1.9055 C   0  0  0  0  0  0  0  0  0  0  0  0
   -4.3387    0.9519   -2.4067 H   0  0  0  0  0  0  0  0  0  0  0  0
   -5.5756   -0.5143   -1.3782 C   0  0  0  0  0  0  0  0  0  0  0  0
   -6.4968    0.0812   -1.4675 H   0  0  0  0  0  0  0  0  0  0  0  0
   -5.6015   -1.7603   -0.7368 C   0  0  0  0  0  0  0  0  0  0  0  0
   -6.5423   -2.1512   -0.3217 H   0  0  0  0  0  0  0  0  0  0  0  0
   -4.4207   -2.5085   -0.6133 C   0  0  0  0  0  0  0  0  0  0  0  0
   -4.4450   -3.4843   -0.1023 H   0  0  0  0  0  0  0  0  0  0  0  0
    0.1792   -3.1882    0.2829 C   0  0  0  0  0  0  0  0  0  0  0  0
   -0.0532   -4.2525    0.0719 H   0  0  0  0  0  0  0  0  0  0  0  0
    0.5282   -3.1204    1.3332 H   0  0  0  0  0  0  0  0  0  0  0  0
    1.3746   -2.7333   -0.5776 C   0  0  0  0  0  0  0  0  0  0  0  0
    2.3983   -0.7261   -1.4900 C   0  0  0  0  0  0  0  0  0  0  0  0
    2.1468    0.1096   -2.6024 C   0  0  0  0  0  0  0  0  0  0  0  0
    1.1156    0.1639   -2.9827 H   0  0  0  0  0  0  0  0  0  0  0  0
    3.1741    0.8389   -3.2107 C   0  0  0  0  0  0  0  0  0  0  0  0
    2.9481    1.4834   -4.0744 H   0  0  0  0  0  0  0  0  0  0  0  0
    4.4933    0.7270   -2.7354 C   0  0  0  0  0  0  0  0  0  0  0  0
    5.3106    1.2803   -3.2218 H   0  0  0  0  0  0  0  0  0  0  0  0
    4.7578   -0.1030   -1.6406 C   0  0  0  0  0  0  0  0  0  0  0  0
    5.7801   -0.2216   -1.2508 H   0  0  0  0  0  0  0  0  0  0  0  0
    3.7271   -0.8032   -0.9808 C   0  0  0  0  0  0  0  0  0  0  0  0
    4.1272   -1.6106    0.2257 C   0  0  0  0  0  0  0  0  0  0  0  0
    3.2249   -1.6219    1.4325 C   0  0  0  0  0  0  0  0  0  0  0  0
    2.4223   -0.5156    1.7745 C   0  0  0  0  0  0  0  0  0  0  0  0
    2.4241    0.3781    1.1327 H   0  0  0  0  0  0  0  0  0  0  0  0
    1.6232   -0.5518    2.9282 C   0  0  0  0  0  0  0  0  0  0  0  0
    1.0020    0.3184    3.1902 H   0  0  0  0  0  0  0  0  0  0  0  0
    1.6109   -1.6992    3.7394 C   0  0  0  0  0  0  0  0  0  0  0  0
    0.9776   -1.7307    4.6396 H   0  0  0  0  0  0  0  0  0  0  0  0
    2.4192   -2.8030    3.4064 C   0  0  0  0  0  0  0  0  0  0  0  0
    2.4159   -3.6999    4.0448 H   0  0  0  0  0  0  0  0  0  0  0  0
    3.2336   -2.7580    2.2669 C   0  0  0  0  0  0  0  0  0  0  0  0
    3.8786   -3.6029    1.9850 H   0  0  0  0  0  0  0  0  0  0  0  0
  1 19  1  0  0  0  0
  3 54  2  0  0  0  0
  5 30  1  0  0  0  0
  6 51  1  0  0  0  0
  6 31  1  0  0  0  0
  7 54  1  0  0  0  0
  8 10  2  0  0  0  0
  8 18  1  0  0  0  0
  9  8  1  0  0  0  0
 10 12  1  0  0  0  0
 11 10  1  0  0  0  0
 12 13  1  0  0  0  0
 12 14  2  0  0  0  0
 14 15  1  0  0  0  0
 16 14  1  0  0  0  0
 16 17  1  0  0  0  0
 18 16  2  0  0  0  0
 19 18  1  0  0  0  0
 19 20  2  0  0  0  0
 20 29  1  0  0  0  0
 21 23  1  0  0  0  0
 21 20  1  0  0  0  0
 22 21  1  0  0  0  0
 23 25  2  0  0  0  0
 24 23  1  0  0  0  0
 25 26  1  0  0  0  0
 25 27  1  0  0  0  0
 27 28  1  0  0  0  0
 29  5  1  0  0  0  0
 29 27  2  0  0  0  0
 30  2  2  0  0  0  0
 31 30  1  0  0  0  0
 31 33  1  0  0  0  0
 31 32  1  0  0  0  0
 34 35  1  1  0  0  0
 34  6  1  0  0  0  0
 36 38  1  0  0  0  0
 36 34  1  0  0  0  0
 37 36  1  0  0  0  0
 39 36  1  0  0  0  0
 40 34  1  0  0  0  0
 40 49  1  0  0  0  0
 41 40  2  0  0  0  0
 42 41  1  0  0  0  0
 43 41  1  0  0  0  0
 43 45  2  0  0  0  0
 44 43  1  0  0  0  0
 45 47  1  0  0  0  0
 46 45  1  0  0  0  0
 47 49  2  0  0  0  0
 47 48  1  0  0  0  0
 49 50  1  0  0  0  0
 51 53  1  0  0  0  0
 52 51  1  0  0  0  0
 54 51  1  0  0  0  0
 55 64  1  0  0  0  0
 55  7  1  0  0  0  0
 56 55  2  0  0  0  0
 57 56  1  0  0  0  0
 58 60  2  0  0  0  0
 58 56  1  0  0  0  0
 59 58  1  0  0  0  0
 60 62  1  0  0  0  0
 61 60  1  0  0  0  0
 62 63  1  0  0  0  0
 62 64  2  0  0  0  0
 64 65  1  0  0  0  0
 65  4  2  0  0  0  0
 65 66  1  0  0  0  0
 66 67  2  0  0  0  0
 66 75  1  0  0  0  0
 67 69  1  0  0  0  0
 68 67  1  0  0  0  0
 69 70  1  0  0  0  0
 69 71  2  0  0  0  0
 71 72  1  0  0  0  0
 73 71  1  0  0  0  0
 73 74  1  0  0  0  0
 75 73  2  0  0  0  0
 76 75  1  0  0  0  0
M  CHG  1   1  -1
M  END
