1,6,7,8
q = -2.0, confidence = 0.856

 71 75  0  0  1  0  0  0  0  0999 V2000
   -1.2448   -0.9964    1.5386 O   0  5  0  0  0  0  0  0  0  0  0  0
   -3.0072    0.2184    2.2728 O   0  0  0  0  0  0  0  0  0  0  0  0
   -3.6654   -1.4542   -1.4283 O   0  0  0  0  0  0  0  0  0  0  0  0
   -4.8289   -0.0390   -0.0806 O   0  0  0  0  0  0  0  0  0  0  0  0
    2.7938   -2.3884   -2.2705 O   0  0  0  0  0  0  0  0  0  0  0  0
   -0.3872    0.8246   -0.0187 N   0  0  0  0  0  2  0  0  0  0  0  0
    1.5211   -0.8624   -1.0015 N   0  0  0  0  0  2  0  0  0  0  0  0
    0.4894   -2.8215    0.4932 N   0  0  0  0  0  0  0  0  0  0  0  0
   -2.0855    0.0129    1.4966 C   0  0  0  0  0  0  0  0  0  0  0  0
   -1.7956    0.9041    0.2761 C   0  0  2  0  0  0  0  0  0  0  0  0
   -2.7559    0.7052   -0.9305 C   0  0  2  0  0  0  0  0  0  0  0  0
   -2.7727    1.9695   -0.1152 C   0  0  0  0  0  0  0  0  0  0  0  0
   -3.7862   -0.3758   -0.8633 C   0  0  0  0  0  0  0  0  0  0  0  0
   -5.7797   -1.0822    0.2257 C   0  0  0  0  0  0  0  0  0  0  0  0
   -6.8839   -1.1511   -0.8156 C   0  0  0  0  0  0  0  0  0  0  0  0
    0.4260    1.8219   -0.3056 C   0  0  0  0  0  0  0  0  0  0  0  0
    1.7854    1.5838   -0.7776 C   0  0  0  0  0  0  0  0  0  0  0  0
    2.2574    0.2930   -1.2312 C   0  0  1  0  0  3  0  0  0  0  0  0
    3.5391    0.2571   -1.8581 C   0  0  0  0  0  0  0  0  0  0  0  0
    4.3625    1.3785   -1.9152 C   0  0  0  0  0  0  0  0  0  0  0  0
    3.9495    2.6085   -1.3699 C   0  0  0  0  0  0  0  0  0  0  0  0
    2.6715    2.6969   -0.8299 C   0  0  0  0  0  0  0  0  0  0  0  0
   -0.0339    3.2296   -0.1075 C   0  0  0  0  0  0  0  0  0  0  0  0
   -0.1065    4.1393   -1.1832 C   0  0  0  0  0  0  0  0  0  0  0  0
   -0.5687    5.4462   -0.9720 C   0  0  0  0  0  0  0  0  0  0  0  0
   -0.9455    5.8615    0.3159 C   0  0  0  0  0  0  0  0  0  0  0  0
   -0.8594    4.9649    1.3933 C   0  0  0  0  0  0  0  0  0  0  0  0
   -0.4106    3.6539    1.1835 C   0  0  0  0  0  0  0  0  0  0  0  0
    1.9344   -2.1150   -1.4319 C   0  0  0  0  0  0  0  0  0  0  0  0
    1.1709   -3.2573   -0.7641 C   0  0  2  0  0  0  0  0  0  0  0  0
    0.0478   -3.8485   -1.6668 C   0  0  0  0  0  0  0  0  0  0  0  0
   -1.2470   -3.7048   -0.8449 C   0  0  0  0  0  0  0  0  0  0  0  0
   -0.7456   -3.6524    0.5906 C   0  0  0  0  0  0  0  0  0  0  0  0
    1.3206   -2.9097    1.7313 C   0  0  0  0  0  0  0  0  0  0  0  0
    2.3947   -1.8493    1.7928 C   0  0  0  0  0  0  0  0  0  0  0  0
    2.0871   -0.5801    2.3293 C   0  0  0  0  0  0  0  0  0  0  0  0
    3.0311    0.4552    2.2889 C   0  0  0  0  0  0  0  0  0  0  0  0
    4.2949    0.2354    1.7169 C   0  0  0  0  0  0  0  0  0  0  0  0
    4.6153   -1.0287    1.2016 C   0  0  0  0  0  0  0  0  0  0  0  0
    3.6712   -2.0676    1.2454 C   0  0  0  0  0  0  0  0  0  0  0  0
   -2.2176    0.7159   -1.8911 H   0  0  0  0  0  0  0  0  0  0  0  0
   -3.5978    2.0644    0.6088 H   0  0  0  0  0  0  0  0  0  0  0  0
   -2.4360    2.8937   -0.6006 H   0  0  0  0  0  0  0  0  0  0  0  0
   -6.1670   -0.8144    1.2276 H   0  0  0  0  0  0  0  0  0  0  0  0
   -5.2354   -2.0458    0.2924 H   0  0  0  0  0  0  0  0  0  0  0  0
   -7.6434   -1.9006   -0.5140 H   0  0  0  0  0  0  0  0  0  0  0  0
   -6.4734   -1.4525   -1.7990 H   0  0  0  0  0  0  0  0  0  0  0  0
   -7.3904   -0.1713   -0.9243 H   0  0  0  0  0  0  0  0  0  0  0  0
    3.8701   -0.6980   -2.2767 H   0  0  0  0  0  0  0  0  0  0  0  0
    5.3549    1.2849   -2.3833 H   0  0  0  0  0  0  0  0  0  0  0  0
    4.6096    3.4880   -1.3845 H   0  0  0  0  0  0  0  0  0  0  0  0
    2.3261    3.6557   -0.4215 H   0  0  0  0  0  0  0  0  0  0  0  0
    0.1928    3.8095   -2.1893 H   0  0  0  0  0  0  0  0  0  0  0  0
   -0.6344    6.1457   -1.8190 H   0  0  0  0  0  0  0  0  0  0  0  0
   -1.3056    6.8882    0.4805 H   0  0  0  0  0  0  0  0  0  0  0  0
   -1.1501    5.2866    2.4046 H   0  0  0  0  0  0  0  0  0  0  0  0
   -0.3579    2.9433    2.0220 H   0  0  0  0  0  0  0  0  0  0  0  0
    1.9230   -4.0418   -0.5314 H   0  0  0  0  0  0  0  0  0  0  0  0
   -0.0041   -3.3231   -2.6392 H   0  0  0  0  0  0  0  0  0  0  0  0
    0.2734   -4.9106   -1.8842 H   0  0  0  0  0  0  0  0  0  0  0  0
   -1.9531   -4.5417   -1.0086 H   0  0  0  0  0  0  0  0  0  0  0  0
   -1.7915   -2.7715   -1.0936 H   0  0  0  0  0  0  0  0  0  0  0  0
   -0.4571   -4.6652    0.9577 H   0  0  0  0  0  0  0  0  0  0  0  0
   -1.4401   -3.1814    1.3100 H   0  0  0  0  0  0  0  0  0  0  0  0
    1.7590   -3.9319    1.7908 H   0  0  0  0  0  0  0  0  0  0  0  0
    0.6165   -2.7815    2.5760 H   0  0  0  0  0  0  0  0  0  0  0  0
    1.0958   -0.4122    2.7780 H   0  0  0  0  0  0  0  0  0  0  0  0
    2.7767    1.4445    2.6985 H   0  0  0  0  0  0  0  0  0  0  0  0
    5.0267    1.0550    1.6641 H   0  0  0  0  0  0  0  0  0  0  0  0
    5.6026   -1.2067    0.7501 H   0  0  0  0  0  0  0  0  0  0  0  0
    3.9246   -3.0529    0.8239 H   0  0  0  0  0  0  0  0  0  0  0  0
  3 13  2  0  0  0  0
  4 14  1  0  0  0  0
  5 29  2  0  0  0  0
  8 33  1  0  0  0  0
  8 34  1  0  0  0  0
  9  1  1  0  0  0  0
  9  2  2  0  0  0  0
 10  6  1  6  0  0  0
 10  9  1  0  0  0  0
 11 41  1  6  0  0  0
 11 13  1  0  0  0  0
 11 12  1  0  0  0  0
 11 10  1  0  0  0  0
 12 10  1  0  0  0  0
 12 42  1  0  0  0  0
 13  4  1  0  0  0  0
 14 45  1  0  0  0  0
 14 44  1  0  0  0  0
 15 46  1  0  0  0  0
 15 14  1  0  0  0  0
 16 23  1  0  0  0  0
 16  6  1  0  0  0  0
 17 16  2  0  0  0  0
 18  7  1  1  0  0  0
 18 17  1  0  0  0  0
 19 18  1  0  0  0  0
 20 19  2  0  0  0  0
 20 21  1  0  0  0  0
 21 22  2  0  0  0  0
 22 17  1  0  0  0  0
 22 52  1  0  0  0  0
 23 28  1  0  0  0  0
 24 25  1  0  0  0  0
 24 23  2  0  0  0  0
 25 26  2  0  0  0  0
 26 55  1  0  0  0  0
 26 27  1  0  0  0  0
 27 56  1  0  0  0  0
 28 27  2  0  0  0  0
 28 57  1  0  0  0  0
 29  7  1  0  0  0  0
 29 30  1  0  0  0  0
 30 58  1  1  0  0  0
 30  8  1  0  0  0  0
 31 32  1  0  0  0  0
 31 30  1  0  0  0  0
 32 33  1  0  0  0  0
 33 63  1  0  0  0  0
 33 64  1  0  0  0  0
 34 65  1  0  0  0  0
 34 35  1  0  0  0  0
 34 66  1  0  0  0  0
 35 36  1  0  0  0  0
 36 67  1  0  0  0  0
 37 36  2  0  0  0  0
 37 68  1  0  0  0  0
 38 37  1  0  0  0  0
 39 40  1  0  0  0  0
 39 38  2  0  0  0  0
 40 35  2  0  0  0  0
 43 12  1  0  0  0  0
 47 15  1  0  0  0  0
 48 15  1  0  0  0  0
 49 19  1  0  0  0  0
 50 20  1  0  0  0  0
 51 21  1  0  0  0  0
 53 24  1  0  0  0  0
 54 25  1  0  0  0  0
 59 31  1  0  0  0  0
 60 31  1  0  0  0  0
 61 32  1  0  0  0  0
 62 32  1  0  0  0  0
 69 38  1  0  0  0  0
 70 39  1  0  0  0  0
 71 40  1  0  0  0  0
M  CHG  1   1  -1
M  END
