2,4,5,6
q = -2.0, confidence = 0.802

 64 67  0  0  1  0  0  0  0  0999 V2000
   -2.7899    1.7036    2.2681 O   0  0  0  0  0  0  0  0  0  0  0  0
   -0.7332   -2.4408   -0.9991 O   0  5  0  0  0  0  0  0  0  0  0  0
    0.6561   -4.1371   -1.4596 O   0  0  0  0  0  0  0  0  0  0  0  0
   -2.8140   -1.0746   -0.0547 N   0  0  0  0  0  0  0  0  0  0  0  0
   -1.1106    0.7041    0.9503 N   0  0  0  0  0  2  0  0  0  0  0  0
    1.0037   -0.8516   -0.0171 N   0  0  0  0  0  2  0  0  0  0  0  0
   -3.2667   -2.4803    0.1520 C   0  0  0  0  0  0  0  0  0  0  0  0
   -4.3577   -2.5347   -0.0717 H   0  0  0  0  0  0  0  0  0  0  0  0
   -2.7089   -3.1459   -0.5303 H   0  0  0  0  0  0  0  0  0  0  0  0
   -3.0008   -2.7085    1.6318 C   0  0  0  0  0  0  0  0  0  0  0  0
   -1.9155   -2.8832    1.7818 H   0  0  0  0  0  0  0  0  0  0  0  0
   -3.5424   -3.5877    2.0306 H   0  0  0  0  0  0  0  0  0  0  0  0
   -3.4465   -1.3812    2.2721 C   0  0  0  0  0  0  0  0  0  0  0  0
   -2.8472   -1.1036    3.1598 H   0  0  0  0  0  0  0  0  0  0  0  0
   -4.5031   -1.4338    2.5986 H   0  0  0  0  0  0  0  0  0  0  0  0
   -3.3034   -0.3225    1.1386 C   0  0  1  0  0  0  0  0  0  0  0  0
   -4.2931    0.1331    0.9188 H   0  0  0  0  0  0  0  0  0  0  0  0
   -2.3710    0.8259    1.5116 C   0  0  0  0  0  0  0  0  0  0  0  0
   -0.2000    1.7501    0.9395 C   0  0  0  0  0  0  0  0  0  0  0  0
   -0.5807    3.0761    1.3045 C   0  0  0  0  0  0  0  0  0  0  0  0
   -1.5981    3.2288    1.6754 H   0  0  0  0  0  0  0  0  0  0  0  0
    0.2963    4.1503    1.1991 C   0  0  0  0  0  0  0  0  0  0  0  0
   -0.0572    5.1570    1.4715 H   0  0  0  0  0  0  0  0  0  0  0  0
    1.6171    3.9563    0.7546 C   0  0  0  0  0  0  0  0  0  0  0  0
    2.3190    4.7987    0.6707 H   0  0  0  0  0  0  0  0  0  0  0  0
    2.0313    2.6671    0.4421 C   0  0  0  0  0  3  0  0  0  0  0  0
    3.0688    2.5100    0.1231 H   0  0  0  0  0  0  0  0  0  0  0  0
    1.1619    1.5393    0.5135 C   0  0  0  0  0  0  0  0  0  0  0  0
    1.7326    0.2231    0.2062 C   0  0  0  0  0  0  0  0  0  0  0  0
    3.2350    0.1695    0.2045 C   0  0  0  0  0  0  0  0  0  0  0  0
    3.9658    0.4546   -0.9665 C   0  0  0  0  0  0  0  0  0  0  0  0
    3.4255    0.6903   -1.8958 H   0  0  0  0  0  0  0  0  0  0  0  0
    5.3666    0.4259   -0.9513 C   0  0  0  0  0  0  0  0  0  0  0  0
    5.9273    0.6403   -1.8736 H   0  0  0  0  0  0  0  0  0  0  0  0
    6.0530    0.1210    0.2359 C   0  0  0  0  0  0  0  0  0  0  0  0
    7.1529    0.0926    0.2457 H   0  0  0  0  0  0  0  0  0  0  0  0
    5.3312   -0.1327    1.4124 C   0  0  0  0  0  0  0  0  0  0  0  0
    5.8631   -0.3535    2.3501 H   0  0  0  0  0  0  0  0  0  0  0  0
    3.9282   -0.0967    1.4004 C   0  0  0  0  0  0  0  0  0  0  0  0
    3.3613   -0.2709    2.3271 H   0  0  0  0  0  0  0  0  0  0  0  0
    1.5398   -2.2404   -0.2057 C   0  0  0  0  0  0  0  0  0  0  0  0
    0.4328   -3.0366   -0.9731 C   0  0  0  0  0  0  0  0  0  0  0  0
   -3.2642   -0.5399   -1.3750 C   0  0  0  0  0  0  0  0  0  0  0  0
   -3.0166   -1.3238   -2.1166 H   0  0  0  0  0  0  0  0  0  0  0  0
   -4.3714   -0.4197   -1.3483 H   0  0  0  0  0  0  0  0  0  0  0  0
   -2.5852    0.7558   -1.7500 C   0  0  0  0  0  0  0  0  0  0  0  0
   -1.3390    0.7220   -2.4119 C   0  0  0  0  0  0  0  0  0  0  0  0
   -0.9213   -0.2469   -2.7263 H   0  0  0  0  0  0  0  0  0  0  0  0
   -0.6379    1.9091   -2.6654 C   0  0  0  0  0  0  0  0  0  0  0  0
    0.3376    1.8704   -3.1733 H   0  0  0  0  0  0  0  0  0  0  0  0
   -1.1748    3.1441   -2.2672 C   0  0  0  0  0  0  0  0  0  0  0  0
   -0.6143    4.0734   -2.4474 H   0  0  0  0  0  0  0  0  0  0  0  0
   -2.4228    3.1877   -1.6294 C   0  0  0  0  0  0  0  0  0  0  0  0
   -2.8486    4.1519   -1.3141 H   0  0  0  0  0  0  0  0  0  0  0  0
   -3.1258    1.9986   -1.3764 C   0  0  0  0  0  0  0  0  0  0  0  0
   -4.0981    2.0391   -0.8606 H   0  0  0  0  0  0  0  0  0  0  0  0
    2.8347   -2.4247   -1.0071 C   0  0  0  0  0  0  0  0  0  0  0  0
    2.8274   -1.8231   -1.9353 H   0  0  0  0  0  0  0  0  0  0  0  0
    2.8426   -3.4929   -1.3007 H   0  0  0  0  0  0  0  0  0  0  0  0
    3.7500   -2.2004   -0.4343 H   0  0  0  0  0  0  0  0  0  0  0  0
    1.6719   -2.8985    1.1834 C   0  0  0  0  0  0  0  0  0  0  0  0
    2.4952   -2.4337    1.7602 H   0  0  0  0  0  0  0  0  0  0  0  0
    1.8891   -3.9760    1.0507 H   0  0  0  0  0  0  0  0  0  0  0  0
    0.7302   -2.7930    1.7585 H   0  0  0  0  0  0  0  0  0  0  0  0
  2 42  1  0  0  0  0
  3 42  2  0  0  0  0
  4  7  1  0  0  0  0
  4 16  1  0  0  0  0
  5 18  1  0  0  0  0
  6 29  1  0  0  0  0
  7 10  1  0  0  0  0
  8  7  1  0  0  0  0
  9  7  1  0  0  0  0
 10 11  1  0  0  0  0
 10 12  1  0  0  0  0
 10 13  1  0  0  0  0
 13 15  1  0  0  0  0
 13 14  1  0  0  0  0
 16 17  1  6  0  0  0
 16 18  1  0  0  0  0
 16 13  1  0  0  0  0
 18  1  2  0  0  0  0
 19  5  1  0  0  0  0
 19 20  2  0  0  0  0
 20 21  1  0  0  0  0
 22 20  1  0  0  0  0
 22 23  1  0  0  0  0
 24 22  2  0  0  0  0
 25 24  1  0  0  0  0
 26 28  1  0  0  0  0
 26 24  1  0  0  0  0
 27 26  1  0  0  0  0
 28 19  1  0  0  0  0
 29 28  2  0  0  0  0
 30 29  1  0  0  0  0
 30 39  1  0  0  0  0
 31 33  1  0  0  0  0
 31 30  2  0  0  0  0
 32 31  1  0  0  0  0
 33 35  2  0  0  0  0
 34 33  1  0  0  0  0
 35 36  1  0  0  0  0
 35 37  1  0  0  0  0
 37 38  1  0  0  0  0
 39 37  2  0  0  0  0
 39 40  1  0  0  0  0
 41  6  1  0  0  0  0
 41 61  1  0  0  0  0
 42 41  1  0  0  0  0
 43 45  1  0  0  0  0
 43  4  1  0  0  0  0
 44 43  1  0  0  0  0
 46 55  1  0  0  0  0
 46 43  1  0  0  0  0
 47 46  2  0  0  0  0
 48 47  1  0  0  0  0
 49 47  1  0  0  0  0
 49 51  2  0  0  0  0
 50 49  1  0  0  0  0
 51 53  1  0  0  0  0
 52 51  1  0  0  0  0
 53 55  2  0  0  0  0
 53 54  1  0  0  0  0
 55 56  1  0  0  0  0
 57 60  1  0  0  0  0
 57 41  1  0  0  0  0
 58 57  1  0  0  0  0
 59 57  1  0  0  0  0
 61 64  1  0  0  0  0
 61 62  1  0  0  0  0
 63 61  1  0  0  0  0
M  CHG  1   2  -1
M  END
