1,3,4,5
q = -1.0, confidence = 0.008

 31 30  0  0  0  0  0  0  0  0999 V2000
   -1.4458   -1.4415   -0.4829 O   0  5  0  0  0  0  0  0  0  0  0  0
   -3.6747   -1.6877   -0.4344 O   0  0  0  0  0  0  0  0  0  0  0  0
   -1.4289    0.9564    0.6485 N   0  0  0  0  0  0  0  0  0  0  0  0
    1.5008    0.9533    0.5082 N   0  0  0  0  0  0  0  0  0  0  0  0
    1.0272   -1.8004   -0.6994 N   0  0  0  0  0  0  0  0  0  0  0  0
   -2.6706   -1.0172   -0.2570 C   0  0  0  0  0  0  0  0  0  0  0  0
   -2.7479    0.4445    0.2078 C   0  0  0  0  0  0  0  0  0  0  0  0
   -1.2860    2.4092    0.4439 C   0  0  0  0  0  0  0  0  0  0  0  0
    0.0333    2.9374    0.9911 C   0  0  0  0  0  0  0  0  0  0  0  0
    1.2717    2.4025    0.2821 C   0  0  0  0  0  0  0  0  0  0  0  0
    2.8616    0.5910    0.0357 C   0  0  0  0  0  0  0  0  0  0  0  0
    3.1823   -0.8996    0.0808 C   0  0  0  0  0  0  0  0  0  0  0  0
    2.4595   -1.7030   -0.9979 C   0  0  0  0  0  0  0  0  0  0  0  0
   -1.2825    0.7510    1.6594 H   0  0  0  0  0  0  0  0  0  0  0  0
    1.4584    0.8019    1.5318 H   0  0  0  0  0  0  0  0  0  0  0  0
    0.8493   -2.4323    0.1129 H   0  0  0  0  0  0  0  0  0  0  0  0
    0.4802   -2.1703   -1.4898 H   0  0  0  0  0  0  0  0  0  0  0  0
   -3.5125    0.5544    1.0038 H   0  0  0  0  0  0  0  0  0  0  0  0
   -3.0743    1.0294   -0.6731 H   0  0  0  0  0  0  0  0  0  0  0  0
   -1.3688    2.6020   -0.6449 H   0  0  0  0  0  0  0  0  0  0  0  0
   -2.1358    2.9306    0.9392 H   0  0  0  0  0  0  0  0  0  0  0  0
    0.0337    4.0413    0.8860 H   0  0  0  0  0  0  0  0  0  0  0  0
    0.1038    2.7329    2.0827 H   0  0  0  0  0  0  0  0  0  0  0  0
    2.1667    2.9609    0.6386 H   0  0  0  0  0  0  0  0  0  0  0  0
    1.2055    2.5603   -0.8133 H   0  0  0  0  0  0  0  0  0  0  0  0
    2.9380    0.9503   -1.0089 H   0  0  0  0  0  0  0  0  0  0  0  0
    3.6014    1.1583    0.6442 H   0  0  0  0  0  0  0  0  0  0  0  0
    4.2756   -1.0091   -0.0694 H   0  0  0  0  0  0  0  0  0  0  0  0
    2.9638   -1.3244    1.0855 H   0  0  0  0  0  0  0  0  0  0  0  0
    2.8986   -2.7218   -1.0761 H   0  0  0  0  0  0  0  0  0  0  0  0
    2.5724   -1.2020   -1.9787 H   0  0  0  0  0  0  0  0  0  0  0  0
  1  6  1  0  0  0  0
  2  6  2  0  0  0  0
  3 14  1  0  0  0  0
  4 15  1  0  0  0  0
  5 16  1  0  0  0  0
  6  7  1  0  0  0  0
  7  3  1  0  0  0  0
  7 18  1  0  0  0  0
  8  3  1  0  0  0  0
  8 21  1  0  0  0  0
  8  9  1  0  0  0  0
  9 23  1  0  0  0  0
 10  4  1  0  0  0  0
 10 24  1  0  0  0  0
 10  9  1  0  0  0  0
 11 12  1  0  0  0  0
 11  4  1  0  0  0  0
 11 27  1  0  0  0  0
 12 29  1  0  0  0  0
 13  5  1  0  0  0  0
 13 12  1  0  0  0  0
 17  5  1  0  0  0  0
 19  7  1  0  0  0  0
 20  8  1  0  0  0  0
 22  9  1  0  0  0  0
 25 10  1  0  0  0  0
 26 11  1  0  0  0  0
 28 12  1  0  0  0  0
 30 13  1  0  0  0  0
 31 13  1  0  0  0  0
M  CHG  1   1  -1
M  END
