4,6,7,8
q = -2.0, confidence = 0.84

 63 66  0  0  1  0  0  0  0  0999 V2000
   -4.2188    3.6384   -0.9687 Cl  0  0  0  0  0  0  0  0  0  0  0  0
   -2.4892   -1.1389    2.4832 Cl  0  0  0  0  0  0  0  0  0  0  0  0
    2.4210    2.6360   -1.9787 O   0  0  0  0  0  0  0  0  0  0  0  0
    1.8691   -2.1210    1.0878 O   0  5  0  0  0  0  0  0  0  0  0  0
    1.1369   -4.2248    1.4494 O   0  0  0  0  0  0  0  0  0  0  0  0
    1.1414    0.9759   -0.8933 N   0  0  0  0  0  2  0  0  0  0  0  0
    3.2864    0.0576    0.3913 N   0  0  0  0  0  0  0  0  0  0  0  0
   -0.2230   -1.2775   -0.0834 N   0  0  0  0  0  2  0  0  0  0  0  0
   -2.6687    2.8336   -1.0245 C   0  0  0  0  0  0  0  0  0  0  0  0
   -2.5595    1.5020   -0.6459 C   0  0  0  0  0  0  0  0  0  0  0  0
   -3.4615    0.9634   -0.3301 H   0  0  0  0  0  0  0  0  0  0  0  0
   -1.3065    0.8284   -0.6515 C   0  0  0  0  0  0  0  0  0  0  0  0
   -0.1130    1.5504   -1.0249 C   0  0  1  0  0  3  0  0  0  0  0  0
   -0.2898    2.8921   -1.4816 C   0  0  0  0  0  0  0  0  0  0  0  0
    0.5975    3.4290   -1.8307 H   0  0  0  0  0  0  0  0  0  0  0  0
   -1.5269    3.5259   -1.4711 C   0  0  0  0  0  0  0  0  0  0  0  0
   -1.6148    4.5706   -1.8024 H   0  0  0  0  0  0  0  0  0  0  0  0
    2.3040    1.6243   -1.2860 C   0  0  0  0  0  0  0  0  0  0  0  0
    3.5606    0.9088   -0.8009 C   0  0  2  0  0  0  0  0  0  0  0  0
    4.3064    1.6922   -0.5433 H   0  0  0  0  0  0  0  0  0  0  0  0
    4.1478   -0.0641   -1.8660 C   0  0  0  0  0  0  0  0  0  0  0  0
    3.4533   -0.1770   -2.7208 H   0  0  0  0  0  0  0  0  0  0  0  0
    5.0924    0.3509   -2.2660 H   0  0  0  0  0  0  0  0  0  0  0  0
    4.3639   -1.3999   -1.1208 C   0  0  0  0  0  0  0  0  0  0  0  0
    5.3130   -1.8989   -1.3955 H   0  0  0  0  0  0  0  0  0  0  0  0
    3.5362   -2.1073   -1.3287 H   0  0  0  0  0  0  0  0  0  0  0  0
    4.3269   -1.0086    0.3495 C   0  0  0  0  0  0  0  0  0  0  0  0
    4.0371   -1.8275    1.0316 H   0  0  0  0  0  0  0  0  0  0  0  0
    5.2936   -0.5617    0.6790 H   0  0  0  0  0  0  0  0  0  0  0  0
    3.2880    0.7696    1.7067 C   0  0  0  0  0  0  0  0  0  0  0  0
    3.2787   -0.0268    2.4761 H   0  0  0  0  0  0  0  0  0  0  0  0
    4.2464    1.3298    1.7971 H   0  0  0  0  0  0  0  0  0  0  0  0
    2.1058    1.6890    1.9005 C   0  0  0  0  0  0  0  0  0  0  0  0
    2.1716    3.0447    1.5331 C   0  0  0  0  0  0  0  0  0  0  0  0
    3.1170    3.4623    1.1529 H   0  0  0  0  0  0  0  0  0  0  0  0
    1.0334    3.8632    1.6177 C   0  0  0  0  0  0  0  0  0  0  0  0
    1.0952    4.9177    1.3100 H   0  0  0  0  0  0  0  0  0  0  0  0
   -0.1808    3.3332    2.0771 C   0  0  0  0  0  0  0  0  0  0  0  0
   -1.0787    3.9676    2.1233 H   0  0  0  0  0  0  0  0  0  0  0  0
   -0.2515    1.9853    2.4656 C   0  0  0  0  0  0  0  0  0  0  0  0
   -1.2023    1.5606    2.8193 H   0  0  0  0  0  0  0  0  0  0  0  0
    0.8857    1.1699    2.3849 C   0  0  0  0  0  0  0  0  0  0  0  0
    0.8281    0.1139    2.6913 H   0  0  0  0  0  0  0  0  0  0  0  0
   -1.3171   -0.5855   -0.3092 C   0  0  0  0  0  0  0  0  0  0  0  0
   -2.6463   -1.2800   -0.2478 C   0  0  0  0  0  0  0  0  0  0  0  0
   -3.2770   -1.5677    0.9818 C   0  0  0  0  0  0  0  0  0  0  0  0
   -4.5275   -2.2035    1.0293 C   0  0  0  0  0  0  0  0  0  0  0  0
   -4.9880   -2.4115    2.0051 H   0  0  0  0  0  0  0  0  0  0  0  0
   -5.1648   -2.5605   -0.1669 C   0  0  0  0  0  0  0  0  0  0  0  0
   -6.1448   -3.0591   -0.1292 H   0  0  0  0  0  0  0  0  0  0  0  0
   -4.5591   -2.2797   -1.4020 C   0  0  0  0  0  0  0  0  0  0  0  0
   -5.0609   -2.5539   -2.3413 H   0  0  0  0  0  0  0  0  0  0  0  0
   -3.3130   -1.6396   -1.4371 C   0  0  0  0  0  0  0  0  0  0  0  0
   -2.8357   -1.3974   -2.3987 H   0  0  0  0  0  0  0  0  0  0  0  0
   -0.2542   -2.7195    0.1748 C   0  0  2  0  0  0  0  0  0  0  0  0
   -1.1400   -2.9995    0.7786 H   0  0  0  0  0  0  0  0  0  0  0  0
    0.9996   -3.1010    0.9894 C   0  0  0  0  0  0  0  0  0  0  0  0
   -0.3039   -3.5585   -1.1269 C   0  0  0  0  0  0  0  0  0  0  0  0
   -0.1547   -4.6140   -0.8112 H   0  0  0  0  0  0  0  0  0  0  0  0
   -1.3200   -3.4889   -1.5708 H   0  0  0  0  0  0  0  0  0  0  0  0
    0.6870   -3.1818   -2.1283 C   0  0  0  0  0  0  0  0  0  0  0  0
    1.4943   -2.8533   -2.9865 C   0  0  0  0  0  0  0  0  0  0  0  0
    2.2031   -2.5748   -3.7532 H   0  0  0  0  0  0  0  0  0  0  0  0
  3 18  2  0  0  0  0
  7 30  1  0  0  0  0
  8 55  1  0  0  0  0
  9  1  1  0  0  0  0
  9 10  2  0  0  0  0
 10 11  1  0  0  0  0
 12 10  1  0  0  0  0
 12 44  2  0  0  0  0
 13  6  1  1  0  0  0
 13 12  1  0  0  0  0
 14 16  2  0  0  0  0
 14 13  1  0  0  0  0
 15 14  1  0  0  0  0
 16  9  1  0  0  0  0
 17 16  1  0  0  0  0
 18  6  1  0  0  0  0
 18 19  1  0  0  0  0
 19 20  1  1  0  0  0
 19  7  1  0  0  0  0
 21 24  1  0  0  0  0
 21 19  1  0  0  0  0
 22 21  1  0  0  0  0
 23 21  1  0  0  0  0
 24 27  1  0  0  0  0
 25 24  1  0  0  0  0
 26 24  1  0  0  0  0
 27  7  1  0  0  0  0
 27 29  1  0  0  0  0
 27 28  1  0  0  0  0
 30 32  1  0  0  0  0
 30 33  1  0  0  0  0
 30 31  1  0  0  0  0
 33 42  1  0  0  0  0
 34 36  1  0  0  0  0
 34 33  2  0  0  0  0
 35 34  1  0  0  0  0
 36 38  2  0  0  0  0
 37 36  1  0  0  0  0
 38 39  1  0  0  0  0
 38 40  1  0  0  0  0
 40 41  1  0  0  0  0
 42 40  2  0  0  0  0
 42 43  1  0  0  0  0
 44 45  1  0  0  0  0
 44  8  1  0  0  0  0
 45 46  1  0  0  0  0
 46 47  2  0  0  0  0
 46  2  1  0  0  0  0
 47 48  1  0  0  0  0
 49 50  1  0  0  0  0
 49 47  1  0  0  0  0
 51 49  2  0  0  0  0
 52 51  1  0  0  0  0
 53 51  1  0  0  0  0
 53 45  2  0  0  0  0
 54 53  1  0  0  0  0
 55 56  1  1  0  0  0
 55 57  1  0  0  0  0
 57  4  1  0  0  0  0
 57  5  2  0  0  0  0
 58 59  1  0  0  0  0
 58 55  1  0  0  0  0
 60 58  1  0  0  0  0
 61 58  1  0  0  0  0
 62 61  3  0  0  0  0
 63 62  1  0  0  0  0
M  CHG  1   4  -1
M  END
