4,8,9,10
q = -2.0, confidence = 0.946

 51 53  0  0  1  0  0  0  0  0999 V2000
   -1.8332   -1.3910   -0.1792 O   0  0  0  0  0  0  0  0  0  0  0  0
   -5.7981    0.0600   -0.2326 O   0  0  0  0  0  0  0  0  0  0  0  0
   -4.8637    0.5076   -0.2081 H   0  0  0  0  0  0  0  0  0  0  0  0
    1.7787   -1.1855   -0.7693 O   0  5  0  0  0  0  0  0  0  0  0  0
    5.7085    0.1142    0.0413 O   0  0  0  0  0  0  0  0  0  0  0  0
    4.7896    0.5868   -0.0045 H   0  0  0  0  0  0  0  0  0  0  0  0
   -3.2966    0.4385   -0.1820 N   0  0  0  0  0  2  0  0  0  0  0  0
   -2.2445    1.2566   -0.1448 N   0  0  0  0  0  2  0  0  0  0  0  0
   -0.0632    2.8122   -0.0694 N   0  0  0  0  0  2  0  0  0  0  0  0
    2.1761    1.3700   -0.1879 N   0  0  0  0  0  2  0  0  0  0  0  0
    3.2342    0.5673   -0.2409 N   0  0  0  0  0  0  0  0  0  0  0  0
   -3.0138   -0.9009   -0.1998 C   0  0  0  0  0  0  0  0  0  0  0  0
   -4.2004   -1.7740   -0.2415 C   0  0  0  0  0  0  0  0  0  0  0  0
   -5.5387   -1.2470   -0.2544 C   0  0  0  0  0  0  0  0  0  0  0  0
   -6.6249   -2.1573   -0.2898 C   0  0  0  0  0  0  0  0  0  0  0  0
   -7.6410   -1.7371   -0.2994 H   0  0  0  0  0  0  0  0  0  0  0  0
   -6.4024   -3.5333   -0.3120 C   0  0  0  0  0  0  0  0  0  0  0  0
   -7.2645   -4.2180   -0.3402 H   0  0  0  0  0  0  0  0  0  0  0  0
   -5.0898   -4.0565   -0.2987 C   0  0  0  0  0  0  0  0  0  0  0  0
   -4.9241   -5.1434   -0.3166 H   0  0  0  0  0  0  0  0  0  0  0  0
   -4.0102   -3.1772   -0.2633 C   0  0  0  0  0  0  0  0  0  0  0  0
   -2.9727   -3.5427   -0.2518 H   0  0  0  0  0  0  0  0  0  0  0  0
   -2.4603    2.5539   -0.0813 C   0  0  0  0  0  0  0  0  0  0  0  0
   -3.8588    3.0959   -0.0607 C   0  0  0  0  0  0  0  0  0  0  0  0
   -4.4118    2.7492   -0.9592 H   0  0  0  0  0  0  0  0  0  0  0  0
   -3.9048    4.1970   -0.0265 H   0  0  0  0  0  0  0  0  0  0  0  0
   -4.4154    2.6904    0.8107 H   0  0  0  0  0  0  0  0  0  0  0  0
   -1.2636    3.4216   -0.0082 C   0  0  0  0  0  0  0  0  0  0  0  0
   -1.3281    4.8284    0.1412 C   0  0  0  0  0  0  0  0  0  0  0  0
   -2.2920    5.3496    0.1914 H   0  0  0  0  0  0  0  0  0  0  0  0
   -0.1300    5.5471    0.2364 C   0  0  0  0  0  0  0  0  0  0  0  0
   -0.1573    6.6404    0.3579 H   0  0  0  0  0  0  0  0  0  0  0  0
    1.1021    4.8838    0.1844 C   0  0  0  0  0  0  0  0  0  0  0  0
    2.0401    5.4468    0.2684 H   0  0  0  0  0  0  0  0  0  0  0  0
    1.1063    3.4771    0.0244 C   0  0  0  0  0  0  0  0  0  0  0  0
    2.3426    2.6671   -0.0457 C   0  0  1  0  0  3  0  0  0  0  0  0
    3.7178    3.2595    0.0375 C   0  0  0  0  0  0  0  0  0  0  0  0
    4.2242    2.9330    0.9714 H   0  0  0  0  0  0  0  0  0  0  0  0
    3.7242    4.3621    0.0065 H   0  0  0  0  0  0  0  0  0  0  0  0
    4.3427    2.8763   -0.7956 H   0  0  0  0  0  0  0  0  0  0  0  0
    2.9460   -0.7478   -0.5281 C   0  0  0  0  0  0  0  0  0  0  0  0
    4.1208   -1.6401   -0.5322 C   0  0  0  0  0  0  0  0  0  0  0  0
    5.4462   -1.1612   -0.2462 C   0  0  0  0  0  0  0  0  0  0  0  0
    6.5202   -2.0863   -0.2684 C   0  0  0  0  0  0  0  0  0  0  0  0
    7.5264   -1.7022   -0.0464 H   0  0  0  0  0  0  0  0  0  0  0  0
    6.2993   -3.4312   -0.5613 C   0  0  0  0  0  0  0  0  0  0  0  0
    7.1522   -4.1279   -0.5706 H   0  0  0  0  0  0  0  0  0  0  0  0
    5.0001   -3.9066   -0.8465 C   0  0  0  0  0  0  0  0  0  0  0  0
    4.8344   -4.9683   -1.0801 H   0  0  0  0  0  0  0  0  0  0  0  0
    3.9327   -3.0114   -0.8309 C   0  0  0  0  0  0  0  0  0  0  0  0
    2.9077   -3.3424   -1.0535 H   0  0  0  0  0  0  0  0  0  0  0  0
  2  3  1  0  0  0  0
  4 41  1  0  0  0  0
  6  5  1  0  0  0  0
  7  8  1  0  0  0  0
  8 23  1  0  0  0  0
  9 28  1  0  0  0  0
  9 35  1  0  0  0  0
 11 10  1  0  0  0  0
 12  7  1  0  0  0  0
 12  1  2  0  0  0  0
 13 12  1  0  0  0  0
 14 13  1  0  0  0  0
 14  2  1  0  0  0  0
 15 14  2  0  0  0  0
 16 15  1  0  0  0  0
 17 19  2  0  0  0  0
 17 15  1  0  0  0  0
 18 17  1  0  0  0  0
 19 21  1  0  0  0  0
 20 19  1  0  0  0  0
 21 22  1  0  0  0  0
 21 13  2  0  0  0  0
 23 24  1  0  0  0  0
 23 28  2  0  0  0  0
 24 26  1  0  0  0  0
 24 27  1  0  0  0  0
 25 24  1  0  0  0  0
 28 29  1  0  0  0  0
 29 30  1  0  0  0  0
 29 31  2  0  0  0  0
 31 32  1  0  0  0  0
 33 31  1  0  0  0  0
 33 34  1  0  0  0  0
 35 33  2  0  0  0  0
 36 10  1  1  0  0  0
 36 35  1  0  0  0  0
 36 37  1  0  0  0  0
 37 38  1  0  0  0  0
 39 37  1  0  0  0  0
 40 37  1  0  0  0  0
 41 11  2  0  0  0  0
 42 41  1  0  0  0  0
 42 43  1  0  0  0  0
 43  5  1  0  0  0  0
 44 43  2  0  0  0  0
 44 45  1  0  0  0  0
 46 44  1  0  0  0  0
 47 46  1  0  0  0  0
 48 50  1  0  0  0  0
 48 46  2  0  0  0  0
 49 48  1  0  0  0  0
 50 42  2  0  0  0  0
 51 50  1  0  0  0  0
M  CHG  1   4  -1
M  END
