2,8,9,10
q = -2.0, confidence = 0.812

 75 79  0  0  1  0  0  0  0  0999 V2000
    3.6528    2.2467    1.2069 O   0  0  0  0  0  0  0  0  0  0  0  0
   -0.4441   -1.7257    0.9658 O   0  5  0  0  0  0  0  0  0  0  0  0
   -1.2189   -3.7576    0.4781 O   0  0  0  0  0  0  0  0  0  0  0  0
   -7.2418    1.2950   -0.0513 O   0  0  0  0  0  0  0  0  0  0  0  0
   -6.4725    0.7085    1.9099 O   0  0  0  0  0  0  0  0  0  0  0  0
    5.5790    0.1754   -1.2048 O   0  0  0  0  0  0  0  0  0  0  0  0
    5.4232   -0.9761    0.6479 O   0  0  0  0  0  0  0  0  0  0  0  0
    1.8166    1.1880    0.1894 N   0  0  0  0  0  2  0  0  0  0  0  0
    1.6683   -0.5598    2.0607 N   0  0  0  0  0  2  0  0  0  0  0  0
   -0.4887    0.1447   -0.9160 N   0  0  0  0  0  2  0  0  0  0  0  0
   -6.5028    0.6374    0.6792 N   0  0  0  0  0  0  0  0  0  0  0  0
    5.0327   -0.6525   -0.4759 N   0  0  0  0  0  0  0  0  0  0  0  0
    2.7802    1.3747    1.1596 C   0  0  0  0  0  0  0  0  0  0  0  0
    2.6760    0.3265    2.2230 C   0  0  2  0  0  3  0  0  0  0  0  0
    3.5800    0.2390    3.2852 C   0  0  0  0  0  0  0  0  0  0  0  0
    4.3833    0.9876    3.3341 H   0  0  0  0  0  0  0  0  0  0  0  0
    3.4237   -0.8000    4.2104 C   0  0  0  0  0  0  0  0  0  0  0  0
    4.1194   -0.9063    5.0561 H   0  0  0  0  0  0  0  0  0  0  0  0
    2.3660   -1.7094    4.0388 C   0  0  0  0  0  0  0  0  0  0  0  0
    2.2060   -2.5382    4.7430 H   0  0  0  0  0  0  0  0  0  0  0  0
    1.5005   -1.5627    2.9484 C   0  0  0  0  0  0  0  0  0  0  0  0
    0.6541   -2.2360    2.7431 H   0  0  0  0  0  0  0  0  0  0  0  0
    1.8335    1.9508   -0.9882 C   0  0  0  0  0  0  0  0  0  0  0  0
    3.0280    2.4945   -1.5312 C   0  0  0  0  0  0  0  0  0  0  0  0
    3.9723    2.3475   -0.9965 H   0  0  0  0  0  0  0  0  0  0  0  0
    3.0073    3.2123   -2.7316 C   0  0  0  0  0  0  0  0  0  0  0  0
    3.9523    3.6162   -3.1260 H   0  0  0  0  0  0  0  0  0  0  0  0
    1.8068    3.4157   -3.4308 C   0  0  0  0  0  0  0  0  0  0  0  0
    1.7919    3.9835   -4.3726 H   0  0  0  0  0  0  0  0  0  0  0  0
    0.6234    2.8780   -2.9089 C   0  0  0  0  0  0  0  0  0  0  0  0
   -0.3302    3.0211   -3.4421 H   0  0  0  0  0  0  0  0  0  0  0  0
    0.6209    2.1592   -1.7019 C   0  0  0  0  0  0  0  0  0  0  0  0
   -0.6738    1.5847   -1.1863 C   0  0  2  0  0  0  0  0  0  0  0  0
   -1.4341    1.6800   -1.9934 H   0  0  0  0  0  0  0  0  0  0  0  0
   -1.2565    2.2208    0.0788 C   0  0  0  0  0  0  0  0  0  0  0  0
   -0.6751    3.3433    0.6914 C   0  0  0  0  0  0  0  0  0  0  0  0
    0.2462    3.7759    0.2744 H   0  0  0  0  0  0  0  0  0  0  0  0
   -1.2661    3.9060    1.8339 C   0  0  0  0  0  0  0  0  0  0  0  0
   -0.8001    4.7824    2.3091 H   0  0  0  0  0  0  0  0  0  0  0  0
   -2.4414    3.3570    2.3693 C   0  0  0  0  0  0  0  0  0  0  0  0
   -2.9018    3.8019    3.2644 H   0  0  0  0  0  0  0  0  0  0  0  0
   -3.0307    2.2372    1.7581 C   0  0  0  0  0  0  0  0  0  0  0  0
   -3.9579    1.8024    2.1630 H   0  0  0  0  0  0  0  0  0  0  0  0
   -2.4379    1.6741    0.6207 C   0  0  0  0  0  0  0  0  0  0  0  0
   -2.8975    0.7890    0.1550 H   0  0  0  0  0  0  0  0  0  0  0  0
   -0.9291   -2.6048    0.1466 C   0  0  0  0  0  0  0  0  0  0  0  0
   -1.1549   -2.2006   -1.3527 C   0  0  0  0  0  0  0  0  0  0  0  0
   -1.1668   -0.7220   -1.5898 C   0  0  0  0  0  3  0  0  0  0  0  0
   -1.8168   -0.3391   -2.4025 H   0  0  0  0  0  0  0  0  0  0  0  0
   -2.5382   -2.7745   -1.7923 C   0  0  0  0  0  0  0  0  0  0  0  0
   -2.6135   -2.7410   -2.8986 H   0  0  0  0  0  0  0  0  0  0  0  0
   -2.5535   -3.8329   -1.4673 H   0  0  0  0  0  0  0  0  0  0  0  0
   -3.6759   -1.9937   -1.1711 C   0  0  0  0  0  0  0  0  0  0  0  0
   -3.9544   -2.0945    0.2127 C   0  0  0  0  0  0  0  0  0  0  0  0
   -3.4155   -2.8379    0.8171 H   0  0  0  0  0  0  0  0  0  0  0  0
   -4.8845   -1.2448    0.8202 C   0  0  0  0  0  0  0  0  0  0  0  0
   -5.0866   -1.2835    1.8988 H   0  0  0  0  0  0  0  0  0  0  0  0
   -5.5647   -0.3078    0.0312 C   0  0  0  0  0  0  0  0  0  0  0  0
   -5.3644   -0.2235   -1.3519 C   0  0  0  0  0  0  0  0  0  0  0  0
   -5.9403    0.5099   -1.9316 H   0  0  0  0  0  0  0  0  0  0  0  0
   -4.4132   -1.0654   -1.9402 C   0  0  0  0  0  0  0  0  0  0  0  0
   -4.2301   -0.9948   -3.0243 H   0  0  0  0  0  0  0  0  0  0  0  0
   -0.0104   -2.8833   -2.1869 C   0  0  0  0  0  0  0  0  0  0  0  0
   -0.1062   -3.9713   -1.9945 H   0  0  0  0  0  0  0  0  0  0  0  0
   -0.2051   -2.7079   -3.2649 H   0  0  0  0  0  0  0  0  0  0  0  0
    1.3654   -2.3910   -1.8155 C   0  0  0  0  0  0  0  0  0  0  0  0
    1.9925   -1.3720   -2.5635 C   0  0  0  0  0  0  0  0  0  0  0  0
    1.5007   -0.9782   -3.4662 H   0  0  0  0  0  0  0  0  0  0  0  0
    3.2164   -0.8271   -2.1610 C   0  0  0  0  0  0  0  0  0  0  0  0
    3.7064   -0.0190   -2.7180 H   0  0  0  0  0  0  0  0  0  0  0  0
    3.7993   -1.2990   -0.9787 C   0  0  0  0  0  0  0  0  0  0  0  0
    3.2286   -2.3397   -0.2345 C   0  0  0  0  0  0  0  0  0  0  0  0
    3.7319   -2.6799    0.6799 H   0  0  0  0  0  0  0  0  0  0  0  0
    2.0175   -2.8895   -0.6643 C   0  0  0  0  0  0  0  0  0  0  0  0
    1.5486   -3.6992   -0.0851 H   0  0  0  0  0  0  0  0  0  0  0  0
  4 11  2  0  0  0  0
  6 12  2  0  0  0  0
  8 13  1  0  0  0  0
  9 14  1  0  0  0  0
  9 21  1  0  0  0  0
 11  5  2  0  0  0  0
 12  7  2  0  0  0  0
 13  1  2  0  0  0  0
 14 13  1  6  0  0  0
 14 15  1  0  0  0  0
 15 16  1  0  0  0  0
 15 17  2  0  0  0  0
 17 18  1  0  0  0  0
 19 17  1  0  0  0  0
 19 20  1  0  0  0  0
 21 19  2  0  0  0  0
 22 21  1  0  0  0  0
 23  8  1  0  0  0  0
 24 25  1  0  0  0  0
 24 23  1  0  0  0  0
 26 24  2  0  0  0  0
 27 26  1  0  0  0  0
 28 30  2  0  0  0  0
 28 26  1  0  0  0  0
 29 28  1  0  0  0  0
 30 32  1  0  0  0  0
 31 30  1  0  0  0  0
 32 33  1  0  0  0  0
 32 23  2  0  0  0  0
 33 34  1  6  0  0  0
 33 10  1  0  0  0  0
 33 35  1  0  0  0  0
 35 44  2  0  0  0  0
 35 36  1  0  0  0  0
 36 38  2  0  0  0  0
 37 36  1  0  0  0  0
 38 39  1  0  0  0  0
 38 40  1  0  0  0  0
 40 41  1  0  0  0  0
 42 43  1  0  0  0  0
 42 40  2  0  0  0  0
 44 42  1  0  0  0  0
 45 44  1  0  0  0  0
 46  3  2  0  0  0  0
 46  2  1  0  0  0  0
 47 46  1  0  0  0  0
 48 47  1  0  0  0  0
 48 10  1  0  0  0  0
 49 48  1  0  0  0  0
 50 52  1  0  0  0  0
 50 47  1  0  0  0  0
 50 53  1  0  0  0  0
 51 50  1  0  0  0  0
 53 54  1  0  0  0  0
 54 55  1  0  0  0  0
 54 56  2  0  0  0  0
 56 57  1  0  0  0  0
 58 11  1  0  0  0  0
 58 56  1  0  0  0  0
 59 58  2  0  0  0  0
 60 59  1  0  0  0  0
 61 59  1  0  0  0  0
 61 53  2  0  0  0  0
 62 61  1  0  0  0  0
 63 64  1  0  0  0  0
 63 66  1  0  0  0  0
 63 47  1  0  0  0  0
 65 63  1  0  0  0  0
 66 74  1  0  0  0  0
 67 69  1  0  0  0  0
 67 66  2  0  0  0  0
 68 67  1  0  0  0  0
 69 71  2  0  0  0  0
 70 69  1  0  0  0  0
 71 12  1  0  0  0  0
 71 72  1  0  0  0  0
 72 73  1  0  0  0  0
 74 72  2  0  0  0  0
 74 75  1  0  0  0  0
M  CHG  1   2  -1
M  END
