1,3,5,6
q = -2.0, confidence = 0.956

 44 45  0  0  1  0  0  0  0  0999 V2000
   -0.3960   -2.0558   -0.1136 O   0  5  0  0  0  0  0  0  0  0  0  0
    1.0662    3.7591   -0.4482 O   0  0  0  0  0  0  0  0  0  0  0  0
   -1.2348    0.8753   -0.1452 N   0  0  0  0  0  0  0  0  0  0  0  0
   -1.6443    0.8685    0.8033 H   0  0  0  0  0  0  0  0  0  0  0  0
    1.3644    1.5089   -0.0473 N   0  0  0  0  0  2  0  0  0  0  0  0
    2.3897   -0.8977    0.0214 N   0  0  0  0  0  2  0  0  0  0  0  0
   -1.7112   -2.1764   -0.0549 C   0  0  0  0  0  0  0  0  0  0  0  0
   -2.2572   -3.4066    0.4151 C   0  0  0  0  0  0  0  0  0  0  0  0
   -1.5420   -4.1919    0.7022 H   0  0  0  0  0  0  0  0  0  0  0  0
   -3.6340   -3.6112    0.5166 C   0  0  0  0  0  0  0  0  0  0  0  0
   -4.0102   -4.5772    0.8894 H   0  0  0  0  0  0  0  0  0  0  0  0
   -4.5389   -2.5937    0.1605 C   0  0  0  0  0  0  0  0  0  0  0  0
   -5.6242   -2.7454    0.2503 H   0  0  0  0  0  0  0  0  0  0  0  0
   -4.0268   -1.3806   -0.3150 C   0  0  0  0  0  0  0  0  0  0  0  0
   -4.7210   -0.5769   -0.6139 H   0  0  0  0  0  0  0  0  0  0  0  0
   -2.6423   -1.1493   -0.4470 C   0  0  0  0  0  0  0  0  0  0  0  0
   -2.1788    0.1517   -1.0502 C   0  0  0  0  0  0  0  0  0  0  0  0
   -1.6342   -0.0002   -2.0077 H   0  0  0  0  0  0  0  0  0  0  0  0
   -3.0610    0.7896   -1.2644 H   0  0  0  0  0  0  0  0  0  0  0  0
   -0.8878    2.2945   -0.5087 C   0  0  2  0  0  0  0  0  0  0  0  0
   -1.0822    2.3911   -1.5990 H   0  0  0  0  0  0  0  0  0  0  0  0
    0.6294    2.6085   -0.3248 C   0  0  0  0  0  0  0  0  0  0  0  0
    2.8083    1.5208    0.0414 C   0  0  0  0  0  0  0  0  0  0  0  0
    3.1674    2.0422    0.9618 H   0  0  0  0  0  0  0  0  0  0  0  0
    3.2625    2.0859   -0.8066 H   0  0  0  0  0  0  0  0  0  0  0  0
    3.3242    0.0979    0.0541 C   0  0  1  0  0  3  0  0  0  0  0  0
    4.6883   -0.2303    0.1052 C   0  0  0  0  0  0  0  0  0  0  0  0
    5.4353    0.5764    0.1316 H   0  0  0  0  0  0  0  0  0  0  0  0
    5.0776   -1.5755    0.1197 C   0  0  0  0  0  0  0  0  0  0  0  0
    6.1445   -1.8417    0.1571 H   0  0  0  0  0  0  0  0  0  0  0  0
    4.0942   -2.5782    0.0853 C   0  0  0  0  0  0  0  0  0  0  0  0
    4.3610   -3.6443    0.0961 H   0  0  0  0  0  0  0  0  0  0  0  0
    2.7514   -2.1981    0.0368 C   0  0  0  0  0  0  0  0  0  0  0  0
    1.9096   -2.9100    0.0084 H   0  0  0  0  0  0  0  0  0  0  0  0
   -1.7337    3.3446    0.2401 C   0  0  0  0  0  0  0  0  0  0  0  0
   -1.3066    4.3061   -0.1188 H   0  0  0  0  0  0  0  0  0  0  0  0
   -1.5096    3.2833    1.7572 C   0  0  0  0  0  0  0  0  0  0  0  0
   -1.8782    2.3319    2.2016 H   0  0  0  0  0  0  0  0  0  0  0  0
   -2.0621    4.0985    2.2651 H   0  0  0  0  0  0  0  0  0  0  0  0
   -0.4370    3.3902    2.0119 H   0  0  0  0  0  0  0  0  0  0  0  0
   -3.2239    3.2980   -0.1140 C   0  0  0  0  0  0  0  0  0  0  0  0
   -3.3893    3.3445   -1.2097 H   0  0  0  0  0  0  0  0  0  0  0  0
   -3.7593    4.1542    0.3437 H   0  0  0  0  0  0  0  0  0  0  0  0
   -3.7132    2.3755    0.2656 H   0  0  0  0  0  0  0  0  0  0  0  0
  1  7  1  0  0  0  0
  2 22  2  0  0  0  0
  3  4  1  0  0  0  0
  5 23  1  0  0  0  0
  6 33  1  0  0  0  0
  6 26  1  0  0  0  0
  7  8  1  0  0  0  0
  8 10  2  0  0  0  0
  8  9  1  0  0  0  0
 10 11  1  0  0  0  0
 12 13  1  0  0  0  0
 12 10  1  0  0  0  0
 14 12  2  0  0  0  0
 15 14  1  0  0  0  0
 16 14  1  0  0  0  0
 16  7  2  0  0  0  0
 17 16  1  0  0  0  0
 17  3  1  0  0  0  0
 18 17  1  0  0  0  0
 19 17  1  0  0  0  0
 20 21  1  6  0  0  0
 20 22  1  0  0  0  0
 20  3  1  0  0  0  0
 20 35  1  0  0  0  0
 22  5  1  0  0  0  0
 23 24  1  0  0  0  0
 25 23  1  0  0  0  0
 26 23  1  1  0  0  0
 26 27  1  0  0  0  0
 27 29  2  0  0  0  0
 27 28  1  0  0  0  0
 29 30  1  0  0  0  0
 31 32  1  0  0  0  0
 31 29  1  0  0  0  0
 33 31  2  0  0  0  0
 34 33  1  0  0  0  0
 35 37  1  0  0  0  0
 36 35  1  0  0  0  0
 37 40  1  0  0  0  0
 37 38  1  0  0  0  0
 37 39  1  0  0  0  0
 41 35  1  0  0  0  0
 41 44  1  0  0  0  0
 41 43  1  0  0  0  0
 42 41  1  0  0  0  0
M  CHG  1   1  -1
M  END
