1,8,11,15
q = -1.0, confidence = 0.05

 35 35  0  0  1  0  0  0  0  0999 V2000
    1.5016    0.7500   -0.0145 N   0  0  0  0  0  2  0  0  0  0  0  0
    1.8485    2.0466   -0.0669 C   0  0  0  0  0  0  0  0  0  0  0  0
    3.2063    2.4071   -0.1258 C   0  0  0  0  0  0  0  0  0  0  0  0
    4.1953    1.4988   -0.1306 N   0  0  0  0  0  0  0  0  0  0  0  0
    3.8418    0.2097   -0.0778 C   0  0  0  0  0  0  0  0  0  0  0  0
    2.4951   -0.1980   -0.0212 C   0  0  0  0  0  0  0  0  0  0  0  0
    1.9804   -1.5654    0.0574 C   0  0  0  0  0  0  0  0  0  0  0  0
    0.6653   -1.5843    0.0865 N   0  0  0  0  0  2  0  0  0  0  0  0
   -0.1912   -2.7501    0.2700 C   0  0  0  0  0  0  0  0  0  0  0  0
   -1.5566   -2.3890   -0.3094 C   0  0  0  0  0  0  0  0  0  0  0  0
   -1.8004   -0.9637   -0.0476 N   0  0  0  0  0  2  0  0  0  0  0  0
   -3.0375   -0.4555   -0.0451 C   0  0  1  0  0  3  0  0  0  0  0  0
   -3.2774    0.9374    0.0628 C   0  0  0  0  0  0  0  0  0  0  0  0
   -2.2809    1.9196    0.0856 C   0  0  0  0  0  0  0  0  0  0  0  0
   -1.0072    1.6650    0.0192 O   0  5  0  0  0  0  0  0  0  0  0  0
    2.8761   -2.7562    0.1470 C   0  0  0  0  0  0  0  0  0  0  0  0
   -4.2260   -1.3765   -0.1748 C   0  0  0  0  0  0  0  0  0  0  0  0
   -2.6226    3.3811    0.1802 C   0  0  0  0  0  0  0  0  0  0  0  0
    1.0207    2.7726   -0.0600 H   0  0  0  0  0  0  0  0  0  0  0  0
    3.4925    3.4713   -0.1694 H   0  0  0  0  0  0  0  0  0  0  0  0
    4.6535   -0.5377   -0.0781 H   0  0  0  0  0  0  0  0  0  0  0  0
    0.2285   -3.6624   -0.2008 H   0  0  0  0  0  0  0  0  0  0  0  0
   -0.2754   -2.9405    1.3624 H   0  0  0  0  0  0  0  0  0  0  0  0
   -1.5657   -2.5724   -1.4072 H   0  0  0  0  0  0  0  0  0  0  0  0
   -2.3417   -3.0328    0.1350 H   0  0  0  0  0  0  0  0  0  0  0  0
   -4.3219    1.2691    0.1043 H   0  0  0  0  0  0  0  0  0  0  0  0
    2.3258   -3.7080    0.0474 H   0  0  0  0  0  0  0  0  0  0  0  0
    3.4035   -2.7679    1.1249 H   0  0  0  0  0  0  0  0  0  0  0  0
    3.6563   -2.7198   -0.6396 H   0  0  0  0  0  0  0  0  0  0  0  0
   -4.2005   -1.9284   -1.1371 H   0  0  0  0  0  0  0  0  0  0  0  0
   -5.1700   -0.8066   -0.1319 H   0  0  0  0  0  0  0  0  0  0  0  0
   -4.2432   -2.1324    0.6374 H   0  0  0  0  0  0  0  0  0  0  0  0
   -2.1537    3.8169    1.0862 H   0  0  0  0  0  0  0  0  0  0  0  0
   -3.7128    3.5512    0.2211 H   0  0  0  0  0  0  0  0  0  0  0  0
   -2.2034    3.9211   -0.6933 H   0  0  0  0  0  0  0  0  0  0  0  0
  2 19  1  0  0  0  0
  2  1  1  0  0  0  0
  3  2  2  0  0  0  0
  4  3  1  0  0  0  0
  4  5  2  0  0  0  0
  5  6  1  0  0  0  0
  6  1  1  0  0  0  0
  6  7  2  0  0  0  0
  7  8  1  0  0  0  0
  7 16  1  0  0  0  0
  8  9  1  0  0  0  0
  9 23  1  0  0  0  0
 10 11  1  0  0  0  0
 10 25  1  0  0  0  0
 10  9  1  0  0  0  0
 12 11  1  6  0  0  0
 12 13  1  0  0  0  0
 13 14  2  0  0  0  0
 13 26  1  0  0  0  0
 14 18  1  0  0  0  0
 15 14  1  0  0  0  0
 16 28  1  0  0  0  0
 17 31  1  0  0  0  0
 17 12  1  0  0  0  0
 17 32  1  0  0  0  0
 18 34  1  0  0  0  0
 18 33  1  0  0  0  0
 20  3  1  0  0  0  0
 21  5  1  0  0  0  0
 22  9  1  0  0  0  0
 24 10  1  0  0  0  0
 27 16  1  0  0  0  0
 29 16  1  0  0  0  0
 30 17  1  0  0  0  0
 35 18  1  0  0  0  0
M  CHG  1  15  -1
M  END
