4,5,6,8
q = -2.0, confidence = 0.846

 61 64  0  0  1  0  0  0  0  0999 V2000
    6.1063    3.7000   -0.2353 Cl  0  0  0  0  0  0  0  0  0  0  0  0
   -8.0608    1.3051   -0.9821 Cl  0  0  0  0  0  0  0  0  0  0  0  0
   -7.2962   -1.6682   -0.1263 Cl  0  0  0  0  0  0  0  0  0  0  0  0
    1.9585   -1.1825   -0.0174 N   0  0  0  0  0  2  0  0  0  0  0  0
    0.6580    1.2585    0.2725 N   0  0  0  0  0  2  0  0  0  0  0  0
   -1.6024   -0.1130    0.7417 N   0  0  0  0  0  0  0  0  0  0  0  0
    0.5952   -4.4558    0.5444 O   0  5  0  0  0  0  0  0  0  0  0  0
   -0.2122   -2.3546    0.6343 O   0  0  0  0  0  0  0  0  0  0  0  0
   -0.6593    3.2114    0.0425 O   0  0  0  0  0  0  0  0  0  0  0  0
    0.7168   -3.2535    0.3710 C   0  0  0  0  0  0  0  0  0  0  0  0
    1.9613   -2.6358   -0.2849 C   0  0  1  0  0  0  0  0  0  0  0  0
    2.8631   -3.1123    0.1464 H   0  0  0  0  0  0  0  0  0  0  0  0
    3.0645   -0.4724   -0.1157 C   0  0  0  0  0  0  0  0  0  0  0  0
    3.0918    0.9833   -0.0447 C   0  0  0  0  0  0  0  0  0  0  0  0
    4.3720    1.6040   -0.1153 C   0  0  0  0  0  3  0  0  0  0  0  0
    5.2721    0.9788   -0.1465 H   0  0  0  0  0  0  0  0  0  0  0  0
    4.5154    2.9844   -0.1512 C   0  0  0  0  0  0  0  0  0  0  0  0
    3.3704    3.8023   -0.1338 C   0  0  0  0  0  0  0  0  0  0  0  0
    3.4752    4.8954   -0.1867 H   0  0  0  0  0  0  0  0  0  0  0  0
    2.1085    3.2253   -0.0461 C   0  0  0  0  0  0  0  0  0  0  0  0
    1.2204    3.8647   -0.0420 H   0  0  0  0  0  0  0  0  0  0  0  0
    1.9116    1.8129    0.0420 C   0  0  0  0  0  0  0  0  0  0  0  0
   -0.4866    2.0459    0.4009 C   0  0  0  0  0  0  0  0  0  0  0  0
   -1.5819    1.3084    1.1606 C   0  0  2  0  0  0  0  0  0  0  0  0
   -2.5536    1.7939    0.9412 H   0  0  0  0  0  0  0  0  0  0  0  0
   -1.3360    1.2612    2.6953 C   0  0  0  0  0  0  0  0  0  0  0  0
   -0.3223    1.6287    2.9454 H   0  0  0  0  0  0  0  0  0  0  0  0
   -2.0633    1.9185    3.2080 H   0  0  0  0  0  0  0  0  0  0  0  0
   -1.5123   -0.2264    3.0873 C   0  0  0  0  0  0  0  0  0  0  0  0
   -2.0951   -0.3581    4.0189 H   0  0  0  0  0  0  0  0  0  0  0  0
   -0.5292   -0.7164    3.2348 H   0  0  0  0  0  0  0  0  0  0  0  0
   -2.2111   -0.8485    1.8832 C   0  0  0  0  0  0  0  0  0  0  0  0
   -2.0323   -1.9309    1.7551 H   0  0  0  0  0  0  0  0  0  0  0  0
   -3.3033   -0.6380    1.8995 H   0  0  0  0  0  0  0  0  0  0  0  0
   -2.2361   -0.3720   -0.5902 C   0  0  0  0  0  0  0  0  0  0  0  0
   -2.1071   -1.4556   -0.7754 H   0  0  0  0  0  0  0  0  0  0  0  0
   -1.6327    0.1739   -1.3425 H   0  0  0  0  0  0  0  0  0  0  0  0
   -3.6869    0.0367   -0.7066 C   0  0  0  0  0  0  0  0  0  0  0  0
   -4.0385    1.3459   -1.0964 C   0  0  0  0  0  0  0  0  0  0  0  0
   -3.2513    2.0766   -1.3404 H   0  0  0  0  0  0  0  0  0  0  0  0
   -5.3817    1.7300   -1.1782 C   0  0  0  0  0  0  0  0  0  0  0  0
   -5.6602    2.7487   -1.4821 H   0  0  0  0  0  0  0  0  0  0  0  0
   -6.4023    0.8127   -0.8754 C   0  0  0  0  0  0  0  0  0  0  0  0
   -6.0626   -0.5053   -0.4939 C   0  0  0  0  0  0  0  0  0  0  0  0
   -4.7121   -0.8810   -0.4145 C   0  0  0  0  0  0  0  0  0  0  0  0
   -4.4713   -1.9150   -0.1269 H   0  0  0  0  0  0  0  0  0  0  0  0
    1.9074   -2.9344   -1.7898 C   0  0  0  0  0  0  0  0  0  0  0  0
    1.0257   -2.4405   -2.2456 H   0  0  0  0  0  0  0  0  0  0  0  0
    1.8111   -4.0287   -1.9267 H   0  0  0  0  0  0  0  0  0  0  0  0
    2.8215   -2.5859   -2.3064 H   0  0  0  0  0  0  0  0  0  0  0  0
    4.3680   -1.1884   -0.3314 C   0  0  0  0  0  0  0  0  0  0  0  0
    4.9994   -1.8314    0.7529 C   0  0  0  0  0  0  0  0  0  0  0  0
    4.5302   -1.7995    1.7481 H   0  0  0  0  0  0  0  0  0  0  0  0
    6.2186   -2.4993    0.5668 C   0  0  0  0  0  0  0  0  0  0  0  0
    6.7040   -2.9957    1.4204 H   0  0  0  0  0  0  0  0  0  0  0  0
    6.8178   -2.5323   -0.7024 C   0  0  0  0  0  0  0  0  0  0  0  0
    7.7736   -3.0577   -0.8474 H   0  0  0  0  0  0  0  0  0  0  0  0
    6.1982   -1.8873   -1.7843 C   0  0  0  0  0  0  0  0  0  0  0  0
    6.6674   -1.9031   -2.7795 H   0  0  0  0  0  0  0  0  0  0  0  0
    4.9810   -1.2148   -1.6004 C   0  0  0  0  0  0  0  0  0  0  0  0
    4.5028   -0.6924   -2.4428 H   0  0  0  0  0  0  0  0  0  0  0  0
  1 17  1  0  0  0  0
  2 43  1  0  0  0  0
  5 23  1  0  0  0  0
  6 24  1  0  0  0  0
  6 32  1  0  0  0  0
  9 23  2  0  0  0  0
 10  7  1  0  0  0  0
 10  8  2  0  0  0  0
 11  4  1  0  0  0  0
 11 12  1  1  0  0  0
 11 10  1  0  0  0  0
 13 14  2  0  0  0  0
 13  4  1  0  0  0  0
 14 22  1  0  0  0  0
 15 14  1  0  0  0  0
 16 15  1  0  0  0  0
 17 18  2  0  0  0  0
 17 15  1  0  0  0  0
 18 20  1  0  0  0  0
 19 18  1  0  0  0  0
 20 21  1  0  0  0  0
 20 22  2  0  0  0  0
 22  5  1  0  0  0  0
 23 24  1  0  0  0  0
 24 25  1  6  0  0  0
 24 26  1  0  0  0  0
 26 27  1  0  0  0  0
 26 29  1  0  0  0  0
 26 28  1  0  0  0  0
 29 31  1  0  0  0  0
 29 30  1  0  0  0  0
 32 34  1  0  0  0  0
 32 29  1  0  0  0  0
 33 32  1  0  0  0  0
 35  6  1  0  0  0  0
 36 35  1  0  0  0  0
 37 35  1  0  0  0  0
 38 35  1  0  0  0  0
 38 45  1  0  0  0  0
 39 38  2  0  0  0  0
 40 39  1  0  0  0  0
 41 39  1  0  0  0  0
 41 43  2  0  0  0  0
 42 41  1  0  0  0  0
 43 44  1  0  0  0  0
 44 45  2  0  0  0  0
 44  3  1  0  0  0  0
 45 46  1  0  0  0  0
 47 11  1  0  0  0  0
 48 47  1  0  0  0  0
 49 47  1  0  0  0  0
 50 47  1  0  0  0  0
 51 13  1  0  0  0  0
 51 52  1  0  0  0  0
 52 53  1  0  0  0  0
 54 52  2  0  0  0  0
 54 55  1  0  0  0  0
 56 54  1  0  0  0  0
 57 56  1  0  0  0  0
 58 60  1  0  0  0  0
 58 56  2  0  0  0  0
 59 58  1  0  0  0  0
 60 51  2  0  0  0  0
 61 60  1  0  0  0  0
M  CHG  1   7  -1
M  END
