1,4,5,6
 OpenBabel05122313063D

 42 44  0  0  0  0  0  0  0  0999 V2000
   -1.1176   -2.5219   -0.1498 O   0  5  0  0  0  0  0  0  0  0  0  0
    0.1423   -4.3869   -0.1525 O   0  0  0  0  0  0  0  0  0  0  0  0
   -2.7972    2.8679    0.3031 O   0  0  0  0  0  0  0  0  0  0  0  0
   -2.9213   -0.6427   -0.0330 N   0  0  0  0  0  2  0  0  0  0  0  0
   -1.1158    1.2153    0.0114 N   0  0  0  0  0  2  0  0  0  0  0  0
    0.7903   -0.8374   -0.0249 N   0  0  0  0  0  2  0  0  0  0  0  0
   -3.7474   -1.7076   -0.1032 C   0  0  0  0  0  3  0  0  0  0  0  0
   -5.1369   -1.5436   -0.0258 C   0  0  0  0  0  0  0  0  0  0  0  0
   -5.7855   -2.4291   -0.0876 H   0  0  0  0  0  0  0  0  0  0  0  0
   -5.6742   -0.2562    0.1321 C   0  0  0  0  0  0  0  0  0  0  0  0
   -6.7626   -0.1091    0.1978 H   0  0  0  0  0  0  0  0  0  0  0  0
   -4.8008    0.8387    0.2048 C   0  0  0  0  0  0  0  0  0  0  0  0
   -5.1345    1.8789    0.3276 H   0  0  0  0  0  0  0  0  0  0  0  0
   -3.4270    0.6006    0.1146 C   0  0  0  0  0  0  0  0  0  0  0  0
   -2.4107    1.7036    0.1585 C   0  0  0  0  0  0  0  0  0  0  0  0
   -0.0153    2.0676   -0.0659 C   0  0  0  0  0  0  0  0  0  0  0  0
    1.3349    1.5494   -0.0732 C   0  0  0  0  0  0  0  0  0  0  0  0
    2.4262    2.4616   -0.1446 C   0  0  0  0  0  3  0  0  0  0  0  0
    3.4448    2.0520   -0.1420 H   0  0  0  0  0  0  0  0  0  0  0  0
    2.2490    3.8379   -0.2242 C   0  0  0  0  0  0  0  0  0  0  0  0
    3.1181    4.5091   -0.2811 H   0  0  0  0  0  0  0  0  0  0  0  0
    0.9371    4.3412   -0.2321 C   0  0  0  0  0  0  0  0  0  0  0  0
    0.7581    5.4256   -0.2998 H   0  0  0  0  0  0  0  0  0  0  0  0
   -0.1597    3.4850   -0.1500 C   0  0  0  0  0  0  0  0  0  0  0  0
   -1.1727    3.8955   -0.1341 H   0  0  0  0  0  0  0  0  0  0  0  0
    1.6761    0.1341   -0.0158 C   0  0  0  0  0  0  0  0  0  0  0  0
    3.1265   -0.2503    0.0570 C   0  0  0  0  0  0  0  0  0  0  0  0
    3.8573   -0.5054   -1.1207 C   0  0  0  0  0  0  0  0  0  0  0  0
    3.3668   -0.3875   -2.0991 H   0  0  0  0  0  0  0  0  0  0  0  0
    5.2018   -0.8978   -1.0445 C   0  0  0  0  0  0  0  0  0  0  0  0
    5.7664   -1.0922   -1.9689 H   0  0  0  0  0  0  0  0  0  0  0  0
    5.8252   -1.0408    0.2053 C   0  0  0  0  0  0  0  0  0  0  0  0
    6.8797   -1.3498    0.2633 H   0  0  0  0  0  0  0  0  0  0  0  0
    5.1011   -0.7860    1.3807 C   0  0  0  0  0  0  0  0  0  0  0  0
    5.5866   -0.8924    2.3625 H   0  0  0  0  0  0  0  0  0  0  0  0
    3.7564   -0.3925    1.3089 C   0  0  0  0  0  0  0  0  0  0  0  0
    3.1875   -0.1858    2.2283 H   0  0  0  0  0  0  0  0  0  0  0  0
    1.2309   -2.2372    0.0279 C   0  0  0  0  0  0  0  0  0  0  0  0
    1.9638   -2.4656   -0.7725 H   0  0  0  0  0  0  0  0  0  0  0  0
    1.7507   -2.4533    0.9854 H   0  0  0  0  0  0  0  0  0  0  0  0
    0.0282   -3.1729   -0.1046 C   0  0  0  0  0  0  0  0  0  0  0  0
   -3.2449   -2.6806   -0.2142 H   0  0  0  0  0  0  0  0  0  0  0  0
  1 41  1  0  0  0  0
  2 41  2  0  0  0  0
  4 14  1  0  0  0  0
  5 15  1  0  0  0  0
  6 26  1  0  0  0  0
  6 38  1  0  0  0  0
  7  4  1  0  0  0  0
  7  8  1  0  0  0  0
  8 10  2  0  0  0  0
  9  8  1  0  0  0  0
 10 11  1  0  0  0  0
 10 12  1  0  0  0  0
 12 13  1  0  0  0  0
 14 15  1  0  0  0  0
 14 12  2  0  0  0  0
 15  3  2  0  0  0  0
 16  5  1  0  0  0  0
 17 16  1  0  0  0  0
 17 26  2  0  0  0  0
 18 19  1  0  0  0  0
 18 17  1  0  0  0  0
 20 18  1  0  0  0  0
 21 20  1  0  0  0  0
 22 20  2  0  0  0  0
 22 24  1  0  0  0  0
 23 22  1  0  0  0  0
 24 25  1  0  0  0  0
 24 16  2  0  0  0  0
 26 27  1  0  0  0  0
 27 36  1  0  0  0  0
 28 30  1  0  0  0  0
 28 27  2  0  0  0  0
 29 28  1  0  0  0  0
 30 32  2  0  0  0  0
 31 30  1  0  0  0  0
 32 33  1  0  0  0  0
 32 34  1  0  0  0  0
 34 35  1  0  0  0  0
 36 34  2  0  0  0  0
 36 37  1  0  0  0  0
 38 40  1  0  0  0  0
 39 38  1  0  0  0  0
 41 38  1  0  0  0  0
 42  7  1  0  0  0  0
M  CHG  1   1  -1
M  END
