1,3,4,5
 OpenBabel05122313063D

 43 45  0  0  1  0  0  0  0  0999 V2000
   -0.8104   -0.1677   -1.8601 O   0  5  0  0  0  0  0  0  0  0  0  0
   -0.3747    1.2121   -3.5724 O   0  0  0  0  0  0  0  0  0  0  0  0
   -2.9250   -0.1985    0.2285 N   0  0  0  0  0  0  0  0  0  0  0  0
   -1.5863   -2.2942   -0.6434 N   0  0  0  0  0  2  0  0  0  0  0  0
   -1.1260   -1.0254    1.8757 N   0  0  0  0  0  2  0  0  0  0  0  0
   -2.9271   -2.5242   -0.5607 C   0  0  1  0  0  3  0  0  0  0  0  0
   -3.5281   -3.6139   -1.1947 C   0  0  0  0  0  0  0  0  0  0  0  0
   -2.7269   -4.4997   -1.9363 C   0  0  0  0  0  0  0  0  0  0  0  0
   -1.3514   -4.2371   -2.0368 C   0  0  0  0  0  0  0  0  0  0  0  0
   -0.8152   -3.1180   -1.3944 C   0  0  0  0  0  0  0  0  0  0  0  0
   -3.6432   -1.5115    0.2875 C   0  0  0  0  0  0  0  0  0  0  0  0
   -2.1325   -0.3385    2.5019 C   0  0  2  0  0  3  0  0  0  0  0  0
   -2.3392   -0.4330    3.8787 C   0  0  0  0  0  0  0  0  0  0  0  0
   -1.4842   -1.2426    4.6498 C   0  0  0  0  0  0  0  0  0  0  0  0
   -0.4564   -1.9431    3.9977 C   0  0  0  0  0  0  0  0  0  0  0  0
   -0.3079   -1.8163    2.6137 C   0  0  0  0  0  0  0  0  0  0  0  0
   -2.9625    0.4818    1.5489 C   0  0  0  0  0  0  0  0  0  0  0  0
   -3.4724    0.6264   -0.8922 C   0  0  0  0  0  0  0  0  0  0  0  0
   -2.8135    1.9720   -1.0579 C   0  0  0  0  0  0  0  0  0  0  0  0
   -1.5985    2.1303   -1.7682 C   0  0  0  0  0  0  0  0  0  0  0  0
   -1.0660    3.4238   -1.9307 C   0  0  0  0  0  0  0  0  0  0  0  0
   -1.6810    4.5415   -1.3544 C   0  0  0  0  0  0  0  0  0  0  0  0
   -2.8808    4.3870   -0.6403 C   0  0  0  0  0  0  0  0  0  0  0  0
   -3.4452    3.1103   -0.5145 C   0  0  0  0  0  0  0  0  0  0  0  0
   -0.8678    0.9872   -2.4640 C   0  0  0  0  0  0  0  0  0  0  0  0
   -4.6155   -3.7601   -1.1151 H   0  0  0  0  0  0  0  0  0  0  0  0
   -3.1749   -5.3659   -2.4445 H   0  0  0  0  0  0  0  0  0  0  0  0
   -0.6899   -4.8851   -2.6295 H   0  0  0  0  0  0  0  0  0  0  0  0
    0.2417   -2.8252   -1.4683 H   0  0  0  0  0  0  0  0  0  0  0  0
   -3.6324   -1.8556    1.3426 H   0  0  0  0  0  0  0  0  0  0  0  0
   -4.7094   -1.4012   -0.0066 H   0  0  0  0  0  0  0  0  0  0  0  0
   -3.1652    0.1256    4.3433 H   0  0  0  0  0  0  0  0  0  0  0  0
   -1.6226   -1.3253    5.7374 H   0  0  0  0  0  0  0  0  0  0  0  0
    0.2376   -2.5868    4.5573 H   0  0  0  0  0  0  0  0  0  0  0  0
    0.4916   -2.3164    2.0472 H   0  0  0  0  0  0  0  0  0  0  0  0
   -2.4991    1.4792    1.4065 H   0  0  0  0  0  0  0  0  0  0  0  0
   -4.0022    0.6277    1.9238 H   0  0  0  0  0  0  0  0  0  0  0  0
   -3.3443    0.0111   -1.8042 H   0  0  0  0  0  0  0  0  0  0  0  0
   -4.5645    0.7699   -0.7191 H   0  0  0  0  0  0  0  0  0  0  0  0
   -0.1504    3.5222   -2.5320 H   0  0  0  0  0  0  0  0  0  0  0  0
   -1.2321    5.5399   -1.4739 H   0  0  0  0  0  0  0  0  0  0  0  0
   -3.3869    5.2599   -0.2006 H   0  0  0  0  0  0  0  0  0  0  0  0
   -4.4076    2.9894    0.0104 H   0  0  0  0  0  0  0  0  0  0  0  0
  2 25  2  0  0  0  0
  3 11  1  0  0  0  0
  3 17  1  0  0  0  0
  4  6  1  0  0  0  0
  5 12  1  0  0  0  0
  5 16  1  0  0  0  0
  6 11  1  1  0  0  0
  7 26  1  0  0  0  0
  7  6  1  0  0  0  0
  8  7  2  0  0  0  0
  9  8  1  0  0  0  0
  9 10  2  0  0  0  0
 10  4  1  0  0  0  0
 11 30  1  0  0  0  0
 12 17  1  6  0  0  0
 12 13  1  0  0  0  0
 13 32  1  0  0  0  0
 13 14  2  0  0  0  0
 14 33  1  0  0  0  0
 15 34  1  0  0  0  0
 15 14  1  0  0  0  0
 16 15  2  0  0  0  0
 17 37  1  0  0  0  0
 18 39  1  0  0  0  0
 18  3  1  0  0  0  0
 19 18  1  0  0  0  0
 19 24  1  0  0  0  0
 20 19  2  0  0  0  0
 21 20  1  0  0  0  0
 21 22  2  0  0  0  0
 22 23  1  0  0  0  0
 23 24  2  0  0  0  0
 23 42  1  0  0  0  0
 24 43  1  0  0  0  0
 25  1  1  0  0  0  0
 25 20  1  0  0  0  0
 27  8  1  0  0  0  0
 28  9  1  0  0  0  0
 29 10  1  0  0  0  0
 31 11  1  0  0  0  0
 35 16  1  0  0  0  0
 36 17  1  0  0  0  0
 38 18  1  0  0  0  0
 40 21  1  0  0  0  0
 41 22  1  0  0  0  0
M  CHG  1   1  -1
M  END
