2,6,7,8
 OpenBabel05122313063D

 66 69  0  0  0  0  0  0  0  0999 V2000
   -2.1286    0.3792    0.1492 P   0  0  0  0  0  4  0  0  0  0  0  0
    1.3503   -0.9312    1.3835 O   0  5  0  0  0  0  0  0  0  0  0  0
    2.6270   -1.4931    3.1659 O   0  0  0  0  0  0  0  0  0  0  0  0
    6.1262    2.2044   -0.9197 O   0  0  0  0  0  0  0  0  0  0  0  0
    6.1832    0.0593   -0.2103 O   0  0  0  0  0  0  0  0  0  0  0  0
   -0.8757   -0.5353   -0.5179 N   0  0  0  0  0  2  0  0  0  0  0  0
    1.2770   -1.8420   -1.0760 N   0  0  0  0  0  2  0  0  0  0  0  0
    3.3674   -0.1605   -0.1572 N   0  0  0  0  0  0  0  0  0  0  0  0
   -1.0699   -1.9368   -0.7690 C   0  0  0  0  0  0  0  0  0  0  0  0
   -2.2689   -2.6590   -0.6667 C   0  0  0  0  0  0  0  0  0  0  0  0
   -2.2942   -4.0452   -0.9163 C   0  0  0  0  0  0  0  0  0  0  0  0
   -1.1154   -4.7210   -1.2532 C   0  0  0  0  0  0  0  0  0  0  0  0
    0.1002   -4.0211   -1.3291 C   0  0  0  0  0  0  0  0  0  0  0  0
    0.1370   -2.6336   -1.0891 C   0  0  0  0  0  0  0  0  0  0  0  0
    2.5974   -2.4380   -0.9345 C   0  0  0  0  0  0  0  0  0  0  0  0
    3.6615   -1.3449   -1.0387 C   0  0  0  0  0  0  0  0  0  0  0  0
    3.6580   -0.4039    1.2830 C   0  0  0  0  0  0  0  0  0  0  0  0
    2.4775   -1.0258    2.0489 C   0  0  0  0  0  0  0  0  0  0  0  0
    4.0231    1.0799   -0.6359 C   0  0  0  0  0  0  0  0  0  0  0  0
    5.5388    1.1906   -0.6049 C   0  0  0  0  0  0  0  0  0  0  0  0
   -2.4059   -0.1083    1.8688 C   0  0  0  0  0  0  0  0  0  0  0  0
   -1.3461    0.1564    2.7684 C   0  0  0  0  0  0  0  0  0  0  0  0
   -1.3969   -0.3722    4.0645 C   0  0  0  0  0  0  0  0  0  0  0  0
   -2.4906   -1.1544    4.4685 C   0  0  0  0  0  0  0  0  0  0  0  0
   -3.5400   -1.4189    3.5730 C   0  0  0  0  0  0  0  0  0  0  0  0
   -3.4982   -0.9081    2.2686 C   0  0  0  0  0  0  0  0  0  0  0  0
   -1.7475    2.1391    0.0180 C   0  0  0  0  0  0  0  0  0  0  0  0
   -2.0299    3.0113    1.0849 C   0  0  0  0  0  0  0  0  0  0  0  0
   -1.8206    4.3877    0.9213 C   0  0  0  0  0  0  0  0  0  0  0  0
   -1.3315    4.8850   -0.2956 C   0  0  0  0  0  0  0  0  0  0  0  0
   -1.0655    4.0101   -1.3619 C   0  0  0  0  0  0  0  0  0  0  0  0
   -1.2835    2.6357   -1.2162 C   0  0  0  0  0  0  0  0  0  0  0  0
   -3.6604    0.2554   -0.8388 C   0  0  0  0  0  0  0  0  0  0  0  0
   -4.8844    0.7164   -0.3125 C   0  0  0  0  0  0  0  0  0  0  0  0
   -6.0256    0.7436   -1.1273 C   0  0  0  0  0  0  0  0  0  0  0  0
   -5.9450    0.3300   -2.4667 C   0  0  0  0  0  0  0  0  0  0  0  0
   -4.7197   -0.1060   -2.9962 C   0  0  0  0  0  0  0  0  0  0  0  0
   -3.5748   -0.1428   -2.1884 C   0  0  0  0  0  0  0  0  0  0  0  0
    7.1405    0.2818   -0.2383 H   0  0  0  0  0  0  0  0  0  0  0  0
   -3.2024   -2.1596   -0.3803 H   0  0  0  0  0  0  0  0  0  0  0  0
   -3.2454   -4.5903   -0.8291 H   0  0  0  0  0  0  0  0  0  0  0  0
   -1.1317   -5.8055   -1.4388 H   0  0  0  0  0  0  0  0  0  0  0  0
    1.0302   -4.5581   -1.5631 H   0  0  0  0  0  0  0  0  0  0  0  0
    2.6727   -2.9868    0.0358 H   0  0  0  0  0  0  0  0  0  0  0  0
    2.8059   -3.1838   -1.7347 H   0  0  0  0  0  0  0  0  0  0  0  0
    3.6702   -0.9569   -2.0761 H   0  0  0  0  0  0  0  0  0  0  0  0
    4.6688   -1.7479   -0.8099 H   0  0  0  0  0  0  0  0  0  0  0  0
    4.5711   -1.0147    1.4165 H   0  0  0  0  0  0  0  0  0  0  0  0
    3.8271    0.5809    1.7613 H   0  0  0  0  0  0  0  0  0  0  0  0
    3.6962    1.2726   -1.6776 H   0  0  0  0  0  0  0  0  0  0  0  0
    3.6033    1.9212   -0.0434 H   0  0  0  0  0  0  0  0  0  0  0  0
   -0.4762    0.7545    2.4468 H   0  0  0  0  0  0  0  0  0  0  0  0
   -0.5571   -0.1883    4.7503 H   0  0  0  0  0  0  0  0  0  0  0  0
   -2.5201   -1.5737    5.4856 H   0  0  0  0  0  0  0  0  0  0  0  0
   -4.3918   -2.0409    3.8863 H   0  0  0  0  0  0  0  0  0  0  0  0
   -4.3101   -1.1408    1.5644 H   0  0  0  0  0  0  0  0  0  0  0  0
   -2.3900    2.6158    2.0454 H   0  0  0  0  0  0  0  0  0  0  0  0
   -2.0248    5.0721    1.7580 H   0  0  0  0  0  0  0  0  0  0  0  0
   -1.1532    5.9644   -0.4150 H   0  0  0  0  0  0  0  0  0  0  0  0
   -0.6765    4.3991   -2.3143 H   0  0  0  0  0  0  0  0  0  0  0  0
   -1.0576    1.9504   -2.0455 H   0  0  0  0  0  0  0  0  0  0  0  0
   -4.9451    1.0677    0.7286 H   0  0  0  0  0  0  0  0  0  0  0  0
   -6.9817    1.0984   -0.7142 H   0  0  0  0  0  0  0  0  0  0  0  0
   -6.8420    0.3538   -3.1038 H   0  0  0  0  0  0  0  0  0  0  0  0
   -4.6529   -0.4239   -4.0473 H   0  0  0  0  0  0  0  0  0  0  0  0
   -2.6143   -0.4904   -2.5965 H   0  0  0  0  0  0  0  0  0  0  0  0
  1 21  1  0  0  0  0
  2 18  1  0  0  0  0
  4 20  2  0  0  0  0
  6  1  1  0  0  0  0
  7 15  1  0  0  0  0
  8 17  1  0  0  0  0
  9 10  1  0  0  0  0
  9  6  1  0  0  0  0
 10 40  1  0  0  0  0
 11 41  1  0  0  0  0
 11 10  2  0  0  0  0
 12 11  1  0  0  0  0
 13 12  2  0  0  0  0
 13 14  1  0  0  0  0
 14  7  1  0  0  0  0
 14  9  2  0  0  0  0
 15 44  1  0  0  0  0
 16 15  1  0  0  0  0
 16 47  1  0  0  0  0
 16  8  1  0  0  0  0
 17 48  1  0  0  0  0
 17 49  1  0  0  0  0
 17 18  1  0  0  0  0
 18  3  2  0  0  0  0
 19 20  1  0  0  0  0
 19  8  1  0  0  0  0
 19 51  1  0  0  0  0
 20  5  1  0  0  0  0
 21 26  2  0  0  0  0
 21 22  1  0  0  0  0
 22 23  2  0  0  0  0
 23 24  1  0  0  0  0
 23 53  1  0  0  0  0
 24 54  1  0  0  0  0
 25 55  1  0  0  0  0
 25 24  2  0  0  0  0
 26 25  1  0  0  0  0
 27  1  1  0  0  0  0
 27 28  1  0  0  0  0
 28 57  1  0  0  0  0
 29 28  2  0  0  0  0
 29 58  1  0  0  0  0
 30 29  1  0  0  0  0
 31 32  1  0  0  0  0
 31 30  2  0  0  0  0
 32 27  2  0  0  0  0
 33 34  1  0  0  0  0
 33  1  1  0  0  0  0
 34 62  1  0  0  0  0
 35 63  1  0  0  0  0
 35 34  2  0  0  0  0
 36 35  1  0  0  0  0
 37 36  2  0  0  0  0
 37 38  1  0  0  0  0
 38 33  2  0  0  0  0
 39  5  1  0  0  0  0
 42 12  1  0  0  0  0
 43 13  1  0  0  0  0
 45 15  1  0  0  0  0
 46 16  1  0  0  0  0
 50 19  1  0  0  0  0
 52 22  1  0  0  0  0
 56 26  1  0  0  0  0
 59 30  1  0  0  0  0
 60 31  1  0  0  0  0
 61 32  1  0  0  0  0
 64 36  1  0  0  0  0
 65 37  1  0  0  0  0
 66 38  1  0  0  0  0
M  CHG  1   2  -1
M  END
