1,3,4,6
 OpenBabel05122313063D

 32 32  0  0  0  0  0  0  0  0999 V2000
   -0.7439   -0.9723   -1.5905 O   0  5  0  0  0  0  0  0  0  0  0  0
   -2.6056   -1.5865   -2.6959 O   0  0  0  0  0  0  0  0  0  0  0  0
   -2.0018   -0.4841    0.7353 N   0  0  0  0  0  0  0  0  0  0  0  0
    0.0591   -2.3088    0.6690 N   0  0  0  0  0  0  0  0  0  0  0  0
    0.5795   -2.1761    1.5522 H   0  0  0  0  0  0  0  0  0  0  0  0
   -0.5773    1.4467   -0.2295 N   0  0  0  0  0  2  0  0  0  0  0  0
    0.0277    2.2843   -1.0951 C   0  0  0  0  0  3  0  0  0  0  0  0
    0.8480    1.8679   -1.6956 H   0  0  0  0  0  0  0  0  0  0  0  0
   -0.3708    3.6188   -1.2248 C   0  0  0  0  0  0  0  0  0  0  0  0
    0.1504    4.2728   -1.9375 H   0  0  0  0  0  0  0  0  0  0  0  0
   -1.4354    4.0893   -0.4440 C   0  0  0  0  0  0  0  0  0  0  0  0
   -1.7719    5.1332   -0.5262 H   0  0  0  0  0  0  0  0  0  0  0  0
   -2.0808    3.2039    0.4321 C   0  0  0  0  0  0  0  0  0  0  0  0
   -2.9356    3.5287    1.0425 H   0  0  0  0  0  0  0  0  0  0  0  0
   -1.6277    1.8838    0.5191 C   0  0  0  0  0  0  0  0  0  0  0  0
   -2.2192    0.8249    1.4089 C   0  0  0  0  0  0  0  0  0  0  0  0
   -1.6601    0.8067    2.3665 H   0  0  0  0  0  0  0  0  0  0  0  0
   -3.2948    1.0038    1.6190 H   0  0  0  0  0  0  0  0  0  0  0  0
   -2.0647   -1.6515    1.6542 C   0  0  0  0  0  0  0  0  0  0  0  0
   -3.1172   -1.9300    1.8751 H   0  0  0  0  0  0  0  0  0  0  0  0
   -1.5732   -1.3545    2.6018 H   0  0  0  0  0  0  0  0  0  0  0  0
   -1.3055   -2.7943    1.0038 C   0  0  0  0  0  0  0  0  0  0  0  0
   -1.2609   -3.6811    1.6716 H   0  0  0  0  0  0  0  0  0  0  0  0
   -1.7921   -3.1218    0.0629 H   0  0  0  0  0  0  0  0  0  0  0  0
    0.7893   -3.2323   -0.2186 C   0  0  0  0  0  0  0  0  0  0  0  0
    0.7429   -4.2708    0.1701 H   0  0  0  0  0  0  0  0  0  0  0  0
    1.8479   -2.9255   -0.2855 H   0  0  0  0  0  0  0  0  0  0  0  0
    0.3346   -3.1927   -1.2262 H   0  0  0  0  0  0  0  0  0  0  0  0
   -2.8521   -0.6530   -0.4846 C   0  0  0  0  0  0  0  0  0  0  0  0
   -3.2894    0.3280   -0.7571 H   0  0  0  0  0  0  0  0  0  0  0  0
   -3.6994   -1.3396   -0.2876 H   0  0  0  0  0  0  0  0  0  0  0  0
   -2.0491   -1.1364   -1.7134 C   0  0  0  0  0  0  0  0  0  0  0  0
  2 32  2  0  0  0  0
  3 16  1  0  0  0  0
  3 19  1  0  0  0  0
  4 22  1  0  0  0  0
  4  5  1  0  0  0  0
  6 15  1  0  0  0  0
  7  6  1  0  0  0  0
  8  7  1  0  0  0  0
  9  7  1  0  0  0  0
  9 11  2  0  0  0  0
 10  9  1  0  0  0  0
 11 13  1  0  0  0  0
 12 11  1  0  0  0  0
 13 15  2  0  0  0  0
 13 14  1  0  0  0  0
 15 16  1  0  0  0  0
 16 18  1  0  0  0  0
 16 17  1  0  0  0  0
 19 20  1  0  0  0  0
 19 21  1  0  0  0  0
 22 19  1  0  0  0  0
 22 23  1  0  0  0  0
 24 22  1  0  0  0  0
 25 26  1  0  0  0  0
 25  4  1  0  0  0  0
 27 25  1  0  0  0  0
 28 25  1  0  0  0  0
 29 31  1  0  0  0  0
 29  3  1  0  0  0  0
 30 29  1  0  0  0  0
 32  1  1  0  0  0  0
 32 29  1  0  0  0  0
M  CHG  1   1  -1
M  END
