2,4,5,6
 OpenBabel05122313063D

 60 62  0  0  1  0  0  0  0  0999 V2000
   -2.1658    1.5234   -2.4616 O   0  0  0  0  0  0  0  0  0  0  0  0
    2.0577    0.7370    1.2482 O   0  5  0  0  0  0  0  0  0  0  0  0
    3.9057   -0.2605    2.0603 O   0  0  0  0  0  0  0  0  0  0  0  0
    1.1024   -1.3322    0.0992 N   0  0  0  0  0  2  0  0  0  0  0  0
   -0.9016    0.2246   -0.9638 N   0  0  0  0  0  2  0  0  0  0  0  0
    0.1749    2.3581    0.2027 N   0  0  0  0  0  0  0  0  0  0  0  0
   -0.6683    2.6520   -1.0011 C   0  0  2  0  0  0  0  0  0  0  0  0
   -1.3339    1.3953   -1.5627 C   0  0  0  0  0  0  0  0  0  0  0  0
    0.2675    3.3594   -2.0183 C   0  0  0  0  0  0  0  0  0  0  0  0
    1.6714    3.2190   -1.4116 C   0  0  0  0  0  0  0  0  0  0  0  0
    1.3841    3.2265    0.0820 C   0  0  0  0  0  0  0  0  0  0  0  0
   -0.5124    2.5517    1.5167 C   0  0  0  0  0  0  0  0  0  0  0  0
   -1.5733    1.5096    1.7825 C   0  0  0  0  0  0  0  0  0  0  0  0
   -1.2169    0.2944    2.4057 C   0  0  0  0  0  0  0  0  0  0  0  0
   -2.1603   -0.7318    2.5528 C   0  0  0  0  0  0  0  0  0  0  0  0
   -3.4727   -0.5564    2.0847 C   0  0  0  0  0  0  0  0  0  0  0  0
   -3.8422    0.6574    1.4879 C   0  0  0  0  0  0  0  0  0  0  0  0
   -2.8974    1.6863    1.3432 C   0  0  0  0  0  0  0  0  0  0  0  0
    2.8950   -0.2706    1.3695 C   0  0  0  0  0  0  0  0  0  0  0  0
    2.5099   -1.4829    0.4976 C   0  0  2  0  0  0  0  0  0  0  0  0
    3.4487   -1.6041   -0.7419 C   0  0  0  0  0  0  0  0  0  0  0  0
    4.8579   -2.0299   -0.3191 C   0  0  0  0  0  0  0  0  0  0  0  0
    0.3410   -2.3674   -0.1857 C   0  0  0  0  0  0  0  0  0  0  0  0
    0.8851   -3.7784   -0.0829 C   0  0  0  0  0  0  0  0  0  0  0  0
   -1.0576   -2.2079   -0.5866 C   0  0  0  0  0  0  0  0  0  0  0  0
   -1.8934   -3.3597   -0.5567 C   0  0  0  0  0  0  0  0  0  0  0  0
   -3.2228   -3.3342   -0.9633 C   0  0  0  0  0  0  0  0  0  0  0  0
   -3.7510   -2.1278   -1.4597 C   0  0  0  0  0  0  0  0  0  0  0  0
   -2.9689   -0.9787   -1.5103 C   0  0  0  0  0  0  0  0  0  0  0  0
   -1.6215   -0.9605   -1.0413 C   0  0  1  0  0  3  0  0  0  0  0  0
    3.4609   -0.3292   -1.5911 C   0  0  0  0  0  0  0  0  0  0  0  0
   -1.5021    3.3310   -0.7217 H   0  0  0  0  0  0  0  0  0  0  0  0
    0.1630    2.9182   -3.0276 H   0  0  0  0  0  0  0  0  0  0  0  0
   -0.0100    4.4289   -2.0999 H   0  0  0  0  0  0  0  0  0  0  0  0
    2.1377    2.2538   -1.6936 H   0  0  0  0  0  0  0  0  0  0  0  0
    2.3612    4.0299   -1.7150 H   0  0  0  0  0  0  0  0  0  0  0  0
    2.1853    2.8176    0.7238 H   0  0  0  0  0  0  0  0  0  0  0  0
    1.1174    4.2529    0.4260 H   0  0  0  0  0  0  0  0  0  0  0  0
    0.2829    2.4886    2.2843 H   0  0  0  0  0  0  0  0  0  0  0  0
   -0.9439    3.5786    1.5403 H   0  0  0  0  0  0  0  0  0  0  0  0
   -0.1883    0.1598    2.7734 H   0  0  0  0  0  0  0  0  0  0  0  0
   -1.8682   -1.6787    3.0313 H   0  0  0  0  0  0  0  0  0  0  0  0
   -4.2065   -1.3703    2.1807 H   0  0  0  0  0  0  0  0  0  0  0  0
   -4.8697    0.8032    1.1227 H   0  0  0  0  0  0  0  0  0  0  0  0
   -3.1935    2.6340    0.8664 H   0  0  0  0  0  0  0  0  0  0  0  0
    2.6480   -2.3862    1.1254 H   0  0  0  0  0  0  0  0  0  0  0  0
    3.0111   -2.4146   -1.3677 H   0  0  0  0  0  0  0  0  0  0  0  0
    5.5145   -2.1310   -1.2067 H   0  0  0  0  0  0  0  0  0  0  0  0
    4.8444   -3.0058    0.2088 H   0  0  0  0  0  0  0  0  0  0  0  0
    5.2996   -1.2877    0.3737 H   0  0  0  0  0  0  0  0  0  0  0  0
    0.5451   -4.3903   -0.9386 H   0  0  0  0  0  0  0  0  0  0  0  0
    1.9855   -3.8130   -0.0577 H   0  0  0  0  0  0  0  0  0  0  0  0
    0.5147   -4.2708    0.8412 H   0  0  0  0  0  0  0  0  0  0  0  0
   -1.4832   -4.3060   -0.1817 H   0  0  0  0  0  0  0  0  0  0  0  0
   -3.8382   -4.2439   -0.9084 H   0  0  0  0  0  0  0  0  0  0  0  0
   -4.7939   -2.0802   -1.8096 H   0  0  0  0  0  0  0  0  0  0  0  0
   -3.3830   -0.0496   -1.9128 H   0  0  0  0  0  0  0  0  0  0  0  0
    2.4346   -0.0403   -1.8975 H   0  0  0  0  0  0  0  0  0  0  0  0
    3.9072    0.5196   -1.0330 H   0  0  0  0  0  0  0  0  0  0  0  0
    4.0615   -0.4814   -2.5101 H   0  0  0  0  0  0  0  0  0  0  0  0
  1  8  2  0  0  0  0
  2 19  1  0  0  0  0
  4 20  1  0  0  0  0
  6 12  1  0  0  0  0
  7 32  1  1  0  0  0
  7  6  1  0  0  0  0
  8  7  1  0  0  0  0
  8  5  1  0  0  0  0
  9 10  1  0  0  0  0
  9  7  1  0  0  0  0
 10 11  1  0  0  0  0
 11  6  1  0  0  0  0
 11 38  1  0  0  0  0
 11 37  1  0  0  0  0
 12 40  1  0  0  0  0
 12 13  1  0  0  0  0
 12 39  1  0  0  0  0
 13 14  1  0  0  0  0
 14 15  2  0  0  0  0
 14 41  1  0  0  0  0
 15 42  1  0  0  0  0
 16 43  1  0  0  0  0
 16 15  1  0  0  0  0
 17 16  2  0  0  0  0
 18 17  1  0  0  0  0
 18 13  2  0  0  0  0
 19  3  2  0  0  0  0
 20 46  1  1  0  0  0
 20 19  1  0  0  0  0
 21 22  1  0  0  0  0
 21 20  1  0  0  0  0
 22 49  1  0  0  0  0
 22 50  1  0  0  0  0
 23 24  1  0  0  0  0
 23  4  1  0  0  0  0
 24 52  1  0  0  0  0
 24 53  1  0  0  0  0
 25 26  1  0  0  0  0
 25 23  2  0  0  0  0
 26 54  1  0  0  0  0
 27 55  1  0  0  0  0
 27 26  2  0  0  0  0
 28 27  1  0  0  0  0
 29 28  2  0  0  0  0
 29 30  1  0  0  0  0
 30  5  1  1  0  0  0
 30 25  1  0  0  0  0
 31 59  1  0  0  0  0
 31 21  1  0  0  0  0
 33  9  1  0  0  0  0
 34  9  1  0  0  0  0
 35 10  1  0  0  0  0
 36 10  1  0  0  0  0
 44 17  1  0  0  0  0
 45 18  1  0  0  0  0
 47 21  1  0  0  0  0
 48 22  1  0  0  0  0
 51 24  1  0  0  0  0
 56 28  1  0  0  0  0
 57 29  1  0  0  0  0
 58 31  1  0  0  0  0
 60 31  1  0  0  0  0
M  CHG  1   2  -1
M  END
