3,6,7,8
 OpenBabel05122313063D

 49 51  0  0  1  0  0  0  0  0999 V2000
    5.9455   -2.2902   -0.3943 Cl  0  0  0  0  0  0  0  0  0  0  0  0
    3.9117   -4.7443   -0.2966 Cl  0  0  0  0  0  0  0  0  0  0  0  0
   -0.6050    2.4592   -0.2209 O   0  5  0  0  0  0  0  0  0  0  0  0
    3.6909    2.0429   -0.3591 O   0  0  0  0  0  0  0  0  0  0  0  0
   -0.9675   -3.2025   -0.2122 O   0  0  0  0  0  0  0  0  0  0  0  0
    1.7635    0.8426    0.0380 N   0  0  0  0  0  2  0  0  0  0  0  0
    0.1471   -1.1788    0.1803 N   0  0  0  0  0  2  0  0  0  0  0  0
   -2.1229    0.1552    0.2063 N   0  0  0  0  0  2  0  0  0  0  0  0
    0.2788    3.4645   -0.4093 C   0  0  0  0  0  0  0  0  0  0  0  0
   -0.2828    4.7374   -0.6645 C   0  0  0  0  0  0  0  0  0  0  0  0
    0.5310    5.8548   -0.8585 C   0  0  0  0  0  0  0  0  0  0  0  0
    1.9309    5.7227   -0.8041 C   0  0  0  0  0  0  0  0  0  0  0  0
    2.4889    4.4661   -0.5689 C   0  0  0  0  0  0  0  0  0  0  0  0
    1.6929    3.3124   -0.3692 C   0  0  0  0  0  0  0  0  0  0  0  0
    2.4659    2.0320   -0.2214 C   0  0  0  0  0  0  0  0  0  0  0  0
    2.3929   -0.4371   -0.0195 C   0  0  0  0  0  0  0  0  0  0  0  0
    3.7696   -0.6956   -0.1535 C   0  0  0  0  0  0  0  0  0  0  0  0
    4.2367   -2.0183   -0.2369 C   0  0  0  0  0  0  0  0  0  0  0  0
    3.3406   -3.1069   -0.1901 C   0  0  0  0  0  0  0  0  0  0  0  0
    1.9654   -2.8691   -0.0513 C   0  0  0  0  0  0  0  0  0  0  0  0
    1.4976   -1.5496    0.0385 C   0  0  0  0  0  0  0  0  0  0  0  0
   -0.9571   -1.9910   -0.0043 C   0  0  0  0  0  0  0  0  0  0  0  0
   -2.2374   -1.1833    0.0093 C   0  0  2  0  0  3  0  0  0  0  0  0
   -3.4797   -1.7776   -0.2210 C   0  0  0  0  0  0  0  0  0  0  0  0
   -4.6471   -0.9894   -0.2490 C   0  0  0  0  0  0  0  0  0  0  0  0
   -4.4818    0.4030   -0.0524 C   0  0  0  0  0  0  0  0  0  0  0  0
   -3.2151    0.9458    0.1633 C   0  0  0  0  0  0  0  0  0  0  0  0
   -6.0405   -1.5795   -0.4844 C   0  0  0  0  0  0  0  0  0  0  0  0
   -5.9922   -3.1044   -0.6773 C   0  0  0  0  0  0  0  0  0  0  0  0
   -6.6464   -0.9328   -1.7523 C   0  0  0  0  0  0  0  0  0  0  0  0
   -6.9266   -1.2570    0.7421 C   0  0  0  0  0  0  0  0  0  0  0  0
   -1.3795    4.8124   -0.6944 H   0  0  0  0  0  0  0  0  0  0  0  0
    0.0706    6.8365   -1.0490 H   0  0  0  0  0  0  0  0  0  0  0  0
    2.5808    6.5978   -0.9501 H   0  0  0  0  0  0  0  0  0  0  0  0
    3.5781    4.3188   -0.5424 H   0  0  0  0  0  0  0  0  0  0  0  0
    4.4739    0.1390   -0.1975 H   0  0  0  0  0  0  0  0  0  0  0  0
    1.2543   -3.7016   -0.0209 H   0  0  0  0  0  0  0  0  0  0  0  0
   -3.4804   -2.8642   -0.3782 H   0  0  0  0  0  0  0  0  0  0  0  0
   -5.3451    1.0826   -0.0690 H   0  0  0  0  0  0  0  0  0  0  0  0
   -3.0292    2.0223    0.2944 H   0  0  0  0  0  0  0  0  0  0  0  0
   -5.5809   -3.6215    0.2125 H   0  0  0  0  0  0  0  0  0  0  0  0
   -7.0173   -3.4905   -0.8418 H   0  0  0  0  0  0  0  0  0  0  0  0
   -5.3836   -3.3913   -1.5579 H   0  0  0  0  0  0  0  0  0  0  0  0
   -6.0219   -1.1401   -2.6443 H   0  0  0  0  0  0  0  0  0  0  0  0
   -7.6579   -1.3470   -1.9375 H   0  0  0  0  0  0  0  0  0  0  0  0
   -6.7476    0.1661   -1.6531 H   0  0  0  0  0  0  0  0  0  0  0  0
   -7.0332   -0.1662    0.9047 H   0  0  0  0  0  0  0  0  0  0  0  0
   -7.9424   -1.6745    0.5907 H   0  0  0  0  0  0  0  0  0  0  0  0
   -6.5068   -1.7016    1.6666 H   0  0  0  0  0  0  0  0  0  0  0  0
  1 18  1  0  0  0  0
  2 19  1  0  0  0  0
  4 15  2  0  0  0  0
  5 22  2  0  0  0  0
  9 14  1  0  0  0  0
  9  3  1  0  0  0  0
 10  9  2  0  0  0  0
 11 12  2  0  0  0  0
 11 10  1  0  0  0  0
 12 13  1  0  0  0  0
 13 35  1  0  0  0  0
 13 14  2  0  0  0  0
 14 15  1  0  0  0  0
 15  6  1  0  0  0  0
 16  6  1  0  0  0  0
 16 21  1  0  0  0  0
 17 16  2  0  0  0  0
 18 19  2  0  0  0  0
 18 17  1  0  0  0  0
 19 20  1  0  0  0  0
 20 37  1  0  0  0  0
 20 21  2  0  0  0  0
 21  7  1  0  0  0  0
 22  7  1  0  0  0  0
 23 22  1  6  0  0  0
 23  8  1  0  0  0  0
 24 23  1  0  0  0  0
 25 24  2  0  0  0  0
 25 26  1  0  0  0  0
 26 27  2  0  0  0  0
 27  8  1  0  0  0  0
 27 40  1  0  0  0  0
 28 25  1  0  0  0  0
 28 31  1  0  0  0  0
 29 28  1  0  0  0  0
 29 41  1  0  0  0  0
 30 46  1  0  0  0  0
 30 28  1  0  0  0  0
 31 47  1  0  0  0  0
 31 49  1  0  0  0  0
 32 10  1  0  0  0  0
 33 11  1  0  0  0  0
 34 12  1  0  0  0  0
 36 17  1  0  0  0  0
 38 24  1  0  0  0  0
 39 26  1  0  0  0  0
 42 29  1  0  0  0  0
 43 29  1  0  0  0  0
 44 30  1  0  0  0  0
 45 30  1  0  0  0  0
 48 31  1  0  0  0  0
M  CHG  1   3  -1
M  END
