1,2,3,4
 OpenBabel05122313063D

 30 30  0  0  1  0  0  0  0  0999 V2000
   -0.7281    1.7477   -0.1869 O   0  0  0  0  0  1  0  0  0  0  0  0
   -1.5533   -1.0039    0.0398 N   0  0  0  0  0  2  0  0  0  0  0  0
    0.9292   -1.8188    0.0056 N   0  0  0  0  0  2  0  0  0  0  0  0
    1.9639    0.5788    0.0554 N   0  0  0  0  0  2  0  0  0  0  0  0
    4.0169    1.3517   -0.0488 N   0  0  0  0  0  0  0  0  0  0  0  0
   -2.3981    3.4055   -0.0083 C   0  0  0  0  0  0  0  0  0  0  0  0
   -1.9916    1.9515   -0.0161 C   0  0  1  0  0  3  0  0  0  0  0  0
   -2.9714    0.9522    0.1496 C   0  0  0  0  0  0  0  0  0  0  0  0
   -2.7655   -0.4505    0.1225 C   0  0  0  0  0  0  0  0  0  0  0  0
   -3.9796   -1.3482    0.1709 C   0  0  0  0  0  0  0  0  0  0  0  0
   -1.3738   -2.4316   -0.1999 C   0  0  0  0  0  0  0  0  0  0  0  0
    0.0733   -2.7636   -0.3073 C   0  0  0  0  0  3  0  0  0  0  0  0
    2.2382   -1.8011    0.2802 C   0  0  0  0  0  3  0  0  0  0  0  0
    2.8428   -0.5077    0.1595 C   0  0  0  0  0  0  0  0  0  0  0  0
    4.1478   -0.0116    0.1076 C   0  0  0  0  0  0  0  0  0  0  0  0
    2.6931    1.6773   -0.0760 C   0  0  0  0  0  3  0  0  0  0  0  0
    4.7908    2.0208   -0.0819 H   0  0  0  0  0  0  0  0  0  0  0  0
   -2.0953    3.8768   -0.9655 H   0  0  0  0  0  0  0  0  0  0  0  0
   -3.4846    3.5398    0.1362 H   0  0  0  0  0  0  0  0  0  0  0  0
   -1.8529    3.9372    0.7980 H   0  0  0  0  0  0  0  0  0  0  0  0
   -4.0070    1.2920    0.2735 H   0  0  0  0  0  0  0  0  0  0  0  0
   -4.0740   -1.9378   -0.7650 H   0  0  0  0  0  0  0  0  0  0  0  0
   -4.9063   -0.7631    0.2998 H   0  0  0  0  0  0  0  0  0  0  0  0
   -3.9020   -2.0749    1.0059 H   0  0  0  0  0  0  0  0  0  0  0  0
   -1.8172   -3.0136    0.6468 H   0  0  0  0  0  0  0  0  0  0  0  0
   -1.9069   -2.8038   -1.1085 H   0  0  0  0  0  0  0  0  0  0  0  0
    0.4134   -3.7410   -0.6928 H   0  0  0  0  0  0  0  0  0  0  0  0
    2.7577   -2.6860    0.6801 H   0  0  0  0  0  0  0  0  0  0  0  0
    5.1197   -0.5141    0.1052 H   0  0  0  0  0  0  0  0  0  0  0  0
    2.3030    2.6995   -0.1458 H   0  0  0  0  0  0  0  0  0  0  0  0
  2  9  1  0  0  0  0
  3 13  1  0  0  0  0
  4 14  1  0  0  0  0
  5 15  1  0  0  0  0
  6 19  1  0  0  0  0
  6 20  1  0  0  0  0
  7  1  1  6  0  0  0
  7  6  1  0  0  0  0
  7  8  1  0  0  0  0
  8 21  1  0  0  0  0
  9  8  2  0  0  0  0
  9 10  1  0  0  0  0
 10 23  1  0  0  0  0
 10 24  1  0  0  0  0
 11  2  1  0  0  0  0
 11 25  1  0  0  0  0
 12 11  1  0  0  0  0
 12  3  1  0  0  0  0
 13 28  1  0  0  0  0
 14 13  1  0  0  0  0
 15 14  2  0  0  0  0
 16  5  1  0  0  0  0
 16  4  1  0  0  0  0
 17  5  1  0  0  0  0
 18  6  1  0  0  0  0
 22 10  1  0  0  0  0
 26 11  1  0  0  0  0
 27 12  1  0  0  0  0
 29 15  1  0  0  0  0
 30 16  1  0  0  0  0
M  END
