1,2,3,4
 OpenBabel05122313063D

 79 80  0  0  0  0  0  0  0  0999 V2000
   -0.0634    1.1680   -1.3482 O   0  5  0  0  0  0  0  0  0  0  0  0
   -1.2969   -0.5340    1.6538 N   0  0  0  0  0  0  0  0  0  0  0  0
   -3.4907   -0.5076   -0.3030 N   0  0  0  0  0  0  0  0  0  0  0  0
   -0.9565   -1.8314   -0.9688 N   0  0  0  0  0  0  0  0  0  0  0  0
   -0.4177    0.1739    3.9283 C   0  0  0  0  0  0  0  0  0  0  0  0
   -1.3266   -0.1191    4.4953 H   0  0  0  0  0  0  0  0  0  0  0  0
    0.0393    1.0295    4.4642 H   0  0  0  0  0  0  0  0  0  0  0  0
    0.3028   -0.6665    3.9722 H   0  0  0  0  0  0  0  0  0  0  0  0
   -0.7471    0.5750    2.4826 C   0  0  0  0  0  0  0  0  0  0  0  0
    0.2020    0.8483    1.9739 H   0  0  0  0  0  0  0  0  0  0  0  0
   -1.6559    1.8028    2.4323 C   0  0  0  0  0  0  0  0  0  0  0  0
   -1.9097    2.0370    1.3766 H   0  0  0  0  0  0  0  0  0  0  0  0
   -1.1368    2.6797    2.8650 H   0  0  0  0  0  0  0  0  0  0  0  0
   -2.5940    1.6540    3.0071 H   0  0  0  0  0  0  0  0  0  0  0  0
   -5.8847    0.0731   -0.9391 C   0  0  0  0  0  0  0  0  0  0  0  0
   -6.1337   -1.0040   -1.0277 H   0  0  0  0  0  0  0  0  0  0  0  0
   -6.4810    0.6128   -1.7010 H   0  0  0  0  0  0  0  0  0  0  0  0
   -6.2263    0.4239    0.0558 H   0  0  0  0  0  0  0  0  0  0  0  0
   -4.3889    0.3470   -1.1495 C   0  0  0  0  0  0  0  0  0  0  0  0
   -4.1230    0.0654   -2.1908 H   0  0  0  0  0  0  0  0  0  0  0  0
   -4.0570    1.8306   -0.9878 C   0  0  0  0  0  0  0  0  0  0  0  0
   -4.3499    2.2188    0.0094 H   0  0  0  0  0  0  0  0  0  0  0  0
   -4.5980    2.4300   -1.7468 H   0  0  0  0  0  0  0  0  0  0  0  0
   -2.9606    1.9856   -1.1143 H   0  0  0  0  0  0  0  0  0  0  0  0
   -2.6416   -0.9941    2.0241 C   0  0  0  0  0  0  0  0  0  0  0  0
   -2.8878   -0.7493    3.0822 H   0  0  0  0  0  0  0  0  0  0  0  0
   -2.6643   -2.1018    1.9777 H   0  0  0  0  0  0  0  0  0  0  0  0
   -3.7752   -0.4258    1.1436 C   0  0  0  0  0  0  0  0  0  0  0  0
   -4.7175   -0.9618    1.4157 H   0  0  0  0  0  0  0  0  0  0  0  0
   -3.9300    0.6410    1.3892 H   0  0  0  0  0  0  0  0  0  0  0  0
   -3.4387   -1.9115   -0.7874 C   0  0  0  0  0  0  0  0  0  0  0  0
   -4.3451   -2.1628   -1.3807 H   0  0  0  0  0  0  0  0  0  0  0  0
   -3.4689   -2.5893    0.0883 H   0  0  0  0  0  0  0  0  0  0  0  0
   -2.1930   -2.2240   -1.6320 C   0  0  0  0  0  0  0  0  0  0  0  0
   -2.2261   -3.3115   -1.9087 H   0  0  0  0  0  0  0  0  0  0  0  0
   -2.2445   -1.6563   -2.5844 H   0  0  0  0  0  0  0  0  0  0  0  0
   -0.6456   -2.5446    0.2698 C   0  0  0  0  0  0  0  0  0  0  0  0
    0.2270   -3.2264    0.1332 H   0  0  0  0  0  0  0  0  0  0  0  0
   -1.4986   -3.2056    0.5293 H   0  0  0  0  0  0  0  0  0  0  0  0
   -0.3207   -1.6184    1.4561 C   0  0  0  0  0  0  0  0  0  0  0  0
   -0.2059   -2.2598    2.3663 H   0  0  0  0  0  0  0  0  0  0  0  0
    0.6599   -1.1390    1.2671 H   0  0  0  0  0  0  0  0  0  0  0  0
    0.1986   -1.6258   -1.8689 C   0  0  0  0  0  0  0  0  0  0  0  0
   -0.1951   -1.0878   -2.7576 H   0  0  0  0  0  0  0  0  0  0  0  0
    0.6079   -2.6085   -2.2146 H   0  0  0  0  0  0  0  0  0  0  0  0
    1.3042   -0.8088   -1.2493 C   0  0  0  0  0  0  0  0  0  0  0  0
    2.5113   -1.4195   -0.8849 C   0  0  0  0  0  0  0  0  0  0  0  0
    2.6108   -2.5062   -1.0537 H   0  0  0  0  0  0  0  0  0  0  0  0
    3.5774   -0.6938   -0.3218 C   0  0  0  0  0  0  0  0  0  0  0  0
    3.3909    0.6984   -0.1947 C   0  0  0  0  0  0  0  0  0  0  0  0
    4.2164    1.2964    0.2093 H   0  0  0  0  0  0  0  0  0  0  0  0
    2.2107    1.3726   -0.5581 C   0  0  0  0  0  0  0  0  0  0  0  0
    1.0970    0.6044   -1.0557 C   0  0  0  0  0  0  0  0  0  0  0  0
    2.1021    2.9066   -0.4557 C   0  0  0  0  0  0  0  0  0  0  0  0
    1.7916    3.4810   -1.8584 C   0  0  0  0  0  0  0  0  0  0  0  0
    1.6884    4.5862   -1.8109 H   0  0  0  0  0  0  0  0  0  0  0  0
    0.8513    3.0482   -2.2482 H   0  0  0  0  0  0  0  0  0  0  0  0
    2.6122    3.2426   -2.5657 H   0  0  0  0  0  0  0  0  0  0  0  0
    0.9673    3.2924    0.5193 C   0  0  0  0  0  0  0  0  0  0  0  0
    1.2089    2.9580    1.5502 H   0  0  0  0  0  0  0  0  0  0  0  0
    0.0204    2.8206    0.1987 H   0  0  0  0  0  0  0  0  0  0  0  0
    0.8303    4.3945    0.5448 H   0  0  0  0  0  0  0  0  0  0  0  0
    3.4019    3.5580    0.0480 C   0  0  0  0  0  0  0  0  0  0  0  0
    3.2723    4.6591    0.0884 H   0  0  0  0  0  0  0  0  0  0  0  0
    4.2597    3.3471   -0.6227 H   0  0  0  0  0  0  0  0  0  0  0  0
    3.6720    3.2174    1.0688 H   0  0  0  0  0  0  0  0  0  0  0  0
    4.8645   -1.4162    0.1135 C   0  0  0  0  0  0  0  0  0  0  0  0
    4.5200   -2.4556    1.2054 C   0  0  0  0  0  0  0  0  0  0  0  0
    4.0726   -1.9592    2.0910 H   0  0  0  0  0  0  0  0  0  0  0  0
    5.4287   -3.0019    1.5371 H   0  0  0  0  0  0  0  0  0  0  0  0
    3.7909   -3.2049    0.8368 H   0  0  0  0  0  0  0  0  0  0  0  0
    5.4937   -2.1400   -1.0984 C   0  0  0  0  0  0  0  0  0  0  0  0
    4.7970   -2.8810   -1.5388 H   0  0  0  0  0  0  0  0  0  0  0  0
    6.4175   -2.6804   -0.8013 H   0  0  0  0  0  0  0  0  0  0  0  0
    5.7574   -1.4146   -1.8945 H   0  0  0  0  0  0  0  0  0  0  0  0
    5.9097   -0.4447    0.6888 C   0  0  0  0  0  0  0  0  0  0  0  0
    6.2183    0.3149   -0.0574 H   0  0  0  0  0  0  0  0  0  0  0  0
    6.8182   -1.0028    0.9951 H   0  0  0  0  0  0  0  0  0  0  0  0
    5.5267    0.0896    1.5816 H   0  0  0  0  0  0  0  0  0  0  0  0
  1 53  1  0  0  0  0
  2 25  1  0  0  0  0
  2  9  1  0  0  0  0
  3 28  1  0  0  0  0
  4 37  1  0  0  0  0
  5  8  1  0  0  0  0
  5  7  1  0  0  0  0
  5  6  1  0  0  0  0
  9  5  1  0  0  0  0
 10  9  1  0  0  0  0
 11  9  1  0  0  0  0
 11 13  1  0  0  0  0
 11 14  1  0  0  0  0
 12 11  1  0  0  0  0
 15 18  1  0  0  0  0
 16 15  1  0  0  0  0
 17 15  1  0  0  0  0
 19 21  1  0  0  0  0
 19 15  1  0  0  0  0
 19  3  1  0  0  0  0
 20 19  1  0  0  0  0
 21 22  1  0  0  0  0
 23 21  1  0  0  0  0
 24 21  1  0  0  0  0
 25 26  1  0  0  0  0
 27 25  1  0  0  0  0
 28 30  1  0  0  0  0
 28 29  1  0  0  0  0
 28 25  1  0  0  0  0
 31  3  1  0  0  0  0
 31 33  1  0  0  0  0
 32 31  1  0  0  0  0
 34  4  1  0  0  0  0
 34 31  1  0  0  0  0
 35 34  1  0  0  0  0
 36 34  1  0  0  0  0
 37 39  1  0  0  0  0
 37 40  1  0  0  0  0
 38 37  1  0  0  0  0
 40  2  1  0  0  0  0
 40 41  1  0  0  0  0
 42 40  1  0  0  0  0
 43 46  1  0  0  0  0
 43  4  1  0  0  0  0
 44 43  1  0  0  0  0
 45 43  1  0  0  0  0
 46 53  2  0  0  0  0
 46 47  1  0  0  0  0
 47 49  2  0  0  0  0
 48 47  1  0  0  0  0
 49 50  1  0  0  0  0
 49 67  1  0  0  0  0
 50 51  1  0  0  0  0
 52 54  1  0  0  0  0
 52 50  2  0  0  0  0
 53 52  1  0  0  0  0
 54 63  1  0  0  0  0
 54 59  1  0  0  0  0
 55 56  1  0  0  0  0
 55 54  1  0  0  0  0
 57 55  1  0  0  0  0
 58 55  1  0  0  0  0
 59 62  1  0  0  0  0
 59 60  1  0  0  0  0
 61 59  1  0  0  0  0
 63 64  1  0  0  0  0
 63 66  1  0  0  0  0
 65 63  1  0  0  0  0
 67 76  1  0  0  0  0
 67 68  1  0  0  0  0
 68 70  1  0  0  0  0
 68 69  1  0  0  0  0
 71 68  1  0  0  0  0
 72 74  1  0  0  0  0
 72 67  1  0  0  0  0
 73 72  1  0  0  0  0
 75 72  1  0  0  0  0
 76 78  1  0  0  0  0
 76 79  1  0  0  0  0
 77 76  1  0  0  0  0
M  CHG  1   1  -1
M  END
