1,17,27,38
 OpenBabel05122313063D

 40 40  0  0  1  0  0  0  0  0999 V2000
    0.7694   -1.1254   -0.8833 O   0  0  0  0  0  1  0  0  0  0  0  0
    1.9739   -0.9114   -0.3932 C   0  0  1  0  0  3  0  0  0  0  0  0
    2.9275   -1.9599   -0.5202 C   0  0  0  0  0  0  0  0  0  0  0  0
    2.6048   -2.8778   -1.0321 H   0  0  0  0  0  0  0  0  0  0  0  0
    4.2076   -1.8364    0.0076 C   0  0  0  0  0  0  0  0  0  0  0  0
    4.9145   -2.6750   -0.0858 H   0  0  0  0  0  0  0  0  0  0  0  0
    4.5993   -0.6535    0.6750 C   0  0  0  0  0  0  0  0  0  0  0  0
    5.6015   -0.5683    1.1173 H   0  0  0  0  0  0  0  0  0  0  0  0
    3.7050    0.4051    0.7607 C   0  0  0  0  0  0  0  0  0  0  0  0
    4.0218    1.3187    1.2823 H   0  0  0  0  0  0  0  0  0  0  0  0
    2.3863    0.3272    0.2223 C   0  0  0  0  0  0  0  0  0  0  0  0
    1.5173    1.4888    0.1662 C   0  0  0  0  0  0  0  0  0  0  0  0
    2.1095    2.8704    0.2865 C   0  0  0  0  0  0  0  0  0  0  0  0
    3.1697    2.8472    0.5811 H   0  0  0  0  0  0  0  0  0  0  0  0
    1.5515    3.4964    1.0107 H   0  0  0  0  0  0  0  0  0  0  0  0
    2.0627    3.3890   -0.6950 H   0  0  0  0  0  0  0  0  0  0  0  0
    0.2144    1.3727   -0.0646 N   0  0  0  0  0  2  0  0  0  0  0  0
   -0.5826    2.5828   -0.3474 C   0  0  0  0  0  0  0  0  0  0  0  0
    0.0051    3.2738   -0.9844 H   0  0  0  0  0  0  0  0  0  0  0  0
   -0.7906    3.1465    0.5936 H   0  0  0  0  0  0  0  0  0  0  0  0
   -1.8858    2.2517   -1.0779 C   0  0  0  0  0  0  0  0  0  0  0  0
   -2.3386    3.1939   -1.4482 H   0  0  0  0  0  0  0  0  0  0  0  0
   -1.6407    1.6467   -1.9761 H   0  0  0  0  0  0  0  0  0  0  0  0
   -2.9128    1.5251   -0.2072 C   0  0  0  0  0  0  0  0  0  0  0  0
   -3.4875    2.2432    0.4200 H   0  0  0  0  0  0  0  0  0  0  0  0
   -3.6473    0.9834   -0.8345 H   0  0  0  0  0  0  0  0  0  0  0  0
   -2.2331    0.5445    0.6821 N   0  0  0  0  0  0  0  0  0  0  0  0
   -1.7439    1.0931    1.4054 H   0  0  0  0  0  0  0  0  0  0  0  0
   -3.1609   -0.3560    1.4218 C   0  0  0  0  0  0  0  0  0  0  0  0
   -4.0122    0.2486    1.8039 H   0  0  0  0  0  0  0  0  0  0  0  0
   -2.6078   -0.7352    2.3053 H   0  0  0  0  0  0  0  0  0  0  0  0
   -3.6799   -1.5349    0.6052 C   0  0  0  0  0  0  0  0  0  0  0  0
   -4.4459   -2.0584    1.2121 H   0  0  0  0  0  0  0  0  0  0  0  0
   -4.2154   -1.1820   -0.3038 H   0  0  0  0  0  0  0  0  0  0  0  0
   -2.5924   -2.5326    0.2215 C   0  0  0  0  0  0  0  0  0  0  0  0
   -2.0466   -2.8721    1.1255 H   0  0  0  0  0  0  0  0  0  0  0  0
   -3.0447   -3.4335   -0.2452 H   0  0  0  0  0  0  0  0  0  0  0  0
   -1.6073   -1.9195   -0.6920 N   0  0  0  0  0  0  0  0  0  0  0  0
   -2.0363   -1.7749   -1.6210 H   0  0  0  0  0  0  0  0  0  0  0  0
   -0.7902   -2.5327   -0.8577 H   0  0  0  0  0  0  0  0  0  0  0  0
  2  1  1  6  0  0  0
  2 11  1  0  0  0  0
  3  2  1  0  0  0  0
  3  5  2  0  0  0  0
  4  3  1  0  0  0  0
  5  7  1  0  0  0  0
  6  5  1  0  0  0  0
  7  9  2  0  0  0  0
  7  8  1  0  0  0  0
  9 10  1  0  0  0  0
 11  9  1  0  0  0  0
 12 11  2  0  0  0  0
 12 13  1  0  0  0  0
 13 14  1  0  0  0  0
 13 15  1  0  0  0  0
 16 13  1  0  0  0  0
 17 12  1  0  0  0  0
 18 17  1  0  0  0  0
 18 20  1  0  0  0  0
 19 18  1  0  0  0  0
 21 18  1  0  0  0  0
 21 24  1  0  0  0  0
 22 21  1  0  0  0  0
 23 21  1  0  0  0  0
 24 25  1  0  0  0  0
 24 27  1  0  0  0  0
 26 24  1  0  0  0  0
 27 28  1  0  0  0  0
 27 29  1  0  0  0  0
 29 30  1  0  0  0  0
 29 31  1  0  0  0  0
 32 33  1  0  0  0  0
 32 29  1  0  0  0  0
 34 32  1  0  0  0  0
 35 32  1  0  0  0  0
 35 36  1  0  0  0  0
 37 35  1  0  0  0  0
 38 35  1  0  0  0  0
 39 38  1  0  0  0  0
 40 38  1  0  0  0  0
M  END
