1,3,4,5
 OpenBabel05122313063D

 40 42  0  0  1  0  0  0  0  0999 V2000
   -1.3148   -1.2247    0.9920 O   0  5  0  0  0  0  0  0  0  0  0  0
    3.2741   -3.7383   -0.0993 N   0  0  0  0  0  0  0  0  0  0  0  0
    1.7484   -2.1457    0.0063 N   0  0  0  0  0  2  0  0  0  0  0  0
    1.9103    0.4869   -0.2419 N   0  0  0  0  0  2  0  0  0  0  0  0
   -0.6070    1.0410   -0.5647 N   0  0  0  0  0  2  0  0  0  0  0  0
    1.9624   -3.4425    0.1572 C   0  0  0  0  0  3  0  0  0  0  0  0
    3.9314   -2.5776   -0.4323 C   0  0  0  0  0  0  0  0  0  0  0  0
    2.9678   -1.5771   -0.3573 C   0  0  0  0  0  0  0  0  0  0  0  0
    2.9925   -0.1392   -0.5774 C   0  0  0  0  0  3  0  0  0  0  0  0
    1.6519    1.9016   -0.3965 C   0  0  2  0  0  0  0  0  0  0  0  0
    2.2121    2.7122    0.8027 C   0  0  0  0  0  0  0  0  0  0  0  0
    1.7893    4.1812    0.7282 C   0  0  0  0  0  0  0  0  0  0  0  0
    0.2649    4.3183    0.6981 C   0  0  0  0  0  0  0  0  0  0  0  0
   -0.3494    3.5266   -0.4768 C   0  0  0  0  0  0  0  0  0  0  0  0
    0.1496    2.1115   -0.5125 C   0  0  2  0  0  3  0  0  0  0  0  0
   -1.9232    0.9847   -0.8873 C   0  0  0  0  0  3  0  0  0  0  0  0
   -2.8567    0.0636   -0.3840 C   0  0  0  0  0  0  0  0  0  0  0  0
   -4.2172    0.1700   -0.8449 C   0  0  0  0  0  0  0  0  0  0  0  0
   -5.1830   -0.7299   -0.4526 C   0  0  0  0  0  0  0  0  0  0  0  0
   -4.8325   -1.8138    0.4116 C   0  0  0  0  0  0  0  0  0  0  0  0
   -3.5349   -1.9828    0.8540 C   0  0  0  0  0  0  0  0  0  0  0  0
   -2.4971   -1.0475    0.5164 C   0  0  0  0  0  0  0  0  0  0  0  0
    3.6940   -4.6709   -0.0602 H   0  0  0  0  0  0  0  0  0  0  0  0
    1.2131   -4.1938    0.4340 H   0  0  0  0  0  0  0  0  0  0  0  0
    4.9994   -2.5515   -0.6714 H   0  0  0  0  0  0  0  0  0  0  0  0
    3.8789    0.3520   -1.0251 H   0  0  0  0  0  0  0  0  0  0  0  0
    2.1255    2.2895   -1.3301 H   0  0  0  0  0  0  0  0  0  0  0  0
    3.3160    2.6059    0.8166 H   0  0  0  0  0  0  0  0  0  0  0  0
    1.8274    2.2467    1.7355 H   0  0  0  0  0  0  0  0  0  0  0  0
    2.2063    4.7282    1.5978 H   0  0  0  0  0  0  0  0  0  0  0  0
    2.2297    4.6535   -0.1779 H   0  0  0  0  0  0  0  0  0  0  0  0
   -0.1615    3.9364    1.6502 H   0  0  0  0  0  0  0  0  0  0  0  0
   -0.0347    5.3823    0.6193 H   0  0  0  0  0  0  0  0  0  0  0  0
   -1.4553    3.5428   -0.4338 H   0  0  0  0  0  0  0  0  0  0  0  0
   -0.0565    4.0198   -1.4333 H   0  0  0  0  0  0  0  0  0  0  0  0
   -2.2717    1.6816   -1.6725 H   0  0  0  0  0  0  0  0  0  0  0  0
   -4.4745    1.0023   -1.5187 H   0  0  0  0  0  0  0  0  0  0  0  0
   -6.2183   -0.6249   -0.8070 H   0  0  0  0  0  0  0  0  0  0  0  0
   -5.6110   -2.5264    0.7247 H   0  0  0  0  0  0  0  0  0  0  0  0
   -3.2525   -2.8140    1.5159 H   0  0  0  0  0  0  0  0  0  0  0  0
  2 23  1  0  0  0  0
  2  6  1  0  0  0  0
  3  6  1  0  0  0  0
  6 24  1  0  0  0  0
  7  8  2  0  0  0  0
  7  2  1  0  0  0  0
  8  3  1  0  0  0  0
  9  8  1  0  0  0  0
  9  4  1  0  0  0  0
 10 27  1  6  0  0  0
 10  4  1  0  0  0  0
 10 11  1  0  0  0  0
 11 28  1  0  0  0  0
 11 29  1  0  0  0  0
 12 11  1  0  0  0  0
 12 30  1  0  0  0  0
 13 12  1  0  0  0  0
 13 32  1  0  0  0  0
 14 34  1  0  0  0  0
 14 13  1  0  0  0  0
 15  5  1  1  0  0  0
 15 14  1  0  0  0  0
 15 10  1  0  0  0  0
 16  5  1  0  0  0  0
 16 17  1  0  0  0  0
 17 22  1  0  0  0  0
 18 19  1  0  0  0  0
 18 17  2  0  0  0  0
 19 20  2  0  0  0  0
 20 39  1  0  0  0  0
 20 21  1  0  0  0  0
 21 40  1  0  0  0  0
 22 21  2  0  0  0  0
 22  1  1  0  0  0  0
 25  7  1  0  0  0  0
 26  9  1  0  0  0  0
 31 12  1  0  0  0  0
 33 13  1  0  0  0  0
 35 14  1  0  0  0  0
 36 16  1  0  0  0  0
 37 18  1  0  0  0  0
 38 19  1  0  0  0  0
M  CHG  1   1  -1
M  END
