1,3,4,5
 OpenBabel05122313063D

 64 67  0  0  0  0  0  0  0  0999 V2000
   -2.2961    2.3561   -0.1262 O   0  5  0  0  0  0  0  0  0  0  0  0
   -1.6599    4.5234   -0.2637 O   0  0  0  0  0  0  0  0  0  0  0  0
    0.1632    1.4993   -0.1039 N   0  0  0  0  0  0  0  0  0  0  0  0
   -0.3698   -1.1407    0.0907 N   0  0  0  0  0  2  0  0  0  0  0  0
   -2.9763   -1.0249    0.1075 N   0  0  0  0  0  2  0  0  0  0  0  0
   -1.3991    3.3234   -0.2060 C   0  0  0  0  0  0  0  0  0  0  0  0
    0.0292    2.8216   -0.2088 C   0  0  0  0  0  0  0  0  0  0  0  0
    1.3300    3.4339   -0.3059 C   0  0  0  0  0  0  0  0  0  0  0  0
    2.2614    2.3867   -0.2403 C   0  0  0  0  0  0  0  0  0  0  0  0
    1.4986    1.1326   -0.1094 C   0  0  0  0  0  3  0  0  0  0  0  0
    1.9029   -0.2160   -0.0032 C   0  0  0  0  0  0  0  0  0  0  0  0
    0.9890   -1.3211    0.1064 C   0  0  0  0  0  0  0  0  0  0  0  0
    1.2244   -2.7570    0.2623 C   0  0  0  0  0  0  0  0  0  0  0  0
   -0.0347   -3.3784    0.3453 C   0  0  0  0  0  0  0  0  0  0  0  0
   -1.0113   -2.3296    0.2284 C   0  0  0  0  0  0  0  0  0  0  0  0
   -2.4378   -2.2304    0.2366 C   0  0  0  0  0  0  0  0  0  0  0  0
   -3.0652   -3.1296    0.3570 H   0  0  0  0  0  0  0  0  0  0  0  0
    1.5632    4.9122   -0.4094 C   0  0  0  0  0  0  0  0  0  0  0  0
    0.8515    5.3271   -1.1528 H   0  0  0  0  0  0  0  0  0  0  0  0
    2.5864    5.1040   -0.7943 H   0  0  0  0  0  0  0  0  0  0  0  0
    1.3510    5.6443    0.9256 C   0  0  0  0  0  0  0  0  0  0  0  0
    0.3037    5.5150    1.2623 H   0  0  0  0  0  0  0  0  0  0  0  0
    1.5406    6.7312    0.8154 H   0  0  0  0  0  0  0  0  0  0  0  0
    2.0267    5.2531    1.7133 H   0  0  0  0  0  0  0  0  0  0  0  0
    3.7483    2.5385   -0.3012 C   0  0  0  0  0  0  0  0  0  0  0  0
    4.0224    3.5949   -0.4842 H   0  0  0  0  0  0  0  0  0  0  0  0
    4.1990    1.9190   -1.1023 H   0  0  0  0  0  0  0  0  0  0  0  0
    4.2371    2.2190    0.6417 H   0  0  0  0  0  0  0  0  0  0  0  0
    3.3652   -0.5178    0.0012 C   0  0  0  0  0  0  0  0  0  0  0  0
    4.1023   -0.4766    1.2001 C   0  0  0  0  0  0  0  0  0  0  0  0
    3.5894   -0.2190    2.1392 H   0  0  0  0  0  0  0  0  0  0  0  0
    5.4732   -0.7673    1.2015 C   0  0  0  0  0  0  0  0  0  0  0  0
    6.0315   -0.7355    2.1505 H   0  0  0  0  0  0  0  0  0  0  0  0
    6.1517   -1.1003    0.0109 C   0  0  0  0  0  0  0  0  0  0  0  0
    5.4037   -1.1394   -1.1838 C   0  0  0  0  0  0  0  0  0  0  0  0
    5.9074   -1.4010   -2.1279 H   0  0  0  0  0  0  0  0  0  0  0  0
    4.0316   -0.8546   -1.1924 C   0  0  0  0  0  0  0  0  0  0  0  0
    3.4637   -0.8927   -2.1344 H   0  0  0  0  0  0  0  0  0  0  0  0
    7.6338   -1.3760    0.0111 C   0  0  0  0  0  0  0  0  0  0  0  0
    7.9208   -2.0707   -0.8025 H   0  0  0  0  0  0  0  0  0  0  0  0
    7.9689   -1.8105    0.9734 H   0  0  0  0  0  0  0  0  0  0  0  0
    8.2110   -0.4386   -0.1417 H   0  0  0  0  0  0  0  0  0  0  0  0
    2.5391   -3.4726    0.3265 C   0  0  0  0  0  0  0  0  0  0  0  0
    2.3854   -4.5478    0.5405 H   0  0  0  0  0  0  0  0  0  0  0  0
    3.2055   -3.0589    1.1089 H   0  0  0  0  0  0  0  0  0  0  0  0
    3.1026   -3.3968   -0.6256 H   0  0  0  0  0  0  0  0  0  0  0  0
   -0.3394   -4.8451    0.4546 C   0  0  0  0  0  0  0  0  0  0  0  0
   -1.2784   -4.9841    1.0320 H   0  0  0  0  0  0  0  0  0  0  0  0
    0.4526   -5.3458    1.0503 H   0  0  0  0  0  0  0  0  0  0  0  0
   -0.4688   -5.5405   -0.9109 C   0  0  0  0  0  0  0  0  0  0  0  0
   -1.2710   -5.0766   -1.5204 H   0  0  0  0  0  0  0  0  0  0  0  0
   -0.7051   -6.6177   -0.7950 H   0  0  0  0  0  0  0  0  0  0  0  0
    0.4733   -5.4555   -1.4892 H   0  0  0  0  0  0  0  0  0  0  0  0
   -4.3685   -0.8072    0.0638 C   0  0  0  0  0  0  0  0  0  0  0  0
   -5.3133   -1.8546   -0.0785 C   0  0  0  0  0  0  0  0  0  0  0  0
   -4.9851   -2.8970   -0.1965 H   0  0  0  0  0  0  0  0  0  0  0  0
   -6.6816   -1.5694   -0.0977 C   0  0  0  0  0  0  0  0  0  0  0  0
   -7.4034   -2.3923   -0.2134 H   0  0  0  0  0  0  0  0  0  0  0  0
   -7.1368   -0.2433    0.0149 C   0  0  0  0  0  0  0  0  0  0  0  0
   -8.2153   -0.0260   -0.0049 H   0  0  0  0  0  0  0  0  0  0  0  0
   -6.2041    0.7979    0.1345 C   0  0  0  0  0  0  0  0  0  0  0  0
   -6.5443    1.8417    0.2075 H   0  0  0  0  0  0  0  0  0  0  0  0
   -4.8297    0.5271    0.1541 C   0  0  0  0  0  0  0  0  0  0  0  0
   -4.1006    1.3499    0.2237 H   0  0  0  0  0  0  0  0  0  0  0  0
  2  6  2  0  0  0  0
  4 12  1  0  0  0  0
  4 15  1  0  0  0  0
  5 16  1  0  0  0  0
  6  1  1  0  0  0  0
  7  6  1  0  0  0  0
  7  3  2  0  0  0  0
  8  9  2  0  0  0  0
  8  7  1  0  0  0  0
  9 10  1  0  0  0  0
 10  3  1  0  0  0  0
 10 11  1  0  0  0  0
 11 29  1  0  0  0  0
 11 12  2  0  0  0  0
 12 13  1  0  0  0  0
 13 43  1  0  0  0  0
 13 14  2  0  0  0  0
 14 47  1  0  0  0  0
 15 16  2  0  0  0  0
 15 14  1  0  0  0  0
 16 17  1  0  0  0  0
 18  8  1  0  0  0  0
 18 21  1  0  0  0  0
 19 18  1  0  0  0  0
 20 18  1  0  0  0  0
 21 22  1  0  0  0  0
 21 24  1  0  0  0  0
 23 21  1  0  0  0  0
 25  9  1  0  0  0  0
 25 28  1  0  0  0  0
 26 25  1  0  0  0  0
 27 25  1  0  0  0  0
 29 30  1  0  0  0  0
 30 32  2  0  0  0  0
 30 31  1  0  0  0  0
 32 33  1  0  0  0  0
 34 39  1  0  0  0  0
 34 32  1  0  0  0  0
 35 34  2  0  0  0  0
 36 35  1  0  0  0  0
 37 35  1  0  0  0  0
 37 29  2  0  0  0  0
 38 37  1  0  0  0  0
 39 41  1  0  0  0  0
 40 39  1  0  0  0  0
 42 39  1  0  0  0  0
 43 44  1  0  0  0  0
 43 45  1  0  0  0  0
 46 43  1  0  0  0  0
 47 48  1  0  0  0  0
 47 49  1  0  0  0  0
 50 52  1  0  0  0  0
 50 47  1  0  0  0  0
 51 50  1  0  0  0  0
 53 50  1  0  0  0  0
 54  5  1  0  0  0  0
 54 63  1  0  0  0  0
 55 54  2  0  0  0  0
 56 55  1  0  0  0  0
 57 55  1  0  0  0  0
 57 59  2  0  0  0  0
 58 57  1  0  0  0  0
 59 61  1  0  0  0  0
 60 59  1  0  0  0  0
 61 63  2  0  0  0  0
 61 62  1  0  0  0  0
 63 64  1  0  0  0  0
M  CHG  1   1  -1
M  END
