2,3,5,6
 OpenBabel05122313063D

 36 35  0  0  1  0  0  0  0  0999 V2000
    3.3972   -1.2211    0.0002 S   0  0  0  0  0  0  0  0  0  0  0  0
   -2.5827    0.3680    0.0001 O   0  0  0  0  0  1  0  0  0  0  0  0
   -0.4699   -1.3766   -0.0000 N   0  0  0  0  0  2  0  0  0  0  0  0
    0.8278   -1.7873   -0.0000 N   0  0  0  0  0  0  0  0  0  0  0  0
    1.1630    0.5274   -0.0001 N   0  0  0  0  0  2  0  0  0  0  0  0
   -0.9884    2.2555    0.0004 N   0  0  0  0  0  2  0  0  0  0  0  0
   -1.9812    2.5256    0.0008 H   0  0  0  0  0  0  0  0  0  0  0  0
    1.6626   -0.7749   -0.0000 C   0  0  0  0  0  0  0  0  0  0  0  0
    1.8898    1.6899   -0.0005 C   0  0  2  0  0  3  0  0  0  0  0  0
    1.2893    2.9510   -0.0004 C   0  0  0  0  0  0  0  0  0  0  0  0
    1.9652    3.8163   -0.0007 H   0  0  0  0  0  0  0  0  0  0  0  0
   -0.1061    3.2307    0.0002 C   0  0  0  0  0  0  0  0  0  0  0  0
   -3.3030   -0.7080   -0.0001 C   0  0  2  0  0  3  0  0  0  0  0  0
   -2.7902   -2.0111   -0.0002 C   0  0  0  0  0  0  0  0  0  0  0  0
   -3.5019   -2.8467   -0.0002 H   0  0  0  0  0  0  0  0  0  0  0  0
   -1.4113   -2.3330   -0.0001 C   0  0  0  0  0  0  0  0  0  0  0  0
    3.2609   -3.0299    0.0007 C   0  0  0  0  0  0  0  0  0  0  0  0
    4.3066   -3.3947    0.0009 H   0  0  0  0  0  0  0  0  0  0  0  0
    2.7260   -3.3836    0.9013 H   0  0  0  0  0  0  0  0  0  0  0  0
    2.7261   -3.3841   -0.8998 H   0  0  0  0  0  0  0  0  0  0  0  0
    3.4012    1.6828   -0.0011 C   0  0  0  0  0  0  0  0  0  0  0  0
    3.8099    1.1665    0.8908 H   0  0  0  0  0  0  0  0  0  0  0  0
    3.8092    1.1658   -0.8929 H   0  0  0  0  0  0  0  0  0  0  0  0
    3.7811    2.7200   -0.0017 H   0  0  0  0  0  0  0  0  0  0  0  0
   -0.5602    4.6714    0.0007 C   0  0  0  0  0  0  0  0  0  0  0  0
   -1.6644    4.7501   -0.0004 H   0  0  0  0  0  0  0  0  0  0  0  0
   -0.1729    5.2047    0.8931 H   0  0  0  0  0  0  0  0  0  0  0  0
   -0.1710    5.2060   -0.8902 H   0  0  0  0  0  0  0  0  0  0  0  0
   -0.9731   -3.7725   -0.0001 C   0  0  0  0  0  0  0  0  0  0  0  0
   -0.3377   -3.9843    0.8834 H   0  0  0  0  0  0  0  0  0  0  0  0
   -1.8453   -4.4509    0.0005 H   0  0  0  0  0  0  0  0  0  0  0  0
   -0.3388   -3.9846   -0.8844 H   0  0  0  0  0  0  0  0  0  0  0  0
   -4.7928   -0.4608   -0.0004 C   0  0  0  0  0  0  0  0  0  0  0  0
   -5.0747    0.1377   -0.8915 H   0  0  0  0  0  0  0  0  0  0  0  0
   -5.3739   -1.4010    0.0006 H   0  0  0  0  0  0  0  0  0  0  0  0
   -5.0747    0.1397    0.8893 H   0  0  0  0  0  0  0  0  0  0  0  0
  1 17  1  0  0  0  0
  4  3  1  0  0  0  0
  5  8  1  0  0  0  0
  6  7  1  0  0  0  0
  8  4  2  0  0  0  0
  8  1  1  0  0  0  0
  9 10  1  6  0  0  0
  9  5  1  0  0  0  0
 10 12  2  0  0  0  0
 11 10  1  0  0  0  0
 12  6  1  0  0  0  0
 12 25  1  0  0  0  0
 13  2  1  6  0  0  0
 14 13  1  0  0  0  0
 14 16  2  0  0  0  0
 15 14  1  0  0  0  0
 16  3  1  0  0  0  0
 17 18  1  0  0  0  0
 17 19  1  0  0  0  0
 20 17  1  0  0  0  0
 21  9  1  0  0  0  0
 21 22  1  0  0  0  0
 23 21  1  0  0  0  0
 24 21  1  0  0  0  0
 25 27  1  0  0  0  0
 26 25  1  0  0  0  0
 28 25  1  0  0  0  0
 29 16  1  0  0  0  0
 29 31  1  0  0  0  0
 29 30  1  0  0  0  0
 32 29  1  0  0  0  0
 33 13  1  0  0  0  0
 33 35  1  0  0  0  0
 33 36  1  0  0  0  0
 34 33  1  0  0  0  0
M  END
