1,15,38,43
 OpenBabel05122313063D

 84 89  0  0  1  0  0  0  0  0999 V2000
   -2.7022   -2.6467    0.2271 N   0  0  0  0  0  0  0  0  0  0  0  0
   -1.8528   -3.8636    0.3580 C   0  0  0  0  0  0  0  0  0  0  0  0
   -1.1435   -3.9032   -0.4880 H   0  0  0  0  0  0  0  0  0  0  0  0
   -2.5152   -4.7603    0.3439 H   0  0  0  0  0  0  0  0  0  0  0  0
   -1.2061   -3.6789    1.7228 C   0  0  0  0  0  0  0  0  0  0  0  0
   -0.3714   -2.9537    1.6293 H   0  0  0  0  0  0  0  0  0  0  0  0
   -0.7916   -4.6224    2.1271 H   0  0  0  0  0  0  0  0  0  0  0  0
   -2.3492   -3.1036    2.5826 C   0  0  0  0  0  0  0  0  0  0  0  0
   -1.9951   -2.3597    3.3213 H   0  0  0  0  0  0  0  0  0  0  0  0
   -2.8666   -3.9017    3.1489 H   0  0  0  0  0  0  0  0  0  0  0  0
   -3.3386   -2.4624    1.5635 C   0  0  1  0  0  0  0  0  0  0  0  0
   -4.3145   -2.9938    1.5947 H   0  0  0  0  0  0  0  0  0  0  0  0
   -3.6274   -0.9935    1.8645 C   0  0  0  0  0  0  0  0  0  0  0  0
   -4.4548   -0.7239    2.7368 O   0  0  0  0  0  0  0  0  0  0  0  0
   -2.8515   -0.1265    1.1111 N   0  0  0  0  0  2  0  0  0  0  0  0
   -3.0847    1.2441    1.0778 C   0  0  0  0  0  0  0  0  0  0  0  0
   -4.2406    1.8280    1.6770 C   0  0  0  0  0  0  0  0  0  0  0  0
   -4.9063    1.1709    2.2436 H   0  0  0  0  0  0  0  0  0  0  0  0
   -4.5301    3.1843    1.5514 C   0  0  0  0  0  0  0  0  0  0  0  0
   -5.4490    3.5757    2.0153 H   0  0  0  0  0  0  0  0  0  0  0  0
   -3.6716    4.0466    0.8439 C   0  0  0  0  0  0  0  0  0  0  0  0
   -3.9019    5.1166    0.7371 H   0  0  0  0  0  0  0  0  0  0  0  0
   -2.5101    3.5182    0.2933 C   0  0  0  0  0  3  0  0  0  0  0  0
   -1.8184    4.1781   -0.2477 H   0  0  0  0  0  0  0  0  0  0  0  0
   -2.1791    2.1371    0.3936 C   0  0  0  0  0  0  0  0  0  0  0  0
   -0.9135    1.7155   -0.1900 C   0  0  0  0  0  0  0  0  0  0  0  0
    0.0705    2.7728   -0.5982 C   0  0  0  0  0  0  0  0  0  0  0  0
    0.2548    3.0907   -1.9585 C   0  0  0  0  0  0  0  0  0  0  0  0
   -0.3442    2.5714   -2.7223 H   0  0  0  0  0  0  0  0  0  0  0  0
    1.1986    4.0556   -2.3361 C   0  0  0  0  0  0  0  0  0  0  0  0
    1.3427    4.2886   -3.4015 H   0  0  0  0  0  0  0  0  0  0  0  0
    1.9679    4.7091   -1.3618 C   0  0  0  0  0  0  0  0  0  0  0  0
    2.7192    5.4545   -1.6623 H   0  0  0  0  0  0  0  0  0  0  0  0
    1.7816    4.4052   -0.0048 C   0  0  0  0  0  0  0  0  0  0  0  0
    2.3804    4.9154    0.7647 H   0  0  0  0  0  0  0  0  0  0  0  0
    0.8334    3.4456    0.3777 C   0  0  0  0  0  0  0  0  0  0  0  0
    0.6750    3.2151    1.4425 H   0  0  0  0  0  0  0  0  0  0  0  0
   -0.5940    0.4498   -0.3629 N   0  0  0  0  0  2  0  0  0  0  0  0
    0.7254    0.0492   -0.8768 C   0  0  2  0  0  0  0  0  0  0  0  0
    1.0973    0.7536   -1.6516 H   0  0  0  0  0  0  0  0  0  0  0  0
    0.5943   -1.3460   -1.5089 C   0  0  0  0  0  0  0  0  0  0  0  0
    1.4873   -1.8360   -2.1849 O   0  5  0  0  0  0  0  0  0  0  0  0
   -0.5363   -1.9475   -1.2001 O   0  0  0  0  0  0  0  0  0  0  0  0
    1.7688    0.0404    0.2497 C   0  0  0  0  0  0  0  0  0  0  0  0
    1.6210   -0.8063    0.9516 H   0  0  0  0  0  0  0  0  0  0  0  0
    1.6794    0.9745    0.8382 H   0  0  0  0  0  0  0  0  0  0  0  0
    3.5239    0.1001   -0.3625 P   0  0  0  0  0  4  0  0  0  0  0  0
    3.7647    1.3488   -1.8690 S   0  0  0  0  0  1  0  0  0  0  0  0
    4.0984   -1.6163   -0.6566 C   0  0  0  0  0  0  0  0  0  0  0  0
    3.5834   -2.7231    0.0462 C   0  0  0  0  0  0  0  0  0  0  0  0
    2.7669   -2.5985    0.7734 H   0  0  0  0  0  0  0  0  0  0  0  0
    4.0923   -4.0067   -0.1979 C   0  0  0  0  0  0  0  0  0  0  0  0
    3.6795   -4.8698    0.3461 H   0  0  0  0  0  0  0  0  0  0  0  0
    5.1124   -4.1916   -1.1442 C   0  0  0  0  0  0  0  0  0  0  0  0
    5.5059   -5.2010   -1.3385 H   0  0  0  0  0  0  0  0  0  0  0  0
    5.6182   -3.0902   -1.8527 C   0  0  0  0  0  0  0  0  0  0  0  0
    6.4077   -3.2336   -2.6059 H   0  0  0  0  0  0  0  0  0  0  0  0
    5.1111   -1.8054   -1.6138 C   0  0  0  0  0  0  0  0  0  0  0  0
    5.4732   -0.9328   -2.1802 H   0  0  0  0  0  0  0  0  0  0  0  0
    4.4012    0.6467    1.1699 C   0  0  0  0  0  0  0  0  0  0  0  0
    4.6923    2.0175    1.3066 C   0  0  0  0  0  0  0  0  0  0  0  0
    4.4470    2.6917    0.4695 H   0  0  0  0  0  0  0  0  0  0  0  0
    5.3001    2.4913    2.4781 C   0  0  0  0  0  0  0  0  0  0  0  0
    5.5288    3.5634    2.5804 H   0  0  0  0  0  0  0  0  0  0  0  0
    5.6273    1.5999    3.5133 C   0  0  0  0  0  0  0  0  0  0  0  0
    6.1103    1.9720    4.4298 H   0  0  0  0  0  0  0  0  0  0  0  0
    5.3490    0.2311    3.3729 C   0  0  0  0  0  0  0  0  0  0  0  0
    5.6171   -0.4722    4.1762 H   0  0  0  0  0  0  0  0  0  0  0  0
    4.7368   -0.2484    2.2042 C   0  0  0  0  0  0  0  0  0  0  0  0
    4.5379   -1.3251    2.0932 H   0  0  0  0  0  0  0  0  0  0  0  0
   -3.6495   -2.7517   -0.9242 C   0  0  0  0  0  0  0  0  0  0  0  0
   -3.0467   -3.1198   -1.7768 H   0  0  0  0  0  0  0  0  0  0  0  0
   -4.4183   -3.5198   -0.6797 H   0  0  0  0  0  0  0  0  0  0  0  0
   -4.2898   -1.4309   -1.2788 C   0  0  0  0  0  0  0  0  0  0  0  0
   -5.4947   -1.0197   -0.6827 C   0  0  0  0  0  0  0  0  0  0  0  0
   -6.0275   -1.6997    0.0002 H   0  0  0  0  0  0  0  0  0  0  0  0
   -6.0069    0.2656   -0.9235 C   0  0  0  0  0  0  0  0  0  0  0  0
   -6.9393    0.5828   -0.4334 H   0  0  0  0  0  0  0  0  0  0  0  0
   -5.3224    1.1474   -1.7721 C   0  0  0  0  0  0  0  0  0  0  0  0
   -5.7125    2.1615   -1.9446 H   0  0  0  0  0  0  0  0  0  0  0  0
   -4.1321    0.7354   -2.3935 C   0  0  0  0  0  0  0  0  0  0  0  0
   -3.5959    1.4213   -3.0667 H   0  0  0  0  0  0  0  0  0  0  0  0
   -3.6193   -0.5464   -2.1512 C   0  0  0  0  0  0  0  0  0  0  0  0
   -2.6865   -0.8718   -2.6369 H   0  0  0  0  0  0  0  0  0  0  0  0
  1  2  1  0  0  0  0
  1 11  1  0  0  0  0
  2  5  1  0  0  0  0
  3  2  1  0  0  0  0
  4  2  1  0  0  0  0
  5  7  1  0  0  0  0
  5  8  1  0  0  0  0
  6  5  1  0  0  0  0
  8 10  1  0  0  0  0
  8  9  1  0  0  0  0
 11 12  1  1  0  0  0
 11 13  1  0  0  0  0
 11  8  1  0  0  0  0
 13 14  2  0  0  0  0
 15 13  1  0  0  0  0
 16 15  1  0  0  0  0
 16 17  2  0  0  0  0
 17 18  1  0  0  0  0
 19 17  1  0  0  0  0
 19 20  1  0  0  0  0
 21 19  2  0  0  0  0
 22 21  1  0  0  0  0
 23 25  1  0  0  0  0
 23 21  1  0  0  0  0
 24 23  1  0  0  0  0
 25 16  1  0  0  0  0
 26 25  2  0  0  0  0
 27 26  1  0  0  0  0
 27 36  1  0  0  0  0
 28 27  2  0  0  0  0
 29 28  1  0  0  0  0
 30 28  1  0  0  0  0
 30 32  2  0  0  0  0
 31 30  1  0  0  0  0
 32 34  1  0  0  0  0
 33 32  1  0  0  0  0
 34 36  2  0  0  0  0
 34 35  1  0  0  0  0
 36 37  1  0  0  0  0
 38 26  1  0  0  0  0
 39 40  1  6  0  0  0
 39 38  1  0  0  0  0
 39 44  1  0  0  0  0
 41 43  2  0  0  0  0
 41 39  1  0  0  0  0
 42 41  1  0  0  0  0
 44 46  1  0  0  0  0
 44 45  1  0  0  0  0
 47 44  1  0  0  0  0
 47 60  1  0  0  0  0
 48 47  1  0  0  0  0
 49 47  1  0  0  0  0
 49 50  1  0  0  0  0
 50 51  1  0  0  0  0
 52 50  2  0  0  0  0
 52 53  1  0  0  0  0
 54 52  1  0  0  0  0
 55 54  1  0  0  0  0
 56 58  1  0  0  0  0
 56 54  2  0  0  0  0
 57 56  1  0  0  0  0
 58 49  2  0  0  0  0
 59 58  1  0  0  0  0
 60 61  2  0  0  0  0
 60 69  1  0  0  0  0
 61 63  1  0  0  0  0
 62 61  1  0  0  0  0
 63 64  1  0  0  0  0
 63 65  2  0  0  0  0
 65 66  1  0  0  0  0
 67 65  1  0  0  0  0
 67 68  1  0  0  0  0
 69 67  2  0  0  0  0
 70 69  1  0  0  0  0
 71 73  1  0  0  0  0
 71  1  1  0  0  0  0
 72 71  1  0  0  0  0
 74 71  1  0  0  0  0
 74 75  1  0  0  0  0
 75 76  1  0  0  0  0
 77 75  2  0  0  0  0
 77 78  1  0  0  0  0
 79 77  1  0  0  0  0
 80 79  1  0  0  0  0
 81 83  1  0  0  0  0
 81 79  2  0  0  0  0
 82 81  1  0  0  0  0
 83 74  2  0  0  0  0
 84 83  1  0  0  0  0
M  CHG  1  42  -1
M  END
