31,32,33,34
 OpenBabel05122313063D

 34 35  0  0  1  0  0  0  0  0999 V2000
    2.8705    0.6599   -0.6162 C   0  0  0  0  0  3  0  0  0  0  0  0
    2.6449    1.6958   -0.9051 H   0  0  0  0  0  0  0  0  0  0  0  0
    4.1712    0.1572   -0.7296 C   0  0  0  0  0  0  0  0  0  0  0  0
    4.9694    0.8104   -1.1098 H   0  0  0  0  0  0  0  0  0  0  0  0
    4.4257   -1.1708   -0.3603 C   0  0  0  0  0  0  0  0  0  0  0  0
    5.4353   -1.5989   -0.4445 H   0  0  0  0  0  0  0  0  0  0  0  0
    3.3564   -1.9487    0.1091 C   0  0  0  0  0  0  0  0  0  0  0  0
    3.5037   -3.0003    0.3967 H   0  0  0  0  0  0  0  0  0  0  0  0
    2.0819   -1.3791    0.2117 C   0  0  0  0  0  0  0  0  0  0  0  0
    0.8994   -2.1475    0.7640 C   0  0  0  0  0  0  0  0  0  0  0  0
    1.0680   -3.2445    0.6817 H   0  0  0  0  0  0  0  0  0  0  0  0
    0.7856   -1.8949    1.8378 H   0  0  0  0  0  0  0  0  0  0  0  0
   -1.5782   -1.8784    0.8898 C   0  0  0  0  0  0  0  0  0  0  0  0
   -1.3029   -1.6662    1.9426 H   0  0  0  0  0  0  0  0  0  0  0  0
   -1.9921   -2.9097    0.8302 H   0  0  0  0  0  0  0  0  0  0  0  0
   -2.6026   -0.8473    0.4749 C   0  0  1  0  0  3  0  0  0  0  0  0
   -3.9814   -1.0422    0.5650 C   0  0  0  0  0  0  0  0  0  0  0  0
   -4.3713   -2.0094    0.9153 H   0  0  0  0  0  0  0  0  0  0  0  0
   -4.8512    0.0032    0.2011 C   0  0  0  0  0  0  0  0  0  0  0  0
   -5.9412   -0.1283    0.2638 H   0  0  0  0  0  0  0  0  0  0  0  0
   -4.2935    1.2103   -0.2450 C   0  0  0  0  0  0  0  0  0  0  0  0
   -4.9293    2.0575   -0.5401 H   0  0  0  0  0  0  0  0  0  0  0  0
   -2.9026    1.3370   -0.3204 C   0  0  0  0  0  0  0  0  0  0  0  0
   -2.3997    2.2559   -0.6578 H   0  0  0  0  0  0  0  0  0  0  0  0
   -0.4549   -2.2900   -1.2914 C   0  0  0  0  0  0  0  0  0  0  0  0
   -1.1289   -3.1754   -1.3014 H   0  0  0  0  0  0  0  0  0  0  0  0
    0.5589   -2.6237   -1.5894 H   0  0  0  0  0  0  0  0  0  0  0  0
   -0.8810   -1.1597   -2.2369 C   0  0  0  0  0  0  0  0  0  0  0  0
   -0.7125   -1.4750   -3.2950 H   0  0  0  0  0  0  0  0  0  0  0  0
   -1.9773   -0.9588   -2.1322 H   0  0  0  0  0  0  0  0  0  0  0  0
   -0.0783   -0.0763   -1.9079 O   0  0  0  0  0  1  0  0  0  0  0  0
    1.8429   -0.0809   -0.1473 N   0  0  0  0  0  2  0  0  0  0  0  0
   -0.3482   -1.7216    0.0853 N   0  0  0  0  0  0  0  0  0  0  0  0
   -2.0674    0.3295    0.0315 N   0  0  0  0  0  2  0  0  0  0  0  0
  1 32  1  0  0  0  0
  2  1  1  0  0  0  0
  3  1  1  0  0  0  0
  3  5  2  0  0  0  0
  4  3  1  0  0  0  0
  5  7  1  0  0  0  0
  6  5  1  0  0  0  0
  7  9  2  0  0  0  0
  7  8  1  0  0  0  0
  9 10  1  0  0  0  0
 10 12  1  0  0  0  0
 11 10  1  0  0  0  0
 13 14  1  0  0  0  0
 15 13  1  0  0  0  0
 16 17  1  0  0  0  0
 16 13  1  1  0  0  0
 17 18  1  0  0  0  0
 19 20  1  0  0  0  0
 19 17  2  0  0  0  0
 21 19  1  0  0  0  0
 22 21  1  0  0  0  0
 23 21  2  0  0  0  0
 23 34  1  0  0  0  0
 24 23  1  0  0  0  0
 25 33  1  0  0  0  0
 26 25  1  0  0  0  0
 27 25  1  0  0  0  0
 28 30  1  0  0  0  0
 28 31  1  0  0  0  0
 28 25  1  0  0  0  0
 29 28  1  0  0  0  0
 32  9  1  0  0  0  0
 33 10  1  0  0  0  0
 33 13  1  0  0  0  0
 34 16  1  0  0  0  0
M  END
