24,27,28,29
 OpenBabel05122313063D

 62 63  0  0  1  0  0  0  0  0999 V2000
    1.0180    1.9536   -0.1208 C   0  0  0  0  0  0  0  0  0  0  0  0
   -0.3328    2.2405    0.3051 C   0  0  0  0  0  0  0  0  0  0  0  0
   -0.6984    3.6082    0.4658 C   0  0  0  0  0  0  0  0  0  0  0  0
    0.1856    4.6423    0.1645 C   0  0  0  0  0  0  0  0  0  0  0  0
    1.8513   -2.1568    1.4047 C   0  0  0  0  0  0  0  0  0  0  0  0
    1.5688    0.6031   -0.2086 C   0  0  0  0  0  0  0  0  0  0  0  0
   -3.3380    0.1202    1.0984 C   0  0  1  0  0  0  0  0  0  0  0  0
   -2.4542    1.3809    1.1665 C   0  0  0  0  0  0  0  0  0  0  0  0
    1.4875    4.3679   -0.2947 C   0  0  0  0  0  0  0  0  0  0  0  0
    1.8858    3.0413   -0.4210 C   0  0  0  0  0  3  0  0  0  0  0  0
    3.0534    0.4583   -0.3802 C   0  0  0  0  0  0  0  0  0  0  0  0
    1.4001   -1.8334   -0.0538 C   0  0  1  0  0  0  0  0  0  0  0  0
   -3.5890    1.0812   -1.7145 C   0  0  0  0  0  0  0  0  0  0  0  0
    4.9699   -0.0975   -1.7841 C   0  0  0  0  0  0  0  0  0  0  0  0
   -3.6432   -0.4144   -1.3780 C   0  0  0  0  0  0  0  0  0  0  0  0
    3.9314    0.7303    0.6886 C   0  0  0  0  0  0  0  0  0  0  0  0
    2.6538   -3.4604    1.4481 C   0  0  0  0  0  0  0  0  0  0  0  0
    5.3156    0.5761    0.5245 C   0  0  0  0  0  0  0  0  0  0  0  0
    0.3318   -2.8381   -0.5315 C   0  0  0  0  0  0  0  0  0  0  0  0
    0.6823   -2.1592    2.3953 C   0  0  0  0  0  0  0  0  0  0  0  0
    5.8374    0.1602   -0.7109 C   0  0  0  0  0  0  0  0  0  0  0  0
    3.5845    0.0488   -1.6205 C   0  0  0  0  0  0  0  0  0  0  0  0
   -5.1016   -0.8889   -1.2447 C   0  0  0  0  0  0  0  0  0  0  0  0
   -1.2431    1.2114    0.5102 N   0  0  0  0  0  2  0  0  0  0  0  0
    0.6104   -3.9905   -0.8361 O   0  5  0  0  0  0  0  0  0  0  0  0
   -2.8494    2.3665    1.7890 O   0  0  0  0  0  0  0  0  0  0  0  0
    0.8244   -0.4815   -0.1369 N   0  0  0  0  0  2  0  0  0  0  0  0
   -0.8902   -2.3446   -0.5095 O   0  0  0  0  0  0  0  0  0  0  0  0
   -2.9257   -0.6946   -0.0704 N   0  0  0  0  0  0  0  0  0  0  0  0
   -3.2484   -0.6892    2.3924 C   0  0  0  0  0  0  0  0  0  0  0  0
   -2.9357   -1.2208   -2.4755 C   0  0  0  0  0  0  0  0  0  0  0  0
   -1.9066   -0.8451   -2.6380 H   0  0  0  0  0  0  0  0  0  0  0  0
    1.0519   -2.3155    3.4288 H   0  0  0  0  0  0  0  0  0  0  0  0
   -3.4996   -1.1326   -3.4249 H   0  0  0  0  0  0  0  0  0  0  0  0
    2.9951   -3.6671    2.4826 H   0  0  0  0  0  0  0  0  0  0  0  0
   -5.1475   -1.9756   -1.0247 H   0  0  0  0  0  0  0  0  0  0  0  0
    2.1830    5.1822   -0.5444 H   0  0  0  0  0  0  0  0  0  0  0  0
   -4.0957    1.2485   -2.6849 H   0  0  0  0  0  0  0  0  0  0  0  0
   -2.8494   -2.2911   -2.2059 H   0  0  0  0  0  0  0  0  0  0  0  0
    2.9029    2.8153   -0.7685 H   0  0  0  0  0  0  0  0  0  0  0  0
    3.5199    1.0704    1.6510 H   0  0  0  0  0  0  0  0  0  0  0  0
    5.9915    0.7852    1.3674 H   0  0  0  0  0  0  0  0  0  0  0  0
   -5.6468   -0.3459   -0.4469 H   0  0  0  0  0  0  0  0  0  0  0  0
   -2.5426    1.4294   -1.8026 H   0  0  0  0  0  0  0  0  0  0  0  0
   -1.7026    3.8278    0.8421 H   0  0  0  0  0  0  0  0  0  0  0  0
   -0.1509    5.6837    0.2861 H   0  0  0  0  0  0  0  0  0  0  0  0
    2.9024   -0.1493   -2.4615 H   0  0  0  0  0  0  0  0  0  0  0  0
   -5.6453   -0.7157   -2.1939 H   0  0  0  0  0  0  0  0  0  0  0  0
   -4.1001    1.7098   -0.9592 H   0  0  0  0  0  0  0  0  0  0  0  0
    2.5347   -1.3262    1.6865 H   0  0  0  0  0  0  0  0  0  0  0  0
    0.1331   -1.1957    2.3726 H   0  0  0  0  0  0  0  0  0  0  0  0
    2.2900   -1.9257   -0.7062 H   0  0  0  0  0  0  0  0  0  0  0  0
   -3.4707   -0.0279    3.2512 H   0  0  0  0  0  0  0  0  0  0  0  0
   -2.2309   -1.1091    2.5254 H   0  0  0  0  0  0  0  0  0  0  0  0
    2.0435   -4.3136    1.0937 H   0  0  0  0  0  0  0  0  0  0  0  0
   -0.0392   -2.9708    2.1678 H   0  0  0  0  0  0  0  0  0  0  0  0
    3.5501   -3.3996    0.7978 H   0  0  0  0  0  0  0  0  0  0  0  0
   -3.9793   -1.5236    2.3934 H   0  0  0  0  0  0  0  0  0  0  0  0
   -4.3812    0.4830    0.9848 H   0  0  0  0  0  0  0  0  0  0  0  0
    5.3735   -0.4151   -2.7573 H   0  0  0  0  0  0  0  0  0  0  0  0
    6.9238    0.0410   -0.8390 H   0  0  0  0  0  0  0  0  0  0  0  0
   -3.0565   -1.7001    0.1265 H   0  0  0  0  0  0  0  0  0  0  0  0
  1  2  1  0  0  0  0
  2  3  2  0  0  0  0
  2 24  1  0  0  0  0
  3 45  1  0  0  0  0
  4 46  1  0  0  0  0
  4  3  1  0  0  0  0
  5 17  1  0  0  0  0
  5 50  1  0  0  0  0
  5 20  1  0  0  0  0
  6 27  1  0  0  0  0
  6  1  2  0  0  0  0
  7 59  1  6  0  0  0
  7  8  1  0  0  0  0
  7 30  1  0  0  0  0
  8 26  2  0  0  0  0
  9  4  2  0  0  0  0
 10  9  1  0  0  0  0
 10  1  1  0  0  0  0
 11  6  1  0  0  0  0
 11 16  1  0  0  0  0
 12 52  1  6  0  0  0
 12  5  1  0  0  0  0
 13 15  1  0  0  0  0
 13 49  1  0  0  0  0
 14 22  1  0  0  0  0
 14 21  2  0  0  0  0
 15 23  1  0  0  0  0
 15 29  1  0  0  0  0
 16 41  1  0  0  0  0
 17 35  1  0  0  0  0
 18 16  2  0  0  0  0
 18 42  1  0  0  0  0
 19 28  2  0  0  0  0
 19 12  1  0  0  0  0
 20 33  1  0  0  0  0
 21 18  1  0  0  0  0
 22 11  2  0  0  0  0
 23 36  1  0  0  0  0
 23 43  1  0  0  0  0
 24  8  1  0  0  0  0
 25 19  1  0  0  0  0
 27 12  1  0  0  0  0
 29 62  1  0  0  0  0
 29  7  1  0  0  0  0
 30 58  1  0  0  0  0
 30 54  1  0  0  0  0
 30 53  1  0  0  0  0
 31 39  1  0  0  0  0
 31 15  1  0  0  0  0
 32 31  1  0  0  0  0
 34 31  1  0  0  0  0
 37  9  1  0  0  0  0
 38 13  1  0  0  0  0
 40 10  1  0  0  0  0
 44 13  1  0  0  0  0
 47 22  1  0  0  0  0
 48 23  1  0  0  0  0
 51 20  1  0  0  0  0
 55 17  1  0  0  0  0
 56 20  1  0  0  0  0
 57 17  1  0  0  0  0
 60 14  1  0  0  0  0
 61 21  1  0  0  0  0
M  CHG  1  25  -1
M  END
