1,16,36,59
 OpenBabel05122313063D

 59 62  0  0  1  0  0  0  0  0999 V2000
    2.0358    2.4439   -0.1157 N   0  0  0  0  0  2  0  0  0  0  0  0
    3.1009    3.0966   -0.6028 C   0  0  0  0  0  3  0  0  0  0  0  0
    3.9426    2.4655   -0.9327 H   0  0  0  0  0  0  0  0  0  0  0  0
    3.1545    4.4982   -0.6632 C   0  0  0  0  0  0  0  0  0  0  0  0
    4.0431    4.9986   -1.0727 H   0  0  0  0  0  0  0  0  0  0  0  0
    2.0561    5.2255   -0.1888 C   0  0  0  0  0  0  0  0  0  0  0  0
    2.0544    6.3251   -0.2230 H   0  0  0  0  0  0  0  0  0  0  0  0
    0.9561    4.5378    0.3440 C   0  0  0  0  0  0  0  0  0  0  0  0
    0.0914    5.0937    0.7293 H   0  0  0  0  0  0  0  0  0  0  0  0
    0.9744    3.1296    0.3747 C   0  0  0  0  0  0  0  0  0  0  0  0
   -0.1552    2.3483    0.9451 C   0  0  2  0  0  3  0  0  0  0  0  0
   -1.2918    3.0346    1.6431 C   0  0  0  0  0  0  0  0  0  0  0  0
   -2.0058    3.4716    0.9135 H   0  0  0  0  0  0  0  0  0  0  0  0
   -0.9291    3.8536    2.2931 H   0  0  0  0  0  0  0  0  0  0  0  0
   -1.8485    2.3088    2.2645 H   0  0  0  0  0  0  0  0  0  0  0  0
   -0.0955    1.0545    0.8049 N   0  0  0  0  0  2  0  0  0  0  0  0
   -0.9617    0.1975    1.3400 N   0  0  0  0  0  0  0  0  0  0  0  0
   -1.9589   -0.3187    0.6848 C   0  0  0  0  0  0  0  0  0  0  0  0
   -2.3531    0.1620   -0.7009 C   0  0  0  0  0  0  0  0  0  0  0  0
   -1.7317   -0.1767   -1.7946 N   0  0  0  0  0  0  0  0  0  0  0  0
   -0.4767   -0.8255   -1.6531 N   0  0  0  0  0  0  0  0  0  0  0  0
   -0.3760   -2.1523   -1.5185 C   0  0  1  0  0  3  0  0  0  0  0  0
   -1.6133   -2.9973   -1.5688 C   0  0  0  0  0  0  0  0  0  0  0  0
   -2.5158   -2.3896   -1.7394 H   0  0  0  0  0  0  0  0  0  0  0  0
   -1.7519   -3.5778   -0.6347 H   0  0  0  0  0  0  0  0  0  0  0  0
   -1.5471   -3.7195   -2.4084 H   0  0  0  0  0  0  0  0  0  0  0  0
    0.9477   -2.7878   -1.3869 C   0  0  2  0  0  3  0  0  0  0  0  0
    1.0867   -4.1647   -1.6853 C   0  0  0  0  0  0  0  0  0  0  0  0
    0.2193   -4.7515   -2.0114 H   0  0  0  0  0  0  0  0  0  0  0  0
    2.3397   -4.7774   -1.5842 C   0  0  0  0  0  0  0  0  0  0  0  0
    2.4529   -5.8430   -1.8331 H   0  0  0  0  0  0  0  0  0  0  0  0
    3.4401   -4.0150   -1.1731 C   0  0  0  0  0  0  0  0  0  0  0  0
    4.4477   -4.4467   -1.0972 H   0  0  0  0  0  0  0  0  0  0  0  0
    3.2271   -2.6694   -0.8469 C   0  0  0  0  0  0  0  0  0  0  0  0
    4.0480   -2.0153   -0.5062 H   0  0  0  0  0  0  0  0  0  0  0  0
    2.0225   -2.0764   -0.9425 N   0  0  0  0  0  2  0  0  0  0  0  0
   -2.7285   -1.4184    1.3009 C   0  0  0  0  0  0  0  0  0  0  0  0
   -3.9323   -1.8890    0.7249 C   0  0  0  0  0  0  0  0  0  0  0  0
   -4.3357   -1.4178   -0.1832 H   0  0  0  0  0  0  0  0  0  0  0  0
   -4.6303   -2.9519    1.3129 C   0  0  0  0  0  0  0  0  0  0  0  0
   -5.5668   -3.3064    0.8577 H   0  0  0  0  0  0  0  0  0  0  0  0
   -4.1388   -3.5587    2.4794 C   0  0  0  0  0  0  0  0  0  0  0  0
   -4.6879   -4.3938    2.9394 H   0  0  0  0  0  0  0  0  0  0  0  0
   -2.9427   -3.0969    3.0591 C   0  0  0  0  0  0  0  0  0  0  0  0
   -2.5542   -3.5715    3.9724 H   0  0  0  0  0  0  0  0  0  0  0  0
   -2.2411   -2.0373    2.4776 C   0  0  0  0  0  0  0  0  0  0  0  0
   -1.3012   -1.6740    2.9177 H   0  0  0  0  0  0  0  0  0  0  0  0
   -3.5084    1.0740   -0.8164 C   0  0  0  0  0  0  0  0  0  0  0  0
   -3.8582    1.6137   -2.0788 C   0  0  0  0  0  0  0  0  0  0  0  0
   -3.2632    1.3298   -2.9583 H   0  0  0  0  0  0  0  0  0  0  0  0
   -4.9341    2.4974   -2.1907 C   0  0  0  0  0  0  0  0  0  0  0  0
   -5.2002    2.9120   -3.1743 H   0  0  0  0  0  0  0  0  0  0  0  0
   -5.6739    2.8610   -1.0498 C   0  0  0  0  0  0  0  0  0  0  0  0
   -6.5202    3.5581   -1.1424 H   0  0  0  0  0  0  0  0  0  0  0  0
   -5.3324    2.3356    0.2067 C   0  0  0  0  0  0  0  0  0  0  0  0
   -5.9104    2.6166    1.0993 H   0  0  0  0  0  0  0  0  0  0  0  0
   -4.2573    1.4461    0.3261 C   0  0  0  0  0  0  0  0  0  0  0  0
   -4.0046    1.0307    1.3124 H   0  0  0  0  0  0  0  0  0  0  0  0
    0.4800   -0.0015   -1.8288 O   0  0  0  0  0  1  0  0  0  0  0  0
  1 10  1  0  0  0  0
  2  1  1  0  0  0  0
  3  2  1  0  0  0  0
  4  2  1  0  0  0  0
  4  6  2  0  0  0  0
  5  4  1  0  0  0  0
  6  8  1  0  0  0  0
  7  6  1  0  0  0  0
  8 10  2  0  0  0  0
  8  9  1  0  0  0  0
 10 11  1  0  0  0  0
 11 16  1  1  0  0  0
 11 12  1  0  0  0  0
 12 15  1  0  0  0  0
 12 14  1  0  0  0  0
 13 12  1  0  0  0  0
 16 17  1  0  0  0  0
 18 37  1  0  0  0  0
 18 17  2  0  0  0  0
 19 18  1  0  0  0  0
 20 21  1  0  0  0  0
 20 19  2  0  0  0  0
 22 21  1  6  0  0  0
 23 22  1  0  0  0  0
 23 25  1  0  0  0  0
 24 23  1  0  0  0  0
 26 23  1  0  0  0  0
 27 22  1  1  0  0  0
 27 36  1  0  0  0  0
 28 30  2  0  0  0  0
 28 27  1  0  0  0  0
 29 28  1  0  0  0  0
 30 32  1  0  0  0  0
 31 30  1  0  0  0  0
 32 33  1  0  0  0  0
 32 34  2  0  0  0  0
 34 35  1  0  0  0  0
 36 34  1  0  0  0  0
 37 46  1  0  0  0  0
 38 37  2  0  0  0  0
 38 40  1  0  0  0  0
 39 38  1  0  0  0  0
 40 42  2  0  0  0  0
 41 40  1  0  0  0  0
 42 43  1  0  0  0  0
 42 44  1  0  0  0  0
 44 45  1  0  0  0  0
 46 47  1  0  0  0  0
 46 44  2  0  0  0  0
 48 19  1  0  0  0  0
 48 57  1  0  0  0  0
 49 48  2  0  0  0  0
 50 49  1  0  0  0  0
 51 49  1  0  0  0  0
 51 53  2  0  0  0  0
 52 51  1  0  0  0  0
 53 55  1  0  0  0  0
 54 53  1  0  0  0  0
 55 57  2  0  0  0  0
 55 56  1  0  0  0  0
 57 58  1  0  0  0  0
 59 21  1  0  0  0  0
M  END
