4,5,6,7
 OpenBabel05122313063D

 47 49  0  0  1  0  0  0  0  0999 V2000
   -3.0966    2.6784   -0.2531 O   0  0  0  0  0  0  0  0  0  0  0  0
    3.8727    1.8978    0.1452 O   0  0  0  0  0  0  0  0  0  0  0  0
   -2.1745   -2.5936    2.1957 O   0  0  0  0  0  0  0  0  0  0  0  0
   -0.0640   -1.4271   -0.0404 O   0  5  0  0  0  0  0  0  0  0  0  0
   -1.6748    0.8076   -0.1718 N   0  0  0  0  0  2  0  0  0  0  0  0
    0.3795    2.1761   -0.0125 N   0  0  0  0  0  2  0  0  0  0  0  0
    2.0964    0.3289   -0.0746 N   0  0  0  0  0  2  0  0  0  0  0  0
   -1.9850    2.1509   -0.1694 C   0  0  0  0  0  0  0  0  0  0  0  0
   -0.7188    2.9504   -0.0215 C   0  0  2  0  0  3  0  0  0  0  0  0
   -0.5900    4.3417    0.0799 C   0  0  0  0  0  0  0  0  0  0  0  0
    0.7005    4.8881    0.1959 C   0  0  0  0  0  0  0  0  0  0  0  0
    1.8299    4.0454    0.2033 C   0  0  0  0  0  0  0  0  0  0  0  0
    1.6252    2.6664    0.0929 C   0  0  0  0  0  0  0  0  0  0  0  0
    2.6817    1.5976    0.0603 C   0  0  0  0  0  0  0  0  0  0  0  0
   -2.6794   -0.1385   -0.4598 C   0  0  0  0  0  0  0  0  0  0  0  0
   -3.4014   -0.0332   -1.6720 C   0  0  0  0  0  0  0  0  0  0  0  0
   -4.3330   -1.0052   -2.0451 C   0  0  0  0  0  0  0  0  0  0  0  0
   -4.5481   -2.1285   -1.2257 C   0  0  0  0  0  0  0  0  0  0  0  0
   -3.8406   -2.2458   -0.0272 C   0  0  0  0  0  0  0  0  0  0  0  0
   -2.9282   -1.2520    0.3905 C   0  0  0  0  0  0  0  0  0  0  0  0
   -2.3078   -1.4555    1.7449 C   0  0  0  0  0  0  0  0  0  0  0  0
   -1.9149   -0.2537    2.5796 C   0  0  0  0  0  0  0  0  0  0  0  0
    2.8477   -0.8309   -0.2088 C   0  0  0  0  0  0  0  0  0  0  0  0
    4.2636   -0.7971   -0.3929 C   0  0  0  0  0  0  0  0  0  0  0  0
    5.0167   -1.9582   -0.5421 C   0  0  0  0  0  0  0  0  0  0  0  0
    4.4128   -3.2303   -0.5059 C   0  0  0  0  0  0  0  0  0  0  0  0
    3.0402   -3.3025   -0.3161 C   0  0  0  0  0  3  0  0  0  0  0  0
    2.2252   -2.1423   -0.1709 C   0  0  0  0  0  0  0  0  0  0  0  0
    0.7961   -2.3576   -0.0052 C   0  0  0  0  0  0  0  0  0  0  0  0
    0.2102   -3.7323    0.2008 C   0  0  0  0  0  0  0  0  0  0  0  0
   -1.5034    4.9534    0.0636 H   0  0  0  0  0  0  0  0  0  0  0  0
    0.8303    5.9775    0.2795 H   0  0  0  0  0  0  0  0  0  0  0  0
    2.8590    4.4215    0.2895 H   0  0  0  0  0  0  0  0  0  0  0  0
   -3.2083    0.8318   -2.3217 H   0  0  0  0  0  0  0  0  0  0  0  0
   -4.8872   -0.8934   -2.9897 H   0  0  0  0  0  0  0  0  0  0  0  0
   -5.2708   -2.9038   -1.5215 H   0  0  0  0  0  0  0  0  0  0  0  0
   -3.9879   -3.1070    0.6415 H   0  0  0  0  0  0  0  0  0  0  0  0
   -2.6422    0.5761    2.4824 H   0  0  0  0  0  0  0  0  0  0  0  0
   -1.8088   -0.5746    3.6321 H   0  0  0  0  0  0  0  0  0  0  0  0
   -0.9420    0.1393    2.2168 H   0  0  0  0  0  0  0  0  0  0  0  0
    4.7540    0.1805   -0.4032 H   0  0  0  0  0  0  0  0  0  0  0  0
    6.1041   -1.8678   -0.6896 H   0  0  0  0  0  0  0  0  0  0  0  0
    5.0098   -4.1457   -0.6250 H   0  0  0  0  0  0  0  0  0  0  0  0
    2.5585   -4.2884   -0.2937 H   0  0  0  0  0  0  0  0  0  0  0  0
   -0.8146   -3.6227    0.6029 H   0  0  0  0  0  0  0  0  0  0  0  0
    0.1610   -4.2730   -0.7679 H   0  0  0  0  0  0  0  0  0  0  0  0
    0.8126   -4.3423    0.8990 H   0  0  0  0  0  0  0  0  0  0  0  0
  1  8  2  0  0  0  0
  4 29  1  0  0  0  0
  5  8  1  0  0  0  0
  6 13  1  0  0  0  0
  7 14  1  0  0  0  0
  9  8  1  6  0  0  0
  9  6  1  0  0  0  0
  9 10  1  0  0  0  0
 10 11  2  0  0  0  0
 11 12  1  0  0  0  0
 11 32  1  0  0  0  0
 12 33  1  0  0  0  0
 13 12  2  0  0  0  0
 14 13  1  0  0  0  0
 14  2  2  0  0  0  0
 15  5  1  0  0  0  0
 15 20  1  0  0  0  0
 16 15  2  0  0  0  0
 17 16  1  0  0  0  0
 17 18  2  0  0  0  0
 18 19  1  0  0  0  0
 19 20  2  0  0  0  0
 19 37  1  0  0  0  0
 20 21  1  0  0  0  0
 21  3  2  0  0  0  0
 21 22  1  0  0  0  0
 22 39  1  0  0  0  0
 23 28  1  0  0  0  0
 23  7  1  0  0  0  0
 24 23  2  0  0  0  0
 25 26  2  0  0  0  0
 25 24  1  0  0  0  0
 26 27  1  0  0  0  0
 27 44  1  0  0  0  0
 27 28  1  0  0  0  0
 28 29  2  0  0  0  0
 29 30  1  0  0  0  0
 30 45  1  0  0  0  0
 30 47  1  0  0  0  0
 31 10  1  0  0  0  0
 34 16  1  0  0  0  0
 35 17  1  0  0  0  0
 36 18  1  0  0  0  0
 38 22  1  0  0  0  0
 40 22  1  0  0  0  0
 41 24  1  0  0  0  0
 42 25  1  0  0  0  0
 43 26  1  0  0  0  0
 46 30  1  0  0  0  0
M  CHG  1   4  -1
M  END
