1,2,3,4
 OpenBabel05122313063D

 66 68  0  0  1  0  0  0  0  0999 V2000
   -0.1201    0.4105    0.1897 O   0  0  0  0  0  1  0  0  0  0  0  0
    2.6004    1.2188   -0.0604 N   0  0  0  0  0  2  0  0  0  0  0  0
    0.7266   -2.0455   -0.6678 N   0  0  0  0  0  2  0  0  0  0  0  0
    2.2308   -1.0276    1.2840 N   0  0  0  0  0  0  0  0  0  0  0  0
   -2.0317    0.4137    1.4525 N   0  0  0  0  0  0  0  0  0  0  0  0
   -2.4361   -0.0093    2.2904 H   0  0  0  0  0  0  0  0  0  0  0  0
    2.5074    2.4422   -0.6331 C   0  0  0  0  0  3  0  0  0  0  0  0
    1.8404    2.4809   -1.5087 H   0  0  0  0  0  0  0  0  0  0  0  0
    3.2376    3.5378   -0.1606 C   0  0  0  0  0  0  0  0  0  0  0  0
    3.1306    4.5109   -0.6619 H   0  0  0  0  0  0  0  0  0  0  0  0
    4.0932    3.3766    0.9401 C   0  0  0  0  0  0  0  0  0  0  0  0
    4.6708    4.2240    1.3379 H   0  0  0  0  0  0  0  0  0  0  0  0
    4.2049    2.1005    1.5191 C   0  0  0  0  0  0  0  0  0  0  0  0
    4.8744    1.9183    2.3729 H   0  0  0  0  0  0  0  0  0  0  0  0
    3.4605    1.0431    0.9892 C   0  0  0  0  0  0  0  0  0  0  0  0
    3.5701   -0.3896    1.4329 C   0  0  0  0  0  0  0  0  0  0  0  0
    4.2339   -0.9002    0.6997 H   0  0  0  0  0  0  0  0  0  0  0  0
    3.9748   -0.4882    2.4652 H   0  0  0  0  0  0  0  0  0  0  0  0
    2.2894   -2.5038    1.1047 C   0  0  0  0  0  0  0  0  0  0  0  0
    2.3479   -3.0500    2.0735 H   0  0  0  0  0  0  0  0  0  0  0  0
    3.2074   -2.6916    0.5049 H   0  0  0  0  0  0  0  0  0  0  0  0
    1.1400   -2.9709    0.2497 C   0  0  2  0  0  3  0  0  0  0  0  0
    0.5770   -4.2482    0.3118 C   0  0  0  0  0  0  0  0  0  0  0  0
    0.9317   -4.9624    1.0699 H   0  0  0  0  0  0  0  0  0  0  0  0
   -0.4270   -4.6020   -0.6086 C   0  0  0  0  0  0  0  0  0  0  0  0
   -0.8777   -5.6051   -0.5857 H   0  0  0  0  0  0  0  0  0  0  0  0
   -0.8350   -3.6479   -1.5530 C   0  0  0  0  0  0  0  0  0  0  0  0
   -1.6132   -3.8781   -2.2951 H   0  0  0  0  0  0  0  0  0  0  0  0
   -0.2497   -2.3772   -1.5478 C   0  0  0  0  0  0  0  0  0  0  0  0
   -0.5094   -1.5729   -2.2572 H   0  0  0  0  0  0  0  0  0  0  0  0
    1.3872   -0.6102    2.4273 C   0  0  0  0  0  0  0  0  0  0  0  0
    1.5658    0.4742    2.5803 H   0  0  0  0  0  0  0  0  0  0  0  0
    1.7413   -1.1302    3.3477 H   0  0  0  0  0  0  0  0  0  0  0  0
   -0.1099   -0.8480    2.2640 C   0  0  0  0  0  0  0  0  0  0  0  0
   -0.3208   -1.9067    1.9989 H   0  0  0  0  0  0  0  0  0  0  0  0
   -0.5970   -0.6744    3.2458 H   0  0  0  0  0  0  0  0  0  0  0  0
   -0.7372    0.0438    1.2091 C   0  0  1  0  0  3  0  0  0  0  0  0
   -2.9932    0.9101    0.5155 C   0  0  0  0  0  0  0  0  0  0  0  0
   -2.8071    2.1497   -0.1398 C   0  0  0  0  0  0  0  0  0  0  0  0
   -3.7997    2.5575   -1.0540 C   0  0  0  0  0  0  0  0  0  0  0  0
   -3.6696    3.5105   -1.5880 H   0  0  0  0  0  0  0  0  0  0  0  0
   -4.9454    1.7921   -1.2810 C   0  0  0  0  0  0  0  0  0  0  0  0
   -5.7068    2.1366   -1.9969 H   0  0  0  0  0  0  0  0  0  0  0  0
   -5.1309    0.5886   -0.5870 C   0  0  0  0  0  0  0  0  0  0  0  0
   -6.0417   -0.0006   -0.7618 H   0  0  0  0  0  0  0  0  0  0  0  0
   -4.1628    0.1199    0.3155 C   0  0  0  0  0  0  0  0  0  0  0  0
   -1.6398    3.0832    0.1499 C   0  0  0  0  0  0  0  0  0  0  0  0
   -0.9272    2.5512    0.8068 H   0  0  0  0  0  0  0  0  0  0  0  0
   -0.8828    3.4517   -1.1342 C   0  0  0  0  0  0  0  0  0  0  0  0
   -0.5196    2.5401   -1.6536 H   0  0  0  0  0  0  0  0  0  0  0  0
   -0.0095    4.0903   -0.8897 H   0  0  0  0  0  0  0  0  0  0  0  0
   -1.5235    4.0287   -1.8333 H   0  0  0  0  0  0  0  0  0  0  0  0
   -2.1292    4.3299    0.9099 C   0  0  0  0  0  0  0  0  0  0  0  0
   -2.8388    4.9243    0.2977 H   0  0  0  0  0  0  0  0  0  0  0  0
   -1.2734    4.9886    1.1646 H   0  0  0  0  0  0  0  0  0  0  0  0
   -2.6473    4.0575    1.8521 H   0  0  0  0  0  0  0  0  0  0  0  0
   -4.3318   -1.2223    1.0254 C   0  0  0  0  0  0  0  0  0  0  0  0
   -3.9616   -1.1072    2.0720 H   0  0  0  0  0  0  0  0  0  0  0  0
   -5.7887   -1.6853    1.1462 C   0  0  0  0  0  0  0  0  0  0  0  0
   -6.4330   -0.9083    1.6034 H   0  0  0  0  0  0  0  0  0  0  0  0
   -5.8481   -2.5971    1.7736 H   0  0  0  0  0  0  0  0  0  0  0  0
   -6.2169   -1.9458    0.1569 H   0  0  0  0  0  0  0  0  0  0  0  0
   -3.4695   -2.3046    0.3495 C   0  0  0  0  0  0  0  0  0  0  0  0
   -3.8282   -2.4870   -0.6837 H   0  0  0  0  0  0  0  0  0  0  0  0
   -3.5179   -3.2643    0.9039 H   0  0  0  0  0  0  0  0  0  0  0  0
   -2.4073   -2.0069    0.2692 H   0  0  0  0  0  0  0  0  0  0  0  0
  2 15  1  0  0  0  0
  3 22  1  0  0  0  0
  4 16  1  0  0  0  0
  4 31  1  0  0  0  0
  5  6  1  0  0  0  0
  7  9  1  0  0  0  0
  7  2  1  0  0  0  0
  8  7  1  0  0  0  0
  9 11  2  0  0  0  0
 10  9  1  0  0  0  0
 11 12  1  0  0  0  0
 11 13  1  0  0  0  0
 13 14  1  0  0  0  0
 15 16  1  0  0  0  0
 15 13  2  0  0  0  0
 16 18  1  0  0  0  0
 17 16  1  0  0  0  0
 19  4  1  0  0  0  0
 19 20  1  0  0  0  0
 21 19  1  0  0  0  0
 22 23  1  0  0  0  0
 22 19  1  6  0  0  0
 23 24  1  0  0  0  0
 25 26  1  0  0  0  0
 25 23  2  0  0  0  0
 27 29  2  0  0  0  0
 27 25  1  0  0  0  0
 28 27  1  0  0  0  0
 29  3  1  0  0  0  0
 30 29  1  0  0  0  0
 31 32  1  0  0  0  0
 31 33  1  0  0  0  0
 34 31  1  0  0  0  0
 34 36  1  0  0  0  0
 35 34  1  0  0  0  0
 37  1  1  6  0  0  0
 37  5  1  0  0  0  0
 37 34  1  0  0  0  0
 38  5  1  0  0  0  0
 39 47  1  0  0  0  0
 39 38  2  0  0  0  0
 40 39  1  0  0  0  0
 41 40  1  0  0  0  0
 42 40  2  0  0  0  0
 42 44  1  0  0  0  0
 43 42  1  0  0  0  0
 44 46  2  0  0  0  0
 45 44  1  0  0  0  0
 46 38  1  0  0  0  0
 46 57  1  0  0  0  0
 47 48  1  0  0  0  0
 47 53  1  0  0  0  0
 49 51  1  0  0  0  0
 49 47  1  0  0  0  0
 50 49  1  0  0  0  0
 52 49  1  0  0  0  0
 53 55  1  0  0  0  0
 53 56  1  0  0  0  0
 54 53  1  0  0  0  0
 57 59  1  0  0  0  0
 57 58  1  0  0  0  0
 59 60  1  0  0  0  0
 59 61  1  0  0  0  0
 62 59  1  0  0  0  0
 63 65  1  0  0  0  0
 63 57  1  0  0  0  0
 64 63  1  0  0  0  0
 66 63  1  0  0  0  0
M  END
