3,4,6,7
 OpenBabel05122313063D

 39 40  0  0  1  0  0  0  0  0999 V2000
    2.7511    2.8827   -0.2366 S   0  0  0  0  0  0  0  0  0  0  0  0
    3.6408   -0.0158    0.5667 O   0  0  0  0  0  0  0  0  0  0  0  0
   -1.8641   -1.1264   -0.0142 O   0  0  0  0  0  1  0  0  0  0  0  0
   -0.8619    1.4611   -0.0310 N   0  0  0  0  0  2  0  0  0  0  0  0
    0.0906    2.4518   -0.0727 N   0  0  0  0  0  0  0  0  0  0  0  0
    1.3895    0.5400   -0.1135 N   0  0  0  0  0  2  0  0  0  0  0  0
    0.7532   -1.8735   -0.2031 N   0  0  0  0  0  2  0  0  0  0  0  0
   -2.1346    1.8064    0.0268 C   0  0  0  0  0  0  0  0  0  0  0  0
    2.0002    4.5200   -0.4965 C   0  0  0  0  0  0  0  0  0  0  0  0
    1.2894    1.8916   -0.1460 C   0  0  0  0  0  0  0  0  0  0  0  0
    2.5711   -0.2424   -0.3418 C   0  0  2  0  0  0  0  0  0  0  0  0
    3.2934   -0.1511    1.9387 C   0  0  0  0  0  0  0  0  0  0  0  0
   -3.2303    0.8873    0.0750 C   0  0  0  0  0  0  0  0  0  0  0  0
   -3.0403   -0.5463    0.0480 C   0  0  1  0  0  3  0  0  0  0  0  0
   -4.2023   -1.3715    0.0897 C   0  0  0  0  0  0  0  0  0  0  0  0
   -5.4808   -0.8261    0.1589 C   0  0  0  0  0  0  0  0  0  0  0  0
   -5.6682    0.5765    0.1867 C   0  0  0  0  0  0  0  0  0  0  0  0
   -4.5552    1.4075    0.1440 C   0  0  0  0  0  0  0  0  0  0  0  0
    2.0985   -1.6950   -0.3244 C   0  0  1  0  0  3  0  0  0  0  0  0
    2.9724   -2.7830   -0.3983 C   0  0  0  0  0  0  0  0  0  0  0  0
    2.4479   -4.0840   -0.3672 C   0  0  0  0  0  0  0  0  0  0  0  0
    1.0577   -4.2527   -0.2599 C   0  0  0  0  0  0  0  0  0  0  0  0
    0.2386   -3.1232   -0.1773 C   0  0  0  0  0  0  0  0  0  0  0  0
   -2.3397    2.8920    0.0336 H   0  0  0  0  0  0  0  0  0  0  0  0
    1.4220    4.5412   -1.4389 H   0  0  0  0  0  0  0  0  0  0  0  0
    1.3310    4.7709    0.3465 H   0  0  0  0  0  0  0  0  0  0  0  0
    2.8443    5.2337   -0.5475 H   0  0  0  0  0  0  0  0  0  0  0  0
    3.0369   -0.0122   -1.3309 H   0  0  0  0  0  0  0  0  0  0  0  0
    2.4937    0.5614    2.2342 H   0  0  0  0  0  0  0  0  0  0  0  0
    2.9534   -1.1837    2.1862 H   0  0  0  0  0  0  0  0  0  0  0  0
    4.2100    0.0713    2.5163 H   0  0  0  0  0  0  0  0  0  0  0  0
   -4.0468   -2.4603    0.0669 H   0  0  0  0  0  0  0  0  0  0  0  0
   -6.3537   -1.4968    0.1918 H   0  0  0  0  0  0  0  0  0  0  0  0
   -6.6803    1.0028    0.2406 H   0  0  0  0  0  0  0  0  0  0  0  0
   -4.6811    2.5019    0.1634 H   0  0  0  0  0  0  0  0  0  0  0  0
    4.0525   -2.5899   -0.4694 H   0  0  0  0  0  0  0  0  0  0  0  0
    3.1154   -4.9565   -0.4257 H   0  0  0  0  0  0  0  0  0  0  0  0
    0.6045   -5.2540   -0.2342 H   0  0  0  0  0  0  0  0  0  0  0  0
   -0.8584   -3.1647   -0.0842 H   0  0  0  0  0  0  0  0  0  0  0  0
  1 10  1  0  0  0  0
  2 12  1  0  0  0  0
  4  8  1  0  0  0  0
  5  4  1  0  0  0  0
  7 23  1  0  0  0  0
  8 24  1  0  0  0  0
  8 13  2  0  0  0  0
  9  1  1  0  0  0  0
  9 26  1  0  0  0  0
 10  6  1  0  0  0  0
 10  5  2  0  0  0  0
 11 28  1  6  0  0  0
 11  6  1  0  0  0  0
 11  2  1  0  0  0  0
 12 30  1  0  0  0  0
 12 29  1  0  0  0  0
 12 31  1  0  0  0  0
 13 18  1  0  0  0  0
 14  3  1  6  0  0  0
 14 13  1  0  0  0  0
 14 15  1  0  0  0  0
 15 16  2  0  0  0  0
 16 17  1  0  0  0  0
 16 33  1  0  0  0  0
 17 34  1  0  0  0  0
 18 35  1  0  0  0  0
 18 17  2  0  0  0  0
 19 11  1  1  0  0  0
 19  7  1  0  0  0  0
 20 21  2  0  0  0  0
 20 19  1  0  0  0  0
 21 22  1  0  0  0  0
 22 38  1  0  0  0  0
 22 23  2  0  0  0  0
 23 39  1  0  0  0  0
 25  9  1  0  0  0  0
 27  9  1  0  0  0  0
 32 15  1  0  0  0  0
 36 20  1  0  0  0  0
 37 21  1  0  0  0  0
M  END
