1,2,4,5
 OpenBabel05122313063D

 36 37  0  0  1  0  0  0  0  0999 V2000
    0.1678    0.2223    1.7690 O   0  0  0  0  0  1  0  0  0  0  0  0
    2.0763    0.1685   -0.1639 N   0  0  0  0  0  2  0  0  0  0  0  0
    3.6938   -1.3389   -0.2302 N   0  0  0  0  0  0  0  0  0  0  0  0
   -0.0047   -1.7646    0.0997 N   0  0  0  0  0  0  0  0  0  0  0  0
   -2.1054    0.1037   -0.0349 N   0  0  0  0  0  2  0  0  0  0  0  0
   -3.6934   -1.4314   -0.1554 N   0  0  0  0  0  0  0  0  0  0  0  0
    3.2684    0.8345   -0.0008 C   0  0  0  0  0  0  0  0  0  0  0  0
    3.3024    1.9201    0.1378 H   0  0  0  0  0  0  0  0  0  0  0  0
    4.2876   -0.0963   -0.0470 C   0  0  0  0  0  0  0  0  0  0  0  0
    5.3738    0.0115    0.0348 H   0  0  0  0  0  0  0  0  0  0  0  0
    2.3468   -1.1472   -0.2920 C   0  0  2  0  0  3  0  0  0  0  0  0
    4.4034   -2.6041   -0.3815 C   0  0  0  0  0  0  0  0  0  0  0  0
    5.4474   -2.4712   -0.0471 H   0  0  0  0  0  0  0  0  0  0  0  0
    4.4067   -2.9326   -1.4397 H   0  0  0  0  0  0  0  0  0  0  0  0
    3.9354   -3.3875    0.2448 H   0  0  0  0  0  0  0  0  0  0  0  0
    1.2742   -2.1744   -0.5619 C   0  0  0  0  0  0  0  0  0  0  0  0
    1.5919   -3.1904   -0.2426 H   0  0  0  0  0  0  0  0  0  0  0  0
    1.0792   -2.2076   -1.6545 H   0  0  0  0  0  0  0  0  0  0  0  0
   -0.0574   -2.1047    1.5511 C   0  0  0  0  0  0  0  0  0  0  0  0
    0.4047   -3.0970    1.7399 H   0  0  0  0  0  0  0  0  0  0  0  0
   -1.1267   -2.1640    1.8327 H   0  0  0  0  0  0  0  0  0  0  0  0
    0.5921   -0.9705    2.3523 C   0  0  0  0  0  0  0  0  0  0  0  0
    0.2846   -1.0251    3.4190 H   0  0  0  0  0  0  0  0  0  0  0  0
    1.7059   -1.0377    2.3261 H   0  0  0  0  0  0  0  0  0  0  0  0
   -1.2607   -2.1846   -0.6015 C   0  0  0  0  0  0  0  0  0  0  0  0
   -1.0613   -2.1286   -1.6925 H   0  0  0  0  0  0  0  0  0  0  0  0
   -1.5432   -3.2313   -0.3557 H   0  0  0  0  0  0  0  0  0  0  0  0
   -2.3542   -1.2085   -0.2461 C   0  0  1  0  0  3  0  0  0  0  0  0
   -3.3063    0.7320    0.2045 C   0  0  0  0  0  0  0  0  0  0  0  0
   -3.3569    1.8057    0.4131 H   0  0  0  0  0  0  0  0  0  0  0  0
   -4.3062   -0.2165    0.1273 C   0  0  0  0  0  0  0  0  0  0  0  0
   -5.3912   -0.1386    0.2486 H   0  0  0  0  0  0  0  0  0  0  0  0
   -4.3869   -2.6949   -0.3805 C   0  0  0  0  0  0  0  0  0  0  0  0
   -5.3937   -2.6366    0.0698 H   0  0  0  0  0  0  0  0  0  0  0  0
   -3.8381   -3.5261    0.1008 H   0  0  0  0  0  0  0  0  0  0  0  0
   -4.4898   -2.9017   -1.4643 H   0  0  0  0  0  0  0  0  0  0  0  0
  1 22  1  0  0  0  0
  2  7  1  0  0  0  0
  3  9  1  0  0  0  0
  4 19  1  0  0  0  0
  5 29  1  0  0  0  0
  6 31  1  0  0  0  0
  7  8  1  0  0  0  0
  9  7  2  0  0  0  0
  9 10  1  0  0  0  0
 11 16  1  6  0  0  0
 11  3  1  0  0  0  0
 11  2  1  0  0  0  0
 12  3  1  0  0  0  0
 12 13  1  0  0  0  0
 12 15  1  0  0  0  0
 14 12  1  0  0  0  0
 16 17  1  0  0  0  0
 16  4  1  0  0  0  0
 18 16  1  0  0  0  0
 19 20  1  0  0  0  0
 19 21  1  0  0  0  0
 19 22  1  0  0  0  0
 22 23  1  0  0  0  0
 24 22  1  0  0  0  0
 25 27  1  0  0  0  0
 25  4  1  0  0  0  0
 26 25  1  0  0  0  0
 28 25  1  6  0  0  0
 28  6  1  0  0  0  0
 28  5  1  0  0  0  0
 29 30  1  0  0  0  0
 31 29  2  0  0  0  0
 31 32  1  0  0  0  0
 33  6  1  0  0  0  0
 33 34  1  0  0  0  0
 33 35  1  0  0  0  0
 36 33  1  0  0  0  0
M  END
