3,4,5,6
 OpenBabel05122313063D

 39 40  0  0  1  0  0  0  0  0999 V2000
    4.8341   -1.8693    0.0006 O   0  0  0  0  0  0  0  0  0  0  0  0
    0.8651   -2.9355   -0.0022 O   0  0  0  0  0  1  0  0  0  0  0  0
   -1.4455   -1.5597   -0.0001 O   0  0  0  0  0  1  0  0  0  0  0  0
    1.1899   -1.7475   -0.0011 N   0  0  0  0  0  2  0  0  0  0  0  0
    1.4259    0.7437   -0.0005 N   0  0  0  0  0  2  0  0  0  0  0  0
   -1.0967    1.1881    0.0004 N   0  0  0  0  0  2  0  0  0  0  0  0
    3.4124   -3.7686    0.0011 C   0  0  0  0  0  0  0  0  0  0  0  0
    4.3993   -4.2666    0.0023 H   0  0  0  0  0  0  0  0  0  0  0  0
    2.8155   -4.0795    0.8808 H   0  0  0  0  0  0  0  0  0  0  0  0
    2.8176   -4.0803   -0.8798 H   0  0  0  0  0  0  0  0  0  0  0  0
    3.6663   -2.2747    0.0005 C   0  0  0  0  0  0  0  0  0  0  0  0
    2.5148   -1.3243   -0.0001 C   0  0  0  0  0  0  0  0  0  0  0  0
    2.6088    0.1195    0.0004 C   0  0  0  0  0  0  0  0  0  0  0  0
    3.9233    0.8358    0.0021 C   0  0  0  0  0  0  0  0  0  0  0  0
    4.0082    1.4860    0.8967 H   0  0  0  0  0  0  0  0  0  0  0  0
    4.7403    0.0952    0.0042 H   0  0  0  0  0  0  0  0  0  0  0  0
    4.0117    1.4834   -0.8940 H   0  0  0  0  0  0  0  0  0  0  0  0
    1.1111    2.1138   -0.0005 C   0  0  0  0  0  0  0  0  0  0  0  0
    1.9884    3.2222   -0.0016 C   0  0  0  0  0  0  0  0  0  0  0  0
    3.0710    3.0816   -0.0029 H   0  0  0  0  0  0  0  0  0  0  0  0
    1.4799    4.5287   -0.0013 C   0  0  0  0  0  0  0  0  0  0  0  0
    2.1809    5.3763   -0.0022 H   0  0  0  0  0  0  0  0  0  0  0  0
    0.0959    4.7575    0.0001 C   0  0  0  0  0  0  0  0  0  0  0  0
   -0.2978    5.7845    0.0005 H   0  0  0  0  0  0  0  0  0  0  0  0
   -0.7915    3.6739    0.0009 C   0  0  0  0  0  0  0  0  0  0  0  0
   -1.8733    3.8645    0.0018 H   0  0  0  0  0  0  0  0  0  0  0  0
   -0.3005    2.3564    0.0004 C   0  0  0  0  0  0  0  0  0  0  0  0
   -2.4197    1.2100    0.0008 C   0  0  0  0  0  0  0  0  0  0  0  0
   -2.9333    2.1892    0.0012 H   0  0  0  0  0  0  0  0  0  0  0  0
   -3.2593    0.0621    0.0005 C   0  0  0  0  0  0  0  0  0  0  0  0
   -2.7165   -1.2831    0.0000 C   0  0  2  0  0  3  0  0  0  0  0  0
   -3.6447   -2.3720   -0.0002 C   0  0  0  0  0  0  0  0  0  0  0  0
   -3.2183   -3.3853   -0.0006 H   0  0  0  0  0  0  0  0  0  0  0  0
   -5.0143   -2.1513   -0.0000 C   0  0  0  0  0  0  0  0  0  0  0  0
   -5.6995   -3.0135   -0.0003 H   0  0  0  0  0  0  0  0  0  0  0  0
   -5.5463   -0.8336    0.0005 C   0  0  0  0  0  0  0  0  0  0  0  0
   -6.6341   -0.6745    0.0006 H   0  0  0  0  0  0  0  0  0  0  0  0
   -4.6769    0.2445    0.0007 C   0  0  0  0  0  0  0  0  0  0  0  0
   -5.0689    1.2745    0.0011 H   0  0  0  0  0  0  0  0  0  0  0  0
  2  4  1  0  0  0  0
  4 12  1  0  0  0  0
  5 18  1  0  0  0  0
  5 13  1  0  0  0  0
  6 28  1  0  0  0  0
  7  8  1  0  0  0  0
  7  9  1  0  0  0  0
 10  7  1  0  0  0  0
 11  1  2  0  0  0  0
 11  7  1  0  0  0  0
 12 13  2  0  0  0  0
 12 11  1  0  0  0  0
 13 14  1  0  0  0  0
 14 16  1  0  0  0  0
 14 15  1  0  0  0  0
 17 14  1  0  0  0  0
 18 27  1  0  0  0  0
 19 21  1  0  0  0  0
 19 18  2  0  0  0  0
 20 19  1  0  0  0  0
 21 23  2  0  0  0  0
 22 21  1  0  0  0  0
 23 24  1  0  0  0  0
 23 25  1  0  0  0  0
 25 26  1  0  0  0  0
 27  6  1  0  0  0  0
 27 25  2  0  0  0  0
 28 29  1  0  0  0  0
 30 38  1  0  0  0  0
 30 28  2  0  0  0  0
 31  3  1  1  0  0  0
 31 30  1  0  0  0  0
 32 34  2  0  0  0  0
 32 31  1  0  0  0  0
 33 32  1  0  0  0  0
 34 36  1  0  0  0  0
 35 34  1  0  0  0  0
 36 37  1  0  0  0  0
 36 38  2  0  0  0  0
 38 39  1  0  0  0  0
M  END
