1,10,23,35
 OpenBabel05122313063D

 66 68  0  0  1  0  0  0  0  0999 V2000
    0.4448   -1.3916   -0.1218 O   0  5  0  0  0  0  0  0  0  0  0  0
    1.5767   -0.6987   -0.0638 C   0  0  0  0  0  0  0  0  0  0  0  0
    2.8759   -1.2952   -0.0094 C   0  0  0  0  0  0  0  0  0  0  0  0
    3.9698   -0.4222    0.0620 C   0  0  0  0  0  0  0  0  0  0  0  0
    4.9754   -0.8611    0.1095 H   0  0  0  0  0  0  0  0  0  0  0  0
    3.8640    0.9933    0.0840 C   0  0  0  0  0  0  0  0  0  0  0  0
    2.5829    1.5547    0.0244 C   0  0  0  0  0  0  0  0  0  0  0  0
    2.4563    2.6441    0.0494 H   0  0  0  0  0  0  0  0  0  0  0  0
    1.4547    0.7155   -0.0559 C   0  0  0  0  0  0  0  0  0  0  0  0
    0.1029    1.1276   -0.1368 N   0  0  0  0  0  2  0  0  0  0  0  0
   -0.2568    2.3930   -0.2453 C   0  0  0  0  0  0  0  0  0  0  0  0
    0.5457    3.1499   -0.3029 H   0  0  0  0  0  0  0  0  0  0  0  0
   -1.5904    2.8921   -0.2938 C   0  0  0  0  0  0  0  0  0  0  0  0
   -1.7534    4.3030   -0.4186 C   0  0  0  0  0  3  0  0  0  0  0  0
   -0.8429    4.9199   -0.4841 H   0  0  0  0  0  0  0  0  0  0  0  0
   -3.0041    4.9012   -0.4559 C   0  0  0  0  0  0  0  0  0  0  0  0
   -3.1040    5.9917   -0.5527 H   0  0  0  0  0  0  0  0  0  0  0  0
   -4.1480    4.0762   -0.3492 C   0  0  0  0  0  0  0  0  0  0  0  0
   -5.1521    4.5284   -0.3540 H   0  0  0  0  0  0  0  0  0  0  0  0
   -4.0347    2.6960   -0.2221 C   0  0  0  0  0  0  0  0  0  0  0  0
   -4.9439    2.1007   -0.0787 H   0  0  0  0  0  0  0  0  0  0  0  0
   -2.7590    2.0413   -0.2137 C   0  0  0  0  0  0  0  0  0  0  0  0
   -2.6333    0.6820   -0.1369 N   0  0  0  0  0  2  0  0  0  0  0  0
   -3.8535   -0.0974   -0.1022 C   0  0  1  0  0  0  0  0  0  0  0  0
   -4.5291    0.1908   -0.9419 H   0  0  0  0  0  0  0  0  0  0  0  0
   -3.4967   -1.5602   -0.2341 C   0  0  2  0  0  3  0  0  0  0  0  0
   -4.4522   -2.5799   -0.2862 C   0  0  0  0  0  0  0  0  0  0  0  0
   -5.5179   -2.3129   -0.2517 H   0  0  0  0  0  0  0  0  0  0  0  0
   -4.0210   -3.9114   -0.3679 C   0  0  0  0  0  0  0  0  0  0  0  0
   -4.7500   -4.7337   -0.4173 H   0  0  0  0  0  0  0  0  0  0  0  0
   -2.6415   -4.1742   -0.3834 C   0  0  0  0  0  0  0  0  0  0  0  0
   -2.2561   -5.2018   -0.4450 H   0  0  0  0  0  0  0  0  0  0  0  0
   -1.7399   -3.1094   -0.3116 C   0  0  0  0  0  0  0  0  0  0  0  0
   -0.6477   -3.2360   -0.3053 H   0  0  0  0  0  0  0  0  0  0  0  0
   -2.1683   -1.8265   -0.2350 N   0  0  0  0  0  2  0  0  0  0  0  0
    3.0344   -2.8235   -0.0258 C   0  0  0  0  0  0  0  0  0  0  0  0
    2.4326   -3.3809   -1.3375 C   0  0  0  0  0  0  0  0  0  0  0  0
    1.3786   -3.0674   -1.4566 H   0  0  0  0  0  0  0  0  0  0  0  0
    2.9988   -3.0068   -2.2145 H   0  0  0  0  0  0  0  0  0  0  0  0
    2.4797   -4.4902   -1.3462 H   0  0  0  0  0  0  0  0  0  0  0  0
    4.5084   -3.2579    0.0435 C   0  0  0  0  0  0  0  0  0  0  0  0
    4.9997   -2.9106    0.9751 H   0  0  0  0  0  0  0  0  0  0  0  0
    4.5700   -4.3650    0.0269 H   0  0  0  0  0  0  0  0  0  0  0  0
    5.0938   -2.8784   -0.8185 H   0  0  0  0  0  0  0  0  0  0  0  0
    2.3004   -3.4239    1.1966 C   0  0  0  0  0  0  0  0  0  0  0  0
    2.7693   -3.0769    2.1398 H   0  0  0  0  0  0  0  0  0  0  0  0
    1.2379   -3.1171    1.2128 H   0  0  0  0  0  0  0  0  0  0  0  0
    2.3533   -4.5328    1.1750 H   0  0  0  0  0  0  0  0  0  0  0  0
    5.1427    1.8455    0.1764 C   0  0  0  0  0  0  0  0  0  0  0  0
    6.0478    1.5456   -1.0403 C   0  0  0  0  0  0  0  0  0  0  0  0
    5.5287    1.7930   -1.9883 H   0  0  0  0  0  0  0  0  0  0  0  0
    6.9819    2.1435   -0.9902 H   0  0  0  0  0  0  0  0  0  0  0  0
    6.3350    0.4762   -1.0841 H   0  0  0  0  0  0  0  0  0  0  0  0
    5.8994    1.4966    1.4784 C   0  0  0  0  0  0  0  0  0  0  0  0
    5.2719    1.7084    2.3677 H   0  0  0  0  0  0  0  0  0  0  0  0
    6.1815    0.4255    1.5141 H   0  0  0  0  0  0  0  0  0  0  0  0
    6.8317    2.0937    1.5617 H   0  0  0  0  0  0  0  0  0  0  0  0
    4.8336    3.3523    0.1874 C   0  0  0  0  0  0  0  0  0  0  0  0
    4.3089    3.6711   -0.7360 H   0  0  0  0  0  0  0  0  0  0  0  0
    4.2081    3.6377    1.0574 H   0  0  0  0  0  0  0  0  0  0  0  0
    5.7770    3.9313    0.2515 H   0  0  0  0  0  0  0  0  0  0  0  0
   -4.6768    0.0985    1.0504 O   0  0  0  0  0  0  0  0  0  0  0  0
   -4.0108   -0.0884    2.2909 C   0  0  0  0  0  0  0  0  0  0  0  0
   -4.7525    0.1328    3.0812 H   0  0  0  0  0  0  0  0  0  0  0  0
   -3.6497   -1.1353    2.4224 H   0  0  0  0  0  0  0  0  0  0  0  0
   -3.1420    0.5962    2.4000 H   0  0  0  0  0  0  0  0  0  0  0  0
  1  2  1  0  0  0  0
  2  9  2  0  0  0  0
  2  3  1  0  0  0  0
  3  4  2  0  0  0  0
  4  6  1  0  0  0  0
  4  5  1  0  0  0  0
  6 49  1  0  0  0  0
  7  8  1  0  0  0  0
  7  6  2  0  0  0  0
  9  7  1  0  0  0  0
 10  9  1  0  0  0  0
 11 10  1  0  0  0  0
 12 11  1  0  0  0  0
 13 11  2  0  0  0  0
 13 22  1  0  0  0  0
 14 13  1  0  0  0  0
 15 14  1  0  0  0  0
 16 14  1  0  0  0  0
 16 18  2  0  0  0  0
 17 16  1  0  0  0  0
 18 20  1  0  0  0  0
 19 18  1  0  0  0  0
 20 22  2  0  0  0  0
 20 21  1  0  0  0  0
 22 23  1  0  0  0  0
 23 24  1  0  0  0  0
 24 25  1  6  0  0  0
 24 62  1  0  0  0  0
 26 24  1  1  0  0  0
 27 28  1  0  0  0  0
 27 26  1  0  0  0  0
 29 27  2  0  0  0  0
 30 29  1  0  0  0  0
 31 29  1  0  0  0  0
 31 33  2  0  0  0  0
 32 31  1  0  0  0  0
 33 34  1  0  0  0  0
 33 35  1  0  0  0  0
 35 26  1  0  0  0  0
 36  3  1  0  0  0  0
 36 41  1  0  0  0  0
 36 45  1  0  0  0  0
 37 36  1  0  0  0  0
 38 37  1  0  0  0  0
 39 37  1  0  0  0  0
 40 37  1  0  0  0  0
 41 42  1  0  0  0  0
 43 41  1  0  0  0  0
 44 41  1  0  0  0  0
 45 47  1  0  0  0  0
 45 46  1  0  0  0  0
 48 45  1  0  0  0  0
 49 58  1  0  0  0  0
 49 54  1  0  0  0  0
 50 52  1  0  0  0  0
 50 49  1  0  0  0  0
 51 50  1  0  0  0  0
 53 50  1  0  0  0  0
 54 56  1  0  0  0  0
 54 57  1  0  0  0  0
 54 55  1  0  0  0  0
 58 61  1  0  0  0  0
 58 60  1  0  0  0  0
 59 58  1  0  0  0  0
 62 63  1  0  0  0  0
 63 66  1  0  0  0  0
 63 65  1  0  0  0  0
 63 64  1  0  0  0  0
M  CHG  1   1  -1
M  END
