1,7,8,10
 OpenBabel05122313063D

 51 53  0  0  1  0  0  0  0  0999 V2000
    0.9147   -1.0877   -0.0281 O   0  5  0  0  0  0  0  0  0  0  0  0
    5.0943   -1.5203   -0.2085 O   0  0  0  0  0  0  0  0  0  0  0  0
    4.4862   -0.7048   -0.2340 H   0  0  0  0  0  0  0  0  0  0  0  0
   -1.7068   -1.1440   -1.4489 O   0  0  0  0  0  0  0  0  0  0  0  0
   -4.9838    0.0900    0.9037 O   0  0  0  0  0  0  0  0  0  0  0  0
   -4.1140    0.5447    0.6061 H   0  0  0  0  0  0  0  0  0  0  0  0
    0.4177    2.6894   -0.2094 N   0  0  0  0  0  2  0  0  0  0  0  0
    2.1865    1.0188   -0.2972 N   0  0  0  0  0  2  0  0  0  0  0  0
    2.9717   -0.0789   -0.2311 N   0  0  0  0  0  0  0  0  0  0  0  0
   -1.6686    1.3457   -0.1835 N   0  0  0  0  0  2  0  0  0  0  0  0
   -2.7244    0.5294   -0.1733 N   0  0  0  0  0  2  0  0  0  0  0  0
    1.6577    3.2480   -0.3881 C   0  0  0  0  0  0  0  0  0  0  0  0
    1.8043    4.6427   -0.4159 C   0  0  0  0  0  0  0  0  0  0  0  0
    2.7987    5.0891   -0.5486 H   0  0  0  0  0  0  0  0  0  0  0  0
    0.6586    5.4508   -0.2568 C   0  0  0  0  0  0  0  0  0  0  0  0
    0.7564    6.5460   -0.2764 H   0  0  0  0  0  0  0  0  0  0  0  0
   -0.5987    4.8666   -0.0902 C   0  0  0  0  0  0  0  0  0  0  0  0
   -1.5016    5.4848    0.0006 H   0  0  0  0  0  0  0  0  0  0  0  0
   -0.7081    3.4531   -0.0794 C   0  0  0  0  0  0  0  0  0  0  0  0
    2.6959    2.2341   -0.4666 C   0  0  0  0  0  0  0  0  0  0  0  0
    4.1582    2.4769   -0.6279 C   0  0  0  0  0  0  0  0  0  0  0  0
    4.5834    1.7796   -1.3781 H   0  0  0  0  0  0  0  0  0  0  0  0
    4.7020    2.2861    0.3229 H   0  0  0  0  0  0  0  0  0  0  0  0
    4.3681    3.5136   -0.9472 H   0  0  0  0  0  0  0  0  0  0  0  0
    2.1982   -1.1833   -0.1085 C   0  0  0  0  0  0  0  0  0  0  0  0
    2.8628   -2.4854   -0.0677 C   0  0  0  0  0  0  0  0  0  0  0  0
    2.0776   -3.6609    0.0218 C   0  0  0  0  0  0  0  0  0  0  0  0
    0.9845   -3.5405    0.0511 H   0  0  0  0  0  0  0  0  0  0  0  0
    2.6745   -4.9187    0.0627 C   0  0  0  0  0  0  0  0  0  0  0  0
    2.0568   -5.8256    0.1308 H   0  0  0  0  0  0  0  0  0  0  0  0
    4.0830   -5.0153    0.0152 C   0  0  0  0  0  0  0  0  0  0  0  0
    4.5645   -6.0050    0.0490 H   0  0  0  0  0  0  0  0  0  0  0  0
    4.8800   -3.8738   -0.0745 C   0  0  0  0  0  0  0  0  0  0  0  0
    5.9769   -3.9379   -0.1129 H   0  0  0  0  0  0  0  0  0  0  0  0
    4.2932   -2.5868   -0.1214 C   0  0  0  0  0  0  0  0  0  0  0  0
   -1.9058    2.6558   -0.0403 C   0  0  1  0  0  3  0  0  0  0  0  0
   -3.2925    3.1954    0.0862 C   0  0  0  0  0  0  0  0  0  0  0  0
   -3.9563    2.7460   -0.6795 H   0  0  0  0  0  0  0  0  0  0  0  0
   -3.3177    4.2953   -0.0126 H   0  0  0  0  0  0  0  0  0  0  0  0
   -3.7286    2.9274    1.0728 H   0  0  0  0  0  0  0  0  0  0  0  0
   -2.6464   -0.7193   -0.7105 C   0  0  0  0  0  0  0  0  0  0  0  0
   -3.8093   -1.5860   -0.4112 C   0  0  0  0  0  0  0  0  0  0  0  0
   -4.9180   -1.1405    0.3814 C   0  0  0  0  0  0  0  0  0  0  0  0
   -5.9905   -2.0338    0.6173 C   0  0  0  0  0  0  0  0  0  0  0  0
   -6.8318   -1.6723    1.2263 H   0  0  0  0  0  0  0  0  0  0  0  0
   -5.9698   -3.3263    0.0918 C   0  0  0  0  0  0  0  0  0  0  0  0
   -6.8153   -4.0031    0.2918 H   0  0  0  0  0  0  0  0  0  0  0  0
   -4.8822   -3.7704   -0.6898 C   0  0  0  0  0  0  0  0  0  0  0  0
   -4.8726   -4.7897   -1.1026 H   0  0  0  0  0  0  0  0  0  0  0  0
   -3.8209   -2.8993   -0.9345 C   0  0  0  0  0  0  0  0  0  0  0  0
   -2.9552   -3.2027   -1.5412 H   0  0  0  0  0  0  0  0  0  0  0  0
  2 35  1  0  0  0  0
  3  2  1  0  0  0  0
  4 41  2  0  0  0  0
  6  5  1  0  0  0  0
  7 19  1  0  0  0  0
  8  9  1  0  0  0  0
  9 25  2  0  0  0  0
 10 11  1  0  0  0  0
 12  7  1  0  0  0  0
 13 12  1  0  0  0  0
 13 15  2  0  0  0  0
 14 13  1  0  0  0  0
 15 17  1  0  0  0  0
 16 15  1  0  0  0  0
 17 19  2  0  0  0  0
 17 18  1  0  0  0  0
 19 36  1  0  0  0  0
 20 12  2  0  0  0  0
 20  8  1  0  0  0  0
 21 20  1  0  0  0  0
 21 23  1  0  0  0  0
 22 21  1  0  0  0  0
 24 21  1  0  0  0  0
 25 26  1  0  0  0  0
 25  1  1  0  0  0  0
 26 27  1  0  0  0  0
 27 28  1  0  0  0  0
 27 29  2  0  0  0  0
 29 30  1  0  0  0  0
 31 32  1  0  0  0  0
 31 29  1  0  0  0  0
 33 31  2  0  0  0  0
 34 33  1  0  0  0  0
 35 33  1  0  0  0  0
 35 26  2  0  0  0  0
 36 10  1  6  0  0  0
 36 37  1  0  0  0  0
 37 40  1  0  0  0  0
 38 37  1  0  0  0  0
 39 37  1  0  0  0  0
 41 42  1  0  0  0  0
 41 11  1  0  0  0  0
 42 43  1  0  0  0  0
 43 44  2  0  0  0  0
 43  5  1  0  0  0  0
 44 45  1  0  0  0  0
 46 47  1  0  0  0  0
 46 44  1  0  0  0  0
 48 46  2  0  0  0  0
 49 48  1  0  0  0  0
 50 48  1  0  0  0  0
 50 42  2  0  0  0  0
 51 50  1  0  0  0  0
M  CHG  1   1  -1
M  END
