1,8,16,17
 OpenBabel05122313063D

 38 38  0  0  1  0  0  0  0  0999 V2000
    1.0054    1.6692    0.0560 O   0  0  0  0  0  1  0  0  0  0  0  0
   -2.9449   -2.7001    0.0351 C   0  0  0  0  0  0  0  0  0  0  0  0
   -3.2044   -2.6552   -1.0423 H   0  0  0  0  0  0  0  0  0  0  0  0
   -3.8853   -2.6427    0.6159 H   0  0  0  0  0  0  0  0  0  0  0  0
   -2.4968   -3.6884    0.2538 H   0  0  0  0  0  0  0  0  0  0  0  0
   -1.9970   -1.5718    0.4283 C   0  0  1  0  0  0  0  0  0  0  0  0
   -1.7902   -1.6288    1.5212 H   0  0  0  0  0  0  0  0  0  0  0  0
   -0.6566   -1.6704   -0.2280 N   0  0  0  0  0  0  0  0  0  0  0  0
   -0.8044   -1.8126   -1.2436 H   0  0  0  0  0  0  0  0  0  0  0  0
   -3.1100    2.5009   -0.2457 C   0  0  0  0  0  0  0  0  0  0  0  0
   -3.3129    3.5702   -0.3983 H   0  0  0  0  0  0  0  0  0  0  0  0
    4.2820   -1.3186   -0.1281 C   0  0  0  0  0  0  0  0  0  0  0  0
    4.3116   -2.0405    0.7147 H   0  0  0  0  0  0  0  0  0  0  0  0
    5.2155   -0.7305   -0.1035 H   0  0  0  0  0  0  0  0  0  0  0  0
    4.2723   -1.9108   -1.0663 H   0  0  0  0  0  0  0  0  0  0  0  0
   -1.4918    0.7434   -0.0171 N   0  0  0  0  0  2  0  0  0  0  0  0
    1.8478   -0.9429   -0.0642 N   0  0  0  0  0  2  0  0  0  0  0  0
    1.6437   -2.3821   -0.2582 C   0  0  0  0  0  0  0  0  0  0  0  0
    2.4084   -2.9938    0.2628 H   0  0  0  0  0  0  0  0  0  0  0  0
    1.7130   -2.6438   -1.3410 H   0  0  0  0  0  0  0  0  0  0  0  0
    3.2910    0.9809    0.0765 C   0  0  0  0  0  0  0  0  0  0  0  0
    4.3287    1.3318    0.1296 H   0  0  0  0  0  0  0  0  0  0  0  0
   -1.7883    2.0477   -0.2071 C   0  0  0  0  0  3  0  0  0  0  0  0
   -0.9176    2.7116   -0.3165 H   0  0  0  0  0  0  0  0  0  0  0  0
    2.2748    1.9397    0.1253 C   0  0  1  0  0  3  0  0  0  0  0  0
   -2.4947   -0.1677    0.1449 C   0  0  0  0  0  0  0  0  0  0  0  0
   -4.1515    1.5743   -0.0958 C   0  0  0  0  0  0  0  0  0  0  0  0
   -5.2016    1.8994   -0.1314 H   0  0  0  0  0  0  0  0  0  0  0  0
    0.2629   -2.7197    0.2796 C   0  0  0  0  0  0  0  0  0  0  0  0
   -0.0638   -3.7392   -0.0146 H   0  0  0  0  0  0  0  0  0  0  0  0
    0.2542   -2.6536    1.3862 H   0  0  0  0  0  0  0  0  0  0  0  0
   -3.8371    0.2202    0.1014 C   0  0  0  0  0  0  0  0  0  0  0  0
   -4.6321   -0.5274    0.2256 H   0  0  0  0  0  0  0  0  0  0  0  0
    3.0758   -0.4151   -0.0373 C   0  0  0  0  0  0  0  0  0  0  0  0
    2.5896    3.4056    0.2620 C   0  0  0  0  0  0  0  0  0  0  0  0
    2.1781    3.9607   -0.6059 H   0  0  0  0  0  0  0  0  0  0  0  0
    3.6760    3.5927    0.3260 H   0  0  0  0  0  0  0  0  0  0  0  0
    2.0969    3.8114    1.1691 H   0  0  0  0  0  0  0  0  0  0  0  0
  2  5  1  0  0  0  0
  2  6  1  0  0  0  0
  2  4  1  0  0  0  0
  3  2  1  0  0  0  0
  6  7  1  1  0  0  0
  8 29  1  0  0  0  0
  8  6  1  0  0  0  0
  9  8  1  0  0  0  0
 10 23  1  0  0  0  0
 10 27  2  0  0  0  0
 11 10  1  0  0  0  0
 12 14  1  0  0  0  0
 12 34  1  0  0  0  0
 12 13  1  0  0  0  0
 15 12  1  0  0  0  0
 16 26  1  0  0  0  0
 17 34  1  0  0  0  0
 18 17  1  0  0  0  0
 18 19  1  0  0  0  0
 18 29  1  0  0  0  0
 20 18  1  0  0  0  0
 21 25  1  0  0  0  0
 21 22  1  0  0  0  0
 23 16  1  0  0  0  0
 24 23  1  0  0  0  0
 25  1  1  6  0  0  0
 25 35  1  0  0  0  0
 26  6  1  0  0  0  0
 27 32  1  0  0  0  0
 28 27  1  0  0  0  0
 29 31  1  0  0  0  0
 30 29  1  0  0  0  0
 32 26  2  0  0  0  0
 32 33  1  0  0  0  0
 34 21  2  0  0  0  0
 35 37  1  0  0  0  0
 35 38  1  0  0  0  0
 36 35  1  0  0  0  0
M  END
