2,5,6,7
 OpenBabel05122313063D

 73 77  0  0  1  0  0  0  0  0999 V2000
    3.7270    0.2747   -2.8957 O   0  0  0  0  0  0  0  0  0  0  0  0
   -0.0691    0.3638    0.5194 O   0  5  0  0  0  0  0  0  0  0  0  0
   -0.3039   -4.6556    0.2506 O   0  0  0  0  0  0  0  0  0  0  0  0
   -1.3620   -0.9132   -1.5422 O   0  0  0  0  0  0  0  0  0  0  0  0
    2.1766   -2.2929   -0.8870 N   0  0  0  0  0  0  0  0  0  0  0  0
    2.0783    0.3582   -1.2051 N   0  0  0  0  0  2  0  0  0  0  0  0
   -0.0636   -2.3378    0.3781 N   0  0  0  0  0  2  0  0  0  0  0  0
    2.9538   -0.5812    1.8630 C   0  0  0  0  0  0  0  0  0  0  0  0
    2.0583   -1.0772    2.2683 H   0  0  0  0  0  0  0  0  0  0  0  0
    3.3540    0.6651    2.3620 C   0  0  0  0  0  0  0  0  0  0  0  0
    2.7696    1.1493    3.1587 H   0  0  0  0  0  0  0  0  0  0  0  0
    4.4936    1.2995    1.8391 C   0  0  0  0  0  0  0  0  0  0  0  0
    4.7961    2.2877    2.2166 H   0  0  0  0  0  0  0  0  0  0  0  0
    5.2401    0.6737    0.8308 C   0  0  0  0  0  0  0  0  0  0  0  0
    6.1337    1.1652    0.4185 H   0  0  0  0  0  0  0  0  0  0  0  0
    4.8405   -0.5780    0.3336 C   0  0  0  0  0  0  0  0  0  0  0  0
    5.4217   -1.0565   -0.4700 H   0  0  0  0  0  0  0  0  0  0  0  0
    3.6854   -1.2065    0.8303 C   0  0  0  0  0  0  0  0  0  0  0  0
    3.1694   -2.4899    0.2304 C   0  0  0  0  0  0  0  0  0  0  0  0
    4.0024   -3.1133   -0.1651 H   0  0  0  0  0  0  0  0  0  0  0  0
    2.6401   -3.0771    1.0052 H   0  0  0  0  0  0  0  0  0  0  0  0
    2.7904   -1.7742   -2.1244 C   0  0  0  0  0  0  0  0  0  0  0  0
    2.1271   -2.0319   -2.9743 H   0  0  0  0  0  0  0  0  0  0  0  0
    3.7824   -2.2321   -2.3267 H   0  0  0  0  0  0  0  0  0  0  0  0
    2.9399   -0.2497   -2.1096 C   0  0  0  0  0  0  0  0  0  0  0  0
    2.1528    1.7075   -0.9041 C   0  0  2  0  0  3  0  0  0  0  0  0
    3.2231    2.5350   -1.3658 C   0  0  0  0  0  0  0  0  0  0  0  0
    3.9633    2.0838   -2.0328 H   0  0  0  0  0  0  0  0  0  0  0  0
    3.3334    3.8696   -0.9919 C   0  0  0  0  0  0  0  0  0  0  0  0
    4.1892    4.4548   -1.3635 H   0  0  0  0  0  0  0  0  0  0  0  0
    2.3839    4.4727   -0.1401 C   0  0  0  0  0  0  0  0  0  0  0  0
    2.4923    5.5198    0.1778 H   0  0  0  0  0  0  0  0  0  0  0  0
    1.3069    3.7127    0.2928 C   0  0  0  0  0  0  0  0  0  0  0  0
    0.5671    4.1565    0.9726 H   0  0  0  0  0  0  0  0  0  0  0  0
    1.1472    2.3446   -0.0780 C   0  0  0  0  0  0  0  0  0  0  0  0
    0.0017    1.6294    0.4487 C   0  0  0  0  0  0  0  0  0  0  0  0
   -1.2145    2.3233    0.9622 C   0  0  0  0  0  0  0  0  0  0  0  0
   -1.7901    3.4210    0.2830 C   0  0  0  0  0  0  0  0  0  0  0  0
   -1.2943    3.8285   -0.6102 H   0  0  0  0  0  0  0  0  0  0  0  0
   -3.0083    3.9600    0.7188 C   0  0  0  0  0  0  0  0  0  0  0  0
   -3.4585    4.8018    0.1715 H   0  0  0  0  0  0  0  0  0  0  0  0
   -3.6581    3.4211    1.8410 C   0  0  0  0  0  0  0  0  0  0  0  0
   -4.6128    3.8490    2.1827 H   0  0  0  0  0  0  0  0  0  0  0  0
   -3.0933    2.3270    2.5182 C   0  0  0  0  0  0  0  0  0  0  0  0
   -3.6036    1.8919    3.3907 H   0  0  0  0  0  0  0  0  0  0  0  0
   -1.8879    1.7718    2.0749 C   0  0  0  0  0  0  0  0  0  0  0  0
   -1.4566    0.8939    2.5765 H   0  0  0  0  0  0  0  0  0  0  0  0
    1.3995   -3.5425   -1.0651 C   0  0  0  0  0  0  0  0  0  0  0  0
    2.0448   -4.4437   -1.0017 H   0  0  0  0  0  0  0  0  0  0  0  0
    0.9277   -3.5241   -2.0677 H   0  0  0  0  0  0  0  0  0  0  0  0
    0.2620   -3.6010   -0.0360 C   0  0  0  0  0  0  0  0  0  0  0  0
   -1.2225   -2.1334    1.1380 C   0  0  0  0  0  0  0  0  0  0  0  0
   -1.2866   -2.6176    2.4617 C   0  0  0  0  0  0  0  0  0  0  0  0
   -0.4319   -3.1949    2.8417 H   0  0  0  0  0  0  0  0  0  0  0  0
   -2.3945   -2.3595    3.2759 C   0  0  0  0  0  0  0  0  0  0  0  0
   -2.4155   -2.7425    4.3079 H   0  0  0  0  0  0  0  0  0  0  0  0
   -3.4658   -1.5950    2.7824 C   0  0  0  0  0  0  0  0  0  0  0  0
   -4.3259   -1.3577    3.4263 H   0  0  0  0  0  0  0  0  0  0  0  0
   -3.4319   -1.1351    1.4626 C   0  0  0  0  0  0  0  0  0  0  0  0
   -4.2600   -0.5197    1.0857 H   0  0  0  0  0  0  0  0  0  0  0  0
   -2.3398   -1.4136    0.6053 C   0  0  0  0  0  0  0  0  0  0  0  0
   -2.3588   -0.9371   -0.8102 C   0  0  0  0  0  0  0  0  0  0  0  0
   -3.6547   -0.4283   -1.3892 C   0  0  0  0  0  0  0  0  0  0  0  0
   -3.6136    0.7681   -2.1355 C   0  0  0  0  0  0  0  0  0  0  0  0
   -2.6550    1.3006   -2.2240 H   0  0  0  0  0  0  0  0  0  0  0  0
   -4.7729    1.2659   -2.7422 C   0  0  0  0  0  0  0  0  0  0  0  0
   -4.7353    2.2119   -3.3038 H   0  0  0  0  0  0  0  0  0  0  0  0
   -5.9808    0.5540   -2.6424 C   0  0  0  0  0  0  0  0  0  0  0  0
   -6.8902    0.9393   -3.1284 H   0  0  0  0  0  0  0  0  0  0  0  0
   -6.0232   -0.6544   -1.9292 C   0  0  0  0  0  0  0  0  0  0  0  0
   -6.9622   -1.2253   -1.8663 H   0  0  0  0  0  0  0  0  0  0  0  0
   -4.8693   -1.1398   -1.2955 C   0  0  0  0  0  0  0  0  0  0  0  0
   -4.9028   -2.0898   -0.7413 H   0  0  0  0  0  0  0  0  0  0  0  0
  1 25  2  0  0  0  0
  4 62  2  0  0  0  0
  5 19  1  0  0  0  0
  7 52  1  0  0  0  0
  8  9  1  0  0  0  0
  8 10  1  0  0  0  0
 10 11  1  0  0  0  0
 12 13  1  0  0  0  0
 12 10  2  0  0  0  0
 14 12  1  0  0  0  0
 15 14  1  0  0  0  0
 16 18  1  0  0  0  0
 16 14  2  0  0  0  0
 17 16  1  0  0  0  0
 18  8  2  0  0  0  0
 19 18  1  0  0  0  0
 19 21  1  0  0  0  0
 20 19  1  0  0  0  0
 22 25  1  0  0  0  0
 22  5  1  0  0  0  0
 23 22  1  0  0  0  0
 24 22  1  0  0  0  0
 25  6  1  0  0  0  0
 26  6  1  1  0  0  0
 26 35  1  0  0  0  0
 27 29  2  0  0  0  0
 27 26  1  0  0  0  0
 28 27  1  0  0  0  0
 29 31  1  0  0  0  0
 30 29  1  0  0  0  0
 31 32  1  0  0  0  0
 31 33  2  0  0  0  0
 33 34  1  0  0  0  0
 35 33  1  0  0  0  0
 35 36  2  0  0  0  0
 36  2  1  0  0  0  0
 36 37  1  0  0  0  0
 37 46  1  0  0  0  0
 38 40  1  0  0  0  0
 38 37  2  0  0  0  0
 39 38  1  0  0  0  0
 40 42  2  0  0  0  0
 41 40  1  0  0  0  0
 42 43  1  0  0  0  0
 42 44  1  0  0  0  0
 44 45  1  0  0  0  0
 46 44  2  0  0  0  0
 46 47  1  0  0  0  0
 48 49  1  0  0  0  0
 48  5  1  0  0  0  0
 48 51  1  0  0  0  0
 50 48  1  0  0  0  0
 51  3  2  0  0  0  0
 51  7  1  0  0  0  0
 52 53  1  0  0  0  0
 53 54  1  0  0  0  0
 53 55  2  0  0  0  0
 55 56  1  0  0  0  0
 57 55  1  0  0  0  0
 57 58  1  0  0  0  0
 59 57  2  0  0  0  0
 60 59  1  0  0  0  0
 61 52  2  0  0  0  0
 61 59  1  0  0  0  0
 62 61  1  0  0  0  0
 63 72  1  0  0  0  0
 63 62  1  0  0  0  0
 64 63  2  0  0  0  0
 65 64  1  0  0  0  0
 66 68  2  0  0  0  0
 66 64  1  0  0  0  0
 67 66  1  0  0  0  0
 68 70  1  0  0  0  0
 69 68  1  0  0  0  0
 70 71  1  0  0  0  0
 70 72  2  0  0  0  0
 72 73  1  0  0  0  0
M  CHG  1   2  -1
M  END
