1,4,5,6
 OpenBabel05122313063D

 73 76  0  0  1  0  0  0  0  0999 V2000
   -0.7388   -1.9878   -1.6325 O   0  5  0  0  0  0  0  0  0  0  0  0
    0.6453   -3.6615   -2.1834 O   0  0  0  0  0  0  0  0  0  0  0  0
   -2.9768    1.3618    2.3393 O   0  0  0  0  0  0  0  0  0  0  0  0
    0.9482   -0.5589   -0.3611 N   0  0  0  0  0  2  0  0  0  0  0  0
   -1.2052    0.6810    0.9301 N   0  0  0  0  0  2  0  0  0  0  0  0
   -2.8589   -0.8100   -0.5261 N   0  0  0  0  0  0  0  0  0  0  0  0
    0.4221   -2.5958   -1.6232 C   0  0  0  0  0  0  0  0  0  0  0  0
    1.5346   -1.8633   -0.8035 C   0  0  2  0  0  0  0  0  0  0  0  0
    1.8356   -2.7520    0.4338 C   0  0  0  0  0  0  0  0  0  0  0  0
    2.0896   -3.7436    0.0063 H   0  0  0  0  0  0  0  0  0  0  0  0
    2.7556   -2.3747    0.9279 H   0  0  0  0  0  0  0  0  0  0  0  0
    0.6884   -2.8977    1.4612 C   0  0  0  0  0  0  0  0  0  0  0  0
   -0.2554   -2.6154    0.9378 H   0  0  0  0  0  0  0  0  0  0  0  0
    0.5418   -4.3508    1.9263 C   0  0  0  0  0  0  0  0  0  0  0  0
    0.3505   -5.0267    1.0681 H   0  0  0  0  0  0  0  0  0  0  0  0
    1.4651   -4.7027    2.4346 H   0  0  0  0  0  0  0  0  0  0  0  0
   -0.2958   -4.4623    2.6459 H   0  0  0  0  0  0  0  0  0  0  0  0
    0.8404   -1.9420    2.6514 C   0  0  0  0  0  0  0  0  0  0  0  0
    0.8633   -0.8827    2.3301 H   0  0  0  0  0  0  0  0  0  0  0  0
   -0.0044   -2.0495    3.3630 H   0  0  0  0  0  0  0  0  0  0  0  0
    1.7752   -2.1559    3.2130 H   0  0  0  0  0  0  0  0  0  0  0  0
    2.7656   -1.8256   -1.7224 C   0  0  0  0  0  0  0  0  0  0  0  0
    2.8173   -2.8280   -2.1903 H   0  0  0  0  0  0  0  0  0  0  0  0
    2.6445   -1.0791   -2.5302 H   0  0  0  0  0  0  0  0  0  0  0  0
    3.7110   -1.6320   -1.1881 H   0  0  0  0  0  0  0  0  0  0  0  0
    1.6382    0.4885    0.0412 C   0  0  0  0  0  0  0  0  0  0  0  0
    3.1380    0.5220   -0.0561 C   0  0  0  0  0  0  0  0  0  0  0  0
    3.7673    1.0663   -1.1933 C   0  0  0  0  0  0  0  0  0  0  0  0
    3.1501    1.4411   -2.0239 H   0  0  0  0  0  0  0  0  0  0  0  0
    5.1656    1.1188   -1.2705 C   0  0  0  0  0  0  0  0  0  0  0  0
    5.6480    1.5372   -2.1668 H   0  0  0  0  0  0  0  0  0  0  0  0
    5.9487    0.6354   -0.2092 C   0  0  0  0  0  0  0  0  0  0  0  0
    7.0467    0.6708   -0.2730 H   0  0  0  0  0  0  0  0  0  0  0  0
    5.3261    0.1207    0.9387 C   0  0  0  0  0  0  0  0  0  0  0  0
    5.9340   -0.2426    1.7810 H   0  0  0  0  0  0  0  0  0  0  0  0
    3.9260    0.0751    1.0212 C   0  0  0  0  0  0  0  0  0  0  0  0
    3.4344   -0.3067    1.9281 H   0  0  0  0  0  0  0  0  0  0  0  0
    1.0326    1.6697    0.6636 C   0  0  0  0  0  0  0  0  0  0  0  0
   -0.3161    1.7153    1.1787 C   0  0  0  0  0  0  0  0  0  0  0  0
   -0.7014    2.8779    1.9123 C   0  0  0  0  0  0  0  0  0  0  0  0
   -1.7005    2.8850    2.3572 H   0  0  0  0  0  0  0  0  0  0  0  0
    0.1420    3.9755    2.0511 C   0  0  0  0  0  0  0  0  0  0  0  0
   -0.2175    4.8574    2.6041 H   0  0  0  0  0  0  0  0  0  0  0  0
    1.4335    3.9632    1.4939 C   0  0  0  0  0  0  0  0  0  0  0  0
    2.1050    4.8284    1.5927 H   0  0  0  0  0  0  0  0  0  0  0  0
    1.8627    2.8154    0.8384 C   0  0  0  0  0  3  0  0  0  0  0  0
    2.8835    2.7877    0.4385 H   0  0  0  0  0  0  0  0  0  0  0  0
   -2.4902    0.6590    1.4515 C   0  0  0  0  0  0  0  0  0  0  0  0
   -3.3425   -0.4417    0.8310 C   0  0  2  0  0  0  0  0  0  0  0  0
   -4.3876   -0.0647    0.7711 H   0  0  0  0  0  0  0  0  0  0  0  0
   -3.2922   -1.7635    1.6451 C   0  0  0  0  0  0  0  0  0  0  0  0
   -2.4252   -1.7591    2.3340 H   0  0  0  0  0  0  0  0  0  0  0  0
   -4.2013   -1.8543    2.2685 H   0  0  0  0  0  0  0  0  0  0  0  0
   -3.1656   -2.8914    0.5922 C   0  0  0  0  0  0  0  0  0  0  0  0
   -2.1577   -3.3484    0.6228 H   0  0  0  0  0  0  0  0  0  0  0  0
   -3.9007   -3.7047    0.7434 H   0  0  0  0  0  0  0  0  0  0  0  0
   -3.3732   -2.1920   -0.7468 C   0  0  0  0  0  0  0  0  0  0  0  0
   -2.8262   -2.6534   -1.5882 H   0  0  0  0  0  0  0  0  0  0  0  0
   -4.4564   -2.1139   -0.9966 H   0  0  0  0  0  0  0  0  0  0  0  0
   -3.2961    0.0939   -1.6351 C   0  0  0  0  0  0  0  0  0  0  0  0
   -4.3983    0.2345   -1.5554 H   0  0  0  0  0  0  0  0  0  0  0  0
   -3.0876   -0.4606   -2.5706 H   0  0  0  0  0  0  0  0  0  0  0  0
   -2.5833    1.4242   -1.6635 C   0  0  0  0  0  0  0  0  0  0  0  0
   -1.3381    1.5333   -2.3192 C   0  0  0  0  0  0  0  0  0  0  0  0
   -0.9374    0.6656   -2.8661 H   0  0  0  0  0  0  0  0  0  0  0  0
   -0.6166    2.7341   -2.2764 C   0  0  0  0  0  0  0  0  0  0  0  0
    0.3578    2.8054   -2.7830 H   0  0  0  0  0  0  0  0  0  0  0  0
   -1.1322    3.8425   -1.5848 C   0  0  0  0  0  0  0  0  0  0  0  0
   -0.5557    4.7780   -1.5333 H   0  0  0  0  0  0  0  0  0  0  0  0
   -2.3783    3.7479   -0.9490 C   0  0  0  0  0  0  0  0  0  0  0  0
   -2.7860    4.6110   -0.4022 H   0  0  0  0  0  0  0  0  0  0  0  0
   -3.1029    2.5457   -0.9939 C   0  0  0  0  0  0  0  0  0  0  0  0
   -4.0713    2.4722   -0.4748 H   0  0  0  0  0  0  0  0  0  0  0  0
  1  7  1  0  0  0  0
  2  7  2  0  0  0  0
  4 26  1  0  0  0  0
  5 39  1  0  0  0  0
  5 48  1  0  0  0  0
  6 49  1  0  0  0  0
  8  7  1  6  0  0  0
  8  4  1  0  0  0  0
  8  9  1  0  0  0  0
  9 11  1  0  0  0  0
  9 12  1  0  0  0  0
 10  9  1  0  0  0  0
 12 14  1  0  0  0  0
 12 18  1  0  0  0  0
 13 12  1  0  0  0  0
 14 16  1  0  0  0  0
 14 17  1  0  0  0  0
 15 14  1  0  0  0  0
 18 21  1  0  0  0  0
 18 20  1  0  0  0  0
 19 18  1  0  0  0  0
 22 25  1  0  0  0  0
 22  8  1  0  0  0  0
 23 22  1  0  0  0  0
 24 22  1  0  0  0  0
 26 38  2  0  0  0  0
 27 26  1  0  0  0  0
 27 36  1  0  0  0  0
 28 27  2  0  0  0  0
 29 28  1  0  0  0  0
 30 28  1  0  0  0  0
 30 32  2  0  0  0  0
 31 30  1  0  0  0  0
 32 34  1  0  0  0  0
 33 32  1  0  0  0  0
 34 36  2  0  0  0  0
 34 35  1  0  0  0  0
 36 37  1  0  0  0  0
 38 46  1  0  0  0  0
 38 39  1  0  0  0  0
 39 40  2  0  0  0  0
 40 42  1  0  0  0  0
 40 41  1  0  0  0  0
 42 43  1  0  0  0  0
 44 45  1  0  0  0  0
 44 42  2  0  0  0  0
 46 44  1  0  0  0  0
 47 46  1  0  0  0  0
 48  3  2  0  0  0  0
 49 50  1  6  0  0  0
 49 48  1  0  0  0  0
 49 51  1  0  0  0  0
 51 53  1  0  0  0  0
 51 52  1  0  0  0  0
 54 55  1  0  0  0  0
 54 56  1  0  0  0  0
 54 51  1  0  0  0  0
 57  6  1  0  0  0  0
 57 54  1  0  0  0  0
 58 57  1  0  0  0  0
 59 57  1  0  0  0  0
 60 61  1  0  0  0  0
 60  6  1  0  0  0  0
 62 60  1  0  0  0  0
 63 60  1  0  0  0  0
 63 72  1  0  0  0  0
 64 66  1  0  0  0  0
 64 63  2  0  0  0  0
 65 64  1  0  0  0  0
 66 68  2  0  0  0  0
 67 66  1  0  0  0  0
 68 69  1  0  0  0  0
 68 70  1  0  0  0  0
 70 71  1  0  0  0  0
 72 70  2  0  0  0  0
 72 73  1  0  0  0  0
M  CHG  1   1  -1
M  END
