1,15,23,32
 OpenBabel05122313063D

 80 84  0  0  1  0  0  0  0  0999 V2000
   -2.5024   -0.1183   -1.8700 N   0  0  0  0  0  0  0  0  0  0  0  0
   -2.6946   -1.3874   -2.6378 C   0  0  0  0  0  0  0  0  0  0  0  0
   -2.9908   -2.4054   -1.5516 C   0  0  0  0  0  0  0  0  0  0  0  0
   -3.9582   -1.6417   -0.6385 C   0  0  0  0  0  0  0  0  0  0  0  0
   -3.4909   -0.1660   -0.7391 C   0  0  1  0  0  0  0  0  0  0  0  0
   -2.6217    1.0730   -2.7681 C   0  0  0  0  0  0  0  0  0  0  0  0
   -2.1542    2.3610   -2.1335 C   0  0  0  0  0  0  0  0  0  0  0  0
   -3.0248    3.1578   -1.3689 C   0  0  0  0  0  0  0  0  0  0  0  0
   -2.5471    4.2888   -0.6874 C   0  0  0  0  0  0  0  0  0  0  0  0
   -1.1937    4.6443   -0.7781 C   0  0  0  0  0  0  0  0  0  0  0  0
   -0.3231    3.8741   -1.5664 C   0  0  0  0  0  0  0  0  0  0  0  0
   -0.7995    2.7415   -2.2405 C   0  0  0  0  0  0  0  0  0  0  0  0
   -2.9019    0.3875    0.5575 C   0  0  0  0  0  0  0  0  0  0  0  0
   -3.6166    0.4315    1.5632 O   0  0  0  0  0  0  0  0  0  0  0  0
   -1.5939    0.8151    0.4372 N   0  0  0  0  0  2  0  0  0  0  0  0
   -1.0146    1.7156    1.3148 C   0  0  2  0  0  3  0  0  0  0  0  0
   -1.7995    2.4626    2.2438 C   0  0  0  0  0  0  0  0  0  0  0  0
   -1.2536    3.4894    3.0075 C   0  0  0  0  0  0  0  0  0  0  0  0
    0.1131    3.8169    2.9068 C   0  0  0  0  0  0  0  0  0  0  0  0
    0.9153    3.0686    2.0545 C   0  0  0  0  0  0  0  0  0  0  0  0
    0.4002    2.0028    1.2611 C   0  0  0  0  0  0  0  0  0  0  0  0
    1.3469    1.2406    0.4629 C   0  0  0  0  0  0  0  0  0  0  0  0
    0.9774    0.3273   -0.4171 N   0  0  0  0  0  2  0  0  0  0  0  0
    2.8125    1.4950    0.6609 C   0  0  0  0  0  0  0  0  0  0  0  0
    3.5430    2.1835   -0.3290 C   0  0  0  0  0  0  0  0  0  0  0  0
    4.9221    2.3854   -0.1783 C   0  0  0  0  0  0  0  0  0  0  0  0
    5.5847    1.9013    0.9606 C   0  0  0  0  0  0  0  0  0  0  0  0
    4.8610    1.2291    1.9574 C   0  0  0  0  0  0  0  0  0  0  0  0
    3.4800    1.0333    1.8131 C   0  0  0  0  0  0  0  0  0  0  0  0
    1.9547   -0.5588   -1.0596 C   0  0  2  0  0  0  0  0  0  0  0  0
    1.3134   -1.1803   -2.3116 C   0  0  0  0  0  0  0  0  0  0  0  0
    0.0534   -0.8470   -2.4682 O   0  5  0  0  0  0  0  0  0  0  0  0
    1.9431   -1.9297   -3.0463 O   0  0  0  0  0  0  0  0  0  0  0  0
    2.4367   -1.6902   -0.0770 C   0  0  2  0  0  0  0  0  0  0  0  0
    3.9014   -2.1089   -0.3151 C   0  0  0  0  0  0  0  0  0  0  0  0
    4.6875   -1.0393   -0.5919 F   0  0  0  0  0  0  0  0  0  0  0  0
    4.0352   -2.9918   -1.3229 F   0  0  0  0  0  0  0  0  0  0  0  0
    4.3959   -2.6896    0.8031 F   0  0  0  0  0  0  0  0  0  0  0  0
    1.6348   -2.8770   -0.0393 N   0  0  0  0  0  0  0  0  0  0  0  0
    0.4217   -2.9664    0.6475 C   0  0  0  0  0  0  0  0  0  0  0  0
   -0.0275   -1.9866    1.5582 C   0  0  0  0  0  0  0  0  0  0  0  0
   -1.2561   -2.1146    2.2255 C   0  0  0  0  0  0  0  0  0  0  0  0
   -2.0760   -3.2342    1.9993 C   0  0  0  0  0  0  0  0  0  0  0  0
   -1.6202   -4.2394    1.1179 C   0  0  0  0  0  0  0  0  0  0  0  0
   -0.4001   -4.1064    0.4548 C   0  0  0  0  0  0  0  0  0  0  0  0
   -3.3128   -3.4186    2.5507 O   0  0  0  0  0  0  0  0  0  0  0  0
   -3.7760   -2.4410    3.4723 C   0  0  0  0  0  0  0  0  0  0  0  0
   -1.7863   -1.5881   -3.2333 H   0  0  0  0  0  0  0  0  0  0  0  0
   -3.5714   -1.2572   -3.3138 H   0  0  0  0  0  0  0  0  0  0  0  0
   -3.4173   -3.3456   -1.9501 H   0  0  0  0  0  0  0  0  0  0  0  0
   -2.0560   -2.6614   -1.0149 H   0  0  0  0  0  0  0  0  0  0  0  0
   -3.9566   -1.9986    0.4075 H   0  0  0  0  0  0  0  0  0  0  0  0
   -4.9962   -1.7291   -1.0166 H   0  0  0  0  0  0  0  0  0  0  0  0
   -4.3588    0.4898   -0.9700 H   0  0  0  0  0  0  0  0  0  0  0  0
   -3.6820    1.1541   -3.1000 H   0  0  0  0  0  0  0  0  0  0  0  0
   -2.0008    0.8442   -3.6561 H   0  0  0  0  0  0  0  0  0  0  0  0
   -4.0882    2.8823   -1.2886 H   0  0  0  0  0  0  0  0  0  0  0  0
   -3.2355    4.8902   -0.0755 H   0  0  0  0  0  0  0  0  0  0  0  0
   -0.8144    5.5192   -0.2299 H   0  0  0  0  0  0  0  0  0  0  0  0
    0.7378    4.1556   -1.6489 H   0  0  0  0  0  0  0  0  0  0  0  0
   -0.1167    2.1335   -2.8540 H   0  0  0  0  0  0  0  0  0  0  0  0
   -2.8609    2.2130    2.3348 H   0  0  0  0  0  0  0  0  0  0  0  0
   -1.9090    4.0515    3.6910 H   0  0  0  0  0  0  0  0  0  0  0  0
    0.5446    4.6366    3.4993 H   0  0  0  0  0  0  0  0  0  0  0  0
    1.9858    3.3014    1.9790 H   0  0  0  0  0  0  0  0  0  0  0  0
    3.0202    2.5575   -1.2231 H   0  0  0  0  0  0  0  0  0  0  0  0
    5.4838    2.9213   -0.9581 H   0  0  0  0  0  0  0  0  0  0  0  0
    6.6691    2.0503    1.0722 H   0  0  0  0  0  0  0  0  0  0  0  0
    5.3744    0.8519    2.8544 H   0  0  0  0  0  0  0  0  0  0  0  0
    2.9081    0.5188    2.6009 H   0  0  0  0  0  0  0  0  0  0  0  0
    2.8495    0.0094   -1.3765 H   0  0  0  0  0  0  0  0  0  0  0  0
    2.4597   -1.2438    0.9357 H   0  0  0  0  0  0  0  0  0  0  0  0
    1.7135   -3.4531   -0.8813 H   0  0  0  0  0  0  0  0  0  0  0  0
    0.5646   -1.0829    1.7475 H   0  0  0  0  0  0  0  0  0  0  0  0
   -1.5803   -1.3008    2.8869 H   0  0  0  0  0  0  0  0  0  0  0  0
   -2.2587   -5.1193    0.9525 H   0  0  0  0  0  0  0  0  0  0  0  0
   -0.0674   -4.8961   -0.2369 H   0  0  0  0  0  0  0  0  0  0  0  0
   -4.7734   -2.7813    3.8080 H   0  0  0  0  0  0  0  0  0  0  0  0
   -3.8675   -1.4381    3.0003 H   0  0  0  0  0  0  0  0  0  0  0  0
   -3.1043   -2.3667    4.3575 H   0  0  0  0  0  0  0  0  0  0  0  0
  1  5  1  0  0  0  0
  2  1  1  0  0  0  0
  2  3  1  0  0  0  0
  3 51  1  0  0  0  0
  3  4  1  0  0  0  0
  4 52  1  0  0  0  0
  5 54  1  6  0  0  0
  5  4  1  0  0  0  0
  5 13  1  0  0  0  0
  6  7  1  0  0  0  0
  6  1  1  0  0  0  0
  7  8  1  0  0  0  0
  8 57  1  0  0  0  0
  8  9  2  0  0  0  0
  9 58  1  0  0  0  0
 10  9  1  0  0  0  0
 10 59  1  0  0  0  0
 11 10  2  0  0  0  0
 12  7  2  0  0  0  0
 12 11  1  0  0  0  0
 13 14  2  0  0  0  0
 15 13  1  0  0  0  0
 16 15  1  6  0  0  0
 16 17  1  0  0  0  0
 17 62  1  0  0  0  0
 17 18  2  0  0  0  0
 18 63  1  0  0  0  0
 19 18  1  0  0  0  0
 19 64  1  0  0  0  0
 20 19  2  0  0  0  0
 21 16  1  0  0  0  0
 21 20  1  0  0  0  0
 22 24  1  0  0  0  0
 22 21  2  0  0  0  0
 23 22  1  0  0  0  0
 24 29  1  0  0  0  0
 25 26  1  0  0  0  0
 25 24  2  0  0  0  0
 26 27  2  0  0  0  0
 27 68  1  0  0  0  0
 27 28  1  0  0  0  0
 28 69  1  0  0  0  0
 29 28  2  0  0  0  0
 29 70  1  0  0  0  0
 30 71  1  6  0  0  0
 30 23  1  0  0  0  0
 30 34  1  0  0  0  0
 31 30  1  0  0  0  0
 32 31  1  0  0  0  0
 33 31  2  0  0  0  0
 34 39  1  0  0  0  0
 34 72  1  1  0  0  0
 35 34  1  0  0  0  0
 35 38  1  0  0  0  0
 36 35  1  0  0  0  0
 37 35  1  0  0  0  0
 39 40  1  0  0  0  0
 40 41  1  0  0  0  0
 41 74  1  0  0  0  0
 41 42  2  0  0  0  0
 42 75  1  0  0  0  0
 43 42  1  0  0  0  0
 43 46  1  0  0  0  0
 44 43  2  0  0  0  0
 45 40  2  0  0  0  0
 45 44  1  0  0  0  0
 46 47  1  0  0  0  0
 47 78  1  0  0  0  0
 47 80  1  0  0  0  0
 48  2  1  0  0  0  0
 49  2  1  0  0  0  0
 50  3  1  0  0  0  0
 53  4  1  0  0  0  0
 55  6  1  0  0  0  0
 56  6  1  0  0  0  0
 60 11  1  0  0  0  0
 61 12  1  0  0  0  0
 65 20  1  0  0  0  0
 66 25  1  0  0  0  0
 67 26  1  0  0  0  0
 73 39  1  0  0  0  0
 76 44  1  0  0  0  0
 77 45  1  0  0  0  0
 79 47  1  0  0  0  0
M  CHG  1  32  -1
M  END
