4,8,9,10
 OpenBabel05122313063D

 71 74  0  0  1  0  0  0  0  0999 V2000
   -5.1851    3.9228    0.5885 Cl  0  0  0  0  0  0  0  0  0  0  0  0
   -3.2794   -0.8734    2.1931 Cl  0  0  0  0  0  0  0  0  0  0  0  0
    1.5305    3.2818    1.2363 O   0  0  0  0  0  0  0  0  0  0  0  0
    1.2944   -1.4617   -1.7953 O   0  5  0  0  0  0  0  0  0  0  0  0
    0.6439   -3.5808   -2.1847 O   0  0  0  0  0  0  0  0  0  0  0  0
   -1.0334   -4.3231   -0.1717 O   0  0  0  0  0  0  0  0  0  0  0  0
   -0.3730   -4.4294   -0.9053 H   0  0  0  0  0  0  0  0  0  0  0  0
    0.3417    1.6971   -0.0433 N   0  0  0  0  0  2  0  0  0  0  0  0
    2.6654    0.5927   -0.8030 N   0  0  0  0  0  0  0  0  0  0  0  0
   -0.9199   -0.6454   -0.8135 N   0  0  0  0  0  2  0  0  0  0  0  0
   -3.5784    3.2542    0.4474 C   0  0  0  0  0  0  0  0  0  0  0  0
   -3.4012    1.9467    0.0183 C   0  0  0  0  0  3  0  0  0  0  0  0
   -4.2852    1.3456   -0.2270 H   0  0  0  0  0  0  0  0  0  0  0  0
   -2.1053    1.3721   -0.1134 C   0  0  0  0  0  0  0  0  0  0  0  0
   -0.9436    2.1733    0.1838 C   0  0  0  0  0  0  0  0  0  0  0  0
   -1.1781    3.5013    0.6549 C   0  0  0  0  0  0  0  0  0  0  0  0
   -0.3132    4.1087    0.9384 H   0  0  0  0  0  0  0  0  0  0  0  0
   -2.4548    4.0363    0.7779 C   0  0  0  0  0  0  0  0  0  0  0  0
   -2.5897    5.0684    1.1316 H   0  0  0  0  0  0  0  0  0  0  0  0
    1.4711    2.3981    0.3839 C   0  0  0  0  0  0  0  0  0  0  0  0
    2.7033    2.0318   -0.4325 C   0  0  2  0  0  0  0  0  0  0  0  0
    3.6045    2.2556    0.1701 H   0  0  0  0  0  0  0  0  0  0  0  0
    2.7507    2.8014   -1.7860 C   0  0  0  0  0  0  0  0  0  0  0  0
    1.8934    3.4936   -1.8917 H   0  0  0  0  0  0  0  0  0  0  0  0
    3.6738    3.4109   -1.8284 H   0  0  0  0  0  0  0  0  0  0  0  0
    2.7557    1.7031   -2.8686 C   0  0  0  0  0  0  0  0  0  0  0  0
    3.3539    1.9780   -3.7584 H   0  0  0  0  0  0  0  0  0  0  0  0
    1.7242    1.4785   -3.2093 H   0  0  0  0  0  0  0  0  0  0  0  0
    3.3251    0.4959   -2.1352 C   0  0  0  0  0  0  0  0  0  0  0  0
    4.4247    0.5972   -2.0008 H   0  0  0  0  0  0  0  0  0  0  0  0
    3.0925   -0.4854   -2.5861 H   0  0  0  0  0  0  0  0  0  0  0  0
    3.2082   -0.3323    0.2483 C   0  0  0  0  0  0  0  0  0  0  0  0
    2.5784   -0.1926    1.1494 H   0  0  0  0  0  0  0  0  0  0  0  0
    3.0272   -1.3551   -0.1326 H   0  0  0  0  0  0  0  0  0  0  0  0
    4.6650   -0.1329    0.5982 C   0  0  0  0  0  0  0  0  0  0  0  0
    5.0423    0.7471    1.6343 C   0  0  0  0  0  0  0  0  0  0  0  0
    4.2637    1.2717    2.2114 H   0  0  0  0  0  0  0  0  0  0  0  0
    6.3954    0.9487    1.9454 C   0  0  0  0  0  0  0  0  0  0  0  0
    6.6729    1.6365    2.7584 H   0  0  0  0  0  0  0  0  0  0  0  0
    7.3907    0.2676    1.2271 C   0  0  0  0  0  0  0  0  0  0  0  0
    8.4523    0.4227    1.4725 H   0  0  0  0  0  0  0  0  0  0  0  0
    7.0273   -0.6227    0.2041 C   0  0  0  0  0  0  0  0  0  0  0  0
    7.8028   -1.1717   -0.3513 H   0  0  0  0  0  0  0  0  0  0  0  0
    5.6739   -0.8224   -0.1056 C   0  0  0  0  0  0  0  0  0  0  0  0
    5.3905   -1.5347   -0.8966 H   0  0  0  0  0  0  0  0  0  0  0  0
   -2.0424   -0.0302   -0.4980 C   0  0  0  0  0  0  0  0  0  0  0  0
   -3.3331   -0.7960   -0.5429 C   0  0  0  0  0  0  0  0  0  0  0  0
   -3.9888   -1.2183    0.6345 C   0  0  0  0  0  0  0  0  0  0  0  0
   -5.2041   -1.9173    0.5799 C   0  0  0  0  0  0  0  0  0  0  0  0
   -5.6816   -2.2367    1.5166 H   0  0  0  0  0  0  0  0  0  0  0  0
   -5.7843   -2.1970   -0.6647 C   0  0  0  0  0  0  0  0  0  0  0  0
   -6.7366   -2.7463   -0.7063 H   0  0  0  0  0  0  0  0  0  0  0  0
   -5.1560   -1.7780   -1.8478 C   0  0  0  0  0  0  0  0  0  0  0  0
   -5.6131   -1.9911   -2.8250 H   0  0  0  0  0  0  0  0  0  0  0  0
   -3.9413   -1.0828   -1.7824 C   0  0  0  0  0  0  0  0  0  0  0  0
   -3.4463   -0.7407   -2.7040 H   0  0  0  0  0  0  0  0  0  0  0  0
   -0.8885   -2.0889   -1.0785 C   0  0  1  0  0  0  0  0  0  0  0  0
   -1.7432   -2.4099   -1.7055 H   0  0  0  0  0  0  0  0  0  0  0  0
    0.4239   -2.4359   -1.7779 C   0  0  0  0  0  0  0  0  0  0  0  0
   -0.9567   -2.9745    0.2160 C   0  0  2  0  0  0  0  0  0  0  0  0
   -1.9104   -2.7329    0.7294 H   0  0  0  0  0  0  0  0  0  0  0  0
    0.1941   -2.6832    1.1892 C   0  0  0  0  0  0  0  0  0  0  0  0
    0.2374   -1.5872    1.3805 H   0  0  0  0  0  0  0  0  0  0  0  0
    1.1563   -2.9627    0.7038 H   0  0  0  0  0  0  0  0  0  0  0  0
    0.0512   -3.4380    2.5113 C   0  0  0  0  0  0  0  0  0  0  0  0
   -0.8962   -3.1240    3.0028 H   0  0  0  0  0  0  0  0  0  0  0  0
   -0.0662   -4.5180    2.2814 H   0  0  0  0  0  0  0  0  0  0  0  0
    1.2296   -3.2145    3.4582 C   0  0  0  0  0  0  0  0  0  0  0  0
    2.1837   -3.5516    3.0007 H   0  0  0  0  0  0  0  0  0  0  0  0
    1.1038   -3.7668    4.4112 H   0  0  0  0  0  0  0  0  0  0  0  0
    1.3483   -2.1388    3.7095 H   0  0  0  0  0  0  0  0  0  0  0  0
  4 59  1  0  0  0  0
  5 59  2  0  0  0  0
  6 60  1  0  0  0  0
  7  6  1  0  0  0  0
  8 15  1  0  0  0  0
  8 20  1  0  0  0  0
  9 21  1  0  0  0  0
  9 32  1  0  0  0  0
 10 46  1  0  0  0  0
 11  1  1  0  0  0  0
 11 18  2  0  0  0  0
 12 11  1  0  0  0  0
 13 12  1  0  0  0  0
 14 12  1  0  0  0  0
 14 15  1  0  0  0  0
 15 16  2  0  0  0  0
 16 18  1  0  0  0  0
 16 17  1  0  0  0  0
 18 19  1  0  0  0  0
 20  3  2  0  0  0  0
 21 22  1  1  0  0  0
 21 20  1  0  0  0  0
 23 21  1  0  0  0  0
 24 23  1  0  0  0  0
 25 23  1  0  0  0  0
 26 29  1  0  0  0  0
 26 23  1  0  0  0  0
 27 26  1  0  0  0  0
 28 26  1  0  0  0  0
 29 30  1  0  0  0  0
 29  9  1  0  0  0  0
 31 29  1  0  0  0  0
 32 35  1  0  0  0  0
 32 33  1  0  0  0  0
 34 32  1  0  0  0  0
 35 36  1  0  0  0  0
 36 38  2  0  0  0  0
 36 37  1  0  0  0  0
 38 39  1  0  0  0  0
 40 41  1  0  0  0  0
 40 38  1  0  0  0  0
 42 40  2  0  0  0  0
 43 42  1  0  0  0  0
 44 42  1  0  0  0  0
 44 35  2  0  0  0  0
 45 44  1  0  0  0  0
 46 14  2  0  0  0  0
 47 46  1  0  0  0  0
 47 48  1  0  0  0  0
 48  2  1  0  0  0  0
 49 48  2  0  0  0  0
 49 50  1  0  0  0  0
 51 49  1  0  0  0  0
 52 51  1  0  0  0  0
 53 55  1  0  0  0  0
 53 51  2  0  0  0  0
 54 53  1  0  0  0  0
 55 47  2  0  0  0  0
 56 55  1  0  0  0  0
 57 58  1  6  0  0  0
 57 10  1  0  0  0  0
 57 60  1  0  0  0  0
 59 57  1  0  0  0  0
 60 61  1  1  0  0  0
 60 62  1  0  0  0  0
 62 63  1  0  0  0  0
 62 65  1  0  0  0  0
 64 62  1  0  0  0  0
 65 66  1  0  0  0  0
 65 68  1  0  0  0  0
 67 65  1  0  0  0  0
 68 71  1  0  0  0  0
 68 70  1  0  0  0  0
 69 68  1  0  0  0  0
M  CHG  1   4  -1
M  END
