3,7,8,9
 OpenBabel05122313063D

 59 62  0  0  1  0  0  0  0  0999 V2000
   -1.4686    0.5853   -1.5088 S   0  0  0  0  0  0  0  0  0  0  0  0
    1.8586   -2.6498    0.4292 S   0  0  0  0  0  0  0  0  0  0  0  0
   -0.5698   -0.6605   -1.5543 O   0  0  0  0  0  1  0  0  0  0  0  0
   -2.3544    0.8326   -2.6576 O   0  0  0  0  0  1  0  0  0  0  0  0
    2.6869   -3.6306   -0.3145 O   0  0  0  0  0  0  0  0  0  0  0  0
    1.9518   -2.5896    1.9084 O   0  0  0  0  0  0  0  0  0  0  0  0
   -0.2220    1.6356   -1.2217 N   0  0  0  0  0  2  0  0  0  0  0  0
    2.1779    1.4746    0.0266 N   0  0  0  0  0  2  0  0  0  0  0  0
    2.1730   -1.0787   -0.2189 N   0  0  0  0  0  2  0  0  0  0  0  0
   -2.4665    0.5101   -0.0278 C   0  0  0  0  0  0  0  0  0  0  0  0
   -1.8513    0.5795    1.2328 C   0  0  0  0  0  0  0  0  0  0  0  0
   -0.7619    0.7281    1.3089 H   0  0  0  0  0  0  0  0  0  0  0  0
   -2.6425    0.4464    2.3763 C   0  0  0  0  0  0  0  0  0  0  0  0
   -2.1671    0.5001    3.3680 H   0  0  0  0  0  0  0  0  0  0  0  0
   -4.0378    0.2377    2.2825 C   0  0  0  0  0  0  0  0  0  0  0  0
   -4.6221    0.1785    1.0002 C   0  0  0  0  0  0  0  0  0  0  0  0
   -5.7076    0.0197    0.9077 H   0  0  0  0  0  0  0  0  0  0  0  0
   -3.8477    0.3188   -0.1596 C   0  0  0  0  0  0  0  0  0  0  0  0
   -4.2982    0.2797   -1.1617 H   0  0  0  0  0  0  0  0  0  0  0  0
   -4.8726    0.1033    3.5285 C   0  0  0  0  0  0  0  0  0  0  0  0
   -4.4288   -0.6287    4.2335 H   0  0  0  0  0  0  0  0  0  0  0  0
   -5.9060   -0.2187    3.2987 H   0  0  0  0  0  0  0  0  0  0  0  0
   -4.9329    1.0716    4.0690 H   0  0  0  0  0  0  0  0  0  0  0  0
   -0.3596    2.9283   -0.7599 C   0  0  2  0  0  3  0  0  0  0  0  0
   -1.5052    3.7204   -1.0175 C   0  0  0  0  0  0  0  0  0  0  0  0
   -2.3270    3.2894   -1.6071 H   0  0  0  0  0  0  0  0  0  0  0  0
   -1.5743    5.0340   -0.5530 C   0  0  0  0  0  0  0  0  0  0  0  0
   -2.4729    5.6331   -0.7642 H   0  0  0  0  0  0  0  0  0  0  0  0
   -0.5003    5.6008    0.1689 C   0  0  0  0  0  0  0  0  0  0  0  0
   -0.5584    6.6393    0.5250 H   0  0  0  0  0  0  0  0  0  0  0  0
    0.6338    4.8357    0.4219 C   0  0  0  0  0  0  0  0  0  0  0  0
    1.4785    5.2673    0.9814 H   0  0  0  0  0  0  0  0  0  0  0  0
    0.7368    3.4863   -0.0196 C   0  0  0  0  0  0  0  0  0  0  0  0
    1.9294    2.7485    0.2884 C   0  0  0  0  0  0  0  0  0  0  0  0
    2.7240    3.3132    0.8073 H   0  0  0  0  0  0  0  0  0  0  0  0
    3.4319    0.8768    0.2397 C   0  0  0  0  0  0  0  0  0  0  0  0
    4.6362    1.5655    0.5002 C   0  0  0  0  0  0  0  0  0  0  0  0
    4.6692    2.6641    0.4692 H   0  0  0  0  0  0  0  0  0  0  0  0
    5.7922    0.8385    0.7845 C   0  0  0  0  0  0  0  0  0  0  0  0
    6.7362    1.3650    0.9867 H   0  0  0  0  0  0  0  0  0  0  0  0
    5.7477   -0.5747    0.7956 C   0  0  0  0  0  0  0  0  0  0  0  0
    6.6626   -1.1449    1.0174 H   0  0  0  0  0  0  0  0  0  0  0  0
    4.5760   -1.2689    0.4971 C   0  0  0  0  0  0  0  0  0  0  0  0
    4.5623   -2.3658    0.4686 H   0  0  0  0  0  0  0  0  0  0  0  0
    3.3928   -0.5485    0.1793 C   0  0  0  0  0  0  0  0  0  0  0  0
    0.1491   -2.9275   -0.0022 C   0  0  0  0  0  0  0  0  0  0  0  0
   -0.8429   -2.5890    0.9254 C   0  0  0  0  0  0  0  0  0  0  0  0
   -0.5513   -2.1732    1.9001 H   0  0  0  0  0  0  0  0  0  0  0  0
   -2.1843   -2.7924    0.5814 C   0  0  0  0  0  0  0  0  0  0  0  0
   -2.9756   -2.5113    1.2939 H   0  0  0  0  0  0  0  0  0  0  0  0
   -2.5403   -3.3347   -0.6705 C   0  0  0  0  0  0  0  0  0  0  0  0
   -1.5113   -3.7115   -1.5604 C   0  0  0  0  0  0  0  0  0  0  0  0
   -1.7735   -4.1562   -2.5332 H   0  0  0  0  0  0  0  0  0  0  0  0
   -0.1656   -3.5105   -1.2370 C   0  0  0  0  0  0  0  0  0  0  0  0
    0.6444   -3.7907   -1.9249 H   0  0  0  0  0  0  0  0  0  0  0  0
   -3.9868   -3.4765   -1.0674 C   0  0  0  0  0  0  0  0  0  0  0  0
   -4.6610   -3.4183   -0.1911 H   0  0  0  0  0  0  0  0  0  0  0  0
   -4.1772   -4.4333   -1.5936 H   0  0  0  0  0  0  0  0  0  0  0  0
   -4.2779   -2.6618   -1.7656 H   0  0  0  0  0  0  0  0  0  0  0  0
  1  7  1  0  0  0  0
  1 10  1  0  0  0  0
  2  6  2  0  0  0  0
  3  1  1  0  0  0  0
  4  1  1  0  0  0  0
  5  2  2  0  0  0  0
  8 36  1  0  0  0  0
  8 34  1  0  0  0  0
  9 45  1  0  0  0  0
  9  2  1  0  0  0  0
 10 11  1  0  0  0  0
 11 12  1  0  0  0  0
 11 13  2  0  0  0  0
 13 14  1  0  0  0  0
 15 13  1  0  0  0  0
 15 20  1  0  0  0  0
 16 15  2  0  0  0  0
 17 16  1  0  0  0  0
 18 10  2  0  0  0  0
 18 16  1  0  0  0  0
 19 18  1  0  0  0  0
 20 23  1  0  0  0  0
 20 21  1  0  0  0  0
 22 20  1  0  0  0  0
 24  7  1  6  0  0  0
 24 33  1  0  0  0  0
 25 24  1  0  0  0  0
 25 27  2  0  0  0  0
 26 25  1  0  0  0  0
 27 29  1  0  0  0  0
 28 27  1  0  0  0  0
 29 31  2  0  0  0  0
 29 30  1  0  0  0  0
 31 32  1  0  0  0  0
 33 34  2  0  0  0  0
 33 31  1  0  0  0  0
 34 35  1  0  0  0  0
 36 37  1  0  0  0  0
 37 39  2  0  0  0  0
 38 37  1  0  0  0  0
 39 41  1  0  0  0  0
 39 40  1  0  0  0  0
 41 42  1  0  0  0  0
 43 41  2  0  0  0  0
 44 43  1  0  0  0  0
 45 36  2  0  0  0  0
 45 43  1  0  0  0  0
 46  2  1  0  0  0  0
 46 47  1  0  0  0  0
 47 48  1  0  0  0  0
 49 47  2  0  0  0  0
 49 50  1  0  0  0  0
 51 49  1  0  0  0  0
 52 54  1  0  0  0  0
 52 51  2  0  0  0  0
 53 52  1  0  0  0  0
 54 46  2  0  0  0  0
 55 54  1  0  0  0  0
 56 51  1  0  0  0  0
 56 57  1  0  0  0  0
 58 56  1  0  0  0  0
 59 56  1  0  0  0  0
M  END
