4,7,9,10
 OpenBabel05122313063D

 58 61  0  0  1  0  0  0  0  0999 V2000
   -2.4177   -1.2306    0.9479 S   0  0  0  0  0  0  0  0  0  0  0  0
    2.4614   -1.5088   -1.3284 S   0  0  0  0  0  0  0  0  0  0  0  0
   -2.8581   -1.6374    2.2968 O   0  0  0  0  0  1  0  0  0  0  0  0
   -1.2723   -1.9759    0.2911 O   0  0  0  0  0  1  0  0  0  0  0  0
    1.6011   -2.5035   -0.6419 O   0  0  0  0  0  0  0  0  0  0  0  0
    2.9689   -1.7853   -2.6921 O   0  0  0  0  0  0  0  0  0  0  0  0
   -1.7949    0.3103    0.8258 N   0  0  0  0  0  2  0  0  0  0  0  0
   -0.5047    2.8747    0.1356 N   0  0  0  0  0  0  0  0  0  0  0  0
    0.1897    1.9445   -0.3824 N   0  0  0  0  0  2  0  0  0  0  0  0
    1.5512   -0.0936   -1.2907 N   0  0  0  0  0  2  0  0  0  0  0  0
   -2.3082    1.4915    1.2614 C   0  0  1  0  0  3  0  0  0  0  0  0
   -3.4749    1.5752    2.0708 C   0  0  0  0  0  0  0  0  0  0  0  0
   -3.9553    0.6409    2.3907 H   0  0  0  0  0  0  0  0  0  0  0  0
   -3.9804    2.8032    2.4835 C   0  0  0  0  0  0  0  0  0  0  0  0
   -4.8838    2.8258    3.1118 H   0  0  0  0  0  0  0  0  0  0  0  0
   -3.3425    4.0125    2.1181 C   0  0  0  0  0  0  0  0  0  0  0  0
   -3.7472    4.9786    2.4518 H   0  0  0  0  0  0  0  0  0  0  0  0
   -2.1943    3.9641    1.3433 C   0  0  0  0  0  0  0  0  0  0  0  0
   -1.6615    4.8780    1.0452 H   0  0  0  0  0  0  0  0  0  0  0  0
   -1.6388    2.7293    0.8902 C   0  0  0  0  0  0  0  0  0  0  0  0
    1.3261    2.2645   -1.1544 C   0  0  0  0  0  0  0  0  0  0  0  0
    1.7271    3.5875   -1.4381 C   0  0  0  0  0  0  0  0  0  0  0  0
    1.1195    4.4157   -1.0508 H   0  0  0  0  0  0  0  0  0  0  0  0
    2.8813    3.8001   -2.1885 C   0  0  0  0  0  0  0  0  0  0  0  0
    3.2080    4.8256   -2.4140 H   0  0  0  0  0  0  0  0  0  0  0  0
    3.6287    2.6957   -2.6633 C   0  0  0  0  0  0  0  0  0  0  0  0
    4.5338    2.8708   -3.2647 H   0  0  0  0  0  0  0  0  0  0  0  0
    3.2373    1.3837   -2.3993 C   0  0  0  0  0  0  0  0  0  0  0  0
    3.8010    0.5310   -2.7984 H   0  0  0  0  0  0  0  0  0  0  0  0
    2.0672    1.1384   -1.6323 C   0  0  0  0  0  0  0  0  0  0  0  0
    3.8840   -1.1514   -0.2853 C   0  0  0  0  0  0  0  0  0  0  0  0
    3.6935   -0.5855    0.9863 C   0  0  0  0  0  0  0  0  0  0  0  0
    2.6878   -0.3168    1.3417 H   0  0  0  0  0  0  0  0  0  0  0  0
    4.8099   -0.3546    1.7959 C   0  0  0  0  0  0  0  0  0  0  0  0
    4.6624    0.0933    2.7912 H   0  0  0  0  0  0  0  0  0  0  0  0
    6.1141   -0.6830    1.3616 C   0  0  0  0  0  0  0  0  0  0  0  0
    6.2687   -1.2505    0.0810 C   0  0  0  0  0  0  0  0  0  0  0  0
    7.2773   -1.5114   -0.2763 H   0  0  0  0  0  0  0  0  0  0  0  0
    5.1627   -1.4859   -0.7487 C   0  0  0  0  0  0  0  0  0  0  0  0
    5.2756   -1.9214   -1.7520 H   0  0  0  0  0  0  0  0  0  0  0  0
    7.3026   -0.4180    2.2494 C   0  0  0  0  0  0  0  0  0  0  0  0
    8.2440   -0.7822    1.7954 H   0  0  0  0  0  0  0  0  0  0  0  0
    7.1840   -0.9105    3.2366 H   0  0  0  0  0  0  0  0  0  0  0  0
    7.4181    0.6684    2.4471 H   0  0  0  0  0  0  0  0  0  0  0  0
   -3.8193   -1.2839   -0.1558 C   0  0  0  0  0  0  0  0  0  0  0  0
   -3.6181   -1.0749   -1.5322 C   0  0  0  0  0  0  0  0  0  0  0  0
   -2.6053   -0.8997   -1.9257 H   0  0  0  0  0  0  0  0  0  0  0  0
   -4.7261   -1.0993   -2.3822 C   0  0  0  0  0  0  0  0  0  0  0  0
   -4.5788   -0.9389   -3.4616 H   0  0  0  0  0  0  0  0  0  0  0  0
   -6.0303   -1.3303   -1.8852 C   0  0  0  0  0  0  0  0  0  0  0  0
   -6.1925   -1.5442   -0.5020 C   0  0  0  0  0  0  0  0  0  0  0  0
   -7.1991   -1.7340   -0.0985 H   0  0  0  0  0  0  0  0  0  0  0  0
   -5.0953   -1.5240    0.3706 C   0  0  0  0  0  0  0  0  0  0  0  0
   -5.2138   -1.7038    1.4487 H   0  0  0  0  0  0  0  0  0  0  0  0
   -7.2083   -1.3456   -2.8231 C   0  0  0  0  0  0  0  0  0  0  0  0
   -8.1535   -1.5689   -2.2930 H   0  0  0  0  0  0  0  0  0  0  0  0
   -7.0735   -2.1052   -3.6208 H   0  0  0  0  0  0  0  0  0  0  0  0
   -7.3242   -0.3659   -3.3318 H   0  0  0  0  0  0  0  0  0  0  0  0
  1  3  1  0  0  0  0
  2 10  1  0  0  0  0
  2  5  2  0  0  0  0
  2 31  1  0  0  0  0
  4  1  1  0  0  0  0
  6  2  2  0  0  0  0
  7  1  1  0  0  0  0
  8 20  2  0  0  0  0
  9  8  1  0  0  0  0
 11  7  1  1  0  0  0
 11 12  1  0  0  0  0
 12 13  1  0  0  0  0
 12 14  2  0  0  0  0
 14 15  1  0  0  0  0
 16 17  1  0  0  0  0
 16 14  1  0  0  0  0
 18 16  2  0  0  0  0
 19 18  1  0  0  0  0
 20 11  1  0  0  0  0
 20 18  1  0  0  0  0
 21  9  1  0  0  0  0
 22 21  1  0  0  0  0
 22 23  1  0  0  0  0
 24 22  2  0  0  0  0
 25 24  1  0  0  0  0
 26 28  2  0  0  0  0
 26 24  1  0  0  0  0
 27 26  1  0  0  0  0
 28 30  1  0  0  0  0
 29 28  1  0  0  0  0
 30 10  1  0  0  0  0
 30 21  2  0  0  0  0
 31 32  1  0  0  0  0
 32 33  1  0  0  0  0
 32 34  2  0  0  0  0
 34 35  1  0  0  0  0
 36 34  1  0  0  0  0
 36 41  1  0  0  0  0
 37 36  2  0  0  0  0
 38 37  1  0  0  0  0
 39 31  2  0  0  0  0
 39 37  1  0  0  0  0
 40 39  1  0  0  0  0
 41 44  1  0  0  0  0
 41 43  1  0  0  0  0
 42 41  1  0  0  0  0
 45 53  1  0  0  0  0
 45  1  1  0  0  0  0
 46 45  2  0  0  0  0
 47 46  1  0  0  0  0
 48 50  2  0  0  0  0
 48 46  1  0  0  0  0
 49 48  1  0  0  0  0
 50 51  1  0  0  0  0
 51 52  1  0  0  0  0
 51 53  2  0  0  0  0
 53 54  1  0  0  0  0
 55 56  1  0  0  0  0
 55 50  1  0  0  0  0
 57 55  1  0  0  0  0
 58 55  1  0  0  0  0
M  END
