3,4,6,9
 OpenBabel05122313063D

 46 49  0  0  1  0  0  0  0  0999 V2000
    3.5305    5.3881   -0.2626 Cl  0  0  0  0  0  0  0  0  0  0  0  0
    0.7455   -4.0462   -0.3133 O   0  0  0  0  0  0  0  0  0  0  0  0
   -0.8446    1.4329    0.1133 O   0  5  0  0  0  0  0  0  0  0  0  0
    1.1015   -0.5462   -0.0871 N   0  0  0  0  0  2  0  0  0  0  0  0
    1.5544   -1.8490   -0.1491 N   0  0  0  0  0  0  0  0  0  0  0  0
   -0.6854   -2.2312   -0.1080 N   0  0  0  0  0  2  0  0  0  0  0  0
   -4.3361   -2.0772   -0.0779 N   0  0  0  0  0  0  0  0  0  0  0  0
   -4.8476   -2.9570   -0.1360 H   0  0  0  0  0  0  0  0  0  0  0  0
   -2.6164   -0.6623    0.0043 N   0  0  0  0  0  2  0  0  0  0  0  0
    0.5151   -2.8420   -0.2042 C   0  0  0  0  0  0  0  0  0  0  0  0
   -1.9118   -2.9891   -0.1833 C   0  0  0  0  0  0  0  0  0  0  0  0
   -2.0060   -3.7386    0.6397 H   0  0  0  0  0  0  0  0  0  0  0  0
   -2.0042   -3.5704   -1.1335 H   0  0  0  0  0  0  0  0  0  0  0  0
   -2.9772   -1.9472   -0.0872 C   0  0  2  0  0  3  0  0  0  0  0  0
   -4.8925   -0.8037    0.0256 C   0  0  0  0  0  0  0  0  0  0  0  0
   -6.2184   -0.3501    0.0792 C   0  0  0  0  0  0  0  0  0  0  0  0
   -7.0713   -1.0431    0.0393 H   0  0  0  0  0  0  0  0  0  0  0  0
   -6.4049    1.0345    0.1869 C   0  0  0  0  0  0  0  0  0  0  0  0
   -7.4290    1.4338    0.2320 H   0  0  0  0  0  0  0  0  0  0  0  0
   -5.3092    1.9301    0.2393 C   0  0  0  0  0  0  0  0  0  0  0  0
   -5.5063    3.0091    0.3242 H   0  0  0  0  0  0  0  0  0  0  0  0
   -3.9860    1.4781    0.1859 C   0  0  0  0  0  0  0  0  0  0  0  0
   -3.1142    2.1434    0.2246 H   0  0  0  0  0  0  0  0  0  0  0  0
   -3.7847    0.0915    0.0773 C   0  0  0  0  0  0  0  0  0  0  0  0
    2.9132   -2.2150    0.0414 C   0  0  0  0  0  0  0  0  0  0  0  0
    3.6437   -1.7325    1.1485 C   0  0  0  0  0  0  0  0  0  0  0  0
    3.1638   -1.0489    1.8640 H   0  0  0  0  0  0  0  0  0  0  0  0
    4.9728   -2.1326    1.3338 C   0  0  0  0  0  0  0  0  0  0  0  0
    5.5390   -1.7489    2.1959 H   0  0  0  0  0  0  0  0  0  0  0  0
    5.5734   -3.0350    0.4394 C   0  0  0  0  0  0  0  0  0  0  0  0
    6.6156   -3.3527    0.5926 H   0  0  0  0  0  0  0  0  0  0  0  0
    4.8356   -3.5328   -0.6454 C   0  0  0  0  0  0  0  0  0  0  0  0
    5.2964   -4.2463   -1.3451 H   0  0  0  0  0  0  0  0  0  0  0  0
    3.5121   -3.1200   -0.8554 C   0  0  0  0  0  0  0  0  0  0  0  0
    2.9239   -3.5060   -1.6977 H   0  0  0  0  0  0  0  0  0  0  0  0
    1.9296    0.4752   -0.1915 C   0  0  0  0  0  0  0  0  0  0  0  0
    3.0027    0.2583   -0.3255 H   0  0  0  0  0  0  0  0  0  0  0  0
    1.5379    1.8524   -0.1260 C   0  0  0  0  0  0  0  0  0  0  0  0
    2.5615    2.8375   -0.2187 C   0  0  0  0  0  3  0  0  0  0  0  0
    3.6068    2.5188   -0.3446 H   0  0  0  0  0  0  0  0  0  0  0  0
    2.2580    4.1914   -0.1476 C   0  0  0  0  0  0  0  0  0  0  0  0
    0.9177    4.6114    0.0210 C   0  0  0  0  0  0  0  0  0  0  0  0
    0.6907    5.6856    0.0780 H   0  0  0  0  0  0  0  0  0  0  0  0
   -0.0975    3.6660    0.1109 C   0  0  0  0  0  0  0  0  0  0  0  0
   -1.1429    3.9827    0.2398 H   0  0  0  0  0  0  0  0  0  0  0  0
    0.1626    2.2640    0.0363 C   0  0  0  0  0  0  0  0  0  0  0  0
  1 41  1  0  0  0  0
  2 10  2  0  0  0  0
  5  4  1  0  0  0  0
  5 25  1  0  0  0  0
  7 15  1  0  0  0  0
  8  7  1  0  0  0  0
  9 24  1  0  0  0  0
 10  5  1  0  0  0  0
 10  6  1  0  0  0  0
 11  6  1  0  0  0  0
 11 12  1  0  0  0  0
 13 11  1  0  0  0  0
 14 11  1  6  0  0  0
 14  7  1  0  0  0  0
 14  9  1  0  0  0  0
 15 24  2  0  0  0  0
 15 16  1  0  0  0  0
 16 18  2  0  0  0  0
 17 16  1  0  0  0  0
 18 19  1  0  0  0  0
 18 20  1  0  0  0  0
 20 21  1  0  0  0  0
 22 23  1  0  0  0  0
 22 20  2  0  0  0  0
 24 22  1  0  0  0  0
 25 26  1  0  0  0  0
 26 28  2  0  0  0  0
 26 27  1  0  0  0  0
 28 29  1  0  0  0  0
 30 31  1  0  0  0  0
 30 28  1  0  0  0  0
 32 30  2  0  0  0  0
 33 32  1  0  0  0  0
 34 32  1  0  0  0  0
 34 25  2  0  0  0  0
 35 34  1  0  0  0  0
 36 38  2  0  0  0  0
 36  4  1  0  0  0  0
 37 36  1  0  0  0  0
 38 46  1  0  0  0  0
 39 41  1  0  0  0  0
 39 38  1  0  0  0  0
 40 39  1  0  0  0  0
 41 42  2  0  0  0  0
 42 43  1  0  0  0  0
 42 44  1  0  0  0  0
 44 45  1  0  0  0  0
 46 44  2  0  0  0  0
 46  3  1  0  0  0  0
M  CHG  1   3  -1
M  END
