3,4,6,8
 OpenBabel05122313063D

 45 45  0  0  1  0  0  0  0  0999 V2000
   -4.7641   -1.0589    0.0657 S   0  0  0  0  0  0  0  0  0  0  0  0
    0.0089    4.4682   -0.1880 S   0  0  0  0  0  0  0  0  0  0  0  0
    1.3368   -0.2742    0.0355 O   0  5  0  0  0  0  0  0  0  0  0  0
   -0.9535   -1.8217   -0.0310 N   0  0  0  0  0  2  0  0  0  0  0  0
   -2.2999   -2.0945   -0.0136 N   0  0  0  0  0  0  0  0  0  0  0  0
   -2.3049    0.2134    0.0560 N   0  0  0  0  0  2  0  0  0  0  0  0
   -1.7569    2.4437    0.0859 N   0  0  0  0  0  0  0  0  0  0  0  0
   -0.4956    1.8709    0.0266 N   0  0  0  0  0  2  0  0  0  0  0  0
    1.7755    2.3686   -0.1055 N   0  0  0  0  0  0  0  0  0  0  0  0
    2.4817    2.9893   -0.4931 H   0  0  0  0  0  0  0  0  0  0  0  0
    1.9205    1.3358   -0.1499 H   0  0  0  0  0  0  0  0  0  0  0  0
   -2.9917   -0.9723    0.0339 C   0  0  0  0  0  0  0  0  0  0  0  0
   -0.1086   -2.8571   -0.0825 C   0  0  2  0  0  3  0  0  0  0  0  0
   -0.6802   -4.2483   -0.1277 C   0  0  0  0  0  0  0  0  0  0  0  0
   -1.3168   -4.4344    0.7611 H   0  0  0  0  0  0  0  0  0  0  0  0
   -1.3487   -4.3630   -1.0048 H   0  0  0  0  0  0  0  0  0  0  0  0
    0.1231   -5.0058   -0.1726 H   0  0  0  0  0  0  0  0  0  0  0  0
    1.3000   -2.6629   -0.0799 C   0  0  0  0  0  0  0  0  0  0  0  0
    1.9177   -3.5694   -0.0787 H   0  0  0  0  0  0  0  0  0  0  0  0
    1.9562   -1.4313   -0.0179 C   0  0  0  0  0  0  0  0  0  0  0  0
    3.4398   -1.3520    0.0377 C   0  0  0  0  0  0  0  0  0  0  0  0
    4.2676   -2.3292   -0.5611 C   0  0  0  0  0  0  0  0  0  0  0  0
    3.8090   -3.1621   -1.1141 H   0  0  0  0  0  0  0  0  0  0  0  0
    5.6628   -2.2275   -0.4896 C   0  0  0  0  0  0  0  0  0  0  0  0
    6.2894   -2.9935   -0.9715 H   0  0  0  0  0  0  0  0  0  0  0  0
    6.2627   -1.1489    0.1817 C   0  0  0  0  0  0  0  0  0  0  0  0
    7.3591   -1.0711    0.2369 H   0  0  0  0  0  0  0  0  0  0  0  0
    5.4518   -0.1703    0.7795 C   0  0  0  0  0  0  0  0  0  0  0  0
    5.9122    0.6735    1.3164 H   0  0  0  0  0  0  0  0  0  0  0  0
    4.0563   -0.2683    0.7071 C   0  0  0  0  0  0  0  0  0  0  0  0
    3.4212    0.4881    1.1911 H   0  0  0  0  0  0  0  0  0  0  0  0
   -4.9911   -2.8598    0.0161 C   0  0  0  0  0  0  0  0  0  0  0  0
   -6.0860   -3.0205    0.0334 H   0  0  0  0  0  0  0  0  0  0  0  0
   -4.5517   -3.2804   -0.9070 H   0  0  0  0  0  0  0  0  0  0  0  0
   -4.5153   -3.3344    0.8939 H   0  0  0  0  0  0  0  0  0  0  0  0
   -2.7010    1.5374    0.0964 C   0  0  0  0  0  0  0  0  0  0  0  0
   -4.1311    1.9818    0.1495 C   0  0  0  0  0  0  0  0  0  0  0  0
   -4.1537    3.0856    0.1794 H   0  0  0  0  0  0  0  0  0  0  0  0
   -4.6954    1.6285   -0.7375 H   0  0  0  0  0  0  0  0  0  0  0  0
   -4.6445    1.5807    1.0469 H   0  0  0  0  0  0  0  0  0  0  0  0
    0.4813    2.7572   -0.0966 C   0  0  2  0  0  3  0  0  0  0  0  0
    1.6565    5.2511   -0.2610 C   0  0  0  0  0  0  0  0  0  0  0  0
    1.4606    6.3398   -0.2378 H   0  0  0  0  0  0  0  0  0  0  0  0
    2.2784    4.9865    0.6170 H   0  0  0  0  0  0  0  0  0  0  0  0
    2.1961    5.0235   -1.2037 H   0  0  0  0  0  0  0  0  0  0  0  0
  4  5  1  0  0  0  0
  5 12  2  0  0  0  0
  6 36  1  0  0  0  0
  7 36  2  0  0  0  0
  8  7  1  0  0  0  0
  9 41  1  0  0  0  0
 10  9  1  0  0  0  0
 11  9  1  0  0  0  0
 12  6  1  0  0  0  0
 12  1  1  0  0  0  0
 13 18  1  1  0  0  0
 13  4  1  0  0  0  0
 14 13  1  0  0  0  0
 14 15  1  0  0  0  0
 16 14  1  0  0  0  0
 17 14  1  0  0  0  0
 18 19  1  0  0  0  0
 18 20  2  0  0  0  0
 20  3  1  0  0  0  0
 20 21  1  0  0  0  0
 21 30  1  0  0  0  0
 22 24  1  0  0  0  0
 22 21  2  0  0  0  0
 23 22  1  0  0  0  0
 24 26  2  0  0  0  0
 25 24  1  0  0  0  0
 26 27  1  0  0  0  0
 26 28  1  0  0  0  0
 28 29  1  0  0  0  0
 30 28  2  0  0  0  0
 30 31  1  0  0  0  0
 32 33  1  0  0  0  0
 32  1  1  0  0  0  0
 32 35  1  0  0  0  0
 34 32  1  0  0  0  0
 36 37  1  0  0  0  0
 37 38  1  0  0  0  0
 37 40  1  0  0  0  0
 39 37  1  0  0  0  0
 41  2  1  1  0  0  0
 41  8  1  0  0  0  0
 42 43  1  0  0  0  0
 42  2  1  0  0  0  0
 42 44  1  0  0  0  0
 45 42  1  0  0  0  0
M  CHG  1   3  -1
M  END
