4,5,6,7
 OpenBabel05122313063D

 61 64  0  0  1  0  0  0  0  0999 V2000
    4.7804   -1.9981   -1.4605 Cl  0  0  0  0  0  0  0  0  0  0  0  0
    2.3995   -3.3960    1.5826 Cl  0  0  0  0  0  0  0  0  0  0  0  0
    1.6977   -0.5352    2.7876 Cl  0  0  0  0  0  0  0  0  0  0  0  0
   -0.2629    1.6916   -0.1317 N   0  0  0  0  0  2  0  0  0  0  0  0
   -1.0640   -0.7207   -1.2097 N   0  0  0  0  0  2  0  0  0  0  0  0
   -3.3850   -0.4531    0.0893 N   0  0  0  0  0  0  0  0  0  0  0  0
   -2.4624    1.8504    1.1239 O   0  5  0  0  0  0  0  0  0  0  0  0
   -2.1839    3.9612    1.8652 O   0  0  0  0  0  0  0  0  0  0  0  0
   -1.9103   -2.5231   -2.4763 O   0  0  0  0  0  0  0  0  0  0  0  0
   -1.8282    3.0064    1.1926 C   0  0  0  0  0  0  0  0  0  0  0  0
   -0.5933    3.0679    0.2723 C   0  0  2  0  0  0  0  0  0  0  0  0
    0.2400    3.5199    0.8451 H   0  0  0  0  0  0  0  0  0  0  0  0
   -0.8953    3.9565   -0.9404 C   0  0  0  0  0  0  0  0  0  0  0  0
    0.0046    4.0862   -1.5728 H   0  0  0  0  0  0  0  0  0  0  0  0
   -1.2297    4.9476   -0.5779 H   0  0  0  0  0  0  0  0  0  0  0  0
   -1.7026    3.5106   -1.5562 H   0  0  0  0  0  0  0  0  0  0  0  0
    0.9603    1.3247   -0.4417 C   0  0  0  0  0  0  0  0  0  0  0  0
    1.2829   -0.0136   -0.9249 C   0  0  0  0  0  0  0  0  0  0  0  0
    2.6610   -0.3599   -0.9735 C   0  0  0  0  0  0  0  0  0  0  0  0
    3.4070    0.3512   -0.5985 H   0  0  0  0  0  0  0  0  0  0  0  0
    3.0843   -1.5870   -1.4668 C   0  0  0  0  0  0  0  0  0  0  0  0
    2.1377   -2.4992   -1.9674 C   0  0  0  0  0  0  0  0  0  0  0  0
    2.4700   -3.4637   -2.3769 H   0  0  0  0  0  0  0  0  0  0  0  0
    0.7830   -2.1852   -1.9308 C   0  0  0  0  0  0  0  0  0  0  0  0
    0.0476   -2.8906   -2.3295 H   0  0  0  0  0  0  0  0  0  0  0  0
    0.2955   -0.9661   -1.3709 C   0  0  1  0  0  3  0  0  0  0  0  0
   -2.0374   -1.5804   -1.6926 C   0  0  0  0  0  0  0  0  0  0  0  0
   -3.4343   -1.2389   -1.1783 C   0  0  2  0  0  0  0  0  0  0  0  0
   -3.9572   -2.2045   -1.0046 H   0  0  0  0  0  0  0  0  0  0  0  0
   -4.2514   -0.3610   -2.1730 C   0  0  0  0  0  0  0  0  0  0  0  0
   -3.6463   -0.0884   -3.0584 H   0  0  0  0  0  0  0  0  0  0  0  0
   -5.1240   -0.9340   -2.5406 H   0  0  0  0  0  0  0  0  0  0  0  0
   -4.6902    0.8703   -1.3544 C   0  0  0  0  0  0  0  0  0  0  0  0
   -3.9799    1.7123   -1.4840 H   0  0  0  0  0  0  0  0  0  0  0  0
   -5.6985    1.2357   -1.6278 H   0  0  0  0  0  0  0  0  0  0  0  0
   -4.6192    0.3821    0.0850 C   0  0  0  0  0  0  0  0  0  0  0  0
   -5.4881   -0.2702    0.3348 H   0  0  0  0  0  0  0  0  0  0  0  0
   -4.5170    1.1826    0.8396 H   0  0  0  0  0  0  0  0  0  0  0  0
   -3.2663   -1.2628    1.3389 C   0  0  0  0  0  0  0  0  0  0  0  0
   -3.4823   -0.5666    2.1721 H   0  0  0  0  0  0  0  0  0  0  0  0
   -4.0502   -2.0534    1.3287 H   0  0  0  0  0  0  0  0  0  0  0  0
   -1.8918   -1.8629    1.5101 C   0  0  0  0  0  0  0  0  0  0  0  0
   -1.5751   -3.1374    1.0126 C   0  0  0  0  0  0  0  0  0  0  0  0
   -2.3579   -3.7643    0.5601 H   0  0  0  0  0  0  0  0  0  0  0  0
   -0.2560   -3.6107    1.0479 C   0  0  0  0  0  0  0  0  0  0  0  0
    0.0010   -4.5975    0.6397 H   0  0  0  0  0  0  0  0  0  0  0  0
    0.7673   -2.8157    1.5857 C   0  0  0  0  0  0  0  0  0  0  0  0
    0.4517   -1.5419    2.1115 C   0  0  0  0  0  0  0  0  0  0  0  0
   -0.8690   -1.0747    2.0756 C   0  0  0  0  0  0  0  0  0  0  0  0
   -1.0974   -0.0844    2.4947 H   0  0  0  0  0  0  0  0  0  0  0  0
    2.0782    2.3178   -0.3149 C   0  0  0  0  0  0  0  0  0  0  0  0
    2.6089    2.6371    0.9519 C   0  0  0  0  0  0  0  0  0  0  0  0
    2.2028    2.1399    1.8453 H   0  0  0  0  0  0  0  0  0  0  0  0
    3.6535    3.5661    1.0639 C   0  0  0  0  0  0  0  0  0  0  0  0
    4.0646    3.8061    2.0560 H   0  0  0  0  0  0  0  0  0  0  0  0
    4.1744    4.1851   -0.0837 C   0  0  0  0  0  0  0  0  0  0  0  0
    4.9932    4.9146    0.0069 H   0  0  0  0  0  0  0  0  0  0  0  0
    3.6530    3.8662   -1.3474 C   0  0  0  0  0  0  0  0  0  0  0  0
    4.0623    4.3434   -2.2506 H   0  0  0  0  0  0  0  0  0  0  0  0
    2.6122    2.9331   -1.4648 C   0  0  0  0  0  0  0  0  0  0  0  0
    2.2112    2.6681   -2.4549 H   0  0  0  0  0  0  0  0  0  0  0  0
  2 47  1  0  0  0  0
  4 11  1  0  0  0  0
  6 39  1  0  0  0  0
  7 10  1  0  0  0  0
  9 27  2  0  0  0  0
 10  8  2  0  0  0  0
 11 12  1  1  0  0  0
 11 10  1  0  0  0  0
 13 15  1  0  0  0  0
 13 11  1  0  0  0  0
 14 13  1  0  0  0  0
 16 13  1  0  0  0  0
 17 51  1  0  0  0  0
 17  4  1  0  0  0  0
 18 17  2  0  0  0  0
 19 18  1  0  0  0  0
 19 20  1  0  0  0  0
 21  1  1  0  0  0  0
 21 19  2  0  0  0  0
 22 24  2  0  0  0  0
 22 21  1  0  0  0  0
 23 22  1  0  0  0  0
 24 26  1  0  0  0  0
 25 24  1  0  0  0  0
 26  5  1  1  0  0  0
 26 18  1  0  0  0  0
 27  5  1  0  0  0  0
 27 28  1  0  0  0  0
 28 29  1  1  0  0  0
 28  6  1  0  0  0  0
 30 33  1  0  0  0  0
 30 28  1  0  0  0  0
 31 30  1  0  0  0  0
 32 30  1  0  0  0  0
 33 36  1  0  0  0  0
 34 33  1  0  0  0  0
 35 33  1  0  0  0  0
 36  6  1  0  0  0  0
 36 37  1  0  0  0  0
 36 38  1  0  0  0  0
 39 42  1  0  0  0  0
 39 40  1  0  0  0  0
 41 39  1  0  0  0  0
 42 49  1  0  0  0  0
 43 45  1  0  0  0  0
 43 42  2  0  0  0  0
 44 43  1  0  0  0  0
 45 47  2  0  0  0  0
 46 45  1  0  0  0  0
 47 48  1  0  0  0  0
 48  3  1  0  0  0  0
 49 48  2  0  0  0  0
 49 50  1  0  0  0  0
 51 52  1  0  0  0  0
 52 54  2  0  0  0  0
 52 53  1  0  0  0  0
 54 55  1  0  0  0  0
 56 57  1  0  0  0  0
 56 54  1  0  0  0  0
 58 56  2  0  0  0  0
 59 58  1  0  0  0  0
 60 58  1  0  0  0  0
 60 51  2  0  0  0  0
 61 60  1  0  0  0  0
M  CHG  1   7  -1
M  END
