2,4,6,7
 OpenBabel05122313063D

 69 71  0  0  1  0  0  0  0  0999 V2000
    3.1192    1.1352   -2.3127 O   0  0  0  0  0  0  0  0  0  0  0  0
    0.2666   -2.5213    0.9090 O   0  5  0  0  0  0  0  0  0  0  0  0
   -1.4954   -3.7314    1.6165 O   0  0  0  0  0  0  0  0  0  0  0  0
    2.5661   -1.4234    0.1119 N   0  0  0  0  0  0  0  0  0  0  0  0
    2.5947   -2.4524    0.1813 H   0  0  0  0  0  0  0  0  0  0  0  0
    1.2325    0.5084   -1.0513 N   0  0  0  0  0  2  0  0  0  0  0  0
   -1.0963   -0.5808   -0.0355 N   0  0  0  0  0  2  0  0  0  0  0  0
    3.1777    1.6698    1.3728 C   0  0  0  0  0  0  0  0  0  0  0  0
    4.1673    1.6284    0.8911 H   0  0  0  0  0  0  0  0  0  0  0  0
    2.5650    2.9153    1.5912 C   0  0  0  0  0  0  0  0  0  0  0  0
    3.0787    3.8383    1.2841 H   0  0  0  0  0  0  0  0  0  0  0  0
    1.2966    2.9785    2.1833 C   0  0  0  0  0  0  0  0  0  0  0  0
    0.8060    3.9508    2.3386 H   0  0  0  0  0  0  0  0  0  0  0  0
    0.6492    1.7916    2.5646 C   0  0  0  0  0  0  0  0  0  0  0  0
   -0.3449    1.8351    3.0355 H   0  0  0  0  0  0  0  0  0  0  0  0
    1.2576    0.5487    2.3398 C   0  0  0  0  0  0  0  0  0  0  0  0
    0.7415   -0.3733    2.6440 H   0  0  0  0  0  0  0  0  0  0  0  0
    2.5288    0.4758    1.7292 C   0  0  0  0  0  0  0  0  0  0  0  0
    3.1544   -0.8700    1.3902 C   0  0  1  0  0  0  0  0  0  0  0  0
    4.2367   -0.7016    1.2187 H   0  0  0  0  0  0  0  0  0  0  0  0
    2.9998   -1.9203    2.4917 C   0  0  0  0  0  0  0  0  0  0  0  0
    1.9459   -2.2452    2.5901 H   0  0  0  0  0  0  0  0  0  0  0  0
    3.3488   -1.5089    3.4578 H   0  0  0  0  0  0  0  0  0  0  0  0
    3.6084   -2.8189    2.2611 H   0  0  0  0  0  0  0  0  0  0  0  0
    3.1495   -1.0030   -1.2022 C   0  0  0  0  0  0  0  0  0  0  0  0
    4.6749   -0.8820   -1.2126 C   0  0  0  0  0  0  0  0  0  0  0  0
    5.1506   -1.8395   -0.9183 H   0  0  0  0  0  0  0  0  0  0  0  0
    5.0434   -0.0753   -0.5519 H   0  0  0  0  0  0  0  0  0  0  0  0
    4.9971   -0.6192   -2.2368 H   0  0  0  0  0  0  0  0  0  0  0  0
    2.7104   -2.0518   -2.2412 C   0  0  0  0  0  0  0  0  0  0  0  0
    3.2162   -3.0229   -2.0561 H   0  0  0  0  0  0  0  0  0  0  0  0
    2.9801   -1.7059   -3.2568 H   0  0  0  0  0  0  0  0  0  0  0  0
    1.6147   -2.2098   -2.2008 H   0  0  0  0  0  0  0  0  0  0  0  0
    2.5036    0.3586   -1.5796 C   0  0  0  0  0  0  0  0  0  0  0  0
    0.5234    1.7027   -1.0979 C   0  0  2  0  0  3  0  0  0  0  0  0
    1.1110    2.9120   -1.5725 C   0  0  0  0  0  0  0  0  0  0  0  0
    2.1204    2.8542   -1.9902 H   0  0  0  0  0  0  0  0  0  0  0  0
    0.4447    4.1332   -1.4987 C   0  0  0  0  0  0  0  0  0  0  0  0
    0.9567    5.0406   -1.8555 H   0  0  0  0  0  0  0  0  0  0  0  0
   -0.8571    4.2152   -0.9716 C   0  0  0  0  0  0  0  0  0  0  0  0
   -1.3820    5.1789   -0.9007 H   0  0  0  0  0  0  0  0  0  0  0  0
   -1.4808    3.0426   -0.5590 C   0  0  0  0  0  0  0  0  0  0  0  0
   -2.5058    3.0883   -0.1671 H   0  0  0  0  0  0  0  0  0  0  0  0
   -0.8383    1.7743   -0.6168 C   0  0  0  0  0  0  0  0  0  0  0  0
   -1.6231    0.6109   -0.2158 C   0  0  0  0  0  0  0  0  0  0  0  0
   -3.0956    0.7943    0.0126 C   0  0  0  0  0  0  0  0  0  0  0  0
   -3.9861    0.9218   -1.0718 C   0  0  0  0  0  0  0  0  0  0  0  0
   -3.5910    0.9060   -2.0988 H   0  0  0  0  0  0  0  0  0  0  0  0
   -5.3615    1.0767   -0.8432 C   0  0  0  0  0  0  0  0  0  0  0  0
   -6.0493    1.1702   -1.6971 H   0  0  0  0  0  0  0  0  0  0  0  0
   -5.8585    1.1161    0.4692 C   0  0  0  0  0  0  0  0  0  0  0  0
   -6.9375    1.2389    0.6471 H   0  0  0  0  0  0  0  0  0  0  0  0
   -4.9750    1.0034    1.5546 C   0  0  0  0  0  0  0  0  0  0  0  0
   -5.3581    1.0407    2.5855 H   0  0  0  0  0  0  0  0  0  0  0  0
   -3.6003    0.8415    1.3284 C   0  0  0  0  0  0  0  0  0  0  0  0
   -2.9038    0.7536    2.1767 H   0  0  0  0  0  0  0  0  0  0  0  0
   -1.9070   -1.7746    0.2409 C   0  0  1  0  0  0  0  0  0  0  0  0
   -2.7801   -1.5214    0.8739 H   0  0  0  0  0  0  0  0  0  0  0  0
   -2.4553   -2.3970   -1.0795 C   0  0  0  0  0  0  0  0  0  0  0  0
   -2.9961   -1.5664   -1.5846 H   0  0  0  0  0  0  0  0  0  0  0  0
   -1.3376   -2.8679   -2.0151 C   0  0  0  0  0  0  0  0  0  0  0  0
   -0.6353   -2.0421   -2.2488 H   0  0  0  0  0  0  0  0  0  0  0  0
   -1.7614   -3.2356   -2.9712 H   0  0  0  0  0  0  0  0  0  0  0  0
   -0.7546   -3.6968   -1.5630 H   0  0  0  0  0  0  0  0  0  0  0  0
   -3.4688   -3.5048   -0.7787 C   0  0  0  0  0  0  0  0  0  0  0  0
   -3.8785   -3.9175   -1.7228 H   0  0  0  0  0  0  0  0  0  0  0  0
   -4.3170   -3.1186   -0.1774 H   0  0  0  0  0  0  0  0  0  0  0  0
   -3.0001   -4.3254   -0.2017 H   0  0  0  0  0  0  0  0  0  0  0  0
   -1.0241   -2.7771    1.0122 C   0  0  0  0  0  0  0  0  0  0  0  0
  1 34  2  0  0  0  0
  2 69  1  0  0  0  0
  4  5  1  0  0  0  0
  4 19  1  0  0  0  0
  7 57  1  0  0  0  0
  8 10  2  0  0  0  0
  8 18  1  0  0  0  0
  9  8  1  0  0  0  0
 10 12  1  0  0  0  0
 11 10  1  0  0  0  0
 12 13  1  0  0  0  0
 12 14  2  0  0  0  0
 14 15  1  0  0  0  0
 16 14  1  0  0  0  0
 16 17  1  0  0  0  0
 18 16  2  0  0  0  0
 19 20  1  6  0  0  0
 19 18  1  0  0  0  0
 19 21  1  0  0  0  0
 21 22  1  0  0  0  0
 21 23  1  0  0  0  0
 24 21  1  0  0  0  0
 25  4  1  0  0  0  0
 26 25  1  0  0  0  0
 26 27  1  0  0  0  0
 26 28  1  0  0  0  0
 29 26  1  0  0  0  0
 30 33  1  0  0  0  0
 30 31  1  0  0  0  0
 30 25  1  0  0  0  0
 32 30  1  0  0  0  0
 34 25  1  0  0  0  0
 34  6  1  0  0  0  0
 35  6  1  1  0  0  0
 35 44  1  0  0  0  0
 36 38  2  0  0  0  0
 36 35  1  0  0  0  0
 37 36  1  0  0  0  0
 38 40  1  0  0  0  0
 39 38  1  0  0  0  0
 40 41  1  0  0  0  0
 40 42  2  0  0  0  0
 42 43  1  0  0  0  0
 44 42  1  0  0  0  0
 44 45  2  0  0  0  0
 45  7  1  0  0  0  0
 45 46  1  0  0  0  0
 46 55  1  0  0  0  0
 47 49  1  0  0  0  0
 47 46  2  0  0  0  0
 48 47  1  0  0  0  0
 49 51  2  0  0  0  0
 50 49  1  0  0  0  0
 51 52  1  0  0  0  0
 51 53  1  0  0  0  0
 53 54  1  0  0  0  0
 55 53  2  0  0  0  0
 55 56  1  0  0  0  0
 57 58  1  1  0  0  0
 57 69  1  0  0  0  0
 59 65  1  0  0  0  0
 59 57  1  0  0  0  0
 60 59  1  0  0  0  0
 61 64  1  0  0  0  0
 61 59  1  0  0  0  0
 62 61  1  0  0  0  0
 63 61  1  0  0  0  0
 65 68  1  0  0  0  0
 65 67  1  0  0  0  0
 66 65  1  0  0  0  0
 69  3  2  0  0  0  0
M  CHG  1   2  -1
M  END
