2,4,6,7
 OpenBabel05122313063D

 69 71  0  0  1  0  0  0  0  0999 V2000
    2.2650    3.5682    0.9671 O   0  0  0  0  0  0  0  0  0  0  0  0
    0.9670   -1.8659    0.8069 O   0  5  0  0  0  0  0  0  0  0  0  0
   -0.2762   -3.7358    0.9708 O   0  0  0  0  0  0  0  0  0  0  0  0
    2.7304    0.0846    0.4268 N   0  0  0  0  0  0  0  0  0  0  0  0
    3.0270   -0.7755    0.9163 H   0  0  0  0  0  0  0  0  0  0  0  0
    0.8178    1.8179    0.3391 N   0  0  0  0  0  2  0  0  0  0  0  0
   -0.9895   -0.2841    0.3218 N   0  0  0  0  0  2  0  0  0  0  0  0
    1.6302   -1.4425   -2.2475 C   0  0  0  0  0  0  0  0  0  0  0  0
    1.0233   -0.5499   -2.4579 H   0  0  0  0  0  0  0  0  0  0  0  0
    1.1677   -2.7000   -2.6577 C   0  0  0  0  0  0  0  0  0  0  0  0
    0.2068   -2.7820   -3.1883 H   0  0  0  0  0  0  0  0  0  0  0  0
    1.9177   -3.8539   -2.3823 C   0  0  0  0  0  0  0  0  0  0  0  0
    1.5437   -4.8422   -2.6885 H   0  0  0  0  0  0  0  0  0  0  0  0
    3.1439   -3.7418   -1.7122 C   0  0  0  0  0  0  0  0  0  0  0  0
    3.7400   -4.6409   -1.4959 H   0  0  0  0  0  0  0  0  0  0  0  0
    3.6054   -2.4813   -1.3049 C   0  0  0  0  0  0  0  0  0  0  0  0
    4.5648   -2.3970   -0.7678 H   0  0  0  0  0  0  0  0  0  0  0  0
    2.8517   -1.3216   -1.5563 C   0  0  0  0  0  0  0  0  0  0  0  0
    3.3038    0.0074   -0.9691 C   0  0  1  0  0  0  0  0  0  0  0  0
    4.4101   -0.0343   -0.8548 H   0  0  0  0  0  0  0  0  0  0  0  0
    2.9601    1.2093   -1.8469 C   0  0  0  0  0  0  0  0  0  0  0  0
    3.4342    1.0666   -2.8372 H   0  0  0  0  0  0  0  0  0  0  0  0
    3.3297    2.1624   -1.4248 H   0  0  0  0  0  0  0  0  0  0  0  0
    1.8706    1.3198   -1.9924 H   0  0  0  0  0  0  0  0  0  0  0  0
    3.0223    1.2905    1.2600 C   0  0  0  0  0  0  0  0  0  0  0  0
    2.7315    0.9185    2.7264 C   0  0  0  0  0  0  0  0  0  0  0  0
    2.7985    1.8243    3.3584 H   0  0  0  0  0  0  0  0  0  0  0  0
    3.4698    0.1767    3.0961 H   0  0  0  0  0  0  0  0  0  0  0  0
    1.7167    0.4866    2.8314 H   0  0  0  0  0  0  0  0  0  0  0  0
    4.4568    1.8106    1.1442 C   0  0  0  0  0  0  0  0  0  0  0  0
    4.7324    2.0857    0.1095 H   0  0  0  0  0  0  0  0  0  0  0  0
    5.1788    1.0576    1.5192 H   0  0  0  0  0  0  0  0  0  0  0  0
    4.5448    2.7282    1.7550 H   0  0  0  0  0  0  0  0  0  0  0  0
    1.9947    2.3750    0.8213 C   0  0  0  0  0  0  0  0  0  0  0  0
   -0.2039    2.5593   -0.2440 C   0  0  0  0  0  0  0  0  0  0  0  0
   -0.0433    3.9381   -0.5685 C   0  0  0  0  0  0  0  0  0  0  0  0
    0.8868    4.4261   -0.2612 H   0  0  0  0  0  0  0  0  0  0  0  0
   -1.0252    4.6524   -1.2526 C   0  0  0  0  0  0  0  0  0  0  0  0
   -0.8416    5.7105   -1.4960 H   0  0  0  0  0  0  0  0  0  0  0  0
   -2.2297    4.0355   -1.6359 C   0  0  0  0  0  0  0  0  0  0  0  0
   -3.0015    4.5912   -2.1880 H   0  0  0  0  0  0  0  0  0  0  0  0
   -2.4340    2.7029   -1.2937 C   0  0  0  0  0  3  0  0  0  0  0  0
   -3.3765    2.2154   -1.5765 H   0  0  0  0  0  0  0  0  0  0  0  0
   -1.4643    1.9358   -0.5877 C   0  0  0  0  0  0  0  0  0  0  0  0
   -1.8369    0.5727   -0.2089 C   0  0  0  0  0  0  0  0  0  0  0  0
   -3.2553    0.1363   -0.4393 C   0  0  0  0  0  0  0  0  0  0  0  0
   -4.2999    0.5955    0.3880 C   0  0  0  0  0  0  0  0  0  0  0  0
   -4.0736    1.3034    1.1997 H   0  0  0  0  0  0  0  0  0  0  0  0
   -5.6162    0.1610    0.1734 C   0  0  0  0  0  0  0  0  0  0  0  0
   -6.4233    0.5216    0.8287 H   0  0  0  0  0  0  0  0  0  0  0  0
   -5.9036   -0.7281   -0.8745 C   0  0  0  0  0  0  0  0  0  0  0  0
   -6.9367   -1.0676   -1.0423 H   0  0  0  0  0  0  0  0  0  0  0  0
   -4.8701   -1.1790   -1.7109 C   0  0  0  0  0  0  0  0  0  0  0  0
   -5.0904   -1.8703   -2.5383 H   0  0  0  0  0  0  0  0  0  0  0  0
   -3.5522   -0.7508   -1.4943 C   0  0  0  0  0  0  0  0  0  0  0  0
   -2.7391   -1.1020   -2.1485 H   0  0  0  0  0  0  0  0  0  0  0  0
   -1.4064   -1.5919    0.8508 C   0  0  2  0  0  0  0  0  0  0  0  0
   -2.1883   -2.0460    0.2116 H   0  0  0  0  0  0  0  0  0  0  0  0
   -1.9985   -1.4456    2.2869 C   0  0  0  0  0  0  0  0  0  0  0  0
   -2.8137   -0.6957    2.1885 H   0  0  0  0  0  0  0  0  0  0  0  0
   -0.9781   -0.8997    3.2913 C   0  0  0  0  0  0  0  0  0  0  0  0
   -1.4545   -0.7460    4.2805 H   0  0  0  0  0  0  0  0  0  0  0  0
   -0.5655    0.0745    2.9587 H   0  0  0  0  0  0  0  0  0  0  0  0
   -0.1299   -1.6015    3.4290 H   0  0  0  0  0  0  0  0  0  0  0  0
   -2.6266   -2.7623    2.7527 C   0  0  0  0  0  0  0  0  0  0  0  0
   -1.8710   -3.5708    2.7897 H   0  0  0  0  0  0  0  0  0  0  0  0
   -3.4290   -3.0893    2.0605 H   0  0  0  0  0  0  0  0  0  0  0  0
   -3.0727   -2.6395    3.7604 H   0  0  0  0  0  0  0  0  0  0  0  0
   -0.1732   -2.5206    0.8592 C   0  0  0  0  0  0  0  0  0  0  0  0
  2 69  1  0  0  0  0
  4  5  1  0  0  0  0
  4 25  1  0  0  0  0
  6 34  1  0  0  0  0
  7 57  1  0  0  0  0
  8 18  1  0  0  0  0
  9  8  1  0  0  0  0
 10 12  1  0  0  0  0
 10  8  2  0  0  0  0
 11 10  1  0  0  0  0
 12 14  2  0  0  0  0
 13 12  1  0  0  0  0
 14 15  1  0  0  0  0
 14 16  1  0  0  0  0
 16 17  1  0  0  0  0
 18 16  2  0  0  0  0
 18 19  1  0  0  0  0
 19 20  1  1  0  0  0
 19  4  1  0  0  0  0
 21 23  1  0  0  0  0
 21 19  1  0  0  0  0
 22 21  1  0  0  0  0
 24 21  1  0  0  0  0
 25 26  1  0  0  0  0
 26 29  1  0  0  0  0
 26 28  1  0  0  0  0
 26 27  1  0  0  0  0
 30 25  1  0  0  0  0
 30 32  1  0  0  0  0
 30 33  1  0  0  0  0
 31 30  1  0  0  0  0
 34  1  2  0  0  0  0
 34 25  1  0  0  0  0
 35  6  1  0  0  0  0
 36 37  1  0  0  0  0
 36 35  2  0  0  0  0
 38 36  1  0  0  0  0
 39 38  1  0  0  0  0
 40 42  1  0  0  0  0
 40 38  2  0  0  0  0
 41 40  1  0  0  0  0
 42 44  1  0  0  0  0
 43 42  1  0  0  0  0
 44 35  1  0  0  0  0
 44 45  2  0  0  0  0
 45  7  1  0  0  0  0
 46 45  1  0  0  0  0
 46 47  1  0  0  0  0
 47 48  1  0  0  0  0
 49 47  2  0  0  0  0
 49 50  1  0  0  0  0
 51 49  1  0  0  0  0
 52 51  1  0  0  0  0
 53 55  1  0  0  0  0
 53 51  2  0  0  0  0
 54 53  1  0  0  0  0
 55 46  2  0  0  0  0
 56 55  1  0  0  0  0
 57 58  1  6  0  0  0
 57 69  1  0  0  0  0
 57 59  1  0  0  0  0
 59 65  1  0  0  0  0
 59 61  1  0  0  0  0
 60 59  1  0  0  0  0
 61 64  1  0  0  0  0
 61 62  1  0  0  0  0
 63 61  1  0  0  0  0
 65 66  1  0  0  0  0
 65 68  1  0  0  0  0
 67 65  1  0  0  0  0
 69  3  2  0  0  0  0
M  CHG  1   2  -1
M  END
