3,4,6,7
 OpenBabel05122313063D

 66 68  0  0  1  0  0  0  0  0999 V2000
    3.0434    1.3445   -2.2342 O   0  0  0  0  0  0  0  0  0  0  0  0
   -1.4408   -3.8956    1.3842 O   0  5  0  0  0  0  0  0  0  0  0  0
    0.2952   -2.6271    0.7077 O   0  0  0  0  0  0  0  0  0  0  0  0
    2.5575   -1.4401   -0.0726 N   0  0  0  0  0  0  0  0  0  0  0  0
    2.6041   -2.4708   -0.0868 H   0  0  0  0  0  0  0  0  0  0  0  0
    1.1677    0.5586   -1.0460 N   0  0  0  0  0  2  0  0  0  0  0  0
   -1.1221   -0.6734   -0.1231 N   0  0  0  0  0  2  0  0  0  0  0  0
    1.2642    0.3236    2.3162 C   0  0  0  0  0  0  0  0  0  0  0  0
    0.7675   -0.6291    2.5495 H   0  0  0  0  0  0  0  0  0  0  0  0
    0.6380    1.5330    2.6493 C   0  0  0  0  0  0  0  0  0  0  0  0
   -0.3513    1.5198    3.1319 H   0  0  0  0  0  0  0  0  0  0  0  0
    1.2617    2.7584    2.3619 C   0  0  0  0  0  0  0  0  0  0  0  0
    0.7570    3.7058    2.6026 H   0  0  0  0  0  0  0  0  0  0  0  0
    2.5242    2.7667    1.7538 C   0  0  0  0  0  0  0  0  0  0  0  0
    3.0189    3.7209    1.5194 H   0  0  0  0  0  0  0  0  0  0  0  0
    3.1543    1.5546    1.4252 C   0  0  0  0  0  0  0  0  0  0  0  0
    4.1376    1.5700    0.9295 H   0  0  0  0  0  0  0  0  0  0  0  0
    2.5293    0.3242    1.6885 C   0  0  0  0  0  0  0  0  0  0  0  0
    3.1716   -0.9771    1.2290 C   0  0  1  0  0  0  0  0  0  0  0  0
    4.2452   -0.7725    1.0427 H   0  0  0  0  0  0  0  0  0  0  0  0
    3.0669   -2.1134    2.2480 C   0  0  0  0  0  0  0  0  0  0  0  0
    2.0223   -2.4669    2.3469 H   0  0  0  0  0  0  0  0  0  0  0  0
    3.4337   -1.7714    3.2344 H   0  0  0  0  0  0  0  0  0  0  0  0
    3.6866   -2.9779    1.9321 H   0  0  0  0  0  0  0  0  0  0  0  0
    3.0948   -0.9045   -1.3641 C   0  0  0  0  0  0  0  0  0  0  0  0
    2.6041   -1.8499   -2.4770 C   0  0  0  0  0  0  0  0  0  0  0  0
    1.5023   -1.9673   -2.4308 H   0  0  0  0  0  0  0  0  0  0  0  0
    3.0755   -2.8506   -2.3802 H   0  0  0  0  0  0  0  0  0  0  0  0
    2.8717   -1.4320   -3.4658 H   0  0  0  0  0  0  0  0  0  0  0  0
    4.6187   -0.7892   -1.4200 C   0  0  0  0  0  0  0  0  0  0  0  0
    5.0160   -0.0509   -0.6989 H   0  0  0  0  0  0  0  0  0  0  0  0
    4.9066   -0.4298   -2.4249 H   0  0  0  0  0  0  0  0  0  0  0  0
    5.0981   -1.7722   -1.2363 H   0  0  0  0  0  0  0  0  0  0  0  0
    2.4386    0.4855   -1.5893 C   0  0  0  0  0  0  0  0  0  0  0  0
    0.4282    1.7338   -0.9894 C   0  0  2  0  0  3  0  0  0  0  0  0
    0.9856    2.9962   -1.3478 C   0  0  0  0  0  0  0  0  0  0  0  0
    2.0023    3.0044   -1.7515 H   0  0  0  0  0  0  0  0  0  0  0  0
    0.2798    4.1859   -1.1824 C   0  0  0  0  0  0  0  0  0  0  0  0
    0.7684    5.1355   -1.4514 H   0  0  0  0  0  0  0  0  0  0  0  0
   -1.0325    4.1838   -0.6753 C   0  0  0  0  0  0  0  0  0  0  0  0
   -1.5888    5.1219   -0.5343 H   0  0  0  0  0  0  0  0  0  0  0  0
   -1.6251    2.9622   -0.3730 C   0  0  0  0  0  0  0  0  0  0  0  0
   -2.6573    2.9423    0.0020 H   0  0  0  0  0  0  0  0  0  0  0  0
   -0.9401    1.7245   -0.5237 C   0  0  0  0  0  0  0  0  0  0  0  0
   -1.6903    0.5074   -0.2307 C   0  0  0  0  0  0  0  0  0  0  0  0
   -3.1748    0.6161   -0.0380 C   0  0  0  0  0  0  0  0  0  0  0  0
   -4.0346    0.7638   -1.1443 C   0  0  0  0  0  0  0  0  0  0  0  0
   -3.6065    0.8221   -2.1564 H   0  0  0  0  0  0  0  0  0  0  0  0
   -5.4224    0.8446   -0.9552 C   0  0  0  0  0  0  0  0  0  0  0  0
   -6.0861    0.9547   -1.8261 H   0  0  0  0  0  0  0  0  0  0  0  0
   -5.9624    0.7899    0.3395 C   0  0  0  0  0  0  0  0  0  0  0  0
   -7.0510    0.8553    0.4864 H   0  0  0  0  0  0  0  0  0  0  0  0
   -5.1099    0.6562    1.4471 C   0  0  0  0  0  0  0  0  0  0  0  0
   -5.5272    0.6191    2.4647 H   0  0  0  0  0  0  0  0  0  0  0  0
   -3.7228    0.5672    1.2604 C   0  0  0  0  0  0  0  0  0  0  0  0
   -3.0505    0.4620    2.1260 H   0  0  0  0  0  0  0  0  0  0  0  0
   -1.8893   -1.9128    0.0568 C   0  0  1  0  0  0  0  0  0  0  0  0
   -2.8035   -1.7347    0.6571 H   0  0  0  0  0  0  0  0  0  0  0  0
   -2.3100   -2.4942   -1.3139 C   0  0  0  0  0  0  0  0  0  0  0  0
   -2.7849   -1.6745   -1.8937 H   0  0  0  0  0  0  0  0  0  0  0  0
   -1.3865   -2.7744   -1.8663 H   0  0  0  0  0  0  0  0  0  0  0  0
   -3.2640   -3.6808   -1.1974 C   0  0  0  0  0  0  0  0  0  0  0  0
   -4.2234   -3.3713   -0.7337 H   0  0  0  0  0  0  0  0  0  0  0  0
   -2.8335   -4.4795   -0.5634 H   0  0  0  0  0  0  0  0  0  0  0  0
   -3.4910   -4.1014   -2.1972 H   0  0  0  0  0  0  0  0  0  0  0  0
   -0.9891   -2.9148    0.8089 C   0  0  0  0  0  0  0  0  0  0  0  0
  1 34  2  0  0  0  0
  3 66  2  0  0  0  0
  4 19  1  0  0  0  0
  5  4  1  0  0  0  0
  7 57  1  0  0  0  0
  8  9  1  0  0  0  0
  8 10  1  0  0  0  0
 10 11  1  0  0  0  0
 12 13  1  0  0  0  0
 12 10  2  0  0  0  0
 14 12  1  0  0  0  0
 15 14  1  0  0  0  0
 16 18  1  0  0  0  0
 16 14  2  0  0  0  0
 17 16  1  0  0  0  0
 18  8  2  0  0  0  0
 19 20  1  6  0  0  0
 19 18  1  0  0  0  0
 19 21  1  0  0  0  0
 21 22  1  0  0  0  0
 21 23  1  0  0  0  0
 24 21  1  0  0  0  0
 25  4  1  0  0  0  0
 26 27  1  0  0  0  0
 26 28  1  0  0  0  0
 26 25  1  0  0  0  0
 29 26  1  0  0  0  0
 30 25  1  0  0  0  0
 30 33  1  0  0  0  0
 30 31  1  0  0  0  0
 32 30  1  0  0  0  0
 34 25  1  0  0  0  0
 34  6  1  0  0  0  0
 35  6  1  1  0  0  0
 35 44  1  0  0  0  0
 36 38  2  0  0  0  0
 36 35  1  0  0  0  0
 37 36  1  0  0  0  0
 38 40  1  0  0  0  0
 39 38  1  0  0  0  0
 40 41  1  0  0  0  0
 40 42  2  0  0  0  0
 42 43  1  0  0  0  0
 44 42  1  0  0  0  0
 44 45  2  0  0  0  0
 45  7  1  0  0  0  0
 45 46  1  0  0  0  0
 46 55  1  0  0  0  0
 47 49  1  0  0  0  0
 47 46  2  0  0  0  0
 48 47  1  0  0  0  0
 49 51  2  0  0  0  0
 50 49  1  0  0  0  0
 51 52  1  0  0  0  0
 51 53  1  0  0  0  0
 53 54  1  0  0  0  0
 55 53  2  0  0  0  0
 55 56  1  0  0  0  0
 57 58  1  1  0  0  0
 57 66  1  0  0  0  0
 59 62  1  0  0  0  0
 59 57  1  0  0  0  0
 60 59  1  0  0  0  0
 61 59  1  0  0  0  0
 62 63  1  0  0  0  0
 62 64  1  0  0  0  0
 65 62  1  0  0  0  0
 66  2  1  0  0  0  0
M  CHG  1   2  -1
M  END
