3,4,5,6
 OpenBabel05122313063D

 42 42  0  0  1  0  0  0  0  0999 V2000
    3.1688    2.1983   -0.9160 O   0  0  0  0  0  0  0  0  0  0  0  0
    1.1007   -1.2400   -0.6903 O   0  0  0  0  0  1  0  0  0  0  0  0
   -1.5624   -1.8233   -0.2345 O   0  0  0  0  0  1  0  0  0  0  0  0
    0.5609   -0.1846   -0.3414 N   0  0  0  0  0  2  0  0  0  0  0  0
   -0.8928    1.7588    0.1715 N   0  0  0  0  0  2  0  0  0  0  0  0
   -3.0888    0.4764    0.1036 N   0  0  0  0  0  2  0  0  0  0  0  0
    2.7174    1.1417   -0.4510 C   0  0  0  0  0  0  0  0  0  0  0  0
    1.2614    1.0030   -0.1994 C   0  0  0  0  0  0  0  0  0  0  0  0
    0.3793    2.1079    0.0969 C   0  0  0  0  0  0  0  0  0  0  0  0
    0.8378    3.5062    0.3844 C   0  0  0  0  0  0  0  0  0  0  0  0
    0.2099    4.2426   -0.1568 H   0  0  0  0  0  0  0  0  0  0  0  0
    1.8861    3.6383    0.0687 H   0  0  0  0  0  0  0  0  0  0  0  0
    0.7394    3.7280    1.4689 H   0  0  0  0  0  0  0  0  0  0  0  0
    3.6622    0.0363   -0.0830 C   0  0  0  0  0  0  0  0  0  0  0  0
    3.3962   -0.8744    0.9603 C   0  0  0  0  0  0  0  0  0  0  0  0
    2.4301   -0.8399    1.4844 H   0  0  0  0  0  0  0  0  0  0  0  0
    4.3637   -1.8126    1.3403 C   0  0  0  0  0  0  0  0  0  0  0  0
    4.1533   -2.5137    2.1623 H   0  0  0  0  0  0  0  0  0  0  0  0
    5.5980   -1.8637    0.6702 C   0  0  0  0  0  0  0  0  0  0  0  0
    6.3518   -2.6110    0.9624 H   0  0  0  0  0  0  0  0  0  0  0  0
    5.8706   -0.9583   -0.3689 C   0  0  0  0  0  0  0  0  0  0  0  0
    6.8381   -0.9944   -0.8925 H   0  0  0  0  0  0  0  0  0  0  0  0
    4.9125   -0.0040   -0.7326 C   0  0  0  0  0  0  0  0  0  0  0  0
    5.1099    0.7351   -1.5230 H   0  0  0  0  0  0  0  0  0  0  0  0
   -2.0001    2.5816    0.6177 C   0  0  0  0  0  0  0  0  0  0  0  0
   -2.0233    2.5947    1.7322 H   0  0  0  0  0  0  0  0  0  0  0  0
   -1.9111    3.6363    0.2784 H   0  0  0  0  0  0  0  0  0  0  0  0
   -3.2760    1.9296    0.0783 C   0  0  0  0  0  0  0  0  0  0  0  0
   -3.4537    2.2655   -0.9700 H   0  0  0  0  0  0  0  0  0  0  0  0
   -4.1536    2.2574    0.6748 H   0  0  0  0  0  0  0  0  0  0  0  0
   -2.6354   -3.9218   -0.2513 C   0  0  0  0  0  0  0  0  0  0  0  0
   -2.1190   -4.2112   -1.1890 H   0  0  0  0  0  0  0  0  0  0  0  0
   -3.6329   -4.3967   -0.2184 H   0  0  0  0  0  0  0  0  0  0  0  0
   -2.0165   -4.3138    0.5819 H   0  0  0  0  0  0  0  0  0  0  0  0
   -2.7059   -2.4156   -0.1608 C   0  0  2  0  0  3  0  0  0  0  0  0
   -3.9466   -1.7685   -0.0173 C   0  0  0  0  0  0  0  0  0  0  0  0
   -4.8480   -2.3945    0.0082 H   0  0  0  0  0  0  0  0  0  0  0  0
   -4.1252   -0.3643    0.0743 C   0  0  0  0  0  0  0  0  0  0  0  0
   -5.5380    0.1736    0.1281 C   0  0  0  0  0  0  0  0  0  0  0  0
   -5.7464    0.8398   -0.7351 H   0  0  0  0  0  0  0  0  0  0  0  0
   -5.7102    0.7731    1.0466 H   0  0  0  0  0  0  0  0  0  0  0  0
   -6.2747   -0.6489    0.1126 H   0  0  0  0  0  0  0  0  0  0  0  0
  1  7  2  0  0  0  0
  2  4  1  0  0  0  0
  4  8  1  0  0  0  0
  5 25  1  0  0  0  0
  7  8  1  0  0  0  0
  7 14  1  0  0  0  0
  8  9  2  0  0  0  0
  9  5  1  0  0  0  0
  9 10  1  0  0  0  0
 10 13  1  0  0  0  0
 11 10  1  0  0  0  0
 12 10  1  0  0  0  0
 14 15  1  0  0  0  0
 15 17  2  0  0  0  0
 15 16  1  0  0  0  0
 17 18  1  0  0  0  0
 19 20  1  0  0  0  0
 19 17  1  0  0  0  0
 21 19  2  0  0  0  0
 22 21  1  0  0  0  0
 23 21  1  0  0  0  0
 23 14  2  0  0  0  0
 24 23  1  0  0  0  0
 25 26  1  0  0  0  0
 27 25  1  0  0  0  0
 28  6  1  0  0  0  0
 28 25  1  0  0  0  0
 28 30  1  0  0  0  0
 29 28  1  0  0  0  0
 31 33  1  0  0  0  0
 31 35  1  0  0  0  0
 31 34  1  0  0  0  0
 32 31  1  0  0  0  0
 35  3  1  6  0  0  0
 35 36  1  0  0  0  0
 36 37  1  0  0  0  0
 36 38  2  0  0  0  0
 38  6  1  0  0  0  0
 38 39  1  0  0  0  0
 39 41  1  0  0  0  0
 40 39  1  0  0  0  0
 42 39  1  0  0  0  0
M  END
