2,3,4,5
 OpenBabel05122313063D

 39 41  0  0  1  0  0  0  0  0999 V2000
   -6.3613   -0.3125    0.5166 Cl  0  0  0  0  0  0  0  0  0  0  0  0
   -0.8254   -1.9723   -0.5603 O   0  5  0  0  0  0  0  0  0  0  0  0
   -1.1998    0.4993    0.0101 N   0  0  0  0  0  2  0  0  0  0  0  0
    1.5810    0.8540    0.0275 N   0  0  0  0  0  2  0  0  0  0  0  0
    1.6179   -1.8250   -0.4029 N   0  0  0  0  0  2  0  0  0  0  0  0
   -2.0793   -1.6498   -0.3415 C   0  0  0  0  0  0  0  0  0  0  0  0
   -3.1549   -2.5713   -0.4410 C   0  0  0  0  0  0  0  0  0  0  0  0
   -4.4585   -2.1527   -0.1769 C   0  0  0  0  0  0  0  0  0  0  0  0
   -4.7165   -0.8093    0.1828 C   0  0  0  0  0  0  0  0  0  0  0  0
   -3.6821    0.1255    0.2759 C   0  0  0  0  0  0  0  0  0  0  0  0
   -2.3640   -0.2975    0.0102 C   0  0  0  0  0  0  0  0  0  0  0  0
   -1.2391    1.7982    0.2249 C   0  0  0  0  0  0  0  0  0  0  0  0
   -0.1138    2.6704    0.0926 C   0  0  0  0  0  0  0  0  0  0  0  0
   -0.3703    4.0707    0.0992 C   0  0  0  0  0  0  0  0  0  0  0  0
    0.6272    5.0046   -0.1560 C   0  0  0  0  0  0  0  0  0  0  0  0
    1.9272    4.5480   -0.4554 C   0  0  0  0  0  0  0  0  0  0  0  0
    2.2149    3.1832   -0.4341 C   0  0  0  0  0  0  0  0  0  0  0  0
    1.2306    2.2116   -0.1073 C   0  0  1  0  0  3  0  0  0  0  0  0
    2.8544    0.6048    0.3821 C   0  0  0  0  0  0  0  0  0  0  0  0
    3.5504   -0.6193    0.3513 C   0  0  0  0  0  0  0  0  0  0  0  0
    4.9254   -0.6571    0.7487 C   0  0  0  0  0  0  0  0  0  0  0  0
    5.6642   -1.8223    0.6743 C   0  0  0  0  0  0  0  0  0  0  0  0
    5.0445   -3.0147    0.1923 C   0  0  0  0  0  0  0  0  0  0  0  0
    3.7174   -3.0275   -0.1921 C   0  0  0  0  0  0  0  0  0  0  0  0
    2.9143   -1.8376   -0.1070 C   0  0  1  0  0  3  0  0  0  0  0  0
    1.2006   -2.7236   -0.6766 H   0  0  0  0  0  0  0  0  0  0  0  0
   -2.9356   -3.6119   -0.7192 H   0  0  0  0  0  0  0  0  0  0  0  0
   -5.2978   -2.8596   -0.2420 H   0  0  0  0  0  0  0  0  0  0  0  0
   -3.9207    1.1604    0.5547 H   0  0  0  0  0  0  0  0  0  0  0  0
   -2.2113    2.2740    0.4425 H   0  0  0  0  0  0  0  0  0  0  0  0
   -1.4033    4.4035    0.2854 H   0  0  0  0  0  0  0  0  0  0  0  0
    0.3957    6.0796   -0.1606 H   0  0  0  0  0  0  0  0  0  0  0  0
    2.7190    5.2628   -0.7251 H   0  0  0  0  0  0  0  0  0  0  0  0
    3.2237    2.8489   -0.7119 H   0  0  0  0  0  0  0  0  0  0  0  0
    3.4383    1.4716    0.7375 H   0  0  0  0  0  0  0  0  0  0  0  0
    5.3898    0.2761    1.1054 H   0  0  0  0  0  0  0  0  0  0  0  0
    6.7216   -1.8345    0.9745 H   0  0  0  0  0  0  0  0  0  0  0  0
    5.6339   -3.9425    0.1273 H   0  0  0  0  0  0  0  0  0  0  0  0
    3.2428   -3.9523   -0.5544 H   0  0  0  0  0  0  0  0  0  0  0  0
  2  6  1  0  0  0  0
  3 11  1  0  0  0  0
  3 12  1  0  0  0  0
  4 19  1  0  0  0  0
  6 11  1  0  0  0  0
  7  6  2  0  0  0  0
  7  8  1  0  0  0  0
  8  9  2  0  0  0  0
  9 10  1  0  0  0  0
  9  1  1  0  0  0  0
 10 29  1  0  0  0  0
 11 10  2  0  0  0  0
 12 30  1  0  0  0  0
 13 14  1  0  0  0  0
 13 12  2  0  0  0  0
 14 31  1  0  0  0  0
 15 14  2  0  0  0  0
 16 17  2  0  0  0  0
 16 15  1  0  0  0  0
 17 18  1  0  0  0  0
 18  4  1  1  0  0  0
 18 13  1  0  0  0  0
 19 35  1  0  0  0  0
 20 19  2  0  0  0  0
 20 21  1  0  0  0  0
 21 36  1  0  0  0  0
 22 21  2  0  0  0  0
 22 37  1  0  0  0  0
 23 22  1  0  0  0  0
 24 25  1  0  0  0  0
 24 23  2  0  0  0  0
 25  5  1  1  0  0  0
 25 20  1  0  0  0  0
 26  5  1  0  0  0  0
 27  7  1  0  0  0  0
 28  8  1  0  0  0  0
 32 15  1  0  0  0  0
 33 16  1  0  0  0  0
 34 17  1  0  0  0  0
 38 23  1  0  0  0  0
 39 24  1  0  0  0  0
M  CHG  1   2  -1
M  END
