1,2,3,4
 OpenBabel05122313063D

 31 31  0  0  0  0  0  0  0  0999 V2000
   -0.9383   -1.2731    0.0184 O   0  5  0  0  0  0  0  0  0  0  0  0
    0.0277    1.4829    0.1758 N   0  0  0  0  0  2  0  0  0  0  0  0
    2.7289    0.8072    0.2420 N   0  0  0  0  0  0  0  0  0  0  0  0
    2.0226   -1.6333   -1.0414 N   0  0  0  0  0  0  0  0  0  0  0  0
    0.9866    2.5539    0.3950 C   0  0  0  0  0  0  0  0  0  0  0  0
    2.3341    2.1556   -0.2208 C   0  0  0  0  0  0  0  0  0  0  0  0
    3.7189    0.0847   -0.5813 C   0  0  0  0  0  0  0  0  0  0  0  0
    3.4143   -1.4167   -0.5868 C   0  0  0  0  0  0  0  0  0  0  0  0
   -2.1136   -0.6883   -0.0755 C   0  0  0  0  0  0  0  0  0  0  0  0
   -3.2769   -1.5040   -0.1711 C   0  0  0  0  0  0  0  0  0  0  0  0
   -4.5495   -0.9545   -0.2893 C   0  0  0  0  0  0  0  0  0  0  0  0
   -4.7404    0.4485   -0.3125 C   0  0  0  0  0  0  0  0  0  0  0  0
   -3.6331    1.2751   -0.2080 C   0  0  0  0  0  0  0  0  0  0  0  0
   -2.3074    0.7525   -0.0853 C   0  0  0  0  0  0  0  0  0  0  0  0
   -1.2579    1.7197    0.0634 C   0  0  0  0  0  3  0  0  0  0  0  0
    3.0553    0.8568    1.2169 H   0  0  0  0  0  0  0  0  0  0  0  0
    1.7135   -2.5980   -0.8569 H   0  0  0  0  0  0  0  0  0  0  0  0
    1.9386   -1.4984   -2.0600 H   0  0  0  0  0  0  0  0  0  0  0  0
    1.1140    2.7229    1.4904 H   0  0  0  0  0  0  0  0  0  0  0  0
    0.6488    3.5214   -0.0367 H   0  0  0  0  0  0  0  0  0  0  0  0
    2.2241    2.1039   -1.3241 H   0  0  0  0  0  0  0  0  0  0  0  0
    3.1056    2.9256   -0.0019 H   0  0  0  0  0  0  0  0  0  0  0  0
    4.7637    0.2604   -0.2479 H   0  0  0  0  0  0  0  0  0  0  0  0
    3.6515    0.4774   -1.6179 H   0  0  0  0  0  0  0  0  0  0  0  0
    4.1571   -1.9521   -1.2147 H   0  0  0  0  0  0  0  0  0  0  0  0
    3.4902   -1.8267    0.4414 H   0  0  0  0  0  0  0  0  0  0  0  0
   -3.1258   -2.5933   -0.1596 H   0  0  0  0  0  0  0  0  0  0  0  0
   -5.4203   -1.6236   -0.3681 H   0  0  0  0  0  0  0  0  0  0  0  0
   -5.7495    0.8728   -0.4070 H   0  0  0  0  0  0  0  0  0  0  0  0
   -3.7608    2.3696   -0.2142 H   0  0  0  0  0  0  0  0  0  0  0  0
   -1.5918    2.7803    0.0925 H   0  0  0  0  0  0  0  0  0  0  0  0
  2  5  1  0  0  0  0
  3 16  1  0  0  0  0
  4 17  1  0  0  0  0
  4  8  1  0  0  0  0
  5 19  1  0  0  0  0
  6 22  1  0  0  0  0
  6  3  1  0  0  0  0
  6  5  1  0  0  0  0
  7 23  1  0  0  0  0
  7  3  1  0  0  0  0
  8  7  1  0  0  0  0
  8 26  1  0  0  0  0
  9  1  1  0  0  0  0
 10 27  1  0  0  0  0
 10  9  2  0  0  0  0
 11 10  1  0  0  0  0
 12 11  2  0  0  0  0
 12 13  1  0  0  0  0
 13 14  2  0  0  0  0
 14  9  1  0  0  0  0
 14 15  1  0  0  0  0
 15 31  1  0  0  0  0
 15  2  1  0  0  0  0
 18  4  1  0  0  0  0
 20  5  1  0  0  0  0
 21  6  1  0  0  0  0
 24  7  1  0  0  0  0
 25  8  1  0  0  0  0
 28 11  1  0  0  0  0
 29 12  1  0  0  0  0
 30 13  1  0  0  0  0
M  CHG  1   1  -1
M  END
