1,2,6,7
 OpenBabel05122313063D

 49 53  0  0  1  0  0  0  0  0999 V2000
   -1.1927   -1.2654   -0.5879 O   0  5  0  0  0  0  0  0  0  0  0  0
    1.3116    1.6080   -0.1793 N   0  0  0  0  0  2  0  0  0  0  0  0
   -2.6026    1.3476   -0.1456 C   0  0  0  0  0  3  0  0  0  0  0  0
   -3.3119    2.2024   -0.0654 H   0  0  0  0  0  0  0  0  0  0  0  0
   -2.4722   -1.1804   -0.4580 C   0  0  0  0  0  0  0  0  0  0  0  0
    2.0478   -0.8946   -0.1848 N   0  0  0  0  0  2  0  0  0  0  0  0
   -1.3027    1.5729   -0.1575 N   0  0  0  0  0  2  0  0  0  0  0  0
    2.6392    1.4549   -0.2294 C   0  0  0  0  0  0  0  0  0  0  0  0
    3.0045    0.0385   -0.2151 C   0  0  1  0  0  3  0  0  0  0  0  0
   -3.2138    0.0632   -0.2423 C   0  0  0  0  0  0  0  0  0  0  0  0
   -4.6419    0.0203   -0.1512 C   0  0  0  0  0  0  0  0  0  0  0  0
   -5.1742    0.9733    0.0094 H   0  0  0  0  0  0  0  0  0  0  0  0
    1.5021    4.0219   -0.2455 C   0  0  0  0  0  0  0  0  0  0  0  0
   -0.7270    2.8267   -0.1582 C   0  0  0  0  0  0  0  0  0  0  0  0
    0.7240    2.8143   -0.1918 C   0  0  0  0  0  0  0  0  0  0  0  0
   -1.3486    4.0887   -0.1656 C   0  0  0  0  0  0  0  0  0  0  0  0
   -2.4454    4.1636   -0.1474 H   0  0  0  0  0  0  0  0  0  0  0  0
   -4.6289   -2.3646   -0.4612 C   0  0  0  0  0  0  0  0  0  0  0  0
   -5.1881   -3.3129   -0.5411 H   0  0  0  0  0  0  0  0  0  0  0  0
    2.6862   -2.1143   -0.1528 C   0  0  0  0  0  0  0  0  0  0  0  0
    3.4959    2.5889   -0.2901 C   0  0  0  0  0  0  0  0  0  0  0  0
    4.5892    2.4751   -0.3351 H   0  0  0  0  0  0  0  0  0  0  0  0
   -3.2466   -2.4035   -0.5627 C   0  0  0  0  0  0  0  0  0  0  0  0
   -5.3647   -1.1568   -0.2527 C   0  0  0  0  0  0  0  0  0  0  0  0
    2.1503   -3.4148   -0.1049 C   0  0  0  0  0  0  0  0  0  0  0  0
    1.0599   -3.5529   -0.0813 H   0  0  0  0  0  0  0  0  0  0  0  0
    0.8161    5.2636   -0.2482 C   0  0  0  0  0  3  0  0  0  0  0  0
    1.3862    6.2037   -0.2842 H   0  0  0  0  0  0  0  0  0  0  0  0
   -0.5807    5.2748   -0.2064 C   0  0  0  0  0  0  0  0  0  0  0  0
   -1.1082    6.2411   -0.2105 H   0  0  0  0  0  0  0  0  0  0  0  0
   -2.4827   -3.6806   -0.7648 C   0  0  0  0  0  0  0  0  0  0  0  0
   -3.1602   -4.5504   -0.8631 H   0  0  0  0  0  0  0  0  0  0  0  0
   -1.7926   -3.8609    0.0873 H   0  0  0  0  0  0  0  0  0  0  0  0
   -1.8380   -3.6192   -1.6661 H   0  0  0  0  0  0  0  0  0  0  0  0
   -6.8675   -1.1948   -0.1497 C   0  0  0  0  0  0  0  0  0  0  0  0
   -7.2912   -0.1834    0.0051 H   0  0  0  0  0  0  0  0  0  0  0  0
   -7.2015   -1.8336    0.6959 H   0  0  0  0  0  0  0  0  0  0  0  0
   -7.3288   -1.6181   -1.0676 H   0  0  0  0  0  0  0  0  0  0  0  0
    3.0549   -4.4801   -0.0842 C   0  0  0  0  0  0  0  0  0  0  0  0
    2.6756   -5.5120   -0.0440 H   0  0  0  0  0  0  0  0  0  0  0  0
    4.2588   -0.5280   -0.2190 N   0  0  0  0  0  0  0  0  0  0  0  0
    5.1448   -0.0248   -0.2233 H   0  0  0  0  0  0  0  0  0  0  0  0
    4.1002   -1.9078   -0.1782 C   0  0  0  0  0  0  0  0  0  0  0  0
    5.0082   -2.9774   -0.1591 C   0  0  0  0  0  0  0  0  0  0  0  0
    6.0965   -2.8209   -0.1771 H   0  0  0  0  0  0  0  0  0  0  0  0
    2.9215    3.8549   -0.2934 C   0  0  0  0  0  0  0  0  0  0  0  0
    3.5617    4.7495   -0.3359 H   0  0  0  0  0  0  0  0  0  0  0  0
    4.4567   -4.2651   -0.1118 C   0  0  0  0  0  0  0  0  0  0  0  0
    5.1317   -5.1336   -0.0934 H   0  0  0  0  0  0  0  0  0  0  0  0
  1  5  1  0  0  0  0
  3  4  1  0  0  0  0
  5 10  1  0  0  0  0
  6 20  1  0  0  0  0
  7  3  1  0  0  0  0
  8  2  1  0  0  0  0
  9  8  1  1  0  0  0
  9  6  1  0  0  0  0
 10 11  2  0  0  0  0
 10  3  1  0  0  0  0
 11 12  1  0  0  0  0
 13 15  1  0  0  0  0
 14  7  1  0  0  0  0
 15  2  1  0  0  0  0
 15 14  2  0  0  0  0
 16 14  1  0  0  0  0
 16 17  1  0  0  0  0
 18 24  2  0  0  0  0
 19 18  1  0  0  0  0
 20 25  1  0  0  0  0
 21  8  2  0  0  0  0
 22 21  1  0  0  0  0
 23 18  1  0  0  0  0
 23  5  2  0  0  0  0
 24 11  1  0  0  0  0
 24 35  1  0  0  0  0
 25 39  2  0  0  0  0
 25 26  1  0  0  0  0
 27 13  1  0  0  0  0
 27 29  1  0  0  0  0
 28 27  1  0  0  0  0
 29 16  2  0  0  0  0
 30 29  1  0  0  0  0
 31 23  1  0  0  0  0
 31 33  1  0  0  0  0
 32 31  1  0  0  0  0
 34 31  1  0  0  0  0
 35 36  1  0  0  0  0
 35 37  1  0  0  0  0
 38 35  1  0  0  0  0
 39 40  1  0  0  0  0
 41  9  1  0  0  0  0
 41 43  1  0  0  0  0
 42 41  1  0  0  0  0
 43 44  1  0  0  0  0
 43 20  2  0  0  0  0
 44 48  2  0  0  0  0
 45 44  1  0  0  0  0
 46 21  1  0  0  0  0
 46 13  2  0  0  0  0
 47 46  1  0  0  0  0
 48 49  1  0  0  0  0
 48 39  1  0  0  0  0
M  CHG  1   1  -1
M  END
