1,2,3,5
 OpenBabel05122313063D

 62 65  0  0  1  0  0  0  0  0999 V2000
   -1.7880   -0.4637    1.2656 N   0  0  0  0  0  0  0  0  0  0  0  0
    0.0522    1.3511    0.6406 N   0  0  0  0  0  2  0  0  0  0  0  0
    1.8560   -0.7355    0.3136 N   0  0  0  0  0  2  0  0  0  0  0  0
   -1.2318    3.0355    1.6636 O   0  0  0  0  0  0  0  0  0  0  0  0
    0.0084   -2.3693    1.0000 O   0  5  0  0  0  0  0  0  0  0  0  0
    1.2869   -4.2242    1.0771 O   0  0  0  0  0  0  0  0  0  0  0  0
   -5.2584   -0.2354   -0.5408 S   0  0  0  0  0  0  0  0  0  0  0  0
   -6.4367    0.5879   -1.6442 C   0  0  0  0  0  0  0  0  0  0  0  0
   -7.3233    0.7989   -1.0167 H   0  0  0  0  0  0  0  0  0  0  0  0
   -6.7412   -0.0679   -2.4836 H   0  0  0  0  0  0  0  0  0  0  0  0
   -6.0355    1.5447   -2.0323 H   0  0  0  0  0  0  0  0  0  0  0  0
   -3.8379   -0.5095   -1.5837 C   0  0  0  0  0  0  0  0  0  0  0  0
   -3.8191   -0.1741   -2.9541 C   0  0  0  0  0  0  0  0  0  0  0  0
   -4.6996    0.2755   -3.4312 H   0  0  0  0  0  0  0  0  0  0  0  0
   -2.6725   -0.4078   -3.7264 C   0  0  0  0  0  0  0  0  0  0  0  0
   -2.6779   -0.1334   -4.7924 H   0  0  0  0  0  0  0  0  0  0  0  0
   -1.5353   -0.9915   -3.1513 C   0  0  0  0  0  0  0  0  0  0  0  0
   -0.6390   -1.1862   -3.7580 H   0  0  0  0  0  0  0  0  0  0  0  0
   -1.5547   -1.3327   -1.7925 C   0  0  0  0  0  0  0  0  0  0  0  0
   -0.6801   -1.8066   -1.3221 H   0  0  0  0  0  0  0  0  0  0  0  0
   -2.6853   -1.0933   -0.9889 C   0  0  0  0  0  0  0  0  0  0  0  0
   -2.6246   -1.4343    0.4798 C   0  0  0  0  0  0  0  0  0  0  0  0
   -2.1431   -2.4195    0.6255 H   0  0  0  0  0  0  0  0  0  0  0  0
   -3.6441   -1.4707    0.9186 H   0  0  0  0  0  0  0  0  0  0  0  0
   -1.8463   -0.7736    2.7317 C   0  0  0  0  0  0  0  0  0  0  0  0
   -1.7461   -1.8637    2.8795 H   0  0  0  0  0  0  0  0  0  0  0  0
   -0.9696   -0.2859    3.2041 H   0  0  0  0  0  0  0  0  0  0  0  0
   -3.1475   -0.1283    3.2235 C   0  0  0  0  0  0  0  0  0  0  0  0
   -3.0999    0.0993    4.3058 H   0  0  0  0  0  0  0  0  0  0  0  0
   -4.0065   -0.8140    3.0763 H   0  0  0  0  0  0  0  0  0  0  0  0
   -3.2849    1.1383    2.3449 C   0  0  0  0  0  0  0  0  0  0  0  0
   -3.0071    2.0696    2.8769 H   0  0  0  0  0  0  0  0  0  0  0  0
   -4.3141    1.2613    1.9607 H   0  0  0  0  0  0  0  0  0  0  0  0
   -2.2838    0.9352    1.1882 C   0  0  1  0  0  0  0  0  0  0  0  0
   -2.7513    1.0895    0.1938 H   0  0  0  0  0  0  0  0  0  0  0  0
   -1.0908    1.8970    1.2199 C   0  0  0  0  0  0  0  0  0  0  0  0
    1.0883    2.1588    0.1870 C   0  0  0  0  0  0  0  0  0  0  0  0
    0.9110    3.5623   -0.0087 C   0  0  0  0  0  0  0  0  0  0  0  0
   -0.0492    4.0063    0.2684 H   0  0  0  0  0  0  0  0  0  0  0  0
    1.9228    4.3733   -0.5120 C   0  0  0  0  0  0  0  0  0  0  0  0
    1.7242    5.4476   -0.6493 H   0  0  0  0  0  0  0  0  0  0  0  0
    3.1838    3.8376   -0.8396 C   0  0  0  0  0  0  0  0  0  0  0  0
    3.9884    4.4771   -1.2303 H   0  0  0  0  0  0  0  0  0  0  0  0
    3.3908    2.4767   -0.6619 C   0  0  0  0  0  3  0  0  0  0  0  0
    4.3654    2.0422   -0.9210 H   0  0  0  0  0  0  0  0  0  0  0  0
    2.3766    1.6067   -0.1619 C   0  0  0  0  0  0  0  0  0  0  0  0
    2.7161    0.2000   -0.0366 C   0  0  0  0  0  0  0  0  0  0  0  0
    5.1024   -0.1827    0.6928 C   0  0  0  0  0  0  0  0  0  0  0  0
    4.8267    0.1909    1.6907 H   0  0  0  0  0  0  0  0  0  0  0  0
    6.4137   -0.6078    0.4318 C   0  0  0  0  0  0  0  0  0  0  0  0
    7.1683   -0.5722    1.2321 H   0  0  0  0  0  0  0  0  0  0  0  0
    6.7632   -1.0737   -0.8455 C   0  0  0  0  0  0  0  0  0  0  0  0
    7.7922   -1.4063   -1.0490 H   0  0  0  0  0  0  0  0  0  0  0  0
    5.7973   -1.1112   -1.8639 C   0  0  0  0  0  0  0  0  0  0  0  0
    6.0677   -1.4702   -2.8684 H   0  0  0  0  0  0  0  0  0  0  0  0
    4.4847   -0.6897   -1.6053 C   0  0  0  0  0  0  0  0  0  0  0  0
    3.7262   -0.7122   -2.4029 H   0  0  0  0  0  0  0  0  0  0  0  0
    4.1283   -0.2228   -0.3243 C   0  0  0  0  0  0  0  0  0  0  0  0
    2.3024   -2.1291    0.4374 C   0  0  0  0  0  0  0  0  0  0  0  0
    3.1369   -2.2216    1.1635 H   0  0  0  0  0  0  0  0  0  0  0  0
    2.6991   -2.5120   -0.5261 H   0  0  0  0  0  0  0  0  0  0  0  0
    1.1455   -3.0279    0.8801 C   0  0  0  0  0  0  0  0  0  0  0  0
  1 25  1  0  0  0  0
  2 36  1  0  0  0  0
  3 59  1  0  0  0  0
  8  9  1  0  0  0  0
  8  7  1  0  0  0  0
 10  8  1  0  0  0  0
 11  8  1  0  0  0  0
 12 21  1  0  0  0  0
 12  7  1  0  0  0  0
 13 12  2  0  0  0  0
 14 13  1  0  0  0  0
 15 17  2  0  0  0  0
 15 13  1  0  0  0  0
 16 15  1  0  0  0  0
 17 19  1  0  0  0  0
 18 17  1  0  0  0  0
 19 20  1  0  0  0  0
 19 21  2  0  0  0  0
 21 22  1  0  0  0  0
 22 23  1  0  0  0  0
 22 24  1  0  0  0  0
 22  1  1  0  0  0  0
 25 26  1  0  0  0  0
 25 27  1  0  0  0  0
 25 28  1  0  0  0  0
 28 29  1  0  0  0  0
 30 28  1  0  0  0  0
 31 32  1  0  0  0  0
 31 28  1  0  0  0  0
 33 31  1  0  0  0  0
 34 35  1  6  0  0  0
 34 36  1  0  0  0  0
 34  1  1  0  0  0  0
 34 31  1  0  0  0  0
 36  4  2  0  0  0  0
 37  2  1  0  0  0  0
 38 37  2  0  0  0  0
 38 39  1  0  0  0  0
 40 38  1  0  0  0  0
 41 40  1  0  0  0  0
 42 44  1  0  0  0  0
 42 40  2  0  0  0  0
 43 42  1  0  0  0  0
 44 46  1  0  0  0  0
 45 44  1  0  0  0  0
 46 47  2  0  0  0  0
 46 37  1  0  0  0  0
 47  3  1  0  0  0  0
 48 49  1  0  0  0  0
 50 48  1  0  0  0  0
 50 51  1  0  0  0  0
 52 50  2  0  0  0  0
 53 52  1  0  0  0  0
 54 56  2  0  0  0  0
 54 52  1  0  0  0  0
 55 54  1  0  0  0  0
 56 58  1  0  0  0  0
 57 56  1  0  0  0  0
 58 47  1  0  0  0  0
 58 48  2  0  0  0  0
 59 62  1  0  0  0  0
 59 60  1  0  0  0  0
 61 59  1  0  0  0  0
 62  5  1  0  0  0  0
 62  6  2  0  0  0  0
M  CHG  1   5  -1
M  END
