1,2,3,4
 OpenBabel05122313063D

 65 68  0  0  1  0  0  0  0  0999 V2000
   -0.7146    1.1539    0.4182 N   0  0  0  0  0  0  0  0  0  0  0  0
    1.6906   -0.3618    0.2166 N   0  0  0  0  0  0  0  0  0  0  0  0
   -2.2009   -1.0553    0.6836 N   0  0  0  0  0  2  0  0  0  0  0  0
    0.0622   -0.7584    2.2913 O   0  5  0  0  0  0  0  0  0  0  0  0
    1.7567   -0.5425    3.7593 O   0  0  0  0  0  0  0  0  0  0  0  0
    1.7678    1.1593    0.2568 C   0  0  2  0  0  0  0  0  0  0  0  0
    1.7525    1.4763   -0.8072 H   0  0  0  0  0  0  0  0  0  0  0  0
    3.0486    1.7124    0.9138 C   0  0  0  0  0  0  0  0  0  0  0  0
    3.9437    1.2852    0.4252 H   0  0  0  0  0  0  0  0  0  0  0  0
    3.0695    1.3963    1.9776 H   0  0  0  0  0  0  0  0  0  0  0  0
    3.0892    3.2430    0.8715 C   0  0  0  0  0  0  0  0  0  0  0  0
    4.0291    3.5991    1.3403 H   0  0  0  0  0  0  0  0  0  0  0  0
    3.1138    3.5924   -0.1850 H   0  0  0  0  0  0  0  0  0  0  0  0
    1.8699    3.8334    1.5834 C   0  0  0  0  0  0  0  0  0  0  0  0
    1.8835    4.9421    1.5462 H   0  0  0  0  0  0  0  0  0  0  0  0
    1.8961    3.5498    2.6582 H   0  0  0  0  0  0  0  0  0  0  0  0
    0.5843    3.3075    0.9374 C   0  0  0  0  0  0  0  0  0  0  0  0
   -0.3136    3.7051    1.4558 H   0  0  0  0  0  0  0  0  0  0  0  0
    0.5499    3.6910   -0.1041 H   0  0  0  0  0  0  0  0  0  0  0  0
    0.5416    1.7683    0.9518 C   0  0  1  0  0  0  0  0  0  0  0  0
    0.5792    1.4642    2.0144 H   0  0  0  0  0  0  0  0  0  0  0  0
   -1.1079    1.7157   -0.9333 C   0  0  0  0  0  0  0  0  0  0  0  0
   -0.5482    1.1441   -1.6946 H   0  0  0  0  0  0  0  0  0  0  0  0
   -0.7833    2.7722   -0.9715 H   0  0  0  0  0  0  0  0  0  0  0  0
   -2.5827    1.6896   -1.2639 C   0  0  0  0  0  0  0  0  0  0  0  0
   -3.1416    0.6573   -2.0445 C   0  0  0  0  0  0  0  0  0  0  0  0
   -2.4867   -0.1261   -2.4490 H   0  0  0  0  0  0  0  0  0  0  0  0
   -4.5170    0.6386   -2.3182 C   0  0  0  0  0  0  0  0  0  0  0  0
   -4.9359   -0.1788   -2.9244 H   0  0  0  0  0  0  0  0  0  0  0  0
   -5.3528    1.6549   -1.8295 C   0  0  0  0  0  0  0  0  0  0  0  0
   -6.4327    1.6349   -2.0421 H   0  0  0  0  0  0  0  0  0  0  0  0
   -4.7993    2.7155   -1.0936 C   0  0  0  0  0  0  0  0  0  0  0  0
   -5.4405    3.5366   -0.7383 H   0  0  0  0  0  0  0  0  0  0  0  0
   -3.4238    2.7352   -0.8242 C   0  0  0  0  0  0  0  0  0  0  0  0
   -2.9920    3.5816   -0.2654 H   0  0  0  0  0  0  0  0  0  0  0  0
    2.2840   -0.8848   -1.0642 C   0  0  0  0  0  0  0  0  0  0  0  0
    1.6445   -0.4977   -1.8791 H   0  0  0  0  0  0  0  0  0  0  0  0
    2.1265   -1.9786   -1.0284 H   0  0  0  0  0  0  0  0  0  0  0  0
    3.7314   -0.5339   -1.3124 C   0  0  0  0  0  0  0  0  0  0  0  0
    4.7751   -1.2476   -0.6857 C   0  0  0  0  0  0  0  0  0  0  0  0
    4.5337   -2.1046   -0.0391 H   0  0  0  0  0  0  0  0  0  0  0  0
    6.1146   -0.8829   -0.8857 C   0  0  0  0  0  0  0  0  0  0  0  0
    6.9154   -1.4486   -0.3857 H   0  0  0  0  0  0  0  0  0  0  0  0
    6.4352    0.1925   -1.7301 C   0  0  0  0  0  0  0  0  0  0  0  0
    7.4865    0.4772   -1.8877 H   0  0  0  0  0  0  0  0  0  0  0  0
    5.4092    0.8885   -2.3886 C   0  0  0  0  0  0  0  0  0  0  0  0
    5.6532    1.7169   -3.0711 H   0  0  0  0  0  0  0  0  0  0  0  0
    4.0706    0.5233   -2.1824 C   0  0  0  0  0  0  0  0  0  0  0  0
    3.2682    1.0653   -2.7085 H   0  0  0  0  0  0  0  0  0  0  0  0
    2.2728   -0.9914    1.4321 C   0  0  0  0  0  0  0  0  0  0  0  0
    2.3294   -2.0803    1.2441 H   0  0  0  0  0  0  0  0  0  0  0  0
    3.2934   -0.6351    1.6576 H   0  0  0  0  0  0  0  0  0  0  0  0
    1.3354   -0.7456    2.6279 C   0  0  0  0  0  0  0  0  0  0  0  0
   -1.7965    1.1944    1.4343 C   0  0  0  0  0  0  0  0  0  0  0  0
   -2.3140    2.1737    1.4855 H   0  0  0  0  0  0  0  0  0  0  0  0
   -1.3140    0.9865    2.4107 H   0  0  0  0  0  0  0  0  0  0  0  0
   -2.7662    0.0823    1.1627 C   0  0  2  0  0  3  0  0  0  0  0  0
   -4.1452    0.1779    1.3857 C   0  0  0  0  0  0  0  0  0  0  0  0
   -4.5653    1.1196    1.7642 H   0  0  0  0  0  0  0  0  0  0  0  0
   -4.9625   -0.9148    1.0759 C   0  0  0  0  0  0  0  0  0  0  0  0
   -6.0503   -0.8584    1.2293 H   0  0  0  0  0  0  0  0  0  0  0  0
   -4.3718   -2.0681    0.5433 C   0  0  0  0  0  0  0  0  0  0  0  0
   -4.9718   -2.9446    0.2623 H   0  0  0  0  0  0  0  0  0  0  0  0
   -2.9857   -2.1037    0.3604 C   0  0  0  0  0  0  0  0  0  0  0  0
   -2.4814   -2.9786   -0.0643 H   0  0  0  0  0  0  0  0  0  0  0  0
  1 20  1  0  0  0  0
  1 54  1  0  0  0  0
  2  6  1  0  0  0  0
  2 50  1  0  0  0  0
  3 57  1  0  0  0  0
  4 53  1  0  0  0  0
  6  7  1  6  0  0  0
  6  8  1  0  0  0  0
  6 20  1  0  0  0  0
  8 10  1  0  0  0  0
  9  8  1  0  0  0  0
 11  8  1  0  0  0  0
 11 12  1  0  0  0  0
 11 14  1  0  0  0  0
 13 11  1  0  0  0  0
 14 16  1  0  0  0  0
 15 14  1  0  0  0  0
 17 20  1  0  0  0  0
 17 18  1  0  0  0  0
 17 14  1  0  0  0  0
 19 17  1  0  0  0  0
 20 21  1  1  0  0  0
 22  1  1  0  0  0  0
 23 22  1  0  0  0  0
 24 22  1  0  0  0  0
 25 22  1  0  0  0  0
 25 34  1  0  0  0  0
 26 25  2  0  0  0  0
 27 26  1  0  0  0  0
 28 26  1  0  0  0  0
 28 30  2  0  0  0  0
 29 28  1  0  0  0  0
 30 32  1  0  0  0  0
 31 30  1  0  0  0  0
 32 34  2  0  0  0  0
 32 33  1  0  0  0  0
 34 35  1  0  0  0  0
 36 38  1  0  0  0  0
 36  2  1  0  0  0  0
 37 36  1  0  0  0  0
 39 36  1  0  0  0  0
 39 40  1  0  0  0  0
 40 41  1  0  0  0  0
 42 40  2  0  0  0  0
 42 43  1  0  0  0  0
 44 42  1  0  0  0  0
 45 44  1  0  0  0  0
 46 48  1  0  0  0  0
 46 44  2  0  0  0  0
 47 46  1  0  0  0  0
 48 39  2  0  0  0  0
 49 48  1  0  0  0  0
 50 52  1  0  0  0  0
 50 53  1  0  0  0  0
 51 50  1  0  0  0  0
 53  5  2  0  0  0  0
 54 55  1  0  0  0  0
 54 56  1  0  0  0  0
 57 58  1  0  0  0  0
 57 54  1  1  0  0  0
 58 59  1  0  0  0  0
 60 61  1  0  0  0  0
 60 58  2  0  0  0  0
 62 60  1  0  0  0  0
 63 62  1  0  0  0  0
 64 62  2  0  0  0  0
 64  3  1  0  0  0  0
 65 64  1  0  0  0  0
M  CHG  1   4  -1
M  END
