3,5,6,7
 OpenBabel05122313063D

 50 52  0  0  1  0  0  0  0  0999 V2000
   -4.0601    0.0532   -0.5239 O   0  0  0  0  0  0  0  0  0  0  0  0
    3.8147    1.2805    0.7751 O   0  0  0  0  0  0  0  0  0  0  0  0
    0.3181   -1.5277   -0.9629 O   0  0  0  0  0  1  0  0  0  0  0  0
    1.1787   -2.4262   -0.2595 O   0  0  0  0  0  0  0  0  0  0  0  0
   -1.8177   -0.2213   -0.4395 N   0  0  0  0  0  2  0  0  0  0  0  0
   -0.3148    2.0792   -0.0289 N   0  0  0  0  0  2  0  0  0  0  0  0
    1.8376    0.3451    0.1984 N   0  0  0  0  0  2  0  0  0  0  0  0
   -2.3593   -1.5966   -0.4495 C   0  0  2  0  0  0  0  0  0  0  0  0
   -1.8372   -2.1766   -1.2332 H   0  0  0  0  0  0  0  0  0  0  0  0
   -3.8398   -1.3499   -0.8013 C   0  0  0  0  0  0  0  0  0  0  0  0
   -4.0573   -1.5285   -1.8761 H   0  0  0  0  0  0  0  0  0  0  0  0
   -4.5529   -1.9380   -0.1907 H   0  0  0  0  0  0  0  0  0  0  0  0
   -2.8325    0.6224   -0.4183 C   0  0  2  0  0  3  0  0  0  0  0  0
   -2.7517    2.0324   -0.2726 C   0  0  0  0  0  0  0  0  0  0  0  0
   -3.6884    2.6024   -0.2980 H   0  0  0  0  0  0  0  0  0  0  0  0
   -1.5513    2.6836   -0.0834 C   0  0  0  0  0  0  0  0  0  0  0  0
   -1.4294    4.1799    0.1311 C   0  0  0  0  0  0  0  0  0  0  0  0
   -1.8080    4.4344    1.1446 H   0  0  0  0  0  0  0  0  0  0  0  0
   -2.0395    4.7540   -0.5930 H   0  0  0  0  0  0  0  0  0  0  0  0
    0.0808    4.4262    0.0150 C   0  0  0  0  0  0  0  0  0  0  0  0
    0.3501    4.8572   -0.9737 H   0  0  0  0  0  0  0  0  0  0  0  0
    0.4909    5.1083    0.7850 H   0  0  0  0  0  0  0  0  0  0  0  0
    0.6643    3.0315    0.1211 C   0  0  2  0  0  3  0  0  0  0  0  0
    2.0088    2.7789    0.3216 C   0  0  0  0  0  0  0  0  0  0  0  0
    2.7122    3.6106    0.4483 H   0  0  0  0  0  0  0  0  0  0  0  0
    2.5171    1.4607    0.4073 C   0  0  0  0  0  0  0  0  0  0  0  0
    4.0876   -0.1310    0.6357 C   0  0  0  0  0  0  0  0  0  0  0  0
    4.6934   -0.4581    1.5012 H   0  0  0  0  0  0  0  0  0  0  0  0
    4.6741   -0.2840   -0.2968 H   0  0  0  0  0  0  0  0  0  0  0  0
    2.6975   -0.7865    0.5676 C   0  0  2  0  0  0  0  0  0  0  0  0
    2.3854   -1.1481    1.5748 H   0  0  0  0  0  0  0  0  0  0  0  0
    2.5474   -2.0030   -0.3768 C   0  0  0  0  0  0  0  0  0  0  0  0
    2.9043   -1.6904   -1.8307 C   0  0  0  0  0  0  0  0  0  0  0  0
    2.6052   -2.5452   -2.4673 H   0  0  0  0  0  0  0  0  0  0  0  0
    3.9938   -1.5305   -1.9532 H   0  0  0  0  0  0  0  0  0  0  0  0
    2.3608   -0.7932   -2.1778 H   0  0  0  0  0  0  0  0  0  0  0  0
    3.3431   -3.1895    0.1695 C   0  0  0  0  0  0  0  0  0  0  0  0
    3.0134   -3.4383    1.1979 H   0  0  0  0  0  0  0  0  0  0  0  0
    4.4284   -2.9650    0.1882 H   0  0  0  0  0  0  0  0  0  0  0  0
    3.1800   -4.0775   -0.4712 H   0  0  0  0  0  0  0  0  0  0  0  0
   -2.1035   -2.3076    0.9019 C   0  0  0  0  0  0  0  0  0  0  0  0
   -0.9988   -2.3013    1.0113 H   0  0  0  0  0  0  0  0  0  0  0  0
   -2.7126   -1.5622    2.0932 C   0  0  0  0  0  0  0  0  0  0  0  0
   -2.3267   -0.5248    2.1539 H   0  0  0  0  0  0  0  0  0  0  0  0
   -2.4579   -2.0712    3.0449 H   0  0  0  0  0  0  0  0  0  0  0  0
   -3.8209   -1.5123    2.0348 H   0  0  0  0  0  0  0  0  0  0  0  0
   -2.5576   -3.7690    0.8362 C   0  0  0  0  0  0  0  0  0  0  0  0
   -3.6584   -3.8570    0.7074 H   0  0  0  0  0  0  0  0  0  0  0  0
   -2.2971   -4.3055    1.7709 H   0  0  0  0  0  0  0  0  0  0  0  0
   -2.0720   -4.3033   -0.0058 H   0  0  0  0  0  0  0  0  0  0  0  0
  1 13  1  0  0  0  0
  3  4  1  0  0  0  0
  5 13  1  0  0  0  0
  6 23  1  0  0  0  0
  7 26  1  0  0  0  0
  7 30  1  0  0  0  0
  8  9  1  6  0  0  0
  8  5  1  0  0  0  0
  8 41  1  0  0  0  0
 10  1  1  0  0  0  0
 10  8  1  0  0  0  0
 10 12  1  0  0  0  0
 11 10  1  0  0  0  0
 13 14  1  1  0  0  0
 14 16  2  0  0  0  0
 15 14  1  0  0  0  0
 16  6  1  0  0  0  0
 16 17  1  0  0  0  0
 17 18  1  0  0  0  0
 19 17  1  0  0  0  0
 20 23  1  0  0  0  0
 20 17  1  0  0  0  0
 20 22  1  0  0  0  0
 21 20  1  0  0  0  0
 23 24  1  6  0  0  0
 24 26  2  0  0  0  0
 24 25  1  0  0  0  0
 26  2  1  0  0  0  0
 27  2  1  0  0  0  0
 27 28  1  0  0  0  0
 29 27  1  0  0  0  0
 30 27  1  0  0  0  0
 30 31  1  1  0  0  0
 32  4  1  0  0  0  0
 32 37  1  0  0  0  0
 32 30  1  0  0  0  0
 33 32  1  0  0  0  0
 34 33  1  0  0  0  0
 35 33  1  0  0  0  0
 36 33  1  0  0  0  0
 37 39  1  0  0  0  0
 37 38  1  0  0  0  0
 40 37  1  0  0  0  0
 41 42  1  0  0  0  0
 41 43  1  0  0  0  0
 43 44  1  0  0  0  0
 43 45  1  0  0  0  0
 46 43  1  0  0  0  0
 47 41  1  0  0  0  0
 47 49  1  0  0  0  0
 48 47  1  0  0  0  0
 50 47  1  0  0  0  0
M  END
