4,8,9,10
 OpenBabel05122313063D

 68 71  0  0  1  0  0  0  0  0999 V2000
   -4.5852   -0.7192   -0.2934 F   0  0  0  0  0  0  0  0  0  0  0  0
   -4.4472   -2.4747   -1.5795 F   0  0  0  0  0  0  0  0  0  0  0  0
   -4.1310   -2.6710    0.5693 F   0  0  0  0  0  0  0  0  0  0  0  0
    0.0470   -1.9658    1.4987 O   0  5  0  0  0  0  0  0  0  0  0  0
   -1.9485   -2.3410    2.4793 O   0  0  0  0  0  0  0  0  0  0  0  0
    3.5644   -0.0317   -2.5122 O   0  0  0  0  0  0  0  0  0  0  0  0
   -2.3410   -0.8049   -1.8556 O   0  0  0  0  0  0  0  0  0  0  0  0
   -0.7195    0.0031    0.1173 N   0  0  0  0  0  2  0  0  0  0  0  0
    1.7708    0.2068   -1.0093 N   0  0  0  0  0  2  0  0  0  0  0  0
    2.5589   -1.8563    0.4841 N   0  0  0  0  0  0  0  0  0  0  0  0
   -1.2565   -1.7959    1.6358 C   0  0  0  0  0  0  0  0  0  0  0  0
   -1.8233   -0.8404    0.5626 C   0  0  2  0  0  0  0  0  0  0  0  0
   -0.8946    1.2684   -0.2126 C   0  0  0  0  0  0  0  0  0  0  0  0
    0.1536    2.0651   -0.8303 C   0  0  0  0  0  0  0  0  0  0  0  0
   -0.1062    3.4529   -1.0193 C   0  0  0  0  0  0  0  0  0  0  0  0
    0.7929    4.2976   -1.6579 C   0  0  0  0  0  0  0  0  0  0  0  0
    1.9899    3.7502   -2.1585 C   0  0  0  0  0  0  0  0  0  0  0  0
    2.2818    2.3985   -1.9989 C   0  0  0  0  0  0  0  0  0  0  0  0
    1.4064    1.5163   -1.2990 C   0  0  1  0  0  3  0  0  0  0  0  0
    2.9165   -0.3799   -1.5257 C   0  0  0  0  0  0  0  0  0  0  0  0
    3.4117   -1.5845   -0.7205 C   0  0  2  0  0  0  0  0  0  0  0  0
    3.4388   -2.9002   -1.5364 C   0  0  0  0  0  0  0  0  0  0  0  0
    2.3076   -3.7405   -0.9313 C   0  0  0  0  0  0  0  0  0  0  0  0
    2.3583   -3.3375    0.5353 C   0  0  0  0  0  0  0  0  0  0  0  0
    3.1029   -1.3222    1.7730 C   0  0  0  0  0  0  0  0  0  0  0  0
    3.0497    0.1867    1.8431 C   0  0  0  0  0  0  0  0  0  0  0  0
    4.0851    0.9808    1.3179 C   0  0  0  0  0  0  0  0  0  0  0  0
    3.9586    2.3782    1.2628 C   0  0  0  0  0  0  0  0  0  0  0  0
    2.7994    2.9981    1.7508 C   0  0  0  0  0  0  0  0  0  0  0  0
    1.7770    2.2169    2.3137 C   0  0  0  0  0  0  0  0  0  0  0  0
    1.8994    0.8214    2.3600 C   0  0  0  0  0  0  0  0  0  0  0  0
   -2.3980   -1.6248   -0.7015 C   0  0  2  0  0  0  0  0  0  0  0  0
   -1.6837   -2.9551   -0.9482 C   0  0  0  0  0  0  0  0  0  0  0  0
   -3.9112   -1.8748   -0.4939 C   0  0  0  0  0  0  0  0  0  0  0  0
   -2.2049    1.9278    0.1070 C   0  0  0  0  0  0  0  0  0  0  0  0
   -2.4125    2.4112    1.4157 C   0  0  0  0  0  0  0  0  0  0  0  0
   -3.6213    3.0363    1.7542 C   0  0  0  0  0  0  0  0  0  0  0  0
   -4.6307    3.1812    0.7894 C   0  0  0  0  0  0  0  0  0  0  0  0
   -4.4278    2.6971   -0.5123 C   0  0  0  0  0  0  0  0  0  0  0  0
   -3.2205    2.0729   -0.8566 C   0  0  0  0  0  0  0  0  0  0  0  0
   -1.3942   -0.6637   -2.0517 H   0  0  0  0  0  0  0  0  0  0  0  0
   -2.6436   -0.2337    0.9875 H   0  0  0  0  0  0  0  0  0  0  0  0
   -1.0553    3.8571   -0.6432 H   0  0  0  0  0  0  0  0  0  0  0  0
    0.5620    5.3655   -1.7811 H   0  0  0  0  0  0  0  0  0  0  0  0
    2.7141    4.3910   -2.6854 H   0  0  0  0  0  0  0  0  0  0  0  0
    3.2070    1.9836   -2.4097 H   0  0  0  0  0  0  0  0  0  0  0  0
    4.4415   -1.3161   -0.4034 H   0  0  0  0  0  0  0  0  0  0  0  0
    4.4104   -3.4130   -1.3910 H   0  0  0  0  0  0  0  0  0  0  0  0
    3.3360   -2.6936   -2.6185 H   0  0  0  0  0  0  0  0  0  0  0  0
    2.4420   -4.8294   -1.0767 H   0  0  0  0  0  0  0  0  0  0  0  0
    1.3251   -3.4623   -1.3653 H   0  0  0  0  0  0  0  0  0  0  0  0
    1.4505   -3.5553    1.1270 H   0  0  0  0  0  0  0  0  0  0  0  0
    3.2425   -3.7983    1.0332 H   0  0  0  0  0  0  0  0  0  0  0  0
    4.1451   -1.6956    1.8963 H   0  0  0  0  0  0  0  0  0  0  0  0
    2.4744   -1.7627    2.5707 H   0  0  0  0  0  0  0  0  0  0  0  0
    4.9989    0.5030    0.9309 H   0  0  0  0  0  0  0  0  0  0  0  0
    4.7681    2.9840    0.8292 H   0  0  0  0  0  0  0  0  0  0  0  0
    2.6908    4.0912    1.6923 H   0  0  0  0  0  0  0  0  0  0  0  0
    0.8736    2.7014    2.7143 H   0  0  0  0  0  0  0  0  0  0  0  0
    1.0984    0.2075    2.7993 H   0  0  0  0  0  0  0  0  0  0  0  0
   -2.0606   -3.4026   -1.8864 H   0  0  0  0  0  0  0  0  0  0  0  0
   -0.5959   -2.7641   -1.0392 H   0  0  0  0  0  0  0  0  0  0  0  0
   -1.8402   -3.6611   -0.1117 H   0  0  0  0  0  0  0  0  0  0  0  0
   -1.6185    2.2910    2.1687 H   0  0  0  0  0  0  0  0  0  0  0  0
   -3.7756    3.4085    2.7781 H   0  0  0  0  0  0  0  0  0  0  0  0
   -5.5814    3.6673    1.0556 H   0  0  0  0  0  0  0  0  0  0  0  0
   -5.2216    2.7964   -1.2678 H   0  0  0  0  0  0  0  0  0  0  0  0
   -3.0694    1.6614   -1.8633 H   0  0  0  0  0  0  0  0  0  0  0  0
  2 34  1  0  0  0  0
  4 11  1  0  0  0  0
  6 20  2  0  0  0  0
  8 12  1  0  0  0  0
 10 24  1  0  0  0  0
 10 25  1  0  0  0  0
 11  5  2  0  0  0  0
 12 42  1  1  0  0  0
 12 11  1  0  0  0  0
 13 35  1  0  0  0  0
 13  8  1  0  0  0  0
 14 13  2  0  0  0  0
 15 14  1  0  0  0  0
 15 43  1  0  0  0  0
 16 15  2  0  0  0  0
 17 18  2  0  0  0  0
 17 16  1  0  0  0  0
 18 19  1  0  0  0  0
 19  9  1  1  0  0  0
 19 14  1  0  0  0  0
 20  9  1  0  0  0  0
 20 21  1  0  0  0  0
 21 47  1  1  0  0  0
 21 10  1  0  0  0  0
 22 48  1  0  0  0  0
 22 23  1  0  0  0  0
 22 21  1  0  0  0  0
 23 24  1  0  0  0  0
 24 53  1  0  0  0  0
 24 52  1  0  0  0  0
 25 26  1  0  0  0  0
 25 54  1  0  0  0  0
 25 55  1  0  0  0  0
 26 31  1  0  0  0  0
 27 26  2  0  0  0  0
 28 27  1  0  0  0  0
 28 29  2  0  0  0  0
 29 30  1  0  0  0  0
 30 31  2  0  0  0  0
 30 59  1  0  0  0  0
 31 60  1  0  0  0  0
 32  7  1  6  0  0  0
 32 34  1  0  0  0  0
 32 12  1  0  0  0  0
 33 32  1  0  0  0  0
 33 63  1  0  0  0  0
 34  1  1  0  0  0  0
 34  3  1  0  0  0  0
 35 36  1  0  0  0  0
 36 37  2  0  0  0  0
 36 64  1  0  0  0  0
 37 65  1  0  0  0  0
 38 66  1  0  0  0  0
 38 37  1  0  0  0  0
 39 38  2  0  0  0  0
 40 39  1  0  0  0  0
 40 35  2  0  0  0  0
 41  7  1  0  0  0  0
 44 16  1  0  0  0  0
 45 17  1  0  0  0  0
 46 18  1  0  0  0  0
 49 22  1  0  0  0  0
 50 23  1  0  0  0  0
 51 23  1  0  0  0  0
 56 27  1  0  0  0  0
 57 28  1  0  0  0  0
 58 29  1  0  0  0  0
 61 33  1  0  0  0  0
 62 33  1  0  0  0  0
 67 39  1  0  0  0  0
 68 40  1  0  0  0  0
M  CHG  1   4  -1
M  END
