1,4,5,6
 OpenBabel05122313063D

 80 84  0  0  1  0  0  0  0  0999 V2000
   -0.1804   -1.9820   -1.4848 O   0  5  0  0  0  0  0  0  0  0  0  0
    1.7565   -2.1501   -2.6195 O   0  0  0  0  0  0  0  0  0  0  0  0
   -3.7784   -0.1480    2.5332 O   0  0  0  0  0  0  0  0  0  0  0  0
    0.4192    0.1834   -0.3108 N   0  0  0  0  0  2  0  0  0  0  0  0
   -2.5018   -2.2219   -0.1311 N   0  0  0  0  0  0  0  0  0  0  0  0
   -1.9836    0.1306    1.0269 N   0  0  0  0  0  2  0  0  0  0  0  0
    1.0684   -1.6510   -1.7361 C   0  0  0  0  0  0  0  0  0  0  0  0
    1.5966   -0.5747   -0.7701 C   0  0  2  0  0  0  0  0  0  0  0  0
    2.2974    0.0783   -1.3221 H   0  0  0  0  0  0  0  0  0  0  0  0
    2.3159   -1.1367    0.4788 C   0  0  0  0  0  0  0  0  0  0  0  0
    1.5702   -1.7096    1.0721 H   0  0  0  0  0  0  0  0  0  0  0  0
    2.5616   -0.2456    1.0910 H   0  0  0  0  0  0  0  0  0  0  0  0
    3.5903   -2.0050    0.2943 C   0  0  0  0  0  0  0  0  0  0  0  0
    4.3974   -1.9414    1.6203 C   0  0  0  0  0  0  0  0  0  0  0  0
    3.7440   -2.2473    2.4671 H   0  0  0  0  0  0  0  0  0  0  0  0
    5.2019   -2.7078    1.5596 H   0  0  0  0  0  0  0  0  0  0  0  0
    5.0380   -0.5752    1.9046 C   0  0  0  0  0  0  0  0  0  0  0  0
    5.6467   -0.6342    2.8316 H   0  0  0  0  0  0  0  0  0  0  0  0
    4.2492    0.1821    2.1118 H   0  0  0  0  0  0  0  0  0  0  0  0
    5.8947   -0.0920    0.7278 C   0  0  0  0  0  0  0  0  0  0  0  0
    6.7797   -0.7601    0.6234 H   0  0  0  0  0  0  0  0  0  0  0  0
    6.2915    0.9255    0.9312 H   0  0  0  0  0  0  0  0  0  0  0  0
    5.0998   -0.1083   -0.5834 C   0  0  0  0  0  0  0  0  0  0  0  0
    4.2990    0.6607   -0.5335 H   0  0  0  0  0  0  0  0  0  0  0  0
    5.7498    0.1913   -1.4325 H   0  0  0  0  0  0  0  0  0  0  0  0
    4.4951   -1.4906   -0.8536 C   0  0  0  0  0  0  0  0  0  0  0  0
    5.3244   -2.2233   -0.9758 H   0  0  0  0  0  0  0  0  0  0  0  0
    3.9263   -1.5130   -1.8057 H   0  0  0  0  0  0  0  0  0  0  0  0
    3.2005   -3.4684    0.0218 C   0  0  0  0  0  0  0  0  0  0  0  0
    2.5491   -3.8620    0.8310 H   0  0  0  0  0  0  0  0  0  0  0  0
    4.1068   -4.1075   -0.0200 H   0  0  0  0  0  0  0  0  0  0  0  0
    2.6707   -3.5752   -0.9436 H   0  0  0  0  0  0  0  0  0  0  0  0
    0.4741    1.4547    0.0168 C   0  0  0  0  0  0  0  0  0  0  0  0
    1.7558    2.2099   -0.1825 C   0  0  0  0  0  0  0  0  0  0  0  0
    2.5519    2.5560    0.9283 C   0  0  0  0  0  0  0  0  0  0  0  0
    2.2144    2.2815    1.9391 H   0  0  0  0  0  0  0  0  0  0  0  0
    3.7582    3.2485    0.7470 C   0  0  0  0  0  0  0  0  0  0  0  0
    4.3764    3.5048    1.6205 H   0  0  0  0  0  0  0  0  0  0  0  0
    4.1754    3.6112   -0.5435 C   0  0  0  0  0  0  0  0  0  0  0  0
    5.1224    4.1531   -0.6852 H   0  0  0  0  0  0  0  0  0  0  0  0
    3.3815    3.2801   -1.6531 C   0  0  0  0  0  0  0  0  0  0  0  0
    3.7021    3.5647   -2.6664 H   0  0  0  0  0  0  0  0  0  0  0  0
    2.1784    2.5809   -1.4755 C   0  0  0  0  0  0  0  0  0  0  0  0
    1.5542    2.3204   -2.3441 H   0  0  0  0  0  0  0  0  0  0  0  0
   -0.6631    2.1682    0.5857 C   0  0  0  0  0  0  0  0  0  0  0  0
   -0.5894    3.5888    0.6239 C   0  0  0  0  0  3  0  0  0  0  0  0
    0.2921    4.0751    0.1844 H   0  0  0  0  0  0  0  0  0  0  0  0
   -1.5933    4.3703    1.1847 C   0  0  0  0  0  0  0  0  0  0  0  0
   -1.5104    5.4668    1.1860 H   0  0  0  0  0  0  0  0  0  0  0  0
   -2.7022    3.7239    1.7622 C   0  0  0  0  0  0  0  0  0  0  0  0
   -3.5044    4.3143    2.2319 H   0  0  0  0  0  0  0  0  0  0  0  0
   -2.8102    2.3355    1.7491 C   0  0  0  0  0  0  0  0  0  0  0  0
   -3.6681    1.8421    2.2150 H   0  0  0  0  0  0  0  0  0  0  0  0
   -1.8251    1.5081    1.1327 C   0  0  0  0  0  0  0  0  0  0  0  0
   -3.0058   -0.5547    1.6640 C   0  0  0  0  0  0  0  0  0  0  0  0
   -3.0949   -2.0141    1.2215 C   0  0  2  0  0  0  0  0  0  0  0  0
   -4.1730   -2.2848    1.2075 H   0  0  0  0  0  0  0  0  0  0  0  0
   -2.3111   -2.9781    2.1622 C   0  0  0  0  0  0  0  0  0  0  0  0
   -1.7508   -2.4163    2.9335 H   0  0  0  0  0  0  0  0  0  0  0  0
   -3.0241   -3.6365    2.6943 H   0  0  0  0  0  0  0  0  0  0  0  0
   -1.3794   -3.7835    1.2316 C   0  0  0  0  0  0  0  0  0  0  0  0
   -0.3625   -3.3417    1.2004 H   0  0  0  0  0  0  0  0  0  0  0  0
   -1.2754   -4.8431    1.5346 H   0  0  0  0  0  0  0  0  0  0  0  0
   -2.0256   -3.6333   -0.1381 C   0  0  0  0  0  0  0  0  0  0  0  0
   -1.3387   -3.7804   -0.9907 H   0  0  0  0  0  0  0  0  0  0  0  0
   -2.9108   -4.3028   -0.2443 H   0  0  0  0  0  0  0  0  0  0  0  0
   -3.4117   -1.9394   -1.2821 C   0  0  0  0  0  0  0  0  0  0  0  0
   -4.3685   -2.4852   -1.1175 H   0  0  0  0  0  0  0  0  0  0  0  0
   -2.9128   -2.3702   -2.1716 H   0  0  0  0  0  0  0  0  0  0  0  0
   -3.6536   -0.4641   -1.4934 C   0  0  0  0  0  0  0  0  0  0  0  0
   -2.7364    0.2861   -2.2606 C   0  0  0  0  0  0  0  0  0  0  0  0
   -1.9100   -0.2322   -2.7710 H   0  0  0  0  0  0  0  0  0  0  0  0
   -2.8739    1.6767   -2.3696 C   0  0  0  0  0  0  0  0  0  0  0  0
   -2.1474    2.2539   -2.9612 H   0  0  0  0  0  0  0  0  0  0  0  0
   -3.9320    2.3334   -1.7200 C   0  0  0  0  0  0  0  0  0  0  0  0
   -4.0273    3.4273   -1.7884 H   0  0  0  0  0  0  0  0  0  0  0  0
   -4.8605    1.5918   -0.9756 C   0  0  0  0  0  0  0  0  0  0  0  0
   -5.6905    2.1007   -0.4634 H   0  0  0  0  0  0  0  0  0  0  0  0
   -4.7236    0.1984   -0.8670 C   0  0  0  0  0  0  0  0  0  0  0  0
   -5.4440   -0.3754   -0.2633 H   0  0  0  0  0  0  0  0  0  0  0  0
  2  7  2  0  0  0  0
  4 33  1  0  0  0  0
  5 56  1  0  0  0  0
  6 54  1  0  0  0  0
  6 55  1  0  0  0  0
  7  1  1  0  0  0  0
  7  8  1  0  0  0  0
  8  9  1  6  0  0  0
  8  4  1  0  0  0  0
  8 10  1  0  0  0  0
 10 11  1  0  0  0  0
 10 12  1  0  0  0  0
 13 10  1  0  0  0  0
 13 14  1  0  0  0  0
 14 17  1  0  0  0  0
 14 15  1  0  0  0  0
 16 14  1  0  0  0  0
 17 19  1  0  0  0  0
 17 18  1  0  0  0  0
 20 22  1  0  0  0  0
 20 17  1  0  0  0  0
 21 20  1  0  0  0  0
 23 24  1  0  0  0  0
 23 20  1  0  0  0  0
 25 23  1  0  0  0  0
 26 23  1  0  0  0  0
 26 13  1  0  0  0  0
 27 26  1  0  0  0  0
 28 26  1  0  0  0  0
 29 13  1  0  0  0  0
 29 30  1  0  0  0  0
 31 29  1  0  0  0  0
 32 29  1  0  0  0  0
 33 45  2  0  0  0  0
 34 33  1  0  0  0  0
 34 35  1  0  0  0  0
 35 36  1  0  0  0  0
 37 35  2  0  0  0  0
 37 38  1  0  0  0  0
 39 37  1  0  0  0  0
 40 39  1  0  0  0  0
 41 43  1  0  0  0  0
 41 39  2  0  0  0  0
 42 41  1  0  0  0  0
 43 34  2  0  0  0  0
 44 43  1  0  0  0  0
 45 46  1  0  0  0  0
 45 54  1  0  0  0  0
 46 48  1  0  0  0  0
 47 46  1  0  0  0  0
 48 49  1  0  0  0  0
 48 50  2  0  0  0  0
 50 51  1  0  0  0  0
 52 50  1  0  0  0  0
 52 53  1  0  0  0  0
 54 52  2  0  0  0  0
 55  3  2  0  0  0  0
 56 57  1  6  0  0  0
 56 55  1  0  0  0  0
 56 58  1  0  0  0  0
 58 60  1  0  0  0  0
 58 59  1  0  0  0  0
 61 63  1  0  0  0  0
 61 58  1  0  0  0  0
 62 61  1  0  0  0  0
 64  5  1  0  0  0  0
 64 61  1  0  0  0  0
 65 64  1  0  0  0  0
 66 64  1  0  0  0  0
 67 68  1  0  0  0  0
 67  5  1  0  0  0  0
 69 67  1  0  0  0  0
 70 67  1  0  0  0  0
 70 79  1  0  0  0  0
 71 70  2  0  0  0  0
 72 71  1  0  0  0  0
 73 71  1  0  0  0  0
 73 75  2  0  0  0  0
 74 73  1  0  0  0  0
 75 77  1  0  0  0  0
 76 75  1  0  0  0  0
 77 79  2  0  0  0  0
 77 78  1  0  0  0  0
 79 80  1  0  0  0  0
M  CHG  1   1  -1
M  END
