1,29,41,55
 OpenBabel05122313063D

 71 74  0  0  1  0  0  0  0  0999 V2000
   -2.8012   -1.1780   -0.3971 N   0  0  0  0  0  0  0  0  0  0  0  0
   -3.0470   -2.6464   -0.5289 C   0  0  0  0  0  0  0  0  0  0  0  0
   -2.3652   -3.0584   -1.2941 H   0  0  0  0  0  0  0  0  0  0  0  0
   -4.1045   -2.7990   -0.8470 H   0  0  0  0  0  0  0  0  0  0  0  0
   -2.8357   -3.1627    0.8856 C   0  0  0  0  0  0  0  0  0  0  0  0
   -1.7502   -3.1822    1.1133 H   0  0  0  0  0  0  0  0  0  0  0  0
   -3.2317   -4.1862    1.0291 H   0  0  0  0  0  0  0  0  0  0  0  0
   -3.5620   -2.1049    1.7273 C   0  0  0  0  0  0  0  0  0  0  0  0
   -3.1845   -2.0022    2.7622 H   0  0  0  0  0  0  0  0  0  0  0  0
   -4.6412   -2.3468    1.7953 H   0  0  0  0  0  0  0  0  0  0  0  0
   -3.3677   -0.7857    0.9339 C   0  0  1  0  0  0  0  0  0  0  0  0
   -4.3473   -0.2803    0.7942 H   0  0  0  0  0  0  0  0  0  0  0  0
   -3.3508   -0.4229   -1.5654 C   0  0  0  0  0  0  0  0  0  0  0  0
   -4.4632   -0.4685   -1.5244 H   0  0  0  0  0  0  0  0  0  0  0  0
   -3.0125   -0.9720   -2.4652 H   0  0  0  0  0  0  0  0  0  0  0  0
   -2.8642    1.0063   -1.6194 C   0  0  0  0  0  0  0  0  0  0  0  0
   -1.6535    1.3043   -2.2814 C   0  0  0  0  0  0  0  0  0  0  0  0
   -1.1320    0.5078   -2.8338 H   0  0  0  0  0  0  0  0  0  0  0  0
   -1.1174    2.5985   -2.2331 C   0  0  0  0  0  0  0  0  0  0  0  0
   -0.1676    2.8164   -2.7448 H   0  0  0  0  0  0  0  0  0  0  0  0
   -1.7846    3.6129   -1.5270 C   0  0  0  0  0  0  0  0  0  0  0  0
   -1.3516    4.6226   -1.4696 H   0  0  0  0  0  0  0  0  0  0  0  0
   -3.0018    3.3322   -0.8902 C   0  0  0  0  0  0  0  0  0  0  0  0
   -3.5319    4.1233   -0.3393 H   0  0  0  0  0  0  0  0  0  0  0  0
   -3.5406    2.0362   -0.9422 C   0  0  0  0  0  0  0  0  0  0  0  0
   -4.4928    1.8216   -0.4319 H   0  0  0  0  0  0  0  0  0  0  0  0
   -2.4857    0.2261    1.6621 C   0  0  0  0  0  0  0  0  0  0  0  0
   -2.8907    0.7000    2.7240 O   0  0  0  0  0  0  0  0  0  0  0  0
   -1.2955    0.4993    1.0093 N   0  0  0  0  0  2  0  0  0  0  0  0
   -0.5543    1.6377    1.2792 C   0  0  0  0  0  0  0  0  0  0  0  0
   -1.1069    2.7232    2.0224 C   0  0  0  0  0  0  0  0  0  0  0  0
   -2.1039    2.5944    2.4536 H   0  0  0  0  0  0  0  0  0  0  0  0
   -0.4168    3.9154    2.2073 C   0  0  0  0  0  0  0  0  0  0  0  0
   -0.8983    4.7308    2.7693 H   0  0  0  0  0  0  0  0  0  0  0  0
    0.8815    4.0786    1.6877 C   0  0  0  0  0  0  0  0  0  0  0  0
    1.4382    5.0156    1.8338 H   0  0  0  0  0  0  0  0  0  0  0  0
    1.4616    3.0216    0.9980 C   0  0  0  0  0  3  0  0  0  0  0  0
    2.4813    3.1414    0.6132 H   0  0  0  0  0  0  0  0  0  0  0  0
    0.7829    1.7888    0.7625 C   0  0  0  0  0  0  0  0  0  0  0  0
    1.5129    0.7335    0.0536 C   0  0  0  0  0  0  0  0  0  0  0  0
    0.9425   -0.3521   -0.4334 N   0  0  0  0  0  2  0  0  0  0  0  0
    2.9953    0.9629   -0.0575 C   0  0  0  0  0  0  0  0  0  0  0  0
    3.8561    0.5168    0.9632 C   0  0  0  0  0  0  0  0  0  0  0  0
    3.4385   -0.0131    1.8323 H   0  0  0  0  0  0  0  0  0  0  0  0
    5.2369    0.7547    0.8788 C   0  0  0  0  0  0  0  0  0  0  0  0
    5.9019    0.3908    1.6765 H   0  0  0  0  0  0  0  0  0  0  0  0
    5.7654    1.4617   -0.2121 C   0  0  0  0  0  0  0  0  0  0  0  0
    6.8480    1.6482   -0.2773 H   0  0  0  0  0  0  0  0  0  0  0  0
    4.9058    1.9444   -1.2129 C   0  0  0  0  0  0  0  0  0  0  0  0
    5.3119    2.5134   -2.0628 H   0  0  0  0  0  0  0  0  0  0  0  0
    3.5282    1.7008   -1.1340 C   0  0  0  0  0  0  0  0  0  0  0  0
    2.8524    2.0765   -1.9170 H   0  0  0  0  0  0  0  0  0  0  0  0
    1.6865   -1.5008   -1.0491 C   0  0  1  0  0  0  0  0  0  0  0  0
    0.6419   -2.3396   -1.8497 C   0  0  0  0  0  0  0  0  0  0  0  0
   -0.6010   -1.9594   -1.6858 O   0  5  0  0  0  0  0  0  0  0  0  0
    0.9871   -3.2849   -2.5470 O   0  0  0  0  0  0  0  0  0  0  0  0
    2.8036   -1.1632   -2.0495 C   0  0  0  0  0  0  0  0  0  0  0  0
    2.4958   -0.3555   -2.7406 H   0  0  0  0  0  0  0  0  0  0  0  0
    2.9566   -2.0842   -2.6453 H   0  0  0  0  0  0  0  0  0  0  0  0
    3.7572   -0.8872   -1.5692 H   0  0  0  0  0  0  0  0  0  0  0  0
    2.2520   -2.4179    0.0649 C   0  0  0  0  0  0  0  0  0  0  0  0
    2.6935   -3.2933   -0.4549 H   0  0  0  0  0  0  0  0  0  0  0  0
    3.0869   -1.8822    0.5599 H   0  0  0  0  0  0  0  0  0  0  0  0
    1.2418   -2.8912    1.1062 C   0  0  0  0  0  0  0  0  0  0  0  0
    0.6889   -2.0180    1.5243 H   0  0  0  0  0  0  0  0  0  0  0  0
    0.4558   -3.5070    0.6113 H   0  0  0  0  0  0  0  0  0  0  0  0
    1.8138   -3.6839    2.2489 C   0  0  0  0  0  0  0  0  0  0  0  0
    1.0742   -4.0052    3.0053 H   0  0  0  0  0  0  0  0  0  0  0  0
    3.1020   -4.0253    2.4306 C   0  0  0  0  0  0  0  0  0  0  0  0
    3.8914   -3.7456    1.7151 H   0  0  0  0  0  0  0  0  0  0  0  0
    3.4159   -4.6096    3.3091 H   0  0  0  0  0  0  0  0  0  0  0  0
  1 11  1  0  0  0  0
  2  1  1  0  0  0  0
  2  5  1  0  0  0  0
  3  2  1  0  0  0  0
  4  2  1  0  0  0  0
  5  7  1  0  0  0  0
  5  6  1  0  0  0  0
  5  8  1  0  0  0  0
  8 10  1  0  0  0  0
  8  9  1  0  0  0  0
 11 12  1  6  0  0  0
 11 27  1  0  0  0  0
 11  8  1  0  0  0  0
 13 14  1  0  0  0  0
 13  1  1  0  0  0  0
 15 13  1  0  0  0  0
 16 13  1  0  0  0  0
 16 25  1  0  0  0  0
 17 19  1  0  0  0  0
 17 16  2  0  0  0  0
 18 17  1  0  0  0  0
 19 21  2  0  0  0  0
 20 19  1  0  0  0  0
 21 22  1  0  0  0  0
 21 23  1  0  0  0  0
 23 24  1  0  0  0  0
 25 23  2  0  0  0  0
 25 26  1  0  0  0  0
 27 28  2  0  0  0  0
 29 30  1  0  0  0  0
 29 27  1  0  0  0  0
 30 31  2  0  0  0  0
 31 33  1  0  0  0  0
 31 32  1  0  0  0  0
 33 34  1  0  0  0  0
 35 36  1  0  0  0  0
 35 33  2  0  0  0  0
 37 35  1  0  0  0  0
 38 37  1  0  0  0  0
 39 37  1  0  0  0  0
 39 30  1  0  0  0  0
 40 39  2  0  0  0  0
 41 40  1  0  0  0  0
 42 40  1  0  0  0  0
 42 43  1  0  0  0  0
 43 44  1  0  0  0  0
 45 43  2  0  0  0  0
 45 46  1  0  0  0  0
 47 45  1  0  0  0  0
 48 47  1  0  0  0  0
 49 51  1  0  0  0  0
 49 47  2  0  0  0  0
 50 49  1  0  0  0  0
 51 42  2  0  0  0  0
 52 51  1  0  0  0  0
 53 54  1  6  0  0  0
 53 41  1  0  0  0  0
 53 61  1  0  0  0  0
 54 55  1  0  0  0  0
 56 54  2  0  0  0  0
 57 60  1  0  0  0  0
 57 53  1  0  0  0  0
 58 57  1  0  0  0  0
 59 57  1  0  0  0  0
 61 63  1  0  0  0  0
 61 64  1  0  0  0  0
 62 61  1  0  0  0  0
 64 65  1  0  0  0  0
 64 67  1  0  0  0  0
 66 64  1  0  0  0  0
 67 69  2  0  0  0  0
 67 68  1  0  0  0  0
 69 71  1  0  0  0  0
 70 69  1  0  0  0  0
M  CHG  1  55  -1
M  END
