1,2,3,6
 OpenBabel05122313063D

 51 54  0  0  1  0  0  0  0  0999 V2000
    3.0152    1.3205   -0.1803 N   0  0  0  0  0  2  0  0  0  0  0  0
    1.3186    0.3867    1.7811 N   0  0  0  0  0  0  0  0  0  0  0  0
    0.6573   -1.9792    0.4525 N   0  0  0  0  0  2  0  0  0  0  0  0
   -1.9477    1.0795    0.3795 N   0  0  0  0  0  0  0  0  0  0  0  0
   -2.2996    1.4033    1.2838 H   0  0  0  0  0  0  0  0  0  0  0  0
   -0.0140    0.5284   -0.7308 O   0  0  0  0  0  1  0  0  0  0  0  0
    3.6087    1.8875   -1.2477 C   0  0  0  0  0  3  0  0  0  0  0  0
    3.4458    1.3843   -2.2149 H   0  0  0  0  0  0  0  0  0  0  0  0
    4.3907    3.0423   -1.1287 C   0  0  0  0  0  0  0  0  0  0  0  0
    4.8644    3.4807   -2.0183 H   0  0  0  0  0  0  0  0  0  0  0  0
    4.5463    3.6176    0.1410 C   0  0  0  0  0  0  0  0  0  0  0  0
    5.1477    4.5297    0.2708 H   0  0  0  0  0  0  0  0  0  0  0  0
    3.9257    3.0179    1.2474 C   0  0  0  0  0  0  0  0  0  0  0  0
    4.0325    3.4431    2.2564 H   0  0  0  0  0  0  0  0  0  0  0  0
    3.1701    1.8537    1.0499 C   0  0  0  0  0  0  0  0  0  0  0  0
    2.5470    1.0779    2.1992 C   0  0  0  0  0  0  0  0  0  0  0  0
    3.2750    0.3004    2.5152 H   0  0  0  0  0  0  0  0  0  0  0  0
    2.3910    1.7479    3.0752 H   0  0  0  0  0  0  0  0  0  0  0  0
    0.9698   -0.8068    2.5632 C   0  0  0  0  0  0  0  0  0  0  0  0
    0.3671   -0.5568    3.4662 H   0  0  0  0  0  0  0  0  0  0  0  0
    1.9179   -1.2579    2.9262 H   0  0  0  0  0  0  0  0  0  0  0  0
    0.2538   -1.8613    1.7338 C   0  0  2  0  0  3  0  0  0  0  0  0
   -0.7146   -2.7196    2.2731 C   0  0  0  0  0  0  0  0  0  0  0  0
   -1.0356   -2.6048    3.3191 H   0  0  0  0  0  0  0  0  0  0  0  0
   -1.2542   -3.7268    1.4581 C   0  0  0  0  0  0  0  0  0  0  0  0
   -2.0143   -4.4144    1.8579 H   0  0  0  0  0  0  0  0  0  0  0  0
   -0.8173   -3.8430    0.1306 C   0  0  0  0  0  0  0  0  0  0  0  0
   -1.2173   -4.6180   -0.5383 H   0  0  0  0  0  0  0  0  0  0  0  0
    0.1413   -2.9371   -0.3394 C   0  0  0  0  0  0  0  0  0  0  0  0
    0.5153   -2.9590   -1.3762 H   0  0  0  0  0  0  0  0  0  0  0  0
    0.1883    1.2939    1.5522 C   0  0  0  0  0  0  0  0  0  0  0  0
    0.5900    2.3108    1.3568 H   0  0  0  0  0  0  0  0  0  0  0  0
   -0.4648    1.3698    2.4524 H   0  0  0  0  0  0  0  0  0  0  0  0
   -0.6121    0.9142    0.2968 C   0  0  1  0  0  3  0  0  0  0  0  0
   -2.9503    0.8732   -0.6020 C   0  0  0  0  0  0  0  0  0  0  0  0
   -2.6437    0.7219   -1.9536 C   0  0  0  0  0  0  0  0  0  0  0  0
   -1.5979    0.7416   -2.2786 H   0  0  0  0  0  0  0  0  0  0  0  0
   -3.6832    0.5480   -2.8992 C   0  0  0  0  0  0  0  0  0  0  0  0
   -3.4219    0.4335   -3.9612 H   0  0  0  0  0  0  0  0  0  0  0  0
   -5.0096    0.5347   -2.5002 C   0  0  0  0  0  0  0  0  0  0  0  0
   -5.8158    0.4114   -3.2388 H   0  0  0  0  0  0  0  0  0  0  0  0
   -5.3565    0.6780   -1.1255 C   0  0  0  0  0  0  0  0  0  0  0  0
   -6.7171    0.6615   -0.6993 C   0  0  0  0  0  0  0  0  0  0  0  0
   -7.5023    0.5461   -1.4618 H   0  0  0  0  0  0  0  0  0  0  0  0
   -7.0515    0.7854    0.6397 C   0  0  0  0  0  0  0  0  0  0  0  0
   -8.1059    0.7728    0.9521 H   0  0  0  0  0  0  0  0  0  0  0  0
   -6.0287    0.9202    1.6130 C   0  0  0  0  0  0  0  0  0  0  0  0
   -6.2941    1.0022    2.6774 H   0  0  0  0  0  0  0  0  0  0  0  0
   -4.6940    0.9405    1.2317 C   0  0  0  0  0  0  0  0  0  0  0  0
   -3.9369    1.0156    2.0298 H   0  0  0  0  0  0  0  0  0  0  0  0
   -4.3143    0.8362   -0.1387 C   0  0  0  0  0  0  0  0  0  0  0  0
  1 15  1  0  0  0  0
  2 16  1  0  0  0  0
  2 19  1  0  0  0  0
  3 22  1  0  0  0  0
  4  5  1  0  0  0  0
  7  9  1  0  0  0  0
  7  1  1  0  0  0  0
  8  7  1  0  0  0  0
  9 11  2  0  0  0  0
 10  9  1  0  0  0  0
 11 12  1  0  0  0  0
 11 13  1  0  0  0  0
 13 14  1  0  0  0  0
 15 13  2  0  0  0  0
 15 16  1  0  0  0  0
 16 17  1  0  0  0  0
 16 18  1  0  0  0  0
 19 21  1  0  0  0  0
 19 20  1  0  0  0  0
 22 23  1  0  0  0  0
 22 19  1  1  0  0  0
 23 24  1  0  0  0  0
 25 26  1  0  0  0  0
 25 23  2  0  0  0  0
 27 25  1  0  0  0  0
 28 27  1  0  0  0  0
 29 27  2  0  0  0  0
 29  3  1  0  0  0  0
 30 29  1  0  0  0  0
 31  2  1  0  0  0  0
 31 33  1  0  0  0  0
 32 31  1  0  0  0  0
 34  6  1  6  0  0  0
 34  4  1  0  0  0  0
 34 31  1  0  0  0  0
 35 51  1  0  0  0  0
 35  4  1  0  0  0  0
 36 35  2  0  0  0  0
 37 36  1  0  0  0  0
 38 40  2  0  0  0  0
 38 36  1  0  0  0  0
 39 38  1  0  0  0  0
 40 42  1  0  0  0  0
 41 40  1  0  0  0  0
 42 43  2  0  0  0  0
 42 51  1  0  0  0  0
 43 45  1  0  0  0  0
 44 43  1  0  0  0  0
 45 46  1  0  0  0  0
 45 47  2  0  0  0  0
 47 48  1  0  0  0  0
 49 47  1  0  0  0  0
 49 50  1  0  0  0  0
 51 49  2  0  0  0  0
M  END
