1,15,40,44
 OpenBabel05122313063D

 59 61  0  0  1  0  0  0  0  0999 V2000
    3.1206    0.1195   -0.7289 N   0  0  0  0  0  2  0  0  0  0  0  0
    3.7266   -1.0680   -1.0612 C   0  0  0  0  0  0  0  0  0  0  0  0
    5.0106   -1.0485   -1.6345 C   0  0  0  0  0  0  0  0  0  0  0  0
    5.5096   -1.9910   -1.8980 H   0  0  0  0  0  0  0  0  0  0  0  0
    5.6416    0.1871   -1.8563 C   0  0  0  0  0  0  0  0  0  0  0  0
    6.6445    0.2144   -2.3056 H   0  0  0  0  0  0  0  0  0  0  0  0
    5.0031    1.3867   -1.5013 C   0  0  0  0  0  0  0  0  0  0  0  0
    5.4929    2.3555   -1.6679 H   0  0  0  0  0  0  0  0  0  0  0  0
    3.7223    1.3302   -0.9193 C   0  0  0  0  0  0  0  0  0  0  0  0
    2.8701    2.4178   -0.4730 C   0  0  1  0  0  3  0  0  0  0  0  0
    3.1899    3.8633   -0.6796 C   0  0  0  0  0  0  0  0  0  0  0  0
    2.8827    4.4590    0.2041 H   0  0  0  0  0  0  0  0  0  0  0  0
    2.6658    4.2824   -1.5677 H   0  0  0  0  0  0  0  0  0  0  0  0
    4.2728    4.0137   -0.8412 H   0  0  0  0  0  0  0  0  0  0  0  0
    1.7413    1.9940    0.0906 N   0  0  0  0  0  2  0  0  0  0  0  0
    0.7990    2.9291    0.3715 N   0  0  0  0  0  0  0  0  0  0  0  0
    0.6584    3.6991   -0.2913 H   0  0  0  0  0  0  0  0  0  0  0  0
   -0.2436    2.6613    1.2606 C   0  0  0  0  0  0  0  0  0  0  0  0
   -0.2797    1.7599    2.0637 O   0  0  0  0  0  0  0  0  0  0  0  0
   -1.1776    3.6375    1.0895 O   0  0  0  0  0  0  0  0  0  0  0  0
   -2.3599    3.4823    1.8983 C   0  0  0  0  0  0  0  0  0  0  0  0
   -2.8045    4.4981    1.9214 H   0  0  0  0  0  0  0  0  0  0  0  0
   -2.0690    3.1915    2.9279 H   0  0  0  0  0  0  0  0  0  0  0  0
   -3.3307    2.4782    1.3195 C   0  0  0  0  0  0  0  0  0  0  0  0
   -4.1306    1.6988    2.1760 C   0  0  0  0  0  0  0  0  0  0  0  0
   -4.0065    1.7881    3.2673 H   0  0  0  0  0  0  0  0  0  0  0  0
   -5.0750    0.8039    1.6485 C   0  0  0  0  0  0  0  0  0  0  0  0
   -5.6908    0.1952    2.3285 H   0  0  0  0  0  0  0  0  0  0  0  0
   -5.2205    0.6728    0.2587 C   0  0  0  0  0  0  0  0  0  0  0  0
   -5.9389   -0.0488   -0.1593 H   0  0  0  0  0  0  0  0  0  0  0  0
   -4.4122    1.4358   -0.5983 C   0  0  0  0  0  0  0  0  0  0  0  0
   -4.4874    1.3161   -1.6887 H   0  0  0  0  0  0  0  0  0  0  0  0
   -3.4745    2.3350   -0.0736 C   0  0  0  0  0  0  0  0  0  0  0  0
   -2.8270    2.9017   -0.7593 H   0  0  0  0  0  0  0  0  0  0  0  0
    2.8886   -2.2070   -0.7238 C   0  0  0  0  0  0  0  0  0  0  0  0
    3.2869   -3.6433   -0.8163 C   0  0  0  0  0  0  0  0  0  0  0  0
    2.4948   -4.2685   -1.2805 H   0  0  0  0  0  0  0  0  0  0  0  0
    3.5012   -4.0421    0.2004 H   0  0  0  0  0  0  0  0  0  0  0  0
    4.1988   -3.7691   -1.4270 H   0  0  0  0  0  0  0  0  0  0  0  0
    1.7346   -1.7947   -0.2165 N   0  0  0  0  0  2  0  0  0  0  0  0
    0.7652   -2.6277    0.2250 N   0  0  0  0  0  0  0  0  0  0  0  0
    0.8193   -3.6457    0.1303 H   0  0  0  0  0  0  0  0  0  0  0  0
   -0.3310   -1.9907    0.7766 C   0  0  1  0  0  3  0  0  0  0  0  0
   -0.3627   -0.7673    0.9195 O   0  0  0  0  0  1  0  0  0  0  0  0
   -1.2975   -2.8474    1.0952 O   0  0  0  0  0  0  0  0  0  0  0  0
   -2.6188   -2.2551    1.3325 C   0  0  0  0  0  0  0  0  0  0  0  0
   -2.4727   -1.2234    1.7092 H   0  0  0  0  0  0  0  0  0  0  0  0
   -3.0754   -2.8818    2.1197 H   0  0  0  0  0  0  0  0  0  0  0  0
   -3.4214   -2.2823    0.0579 C   0  0  0  0  0  0  0  0  0  0  0  0
   -3.0084   -1.5186   -1.0537 C   0  0  0  0  0  0  0  0  0  0  0  0
   -2.1273   -0.8644   -0.9810 H   0  0  0  0  0  0  0  0  0  0  0  0
   -3.7348   -1.5572   -2.2505 C   0  0  0  0  0  0  0  0  0  0  0  0
   -3.3914   -0.9435   -3.0975 H   0  0  0  0  0  0  0  0  0  0  0  0
   -4.8975   -2.3407   -2.3426 C   0  0  0  0  0  0  0  0  0  0  0  0
   -5.4754   -2.3632   -3.2792 H   0  0  0  0  0  0  0  0  0  0  0  0
   -5.3246   -3.0924   -1.2363 C   0  0  0  0  0  0  0  0  0  0  0  0
   -6.2354   -3.7068   -1.3031 H   0  0  0  0  0  0  0  0  0  0  0  0
   -4.5821   -3.0707   -0.0448 C   0  0  0  0  0  0  0  0  0  0  0  0
   -4.9109   -3.6701    0.8193 H   0  0  0  0  0  0  0  0  0  0  0  0
  2  1  1  0  0  0  0
  2 35  2  0  0  0  0
  3  2  1  0  0  0  0
  4  3  1  0  0  0  0
  5  3  2  0  0  0  0
  5  7  1  0  0  0  0
  6  5  1  0  0  0  0
  7  9  2  0  0  0  0
  8  7  1  0  0  0  0
  9  1  1  0  0  0  0
  9 10  1  0  0  0  0
 10 15  1  6  0  0  0
 11 10  1  0  0  0  0
 11 12  1  0  0  0  0
 13 11  1  0  0  0  0
 14 11  1  0  0  0  0
 15 16  1  0  0  0  0
 16 18  1  0  0  0  0
 17 16  1  0  0  0  0
 18 19  2  0  0  0  0
 20 18  1  0  0  0  0
 20 21  1  0  0  0  0
 21 22  1  0  0  0  0
 21 23  1  0  0  0  0
 24 21  1  0  0  0  0
 24 25  1  0  0  0  0
 25 26  1  0  0  0  0
 27 25  2  0  0  0  0
 27 28  1  0  0  0  0
 29 27  1  0  0  0  0
 30 29  1  0  0  0  0
 31 33  1  0  0  0  0
 31 29  2  0  0  0  0
 32 31  1  0  0  0  0
 33 24  2  0  0  0  0
 34 33  1  0  0  0  0
 35 40  1  0  0  0  0
 36 35  1  0  0  0  0
 36 38  1  0  0  0  0
 37 36  1  0  0  0  0
 39 36  1  0  0  0  0
 40 41  1  0  0  0  0
 41 43  1  0  0  0  0
 42 41  1  0  0  0  0
 43 44  1  6  0  0  0
 43 45  1  0  0  0  0
 45 46  1  0  0  0  0
 46 47  1  0  0  0  0
 46 48  1  0  0  0  0
 49 46  1  0  0  0  0
 50 51  1  0  0  0  0
 50 49  2  0  0  0  0
 52 50  1  0  0  0  0
 53 52  1  0  0  0  0
 54 52  2  0  0  0  0
 54 56  1  0  0  0  0
 55 54  1  0  0  0  0
 56 58  2  0  0  0  0
 57 56  1  0  0  0  0
 58 49  1  0  0  0  0
 58 59  1  0  0  0  0
M  END
