1,2,3,5
 OpenBabel05122313063D

 44 46  0  0  1  0  0  0  0  0999 V2000
    1.3697   -1.4941   -0.0305 O   0  0  0  0  0  1  0  0  0  0  0  0
    1.3590    1.2318   -0.0238 N   0  0  0  0  0  2  0  0  0  0  0  0
   -1.1831    1.1972    0.0159 N   0  0  0  0  0  2  0  0  0  0  0  0
   -2.4633    1.1593    0.1414 N   0  0  0  0  0  0  0  0  0  0  0  0
   -1.2659   -1.4860   -0.3395 N   0  0  0  0  0  2  0  0  0  0  0  0
    2.6619   -1.4068    0.0274 C   0  0  1  0  0  3  0  0  0  0  0  0
    3.4390   -2.6086    0.0660 C   0  0  0  0  0  0  0  0  0  0  0  0
    2.8944   -3.5638    0.0471 H   0  0  0  0  0  0  0  0  0  0  0  0
    4.8252   -2.5643    0.1278 C   0  0  0  0  0  0  0  0  0  0  0  0
    5.3928   -3.5078    0.1576 H   0  0  0  0  0  0  0  0  0  0  0  0
    5.5244   -1.3276    0.1531 C   0  0  0  0  0  0  0  0  0  0  0  0
    6.6225   -1.3119    0.2013 H   0  0  0  0  0  0  0  0  0  0  0  0
    4.8016   -0.1458    0.1172 C   0  0  0  0  0  0  0  0  0  0  0  0
    5.3205    0.8263    0.1378 H   0  0  0  0  0  0  0  0  0  0  0  0
    3.3754   -0.1509    0.0556 C   0  0  0  0  0  0  0  0  0  0  0  0
    2.6721    1.0811    0.0237 C   0  0  0  0  0  0  0  0  0  0  0  0
    3.2947    1.9939    0.0466 H   0  0  0  0  0  0  0  0  0  0  0  0
    0.7844    2.5207   -0.0328 C   0  0  0  0  0  0  0  0  0  0  0  0
   -0.6278    2.4984   -0.0053 C   0  0  0  0  0  0  0  0  0  0  0  0
   -1.3723    3.6925    0.0047 C   0  0  0  0  0  0  0  0  0  0  0  0
   -2.4674    3.6277    0.0301 H   0  0  0  0  0  0  0  0  0  0  0  0
   -0.6949    4.9156   -0.0201 C   0  0  0  0  0  0  0  0  0  0  0  0
   -1.2666    5.8556   -0.0174 H   0  0  0  0  0  0  0  0  0  0  0  0
    0.7137    4.9491   -0.0543 C   0  0  0  0  0  0  0  0  0  0  0  0
    1.2412    5.9140   -0.0805 H   0  0  0  0  0  0  0  0  0  0  0  0
    1.4542    3.7602   -0.0594 C   0  0  0  0  0  0  0  0  0  0  0  0
    2.5513    3.8102   -0.0898 H   0  0  0  0  0  0  0  0  0  0  0  0
   -3.1580    0.0083    0.1226 C   0  0  0  0  0  0  0  0  0  0  0  0
   -2.5839   -1.3128   -0.1394 C   0  0  1  0  0  3  0  0  0  0  0  0
   -3.5430   -2.3944   -0.1955 C   0  0  0  0  0  0  0  0  0  0  0  0
   -3.1900   -3.4128   -0.3914 H   0  0  0  0  0  0  0  0  0  0  0  0
   -4.8948   -2.1994    0.0182 C   0  0  0  0  0  0  0  0  0  0  0  0
   -5.5679   -3.0700   -0.0238 H   0  0  0  0  0  0  0  0  0  0  0  0
   -5.4314   -0.9094    0.2932 C   0  0  0  0  0  0  0  0  0  0  0  0
   -6.5093   -0.7757    0.4617 H   0  0  0  0  0  0  0  0  0  0  0  0
   -4.5673    0.1634    0.3339 C   0  0  0  0  0  0  0  0  0  0  0  0
   -4.9168    1.1881    0.5244 H   0  0  0  0  0  0  0  0  0  0  0  0
   -0.8164   -2.8341   -0.7143 C   0  0  0  0  0  0  0  0  0  0  0  0
   -1.5456   -3.2710   -1.4296 H   0  0  0  0  0  0  0  0  0  0  0  0
    0.1370   -2.7319   -1.2589 H   0  0  0  0  0  0  0  0  0  0  0  0
   -0.6029   -3.7604    0.4849 C   0  0  0  0  0  0  0  0  0  0  0  0
   -0.2462   -4.7543    0.1442 H   0  0  0  0  0  0  0  0  0  0  0  0
    0.1626   -3.3262    1.1551 H   0  0  0  0  0  0  0  0  0  0  0  0
   -1.5329   -3.9101    1.0692 H   0  0  0  0  0  0  0  0  0  0  0  0
  2 16  1  0  0  0  0
  3  4  1  0  0  0  0
  6  1  1  6  0  0  0
  6 15  1  0  0  0  0
  6  7  1  0  0  0  0
  7  9  2  0  0  0  0
  8  7  1  0  0  0  0
  9 11  1  0  0  0  0
  9 10  1  0  0  0  0
 11 12  1  0  0  0  0
 13 14  1  0  0  0  0
 13 11  2  0  0  0  0
 15 13  1  0  0  0  0
 16 17  1  0  0  0  0
 16 15  2  0  0  0  0
 18  2  1  0  0  0  0
 18 19  1  0  0  0  0
 19 20  2  0  0  0  0
 19  3  1  0  0  0  0
 20 21  1  0  0  0  0
 22 23  1  0  0  0  0
 22 20  1  0  0  0  0
 24 22  2  0  0  0  0
 25 24  1  0  0  0  0
 26 24  1  0  0  0  0
 26 18  2  0  0  0  0
 27 26  1  0  0  0  0
 28  4  2  0  0  0  0
 28 36  1  0  0  0  0
 29  5  1  6  0  0  0
 29 28  1  0  0  0  0
 30 29  1  0  0  0  0
 30 32  2  0  0  0  0
 31 30  1  0  0  0  0
 32 34  1  0  0  0  0
 33 32  1  0  0  0  0
 34 36  2  0  0  0  0
 34 35  1  0  0  0  0
 36 37  1  0  0  0  0
 38  5  1  0  0  0  0
 38 41  1  0  0  0  0
 39 38  1  0  0  0  0
 40 38  1  0  0  0  0
 41 44  1  0  0  0  0
 41 43  1  0  0  0  0
 42 41  1  0  0  0  0
M  END
