1,2,3,4
 OpenBabel05122313063D

 68 70  0  0  1  0  0  0  0  0999 V2000
    0.5825    0.8633   -0.9028 O   0  5  0  0  0  0  0  0  0  0  0  0
    3.3328   -0.5158   -0.4337 N   0  0  0  0  0  2  0  0  0  0  0  0
    1.1500   -1.8034    0.5812 N   0  0  0  0  0  0  0  0  0  0  0  0
    0.1258    0.2385    2.1358 N   0  0  0  0  0  2  0  0  0  0  0  0
    3.8790    1.6286   -1.4506 C   0  0  0  0  0  0  0  0  0  0  0  0
    4.1602    0.1731   -1.2572 C   0  0  2  0  0  3  0  0  0  0  0  0
    5.2099   -0.4975   -1.9175 C   0  0  0  0  0  0  0  0  0  0  0  0
    5.3659   -1.8778   -1.7487 C   0  0  0  0  0  0  0  0  0  0  0  0
    4.4587   -2.5765   -0.9403 C   0  0  0  0  0  0  0  0  0  0  0  0
    3.4492   -1.8498   -0.2942 C   0  0  0  0  0  0  0  0  0  0  0  0
    2.4246   -2.5180    0.6052 C   0  0  0  0  0  0  0  0  0  0  0  0
    0.2505   -2.1285    1.6897 C   0  0  0  0  0  0  0  0  0  0  0  0
   -0.5566   -0.9223    2.1246 C   0  0  1  0  0  3  0  0  0  0  0  0
   -1.8809   -1.0010    2.5820 C   0  0  0  0  0  0  0  0  0  0  0  0
   -2.4884    0.1588    3.0790 C   0  0  0  0  0  0  0  0  0  0  0  0
   -1.7532    1.3537    3.1241 C   0  0  0  0  0  0  0  0  0  0  0  0
   -0.4432    1.3514    2.6302 C   0  0  0  0  0  0  0  0  0  0  0  0
    0.4587   -1.9194   -0.7385 C   0  0  0  0  0  0  0  0  0  0  0  0
   -0.7877   -1.0853   -0.8264 C   0  0  0  0  0  0  0  0  0  0  0  0
   -0.6261    0.3333   -0.9377 C   0  0  0  0  0  0  0  0  0  0  0  0
   -1.8104    1.1386   -1.0903 C   0  0  0  0  0  0  0  0  0  0  0  0
   -3.0542    0.4943   -1.0407 C   0  0  0  0  0  0  0  0  0  0  0  0
   -3.2271   -0.9034   -0.8878 C   0  0  0  0  0  0  0  0  0  0  0  0
   -2.0627   -1.6788   -0.8104 C   0  0  0  0  0  0  0  0  0  0  0  0
   -1.6862    2.6550   -1.3330 C   0  0  0  0  0  0  0  0  0  0  0  0
   -0.8740    2.8840   -2.6301 C   0  0  0  0  0  0  0  0  0  0  0  0
   -0.9715    3.3442   -0.1475 C   0  0  0  0  0  0  0  0  0  0  0  0
   -3.0594    3.3279   -1.5074 C   0  0  0  0  0  0  0  0  0  0  0  0
   -4.6456   -1.4964   -0.8297 C   0  0  0  0  0  0  0  0  0  0  0  0
   -5.3997   -1.1699   -2.1390 C   0  0  0  0  0  0  0  0  0  0  0  0
   -4.6249   -3.0243   -0.6534 C   0  0  0  0  0  0  0  0  0  0  0  0
   -5.4104   -0.8835    0.3658 C   0  0  0  0  0  0  0  0  0  0  0  0
    4.6088    2.1004   -2.1329 H   0  0  0  0  0  0  0  0  0  0  0  0
    2.8526    1.7488   -1.8581 H   0  0  0  0  0  0  0  0  0  0  0  0
    3.8693    2.1478   -0.4664 H   0  0  0  0  0  0  0  0  0  0  0  0
    5.8845    0.0716   -2.5729 H   0  0  0  0  0  0  0  0  0  0  0  0
    6.1772   -2.4129   -2.2651 H   0  0  0  0  0  0  0  0  0  0  0  0
    4.5213   -3.6675   -0.8164 H   0  0  0  0  0  0  0  0  0  0  0  0
    2.8073   -2.5066    1.6493 H   0  0  0  0  0  0  0  0  0  0  0  0
    2.3211   -3.5907    0.3093 H   0  0  0  0  0  0  0  0  0  0  0  0
   -0.4250   -2.9812    1.4492 H   0  0  0  0  0  0  0  0  0  0  0  0
    0.8723   -2.4397    2.5569 H   0  0  0  0  0  0  0  0  0  0  0  0
   -2.4269   -1.9538    2.5264 H   0  0  0  0  0  0  0  0  0  0  0  0
   -3.5330    0.1315    3.4244 H   0  0  0  0  0  0  0  0  0  0  0  0
   -2.1924    2.2817    3.5168 H   0  0  0  0  0  0  0  0  0  0  0  0
    0.1973    2.2491    2.6069 H   0  0  0  0  0  0  0  0  0  0  0  0
    1.1847   -1.5781   -1.5048 H   0  0  0  0  0  0  0  0  0  0  0  0
    0.2237   -2.9945   -0.9277 H   0  0  0  0  0  0  0  0  0  0  0  0
   -3.9581    1.1129   -1.1314 H   0  0  0  0  0  0  0  0  0  0  0  0
   -2.1226   -2.7750   -0.7260 H   0  0  0  0  0  0  0  0  0  0  0  0
    0.1301    2.4291   -2.5419 H   0  0  0  0  0  0  0  0  0  0  0  0
   -1.3921    2.4325   -3.5009 H   0  0  0  0  0  0  0  0  0  0  0  0
   -0.7568    3.9710   -2.8243 H   0  0  0  0  0  0  0  0  0  0  0  0
   -0.8604    4.4303   -0.3504 H   0  0  0  0  0  0  0  0  0  0  0  0
   -1.5681    3.2339    0.7808 H   0  0  0  0  0  0  0  0  0  0  0  0
    0.0347    2.9201    0.0254 H   0  0  0  0  0  0  0  0  0  0  0  0
   -2.9190    4.4119   -1.6947 H   0  0  0  0  0  0  0  0  0  0  0  0
   -3.6224    2.9109   -2.3673 H   0  0  0  0  0  0  0  0  0  0  0  0
   -3.6902    3.2268   -0.6002 H   0  0  0  0  0  0  0  0  0  0  0  0
   -4.8742   -1.6047   -3.0131 H   0  0  0  0  0  0  0  0  0  0  0  0
   -6.4312   -1.5806   -2.1141 H   0  0  0  0  0  0  0  0  0  0  0  0
   -5.4755   -0.0768   -2.3039 H   0  0  0  0  0  0  0  0  0  0  0  0
   -4.1123   -3.3221    0.2845 H   0  0  0  0  0  0  0  0  0  0  0  0
   -5.6612   -3.4165   -0.6072 H   0  0  0  0  0  0  0  0  0  0  0  0
   -4.1133   -3.5286   -1.4980 H   0  0  0  0  0  0  0  0  0  0  0  0
   -5.4738    0.2200    0.2879 H   0  0  0  0  0  0  0  0  0  0  0  0
   -6.4462   -1.2802    0.4184 H   0  0  0  0  0  0  0  0  0  0  0  0
   -4.8999   -1.1220    1.3214 H   0  0  0  0  0  0  0  0  0  0  0  0
  2 10  1  0  0  0  0
  3 11  1  0  0  0  0
  3 12  1  0  0  0  0
  4 17  1  0  0  0  0
  5 35  1  0  0  0  0
  6  5  1  6  0  0  0
  6  2  1  0  0  0  0
  7  8  2  0  0  0  0
  7  6  1  0  0  0  0
  8  9  1  0  0  0  0
  9 38  1  0  0  0  0
  9 10  2  0  0  0  0
 10 11  1  0  0  0  0
 11 39  1  0  0  0  0
 12 42  1  0  0  0  0
 13 12  1  1  0  0  0
 13  4  1  0  0  0  0
 13 14  1  0  0  0  0
 14 15  2  0  0  0  0
 15 16  1  0  0  0  0
 15 44  1  0  0  0  0
 16 45  1  0  0  0  0
 17 16  2  0  0  0  0
 18  3  1  0  0  0  0
 19 24  1  0  0  0  0
 19 18  1  0  0  0  0
 20  1  1  0  0  0  0
 20 19  2  0  0  0  0
 21 22  2  0  0  0  0
 21 20  1  0  0  0  0
 22 23  1  0  0  0  0
 23 29  1  0  0  0  0
 23 24  2  0  0  0  0
 24 50  1  0  0  0  0
 25 21  1  0  0  0  0
 25 27  1  0  0  0  0
 26 51  1  0  0  0  0
 26 25  1  0  0  0  0
 27 56  1  0  0  0  0
 27 55  1  0  0  0  0
 28 25  1  0  0  0  0
 28 59  1  0  0  0  0
 29 31  1  0  0  0  0
 29 32  1  0  0  0  0
 30 61  1  0  0  0  0
 30 29  1  0  0  0  0
 31 64  1  0  0  0  0
 31 63  1  0  0  0  0
 32 67  1  0  0  0  0
 32 68  1  0  0  0  0
 33  5  1  0  0  0  0
 34  5  1  0  0  0  0
 36  7  1  0  0  0  0
 37  8  1  0  0  0  0
 40 11  1  0  0  0  0
 41 12  1  0  0  0  0
 43 14  1  0  0  0  0
 46 17  1  0  0  0  0
 47 18  1  0  0  0  0
 48 18  1  0  0  0  0
 49 22  1  0  0  0  0
 52 26  1  0  0  0  0
 53 26  1  0  0  0  0
 54 27  1  0  0  0  0
 57 28  1  0  0  0  0
 58 28  1  0  0  0  0
 60 30  1  0  0  0  0
 62 30  1  0  0  0  0
 65 31  1  0  0  0  0
 66 32  1  0  0  0  0
M  CHG  1   1  -1
M  END
