2,5,6,7
 OpenBabel05122313063D

 61 64  0  0  1  0  0  0  0  0999 V2000
    1.8280   -2.6206   -1.9439 F   0  0  0  0  0  0  0  0  0  0  0  0
    0.6667   -2.2662    1.2643 O   0  5  0  0  0  0  0  0  0  0  0  0
   -0.7872   -3.8197    2.0170 O   0  0  0  0  0  0  0  0  0  0  0  0
    2.5711    1.7708   -2.2805 O   0  0  0  0  0  0  0  0  0  0  0  0
    2.7238   -0.8788    0.2133 N   0  0  0  0  0  0  0  0  0  0  0  0
    0.9479    0.7732   -0.8982 N   0  0  0  0  0  2  0  0  0  0  0  0
   -1.0601   -0.8529    0.0479 N   0  0  0  0  0  2  0  0  0  0  0  0
    3.1937   -2.2754   -0.0071 C   0  0  0  0  0  0  0  0  0  0  0  0
    3.1490   -2.4338   -1.5159 C   0  0  2  0  0  0  0  0  0  0  0  0
    3.6727   -1.0901   -2.0159 C   0  0  0  0  0  0  0  0  0  0  0  0
    3.2383   -0.0670   -0.9356 C   0  0  1  0  0  0  0  0  0  0  0  0
    2.2037    0.9392   -1.4490 C   0  0  0  0  0  0  0  0  0  0  0  0
    3.0900   -0.3613    1.5676 C   0  0  0  0  0  0  0  0  0  0  0  0
    2.3663    0.9243    1.8945 C   0  0  0  0  0  0  0  0  0  0  0  0
    2.8880    2.1738    1.5164 C   0  0  0  0  0  0  0  0  0  0  0  0
    2.1333    3.3457    1.6899 C   0  0  0  0  0  0  0  0  0  0  0  0
    0.8525    3.2778    2.2562 C   0  0  0  0  0  0  0  0  0  0  0  0
    0.3366    2.0382    2.6687 C   0  0  0  0  0  0  0  0  0  0  0  0
    1.0876    0.8682    2.4904 C   0  0  0  0  0  0  0  0  0  0  0  0
   -0.0414    1.7450   -1.0008 C   0  0  1  0  0  3  0  0  0  0  0  0
   -1.4074    1.4595   -0.6342 C   0  0  0  0  0  0  0  0  0  0  0  0
   -2.3672    2.5100   -0.6709 C   0  0  0  0  0  0  0  0  0  0  0  0
   -2.0361    3.8064   -1.0483 C   0  0  0  0  0  0  0  0  0  0  0  0
   -0.7083    4.0776   -1.4294 C   0  0  0  0  0  0  0  0  0  0  0  0
    0.2575    3.0747   -1.4192 C   0  0  0  0  0  0  0  0  0  0  0  0
   -1.8764    0.1345   -0.2453 C   0  0  0  0  0  0  0  0  0  0  0  0
   -3.3576   -0.0997   -0.1774 C   0  0  0  0  0  0  0  0  0  0  0  0
   -4.0993   -0.3104   -1.3564 C   0  0  0  0  0  0  0  0  0  0  0  0
   -5.4824   -0.5364   -1.2902 C   0  0  0  0  0  0  0  0  0  0  0  0
   -6.1371   -0.5455   -0.0485 C   0  0  0  0  0  0  0  0  0  0  0  0
   -5.4048   -0.3261    1.1292 C   0  0  0  0  0  0  0  0  0  0  0  0
   -4.0211   -0.1055    1.0667 C   0  0  0  0  0  0  0  0  0  0  0  0
   -1.5387   -2.2072    0.3691 C   0  0  2  0  0  0  0  0  0  0  0  0
   -0.5168   -2.8465    1.3302 C   0  0  0  0  0  0  0  0  0  0  0  0
   -1.6494   -3.0756   -0.8920 C   0  0  0  0  0  0  0  0  0  0  0  0
    4.2478   -2.3796    0.3397 H   0  0  0  0  0  0  0  0  0  0  0  0
    2.5444   -2.9769    0.5492 H   0  0  0  0  0  0  0  0  0  0  0  0
    3.7383   -3.3037   -1.8731 H   0  0  0  0  0  0  0  0  0  0  0  0
    3.2755   -0.8355   -3.0162 H   0  0  0  0  0  0  0  0  0  0  0  0
    4.7766   -1.1322   -2.0952 H   0  0  0  0  0  0  0  0  0  0  0  0
    4.1138    0.5358   -0.6149 H   0  0  0  0  0  0  0  0  0  0  0  0
    4.1956   -0.2281    1.6110 H   0  0  0  0  0  0  0  0  0  0  0  0
    2.7991   -1.1555    2.2817 H   0  0  0  0  0  0  0  0  0  0  0  0
    3.8898    2.2348    1.0626 H   0  0  0  0  0  0  0  0  0  0  0  0
    2.5460    4.3143    1.3708 H   0  0  0  0  0  0  0  0  0  0  0  0
    0.2524    4.1923    2.3744 H   0  0  0  0  0  0  0  0  0  0  0  0
   -0.6633    1.9821    3.1248 H   0  0  0  0  0  0  0  0  0  0  0  0
    0.6858   -0.1055    2.8088 H   0  0  0  0  0  0  0  0  0  0  0  0
   -3.4011    2.2798   -0.3798 H   0  0  0  0  0  0  0  0  0  0  0  0
   -2.8010    4.5965   -1.0548 H   0  0  0  0  0  0  0  0  0  0  0  0
   -0.4179    5.0929   -1.7418 H   0  0  0  0  0  0  0  0  0  0  0  0
    1.2802    3.2936   -1.7404 H   0  0  0  0  0  0  0  0  0  0  0  0
   -3.5842   -0.2883   -2.3286 H   0  0  0  0  0  0  0  0  0  0  0  0
   -6.0527   -0.7038   -2.2164 H   0  0  0  0  0  0  0  0  0  0  0  0
   -7.2222   -0.7213    0.0019 H   0  0  0  0  0  0  0  0  0  0  0  0
   -5.9137   -0.3274    2.1049 H   0  0  0  0  0  0  0  0  0  0  0  0
   -3.4435    0.0685    1.9877 H   0  0  0  0  0  0  0  0  0  0  0  0
   -2.5243   -2.1704    0.8726 H   0  0  0  0  0  0  0  0  0  0  0  0
   -1.9601   -4.0955   -0.5937 H   0  0  0  0  0  0  0  0  0  0  0  0
   -0.6677   -3.1352   -1.4023 H   0  0  0  0  0  0  0  0  0  0  0  0
   -2.3991   -2.6607   -1.5941 H   0  0  0  0  0  0  0  0  0  0  0  0
  1  9  1  0  0  0  0
  2 34  1  0  0  0  0
  4 12  2  0  0  0  0
  5 13  1  0  0  0  0
  7 33  1  0  0  0  0
  8  5  1  0  0  0  0
  8 36  1  0  0  0  0
  8 37  1  0  0  0  0
  9 38  1  6  0  0  0
  9  8  1  0  0  0  0
 10  9  1  0  0  0  0
 10 11  1  0  0  0  0
 11 41  1  1  0  0  0
 11  5  1  0  0  0  0
 12 11  1  0  0  0  0
 12  6  1  0  0  0  0
 13 42  1  0  0  0  0
 13 14  1  0  0  0  0
 13 43  1  0  0  0  0
 14 19  1  0  0  0  0
 15 16  1  0  0  0  0
 15 14  2  0  0  0  0
 16 17  2  0  0  0  0
 17 46  1  0  0  0  0
 17 18  1  0  0  0  0
 18 47  1  0  0  0  0
 19 18  2  0  0  0  0
 19 48  1  0  0  0  0
 20  6  1  1  0  0  0
 20 21  1  0  0  0  0
 21 26  2  0  0  0  0
 22 21  1  0  0  0  0
 22 49  1  0  0  0  0
 23 22  2  0  0  0  0
 24 25  2  0  0  0  0
 24 23  1  0  0  0  0
 25 20  1  0  0  0  0
 26 27  1  0  0  0  0
 26  7  1  0  0  0  0
 27 32  1  0  0  0  0
 28 29  1  0  0  0  0
 28 27  2  0  0  0  0
 29 30  2  0  0  0  0
 30 55  1  0  0  0  0
 30 31  1  0  0  0  0
 31 56  1  0  0  0  0
 32 31  2  0  0  0  0
 32 57  1  0  0  0  0
 33 58  1  1  0  0  0
 33 34  1  0  0  0  0
 34  3  2  0  0  0  0
 35 59  1  0  0  0  0
 35 33  1  0  0  0  0
 39 10  1  0  0  0  0
 40 10  1  0  0  0  0
 44 15  1  0  0  0  0
 45 16  1  0  0  0  0
 50 23  1  0  0  0  0
 51 24  1  0  0  0  0
 52 25  1  0  0  0  0
 53 28  1  0  0  0  0
 54 29  1  0  0  0  0
 60 35  1  0  0  0  0
 61 35  1  0  0  0  0
M  CHG  1   2  -1
M  END
