1,3,4,5
 OpenBabel05122313063D

 29 29  0  0  0  0  0  0  0  0999 V2000
   -1.6720   -0.9228   -0.7566 O   0  5  0  0  0  0  0  0  0  0  0  0
   -3.7531   -0.0633   -0.5690 O   0  0  0  0  0  0  0  0  0  0  0  0
    0.7869    0.3464   -1.6404 N   0  0  0  0  0  0  0  0  0  0  0  0
    1.8969   -0.2327    0.8037 N   0  0  0  0  0  0  0  0  0  0  0  0
   -0.6063    1.0514    0.7006 N   0  0  0  0  0  0  0  0  0  0  0  0
    2.1972    0.7122   -1.4480 C   0  0  0  0  0  0  0  0  0  0  0  0
    2.8345   -0.1257   -0.3301 C   0  0  0  0  0  0  0  0  0  0  0  0
    1.6893    1.0053    1.5979 C   0  0  0  0  0  0  0  0  0  0  0  0
    0.2054    1.2423    1.9107 C   0  0  0  0  0  0  0  0  0  0  0  0
   -0.3896    2.0683   -0.3452 C   0  0  0  0  0  0  0  0  0  0  0  0
   -0.1690    1.4491   -1.7363 C   0  0  0  0  0  0  0  0  0  0  0  0
   -2.0290    0.7560    0.9212 C   0  0  0  0  0  0  0  0  0  0  0  0
   -2.5861   -0.1209   -0.2253 C   0  0  0  0  0  0  0  0  0  0  0  0
    0.6687   -0.3357   -2.3964 H   0  0  0  0  0  0  0  0  0  0  0  0
    2.1704   -1.0089    1.4184 H   0  0  0  0  0  0  0  0  0  0  0  0
    2.7947    0.5989   -2.3782 H   0  0  0  0  0  0  0  0  0  0  0  0
    2.2470    1.7904   -1.1901 H   0  0  0  0  0  0  0  0  0  0  0  0
    3.8139    0.3126   -0.0303 H   0  0  0  0  0  0  0  0  0  0  0  0
    2.9969   -1.1602   -0.6886 H   0  0  0  0  0  0  0  0  0  0  0  0
    2.2672    0.9713    2.5451 H   0  0  0  0  0  0  0  0  0  0  0  0
    2.1025    1.8567    1.0209 H   0  0  0  0  0  0  0  0  0  0  0  0
    0.0793    2.2550    2.3657 H   0  0  0  0  0  0  0  0  0  0  0  0
   -0.1336    0.4817    2.6391 H   0  0  0  0  0  0  0  0  0  0  0  0
   -1.2423    2.7823   -0.3873 H   0  0  0  0  0  0  0  0  0  0  0  0
    0.4978    2.6736   -0.0702 H   0  0  0  0  0  0  0  0  0  0  0  0
    0.1571    2.2515   -2.4399 H   0  0  0  0  0  0  0  0  0  0  0  0
   -1.1152    1.0304   -2.1251 H   0  0  0  0  0  0  0  0  0  0  0  0
   -2.1143    0.1452    1.8434 H   0  0  0  0  0  0  0  0  0  0  0  0
   -2.6528    1.6707    1.0344 H   0  0  0  0  0  0  0  0  0  0  0  0
  1 13  1  0  0  0  0
  2 13  2  0  0  0  0
  3  6  1  0  0  0  0
  4 15  1  0  0  0  0
  4  8  1  0  0  0  0
  5 12  1  0  0  0  0
  5  9  1  0  0  0  0
  6 17  1  0  0  0  0
  6  7  1  0  0  0  0
  7 18  1  0  0  0  0
  7  4  1  0  0  0  0
  8  9  1  0  0  0  0
  8 20  1  0  0  0  0
  9 22  1  0  0  0  0
  9 23  1  0  0  0  0
 10 25  1  0  0  0  0
 10  5  1  0  0  0  0
 11  3  1  0  0  0  0
 11 10  1  0  0  0  0
 12 29  1  0  0  0  0
 12 28  1  0  0  0  0
 13 12  1  0  0  0  0
 14  3  1  0  0  0  0
 16  6  1  0  0  0  0
 19  7  1  0  0  0  0
 21  8  1  0  0  0  0
 24 10  1  0  0  0  0
 26 11  1  0  0  0  0
 27 11  1  0  0  0  0
M  CHG  1   1  -1
M  END
