2,5,6,7
q = -2.0, confidence = 0.804

 61 64  0  0  1  0  0  0  0  0999 V2000
    2.6666    4.0510   -0.9337 F   0  0  0  0  0  0  0  0  0  0  0  0
    0.3496   -2.6338   -1.0462 O   0  5  0  0  0  0  0  0  0  0  0  0
   -1.2852   -4.0602   -1.6616 O   0  0  0  0  0  0  0  0  0  0  0  0
    2.8694    1.2415    2.2709 O   0  0  0  0  0  0  0  0  0  0  0  0
   -1.1637   -0.9384    0.0881 N   0  0  0  0  0  2  0  0  0  0  0  0
    1.0471    0.4003    1.0322 N   0  0  0  0  0  2  0  0  0  0  0  0
    2.5903   -1.4235   -0.1533 N   0  0  0  0  0  0  0  0  0  0  0  0
   -0.8963   -3.0656   -1.0683 C   0  0  0  0  0  0  0  0  0  0  0  0
   -1.8421   -2.2121   -0.1993 C   0  0  1  0  0  0  0  0  0  0  0  0
   -2.7754   -2.0422   -0.7714 H   0  0  0  0  0  0  0  0  0  0  0  0
   -1.8232    0.1765    0.3133 C   0  0  0  0  0  0  0  0  0  0  0  0
   -1.1679    1.4253    0.6818 C   0  0  0  0  0  0  0  0  0  0  0  0
    0.2124    1.5097    1.0973 C   0  0  0  0  0  0  0  0  0  0  0  0
    0.6882    2.7874    1.5169 C   0  0  0  0  0  0  0  0  0  0  0  0
    1.7180    2.8555    1.8790 H   0  0  0  0  0  0  0  0  0  0  0  0
   -0.1093    3.9272    1.4523 C   0  0  0  0  0  0  0  0  0  0  0  0
    0.3227    4.8938    1.7546 H   0  0  0  0  0  0  0  0  0  0  0  0
   -1.4407    3.8541    1.0024 C   0  0  0  0  0  0  0  0  0  0  0  0
   -2.0717    4.7530    0.9466 H   0  0  0  0  0  0  0  0  0  0  0  0
   -1.9529    2.6117    0.6447 C   0  0  0  0  0  3  0  0  0  0  0  0
   -2.9962    2.5346    0.3100 H   0  0  0  0  0  0  0  0  0  0  0  0
    2.3419    0.4148    1.5254 C   0  0  0  0  0  0  0  0  0  0  0  0
    3.1565   -0.7962    1.0766 C   0  0  1  0  0  0  0  0  0  0  0  0
    4.1874   -0.4321    0.8738 H   0  0  0  0  0  0  0  0  0  0  0  0
    3.1927   -1.9351    2.1387 C   0  0  0  0  0  0  0  0  0  0  0  0
    4.2253   -2.0530    2.5194 H   0  0  0  0  0  0  0  0  0  0  0  0
    2.5526   -1.6927    3.0082 H   0  0  0  0  0  0  0  0  0  0  0  0
    2.7179   -3.1977    1.3902 C   0  0  0  0  0  0  0  0  0  0  0  0
    3.2468   -4.1158    1.7104 H   0  0  0  0  0  0  0  0  0  0  0  0
    1.6315   -3.3658    1.5362 H   0  0  0  0  0  0  0  0  0  0  0  0
    2.9718   -2.8615   -0.0720 C   0  0  0  0  0  0  0  0  0  0  0  0
    4.0529   -2.9549   -0.3278 H   0  0  0  0  0  0  0  0  0  0  0  0
    2.3606   -3.4391   -0.7885 H   0  0  0  0  0  0  0  0  0  0  0  0
    3.0242   -0.8083   -1.4440 C   0  0  0  0  0  0  0  0  0  0  0  0
    4.1322   -0.6971   -1.4294 H   0  0  0  0  0  0  0  0  0  0  0  0
    2.7581   -1.5389   -2.2316 H   0  0  0  0  0  0  0  0  0  0  0  0
    2.3447    0.5112   -1.7289 C   0  0  0  0  0  0  0  0  0  0  0  0
    1.0995    0.5211   -2.3935 C   0  0  0  0  0  0  0  0  0  0  0  0
    0.6814   -0.4240   -2.7703 H   0  0  0  0  0  0  0  0  0  0  0  0
    0.3981    1.7236   -2.5614 C   0  0  0  0  0  0  0  0  0  0  0  0
   -0.5761    1.7242   -3.0729 H   0  0  0  0  0  0  0  0  0  0  0  0
    0.9198    2.9301   -2.0710 C   0  0  0  0  0  0  0  0  0  0  0  0
    0.3771    3.8810   -2.1620 H   0  0  0  0  0  0  0  0  0  0  0  0
    2.1600    2.9057   -1.4254 C   0  0  0  0  0  0  0  0  0  0  0  0
    2.8872    1.7198   -1.2606 C   0  0  0  0  0  0  0  0  0  0  0  0
    3.8471    1.7565   -0.7253 H   0  0  0  0  0  0  0  0  0  0  0  0
   -2.1867   -2.9715    1.0877 C   0  0  0  0  0  0  0  0  0  0  0  0
   -2.9334   -2.4176    1.6897 H   0  0  0  0  0  0  0  0  0  0  0  0
   -1.2761   -3.1235    1.7021 H   0  0  0  0  0  0  0  0  0  0  0  0
   -2.6025   -3.9606    0.8150 H   0  0  0  0  0  0  0  0  0  0  0  0
   -3.3185    0.1772    0.1808 C   0  0  0  0  0  0  0  0  0  0  0  0
   -4.1391    0.1531    1.3256 C   0  0  0  0  0  0  0  0  0  0  0  0
   -3.6736    0.1462    2.3228 H   0  0  0  0  0  0  0  0  0  0  0  0
   -5.5359    0.1491    1.1938 C   0  0  0  0  0  0  0  0  0  0  0  0
   -6.1688    0.1266    2.0938 H   0  0  0  0  0  0  0  0  0  0  0  0
   -6.1243    0.1783   -0.0804 C   0  0  0  0  0  0  0  0  0  0  0  0
   -7.2200    0.1771   -0.1822 H   0  0  0  0  0  0  0  0  0  0  0  0
   -5.3117    0.2137   -1.2249 C   0  0  0  0  0  0  0  0  0  0  0  0
   -5.7678    0.2428   -2.2260 H   0  0  0  0  0  0  0  0  0  0  0  0
   -3.9151    0.2116   -1.0964 C   0  0  0  0  0  0  0  0  0  0  0  0
   -3.2741    0.2421   -1.9911 H   0  0  0  0  0  0  0  0  0  0  0  0
  3  8  2  0  0  0  0
  5 11  1  0  0  0  0
  6 13  1  0  0  0  0
  6 22  1  0  0  0  0
  7 31  1  0  0  0  0
  7 23  1  0  0  0  0
  8  2  1  0  0  0  0
  8  9  1  0  0  0  0
  9 10  1  6  0  0  0
  9  5  1  0  0  0  0
  9 47  1  0  0  0  0
 11 12  2  0  0  0  0
 12 13  1  0  0  0  0
 13 14  2  0  0  0  0
 14 15  1  0  0  0  0
 16 14  1  0  0  0  0
 16 17  1  0  0  0  0
 18 16  2  0  0  0  0
 19 18  1  0  0  0  0
 20 12  1  0  0  0  0
 20 18  1  0  0  0  0
 21 20  1  0  0  0  0
 22  4  2  0  0  0  0
 23 24  1  6  0  0  0
 23 22  1  0  0  0  0
 23 25  1  0  0  0  0
 25 26  1  0  0  0  0
 25 27  1  0  0  0  0
 28 30  1  0  0  0  0
 28 29  1  0  0  0  0
 28 25  1  0  0  0  0
 31 28  1  0  0  0  0
 32 31  1  0  0  0  0
 33 31  1  0  0  0  0
 34 35  1  0  0  0  0
 34  7  1  0  0  0  0
 36 34  1  0  0  0  0
 37 34  1  0  0  0  0
 37 45  1  0  0  0  0
 38 37  2  0  0  0  0
 39 38  1  0  0  0  0
 40 38  1  0  0  0  0
 40 42  2  0  0  0  0
 41 40  1  0  0  0  0
 42 44  1  0  0  0  0
 43 42  1  0  0  0  0
 44 45  2  0  0  0  0
 44  1  1  0  0  0  0
 45 46  1  0  0  0  0
 47 48  1  0  0  0  0
 47 49  1  0  0  0  0
 50 47  1  0  0  0  0
 51 11  1  0  0  0  0
 51 52  1  0  0  0  0
 52 53  1  0  0  0  0
 54 52  2  0  0  0  0
 54 55  1  0  0  0  0
 56 54  1  0  0  0  0
 57 56  1  0  0  0  0
 58 60  1  0  0  0  0
 58 56  2  0  0  0  0
 59 58  1  0  0  0  0
 60 51  2  0  0  0  0
 61 60  1  0  0  0  0
M  CHG  1   2  -1
M  END
