1,14,25,37
q = -2.0, confidence = 0.956

 48 51  0  0  1  0  0  0  0  0999 V2000
   -1.8620   -1.3869   -0.7597 O   0  5  0  0  0  0  0  0  0  0  0  0
   -3.1528   -1.1503   -0.5782 C   0  0  0  0  0  0  0  0  0  0  0  0
   -4.0674   -2.1990   -0.8481 C   0  0  0  0  0  0  0  0  0  0  0  0
   -3.6541   -3.1458   -1.2244 H   0  0  0  0  0  0  0  0  0  0  0  0
   -5.4370   -2.0295   -0.6393 C   0  0  0  0  0  0  0  0  0  0  0  0
   -6.1233   -2.8627   -0.8556 H   0  0  0  0  0  0  0  0  0  0  0  0
   -5.9470   -0.8048   -0.1577 C   0  0  0  0  0  0  0  0  0  0  0  0
   -7.0268   -0.6745    0.0027 H   0  0  0  0  0  0  0  0  0  0  0  0
   -5.0633    0.2384    0.1059 C   0  0  0  0  0  0  0  0  0  0  0  0
   -5.4430    1.2044    0.4763 H   0  0  0  0  0  0  0  0  0  0  0  0
   -3.6627    0.1027   -0.0954 C   0  0  0  0  0  0  0  0  0  0  0  0
   -2.8232    1.2403    0.1912 C   0  0  0  0  0  3  0  0  0  0  0  0
   -3.3618    2.1380    0.5611 H   0  0  0  0  0  0  0  0  0  0  0  0
   -1.5282    1.2813    0.0421 N   0  0  0  0  0  2  0  0  0  0  0  0
   -0.7554    2.4248    0.3025 C   0  0  0  0  0  0  0  0  0  0  0  0
   -1.2508    3.7062    0.6239 C   0  0  0  0  0  0  0  0  0  0  0  0
   -2.3351    3.8884    0.6515 H   0  0  0  0  0  0  0  0  0  0  0  0
   -0.3706    4.7565    0.9018 C   0  0  0  0  0  0  0  0  0  0  0  0
   -0.7664    5.7540    1.1425 H   0  0  0  0  0  0  0  0  0  0  0  0
    1.0202    4.5373    0.8566 C   0  0  0  0  0  0  0  0  0  0  0  0
    1.7140    5.3655    1.0659 H   0  0  0  0  0  0  0  0  0  0  0  0
    1.5297    3.2796    0.5180 C   0  0  0  0  0  0  0  0  0  0  0  0
    2.6163    3.1224    0.4446 H   0  0  0  0  0  0  0  0  0  0  0  0
    0.6556    2.2056    0.2286 C   0  0  0  0  0  0  0  0  0  0  0  0
    1.0968    0.9309   -0.1183 N   0  0  0  0  0  2  0  0  0  0  0  0
    2.1222    0.3130    0.7214 C   0  0  1  0  0  0  0  0  0  0  0  0
    2.5733    1.1045    1.3620 H   0  0  0  0  0  0  0  0  0  0  0  0
    1.4236   -0.6629    1.6657 C   0  0  1  0  0  3  0  0  0  0  0  0
    1.9256   -1.0307    2.9246 C   0  0  0  0  0  0  0  0  0  0  0  0
    2.8811   -0.6154    3.2775 H   0  0  0  0  0  0  0  0  0  0  0  0
    1.1854   -1.9217    3.7147 C   0  0  0  0  0  0  0  0  0  0  0  0
    1.5526   -2.2185    4.7089 H   0  0  0  0  0  0  0  0  0  0  0  0
   -0.0295   -2.4234    3.2249 C   0  0  0  0  0  0  0  0  0  0  0  0
   -0.6393   -3.1237    3.8132 H   0  0  0  0  0  0  0  0  0  0  0  0
   -0.4620   -2.0037    1.9600 C   0  0  0  0  0  0  0  0  0  0  0  0
   -1.4037   -2.3595    1.5123 H   0  0  0  0  0  0  0  0  0  0  0  0
    0.2465   -1.1404    1.2158 N   0  0  0  0  0  2  0  0  0  0  0  0
    3.2674   -0.3001   -0.0928 C   0  0  0  0  0  0  0  0  0  0  0  0
    3.6914    0.3768   -1.2523 C   0  0  0  0  0  0  0  0  0  0  0  0
    3.1432    1.2744   -1.5758 H   0  0  0  0  0  0  0  0  0  0  0  0
    4.7688   -0.1064   -2.0059 C   0  0  0  0  0  0  0  0  0  0  0  0
    5.0826    0.4309   -2.9139 H   0  0  0  0  0  0  0  0  0  0  0  0
    5.4364   -1.2779   -1.6137 C   0  0  0  0  0  0  0  0  0  0  0  0
    6.2780   -1.6628   -2.2094 H   0  0  0  0  0  0  0  0  0  0  0  0
    5.0128   -1.9623   -0.4656 C   0  0  0  0  0  0  0  0  0  0  0  0
    5.5168   -2.8914   -0.1586 H   0  0  0  0  0  0  0  0  0  0  0  0
    3.9336   -1.4770    0.2899 C   0  0  0  0  0  0  0  0  0  0  0  0
    3.6014   -2.0393    1.1747 H   0  0  0  0  0  0  0  0  0  0  0  0
  1  2  1  0  0  0  0
  2 11  1  0  0  0  0
  3  5  1  0  0  0  0
  3  2  2  0  0  0  0
  4  3  1  0  0  0  0
  5  7  2  0  0  0  0
  6  5  1  0  0  0  0
  7  8  1  0  0  0  0
  7  9  1  0  0  0  0
  9 10  1  0  0  0  0
 11  9  2  0  0  0  0
 11 12  1  0  0  0  0
 12 13  1  0  0  0  0
 14 12  1  0  0  0  0
 14 15  1  0  0  0  0
 15 16  1  0  0  0  0
 16 17  1  0  0  0  0
 16 18  2  0  0  0  0
 18 19  1  0  0  0  0
 20 18  1  0  0  0  0
 20 21  1  0  0  0  0
 22 20  2  0  0  0  0
 23 22  1  0  0  0  0
 24 15  2  0  0  0  0
 24 22  1  0  0  0  0
 25 24  1  0  0  0  0
 25 26  1  0  0  0  0
 26 27  1  1  0  0  0
 28 26  1  1  0  0  0
 28 29  1  0  0  0  0
 29 30  1  0  0  0  0
 29 31  2  0  0  0  0
 31 32  1  0  0  0  0
 33 31  1  0  0  0  0
 33 34  1  0  0  0  0
 35 33  2  0  0  0  0
 36 35  1  0  0  0  0
 37 28  1  0  0  0  0
 37 35  1  0  0  0  0
 38 47  1  0  0  0  0
 38 26  1  0  0  0  0
 39 38  2  0  0  0  0
 40 39  1  0  0  0  0
 41 43  2  0  0  0  0
 41 39  1  0  0  0  0
 42 41  1  0  0  0  0
 43 45  1  0  0  0  0
 44 43  1  0  0  0  0
 45 46  1  0  0  0  0
 45 47  2  0  0  0  0
 47 48  1  0  0  0  0
M  CHG  1   1  -1
M  END
