1,3,5,6
q = -2.0, confidence = 0.876

 79 81  0  0  1  0  0  0  0  0999 V2000
   -1.6608   -0.6108    0.0437 O   0  5  0  0  0  0  0  0  0  0  0  0
   -7.1805   -0.8394   -0.1294 O   0  0  0  0  0  0  0  0  0  0  0  0
    0.8426   -0.4451   -0.0578 N   0  0  0  0  0  2  0  0  0  0  0  0
    0.4368   -1.3821   -0.1063 H   0  0  0  0  0  0  0  0  0  0  0  0
   -1.8212    2.1291   -0.0325 N   0  0  0  0  0  2  0  0  0  0  0  0
    0.7237    2.2361    0.0234 N   0  0  0  0  0  2  0  0  0  0  0  0
   -3.1190    1.8780   -0.1031 C   0  0  0  0  0  0  0  0  0  0  0  0
   -3.8048    2.7414   -0.1772 H   0  0  0  0  0  0  0  0  0  0  0  0
   -2.9649   -0.6123    0.0328 C   0  0  0  0  0  0  0  0  0  0  0  0
   -5.8265   -0.6582   -0.0760 C   0  0  0  0  0  0  0  0  0  0  0  0
    2.1769   -0.3781   -0.0545 C   0  0  1  0  0  3  0  0  0  0  0  0
   -5.0650   -1.8511    0.0766 C   0  0  0  0  0  0  0  0  0  0  0  0
   -5.6438   -2.7811    0.1483 H   0  0  0  0  0  0  0  0  0  0  0  0
   -1.4176    5.8740   -0.0044 C   0  0  0  0  0  0  0  0  0  0  0  0
   -2.0094    6.8011   -0.0056 H   0  0  0  0  0  0  0  0  0  0  0  0
   -2.0694    4.6358   -0.0172 C   0  0  0  0  0  0  0  0  0  0  0  0
   -3.1677    4.6054   -0.0240 H   0  0  0  0  0  0  0  0  0  0  0  0
    2.0498    2.1177    0.0793 C   0  0  0  0  0  0  0  0  0  0  0  0
    2.6348    3.0512    0.1493 H   0  0  0  0  0  0  0  0  0  0  0  0
   -3.6771   -1.8741    0.1415 C   0  0  0  0  0  0  0  0  0  0  0  0
   -1.3168    3.4443   -0.0157 C   0  0  0  0  0  0  0  0  0  0  0  0
    3.0555   -1.5417   -0.1546 C   0  0  0  0  0  0  0  0  0  0  0  0
    4.2302    1.0501    0.1177 C   0  0  0  0  0  0  0  0  0  0  0  0
    4.6430    2.0652    0.2089 H   0  0  0  0  0  0  0  0  0  0  0  0
    2.4982   -2.9666   -0.3626 C   0  0  0  0  0  0  0  0  0  0  0  0
   -3.7398    0.6009   -0.0783 C   0  0  0  0  0  0  0  0  0  0  0  0
   -1.9953   -3.4522   -0.8768 C   0  0  0  0  0  0  0  0  0  0  0  0
   -2.6022   -3.5977   -1.7935 H   0  0  0  0  0  0  0  0  0  0  0  0
   -1.3903   -4.3688   -0.7170 H   0  0  0  0  0  0  0  0  0  0  0  0
   -1.3091   -2.6059   -1.0537 H   0  0  0  0  0  0  0  0  0  0  0  0
   -5.1700    0.5593   -0.1430 C   0  0  0  0  0  3  0  0  0  0  0  0
   -5.7150    1.5087   -0.2369 H   0  0  0  0  0  0  0  0  0  0  0  0
   -2.0799   -3.1014    1.6456 C   0  0  0  0  0  0  0  0  0  0  0  0
   -1.3853   -2.2422    1.6239 H   0  0  0  0  0  0  0  0  0  0  0  0
   -1.4902   -4.0300    1.7902 H   0  0  0  0  0  0  0  0  0  0  0  0
   -2.7490   -2.9814    2.5217 H   0  0  0  0  0  0  0  0  0  0  0  0
    5.0600   -0.0524    0.0670 C   0  0  0  0  0  0  0  0  0  0  0  0
   -7.9857    0.3107   -0.2691 C   0  0  0  0  0  0  0  0  0  0  0  0
   -7.7618    0.8635   -1.2107 H   0  0  0  0  0  0  0  0  0  0  0  0
   -7.8606    1.0131    0.5873 H   0  0  0  0  0  0  0  0  0  0  0  0
   -9.0355   -0.0363   -0.2976 H   0  0  0  0  0  0  0  0  0  0  0  0
    0.1033    3.5006    0.0109 C   0  0  0  0  0  0  0  0  0  0  0  0
    2.8072    0.9277    0.0501 C   0  0  0  0  0  0  0  0  0  0  0  0
    0.7474    4.7562    0.0175 C   0  0  0  0  0  0  0  0  0  0  0  0
    1.8435    4.8257    0.0250 H   0  0  0  0  0  0  0  0  0  0  0  0
    6.5922    0.0214    0.1437 C   0  0  0  0  0  0  0  0  0  0  0  0
    4.4251   -1.3269   -0.0808 C   0  0  0  0  0  0  0  0  0  0  0  0
    5.0823   -2.2032   -0.1481 H   0  0  0  0  0  0  0  0  0  0  0  0
   -0.0111    5.9320    0.0105 C   0  0  0  0  0  0  0  0  0  0  0  0
    0.5003    6.9060    0.0168 H   0  0  0  0  0  0  0  0  0  0  0  0
   -2.9100   -3.1923    0.3424 C   0  0  0  0  0  0  0  0  0  0  0  0
    1.6947   -3.0285   -1.6866 C   0  0  0  0  0  0  0  0  0  0  0  0
    0.8755   -2.2882   -1.7426 H   0  0  0  0  0  0  0  0  0  0  0  0
    1.2482   -4.0351   -1.8205 H   0  0  0  0  0  0  0  0  0  0  0  0
    2.3670   -2.8328   -2.5460 H   0  0  0  0  0  0  0  0  0  0  0  0
   -3.8573   -4.3981    0.4784 C   0  0  0  0  0  0  0  0  0  0  0  0
   -4.5373   -4.2979    1.3485 H   0  0  0  0  0  0  0  0  0  0  0  0
   -3.2581   -5.3187    0.6284 H   0  0  0  0  0  0  0  0  0  0  0  0
   -4.4746   -4.5488   -0.4303 H   0  0  0  0  0  0  0  0  0  0  0  0
    3.6222   -4.0147   -0.4878 C   0  0  0  0  0  0  0  0  0  0  0  0
    4.2922   -3.8067   -1.3460 H   0  0  0  0  0  0  0  0  0  0  0  0
    3.1717   -5.0141   -0.6518 H   0  0  0  0  0  0  0  0  0  0  0  0
    4.2400   -4.0762    0.4305 H   0  0  0  0  0  0  0  0  0  0  0  0
    1.6365   -3.4004    0.8494 C   0  0  0  0  0  0  0  0  0  0  0  0
    2.2543   -3.4155    1.7697 H   0  0  0  0  0  0  0  0  0  0  0  0
    1.2353   -4.4223    0.6880 H   0  0  0  0  0  0  0  0  0  0  0  0
    0.7736   -2.7408    1.0525 H   0  0  0  0  0  0  0  0  0  0  0  0
    7.0884    1.4688    0.2970 C   0  0  0  0  0  0  0  0  0  0  0  0
    6.7887    2.0989   -0.5649 H   0  0  0  0  0  0  0  0  0  0  0  0
    8.1955    1.4857    0.3539 H   0  0  0  0  0  0  0  0  0  0  0  0
    6.6986    1.9401    1.2219 H   0  0  0  0  0  0  0  0  0  0  0  0
    7.2014   -0.5688   -1.1489 C   0  0  0  0  0  0  0  0  0  0  0  0
    6.9042   -1.6259   -1.2997 H   0  0  0  0  0  0  0  0  0  0  0  0
    8.3101   -0.5355   -1.1084 H   0  0  0  0  0  0  0  0  0  0  0  0
    6.8700    0.0042   -2.0384 H   0  0  0  0  0  0  0  0  0  0  0  0
    7.0824   -0.7943    1.3620 C   0  0  0  0  0  0  0  0  0  0  0  0
    6.6668   -0.3841    2.3045 H   0  0  0  0  0  0  0  0  0  0  0  0
    8.1900   -0.7669    1.4305 H   0  0  0  0  0  0  0  0  0  0  0  0
    6.7774   -1.8579    1.2950 H   0  0  0  0  0  0  0  0  0  0  0  0
  2 10  1  0  0  0  0
  4  3  1  0  0  0  0
  5 21  1  0  0  0  0
  6 18  1  0  0  0  0
  7 26  2  0  0  0  0
  7  5  1  0  0  0  0
  8  7  1  0  0  0  0
  9  1  1  0  0  0  0
  9 20  2  0  0  0  0
 10 12  2  0  0  0  0
 11  3  1  6  0  0  0
 11 43  1  0  0  0  0
 12 20  1  0  0  0  0
 12 13  1  0  0  0  0
 14 49  1  0  0  0  0
 15 14  1  0  0  0  0
 16 21  1  0  0  0  0
 16 14  2  0  0  0  0
 17 16  1  0  0  0  0
 18 19  1  0  0  0  0
 20 51  1  0  0  0  0
 21 42  2  0  0  0  0
 22 47  2  0  0  0  0
 22 11  1  0  0  0  0
 23 24  1  0  0  0  0
 25 22  1  0  0  0  0
 25 64  1  0  0  0  0
 26  9  1  0  0  0  0
 27 29  1  0  0  0  0
 27 51  1  0  0  0  0
 28 27  1  0  0  0  0
 30 27  1  0  0  0  0
 31 26  1  0  0  0  0
 31 10  1  0  0  0  0
 32 31  1  0  0  0  0
 33 35  1  0  0  0  0
 33 36  1  0  0  0  0
 34 33  1  0  0  0  0
 37 23  2  0  0  0  0
 37 46  1  0  0  0  0
 38  2  1  0  0  0  0
 38 40  1  0  0  0  0
 39 38  1  0  0  0  0
 41 38  1  0  0  0  0
 42 44  1  0  0  0  0
 42  6  1  0  0  0  0
 43 18  2  0  0  0  0
 43 23  1  0  0  0  0
 44 45  1  0  0  0  0
 46 68  1  0  0  0  0
 46 76  1  0  0  0  0
 47 37  1  0  0  0  0
 48 47  1  0  0  0  0
 49 50  1  0  0  0  0
 49 44  2  0  0  0  0
 51 56  1  0  0  0  0
 51 33  1  0  0  0  0
 52 25  1  0  0  0  0
 53 52  1  0  0  0  0
 54 52  1  0  0  0  0
 55 52  1  0  0  0  0
 56 58  1  0  0  0  0
 56 57  1  0  0  0  0
 59 56  1  0  0  0  0
 60 25  1  0  0  0  0
 60 63  1  0  0  0  0
 61 60  1  0  0  0  0
 62 60  1  0  0  0  0
 64 67  1  0  0  0  0
 64 65  1  0  0  0  0
 66 64  1  0  0  0  0
 68 70  1  0  0  0  0
 68 71  1  0  0  0  0
 69 68  1  0  0  0  0
 72 74  1  0  0  0  0
 72 46  1  0  0  0  0
 73 72  1  0  0  0  0
 75 72  1  0  0  0  0
 76 78  1  0  0  0  0
 76 77  1  0  0  0  0
 79 76  1  0  0  0  0
M  CHG  1   1  -1
M  END
