1,2,6,10
q = -1.0, confidence = 0.006

 43 43  0  0  0  0  0  0  0  0999 V2000
   -0.4886   -1.4131    0.8644 N   0  0  0  0  0  2  0  0  0  0  0  0
   -0.9085    1.1932    0.1092 O   0  5  0  0  0  0  0  0  0  0  0  0
    0.2238   -2.4511    1.6010 C   0  0  0  0  0  0  0  0  0  0  0  0
    1.1381   -1.8287    2.6842 C   0  0  0  0  0  0  0  0  0  0  0  0
    0.8911   -0.3396    2.9159 C   0  0  0  0  0  0  0  0  0  0  0  0
    1.3335    0.4995    1.7800 N   0  0  0  0  0  0  0  0  0  0  0  0
    1.2402    1.9321    2.0948 C   0  0  0  0  0  0  0  0  0  0  0  0
    1.9995    2.7909    1.0933 C   0  0  0  0  0  0  0  0  0  0  0  0
    1.4110    2.8028   -0.3118 C   0  0  0  0  0  0  0  0  0  0  0  0
    1.5248    1.5378   -1.0882 N   0  0  0  0  0  0  0  0  0  0  0  0
    0.8142    1.7660   -2.3682 C   0  0  0  0  0  0  0  0  0  0  0  0
    2.9415    1.2515   -1.3933 C   0  0  0  0  0  0  0  0  0  0  0  0
   -1.7962   -1.4460    0.8414 C   0  0  0  0  0  3  0  0  0  0  0  0
   -2.6698   -0.4447    0.3037 C   0  0  0  0  0  0  0  0  0  0  0  0
   -4.0591   -0.7184    0.1936 C   0  0  0  0  0  0  0  0  0  0  0  0
   -4.9581    0.2584   -0.2217 C   0  0  0  0  0  0  0  0  0  0  0  0
   -4.4712    1.5556   -0.5100 C   0  0  0  0  0  0  0  0  0  0  0  0
   -3.1173    1.8603   -0.3969 C   0  0  0  0  0  0  0  0  0  0  0  0
   -2.1668    0.8701   -0.0054 C   0  0  0  0  0  0  0  0  0  0  0  0
    0.9031    0.8708   -3.0039 H   0  0  0  0  0  0  0  0  0  0  0  0
   -0.5210   -3.1341    2.0619 H   0  0  0  0  0  0  0  0  0  0  0  0
   -2.7398    2.8692   -0.6202 H   0  0  0  0  0  0  0  0  0  0  0  0
   -2.2822   -2.3268    1.3071 H   0  0  0  0  0  0  0  0  0  0  0  0
    3.4150    2.1402   -1.8701 H   0  0  0  0  0  0  0  0  0  0  0  0
   -4.4145   -1.7317    0.4407 H   0  0  0  0  0  0  0  0  0  0  0  0
    0.1639    2.2008    2.0942 H   0  0  0  0  0  0  0  0  0  0  0  0
    0.3311    3.0313   -0.2478 H   0  0  0  0  0  0  0  0  0  0  0  0
    1.9004    3.6095   -0.9065 H   0  0  0  0  0  0  0  0  0  0  0  0
   -0.2569    1.9320   -2.1605 H   0  0  0  0  0  0  0  0  0  0  0  0
   -0.1860   -0.1323    3.0849 H   0  0  0  0  0  0  0  0  0  0  0  0
    1.6370    2.1139    3.1209 H   0  0  0  0  0  0  0  0  0  0  0  0
    1.4309   -0.0140    3.8347 H   0  0  0  0  0  0  0  0  0  0  0  0
    3.5008    0.9855   -0.4794 H   0  0  0  0  0  0  0  0  0  0  0  0
    0.8303   -3.0376    0.8852 H   0  0  0  0  0  0  0  0  0  0  0  0
    1.2466    2.6537   -2.8830 H   0  0  0  0  0  0  0  0  0  0  0  0
    3.0090    0.4005   -2.0936 H   0  0  0  0  0  0  0  0  0  0  0  0
    2.3127    0.2419    1.5687 H   0  0  0  0  0  0  0  0  0  0  0  0
   -6.0289    0.0300   -0.3185 H   0  0  0  0  0  0  0  0  0  0  0  0
    2.1995   -1.9728    2.4004 H   0  0  0  0  0  0  0  0  0  0  0  0
   -5.1732    2.3403   -0.8336 H   0  0  0  0  0  0  0  0  0  0  0  0
    0.9834   -2.3523    3.6490 H   0  0  0  0  0  0  0  0  0  0  0  0
    1.9805    3.8371    1.4618 H   0  0  0  0  0  0  0  0  0  0  0  0
    3.0740    2.5025    1.0809 H   0  0  0  0  0  0  0  0  0  0  0  0
  1  3  1  0  0  0  0
  3 21  1  0  0  0  0
  3  4  1  0  0  0  0
  4  5  1  0  0  0  0
  4 41  1  0  0  0  0
  5 30  1  0  0  0  0
  5 32  1  0  0  0  0
  6  7  1  0  0  0  0
  6  5  1  0  0  0  0
  7 31  1  0  0  0  0
  8 42  1  0  0  0  0
  8  7  1  0  0  0  0
  9 27  1  0  0  0  0
  9  8  1  0  0  0  0
 10  9  1  0  0  0  0
 11 29  1  0  0  0  0
 11 10  1  0  0  0  0
 12 10  1  0  0  0  0
 12 33  1  0  0  0  0
 13  1  1  0  0  0  0
 13 23  1  0  0  0  0
 14 13  1  0  0  0  0
 15 14  1  0  0  0  0
 15 25  1  0  0  0  0
 16 15  2  0  0  0  0
 17 18  2  0  0  0  0
 17 16  1  0  0  0  0
 18 19  1  0  0  0  0
 19  2  1  0  0  0  0
 19 14  2  0  0  0  0
 20 11  1  0  0  0  0
 22 18  1  0  0  0  0
 24 12  1  0  0  0  0
 26  7  1  0  0  0  0
 28  9  1  0  0  0  0
 34  3  1  0  0  0  0
 35 11  1  0  0  0  0
 36 12  1  0  0  0  0
 37  6  1  0  0  0  0
 38 16  1  0  0  0  0
 39  4  1  0  0  0  0
 40 17  1  0  0  0  0
 43  8  1  0  0  0  0
M  CHG  1   2  -1
M  END
