1,6,7,8
q = -2.0, confidence = 0.82

 71 75  0  0  1  0  0  0  0  0999 V2000
   -0.0696   -1.8792    1.5358 O   0  5  0  0  0  0  0  0  0  0  0  0
   -2.0748   -1.8420    2.5621 O   0  0  0  0  0  0  0  0  0  0  0  0
    3.7304   -0.7824   -2.5575 O   0  0  0  0  0  0  0  0  0  0  0  0
   -6.0758   -2.7871   -1.2537 F   0  0  0  0  0  0  0  0  0  0  0  0
   -7.4822   -1.1157   -0.9301 F   0  0  0  0  0  0  0  0  0  0  0  0
    2.2065   -2.4956    0.2429 N   0  0  0  0  0  0  0  0  0  0  0  0
    2.0219   -0.1650   -1.0531 N   0  0  0  0  0  2  0  0  0  0  0  0
   -0.3423    0.3105    0.2818 N   0  0  0  0  0  2  0  0  0  0  0  0
    1.5373   -3.8263    0.3037 C   0  0  0  0  0  0  0  0  0  0  0  0
    0.9442   -3.9704   -1.0897 C   0  0  0  0  0  0  0  0  0  0  0  0
    2.0525   -3.4101   -2.0012 C   0  0  0  0  0  0  0  0  0  0  0  0
    2.8703   -2.4434   -1.0931 C   0  0  1  0  0  0  0  0  0  0  0  0
    2.9354   -1.0224   -1.6479 C   0  0  0  0  0  0  0  0  0  0  0  0
    2.0545    1.2104   -1.2526 C   0  0  2  0  0  3  0  0  0  0  0  0
    3.1369    1.8496   -1.9282 C   0  0  0  0  0  0  0  0  0  0  0  0
    3.2238    3.2350   -2.0355 C   0  0  0  0  0  0  0  0  0  0  0  0
    2.2235    4.0682   -1.5000 C   0  0  0  0  0  0  0  0  0  0  0  0
    1.1307    3.4747   -0.8797 C   0  0  0  0  0  0  0  0  0  0  0  0
    1.0060    2.0628   -0.7426 C   0  0  0  0  0  0  0  0  0  0  0  0
   -0.2034    1.5605   -0.1071 C   0  0  0  0  0  0  0  0  0  0  0  0
   -1.6009   -0.1886    0.8524 C   0  0  2  0  0  0  0  0  0  0  0  0
   -1.2691   -1.3851    1.7613 C   0  0  0  0  0  0  0  0  0  0  0  0
   -2.5913   -0.6189   -0.2539 C   0  0  0  0  0  0  0  0  0  0  0  0
   -3.9757   -0.8715    0.2979 C   0  0  2  0  0  0  0  0  0  0  0  0
   -5.1802   -0.7083   -0.5968 C   0  0  2  0  0  0  0  0  0  0  0  0
   -4.9205    0.2871    0.5114 C   0  0  0  0  0  0  0  0  0  0  0  0
   -6.3139   -1.6789   -0.4801 C   0  0  0  0  0  0  0  0  0  0  0  0
    3.1091   -2.2720    1.4128 C   0  0  0  0  0  0  0  0  0  0  0  0
    3.5578   -0.8356    1.5387 C   0  0  0  0  0  0  0  0  0  0  0  0
    2.7498    0.0861    2.2386 C   0  0  0  0  0  0  0  0  0  0  0  0
    3.0817    1.4478    2.2597 C   0  0  0  0  0  0  0  0  0  0  0  0
    4.2267    1.9048    1.5868 C   0  0  0  0  0  0  0  0  0  0  0  0
    5.0481    0.9917    0.9104 C   0  0  0  0  0  0  0  0  0  0  0  0
    4.7171   -0.3730    0.8917 C   0  0  0  0  0  0  0  0  0  0  0  0
   -1.3436    2.5154    0.1033 C   0  0  0  0  0  0  0  0  0  0  0  0
   -1.6215    3.0287    1.3868 C   0  0  0  0  0  0  0  0  0  0  0  0
   -2.7071    3.8948    1.5834 C   0  0  0  0  0  0  0  0  0  0  0  0
   -3.5259    4.2560    0.5013 C   0  0  0  0  0  0  0  0  0  0  0  0
   -3.2469    3.7590   -0.7818 C   0  0  0  0  0  0  0  0  0  0  0  0
   -2.1581    2.8968   -0.9819 C   0  0  0  0  0  0  0  0  0  0  0  0
    2.3139   -4.6036    0.4926 H   0  0  0  0  0  0  0  0  0  0  0  0
    0.7996   -3.8235    1.1259 H   0  0  0  0  0  0  0  0  0  0  0  0
    0.0214   -3.3577   -1.1557 H   0  0  0  0  0  0  0  0  0  0  0  0
    0.6720   -5.0161   -1.3295 H   0  0  0  0  0  0  0  0  0  0  0  0
    2.7128   -4.2192   -2.3686 H   0  0  0  0  0  0  0  0  0  0  0  0
    1.6553   -2.8871   -2.8917 H   0  0  0  0  0  0  0  0  0  0  0  0
    3.9197   -2.7991   -1.0082 H   0  0  0  0  0  0  0  0  0  0  0  0
    3.9113    1.2124   -2.3644 H   0  0  0  0  0  0  0  0  0  0  0  0
    4.0943    3.6739   -2.5478 H   0  0  0  0  0  0  0  0  0  0  0  0
    2.2933    5.1628   -1.5779 H   0  0  0  0  0  0  0  0  0  0  0  0
    0.3333    4.1089   -0.4691 H   0  0  0  0  0  0  0  0  0  0  0  0
   -2.0980    0.5904    1.4623 H   0  0  0  0  0  0  0  0  0  0  0  0
   -2.1937   -1.5202   -0.7693 H   0  0  0  0  0  0  0  0  0  0  0  0
   -2.6370    0.1896   -1.0128 H   0  0  0  0  0  0  0  0  0  0  0  0
   -4.0190   -1.6712    1.0559 H   0  0  0  0  0  0  0  0  0  0  0  0
   -5.0085   -0.3774   -1.6354 H   0  0  0  0  0  0  0  0  0  0  0  0
   -4.5874    1.2949    0.2157 H   0  0  0  0  0  0  0  0  0  0  0  0
   -5.5777    0.2655    1.3949 H   0  0  0  0  0  0  0  0  0  0  0  0
   -6.4750   -2.0181    0.5710 H   0  0  0  0  0  0  0  0  0  0  0  0
    3.9804   -2.9600    1.3224 H   0  0  0  0  0  0  0  0  0  0  0  0
    2.5231   -2.5652    2.3051 H   0  0  0  0  0  0  0  0  0  0  0  0
    1.8532   -0.2753    2.7653 H   0  0  0  0  0  0  0  0  0  0  0  0
    2.4397    2.1597    2.8002 H   0  0  0  0  0  0  0  0  0  0  0  0
    4.4748    2.9766    1.5850 H   0  0  0  0  0  0  0  0  0  0  0  0
    5.9468    1.3431    0.3821 H   0  0  0  0  0  0  0  0  0  0  0  0
    5.3579   -1.0816    0.3440 H   0  0  0  0  0  0  0  0  0  0  0  0
   -0.9776    2.7447    2.2335 H   0  0  0  0  0  0  0  0  0  0  0  0
   -2.9152    4.2890    2.5894 H   0  0  0  0  0  0  0  0  0  0  0  0
   -4.3803    4.9316    0.6577 H   0  0  0  0  0  0  0  0  0  0  0  0
   -3.8798    4.0459   -1.6351 H   0  0  0  0  0  0  0  0  0  0  0  0
   -1.9283    2.5157   -1.9885 H   0  0  0  0  0  0  0  0  0  0  0  0
  1 22  1  0  0  0  0
  3 13  2  0  0  0  0
  4 27  1  0  0  0  0
  5 27  1  0  0  0  0
  6  9  1  0  0  0  0
  6 28  1  0  0  0  0
  8 21  1  0  0  0  0
  9 41  1  0  0  0  0
  9 42  1  0  0  0  0
 10  9  1  0  0  0  0
 11 12  1  0  0  0  0
 11 10  1  0  0  0  0
 12 47  1  1  0  0  0
 12  6  1  0  0  0  0
 13 12  1  0  0  0  0
 13  7  1  0  0  0  0
 14  7  1  1  0  0  0
 14 19  1  0  0  0  0
 15 14  1  0  0  0  0
 16 15  2  0  0  0  0
 16 17  1  0  0  0  0
 17 18  2  0  0  0  0
 18 19  1  0  0  0  0
 18 51  1  0  0  0  0
 19 20  2  0  0  0  0
 20 35  1  0  0  0  0
 20  8  1  0  0  0  0
 21 52  1  1  0  0  0
 21 22  1  0  0  0  0
 22  2  2  0  0  0  0
 23 24  1  0  0  0  0
 23 21  1  0  0  0  0
 24 26  1  0  0  0  0
 24 55  1  1  0  0  0
 25 56  1  6  0  0  0
 25 27  1  0  0  0  0
 25 24  1  0  0  0  0
 25 26  1  0  0  0  0
 26 58  1  0  0  0  0
 27 59  1  0  0  0  0
 28 29  1  0  0  0  0
 28 61  1  0  0  0  0
 29 30  1  0  0  0  0
 30 31  2  0  0  0  0
 30 62  1  0  0  0  0
 31 63  1  0  0  0  0
 32 31  1  0  0  0  0
 33 32  2  0  0  0  0
 34 33  1  0  0  0  0
 34 29  2  0  0  0  0
 35 36  1  0  0  0  0
 36 37  2  0  0  0  0
 36 67  1  0  0  0  0
 37 68  1  0  0  0  0
 38 69  1  0  0  0  0
 38 37  1  0  0  0  0
 39 38  2  0  0  0  0
 40 39  1  0  0  0  0
 40 35  2  0  0  0  0
 43 10  1  0  0  0  0
 44 10  1  0  0  0  0
 45 11  1  0  0  0  0
 46 11  1  0  0  0  0
 48 15  1  0  0  0  0
 49 16  1  0  0  0  0
 50 17  1  0  0  0  0
 53 23  1  0  0  0  0
 54 23  1  0  0  0  0
 57 26  1  0  0  0  0
 60 28  1  0  0  0  0
 64 32  1  0  0  0  0
 65 33  1  0  0  0  0
 66 34  1  0  0  0  0
 70 39  1  0  0  0  0
 71 40  1  0  0  0  0
M  CHG  1   1  -1
M  END
