1,4,5,6
q = -2.0, confidence = 0.818

 71 75  0  0  1  0  0  0  0  0999 V2000
    0.7447   -0.6084   -2.2921 O   0  5  0  0  0  0  0  0  0  0  0  0
    1.7139    0.9536   -3.6009 O   0  0  0  0  0  0  0  0  0  0  0  0
   -0.8825   -2.7676    2.6990 O   0  0  0  0  0  0  0  0  0  0  0  0
    0.0715   -2.7757   -0.8233 N   0  0  0  0  0  0  0  0  0  0  0  0
   -0.9217   -1.1273    1.0175 N   0  0  0  0  0  2  0  0  0  0  0  0
   -0.1614    1.0038   -0.5428 N   0  0  0  0  0  2  0  0  0  0  0  0
    1.4302   -3.1943   -1.2917 C   0  0  0  0  0  0  0  0  0  0  0  0
    1.7846   -2.4733   -2.0509 H   0  0  0  0  0  0  0  0  0  0  0  0
    1.3489   -4.2040   -1.7565 H   0  0  0  0  0  0  0  0  0  0  0  0
    2.2433   -3.2706   -0.0073 C   0  0  0  0  0  0  0  0  0  0  0  0
    2.4953   -2.2527    0.3527 H   0  0  0  0  0  0  0  0  0  0  0  0
    3.1928   -3.8245   -0.1383 H   0  0  0  0  0  0  0  0  0  0  0  0
    1.2620   -3.9584    0.9477 C   0  0  0  0  0  0  0  0  0  0  0  0
    1.4543   -3.7783    2.0221 H   0  0  0  0  0  0  0  0  0  0  0  0
    1.2788   -5.0548    0.7854 H   0  0  0  0  0  0  0  0  0  0  0  0
   -0.1135   -3.3850    0.5369 C   0  0  1  0  0  0  0  0  0  0  0  0
   -0.8664   -4.1994    0.4881 H   0  0  0  0  0  0  0  0  0  0  0  0
   -0.6756   -2.3839    1.5484 C   0  0  0  0  0  0  0  0  0  0  0  0
   -1.8002   -0.2340    1.6155 C   0  0  2  0  0  3  0  0  0  0  0  0
   -2.6968   -0.6446    2.6465 C   0  0  0  0  0  0  0  0  0  0  0  0
   -2.6039   -1.6636    3.0335 H   0  0  0  0  0  0  0  0  0  0  0  0
   -3.6685    0.2090    3.1594 C   0  0  0  0  0  0  0  0  0  0  0  0
   -4.3497   -0.1678    3.9382 H   0  0  0  0  0  0  0  0  0  0  0  0
   -3.7863    1.5340    2.6958 C   0  0  0  0  0  0  0  0  0  0  0  0
   -4.5548    2.2097    3.0982 H   0  0  0  0  0  0  0  0  0  0  0  0
   -2.8984    1.9780    1.7241 C   0  0  0  0  0  0  0  0  0  0  0  0
   -2.9693    3.0121    1.3613 H   0  0  0  0  0  0  0  0  0  0  0  0
   -1.8953    1.1341    1.1658 C   0  0  0  0  0  0  0  0  0  0  0  0
   -0.9977    1.7184    0.1809 C   0  0  0  0  0  0  0  0  0  0  0  0
    0.7940    1.6290   -1.4686 C   0  0  2  0  0  0  0  0  0  0  0  0
    0.3636    2.5411   -1.9251 H   0  0  0  0  0  0  0  0  0  0  0  0
    1.1151    0.6190   -2.5874 C   0  0  0  0  0  0  0  0  0  0  0  0
    2.1088    2.0255   -0.7637 C   0  0  0  0  0  0  0  0  0  0  0  0
    2.7351    2.5273   -1.5303 H   0  0  0  0  0  0  0  0  0  0  0  0
    1.8843    2.7750    0.0237 H   0  0  0  0  0  0  0  0  0  0  0  0
    2.8584    0.8495   -0.1781 C   0  0  2  0  0  0  0  0  0  0  0  0
    2.2984    0.2730    0.5789 H   0  0  0  0  0  0  0  0  0  0  0  0
    4.3459    0.9536    0.0624 C   0  0  2  0  0  0  0  0  0  0  0  0
    4.8543    1.8881   -0.2252 H   0  0  0  0  0  0  0  0  0  0  0  0
    3.8200    0.0571   -1.0319 C   0  0  0  0  0  0  0  0  0  0  0  0
    3.9599    0.3828   -2.0732 H   0  0  0  0  0  0  0  0  0  0  0  0
    3.8813   -1.0293   -0.8755 H   0  0  0  0  0  0  0  0  0  0  0  0
    4.9289    0.3549    1.3070 C   0  0  0  0  0  0  0  0  0  0  0  0
   -0.9989   -3.1205   -1.8119 C   0  0  0  0  0  0  0  0  0  0  0  0
   -1.1099   -4.2284   -1.8420 H   0  0  0  0  0  0  0  0  0  0  0  0
   -0.6248   -2.7765   -2.7953 H   0  0  0  0  0  0  0  0  0  0  0  0
   -2.3112   -2.4433   -1.4873 C   0  0  0  0  0  0  0  0  0  0  0  0
   -3.2326   -3.0200   -0.5948 C   0  0  0  0  0  0  0  0  0  0  0  0
   -3.0539   -4.0335   -0.2026 H   0  0  0  0  0  0  0  0  0  0  0  0
   -4.3699   -2.3082   -0.1798 C   0  0  0  0  0  0  0  0  0  0  0  0
   -5.0698   -2.7645    0.5360 H   0  0  0  0  0  0  0  0  0  0  0  0
   -4.6058   -1.0151   -0.6678 C   0  0  0  0  0  0  0  0  0  0  0  0
   -5.4853   -0.4484   -0.3279 H   0  0  0  0  0  0  0  0  0  0  0  0
   -3.7143   -0.4467   -1.5925 C   0  0  0  0  0  0  0  0  0  0  0  0
   -3.9048    0.5609   -1.9924 H   0  0  0  0  0  0  0  0  0  0  0  0
   -2.5756   -1.1548   -2.0007 C   0  0  0  0  0  0  0  0  0  0  0  0
   -1.8742   -0.7111   -2.7233 H   0  0  0  0  0  0  0  0  0  0  0  0
   -1.0435    3.2060   -0.0186 C   0  0  0  0  0  0  0  0  0  0  0  0
   -0.4073    4.0721    0.8924 C   0  0  0  0  0  0  0  0  0  0  0  0
    0.1140    3.6498    1.7649 H   0  0  0  0  0  0  0  0  0  0  0  0
   -0.4499    5.4605    0.6948 C   0  0  0  0  0  0  0  0  0  0  0  0
    0.0525    6.1288    1.4103 H   0  0  0  0  0  0  0  0  0  0  0  0
   -1.1345    5.9955   -0.4078 C   0  0  0  0  0  0  0  0  0  0  0  0
   -1.1683    7.0846   -0.5607 H   0  0  0  0  0  0  0  0  0  0  0  0
   -1.7805    5.1379   -1.3127 C   0  0  0  0  0  0  0  0  0  0  0  0
   -2.3243    5.5523   -2.1749 H   0  0  0  0  0  0  0  0  0  0  0  0
   -1.7353    3.7492   -1.1206 C   0  0  0  0  0  0  0  0  0  0  0  0
   -2.2430    3.0731   -1.8258 H   0  0  0  0  0  0  0  0  0  0  0  0
    6.2452    0.0688    1.1600 F   0  0  0  0  0  0  0  0  0  0  0  0
    4.8203    1.1971    2.3639 F   0  0  0  0  0  0  0  0  0  0  0  0
    4.3040   -0.8063    1.6557 F   0  0  0  0  0  0  0  0  0  0  0  0
  2 32  2  0  0  0  0
  4 16  1  0  0  0  0
  5 18  1  0  0  0  0
  6 29  1  0  0  0  0
  7  4  1  0  0  0  0
  7 10  1  0  0  0  0
  8  7  1  0  0  0  0
  9  7  1  0  0  0  0
 10 11  1  0  0  0  0
 10 13  1  0  0  0  0
 12 10  1  0  0  0  0
 13 14  1  0  0  0  0
 15 13  1  0  0  0  0
 16 17  1  6  0  0  0
 16 13  1  0  0  0  0
 16 18  1  0  0  0  0
 18  3  2  0  0  0  0
 19  5  1  6  0  0  0
 19 20  1  0  0  0  0
 20 21  1  0  0  0  0
 20 22  2  0  0  0  0
 22 23  1  0  0  0  0
 24 25  1  0  0  0  0
 24 22  1  0  0  0  0
 26 24  2  0  0  0  0
 27 26  1  0  0  0  0
 28 19  1  0  0  0  0
 28 26  1  0  0  0  0
 29 28  2  0  0  0  0
 30 31  1  6  0  0  0
 30 33  1  0  0  0  0
 30  6  1  0  0  0  0
 32  1  1  0  0  0  0
 32 30  1  0  0  0  0
 33 36  1  0  0  0  0
 33 35  1  0  0  0  0
 34 33  1  0  0  0  0
 36 38  1  0  0  0  0
 36 37  1  1  0  0  0
 38 39  1  6  0  0  0
 38 43  1  0  0  0  0
 40 42  1  0  0  0  0
 40 36  1  0  0  0  0
 40 38  1  0  0  0  0
 41 40  1  0  0  0  0
 43 71  1  0  0  0  0
 43 70  1  0  0  0  0
 44 47  1  0  0  0  0
 44  4  1  0  0  0  0
 45 44  1  0  0  0  0
 46 44  1  0  0  0  0
 47 48  1  0  0  0  0
 48 49  1  0  0  0  0
 48 50  2  0  0  0  0
 50 51  1  0  0  0  0
 52 53  1  0  0  0  0
 52 50  1  0  0  0  0
 54 52  2  0  0  0  0
 55 54  1  0  0  0  0
 56 54  1  0  0  0  0
 56 47  2  0  0  0  0
 57 56  1  0  0  0  0
 58 29  1  0  0  0  0
 58 59  1  0  0  0  0
 59 60  1  0  0  0  0
 61 59  2  0  0  0  0
 61 62  1  0  0  0  0
 63 61  1  0  0  0  0
 64 63  1  0  0  0  0
 65 67  1  0  0  0  0
 65 63  2  0  0  0  0
 66 65  1  0  0  0  0
 67 58  2  0  0  0  0
 68 67  1  0  0  0  0
 69 43  1  0  0  0  0
M  CHG  1   1  -1
M  END
