3,5,6,7
q = -2.0, confidence = 0.846

 63 65  0  0  1  0  0  0  0  0999 V2000
   -5.0384    3.3436    0.1463 Cl  0  0  0  0  0  0  0  0  0  0  0  0
    1.5253    2.9695    1.8959 O   0  0  0  0  0  0  0  0  0  0  0  0
    2.0029   -1.5531   -1.3907 O   0  5  0  0  0  0  0  0  0  0  0  0
    1.5988   -3.7487   -1.7147 O   0  0  0  0  0  0  0  0  0  0  0  0
    0.6219    1.4244    0.3685 N   0  0  0  0  0  2  0  0  0  0  0  0
   -0.3485   -0.9565   -0.5655 N   0  0  0  0  0  2  0  0  0  0  0  0
    2.9841    0.7767   -0.5507 N   0  0  0  0  0  0  0  0  0  0  0  0
    3.6048   -0.0476   -0.5469 H   0  0  0  0  0  0  0  0  0  0  0  0
    3.3730    1.6181   -1.7514 C   0  0  0  0  0  0  0  0  0  0  0  0
    2.5510    2.9124   -1.7838 C   0  0  0  0  0  0  0  0  0  0  0  0
    1.4681    2.6914   -1.8344 H   0  0  0  0  0  0  0  0  0  0  0  0
    2.8313    3.4940   -2.6836 H   0  0  0  0  0  0  0  0  0  0  0  0
    2.7327    3.5567   -0.9011 H   0  0  0  0  0  0  0  0  0  0  0  0
    4.8772    1.9318   -1.6619 C   0  0  0  0  0  0  0  0  0  0  0  0
    5.1291    2.5171   -0.7551 H   0  0  0  0  0  0  0  0  0  0  0  0
    5.1926    2.5293   -2.5394 H   0  0  0  0  0  0  0  0  0  0  0  0
    5.4783    0.9990   -1.6566 H   0  0  0  0  0  0  0  0  0  0  0  0
    3.0905    0.7865   -3.0094 C   0  0  0  0  0  0  0  0  0  0  0  0
    3.5709   -0.2096   -2.9571 H   0  0  0  0  0  0  0  0  0  0  0  0
    3.4680    1.3215   -3.9029 H   0  0  0  0  0  0  0  0  0  0  0  0
    2.0034    0.6146   -3.1319 H   0  0  0  0  0  0  0  0  0  0  0  0
    3.0053    1.4538    0.7603 C   0  0  0  0  0  0  0  0  0  0  0  0
    3.7755    2.2476    0.8401 H   0  0  0  0  0  0  0  0  0  0  0  0
    3.2234    0.6944    1.5389 H   0  0  0  0  0  0  0  0  0  0  0  0
    1.6353    2.0604    1.0748 C   0  0  0  0  0  0  0  0  0  0  0  0
   -0.6980    1.8440    0.3835 C   0  0  0  0  0  0  0  0  0  0  0  0
   -1.0657    3.1558    0.8035 C   0  0  0  0  0  0  0  0  0  0  0  0
   -0.2788    3.8081    1.1965 H   0  0  0  0  0  0  0  0  0  0  0  0
   -2.3778    3.6141    0.7346 C   0  0  0  0  0  0  0  0  0  0  0  0
   -2.6241    4.6387    1.0477 H   0  0  0  0  0  0  0  0  0  0  0  0
   -3.3938    2.7649    0.2546 C   0  0  0  0  0  0  0  0  0  0  0  0
   -3.0869    1.4632   -0.1252 C   0  0  0  0  0  3  0  0  0  0  0  0
   -3.8902    0.8080   -0.4848 H   0  0  0  0  0  0  0  0  0  0  0  0
   -1.7559    0.9666   -0.0596 C   0  0  0  0  0  0  0  0  0  0  0  0
   -1.5470   -0.4428   -0.3823 C   0  0  0  0  0  0  0  0  0  0  0  0
   -2.7494   -1.3335   -0.4740 C   0  0  0  0  0  0  0  0  0  0  0  0
   -3.4835   -1.6661    0.6831 C   0  0  0  0  0  0  0  0  0  0  0  0
   -3.1766   -1.2510    1.6553 H   0  0  0  0  0  0  0  0  0  0  0  0
   -4.5989   -2.5113    0.5948 C   0  0  0  0  0  0  0  0  0  0  0  0
   -5.1617   -2.7687    1.5047 H   0  0  0  0  0  0  0  0  0  0  0  0
   -4.9992   -3.0221   -0.6502 C   0  0  0  0  0  0  0  0  0  0  0  0
   -5.8769   -3.6822   -0.7190 H   0  0  0  0  0  0  0  0  0  0  0  0
   -4.2817   -2.6832   -1.8084 C   0  0  0  0  0  0  0  0  0  0  0  0
   -4.5972   -3.0729   -2.7878 H   0  0  0  0  0  0  0  0  0  0  0  0
   -3.1605   -1.8449   -1.7222 C   0  0  0  0  0  0  0  0  0  0  0  0
   -2.5991   -1.5731   -2.6293 H   0  0  0  0  0  0  0  0  0  0  0  0
   -0.1066   -2.4016   -0.6579 C   0  0  2  0  0  0  0  0  0  0  0  0
   -0.8976   -2.9158   -1.2373 H   0  0  0  0  0  0  0  0  0  0  0  0
   -0.0571   -3.0421    0.7585 C   0  0  0  0  0  0  0  0  0  0  0  0
   -1.0714   -2.9887    1.2025 H   0  0  0  0  0  0  0  0  0  0  0  0
    0.1893   -4.1106    0.5967 H   0  0  0  0  0  0  0  0  0  0  0  0
    0.9535   -2.3912    1.6724 C   0  0  0  0  0  0  0  0  0  0  0  0
    0.5813   -1.3253    2.5177 C   0  0  0  0  0  0  0  0  0  0  0  0
   -0.4661   -0.9844    2.5288 H   0  0  0  0  0  0  0  0  0  0  0  0
    1.5240   -0.6908    3.3396 C   0  0  0  0  0  0  0  0  0  0  0  0
    1.2144    0.1465    3.9831 H   0  0  0  0  0  0  0  0  0  0  0  0
    2.8635   -1.1147    3.3262 C   0  0  0  0  0  0  0  0  0  0  0  0
    3.6039   -0.6259    3.9780 H   0  0  0  0  0  0  0  0  0  0  0  0
    3.2504   -2.1692    2.4810 C   0  0  0  0  0  0  0  0  0  0  0  0
    4.2974   -2.5092    2.4669 H   0  0  0  0  0  0  0  0  0  0  0  0
    2.3036   -2.8004    1.6602 C   0  0  0  0  0  0  0  0  0  0  0  0
    2.6087   -3.6205    0.9917 H   0  0  0  0  0  0  0  0  0  0  0  0
    1.2564   -2.6337   -1.3439 C   0  0  0  0  0  0  0  0  0  0  0  0
  1 31  1  0  0  0  0
  3 63  1  0  0  0  0
  4 63  2  0  0  0  0
  5 26  1  0  0  0  0
  5 25  1  0  0  0  0
  6 35  1  0  0  0  0
  7  8  1  0  0  0  0
  7 22  1  0  0  0  0
  9 14  1  0  0  0  0
  9  7  1  0  0  0  0
 10  9  1  0  0  0  0
 10 13  1  0  0  0  0
 11 10  1  0  0  0  0
 12 10  1  0  0  0  0
 14 17  1  0  0  0  0
 14 15  1  0  0  0  0
 16 14  1  0  0  0  0
 18 19  1  0  0  0  0
 18  9  1  0  0  0  0
 20 18  1  0  0  0  0
 21 18  1  0  0  0  0
 22 23  1  0  0  0  0
 22 25  1  0  0  0  0
 22 24  1  0  0  0  0
 25  2  2  0  0  0  0
 26 27  2  0  0  0  0
 27 28  1  0  0  0  0
 29 27  1  0  0  0  0
 29 30  1  0  0  0  0
 31 29  2  0  0  0  0
 32 34  1  0  0  0  0
 32 31  1  0  0  0  0
 33 32  1  0  0  0  0
 34 26  1  0  0  0  0
 35 34  2  0  0  0  0
 36 35  1  0  0  0  0
 36 37  1  0  0  0  0
 37 38  1  0  0  0  0
 39 37  2  0  0  0  0
 39 40  1  0  0  0  0
 41 39  1  0  0  0  0
 42 41  1  0  0  0  0
 43 45  1  0  0  0  0
 43 41  2  0  0  0  0
 44 43  1  0  0  0  0
 45 36  2  0  0  0  0
 46 45  1  0  0  0  0
 47 48  1  6  0  0  0
 47  6  1  0  0  0  0
 47 49  1  0  0  0  0
 49 50  1  0  0  0  0
 49 52  1  0  0  0  0
 51 49  1  0  0  0  0
 52 53  1  0  0  0  0
 53 54  1  0  0  0  0
 53 55  2  0  0  0  0
 55 56  1  0  0  0  0
 57 55  1  0  0  0  0
 57 58  1  0  0  0  0
 59 57  2  0  0  0  0
 60 59  1  0  0  0  0
 61 52  2  0  0  0  0
 61 59  1  0  0  0  0
 62 61  1  0  0  0  0
 63 47  1  0  0  0  0
M  CHG  1   3  -1
M  END
