1,3
q = -1.0, confidence = 0.0

 40 42  0  0  1  0  0  0  0  0999 V2000
   -1.0227   -0.1044    0.2762 Si  0  0  0  0  0  3  0  0  0  0  0  0
   -0.6704   -0.4972    2.0018 O   0  0  0  0  0  0  0  0  0  0  0  0
    1.3148   -1.4024    1.2230 N   0  0  0  0  0  2  0  0  0  0  0  0
    0.3874   -1.2465    2.2241 C   0  0  1  0  0  3  0  0  0  0  0  0
    0.5527   -1.8757    3.4826 C   0  0  0  0  0  0  0  0  0  0  0  0
   -0.2197   -1.7051    4.2440 H   0  0  0  0  0  0  0  0  0  0  0  0
    1.6555   -2.6955    3.7034 C   0  0  0  0  0  0  0  0  0  0  0  0
    1.7872   -3.1964    4.6744 H   0  0  0  0  0  0  0  0  0  0  0  0
    2.5845   -2.8874    2.6619 C   0  0  0  0  0  0  0  0  0  0  0  0
    3.4595   -3.5408    2.7787 H   0  0  0  0  0  0  0  0  0  0  0  0
    2.3722   -2.2298    1.4540 C   0  0  0  0  0  0  0  0  0  0  0  0
    3.0666   -2.3520    0.6112 H   0  0  0  0  0  0  0  0  0  0  0  0
   -2.0514    1.4660    0.4496 C   0  0  0  0  0  0  0  0  0  0  0  0
   -2.5551    2.1118   -0.7052 C   0  0  0  0  0  0  0  0  0  0  0  0
   -2.3643    1.6815   -1.7015 H   0  0  0  0  0  0  0  0  0  0  0  0
   -3.2971    3.2955   -0.6057 C   0  0  0  0  0  0  0  0  0  0  0  0
   -3.6750    3.7780   -1.5219 H   0  0  0  0  0  0  0  0  0  0  0  0
   -3.5724    3.8816    0.6490 C   0  0  0  0  0  0  0  0  0  0  0  0
   -3.0808    3.2339    1.7990 C   0  0  0  0  0  0  0  0  0  0  0  0
   -3.2873    3.6687    2.7906 H   0  0  0  0  0  0  0  0  0  0  0  0
   -2.3343    2.0489    1.7033 C   0  0  0  0  0  0  0  0  0  0  0  0
   -1.9604    1.5673    2.6201 H   0  0  0  0  0  0  0  0  0  0  0  0
   -4.3797    5.1516    0.7445 C   0  0  0  0  0  0  0  0  0  0  0  0
   -4.4294    5.5280    1.7846 H   0  0  0  0  0  0  0  0  0  0  0  0
   -5.4213    4.9924    0.3934 H   0  0  0  0  0  0  0  0  0  0  0  0
   -3.9493    5.9540    0.1100 H   0  0  0  0  0  0  0  0  0  0  0  0
   -2.2041   -1.5001   -0.2150 C   0  0  0  0  0  0  0  0  0  0  0  0
   -3.5930   -1.4101    0.0231 C   0  0  0  0  0  0  0  0  0  0  0  0
   -4.0119   -0.4909    0.4638 H   0  0  0  0  0  0  0  0  0  0  0  0
   -4.4511   -2.4722   -0.2953 C   0  0  0  0  0  0  0  0  0  0  0  0
   -5.5321   -2.3776   -0.1011 H   0  0  0  0  0  0  0  0  0  0  0  0
   -3.9551   -3.6630   -0.8642 C   0  0  0  0  0  0  0  0  0  0  0  0
   -2.5674   -3.7557   -1.0996 C   0  0  0  0  0  0  0  0  0  0  0  0
   -2.1551   -4.6765   -1.5434 H   0  0  0  0  0  0  0  0  0  0  0  0
   -1.7095   -2.6935   -0.7857 C   0  0  0  0  0  0  0  0  0  0  0  0
   -0.6308   -2.7837   -0.9937 H   0  0  0  0  0  0  0  0  0  0  0  0
   -4.8816   -4.7908   -1.2430 C   0  0  0  0  0  0  0  0  0  0  0  0
   -5.8212   -4.7641   -0.6567 H   0  0  0  0  0  0  0  0  0  0  0  0
   -4.4048   -5.7799   -1.0915 H   0  0  0  0  0  0  0  0  0  0  0  0
   -5.1632   -4.7294   -2.3167 H   0  0  0  0  0  0  0  0  0  0  0  0
  1 13  1  0  0  0  0
  1  2  1  0  0  0  0
  3 11  1  0  0  0  0
  3  4  1  0  0  0  0
  4  2  1  1  0  0  0
  4  5  1  0  0  0  0
  5  7  2  0  0  0  0
  5  6  1  0  0  0  0
  7  8  1  0  0  0  0
  9 10  1  0  0  0  0
  9  7  1  0  0  0  0
 11  9  2  0  0  0  0
 12 11  1  0  0  0  0
 13 21  1  0  0  0  0
 14 16  1  0  0  0  0
 14 13  2  0  0  0  0
 15 14  1  0  0  0  0
 16 18  2  0  0  0  0
 17 16  1  0  0  0  0
 18 23  1  0  0  0  0
 18 19  1  0  0  0  0
 19 20  1  0  0  0  0
 21 19  2  0  0  0  0
 21 22  1  0  0  0  0
 23 24  1  0  0  0  0
 25 23  1  0  0  0  0
 26 23  1  0  0  0  0
 27 28  1  0  0  0  0
 27  1  1  0  0  0  0
 28 29  1  0  0  0  0
 30 31  1  0  0  0  0
 30 28  2  0  0  0  0
 32 30  1  0  0  0  0
 33 32  2  0  0  0  0
 33 35  1  0  0  0  0
 34 33  1  0  0  0  0
 35 27  2  0  0  0  0
 36 35  1  0  0  0  0
 37 39  1  0  0  0  0
 37 32  1  0  0  0  0
 37 38  1  0  0  0  0
 40 37  1  0  0  0  0
M  END
