1,4
 OpenBabel05122313063D

 25 26  0  0  0  0  0  0  0  0999 V2000
   -1.7063   -0.8807    1.5155 Si  0  0  0  0  0  3  0  0  0  0  0  0
   -2.0964   -0.3807    3.3199 C   0  0  0  0  0  0  0  0  0  0  0  0
   -1.9092   -2.7874    1.4899 C   0  0  0  0  0  0  0  0  0  0  0  0
   -1.6565    0.8519   -1.0001 N   0  0  0  0  0  2  0  0  0  0  0  0
   -1.4162    1.6371   -2.0515 C   0  0  0  0  0  0  0  0  0  0  0  0
   -2.4338    2.2395   -2.8308 C   0  0  0  0  0  0  0  0  0  0  0  0
   -3.7581    2.0023   -2.5020 C   0  0  0  0  0  0  0  0  0  0  0  0
   -4.0614    1.1698   -1.3889 C   0  0  0  0  0  0  0  0  0  0  0  0
   -5.3982    0.8811   -0.9915 C   0  0  0  0  0  3  0  0  0  0  0  0
   -5.6381    0.0730    0.1092 C   0  0  0  0  0  0  0  0  0  0  0  0
   -4.5519   -0.4628    0.8514 C   0  0  0  0  0  0  0  0  0  0  0  0
   -3.2213   -0.2163    0.5105 C   0  0  0  0  0  0  0  0  0  0  0  0
   -2.9697    0.6033   -0.6333 C   0  0  0  0  0  0  0  0  0  0  0  0
   -3.0476   -0.8481    3.6523 H   0  0  0  0  0  0  0  0  0  0  0  0
   -2.2008    0.7167    3.4304 H   0  0  0  0  0  0  0  0  0  0  0  0
   -1.2966   -0.7185    4.0086 H   0  0  0  0  0  0  0  0  0  0  0  0
   -1.0527   -3.2864    1.9885 H   0  0  0  0  0  0  0  0  0  0  0  0
   -1.9590   -3.1706    0.4511 H   0  0  0  0  0  0  0  0  0  0  0  0
   -2.8363   -3.0976    2.0166 H   0  0  0  0  0  0  0  0  0  0  0  0
   -0.3564    1.8073   -2.2947 H   0  0  0  0  0  0  0  0  0  0  0  0
   -2.1547    2.8800   -3.6797 H   0  0  0  0  0  0  0  0  0  0  0  0
   -4.5804    2.4475   -3.0842 H   0  0  0  0  0  0  0  0  0  0  0  0
   -6.2290    1.3134   -1.5706 H   0  0  0  0  0  0  0  0  0  0  0  0
   -6.6724   -0.1484    0.4153 H   0  0  0  0  0  0  0  0  0  0  0  0
   -4.7747   -1.0895    1.7310 H   0  0  0  0  0  0  0  0  0  0  0  0
  1  2  1  0  0  0  0
  2 15  1  0  0  0  0
  2 14  1  0  0  0  0
  2 16  1  0  0  0  0
  3  1  1  0  0  0  0
  3 17  1  0  0  0  0
  3 19  1  0  0  0  0
  4 13  1  0  0  0  0
  5  4  1  0  0  0  0
  6  7  1  0  0  0  0
  6  5  2  0  0  0  0
  7  8  2  0  0  0  0
  8  9  1  0  0  0  0
  8 13  1  0  0  0  0
  9 10  1  0  0  0  0
 10 24  1  0  0  0  0
 10 11  2  0  0  0  0
 11 25  1  0  0  0  0
 12 11  1  0  0  0  0
 12  1  1  0  0  0  0
 13 12  2  0  0  0  0
 18  3  1  0  0  0  0
 20  5  1  0  0  0  0
 21  6  1  0  0  0  0
 22  7  1  0  0  0  0
 23  9  1  0  0  0  0
M  END
