1,3
 OpenBabel05122313063D

 34 36  0  0  1  0  0  0  0  0999 V2000
    1.0265    1.7149    0.2527 Si  0  0  0  0  0  3  0  0  0  0  0  0
    1.1148    1.4734    2.0218 O   0  0  0  0  0  0  0  0  0  0  0  0
    0.9043   -0.8239    1.7094 N   0  0  0  0  0  2  0  0  0  0  0  0
    1.1260    0.2509    2.5228 C   0  0  2  0  0  3  0  0  0  0  0  0
    1.3538    0.0868    3.9116 C   0  0  0  0  0  0  0  0  0  0  0  0
    1.5334    0.9886    4.5116 H   0  0  0  0  0  0  0  0  0  0  0  0
    1.3397   -1.1911    4.4617 C   0  0  0  0  0  0  0  0  0  0  0  0
    1.5101   -1.3305    5.5403 H   0  0  0  0  0  0  0  0  0  0  0  0
    1.1041   -2.2942    3.6212 C   0  0  0  0  0  0  0  0  0  0  0  0
    1.0743   -3.3218    4.0077 H   0  0  0  0  0  0  0  0  0  0  0  0
    0.8980   -2.0615    2.2634 C   0  0  0  0  0  0  0  0  0  0  0  0
    0.7219   -2.8859    1.5554 H   0  0  0  0  0  0  0  0  0  0  0  0
   -0.0854    3.2460    0.1643 C   0  0  0  0  0  0  0  0  0  0  0  0
   -1.0585    3.5161    1.1510 C   0  0  0  0  0  0  0  0  0  0  0  0
   -1.1654    2.8318    2.0075 H   0  0  0  0  0  0  0  0  0  0  0  0
   -1.8801    4.6494    1.0670 C   0  0  0  0  0  0  0  0  0  0  0  0
   -2.6347    4.8397    1.8458 H   0  0  0  0  0  0  0  0  0  0  0  0
   -1.7427    5.5384   -0.0113 C   0  0  0  0  0  0  0  0  0  0  0  0
   -2.3878    6.4281   -0.0796 H   0  0  0  0  0  0  0  0  0  0  0  0
   -0.7781    5.2886   -1.0006 C   0  0  0  0  0  0  0  0  0  0  0  0
   -0.6594    5.9867   -1.8441 H   0  0  0  0  0  0  0  0  0  0  0  0
    0.0432    4.1546   -0.9098 C   0  0  0  0  0  0  0  0  0  0  0  0
    0.8090    3.9814   -1.6836 H   0  0  0  0  0  0  0  0  0  0  0  0
    2.7676    2.3509   -0.1715 C   0  0  0  0  0  0  0  0  0  0  0  0
    3.2422    2.3325   -1.5031 C   0  0  0  0  0  0  0  0  0  0  0  0
    2.6104    1.9214   -2.3070 H   0  0  0  0  0  0  0  0  0  0  0  0
    4.5203    2.8177   -1.8229 C   0  0  0  0  0  0  0  0  0  0  0  0
    4.8689    2.7969   -2.8673 H   0  0  0  0  0  0  0  0  0  0  0  0
    5.3563    3.3162   -0.8114 C   0  0  0  0  0  0  0  0  0  0  0  0
    6.3619    3.6903   -1.0590 H   0  0  0  0  0  0  0  0  0  0  0  0
    4.9063    3.3296    0.5190 C   0  0  0  0  0  0  0  0  0  0  0  0
    5.5602    3.7147    1.3174 H   0  0  0  0  0  0  0  0  0  0  0  0
    3.6237    2.8547    0.8332 C   0  0  0  0  0  0  0  0  0  0  0  0
    3.2773    2.8708    1.8788 H   0  0  0  0  0  0  0  0  0  0  0  0
  1  2  1  0  0  0  0
  3 11  1  0  0  0  0
  3  4  1  0  0  0  0
  4  2  1  1  0  0  0
  4  5  1  0  0  0  0
  5  7  2  0  0  0  0
  5  6  1  0  0  0  0
  7  8  1  0  0  0  0
  9 10  1  0  0  0  0
  9  7  1  0  0  0  0
 11  9  2  0  0  0  0
 12 11  1  0  0  0  0
 13  1  1  0  0  0  0
 13 14  1  0  0  0  0
 14 15  1  0  0  0  0
 16 14  2  0  0  0  0
 16 17  1  0  0  0  0
 18 16  1  0  0  0  0
 19 18  1  0  0  0  0
 20 22  1  0  0  0  0
 20 18  2  0  0  0  0
 21 20  1  0  0  0  0
 22 13  2  0  0  0  0
 23 22  1  0  0  0  0
 24  1  1  0  0  0  0
 24 33  1  0  0  0  0
 25 24  2  0  0  0  0
 26 25  1  0  0  0  0
 27 25  1  0  0  0  0
 27 29  2  0  0  0  0
 28 27  1  0  0  0  0
 29 31  1  0  0  0  0
 30 29  1  0  0  0  0
 31 33  2  0  0  0  0
 31 32  1  0  0  0  0
 33 34  1  0  0  0  0
M  END
