1,2
q = nan, confidence = 0.0

 23 22  0  0  0  0  0  0  0  0999 V2000
    1.6372    1.0220    1.2721 Si  0  0  0  0  0  3  0  0  0  0  0  0
    1.7377    0.0106   -0.1869 N   0  0  0  0  0  2  0  0  0  0  0  0
    2.6944    0.3883    2.7402 C   0  0  0  0  0  0  0  0  0  0  0  0
    2.6807   -0.7142    2.8343 H   0  0  0  0  0  0  0  0  0  0  0  0
    2.3292    0.8131    3.6984 H   0  0  0  0  0  0  0  0  0  0  0  0
    3.7513    0.7061    2.6180 H   0  0  0  0  0  0  0  0  0  0  0  0
    2.3466    2.7903    1.0445 C   0  0  0  0  0  0  0  0  0  0  0  0
    3.4418    2.7273    0.8675 H   0  0  0  0  0  0  0  0  0  0  0  0
    2.2085    3.3709    1.9818 H   0  0  0  0  0  0  0  0  0  0  0  0
    1.9069    3.3759    0.2167 H   0  0  0  0  0  0  0  0  0  0  0  0
    2.8531   -0.3625   -1.0732 C   0  0  0  0  0  0  0  0  0  0  0  0
    4.1614   -0.4976   -0.2720 C   0  0  0  0  0  0  0  0  0  0  0  0
    4.4307    0.4609    0.2158 H   0  0  0  0  0  0  0  0  0  0  0  0
    5.0003   -0.7878   -0.9371 H   0  0  0  0  0  0  0  0  0  0  0  0
    4.0635   -1.2698    0.5171 H   0  0  0  0  0  0  0  0  0  0  0  0
    2.9996    0.7556   -2.1273 C   0  0  0  0  0  0  0  0  0  0  0  0
    2.0536    0.8651   -2.6936 H   0  0  0  0  0  0  0  0  0  0  0  0
    3.8184    0.5239   -2.8397 H   0  0  0  0  0  0  0  0  0  0  0  0
    3.2298    1.7227   -1.6368 H   0  0  0  0  0  0  0  0  0  0  0  0
    2.5529   -1.6974   -1.7793 C   0  0  0  0  0  0  0  0  0  0  0  0
    2.4686   -2.5162   -1.0376 H   0  0  0  0  0  0  0  0  0  0  0  0
    3.3659   -1.9594   -2.4868 H   0  0  0  0  0  0  0  0  0  0  0  0
    1.6039   -1.6326   -2.3465 H   0  0  0  0  0  0  0  0  0  0  0  0
  1  3  1  0  0  0  0
  2  1  1  0  0  0  0
  3  4  1  0  0  0  0
  3  5  1  0  0  0  0
  6  3  1  0  0  0  0
  7  1  1  0  0  0  0
  7  9  1  0  0  0  0
  8  7  1  0  0  0  0
 10  7  1  0  0  0  0
 11 12  1  0  0  0  0
 11  2  1  0  0  0  0
 12 13  1  0  0  0  0
 12 15  1  0  0  0  0
 14 12  1  0  0  0  0
 16 19  1  0  0  0  0
 16 11  1  0  0  0  0
 17 16  1  0  0  0  0
 18 16  1  0  0  0  0
 20 11  1  0  0  0  0
 20 21  1  0  0  0  0
 22 20  1  0  0  0  0
 23 20  1  0  0  0  0
M  END
