1
 OpenBabel05122313063D

 14 13  0  0  0  0  0  0  0  0999 V2000
   -2.3920   -0.6929   -0.0551 As  0  0  0  0  0  1  0  0  0  0  0  0
   -3.0979   -0.9770    1.8683 C   0  0  0  0  0  0  0  0  0  0  0  0
   -2.0064   -1.0016    2.9349 C   0  0  0  0  0  0  0  0  0  0  0  0
   -1.2997   -1.8391    2.7668 H   0  0  0  0  0  0  0  0  0  0  0  0
   -1.4272   -0.0593    2.9525 H   0  0  0  0  0  0  0  0  0  0  0  0
   -2.4591   -1.1452    3.9420 H   0  0  0  0  0  0  0  0  0  0  0  0
   -3.8182   -2.3318    1.8024 C   0  0  0  0  0  0  0  0  0  0  0  0
   -3.1110   -3.1589    1.5878 H   0  0  0  0  0  0  0  0  0  0  0  0
   -4.3072   -2.5456    2.7787 H   0  0  0  0  0  0  0  0  0  0  0  0
   -4.6070   -2.3435    1.0218 H   0  0  0  0  0  0  0  0  0  0  0  0
   -4.1102    0.1406    2.1444 C   0  0  0  0  0  0  0  0  0  0  0  0
   -4.8753    0.2139    1.3433 H   0  0  0  0  0  0  0  0  0  0  0  0
   -4.6424   -0.0650    3.0998 H   0  0  0  0  0  0  0  0  0  0  0  0
   -3.6188    1.1299    2.2313 H   0  0  0  0  0  0  0  0  0  0  0  0
  1  2  1  0  0  0  0
  2 11  1  0  0  0  0
  2  3  1  0  0  0  0
  3  5  1  0  0  0  0
  3  6  1  0  0  0  0
  4  3  1  0  0  0  0
  7  2  1  0  0  0  0
  7  9  1  0  0  0  0
  8  7  1  0  0  0  0
 10  7  1  0  0  0  0
 11 14  1  0  0  0  0
 11 13  1  0  0  0  0
 12 11  1  0  0  0  0
M  END
