1,2,3,4
q = 0.0, confidence = 1.0

 34 33  0  0  0  0  0  0  0  0999 V2000
   -0.1138    2.2798   -0.7927 S   0  0  0  0  0  0  0  0  0  0  0  0
    2.0324   -1.0406   -0.7910 S   0  0  0  0  0  0  0  0  0  0  0  0
   -1.9178   -1.2395   -0.7917 S   0  0  0  0  0  0  0  0  0  0  0  0
   -0.0007    0.0006    1.4859 N   0  0  0  0  0  0  0  0  0  0  0  0
    0.2740    1.3939    1.8848 C   0  0  0  0  0  0  0  0  0  0  0  0
    1.3678    1.5580    1.8244 H   0  0  0  0  0  0  0  0  0  0  0  0
   -0.0059    1.5726    2.9509 H   0  0  0  0  0  0  0  0  0  0  0  0
   -0.4339    2.4343    1.0140 C   0  0  0  0  0  0  0  0  0  0  0  0
   -0.1578    3.4592    1.3353 H   0  0  0  0  0  0  0  0  0  0  0  0
   -1.5374    2.3645    1.1008 H   0  0  0  0  0  0  0  0  0  0  0  0
    1.6051    2.8807   -0.9129 C   0  0  0  0  0  0  0  0  0  0  0  0
    1.9013    2.7524   -1.9709 H   0  0  0  0  0  0  0  0  0  0  0  0
    2.2940    2.2936   -0.2768 H   0  0  0  0  0  0  0  0  0  0  0  0
    1.6495    3.9550   -0.6496 H   0  0  0  0  0  0  0  0  0  0  0  0
    1.0683   -0.9340    1.8858 C   0  0  0  0  0  0  0  0  0  0  0  0
    0.6636   -1.9633    1.8249 H   0  0  0  0  0  0  0  0  0  0  0  0
    1.3621   -0.7811    2.9522 H   0  0  0  0  0  0  0  0  0  0  0  0
    2.3242   -0.8412    1.0163 C   0  0  0  0  0  0  0  0  0  0  0  0
    3.0732   -1.5930    1.3383 H   0  0  0  0  0  0  0  0  0  0  0  0
    2.8156    0.1492    1.1041 H   0  0  0  0  0  0  0  0  0  0  0  0
    1.6964   -2.8301   -0.9133 C   0  0  0  0  0  0  0  0  0  0  0  0
    2.6055   -3.4043   -0.6501 H   0  0  0  0  0  0  0  0  0  0  0  0
    1.4383   -3.0217   -1.9717 H   0  0  0  0  0  0  0  0  0  0  0  0
    0.8437   -3.1357   -0.2781 H   0  0  0  0  0  0  0  0  0  0  0  0
   -1.3448   -0.4577    1.8853 C   0  0  0  0  0  0  0  0  0  0  0  0
   -2.0337    0.4077    1.8245 H   0  0  0  0  0  0  0  0  0  0  0  0
   -1.3596   -0.7888    2.9517 H   0  0  0  0  0  0  0  0  0  0  0  0
   -1.8923   -1.5915    1.0155 C   0  0  0  0  0  0  0  0  0  0  0  0
   -2.9182   -1.8640    1.3368 H   0  0  0  0  0  0  0  0  0  0  0  0
   -1.2807   -2.5124    1.1035 H   0  0  0  0  0  0  0  0  0  0  0  0
   -3.2982   -0.0523   -0.9148 C   0  0  0  0  0  0  0  0  0  0  0  0
   -3.3351    0.2657   -1.9736 H   0  0  0  0  0  0  0  0  0  0  0  0
   -3.1351    0.8395   -0.2808 H   0  0  0  0  0  0  0  0  0  0  0  0
   -4.2506   -0.5511   -0.6508 H   0  0  0  0  0  0  0  0  0  0  0  0
  1  8  1  0  0  0  0
  2 18  1  0  0  0  0
  3 28  1  0  0  0  0
  4  5  1  0  0  0  0
  4 25  1  0  0  0  0
  4 15  1  0  0  0  0
  5  7  1  0  0  0  0
  6  5  1  0  0  0  0
  8 10  1  0  0  0  0
  8  9  1  0  0  0  0
  8  5  1  0  0  0  0
 11  1  1  0  0  0  0
 11 14  1  0  0  0  0
 11 13  1  0  0  0  0
 12 11  1  0  0  0  0
 15 17  1  0  0  0  0
 16 15  1  0  0  0  0
 18 20  1  0  0  0  0
 18 19  1  0  0  0  0
 18 15  1  0  0  0  0
 21  2  1  0  0  0  0
 21 22  1  0  0  0  0
 21 24  1  0  0  0  0
 23 21  1  0  0  0  0
 25 27  1  0  0  0  0
 26 25  1  0  0  0  0
 28 30  1  0  0  0  0
 28 29  1  0  0  0  0
 28 25  1  0  0  0  0
 31  3  1  0  0  0  0
 31 34  1  0  0  0  0
 31 33  1  0  0  0  0
 32 31  1  0  0  0  0
M  END
