1,10,13,16
q = 0.0, confidence = 1.0

 44 44  0  0  0  0  0  0  0  0999 V2000
   -0.6762   -1.6167   -0.6679 S   0  0  0  0  0  0  0  0  0  0  0  0
   -1.8810   -1.6687    0.7354 C   0  0  0  0  0  0  0  0  0  0  0  0
   -3.2747   -2.0468    0.2521 C   0  0  0  0  0  0  0  0  0  0  0  0
   -4.0421   -0.7744   -0.8143 S   0  0  0  0  0  0  0  0  0  0  0  0
   -4.4157    0.5073    0.4609 C   0  0  0  0  0  0  0  0  0  0  0  0
   -3.7342    1.8468    0.1957 C   0  0  0  0  0  0  0  0  0  0  0  0
   -2.2849    1.7254    0.0709 N   0  0  0  0  0  0  0  0  0  0  0  0
   -1.6368    3.0113   -0.1282 C   0  0  0  0  0  0  0  0  0  0  0  0
   -0.1413    2.8723   -0.3651 C   0  0  0  0  0  0  0  0  0  0  0  0
    0.6330    1.8857    0.9938 S   0  0  0  0  0  0  0  0  0  0  0  0
    2.3806    2.4349    0.8218 C   0  0  0  0  0  0  0  0  0  0  0  0
    3.0291    2.1777   -0.5377 C   0  0  0  0  0  0  0  0  0  0  0  0
    2.8386    0.4810   -1.2136 S   0  0  0  0  0  0  0  0  0  0  0  0
    3.9512   -0.5223   -0.1327 C   0  0  0  0  0  0  0  0  0  0  0  0
    3.3243   -1.8875    0.1364 C   0  0  0  0  0  0  0  0  0  0  0  0
    2.0777   -1.7707    0.9146 N   0  0  0  0  0  0  0  0  0  0  0  0
    1.2356   -2.9816    0.9266 C   0  0  0  0  0  0  0  0  0  0  0  0
    0.3492   -3.1066   -0.3157 C   0  0  0  0  0  0  0  0  0  0  0  0
   -1.8712   -0.6510    1.1758 H   0  0  0  0  0  0  0  0  0  0  0  0
   -1.4981   -2.3828    1.4940 H   0  0  0  0  0  0  0  0  0  0  0  0
   -3.2554   -2.9743   -0.3559 H   0  0  0  0  0  0  0  0  0  0  0  0
   -3.9414   -2.2407    1.1192 H   0  0  0  0  0  0  0  0  0  0  0  0
   -4.1039    0.1033    1.4448 H   0  0  0  0  0  0  0  0  0  0  0  0
   -5.5147    0.6463    0.4898 H   0  0  0  0  0  0  0  0  0  0  0  0
   -3.9605    2.5215    1.0505 H   0  0  0  0  0  0  0  0  0  0  0  0
   -4.1967    2.3287   -0.7039 H   0  0  0  0  0  0  0  0  0  0  0  0
   -2.0937    1.0980   -0.7269 H   0  0  0  0  0  0  0  0  0  0  0  0
   -2.0563    3.5952   -0.9899 H   0  0  0  0  0  0  0  0  0  0  0  0
   -1.8077    3.6335    0.7772 H   0  0  0  0  0  0  0  0  0  0  0  0
    0.0731    2.3711   -1.3314 H   0  0  0  0  0  0  0  0  0  0  0  0
    0.3379    3.8722   -0.3691 H   0  0  0  0  0  0  0  0  0  0  0  0
    2.9137    1.9034    1.6366 H   0  0  0  0  0  0  0  0  0  0  0  0
    2.4328    3.5187    1.0589 H   0  0  0  0  0  0  0  0  0  0  0  0
    2.5822    2.8187   -1.3240 H   0  0  0  0  0  0  0  0  0  0  0  0
    4.1104    2.4240   -0.5066 H   0  0  0  0  0  0  0  0  0  0  0  0
    4.1228    0.0297    0.8146 H   0  0  0  0  0  0  0  0  0  0  0  0
    4.9284   -0.6393   -0.6415 H   0  0  0  0  0  0  0  0  0  0  0  0
    3.0889   -2.3824   -0.8287 H   0  0  0  0  0  0  0  0  0  0  0  0
    4.0721   -2.5360    0.6488 H   0  0  0  0  0  0  0  0  0  0  0  0
    2.3154   -1.5258    1.8837 H   0  0  0  0  0  0  0  0  0  0  0  0
    1.8474   -3.9093    1.0181 H   0  0  0  0  0  0  0  0  0  0  0  0
    0.5986   -2.9345    1.8326 H   0  0  0  0  0  0  0  0  0  0  0  0
    0.9487   -3.2439   -1.2390 H   0  0  0  0  0  0  0  0  0  0  0  0
   -0.3139   -3.9914   -0.2313 H   0  0  0  0  0  0  0  0  0  0  0  0
  1 18  1  0  0  0  0
  1  2  1  0  0  0  0
  2 19  1  0  0  0  0
  2 20  1  0  0  0  0
  3  2  1  0  0  0  0
  3 22  1  0  0  0  0
  4  3  1  0  0  0  0
  4  5  1  0  0  0  0
  5 24  1  0  0  0  0
  5 23  1  0  0  0  0
  6  5  1  0  0  0  0
  6 25  1  0  0  0  0
  7  6  1  0  0  0  0
  8  7  1  0  0  0  0
  8 29  1  0  0  0  0
  9  8  1  0  0  0  0
  9 10  1  0  0  0  0
 11 10  1  0  0  0  0
 11 33  1  0  0  0  0
 11 32  1  0  0  0  0
 12 35  1  0  0  0  0
 12 11  1  0  0  0  0
 13 12  1  0  0  0  0
 13 14  1  0  0  0  0
 14 15  1  0  0  0  0
 14 36  1  0  0  0  0
 15 39  1  0  0  0  0
 15 16  1  0  0  0  0
 16 17  1  0  0  0  0
 16 40  1  0  0  0  0
 17 41  1  0  0  0  0
 17 42  1  0  0  0  0
 18 44  1  0  0  0  0
 18 17  1  0  0  0  0
 21  3  1  0  0  0  0
 26  6  1  0  0  0  0
 27  7  1  0  0  0  0
 28  8  1  0  0  0  0
 30  9  1  0  0  0  0
 31  9  1  0  0  0  0
 34 12  1  0  0  0  0
 37 14  1  0  0  0  0
 38 15  1  0  0  0  0
 43 18  1  0  0  0  0
M  END
