1,2,3,4
 OpenBabel05122313063D

 64 66  0  0  0  0  0  0  0  0999 V2000
   -0.3868   -0.6076    1.7952 N   0  0  0  0  0  0  0  0  0  0  0  0
    2.1320   -0.3677   -0.1932 S   0  0  0  0  0  0  0  0  0  0  0  0
   -0.5030    2.4876    0.9409 S   0  0  0  0  0  0  0  0  0  0  0  0
   -1.6603   -0.5846   -1.1596 S   0  0  0  0  0  0  0  0  0  0  0  0
    0.7013   -1.5945    1.9276 C   0  0  0  0  0  0  0  0  0  0  0  0
    0.4517   -2.4699    1.2972 H   0  0  0  0  0  0  0  0  0  0  0  0
    0.7720   -1.9782    2.9740 H   0  0  0  0  0  0  0  0  0  0  0  0
    2.0717   -1.0660    1.5059 C   0  0  0  0  0  0  0  0  0  0  0  0
    2.8311   -1.8721    1.5716 H   0  0  0  0  0  0  0  0  0  0  0  0
    2.4216   -0.2360    2.1528 H   0  0  0  0  0  0  0  0  0  0  0  0
    1.9701   -1.9025   -1.2368 C   0  0  0  0  0  0  0  0  0  0  0  0
    0.9232   -2.2589   -1.1921 H   0  0  0  0  0  0  0  0  0  0  0  0
    2.1477   -1.5122   -2.2596 H   0  0  0  0  0  0  0  0  0  0  0  0
   -0.3751    0.4007    2.8698 C   0  0  0  0  0  0  0  0  0  0  0  0
    0.6820    0.6289    3.1103 H   0  0  0  0  0  0  0  0  0  0  0  0
   -0.8282   -0.0026    3.8082 H   0  0  0  0  0  0  0  0  0  0  0  0
   -1.0922    1.7002    2.4986 C   0  0  0  0  0  0  0  0  0  0  0  0
   -1.0035    2.4394    3.3205 H   0  0  0  0  0  0  0  0  0  0  0  0
   -2.1781    1.5413    2.3378 H   0  0  0  0  0  0  0  0  0  0  0  0
    1.0842    3.2882    1.4877 C   0  0  0  0  0  0  0  0  0  0  0  0
    0.8076    4.0393    2.2549 H   0  0  0  0  0  0  0  0  0  0  0  0
    1.7327    2.5163    1.9457 H   0  0  0  0  0  0  0  0  0  0  0  0
   -1.7078   -1.2347    1.6063 C   0  0  0  0  0  0  0  0  0  0  0  0
   -2.4859   -0.4737    1.8093 H   0  0  0  0  0  0  0  0  0  0  0  0
   -1.8758   -2.0537    2.3468 H   0  0  0  0  0  0  0  0  0  0  0  0
   -1.9298   -1.7916    0.2008 C   0  0  0  0  0  0  0  0  0  0  0  0
   -2.9608   -2.1891    0.1037 H   0  0  0  0  0  0  0  0  0  0  0  0
   -1.2388   -2.6266   -0.0341 H   0  0  0  0  0  0  0  0  0  0  0  0
   -3.1465    0.5256   -0.9804 C   0  0  0  0  0  0  0  0  0  0  0  0
   -2.9943    1.1954   -0.1124 H   0  0  0  0  0  0  0  0  0  0  0  0
   -3.0885    1.1473   -1.8969 H   0  0  0  0  0  0  0  0  0  0  0  0
    2.9488   -2.9705   -0.8449 C   0  0  0  0  0  0  0  0  0  0  0  0
    2.4926   -4.1820   -0.2873 C   0  0  0  0  0  0  0  0  0  0  0  0
    1.4096   -4.3584   -0.1802 H   0  0  0  0  0  0  0  0  0  0  0  0
    3.4023   -5.1760    0.1064 C   0  0  0  0  0  0  0  0  0  0  0  0
    3.0321   -6.1212    0.5305 H   0  0  0  0  0  0  0  0  0  0  0  0
    4.7804   -4.9641   -0.0477 C   0  0  0  0  0  0  0  0  0  0  0  0
    5.4957   -5.7418    0.2588 H   0  0  0  0  0  0  0  0  0  0  0  0
    5.2454   -3.7578   -0.5996 C   0  0  0  0  0  0  0  0  0  0  0  0
    6.3255   -3.5915   -0.7278 H   0  0  0  0  0  0  0  0  0  0  0  0
    4.3372   -2.7671   -0.9943 C   0  0  0  0  0  0  0  0  0  0  0  0
    4.7051   -1.8209   -1.4212 H   0  0  0  0  0  0  0  0  0  0  0  0
    1.7298    3.9182    0.2865 C   0  0  0  0  0  0  0  0  0  0  0  0
    2.7523    3.2467   -0.4132 C   0  0  0  0  0  0  0  0  0  0  0  0
    3.1136    2.2713   -0.0521 H   0  0  0  0  0  0  0  0  0  0  0  0
    3.3215    3.8184   -1.5603 C   0  0  0  0  0  0  0  0  0  0  0  0
    4.1275    3.2908   -2.0920 H   0  0  0  0  0  0  0  0  0  0  0  0
    2.8689    5.0636   -2.0238 C   0  0  0  0  0  0  0  0  0  0  0  0
    3.3175    5.5140   -2.9218 H   0  0  0  0  0  0  0  0  0  0  0  0
    1.8472    5.7376   -1.3350 C   0  0  0  0  0  0  0  0  0  0  0  0
    1.4940    6.7166   -1.6916 H   0  0  0  0  0  0  0  0  0  0  0  0
    1.2786    5.1674   -0.1880 C   0  0  0  0  0  0  0  0  0  0  0  0
    0.4766    5.6976    0.3494 H   0  0  0  0  0  0  0  0  0  0  0  0
   -4.4322   -0.2420   -0.8815 C   0  0  0  0  0  0  0  0  0  0  0  0
   -5.1798   -0.2219    0.3133 C   0  0  0  0  0  0  0  0  0  0  0  0
   -4.8368    0.3964    1.1592 H   0  0  0  0  0  0  0  0  0  0  0  0
   -6.3698   -0.9581    0.4258 C   0  0  0  0  0  0  0  0  0  0  0  0
   -6.9490   -0.9249    1.3606 H   0  0  0  0  0  0  0  0  0  0  0  0
   -6.8205   -1.7290   -0.6561 C   0  0  0  0  0  0  0  0  0  0  0  0
   -7.7533   -2.3060   -0.5715 H   0  0  0  0  0  0  0  0  0  0  0  0
   -6.0803   -1.7580   -1.8509 C   0  0  0  0  0  0  0  0  0  0  0  0
   -6.4350   -2.3562   -2.7034 H   0  0  0  0  0  0  0  0  0  0  0  0
   -4.8940   -1.0215   -1.9635 C   0  0  0  0  0  0  0  0  0  0  0  0
   -4.3136   -1.0510   -2.8989 H   0  0  0  0  0  0  0  0  0  0  0  0
  1  5  1  0  0  0  0
  1 14  1  0  0  0  0
  2  8  1  0  0  0  0
  3 20  1  0  0  0  0
  3 17  1  0  0  0  0
  4 29  1  0  0  0  0
  4 26  1  0  0  0  0
  5  7  1  0  0  0  0
  6  5  1  0  0  0  0
  8  9  1  0  0  0  0
  8  5  1  0  0  0  0
  8 10  1  0  0  0  0
 11 12  1  0  0  0  0
 11 32  1  0  0  0  0
 11  2  1  0  0  0  0
 13 11  1  0  0  0  0
 14 15  1  0  0  0  0
 14 16  1  0  0  0  0
 17 14  1  0  0  0  0
 17 18  1  0  0  0  0
 19 17  1  0  0  0  0
 20 22  1  0  0  0  0
 20 21  1  0  0  0  0
 23  1  1  0  0  0  0
 23 24  1  0  0  0  0
 23 25  1  0  0  0  0
 26 23  1  0  0  0  0
 27 26  1  0  0  0  0
 28 26  1  0  0  0  0
 29 54  1  0  0  0  0
 29 30  1  0  0  0  0
 31 29  1  0  0  0  0
 32 33  1  0  0  0  0
 33 34  1  0  0  0  0
 33 35  2  0  0  0  0
 35 36  1  0  0  0  0
 37 35  1  0  0  0  0
 37 38  1  0  0  0  0
 39 37  2  0  0  0  0
 40 39  1  0  0  0  0
 41 32  2  0  0  0  0
 41 39  1  0  0  0  0
 42 41  1  0  0  0  0
 43 20  1  0  0  0  0
 44 45  1  0  0  0  0
 44 43  2  0  0  0  0
 46 44  1  0  0  0  0
 47 46  1  0  0  0  0
 48 46  2  0  0  0  0
 48 50  1  0  0  0  0
 49 48  1  0  0  0  0
 50 52  2  0  0  0  0
 51 50  1  0  0  0  0
 52 43  1  0  0  0  0
 52 53  1  0  0  0  0
 54 55  1  0  0  0  0
 55 57  2  0  0  0  0
 55 56  1  0  0  0  0
 57 58  1  0  0  0  0
 59 60  1  0  0  0  0
 59 57  1  0  0  0  0
 61 59  2  0  0  0  0
 62 61  1  0  0  0  0
 63 61  1  0  0  0  0
 63 54  2  0  0  0  0
 64 63  1  0  0  0  0
M  END
