1,2,3,7
 OpenBabel05122313063D

 54 53  0  0  1  0  0  0  0  0999 V2000
    1.9497   -2.3185    1.2461 S   0  0  0  0  0  0  0  0  0  0  0  0
    0.2533    0.6521   -1.8629 S   0  0  0  0  0  1  0  0  0  0  0  0
   -0.9173   -1.0481    0.5314 S   0  0  0  0  0  1  0  0  0  0  0  0
    4.7140    0.4307    0.5955 O   0  0  0  0  0  0  0  0  0  0  0  0
    1.9867    1.9269    1.4374 O   0  0  0  0  0  0  0  0  0  0  0  0
    1.5985    3.4567   -0.1990 O   0  0  0  0  0  0  0  0  0  0  0  0
    2.6411    0.0183   -0.3595 N   0  0  0  0  0  2  0  0  0  0  0  0
    3.6953   -0.2421    0.5144 C   0  0  0  0  0  0  0  0  0  0  0  0
    3.5263   -1.4314    1.4643 C   0  0  0  0  0  0  0  0  0  0  0  0
    3.6064   -1.0499    2.5012 H   0  0  0  0  0  0  0  0  0  0  0  0
    4.3427   -2.1633    1.3077 H   0  0  0  0  0  0  0  0  0  0  0  0
    0.8542   -1.6819    2.5931 C   0  0  0  0  0  0  0  0  0  0  0  0
    1.1117   -2.2377    3.5177 H   0  0  0  0  0  0  0  0  0  0  0  0
    1.0647   -0.5988    2.7115 H   0  0  0  0  0  0  0  0  0  0  0  0
   -0.5723   -1.9291    2.1346 C   0  0  0  0  0  0  0  0  0  0  0  0
   -1.2850   -1.5092    2.8728 H   0  0  0  0  0  0  0  0  0  0  0  0
   -0.7845   -3.0136    2.0301 H   0  0  0  0  0  0  0  0  0  0  0  0
    1.8732    1.4938   -2.1591 C   0  0  0  0  0  0  0  0  0  0  0  0
    2.4218    0.9874   -2.9778 H   0  0  0  0  0  0  0  0  0  0  0  0
    1.6777    2.5454   -2.4374 H   0  0  0  0  0  0  0  0  0  0  0  0
    2.6469    1.4079   -0.8547 C   0  0  1  0  0  0  0  0  0  0  0  0
    3.7030    1.7336   -0.9832 H   0  0  0  0  0  0  0  0  0  0  0  0
    2.0401    2.2780    0.2721 C   0  0  0  0  0  0  0  0  0  0  0  0
    0.8934    4.3304    0.7227 C   0  0  0  0  0  0  0  0  0  0  0  0
    1.1664    5.3536    0.4000 H   0  0  0  0  0  0  0  0  0  0  0  0
    1.2786    4.1486    1.7465 H   0  0  0  0  0  0  0  0  0  0  0  0
   -0.6130    4.1073    0.6372 C   0  0  0  0  0  0  0  0  0  0  0  0
   -1.1058    4.9626    1.1521 H   0  0  0  0  0  0  0  0  0  0  0  0
   -0.9102    4.1782   -0.4311 H   0  0  0  0  0  0  0  0  0  0  0  0
   -1.0961    2.7848    1.2428 C   0  0  0  0  0  0  0  0  0  0  0  0
   -0.8025    2.7555    2.3145 H   0  0  0  0  0  0  0  0  0  0  0  0
   -0.5649    1.9386    0.7609 H   0  0  0  0  0  0  0  0  0  0  0  0
   -2.6003    2.5219    1.1083 C   0  0  0  0  0  0  0  0  0  0  0  0
   -2.8297    1.5993    1.6831 H   0  0  0  0  0  0  0  0  0  0  0  0
   -3.1844    3.3370    1.5946 H   0  0  0  0  0  0  0  0  0  0  0  0
   -3.0761    2.3386   -0.3392 C   0  0  0  0  0  0  0  0  0  0  0  0
   -2.3717    1.6537   -0.8621 H   0  0  0  0  0  0  0  0  0  0  0  0
   -3.0079    3.3079   -0.8788 H   0  0  0  0  0  0  0  0  0  0  0  0
   -4.5039    1.7925   -0.4756 C   0  0  0  0  0  0  0  0  0  0  0  0
   -5.2082    2.4370    0.0993 H   0  0  0  0  0  0  0  0  0  0  0  0
   -4.8224    1.8762   -1.5380 H   0  0  0  0  0  0  0  0  0  0  0  0
   -4.6694    0.3347   -0.0315 C   0  0  0  0  0  0  0  0  0  0  0  0
   -4.3901    0.2290    1.0404 H   0  0  0  0  0  0  0  0  0  0  0  0
   -3.9412   -0.2992   -0.5855 H   0  0  0  0  0  0  0  0  0  0  0  0
   -6.0829   -0.2164   -0.2309 C   0  0  0  0  0  0  0  0  0  0  0  0
   -6.8111    0.4207    0.3217 H   0  0  0  0  0  0  0  0  0  0  0  0
   -6.3661   -0.1265   -1.3047 H   0  0  0  0  0  0  0  0  0  0  0  0
   -6.2463   -1.6731    0.2136 C   0  0  0  0  0  0  0  0  0  0  0  0
   -5.5126   -2.3040   -0.3361 H   0  0  0  0  0  0  0  0  0  0  0  0
   -5.9648   -1.7584    1.2873 H   0  0  0  0  0  0  0  0  0  0  0  0
   -7.6579   -2.2227    0.0060 C   0  0  0  0  0  0  0  0  0  0  0  0
   -7.7441   -3.2774    0.3373 H   0  0  0  0  0  0  0  0  0  0  0  0
   -7.9516   -2.1839   -1.0640 H   0  0  0  0  0  0  0  0  0  0  0  0
   -8.4082   -1.6319    0.5726 H   0  0  0  0  0  0  0  0  0  0  0  0
  1  9  1  0  0  0  0
  1 12  1  0  0  0  0
  3 15  1  0  0  0  0
  6 23  1  0  0  0  0
  6 24  1  0  0  0  0
  7  8  1  0  0  0  0
  8  4  2  0  0  0  0
  8  9  1  0  0  0  0
  9 10  1  0  0  0  0
 11  9  1  0  0  0  0
 12 14  1  0  0  0  0
 12 13  1  0  0  0  0
 15 12  1  0  0  0  0
 15 16  1  0  0  0  0
 17 15  1  0  0  0  0
 18  2  1  0  0  0  0
 18 21  1  0  0  0  0
 19 18  1  0  0  0  0
 20 18  1  0  0  0  0
 21 22  1  6  0  0  0
 21  7  1  0  0  0  0
 21 23  1  0  0  0  0
 23  5  2  0  0  0  0
 24 26  1  0  0  0  0
 25 24  1  0  0  0  0
 27 24  1  0  0  0  0
 27 28  1  0  0  0  0
 27 30  1  0  0  0  0
 29 27  1  0  0  0  0
 30 31  1  0  0  0  0
 32 30  1  0  0  0  0
 33 30  1  0  0  0  0
 33 35  1  0  0  0  0
 33 34  1  0  0  0  0
 36 33  1  0  0  0  0
 37 36  1  0  0  0  0
 38 36  1  0  0  0  0
 39 36  1  0  0  0  0
 39 42  1  0  0  0  0
 39 40  1  0  0  0  0
 41 39  1  0  0  0  0
 42 43  1  0  0  0  0
 44 42  1  0  0  0  0
 45 42  1  0  0  0  0
 45 48  1  0  0  0  0
 45 46  1  0  0  0  0
 47 45  1  0  0  0  0
 48 50  1  0  0  0  0
 49 48  1  0  0  0  0
 51 48  1  0  0  0  0
 51 52  1  0  0  0  0
 51 54  1  0  0  0  0
 53 51  1  0  0  0  0
M  END
