1,2,3,4
 OpenBabel05122313063D

 23 22  0  0  0  0  0  0  0  0999 V2000
   -2.0077   -0.1502   -1.3070 S   0  0  0  0  0  1  0  0  0  0  0  0
    0.8842    1.3095   -1.2020 S   0  0  0  0  0  0  0  0  0  0  0  0
    1.9472   -0.6837    1.2129 S   0  0  0  0  0  1  0  0  0  0  0  0
   -0.9169    0.7007    1.3829 N   0  0  0  0  0  0  0  0  0  0  0  0
   -2.9484    0.8100   -0.0480 C   0  0  0  0  0  0  0  0  0  0  0  0
   -2.3915    0.6345    1.3606 C   0  0  0  0  0  0  0  0  0  0  0  0
   -0.3017    2.0304    1.2523 C   0  0  0  0  0  0  0  0  0  0  0  0
   -0.0868    2.4835   -0.1913 C   0  0  0  0  0  0  0  0  0  0  0  0
    2.5659    1.4724   -0.4650 C   0  0  0  0  0  0  0  0  0  0  0  0
    3.0654    0.1064   -0.0056 C   0  0  0  0  0  0  0  0  0  0  0  0
   -0.5832    0.2832    2.2612 H   0  0  0  0  0  0  0  0  0  0  0  0
   -4.0010    0.4623   -0.0724 H   0  0  0  0  0  0  0  0  0  0  0  0
   -2.9615    1.8791   -0.3490 H   0  0  0  0  0  0  0  0  0  0  0  0
   -2.6583   -0.3723    1.7371 H   0  0  0  0  0  0  0  0  0  0  0  0
   -2.8372    1.3928    2.0478 H   0  0  0  0  0  0  0  0  0  0  0  0
   -0.9058    2.8027    1.7844 H   0  0  0  0  0  0  0  0  0  0  0  0
    0.6836    1.9692    1.7589 H   0  0  0  0  0  0  0  0  0  0  0  0
   -1.0354    2.5841   -0.7515 H   0  0  0  0  0  0  0  0  0  0  0  0
    0.4200    3.4694   -0.2135 H   0  0  0  0  0  0  0  0  0  0  0  0
    2.5130    2.1831    0.3837 H   0  0  0  0  0  0  0  0  0  0  0  0
    3.2285    1.9058   -1.2429 H   0  0  0  0  0  0  0  0  0  0  0  0
    3.1879   -0.5756   -0.8726 H   0  0  0  0  0  0  0  0  0  0  0  0
    4.0578    0.2104    0.4809 H   0  0  0  0  0  0  0  0  0  0  0  0
  1  5  1  0  0  0  0
  2  9  1  0  0  0  0
  2  8  1  0  0  0  0
  4 11  1  0  0  0  0
  5  6  1  0  0  0  0
  6  4  1  0  0  0  0
  6 14  1  0  0  0  0
  6 15  1  0  0  0  0
  7  4  1  0  0  0  0
  7 17  1  0  0  0  0
  7 16  1  0  0  0  0
  8  7  1  0  0  0  0
  9 10  1  0  0  0  0
  9 20  1  0  0  0  0
 10 23  1  0  0  0  0
 10  3  1  0  0  0  0
 12  5  1  0  0  0  0
 13  5  1  0  0  0  0
 18  8  1  0  0  0  0
 19  8  1  0  0  0  0
 21  9  1  0  0  0  0
 22 10  1  0  0  0  0
M  END
