1,2,26,27
 OpenBabel05122313063D

 73 75  0  0  0  0  0  0  0  0999 V2000
   -0.0032    0.0140    2.9609 N   0  0  0  0  0  0  0  0  0  0  0  0
   -0.9560   -1.9811    0.2816 S   0  0  0  0  0  0  0  0  0  0  0  0
    0.3839   -1.3301    3.4778 C   0  0  0  0  0  0  0  0  0  0  0  0
    0.2935   -1.3125    4.5917 H   0  0  0  0  0  0  0  0  0  0  0  0
    1.4587   -1.4723    3.2522 H   0  0  0  0  0  0  0  0  0  0  0  0
   -0.3778   -2.5538    2.9530 C   0  0  0  0  0  0  0  0  0  0  0  0
   -0.0872   -3.3904    3.6225 H   0  0  0  0  0  0  0  0  0  0  0  0
   -1.4740   -2.4489    3.0983 H   0  0  0  0  0  0  0  0  0  0  0  0
   -0.0805   -3.0134    1.5240 C   0  0  0  0  0  0  0  0  0  0  0  0
   -0.4115   -4.0601    1.3722 H   0  0  0  0  0  0  0  0  0  0  0  0
    1.0071   -2.9629    1.3052 H   0  0  0  0  0  0  0  0  0  0  0  0
   -0.0851   -2.5165   -1.2657 C   0  0  0  0  0  0  0  0  0  0  0  0
   -0.5467   -1.8828   -2.0499 H   0  0  0  0  0  0  0  0  0  0  0  0
    0.9801   -2.2260   -1.1637 H   0  0  0  0  0  0  0  0  0  0  0  0
   -0.2449   -3.9840   -1.5433 C   0  0  0  0  0  0  0  0  0  0  0  0
    0.8379   -4.8654   -1.3520 C   0  0  0  0  0  0  0  0  0  0  0  0
    1.8134   -4.4661   -1.0306 H   0  0  0  0  0  0  0  0  0  0  0  0
    0.6870   -6.2416   -1.5822 C   0  0  0  0  0  0  0  0  0  0  0  0
    1.5423   -6.9182   -1.4367 H   0  0  0  0  0  0  0  0  0  0  0  0
   -0.5511   -6.7509   -2.0015 C   0  0  0  0  0  0  0  0  0  0  0  0
   -0.6707   -7.8291   -2.1847 H   0  0  0  0  0  0  0  0  0  0  0  0
   -1.6378   -5.8798   -2.1910 C   0  0  0  0  0  0  0  0  0  0  0  0
   -2.6089   -6.2755   -2.5243 H   0  0  0  0  0  0  0  0  0  0  0  0
   -1.4866   -4.5064   -1.9616 C   0  0  0  0  0  0  0  0  0  0  0  0
   -2.3418   -3.8272   -2.1053 H   0  0  0  0  0  0  0  0  0  0  0  0
   -1.2427    1.8268    0.2685 S   0  0  0  0  0  0  0  0  0  0  0  0
    2.2001    0.1697    0.2802 S   0  0  0  0  0  0  0  0  0  0  0  0
   -1.3628    0.3531    3.4713 C   0  0  0  0  0  0  0  0  0  0  0  0
    0.9678    1.0239    3.4720 C   0  0  0  0  0  0  0  0  0  0  0  0
   -1.3060    0.4287    4.5851 H   0  0  0  0  0  0  0  0  0  0  0  0
    0.9987    0.9422    4.5863 H   0  0  0  0  0  0  0  0  0  0  0  0
   -2.0227   -0.5080    3.2487 H   0  0  0  0  0  0  0  0  0  0  0  0
    0.5532    2.0247    3.2420 H   0  0  0  0  0  0  0  0  0  0  0  0
   -2.0399    1.6217    2.9372 C   0  0  0  0  0  0  0  0  0  0  0  0
    2.4081    0.9739    2.9464 C   0  0  0  0  0  0  0  0  0  0  0  0
   -2.9130    1.7909    3.6019 H   0  0  0  0  0  0  0  0  0  0  0  0
    2.9871    1.6487    3.6114 H   0  0  0  0  0  0  0  0  0  0  0  0
   -1.4022    2.5197    3.0815 H   0  0  0  0  0  0  0  0  0  0  0  0
    2.8663   -0.0265    3.0981 H   0  0  0  0  0  0  0  0  0  0  0  0
   -2.5799    1.5869    1.5058 C   0  0  0  0  0  0  0  0  0  0  0  0
    2.6560    1.4523    1.5142 C   0  0  0  0  0  0  0  0  0  0  0  0
   -3.3218    2.3947    1.3471 H   0  0  0  0  0  0  0  0  0  0  0  0
    3.7277    1.6891    1.3602 H   0  0  0  0  0  0  0  0  0  0  0  0
   -3.0769    0.6179    1.2887 H   0  0  0  0  0  0  0  0  0  0  0  0
    2.0673    2.3669    1.2900 H   0  0  0  0  0  0  0  0  0  0  0  0
   -2.1338    1.3327   -1.2811 C   0  0  0  0  0  0  0  0  0  0  0  0
    2.2304    1.1811   -1.2739 C   0  0  0  0  0  0  0  0  0  0  0  0
   -1.3529    1.4217   -2.0634 H   0  0  0  0  0  0  0  0  0  0  0  0
    1.9093    0.4605   -2.0533 H   0  0  0  0  0  0  0  0  0  0  0  0
   -2.4066    0.2629   -1.1795 H   0  0  0  0  0  0  0  0  0  0  0  0
    1.4490    1.9617   -1.1766 H   0  0  0  0  0  0  0  0  0  0  0  0
   -3.3311    2.1952   -1.5617 C   0  0  0  0  0  0  0  0  0  0  0  0
    3.5831    1.7695   -1.5567 C   0  0  0  0  0  0  0  0  0  0  0  0
   -4.6321    1.6858   -1.3781 C   0  0  0  0  0  0  0  0  0  0  0  0
    3.8105    3.1484   -1.3759 C   0  0  0  0  0  0  0  0  0  0  0  0
   -4.7661    0.6391   -1.0609 H   0  0  0  0  0  0  0  0  0  0  0  0
    2.9797    3.7992   -1.0586 H   0  0  0  0  0  0  0  0  0  0  0  0
   -5.7547    2.4955   -1.6106 C   0  0  0  0  0  0  0  0  0  0  0  0
    5.0798    3.6992   -1.6115 C   0  0  0  0  0  0  0  0  0  0  0  0
   -6.7653    2.0836   -1.4710 H   0  0  0  0  0  0  0  0  0  0  0  0
    5.2423    4.7787   -1.4742 H   0  0  0  0  0  0  0  0  0  0  0  0
   -5.5867    3.8253   -2.0242 C   0  0  0  0  0  0  0  0  0  0  0  0
    6.1363    2.8745   -2.0256 C   0  0  0  0  0  0  0  0  0  0  0  0
   -6.4655    4.4609   -2.2089 H   0  0  0  0  0  0  0  0  0  0  0  0
    7.1313    3.3048   -2.2130 H   0  0  0  0  0  0  0  0  0  0  0  0
   -4.2927    4.3432   -2.2061 C   0  0  0  0  0  0  0  0  0  0  0  0
    5.9199    1.4972   -2.2046 C   0  0  0  0  0  0  0  0  0  0  0  0
   -4.1576    5.3844   -2.5349 H   0  0  0  0  0  0  0  0  0  0  0  0
    6.7452    0.8485   -2.5339 H   0  0  0  0  0  0  0  0  0  0  0  0
   -3.1727    3.5347   -1.9746 C   0  0  0  0  0  0  0  0  0  0  0  0
    4.6530    0.9481   -1.9699 C   0  0  0  0  0  0  0  0  0  0  0  0
   -2.1598    3.9452   -2.1121 H   0  0  0  0  0  0  0  0  0  0  0  0
    4.4880   -0.1325   -2.1053 H   0  0  0  0  0  0  0  0  0  0  0  0
  1 28  1  0  0  0  0
  1 29  1  0  0  0  0
  1  3  1  0  0  0  0
  2  9  1  0  0  0  0
  3  4  1  0  0  0  0
  5  3  1  0  0  0  0
  6  8  1  0  0  0  0
  6  3  1  0  0  0  0
  6  7  1  0  0  0  0
  9  6  1  0  0  0  0
 10  9  1  0  0  0  0
 11  9  1  0  0  0  0
 12 14  1  0  0  0  0
 12  2  1  0  0  0  0
 13 12  1  0  0  0  0
 15 16  1  0  0  0  0
 15 12  1  0  0  0  0
 16 17  1  0  0  0  0
 18 19  1  0  0  0  0
 18 16  2  0  0  0  0
 20 18  1  0  0  0  0
 21 20  1  0  0  0  0
 22 20  2  0  0  0  0
 22 24  1  0  0  0  0
 23 22  1  0  0  0  0
 24 15  2  0  0  0  0
 25 24  1  0  0  0  0
 26 40  1  0  0  0  0
 27 41  1  0  0  0  0
 28 30  1  0  0  0  0
 29 31  1  0  0  0  0
 32 28  1  0  0  0  0
 33 29  1  0  0  0  0
 34 38  1  0  0  0  0
 34 28  1  0  0  0  0
 34 36  1  0  0  0  0
 35 39  1  0  0  0  0
 35 29  1  0  0  0  0
 35 37  1  0  0  0  0
 40 34  1  0  0  0  0
 41 35  1  0  0  0  0
 42 40  1  0  0  0  0
 43 41  1  0  0  0  0
 44 40  1  0  0  0  0
 45 41  1  0  0  0  0
 46 50  1  0  0  0  0
 46 26  1  0  0  0  0
 47 51  1  0  0  0  0
 47 27  1  0  0  0  0
 48 46  1  0  0  0  0
 49 47  1  0  0  0  0
 52 54  1  0  0  0  0
 52 46  1  0  0  0  0
 53 55  1  0  0  0  0
 53 47  1  0  0  0  0
 54 56  1  0  0  0  0
 55 57  1  0  0  0  0
 58 60  1  0  0  0  0
 58 54  2  0  0  0  0
 59 61  1  0  0  0  0
 59 55  2  0  0  0  0
 62 58  1  0  0  0  0
 63 59  1  0  0  0  0
 64 62  1  0  0  0  0
 65 63  1  0  0  0  0
 66 62  2  0  0  0  0
 66 70  1  0  0  0  0
 67 63  2  0  0  0  0
 67 71  1  0  0  0  0
 68 66  1  0  0  0  0
 69 67  1  0  0  0  0
 70 52  2  0  0  0  0
 71 53  2  0  0  0  0
 72 70  1  0  0  0  0
 73 71  1  0  0  0  0
M  END
