1,2,3,4
 OpenBabel05122313063D

 27 26  0  0  0  0  0  0  0  0999 V2000
    0.7235   -1.3619    1.8307 S   0  0  0  0  0  1  0  0  0  0  0  0
    0.2505   -2.0208   -1.3950 S   0  0  0  0  0  0  0  0  0  0  0  0
    1.5345    1.8613    1.0928 S   0  0  0  0  0  1  0  0  0  0  0  0
    2.6329   -0.3698   -0.4573 N   0  0  0  0  0  2  0  0  0  0  0  0
    4.2239   -1.8741   -1.2158 O   0  0  0  0  0  0  0  0  0  0  0  0
    1.0164   -3.0144    1.1048 C   0  0  0  0  0  0  0  0  0  0  0  0
    0.1274   -3.2986   -0.0944 C   0  0  0  0  0  0  0  0  0  0  0  0
    1.9841   -2.2229   -1.9633 C   0  0  0  0  0  0  0  0  0  0  0  0
    3.0580   -1.4833   -1.1518 C   0  0  0  0  0  0  0  0  0  0  0  0
    3.6645    0.3067    0.3409 C   0  0  0  0  0  0  0  0  0  0  0  0
    3.3463    1.7914    0.5382 C   0  0  0  0  0  0  0  0  0  0  0  0
    4.2003    2.3948    1.6534 C   0  0  0  0  0  0  0  0  0  0  0  0
    3.4791    2.5767   -0.7704 C   0  0  0  0  0  0  0  0  0  0  0  0
    2.0888   -3.1043    0.8269 H   0  0  0  0  0  0  0  0  0  0  0  0
    0.8183   -3.7742    1.8898 H   0  0  0  0  0  0  0  0  0  0  0  0
   -0.9452   -3.2898    0.1835 H   0  0  0  0  0  0  0  0  0  0  0  0
    0.3576   -4.2714   -0.5789 H   0  0  0  0  0  0  0  0  0  0  0  0
    2.2455   -3.2969   -2.0209 H   0  0  0  0  0  0  0  0  0  0  0  0
    1.9875   -1.8203   -2.9976 H   0  0  0  0  0  0  0  0  0  0  0  0
    4.6482    0.1740   -0.1568 H   0  0  0  0  0  0  0  0  0  0  0  0
    3.7244   -0.1923    1.3350 H   0  0  0  0  0  0  0  0  0  0  0  0
    4.0662    1.8426    2.6048 H   0  0  0  0  0  0  0  0  0  0  0  0
    3.9301    3.4557    1.8275 H   0  0  0  0  0  0  0  0  0  0  0  0
    5.2759    2.3587    1.3786 H   0  0  0  0  0  0  0  0  0  0  0  0
    2.8553    2.1285   -1.5687 H   0  0  0  0  0  0  0  0  0  0  0  0
    4.5368    2.5731   -1.1108 H   0  0  0  0  0  0  0  0  0  0  0  0
    3.1613    3.6300   -0.6365 H   0  0  0  0  0  0  0  0  0  0  0  0
  2  7  1  0  0  0  0
  4 10  1  0  0  0  0
  5  9  2  0  0  0  0
  6  1  1  0  0  0  0
  6 15  1  0  0  0  0
  7 16  1  0  0  0  0
  7  6  1  0  0  0  0
  8  2  1  0  0  0  0
  8  9  1  0  0  0  0
  9  4  1  0  0  0  0
 10 11  1  0  0  0  0
 10 21  1  0  0  0  0
 11  3  1  0  0  0  0
 11 12  1  0  0  0  0
 12 23  1  0  0  0  0
 12 22  1  0  0  0  0
 13 27  1  0  0  0  0
 13 11  1  0  0  0  0
 14  6  1  0  0  0  0
 17  7  1  0  0  0  0
 18  8  1  0  0  0  0
 19  8  1  0  0  0  0
 20 10  1  0  0  0  0
 24 12  1  0  0  0  0
 25 13  1  0  0  0  0
 26 13  1  0  0  0  0
M  END
