1,2,3,4
 OpenBabel05122313063D

 24 23  0  0  0  0  0  0  0  0999 V2000
    1.4780   -1.6731   -0.7366 S   0  0  0  0  0  1  0  0  0  0  0  0
    1.4179    1.3902    0.6680 S   0  0  0  0  0  0  0  0  0  0  0  0
   -1.6403   -1.8348   -0.7197 S   0  0  0  0  0  1  0  0  0  0  0  0
   -1.3559    0.9957   -0.2535 N   0  0  0  0  0  2  0  0  0  0  0  0
   -1.8261    3.2386   -0.5857 O   0  0  0  0  0  0  0  0  0  0  0  0
    3.1045   -0.8738   -0.3734 C   0  0  0  0  0  0  0  0  0  0  0  0
    3.3477    0.4593   -1.0933 C   0  0  0  0  0  0  0  0  0  0  0  0
    2.1878    1.4551   -1.0095 C   0  0  0  0  0  0  0  0  0  0  0  0
    0.2045    2.7460    0.5552 C   0  0  0  0  0  0  0  0  0  0  0  0
   -1.0903    2.3533   -0.1597 C   0  0  0  0  0  0  0  0  0  0  0  0
   -2.6138    0.7020   -0.9859 C   0  0  0  0  0  0  0  0  0  0  0  0
   -3.0958   -0.6968   -0.6543 C   0  0  0  0  0  0  0  0  0  0  0  0
    3.1881   -0.7475    0.7256 H   0  0  0  0  0  0  0  0  0  0  0  0
    3.8793   -1.6093   -0.6703 H   0  0  0  0  0  0  0  0  0  0  0  0
    3.5466    0.2815   -2.1709 H   0  0  0  0  0  0  0  0  0  0  0  0
    4.2653    0.9198   -0.6678 H   0  0  0  0  0  0  0  0  0  0  0  0
    1.3861    1.2165   -1.7364 H   0  0  0  0  0  0  0  0  0  0  0  0
    2.5251    2.4977   -1.1712 H   0  0  0  0  0  0  0  0  0  0  0  0
   -0.0267    3.0237    1.6042 H   0  0  0  0  0  0  0  0  0  0  0  0
    0.6484    3.6309    0.0602 H   0  0  0  0  0  0  0  0  0  0  0  0
   -2.4261    0.7954   -2.0788 H   0  0  0  0  0  0  0  0  0  0  0  0
   -3.3653    1.4749   -0.7242 H   0  0  0  0  0  0  0  0  0  0  0  0
   -3.8530   -1.0464   -1.3839 H   0  0  0  0  0  0  0  0  0  0  0  0
   -3.5360   -0.7461    0.3632 H   0  0  0  0  0  0  0  0  0  0  0  0
  1  6  1  0  0  0  0
  3 12  1  0  0  0  0
  4 10  1  0  0  0  0
  5 10  2  0  0  0  0
  6 13  1  0  0  0  0
  7  8  1  0  0  0  0
  7 16  1  0  0  0  0
  7  6  1  0  0  0  0
  8  2  1  0  0  0  0
  9  2  1  0  0  0  0
  9 19  1  0  0  0  0
 10  9  1  0  0  0  0
 11 22  1  0  0  0  0
 11 12  1  0  0  0  0
 11  4  1  0  0  0  0
 12 24  1  0  0  0  0
 14  6  1  0  0  0  0
 15  7  1  0  0  0  0
 17  8  1  0  0  0  0
 18  8  1  0  0  0  0
 20  9  1  0  0  0  0
 21 11  1  0  0  0  0
 23 12  1  0  0  0  0
M  END
