1,2,3,4
 OpenBabel05122313063D

 22 21  0  0  0  0  0  0  0  0999 V2000
    1.0479    1.3480   -0.2235 N   0  0  0  0  0  2  0  0  0  0  0  0
   -1.1726   -1.7569   -0.8512 S   0  0  0  0  0  1  0  0  0  0  0  0
   -1.7655    1.1374    0.4332 S   0  0  0  0  0  0  0  0  0  0  0  0
    1.9796   -1.3130   -0.6461 S   0  0  0  0  0  1  0  0  0  0  0  0
   -2.9016   -1.1265   -0.5977 C   0  0  0  0  0  0  0  0  0  0  0  0
   -2.9762    0.3819   -0.7517 C   0  0  0  0  0  0  0  0  0  0  0  0
   -1.0707    2.5615   -0.5049 C   0  0  0  0  0  0  0  0  0  0  0  0
    0.4021    2.6543   -0.1088 C   0  0  0  0  0  0  0  0  0  0  0  0
    2.3808    1.3910   -0.8470 C   0  0  0  0  0  0  0  0  0  0  0  0
    3.1494    0.1166   -0.5382 C   0  0  0  0  0  0  0  0  0  0  0  0
   -3.5372   -1.6093   -1.3682 H   0  0  0  0  0  0  0  0  0  0  0  0
   -3.2731   -1.4481    0.3972 H   0  0  0  0  0  0  0  0  0  0  0  0
   -3.9758    0.7925   -0.5029 H   0  0  0  0  0  0  0  0  0  0  0  0
   -2.6829    0.6944   -1.7744 H   0  0  0  0  0  0  0  0  0  0  0  0
   -1.1727    2.3272   -1.5837 H   0  0  0  0  0  0  0  0  0  0  0  0
   -1.6437    3.4770   -0.2583 H   0  0  0  0  0  0  0  0  0  0  0  0
    0.4917    3.0738    0.9224 H   0  0  0  0  0  0  0  0  0  0  0  0
    0.8887    3.3893   -0.7889 H   0  0  0  0  0  0  0  0  0  0  0  0
    2.2841    1.5217   -1.9530 H   0  0  0  0  0  0  0  0  0  0  0  0
    2.9476    2.2721   -0.4654 H   0  0  0  0  0  0  0  0  0  0  0  0
    3.5671    0.1424    0.4893 H   0  0  0  0  0  0  0  0  0  0  0  0
    3.9786   -0.0464   -1.2550 H   0  0  0  0  0  0  0  0  0  0  0  0
  1  8  1  0  0  0  0
  2  5  1  0  0  0  0
  4 10  1  0  0  0  0
  5 12  1  0  0  0  0
  6  5  1  0  0  0  0
  6 13  1  0  0  0  0
  6  3  1  0  0  0  0
  7 16  1  0  0  0  0
  7  8  1  0  0  0  0
  7  3  1  0  0  0  0
  8 17  1  0  0  0  0
  9 10  1  0  0  0  0
  9 20  1  0  0  0  0
  9  1  1  0  0  0  0
 10 21  1  0  0  0  0
 11  5  1  0  0  0  0
 14  6  1  0  0  0  0
 15  7  1  0  0  0  0
 18  8  1  0  0  0  0
 19  9  1  0  0  0  0
 22 10  1  0  0  0  0
M  END
