1,8,14
q = -1.0, confidence = 0.014

 41 41  0  0  0  0  0  0  0  0999 V2000
    0.0001    1.6291    0.0683 C   0  0  0  0  0  3  0  0  0  0  0  0
   -1.2474    2.2803    0.2406 C   0  0  0  0  0  0  0  0  0  0  0  0
   -1.2319    3.6458    0.5989 C   0  0  0  0  0  0  0  0  0  0  0  0
    0.0000    4.3091    0.7707 C   0  0  0  0  0  0  0  0  0  0  0  0
    1.2320    3.6457    0.5990 C   0  0  0  0  0  0  0  0  0  0  0  0
    1.2475    2.2803    0.2407 C   0  0  0  0  0  0  0  0  0  0  0  0
    2.3487    1.3700    0.0202 C   0  0  0  0  0  3  0  0  0  0  0  0
    2.0342    0.1284   -0.2869 N   0  0  0  0  0  2  0  0  0  0  0  0
    3.0950   -0.9005   -0.5022 C   0  0  0  0  0  0  0  0  0  0  0  0
    2.4315   -2.1259   -1.1479 C   0  0  0  0  0  0  0  0  0  0  0  0
    3.6756   -1.2836    0.8729 C   0  0  0  0  0  0  0  0  0  0  0  0
    4.1938   -0.3601   -1.4360 C   0  0  0  0  0  0  0  0  0  0  0  0
   -2.3486    1.3700    0.0201 C   0  0  0  0  0  3  0  0  0  0  0  0
   -2.0342    0.1284   -0.2870 N   0  0  0  0  0  2  0  0  0  0  0  0
   -3.0951   -0.9004   -0.5022 C   0  0  0  0  0  0  0  0  0  0  0  0
   -2.4318   -2.1257   -1.1483 C   0  0  0  0  0  0  0  0  0  0  0  0
   -4.1941   -0.3599   -1.4356 C   0  0  0  0  0  0  0  0  0  0  0  0
   -3.6753   -1.2837    0.8730 C   0  0  0  0  0  0  0  0  0  0  0  0
   -2.1760    4.1933    0.7480 H   0  0  0  0  0  0  0  0  0  0  0  0
    0.0000    5.3727    1.0508 H   0  0  0  0  0  0  0  0  0  0  0  0
    2.1761    4.1933    0.7482 H   0  0  0  0  0  0  0  0  0  0  0  0
    3.4027    1.6861    0.1175 H   0  0  0  0  0  0  0  0  0  0  0  0
   -3.4025    1.6862    0.1173 H   0  0  0  0  0  0  0  0  0  0  0  0
    1.9954   -1.8693   -2.1335 H   0  0  0  0  0  0  0  0  0  0  0  0
    1.6334   -2.5230   -0.4880 H   0  0  0  0  0  0  0  0  0  0  0  0
    3.1819   -2.9264   -1.3011 H   0  0  0  0  0  0  0  0  0  0  0  0
    2.8624   -1.6299    1.5414 H   0  0  0  0  0  0  0  0  0  0  0  0
    4.1767   -0.4159    1.3475 H   0  0  0  0  0  0  0  0  0  0  0  0
    4.4226   -2.0945    0.7575 H   0  0  0  0  0  0  0  0  0  0  0  0
    4.7565    0.4808   -0.9845 H   0  0  0  0  0  0  0  0  0  0  0  0
    3.7611   -0.0166   -2.3970 H   0  0  0  0  0  0  0  0  0  0  0  0
    4.9252   -1.1635   -1.6523 H   0  0  0  0  0  0  0  0  0  0  0  0
   -1.6334   -2.5229   -0.4886 H   0  0  0  0  0  0  0  0  0  0  0  0
   -1.9959   -1.8689   -2.1339 H   0  0  0  0  0  0  0  0  0  0  0  0
   -3.1822   -2.9262   -1.3014 H   0  0  0  0  0  0  0  0  0  0  0  0
   -3.7617   -0.0164   -2.3968 H   0  0  0  0  0  0  0  0  0  0  0  0
   -4.7567    0.4810   -0.9839 H   0  0  0  0  0  0  0  0  0  0  0  0
   -4.9257   -1.1632   -1.6517 H   0  0  0  0  0  0  0  0  0  0  0  0
   -4.1763   -0.4160    1.3479 H   0  0  0  0  0  0  0  0  0  0  0  0
   -2.8619   -1.6299    1.5412 H   0  0  0  0  0  0  0  0  0  0  0  0
   -4.4223   -2.0945    0.7577 H   0  0  0  0  0  0  0  0  0  0  0  0
  1  2  2  0  0  0  0
  1  6  1  0  0  0  0
  2  3  1  0  0  0  0
  3 19  1  0  0  0  0
  3  4  2  0  0  0  0
  4 20  1  0  0  0  0
  5 21  1  0  0  0  0
  5  4  1  0  0  0  0
  6  5  2  0  0  0  0
  7 22  1  0  0  0  0
  7  6  1  0  0  0  0
  8  7  1  0  0  0  0
  9  8  1  0  0  0  0
  9 11  1  0  0  0  0
 10  9  1  0  0  0  0
 10 25  1  0  0  0  0
 11 28  1  0  0  0  0
 11 27  1  0  0  0  0
 12 30  1  0  0  0  0
 12  9  1  0  0  0  0
 13 23  1  0  0  0  0
 13  2  1  0  0  0  0
 14 13  1  0  0  0  0
 15 14  1  0  0  0  0
 15 18  1  0  0  0  0
 16 15  1  0  0  0  0
 16 33  1  0  0  0  0
 17 37  1  0  0  0  0
 17 15  1  0  0  0  0
 18 39  1  0  0  0  0
 18 40  1  0  0  0  0
 24 10  1  0  0  0  0
 26 10  1  0  0  0  0
 29 11  1  0  0  0  0
 31 12  1  0  0  0  0
 32 12  1  0  0  0  0
 34 16  1  0  0  0  0
 35 16  1  0  0  0  0
 36 17  1  0  0  0  0
 38 17  1  0  0  0  0
 41 18  1  0  0  0  0
M  END
