1,3,31
q = -1.0

 62 64  0  0  0  0  0  0  0  0999 V2000
   -1.2499   -0.2547   -0.5405 N   0  0  0  0  0  0  0  0  0  0  0  0
   -1.5635    0.5860   -1.0752 H   0  0  0  0  0  0  0  0  0  0  0  0
    1.4262   -0.9178   -0.7270 N   0  0  0  0  0  2  0  0  0  0  0  0
   -2.2265   -0.5273    0.4942 C   0  0  0  0  0  0  0  0  0  0  0  0
   -1.8375   -1.1392    1.7199 C   0  0  0  0  0  0  0  0  0  0  0  0
   -2.8262   -1.4222    2.6810 C   0  0  0  0  0  0  0  0  0  0  0  0
   -2.5267   -1.9000    3.6265 H   0  0  0  0  0  0  0  0  0  0  0  0
   -4.1676   -1.0921    2.4700 C   0  0  0  0  0  0  0  0  0  0  0  0
   -4.9243   -1.3162    3.2371 H   0  0  0  0  0  0  0  0  0  0  0  0
   -4.5351   -0.4632    1.2776 C   0  0  0  0  0  0  0  0  0  0  0  0
   -5.5888   -0.1905    1.1133 H   0  0  0  0  0  0  0  0  0  0  0  0
   -3.5932   -0.1795    0.2699 C   0  0  0  0  0  0  0  0  0  0  0  0
   -0.8578   -1.3707   -1.4927 C   0  0  0  0  0  0  0  0  0  0  0  0
   -1.8650   -2.5256   -1.4747 C   0  0  0  0  0  0  0  0  0  0  0  0
   -1.6279   -3.2628   -2.2655 H   0  0  0  0  0  0  0  0  0  0  0  0
   -2.8817   -2.1416   -1.6725 H   0  0  0  0  0  0  0  0  0  0  0  0
   -1.8842   -3.0432   -0.4972 H   0  0  0  0  0  0  0  0  0  0  0  0
   -0.8009   -0.7418   -2.9040 C   0  0  0  0  0  0  0  0  0  0  0  0
   -0.1285    0.1396   -2.9055 H   0  0  0  0  0  0  0  0  0  0  0  0
   -1.8127   -0.4130   -3.2140 H   0  0  0  0  0  0  0  0  0  0  0  0
   -0.4248   -1.4759   -3.6424 H   0  0  0  0  0  0  0  0  0  0  0  0
    0.5717   -1.8588   -1.1885 C   0  0  0  0  0  0  0  0  0  0  0  0
    1.0504   -3.1481   -1.4612 C   0  0  0  0  0  0  0  0  0  0  0  0
    0.3718   -3.9297   -1.8249 H   0  0  0  0  0  0  0  0  0  0  0  0
    2.4134   -3.4145   -1.2617 C   0  0  0  0  0  0  0  0  0  0  0  0
    2.8091   -4.4217   -1.4605 H   0  0  0  0  0  0  0  0  0  0  0  0
    3.2805   -2.4077   -0.8206 C   0  0  0  0  0  0  0  0  0  0  0  0
    4.3418   -2.6290   -0.6828 H   0  0  0  0  0  0  0  0  0  0  0  0
    2.7761   -1.1174   -0.5480 C   0  0  0  0  0  0  0  0  0  0  0  0
    3.4681    0.0977   -0.0873 C   0  0  0  0  0  0  0  0  0  0  0  0
    2.5934    1.2217    0.1175 C   0  0  0  0  0  2  0  0  0  0  0  0
    3.1007    2.4515    0.5530 C   0  0  0  0  0  0  0  0  0  0  0  0
    2.4053    3.2896    0.7105 H   0  0  0  0  0  0  0  0  0  0  0  0
    4.4779    2.5869    0.7812 C   0  0  0  0  0  0  0  0  0  0  0  0
    4.8898    3.5513    1.1191 H   0  0  0  0  0  0  0  0  0  0  0  0
    5.3397    1.4977    0.5807 C   0  0  0  0  0  0  0  0  0  0  0  0
    6.4189    1.6182    0.7634 H   0  0  0  0  0  0  0  0  0  0  0  0
    4.8691    0.2423    0.1512 C   0  0  0  0  0  0  0  0  0  0  0  0
   -4.1100    0.4896   -1.0046 C   0  0  0  0  0  0  0  0  0  0  0  0
   -3.2651    0.6362   -1.7048 H   0  0  0  0  0  0  0  0  0  0  0  0
   -4.6702    1.8915   -0.7092 C   0  0  0  0  0  0  0  0  0  0  0  0
   -5.5421    1.8433   -0.0244 H   0  0  0  0  0  0  0  0  0  0  0  0
   -5.0013    2.3803   -1.6480 H   0  0  0  0  0  0  0  0  0  0  0  0
   -3.8914    2.5315   -0.2567 H   0  0  0  0  0  0  0  0  0  0  0  0
   -5.1586   -0.3777   -1.7246 C   0  0  0  0  0  0  0  0  0  0  0  0
   -4.7710   -1.3884   -1.9658 H   0  0  0  0  0  0  0  0  0  0  0  0
   -5.4717    0.1023   -2.6743 H   0  0  0  0  0  0  0  0  0  0  0  0
   -6.0688   -0.5144   -1.1055 H   0  0  0  0  0  0  0  0  0  0  0  0
   -0.3920   -1.4711    2.0650 C   0  0  0  0  0  0  0  0  0  0  0  0
    0.2364   -1.1016    1.2352 H   0  0  0  0  0  0  0  0  0  0  0  0
    0.0792   -0.7023    3.3108 C   0  0  0  0  0  0  0  0  0  0  0  0
   -0.0551    0.3889    3.1708 H   0  0  0  0  0  0  0  0  0  0  0  0
    1.1575   -0.8897    3.4927 H   0  0  0  0  0  0  0  0  0  0  0  0
   -0.4757   -1.0050    4.2230 H   0  0  0  0  0  0  0  0  0  0  0  0
   -0.1540   -2.9826    2.2033 C   0  0  0  0  0  0  0  0  0  0  0  0
   -0.7382   -3.4142    3.0430 H   0  0  0  0  0  0  0  0  0  0  0  0
    0.9182   -3.1918    2.3977 H   0  0  0  0  0  0  0  0  0  0  0  0
   -0.4408   -3.5282    1.2816 H   0  0  0  0  0  0  0  0  0  0  0  0
    5.8774   -0.8661   -0.0294 C   0  0  0  0  0  0  0  0  0  0  0  0
    5.8922   -1.2552   -1.0690 H   0  0  0  0  0  0  0  0  0  0  0  0
    5.6792   -1.7276    0.6427 H   0  0  0  0  0  0  0  0  0  0  0  0
    6.8963   -0.5001    0.1997 H   0  0  0  0  0  0  0  0  0  0  0  0
  1  4  1  0  0  0  0
  2  1  1  0  0  0  0
  3 29  1  0  0  0  0
  4  5  1  0  0  0  0
  5 49  1  0  0  0  0
  5  6  2  0  0  0  0
  6  7  1  0  0  0  0
  8  6  1  0  0  0  0
  8  9  1  0  0  0  0
 10  8  2  0  0  0  0
 11 10  1  0  0  0  0
 12  4  2  0  0  0  0
 12 10  1  0  0  0  0
 13 14  1  0  0  0  0
 13 22  1  0  0  0  0
 13  1  1  0  0  0  0
 14 17  1  0  0  0  0
 15 14  1  0  0  0  0
 16 14  1  0  0  0  0
 18 13  1  0  0  0  0
 19 18  1  0  0  0  0
 20 18  1  0  0  0  0
 21 18  1  0  0  0  0
 22  3  1  0  0  0  0
 23 25  1  0  0  0  0
 23 22  2  0  0  0  0
 24 23  1  0  0  0  0
 25 27  2  0  0  0  0
 26 25  1  0  0  0  0
 27 28  1  0  0  0  0
 27 29  1  0  0  0  0
 29 30  2  0  0  0  0
 30 31  1  0  0  0  0
 30 38  1  0  0  0  0
 31 32  1  0  0  0  0
 32 33  1  0  0  0  0
 32 34  2  0  0  0  0
 34 35  1  0  0  0  0
 36 37  1  0  0  0  0
 36 34  1  0  0  0  0
 38 36  2  0  0  0  0
 39 41  1  0  0  0  0
 39 12  1  0  0  0  0
 40 39  1  0  0  0  0
 41 44  1  0  0  0  0
 41 42  1  0  0  0  0
 43 41  1  0  0  0  0
 45 48  1  0  0  0  0
 45 39  1  0  0  0  0
 46 45  1  0  0  0  0
 47 45  1  0  0  0  0
 49 55  1  0  0  0  0
 49 51  1  0  0  0  0
 50 49  1  0  0  0  0
 51 53  1  0  0  0  0
 51 54  1  0  0  0  0
 52 51  1  0  0  0  0
 55 57  1  0  0  0  0
 55 56  1  0  0  0  0
 58 55  1  0  0  0  0
 59 38  1  0  0  0  0
 59 62  1  0  0  0  0
 59 61  1  0  0  0  0
 60 59  1  0  0  0  0
M  END
