3,4,5
q = -1.0

 34 34  0  0  0  0  0  0  0  0999 V2000
    5.1412   -0.0888    0.0113 O   0  0  0  0  0  0  0  0  0  0  0  0
    5.4905    0.8094   -0.1345 H   0  0  0  0  0  0  0  0  0  0  0  0
   -0.6306   -2.1064   -0.0318 N   0  0  0  0  0  0  0  0  0  0  0  0
   -0.6123    2.1095    0.0320 N   0  0  0  0  0  0  0  0  0  0  0  0
    0.9886   -0.0058    0.0019 C   0  0  0  0  0  3  0  0  0  0  0  0
    1.6704   -1.2203    0.2014 C   0  0  0  0  0  0  0  0  0  0  0  0
    3.0730   -1.2352    0.1912 C   0  0  0  0  0  0  0  0  0  0  0  0
    3.6552   -2.1575    0.3390 H   0  0  0  0  0  0  0  0  0  0  0  0
    3.7756   -0.0227    0.0017 C   0  0  0  0  0  0  0  0  0  0  0  0
    3.0851    1.1964   -0.1872 C   0  0  0  0  0  0  0  0  0  0  0  0
    3.6597    2.1273   -0.3373 H   0  0  0  0  0  0  0  0  0  0  0  0
    1.6791    1.2009   -0.1973 C   0  0  0  0  0  0  0  0  0  0  0  0
    0.7558   -2.3804    0.5023 C   0  0  0  0  0  0  0  0  0  0  0  0
    0.6530   -2.4869    1.6027 H   0  0  0  0  0  0  0  0  0  0  0  0
    1.1211   -3.3588    0.1133 H   0  0  0  0  0  0  0  0  0  0  0  0
   -0.7125   -2.4861   -1.4619 C   0  0  0  0  0  0  0  0  0  0  0  0
   -0.5773   -3.5871   -1.5773 H   0  0  0  0  0  0  0  0  0  0  0  0
    0.0753   -1.9561   -2.0276 H   0  0  0  0  0  0  0  0  0  0  0  0
   -1.7020   -2.1894   -1.8558 H   0  0  0  0  0  0  0  0  0  0  0  0
   -1.6496   -2.8436    0.7440 C   0  0  0  0  0  0  0  0  0  0  0  0
   -2.6514   -2.5476    0.3807 H   0  0  0  0  0  0  0  0  0  0  0  0
   -1.5747   -2.5557    1.8087 H   0  0  0  0  0  0  0  0  0  0  0  0
   -1.4981   -3.9430    0.6429 H   0  0  0  0  0  0  0  0  0  0  0  0
    0.7776    2.3707   -0.4991 C   0  0  0  0  0  0  0  0  0  0  0  0
    0.6771    2.4806   -1.5996 H   0  0  0  0  0  0  0  0  0  0  0  0
    1.1509    3.3455   -0.1079 H   0  0  0  0  0  0  0  0  0  0  0  0
   -1.6229    2.8559   -0.7458 C   0  0  0  0  0  0  0  0  0  0  0  0
   -2.6280    2.5674   -0.3853 H   0  0  0  0  0  0  0  0  0  0  0  0
   -1.5478    2.5682   -1.8105 H   0  0  0  0  0  0  0  0  0  0  0  0
   -1.4631    3.9541   -0.6433 H   0  0  0  0  0  0  0  0  0  0  0  0
   -0.6942    2.4891    1.4620 C   0  0  0  0  0  0  0  0  0  0  0  0
   -0.5498    3.5889    1.5788 H   0  0  0  0  0  0  0  0  0  0  0  0
    0.0872    1.9512    2.0292 H   0  0  0  0  0  0  0  0  0  0  0  0
   -1.6872    2.2006    1.8531 H   0  0  0  0  0  0  0  0  0  0  0  0
  2  1  1  0  0  0  0
  3 13  1  0  0  0  0
  3 20  1  0  0  0  0
  4 31  1  0  0  0  0
  5  6  1  0  0  0  0
  6 13  1  0  0  0  0
  7  6  2  0  0  0  0
  7  8  1  0  0  0  0
  9  1  1  0  0  0  0
  9  7  1  0  0  0  0
 10  9  2  0  0  0  0
 11 10  1  0  0  0  0
 12 10  1  0  0  0  0
 12  5  2  0  0  0  0
 13 14  1  0  0  0  0
 15 13  1  0  0  0  0
 16  3  1  0  0  0  0
 17 16  1  0  0  0  0
 18 16  1  0  0  0  0
 19 16  1  0  0  0  0
 20 22  1  0  0  0  0
 21 20  1  0  0  0  0
 23 20  1  0  0  0  0
 24 12  1  0  0  0  0
 24 26  1  0  0  0  0
 24  4  1  0  0  0  0
 25 24  1  0  0  0  0
 27 30  1  0  0  0  0
 27 28  1  0  0  0  0
 27  4  1  0  0  0  0
 29 27  1  0  0  0  0
 31 32  1  0  0  0  0
 31 34  1  0  0  0  0
 31 33  1  0  0  0  0
M  END
