7,8,11
q = -1.0

 71 71  0  0  0  0  0  0  0  0999 V2000
   -8.1767    0.0974    0.1794 Si  0  0  0  0  0  0  0  0  0  0  0  0
   -1.4350   -0.2005   -2.1324 O   0  0  0  0  0  0  0  0  0  0  0  0
   -2.3028   -1.7553   -0.6500 O   0  0  0  0  0  0  0  0  0  0  0  0
   -7.3438    0.4404    1.5894 O   0  0  0  0  0  0  0  0  0  0  0  0
   -8.4305    1.4628   -0.7441 O   0  0  0  0  0  0  0  0  0  0  0  0
   -9.7148   -0.4853    0.5170 O   0  0  0  0  0  0  0  0  0  0  0  0
    4.0763    2.0516   -0.6782 N   0  0  0  0  0  0  0  0  0  0  0  0
    3.8600   -1.9912    0.5168 N   0  0  0  0  0  0  0  0  0  0  0  0
   -3.5639   -0.8316   -2.3453 N   0  0  0  0  0  0  0  0  0  0  0  0
   -3.5466   -0.0883   -3.0452 H   0  0  0  0  0  0  0  0  0  0  0  0
    2.4459   -0.0567   -0.6456 C   0  0  0  0  0  3  0  0  0  0  0  0
    1.7884    1.1275   -1.0227 C   0  0  0  0  0  0  0  0  0  0  0  0
    0.4739    1.0519   -1.5067 C   0  0  0  0  0  0  0  0  0  0  0  0
   -0.0952    1.9427   -1.8134 H   0  0  0  0  0  0  0  0  0  0  0  0
   -0.1549   -0.2072   -1.5911 C   0  0  0  0  0  0  0  0  0  0  0  0
    0.5004   -1.3976   -1.2119 C   0  0  0  0  0  0  0  0  0  0  0  0
   -0.0277   -2.3569   -1.2853 H   0  0  0  0  0  0  0  0  0  0  0  0
    1.8190   -1.3118   -0.7397 C   0  0  0  0  0  0  0  0  0  0  0  0
    2.5901    2.3705   -0.7385 C   0  0  0  0  0  0  0  0  0  0  0  0
    2.3195    2.7602    0.2651 H   0  0  0  0  0  0  0  0  0  0  0  0
    2.4264    3.1956   -1.4673 H   0  0  0  0  0  0  0  0  0  0  0  0
    2.7314   -2.4583   -0.3902 C   0  0  0  0  0  0  0  0  0  0  0  0
    3.2171   -2.8372   -1.3137 H   0  0  0  0  0  0  0  0  0  0  0  0
    2.2146   -3.3194    0.0886 H   0  0  0  0  0  0  0  0  0  0  0  0
    4.7595    3.0680    0.1567 C   0  0  0  0  0  0  0  0  0  0  0  0
    4.3685    3.0135    1.1887 H   0  0  0  0  0  0  0  0  0  0  0  0
    4.5847    4.0839   -0.2631 H   0  0  0  0  0  0  0  0  0  0  0  0
    5.8407    2.8403    0.1867 H   0  0  0  0  0  0  0  0  0  0  0  0
    4.6488    2.0705   -2.0504 C   0  0  0  0  0  0  0  0  0  0  0  0
    4.0900    1.3617   -2.6874 H   0  0  0  0  0  0  0  0  0  0  0  0
    5.7073    1.7561   -1.9995 H   0  0  0  0  0  0  0  0  0  0  0  0
    4.5770    3.0967   -2.4772 H   0  0  0  0  0  0  0  0  0  0  0  0
    3.3988   -1.9980    1.9309 C   0  0  0  0  0  0  0  0  0  0  0  0
    2.4927   -1.3724    2.0210 H   0  0  0  0  0  0  0  0  0  0  0  0
    4.1970   -1.5768    2.5689 H   0  0  0  0  0  0  0  0  0  0  0  0
    3.1677   -3.0398    2.2486 H   0  0  0  0  0  0  0  0  0  0  0  0
    5.0156   -2.9075    0.3689 C   0  0  0  0  0  0  0  0  0  0  0  0
    5.3877   -2.8592   -0.6703 H   0  0  0  0  0  0  0  0  0  0  0  0
    4.7077   -3.9485    0.6144 H   0  0  0  0  0  0  0  0  0  0  0  0
    5.8274   -2.5738    1.0405 H   0  0  0  0  0  0  0  0  0  0  0  0
   -2.4303   -1.0076   -1.6032 C   0  0  0  0  0  0  0  0  0  0  0  0
   -4.8316   -1.4124   -1.9474 C   0  0  0  0  0  0  0  0  0  0  0  0
   -4.5920   -2.3024   -1.3312 H   0  0  0  0  0  0  0  0  0  0  0  0
   -5.3669   -1.7719   -2.8535 H   0  0  0  0  0  0  0  0  0  0  0  0
   -5.7274   -0.4530   -1.1526 C   0  0  0  0  0  0  0  0  0  0  0  0
   -5.9198    0.4613   -1.7559 H   0  0  0  0  0  0  0  0  0  0  0  0
   -5.1789   -0.1209   -0.2461 H   0  0  0  0  0  0  0  0  0  0  0  0
   -7.0650   -1.0871   -0.7448 C   0  0  0  0  0  0  0  0  0  0  0  0
   -6.8890   -1.9796   -0.1047 H   0  0  0  0  0  0  0  0  0  0  0  0
   -7.6207   -1.4475   -1.6387 H   0  0  0  0  0  0  0  0  0  0  0  0
   -7.7144    1.4323    2.5419 C   0  0  0  0  0  0  0  0  0  0  0  0
   -8.7478    1.2419    2.9174 H   0  0  0  0  0  0  0  0  0  0  0  0
   -7.7298    2.4361    2.0579 H   0  0  0  0  0  0  0  0  0  0  0  0
   -6.7253    1.4152    3.6947 C   0  0  0  0  0  0  0  0  0  0  0  0
   -6.9870    2.1850    4.4485 H   0  0  0  0  0  0  0  0  0  0  0  0
   -5.6991    1.6170    3.3281 H   0  0  0  0  0  0  0  0  0  0  0  0
   -6.7211    0.4245    4.1918 H   0  0  0  0  0  0  0  0  0  0  0  0
   -9.6802    2.0749   -1.0483 C   0  0  0  0  0  0  0  0  0  0  0  0
  -10.4423    1.2995   -1.2867 H   0  0  0  0  0  0  0  0  0  0  0  0
   -9.5240    2.6818   -1.9666 H   0  0  0  0  0  0  0  0  0  0  0  0
  -10.1857    2.9578    0.0845 C   0  0  0  0  0  0  0  0  0  0  0  0
  -11.1197    3.4781   -0.2121 H   0  0  0  0  0  0  0  0  0  0  0  0
   -9.4317    3.7252    0.3537 H   0  0  0  0  0  0  0  0  0  0  0  0
  -10.4051    2.3490    0.9849 H   0  0  0  0  0  0  0  0  0  0  0  0
   -9.9897   -1.5516    1.4202 C   0  0  0  0  0  0  0  0  0  0  0  0
  -10.9417   -1.3065    1.9408 H   0  0  0  0  0  0  0  0  0  0  0  0
   -9.2014   -1.6138    2.2069 H   0  0  0  0  0  0  0  0  0  0  0  0
  -10.1227   -2.8857    0.6974 C   0  0  0  0  0  0  0  0  0  0  0  0
  -10.4125   -3.6889    1.4055 H   0  0  0  0  0  0  0  0  0  0  0  0
   -9.1672   -3.1809    0.2179 H   0  0  0  0  0  0  0  0  0  0  0  0
  -10.8970   -2.8222   -0.0933 H   0  0  0  0  0  0  0  0  0  0  0  0
  1  6  1  0  0  0  0
  1  4  1  0  0  0  0
  2 41  1  0  0  0  0
  2 15  1  0  0  0  0
  4 51  1  0  0  0  0
  5  1  1  0  0  0  0
  6 65  1  0  0  0  0
  7 25  1  0  0  0  0
  8 33  1  0  0  0  0
  9 42  1  0  0  0  0
  9 41  1  0  0  0  0
 10  9  1  0  0  0  0
 12 19  1  0  0  0  0
 12 11  2  0  0  0  0
 13 12  1  0  0  0  0
 14 13  1  0  0  0  0
 15 13  2  0  0  0  0
 15 16  1  0  0  0  0
 16 18  2  0  0  0  0
 17 16  1  0  0  0  0
 18 11  1  0  0  0  0
 18 22  1  0  0  0  0
 19  7  1  0  0  0  0
 19 20  1  0  0  0  0
 21 19  1  0  0  0  0
 22 24  1  0  0  0  0
 22  8  1  0  0  0  0
 23 22  1  0  0  0  0
 25 28  1  0  0  0  0
 25 26  1  0  0  0  0
 27 25  1  0  0  0  0
 29 31  1  0  0  0  0
 29  7  1  0  0  0  0
 30 29  1  0  0  0  0
 32 29  1  0  0  0  0
 33 34  1  0  0  0  0
 33 36  1  0  0  0  0
 33 35  1  0  0  0  0
 37  8  1  0  0  0  0
 37 39  1  0  0  0  0
 37 40  1  0  0  0  0
 38 37  1  0  0  0  0
 41  3  2  0  0  0  0
 42 43  1  0  0  0  0
 42 45  1  0  0  0  0
 44 42  1  0  0  0  0
 45 48  1  0  0  0  0
 45 47  1  0  0  0  0
 46 45  1  0  0  0  0
 48 49  1  0  0  0  0
 48  1  1  0  0  0  0
 50 48  1  0  0  0  0
 51 52  1  0  0  0  0
 51 54  1  0  0  0  0
 53 51  1  0  0  0  0
 54 57  1  0  0  0  0
 54 55  1  0  0  0  0
 56 54  1  0  0  0  0
 58  5  1  0  0  0  0
 58 61  1  0  0  0  0
 59 58  1  0  0  0  0
 60 58  1  0  0  0  0
 61 63  1  0  0  0  0
 61 64  1  0  0  0  0
 62 61  1  0  0  0  0
 65 66  1  0  0  0  0
 65 67  1  0  0  0  0
 68 69  1  0  0  0  0
 68 65  1  0  0  0  0
 70 68  1  0  0  0  0
 71 68  1  0  0  0  0
M  END
