2,3,8
q = -2.0, confidence = 0.904

 49 49  0  0  1  0  0  0  0  0999 V2000
    2.9477   -1.1821   -0.5908 Si  0  0  0  0  0  0  0  0  0  0  0  0
    1.2807   -1.4239   -0.1164 N   0  0  0  0  0  2  0  0  0  0  0  0
   -0.8509   -1.6359    1.7365 N   0  0  0  0  0  0  0  0  0  0  0  0
    2.0875    1.4813    0.0614 C   0  0  0  0  0  0  0  0  0  0  0  0
    1.2442    2.2327   -0.8187 C   0  0  0  0  0  0  0  0  0  0  0  0
    0.1957    2.8223   -0.0361 C   0  0  0  0  0  0  0  0  0  0  0  0
    0.3834    2.4215    1.3302 C   0  0  0  0  0  0  0  0  0  0  0  0
    1.5602    1.5994    1.3904 C   0  0  2  0  0  3  0  0  0  0  0  0
    3.3055    0.6880   -0.3298 C   0  0  0  0  0  0  0  0  0  0  0  0
    4.0895    0.7792    0.4523 H   0  0  0  0  0  0  0  0  0  0  0  0
    3.7538    1.0990   -1.2580 H   0  0  0  0  0  0  0  0  0  0  0  0
    1.4911    2.4524   -2.2843 C   0  0  0  0  0  0  0  0  0  0  0  0
    0.5714    2.7600   -2.8197 H   0  0  0  0  0  0  0  0  0  0  0  0
    1.8728    1.5407   -2.7864 H   0  0  0  0  0  0  0  0  0  0  0  0
    2.2452    3.2532   -2.4525 H   0  0  0  0  0  0  0  0  0  0  0  0
   -0.8193    3.8099   -0.5395 C   0  0  0  0  0  0  0  0  0  0  0  0
   -0.3800    4.8278   -0.6321 H   0  0  0  0  0  0  0  0  0  0  0  0
   -1.6881    3.9032    0.1430 H   0  0  0  0  0  0  0  0  0  0  0  0
   -1.2125    3.5447   -1.5430 H   0  0  0  0  0  0  0  0  0  0  0  0
   -0.4489    2.8594    2.5046 C   0  0  0  0  0  0  0  0  0  0  0  0
   -0.0712    3.8054    2.9529 H   0  0  0  0  0  0  0  0  0  0  0  0
   -0.4497    2.1059    3.3200 H   0  0  0  0  0  0  0  0  0  0  0  0
   -1.5068    3.0427    2.2244 H   0  0  0  0  0  0  0  0  0  0  0  0
    2.2268    1.0763    2.6312 C   0  0  0  0  0  0  0  0  0  0  0  0
    2.6905    0.0825    2.4681 H   0  0  0  0  0  0  0  0  0  0  0  0
    1.5229    0.9816    3.4820 H   0  0  0  0  0  0  0  0  0  0  0  0
    3.0399    1.7583    2.9669 H   0  0  0  0  0  0  0  0  0  0  0  0
    4.1391   -2.2228    0.4680 C   0  0  0  0  0  0  0  0  0  0  0  0
    4.0052   -2.0165    1.5507 H   0  0  0  0  0  0  0  0  0  0  0  0
    5.1938   -1.9920    0.2099 H   0  0  0  0  0  0  0  0  0  0  0  0
    3.9916   -3.3112    0.3087 H   0  0  0  0  0  0  0  0  0  0  0  0
    3.2517   -1.6409   -2.4082 C   0  0  0  0  0  0  0  0  0  0  0  0
    3.0055   -2.7068   -2.5966 H   0  0  0  0  0  0  0  0  0  0  0  0
    4.3099   -1.4814   -2.7038 H   0  0  0  0  0  0  0  0  0  0  0  0
    2.6102   -1.0291   -3.0756 H   0  0  0  0  0  0  0  0  0  0  0  0
    0.8122   -2.7561    0.2160 C   0  0  0  0  0  0  0  0  0  0  0  0
    1.4633   -3.2542    0.9796 H   0  0  0  0  0  0  0  0  0  0  0  0
    0.8021   -3.4661   -0.6506 H   0  0  0  0  0  0  0  0  0  0  0  0
   -0.6271   -2.7317    0.7566 C   0  0  0  0  0  0  0  0  0  0  0  0
   -1.3515   -2.5655   -0.0726 H   0  0  0  0  0  0  0  0  0  0  0  0
   -0.8864   -3.7190    1.2129 H   0  0  0  0  0  0  0  0  0  0  0  0
   -2.2404   -1.6500    2.2127 C   0  0  0  0  0  0  0  0  0  0  0  0
   -2.9429   -1.5887    1.3616 H   0  0  0  0  0  0  0  0  0  0  0  0
   -2.4208   -0.7794    2.8743 H   0  0  0  0  0  0  0  0  0  0  0  0
   -2.4622   -2.5801    2.7897 H   0  0  0  0  0  0  0  0  0  0  0  0
    0.0748   -1.7249    2.8739 C   0  0  0  0  0  0  0  0  0  0  0  0
   -0.0531   -2.6857    3.4283 H   0  0  0  0  0  0  0  0  0  0  0  0
   -0.1234   -0.8915    3.5753 H   0  0  0  0  0  0  0  0  0  0  0  0
    1.1174   -1.6417    2.5189 H   0  0  0  0  0  0  0  0  0  0  0  0
  1  9  1  0  0  0  0
  1  2  1  0  0  0  0
  1 28  1  0  0  0  0
  2 36  1  0  0  0  0
  3 42  1  0  0  0  0
  3 46  1  0  0  0  0
  4  8  1  0  0  0  0
  5  6  1  0  0  0  0
  5  4  2  0  0  0  0
  6  7  2  0  0  0  0
  7  8  1  0  0  0  0
  7 20  1  0  0  0  0
  8 24  1  1  0  0  0
  9  4  1  0  0  0  0
  9 10  1  0  0  0  0
 11  9  1  0  0  0  0
 12  5  1  0  0  0  0
 13 12  1  0  0  0  0
 14 12  1  0  0  0  0
 15 12  1  0  0  0  0
 16  6  1  0  0  0  0
 16 18  1  0  0  0  0
 17 16  1  0  0  0  0
 19 16  1  0  0  0  0
 20 21  1  0  0  0  0
 20 22  1  0  0  0  0
 23 20  1  0  0  0  0
 24 27  1  0  0  0  0
 24 26  1  0  0  0  0
 25 24  1  0  0  0  0
 28 29  1  0  0  0  0
 30 28  1  0  0  0  0
 31 28  1  0  0  0  0
 32  1  1  0  0  0  0
 33 32  1  0  0  0  0
 34 32  1  0  0  0  0
 35 32  1  0  0  0  0
 36 39  1  0  0  0  0
 36 37  1  0  0  0  0
 38 36  1  0  0  0  0
 39 41  1  0  0  0  0
 39  3  1  0  0  0  0
 40 39  1  0  0  0  0
 42 45  1  0  0  0  0
 42 44  1  0  0  0  0
 43 42  1  0  0  0  0
 46 47  1  0  0  0  0
 46 48  1  0  0  0  0
 49 46  1  0  0  0  0
M  END
