2,3,5
q = -1.0

 47 49  0  0  1  0  0  0  0  0999 V2000
   -3.0322    1.1714   -0.0795 O   0  0  0  0  0  0  0  0  0  0  0  0
    1.8472    0.7800   -0.1510 N   0  0  0  0  0  2  0  0  0  0  0  0
   -1.8357   -0.8220    0.0717 N   0  0  0  0  0  2  0  0  0  0  0  0
   -1.9030   -1.8425    0.1889 H   0  0  0  0  0  0  0  0  0  0  0  0
   -0.6129    1.6338   -0.1530 C   0  0  0  0  0  2  0  0  0  0  0  0
   -1.9452    2.0484   -0.1548 C   0  0  0  0  0  0  0  0  0  0  0  0
   -2.2917    3.4097   -0.2453 C   0  0  0  0  0  0  0  0  0  0  0  0
   -3.3549    3.6931   -0.2477 H   0  0  0  0  0  0  0  0  0  0  0  0
   -1.2819    4.3837   -0.3333 C   0  0  0  0  0  0  0  0  0  0  0  0
   -1.5601    5.4453   -0.4030 H   0  0  0  0  0  0  0  0  0  0  0  0
    0.0696    4.0053   -0.3339 C   0  0  0  0  0  0  0  0  0  0  0  0
    0.8623    4.7662   -0.4033 H   0  0  0  0  0  0  0  0  0  0  0  0
    0.3982    2.6369   -0.2443 C   0  0  0  0  0  0  0  0  0  0  0  0
    1.7378    2.0842   -0.2295 C   0  0  0  0  0  0  0  0  0  0  0  0
    2.6460    2.7147   -0.2785 H   0  0  0  0  0  0  0  0  0  0  0  0
    3.1252    0.1571   -0.0478 C   0  0  0  0  0  0  0  0  0  0  0  0
    3.6205   -0.5853   -1.1474 C   0  0  0  0  0  0  0  0  0  0  0  0
    4.8754   -1.1981   -1.0105 C   0  0  0  0  0  0  0  0  0  0  0  0
    5.2754   -1.7691   -1.8642 H   0  0  0  0  0  0  0  0  0  0  0  0
    5.6239   -1.1198    0.1798 C   0  0  0  0  0  0  0  0  0  0  0  0
    5.0804   -0.4014    1.2585 C   0  0  0  0  0  0  0  0  0  0  0  0
    5.6376   -0.3485    2.2078 H   0  0  0  0  0  0  0  0  0  0  0  0
    3.8336    0.2442    1.1734 C   0  0  0  0  0  0  0  0  0  0  0  0
    2.8046   -0.7334   -2.4016 C   0  0  0  0  0  0  0  0  0  0  0  0
    2.4338    0.2409   -2.7795 H   0  0  0  0  0  0  0  0  0  0  0  0
    1.9123   -1.3594   -2.1797 H   0  0  0  0  0  0  0  0  0  0  0  0
    3.3889   -1.2225   -3.2038 H   0  0  0  0  0  0  0  0  0  0  0  0
    6.9576   -1.8148    0.2932 C   0  0  0  0  0  0  0  0  0  0  0  0
    7.4575   -1.5878    1.2547 H   0  0  0  0  0  0  0  0  0  0  0  0
    7.6421   -1.5153   -0.5273 H   0  0  0  0  0  0  0  0  0  0  0  0
    6.8411   -2.9172    0.2262 H   0  0  0  0  0  0  0  0  0  0  0  0
    3.2454    0.9609    2.3634 C   0  0  0  0  0  0  0  0  0  0  0  0
    2.1942    0.6475    2.5334 H   0  0  0  0  0  0  0  0  0  0  0  0
    3.2305    2.0634    2.2333 H   0  0  0  0  0  0  0  0  0  0  0  0
    3.8272    0.7440    3.2790 H   0  0  0  0  0  0  0  0  0  0  0  0
   -2.9546   -0.1660    0.0301 C   0  0  1  0  0  3  0  0  0  0  0  0
   -4.2903   -0.8068    0.1042 C   0  0  0  0  0  0  0  0  0  0  0  0
   -4.4349   -2.1951   -0.1133 C   0  0  0  0  0  0  0  0  0  0  0  0
   -3.5625   -2.8128   -0.3763 H   0  0  0  0  0  0  0  0  0  0  0  0
   -5.6951   -2.7973   -0.0251 C   0  0  0  0  0  0  0  0  0  0  0  0
   -5.7941   -3.8784   -0.2025 H   0  0  0  0  0  0  0  0  0  0  0  0
   -6.8277   -2.0239    0.2787 C   0  0  0  0  0  0  0  0  0  0  0  0
   -7.8175   -2.4997    0.3478 H   0  0  0  0  0  0  0  0  0  0  0  0
   -6.6933   -0.6424    0.4881 C   0  0  0  0  0  0  0  0  0  0  0  0
   -7.5773   -0.0315    0.7249 H   0  0  0  0  0  0  0  0  0  0  0  0
   -5.4352   -0.0340    0.3981 C   0  0  0  0  0  0  0  0  0  0  0  0
   -5.3240    1.0460    0.5624 H   0  0  0  0  0  0  0  0  0  0  0  0
  2 16  1  0  0  0  0
  3  4  1  0  0  0  0
  6  5  1  0  0  0  0
  6  1  1  0  0  0  0
  7  6  2  0  0  0  0
  8  7  1  0  0  0  0
  9  7  1  0  0  0  0
 10  9  1  0  0  0  0
 11  9  2  0  0  0  0
 11 13  1  0  0  0  0
 12 11  1  0  0  0  0
 13 14  2  0  0  0  0
 13  5  1  0  0  0  0
 14  2  1  0  0  0  0
 15 14  1  0  0  0  0
 16 23  1  0  0  0  0
 17 18  1  0  0  0  0
 17 16  2  0  0  0  0
 18 20  2  0  0  0  0
 19 18  1  0  0  0  0
 20 28  1  0  0  0  0
 20 21  1  0  0  0  0
 21 22  1  0  0  0  0
 23 21  2  0  0  0  0
 23 32  1  0  0  0  0
 24 26  1  0  0  0  0
 24 17  1  0  0  0  0
 25 24  1  0  0  0  0
 27 24  1  0  0  0  0
 28 29  1  0  0  0  0
 30 28  1  0  0  0  0
 31 28  1  0  0  0  0
 32 33  1  0  0  0  0
 32 35  1  0  0  0  0
 34 32  1  0  0  0  0
 36  1  1  1  0  0  0
 36  3  1  0  0  0  0
 36 37  1  0  0  0  0
 37 46  1  0  0  0  0
 38 40  1  0  0  0  0
 38 37  2  0  0  0  0
 39 38  1  0  0  0  0
 40 42  2  0  0  0  0
 41 40  1  0  0  0  0
 42 43  1  0  0  0  0
 42 44  1  0  0  0  0
 44 45  1  0  0  0  0
 46 44  2  0  0  0  0
 46 47  1  0  0  0  0
M  END
