1,16,26
q = -1.0

 35 37  0  0  0  0  0  0  0  0999 V2000
    0.4425   -0.0946   -0.0000 C   0  0  0  0  0  2  0  0  0  0  0  0
    5.2019   -1.7461    0.0000 O   0  0  0  0  0  0  0  0  0  0  0  0
    0.9760   -1.4078   -0.0000 C   0  0  0  0  0  0  0  0  0  0  0  0
    5.3811    0.5156    0.0000 O   0  0  0  0  0  0  0  0  0  0  0  0
    2.3702   -1.5579    0.0000 C   0  0  0  0  0  0  0  0  0  0  0  0
    2.8675   -2.5403    0.0000 H   0  0  0  0  0  0  0  0  0  0  0  0
    3.2011   -0.4103    0.0000 C   0  0  0  0  0  0  0  0  0  0  0  0
    2.6541    0.8966    0.0000 C   0  0  0  0  0  0  0  0  0  0  0  0
    3.3441    1.7528    0.0000 H   0  0  0  0  0  0  0  0  0  0  0  0
    1.2597    1.0631   -0.0000 C   0  0  0  0  0  0  0  0  0  0  0  0
    4.6713   -0.6461    0.0000 C   0  0  0  0  0  0  0  0  0  0  0  0
    6.8022    0.3580    0.0000 C   0  0  0  0  0  0  0  0  0  0  0  0
    7.2253    1.3784    0.0003 H   0  0  0  0  0  0  0  0  0  0  0  0
    7.1393   -0.2000   -0.8972 H   0  0  0  0  0  0  0  0  0  0  0  0
    7.1393   -0.2004    0.8970 H   0  0  0  0  0  0  0  0  0  0  0  0
   -1.3646   -1.9199   -0.0000 N   0  0  0  0  0  2  0  0  0  0  0  0
   -2.4314   -2.7476   -0.0000 C   0  0  0  0  0  3  0  0  0  0  0  0
   -3.4086   -2.2364   -0.0000 H   0  0  0  0  0  0  0  0  0  0  0  0
   -2.2822   -4.1375    0.0000 C   0  0  0  0  0  0  0  0  0  0  0  0
   -3.1756   -4.7771    0.0000 H   0  0  0  0  0  0  0  0  0  0  0  0
   -0.9877   -4.6827    0.0000 C   0  0  0  0  0  0  0  0  0  0  0  0
   -0.8402   -5.7729    0.0000 H   0  0  0  0  0  0  0  0  0  0  0  0
    0.1175   -3.8245    0.0000 C   0  0  0  0  0  0  0  0  0  0  0  0
    1.1428   -4.2202    0.0000 H   0  0  0  0  0  0  0  0  0  0  0  0
   -0.0745   -2.4329   -0.0000 C   0  0  0  0  0  0  0  0  0  0  0  0
   -0.9050    2.0913   -0.0000 N   0  0  0  0  0  2  0  0  0  0  0  0
   -1.7571    3.1385   -0.0000 C   0  0  0  0  0  0  0  0  0  0  0  0
   -2.8246    2.8609   -0.0000 H   0  0  0  0  0  0  0  0  0  0  0  0
   -1.2984    4.4589    0.0000 C   0  0  0  0  0  0  0  0  0  0  0  0
   -2.0244    5.2837    0.0000 H   0  0  0  0  0  0  0  0  0  0  0  0
    0.0858    4.6976    0.0000 C   0  0  0  0  0  0  0  0  0  0  0  0
    0.4756    5.7265    0.0000 H   0  0  0  0  0  0  0  0  0  0  0  0
    0.9684    3.6119    0.0000 C   0  0  0  0  0  0  0  0  0  0  0  0
    2.0564    3.7672    0.0000 H   0  0  0  0  0  0  0  0  0  0  0  0
    0.4680    2.2991   -0.0000 C   0  0  0  0  0  0  0  0  0  0  0  0
  1  3  1  0  0  0  0
  1 10  1  0  0  0  0
  2 11  2  0  0  0  0
  3  5  2  0  0  0  0
  4 11  1  0  0  0  0
  5  6  1  0  0  0  0
  5  7  1  0  0  0  0
  7 11  1  0  0  0  0
  8  7  2  0  0  0  0
  8  9  1  0  0  0  0
 10  8  1  0  0  0  0
 12  4  1  0  0  0  0
 12 13  1  0  0  0  0
 12 15  1  0  0  0  0
 14 12  1  0  0  0  0
 16 17  1  0  0  0  0
 16 25  1  0  0  0  0
 17 19  1  0  0  0  0
 18 17  1  0  0  0  0
 19 21  2  0  0  0  0
 19 20  1  0  0  0  0
 21 22  1  0  0  0  0
 23 24  1  0  0  0  0
 23 21  1  0  0  0  0
 25  3  1  0  0  0  0
 25 23  2  0  0  0  0
 26 27  1  0  0  0  0
 26 35  1  0  0  0  0
 27 29  2  0  0  0  0
 28 27  1  0  0  0  0
 29 30  1  0  0  0  0
 29 31  1  0  0  0  0
 31 32  1  0  0  0  0
 33 34  1  0  0  0  0
 33 31  2  0  0  0  0
 35 10  2  0  0  0  0
 35 33  1  0  0  0  0
M  END
