3,4,7
q = -1.0

 69 71  0  0  0  0  0  0  0  0999 V2000
   -6.5412   -3.9639    0.2590 O   0  0  0  0  0  0  0  0  0  0  0  0
   -2.3069   -2.0892    0.0018 O   0  0  0  0  0  0  0  0  0  0  0  0
    4.1550   -1.6796    1.0036 N   0  0  0  0  0  0  0  0  0  0  0  0
    3.6619    2.0199   -0.9472 N   0  0  0  0  0  0  0  0  0  0  0  0
   -6.1766   -2.0668   -1.0041 N   0  0  0  0  0  0  0  0  0  0  0  0
   -4.3780   -3.1450    0.2065 N   0  0  0  0  0  0  0  0  0  0  0  0
    2.3178   -0.1452   -0.1649 C   0  0  0  0  0  3  0  0  0  0  0  0
    1.7501   -1.2489    0.5012 C   0  0  0  0  0  0  0  0  0  0  0  0
    0.3907   -1.5265    0.3272 C   0  0  0  0  0  0  0  0  0  0  0  0
   -0.4059   -0.6801   -0.4938 C   0  0  0  0  0  0  0  0  0  0  0  0
    0.1841    0.4380   -1.1485 C   0  0  0  0  0  0  0  0  0  0  0  0
    1.5478    0.6973   -0.9946 C   0  0  0  0  0  0  0  0  0  0  0  0
    2.7169   -1.9438    1.4269 C   0  0  0  0  0  0  0  0  0  0  0  0
    5.0517   -1.7863    2.1797 C   0  0  0  0  0  0  0  0  0  0  0  0
    4.5658   -2.6698   -0.0271 C   0  0  0  0  0  0  0  0  0  0  0  0
    2.3726    1.7415   -1.7051 C   0  0  0  0  0  0  0  0  0  0  0  0
    3.4180    3.0421    0.1045 C   0  0  0  0  0  0  0  0  0  0  0  0
    4.7001    2.5097   -1.8852 C   0  0  0  0  0  0  0  0  0  0  0  0
   -1.8216   -0.9597   -0.6613 C   0  0  0  0  0  0  0  0  0  0  0  0
   -2.8319   -0.3263   -1.3590 C   0  0  0  0  0  0  0  0  0  0  0  0
   -4.0243   -1.0936   -1.1255 C   0  0  0  0  0  0  0  0  0  0  0  0
   -5.3636   -1.0831   -1.4779 C   0  0  0  0  0  0  0  0  0  0  0  0
   -5.7172   -3.1423   -0.1247 C   0  0  0  0  0  0  0  0  0  0  0  0
   -3.6415   -2.1851   -0.2697 C   0  0  0  0  0  0  0  0  0  0  0  0
   -7.6105   -2.0616   -1.3136 C   0  0  0  0  0  0  0  0  0  0  0  0
   -8.4655   -1.4964   -0.1743 C   0  0  0  0  0  0  0  0  0  0  0  0
   -8.1669   -0.0396    0.1842 C   0  0  0  0  0  0  0  0  0  0  0  0
   -9.0633    0.4974    1.3058 C   0  0  0  0  0  0  0  0  0  0  0  0
   -8.7308    1.9221    1.7670 C   0  0  0  0  0  0  0  0  0  0  0  0
   -8.9415    3.0102    0.7090 C   0  0  0  0  0  0  0  0  0  0  0  0
   -8.6690    4.4275    1.2227 C   0  0  0  0  0  0  0  0  0  0  0  0
   -8.8755    5.5115    0.1644 C   0  0  0  0  0  0  0  0  0  0  0  0
   -0.0901   -2.3810    0.8253 H   0  0  0  0  0  0  0  0  0  0  0  0
   -0.4390    1.0826   -1.7882 H   0  0  0  0  0  0  0  0  0  0  0  0
    2.5574   -3.0415    1.5101 H   0  0  0  0  0  0  0  0  0  0  0  0
    2.6138   -1.5185    2.4469 H   0  0  0  0  0  0  0  0  0  0  0  0
    4.7555   -1.0321    2.9308 H   0  0  0  0  0  0  0  0  0  0  0  0
    6.0859   -1.5638    1.8584 H   0  0  0  0  0  0  0  0  0  0  0  0
    4.9842   -2.8060    2.6197 H   0  0  0  0  0  0  0  0  0  0  0  0
    3.8606   -2.6257   -0.8763 H   0  0  0  0  0  0  0  0  0  0  0  0
    4.5639   -3.6941    0.4091 H   0  0  0  0  0  0  0  0  0  0  0  0
    5.5801   -2.4137   -0.3836 H   0  0  0  0  0  0  0  0  0  0  0  0
    1.8391    2.7022   -1.8804 H   0  0  0  0  0  0  0  0  0  0  0  0
    2.6795    1.3498   -2.6972 H   0  0  0  0  0  0  0  0  0  0  0  0
    2.6056    2.6955    0.7682 H   0  0  0  0  0  0  0  0  0  0  0  0
    3.1319    4.0101   -0.3657 H   0  0  0  0  0  0  0  0  0  0  0  0
    4.3415    3.1697    0.6981 H   0  0  0  0  0  0  0  0  0  0  0  0
    4.8923    1.7349   -2.6492 H   0  0  0  0  0  0  0  0  0  0  0  0
    5.6367    2.6754   -1.3216 H   0  0  0  0  0  0  0  0  0  0  0  0
    4.3603    3.4494   -2.3749 H   0  0  0  0  0  0  0  0  0  0  0  0
   -2.7292    0.5809   -1.9627 H   0  0  0  0  0  0  0  0  0  0  0  0
   -5.8258   -0.3237   -2.1264 H   0  0  0  0  0  0  0  0  0  0  0  0
   -7.9004   -3.1119   -1.5071 H   0  0  0  0  0  0  0  0  0  0  0  0
   -7.7486   -1.4718   -2.2433 H   0  0  0  0  0  0  0  0  0  0  0  0
   -9.5306   -1.5991   -0.4766 H   0  0  0  0  0  0  0  0  0  0  0  0
   -8.3312   -2.1518    0.7113 H   0  0  0  0  0  0  0  0  0  0  0  0
   -8.2749    0.5943   -0.7249 H   0  0  0  0  0  0  0  0  0  0  0  0
   -7.1036    0.0589    0.4991 H   0  0  0  0  0  0  0  0  0  0  0  0
  -10.1266    0.4541    0.9771 H   0  0  0  0  0  0  0  0  0  0  0  0
   -8.9902   -0.1916    2.1753 H   0  0  0  0  0  0  0  0  0  0  0  0
   -9.3517    2.1653    2.6572 H   0  0  0  0  0  0  0  0  0  0  0  0
   -7.6751    1.9555    2.1210 H   0  0  0  0  0  0  0  0  0  0  0  0
   -9.9864    2.9519    0.3261 H   0  0  0  0  0  0  0  0  0  0  0  0
   -8.2897    2.8163   -0.1721 H   0  0  0  0  0  0  0  0  0  0  0  0
   -9.3247    4.6290    2.0990 H   0  0  0  0  0  0  0  0  0  0  0  0
   -7.6281    4.4778    1.6133 H   0  0  0  0  0  0  0  0  0  0  0  0
   -8.6713    6.5244    0.5663 H   0  0  0  0  0  0  0  0  0  0  0  0
   -9.9176    5.5080   -0.2184 H   0  0  0  0  0  0  0  0  0  0  0  0
   -8.2056    5.3570   -0.7076 H   0  0  0  0  0  0  0  0  0  0  0  0
  3 13  1  0  0  0  0
  3 14  1  0  0  0  0
  4 17  1  0  0  0  0
  5 23  1  0  0  0  0
  7  8  1  0  0  0  0
  8 13  1  0  0  0  0
  9  8  2  0  0  0  0
  9 33  1  0  0  0  0
 10  9  1  0  0  0  0
 11 12  1  0  0  0  0
 11 10  2  0  0  0  0
 12  7  2  0  0  0  0
 13 35  1  0  0  0  0
 13 36  1  0  0  0  0
 14 39  1  0  0  0  0
 14 37  1  0  0  0  0
 15 41  1  0  0  0  0
 15  3  1  0  0  0  0
 16 12  1  0  0  0  0
 16  4  1  0  0  0  0
 17 47  1  0  0  0  0
 17 45  1  0  0  0  0
 18 49  1  0  0  0  0
 18  4  1  0  0  0  0
 19 10  1  0  0  0  0
 19  2  1  0  0  0  0
 20 21  1  0  0  0  0
 20 19  2  0  0  0  0
 21 24  1  0  0  0  0
 22 21  2  0  0  0  0
 22  5  1  0  0  0  0
 23  6  1  0  0  0  0
 23  1  2  0  0  0  0
 24  2  1  0  0  0  0
 24  6  2  0  0  0  0
 25  5  1  0  0  0  0
 25 26  1  0  0  0  0
 26 27  1  0  0  0  0
 26 56  1  0  0  0  0
 27 58  1  0  0  0  0
 27 28  1  0  0  0  0
 28 29  1  0  0  0  0
 28 60  1  0  0  0  0
 29 62  1  0  0  0  0
 29 61  1  0  0  0  0
 30 31  1  0  0  0  0
 30 29  1  0  0  0  0
 31 66  1  0  0  0  0
 31 65  1  0  0  0  0
 32 67  1  0  0  0  0
 32 31  1  0  0  0  0
 34 11  1  0  0  0  0
 38 14  1  0  0  0  0
 40 15  1  0  0  0  0
 42 15  1  0  0  0  0
 43 16  1  0  0  0  0
 44 16  1  0  0  0  0
 46 17  1  0  0  0  0
 48 18  1  0  0  0  0
 50 18  1  0  0  0  0
 51 20  1  0  0  0  0
 52 22  1  0  0  0  0
 53 25  1  0  0  0  0
 54 25  1  0  0  0  0
 55 26  1  0  0  0  0
 57 27  1  0  0  0  0
 59 28  1  0  0  0  0
 63 30  1  0  0  0  0
 64 30  1  0  0  0  0
 68 32  1  0  0  0  0
 69 32  1  0  0  0  0
M  END
