1,2,3
q = -1.0

 47 49  0  0  0  0  0  0  0  0999 V2000
    1.3805    2.1031    0.2396 N   0  0  0  0  0  0  0  0  0  0  0  0
    1.3804   -2.1031   -0.2394 N   0  0  0  0  0  0  0  0  0  0  0  0
    3.0042   -0.0000   -0.0003 C   0  0  0  0  0  3  0  0  0  0  0  0
    3.6769   -1.1637   -0.4052 C   0  0  0  0  0  0  0  0  0  0  0  0
    5.0822   -1.1657   -0.3924 C   0  0  0  0  0  0  0  0  0  0  0  0
    5.6500   -2.0595   -0.6953 H   0  0  0  0  0  0  0  0  0  0  0  0
    5.7706   -0.0000   -0.0007 C   0  0  0  0  0  0  0  0  0  0  0  0
    6.8704   -0.0000   -0.0009 H   0  0  0  0  0  0  0  0  0  0  0  0
    5.0824    1.1657    0.3911 C   0  0  0  0  0  0  0  0  0  0  0  0
    5.6502    2.0595    0.6939 H   0  0  0  0  0  0  0  0  0  0  0  0
    3.6771    1.1637    0.4045 C   0  0  0  0  0  0  0  0  0  0  0  0
    2.7583    2.2587    0.8781 C   0  0  0  0  0  0  0  0  0  0  0  0
    3.1563    3.2747    0.6862 H   0  0  0  0  0  0  0  0  0  0  0  0
    2.5993    2.1739    1.9737 H   0  0  0  0  0  0  0  0  0  0  0  0
    1.3729    2.7100   -1.1424 C   0  0  0  0  0  0  0  0  0  0  0  0
    0.4177    2.3987   -1.6118 H   0  0  0  0  0  0  0  0  0  0  0  0
    2.1927    2.2320   -1.7115 H   0  0  0  0  0  0  0  0  0  0  0  0
    1.4832    4.2378   -1.1492 C   0  0  0  0  0  0  0  0  0  0  0  0
    2.4965    4.5551   -0.8227 H   0  0  0  0  0  0  0  0  0  0  0  0
    1.3895    4.5781   -2.2007 H   0  0  0  0  0  0  0  0  0  0  0  0
    0.4161    4.8869   -0.2610 C   0  0  0  0  0  0  0  0  0  0  0  0
   -0.5892    4.7126   -0.7058 H   0  0  0  0  0  0  0  0  0  0  0  0
    0.5547    5.9858   -0.2217 H   0  0  0  0  0  0  0  0  0  0  0  0
    0.4530    4.2818    1.1470 C   0  0  0  0  0  0  0  0  0  0  0  0
   -0.3785    4.6700    1.7701 H   0  0  0  0  0  0  0  0  0  0  0  0
    1.3886    4.5727    1.6705 H   0  0  0  0  0  0  0  0  0  0  0  0
    0.3275    2.7585    1.0819 C   0  0  0  0  0  0  0  0  0  0  0  0
    0.3711    2.2905    2.0848 H   0  0  0  0  0  0  0  0  0  0  0  0
   -0.6470    2.4866    0.6297 H   0  0  0  0  0  0  0  0  0  0  0  0
    2.7579   -2.2587   -0.8785 C   0  0  0  0  0  0  0  0  0  0  0  0
    3.1560   -3.2747   -0.6868 H   0  0  0  0  0  0  0  0  0  0  0  0
    2.5985   -2.1739   -1.9741 H   0  0  0  0  0  0  0  0  0  0  0  0
    1.3734   -2.7100    1.1426 C   0  0  0  0  0  0  0  0  0  0  0  0
    0.4183   -2.3986    1.6124 H   0  0  0  0  0  0  0  0  0  0  0  0
    2.1934   -2.2319    1.7113 H   0  0  0  0  0  0  0  0  0  0  0  0
    1.4837   -4.2378    1.1494 C   0  0  0  0  0  0  0  0  0  0  0  0
    2.4969   -4.5550    0.8226 H   0  0  0  0  0  0  0  0  0  0  0  0
    1.3904   -4.5780    2.2010 H   0  0  0  0  0  0  0  0  0  0  0  0
    0.4162   -4.8869    0.2616 C   0  0  0  0  0  0  0  0  0  0  0  0
    0.5548   -5.9858    0.2224 H   0  0  0  0  0  0  0  0  0  0  0  0
   -0.5889   -4.7126    0.7069 H   0  0  0  0  0  0  0  0  0  0  0  0
    0.4526   -4.2819   -1.1464 C   0  0  0  0  0  0  0  0  0  0  0  0
    1.3880   -4.5728   -1.6702 H   0  0  0  0  0  0  0  0  0  0  0  0
   -0.3791   -4.6701   -1.7692 H   0  0  0  0  0  0  0  0  0  0  0  0
    0.3271   -2.7586   -1.0813 C   0  0  0  0  0  0  0  0  0  0  0  0
    0.3702   -2.2906   -2.0843 H   0  0  0  0  0  0  0  0  0  0  0  0
   -0.6472   -2.4866   -0.6288 H   0  0  0  0  0  0  0  0  0  0  0  0
  1 12  1  0  0  0  0
  1 27  1  0  0  0  0
  2 33  1  0  0  0  0
  3 11  1  0  0  0  0
  4  5  1  0  0  0  0
  4  3  2  0  0  0  0
  5  7  2  0  0  0  0
  6  5  1  0  0  0  0
  7  9  1  0  0  0  0
  8  7  1  0  0  0  0
  9 11  2  0  0  0  0
  9 10  1  0  0  0  0
 11 12  1  0  0  0  0
 12 14  1  0  0  0  0
 13 12  1  0  0  0  0
 15  1  1  0  0  0  0
 16 15  1  0  0  0  0
 17 15  1  0  0  0  0
 18 15  1  0  0  0  0
 18 19  1  0  0  0  0
 18 21  1  0  0  0  0
 20 18  1  0  0  0  0
 21 23  1  0  0  0  0
 21 24  1  0  0  0  0
 22 21  1  0  0  0  0
 24 26  1  0  0  0  0
 24 25  1  0  0  0  0
 27 24  1  0  0  0  0
 27 28  1  0  0  0  0
 29 27  1  0  0  0  0
 30 31  1  0  0  0  0
 30  4  1  0  0  0  0
 30  2  1  0  0  0  0
 32 30  1  0  0  0  0
 33 36  1  0  0  0  0
 33 34  1  0  0  0  0
 33 35  1  0  0  0  0
 36 38  1  0  0  0  0
 37 36  1  0  0  0  0
 39 41  1  0  0  0  0
 39 36  1  0  0  0  0
 40 39  1  0  0  0  0
 42 45  1  0  0  0  0
 42 39  1  0  0  0  0
 43 42  1  0  0  0  0
 44 42  1  0  0  0  0
 45 47  1  0  0  0  0
 45  2  1  0  0  0  0
 46 45  1  0  0  0  0
M  END
