2,9,18
q = -1.0

 29 31  0  0  1  0  0  0  0  0999 V2000
   -1.3295    3.4600   -0.0004 Cl  0  0  0  0  0  0  0  0  0  0  0  0
   -0.0229    0.9866    0.0001 C   0  0  0  0  0  2  0  0  0  0  0  0
   -1.1947    1.7015   -0.0001 C   0  0  0  0  0  0  0  0  0  0  0  0
   -2.4414    0.9419    0.0000 C   0  0  0  0  0  0  0  0  0  0  0  0
   -3.7459    1.4721   -0.0001 C   0  0  0  0  0  0  0  0  0  0  0  0
   -4.8397    0.5997    0.0000 C   0  0  0  0  0  0  0  0  0  0  0  0
   -4.6211   -0.7877    0.0002 C   0  0  0  0  0  0  0  0  0  0  0  0
   -3.3032   -1.2619    0.0003 C   0  0  0  0  0  0  0  0  0  0  0  0
   -2.2528   -0.4215    0.0002 N   0  0  0  0  0  2  0  0  0  0  0  0
    1.3843    1.3757    0.0001 C   0  0  0  0  0  0  0  0  0  0  0  0
    1.9370    2.6654    0.0004 C   0  0  0  0  0  0  0  0  0  0  0  0
    3.3414    2.8518    0.0004 C   0  0  0  0  0  0  0  0  0  0  0  0
    4.2167    1.7717    0.0002 C   0  0  0  0  0  0  0  0  0  0  0  0
    3.7096    0.4400   -0.0001 C   0  0  0  0  0  0  0  0  0  0  0  0
    4.5220   -0.7305   -0.0002 C   0  0  0  0  0  0  0  0  0  0  0  0
    3.9243   -1.9821   -0.0002 C   0  0  0  0  0  0  0  0  0  0  0  0
    2.5118   -2.0853   -0.0002 C   0  0  0  0  0  0  0  0  0  0  0  0
    1.7318   -1.0022   -0.0001 N   0  0  0  0  0  2  0  0  0  0  0  0
    2.2907    0.2608   -0.0001 C   0  0  1  0  0  3  0  0  0  0  0  0
   -3.8729    2.5630   -0.0003 H   0  0  0  0  0  0  0  0  0  0  0  0
   -5.8636    1.0028   -0.0001 H   0  0  0  0  0  0  0  0  0  0  0  0
   -5.4555   -1.5026    0.0003 H   0  0  0  0  0  0  0  0  0  0  0  0
   -3.0360   -2.3321    0.0004 H   0  0  0  0  0  0  0  0  0  0  0  0
    1.2688    3.5361    0.0006 H   0  0  0  0  0  0  0  0  0  0  0  0
    3.7423    3.8766    0.0007 H   0  0  0  0  0  0  0  0  0  0  0  0
    5.3061    1.9280    0.0002 H   0  0  0  0  0  0  0  0  0  0  0  0
    5.6180   -0.6259   -0.0002 H   0  0  0  0  0  0  0  0  0  0  0  0
    4.5251   -2.9025   -0.0003 H   0  0  0  0  0  0  0  0  0  0  0  0
    1.9716   -3.0475   -0.0002 H   0  0  0  0  0  0  0  0  0  0  0  0
  1  3  1  0  0  0  0
  3  4  2  0  0  0  0
  3  2  1  0  0  0  0
  4  9  1  0  0  0  0
  5  6  2  0  0  0  0
  5  4  1  0  0  0  0
  6  7  1  0  0  0  0
  7  8  2  0  0  0  0
  7 22  1  0  0  0  0
  8 23  1  0  0  0  0
  9  8  1  0  0  0  0
 10  2  1  0  0  0  0
 10 11  2  0  0  0  0
 11 12  1  0  0  0  0
 11 24  1  0  0  0  0
 12 25  1  0  0  0  0
 13 12  2  0  0  0  0
 14 19  1  0  0  0  0
 14 13  1  0  0  0  0
 15 14  2  0  0  0  0
 16 15  1  0  0  0  0
 16 17  2  0  0  0  0
 17 18  1  0  0  0  0
 19 18  1  1  0  0  0
 19 10  1  0  0  0  0
 20  5  1  0  0  0  0
 21  6  1  0  0  0  0
 26 13  1  0  0  0  0
 27 15  1  0  0  0  0
 28 16  1  0  0  0  0
 29 17  1  0  0  0  0
M  END
