3,4,5
q = -1.0

 50 54  0  0  1  0  0  0  0  0999 V2000
    3.0771    2.4375    0.3903 O   0  0  0  0  0  0  0  0  0  0  0  0
   -3.5081    0.9567   -2.1778 O   0  0  0  0  0  0  0  0  0  0  0  0
    1.6116    0.7388    0.6398 N   0  0  0  0  0  2  0  0  0  0  0  0
   -2.1607   -0.0627   -0.6714 N   0  0  0  0  0  2  0  0  0  0  0  0
   -0.2870    1.7057   -0.7487 C   0  0  0  0  0  3  0  0  0  0  0  0
    0.8414    2.5525   -0.6858 C   0  0  0  0  0  0  0  0  0  0  0  0
    0.8275    3.7784   -1.3788 C   0  0  0  0  0  0  0  0  0  0  0  0
   -0.3116    4.1259   -2.1333 C   0  0  0  0  0  0  0  0  0  0  0  0
   -1.4327    3.2757   -2.2141 C   0  0  0  0  0  0  0  0  0  0  0  0
   -1.4164    2.0563   -1.5084 C   0  0  0  0  0  0  0  0  0  0  0  0
    1.8707    1.9218    0.1254 C   0  0  2  0  0  3  0  0  0  0  0  0
    2.8137    0.2427    1.3199 C   0  0  1  0  0  0  0  0  0  0  0  0
    3.5524   -0.8295    0.5388 C   0  0  0  0  0  0  0  0  0  0  0  0
    3.1042   -2.1173    0.2138 C   0  0  0  0  0  0  0  0  0  0  0  0
    3.9416   -2.9412   -0.5553 C   0  0  0  0  0  0  0  0  0  0  0  0
    5.1995   -2.4814   -0.9891 C   0  0  0  0  0  0  0  0  0  0  0  0
    5.6455   -1.1933   -0.6507 C   0  0  0  0  0  0  0  0  0  0  0  0
    4.8135   -0.3663    0.1189 C   0  0  0  0  0  0  0  0  0  0  0  0
    5.0962    1.0267    0.6359 C   0  0  0  0  0  0  0  0  0  0  0  0
    3.7711    1.4839    1.2673 C   0  0  1  0  0  0  0  0  0  0  0  0
   -2.3917    0.9806   -1.4420 C   0  0  1  0  0  3  0  0  0  0  0  0
   -3.2884   -1.0105   -0.8213 C   0  0  2  0  0  0  0  0  0  0  0  0
   -4.0910   -0.3627   -1.9845 C   0  0  0  0  0  0  0  0  0  0  0  0
   -4.1155   -1.2293    0.4859 C   0  0  0  0  0  0  0  0  0  0  0  0
   -4.5136    0.1227    1.1005 C   0  0  0  0  0  0  0  0  0  0  0  0
   -3.2772   -2.0369    1.4873 C   0  0  0  0  0  0  0  0  0  0  0  0
   -5.3686   -2.0588    0.1420 C   0  0  0  0  0  0  0  0  0  0  0  0
    1.6961    4.4530   -1.3382 H   0  0  0  0  0  0  0  0  0  0  0  0
   -0.3225    5.0812   -2.6781 H   0  0  0  0  0  0  0  0  0  0  0  0
   -2.3062    3.5594   -2.8204 H   0  0  0  0  0  0  0  0  0  0  0  0
    2.5464   -0.0831    2.3462 H   0  0  0  0  0  0  0  0  0  0  0  0
    2.1151   -2.4508    0.5608 H   0  0  0  0  0  0  0  0  0  0  0  0
    3.6102   -3.9569   -0.8208 H   0  0  0  0  0  0  0  0  0  0  0  0
    5.8423   -3.1383   -1.5950 H   0  0  0  0  0  0  0  0  0  0  0  0
    6.6336   -0.8402   -0.9846 H   0  0  0  0  0  0  0  0  0  0  0  0
    5.4099    1.7369   -0.1564 H   0  0  0  0  0  0  0  0  0  0  0  0
    5.9064    1.0181    1.3962 H   0  0  0  0  0  0  0  0  0  0  0  0
    3.8996    1.9983    2.2395 H   0  0  0  0  0  0  0  0  0  0  0  0
   -2.8643   -1.9896   -1.1243 H   0  0  0  0  0  0  0  0  0  0  0  0
   -3.9873   -0.9160   -2.9398 H   0  0  0  0  0  0  0  0  0  0  0  0
   -5.1654   -0.2212   -1.7663 H   0  0  0  0  0  0  0  0  0  0  0  0
   -3.6122    0.7064    1.3752 H   0  0  0  0  0  0  0  0  0  0  0  0
   -5.1209   -0.0319    2.0154 H   0  0  0  0  0  0  0  0  0  0  0  0
   -5.1205    0.7367    0.4021 H   0  0  0  0  0  0  0  0  0  0  0  0
   -2.3685   -1.4939    1.7943 H   0  0  0  0  0  0  0  0  0  0  0  0
   -2.9712   -3.0112    1.0551 H   0  0  0  0  0  0  0  0  0  0  0  0
   -3.8640   -2.2387    2.4064 H   0  0  0  0  0  0  0  0  0  0  0  0
   -6.0893   -1.5123   -0.4996 H   0  0  0  0  0  0  0  0  0  0  0  0
   -5.9064   -2.3290    1.0730 H   0  0  0  0  0  0  0  0  0  0  0  0
   -5.0961   -3.0040   -0.3724 H   0  0  0  0  0  0  0  0  0  0  0  0
  1 20  1  0  0  0  0
  2 23  1  0  0  0  0
  2 21  1  0  0  0  0
  3 12  1  0  0  0  0
  5  6  1  0  0  0  0
  7 28  1  0  0  0  0
  7  6  2  0  0  0  0
  8  7  1  0  0  0  0
  9  8  2  0  0  0  0
  9 10  1  0  0  0  0
 10  5  2  0  0  0  0
 11  6  1  6  0  0  0
 11  1  1  0  0  0  0
 11  3  1  0  0  0  0
 12 31  1  1  0  0  0
 13 12  1  0  0  0  0
 14 13  1  0  0  0  0
 14 32  1  0  0  0  0
 15 14  2  0  0  0  0
 16 17  2  0  0  0  0
 16 15  1  0  0  0  0
 17 18  1  0  0  0  0
 18 13  2  0  0  0  0
 18 19  1  0  0  0  0
 19 20  1  0  0  0  0
 19 37  1  0  0  0  0
 20 12  1  0  0  0  0
 20 38  1  1  0  0  0
 21 10  1  6  0  0  0
 21  4  1  0  0  0  0
 22 39  1  6  0  0  0
 22  4  1  0  0  0  0
 22 24  1  0  0  0  0
 23 41  1  0  0  0  0
 23 22  1  0  0  0  0
 24 25  1  0  0  0  0
 24 26  1  0  0  0  0
 25 42  1  0  0  0  0
 25 43  1  0  0  0  0
 26 45  1  0  0  0  0
 26 47  1  0  0  0  0
 27 24  1  0  0  0  0
 27 49  1  0  0  0  0
 29  8  1  0  0  0  0
 30  9  1  0  0  0  0
 33 15  1  0  0  0  0
 34 16  1  0  0  0  0
 35 17  1  0  0  0  0
 36 19  1  0  0  0  0
 40 23  1  0  0  0  0
 44 25  1  0  0  0  0
 46 26  1  0  0  0  0
 48 27  1  0  0  0  0
 50 27  1  0  0  0  0
M  END
