2,3
q = 0.0, confidence = 0.984

 54 57  0  0  1  0  0  0  0  0999 V2000
    1.1357    1.0923    1.5146 N   0  0  0  0  0  0  0  0  0  0  0  0
    2.4452   -0.5704   -0.2982 N   0  0  0  0  0  2  0  0  0  0  0  0
   -0.4120    1.3034   -0.7998 N   0  0  0  0  0  2  0  0  0  0  0  0
   -1.3508   -2.8090    0.0287 N   0  0  0  0  0  0  0  0  0  0  0  0
    2.1069   -1.7824   -2.3797 C   0  0  0  0  0  0  0  0  0  0  0  0
    3.0279   -1.1455   -1.3804 C   0  0  1  0  0  3  0  0  0  0  0  0
    4.4237   -1.1127   -1.5477 C   0  0  0  0  0  0  0  0  0  0  0  0
    5.2166   -0.4621   -0.5948 C   0  0  0  0  0  0  0  0  0  0  0  0
    4.5983    0.1392    0.5107 C   0  0  0  0  0  0  0  0  0  0  0  0
    3.2055    0.0580    0.6350 C   0  0  0  0  0  0  0  0  0  0  0  0
    2.4759    0.6170    1.8482 C   0  0  0  0  0  0  0  0  0  0  0  0
    1.1113    2.3611    0.7880 C   0  0  0  0  0  0  0  0  0  0  0  0
   -0.0782    2.4493   -0.1519 C   0  0  1  0  0  3  0  0  0  0  0  0
   -0.7546    3.6515   -0.3821 C   0  0  0  0  0  0  0  0  0  0  0  0
   -1.7951    3.6715   -1.3248 C   0  0  0  0  0  0  0  0  0  0  0  0
   -2.1180    2.4933   -2.0018 C   0  0  0  0  0  0  0  0  0  0  0  0
   -1.4062    1.3100   -1.7189 C   0  0  0  0  0  0  0  0  0  0  0  0
   -1.7152    0.0236   -2.4246 C   0  0  0  0  0  0  0  0  0  0  0  0
    0.1246    0.9801    2.5782 C   0  0  0  0  0  0  0  0  0  0  0  0
   -0.3399   -0.4724    2.7578 C   0  0  0  0  0  0  0  0  0  0  0  0
   -0.3678   -2.2521    0.8423 C   0  0  0  0  0  3  0  0  0  0  0  0
   -0.9057   -1.1143    1.5049 C   0  0  1  0  0  3  0  0  0  0  0  0
   -2.2682   -0.9742    1.0081 C   0  0  0  0  0  0  0  0  0  0  0  0
   -3.2978   -0.0418    1.2535 C   0  0  0  0  0  0  0  0  0  0  0  0
   -4.5203   -0.1946    0.5910 C   0  0  0  0  0  0  0  0  0  0  0  0
   -4.7351   -1.2686   -0.3071 C   0  0  0  0  0  0  0  0  0  0  0  0
   -3.7338   -2.2111   -0.5686 C   0  0  0  0  0  0  0  0  0  0  0  0
   -2.5055   -2.0514    0.0964 C   0  0  0  0  0  0  0  0  0  0  0  0
    1.3488   -2.4033   -1.8602 H   0  0  0  0  0  0  0  0  0  0  0  0
    1.5528   -1.0009   -2.9421 H   0  0  0  0  0  0  0  0  0  0  0  0
    2.6528   -2.4084   -3.1091 H   0  0  0  0  0  0  0  0  0  0  0  0
    4.8771   -1.5897   -2.4282 H   0  0  0  0  0  0  0  0  0  0  0  0
    6.3092   -0.4186   -0.7145 H   0  0  0  0  0  0  0  0  0  0  0  0
    5.1881    0.6648    1.2759 H   0  0  0  0  0  0  0  0  0  0  0  0
    3.1051    1.3960    2.3408 H   0  0  0  0  0  0  0  0  0  0  0  0
    2.3726   -0.2058    2.5876 H   0  0  0  0  0  0  0  0  0  0  0  0
    2.0343    2.4148    0.1699 H   0  0  0  0  0  0  0  0  0  0  0  0
    1.1335    3.2472    1.4651 H   0  0  0  0  0  0  0  0  0  0  0  0
   -0.4669    4.5592    0.1681 H   0  0  0  0  0  0  0  0  0  0  0  0
   -2.3484    4.6010   -1.5248 H   0  0  0  0  0  0  0  0  0  0  0  0
   -2.9252    2.4736   -2.7481 H   0  0  0  0  0  0  0  0  0  0  0  0
   -1.5877    0.1309   -3.5213 H   0  0  0  0  0  0  0  0  0  0  0  0
   -2.7621   -0.2886   -2.2372 H   0  0  0  0  0  0  0  0  0  0  0  0
   -1.0445   -0.7795   -2.0602 H   0  0  0  0  0  0  0  0  0  0  0  0
   -0.7390    1.6022    2.2668 H   0  0  0  0  0  0  0  0  0  0  0  0
    0.4894    1.4005    3.5455 H   0  0  0  0  0  0  0  0  0  0  0  0
   -1.1084   -0.4992    3.5599 H   0  0  0  0  0  0  0  0  0  0  0  0
    0.5003   -1.0930    3.1340 H   0  0  0  0  0  0  0  0  0  0  0  0
   -1.2342   -3.6503   -0.5342 H   0  0  0  0  0  0  0  0  0  0  0  0
    0.5078   -2.8500    1.1283 H   0  0  0  0  0  0  0  0  0  0  0  0
   -3.1465    0.7914    1.9561 H   0  0  0  0  0  0  0  0  0  0  0  0
   -5.3332    0.5226    0.7759 H   0  0  0  0  0  0  0  0  0  0  0  0
   -5.7116   -1.3698   -0.8033 H   0  0  0  0  0  0  0  0  0  0  0  0
   -3.9048   -3.0456   -1.2644 H   0  0  0  0  0  0  0  0  0  0  0  0
  1 11  1  0  0  0  0
  1 19  1  0  0  0  0
  2 10  1  0  0  0  0
  3 13  1  0  0  0  0
  4 28  1  0  0  0  0
  4 21  1  0  0  0  0
  5 29  1  0  0  0  0
  6  5  1  6  0  0  0
  6  2  1  0  0  0  0
  7  6  1  0  0  0  0
  7  8  2  0  0  0  0
  8  9  1  0  0  0  0
  9 10  2  0  0  0  0
  9 34  1  0  0  0  0
 10 11  1  0  0  0  0
 11 35  1  0  0  0  0
 11 36  1  0  0  0  0
 12 38  1  0  0  0  0
 12  1  1  0  0  0  0
 13 12  1  6  0  0  0
 14 13  1  0  0  0  0
 14 39  1  0  0  0  0
 15 14  2  0  0  0  0
 16 17  2  0  0  0  0
 16 15  1  0  0  0  0
 17  3  1  0  0  0  0
 18 43  1  0  0  0  0
 18 44  1  0  0  0  0
 18 17  1  0  0  0  0
 19 20  1  0  0  0  0
 19 46  1  0  0  0  0
 20 48  1  0  0  0  0
 20 47  1  0  0  0  0
 21 50  1  0  0  0  0
 21 22  1  0  0  0  0
 22 20  1  1  0  0  0
 23 24  1  0  0  0  0
 23 22  1  0  0  0  0
 24 51  1  0  0  0  0
 25 52  1  0  0  0  0
 25 24  2  0  0  0  0
 26 25  1  0  0  0  0
 27 26  2  0  0  0  0
 27 28  1  0  0  0  0
 28 23  2  0  0  0  0
 30  5  1  0  0  0  0
 31  5  1  0  0  0  0
 32  7  1  0  0  0  0
 33  8  1  0  0  0  0
 37 12  1  0  0  0  0
 40 15  1  0  0  0  0
 41 16  1  0  0  0  0
 42 18  1  0  0  0  0
 45 19  1  0  0  0  0
 49  4  1  0  0  0  0
 53 26  1  0  0  0  0
 54 27  1  0  0  0  0
M  END
