1,2,22
q = -1.0

 41 43  0  0  1  0  0  0  0  0999 V2000
   -0.5824   -2.0049   -0.0010 N   0  0  0  0  0  2  0  0  0  0  0  0
   -0.5824    2.0049    0.0013 N   0  0  0  0  0  2  0  0  0  0  0  0
    5.2157    0.0000   -0.0002 N   0  0  0  0  0  0  0  0  0  0  0  0
    0.9880   -3.6241    0.0004 O   0  0  0  0  0  0  0  0  0  0  0  0
    0.9880    3.6240   -0.0001 O   0  0  0  0  0  0  0  0  0  0  0  0
    5.7845    1.0934   -0.0002 O   0  0  0  0  0  0  0  0  0  0  0  0
    5.7845   -1.0933   -0.0004 O   0  0  0  0  0  0  0  0  0  0  0  0
   -1.4048   -3.2383    0.0000 C   0  0  0  0  0  0  0  0  0  0  0  0
   -2.2727   -3.2768   -1.2638 C   0  0  0  0  0  0  0  0  0  0  0  0
   -1.6459   -3.2152   -2.1756 H   0  0  0  0  0  0  0  0  0  0  0  0
   -2.9730   -2.4181   -1.2542 H   0  0  0  0  0  0  0  0  0  0  0  0
   -2.8572   -4.2185   -1.2970 H   0  0  0  0  0  0  0  0  0  0  0  0
   -2.2692   -3.2761    1.2664 C   0  0  0  0  0  0  0  0  0  0  0  0
   -2.8541   -4.2175    1.3014 H   0  0  0  0  0  0  0  0  0  0  0  0
   -2.9691   -2.4171    1.2584 H   0  0  0  0  0  0  0  0  0  0  0  0
   -1.6399   -3.2146    2.1764 H   0  0  0  0  0  0  0  0  0  0  0  0
   -0.2880   -4.3358   -0.0014 C   0  0  0  0  0  0  0  0  0  0  0  0
   -0.3115   -4.9778    0.9012 H   0  0  0  0  0  0  0  0  0  0  0  0
   -0.3108   -4.9742   -0.9066 H   0  0  0  0  0  0  0  0  0  0  0  0
    0.6996   -2.3223   -0.0003 C   0  0  2  0  0  3  0  0  0  0  0  0
    1.6717   -1.2360   -0.0000 C   0  0  0  0  0  0  0  0  0  0  0  0
    0.9731   -0.0000    0.0003 C   0  0  0  0  0  2  0  0  0  0  0  0
    1.6716    1.2360    0.0003 C   0  0  0  0  0  0  0  0  0  0  0  0
    3.0734    1.2444    0.0001 C   0  0  0  0  0  0  0  0  0  0  0  0
    3.6717    2.1654    0.0001 H   0  0  0  0  0  0  0  0  0  0  0  0
    3.7369    0.0000   -0.0000 C   0  0  0  0  0  0  0  0  0  0  0  0
    3.0734   -1.2444   -0.0001 C   0  0  0  0  0  0  0  0  0  0  0  0
    3.6717   -2.1653   -0.0003 H   0  0  0  0  0  0  0  0  0  0  0  0
    0.6996    2.3222    0.0006 C   0  0  0  0  0  0  0  0  0  0  0  0
   -0.2880    4.3358    0.0041 C   0  0  0  0  0  0  0  0  0  0  0  0
   -0.3118    4.9805   -0.8966 H   0  0  0  0  0  0  0  0  0  0  0  0
   -0.3106    4.9715    0.9112 H   0  0  0  0  0  0  0  0  0  0  0  0
   -1.4049    3.2383   -0.0001 C   0  0  0  0  0  0  0  0  0  0  0  0
   -2.2749    3.2762    1.2622 C   0  0  0  0  0  0  0  0  0  0  0  0
   -1.6498    3.2136    2.1750 H   0  0  0  0  0  0  0  0  0  0  0  0
   -2.9756    2.4178    1.2507 H   0  0  0  0  0  0  0  0  0  0  0  0
   -2.8592    4.2181    1.2950 H   0  0  0  0  0  0  0  0  0  0  0  0
   -2.2669    3.2769   -1.2680 C   0  0  0  0  0  0  0  0  0  0  0  0
   -1.6360    3.2162   -2.1770 H   0  0  0  0  0  0  0  0  0  0  0  0
   -2.8522    4.2180   -1.3034 H   0  0  0  0  0  0  0  0  0  0  0  0
   -2.9666    2.4176   -1.2619 H   0  0  0  0  0  0  0  0  0  0  0  0
  1 20  1  0  0  0  0
  1  8  1  0  0  0  0
  3 26  1  0  0  0  0
  5 29  1  0  0  0  0
  5 30  1  0  0  0  0
  6  3  2  0  0  0  0
  7  3  2  0  0  0  0
  8 13  1  0  0  0  0
  9 11  1  0  0  0  0
  9  8  1  0  0  0  0
 10  9  1  0  0  0  0
 12  9  1  0  0  0  0
 13 14  1  0  0  0  0
 13 16  1  0  0  0  0
 15 13  1  0  0  0  0
 17  8  1  0  0  0  0
 17  4  1  0  0  0  0
 17 18  1  0  0  0  0
 19 17  1  0  0  0  0
 20 21  1  1  0  0  0
 20  4  1  0  0  0  0
 21 22  1  0  0  0  0
 22 23  1  0  0  0  0
 23 29  2  0  0  0  0
 24 23  1  0  0  0  0
 25 24  1  0  0  0  0
 26 24  2  0  0  0  0
 27 26  1  0  0  0  0
 27 21  2  0  0  0  0
 28 27  1  0  0  0  0
 29  2  1  0  0  0  0
 30 32  1  0  0  0  0
 31 30  1  0  0  0  0
 33  2  1  0  0  0  0
 33 30  1  0  0  0  0
 33 34  1  0  0  0  0
 34 37  1  0  0  0  0
 34 35  1  0  0  0  0
 36 34  1  0  0  0  0
 38 41  1  0  0  0  0
 38 33  1  0  0  0  0
 39 38  1  0  0  0  0
 40 38  1  0  0  0  0
M  END
