1,2,19
q = -1.0

 35 35  0  0  0  0  0  0  0  0999 V2000
   -3.1371   -0.1424   -0.0401 N   0  0  0  0  0  0  0  0  0  0  0  0
   -1.0090    1.6967    0.0200 N   0  0  0  0  0  2  0  0  0  0  0  0
    4.6166   -1.0325   -0.0029 O   0  0  0  0  0  0  0  0  0  0  0  0
   -3.3058    1.2470   -0.5618 C   0  0  0  0  0  0  0  0  0  0  0  0
   -4.3632    1.5809   -0.4326 H   0  0  0  0  0  0  0  0  0  0  0  0
   -3.0934    1.2032   -1.6482 H   0  0  0  0  0  0  0  0  0  0  0  0
   -2.3396    2.2546    0.0808 C   0  0  0  0  0  0  0  0  0  0  0  0
   -2.4279    3.2346   -0.4414 H   0  0  0  0  0  0  0  0  0  0  0  0
   -2.6201    2.4331    1.1445 H   0  0  0  0  0  0  0  0  0  0  0  0
    0.1357    2.3293   -0.0024 C   0  0  0  0  0  0  0  0  0  0  0  0
    0.1951    3.4364   -0.0098 H   0  0  0  0  0  0  0  0  0  0  0  0
    1.3126    1.4889   -0.0077 C   0  0  0  0  0  0  0  0  0  0  0  0
    2.6339    1.9928   -0.0256 C   0  0  0  0  0  3  0  0  0  0  0  0
    2.7986    3.0835   -0.0400 H   0  0  0  0  0  0  0  0  0  0  0  0
    3.7433    1.1450   -0.0229 C   0  0  0  0  0  0  0  0  0  0  0  0
    3.4940   -0.2588   -0.0015 C   0  0  0  0  0  0  0  0  0  0  0  0
    2.1844   -0.7836    0.0176 C   0  0  0  0  0  0  0  0  0  0  0  0
    2.0253   -1.8697    0.0317 H   0  0  0  0  0  0  0  0  0  0  0  0
    1.0644    0.0649    0.0133 C   0  0  0  0  0  3  0  0  0  0  0  0
    5.1597    1.6512   -0.0418 C   0  0  0  0  0  0  0  0  0  0  0  0
    5.1875    2.7578   -0.0559 H   0  0  0  0  0  0  0  0  0  0  0  0
    5.7283    1.2980    0.8441 H   0  0  0  0  0  0  0  0  0  0  0  0
    5.7127    1.2758   -0.9284 H   0  0  0  0  0  0  0  0  0  0  0  0
    4.4730   -2.4406    0.0204 C   0  0  0  0  0  0  0  0  0  0  0  0
    5.4969   -2.8588    0.0164 H   0  0  0  0  0  0  0  0  0  0  0  0
    3.9411   -2.7873    0.9340 H   0  0  0  0  0  0  0  0  0  0  0  0
    3.9228   -2.8153   -0.8711 H   0  0  0  0  0  0  0  0  0  0  0  0
   -3.6657   -0.2775    1.3280 C   0  0  0  0  0  0  0  0  0  0  0  0
   -4.7636   -0.0731    1.3606 H   0  0  0  0  0  0  0  0  0  0  0  0
   -3.4759   -1.3055    1.6885 H   0  0  0  0  0  0  0  0  0  0  0  0
   -3.1432    0.4196    2.0082 H   0  0  0  0  0  0  0  0  0  0  0  0
   -3.8022   -1.1006   -0.9370 C   0  0  0  0  0  0  0  0  0  0  0  0
   -4.9009   -0.9121   -0.9955 H   0  0  0  0  0  0  0  0  0  0  0  0
   -3.3613   -1.0246   -1.9486 H   0  0  0  0  0  0  0  0  0  0  0  0
   -3.6323   -2.1274   -0.5633 H   0  0  0  0  0  0  0  0  0  0  0  0
  1 28  1  0  0  0  0
  2  7  1  0  0  0  0
  3 16  1  0  0  0  0
  3 24  1  0  0  0  0
  4  5  1  0  0  0  0
  4  1  1  0  0  0  0
  4  7  1  0  0  0  0
  6  4  1  0  0  0  0
  7  9  1  0  0  0  0
  8  7  1  0  0  0  0
 10  2  1  0  0  0  0
 11 10  1  0  0  0  0
 12 10  2  0  0  0  0
 12 19  1  0  0  0  0
 13 15  1  0  0  0  0
 13 12  1  0  0  0  0
 14 13  1  0  0  0  0
 15 16  2  0  0  0  0
 16 17  1  0  0  0  0
 17 18  1  0  0  0  0
 19 17  2  0  0  0  0
 20 15  1  0  0  0  0
 20 22  1  0  0  0  0
 21 20  1  0  0  0  0
 23 20  1  0  0  0  0
 24 26  1  0  0  0  0
 25 24  1  0  0  0  0
 27 24  1  0  0  0  0
 28 29  1  0  0  0  0
 28 30  1  0  0  0  0
 28 31  1  0  0  0  0
 32 35  1  0  0  0  0
 32  1  1  0  0  0  0
 33 32  1  0  0  0  0
 34 32  1  0  0  0  0
M  END
