1,2,21
q = -1.0

 29 31  0  0  0  0  0  0  0  0999 V2000
    3.1901    0.0631    0.0002 N   0  0  0  0  0  2  0  0  0  0  0  0
    1.4870    2.0621    0.0002 N   0  0  0  0  0  2  0  0  0  0  0  0
    0.5368    3.0181   -0.0004 C   0  0  0  0  0  0  0  0  0  0  0  0
   -0.5037    2.6532   -0.0002 H   0  0  0  0  0  0  0  0  0  0  0  0
    0.8553    4.3809   -0.0011 C   0  0  0  0  0  0  0  0  0  0  0  0
    0.0495    5.1284   -0.0016 H   0  0  0  0  0  0  0  0  0  0  0  0
    2.2069    4.7596   -0.0012 C   0  0  0  0  0  0  0  0  0  0  0  0
    2.4922    5.8219   -0.0018 H   0  0  0  0  0  0  0  0  0  0  0  0
    3.1936    3.7665   -0.0006 C   0  0  0  0  0  0  0  0  0  0  0  0
    4.2579    4.0383   -0.0007 H   0  0  0  0  0  0  0  0  0  0  0  0
    2.8156    2.4124    0.0001 C   0  0  0  0  0  0  0  0  0  0  0  0
    3.7790    1.2866    0.0005 C   0  0  0  0  0  0  0  0  0  0  0  0
    5.1815    1.3783    0.0011 C   0  0  0  0  0  0  0  0  0  0  0  0
    5.6840    2.3545    0.0015 H   0  0  0  0  0  0  0  0  0  0  0  0
    5.9285    0.1879    0.0012 C   0  0  0  0  0  0  0  0  0  0  0  0
    7.0273    0.2367    0.0017 H   0  0  0  0  0  0  0  0  0  0  0  0
    5.2886   -1.0607    0.0008 C   0  0  0  0  0  0  0  0  0  0  0  0
    5.8756   -1.9890    0.0009 H   0  0  0  0  0  0  0  0  0  0  0  0
    3.8808   -1.1169    0.0003 C   0  0  0  0  0  0  0  0  0  0  0  0
    2.9980   -2.2906   -0.0001 C   0  0  0  0  0  0  0  0  0  0  0  0
    1.5790   -2.0231   -0.0003 C   0  0  0  0  0  2  0  0  0  0  0  0
    0.6987   -3.1217   -0.0006 C   0  0  0  0  0  3  0  0  0  0  0  0
   -0.3861   -2.9372   -0.0008 H   0  0  0  0  0  0  0  0  0  0  0  0
    1.1921   -4.4370   -0.0007 C   0  0  0  0  0  0  0  0  0  0  0  0
    0.4849   -5.2815   -0.0009 H   0  0  0  0  0  0  0  0  0  0  0  0
    2.5766   -4.6894   -0.0005 C   0  0  0  0  0  0  0  0  0  0  0  0
    2.9521   -5.7235   -0.0005 H   0  0  0  0  0  0  0  0  0  0  0  0
    3.4766   -3.6177   -0.0001 C   0  0  0  0  0  0  0  0  0  0  0  0
    4.5599   -3.8163    0.0001 H   0  0  0  0  0  0  0  0  0  0  0  0
  1 19  1  0  0  0  0
  1 12  1  0  0  0  0
  3  4  1  0  0  0  0
  3  2  1  0  0  0  0
  5  3  2  0  0  0  0
  6  5  1  0  0  0  0
  7  5  1  0  0  0  0
  7  9  2  0  0  0  0
  8  7  1  0  0  0  0
  9 11  1  0  0  0  0
 10  9  1  0  0  0  0
 11  2  1  0  0  0  0
 11 12  2  0  0  0  0
 12 13  1  0  0  0  0
 13 15  2  0  0  0  0
 13 14  1  0  0  0  0
 15 16  1  0  0  0  0
 17 18  1  0  0  0  0
 17 15  1  0  0  0  0
 19 17  2  0  0  0  0
 20 19  1  0  0  0  0
 21 20  1  0  0  0  0
 22 21  1  0  0  0  0
 23 22  1  0  0  0  0
 24 22  1  0  0  0  0
 24 26  2  0  0  0  0
 25 24  1  0  0  0  0
 26 28  1  0  0  0  0
 27 26  1  0  0  0  0
 28 20  2  0  0  0  0
 28 29  1  0  0  0  0
M  END
