1,4,12
q = -1.0, confidence = 0.0

 33 33  0  0  0  0  0  0  0  0999 V2000
    2.5650    0.0635   -0.0153 C   0  0  0  0  0  3  0  0  0  0  0  0
    3.1932    1.2706   -0.3755 C   0  0  0  0  0  0  0  0  0  0  0  0
    2.2323    2.3647   -0.7681 C   0  0  0  0  0  0  0  0  0  0  0  0
    0.8858    2.1258   -0.1283 N   0  0  0  0  0  0  0  0  0  0  0  0
   -0.2027    2.7243   -0.9261 C   0  0  0  0  0  0  0  0  0  0  0  0
    0.8653    2.6710    1.2480 C   0  0  0  0  0  0  0  0  0  0  0  0
    4.5979    1.3196   -0.4055 C   0  0  0  0  0  0  0  0  0  0  0  0
    5.3398    0.1624   -0.0960 C   0  0  0  0  0  0  0  0  0  0  0  0
    4.7008   -1.0427    0.2586 C   0  0  0  0  0  0  0  0  0  0  0  0
    3.2974   -1.0919    0.3130 C   0  0  0  0  0  0  0  0  0  0  0  0
    2.4319   -2.2365    0.7738 C   0  0  0  0  0  0  0  0  0  0  0  0
    1.0386   -2.0795    0.2194 N   0  0  0  0  0  0  0  0  0  0  0  0
    0.9789   -2.5887   -1.1751 C   0  0  0  0  0  0  0  0  0  0  0  0
    0.0568   -2.8074    1.0499 C   0  0  0  0  0  0  0  0  0  0  0  0
    2.0678    2.3353   -1.8659 H   0  0  0  0  0  0  0  0  0  0  0  0
    2.5898    3.3906   -0.5203 H   0  0  0  0  0  0  0  0  0  0  0  0
   -1.1689    2.4443   -0.4671 H   0  0  0  0  0  0  0  0  0  0  0  0
   -0.1743    2.3118   -1.9516 H   0  0  0  0  0  0  0  0  0  0  0  0
   -0.0975    3.8327   -0.9685 H   0  0  0  0  0  0  0  0  0  0  0  0
   -0.0857    2.3866    1.7353 H   0  0  0  0  0  0  0  0  0  0  0  0
    0.9534    3.7825    1.2261 H   0  0  0  0  0  0  0  0  0  0  0  0
    1.7087    2.2475    1.8234 H   0  0  0  0  0  0  0  0  0  0  0  0
    5.1234    2.2494   -0.6774 H   0  0  0  0  0  0  0  0  0  0  0  0
    6.4390    0.2011   -0.1294 H   0  0  0  0  0  0  0  0  0  0  0  0
    5.3056   -1.9313    0.5018 H   0  0  0  0  0  0  0  0  0  0  0  0
    2.3400   -2.2084    1.8806 H   0  0  0  0  0  0  0  0  0  0  0  0
    2.8290   -3.2424    0.5048 H   0  0  0  0  0  0  0  0  0  0  0  0
   -0.0295   -2.3631   -1.5714 H   0  0  0  0  0  0  0  0  0  0  0  0
    1.1639   -3.6881   -1.1830 H   0  0  0  0  0  0  0  0  0  0  0  0
    1.7521   -2.0836   -1.7822 H   0  0  0  0  0  0  0  0  0  0  0  0
   -0.9351   -2.7124    0.5708 H   0  0  0  0  0  0  0  0  0  0  0  0
    0.0274   -2.3663    2.0635 H   0  0  0  0  0  0  0  0  0  0  0  0
    0.3371   -3.8837    1.1232 H   0  0  0  0  0  0  0  0  0  0  0  0
  1 10  1  0  0  0  0
  2  1  2  0  0  0  0
  3 16  1  0  0  0  0
  3  2  1  0  0  0  0
  3  4  1  0  0  0  0
  4  6  1  0  0  0  0
  5 17  1  0  0  0  0
  5  4  1  0  0  0  0
  6 20  1  0  0  0  0
  6 22  1  0  0  0  0
  7  2  1  0  0  0  0
  7  8  2  0  0  0  0
  8  9  1  0  0  0  0
  9 10  2  0  0  0  0
  9 25  1  0  0  0  0
 10 11  1  0  0  0  0
 11 26  1  0  0  0  0
 12 11  1  0  0  0  0
 12 14  1  0  0  0  0
 13 12  1  0  0  0  0
 14 33  1  0  0  0  0
 14 32  1  0  0  0  0
 15  3  1  0  0  0  0
 18  5  1  0  0  0  0
 19  5  1  0  0  0  0
 21  6  1  0  0  0  0
 23  7  1  0  0  0  0
 24  8  1  0  0  0  0
 27 11  1  0  0  0  0
 28 13  1  0  0  0  0
 29 13  1  0  0  0  0
 30 13  1  0  0  0  0
 31 14  1  0  0  0  0
M  END
