17,35,36
q = -1.0, confidence = 0.002

 38 39  0  0  1  0  0  0  0  0999 V2000
    3.2326   -0.7033    0.0389 C   0  0  0  0  0  0  0  0  0  0  0  0
    3.3389   -1.2181    1.4823 C   0  0  0  0  0  0  0  0  0  0  0  0
    3.2870   -0.3824    2.2072 H   0  0  0  0  0  0  0  0  0  0  0  0
    4.2950   -1.7627    1.6224 H   0  0  0  0  0  0  0  0  0  0  0  0
    2.5047   -1.9119    1.6945 H   0  0  0  0  0  0  0  0  0  0  0  0
    3.2117   -1.8573   -0.9643 C   0  0  0  0  0  0  0  0  0  0  0  0
    2.3799   -2.5452   -0.7218 H   0  0  0  0  0  0  0  0  0  0  0  0
    4.1665   -2.4200   -0.9209 H   0  0  0  0  0  0  0  0  0  0  0  0
    3.0459   -1.4848   -1.9929 H   0  0  0  0  0  0  0  0  0  0  0  0
    4.3297    0.3582   -0.2871 C   0  0  0  0  0  0  0  0  0  0  0  0
    5.1608    0.3723    0.4436 H   0  0  0  0  0  0  0  0  0  0  0  0
    4.7387    0.2387   -1.3120 H   0  0  0  0  0  0  0  0  0  0  0  0
    2.3464    1.3795   -0.1857 C   0  0  2  0  0  3  0  0  0  0  0  0
    1.2983    2.4418   -0.1944 C   0  0  0  0  0  0  0  0  0  0  0  0
    1.6245    3.3108   -0.8056 H   0  0  0  0  0  0  0  0  0  0  0  0
    1.1916    2.7910    0.8566 H   0  0  0  0  0  0  0  0  0  0  0  0
   -0.0088    1.7855   -0.6751 C   0  0  0  0  0  3  0  0  0  0  0  0
   -0.0109    1.7159   -1.7827 H   0  0  0  0  0  0  0  0  0  0  0  0
   -1.3174    2.4344   -0.1908 C   0  0  0  0  0  0  0  0  0  0  0  0
   -1.2114    2.7765    0.8627 H   0  0  0  0  0  0  0  0  0  0  0  0
   -1.6511    3.3047   -0.7960 H   0  0  0  0  0  0  0  0  0  0  0  0
   -2.3567    1.3654   -0.1862 C   0  0  1  0  0  3  0  0  0  0  0  0
   -4.3337    0.3356   -0.3112 C   0  0  0  0  0  0  0  0  0  0  0  0
   -4.7112    0.2132   -1.3479 H   0  0  0  0  0  0  0  0  0  0  0  0
   -5.1860    0.3410    0.3947 H   0  0  0  0  0  0  0  0  0  0  0  0
   -3.2359   -0.7139    0.0420 C   0  0  0  0  0  0  0  0  0  0  0  0
   -3.2125   -1.8857   -0.9398 C   0  0  0  0  0  0  0  0  0  0  0  0
   -3.0297   -1.5317   -1.9718 H   0  0  0  0  0  0  0  0  0  0  0  0
   -4.1668   -2.4487   -0.8969 H   0  0  0  0  0  0  0  0  0  0  0  0
   -2.3844   -2.5786   -0.6942 H   0  0  0  0  0  0  0  0  0  0  0  0
   -3.3507   -1.1886    1.4987 C   0  0  0  0  0  0  0  0  0  0  0  0
   -2.4750   -1.8086    1.7687 H   0  0  0  0  0  0  0  0  0  0  0  0
   -4.2695   -1.7922    1.6425 H   0  0  0  0  0  0  0  0  0  0  0  0
   -3.3622   -0.3291    2.1966 H   0  0  0  0  0  0  0  0  0  0  0  0
    2.0132    0.1302   -0.0862 N   0  0  0  0  0  2  0  0  0  0  0  0
   -2.0167    0.1169   -0.0892 N   0  0  0  0  0  2  0  0  0  0  0  0
    3.6596    1.6518   -0.2311 O   0  0  0  0  0  0  0  0  0  0  0  0
   -3.6728    1.6302   -0.2329 O   0  0  0  0  0  0  0  0  0  0  0  0
  1  2  1  0  0  0  0
  2  4  1  0  0  0  0
  2  5  1  0  0  0  0
  2  3  1  0  0  0  0
  6  8  1  0  0  0  0
  6  7  1  0  0  0  0
  6  1  1  0  0  0  0
  9  6  1  0  0  0  0
 10 37  1  0  0  0  0
 10  1  1  0  0  0  0
 10 11  1  0  0  0  0
 12 10  1  0  0  0  0
 13 14  1  1  0  0  0
 13 35  1  0  0  0  0
 14 16  1  0  0  0  0
 15 14  1  0  0  0  0
 17 14  1  0  0  0  0
 17 19  1  0  0  0  0
 18 17  1  0  0  0  0
 19 20  1  0  0  0  0
 21 19  1  0  0  0  0
 22 19  1  1  0  0  0
 22 36  1  0  0  0  0
 23 38  1  0  0  0  0
 23 26  1  0  0  0  0
 23 25  1  0  0  0  0
 24 23  1  0  0  0  0
 26 31  1  0  0  0  0
 27 29  1  0  0  0  0
 27 30  1  0  0  0  0
 27 26  1  0  0  0  0
 28 27  1  0  0  0  0
 31 33  1  0  0  0  0
 31 32  1  0  0  0  0
 31 34  1  0  0  0  0
 35  1  1  0  0  0  0
 36 26  1  0  0  0  0
 37 13  1  0  0  0  0
 38 22  1  0  0  0  0
M  END
