1,3,25
q = -1.0

 45 47  0  0  1  0  0  0  0  0999 V2000
    1.9509   -0.1938   -0.4826 N   0  0  0  0  0  2  0  0  0  0  0  0
    3.5282   -1.7717   -0.8176 O   0  0  0  0  0  0  0  0  0  0  0  0
    0.0000   -1.7473    0.0000 C   0  0  0  0  0  2  0  0  0  0  0  0
    1.1936   -2.4416   -0.2905 C   0  0  0  0  0  0  0  0  0  0  0  0
    1.1971   -3.8503   -0.2910 C   0  0  0  0  0  0  0  0  0  0  0  0
    2.1191   -4.4086   -0.5138 H   0  0  0  0  0  0  0  0  0  0  0  0
    0.0001   -4.5362    0.0001 C   0  0  0  0  0  0  0  0  0  0  0  0
    0.0001   -5.6360    0.0001 H   0  0  0  0  0  0  0  0  0  0  0  0
    2.2538   -1.4738   -0.5430 C   0  0  1  0  0  3  0  0  0  0  0  0
    4.2013   -0.4954   -1.0607 C   0  0  0  0  0  0  0  0  0  0  0  0
    4.4669   -0.4619   -2.1362 H   0  0  0  0  0  0  0  0  0  0  0  0
    5.1297   -0.4874   -0.4576 H   0  0  0  0  0  0  0  0  0  0  0  0
    3.1753    0.5982   -0.6488 C   0  0  2  0  0  0  0  0  0  0  0  0
    3.0173    1.3302   -1.4678 H   0  0  0  0  0  0  0  0  0  0  0  0
    3.5167    1.3922    0.6344 C   0  0  0  0  0  0  0  0  0  0  0  0
    2.6309    2.0461    0.7952 H   0  0  0  0  0  0  0  0  0  0  0  0
    4.7397    2.2843    0.4008 C   0  0  0  0  0  0  0  0  0  0  0  0
    4.9343    2.9192    1.2879 H   0  0  0  0  0  0  0  0  0  0  0  0
    4.5913    2.9585   -0.4675 H   0  0  0  0  0  0  0  0  0  0  0  0
    5.6617    1.6901    0.2182 H   0  0  0  0  0  0  0  0  0  0  0  0
    3.6769    0.4901    1.8607 C   0  0  0  0  0  0  0  0  0  0  0  0
    2.7604   -0.1061    2.0439 H   0  0  0  0  0  0  0  0  0  0  0  0
    3.8620    1.1005    2.7670 H   0  0  0  0  0  0  0  0  0  0  0  0
    4.5335   -0.2114    1.7607 H   0  0  0  0  0  0  0  0  0  0  0  0
   -1.9509   -0.1938    0.4825 N   0  0  0  0  0  2  0  0  0  0  0  0
   -3.5282   -1.7717    0.8176 O   0  0  0  0  0  0  0  0  0  0  0  0
   -1.1935   -2.4416    0.2906 C   0  0  0  0  0  0  0  0  0  0  0  0
   -1.1971   -3.8503    0.2911 C   0  0  0  0  0  0  0  0  0  0  0  0
   -2.1190   -4.4086    0.5139 H   0  0  0  0  0  0  0  0  0  0  0  0
   -2.2538   -1.4739    0.5430 C   0  0  0  0  0  0  0  0  0  0  0  0
   -4.2013   -0.4954    1.0607 C   0  0  0  0  0  0  0  0  0  0  0  0
   -4.4669   -0.4618    2.1362 H   0  0  0  0  0  0  0  0  0  0  0  0
   -5.1297   -0.4875    0.4575 H   0  0  0  0  0  0  0  0  0  0  0  0
   -3.1753    0.5982    0.6487 C   0  0  2  0  0  0  0  0  0  0  0  0
   -3.0173    1.3302    1.4676 H   0  0  0  0  0  0  0  0  0  0  0  0
   -3.5167    1.3920   -0.6345 C   0  0  0  0  0  0  0  0  0  0  0  0
   -2.6308    2.0457   -0.7955 H   0  0  0  0  0  0  0  0  0  0  0  0
   -4.7394    2.2844   -0.4008 C   0  0  0  0  0  0  0  0  0  0  0  0
   -4.9341    2.9193   -1.2880 H   0  0  0  0  0  0  0  0  0  0  0  0
   -4.5908    2.9588    0.4674 H   0  0  0  0  0  0  0  0  0  0  0  0
   -5.6616    1.6905   -0.2180 H   0  0  0  0  0  0  0  0  0  0  0  0
   -3.6774    0.4898   -1.8607 C   0  0  0  0  0  0  0  0  0  0  0  0
   -2.7610   -0.1066   -2.0440 H   0  0  0  0  0  0  0  0  0  0  0  0
   -3.8624    1.1002   -2.7670 H   0  0  0  0  0  0  0  0  0  0  0  0
   -4.5341   -0.2114   -1.7605 H   0  0  0  0  0  0  0  0  0  0  0  0
  2  9  1  0  0  0  0
  3 27  1  0  0  0  0
  4  3  1  0  0  0  0
  5  4  2  0  0  0  0
  5  7  1  0  0  0  0
  6  5  1  0  0  0  0
  7  8  1  0  0  0  0
  7 28  2  0  0  0  0
  9  1  1  0  0  0  0
  9  4  1  1  0  0  0
 10  2  1  0  0  0  0
 10 13  1  0  0  0  0
 10 12  1  0  0  0  0
 11 10  1  0  0  0  0
 13 14  1  6  0  0  0
 13  1  1  0  0  0  0
 13 15  1  0  0  0  0
 15 16  1  0  0  0  0
 15 21  1  0  0  0  0
 17 15  1  0  0  0  0
 17 18  1  0  0  0  0
 19 17  1  0  0  0  0
 20 17  1  0  0  0  0
 21 22  1  0  0  0  0
 21 23  1  0  0  0  0
 24 21  1  0  0  0  0
 25 30  1  0  0  0  0
 25 34  1  0  0  0  0
 26 31  1  0  0  0  0
 27 28  1  0  0  0  0
 27 30  2  0  0  0  0
 28 29  1  0  0  0  0
 30 26  1  0  0  0  0
 31 32  1  0  0  0  0
 33 31  1  0  0  0  0
 34 31  1  0  0  0  0
 34 35  1  1  0  0  0
 36 38  1  0  0  0  0
 36 34  1  0  0  0  0
 37 36  1  0  0  0  0
 38 41  1  0  0  0  0
 38 40  1  0  0  0  0
 39 38  1  0  0  0  0
 42 45  1  0  0  0  0
 42 36  1  0  0  0  0
 43 42  1  0  0  0  0
 44 42  1  0  0  0  0
M  END
