5,6
q = -1.0

 70 73  0  0  1  0  0  0  0  0999 V2000
    1.0694   -1.5730   -1.3342 S   0  0  0  0  0  0  0  0  0  0  0  0
   -3.6025    0.9870    2.7413 O   0  0  0  0  0  0  0  0  0  0  0  0
    0.4479   -2.9216   -1.3692 O   0  0  0  0  0  0  0  0  0  0  0  0
    1.4525   -0.9035   -2.6051 O   0  0  0  0  0  0  0  0  0  0  0  0
   -1.9129    1.1963   -0.1067 N   0  0  0  0  0  0  0  0  0  0  0  0
    0.1407   -0.5589   -0.3552 N   0  0  0  0  0  2  0  0  0  0  0  0
   -2.7050   -1.1379    1.9074 C   0  0  2  0  0  3  0  0  0  0  0  0
   -3.8135   -1.2632    0.9919 C   0  0  0  0  0  0  0  0  0  0  0  0
   -3.7369   -2.1674   -0.0917 C   0  0  0  0  0  0  0  0  0  0  0  0
   -2.5996   -3.0492   -0.2650 C   0  0  0  0  0  0  0  0  0  0  0  0
   -1.5532   -2.9735    0.6984 C   0  0  0  0  0  0  0  0  0  0  0  0
   -1.5891   -2.0190    1.7725 C   0  0  0  0  0  3  0  0  0  0  0  0
   -2.5132   -3.9501   -1.4622 C   0  0  0  0  0  0  0  0  0  0  0  0
   -2.7481   -0.1022    3.0098 C   0  0  0  0  0  0  0  0  0  0  0  0
   -3.0433    2.0785    2.0314 C   0  0  0  0  0  0  0  0  0  0  0  0
   -3.0139    1.9767    0.5055 C   0  0  0  0  0  0  0  0  0  0  0  0
   -0.5474    1.7092    0.1821 C   0  0  1  0  0  0  0  0  0  0  0  0
    0.4471    0.8553   -0.6256 C   0  0  1  0  0  0  0  0  0  0  0  0
   -0.3874    3.1865   -0.1204 C   0  0  0  0  0  0  0  0  0  0  0  0
   -0.6951    3.6907   -1.4009 C   0  0  0  0  0  0  0  0  0  0  0  0
   -0.5184    5.0510   -1.6907 C   0  0  0  0  0  0  0  0  0  0  0  0
   -0.0244    5.9235   -0.7068 C   0  0  0  0  0  0  0  0  0  0  0  0
    0.2911    5.4284    0.5677 C   0  0  0  0  0  0  0  0  0  0  0  0
    0.1073    4.0678    0.8573 C   0  0  0  0  0  0  0  0  0  0  0  0
    1.8638    1.2623   -0.2417 C   0  0  0  0  0  0  0  0  0  0  0  0
    2.6926    1.9237   -1.1626 C   0  0  0  0  0  0  0  0  0  0  0  0
    3.9881    2.3213   -0.7968 C   0  0  0  0  0  0  0  0  0  0  0  0
    4.4680    2.0557    0.4947 C   0  0  0  0  0  0  0  0  0  0  0  0
    3.6462    1.3897    1.4199 C   0  0  0  0  0  0  0  0  0  0  0  0
    2.3523    0.9992    1.0525 C   0  0  0  0  0  0  0  0  0  0  0  0
    2.5983   -1.7842   -0.3910 C   0  0  0  0  0  0  0  0  0  0  0  0
    3.8096   -1.3592   -0.9490 C   0  0  0  0  0  0  0  0  0  0  0  0
    4.9890   -1.4916   -0.2052 C   0  0  0  0  0  0  0  0  0  0  0  0
    4.9790   -2.0489    1.0896 C   0  0  0  0  0  0  0  0  0  0  0  0
    3.7470   -2.4962    1.6140 C   0  0  0  0  0  0  0  0  0  0  0  0
    2.5603   -2.3690    0.8826 C   0  0  0  0  0  0  0  0  0  0  0  0
    6.2469   -2.1308    1.9009 C   0  0  0  0  0  0  0  0  0  0  0  0
   -2.0555    1.2266   -1.1413 H   0  0  0  0  0  0  0  0  0  0  0  0
   -4.6491   -0.5541    1.0722 H   0  0  0  0  0  0  0  0  0  0  0  0
   -4.5145   -2.1444   -0.8691 H   0  0  0  0  0  0  0  0  0  0  0  0
   -0.6379   -3.5510    0.5143 H   0  0  0  0  0  0  0  0  0  0  0  0
   -0.7132   -1.9001    2.4280 H   0  0  0  0  0  0  0  0  0  0  0  0
   -1.4578   -4.1797   -1.6930 H   0  0  0  0  0  0  0  0  0  0  0  0
   -3.0696   -4.8932   -1.2759 H   0  0  0  0  0  0  0  0  0  0  0  0
   -2.9530   -3.4501   -2.3466 H   0  0  0  0  0  0  0  0  0  0  0  0
   -1.7109    0.2384    3.2436 H   0  0  0  0  0  0  0  0  0  0  0  0
   -3.1492   -0.5890    3.9268 H   0  0  0  0  0  0  0  0  0  0  0  0
   -3.6934    2.9438    2.2749 H   0  0  0  0  0  0  0  0  0  0  0  0
   -2.0292    2.3232    2.4267 H   0  0  0  0  0  0  0  0  0  0  0  0
   -2.9549    3.0178    0.1180 H   0  0  0  0  0  0  0  0  0  0  0  0
   -3.9666    1.5449    0.1411 H   0  0  0  0  0  0  0  0  0  0  0  0
   -0.3478    1.5317    1.2582 H   0  0  0  0  0  0  0  0  0  0  0  0
    0.2982    1.0906   -1.7047 H   0  0  0  0  0  0  0  0  0  0  0  0
   -1.0700    3.0119   -2.1846 H   0  0  0  0  0  0  0  0  0  0  0  0
   -0.7619    5.4317   -2.6941 H   0  0  0  0  0  0  0  0  0  0  0  0
    0.1179    6.9904   -0.9362 H   0  0  0  0  0  0  0  0  0  0  0  0
    0.6865    6.1044    1.3409 H   0  0  0  0  0  0  0  0  0  0  0  0
    0.3706    3.6751    1.8522 H   0  0  0  0  0  0  0  0  0  0  0  0
    2.3178    2.1098   -2.1803 H   0  0  0  0  0  0  0  0  0  0  0  0
    4.6298    2.8350   -1.5290 H   0  0  0  0  0  0  0  0  0  0  0  0
    5.4872    2.3592    0.7793 H   0  0  0  0  0  0  0  0  0  0  0  0
    4.0225    1.1617    2.4290 H   0  0  0  0  0  0  0  0  0  0  0  0
    1.7180    0.4433    1.7600 H   0  0  0  0  0  0  0  0  0  0  0  0
    3.8027   -0.9088   -1.9513 H   0  0  0  0  0  0  0  0  0  0  0  0
    5.9404   -1.1419   -0.6364 H   0  0  0  0  0  0  0  0  0  0  0  0
    3.7213   -2.9499    2.6177 H   0  0  0  0  0  0  0  0  0  0  0  0
    1.6023   -2.7072    1.3038 H   0  0  0  0  0  0  0  0  0  0  0  0
    6.1530   -2.8462    2.7410 H   0  0  0  0  0  0  0  0  0  0  0  0
    7.1109   -2.4390    1.2785 H   0  0  0  0  0  0  0  0  0  0  0  0
    6.5011   -1.1396    2.3354 H   0  0  0  0  0  0  0  0  0  0  0  0
  1 31  1  0  0  0  0
  1  6  1  0  0  0  0
  2 14  1  0  0  0  0
  3  1  2  0  0  0  0
  4  1  2  0  0  0  0
  5 17  1  0  0  0  0
  5 16  1  0  0  0  0
  7 14  1  1  0  0  0
  8 39  1  0  0  0  0
  8  7  1  0  0  0  0
  9  8  2  0  0  0  0
 10  9  1  0  0  0  0
 10 11  2  0  0  0  0
 11 12  1  0  0  0  0
 12  7  1  0  0  0  0
 12 42  1  0  0  0  0
 13 44  1  0  0  0  0
 13 10  1  0  0  0  0
 14 46  1  0  0  0  0
 14 47  1  0  0  0  0
 15 48  1  0  0  0  0
 15 49  1  0  0  0  0
 15  2  1  0  0  0  0
 16 15  1  0  0  0  0
 17 52  1  1  0  0  0
 18 53  1  6  0  0  0
 18  6  1  0  0  0  0
 18 25  1  0  0  0  0
 18 17  1  0  0  0  0
 19 17  1  0  0  0  0
 19 24  1  0  0  0  0
 20 19  2  0  0  0  0
 21 20  1  0  0  0  0
 21 22  2  0  0  0  0
 22 23  1  0  0  0  0
 23 24  2  0  0  0  0
 23 57  1  0  0  0  0
 24 58  1  0  0  0  0
 25 30  1  0  0  0  0
 26 27  1  0  0  0  0
 26 25  2  0  0  0  0
 27 28  2  0  0  0  0
 28 61  1  0  0  0  0
 28 29  1  0  0  0  0
 29 62  1  0  0  0  0
 30 29  2  0  0  0  0
 30 63  1  0  0  0  0
 31 36  1  0  0  0  0
 32 31  2  0  0  0  0
 32 33  1  0  0  0  0
 33 34  2  0  0  0  0
 34 35  1  0  0  0  0
 34 37  1  0  0  0  0
 35 66  1  0  0  0  0
 36 67  1  0  0  0  0
 36 35  2  0  0  0  0
 37 70  1  0  0  0  0
 37 68  1  0  0  0  0
 38  5  1  0  0  0  0
 40  9  1  0  0  0  0
 41 11  1  0  0  0  0
 43 13  1  0  0  0  0
 45 13  1  0  0  0  0
 50 16  1  0  0  0  0
 51 16  1  0  0  0  0
 54 20  1  0  0  0  0
 55 21  1  0  0  0  0
 56 22  1  0  0  0  0
 59 26  1  0  0  0  0
 60 27  1  0  0  0  0
 64 32  1  0  0  0  0
 65 33  1  0  0  0  0
 69 37  1  0  0  0  0
M  END
