1,2,22
q = -1.0, confidence = 0.05

 43 45  0  0  0  0  0  0  0  0999 V2000
   -2.0064    0.0078   -0.1459 N   0  0  0  0  0  2  0  0  0  0  0  0
    2.0814    0.1537   -0.1260 N   0  0  0  0  0  2  0  0  0  0  0  0
   -3.0022   -1.0006   -0.0595 C   0  0  0  0  0  0  0  0  0  0  0  0
   -2.8055   -2.2244   -0.7361 C   0  0  0  0  0  0  0  0  0  0  0  0
   -1.8856   -2.3832   -1.3174 H   0  0  0  0  0  0  0  0  0  0  0  0
   -3.7801   -3.2289   -0.6687 C   0  0  0  0  0  0  0  0  0  0  0  0
   -3.6245   -4.1732   -1.2115 H   0  0  0  0  0  0  0  0  0  0  0  0
   -4.9497   -3.0340    0.0841 C   0  0  0  0  0  0  0  0  0  0  0  0
   -5.7090   -3.8275    0.1418 H   0  0  0  0  0  0  0  0  0  0  0  0
   -5.1373   -1.8264    0.7757 C   0  0  0  0  0  0  0  0  0  0  0  0
   -6.0393   -1.6753    1.3872 H   0  0  0  0  0  0  0  0  0  0  0  0
   -4.1719   -0.8134    0.7101 C   0  0  0  0  0  0  0  0  0  0  0  0
   -4.3046    0.1129    1.2880 H   0  0  0  0  0  0  0  0  0  0  0  0
   -2.3484    1.2970   -0.1901 C   0  0  0  0  0  3  0  0  0  0  0  0
   -3.4159    1.5714   -0.2373 H   0  0  0  0  0  0  0  0  0  0  0  0
   -1.2823    2.2625   -0.1812 C   0  0  0  0  0  0  0  0  0  0  0  0
   -1.3343    3.6847   -0.1991 C   0  0  0  0  0  0  0  0  0  0  0  0
   -0.1070    4.3858   -0.1692 C   0  0  0  0  0  0  0  0  0  0  0  0
   -0.1448    5.4861   -0.1768 H   0  0  0  0  0  0  0  0  0  0  0  0
    1.1656    3.7713   -0.1265 C   0  0  0  0  0  0  0  0  0  0  0  0
    1.2115    2.3490   -0.1149 C   0  0  0  0  0  0  0  0  0  0  0  0
   -0.0129    1.6247   -0.1428 C   0  0  0  0  0  3  0  0  0  0  0  0
   -2.6460    4.4176   -0.2379 C   0  0  0  0  0  0  0  0  0  0  0  0
   -3.2414    4.1348   -1.1315 H   0  0  0  0  0  0  0  0  0  0  0  0
   -2.5021    5.5137   -0.2595 H   0  0  0  0  0  0  0  0  0  0  0  0
   -3.2680    4.1750    0.6495 H   0  0  0  0  0  0  0  0  0  0  0  0
    2.4234    4.5936   -0.0881 C   0  0  0  0  0  0  0  0  0  0  0  0
    3.0078    4.3907    0.8341 H   0  0  0  0  0  0  0  0  0  0  0  0
    2.2048    5.6771   -0.1172 H   0  0  0  0  0  0  0  0  0  0  0  0
    3.0881    4.3575   -0.9455 H   0  0  0  0  0  0  0  0  0  0  0  0
    2.3446    1.4585   -0.0842 C   0  0  0  0  0  3  0  0  0  0  0  0
    3.3949    1.7968   -0.0542 H   0  0  0  0  0  0  0  0  0  0  0  0
    3.1025   -0.8233   -0.0129 C   0  0  0  0  0  0  0  0  0  0  0  0
    4.0745   -0.7482    1.0053 C   0  0  0  0  0  0  0  0  0  0  0  0
    4.0482    0.0871    1.7206 H   0  0  0  0  0  0  0  0  0  0  0  0
    5.0399   -1.7589    1.1221 C   0  0  0  0  0  0  0  0  0  0  0  0
    5.7914   -1.6992    1.9235 H   0  0  0  0  0  0  0  0  0  0  0  0
    5.0425   -2.8477    0.2361 C   0  0  0  0  0  0  0  0  0  0  0  0
    5.7999   -3.6388    0.3360 H   0  0  0  0  0  0  0  0  0  0  0  0
    4.0745   -2.9227   -0.7803 C   0  0  0  0  0  0  0  0  0  0  0  0
    4.0846   -3.7628   -1.4909 H   0  0  0  0  0  0  0  0  0  0  0  0
    3.1022   -1.9196   -0.9070 C   0  0  0  0  0  0  0  0  0  0  0  0
    2.3667   -1.9440   -1.7268 H   0  0  0  0  0  0  0  0  0  0  0  0
  1  3  1  0  0  0  0
  2 31  1  0  0  0  0
  2 33  1  0  0  0  0
  3 12  1  0  0  0  0
  4  6  1  0  0  0  0
  4  3  2  0  0  0  0
  5  4  1  0  0  0  0
  6  8  2  0  0  0  0
  7  6  1  0  0  0  0
  8  9  1  0  0  0  0
  8 10  1  0  0  0  0
 10 11  1  0  0  0  0
 12 10  2  0  0  0  0
 12 13  1  0  0  0  0
 14 16  1  0  0  0  0
 14  1  1  0  0  0  0
 15 14  1  0  0  0  0
 16 22  1  0  0  0  0
 17 16  2  0  0  0  0
 17 18  1  0  0  0  0
 18 20  2  0  0  0  0
 19 18  1  0  0  0  0
 20 21  1  0  0  0  0
 20 27  1  0  0  0  0
 21 31  1  0  0  0  0
 22 21  2  0  0  0  0
 23 17  1  0  0  0  0
 23 26  1  0  0  0  0
 24 23  1  0  0  0  0
 25 23  1  0  0  0  0
 27 28  1  0  0  0  0
 29 27  1  0  0  0  0
 30 27  1  0  0  0  0
 31 32  1  0  0  0  0
 33 34  1  0  0  0  0
 34 36  2  0  0  0  0
 34 35  1  0  0  0  0
 36 37  1  0  0  0  0
 38 39  1  0  0  0  0
 38 36  1  0  0  0  0
 40 38  2  0  0  0  0
 41 40  1  0  0  0  0
 42 40  1  0  0  0  0
 42 33  2  0  0  0  0
 43 42  1  0  0  0  0
M  END
