1,2,15
q = -1.0, confidence = 0.0

 49 51  0  0  1  0  0  0  0  0999 V2000
   -2.0137    0.1586    0.3134 N   0  0  0  0  0  2  0  0  0  0  0  0
    2.0137    0.1586   -0.3133 N   0  0  0  0  0  2  0  0  0  0  0  0
   -2.3243    1.4340    0.3401 C   0  0  0  0  0  3  0  0  0  0  0  0
   -3.3743    1.7518    0.4817 H   0  0  0  0  0  0  0  0  0  0  0  0
   -1.2266    2.3719    0.1741 C   0  0  0  0  0  0  0  0  0  0  0  0
   -1.2198    3.7841    0.1705 C   0  0  0  0  0  0  0  0  0  0  0  0
   -2.1549    4.3514    0.3013 H   0  0  0  0  0  0  0  0  0  0  0  0
    0.0000    4.4699    0.0003 C   0  0  0  0  0  0  0  0  0  0  0  0
    0.0001    5.5698    0.0004 H   0  0  0  0  0  0  0  0  0  0  0  0
    1.2199    3.7841   -0.1700 C   0  0  0  0  0  3  0  0  0  0  0  0
    2.1550    4.3514   -0.3007 H   0  0  0  0  0  0  0  0  0  0  0  0
    1.2266    2.3718   -0.1738 C   0  0  0  0  0  0  0  0  0  0  0  0
    2.3243    1.4340   -0.3399 C   0  0  0  0  0  0  0  0  0  0  0  0
    3.3743    1.7518   -0.4814 H   0  0  0  0  0  0  0  0  0  0  0  0
    0.0000    1.6933    0.0001 C   0  0  0  0  0  3  0  0  0  0  0  0
   -3.0225   -0.9012    0.5480 C   0  0  2  0  0  0  0  0  0  0  0  0
   -2.6974   -1.7371   -0.1076 H   0  0  0  0  0  0  0  0  0  0  0  0
   -4.4197   -0.4710    0.1297 C   0  0  0  0  0  0  0  0  0  0  0  0
   -4.7307   -0.4332   -1.2465 C   0  0  0  0  0  0  0  0  0  0  0  0
   -3.9673   -0.7472   -1.9762 H   0  0  0  0  0  0  0  0  0  0  0  0
   -5.9897   -0.0063   -1.6884 C   0  0  0  0  0  0  0  0  0  0  0  0
   -6.2155    0.0106   -2.7656 H   0  0  0  0  0  0  0  0  0  0  0  0
   -6.9647    0.3912   -0.7577 C   0  0  0  0  0  0  0  0  0  0  0  0
   -7.9558    0.7236   -1.1021 H   0  0  0  0  0  0  0  0  0  0  0  0
   -6.6696    0.3546    0.6128 C   0  0  0  0  0  0  0  0  0  0  0  0
   -7.4298    0.6577    1.3490 H   0  0  0  0  0  0  0  0  0  0  0  0
   -5.4058   -0.0732    1.0530 C   0  0  0  0  0  0  0  0  0  0  0  0
   -5.1907   -0.1022    2.1312 H   0  0  0  0  0  0  0  0  0  0  0  0
   -2.8846   -1.3926    1.9927 C   0  0  0  0  0  0  0  0  0  0  0  0
   -3.5993   -2.2172    2.1814 H   0  0  0  0  0  0  0  0  0  0  0  0
   -3.0741   -0.5782    2.7207 H   0  0  0  0  0  0  0  0  0  0  0  0
   -1.8584   -1.7777    2.1468 H   0  0  0  0  0  0  0  0  0  0  0  0
    3.0225   -0.9012   -0.5481 C   0  0  2  0  0  0  0  0  0  0  0  0
    2.6974   -1.7371    0.1076 H   0  0  0  0  0  0  0  0  0  0  0  0
    4.4197   -0.4711   -0.1298 C   0  0  0  0  0  0  0  0  0  0  0  0
    4.7311   -0.4340    1.2463 C   0  0  0  0  0  0  0  0  0  0  0  0
    3.9679   -0.7486    1.9761 H   0  0  0  0  0  0  0  0  0  0  0  0
    5.9901   -0.0071    1.6881 C   0  0  0  0  0  0  0  0  0  0  0  0
    6.2162    0.0093    2.7652 H   0  0  0  0  0  0  0  0  0  0  0  0
    6.9647    0.3912    0.7574 C   0  0  0  0  0  0  0  0  0  0  0  0
    7.9558    0.7235    1.1017 H   0  0  0  0  0  0  0  0  0  0  0  0
    6.6693    0.3553   -0.6131 C   0  0  0  0  0  0  0  0  0  0  0  0
    7.4292    0.6590   -1.3493 H   0  0  0  0  0  0  0  0  0  0  0  0
    5.4055   -0.0726   -1.0532 C   0  0  0  0  0  0  0  0  0  0  0  0
    5.1901   -0.1010   -2.1313 H   0  0  0  0  0  0  0  0  0  0  0  0
    2.8845   -1.3927   -1.9927 C   0  0  0  0  0  0  0  0  0  0  0  0
    3.5993   -2.2172   -2.1815 H   0  0  0  0  0  0  0  0  0  0  0  0
    3.0738   -0.5782   -2.7208 H   0  0  0  0  0  0  0  0  0  0  0  0
    1.8583   -1.7778   -2.1467 H   0  0  0  0  0  0  0  0  0  0  0  0
  1  3  1  0  0  0  0
  1 16  1  0  0  0  0
  3  4  1  0  0  0  0
  5  3  1  0  0  0  0
  6  5  1  0  0  0  0
  6  7  1  0  0  0  0
  8  9  1  0  0  0  0
  8  6  2  0  0  0  0
 10  8  1  0  0  0  0
 11 10  1  0  0  0  0
 12 10  1  0  0  0  0
 12 15  1  0  0  0  0
 13  2  1  0  0  0  0
 13 12  2  0  0  0  0
 14 13  1  0  0  0  0
 15  5  2  0  0  0  0
 16 17  1  6  0  0  0
 16 29  1  0  0  0  0
 18 16  1  0  0  0  0
 18 27  1  0  0  0  0
 19 18  2  0  0  0  0
 20 19  1  0  0  0  0
 21 19  1  0  0  0  0
 21 23  2  0  0  0  0
 22 21  1  0  0  0  0
 23 25  1  0  0  0  0
 24 23  1  0  0  0  0
 25 27  2  0  0  0  0
 25 26  1  0  0  0  0
 27 28  1  0  0  0  0
 29 32  1  0  0  0  0
 29 30  1  0  0  0  0
 29 31  1  0  0  0  0
 33  2  1  0  0  0  0
 33 35  1  0  0  0  0
 33 34  1  1  0  0  0
 35 36  1  0  0  0  0
 36 38  2  0  0  0  0
 36 37  1  0  0  0  0
 38 39  1  0  0  0  0
 40 41  1  0  0  0  0
 40 38  1  0  0  0  0
 42 40  2  0  0  0  0
 43 42  1  0  0  0  0
 44 42  1  0  0  0  0
 44 35  2  0  0  0  0
 45 44  1  0  0  0  0
 46 33  1  0  0  0  0
 47 46  1  0  0  0  0
 48 46  1  0  0  0  0
 49 46  1  0  0  0  0
M  END
