1,2,5
q = -1.0, confidence = 0.0

 51 53  0  0  1  0  0  0  0  0999 V2000
    1.9703    0.1928    0.1395 N   0  0  0  0  0  2  0  0  0  0  0  0
   -1.9981   -0.0654   -0.7800 N   0  0  0  0  0  2  0  0  0  0  0  0
    3.3131    1.8212    0.9372 O   0  0  0  0  0  0  0  0  0  0  0  0
   -3.7337    1.3797   -0.7347 O   0  0  0  0  0  0  0  0  0  0  0  0
   -0.1526    1.6072   -0.1495 C   0  0  0  0  0  3  0  0  0  0  0  0
    0.9566    2.3496    0.3273 C   0  0  0  0  0  0  0  0  0  0  0  0
    0.8071    3.7169    0.6707 C   0  0  0  0  0  0  0  0  0  0  0  0
   -0.4822    4.2806    0.5336 C   0  0  0  0  0  0  0  0  0  0  0  0
   -0.6104    5.3438    0.7924 H   0  0  0  0  0  0  0  0  0  0  0  0
   -1.6241    3.5582    0.1179 C   0  0  0  0  0  0  0  0  0  0  0  0
   -1.4401    2.1931   -0.2175 C   0  0  0  0  0  0  0  0  0  0  0  0
    1.9591    4.5435    1.1778 C   0  0  0  0  0  0  0  0  0  0  0  0
    1.6468    5.5830    1.3940 H   0  0  0  0  0  0  0  0  0  0  0  0
    2.7884    4.5718    0.4416 H   0  0  0  0  0  0  0  0  0  0  0  0
    2.3896    4.1058    2.1017 H   0  0  0  0  0  0  0  0  0  0  0  0
   -2.9752    4.2204    0.0582 C   0  0  0  0  0  0  0  0  0  0  0  0
   -3.4082    4.1591   -0.9612 H   0  0  0  0  0  0  0  0  0  0  0  0
   -2.9168    5.2859    0.3518 H   0  0  0  0  0  0  0  0  0  0  0  0
   -3.7000    3.7109    0.7258 H   0  0  0  0  0  0  0  0  0  0  0  0
    2.1035    1.4623    0.4631 C   0  0  2  0  0  3  0  0  0  0  0  0
    4.1148    0.6046    1.0039 C   0  0  0  0  0  0  0  0  0  0  0  0
    4.3578    0.4215    2.0693 H   0  0  0  0  0  0  0  0  0  0  0  0
    5.0559    0.7907    0.4489 H   0  0  0  0  0  0  0  0  0  0  0  0
    3.2312   -0.5116    0.3782 C   0  0  2  0  0  0  0  0  0  0  0  0
    3.0401   -1.3231    1.1145 H   0  0  0  0  0  0  0  0  0  0  0  0
    4.0736   -0.1510   -2.0157 C   0  0  0  0  0  0  0  0  0  0  0  0
    3.1933    0.4833   -2.2363 H   0  0  0  0  0  0  0  0  0  0  0  0
    4.3506   -0.6689   -2.9555 H   0  0  0  0  0  0  0  0  0  0  0  0
    4.9232    0.5131   -1.7484 H   0  0  0  0  0  0  0  0  0  0  0  0
    3.7718   -1.1689   -0.9125 C   0  0  0  0  0  0  0  0  0  0  0  0
    2.9367   -1.8154   -1.2618 H   0  0  0  0  0  0  0  0  0  0  0  0
    4.9787   -2.0595   -0.6000 C   0  0  0  0  0  0  0  0  0  0  0  0
    5.8406   -1.4648   -0.2267 H   0  0  0  0  0  0  0  0  0  0  0  0
    5.3224   -2.5939   -1.5082 H   0  0  0  0  0  0  0  0  0  0  0  0
    4.7362   -2.8211    0.1699 H   0  0  0  0  0  0  0  0  0  0  0  0
   -2.4095    1.1720   -0.5873 C   0  0  1  0  0  3  0  0  0  0  0  0
   -4.2971    0.1208   -1.2063 C   0  0  0  0  0  0  0  0  0  0  0  0
   -4.5963    0.2631   -2.2647 H   0  0  0  0  0  0  0  0  0  0  0  0
   -5.2005   -0.0933   -0.6027 H   0  0  0  0  0  0  0  0  0  0  0  0
   -3.1608   -0.9222   -1.0361 C   0  0  2  0  0  0  0  0  0  0  0  0
   -2.9936   -1.4819   -1.9808 H   0  0  0  0  0  0  0  0  0  0  0  0
   -3.6372   -1.2932    1.4544 C   0  0  0  0  0  0  0  0  0  0  0  0
   -2.8498   -0.5567    1.7076 H   0  0  0  0  0  0  0  0  0  0  0  0
   -3.6534   -2.0571    2.2577 H   0  0  0  0  0  0  0  0  0  0  0  0
   -4.6231   -0.7817    1.4723 H   0  0  0  0  0  0  0  0  0  0  0  0
   -3.3566   -1.9536    0.1011 C   0  0  0  0  0  0  0  0  0  0  0  0
   -2.3787   -2.4770    0.1773 H   0  0  0  0  0  0  0  0  0  0  0  0
   -4.4297   -2.9797   -0.2757 C   0  0  0  0  0  0  0  0  0  0  0  0
   -4.5189   -3.7622    0.5043 H   0  0  0  0  0  0  0  0  0  0  0  0
   -4.1957   -3.4843   -1.2358 H   0  0  0  0  0  0  0  0  0  0  0  0
   -5.4305   -2.5067   -0.3779 H   0  0  0  0  0  0  0  0  0  0  0  0
  1 24  1  0  0  0  0
  1 20  1  0  0  0  0
  2 36  1  0  0  0  0
  3 21  1  0  0  0  0
  4 36  1  0  0  0  0
  5  6  1  0  0  0  0
  6  7  2  0  0  0  0
  7 12  1  0  0  0  0
  8  7  1  0  0  0  0
  8  9  1  0  0  0  0
 10  8  2  0  0  0  0
 11  5  2  0  0  0  0
 11 10  1  0  0  0  0
 12 13  1  0  0  0  0
 12 15  1  0  0  0  0
 14 12  1  0  0  0  0
 16 10  1  0  0  0  0
 16 18  1  0  0  0  0
 16 19  1  0  0  0  0
 17 16  1  0  0  0  0
 20  6  1  1  0  0  0
 20  3  1  0  0  0  0
 21 22  1  0  0  0  0
 23 21  1  0  0  0  0
 24 21  1  0  0  0  0
 24 25  1  1  0  0  0
 26 29  1  0  0  0  0
 26 30  1  0  0  0  0
 27 26  1  0  0  0  0
 28 26  1  0  0  0  0
 30 32  1  0  0  0  0
 30 24  1  0  0  0  0
 31 30  1  0  0  0  0
 32 33  1  0  0  0  0
 32 35  1  0  0  0  0
 34 32  1  0  0  0  0
 36 11  1  1  0  0  0
 37 40  1  0  0  0  0
 37  4  1  0  0  0  0
 37 39  1  0  0  0  0
 38 37  1  0  0  0  0
 40 41  1  6  0  0  0
 40  2  1  0  0  0  0
 40 46  1  0  0  0  0
 42 45  1  0  0  0  0
 42 43  1  0  0  0  0
 42 44  1  0  0  0  0
 46 47  1  0  0  0  0
 46 42  1  0  0  0  0
 48 46  1  0  0  0  0
 48 49  1  0  0  0  0
 50 48  1  0  0  0  0
 51 48  1  0  0  0  0
M  END
