1,2,3
q = -1.0, confidence = 0.12

 69 73  0  0  1  0  0  0  0  0999 V2000
    0.9235   -0.4618   -0.0606 N   0  0  0  0  0  2  0  0  0  0  0  0
    2.7532    1.4345    0.2277 N   0  0  0  0  0  2  0  0  0  0  0  0
    2.2776   -2.6665   -0.3761 C   0  0  0  0  0  2  0  0  0  0  0  0
    3.0508   -3.8309   -0.5437 C   0  0  0  0  0  0  0  0  0  0  0  0
    4.1469   -3.7457   -0.5266 H   0  0  0  0  0  0  0  0  0  0  0  0
    2.4330   -5.0779   -0.7294 C   0  0  0  0  0  0  0  0  0  0  0  0
    3.0573   -5.9763   -0.8586 H   0  0  0  0  0  0  0  0  0  0  0  0
    1.0304   -5.1967   -0.7529 C   0  0  0  0  0  0  0  0  0  0  0  0
    0.5584   -6.1796   -0.8997 H   0  0  0  0  0  0  0  0  0  0  0  0
    0.2384   -4.0558   -0.5888 C   0  0  0  0  0  0  0  0  0  0  0  0
   -0.8592   -4.1446   -0.6070 H   0  0  0  0  0  0  0  0  0  0  0  0
    0.8460   -2.7964   -0.4013 C   0  0  0  0  0  0  0  0  0  0  0  0
    0.1022   -1.5516   -0.2209 C   0  0  0  0  0  0  0  0  0  0  0  0
   -1.2875   -1.3654   -0.2031 C   0  0  0  0  0  0  0  0  0  0  0  0
   -1.9431   -2.2321   -0.3606 H   0  0  0  0  0  0  0  0  0  0  0  0
   -1.8448   -0.0814   -0.0242 C   0  0  0  0  0  0  0  0  0  0  0  0
   -3.3127    0.1233   -0.0034 C   0  0  0  0  0  0  0  0  0  0  0  0
   -4.1667   -0.8608    0.5346 C   0  0  0  0  0  0  0  0  0  0  0  0
   -3.7207   -1.7689    0.9665 H   0  0  0  0  0  0  0  0  0  0  0  0
   -5.5618   -0.6862    0.5656 C   0  0  0  0  0  0  0  0  0  0  0  0
   -6.0894    0.5089    0.0361 C   0  0  0  0  0  0  0  0  0  0  0  0
   -7.1744    0.6593    0.0514 H   0  0  0  0  0  0  0  0  0  0  0  0
   -5.2715    1.5168   -0.5132 C   0  0  0  0  0  0  0  0  0  0  0  0
   -3.8814    1.3046   -0.5217 C   0  0  0  0  0  0  0  0  0  0  0  0
   -3.2181    2.0574   -0.9733 H   0  0  0  0  0  0  0  0  0  0  0  0
   -6.4517   -1.7840    1.1777 C   0  0  0  0  0  0  0  0  0  0  0  0
   -6.0696   -1.9746    2.6633 C   0  0  0  0  0  0  0  0  0  0  0  0
   -6.6953   -2.7660    3.1252 H   0  0  0  0  0  0  0  0  0  0  0  0
   -6.2221   -1.0369    3.2350 H   0  0  0  0  0  0  0  0  0  0  0  0
   -5.0090   -2.2728    2.7816 H   0  0  0  0  0  0  0  0  0  0  0  0
   -6.2249   -3.1072    0.4114 C   0  0  0  0  0  0  0  0  0  0  0  0
   -6.4872   -2.9950   -0.6600 H   0  0  0  0  0  0  0  0  0  0  0  0
   -6.8553   -3.9142    0.8384 H   0  0  0  0  0  0  0  0  0  0  0  0
   -5.1700   -3.4415    0.4677 H   0  0  0  0  0  0  0  0  0  0  0  0
   -7.9472   -1.4310    1.1021 C   0  0  0  0  0  0  0  0  0  0  0  0
   -8.2885   -1.2987    0.0555 H   0  0  0  0  0  0  0  0  0  0  0  0
   -8.1825   -0.5039    1.6627 H   0  0  0  0  0  0  0  0  0  0  0  0
   -8.5477   -2.2495    1.5472 H   0  0  0  0  0  0  0  0  0  0  0  0
   -5.8460    2.8160   -1.1084 C   0  0  0  0  0  0  0  0  0  0  0  0
   -7.3780    2.8852   -0.9863 C   0  0  0  0  0  0  0  0  0  0  0  0
   -7.7106    2.8501    0.0707 H   0  0  0  0  0  0  0  0  0  0  0  0
   -7.8742    2.0581   -1.5327 H   0  0  0  0  0  0  0  0  0  0  0  0
   -7.7455    3.8369   -1.4199 H   0  0  0  0  0  0  0  0  0  0  0  0
   -5.2440    4.0276   -0.3608 C   0  0  0  0  0  0  0  0  0  0  0  0
   -5.4948    3.9922    0.7186 H   0  0  0  0  0  0  0  0  0  0  0  0
   -5.6423    4.9761   -0.7768 H   0  0  0  0  0  0  0  0  0  0  0  0
   -4.1399    4.0605   -0.4506 H   0  0  0  0  0  0  0  0  0  0  0  0
   -5.4717    2.8943   -2.6062 C   0  0  0  0  0  0  0  0  0  0  0  0
   -5.8713    3.8262   -3.0571 H   0  0  0  0  0  0  0  0  0  0  0  0
   -5.8915    2.0334   -3.1645 H   0  0  0  0  0  0  0  0  0  0  0  0
   -4.3740    2.8906   -2.7578 H   0  0  0  0  0  0  0  0  0  0  0  0
   -0.9568    1.0053    0.1360 C   0  0  0  0  0  0  0  0  0  0  0  0
   -1.3576    2.0115    0.3088 H   0  0  0  0  0  0  0  0  0  0  0  0
    0.4299    0.7936    0.1150 C   0  0  0  0  0  0  0  0  0  0  0  0
    1.4605    1.8368    0.2775 C   0  0  0  0  0  0  0  0  0  0  0  0
    1.0991    3.1992    0.4757 C   0  0  0  0  0  0  0  0  0  0  0  0
    0.0391    3.4806    0.5086 H   0  0  0  0  0  0  0  0  0  0  0  0
    2.0823    4.1554    0.6254 C   0  0  0  0  0  0  0  0  0  0  0  0
    1.8217    5.2137    0.7803 H   0  0  0  0  0  0  0  0  0  0  0  0
    3.4486    3.7696    0.5790 C   0  0  0  0  0  0  0  0  0  0  0  0
    4.5108    4.7046    0.7261 C   0  0  0  0  0  0  0  0  0  0  0  0
    4.2614    5.7655    0.8819 H   0  0  0  0  0  0  0  0  0  0  0  0
    5.8306    4.2827    0.6734 C   0  0  0  0  0  0  0  0  0  0  0  0
    6.6486    5.0097    0.7877 H   0  0  0  0  0  0  0  0  0  0  0  0
    6.1263    2.9089    0.4713 C   0  0  0  0  0  0  0  0  0  0  0  0
    7.1752    2.5783    0.4300 H   0  0  0  0  0  0  0  0  0  0  0  0
    5.1160    1.9689    0.3240 C   0  0  0  0  0  0  0  0  0  0  0  0
    5.3463    0.9021    0.1671 H   0  0  0  0  0  0  0  0  0  0  0  0
    3.7534    2.3725    0.3740 C   0  0  1  0  0  3  0  0  0  0  0  0
  1 54  1  0  0  0  0
  2 55  1  0  0  0  0
  4  5  1  0  0  0  0
  4  3  1  0  0  0  0
  6  4  2  0  0  0  0
  7  6  1  0  0  0  0
  8  6  1  0  0  0  0
  8 10  2  0  0  0  0
  9  8  1  0  0  0  0
 10 12  1  0  0  0  0
 11 10  1  0  0  0  0
 12  3  1  0  0  0  0
 12 13  2  0  0  0  0
 13 14  1  0  0  0  0
 13  1  1  0  0  0  0
 14 16  2  0  0  0  0
 15 14  1  0  0  0  0
 16 17  1  0  0  0  0
 16 52  1  0  0  0  0
 17 18  1  0  0  0  0
 18 20  2  0  0  0  0
 18 19  1  0  0  0  0
 20 26  1  0  0  0  0
 21 22  1  0  0  0  0
 21 20  1  0  0  0  0
 23 21  2  0  0  0  0
 24 23  1  0  0  0  0
 24 17  2  0  0  0  0
 25 24  1  0  0  0  0
 26 27  1  0  0  0  0
 27 30  1  0  0  0  0
 27 28  1  0  0  0  0
 27 29  1  0  0  0  0
 31 34  1  0  0  0  0
 31 33  1  0  0  0  0
 31 26  1  0  0  0  0
 32 31  1  0  0  0  0
 35 26  1  0  0  0  0
 35 38  1  0  0  0  0
 35 37  1  0  0  0  0
 36 35  1  0  0  0  0
 39 40  1  0  0  0  0
 39 23  1  0  0  0  0
 39 44  1  0  0  0  0
 40 41  1  0  0  0  0
 42 40  1  0  0  0  0
 43 40  1  0  0  0  0
 44 45  1  0  0  0  0
 46 44  1  0  0  0  0
 47 44  1  0  0  0  0
 48 39  1  0  0  0  0
 49 48  1  0  0  0  0
 50 48  1  0  0  0  0
 51 48  1  0  0  0  0
 52 53  1  0  0  0  0
 54 52  2  0  0  0  0
 54 55  1  0  0  0  0
 55 56  2  0  0  0  0
 56 57  1  0  0  0  0
 56 58  1  0  0  0  0
 58 59  1  0  0  0  0
 60 58  2  0  0  0  0
 60 61  1  0  0  0  0
 61 62  1  0  0  0  0
 63 61  2  0  0  0  0
 63 64  1  0  0  0  0
 65 63  1  0  0  0  0
 66 65  1  0  0  0  0
 67 69  1  0  0  0  0
 67 65  2  0  0  0  0
 68 67  1  0  0  0  0
 69  2  1  1  0  0  0
 69 60  1  0  0  0  0
M  END
