2,3,5
q = -1.0, confidence = 0.036

 35 37  0  0  0  0  0  0  0  0999 V2000
    3.1796    0.7975   -0.2764 N   0  0  0  0  0  2  0  0  0  0  0  0
    1.9447    1.1516   -0.2207 N   0  0  0  0  0  2  0  0  0  0  0  0
   -0.6974    1.6424   -0.0097 N   0  0  0  0  0  2  0  0  0  0  0  0
   -1.9266    1.9420    0.1374 N   0  0  0  0  0  2  0  0  0  0  0  0
    2.1023   -1.3838   -0.1568 C   0  0  0  0  0  3  0  0  0  0  0  0
    2.2682   -2.7772   -0.1529 C   0  0  0  0  0  0  0  0  0  0  0  0
    1.3888   -3.4267   -0.0371 H   0  0  0  0  0  0  0  0  0  0  0  0
    3.5477   -3.3465   -0.2983 C   0  0  0  0  0  0  0  0  0  0  0  0
    3.6466   -4.4435   -0.3071 H   0  0  0  0  0  0  0  0  0  0  0  0
    4.7019   -2.5462   -0.4313 C   0  0  0  0  0  0  0  0  0  0  0  0
    5.6906   -3.0169   -0.5365 H   0  0  0  0  0  0  0  0  0  0  0  0
    4.5824   -1.1573   -0.4269 C   0  0  0  0  0  0  0  0  0  0  0  0
    5.4560   -0.4959   -0.5186 H   0  0  0  0  0  0  0  0  0  0  0  0
    3.2974   -0.5733   -0.2981 C   0  0  0  0  0  0  0  0  0  0  0  0
    1.5875    2.4899   -0.0358 C   0  0  0  0  0  0  0  0  0  0  0  0
    2.5231    3.5436    0.0296 C   0  0  0  0  0  0  0  0  0  0  0  0
    3.5875    3.2995   -0.0862 H   0  0  0  0  0  0  0  0  0  0  0  0
    2.0727    4.8467    0.2435 C   0  0  0  0  0  0  0  0  0  0  0  0
    2.7973    5.6732    0.2931 H   0  0  0  0  0  0  0  0  0  0  0  0
    0.6927    5.1091    0.3964 C   0  0  0  0  0  0  0  0  0  0  0  0
    0.3477    6.1400    0.5661 H   0  0  0  0  0  0  0  0  0  0  0  0
   -0.2401    4.0728    0.3274 C   0  0  0  0  0  0  0  0  0  0  0  0
   -1.3184    4.2514    0.4308 H   0  0  0  0  0  0  0  0  0  0  0  0
    0.1948    2.7472    0.1145 C   0  0  0  0  0  0  0  0  0  0  0  0
   -2.9004    1.0295   -0.2457 C   0  0  0  0  0  0  0  0  0  0  0  0
   -2.7394    0.1298   -1.3297 C   0  0  0  0  0  0  0  0  0  0  0  0
   -1.7836    0.1029   -1.8718 H   0  0  0  0  0  0  0  0  0  0  0  0
   -3.8170   -0.6645   -1.7331 C   0  0  0  0  0  0  0  0  0  0  0  0
   -3.6964   -1.3493   -2.5854 H   0  0  0  0  0  0  0  0  0  0  0  0
   -5.0386   -0.6058   -1.0432 C   0  0  0  0  0  0  0  0  0  0  0  0
   -5.8772   -1.2450   -1.3580 H   0  0  0  0  0  0  0  0  0  0  0  0
   -5.1996    0.2795    0.0403 C   0  0  0  0  0  0  0  0  0  0  0  0
   -6.1590    0.3259    0.5766 H   0  0  0  0  0  0  0  0  0  0  0  0
   -4.1489    1.1158    0.4198 C   0  0  0  0  0  0  0  0  0  0  0  0
   -4.2523    1.8378    1.2425 H   0  0  0  0  0  0  0  0  0  0  0  0
  1  2  1  0  0  0  0
  2 15  1  0  0  0  0
  3 24  1  0  0  0  0
  3  4  1  0  0  0  0
  5  6  1  0  0  0  0
  6  7  1  0  0  0  0
  8  6  2  0  0  0  0
  9  8  1  0  0  0  0
 10 12  2  0  0  0  0
 10  8  1  0  0  0  0
 11 10  1  0  0  0  0
 12 14  1  0  0  0  0
 13 12  1  0  0  0  0
 14  1  1  0  0  0  0
 14  5  2  0  0  0  0
 15 16  2  0  0  0  0
 15 24  1  0  0  0  0
 16 18  1  0  0  0  0
 17 16  1  0  0  0  0
 18 19  1  0  0  0  0
 18 20  2  0  0  0  0
 20 21  1  0  0  0  0
 22 20  1  0  0  0  0
 22 23  1  0  0  0  0
 24 22  2  0  0  0  0
 25  4  1  0  0  0  0
 25 34  1  0  0  0  0
 26 25  2  0  0  0  0
 27 26  1  0  0  0  0
 28 26  1  0  0  0  0
 28 30  2  0  0  0  0
 29 28  1  0  0  0  0
 30 32  1  0  0  0  0
 31 30  1  0  0  0  0
 32 34  2  0  0  0  0
 32 33  1  0  0  0  0
 34 35  1  0  0  0  0
M  END
