3,4,40
q = -1.0, confidence = 0.024

 50 51  0  0  1  0  0  0  0  0999 V2000
    2.4332    2.2384    0.9366 O   0  0  0  0  0  0  0  0  0  0  0  0
   -1.9670    2.8743   -0.9306 O   0  0  0  0  0  0  0  0  0  0  0  0
    1.4822    0.4041    0.0552 N   0  0  0  0  0  2  0  0  0  0  0  0
   -1.3119    0.8044   -0.5191 N   0  0  0  0  0  2  0  0  0  0  0  0
    2.8070   -0.0623    0.5308 C   0  0  2  0  0  0  0  0  0  0  0  0
    2.6347   -0.9686    1.1470 H   0  0  0  0  0  0  0  0  0  0  0  0
    3.2715    1.1332    1.3875 C   0  0  0  0  0  0  0  0  0  0  0  0
    3.0673    0.9906    2.4678 H   0  0  0  0  0  0  0  0  0  0  0  0
    4.3256    1.4288    1.2390 H   0  0  0  0  0  0  0  0  0  0  0  0
    1.3919    1.6725    0.2964 C   0  0  2  0  0  3  0  0  0  0  0  0
    0.2989    2.6817   -0.0461 C   0  0  0  0  0  0  0  0  0  0  0  0
   -0.9911    2.0514   -0.5096 C   0  0  2  0  0  3  0  0  0  0  0  0
   -3.1636    2.0503   -1.1675 C   0  0  0  0  0  0  0  0  0  0  0  0
   -3.5316    2.2913   -2.1812 H   0  0  0  0  0  0  0  0  0  0  0  0
   -3.9193    2.3514   -0.4158 H   0  0  0  0  0  0  0  0  0  0  0  0
   -2.6780    0.5908   -1.0115 C   0  0  2  0  0  0  0  0  0  0  0  0
   -2.5786    0.0785   -1.9934 H   0  0  0  0  0  0  0  0  0  0  0  0
    3.7676   -0.4462   -0.6382 C   0  0  0  0  0  0  0  0  0  0  0  0
    4.0211    0.7578   -1.5624 C   0  0  0  0  0  0  0  0  0  0  0  0
    3.0766    1.1031   -2.0296 H   0  0  0  0  0  0  0  0  0  0  0  0
    4.7080    0.4690   -2.3834 H   0  0  0  0  0  0  0  0  0  0  0  0
    4.4837    1.6166   -1.0331 H   0  0  0  0  0  0  0  0  0  0  0  0
    5.0924   -0.9259   -0.0150 C   0  0  0  0  0  0  0  0  0  0  0  0
    5.6107   -0.1314    0.5614 H   0  0  0  0  0  0  0  0  0  0  0  0
    5.7879   -1.2568   -0.8124 H   0  0  0  0  0  0  0  0  0  0  0  0
    4.9236   -1.7880    0.6624 H   0  0  0  0  0  0  0  0  0  0  0  0
    3.1543   -1.5969   -1.4514 C   0  0  0  0  0  0  0  0  0  0  0  0
    2.8982   -2.4569   -0.8019 H   0  0  0  0  0  0  0  0  0  0  0  0
    3.8727   -1.9376   -2.2250 H   0  0  0  0  0  0  0  0  0  0  0  0
    2.2179   -1.2917   -1.9559 H   0  0  0  0  0  0  0  0  0  0  0  0
    0.8413    3.5964   -1.1776 C   0  0  0  0  0  0  0  0  0  0  0  0
    1.7724    4.0864   -0.8377 H   0  0  0  0  0  0  0  0  0  0  0  0
    0.0923    4.3723   -1.4238 H   0  0  0  0  0  0  0  0  0  0  0  0
    1.0617    3.0087   -2.0901 H   0  0  0  0  0  0  0  0  0  0  0  0
   -0.0330    3.5154    1.2220 C   0  0  0  0  0  0  0  0  0  0  0  0
   -0.3716    2.8398    2.0312 H   0  0  0  0  0  0  0  0  0  0  0  0
   -0.8308    4.2451    0.9888 H   0  0  0  0  0  0  0  0  0  0  0  0
    0.8708    4.0556    1.5568 H   0  0  0  0  0  0  0  0  0  0  0  0
   -3.3704   -0.4005   -0.0296 C   0  0  0  0  0  0  0  0  0  0  0  0
   -2.3489   -1.5604    0.2222 C   0  0  0  0  0  3  0  0  0  0  0  0
   -2.4085   -2.3284   -0.5722 H   0  0  0  0  0  0  0  0  0  0  0  0
   -2.4996   -2.0264    1.2142 H   0  0  0  0  0  0  0  0  0  0  0  0
   -3.7453    0.2891    1.2912 C   0  0  0  0  0  0  0  0  0  0  0  0
   -2.8580    0.7245    1.7912 H   0  0  0  0  0  0  0  0  0  0  0  0
   -4.1739   -0.4561    1.9900 H   0  0  0  0  0  0  0  0  0  0  0  0
   -4.5147    1.0756    1.1452 H   0  0  0  0  0  0  0  0  0  0  0  0
   -4.6311   -0.9779   -0.6968 C   0  0  0  0  0  0  0  0  0  0  0  0
   -5.3890   -0.1868   -0.8816 H   0  0  0  0  0  0  0  0  0  0  0  0
   -5.0996   -1.7392   -0.0416 H   0  0  0  0  0  0  0  0  0  0  0  0
   -4.3900   -1.4629   -1.6644 H   0  0  0  0  0  0  0  0  0  0  0  0
  1  7  1  0  0  0  0
  2 12  1  0  0  0  0
  3 10  1  0  0  0  0
  3  5  1  0  0  0  0
  4 12  1  0  0  0  0
  5  6  1  1  0  0  0
  5  7  1  0  0  0  0
  7  8  1  0  0  0  0
  9  7  1  0  0  0  0
 10 11  1  6  0  0  0
 10  1  1  0  0  0  0
 11 35  1  0  0  0  0
 12 11  1  1  0  0  0
 13 16  1  0  0  0  0
 13  2  1  0  0  0  0
 13 15  1  0  0  0  0
 14 13  1  0  0  0  0
 16 17  1  6  0  0  0
 16  4  1  0  0  0  0
 16 39  1  0  0  0  0
 18 23  1  0  0  0  0
 18  5  1  0  0  0  0
 19 22  1  0  0  0  0
 19 18  1  0  0  0  0
 20 19  1  0  0  0  0
 21 19  1  0  0  0  0
 23 24  1  0  0  0  0
 23 26  1  0  0  0  0
 25 23  1  0  0  0  0
 27 28  1  0  0  0  0
 27 18  1  0  0  0  0
 29 27  1  0  0  0  0
 30 27  1  0  0  0  0
 31 32  1  0  0  0  0
 31 11  1  0  0  0  0
 33 31  1  0  0  0  0
 34 31  1  0  0  0  0
 35 38  1  0  0  0  0
 35 36  1  0  0  0  0
 37 35  1  0  0  0  0
 39 40  1  0  0  0  0
 39 43  1  0  0  0  0
 40 42  1  0  0  0  0
 41 40  1  0  0  0  0
 43 44  1  0  0  0  0
 43 45  1  0  0  0  0
 46 43  1  0  0  0  0
 47 49  1  0  0  0  0
 47 39  1  0  0  0  0
 48 47  1  0  0  0  0
 50 47  1  0  0  0  0
M  END
