4,6,10
q = -1.0

 37 39  0  0  1  0  0  0  0  0999 V2000
    0.4492   -1.4375   -0.9630 S   0  0  0  0  0  0  0  0  0  0  0  0
    0.3356    1.5443   -0.9166 S   0  0  0  0  0  0  0  0  0  0  0  0
    1.8110    0.0759    1.2356 S   0  0  0  0  0  0  0  0  0  0  0  0
   -1.9660   -1.6764    0.3825 N   0  0  0  0  0  2  0  0  0  0  0  0
   -1.6719   -3.1730   -1.2346 N   0  0  0  0  0  0  0  0  0  0  0  0
   -2.1002    1.5387    0.4169 N   0  0  0  0  0  2  0  0  0  0  0  0
   -1.9270    3.0965   -1.1590 N   0  0  0  0  0  0  0  0  0  0  0  0
    3.0311    0.1992   -1.2299 N   0  0  0  0  0  0  0  0  0  0  0  0
    4.4817    0.0349    0.4709 N   0  0  0  0  0  0  0  0  0  0  0  0
    0.4176    0.0375    0.1198 C   0  0  2  0  0  3  0  0  0  0  0  0
   -1.1309   -2.1021   -0.5705 C   0  0  2  0  0  3  0  0  0  0  0  0
   -3.0725   -2.5001    0.3421 C   0  0  0  0  0  0  0  0  0  0  0  0
   -3.9150   -2.3622    1.0285 H   0  0  0  0  0  0  0  0  0  0  0  0
   -2.9095   -3.4404   -0.6531 C   0  0  0  0  0  0  0  0  0  0  0  0
   -3.5439   -4.2601   -1.0046 H   0  0  0  0  0  0  0  0  0  0  0  0
   -1.0332   -3.9032   -2.3121 C   0  0  0  0  0  0  0  0  0  0  0  0
   -0.4987   -3.1909   -2.9719 H   0  0  0  0  0  0  0  0  0  0  0  0
   -1.8013   -4.4345   -2.9039 H   0  0  0  0  0  0  0  0  0  0  0  0
   -0.2991   -4.6402   -1.9247 H   0  0  0  0  0  0  0  0  0  0  0  0
   -1.2992    2.0590   -0.5185 C   0  0  1  0  0  3  0  0  0  0  0  0
   -3.2732    2.2653    0.3891 C   0  0  0  0  0  0  0  0  0  0  0  0
   -4.1046    2.0381    1.0654 H   0  0  0  0  0  0  0  0  0  0  0  0
   -3.1860    3.2417   -0.5804 C   0  0  0  0  0  0  0  0  0  0  0  0
   -3.8864    4.0132   -0.9155 H   0  0  0  0  0  0  0  0  0  0  0  0
   -1.3480    3.9062   -2.2133 C   0  0  0  0  0  0  0  0  0  0  0  0
   -0.7463    3.2602   -2.8832 H   0  0  0  0  0  0  0  0  0  0  0  0
   -0.6864    4.6969   -1.8021 H   0  0  0  0  0  0  0  0  0  0  0  0
   -2.1561    4.3801   -2.8007 H   0  0  0  0  0  0  0  0  0  0  0  0
    3.1629    0.1088    0.0873 C   0  0  0  0  0  0  0  0  0  0  0  0
    4.3167    0.1916   -1.7282 C   0  0  0  0  0  0  0  0  0  0  0  0
    4.5160    0.2497   -2.8055 H   0  0  0  0  0  0  0  0  0  0  0  0
    5.2352    0.0961   -0.6973 C   0  0  0  0  0  0  0  0  0  0  0  0
    6.3296    0.0591   -0.6763 H   0  0  0  0  0  0  0  0  0  0  0  0
    4.9722   -0.0450    1.8320 C   0  0  0  0  0  0  0  0  0  0  0  0
    4.2720   -0.6509    2.4409 H   0  0  0  0  0  0  0  0  0  0  0  0
    5.0628    0.9595    2.2965 H   0  0  0  0  0  0  0  0  0  0  0  0
    5.9633   -0.5362    1.8436 H   0  0  0  0  0  0  0  0  0  0  0  0
  2 10  1  0  0  0  0
  5 14  1  0  0  0  0
  5 11  1  0  0  0  0
  7 23  1  0  0  0  0
  7 20  1  0  0  0  0
  8 29  2  0  0  0  0
  9 34  1  0  0  0  0
 10  1  1  6  0  0  0
 10  3  1  0  0  0  0
 11  1  1  1  0  0  0
 11  4  1  0  0  0  0
 12  4  1  0  0  0  0
 12 13  1  0  0  0  0
 14 12  2  0  0  0  0
 15 14  1  0  0  0  0
 16 19  1  0  0  0  0
 16  5  1  0  0  0  0
 17 16  1  0  0  0  0
 18 16  1  0  0  0  0
 20  2  1  1  0  0  0
 20  6  1  0  0  0  0
 21  6  1  0  0  0  0
 21 22  1  0  0  0  0
 23 21  2  0  0  0  0
 24 23  1  0  0  0  0
 25 27  1  0  0  0  0
 25  7  1  0  0  0  0
 26 25  1  0  0  0  0
 28 25  1  0  0  0  0
 29  9  1  0  0  0  0
 29  3  1  0  0  0  0
 30  8  1  0  0  0  0
 30 32  2  0  0  0  0
 31 30  1  0  0  0  0
 32 33  1  0  0  0  0
 32  9  1  0  0  0  0
 34 37  1  0  0  0  0
 34 36  1  0  0  0  0
 34 35  1  0  0  0  0
M  END
