1,2,3
q = -1.0, confidence = 0.036

 49 51  0  0  0  0  0  0  0  0999 V2000
    0.5293   -2.0615    0.0395 N   0  0  0  0  0  2  0  0  0  0  0  0
    0.4346    2.0667    0.0379 N   0  0  0  0  0  2  0  0  0  0  0  0
   -1.0295   -0.0328    0.0582 C   0  0  0  0  0  2  0  0  0  0  0  0
   -1.6963   -1.2761    0.0558 C   0  0  0  0  0  0  0  0  0  0  0  0
   -3.1104   -1.3004    0.0640 C   0  0  0  0  0  0  0  0  0  0  0  0
   -3.8560   -0.0997    0.0687 C   0  0  0  0  0  0  0  0  0  0  0  0
   -3.1623    1.1371    0.0625 C   0  0  0  0  0  0  0  0  0  0  0  0
   -1.7529    1.1815    0.0546 C   0  0  0  0  0  0  0  0  0  0  0  0
   -0.7557   -2.3716    0.0486 C   0  0  0  0  0  3  0  0  0  0  0  0
   -0.8624    2.3192    0.0465 C   0  0  0  0  0  0  0  0  0  0  0  0
   -5.3975   -0.0914    0.0766 C   0  0  0  0  0  0  0  0  0  0  0  0
   -5.9861   -1.5128    0.0833 C   0  0  0  0  0  0  0  0  0  0  0  0
   -5.9100    0.6395   -1.1853 C   0  0  0  0  0  0  0  0  0  0  0  0
   -5.8961    0.6455    1.3407 C   0  0  0  0  0  0  0  0  0  0  0  0
    1.5050   -3.0862   -0.0263 C   0  0  0  0  0  0  0  0  0  0  0  0
    2.6663   -2.9937    0.7692 C   0  0  0  0  0  0  0  0  0  0  0  0
    3.6106   -4.0268    0.7362 C   0  0  0  0  0  0  0  0  0  0  0  0
    3.4246   -5.1415   -0.0978 C   0  0  0  0  0  0  0  0  0  0  0  0
    2.2829   -5.2193   -0.9117 C   0  0  0  0  0  0  0  0  0  0  0  0
    1.3258   -4.1972   -0.8809 C   0  0  0  0  0  0  0  0  0  0  0  0
    1.3635    3.1343   -0.0274 C   0  0  0  0  0  0  0  0  0  0  0  0
    2.5258    3.0944    0.7709 C   0  0  0  0  0  0  0  0  0  0  0  0
    3.4230    4.1688    0.7388 C   0  0  0  0  0  0  0  0  0  0  0  0
    3.1893    5.2728   -0.0975 C   0  0  0  0  0  0  0  0  0  0  0  0
    2.0472    5.2985   -0.9142 C   0  0  0  0  0  0  0  0  0  0  0  0
    1.1365    4.2349   -0.8838 C   0  0  0  0  0  0  0  0  0  0  0  0
   -3.6285   -2.2696    0.0629 H   0  0  0  0  0  0  0  0  0  0  0  0
   -3.7313    2.0803    0.0600 H   0  0  0  0  0  0  0  0  0  0  0  0
   -1.0645   -3.4335    0.0729 H   0  0  0  0  0  0  0  0  0  0  0  0
   -1.2190    3.3661    0.0702 H   0  0  0  0  0  0  0  0  0  0  0  0
   -5.6758   -2.0850    0.9808 H   0  0  0  0  0  0  0  0  0  0  0  0
   -7.0932   -1.4588    0.0908 H   0  0  0  0  0  0  0  0  0  0  0  0
   -5.6883   -2.0884   -0.8163 H   0  0  0  0  0  0  0  0  0  0  0  0
   -5.5644    0.1290   -2.1069 H   0  0  0  0  0  0  0  0  0  0  0  0
   -7.0193    0.6599   -1.1972 H   0  0  0  0  0  0  0  0  0  0  0  0
   -5.5559    1.6887   -1.2283 H   0  0  0  0  0  0  0  0  0  0  0  0
   -5.5409    1.6947    1.3751 H   0  0  0  0  0  0  0  0  0  0  0  0
   -7.0052    0.6665    1.3643 H   0  0  0  0  0  0  0  0  0  0  0  0
   -5.5409    0.1391    2.2608 H   0  0  0  0  0  0  0  0  0  0  0  0
    2.8190   -2.0991    1.3865 H   0  0  0  0  0  0  0  0  0  0  0  0
    4.5117   -3.9514    1.3632 H   0  0  0  0  0  0  0  0  0  0  0  0
    4.1788   -5.9422   -0.1273 H   0  0  0  0  0  0  0  0  0  0  0  0
    2.1426   -6.0747   -1.5898 H   0  0  0  0  0  0  0  0  0  0  0  0
    0.4513   -4.2353   -1.5475 H   0  0  0  0  0  0  0  0  0  0  0  0
    2.7167    2.2083    1.3897 H   0  0  0  0  0  0  0  0  0  0  0  0
    4.3250    4.1346    1.3679 H   0  0  0  0  0  0  0  0  0  0  0  0
    3.9071    6.1063   -0.1266 H   0  0  0  0  0  0  0  0  0  0  0  0
    1.8706    6.1458   -1.5940 H   0  0  0  0  0  0  0  0  0  0  0  0
    0.2626    4.2329   -1.5523 H   0  0  0  0  0  0  0  0  0  0  0  0
  1  9  1  0  0  0  0
  2 10  1  0  0  0  0
  4  3  1  0  0  0  0
  4  5  2  0  0  0  0
  5  6  1  0  0  0  0
  6 11  1  0  0  0  0
  7  6  2  0  0  0  0
  8  3  1  0  0  0  0
  8  7  1  0  0  0  0
  9  4  1  0  0  0  0
  9 29  1  0  0  0  0
 10  8  2  0  0  0  0
 10 30  1  0  0  0  0
 11 12  1  0  0  0  0
 11 14  1  0  0  0  0
 12 32  1  0  0  0  0
 12 31  1  0  0  0  0
 13 11  1  0  0  0  0
 14 38  1  0  0  0  0
 14 37  1  0  0  0  0
 14 39  1  0  0  0  0
 15  1  1  0  0  0  0
 15 16  1  0  0  0  0
 16 40  1  0  0  0  0
 17 16  2  0  0  0  0
 17 41  1  0  0  0  0
 18 17  1  0  0  0  0
 19 20  1  0  0  0  0
 19 18  2  0  0  0  0
 20 15  2  0  0  0  0
 21  2  1  0  0  0  0
 21 22  1  0  0  0  0
 22 45  1  0  0  0  0
 23 22  2  0  0  0  0
 23 46  1  0  0  0  0
 24 23  1  0  0  0  0
 25 26  1  0  0  0  0
 25 24  2  0  0  0  0
 26 21  2  0  0  0  0
 27  5  1  0  0  0  0
 28  7  1  0  0  0  0
 33 12  1  0  0  0  0
 34 13  1  0  0  0  0
 35 13  1  0  0  0  0
 36 13  1  0  0  0  0
 42 18  1  0  0  0  0
 43 19  1  0  0  0  0
 44 20  1  0  0  0  0
 47 24  1  0  0  0  0
 48 25  1  0  0  0  0
 49 26  1  0  0  0  0
M  END
