1,2,14
q = -1.0, confidence = 0.0

 25 26  0  0  1  0  0  0  0  0999 V2000
   -1.0306   -1.5039   -0.0330 N   0  0  0  0  0  2  0  0  0  0  0  0
   -1.0307    1.5039   -0.0324 N   0  0  0  0  0  2  0  0  0  0  0  0
   -0.8342   -2.5626    0.7834 C   0  0  0  0  0  3  0  0  0  0  0  0
    0.1956   -2.7151    1.1386 H   0  0  0  0  0  0  0  0  0  0  0  0
   -1.8828   -3.4030    1.1701 C   0  0  0  0  0  0  0  0  0  0  0  0
   -1.6770   -4.2597    1.8269 H   0  0  0  0  0  0  0  0  0  0  0  0
   -3.1788   -3.1269    0.7103 C   0  0  0  0  0  0  0  0  0  0  0  0
   -4.0243   -3.7698    0.9979 H   0  0  0  0  0  0  0  0  0  0  0  0
   -3.3813   -2.0188   -0.1242 C   0  0  0  0  0  0  0  0  0  0  0  0
   -4.3808   -1.7650   -0.5056 H   0  0  0  0  0  0  0  0  0  0  0  0
   -2.2807   -1.2290   -0.4824 C   0  0  0  0  0  0  0  0  0  0  0  0
   -2.3458    0.0002   -1.3661 C   0  0  2  0  0  0  0  0  0  0  0  0
   -3.3035    0.0003   -1.9304 H   0  0  0  0  0  0  0  0  0  0  0  0
   -1.0932    0.0004   -2.2551 C   0  0  0  0  0  3  0  0  0  0  0  0
   -1.0854    0.8983   -2.9035 H   0  0  0  0  0  0  0  0  0  0  0  0
   -1.0853   -0.8974   -2.9037 H   0  0  0  0  0  0  0  0  0  0  0  0
   -2.2807    1.2291   -0.4820 C   0  0  1  0  0  3  0  0  0  0  0  0
   -3.3814    2.0188   -0.1235 C   0  0  0  0  0  0  0  0  0  0  0  0
   -4.3808    1.7652   -0.5051 H   0  0  0  0  0  0  0  0  0  0  0  0
   -3.1788    3.1267    0.7113 C   0  0  0  0  0  0  0  0  0  0  0  0
   -4.0243    3.7695    0.9991 H   0  0  0  0  0  0  0  0  0  0  0  0
   -1.8829    3.4025    1.1713 C   0  0  0  0  0  0  0  0  0  0  0  0
   -1.6771    4.2589    1.8284 H   0  0  0  0  0  0  0  0  0  0  0  0
   -0.8343    2.5622    0.7843 C   0  0  0  0  0  0  0  0  0  0  0  0
    0.1955    2.7147    1.1397 H   0  0  0  0  0  0  0  0  0  0  0  0
  1  3  1  0  0  0  0
  2 24  1  0  0  0  0
  3  4  1  0  0  0  0
  3  5  1  0  0  0  0
  5  6  1  0  0  0  0
  7  8  1  0  0  0  0
  7  5  2  0  0  0  0
  9  7  1  0  0  0  0
 10  9  1  0  0  0  0
 11  9  2  0  0  0  0
 11  1  1  0  0  0  0
 12 13  1  6  0  0  0
 12 11  1  0  0  0  0
 14 12  1  0  0  0  0
 15 14  1  0  0  0  0
 16 14  1  0  0  0  0
 17 12  1  1  0  0  0
 17 18  1  0  0  0  0
 17  2  1  0  0  0  0
 18 20  2  0  0  0  0
 19 18  1  0  0  0  0
 20 21  1  0  0  0  0
 20 22  1  0  0  0  0
 22 23  1  0  0  0  0
 24 25  1  0  0  0  0
 24 22  2  0  0  0  0
M  END
