1,3,5
q = -1.0

 31 33  0  0  0  0  0  0  0  0999 V2000
   -1.1777   -1.5838    1.0104 N   0  0  0  0  0  2  0  0  0  0  0  0
   -2.3469   -2.0804    0.5530 N   0  0  0  0  0  0  0  0  0  0  0  0
    0.0538    1.3353    1.1946 N   0  0  0  0  0  2  0  0  0  0  0  0
   -0.3659    2.5735    0.8601 N   0  0  0  0  0  0  0  0  0  0  0  0
   -1.7243    0.5138   -0.9059 C   0  0  0  0  0  3  0  0  0  0  0  0
   -2.8547   -0.3169   -1.1095 C   0  0  0  0  0  0  0  0  0  0  0  0
   -4.0824    0.2420   -1.5167 C   0  0  0  0  0  0  0  0  0  0  0  0
   -4.9460   -0.4211   -1.6839 H   0  0  0  0  0  0  0  0  0  0  0  0
   -4.2220    1.6225   -1.6908 C   0  0  0  0  0  0  0  0  0  0  0  0
   -5.1789    2.0495   -2.0233 H   0  0  0  0  0  0  0  0  0  0  0  0
   -3.1461    2.4557   -1.3685 C   0  0  0  0  0  0  0  0  0  0  0  0
   -3.2668    3.5495   -1.4183 H   0  0  0  0  0  0  0  0  0  0  0  0
   -1.9094    1.9183   -0.9593 C   0  0  0  0  0  0  0  0  0  0  0  0
   -2.8145   -1.7998   -0.8106 C   0  0  0  0  0  0  0  0  0  0  0  0
   -3.8294   -2.2306   -0.8794 H   0  0  0  0  0  0  0  0  0  0  0  0
   -2.1717   -2.3542   -1.5194 H   0  0  0  0  0  0  0  0  0  0  0  0
   -2.9649   -2.8266    1.5073 C   0  0  0  0  0  3  0  0  0  0  0  0
   -3.9302   -3.3062    1.3117 H   0  0  0  0  0  0  0  0  0  0  0  0
   -2.1513   -2.8182    2.6406 C   0  0  0  0  0  0  0  0  0  0  0  0
   -2.3396   -3.3132    3.5979 H   0  0  0  0  0  0  0  0  0  0  0  0
   -1.0469   -2.0232    2.2785 C   0  0  0  0  0  0  0  0  0  0  0  0
   -0.1765   -1.7408    2.8816 H   0  0  0  0  0  0  0  0  0  0  0  0
   -0.8368    2.8802   -0.4965 C   0  0  0  0  0  0  0  0  0  0  0  0
    0.0379    2.8921   -1.1730 H   0  0  0  0  0  0  0  0  0  0  0  0
   -1.2385    3.9084   -0.4549 H   0  0  0  0  0  0  0  0  0  0  0  0
   -0.2852    3.4179    1.9230 C   0  0  0  0  0  3  0  0  0  0  0  0
   -0.5898    4.4665    1.8352 H   0  0  0  0  0  0  0  0  0  0  0  0
    0.2172    2.6896    3.0018 C   0  0  0  0  0  0  0  0  0  0  0  0
    0.4062    3.0503    4.0173 H   0  0  0  0  0  0  0  0  0  0  0  0
    0.4087    1.3902    2.4942 C   0  0  0  0  0  0  0  0  0  0  0  0
    0.7692    0.4955    3.0140 H   0  0  0  0  0  0  0  0  0  0  0  0
  1 21  1  0  0  0  0
  2  1  1  0  0  0  0
  2 17  1  0  0  0  0
  3 30  1  0  0  0  0
  4  3  1  0  0  0  0
  4 26  1  0  0  0  0
  6  5  2  0  0  0  0
  6 14  1  0  0  0  0
  7  6  1  0  0  0  0
  8  7  1  0  0  0  0
  9  7  2  0  0  0  0
  9 11  1  0  0  0  0
 10  9  1  0  0  0  0
 11 13  2  0  0  0  0
 12 11  1  0  0  0  0
 13  5  1  0  0  0  0
 13 23  1  0  0  0  0
 14  2  1  0  0  0  0
 15 14  1  0  0  0  0
 16 14  1  0  0  0  0
 17 19  1  0  0  0  0
 18 17  1  0  0  0  0
 19 20  1  0  0  0  0
 21 19  2  0  0  0  0
 21 22  1  0  0  0  0
 23 25  1  0  0  0  0
 23  4  1  0  0  0  0
 24 23  1  0  0  0  0
 26 28  1  0  0  0  0
 27 26  1  0  0  0  0
 28 29  1  0  0  0  0
 30 28  2  0  0  0  0
 30 31  1  0  0  0  0
M  END
