1,2,5
q = -1.0

 83 90  0  0  1  0  0  0  0  0999 V2000
   -4.3082   -0.2006   -0.0870 N   0  0  0  0  0  2  0  0  0  0  0  0
   -5.0869   -2.6424   -0.6214 N   0  0  0  0  0  2  0  0  0  0  0  0
    3.6172    2.9229   -0.6467 N   0  0  0  0  0  0  0  0  0  0  0  0
    7.3061   -1.5610    0.3415 N   0  0  0  0  0  0  0  0  0  0  0  0
   -6.5190    0.9756    0.6294 C   0  0  0  0  0  2  0  0  0  0  0  0
   -7.7374    1.5689    1.0103 C   0  0  0  0  0  0  0  0  0  0  0  0
   -8.6495    0.9535    1.0047 H   0  0  0  0  0  0  0  0  0  0  0  0
   -7.7876    2.9201    1.3899 C   0  0  0  0  0  0  0  0  0  0  0  0
   -8.7509    3.3663    1.6846 H   0  0  0  0  0  0  0  0  0  0  0  0
   -6.6237    3.7125    1.3989 C   0  0  0  0  0  0  0  0  0  0  0  0
   -6.6755    4.7700    1.6983 H   0  0  0  0  0  0  0  0  0  0  0  0
   -5.3979    3.1499    1.0251 C   0  0  0  0  0  0  0  0  0  0  0  0
   -4.4873    3.7699    1.0319 H   0  0  0  0  0  0  0  0  0  0  0  0
   -5.3323    1.7943    0.6417 C   0  0  2  0  0  3  0  0  0  0  0  0
   -4.0972    1.1176    0.2339 C   0  0  0  0  0  0  0  0  0  0  0  0
   -2.7951    1.6291    0.1475 C   0  0  0  0  0  0  0  0  0  0  0  0
   -2.6161    2.6734    0.4357 H   0  0  0  0  0  0  0  0  0  0  0  0
   -1.7140    0.8131   -0.2646 C   0  0  0  0  0  0  0  0  0  0  0  0
   -1.9936   -0.5384   -0.5856 C   0  0  0  0  0  0  0  0  0  0  0  0
   -1.1904   -1.1953   -0.9434 H   0  0  0  0  0  0  0  0  0  0  0  0
   -3.3015   -1.0286   -0.4885 C   0  0  0  0  0  0  0  0  0  0  0  0
   -3.7466   -2.4062   -0.7931 C   0  0  0  0  0  0  0  0  0  0  0  0
   -2.8950   -3.4367   -1.2299 C   0  0  0  0  0  0  0  0  0  0  0  0
   -1.8224   -3.2425   -1.3656 H   0  0  0  0  0  0  0  0  0  0  0  0
   -3.4263   -4.7058   -1.4888 C   0  0  0  0  0  0  0  0  0  0  0  0
   -2.7697   -5.5192   -1.8314 H   0  0  0  0  0  0  0  0  0  0  0  0
   -4.8015   -4.9253   -1.3062 C   0  0  0  0  0  0  0  0  0  0  0  0
   -5.2552   -5.9078   -1.4989 H   0  0  0  0  0  0  0  0  0  0  0  0
   -5.5994   -3.8622   -0.8693 C   0  0  0  0  0  0  0  0  0  0  0  0
   -6.6867   -3.9469   -0.7000 H   0  0  0  0  0  0  0  0  0  0  0  0
   -0.3433    1.3504   -0.3582 C   0  0  0  0  0  0  0  0  0  0  0  0
   -0.0994    2.7185   -0.6353 C   0  0  0  0  0  0  0  0  0  0  0  0
   -0.9473    3.3916   -0.8323 H   0  0  0  0  0  0  0  0  0  0  0  0
    1.1904    3.2347   -0.7242 C   0  0  0  0  0  0  0  0  0  0  0  0
    1.3318    4.2940   -0.9780 H   0  0  0  0  0  0  0  0  0  0  0  0
    2.3294    2.4062   -0.5242 C   0  0  0  0  0  0  0  0  0  0  0  0
    2.0916    1.0327   -0.2478 C   0  0  0  0  0  0  0  0  0  0  0  0
    2.9284    0.3479   -0.0592 H   0  0  0  0  0  0  0  0  0  0  0  0
    0.7912    0.5284   -0.1758 C   0  0  0  0  0  0  0  0  0  0  0  0
    0.6579   -0.5343    0.0770 H   0  0  0  0  0  0  0  0  0  0  0  0
    4.6334    5.0047   -1.4677 C   0  0  0  0  0  0  0  0  0  0  0  0
    4.9880    4.4652   -2.3586 H   0  0  0  0  0  0  0  0  0  0  0  0
    4.9204    6.3676   -1.3063 C   0  0  0  0  0  0  0  0  0  0  0  0
    5.5137    6.8913   -2.0711 H   0  0  0  0  0  0  0  0  0  0  0  0
    4.4395    7.0661   -0.1876 C   0  0  0  0  0  0  0  0  0  0  0  0
    4.6601    8.1370   -0.0663 H   0  0  0  0  0  0  0  0  0  0  0  0
    3.6744    6.3879    0.7757 C   0  0  0  0  0  0  0  0  0  0  0  0
    3.2997    6.9246    1.6606 H   0  0  0  0  0  0  0  0  0  0  0  0
    3.3990    5.0221    0.6289 C   0  0  0  0  0  0  0  0  0  0  0  0
    2.8115    4.4849    1.3879 H   0  0  0  0  0  0  0  0  0  0  0  0
    3.8722    4.3183   -0.4995 C   0  0  0  0  0  0  0  0  0  0  0  0
    4.7790    2.0380   -0.6644 C   0  0  0  0  0  0  0  0  0  0  0  0
    4.4985    1.1089   -1.2007 H   0  0  0  0  0  0  0  0  0  0  0  0
    5.5708    2.5165   -1.2769 H   0  0  0  0  0  0  0  0  0  0  0  0
    5.3450    1.7367    0.7333 C   0  0  0  0  0  0  0  0  0  0  0  0
    4.5390    1.3201    1.3764 H   0  0  0  0  0  0  0  0  0  0  0  0
    5.6379    2.7005    1.1996 H   0  0  0  0  0  0  0  0  0  0  0  0
    6.5454    0.7855    0.7150 C   0  0  0  0  0  0  0  0  0  0  0  0
    7.3061    1.1418   -0.0137 H   0  0  0  0  0  0  0  0  0  0  0  0
    7.0447    0.7899    1.7060 H   0  0  0  0  0  0  0  0  0  0  0  0
    6.1705   -0.6652    0.3710 C   0  0  0  0  0  0  0  0  0  0  0  0
    5.6684   -0.7235   -0.6171 H   0  0  0  0  0  0  0  0  0  0  0  0
    5.4383   -1.0531    1.1108 H   0  0  0  0  0  0  0  0  0  0  0  0
    8.1182   -1.7942   -0.7658 C   0  0  0  0  0  0  0  0  0  0  0  0
    7.9948   -1.3121   -2.0803 C   0  0  0  0  0  0  0  0  0  0  0  0
    7.1782   -0.6351   -2.3717 H   0  0  0  0  0  0  0  0  0  0  0  0
    8.9555   -1.7192   -3.0171 C   0  0  0  0  0  0  0  0  0  0  0  0
    8.8813   -1.3562   -4.0534 H   0  0  0  0  0  0  0  0  0  0  0  0
   10.0160   -2.5809   -2.6573 C   0  0  0  0  0  0  0  0  0  0  0  0
   10.7527   -2.8792   -3.4177 H   0  0  0  0  0  0  0  0  0  0  0  0
   10.1396   -3.0540   -1.3443 C   0  0  0  0  0  0  0  0  0  0  0  0
   10.9685   -3.7224   -1.0661 H   0  0  0  0  0  0  0  0  0  0  0  0
    9.1909   -2.6618   -0.3823 C   0  0  0  0  0  0  0  0  0  0  0  0
    9.0127   -2.9398    1.0306 C   0  0  0  0  0  0  0  0  0  0  0  0
    9.7212   -3.7073    1.9731 C   0  0  0  0  0  0  0  0  0  0  0  0
   10.6230   -4.2618    1.6723 H   0  0  0  0  0  0  0  0  0  0  0  0
    9.2649   -3.7534    3.2969 C   0  0  0  0  0  0  0  0  0  0  0  0
    9.8115   -4.3485    4.0434 H   0  0  0  0  0  0  0  0  0  0  0  0
    8.1095   -3.0397    3.6873 C   0  0  0  0  0  0  0  0  0  0  0  0
    7.7722   -3.0871    4.7338 H   0  0  0  0  0  0  0  0  0  0  0  0
    7.3826   -2.2673    2.7702 C   0  0  0  0  0  0  0  0  0  0  0  0
    6.4886   -1.7114    3.0887 H   0  0  0  0  0  0  0  0  0  0  0  0
    7.8400   -2.2283    1.4418 C   0  0  0  0  0  0  0  0  0  0  0  0
  1 15  1  0  0  0  0
  3 36  1  0  0  0  0
  3 51  1  0  0  0  0
  4 61  1  0  0  0  0
  4 83  1  0  0  0  0
  5 14  1  0  0  0  0
  5  6  1  0  0  0  0
  6  8  2  0  0  0  0
  7  6  1  0  0  0  0
  8 10  1  0  0  0  0
  8  9  1  0  0  0  0
 10 11  1  0  0  0  0
 12 13  1  0  0  0  0
 12 10  2  0  0  0  0
 14 15  1  6  0  0  0
 14 12  1  0  0  0  0
 16 15  2  0  0  0  0
 16 17  1  0  0  0  0
 18 16  1  0  0  0  0
 19 21  1  0  0  0  0
 19 18  2  0  0  0  0
 20 19  1  0  0  0  0
 21  1  1  0  0  0  0
 22  2  1  0  0  0  0
 22 21  2  0  0  0  0
 23 22  1  0  0  0  0
 24 23  1  0  0  0  0
 25 27  1  0  0  0  0
 25 23  2  0  0  0  0
 26 25  1  0  0  0  0
 27 29  2  0  0  0  0
 28 27  1  0  0  0  0
 29 30  1  0  0  0  0
 29  2  1  0  0  0  0
 31 18  1  0  0  0  0
 31 39  1  0  0  0  0
 32 31  2  0  0  0  0
 33 32  1  0  0  0  0
 34 32  1  0  0  0  0
 34 36  2  0  0  0  0
 35 34  1  0  0  0  0
 36 37  1  0  0  0  0
 37 39  2  0  0  0  0
 37 38  1  0  0  0  0
 39 40  1  0  0  0  0
 41 43  2  0  0  0  0
 41 51  1  0  0  0  0
 42 41  1  0  0  0  0
 43 45  1  0  0  0  0
 44 43  1  0  0  0  0
 45 46  1  0  0  0  0
 45 47  2  0  0  0  0
 47 48  1  0  0  0  0
 49 47  1  0  0  0  0
 49 50  1  0  0  0  0
 51 49  2  0  0  0  0
 52  3  1  0  0  0  0
 52 55  1  0  0  0  0
 53 52  1  0  0  0  0
 54 52  1  0  0  0  0
 55 57  1  0  0  0  0
 55 56  1  0  0  0  0
 58 55  1  0  0  0  0
 58 60  1  0  0  0  0
 59 58  1  0  0  0  0
 61 58  1  0  0  0  0
 61 63  1  0  0  0  0
 62 61  1  0  0  0  0
 64 73  1  0  0  0  0
 64  4  1  0  0  0  0
 65 64  2  0  0  0  0
 66 65  1  0  0  0  0
 67 69  2  0  0  0  0
 67 65  1  0  0  0  0
 68 67  1  0  0  0  0
 69 71  1  0  0  0  0
 70 69  1  0  0  0  0
 71 72  1  0  0  0  0
 71 73  2  0  0  0  0
 73 74  1  0  0  0  0
 74 83  2  0  0  0  0
 74 75  1  0  0  0  0
 75 77  2  0  0  0  0
 76 75  1  0  0  0  0
 77 79  1  0  0  0  0
 77 78  1  0  0  0  0
 79 80  1  0  0  0  0
 81 82  1  0  0  0  0
 81 79  2  0  0  0  0
 83 81  1  0  0  0  0
M  END
