1,2,15
q = -1.0, confidence = 0.006

 38 40  0  0  0  0  0  0  0  0999 V2000
    1.4524   -2.1206    0.1358 N   0  0  0  0  0  2  0  0  0  0  0  0
    2.1352    0.4869    0.0026 N   0  0  0  0  0  2  0  0  0  0  0  0
    1.0317   -3.3721    0.3750 C   0  0  0  0  0  0  0  0  0  0  0  0
    1.9109   -4.4609    0.3266 C   0  0  0  0  0  0  0  0  0  0  0  0
    3.2591   -4.2167    0.0245 C   0  0  0  0  0  0  0  0  0  0  0  0
    3.6880   -2.9038   -0.2123 C   0  0  0  0  0  0  0  0  0  0  0  0
    2.7539   -1.8537   -0.1475 C   0  0  0  0  0  0  0  0  0  0  0  0
    3.1058   -0.4214   -0.3145 C   0  0  0  0  0  0  0  0  0  0  0  0
    4.3763    0.0168   -0.7151 C   0  0  0  0  0  0  0  0  0  0  0  0
    4.6313    1.3917   -0.7576 C   0  0  0  0  0  0  0  0  0  0  0  0
    3.6443    2.2909   -0.3380 C   0  0  0  0  0  0  0  0  0  0  0  0
    2.3816    1.8163    0.0677 C   0  0  0  0  0  0  0  0  0  0  0  0
    1.2941    2.7167    0.6749 C   0  0  0  0  0  0  0  0  0  0  0  0
    0.0000    2.6691   -0.1772 C   0  0  0  0  0  0  0  0  0  0  0  0
   -0.6903    1.4668   -0.4731 C   0  0  0  0  0  3  0  0  0  0  0  0
   -1.8954    1.4855   -1.1886 C   0  0  0  0  0  0  0  0  0  0  0  0
   -2.4457    2.6957   -1.6377 C   0  0  0  0  0  0  0  0  0  0  0  0
   -1.7793    3.8932   -1.3624 C   0  0  0  0  0  0  0  0  0  0  0  0
   -0.5779    3.8726   -0.6415 C   0  0  0  0  0  0  0  0  0  0  0  0
    0.9961    2.1997    2.1119 C   0  0  0  0  0  0  0  0  0  0  0  0
    1.8302    4.1506    0.8298 C   0  0  0  0  0  0  0  0  0  0  0  0
   -0.0433   -3.4676    0.6080 H   0  0  0  0  0  0  0  0  0  0  0  0
    1.5418   -5.4768    0.5252 H   0  0  0  0  0  0  0  0  0  0  0  0
    3.9807   -5.0458   -0.0191 H   0  0  0  0  0  0  0  0  0  0  0  0
    4.7450   -2.7011   -0.4290 H   0  0  0  0  0  0  0  0  0  0  0  0
    5.1545   -0.7047   -0.9949 H   0  0  0  0  0  0  0  0  0  0  0  0
    5.6107    1.7626   -1.0932 H   0  0  0  0  0  0  0  0  0  0  0  0
    3.8575    3.3654   -0.3176 H   0  0  0  0  0  0  0  0  0  0  0  0
   -2.4410    0.5555   -1.3983 H   0  0  0  0  0  0  0  0  0  0  0  0
   -3.3906    2.6896   -2.2009 H   0  0  0  0  0  0  0  0  0  0  0  0
   -2.1913    4.8545   -1.7030 H   0  0  0  0  0  0  0  0  0  0  0  0
   -0.0884    4.8310   -0.4292 H   0  0  0  0  0  0  0  0  0  0  0  0
    0.6384    1.1526    2.1208 H   0  0  0  0  0  0  0  0  0  0  0  0
    1.9045    2.2584    2.7442 H   0  0  0  0  0  0  0  0  0  0  0  0
    0.2077    2.8289    2.5677 H   0  0  0  0  0  0  0  0  0  0  0  0
    2.0650    4.6332   -0.1383 H   0  0  0  0  0  0  0  0  0  0  0  0
    1.0833    4.7786    1.3493 H   0  0  0  0  0  0  0  0  0  0  0  0
    2.7429    4.1562    1.4563 H   0  0  0  0  0  0  0  0  0  0  0  0
  1  3  1  0  0  0  0
  2 12  1  0  0  0  0
  3 22  1  0  0  0  0
  4  3  2  0  0  0  0
  4 23  1  0  0  0  0
  5  4  1  0  0  0  0
  6  7  1  0  0  0  0
  6  5  2  0  0  0  0
  7  1  1  0  0  0  0
  8  7  2  0  0  0  0
  8  2  1  0  0  0  0
  9  8  1  0  0  0  0
 10  9  2  0  0  0  0
 10 11  1  0  0  0  0
 11 28  1  0  0  0  0
 11 12  2  0  0  0  0
 12 13  1  0  0  0  0
 13 21  1  0  0  0  0
 13 20  1  0  0  0  0
 14 13  1  0  0  0  0
 15 14  1  0  0  0  0
 16 15  2  0  0  0  0
 17 18  2  0  0  0  0
 17 16  1  0  0  0  0
 18 19  1  0  0  0  0
 19 32  1  0  0  0  0
 19 14  2  0  0  0  0
 20 33  1  0  0  0  0
 20 35  1  0  0  0  0
 20 34  1  0  0  0  0
 21 37  1  0  0  0  0
 21 38  1  0  0  0  0
 24  5  1  0  0  0  0
 25  6  1  0  0  0  0
 26  9  1  0  0  0  0
 27 10  1  0  0  0  0
 29 16  1  0  0  0  0
 30 17  1  0  0  0  0
 31 18  1  0  0  0  0
 36 21  1  0  0  0  0
M  END
