2,15,49
q = -1.0, confidence = 0.086

 64 69  0  0  0  0  0  0  0  0999 V2000
    4.5287    3.9286   -0.7475 O   0  0  0  0  0  0  0  0  0  0  0  0
   -2.2251    0.6026    0.1439 N   0  0  0  0  0  2  0  0  0  0  0  0
   -2.5015   -0.6563    2.7459 C   0  0  0  0  0  0  0  0  0  0  0  0
   -1.5862   -0.9279    2.1724 H   0  0  0  0  0  0  0  0  0  0  0  0
   -2.7065   -1.5125    3.4209 H   0  0  0  0  0  0  0  0  0  0  0  0
   -1.9937    1.8805    0.2686 C   0  0  0  0  0  0  0  0  0  0  0  0
   -5.7953   -0.4291   -0.0697 C   0  0  0  0  0  0  0  0  0  0  0  0
   -6.6240   -0.4250   -0.7916 H   0  0  0  0  0  0  0  0  0  0  0  0
    4.3284    2.7218   -0.7114 C   0  0  0  0  0  0  0  0  0  0  0  0
    5.1063    2.0101   -1.1070 H   0  0  0  0  0  0  0  0  0  0  0  0
    1.7938    2.6531   -0.3177 C   0  0  0  0  0  0  0  0  0  0  0  0
   -0.6925    2.5115   -0.0887 C   0  0  0  0  0  0  0  0  0  0  0  0
   -0.7223    3.8991   -0.3051 C   0  0  0  0  0  3  0  0  0  0  0  0
   -1.6874    4.4195   -0.2874 H   0  0  0  0  0  0  0  0  0  0  0  0
    0.7116    0.4833   -0.1236 N   0  0  0  0  0  2  0  0  0  0  0  0
    1.6768    4.0559   -0.5355 C   0  0  0  0  0  0  0  0  0  0  0  0
    2.5999    4.6335   -0.6677 H   0  0  0  0  0  0  0  0  0  0  0  0
   -5.9919   -0.9840    1.2032 C   0  0  0  0  0  0  0  0  0  0  0  0
   -6.9751   -1.3951    1.4771 H   0  0  0  0  0  0  0  0  0  0  0  0
   -3.6588   -0.5352    1.7793 C   0  0  0  0  0  0  0  0  0  0  0  0
    6.7486   -1.5378    0.8889 C   0  0  0  0  0  0  0  0  0  0  0  0
    7.6712   -2.0990    1.1008 H   0  0  0  0  0  0  0  0  0  0  0  0
    0.4333    4.6620   -0.5543 C   0  0  0  0  0  0  0  0  0  0  0  0
    0.3450    5.7432   -0.7343 H   0  0  0  0  0  0  0  0  0  0  0  0
    3.0870    2.0187   -0.2685 C   0  0  0  0  0  0  0  0  0  0  0  0
    3.1541    0.6341    0.0047 C   0  0  0  0  0  0  0  0  0  0  0  0
    0.5952    1.8495   -0.1590 C   0  0  0  0  0  0  0  0  0  0  0  0
   -3.0720    2.7995    0.8075 C   0  0  0  0  0  0  0  0  0  0  0  0
   -3.5584    3.3608   -0.0177 H   0  0  0  0  0  0  0  0  0  0  0  0
   -2.6562    3.5392    1.5167 H   0  0  0  0  0  0  0  0  0  0  0  0
   -3.8602    2.2135    1.3106 H   0  0  0  0  0  0  0  0  0  0  0  0
    5.5147    0.5439    0.8584 C   0  0  0  0  0  0  0  0  0  0  0  0
    5.4519    1.6097    1.1218 H   0  0  0  0  0  0  0  0  0  0  0  0
    1.9585   -1.5345   -0.2643 C   0  0  0  0  0  0  0  0  0  0  0  0
   -5.3959    0.4843   -2.8528 C   0  0  0  0  0  0  0  0  0  0  0  0
   -6.3044    1.0457   -2.5519 H   0  0  0  0  0  0  0  0  0  0  0  0
   -5.6831   -0.5783   -2.9864 H   0  0  0  0  0  0  0  0  0  0  0  0
   -5.0794    0.8702   -3.8418 H   0  0  0  0  0  0  0  0  0  0  0  0
    1.9371   -0.1080   -0.0848 C   0  0  0  0  0  0  0  0  0  0  0  0
    6.6932   -0.1525    1.1289 C   0  0  0  0  0  0  0  0  0  0  0  0
    7.5601    0.3765    1.5510 H   0  0  0  0  0  0  0  0  0  0  0  0
    0.7070   -3.5203   -0.8597 C   0  0  0  0  0  0  0  0  0  0  0  0
   -0.2438   -4.0180   -1.0987 H   0  0  0  0  0  0  0  0  0  0  0  0
    3.1416   -3.6290   -0.5490 C   0  0  0  0  0  0  0  0  0  0  0  0
    4.0617   -4.2297   -0.5594 H   0  0  0  0  0  0  0  0  0  0  0  0
    5.6168   -2.2136    0.4279 C   0  0  0  0  0  0  0  0  0  0  0  0
    5.6610   -3.3041    0.3027 H   0  0  0  0  0  0  0  0  0  0  0  0
    4.3749   -0.1091    0.3207 C   0  0  0  0  0  3  0  0  0  0  0  0
    0.7076   -2.1518   -0.5607 C   0  0  0  0  0  3  0  0  0  0  0  0
   -4.9280   -1.0463    2.1099 C   0  0  0  0  0  0  0  0  0  0  0  0
   -5.0667   -1.5198    3.0948 H   0  0  0  0  0  0  0  0  0  0  0  0
    1.9200   -4.2413   -0.8564 C   0  0  0  0  0  0  0  0  0  0  0  0
    1.9068   -5.3153   -1.1009 H   0  0  0  0  0  0  0  0  0  0  0  0
   -3.5060    0.0725    0.5121 C   0  0  0  0  0  0  0  0  0  0  0  0
   -4.2658    0.6280   -1.8374 C   0  0  0  0  0  0  0  0  0  0  0  0
   -3.9590    1.6964   -1.7776 H   0  0  0  0  0  0  0  0  0  0  0  0
   -3.3646    0.0874   -2.2034 H   0  0  0  0  0  0  0  0  0  0  0  0
    3.1878   -2.2522   -0.2385 C   0  0  0  0  0  0  0  0  0  0  0  0
   -4.5500    0.1015   -0.4459 C   0  0  0  0  0  0  0  0  0  0  0  0
    4.4068   -1.5346    0.1539 C   0  0  0  0  0  0  0  0  0  0  0  0
   -2.2240    0.5941    3.5924 C   0  0  0  0  0  0  0  0  0  0  0  0
   -3.1273    0.9106    4.1533 H   0  0  0  0  0  0  0  0  0  0  0  0
   -1.8993    1.4523    2.9711 H   0  0  0  0  0  0  0  0  0  0  0  0
   -1.4174    0.3995    4.3280 H   0  0  0  0  0  0  0  0  0  0  0  0
  1  9  2  0  0  0  0
  2  6  1  0  0  0  0
  2 54  1  0  0  0  0
  3  5  1  0  0  0  0
  3 61  1  0  0  0  0
  4  3  1  0  0  0  0
  6 28  1  0  0  0  0
  7 18  1  0  0  0  0
  8  7  1  0  0  0  0
  9 25  1  0  0  0  0
 10  9  1  0  0  0  0
 11 25  1  0  0  0  0
 11 27  2  0  0  0  0
 12  6  2  0  0  0  0
 13 14  1  0  0  0  0
 13 12  1  0  0  0  0
 15 39  1  0  0  0  0
 16 11  1  0  0  0  0
 17 16  1  0  0  0  0
 18 19  1  0  0  0  0
 18 50  2  0  0  0  0
 20 50  1  0  0  0  0
 20  3  1  0  0  0  0
 21 22  1  0  0  0  0
 21 40  1  0  0  0  0
 23 16  2  0  0  0  0
 23 13  1  0  0  0  0
 24 23  1  0  0  0  0
 25 26  2  0  0  0  0
 26 48  1  0  0  0  0
 27 15  1  0  0  0  0
 27 12  1  0  0  0  0
 28 31  1  0  0  0  0
 28 30  1  0  0  0  0
 29 28  1  0  0  0  0
 32 33  1  0  0  0  0
 32 40  2  0  0  0  0
 34 58  1  0  0  0  0
 34 39  2  0  0  0  0
 35 36  1  0  0  0  0
 35 55  1  0  0  0  0
 37 35  1  0  0  0  0
 38 35  1  0  0  0  0
 39 26  1  0  0  0  0
 40 41  1  0  0  0  0
 42 52  1  0  0  0  0
 42 49  2  0  0  0  0
 43 42  1  0  0  0  0
 44 58  1  0  0  0  0
 45 44  1  0  0  0  0
 46 21  2  0  0  0  0
 47 46  1  0  0  0  0
 48 32  1  0  0  0  0
 49 34  1  0  0  0  0
 50 51  1  0  0  0  0
 52 44  2  0  0  0  0
 53 52  1  0  0  0  0
 54 20  2  0  0  0  0
 55 56  1  0  0  0  0
 55 59  1  0  0  0  0
 57 55  1  0  0  0  0
 58 60  2  0  0  0  0
 59  7  2  0  0  0  0
 59 54  1  0  0  0  0
 60 48  1  0  0  0  0
 60 46  1  0  0  0  0
 61 62  1  0  0  0  0
 61 64  1  0  0  0  0
 63 61  1  0  0  0  0
M  END
