1,3,5
q = -1.0, confidence = 0.112

 75 81  0  0  0  0  0  0  0  0999 V2000
   -0.5796    0.0580    0.0590 N   0  0  0  0  0  2  0  0  0  0  0  0
    4.4043   -1.4978    0.2098 N   0  0  0  0  0  0  0  0  0  0  0  0
   -3.2135   -1.2842    0.1174 N   0  0  0  0  0  2  0  0  0  0  0  0
    1.6834    0.9544    0.3522 C   0  0  0  0  0  0  0  0  0  0  0  0
   -1.6438    2.4225   -0.5732 C   0  0  0  0  0  3  0  0  0  0  0  0
    2.4523    2.1604    0.6768 C   0  0  0  0  0  3  0  0  0  0  0  0
   -6.5440   -0.9201    1.7483 C   0  0  0  0  0  0  0  0  0  0  0  0
   -6.9672   -0.5569    2.6978 H   0  0  0  0  0  0  0  0  0  0  0  0
    6.7037   -1.8563    0.8210 C   0  0  0  0  0  0  0  0  0  0  0  0
    1.8995    3.4563    0.4011 C   0  0  0  0  0  0  0  0  0  0  0  0
    0.2819    1.1100    0.1280 C   0  0  0  0  0  0  0  0  0  0  0  0
    5.7477   -1.5466   -0.1890 C   0  0  0  0  0  0  0  0  0  0  0  0
    1.3214   -1.4608    0.0932 C   0  0  0  0  0  0  0  0  0  0  0  0
    0.5302    3.5736   -0.1142 C   0  0  0  0  0  0  0  0  0  0  0  0
    1.8101   -2.7905   -0.0476 C   0  0  0  0  0  0  0  0  0  0  0  0
    2.8974   -2.9368   -0.0813 H   0  0  0  0  0  0  0  0  0  0  0  0
   -1.0067   -2.3660    0.1717 C   0  0  0  0  0  0  0  0  0  0  0  0
   -0.2794    2.4037   -0.1574 C   0  0  0  0  0  0  0  0  0  0  0  0
   -0.4442   -3.6471    0.0515 C   0  0  0  0  0  3  0  0  0  0  0  0
   -1.1066   -4.5216    0.0561 H   0  0  0  0  0  0  0  0  0  0  0  0
    2.2274   -0.3414    0.1866 C   0  0  0  0  0  0  0  0  0  0  0  0
   -1.3940    4.8139   -0.9533 C   0  0  0  0  0  0  0  0  0  0  0  0
   -1.8338    5.7706   -1.2777 H   0  0  0  0  0  0  0  0  0  0  0  0
   -2.1897    3.6488   -0.9738 C   0  0  0  0  0  0  0  0  0  0  0  0
   -3.2374    3.6876   -1.3052 H   0  0  0  0  0  0  0  0  0  0  0  0
    3.7113    2.0827    1.3287 C   0  0  0  0  0  0  0  0  0  0  0  0
    4.0850    1.1057    1.6649 H   0  0  0  0  0  0  0  0  0  0  0  0
   -4.6286   -1.3436    0.3392 C   0  0  0  0  0  0  0  0  0  0  0  0
    0.9382   -3.8639   -0.0938 C   0  0  0  0  0  0  0  0  0  0  0  0
    1.3218   -4.8874   -0.2142 H   0  0  0  0  0  0  0  0  0  0  0  0
    6.1433   -1.3891   -1.5494 C   0  0  0  0  0  0  0  0  0  0  0  0
   -5.1503   -0.8693    1.5653 C   0  0  0  0  0  0  0  0  0  0  0  0
   -2.4770   -2.3227    0.4022 C   0  0  0  0  0  0  0  0  0  0  0  0
    2.6846    4.5975    0.6890 C   0  0  0  0  0  0  0  0  0  0  0  0
    2.2767    5.5958    0.4796 H   0  0  0  0  0  0  0  0  0  0  0  0
    8.0565   -1.9615    0.4623 C   0  0  0  0  0  0  0  0  0  0  0  0
    8.7995   -2.1854    1.2437 H   0  0  0  0  0  0  0  0  0  0  0  0
   -0.1110   -1.2277    0.1210 C   0  0  0  0  0  0  0  0  0  0  0  0
   -0.0596    4.7879   -0.5298 C   0  0  0  0  0  0  0  0  0  0  0  0
    0.5230    5.7194   -0.5313 H   0  0  0  0  0  0  0  0  0  0  0  0
   -4.2312   -0.3135    2.6192 C   0  0  0  0  0  0  0  0  0  0  0  0
   -3.6475    0.5407    2.2100 H   0  0  0  0  0  0  0  0  0  0  0  0
   -3.4887   -1.0629    2.9677 H   0  0  0  0  0  0  0  0  0  0  0  0
   -4.7992    0.0395    3.5003 H   0  0  0  0  0  0  0  0  0  0  0  0
   -5.4584   -1.8161   -0.7031 C   0  0  0  0  0  0  0  0  0  0  0  0
    3.9511    4.4909    1.2665 C   0  0  0  0  0  0  0  0  0  0  0  0
    4.5317    5.4000    1.4837 H   0  0  0  0  0  0  0  0  0  0  0  0
   -7.3878   -1.4096    0.7425 C   0  0  0  0  0  0  0  0  0  0  0  0
   -8.4762   -1.4373    0.9019 H   0  0  0  0  0  0  0  0  0  0  0  0
   -6.8454   -1.8453   -0.4736 C   0  0  0  0  0  0  0  0  0  0  0  0
   -7.5073   -2.2043   -1.2770 H   0  0  0  0  0  0  0  0  0  0  0  0
    4.4597    3.2257    1.6124 C   0  0  0  0  0  0  0  0  0  0  0  0
    5.4294    3.1338    2.1234 H   0  0  0  0  0  0  0  0  0  0  0  0
    5.1438   -1.1376   -2.6546 C   0  0  0  0  0  0  0  0  0  0  0  0
    4.1874   -1.6698   -2.4800 H   0  0  0  0  0  0  0  0  0  0  0  0
    5.5503   -1.4748   -3.6276 H   0  0  0  0  0  0  0  0  0  0  0  0
    4.8948   -0.0616   -2.7645 H   0  0  0  0  0  0  0  0  0  0  0  0
    8.4630   -1.7989   -0.8701 C   0  0  0  0  0  0  0  0  0  0  0  0
    9.5250   -1.8981   -1.1404 H   0  0  0  0  0  0  0  0  0  0  0  0
   -4.8666   -2.1991   -2.0324 C   0  0  0  0  0  0  0  0  0  0  0  0
   -4.3853   -1.3074   -2.4883 H   0  0  0  0  0  0  0  0  0  0  0  0
   -5.6461   -2.5688   -2.7250 H   0  0  0  0  0  0  0  0  0  0  0  0
   -4.0854   -2.9828   -1.9453 H   0  0  0  0  0  0  0  0  0  0  0  0
    7.5093   -1.5290   -1.8599 C   0  0  0  0  0  0  0  0  0  0  0  0
    7.8243   -1.4285   -2.9106 H   0  0  0  0  0  0  0  0  0  0  0  0
   -3.1144   -3.5649    0.9923 C   0  0  0  0  0  0  0  0  0  0  0  0
   -4.0852   -3.3134    1.4546 H   0  0  0  0  0  0  0  0  0  0  0  0
   -2.4586   -4.0393    1.7450 H   0  0  0  0  0  0  0  0  0  0  0  0
   -3.3230   -4.3160    0.2013 H   0  0  0  0  0  0  0  0  0  0  0  0
    6.2455   -2.0292    2.2441 C   0  0  0  0  0  0  0  0  0  0  0  0
    5.9487   -1.0588    2.6978 H   0  0  0  0  0  0  0  0  0  0  0  0
    7.0426   -2.4658    2.8756 H   0  0  0  0  0  0  0  0  0  0  0  0
    5.3443   -2.6742    2.2908 H   0  0  0  0  0  0  0  0  0  0  0  0
    3.6750   -0.4656   -0.0528 C   0  0  0  0  0  0  0  0  0  0  0  0
    4.1276    0.4392   -0.5164 H   0  0  0  0  0  0  0  0  0  0  0  0
  1 38  1  0  0  0  0
  1 11  1  0  0  0  0
  3 28  1  0  0  0  0
  3 33  1  0  0  0  0
  4  6  1  0  0  0  0
  5 18  1  0  0  0  0
  6 26  1  0  0  0  0
  7  8  1  0  0  0  0
  9 70  1  0  0  0  0
 10  6  1  0  0  0  0
 10 34  1  0  0  0  0
 11  4  1  0  0  0  0
 12  2  1  0  0  0  0
 12  9  2  0  0  0  0
 13 38  2  0  0  0  0
 13 21  1  0  0  0  0
 14 10  2  0  0  0  0
 15 13  1  0  0  0  0
 16 15  1  0  0  0  0
 17 33  2  0  0  0  0
 18 14  1  0  0  0  0
 18 11  2  0  0  0  0
 19 20  1  0  0  0  0
 19 17  1  0  0  0  0
 21  4  2  0  0  0  0
 22 39  2  0  0  0  0
 23 22  1  0  0  0  0
 24 22  1  0  0  0  0
 24  5  2  0  0  0  0
 25 24  1  0  0  0  0
 26 52  2  0  0  0  0
 26 27  1  0  0  0  0
 28 32  2  0  0  0  0
 29 15  2  0  0  0  0
 29 19  1  0  0  0  0
 30 29  1  0  0  0  0
 31 12  1  0  0  0  0
 32  7  1  0  0  0  0
 32 41  1  0  0  0  0
 33 66  1  0  0  0  0
 34 46  2  0  0  0  0
 35 34  1  0  0  0  0
 36  9  1  0  0  0  0
 36 37  1  0  0  0  0
 38 17  1  0  0  0  0
 39 14  1  0  0  0  0
 40 39  1  0  0  0  0
 41 43  1  0  0  0  0
 41 44  1  0  0  0  0
 42 41  1  0  0  0  0
 45 50  2  0  0  0  0
 45 28  1  0  0  0  0
 46 47  1  0  0  0  0
 46 52  1  0  0  0  0
 48 49  1  0  0  0  0
 48  7  2  0  0  0  0
 50 48  1  0  0  0  0
 51 50  1  0  0  0  0
 52 53  1  0  0  0  0
 54 55  1  0  0  0  0
 54 31  1  0  0  0  0
 56 54  1  0  0  0  0
 57 54  1  0  0  0  0
 58 36  2  0  0  0  0
 59 58  1  0  0  0  0
 60 63  1  0  0  0  0
 60 45  1  0  0  0  0
 61 60  1  0  0  0  0
 62 60  1  0  0  0  0
 64 31  2  0  0  0  0
 64 58  1  0  0  0  0
 65 64  1  0  0  0  0
 66 67  1  0  0  0  0
 66 68  1  0  0  0  0
 69 66  1  0  0  0  0
 70 73  1  0  0  0  0
 70 71  1  0  0  0  0
 70 72  1  0  0  0  0
 74 21  1  0  0  0  0
 74  2  2  0  0  0  0
 75 74  1  0  0  0  0
M  END
