1,3,11
q = 0.0, confidence = 0.998

 29 31  0  0  0  0  0  0  0  0999 V2000
    1.9081   -0.6655   -0.0604 N   0  0  0  0  0  2  0  0  0  0  0  0
   -0.9594    1.9995   -0.4902 N   0  0  0  0  0  0  0  0  0  0  0  0
   -1.9081   -0.6656    0.0604 N   0  0  0  0  0  2  0  0  0  0  0  0
   -2.6869    0.3792   -0.3408 N   0  0  0  0  0  0  0  0  0  0  0  0
    2.6869    0.3793    0.3407 N   0  0  0  0  0  0  0  0  0  0  0  0
    0.9593    1.9995    0.4901 N   0  0  0  0  0  0  0  0  0  0  0  0
   -0.6117    3.3359   -0.3108 C   0  0  0  0  0  0  0  0  0  0  0  0
   -1.2434    4.1669   -0.6407 H   0  0  0  0  0  0  0  0  0  0  0  0
   -2.7332   -1.5379    0.6755 C   0  0  0  0  0  3  0  0  0  0  0  0
   -2.3123   -2.4642    1.0823 H   0  0  0  0  0  0  0  0  0  0  0  0
   -0.0000    1.1667   -0.0001 C   0  0  0  0  0  2  0  0  0  0  0  0
    2.7333   -1.5379   -0.6753 C   0  0  0  0  0  3  0  0  0  0  0  0
    2.3125   -2.4642   -1.0821 H   0  0  0  0  0  0  0  0  0  0  0  0
   -2.1309    1.4401   -1.1500 C   0  0  0  0  0  0  0  0  0  0  0  0
   -2.8993    2.2225   -1.2813 H   0  0  0  0  0  0  0  0  0  0  0  0
   -1.8370    1.0454   -2.1462 H   0  0  0  0  0  0  0  0  0  0  0  0
    0.6115    3.3360    0.3109 C   0  0  0  0  0  0  0  0  0  0  0  0
    1.2430    4.1669    0.6408 H   0  0  0  0  0  0  0  0  0  0  0  0
   -3.9944    0.1676   -0.0074 C   0  0  0  0  0  0  0  0  0  0  0  0
   -4.7715    0.8922   -0.2763 H   0  0  0  0  0  0  0  0  0  0  0  0
    2.1308    1.4402    1.1499 C   0  0  0  0  0  0  0  0  0  0  0  0
    2.8992    2.2227    1.2811 H   0  0  0  0  0  0  0  0  0  0  0  0
    1.8370    1.0456    2.1461 H   0  0  0  0  0  0  0  0  0  0  0  0
   -4.0578   -1.0555    0.6508 C   0  0  0  0  0  0  0  0  0  0  0  0
   -4.9480   -1.5395    1.0643 H   0  0  0  0  0  0  0  0  0  0  0  0
    4.0580   -1.0555   -0.6506 C   0  0  0  0  0  0  0  0  0  0  0  0
    4.9482   -1.5394   -1.0640 H   0  0  0  0  0  0  0  0  0  0  0  0
    3.9944    0.1677    0.0075 C   0  0  0  0  0  0  0  0  0  0  0  0
    4.7714    0.8924    0.2764 H   0  0  0  0  0  0  0  0  0  0  0  0
  1  5  1  0  0  0  0
  2  7  1  0  0  0  0
  2 11  1  0  0  0  0
  3  9  1  0  0  0  0
  4 19  1  0  0  0  0
  4  3  1  0  0  0  0
  5 21  1  0  0  0  0
  6 21  1  0  0  0  0
  7 17  2  0  0  0  0
  8  7  1  0  0  0  0
  9 10  1  0  0  0  0
 11  6  1  0  0  0  0
 12 26  1  0  0  0  0
 12  1  1  0  0  0  0
 13 12  1  0  0  0  0
 14  2  1  0  0  0  0
 14  4  1  0  0  0  0
 15 14  1  0  0  0  0
 16 14  1  0  0  0  0
 17  6  1  0  0  0  0
 17 18  1  0  0  0  0
 19 24  2  0  0  0  0
 20 19  1  0  0  0  0
 21 22  1  0  0  0  0
 21 23  1  0  0  0  0
 24  9  1  0  0  0  0
 24 25  1  0  0  0  0
 26 28  2  0  0  0  0
 27 26  1  0  0  0  0
 28 29  1  0  0  0  0
 28  5  1  0  0  0  0
M  END
