3,4,6
q = 0.0, confidence = 0.974

 41 45  0  0  0  0  0  0  0  0999 V2000
   -0.7475   -2.9255    1.4151 N   0  0  0  0  0  0  0  0  0  0  0  0
    1.3399   -2.3306    1.4749 N   0  0  0  0  0  0  0  0  0  0  0  0
   -2.2798   -1.7142    0.2953 N   0  0  0  0  0  2  0  0  0  0  0  0
   -2.4764    0.6749   -0.8321 N   0  0  0  0  0  2  0  0  0  0  0  0
    4.6612   -1.8534   -0.0200 N   0  0  0  0  0  0  0  0  0  0  0  0
    0.1170   -1.8576    1.0860 C   0  0  0  0  0  2  0  0  0  0  0  0
    1.2494   -3.6051    2.0424 C   0  0  0  0  0  0  0  0  0  0  0  0
    2.1308   -4.1303    2.4223 H   0  0  0  0  0  0  0  0  0  0  0  0
   -0.0625   -3.9816    2.0094 C   0  0  0  0  0  0  0  0  0  0  0  0
   -0.5530   -4.8935    2.3599 H   0  0  0  0  0  0  0  0  0  0  0  0
   -2.0826   -2.8276    1.0160 C   0  0  0  0  0  0  0  0  0  0  0  0
   -3.1398   -3.7256    1.2846 C   0  0  0  0  0  0  0  0  0  0  0  0
   -2.9667   -4.6381    1.8703 H   0  0  0  0  0  0  0  0  0  0  0  0
   -4.4119   -3.4161    0.8006 C   0  0  0  0  0  0  0  0  0  0  0  0
   -5.2502   -4.1015    0.9939 H   0  0  0  0  0  0  0  0  0  0  0  0
   -4.6442   -2.2075    0.0839 C   0  0  0  0  0  0  0  0  0  0  0  0
   -3.5187   -1.3657   -0.1228 C   0  0  0  0  0  0  0  0  0  0  0  0
   -3.6193   -0.0881   -0.7584 C   0  0  0  0  0  0  0  0  0  0  0  0
   -4.8864    0.3264   -1.2599 C   0  0  0  0  0  0  0  0  0  0  0  0
   -4.9404    1.5898   -1.9052 C   0  0  0  0  0  0  0  0  0  0  0  0
   -5.8940    1.9598   -2.3109 H   0  0  0  0  0  0  0  0  0  0  0  0
   -3.7751    2.3420   -2.0086 C   0  0  0  0  0  0  0  0  0  0  0  0
   -3.7748    3.3255   -2.4990 H   0  0  0  0  0  0  0  0  0  0  0  0
   -2.5676    1.8575   -1.4555 C   0  0  0  0  0  0  0  0  0  0  0  0
   -1.6545    2.4674   -1.4926 H   0  0  0  0  0  0  0  0  0  0  0  0
   -5.9100   -1.7571   -0.4263 C   0  0  0  0  0  0  0  0  0  0  0  0
   -6.7966   -2.3934   -0.2871 H   0  0  0  0  0  0  0  0  0  0  0  0
   -6.0193   -0.5463   -1.0779 C   0  0  0  0  0  0  0  0  0  0  0  0
   -6.9946   -0.2167   -1.4663 H   0  0  0  0  0  0  0  0  0  0  0  0
    2.6072   -1.6755    1.2114 C   0  0  0  0  0  0  0  0  0  0  0  0
    3.2421   -1.6941    2.1185 H   0  0  0  0  0  0  0  0  0  0  0  0
    2.3873   -0.6123    1.0109 H   0  0  0  0  0  0  0  0  0  0  0  0
    3.3802   -2.2571    0.0432 C   0  0  0  0  0  0  0  0  0  0  0  0
    2.8007   -3.1121   -0.9121 C   0  0  0  0  0  0  0  0  0  0  0  0
    1.7504   -3.4246   -0.8221 H   0  0  0  0  0  0  0  0  0  0  0  0
    3.5978   -3.5602   -1.9765 C   0  0  0  0  0  0  0  0  0  0  0  0
    3.1821   -4.2406   -2.7358 H   0  0  0  0  0  0  0  0  0  0  0  0
    4.9319   -3.1376   -2.0509 C   0  0  0  0  0  0  0  0  0  0  0  0
    5.5941   -3.4700   -2.8635 H   0  0  0  0  0  0  0  0  0  0  0  0
    5.4124   -2.2834   -1.0437 C   0  0  0  0  0  0  0  0  0  0  0  0
    6.4600   -1.9343   -1.0618 H   0  0  0  0  0  0  0  0  0  0  0  0
  1  9  1  0  0  0  0
  2  7  1  0  0  0  0
  3 11  1  0  0  0  0
  4 18  1  0  0  0  0
  5 33  1  0  0  0  0
  6  1  1  0  0  0  0
  6  2  1  0  0  0  0
  7  8  1  0  0  0  0
  9  7  2  0  0  0  0
  9 10  1  0  0  0  0
 11 12  2  0  0  0  0
 11  1  1  0  0  0  0
 12 13  1  0  0  0  0
 14 15  1  0  0  0  0
 14 12  1  0  0  0  0
 16 14  2  0  0  0  0
 17 16  1  0  0  0  0
 17  3  1  0  0  0  0
 18 17  2  0  0  0  0
 19 28  1  0  0  0  0
 19 18  1  0  0  0  0
 20 19  2  0  0  0  0
 21 20  1  0  0  0  0
 22 20  1  0  0  0  0
 22 24  2  0  0  0  0
 23 22  1  0  0  0  0
 24  4  1  0  0  0  0
 25 24  1  0  0  0  0
 26 27  1  0  0  0  0
 26 16  1  0  0  0  0
 28 26  2  0  0  0  0
 29 28  1  0  0  0  0
 30  2  1  0  0  0  0
 30 31  1  0  0  0  0
 32 30  1  0  0  0  0
 33 30  1  0  0  0  0
 34 35  1  0  0  0  0
 34 33  2  0  0  0  0
 36 34  1  0  0  0  0
 37 36  1  0  0  0  0
 38 36  2  0  0  0  0
 38 40  1  0  0  0  0
 39 38  1  0  0  0  0
 40  5  2  0  0  0  0
 41 40  1  0  0  0  0
M  END
