1,2,4
q = -1.0, confidence = 0.004

 29 31  0  0  0  0  0  0  0  0999 V2000
   -2.0241   -0.4556   -0.0002 N   0  0  0  0  0  2  0  0  0  0  0  0
    2.0241   -0.4556    0.0001 N   0  0  0  0  0  2  0  0  0  0  0  0
   -1.2393    1.7957   -0.0001 C   0  0  0  0  0  0  0  0  0  0  0  0
   -0.0000    1.1167   -0.0001 C   0  0  0  0  0  2  0  0  0  0  0  0
    1.2392    1.7957   -0.0001 C   0  0  0  0  0  0  0  0  0  0  0  0
    1.2294    3.2059   -0.0003 C   0  0  0  0  0  0  0  0  0  0  0  0
   -0.0000    3.8931   -0.0003 C   0  0  0  0  0  0  0  0  0  0  0  0
   -1.2294    3.2059   -0.0003 C   0  0  0  0  0  0  0  0  0  0  0  0
   -2.3845    0.8783    0.0001 C   0  0  0  0  0  0  0  0  0  0  0  0
   -3.7452    1.2316    0.0005 C   0  0  0  0  0  0  0  0  0  0  0  0
   -4.7233    0.2301    0.0007 C   0  0  0  0  0  0  0  0  0  0  0  0
   -4.3298   -1.1176    0.0004 C   0  0  0  0  0  0  0  0  0  0  0  0
   -2.9631   -1.4208   -0.0001 C   0  0  0  0  0  3  0  0  0  0  0  0
    2.3844    0.8783   -0.0000 C   0  0  0  0  0  0  0  0  0  0  0  0
    3.7452    1.2316    0.0002 C   0  0  0  0  0  0  0  0  0  0  0  0
    4.7233    0.2301    0.0005 C   0  0  0  0  0  0  0  0  0  0  0  0
    4.3298   -1.1175    0.0005 C   0  0  0  0  0  0  0  0  0  0  0  0
    2.9631   -1.4208    0.0003 C   0  0  0  0  0  0  0  0  0  0  0  0
    2.1695    3.7802   -0.0002 H   0  0  0  0  0  0  0  0  0  0  0  0
   -0.0000    4.9930   -0.0004 H   0  0  0  0  0  0  0  0  0  0  0  0
   -2.1695    3.7802   -0.0004 H   0  0  0  0  0  0  0  0  0  0  0  0
   -4.0254    2.2943    0.0006 H   0  0  0  0  0  0  0  0  0  0  0  0
   -5.7900    0.5004    0.0010 H   0  0  0  0  0  0  0  0  0  0  0  0
   -5.0671   -1.9325    0.0005 H   0  0  0  0  0  0  0  0  0  0  0  0
   -2.5642   -2.4498   -0.0004 H   0  0  0  0  0  0  0  0  0  0  0  0
    4.0254    2.2944    0.0002 H   0  0  0  0  0  0  0  0  0  0  0  0
    5.7900    0.5004    0.0007 H   0  0  0  0  0  0  0  0  0  0  0  0
    5.0671   -1.9324    0.0008 H   0  0  0  0  0  0  0  0  0  0  0  0
    2.5642   -2.4498    0.0004 H   0  0  0  0  0  0  0  0  0  0  0  0
  1 13  1  0  0  0  0
  1  9  1  0  0  0  0
  2 18  1  0  0  0  0
  3  4  1  0  0  0  0
  3  9  1  0  0  0  0
  5  4  1  0  0  0  0
  5 14  2  0  0  0  0
  6 19  1  0  0  0  0
  6  5  1  0  0  0  0
  7  8  1  0  0  0  0
  7  6  2  0  0  0  0
  8  3  2  0  0  0  0
  9 10  2  0  0  0  0
 10 22  1  0  0  0  0
 10 11  1  0  0  0  0
 11 23  1  0  0  0  0
 12 24  1  0  0  0  0
 12 11  2  0  0  0  0
 13 12  1  0  0  0  0
 14  2  1  0  0  0  0
 14 15  1  0  0  0  0
 15 26  1  0  0  0  0
 15 16  2  0  0  0  0
 16 17  1  0  0  0  0
 16 27  1  0  0  0  0
 17 28  1  0  0  0  0
 18 29  1  0  0  0  0
 18 17  2  0  0  0  0
 20  7  1  0  0  0  0
 21  8  1  0  0  0  0
 25 13  1  0  0  0  0
M  END
