2,4,5
q = -1.0, confidence = 0.06

 35 39  0  0  0  0  0  0  0  0999 V2000
    3.6846    2.1744    0.0001 N   0  0  0  0  0  0  0  0  0  0  0  0
    2.0239    0.5896    0.0003 N   0  0  0  0  0  0  0  0  0  0  0  0
   -3.6856    2.1730   -0.0002 N   0  0  0  0  0  0  0  0  0  0  0  0
   -2.0243    0.5889   -0.0003 N   0  0  0  0  0  0  0  0  0  0  0  0
   -0.0005    2.1884   -0.0000 C   0  0  0  0  0  3  0  0  0  0  0  0
    4.2475    0.9135    0.0001 C   0  0  0  0  0  0  0  0  0  0  0  0
    5.6026    0.5229    0.0001 C   0  0  0  0  0  0  0  0  0  0  0  0
    6.3925    1.2888    0.0000 H   0  0  0  0  0  0  0  0  0  0  0  0
    5.9047   -0.8445    0.0001 C   0  0  0  0  0  0  0  0  0  0  0  0
    6.9569   -1.1681    0.0001 H   0  0  0  0  0  0  0  0  0  0  0  0
    4.8819   -1.8266    0.0002 C   0  0  0  0  0  0  0  0  0  0  0  0
    5.1598   -2.8921    0.0003 H   0  0  0  0  0  0  0  0  0  0  0  0
    3.5265   -1.4701    0.0003 C   0  0  0  0  0  0  0  0  0  0  0  0
    2.7385   -2.2384    0.0004 H   0  0  0  0  0  0  0  0  0  0  0  0
    3.2154   -0.0967    0.0002 C   0  0  0  0  0  0  0  0  0  0  0  0
    2.3727    1.9464    0.0002 C   0  0  0  0  0  3  0  0  0  0  0  0
    1.2358    2.8690    0.0001 C   0  0  0  0  0  0  0  0  0  0  0  0
    1.2314    4.2801    0.0001 C   0  0  0  0  0  0  0  0  0  0  0  0
    2.1857    4.8280    0.0002 H   0  0  0  0  0  0  0  0  0  0  0  0
   -0.0010    4.9640   -0.0001 C   0  0  0  0  0  0  0  0  0  0  0  0
   -0.0012    6.0650   -0.0001 H   0  0  0  0  0  0  0  0  0  0  0  0
   -1.2332    4.2797   -0.0002 C   0  0  0  0  0  0  0  0  0  0  0  0
   -2.1877    4.8272   -0.0003 H   0  0  0  0  0  0  0  0  0  0  0  0
   -1.2371    2.8686   -0.0002 C   0  0  0  0  0  0  0  0  0  0  0  0
   -2.3736    1.9455   -0.0003 C   0  0  0  0  0  0  0  0  0  0  0  0
   -4.2480    0.9118   -0.0001 C   0  0  0  0  0  0  0  0  0  0  0  0
   -5.6030    0.5207   -0.0000 C   0  0  0  0  0  0  0  0  0  0  0  0
   -6.3932    1.2863    0.0000 H   0  0  0  0  0  0  0  0  0  0  0  0
   -5.9045   -0.8468   -0.0000 C   0  0  0  0  0  0  0  0  0  0  0  0
   -6.9566   -1.1709    0.0000 H   0  0  0  0  0  0  0  0  0  0  0  0
   -4.8813   -1.8285   -0.0001 C   0  0  0  0  0  0  0  0  0  0  0  0
   -5.1587   -2.8942   -0.0001 H   0  0  0  0  0  0  0  0  0  0  0  0
   -3.5261   -1.4714   -0.0002 C   0  0  0  0  0  3  0  0  0  0  0  0
   -2.7377   -2.2394   -0.0003 H   0  0  0  0  0  0  0  0  0  0  0  0
   -3.2155   -0.0979   -0.0002 C   0  0  0  0  0  0  0  0  0  0  0  0
  1  6  2  0  0  0  0
  1 16  1  0  0  0  0
  3 26  1  0  0  0  0
  4 25  1  0  0  0  0
  4 35  2  0  0  0  0
  5 17  1  0  0  0  0
  6 15  1  0  0  0  0
  7  9  2  0  0  0  0
  7  6  1  0  0  0  0
  8  7  1  0  0  0  0
  9 11  1  0  0  0  0
 10  9  1  0  0  0  0
 11 12  1  0  0  0  0
 11 13  2  0  0  0  0
 13 14  1  0  0  0  0
 15 13  1  0  0  0  0
 15  2  2  0  0  0  0
 16  2  1  0  0  0  0
 17 16  1  0  0  0  0
 18 17  2  0  0  0  0
 18 19  1  0  0  0  0
 20 18  1  0  0  0  0
 21 20  1  0  0  0  0
 22 24  1  0  0  0  0
 22 20  2  0  0  0  0
 23 22  1  0  0  0  0
 24  5  2  0  0  0  0
 25 24  1  0  0  0  0
 25  3  2  0  0  0  0
 26 27  2  0  0  0  0
 27 29  1  0  0  0  0
 27 28  1  0  0  0  0
 29 30  1  0  0  0  0
 31 29  2  0  0  0  0
 32 31  1  0  0  0  0
 33 35  1  0  0  0  0
 33 31  1  0  0  0  0
 34 33  1  0  0  0  0
 35 26  1  0  0  0  0
M  END
