3,4,15
q = -1.0

 22 23  0  0  1  0  0  0  0  0999 V2000
   -1.1916    0.0001   -2.9154 O   0  0  0  0  0  0  0  0  0  0  0  0
    1.1225    0.0001   -3.0573 O   0  0  0  0  0  0  0  0  0  0  0  0
   -1.9125    0.0001   -0.7456 N   0  0  0  0  0  2  0  0  0  0  0  0
   -0.9577   -0.0000    1.6439 N   0  0  0  0  0  2  0  0  0  0  0  0
   -2.2080    0.0001   -2.0760 C   0  0  1  0  0  3  0  0  0  0  0  0
   -3.5574    0.0002   -2.4922 C   0  0  0  0  0  0  0  0  0  0  0  0
   -4.5636    0.0002   -1.5186 C   0  0  0  0  0  0  0  0  0  0  0  0
   -4.2390    0.0001   -0.1496 C   0  0  0  0  0  0  0  0  0  0  0  0
   -2.8849    0.0001    0.2156 C   0  0  0  0  0  0  0  0  0  0  0  0
   -2.3301    0.0000    1.5784 C   0  0  2  0  0  3  0  0  0  0  0  0
   -3.1064    0.0000    2.7522 C   0  0  0  0  0  0  0  0  0  0  0  0
   -2.4748   -0.0000    3.9995 C   0  0  0  0  0  0  0  0  0  0  0  0
   -1.0708   -0.0001    4.0523 C   0  0  0  0  0  0  0  0  0  0  0  0
   -0.3543   -0.0001    2.8522 C   0  0  0  0  0  0  0  0  0  0  0  0
    0.2469    0.0001   -2.2500 C   0  0  0  0  0  3  0  0  0  0  0  0
   -3.7816    0.0002   -3.5670 H   0  0  0  0  0  0  0  0  0  0  0  0
   -5.6186    0.0002   -1.8290 H   0  0  0  0  0  0  0  0  0  0  0  0
   -5.0278    0.0001    0.6135 H   0  0  0  0  0  0  0  0  0  0  0  0
   -4.2026    0.0000    2.6815 H   0  0  0  0  0  0  0  0  0  0  0  0
   -3.0712   -0.0000    4.9234 H   0  0  0  0  0  0  0  0  0  0  0  0
   -0.5329   -0.0001    5.0105 H   0  0  0  0  0  0  0  0  0  0  0  0
    0.7466   -0.0001    2.8413 H   0  0  0  0  0  0  0  0  0  0  0  0
  1 15  1  0  0  0  0
  2 15  2  0  0  0  0
  3  9  1  0  0  0  0
  4 14  1  0  0  0  0
  5  1  1  6  0  0  0
  5  3  1  0  0  0  0
  6  5  1  0  0  0  0
  6  7  2  0  0  0  0
  7  8  1  0  0  0  0
  8  9  2  0  0  0  0
  8 18  1  0  0  0  0
 10  9  1  6  0  0  0
 10  4  1  0  0  0  0
 10 11  1  0  0  0  0
 11 12  2  0  0  0  0
 12 13  1  0  0  0  0
 12 20  1  0  0  0  0
 13 21  1  0  0  0  0
 14 13  2  0  0  0  0
 16  6  1  0  0  0  0
 17  7  1  0  0  0  0
 19 11  1  0  0  0  0
 22 14  1  0  0  0  0
M  END
