4,5,8
q = -2.0, confidence = 0.834

 44 46  0  0  1  0  0  0  0  0999 V2000
   -0.3401   -2.3439   -0.5772 S   0  0  0  0  0  0  0  0  0  0  0  0
    0.6581   -3.3735   -0.2074 O   0  0  0  0  0  0  0  0  0  0  0  0
   -1.1334   -2.5403   -1.8186 O   0  0  0  0  0  0  0  0  0  0  0  0
    0.2899    1.1560    1.1630 N   0  0  0  0  0  0  0  0  0  0  0  0
    0.3164   -0.7571   -0.6694 N   0  0  0  0  0  2  0  0  0  0  0  0
    1.5975    0.6411    0.7562 C   0  0  1  0  0  3  0  0  0  0  0  0
    1.5350   -0.4777   -0.0598 C   0  0  2  0  0  3  0  0  0  0  0  0
   -1.8616   -0.7342    1.0034 C   0  0  0  0  0  3  0  0  0  0  0  0
   -1.4390   -2.0625    0.8162 C   0  0  0  0  0  0  0  0  0  0  0  0
   -1.7919   -3.1147    1.6713 C   0  0  0  0  0  0  0  0  0  0  0  0
   -2.6223   -2.8354    2.7637 C   0  0  0  0  0  0  0  0  0  0  0  0
   -3.0725   -1.5189    3.0089 C   0  0  0  0  0  0  0  0  0  0  0  0
   -2.6764   -0.4871    2.1277 C   0  0  0  0  0  0  0  0  0  0  0  0
   -3.9607   -1.2267    4.1931 C   0  0  0  0  0  0  0  0  0  0  0  0
    2.7664    1.4304    1.1500 C   0  0  0  0  0  0  0  0  0  0  0  0
    2.7604    2.1778    2.3578 C   0  0  0  0  0  0  0  0  0  0  0  0
    3.8508    2.9798    2.7241 C   0  0  0  0  0  0  0  0  0  0  0  0
    4.9811    3.0591    1.8978 C   0  0  0  0  0  0  0  0  0  0  0  0
    5.0012    2.3328    0.6925 C   0  0  0  0  0  0  0  0  0  0  0  0
    3.9137    1.5394    0.3183 C   0  0  0  0  0  0  0  0  0  0  0  0
    2.7059   -1.3201   -0.3970 C   0  0  0  0  0  0  0  0  0  0  0  0
    3.6584   -1.6749    0.5820 C   0  0  0  0  0  0  0  0  0  0  0  0
    4.7683   -2.4554    0.2397 C   0  0  0  0  0  0  0  0  0  0  0  0
    4.9409   -2.8969   -1.0834 C   0  0  0  0  0  0  0  0  0  0  0  0
    3.9891   -2.5623   -2.0601 C   0  0  0  0  0  0  0  0  0  0  0  0
    2.8754   -1.7850   -1.7193 C   0  0  0  0  0  0  0  0  0  0  0  0
    0.3394    2.1709    1.3307 H   0  0  0  0  0  0  0  0  0  0  0  0
   -0.0422    0.7209    2.0386 H   0  0  0  0  0  0  0  0  0  0  0  0
   -1.4019   -4.1275    1.4866 H   0  0  0  0  0  0  0  0  0  0  0  0
   -2.9149   -3.6470    3.4486 H   0  0  0  0  0  0  0  0  0  0  0  0
   -3.0236    0.5388    2.3382 H   0  0  0  0  0  0  0  0  0  0  0  0
   -4.9507   -1.7180    4.0819 H   0  0  0  0  0  0  0  0  0  0  0  0
   -3.5200   -1.6098    5.1368 H   0  0  0  0  0  0  0  0  0  0  0  0
   -4.1376   -0.1402    4.3142 H   0  0  0  0  0  0  0  0  0  0  0  0
    1.8996    2.1061    3.0415 H   0  0  0  0  0  0  0  0  0  0  0  0
    3.8187    3.5391    3.6719 H   0  0  0  0  0  0  0  0  0  0  0  0
    5.8385    3.6860    2.1849 H   0  0  0  0  0  0  0  0  0  0  0  0
    5.8748    2.3989    0.0258 H   0  0  0  0  0  0  0  0  0  0  0  0
    3.9336    0.9993   -0.6384 H   0  0  0  0  0  0  0  0  0  0  0  0
    3.5108   -1.3395    1.6188 H   0  0  0  0  0  0  0  0  0  0  0  0
    5.5011   -2.7317    1.0130 H   0  0  0  0  0  0  0  0  0  0  0  0
    5.8133   -3.5129   -1.3502 H   0  0  0  0  0  0  0  0  0  0  0  0
    4.1126   -2.9160   -3.0950 H   0  0  0  0  0  0  0  0  0  0  0  0
    2.1157   -1.5277   -2.4721 H   0  0  0  0  0  0  0  0  0  0  0  0
  1  2  2  0  0  0  0
  1  9  1  0  0  0  0
  3  1  2  0  0  0  0
  4 27  1  0  0  0  0
  4 28  1  0  0  0  0
  5  1  1  0  0  0  0
  6 15  1  0  0  0  0
  6  4  1  6  0  0  0
  7  5  1  6  0  0  0
  7  6  1  0  0  0  0
  8 13  1  0  0  0  0
  9  8  2  0  0  0  0
  9 10  1  0  0  0  0
 10 11  2  0  0  0  0
 11 12  1  0  0  0  0
 11 30  1  0  0  0  0
 12 14  1  0  0  0  0
 13 31  1  0  0  0  0
 13 12  2  0  0  0  0
 14 34  1  0  0  0  0
 14 33  1  0  0  0  0
 15 16  1  0  0  0  0
 16 17  2  0  0  0  0
 16 35  1  0  0  0  0
 17 36  1  0  0  0  0
 18 37  1  0  0  0  0
 18 17  1  0  0  0  0
 19 18  2  0  0  0  0
 20 19  1  0  0  0  0
 20 15  2  0  0  0  0
 21  7  1  0  0  0  0
 21 22  1  0  0  0  0
 22 40  1  0  0  0  0
 23 22  2  0  0  0  0
 23 41  1  0  0  0  0
 24 23  1  0  0  0  0
 25 26  1  0  0  0  0
 25 24  2  0  0  0  0
 26 21  2  0  0  0  0
 29 10  1  0  0  0  0
 32 14  1  0  0  0  0
 38 19  1  0  0  0  0
 39 20  1  0  0  0  0
 42 24  1  0  0  0  0
 43 25  1  0  0  0  0
 44 26  1  0  0  0  0
M  END
