3,4,11
q = -1.0

 30 32  0  0  1  0  0  0  0  0999 V2000
   -3.7807    3.1988    0.1955 F   0  0  0  0  0  0  0  0  0  0  0  0
   -4.7588   -1.4054    0.1529 F   0  0  0  0  0  0  0  0  0  0  0  0
    0.3964    2.0184   -0.4609 N   0  0  0  0  0  2  0  0  0  0  0  0
   -0.3974   -1.9491   -0.5069 N   0  0  0  0  0  2  0  0  0  0  0  0
   -2.1094   -3.3498   -0.3472 N   0  0  0  0  0  0  0  0  0  0  0  0
    1.5051    2.7772   -0.5937 C   0  0  0  0  0  3  0  0  0  0  0  0
    1.4706    4.1714   -0.5379 C   0  0  0  0  0  0  0  0  0  0  0  0
    0.2348    4.8081   -0.3367 C   0  0  0  0  0  0  0  0  0  0  0  0
   -0.9185    4.0312   -0.1984 C   0  0  0  0  0  0  0  0  0  0  0  0
   -0.8356    2.6259   -0.2601 C   0  0  0  0  0  0  0  0  0  0  0  0
   -1.5493    0.3277   -0.2368 C   0  0  0  0  0  3  0  0  0  0  0  0
   -1.9470    1.6861   -0.1295 C   0  0  0  0  0  0  0  0  0  0  0  0
   -3.3171    1.9346    0.0807 C   0  0  0  0  0  0  0  0  0  0  0  0
   -4.2463    0.8902    0.1772 C   0  0  0  0  0  0  0  0  0  0  0  0
   -3.8131   -0.4397    0.0570 C   0  0  0  0  0  0  0  0  0  0  0  0
   -2.4627   -0.7680   -0.1551 C   0  0  0  0  0  0  0  0  0  0  0  0
   -1.7470   -2.0269   -0.3214 C   0  0  2  0  0  3  0  0  0  0  0  0
   -0.9624   -4.1036   -0.5500 C   0  0  0  0  0  0  0  0  0  0  0  0
    0.0944   -3.2194   -0.6467 C   0  0  0  0  0  0  0  0  0  0  0  0
   -3.4438   -3.9115   -0.2056 C   0  0  0  0  0  0  0  0  0  0  0  0
    2.4414    2.2234   -0.7515 H   0  0  0  0  0  0  0  0  0  0  0  0
    2.4025    4.7420   -0.6528 H   0  0  0  0  0  0  0  0  0  0  0  0
    0.1704    5.9052   -0.2886 H   0  0  0  0  0  0  0  0  0  0  0  0
   -1.9014    4.4911   -0.0411 H   0  0  0  0  0  0  0  0  0  0  0  0
   -5.3090    1.1078    0.3415 H   0  0  0  0  0  0  0  0  0  0  0  0
   -1.0030   -5.1950   -0.6089 H   0  0  0  0  0  0  0  0  0  0  0  0
    1.1588   -3.4112   -0.8100 H   0  0  0  0  0  0  0  0  0  0  0  0
   -3.8809   -3.6466    0.7750 H   0  0  0  0  0  0  0  0  0  0  0  0
   -3.3685   -5.0105   -0.2860 H   0  0  0  0  0  0  0  0  0  0  0  0
   -4.1151   -3.5336   -0.9990 H   0  0  0  0  0  0  0  0  0  0  0  0
  3 10  1  0  0  0  0
  4 17  1  0  0  0  0
  5 17  1  0  0  0  0
  5 20  1  0  0  0  0
  6  7  1  0  0  0  0
  6  3  1  0  0  0  0
  7  8  2  0  0  0  0
  8 23  1  0  0  0  0
  8  9  1  0  0  0  0
  9 24  1  0  0  0  0
 10  9  2  0  0  0  0
 10 12  1  0  0  0  0
 11 16  2  0  0  0  0
 11 12  1  0  0  0  0
 12 13  2  0  0  0  0
 13 14  1  0  0  0  0
 13  1  1  0  0  0  0
 14 25  1  0  0  0  0
 15  2  1  0  0  0  0
 15 14  2  0  0  0  0
 16 15  1  0  0  0  0
 17 16  1  6  0  0  0
 18  5  1  0  0  0  0
 19 18  2  0  0  0  0
 19  4  1  0  0  0  0
 20 28  1  0  0  0  0
 21  6  1  0  0  0  0
 22  7  1  0  0  0  0
 26 18  1  0  0  0  0
 27 19  1  0  0  0  0
 29 20  1  0  0  0  0
 30 20  1  0  0  0  0
M  END
