1,9,17
q = -1.0

 24 25  0  0  1  0  0  0  0  0999 V2000
   -0.4779    0.0001    1.7711 C   0  0  0  0  0  3  0  0  0  0  0  0
   -0.4401   -0.9051    2.4109 H   0  0  0  0  0  0  0  0  0  0  0  0
   -0.4402    0.9054    2.4107 H   0  0  0  0  0  0  0  0  0  0  0  0
   -1.7919   -0.0000    0.9644 C   0  0  2  0  0  0  0  0  0  0  0  0
   -3.0666   -0.0001    1.7958 C   0  0  0  0  0  0  0  0  0  0  0  0
   -3.0771   -0.8965    2.4430 H   0  0  0  0  0  0  0  0  0  0  0  0
   -3.0772    0.8964    2.4429 H   0  0  0  0  0  0  0  0  0  0  0  0
   -3.9871   -0.0002    1.1782 H   0  0  0  0  0  0  0  0  0  0  0  0
   -0.5420   -1.4357   -0.5004 N   0  0  0  0  0  2  0  0  0  0  0  0
   -1.7400   -1.1891    0.0770 N   0  0  0  0  0  0  0  0  0  0  0  0
   -2.7050   -2.0128   -0.4275 C   0  0  0  0  0  3  0  0  0  0  0  0
   -3.7442   -1.9631   -0.0887 H   0  0  0  0  0  0  0  0  0  0  0  0
   -2.0798   -2.8433   -1.3571 C   0  0  0  0  0  0  0  0  0  0  0  0
   -2.5457   -3.6420   -1.9430 H   0  0  0  0  0  0  0  0  0  0  0  0
   -0.7226   -2.4350   -1.3696 C   0  0  0  0  0  0  0  0  0  0  0  0
    0.1297   -2.7920   -1.9594 H   0  0  0  0  0  0  0  0  0  0  0  0
   -0.5422    1.4356   -0.5007 N   0  0  0  0  0  2  0  0  0  0  0  0
   -1.7401    1.1889    0.0768 N   0  0  0  0  0  0  0  0  0  0  0  0
   -2.7052    2.0125   -0.4275 C   0  0  0  0  0  3  0  0  0  0  0  0
   -3.7444    1.9628   -0.0887 H   0  0  0  0  0  0  0  0  0  0  0  0
   -2.0801    2.8432   -1.3571 C   0  0  0  0  0  0  0  0  0  0  0  0
   -2.5461    3.6420   -1.9428 H   0  0  0  0  0  0  0  0  0  0  0  0
   -0.7230    2.4348   -1.3699 C   0  0  0  0  0  0  0  0  0  0  0  0
    0.1293    2.7918   -1.9598 H   0  0  0  0  0  0  0  0  0  0  0  0
  1  3  1  0  0  0  0
  1  2  1  0  0  0  0
  4  1  1  1  0  0  0
  4  5  1  0  0  0  0
  5  7  1  0  0  0  0
  5  6  1  0  0  0  0
  8  5  1  0  0  0  0
  9 10  1  0  0  0  0
 10  4  1  0  0  0  0
 11 12  1  0  0  0  0
 11 10  1  0  0  0  0
 13 11  1  0  0  0  0
 14 13  1  0  0  0  0
 15 13  2  0  0  0  0
 15  9  1  0  0  0  0
 16 15  1  0  0  0  0
 17 18  1  0  0  0  0
 18  4  1  0  0  0  0
 19 20  1  0  0  0  0
 19 18  1  0  0  0  0
 21 19  1  0  0  0  0
 22 21  1  0  0  0  0
 23 21  2  0  0  0  0
 23 17  1  0  0  0  0
 24 23  1  0  0  0  0
M  END
