25,27,29
q = -1.0

 30 33  0  0  0  0  0  0  0  0999 V2000
   -2.7682   -0.6743    2.5354 C   0  0  0  0  0  3  0  0  0  0  0  0
   -1.9083   -1.2653    2.8869 H   0  0  0  0  0  0  0  0  0  0  0  0
   -3.9484   -0.5355    3.2987 C   0  0  0  0  0  0  0  0  0  0  0  0
   -3.9993   -1.0280    4.2798 H   0  0  0  0  0  0  0  0  0  0  0  0
   -5.0441    0.1988    2.8164 C   0  0  0  0  0  0  0  0  0  0  0  0
   -5.9653    0.2849    3.4120 H   0  0  0  0  0  0  0  0  0  0  0  0
   -4.9289    0.8072    1.5495 C   0  0  0  0  0  0  0  0  0  0  0  0
   -5.7273    1.5919    0.6416 C   0  0  0  0  0  0  0  0  0  0  0  0
   -6.7560    1.9370    0.7910 H   0  0  0  0  0  0  0  0  0  0  0  0
   -4.9557    1.8168   -0.4885 C   0  0  0  0  0  0  0  0  0  0  0  0
   -5.2018    2.3594   -1.4081 H   0  0  0  0  0  0  0  0  0  0  0  0
   -3.6850    0.6085    0.8858 C   0  0  0  0  0  0  0  0  0  0  0  0
    0.8420    1.8419    1.1682 C   0  0  0  0  0  3  0  0  0  0  0  0
    1.3035    0.9713    1.6545 H   0  0  0  0  0  0  0  0  0  0  0  0
    1.3311    3.1539    1.3502 C   0  0  0  0  0  0  0  0  0  0  0  0
    2.2017    3.2900    2.0064 H   0  0  0  0  0  0  0  0  0  0  0  0
    0.7492    4.2535    0.6995 C   0  0  0  0  0  0  0  0  0  0  0  0
    1.1566    5.2654    0.8421 H   0  0  0  0  0  0  0  0  0  0  0  0
   -0.3618    4.0171   -0.1376 C   0  0  0  0  0  0  0  0  0  0  0  0
   -1.2720    4.7454   -0.9880 C   0  0  0  0  0  0  0  0  0  0  0  0
   -1.2732    5.8226   -1.1863 H   0  0  0  0  0  0  0  0  0  0  0  0
   -2.1494    3.8213   -1.5373 C   0  0  0  0  0  0  0  0  0  0  0  0
   -2.9838    3.9727   -2.2311 H   0  0  0  0  0  0  0  0  0  0  0  0
   -0.7674    2.6598   -0.2437 C   0  0  0  0  0  0  0  0  0  0  0  0
   -2.5172    1.2481   -1.1852 C   0  0  0  0  0  3  0  0  0  0  0  0
   -2.7883    1.0311   -2.2360 H   0  0  0  0  0  0  0  0  0  0  0  0
   -2.6393   -0.1010    1.3259 N   0  0  0  0  0  2  0  0  0  0  0  0
   -3.7064    1.2167   -0.3405 N   0  0  0  0  0  0  0  0  0  0  0  0
   -0.2056    1.5989    0.3569 N   0  0  0  0  0  2  0  0  0  0  0  0
   -1.8321    2.5399   -1.0848 N   0  0  0  0  0  0  0  0  0  0  0  0
  1  2  1  0  0  0  0
  1  3  1  0  0  0  0
  3  4  1  0  0  0  0
  5  3  2  0  0  0  0
  5  6  1  0  0  0  0
  7  5  1  0  0  0  0
  8  9  1  0  0  0  0
  8  7  1  0  0  0  0
 10 28  1  0  0  0  0
 10  8  2  0  0  0  0
 11 10  1  0  0  0  0
 12 27  1  0  0  0  0
 12  7  2  0  0  0  0
 13 15  1  0  0  0  0
 13 14  1  0  0  0  0
 15 16  1  0  0  0  0
 17 18  1  0  0  0  0
 17 15  2  0  0  0  0
 19 17  1  0  0  0  0
 20 19  1  0  0  0  0
 21 20  1  0  0  0  0
 22 30  1  0  0  0  0
 22 20  2  0  0  0  0
 23 22  1  0  0  0  0
 24 19  2  0  0  0  0
 24 29  1  0  0  0  0
 25 30  1  0  0  0  0
 25 28  1  0  0  0  0
 26 25  1  0  0  0  0
 27  1  1  0  0  0  0
 28 12  1  0  0  0  0
 29 13  1  0  0  0  0
 30 24  1  0  0  0  0
M  END
