1,2,31
q = -1.0

 48 51  0  0  0  0  0  0  0  0999 V2000
   -1.9699    2.2945   -0.8618 N   0  0  0  0  0  2  0  0  0  0  0  0
   -3.1649    0.0517   -0.0556 N   0  0  0  0  0  2  0  0  0  0  0  0
    0.2213   -1.7470    1.0525 N   0  0  0  0  0  2  0  0  0  0  0  0
   -1.2705    3.3470   -1.3133 C   0  0  0  0  0  0  0  0  0  0  0  0
   -0.2633    3.1032   -1.6933 H   0  0  0  0  0  0  0  0  0  0  0  0
   -1.7894    4.6472   -1.2786 C   0  0  0  0  0  0  0  0  0  0  0  0
   -1.1924    5.4904   -1.6540 H   0  0  0  0  0  0  0  0  0  0  0  0
   -3.0767    4.8395   -0.7509 C   0  0  0  0  0  0  0  0  0  0  0  0
   -3.5182    5.8461   -0.7053 H   0  0  0  0  0  0  0  0  0  0  0  0
   -3.7970    3.7372   -0.2752 C   0  0  0  0  0  0  0  0  0  0  0  0
   -4.8025    3.8761    0.1440 H   0  0  0  0  0  0  0  0  0  0  0  0
   -3.2135    2.4564   -0.3404 C   0  0  0  0  0  0  0  0  0  0  0  0
   -3.8766    1.2120    0.1168 C   0  0  0  0  0  0  0  0  0  0  0  0
   -5.1697    1.1935    0.6624 C   0  0  0  0  0  0  0  0  0  0  0  0
   -5.7250    2.1298    0.8020 H   0  0  0  0  0  0  0  0  0  0  0  0
   -5.7369   -0.0311    1.0321 C   0  0  0  0  0  0  0  0  0  0  0  0
   -6.7310   -0.0668    1.5007 H   0  0  0  0  0  0  0  0  0  0  0  0
   -5.0281   -1.2093    0.7820 C   0  0  0  0  0  0  0  0  0  0  0  0
   -5.4524   -2.1840    1.0551 H   0  0  0  0  0  0  0  0  0  0  0  0
   -3.7458   -1.1563    0.1912 C   0  0  0  0  0  0  0  0  0  0  0  0
   -3.0465   -2.4003   -0.2127 C   0  0  0  0  0  0  0  0  0  0  0  0
   -3.8339   -3.5023   -0.6247 C   0  0  0  0  0  0  0  0  0  0  0  0
   -4.9279   -3.3974   -0.6669 H   0  0  0  0  0  0  0  0  0  0  0  0
   -3.2507   -4.7075   -1.0277 C   0  0  0  0  0  0  0  0  0  0  0  0
   -3.8879   -5.5363   -1.3699 H   0  0  0  0  0  0  0  0  0  0  0  0
   -1.8529   -4.8450   -1.0027 C   0  0  0  0  0  0  0  0  0  0  0  0
   -1.3820   -5.7904   -1.3123 H   0  0  0  0  0  0  0  0  0  0  0  0
   -1.0586   -3.7736   -0.5828 C   0  0  0  0  0  0  0  0  0  0  0  0
    0.0363   -3.8625   -0.5372 H   0  0  0  0  0  0  0  0  0  0  0  0
   -1.6309   -2.5413   -0.2008 C   0  0  0  0  0  0  0  0  0  0  0  0
   -0.7125   -1.4526    0.2336 C   0  0  0  0  0  2  0  0  0  0  0  0
    1.1940   -0.9748    1.6786 C   0  0  0  0  0  0  0  0  0  0  0  0
    2.5517   -1.3706    1.5029 C   0  0  0  0  0  0  0  0  0  0  0  0
    3.5572   -0.6702    2.1874 C   0  0  0  0  0  0  0  0  0  0  0  0
    4.6085   -0.9489    2.0175 H   0  0  0  0  0  0  0  0  0  0  0  0
    3.2384    0.3709    3.0706 C   0  0  0  0  0  0  0  0  0  0  0  0
    4.0381    0.9080    3.6021 H   0  0  0  0  0  0  0  0  0  0  0  0
    1.8965    0.7221    3.2706 C   0  0  0  0  0  0  0  0  0  0  0  0
    1.6384    1.5266    3.9781 H   0  0  0  0  0  0  0  0  0  0  0  0
    0.8539    0.0706    2.5858 C   0  0  0  0  0  0  0  0  0  0  0  0
    2.8728   -2.5221    0.5913 C   0  0  0  0  0  0  0  0  0  0  0  0
    3.9547   -2.7534    0.6056 H   0  0  0  0  0  0  0  0  0  0  0  0
    2.5885   -2.2910   -0.4564 H   0  0  0  0  0  0  0  0  0  0  0  0
    2.3034   -3.4274    0.8905 H   0  0  0  0  0  0  0  0  0  0  0  0
   -0.5820    0.4472    2.8405 C   0  0  0  0  0  0  0  0  0  0  0  0
   -0.6657    1.1232    3.7134 H   0  0  0  0  0  0  0  0  0  0  0  0
   -1.2119   -0.4481    3.0265 H   0  0  0  0  0  0  0  0  0  0  0  0
   -1.0276    0.9611    1.9597 H   0  0  0  0  0  0  0  0  0  0  0  0
  1 12  1  0  0  0  0
  2 13  1  0  0  0  0
  2 20  1  0  0  0  0
  3 32  1  0  0  0  0
  4  6  2  0  0  0  0
  4  1  1  0  0  0  0
  5  4  1  0  0  0  0
  6  8  1  0  0  0  0
  7  6  1  0  0  0  0
  8  9  1  0  0  0  0
  8 10  2  0  0  0  0
 10 11  1  0  0  0  0
 12 10  1  0  0  0  0
 12 13  2  0  0  0  0
 13 14  1  0  0  0  0
 14 15  1  0  0  0  0
 14 16  2  0  0  0  0
 16 17  1  0  0  0  0
 18 16  1  0  0  0  0
 18 19  1  0  0  0  0
 20 18  2  0  0  0  0
 21 30  1  0  0  0  0
 21 20  1  0  0  0  0
 22 21  2  0  0  0  0
 23 22  1  0  0  0  0
 24 26  2  0  0  0  0
 24 22  1  0  0  0  0
 25 24  1  0  0  0  0
 26 28  1  0  0  0  0
 27 26  1  0  0  0  0
 28 29  1  0  0  0  0
 28 30  2  0  0  0  0
 30 31  1  0  0  0  0
 31  3  1  0  0  0  0
 32 40  1  0  0  0  0
 33 32  2  0  0  0  0
 33 34  1  0  0  0  0
 34 36  2  0  0  0  0
 35 34  1  0  0  0  0
 36 38  1  0  0  0  0
 36 37  1  0  0  0  0
 38 39  1  0  0  0  0
 40 45  1  0  0  0  0
 40 38  2  0  0  0  0
 41 42  1  0  0  0  0
 41 44  1  0  0  0  0
 41 33  1  0  0  0  0
 43 41  1  0  0  0  0
 45 47  1  0  0  0  0
 45 46  1  0  0  0  0
 48 45  1  0  0  0  0
M  END
