1,2,3
q = -1.0

 43 45  0  0  1  0  0  0  0  0999 V2000
   -1.3075    1.1290   -0.5325 N   0  0  0  0  0  2  0  0  0  0  0  0
    1.2591    0.8794    0.3067 N   0  0  0  0  0  2  0  0  0  0  0  0
   -2.2085   -1.2955    0.0749 C   0  0  0  0  0  2  0  0  0  0  0  0
   -2.7174   -2.5824    0.3391 C   0  0  0  0  0  0  0  0  0  0  0  0
   -4.0606   -2.9064    0.0770 C   0  0  0  0  0  0  0  0  0  0  0  0
   -4.9479   -1.9548   -0.4608 C   0  0  0  0  0  0  0  0  0  0  0  0
   -4.4814   -0.6654   -0.7408 C   0  0  0  0  0  0  0  0  0  0  0  0
   -3.1334   -0.3331   -0.4844 C   0  0  0  0  0  0  0  0  0  0  0  0
   -2.5865    0.9873   -0.7530 C   0  0  0  0  0  0  0  0  0  0  0  0
   -0.5050    2.3381   -0.6246 C   0  0  1  0  0  0  0  0  0  0  0  0
   -1.2799    3.6522   -0.4720 C   0  0  0  0  0  0  0  0  0  0  0  0
   -0.3468    4.8677   -0.4870 C   0  0  0  0  0  0  0  0  0  0  0  0
    0.7484    4.7377    0.5760 C   0  0  0  0  0  0  0  0  0  0  0  0
    1.5479    3.4394    0.3993 C   0  0  0  0  0  0  0  0  0  0  0  0
    0.6260    2.2174    0.4479 C   0  0  2  0  0  0  0  0  0  0  0  0
    2.5388    0.7859    0.1103 C   0  0  0  0  0  3  0  0  0  0  0  0
    3.2818   -0.4366   -0.2018 C   0  0  0  0  0  0  0  0  0  0  0  0
    2.6754   -1.5722   -0.7869 C   0  0  0  0  0  0  0  0  0  0  0  0
    3.4453   -2.6982   -1.0953 C   0  0  0  0  0  0  0  0  0  0  0  0
    4.8259   -2.7105   -0.8301 C   0  0  0  0  0  0  0  0  0  0  0  0
    5.4428   -1.5797   -0.2686 C   0  0  0  0  0  0  0  0  0  0  0  0
    4.6782   -0.4462    0.0302 C   0  0  0  0  0  0  0  0  0  0  0  0
   -2.0529   -3.3481    0.7676 H   0  0  0  0  0  0  0  0  0  0  0  0
   -4.4263   -3.9219    0.3000 H   0  0  0  0  0  0  0  0  0  0  0  0
   -5.9966   -2.2223   -0.6591 H   0  0  0  0  0  0  0  0  0  0  0  0
   -5.1600    0.0930   -1.1649 H   0  0  0  0  0  0  0  0  0  0  0  0
   -3.2267    1.8199   -1.1030 H   0  0  0  0  0  0  0  0  0  0  0  0
    0.0038    2.3270   -1.6188 H   0  0  0  0  0  0  0  0  0  0  0  0
   -1.8437    3.6164    0.4862 H   0  0  0  0  0  0  0  0  0  0  0  0
   -2.0331    3.7369   -1.2823 H   0  0  0  0  0  0  0  0  0  0  0  0
    0.1252    4.9584   -1.4907 H   0  0  0  0  0  0  0  0  0  0  0  0
   -0.9320    5.7974   -0.3325 H   0  0  0  0  0  0  0  0  0  0  0  0
    1.4344    5.6086    0.5378 H   0  0  0  0  0  0  0  0  0  0  0  0
    0.2845    4.7483    1.5871 H   0  0  0  0  0  0  0  0  0  0  0  0
    2.3244    3.3620    1.1885 H   0  0  0  0  0  0  0  0  0  0  0  0
    2.0811    3.4686   -0.5772 H   0  0  0  0  0  0  0  0  0  0  0  0
    0.1123    2.1989    1.4352 H   0  0  0  0  0  0  0  0  0  0  0  0
    3.1632    1.7005    0.1563 H   0  0  0  0  0  0  0  0  0  0  0  0
    1.5907   -1.5524   -0.9859 H   0  0  0  0  0  0  0  0  0  0  0  0
    2.9630   -3.5767   -1.5497 H   0  0  0  0  0  0  0  0  0  0  0  0
    5.4260   -3.6010   -1.0720 H   0  0  0  0  0  0  0  0  0  0  0  0
    6.5248   -1.5818   -0.0685 H   0  0  0  0  0  0  0  0  0  0  0  0
    5.1600    0.4451    0.4634 H   0  0  0  0  0  0  0  0  0  0  0  0
  2 15  1  0  0  0  0
  3  4  1  0  0  0  0
  4 23  1  0  0  0  0
  5 24  1  0  0  0  0
  5  4  2  0  0  0  0
  6  5  1  0  0  0  0
  7  8  1  0  0  0  0
  7  6  2  0  0  0  0
  8  3  1  0  0  0  0
  9  1  1  0  0  0  0
  9  8  2  0  0  0  0
 10 28  1  6  0  0  0
 10  1  1  0  0  0  0
 10 11  1  0  0  0  0
 10 15  1  0  0  0  0
 11 29  1  0  0  0  0
 12 11  1  0  0  0  0
 12 32  1  0  0  0  0
 12 13  1  0  0  0  0
 13 34  1  0  0  0  0
 14 15  1  0  0  0  0
 14 13  1  0  0  0  0
 14 35  1  0  0  0  0
 15 37  1  1  0  0  0
 16 38  1  0  0  0  0
 16  2  1  0  0  0  0
 17 22  1  0  0  0  0
 17 16  1  0  0  0  0
 18 17  2  0  0  0  0
 19 20  2  0  0  0  0
 19 18  1  0  0  0  0
 20 21  1  0  0  0  0
 21 42  1  0  0  0  0
 21 22  2  0  0  0  0
 22 43  1  0  0  0  0
 25  6  1  0  0  0  0
 26  7  1  0  0  0  0
 27  9  1  0  0  0  0
 30 11  1  0  0  0  0
 31 12  1  0  0  0  0
 33 13  1  0  0  0  0
 36 14  1  0  0  0  0
 39 18  1  0  0  0  0
 40 19  1  0  0  0  0
 41 20  1  0  0  0  0
M  END
