1,2,3
q = -1.0

 32 33  0  0  1  0  0  0  0  0999 V2000
    0.6139    1.2704   -0.7352 N   0  0  0  0  0  2  0  0  0  0  0  0
    1.9448   -0.7378    0.6177 N   0  0  0  0  0  0  0  0  0  0  0  0
   -1.8840    0.9233    0.2007 C   0  0  0  0  0  3  0  0  0  0  0  0
   -3.1902    0.7761    0.6869 C   0  0  0  0  0  0  0  0  0  0  0  0
   -4.2262    1.5945    0.2023 C   0  0  0  0  0  0  0  0  0  0  0  0
   -3.9809    2.5798   -0.7722 C   0  0  0  0  0  0  0  0  0  0  0  0
   -2.6845    2.7515   -1.2670 C   0  0  0  0  0  0  0  0  0  0  0  0
   -1.6321    1.9389   -0.7896 C   0  0  0  0  0  0  0  0  0  0  0  0
   -0.2615    2.0740   -1.2587 C   0  0  0  0  0  3  0  0  0  0  0  0
    2.0448    1.2151   -0.9587 C   0  0  1  0  0  0  0  0  0  0  0  0
    2.7801    2.2420   -0.0712 C   0  0  0  0  0  0  0  0  0  0  0  0
    4.3020    2.1017   -0.1882 C   0  0  0  0  0  0  0  0  0  0  0  0
    4.7572    0.6767    0.1496 C   0  0  0  0  0  0  0  0  0  0  0  0
    4.0452   -0.3503   -0.7405 C   0  0  0  0  0  0  0  0  0  0  0  0
    2.5158   -0.2387   -0.6723 C   0  0  1  0  0  0  0  0  0  0  0  0
    2.4756   -0.3977    1.4327 H   0  0  0  0  0  0  0  0  0  0  0  0
    1.9904   -1.7664    0.6281 H   0  0  0  0  0  0  0  0  0  0  0  0
   -3.4104    0.0083    1.4427 H   0  0  0  0  0  0  0  0  0  0  0  0
   -5.2476    1.4574    0.5911 H   0  0  0  0  0  0  0  0  0  0  0  0
   -4.8036    3.2093   -1.1421 H   0  0  0  0  0  0  0  0  0  0  0  0
   -2.4747    3.5183   -2.0300 H   0  0  0  0  0  0  0  0  0  0  0  0
    0.0134    2.8239   -2.0286 H   0  0  0  0  0  0  0  0  0  0  0  0
    2.2846    1.4359   -2.0249 H   0  0  0  0  0  0  0  0  0  0  0  0
    2.4484    3.2627   -0.3528 H   0  0  0  0  0  0  0  0  0  0  0  0
    2.4626    2.0957    0.9832 H   0  0  0  0  0  0  0  0  0  0  0  0
    4.6179    2.3483   -1.2266 H   0  0  0  0  0  0  0  0  0  0  0  0
    4.8006    2.8397    0.4733 H   0  0  0  0  0  0  0  0  0  0  0  0
    4.5433    0.4676    1.2231 H   0  0  0  0  0  0  0  0  0  0  0  0
    5.8566    0.5790    0.0400 H   0  0  0  0  0  0  0  0  0  0  0  0
    4.3498   -1.3871   -0.4849 H   0  0  0  0  0  0  0  0  0  0  0  0
    4.3536   -0.1920   -1.7969 H   0  0  0  0  0  0  0  0  0  0  0  0
    2.0462   -0.8863   -1.4420 H   0  0  0  0  0  0  0  0  0  0  0  0
  2 17  1  0  0  0  0
  2 16  1  0  0  0  0
  3  4  1  0  0  0  0
  4 18  1  0  0  0  0
  5 19  1  0  0  0  0
  5  4  2  0  0  0  0
  6  5  1  0  0  0  0
  7  8  1  0  0  0  0
  7  6  2  0  0  0  0
  8  3  2  0  0  0  0
  9  8  1  0  0  0  0
  9  1  1  0  0  0  0
 10 23  1  6  0  0  0
 10  1  1  0  0  0  0
 10 15  1  0  0  0  0
 10 11  1  0  0  0  0
 11 25  1  0  0  0  0
 12 11  1  0  0  0  0
 12 13  1  0  0  0  0
 12 27  1  0  0  0  0
 13 28  1  0  0  0  0
 14 15  1  0  0  0  0
 14 30  1  0  0  0  0
 14 13  1  0  0  0  0
 15 32  1  6  0  0  0
 15  2  1  0  0  0  0
 20  6  1  0  0  0  0
 21  7  1  0  0  0  0
 22  9  1  0  0  0  0
 24 11  1  0  0  0  0
 26 12  1  0  0  0  0
 29 13  1  0  0  0  0
 31 14  1  0  0  0  0
M  END
