1,11,17
q = 0.0, confidence = 0.984

 66 69  0  0  1  0  0  0  0  0999 V2000
   -0.7483    0.7411    0.0371 C   0  0  0  0  0  2  0  0  0  0  0  0
   -2.1162    0.6067    0.0861 N   0  0  0  0  0  0  0  0  0  0  0  0
   -2.7557    1.8487    0.1183 C   0  0  0  0  0  0  0  0  0  0  0  0
   -4.1166    2.1627    0.1696 C   0  0  0  0  0  0  0  0  0  0  0  0
   -4.4639    3.5252    0.1932 C   0  0  0  0  0  0  0  0  0  0  0  0
   -3.4758    4.5261    0.1661 C   0  0  0  0  0  0  0  0  0  0  0  0
   -2.1052    4.2063    0.1109 C   0  0  0  0  0  0  0  0  0  0  0  0
   -1.7523    2.8510    0.0850 C   0  0  0  0  0  0  0  0  0  0  0  0
   -0.5344    2.1575    0.0272 N   0  0  0  0  0  0  0  0  0  0  0  0
    0.7830    2.5890   -0.0622 C   0  0  1  0  0  3  0  0  0  0  0  0
    1.6414    1.5395   -0.0969 N   0  0  0  0  0  2  0  0  0  0  0  0
    2.9661    1.7095   -0.2491 C   0  0  0  0  0  0  0  0  0  0  0  0
    3.5118    2.9993   -0.3167 C   0  0  0  0  0  0  0  0  0  0  0  0
    2.6411    4.0995   -0.2492 C   0  0  0  0  0  0  0  0  0  0  0  0
    1.2571    3.9095   -0.1302 C   0  0  0  0  0  0  0  0  0  0  0  0
    3.7427    0.4401   -0.4769 C   0  0  0  0  0  0  0  0  0  0  0  0
    3.1938   -0.7857    0.1829 N   0  0  0  0  0  0  0  0  0  0  0  0
   -2.8086   -0.6478    0.0522 C   0  0  0  0  0  0  0  0  0  0  0  0
   -3.0536   -1.2516   -1.2002 C   0  0  0  0  0  0  0  0  0  0  0  0
   -3.7249   -2.4867   -1.1978 C   0  0  0  0  0  0  0  0  0  0  0  0
   -4.1375   -3.1100   -0.0058 C   0  0  0  0  0  0  0  0  0  0  0  0
   -3.8753   -2.4651    1.2177 C   0  0  0  0  0  0  0  0  0  0  0  0
   -3.2058   -1.2322    1.2731 C   0  0  0  0  0  0  0  0  0  0  0  0
   -2.5671   -0.6148   -2.4727 C   0  0  0  0  0  0  0  0  0  0  0  0
   -4.8020   -4.4631   -0.0354 C   0  0  0  0  0  0  0  0  0  0  0  0
   -2.8626   -0.5701    2.5815 C   0  0  0  0  0  0  0  0  0  0  0  0
    3.6167   -1.9566   -0.7045 C   0  0  0  0  0  0  0  0  0  0  0  0
    5.1365   -2.1442   -0.8152 C   0  0  0  0  0  0  0  0  0  0  0  0
    2.9465   -3.3006   -0.4146 C   0  0  0  0  0  0  0  0  0  0  0  0
    3.7110   -0.8752    1.6029 C   0  0  0  0  0  0  0  0  0  0  0  0
    3.5322    0.4316    2.3859 C   0  0  0  0  0  0  0  0  0  0  0  0
    3.0842   -2.0247    2.3970 C   0  0  0  0  0  0  0  0  0  0  0  0
   -4.8711    1.3639    0.1879 H   0  0  0  0  0  0  0  0  0  0  0  0
   -5.5253    3.8111    0.2331 H   0  0  0  0  0  0  0  0  0  0  0  0
   -3.7736    5.5845    0.1874 H   0  0  0  0  0  0  0  0  0  0  0  0
   -1.3582    5.0084    0.0914 H   0  0  0  0  0  0  0  0  0  0  0  0
    4.5961    3.1361   -0.4310 H   0  0  0  0  0  0  0  0  0  0  0  0
    3.0414    5.1227   -0.3010 H   0  0  0  0  0  0  0  0  0  0  0  0
    0.5744    4.7645   -0.1012 H   0  0  0  0  0  0  0  0  0  0  0  0
    4.8163    0.5981   -0.2345 H   0  0  0  0  0  0  0  0  0  0  0  0
    3.6584    0.2597   -1.5705 H   0  0  0  0  0  0  0  0  0  0  0  0
   -3.9210   -2.9817   -2.1624 H   0  0  0  0  0  0  0  0  0  0  0  0
   -4.1854   -2.9441    2.1603 H   0  0  0  0  0  0  0  0  0  0  0  0
   -2.9780   -1.1347   -3.3585 H   0  0  0  0  0  0  0  0  0  0  0  0
   -2.8564    0.4547   -2.5320 H   0  0  0  0  0  0  0  0  0  0  0  0
   -1.4548   -0.6485   -2.5352 H   0  0  0  0  0  0  0  0  0  0  0  0
   -5.4825   -4.6060    0.8271 H   0  0  0  0  0  0  0  0  0  0  0  0
   -5.3823   -4.6150   -0.9668 H   0  0  0  0  0  0  0  0  0  0  0  0
   -4.0401   -5.2708    0.0106 H   0  0  0  0  0  0  0  0  0  0  0  0
   -1.7609   -0.4781    2.6898 H   0  0  0  0  0  0  0  0  0  0  0  0
   -3.2789    0.4568    2.6481 H   0  0  0  0  0  0  0  0  0  0  0  0
   -3.2484   -1.1543    3.4380 H   0  0  0  0  0  0  0  0  0  0  0  0
    3.2162   -1.6368   -1.6886 H   0  0  0  0  0  0  0  0  0  0  0  0
    5.3417   -2.9134   -1.5859 H   0  0  0  0  0  0  0  0  0  0  0  0
    5.5872   -2.5105    0.1305 H   0  0  0  0  0  0  0  0  0  0  0  0
    5.6751   -1.2271   -1.1240 H   0  0  0  0  0  0  0  0  0  0  0  0
    2.9438   -3.8891   -1.3536 H   0  0  0  0  0  0  0  0  0  0  0  0
    3.4801   -3.9033    0.3453 H   0  0  0  0  0  0  0  0  0  0  0  0
    1.8964   -3.1832   -0.1014 H   0  0  0  0  0  0  0  0  0  0  0  0
    4.8094   -1.0577    1.5268 H   0  0  0  0  0  0  0  0  0  0  0  0
    3.9128    0.2799    3.4147 H   0  0  0  0  0  0  0  0  0  0  0  0
    2.4602    0.7042    2.4484 H   0  0  0  0  0  0  0  0  0  0  0  0
    4.0918    1.2836    1.9573 H   0  0  0  0  0  0  0  0  0  0  0  0
    3.3801   -1.9333    3.4605 H   0  0  0  0  0  0  0  0  0  0  0  0
    1.9795   -1.9685    2.3367 H   0  0  0  0  0  0  0  0  0  0  0  0
    3.4065   -3.0203    2.0516 H   0  0  0  0  0  0  0  0  0  0  0  0
  1  2  1  0  0  0  0
  2  3  1  0  0  0  0
  3  4  1  0  0  0  0
  4 33  1  0  0  0  0
  4  5  2  0  0  0  0
  5 34  1  0  0  0  0
  6 35  1  0  0  0  0
  6  5  1  0  0  0  0
  7  6  2  0  0  0  0
  8  7  1  0  0  0  0
  8  3  2  0  0  0  0
  9  1  1  0  0  0  0
  9  8  1  0  0  0  0
 10  9  1  6  0  0  0
 11 10  1  0  0  0  0
 12 11  1  0  0  0  0
 13 14  1  0  0  0  0
 13 12  2  0  0  0  0
 14 15  2  0  0  0  0
 15 39  1  0  0  0  0
 15 10  1  0  0  0  0
 16 12  1  0  0  0  0
 16 40  1  0  0  0  0
 16 17  1  0  0  0  0
 17 30  1  0  0  0  0
 18  2  1  0  0  0  0
 18 23  1  0  0  0  0
 19 20  1  0  0  0  0
 19 18  2  0  0  0  0
 20 21  2  0  0  0  0
 21 22  1  0  0  0  0
 22 23  2  0  0  0  0
 22 43  1  0  0  0  0
 23 26  1  0  0  0  0
 24 19  1  0  0  0  0
 25 21  1  0  0  0  0
 25 49  1  0  0  0  0
 25 47  1  0  0  0  0
 26 51  1  0  0  0  0
 26 50  1  0  0  0  0
 26 52  1  0  0  0  0
 27 29  1  0  0  0  0
 27 17  1  0  0  0  0
 28 27  1  0  0  0  0
 28 55  1  0  0  0  0
 29 59  1  0  0  0  0
 29 58  1  0  0  0  0
 30 31  1  0  0  0  0
 30 32  1  0  0  0  0
 31 62  1  0  0  0  0
 31 61  1  0  0  0  0
 32 64  1  0  0  0  0
 36  7  1  0  0  0  0
 37 13  1  0  0  0  0
 38 14  1  0  0  0  0
 41 16  1  0  0  0  0
 42 20  1  0  0  0  0
 44 24  1  0  0  0  0
 45 24  1  0  0  0  0
 46 24  1  0  0  0  0
 48 25  1  0  0  0  0
 53 27  1  0  0  0  0
 54 28  1  0  0  0  0
 56 28  1  0  0  0  0
 57 29  1  0  0  0  0
 60 30  1  0  0  0  0
 63 31  1  0  0  0  0
 65 32  1  0  0  0  0
 66 32  1  0  0  0  0
M  END
