2,9,15
q = -1.0

 37 39  0  0  0  0  0  0  0  0999 V2000
   -2.6017    0.7003   -0.9904 C   0  0  0  0  0  0  0  0  0  0  0  0
   -1.8540   -0.0006   -0.0002 C   0  0  0  0  0  3  0  0  0  0  0  0
   -2.6014   -0.7016    0.9902 C   0  0  0  0  0  0  0  0  0  0  0  0
   -4.0194   -0.7037    1.0088 C   0  0  0  0  0  0  0  0  0  0  0  0
   -4.6986   -0.0007    0.0002 C   0  0  0  0  0  0  0  0  0  0  0  0
   -4.0196    0.7024   -1.0087 C   0  0  0  0  0  0  0  0  0  0  0  0
   -1.8625    1.4945   -2.0494 C   0  0  0  0  0  0  0  0  0  0  0  0
   -0.8324    0.7334   -2.7483 N   0  0  0  0  0  0  0  0  0  0  0  0
    0.1673    0.1366   -2.0646 N   0  0  0  0  0  2  0  0  0  0  0  0
    0.9840   -0.4196   -2.9885 C   0  0  0  0  0  3  0  0  0  0  0  0
    0.4923   -0.1728   -4.2846 C   0  0  0  0  0  0  0  0  0  0  0  0
   -0.6729    0.5687   -4.0891 C   0  0  0  0  0  0  0  0  0  0  0  0
   -1.8618   -1.4958    2.0488 C   0  0  0  0  0  0  0  0  0  0  0  0
   -0.8322   -0.7343    2.7480 N   0  0  0  0  0  0  0  0  0  0  0  0
    0.1672   -0.1368    2.0645 N   0  0  0  0  0  2  0  0  0  0  0  0
    0.9834    0.4199    2.9886 C   0  0  0  0  0  3  0  0  0  0  0  0
    0.4916    0.1729    4.2845 C   0  0  0  0  0  0  0  0  0  0  0  0
   -0.6730   -0.5694    4.0888 C   0  0  0  0  0  0  0  0  0  0  0  0
   -4.8209   -1.4382    2.0597 C   0  0  0  0  0  0  0  0  0  0  0  0
   -4.8215    1.4367   -2.0594 C   0  0  0  0  0  0  0  0  0  0  0  0
   -5.8000   -0.0007    0.0003 H   0  0  0  0  0  0  0  0  0  0  0  0
   -2.5440    1.8639   -2.8341 H   0  0  0  0  0  0  0  0  0  0  0  0
   -1.3669    2.3868   -1.6110 H   0  0  0  0  0  0  0  0  0  0  0  0
    1.8759   -0.9728   -2.6760 H   0  0  0  0  0  0  0  0  0  0  0  0
    0.9253   -0.4913   -5.2374 H   0  0  0  0  0  0  0  0  0  0  0  0
   -1.3909    0.9966   -4.7966 H   0  0  0  0  0  0  0  0  0  0  0  0
   -2.5431   -1.8659    2.8334 H   0  0  0  0  0  0  0  0  0  0  0  0
   -1.3657   -2.3876    1.6101 H   0  0  0  0  0  0  0  0  0  0  0  0
    1.8749    0.9737    2.6761 H   0  0  0  0  0  0  0  0  0  0  0  0
    0.9242    0.4916    5.2374 H   0  0  0  0  0  0  0  0  0  0  0  0
   -1.3909   -0.9979    4.7962 H   0  0  0  0  0  0  0  0  0  0  0  0
   -5.9061   -1.3009    1.8945 H   0  0  0  0  0  0  0  0  0  0  0  0
   -4.5993   -1.0738    3.0853 H   0  0  0  0  0  0  0  0  0  0  0  0
   -4.6261   -2.5314    2.0533 H   0  0  0  0  0  0  0  0  0  0  0  0
   -5.9067    1.2997   -1.8937 H   0  0  0  0  0  0  0  0  0  0  0  0
   -4.6004    1.0721   -3.0850 H   0  0  0  0  0  0  0  0  0  0  0  0
   -4.6264    2.5299   -2.0533 H   0  0  0  0  0  0  0  0  0  0  0  0
  1  2  1  0  0  0  0
  2  3  2  0  0  0  0
  3  4  1  0  0  0  0
  3 13  1  0  0  0  0
  4 19  1  0  0  0  0
  5 21  1  0  0  0  0
  5  4  2  0  0  0  0
  6  1  2  0  0  0  0
  6  5  1  0  0  0  0
  7 23  1  0  0  0  0
  7  1  1  0  0  0  0
  8  9  1  0  0  0  0
  8  7  1  0  0  0  0
 10 24  1  0  0  0  0
 10  9  1  0  0  0  0
 11 12  2  0  0  0  0
 11 10  1  0  0  0  0
 12  8  1  0  0  0  0
 13 14  1  0  0  0  0
 13 27  1  0  0  0  0
 14 18  1  0  0  0  0
 15 14  1  0  0  0  0
 15 16  1  0  0  0  0
 16 17  1  0  0  0  0
 17 30  1  0  0  0  0
 18 17  2  0  0  0  0
 18 31  1  0  0  0  0
 19 33  1  0  0  0  0
 20 37  1  0  0  0  0
 20 35  1  0  0  0  0
 20  6  1  0  0  0  0
 22  7  1  0  0  0  0
 25 11  1  0  0  0  0
 26 12  1  0  0  0  0
 28 13  1  0  0  0  0
 29 16  1  0  0  0  0
 32 19  1  0  0  0  0
 34 19  1  0  0  0  0
 36 20  1  0  0  0  0
M  END
