1,2,3
q = -1.0, confidence = 0.004

 33 34  0  0  1  0  0  0  0  0999 V2000
    0.0883    1.7928    0.0628 N   0  0  0  0  0  2  0  0  0  0  0  0
   -2.1578   -0.1041   -0.0235 N   0  0  0  0  0  2  0  0  0  0  0  0
    2.0010   -0.2838    0.1626 C   0  0  0  0  0  3  0  0  0  0  0  0
    2.7264    0.7183   -0.5218 C   0  0  0  0  0  0  0  0  0  0  0  0
    4.1280    0.7864   -0.3919 C   0  0  0  0  0  0  0  0  0  0  0  0
    4.6838    1.5689   -0.9351 H   0  0  0  0  0  0  0  0  0  0  0  0
    4.8176   -0.1287    0.4162 C   0  0  0  0  0  0  0  0  0  0  0  0
    5.9126   -0.0666    0.5092 H   0  0  0  0  0  0  0  0  0  0  0  0
    4.0986   -1.1180    1.1031 C   0  0  0  0  0  0  0  0  0  0  0  0
    4.6273   -1.8426    1.7424 H   0  0  0  0  0  0  0  0  0  0  0  0
    2.7015   -1.1991    0.9735 C   0  0  0  0  0  0  0  0  0  0  0  0
    2.1510   -1.9939    1.4960 H   0  0  0  0  0  0  0  0  0  0  0  0
    2.0021    1.7416   -1.3772 C   0  0  0  0  0  0  0  0  0  0  0  0
    2.7209    2.4721   -1.7969 H   0  0  0  0  0  0  0  0  0  0  0  0
    1.5168    1.2363   -2.2438 H   0  0  0  0  0  0  0  0  0  0  0  0
    0.9315    2.5013   -0.6268 C   0  0  2  0  0  3  0  0  0  0  0  0
    0.8966    3.9945   -0.7054 C   0  0  0  0  0  0  0  0  0  0  0  0
    0.0251    4.4252   -0.1852 H   0  0  0  0  0  0  0  0  0  0  0  0
    0.8895    4.3134   -1.7686 H   0  0  0  0  0  0  0  0  0  0  0  0
    1.8279    4.4055   -0.2600 H   0  0  0  0  0  0  0  0  0  0  0  0
   -1.7514    1.7225    1.5236 C   0  0  0  0  0  0  0  0  0  0  0  0
   -2.2968    2.4495    2.1541 H   0  0  0  0  0  0  0  0  0  0  0  0
   -1.1335    1.0585    2.1698 H   0  0  0  0  0  0  0  0  0  0  0  0
   -0.8986    2.5398    0.7154 O   0  0  0  0  0  0  0  0  0  0  0  0
   -2.7134    0.8892    0.7091 C   0  0  2  0  0  3  0  0  0  0  0  0
   -4.0976    1.1167    0.7061 C   0  0  0  0  0  0  0  0  0  0  0  0
   -4.5184    1.9316    1.3133 H   0  0  0  0  0  0  0  0  0  0  0  0
   -4.9228    0.2907   -0.0711 C   0  0  0  0  0  0  0  0  0  0  0  0
   -6.0118    0.4478   -0.0883 H   0  0  0  0  0  0  0  0  0  0  0  0
   -4.3349   -0.7363   -0.8213 C   0  0  0  0  0  0  0  0  0  0  0  0
   -4.9415   -1.4118   -1.4414 H   0  0  0  0  0  0  0  0  0  0  0  0
   -2.9444   -0.9030   -0.7706 C   0  0  0  0  0  0  0  0  0  0  0  0
   -2.4189   -1.7120   -1.3046 H   0  0  0  0  0  0  0  0  0  0  0  0
  1 24  1  0  0  0  0
  2 25  1  0  0  0  0
  3 11  1  0  0  0  0
  4  5  1  0  0  0  0
  4  3  2  0  0  0  0
  5  7  2  0  0  0  0
  6  5  1  0  0  0  0
  7  8  1  0  0  0  0
  7  9  1  0  0  0  0
  9 10  1  0  0  0  0
 11  9  2  0  0  0  0
 11 12  1  0  0  0  0
 13 16  1  0  0  0  0
 13  4  1  0  0  0  0
 14 13  1  0  0  0  0
 15 13  1  0  0  0  0
 16  1  1  1  0  0  0
 17 16  1  0  0  0  0
 17 20  1  0  0  0  0
 17 18  1  0  0  0  0
 19 17  1  0  0  0  0
 21 22  1  0  0  0  0
 21 23  1  0  0  0  0
 24 21  1  0  0  0  0
 25 21  1  1  0  0  0
 26 25  1  0  0  0  0
 26 27  1  0  0  0  0
 28 26  2  0  0  0  0
 29 28  1  0  0  0  0
 30 32  2  0  0  0  0
 30 28  1  0  0  0  0
 31 30  1  0  0  0  0
 32  2  1  0  0  0  0
 33 32  1  0  0  0  0
M  END
