3,4,22
q = -2.0, confidence = 0.878

 52 55  0  0  1  0  0  0  0  0999 V2000
   -1.5003   -2.0025   -0.2419 O   0  0  0  0  0  0  0  0  0  0  0  0
    0.4237    3.7100    0.0235 O   0  0  0  0  0  0  0  0  0  0  0  0
    3.2562   -0.7592    0.0458 N   0  0  0  0  0  2  0  0  0  0  0  0
    0.6118   -1.0715   -0.1198 N   0  0  0  0  0  2  0  0  0  0  0  0
    4.5661   -0.5249    0.1289 C   0  0  0  0  0  0  0  0  0  0  0  0
    4.8731    0.5315    0.1784 H   0  0  0  0  0  0  0  0  0  0  0  0
    5.5196   -1.5695    0.1533 C   0  0  0  0  0  0  0  0  0  0  0  0
    6.5895   -1.3260    0.2226 H   0  0  0  0  0  0  0  0  0  0  0  0
    5.0802   -2.8839    0.0890 C   0  0  0  0  0  0  0  0  0  0  0  0
    5.7973   -3.7194    0.1061 H   0  0  0  0  0  0  0  0  0  0  0  0
    3.6884   -3.1711   -0.0002 C   0  0  0  0  0  0  0  0  0  0  0  0
    2.7877   -2.0499   -0.0197 C   0  0  0  0  0  0  0  0  0  0  0  0
    1.3585   -2.2357   -0.1087 C   0  0  0  0  0  0  0  0  0  0  0  0
    0.8771   -3.5601   -0.1750 C   0  0  0  0  0  0  0  0  0  0  0  0
   -0.2052   -3.7124   -0.2417 H   0  0  0  0  0  0  0  0  0  0  0  0
    1.7739   -4.6515   -0.1543 C   0  0  0  0  0  0  0  0  0  0  0  0
    1.3547   -5.6684   -0.2080 H   0  0  0  0  0  0  0  0  0  0  0  0
    3.1532   -4.4853   -0.0696 C   0  0  0  0  0  3  0  0  0  0  0  0
    3.8355   -5.3479   -0.0552 H   0  0  0  0  0  0  0  0  0  0  0  0
   -0.7766   -1.0005   -0.1885 C   0  0  0  0  0  0  0  0  0  0  0  0
   -1.2459    0.4279   -0.1827 C   0  0  0  0  0  0  0  0  0  0  0  0
   -0.2177    1.4066   -0.0908 C   0  0  0  0  0  3  0  0  0  0  0  0
   -0.5767    2.7738   -0.0767 C   0  0  0  0  0  0  0  0  0  0  0  0
   -1.9345    3.1357   -0.1673 C   0  0  0  0  0  0  0  0  0  0  0  0
   -2.2360    4.1922   -0.1625 H   0  0  0  0  0  0  0  0  0  0  0  0
   -2.9282    2.1532   -0.2693 C   0  0  0  0  0  0  0  0  0  0  0  0
   -3.9747    2.4799   -0.3437 H   0  0  0  0  0  0  0  0  0  0  0  0
   -2.6261    0.7821   -0.2796 C   0  0  0  0  0  0  0  0  0  0  0  0
    0.0638    5.0708    0.0410 C   0  0  0  0  0  0  0  0  0  0  0  0
   -0.4561    5.3858   -0.8933 H   0  0  0  0  0  0  0  0  0  0  0  0
    1.0054    5.6481    0.1297 H   0  0  0  0  0  0  0  0  0  0  0  0
   -0.5896    5.3271    0.9068 H   0  0  0  0  0  0  0  0  0  0  0  0
   -3.7398   -0.2495   -0.3538 C   0  0  1  0  0  0  0  0  0  0  0  0
   -3.3499   -1.1126   -0.9307 H   0  0  0  0  0  0  0  0  0  0  0  0
   -4.0870   -0.8043    1.0472 C   0  0  0  0  0  0  0  0  0  0  0  0
   -3.1646   -1.1863    1.5266 H   0  0  0  0  0  0  0  0  0  0  0  0
   -4.4583    0.0305    1.6828 H   0  0  0  0  0  0  0  0  0  0  0  0
   -5.1252   -1.9297    0.9569 C   0  0  0  0  0  0  0  0  0  0  0  0
   -5.3777   -2.3037    1.9729 H   0  0  0  0  0  0  0  0  0  0  0  0
   -4.6586   -2.7817    0.4158 H   0  0  0  0  0  0  0  0  0  0  0  0
   -6.4116   -1.5100    0.2156 C   0  0  2  0  0  0  0  0  0  0  0  0
   -7.0101   -2.4294    0.0290 H   0  0  0  0  0  0  0  0  0  0  0  0
   -6.0455   -0.9073   -1.1573 C   0  0  0  0  0  0  0  0  0  0  0  0
   -5.6156   -1.7108   -1.7952 H   0  0  0  0  0  0  0  0  0  0  0  0
   -6.9646   -0.5547   -1.6735 H   0  0  0  0  0  0  0  0  0  0  0  0
   -5.0230    0.2330   -1.0522 C   0  0  0  0  0  0  0  0  0  0  0  0
   -4.7824    0.6273   -2.0622 H   0  0  0  0  0  0  0  0  0  0  0  0
   -5.4779    1.0784   -0.4906 H   0  0  0  0  0  0  0  0  0  0  0  0
   -7.2865   -0.5665    1.0535 C   0  0  0  0  0  0  0  0  0  0  0  0
   -7.5788   -1.0420    2.0123 H   0  0  0  0  0  0  0  0  0  0  0  0
   -8.2170   -0.2963    0.5125 H   0  0  0  0  0  0  0  0  0  0  0  0
   -6.7645    0.3793    1.3042 H   0  0  0  0  0  0  0  0  0  0  0  0
  1 20  2  0  0  0  0
  2 29  1  0  0  0  0
  3  5  1  0  0  0  0
  4 13  1  0  0  0  0
  5  7  2  0  0  0  0
  5  6  1  0  0  0  0
  7  8  1  0  0  0  0
  9 10  1  0  0  0  0
  9  7  1  0  0  0  0
 11  9  2  0  0  0  0
 12 11  1  0  0  0  0
 12  3  1  0  0  0  0
 13 12  2  0  0  0  0
 14 16  2  0  0  0  0
 14 13  1  0  0  0  0
 15 14  1  0  0  0  0
 16 18  1  0  0  0  0
 17 16  1  0  0  0  0
 18 19  1  0  0  0  0
 18 11  1  0  0  0  0
 20 21  1  0  0  0  0
 20  4  1  0  0  0  0
 21 22  1  0  0  0  0
 22 23  2  0  0  0  0
 23  2  1  0  0  0  0
 24 25  1  0  0  0  0
 24 23  1  0  0  0  0
 26 24  2  0  0  0  0
 27 26  1  0  0  0  0
 28 26  1  0  0  0  0
 28 21  2  0  0  0  0
 29 31  1  0  0  0  0
 29 32  1  0  0  0  0
 30 29  1  0  0  0  0
 33 34  1  6  0  0  0
 33 28  1  0  0  0  0
 33 35  1  0  0  0  0
 35 36  1  0  0  0  0
 35 37  1  0  0  0  0
 38 35  1  0  0  0  0
 38 39  1  0  0  0  0
 40 38  1  0  0  0  0
 41 42  1  6  0  0  0
 41 38  1  0  0  0  0
 41 49  1  0  0  0  0
 43 46  1  0  0  0  0
 43 41  1  0  0  0  0
 44 43  1  0  0  0  0
 45 43  1  0  0  0  0
 46 48  1  0  0  0  0
 46 33  1  0  0  0  0
 47 46  1  0  0  0  0
 49 52  1  0  0  0  0
 49 50  1  0  0  0  0
 51 49  1  0  0  0  0
M  END
