2,3,20
q = -1.0

 29 31  0  0  0  0  0  0  0  0999 V2000
   -5.1049    0.0000   -0.0000 Br  0  0  0  0  0  0  0  0  0  0  0  0
    1.1524   -2.0167   -0.0000 N   0  0  0  0  0  2  0  0  0  0  0  0
    1.1524    2.0167   -0.0000 N   0  0  0  0  0  2  0  0  0  0  0  0
    2.1174   -2.9612    0.0001 C   0  0  0  0  0  3  0  0  0  0  0  0
    3.1465   -2.5642    0.0000 H   0  0  0  0  0  0  0  0  0  0  0  0
    1.8114   -4.3251    0.0002 C   0  0  0  0  0  0  0  0  0  0  0  0
    2.6263   -5.0622    0.0003 H   0  0  0  0  0  0  0  0  0  0  0  0
    0.4634   -4.7195    0.0002 C   0  0  0  0  0  0  0  0  0  0  0  0
    0.1927   -5.7858    0.0003 H   0  0  0  0  0  0  0  0  0  0  0  0
   -0.5366   -3.7410    0.0001 C   0  0  0  0  0  0  0  0  0  0  0  0
   -1.5994   -4.0207    0.0001 H   0  0  0  0  0  0  0  0  0  0  0  0
   -0.1889   -2.3796   -0.0000 C   0  0  0  0  0  0  0  0  0  0  0  0
   -1.1145   -1.2410   -0.0000 C   0  0  0  0  0  0  0  0  0  0  0  0
   -2.5229   -1.2383   -0.0000 C   0  0  0  0  0  0  0  0  0  0  0  0
   -3.1083   -2.1695   -0.0000 H   0  0  0  0  0  0  0  0  0  0  0  0
   -3.1971   -0.0000   -0.0000 C   0  0  0  0  0  0  0  0  0  0  0  0
   -2.5229    1.2383   -0.0000 C   0  0  0  0  0  3  0  0  0  0  0  0
   -3.1083    2.1695    0.0000 H   0  0  0  0  0  0  0  0  0  0  0  0
   -1.1145    1.2410   -0.0000 C   0  0  0  0  0  0  0  0  0  0  0  0
   -0.4349   -0.0000   -0.0000 C   0  0  0  0  0  3  0  0  0  0  0  0
   -0.1889    2.3796    0.0000 C   0  0  0  0  0  0  0  0  0  0  0  0
   -0.5366    3.7410    0.0001 C   0  0  0  0  0  0  0  0  0  0  0  0
   -1.5994    4.0207    0.0001 H   0  0  0  0  0  0  0  0  0  0  0  0
    0.4634    4.7195    0.0002 C   0  0  0  0  0  0  0  0  0  0  0  0
    0.1926    5.7858    0.0003 H   0  0  0  0  0  0  0  0  0  0  0  0
    1.8114    4.3251    0.0001 C   0  0  0  0  0  0  0  0  0  0  0  0
    2.6263    5.0622    0.0002 H   0  0  0  0  0  0  0  0  0  0  0  0
    2.1174    2.9612    0.0000 C   0  0  0  0  0  0  0  0  0  0  0  0
    3.1465    2.5642   -0.0000 H   0  0  0  0  0  0  0  0  0  0  0  0
  1 16  1  0  0  0  0
  2 12  1  0  0  0  0
  2  4  1  0  0  0  0
  3 21  1  0  0  0  0
  3 28  1  0  0  0  0
  4  6  1  0  0  0  0
  5  4  1  0  0  0  0
  6  7  1  0  0  0  0
  8  6  2  0  0  0  0
  8  9  1  0  0  0  0
 10  8  1  0  0  0  0
 11 10  1  0  0  0  0
 12 10  2  0  0  0  0
 13 14  1  0  0  0  0
 13 12  1  0  0  0  0
 14 16  2  0  0  0  0
 15 14  1  0  0  0  0
 16 17  1  0  0  0  0
 17 18  1  0  0  0  0
 19 17  1  0  0  0  0
 19 21  2  0  0  0  0
 20 13  2  0  0  0  0
 20 19  1  0  0  0  0
 21 22  1  0  0  0  0
 22 23  1  0  0  0  0
 22 24  2  0  0  0  0
 24 25  1  0  0  0  0
 26 24  1  0  0  0  0
 26 27  1  0  0  0  0
 28 26  2  0  0  0  0
 29 28  1  0  0  0  0
M  END
