1,2,3
q = -1.0

 41 45  0  0  0  0  0  0  0  0999 V2000
    1.5119    0.9173    0.1498 N   0  0  0  0  0  2  0  0  0  0  0  0
   -1.1908    1.0766    0.0005 N   0  0  0  0  0  2  0  0  0  0  0  0
    2.0709   -1.6528   -0.0735 C   0  0  0  0  0  2  0  0  0  0  0  0
    2.2735   -3.0237   -0.1912 C   0  0  0  0  0  3  0  0  0  0  0  0
    3.5911   -3.5224   -0.1094 C   0  0  0  0  0  0  0  0  0  0  0  0
    4.6802   -2.6586    0.0837 C   0  0  0  0  0  0  0  0  0  0  0  0
    4.4718   -1.2785    0.1965 C   0  0  0  0  0  0  0  0  0  0  0  0
    3.1659   -0.7505    0.1204 C   0  0  0  0  0  0  0  0  0  0  0  0
    2.8411    0.6715    0.2034 C   0  0  0  0  0  0  0  0  0  0  0  0
    3.7144    1.7897    0.2876 C   0  0  0  0  0  0  0  0  0  0  0  0
    3.1960    3.0801    0.2647 C   0  0  0  0  0  0  0  0  0  0  0  0
    1.7926    3.3103    0.1559 C   0  0  0  0  0  0  0  0  0  0  0  0
    0.9643    2.1551    0.1103 C   0  0  0  0  0  0  0  0  0  0  0  0
   -0.4638    2.2427   -0.0035 C   0  0  0  0  0  0  0  0  0  0  0  0
   -1.0506    3.5331   -0.1187 C   0  0  0  0  0  0  0  0  0  0  0  0
   -0.2073    4.6970   -0.0722 C   0  0  0  0  0  0  0  0  0  0  0  0
    1.1614    4.5954    0.0699 C   0  0  0  0  0  0  0  0  0  0  0  0
   -2.4636    3.5732   -0.2838 C   0  0  0  0  0  0  0  0  0  0  0  0
   -3.1862    2.3934   -0.2650 C   0  0  0  0  0  0  0  0  0  0  0  0
   -2.5365    1.1339   -0.0704 C   0  0  0  0  0  0  0  0  0  0  0  0
   -3.3414   -0.0813    0.1419 C   0  0  0  0  0  0  0  0  0  0  0  0
   -4.4344   -0.3791   -0.7029 C   0  0  0  0  0  0  0  0  0  0  0  0
   -5.2139   -1.5162   -0.4637 C   0  0  0  0  0  0  0  0  0  0  0  0
   -4.9340   -2.3432    0.6377 C   0  0  0  0  0  0  0  0  0  0  0  0
   -3.8663   -2.0377    1.4960 C   0  0  0  0  0  0  0  0  0  0  0  0
   -3.0650   -0.9186    1.2456 C   0  0  0  0  0  0  0  0  0  0  0  0
    1.4224   -3.7004   -0.3481 H   0  0  0  0  0  0  0  0  0  0  0  0
    3.7572   -4.6065   -0.2006 H   0  0  0  0  0  0  0  0  0  0  0  0
    5.7004   -3.0638    0.1456 H   0  0  0  0  0  0  0  0  0  0  0  0
    5.3283   -0.6043    0.3470 H   0  0  0  0  0  0  0  0  0  0  0  0
    4.7985    1.6258    0.3495 H   0  0  0  0  0  0  0  0  0  0  0  0
    3.8770    3.9431    0.3147 H   0  0  0  0  0  0  0  0  0  0  0  0
   -0.6820    5.6860   -0.1534 H   0  0  0  0  0  0  0  0  0  0  0  0
    1.7873    5.4990    0.1061 H   0  0  0  0  0  0  0  0  0  0  0  0
   -2.9734    4.5416   -0.3996 H   0  0  0  0  0  0  0  0  0  0  0  0
   -4.2823    2.4037   -0.3397 H   0  0  0  0  0  0  0  0  0  0  0  0
   -4.6499    0.2630   -1.5705 H   0  0  0  0  0  0  0  0  0  0  0  0
   -6.0465   -1.7599   -1.1397 H   0  0  0  0  0  0  0  0  0  0  0  0
   -5.5573   -3.2291    0.8302 H   0  0  0  0  0  0  0  0  0  0  0  0
   -3.6541   -2.6778    2.3647 H   0  0  0  0  0  0  0  0  0  0  0  0
   -2.2358   -0.6702    1.9249 H   0  0  0  0  0  0  0  0  0  0  0  0
  1  9  1  0  0  0  0
  3  8  1  0  0  0  0
  4  5  1  0  0  0  0
  4  3  1  0  0  0  0
  5  6  2  0  0  0  0
  6 29  1  0  0  0  0
  6  7  1  0  0  0  0
  7 30  1  0  0  0  0
  8  7  2  0  0  0  0
  8  9  1  0  0  0  0
  9 10  2  0  0  0  0
 10 31  1  0  0  0  0
 11 10  1  0  0  0  0
 11 32  1  0  0  0  0
 12 11  2  0  0  0  0
 13  1  1  0  0  0  0
 13 12  1  0  0  0  0
 14  2  1  0  0  0  0
 14 13  2  0  0  0  0
 15 16  1  0  0  0  0
 15 14  1  0  0  0  0
 16 17  2  0  0  0  0
 17 34  1  0  0  0  0
 17 12  1  0  0  0  0
 18 19  1  0  0  0  0
 18 15  2  0  0  0  0
 19 20  2  0  0  0  0
 20  2  1  0  0  0  0
 20 21  1  0  0  0  0
 21 26  1  0  0  0  0
 22 23  1  0  0  0  0
 22 21  2  0  0  0  0
 23 24  2  0  0  0  0
 24 39  1  0  0  0  0
 24 25  1  0  0  0  0
 25 40  1  0  0  0  0
 26 25  2  0  0  0  0
 26 41  1  0  0  0  0
 27  4  1  0  0  0  0
 28  5  1  0  0  0  0
 33 16  1  0  0  0  0
 35 18  1  0  0  0  0
 36 19  1  0  0  0  0
 37 22  1  0  0  0  0
 38 23  1  0  0  0  0
M  END
