1,3,32
q = -1.0

 40 42  0  0  1  0  0  0  0  0999 V2000
    0.4200   -0.6857    1.4812 N   0  0  0  0  0  2  0  0  0  0  0  0
    1.7316   -0.8772    1.1943 N   0  0  0  0  0  0  0  0  0  0  0  0
    0.4203   -0.6848   -1.4815 N   0  0  0  0  0  2  0  0  0  0  0  0
    1.7320   -0.8762   -1.1946 N   0  0  0  0  0  0  0  0  0  0  0  0
   -1.1322   -1.1926    3.3636 C   0  0  0  0  0  0  0  0  0  0  0  0
   -1.4064   -0.1557    3.6450 H   0  0  0  0  0  0  0  0  0  0  0  0
   -1.1213   -1.8109    4.2799 H   0  0  0  0  0  0  0  0  0  0  0  0
   -1.9132   -1.5698    2.6722 H   0  0  0  0  0  0  0  0  0  0  0  0
    0.2021   -1.2286    2.6987 C   0  0  2  0  0  3  0  0  0  0  0  0
    1.4169   -1.7783    3.1802 C   0  0  0  0  0  0  0  0  0  0  0  0
    1.5696   -2.2918    4.1347 H   0  0  0  0  0  0  0  0  0  0  0  0
    2.3825   -1.5358    2.2038 C   0  0  0  0  0  0  0  0  0  0  0  0
    3.8389   -1.8601    2.1609 C   0  0  0  0  0  0  0  0  0  0  0  0
    4.1015   -2.4974    1.2904 H   0  0  0  0  0  0  0  0  0  0  0  0
    4.1218   -2.4140    3.0743 H   0  0  0  0  0  0  0  0  0  0  0  0
    4.4689   -0.9467    2.1163 H   0  0  0  0  0  0  0  0  0  0  0  0
   -1.1315   -1.1906   -3.3645 C   0  0  0  0  0  0  0  0  0  0  0  0
   -1.9123   -1.5694   -2.6737 H   0  0  0  0  0  0  0  0  0  0  0  0
   -1.1201   -1.8074   -4.2817 H   0  0  0  0  0  0  0  0  0  0  0  0
   -1.4064   -0.1535   -3.6443 H   0  0  0  0  0  0  0  0  0  0  0  0
    0.2027   -1.2268   -2.6995 C   0  0  1  0  0  3  0  0  0  0  0  0
    1.4177   -1.7757   -3.1813 C   0  0  0  0  0  0  0  0  0  0  0  0
    1.5707   -2.2883   -4.1362 H   0  0  0  0  0  0  0  0  0  0  0  0
    2.3832   -1.5337   -2.2046 C   0  0  0  0  0  0  0  0  0  0  0  0
    3.8396   -1.8576   -2.1618 C   0  0  0  0  0  0  0  0  0  0  0  0
    4.4694   -0.9442   -2.1155 H   0  0  0  0  0  0  0  0  0  0  0  0
    4.1230   -2.4099   -3.0760 H   0  0  0  0  0  0  0  0  0  0  0  0
    4.1022   -2.4964   -1.2923 H   0  0  0  0  0  0  0  0  0  0  0  0
    2.2944   -0.2569    0.0002 C   0  0  1  0  0  0  0  0  0  0  0  0
    3.3695   -0.5013    0.0003 H   0  0  0  0  0  0  0  0  0  0  0  0
    2.1149    1.2516    0.0007 C   0  0  0  0  0  0  0  0  0  0  0  0
    0.8175    1.8320    0.0005 C   0  0  0  0  0  3  0  0  0  0  0  0
    0.7698    3.2456    0.0009 C   0  0  0  0  0  0  0  0  0  0  0  0
   -0.2089    3.7504    0.0008 H   0  0  0  0  0  0  0  0  0  0  0  0
    1.9285    4.0353    0.0013 C   0  0  0  0  0  0  0  0  0  0  0  0
    1.8368    5.1326    0.0016 H   0  0  0  0  0  0  0  0  0  0  0  0
    3.1985    3.4371    0.0015 C   0  0  0  0  0  0  0  0  0  0  0  0
    4.1114    4.0508    0.0019 H   0  0  0  0  0  0  0  0  0  0  0  0
    3.2836    2.0403    0.0012 C   0  0  0  0  0  0  0  0  0  0  0  0
    4.2720    1.5492    0.0013 H   0  0  0  0  0  0  0  0  0  0  0  0
  1  9  1  0  0  0  0
  2  1  1  0  0  0  0
  2 12  1  0  0  0  0
  3  4  1  0  0  0  0
  4 29  1  0  0  0  0
  5  6  1  0  0  0  0
  5  7  1  0  0  0  0
  8  5  1  0  0  0  0
  9 10  1  0  0  0  0
  9  5  1  1  0  0  0
 10 11  1  0  0  0  0
 12 10  2  0  0  0  0
 13 12  1  0  0  0  0
 13 15  1  0  0  0  0
 14 13  1  0  0  0  0
 16 13  1  0  0  0  0
 17 18  1  0  0  0  0
 19 17  1  0  0  0  0
 20 17  1  0  0  0  0
 21 17  1  6  0  0  0
 21  3  1  0  0  0  0
 22 21  1  0  0  0  0
 22 24  2  0  0  0  0
 23 22  1  0  0  0  0
 24 25  1  0  0  0  0
 24  4  1  0  0  0  0
 25 26  1  0  0  0  0
 25 28  1  0  0  0  0
 27 25  1  0  0  0  0
 29 30  1  1  0  0  0
 29 31  1  0  0  0  0
 29  2  1  0  0  0  0
 31 39  1  0  0  0  0
 32 31  2  0  0  0  0
 32 33  1  0  0  0  0
 33 35  2  0  0  0  0
 34 33  1  0  0  0  0
 35 37  1  0  0  0  0
 35 36  1  0  0  0  0
 37 38  1  0  0  0  0
 39 40  1  0  0  0  0
 39 37  2  0  0  0  0
M  END
