3,4,23
q = -1.0, confidence = 0.042

 49 53  0  0  1  0  0  0  0  0999 V2000
    3.7407   -0.6222   -0.0001 N   0  0  0  0  0  0  0  0  0  0  0  0
    4.5340    0.0167    0.0003 H   0  0  0  0  0  0  0  0  0  0  0  0
    1.6207   -1.3378    0.0000 N   0  0  0  0  0  2  0  0  0  0  0  0
   -2.0943    0.3034   -0.0001 N   0  0  0  0  0  2  0  0  0  0  0  0
   -2.9911    2.3532    0.0001 N   0  0  0  0  0  0  0  0  0  0  0  0
   -3.0522    3.3700   -0.0001 H   0  0  0  0  0  0  0  0  0  0  0  0
    2.4240   -0.2480   -0.0000 C   0  0  2  0  0  3  0  0  0  0  0  0
   -1.8282    1.6311   -0.0001 C   0  0  0  0  0  0  0  0  0  0  0  0
    1.7974    1.0607   -0.0001 C   0  0  0  0  0  0  0  0  0  0  0  0
    2.3601    2.3505   -0.0001 C   0  0  0  0  0  0  0  0  0  0  0  0
    3.4552    2.4742   -0.0002 H   0  0  0  0  0  0  0  0  0  0  0  0
    3.8014   -2.0111    0.0000 C   0  0  0  0  0  0  0  0  0  0  0  0
   -4.2861   -0.9883    0.0000 C   0  0  0  0  0  0  0  0  0  0  0  0
   -3.8139   -1.9830   -0.0000 H   0  0  0  0  0  0  0  0  0  0  0  0
   -3.4740    0.1605    0.0000 C   0  0  0  0  0  0  0  0  0  0  0  0
    2.4434   -2.4547    0.0001 C   0  0  0  0  0  0  0  0  0  0  0  0
   -0.4390    2.0480   -0.0001 C   0  0  0  0  0  0  0  0  0  0  0  0
    1.5364    3.5043   -0.0001 C   0  0  0  0  0  0  0  0  0  0  0  0
    0.1333    3.3381   -0.0001 C   0  0  0  0  0  3  0  0  0  0  0  0
   -0.5170    4.2245   -0.0002 H   0  0  0  0  0  0  0  0  0  0  0  0
   -5.6711   -0.7924    0.0001 C   0  0  0  0  0  0  0  0  0  0  0  0
   -6.3357   -1.6692    0.0001 H   0  0  0  0  0  0  0  0  0  0  0  0
    0.3925    0.9089   -0.0000 C   0  0  0  0  0  3  0  0  0  0  0  0
    4.5609   -4.2732    0.0002 C   0  0  0  0  0  0  0  0  0  0  0  0
    5.3757   -5.0125    0.0002 H   0  0  0  0  0  0  0  0  0  0  0  0
    3.0767    5.0446    1.2634 C   0  0  0  0  0  0  0  0  0  0  0  0
    2.4674    4.9411    2.1839 H   0  0  0  0  0  0  0  0  0  0  0  0
    3.5652    6.0408    1.2820 H   0  0  0  0  0  0  0  0  0  0  0  0
    3.8770    4.2790    1.3026 H   0  0  0  0  0  0  0  0  0  0  0  0
   -4.0596    1.4635    0.0001 C   0  0  0  0  0  0  0  0  0  0  0  0
    3.0778    5.0446   -1.2626 C   0  0  0  0  0  0  0  0  0  0  0  0
    3.8782    4.2791   -1.3011 H   0  0  0  0  0  0  0  0  0  0  0  0
    3.5662    6.0407   -1.2808 H   0  0  0  0  0  0  0  0  0  0  0  0
    2.4694    4.9410   -2.1837 H   0  0  0  0  0  0  0  0  0  0  0  0
    2.1399   -3.8285    0.0001 C   0  0  0  0  0  0  0  0  0  0  0  0
    1.0864   -4.1487    0.0001 H   0  0  0  0  0  0  0  0  0  0  0  0
    2.1984    4.8965   -0.0000 C   0  0  0  0  0  0  0  0  0  0  0  0
    4.8789   -2.9086    0.0001 C   0  0  0  0  0  0  0  0  0  0  0  0
    5.9223   -2.5610    0.0001 H   0  0  0  0  0  0  0  0  0  0  0  0
   -5.4484    1.6567    0.0002 C   0  0  0  0  0  0  0  0  0  0  0  0
   -5.8933    2.6625    0.0002 H   0  0  0  0  0  0  0  0  0  0  0  0
    3.2168   -4.7211    0.0002 C   0  0  0  0  0  0  0  0  0  0  0  0
    3.0154   -5.8027    0.0002 H   0  0  0  0  0  0  0  0  0  0  0  0
   -6.2442    0.5033    0.0002 C   0  0  0  0  0  0  0  0  0  0  0  0
   -7.3394    0.6087    0.0002 H   0  0  0  0  0  0  0  0  0  0  0  0
    1.1620    6.0337   -0.0005 C   0  0  0  0  0  0  0  0  0  0  0  0
    0.5141    6.0020   -0.8998 H   0  0  0  0  0  0  0  0  0  0  0  0
    1.6809    7.0131   -0.0005 H   0  0  0  0  0  0  0  0  0  0  0  0
    0.5136    6.0024    0.8983 H   0  0  0  0  0  0  0  0  0  0  0  0
  1  7  1  0  0  0  0
  1 12  1  0  0  0  0
  1  2  1  0  0  0  0
  3 16  1  0  0  0  0
  4  8  1  0  0  0  0
  4 15  1  0  0  0  0
  5 30  1  0  0  0  0
  6  5  1  0  0  0  0
  7  9  1  6  0  0  0
  7  3  1  0  0  0  0
  8  5  1  0  0  0  0
  9 23  2  0  0  0  0
 10  9  1  0  0  0  0
 11 10  1  0  0  0  0
 12 16  2  0  0  0  0
 12 38  1  0  0  0  0
 13 21  1  0  0  0  0
 14 13  1  0  0  0  0
 15 13  2  0  0  0  0
 15 30  1  0  0  0  0
 16 35  1  0  0  0  0
 17  8  2  0  0  0  0
 17 23  1  0  0  0  0
 18 19  1  0  0  0  0
 18 10  2  0  0  0  0
 18 37  1  0  0  0  0
 19 17  1  0  0  0  0
 20 19  1  0  0  0  0
 21 22  1  0  0  0  0
 21 44  2  0  0  0  0
 24 42  1  0  0  0  0
 24 25  1  0  0  0  0
 26 28  1  0  0  0  0
 26 29  1  0  0  0  0
 26 27  1  0  0  0  0
 30 40  2  0  0  0  0
 31 37  1  0  0  0  0
 32 31  1  0  0  0  0
 33 31  1  0  0  0  0
 34 31  1  0  0  0  0
 35 36  1  0  0  0  0
 35 42  2  0  0  0  0
 37 26  1  0  0  0  0
 38 24  2  0  0  0  0
 39 38  1  0  0  0  0
 40 44  1  0  0  0  0
 40 41  1  0  0  0  0
 42 43  1  0  0  0  0
 44 45  1  0  0  0  0
 46 37  1  0  0  0  0
 46 49  1  0  0  0  0
 47 46  1  0  0  0  0
 48 46  1  0  0  0  0
M  END
