1,2,3
q = -1.0, confidence = 0.022

 42 43  0  0  1  0  0  0  0  0999 V2000
    0.8980    1.6748   -0.1170 N   0  0  0  0  0  2  0  0  0  0  0  0
    3.1571   -0.2786   -0.0005 N   0  0  0  0  0  2  0  0  0  0  0  0
   -1.0226   -0.0534   -0.0436 C   0  0  0  0  0  2  0  0  0  0  0  0
   -1.3641    1.3253    0.1357 C   0  0  0  0  0  0  0  0  0  0  0  0
   -2.6954    1.7697    0.3102 C   0  0  0  0  0  0  0  0  0  0  0  0
   -2.9007    2.8366    0.4640 H   0  0  0  0  0  0  0  0  0  0  0  0
   -3.7449    0.8437    0.2610 C   0  0  0  0  0  0  0  0  0  0  0  0
   -3.4422   -0.5245    0.0330 C   0  0  0  0  0  0  0  0  0  0  0  0
   -2.0962   -0.9680   -0.1094 C   0  0  0  0  0  0  0  0  0  0  0  0
   -0.2577    2.2712    0.0859 C   0  0  0  0  0  0  0  0  0  0  0  0
   -0.3997    3.7531    0.2258 C   0  0  0  0  0  0  0  0  0  0  0  0
   -0.6331    4.0199    1.2780 H   0  0  0  0  0  0  0  0  0  0  0  0
   -1.2374    4.1210   -0.3985 H   0  0  0  0  0  0  0  0  0  0  0  0
    0.5304    4.2702   -0.0654 H   0  0  0  0  0  0  0  0  0  0  0  0
    2.0198    2.4954   -0.1652 O   0  0  0  0  0  0  0  0  0  0  0  0
    3.0085    1.9377   -1.0391 C   0  0  0  0  0  0  0  0  0  0  0  0
    3.6657    2.7897   -1.2960 H   0  0  0  0  0  0  0  0  0  0  0  0
    2.5176    1.5662   -1.9659 H   0  0  0  0  0  0  0  0  0  0  0  0
    3.8194    0.8339   -0.3991 C   0  0  2  0  0  3  0  0  0  0  0  0
    5.2079    0.9590   -0.2385 C   0  0  0  0  0  0  0  0  0  0  0  0
    5.7114    1.8783   -0.5720 H   0  0  0  0  0  0  0  0  0  0  0  0
    5.9317   -0.0908    0.3439 C   0  0  0  0  0  0  0  0  0  0  0  0
    7.0210   -0.0117    0.4790 H   0  0  0  0  0  0  0  0  0  0  0  0
    5.2356   -1.2348    0.7523 C   0  0  0  0  0  0  0  0  0  0  0  0
    5.7532   -2.0871    1.2157 H   0  0  0  0  0  0  0  0  0  0  0  0
    3.8487   -1.2896    0.5652 C   0  0  0  0  0  0  0  0  0  0  0  0
    3.2336   -2.1662    0.8357 H   0  0  0  0  0  0  0  0  0  0  0  0
   -5.4104    2.4989    0.6051 C   0  0  0  0  0  0  0  0  0  0  0  0
   -4.9699    2.8941    1.5492 H   0  0  0  0  0  0  0  0  0  0  0  0
   -6.5132    2.5357    0.6829 H   0  0  0  0  0  0  0  0  0  0  0  0
   -5.0870    3.1562   -0.2352 H   0  0  0  0  0  0  0  0  0  0  0  0
   -5.0671    1.1483    0.3855 O   0  0  0  0  0  0  0  0  0  0  0  0
   -4.7503   -1.9585   -1.3151 C   0  0  0  0  0  0  0  0  0  0  0  0
   -5.0567   -1.1623   -2.0295 H   0  0  0  0  0  0  0  0  0  0  0  0
   -5.5896   -2.6685   -1.1879 H   0  0  0  0  0  0  0  0  0  0  0  0
   -3.8648   -2.4948   -1.7159 H   0  0  0  0  0  0  0  0  0  0  0  0
   -4.4856   -1.4056   -0.0249 O   0  0  0  0  0  0  0  0  0  0  0  0
   -2.1127   -3.1828    0.7212 C   0  0  0  0  0  0  0  0  0  0  0  0
   -1.3529   -2.9990    1.5093 H   0  0  0  0  0  0  0  0  0  0  0  0
   -1.9620   -4.2058    0.3281 H   0  0  0  0  0  0  0  0  0  0  0  0
   -3.1397   -3.0888    1.1354 H   0  0  0  0  0  0  0  0  0  0  0  0
   -1.9103   -2.2955   -0.3791 O   0  0  0  0  0  0  0  0  0  0  0  0
  1 10  1  0  0  0  0
  2 26  1  0  0  0  0
  3  4  1  0  0  0  0
  4  5  1  0  0  0  0
  5  6  1  0  0  0  0
  7  5  2  0  0  0  0
  7 32  1  0  0  0  0
  8  7  1  0  0  0  0
  9  3  1  0  0  0  0
  9  8  2  0  0  0  0
 10  4  2  0  0  0  0
 10 11  1  0  0  0  0
 11 12  1  0  0  0  0
 13 11  1  0  0  0  0
 14 11  1  0  0  0  0
 15  1  1  0  0  0  0
 16 15  1  0  0  0  0
 17 16  1  0  0  0  0
 18 16  1  0  0  0  0
 19 16  1  6  0  0  0
 19 20  1  0  0  0  0
 19  2  1  0  0  0  0
 20 22  2  0  0  0  0
 21 20  1  0  0  0  0
 22 23  1  0  0  0  0
 22 24  1  0  0  0  0
 24 25  1  0  0  0  0
 26 24  2  0  0  0  0
 26 27  1  0  0  0  0
 28 30  1  0  0  0  0
 28 29  1  0  0  0  0
 31 28  1  0  0  0  0
 32 28  1  0  0  0  0
 33 35  1  0  0  0  0
 33 37  1  0  0  0  0
 34 33  1  0  0  0  0
 36 33  1  0  0  0  0
 37  8  1  0  0  0  0
 38 41  1  0  0  0  0
 38 39  1  0  0  0  0
 40 38  1  0  0  0  0
 42  9  1  0  0  0  0
 42 38  1  0  0  0  0
M  END
