1,2,3
q = -1.0

 30 31  0  0  1  0  0  0  0  0999 V2000
   -0.3757    1.7151   -0.0418 N   0  0  0  0  0  2  0  0  0  0  0  0
    2.1377    0.0640    0.0141 N   0  0  0  0  0  2  0  0  0  0  0  0
   -2.0072   -0.2878    0.0039 C   0  0  0  0  0  2  0  0  0  0  0  0
   -2.5640    1.0252    0.1494 C   0  0  0  0  0  0  0  0  0  0  0  0
   -3.9550    1.2122    0.3049 C   0  0  0  0  0  0  0  0  0  0  0  0
   -4.3674    2.2251    0.4319 H   0  0  0  0  0  0  0  0  0  0  0  0
   -4.8111    0.1044    0.3025 C   0  0  0  0  0  0  0  0  0  0  0  0
   -5.8959    0.2455    0.4203 H   0  0  0  0  0  0  0  0  0  0  0  0
   -4.2740   -1.1847    0.1489 C   0  0  0  0  0  0  0  0  0  0  0  0
   -4.9452   -2.0582    0.1396 H   0  0  0  0  0  0  0  0  0  0  0  0
   -2.8869   -1.3819    0.0086 C   0  0  0  0  0  0  0  0  0  0  0  0
   -2.4834   -2.3986   -0.0992 H   0  0  0  0  0  0  0  0  0  0  0  0
   -1.6139    2.1330    0.1129 C   0  0  0  0  0  0  0  0  0  0  0  0
   -1.9836    3.5756    0.2337 C   0  0  0  0  0  0  0  0  0  0  0  0
   -2.2302    3.8224    1.2880 H   0  0  0  0  0  0  0  0  0  0  0  0
   -2.8839    3.7952   -0.3722 H   0  0  0  0  0  0  0  0  0  0  0  0
   -1.1517    4.2263   -0.0870 H   0  0  0  0  0  0  0  0  0  0  0  0
    1.6915    2.2902   -0.9220 C   0  0  0  0  0  0  0  0  0  0  0  0
    2.2322    3.2306   -1.1384 H   0  0  0  0  0  0  0  0  0  0  0  0
    1.2766    1.8845   -1.8711 H   0  0  0  0  0  0  0  0  0  0  0  0
    0.6136    2.6906   -0.0638 O   0  0  0  0  0  0  0  0  0  0  0  0
    2.6350    1.2860   -0.2973 C   0  0  2  0  0  3  0  0  0  0  0  0
    3.9818    1.6092   -0.0708 C   0  0  0  0  0  0  0  0  0  0  0  0
    4.3500    2.6123   -0.3320 H   0  0  0  0  0  0  0  0  0  0  0  0
    4.8387    0.6474    0.4823 C   0  0  0  0  0  0  0  0  0  0  0  0
    5.8978    0.8820    0.6668 H   0  0  0  0  0  0  0  0  0  0  0  0
    4.3145   -0.6123    0.7962 C   0  0  0  0  0  0  0  0  0  0  0  0
    4.9417   -1.4038    1.2306 H   0  0  0  0  0  0  0  0  0  0  0  0
    2.9587   -0.8636    0.5501 C   0  0  0  0  0  0  0  0  0  0  0  0
    2.4868   -1.8395    0.7561 H   0  0  0  0  0  0  0  0  0  0  0  0
  1 13  1  0  0  0  0
  2 29  1  0  0  0  0
  3 11  1  0  0  0  0
  3  4  1  0  0  0  0
  4  5  1  0  0  0  0
  5  6  1  0  0  0  0
  7  5  2  0  0  0  0
  7  8  1  0  0  0  0
  9  7  1  0  0  0  0
 10  9  1  0  0  0  0
 11  9  2  0  0  0  0
 12 11  1  0  0  0  0
 13  4  2  0  0  0  0
 13 14  1  0  0  0  0
 14 15  1  0  0  0  0
 16 14  1  0  0  0  0
 17 14  1  0  0  0  0
 18 21  1  0  0  0  0
 19 18  1  0  0  0  0
 20 18  1  0  0  0  0
 21  1  1  0  0  0  0
 22 18  1  6  0  0  0
 22 23  1  0  0  0  0
 22  2  1  0  0  0  0
 23 25  2  0  0  0  0
 24 23  1  0  0  0  0
 25 26  1  0  0  0  0
 25 27  1  0  0  0  0
 27 28  1  0  0  0  0
 29 30  1  0  0  0  0
 29 27  2  0  0  0  0
M  END
