1,21,31
q = -1.0

 49 51  0  0  1  0  0  0  0  0999 V2000
    1.3430    1.0909    0.9515 N   0  0  0  0  0  2  0  0  0  0  0  0
    2.3592    0.6458    1.8053 O   0  0  0  0  0  0  0  0  0  0  0  0
   -0.9969    2.3019   -0.3434 C   0  0  0  0  0  0  0  0  0  0  0  0
    0.1096    3.0163    0.2058 C   0  0  0  0  0  0  0  0  0  0  0  0
    0.2235    4.3993   -0.0693 C   0  0  0  0  0  0  0  0  0  0  0  0
    1.0702    4.9669    0.3422 H   0  0  0  0  0  0  0  0  0  0  0  0
   -0.7056    5.0609   -0.8807 C   0  0  0  0  0  0  0  0  0  0  0  0
   -0.5761    6.1318   -1.0971 H   0  0  0  0  0  0  0  0  0  0  0  0
   -1.7970    4.3543   -1.4093 C   0  0  0  0  0  0  0  0  0  0  0  0
   -2.5386    4.8677   -2.0400 H   0  0  0  0  0  0  0  0  0  0  0  0
   -1.9431    2.9906   -1.1269 C   0  0  0  0  0  0  0  0  0  0  0  0
   -2.7985    2.4186   -1.5140 H   0  0  0  0  0  0  0  0  0  0  0  0
    1.1213    2.3783    1.0738 C   0  0  0  0  0  0  0  0  0  0  0  0
    1.9117    3.1753    2.0732 C   0  0  0  0  0  0  0  0  0  0  0  0
    1.9556    2.6257    3.0335 H   0  0  0  0  0  0  0  0  0  0  0  0
    1.4666    4.1695    2.2438 H   0  0  0  0  0  0  0  0  0  0  0  0
    2.9634    3.3003    1.7398 H   0  0  0  0  0  0  0  0  0  0  0  0
    2.5270   -0.7793    1.7904 C   0  0  0  0  0  0  0  0  0  0  0  0
    1.5429   -1.2735    1.9530 H   0  0  0  0  0  0  0  0  0  0  0  0
    3.1812   -0.9705    2.6615 H   0  0  0  0  0  0  0  0  0  0  0  0
    2.3733   -1.2505   -0.5822 N   0  0  0  0  0  2  0  0  0  0  0  0
    3.1530   -1.3063    0.5206 C   0  0  2  0  0  3  0  0  0  0  0  0
    4.4483   -1.8434    0.4747 C   0  0  0  0  0  0  0  0  0  0  0  0
    5.0631   -1.8734    1.3863 H   0  0  0  0  0  0  0  0  0  0  0  0
    4.9325   -2.3441   -0.7435 C   0  0  0  0  0  0  0  0  0  0  0  0
    5.9436   -2.7738   -0.8058 H   0  0  0  0  0  0  0  0  0  0  0  0
    4.1064   -2.2922   -1.8745 C   0  0  0  0  0  0  0  0  0  0  0  0
    4.4420   -2.6832   -2.8458 H   0  0  0  0  0  0  0  0  0  0  0  0
    2.8269   -1.7324   -1.7532 C   0  0  0  0  0  0  0  0  0  0  0  0
    2.1061   -1.6782   -2.5870 H   0  0  0  0  0  0  0  0  0  0  0  0
   -1.2012    0.8483   -0.1033 C   0  0  0  0  0  3  0  0  0  0  0  0
   -2.3548    0.4204    0.2259 N   0  0  0  0  0  2  0  0  0  0  0  0
   -2.7583   -0.8785    0.5423 C   0  0  0  0  0  0  0  0  0  0  0  0
   -2.3950   -1.4521    1.7921 C   0  0  0  0  0  0  0  0  0  0  0  0
   -2.8939   -2.7267    2.1135 C   0  0  0  0  0  0  0  0  0  0  0  0
   -2.6172   -3.1746    3.0816 H   0  0  0  0  0  0  0  0  0  0  0  0
   -3.7345   -3.4220    1.2332 C   0  0  0  0  0  0  0  0  0  0  0  0
   -4.1134   -4.4197    1.5016 H   0  0  0  0  0  0  0  0  0  0  0  0
   -4.0996   -2.8318    0.0150 C   0  0  0  0  0  0  0  0  0  0  0  0
   -4.7653   -3.3678   -0.6800 H   0  0  0  0  0  0  0  0  0  0  0  0
   -3.6338   -1.5573   -0.3480 C   0  0  0  0  0  0  0  0  0  0  0  0
   -4.0038   -0.9178   -1.6562 C   0  0  0  0  0  0  0  0  0  0  0  0
   -4.7992   -1.4867   -2.1749 H   0  0  0  0  0  0  0  0  0  0  0  0
   -3.1117   -0.8676   -2.3173 H   0  0  0  0  0  0  0  0  0  0  0  0
   -4.3512    0.1258   -1.5026 H   0  0  0  0  0  0  0  0  0  0  0  0
   -1.5257   -0.6894    2.7578 C   0  0  0  0  0  0  0  0  0  0  0  0
   -0.5078   -0.5200    2.3475 H   0  0  0  0  0  0  0  0  0  0  0  0
   -1.4264   -1.2301    3.7188 H   0  0  0  0  0  0  0  0  0  0  0  0
   -1.9403    0.3204    2.9628 H   0  0  0  0  0  0  0  0  0  0  0  0
  1 13  1  0  0  0  0
  1  2  1  0  0  0  0
  3 31  2  0  0  0  0
  3  4  1  0  0  0  0
  4 13  2  0  0  0  0
  5  4  1  0  0  0  0
  5  6  1  0  0  0  0
  7  5  2  0  0  0  0
  8  7  1  0  0  0  0
  9 11  2  0  0  0  0
  9  7  1  0  0  0  0
 10  9  1  0  0  0  0
 11  3  1  0  0  0  0
 12 11  1  0  0  0  0
 13 14  1  0  0  0  0
 14 16  1  0  0  0  0
 14 15  1  0  0  0  0
 17 14  1  0  0  0  0
 18  2  1  0  0  0  0
 18 19  1  0  0  0  0
 18 20  1  0  0  0  0
 21 22  1  0  0  0  0
 22 18  1  1  0  0  0
 23 22  1  0  0  0  0
 23 24  1  0  0  0  0
 25 23  2  0  0  0  0
 26 25  1  0  0  0  0
 27 29  2  0  0  0  0
 27 25  1  0  0  0  0
 28 27  1  0  0  0  0
 29 21  1  0  0  0  0
 30 29  1  0  0  0  0
 31 32  1  0  0  0  0
 32 33  1  0  0  0  0
 33 34  1  0  0  0  0
 34 35  2  0  0  0  0
 34 46  1  0  0  0  0
 35 36  1  0  0  0  0
 37 38  1  0  0  0  0
 37 35  1  0  0  0  0
 39 37  2  0  0  0  0
 40 39  1  0  0  0  0
 41 39  1  0  0  0  0
 41 33  2  0  0  0  0
 42 45  1  0  0  0  0
 42 41  1  0  0  0  0
 43 42  1  0  0  0  0
 44 42  1  0  0  0  0
 46 49  1  0  0  0  0
 46 48  1  0  0  0  0
 47 46  1  0  0  0  0
M  END
