1,2,23
q = -1.0

 41 45  0  0  1  0  0  0  0  0999 V2000
   -2.0237    0.0486   -0.2951 N   0  0  0  0  0  2  0  0  0  0  0  0
    0.0000   -1.4864    0.0531 C   0  0  0  0  0  3  0  0  0  0  0  0
   -1.2555   -2.1356    0.2506 C   0  0  0  0  0  0  0  0  0  0  0  0
   -1.2307   -3.4367    0.8024 C   0  0  0  0  0  0  0  0  0  0  0  0
   -2.1516   -3.9629    1.0843 H   0  0  0  0  0  0  0  0  0  0  0  0
    0.0000   -4.0573    1.0820 C   0  0  0  0  0  0  0  0  0  0  0  0
    0.0000   -5.0528    1.5496 H   0  0  0  0  0  0  0  0  0  0  0  0
   -2.3900   -1.2557   -0.0600 C   0  0  0  0  0  0  0  0  0  0  0  0
   -3.7841   -1.6194   -0.1496 C   0  0  0  0  0  0  0  0  0  0  0  0
   -4.2472   -2.9680   -0.1569 C   0  0  0  0  0  0  0  0  0  0  0  0
   -3.5230   -3.7893   -0.1648 H   0  0  0  0  0  0  0  0  0  0  0  0
   -5.6030   -3.2635   -0.2164 C   0  0  0  0  0  0  0  0  0  0  0  0
   -5.9290   -4.3142   -0.2338 H   0  0  0  0  0  0  0  0  0  0  0  0
   -6.5666   -2.2257   -0.2760 C   0  0  0  0  0  0  0  0  0  0  0  0
   -7.6386   -2.4716   -0.3112 H   0  0  0  0  0  0  0  0  0  0  0  0
   -6.1506   -0.9036   -0.3275 C   0  0  0  0  0  0  0  0  0  0  0  0
   -6.8834   -0.0872   -0.4187 H   0  0  0  0  0  0  0  0  0  0  0  0
   -4.7670   -0.5727   -0.2905 C   0  0  2  0  0  3  0  0  0  0  0  0
   -4.3127    0.7688   -0.4322 C   0  0  0  0  0  0  0  0  0  0  0  0
   -5.0338    1.5906   -0.5464 H   0  0  0  0  0  0  0  0  0  0  0  0
   -2.9605    1.0245   -0.4724 C   0  0  0  0  0  0  0  0  0  0  0  0
   -2.5597    2.0332   -0.6387 H   0  0  0  0  0  0  0  0  0  0  0  0
    2.0237    0.0486   -0.2951 N   0  0  0  0  0  2  0  0  0  0  0  0
    1.2555   -2.1356    0.2506 C   0  0  0  0  0  0  0  0  0  0  0  0
    1.2307   -3.4367    0.8024 C   0  0  0  0  0  0  0  0  0  0  0  0
    2.1516   -3.9629    1.0843 H   0  0  0  0  0  0  0  0  0  0  0  0
    2.3900   -1.2557   -0.0600 C   0  0  0  0  0  0  0  0  0  0  0  0
    3.7841   -1.6194   -0.1496 C   0  0  0  0  0  0  0  0  0  0  0  0
    4.2472   -2.9680   -0.1569 C   0  0  0  0  0  0  0  0  0  0  0  0
    3.5230   -3.7893   -0.1648 H   0  0  0  0  0  0  0  0  0  0  0  0
    5.6030   -3.2635   -0.2164 C   0  0  0  0  0  0  0  0  0  0  0  0
    5.9290   -4.3142   -0.2338 H   0  0  0  0  0  0  0  0  0  0  0  0
    6.5666   -2.2257   -0.2760 C   0  0  0  0  0  0  0  0  0  0  0  0
    7.6386   -2.4716   -0.3112 H   0  0  0  0  0  0  0  0  0  0  0  0
    6.1506   -0.9036   -0.3275 C   0  0  0  0  0  0  0  0  0  0  0  0
    6.8834   -0.0872   -0.4187 H   0  0  0  0  0  0  0  0  0  0  0  0
    4.7670   -0.5727   -0.2905 C   0  0  1  0  0  3  0  0  0  0  0  0
    4.3127    0.7688   -0.4322 C   0  0  0  0  0  0  0  0  0  0  0  0
    5.0338    1.5907   -0.5464 H   0  0  0  0  0  0  0  0  0  0  0  0
    2.9605    1.0245   -0.4724 C   0  0  0  0  0  0  0  0  0  0  0  0
    2.5597    2.0332   -0.6386 H   0  0  0  0  0  0  0  0  0  0  0  0
  1  8  1  0  0  0  0
  2  3  2  0  0  0  0
  2 24  1  0  0  0  0
  3  4  1  0  0  0  0
  4  6  2  0  0  0  0
  4  5  1  0  0  0  0
  6  7  1  0  0  0  0
  8  3  1  0  0  0  0
  9  8  2  0  0  0  0
 10  9  1  0  0  0  0
 11 10  1  0  0  0  0
 12 10  2  0  0  0  0
 13 12  1  0  0  0  0
 14 12  1  0  0  0  0
 15 14  1  0  0  0  0
 16 18  1  0  0  0  0
 16 14  2  0  0  0  0
 17 16  1  0  0  0  0
 18 19  1  6  0  0  0
 18  9  1  0  0  0  0
 20 19  1  0  0  0  0
 21 19  2  0  0  0  0
 21  1  1  0  0  0  0
 22 21  1  0  0  0  0
 23 27  1  0  0  0  0
 24 25  2  0  0  0  0
 25  6  1  0  0  0  0
 25 26  1  0  0  0  0
 27 24  1  0  0  0  0
 28 27  2  0  0  0  0
 29 28  1  0  0  0  0
 30 29  1  0  0  0  0
 31 29  2  0  0  0  0
 32 31  1  0  0  0  0
 33 31  1  0  0  0  0
 34 33  1  0  0  0  0
 35 37  1  0  0  0  0
 35 33  2  0  0  0  0
 36 35  1  0  0  0  0
 37 38  1  6  0  0  0
 37 28  1  0  0  0  0
 39 38  1  0  0  0  0
 40 38  2  0  0  0  0
 40 23  1  0  0  0  0
 41 40  1  0  0  0  0
M  END
