1,6,31
q = 0.0, confidence = 0.982

 55 60  0  0  1  0  0  0  0  0999 V2000
    1.7842    1.6205   -1.0283 N   0  0  0  0  0  2  0  0  0  0  0  0
    2.4703   -0.4163    0.0046 N   0  0  0  0  0  0  0  0  0  0  0  0
    1.4148   -2.1178    1.0049 N   0  0  0  0  0  0  0  0  0  0  0  0
   -1.4151   -2.1172   -1.0058 N   0  0  0  0  0  0  0  0  0  0  0  0
   -2.4703   -0.4163   -0.0043 N   0  0  0  0  0  0  0  0  0  0  0  0
   -1.7841    1.6207    1.0283 N   0  0  0  0  0  2  0  0  0  0  0  0
    2.0013    2.6054   -1.9411 C   0  0  0  0  0  3  0  0  0  0  0  0
    1.2508    3.4102   -1.9359 H   0  0  0  0  0  0  0  0  0  0  0  0
    3.1125    2.6207   -2.7844 C   0  0  0  0  0  0  0  0  0  0  0  0
    3.2406    3.4537   -3.4890 H   0  0  0  0  0  0  0  0  0  0  0  0
    4.0254    1.5600   -2.7188 C   0  0  0  0  0  0  0  0  0  0  0  0
    4.8942    1.5148   -3.3919 H   0  0  0  0  0  0  0  0  0  0  0  0
    3.8047    0.5386   -1.7923 C   0  0  0  0  0  0  0  0  0  0  0  0
    4.4716   -0.3309   -1.7397 H   0  0  0  0  0  0  0  0  0  0  0  0
    2.6865    0.6066   -0.9396 C   0  0  0  0  0  0  0  0  0  0  0  0
    1.2068   -0.9541    0.2874 C   0  0  1  0  0  3  0  0  0  0  0  0
    3.4627   -1.2275    0.5957 C   0  0  0  0  0  0  0  0  0  0  0  0
    4.8515   -1.0878    0.7153 C   0  0  0  0  0  0  0  0  0  0  0  0
    5.3853   -0.2232    0.3008 H   0  0  0  0  0  0  0  0  0  0  0  0
    5.5448   -2.0874    1.4192 C   0  0  0  0  0  0  0  0  0  0  0  0
    6.6357   -2.0034    1.5270 H   0  0  0  0  0  0  0  0  0  0  0  0
    4.8728   -3.1836    1.9929 C   0  0  0  0  0  0  0  0  0  0  0  0
    5.4471   -3.9501    2.5327 H   0  0  0  0  0  0  0  0  0  0  0  0
    3.4771   -3.3109    1.9001 C   0  0  0  0  0  0  0  0  0  0  0  0
    2.9534   -4.1598    2.3610 H   0  0  0  0  0  0  0  0  0  0  0  0
    2.7865   -2.3129    1.2030 C   0  0  0  0  0  0  0  0  0  0  0  0
    0.3671   -2.8203    1.7221 C   0  0  0  0  0  0  0  0  0  0  0  0
   -0.3995   -2.0874    2.0440 H   0  0  0  0  0  0  0  0  0  0  0  0
   -0.1262   -3.5968    1.1033 H   0  0  0  0  0  0  0  0  0  0  0  0
    0.8010   -3.3011    2.6180 H   0  0  0  0  0  0  0  0  0  0  0  0
    0.0000   -0.3230   -0.0001 C   0  0  0  0  0  3  0  0  0  0  0  0
   -1.2069   -0.9539   -0.2877 C   0  0  0  0  0  0  0  0  0  0  0  0
   -0.3675   -2.8197   -1.7233 C   0  0  0  0  0  0  0  0  0  0  0  0
   -0.8015   -3.2991   -2.6200 H   0  0  0  0  0  0  0  0  0  0  0  0
    0.3996   -2.0869   -2.0441 H   0  0  0  0  0  0  0  0  0  0  0  0
    0.1249   -3.5972   -1.1051 H   0  0  0  0  0  0  0  0  0  0  0  0
   -2.7869   -2.3123   -1.2034 C   0  0  0  0  0  0  0  0  0  0  0  0
   -3.4776   -3.3100   -1.9008 C   0  0  0  0  0  0  0  0  0  0  0  0
   -2.9540   -4.1586   -2.3623 H   0  0  0  0  0  0  0  0  0  0  0  0
   -4.8734   -3.1828   -1.9930 C   0  0  0  0  0  0  0  0  0  0  0  0
   -5.4479   -3.9490   -2.5329 H   0  0  0  0  0  0  0  0  0  0  0  0
   -5.5453   -2.0869   -1.4185 C   0  0  0  0  0  0  0  0  0  0  0  0
   -6.6361   -2.0029   -1.5258 H   0  0  0  0  0  0  0  0  0  0  0  0
   -4.8517   -1.0876   -0.7143 C   0  0  0  0  0  0  0  0  0  0  0  0
   -5.3855   -0.2232   -0.2992 H   0  0  0  0  0  0  0  0  0  0  0  0
   -3.4629   -1.2272   -0.5954 C   0  0  0  0  0  0  0  0  0  0  0  0
   -2.6862    0.6065    0.9401 C   0  0  2  0  0  3  0  0  0  0  0  0
   -3.8040    0.5383    1.7933 C   0  0  0  0  0  0  0  0  0  0  0  0
   -4.4707   -0.3313    1.7410 H   0  0  0  0  0  0  0  0  0  0  0  0
   -4.0246    1.5597    2.7197 C   0  0  0  0  0  0  0  0  0  0  0  0
   -4.8930    1.5144    3.3932 H   0  0  0  0  0  0  0  0  0  0  0  0
   -3.1119    2.6207    2.7849 C   0  0  0  0  0  0  0  0  0  0  0  0
   -3.2399    3.4538    3.4894 H   0  0  0  0  0  0  0  0  0  0  0  0
   -2.0010    2.6056    1.9411 C   0  0  0  0  0  0  0  0  0  0  0  0
   -1.2507    3.4105    1.9355 H   0  0  0  0  0  0  0  0  0  0  0  0
  1 15  1  0  0  0  0
  2 16  1  0  0  0  0
  2 17  1  0  0  0  0
  3 26  1  0  0  0  0
  3 27  1  0  0  0  0
  4 32  1  0  0  0  0
  6 54  1  0  0  0  0
  7  8  1  0  0  0  0
  7  1  1  0  0  0  0
  9 11  2  0  0  0  0
  9  7  1  0  0  0  0
 10  9  1  0  0  0  0
 11 13  1  0  0  0  0
 12 11  1  0  0  0  0
 13 14  1  0  0  0  0
 13 15  2  0  0  0  0
 15  2  1  0  0  0  0
 16 31  1  1  0  0  0
 16  3  1  0  0  0  0
 17 18  2  0  0  0  0
 17 26  1  0  0  0  0
 18 20  1  0  0  0  0
 19 18  1  0  0  0  0
 20 21  1  0  0  0  0
 20 22  2  0  0  0  0
 22 23  1  0  0  0  0
 24 22  1  0  0  0  0
 24 25  1  0  0  0  0
 26 24  2  0  0  0  0
 27 28  1  0  0  0  0
 27 30  1  0  0  0  0
 29 27  1  0  0  0  0
 32  5  1  0  0  0  0
 32 31  2  0  0  0  0
 33 36  1  0  0  0  0
 33  4  1  0  0  0  0
 34 33  1  0  0  0  0
 35 33  1  0  0  0  0
 37  4  1  0  0  0  0
 37 46  1  0  0  0  0
 38 37  2  0  0  0  0
 39 38  1  0  0  0  0
 40 38  1  0  0  0  0
 40 42  2  0  0  0  0
 41 40  1  0  0  0  0
 42 44  1  0  0  0  0
 43 42  1  0  0  0  0
 44 46  2  0  0  0  0
 44 45  1  0  0  0  0
 46  5  1  0  0  0  0
 47  5  1  1  0  0  0
 47  6  1  0  0  0  0
 47 48  1  0  0  0  0
 48 50  2  0  0  0  0
 49 48  1  0  0  0  0
 50 52  1  0  0  0  0
 50 51  1  0  0  0  0
 52 53  1  0  0  0  0
 54 52  2  0  0  0  0
 55 54  1  0  0  0  0
M  END
