1,2,5
q = -1.0

 44 45  0  0  1  0  0  0  0  0999 V2000
   -1.1622    2.1515    0.0488 N   0  0  0  0  0  0  0  0  0  0  0  0
   -1.2003   -2.1289   -0.1791 N   0  0  0  0  0  0  0  0  0  0  0  0
    1.8033    1.1553   -0.5367 C   0  0  2  0  0  0  0  0  0  0  0  0
    1.7414    1.3470   -1.6364 H   0  0  0  0  0  0  0  0  0  0  0  0
    0.9120   -0.0476   -0.2380 C   0  0  0  0  0  2  0  0  0  0  0  0
    1.7259   -1.1183    0.0733 C   0  0  2  0  0  3  0  0  0  0  0  0
    3.1309   -0.7062    0.1049 C   0  0  0  0  0  0  0  0  0  0  0  0
    4.3067   -1.4192    0.4043 C   0  0  0  0  0  0  0  0  0  0  0  0
    4.2700   -2.4875    0.6697 H   0  0  0  0  0  0  0  0  0  0  0  0
    5.5387   -0.7413    0.3697 C   0  0  0  0  0  0  0  0  0  0  0  0
    6.4652   -1.2862    0.6090 H   0  0  0  0  0  0  0  0  0  0  0  0
    5.6045    0.6232    0.0372 C   0  0  0  0  0  0  0  0  0  0  0  0
    6.5779    1.1364    0.0200 H   0  0  0  0  0  0  0  0  0  0  0  0
    4.4276    1.3371   -0.2738 C   0  0  0  0  0  0  0  0  0  0  0  0
    4.4837    2.4047   -0.5419 H   0  0  0  0  0  0  0  0  0  0  0  0
    3.2032    0.6704   -0.2342 C   0  0  0  0  0  0  0  0  0  0  0  0
    1.3799    2.4433    0.1667 C   0  0  0  0  0  0  0  0  0  0  0  0
    1.3604    2.2927    1.2664 H   0  0  0  0  0  0  0  0  0  0  0  0
    2.1264    3.2425   -0.0247 H   0  0  0  0  0  0  0  0  0  0  0  0
    0.0444    2.9355   -0.3604 C   0  0  0  0  0  0  0  0  0  0  0  0
   -0.1412    3.9889   -0.0503 H   0  0  0  0  0  0  0  0  0  0  0  0
    0.0719    2.9215   -1.4686 H   0  0  0  0  0  0  0  0  0  0  0  0
    1.2714   -2.5281    0.2917 C   0  0  0  0  0  0  0  0  0  0  0  0
    1.0851   -2.7526    1.3664 H   0  0  0  0  0  0  0  0  0  0  0  0
    2.0745   -3.2325   -0.0131 H   0  0  0  0  0  0  0  0  0  0  0  0
    0.0526   -2.8522   -0.5560 C   0  0  0  0  0  0  0  0  0  0  0  0
   -0.1807   -3.9403   -0.5120 H   0  0  0  0  0  0  0  0  0  0  0  0
    0.2680   -2.5892   -1.6101 H   0  0  0  0  0  0  0  0  0  0  0  0
   -2.2810    2.6341   -0.8142 C   0  0  0  0  0  0  0  0  0  0  0  0
   -3.2153    2.1342   -0.5048 H   0  0  0  0  0  0  0  0  0  0  0  0
   -2.0608    2.3708   -1.8647 H   0  0  0  0  0  0  0  0  0  0  0  0
   -2.3696    3.7389   -0.7168 H   0  0  0  0  0  0  0  0  0  0  0  0
   -1.4871    2.4533    1.4720 C   0  0  0  0  0  0  0  0  0  0  0  0
   -1.6327    3.5498    1.5977 H   0  0  0  0  0  0  0  0  0  0  0  0
   -0.6607    2.1118    2.1200 H   0  0  0  0  0  0  0  0  0  0  0  0
   -2.4095    1.9066    1.7399 H   0  0  0  0  0  0  0  0  0  0  0  0
   -2.2257   -2.4688   -1.2075 C   0  0  0  0  0  0  0  0  0  0  0  0
   -2.3521   -3.5735   -1.2517 H   0  0  0  0  0  0  0  0  0  0  0  0
   -1.8845   -2.0954   -2.1900 H   0  0  0  0  0  0  0  0  0  0  0  0
   -3.1764   -1.9760   -0.9374 H   0  0  0  0  0  0  0  0  0  0  0  0
   -1.6701   -2.6109    1.1509 C   0  0  0  0  0  0  0  0  0  0  0  0
   -1.7964   -3.7161    1.1229 H   0  0  0  0  0  0  0  0  0  0  0  0
   -2.6285   -2.1117    1.3811 H   0  0  0  0  0  0  0  0  0  0  0  0
   -0.9305   -2.3404    1.9245 H   0  0  0  0  0  0  0  0  0  0  0  0
  1 33  1  0  0  0  0
  2 41  1  0  0  0  0
  3  4  1  6  0  0  0
  3  5  1  0  0  0  0
  3 16  1  0  0  0  0
  3 17  1  0  0  0  0
  5  6  1  0  0  0  0
  6  7  1  0  0  0  0
  6 23  1  6  0  0  0
  7  8  1  0  0  0  0
  8  9  1  0  0  0  0
 10  8  2  0  0  0  0
 10 11  1  0  0  0  0
 12 10  1  0  0  0  0
 13 12  1  0  0  0  0
 14 16  1  0  0  0  0
 14 12  2  0  0  0  0
 15 14  1  0  0  0  0
 16  7  2  0  0  0  0
 17 18  1  0  0  0  0
 19 17  1  0  0  0  0
 20 21  1  0  0  0  0
 20  1  1  0  0  0  0
 20 17  1  0  0  0  0
 22 20  1  0  0  0  0
 23 24  1  0  0  0  0
 25 23  1  0  0  0  0
 26 27  1  0  0  0  0
 26  2  1  0  0  0  0
 26 23  1  0  0  0  0
 28 26  1  0  0  0  0
 29 32  1  0  0  0  0
 29 30  1  0  0  0  0
 29  1  1  0  0  0  0
 31 29  1  0  0  0  0
 33 34  1  0  0  0  0
 33 36  1  0  0  0  0
 33 35  1  0  0  0  0
 37 40  1  0  0  0  0
 37  2  1  0  0  0  0
 38 37  1  0  0  0  0
 39 37  1  0  0  0  0
 41 43  1  0  0  0  0
 41 44  1  0  0  0  0
 42 41  1  0  0  0  0
M  END
