3,4,46
q = -1.0, confidence = 0.046

 56 57  0  0  1  0  0  0  0  0999 V2000
    2.4931    1.9844    0.9127 O   0  0  0  0  0  0  0  0  0  0  0  0
   -2.0676    2.6909   -0.5189 O   0  0  0  0  0  0  0  0  0  0  0  0
    1.3598    0.1390    0.3075 N   0  0  0  0  0  2  0  0  0  0  0  0
   -1.2968    0.5918   -0.5554 N   0  0  0  0  0  2  0  0  0  0  0  0
    2.7115   -1.9205   -1.4560 C   0  0  0  0  0  0  0  0  0  0  0  0
    3.2862   -2.2738   -2.3368 H   0  0  0  0  0  0  0  0  0  0  0  0
    1.7148   -1.5778   -1.8001 H   0  0  0  0  0  0  0  0  0  0  0  0
    2.5286   -2.7733   -0.7740 H   0  0  0  0  0  0  0  0  0  0  0  0
    3.4829   -0.7901   -0.7544 C   0  0  0  0  0  0  0  0  0  0  0  0
    2.7406   -0.3436    0.5492 C   0  0  1  0  0  0  0  0  0  0  0  0
    2.6601   -1.2303    1.2111 H   0  0  0  0  0  0  0  0  0  0  0  0
    3.3690    0.8737    1.2599 C   0  0  0  0  0  0  0  0  0  0  0  0
    3.3633    0.7781    2.3659 H   0  0  0  0  0  0  0  0  0  0  0  0
    4.3894    1.1303    0.9221 H   0  0  0  0  0  0  0  0  0  0  0  0
    1.3391    1.4238    0.4751 C   0  0  1  0  0  3  0  0  0  0  0  0
    0.1964    2.4211    0.3442 C   0  0  0  0  0  0  0  0  0  0  0  0
   -1.0496    1.8317   -0.2719 C   0  0  2  0  0  3  0  0  0  0  0  0
   -0.1497    2.9390    1.7836 C   0  0  0  0  0  0  0  0  0  0  0  0
    0.7557    3.4581    2.1583 H   0  0  0  0  0  0  0  0  0  0  0  0
   -0.9398    3.7087    1.6663 H   0  0  0  0  0  0  0  0  0  0  0  0
   -0.5946    1.8608    2.7671 C   0  0  0  0  0  0  0  0  0  0  0  0
   -0.7738    2.3004    3.7680 H   0  0  0  0  0  0  0  0  0  0  0  0
    0.1604    1.0567    2.8776 H   0  0  0  0  0  0  0  0  0  0  0  0
   -1.5336    1.3707    2.4432 H   0  0  0  0  0  0  0  0  0  0  0  0
    0.6547    3.6390   -0.5180 C   0  0  0  0  0  0  0  0  0  0  0  0
   -0.1541    4.3946   -0.4558 H   0  0  0  0  0  0  0  0  0  0  0  0
    1.5456    4.0741   -0.0235 H   0  0  0  0  0  0  0  0  0  0  0  0
    0.9578    3.3126   -1.9772 C   0  0  0  0  0  0  0  0  0  0  0  0
    1.2591    4.2267   -2.5258 H   0  0  0  0  0  0  0  0  0  0  0  0
    0.0734    2.8898   -2.4958 H   0  0  0  0  0  0  0  0  0  0  0  0
    1.7846    2.5816   -2.0699 H   0  0  0  0  0  0  0  0  0  0  0  0
    3.6493    0.3832   -1.7346 C   0  0  0  0  0  0  0  0  0  0  0  0
    4.2041    1.2399   -1.2994 H   0  0  0  0  0  0  0  0  0  0  0  0
    2.6609    0.7467   -2.0795 H   0  0  0  0  0  0  0  0  0  0  0  0
    4.2082    0.0505   -2.6325 H   0  0  0  0  0  0  0  0  0  0  0  0
    4.8649   -1.3244   -0.3300 C   0  0  0  0  0  0  0  0  0  0  0  0
    5.4942   -0.5489    0.1546 H   0  0  0  0  0  0  0  0  0  0  0  0
    5.4207   -1.6884   -1.2175 H   0  0  0  0  0  0  0  0  0  0  0  0
    4.7624   -2.1747    0.3749 H   0  0  0  0  0  0  0  0  0  0  0  0
   -3.2194    1.8865   -0.9293 C   0  0  0  0  0  0  0  0  0  0  0  0
   -3.6067    2.3147   -1.8723 H   0  0  0  0  0  0  0  0  0  0  0  0
   -3.9920    1.9843   -0.1401 H   0  0  0  0  0  0  0  0  0  0  0  0
   -2.6736    0.4479   -1.0768 C   0  0  2  0  0  0  0  0  0  0  0  0
   -2.5930    0.1560   -2.1468 H   0  0  0  0  0  0  0  0  0  0  0  0
   -3.3293   -0.7428   -0.3212 C   0  0  0  0  0  0  0  0  0  0  0  0
   -2.2558   -1.8768   -0.3420 C   0  0  0  0  0  3  0  0  0  0  0  0
   -2.2137   -2.3372   -1.3568 H   0  0  0  0  0  0  0  0  0  0  0  0
   -2.5298   -2.6795    0.3743 H   0  0  0  0  0  0  0  0  0  0  0  0
   -3.6556   -0.3771    1.1354 C   0  0  0  0  0  0  0  0  0  0  0  0
   -2.7383   -0.0818    1.6830 H   0  0  0  0  0  0  0  0  0  0  0  0
   -4.0678   -1.2644    1.6550 H   0  0  0  0  0  0  0  0  0  0  0  0
   -4.4099    0.4334    1.2209 H   0  0  0  0  0  0  0  0  0  0  0  0
   -4.6132   -1.1696   -1.0510 C   0  0  0  0  0  0  0  0  0  0  0  0
   -5.0505   -2.0638   -0.5630 H   0  0  0  0  0  0  0  0  0  0  0  0
   -4.4060   -1.4323   -2.1089 H   0  0  0  0  0  0  0  0  0  0  0  0
   -5.3866   -0.3708   -1.0383 H   0  0  0  0  0  0  0  0  0  0  0  0
  1 12  1  0  0  0  0
  2 17  1  0  0  0  0
  3 15  1  0  0  0  0
  3 10  1  0  0  0  0
  4 17  1  0  0  0  0
  5  8  1  0  0  0  0
  5  9  1  0  0  0  0
  6  5  1  0  0  0  0
  7  5  1  0  0  0  0
  9 36  1  0  0  0  0
  9 10  1  0  0  0  0
 10 11  1  1  0  0  0
 10 12  1  0  0  0  0
 12 13  1  0  0  0  0
 14 12  1  0  0  0  0
 15 16  1  1  0  0  0
 15  1  1  0  0  0  0
 16 18  1  0  0  0  0
 17 16  1  1  0  0  0
 18 19  1  0  0  0  0
 18 21  1  0  0  0  0
 20 18  1  0  0  0  0
 21 23  1  0  0  0  0
 21 22  1  0  0  0  0
 24 21  1  0  0  0  0
 25 26  1  0  0  0  0
 25 27  1  0  0  0  0
 25 16  1  0  0  0  0
 28 25  1  0  0  0  0
 29 28  1  0  0  0  0
 30 28  1  0  0  0  0
 31 28  1  0  0  0  0
 32 33  1  0  0  0  0
 32  9  1  0  0  0  0
 34 32  1  0  0  0  0
 35 32  1  0  0  0  0
 36 37  1  0  0  0  0
 36 39  1  0  0  0  0
 38 36  1  0  0  0  0
 40  2  1  0  0  0  0
 40 42  1  0  0  0  0
 41 40  1  0  0  0  0
 43 44  1  6  0  0  0
 43 40  1  0  0  0  0
 43  4  1  0  0  0  0
 43 45  1  0  0  0  0
 45 49  1  0  0  0  0
 46 45  1  0  0  0  0
 46 48  1  0  0  0  0
 47 46  1  0  0  0  0
 49 52  1  0  0  0  0
 49 51  1  0  0  0  0
 49 50  1  0  0  0  0
 53 56  1  0  0  0  0
 53 54  1  0  0  0  0
 53 45  1  0  0  0  0
 55 53  1  0  0  0  0
M  END
