1,10,21
q = -2.0, confidence = 0.878

 22 23  0  0  0  0  0  0  0  0999 V2000
   -2.0235   -0.0027   -0.6611 N   0  0  0  0  0  2  0  0  0  0  0  0
   -2.8616   -0.0064    0.4193 C   0  0  0  0  0  0  0  0  0  0  0  0
   -4.2527   -0.0073    0.2261 C   0  0  0  0  0  0  0  0  0  0  0  0
   -4.9300   -0.0102    1.0894 H   0  0  0  0  0  0  0  0  0  0  0  0
   -4.7516   -0.0045   -1.0875 C   0  0  0  0  0  0  0  0  0  0  0  0
   -5.8387   -0.0052   -1.2588 H   0  0  0  0  0  0  0  0  0  0  0  0
   -3.8799   -0.0008   -2.1841 C   0  0  0  0  0  0  0  0  0  0  0  0
   -4.2384    0.0014   -3.2216 H   0  0  0  0  0  0  0  0  0  0  0  0
   -2.4877    0.0002   -1.9439 C   0  0  0  0  0  0  0  0  0  0  0  0
   -0.7757   -0.0070    1.5711 N   0  0  0  0  0  2  0  0  0  0  0  0
   -2.1369   -0.0094    1.7026 C   0  0  0  0  0  0  0  0  0  0  0  0
   -2.7705   -0.0149    2.9497 C   0  0  0  0  0  3  0  0  0  0  0  0
   -3.8652   -0.0167    3.0246 H   0  0  0  0  0  0  0  0  0  0  0  0
   -1.9506   -0.0184    4.1029 C   0  0  0  0  0  0  0  0  0  0  0  0
   -2.4161   -0.0227    5.1018 H   0  0  0  0  0  0  0  0  0  0  0  0
   -0.5727   -0.0166    3.9819 C   0  0  0  0  0  0  0  0  0  0  0  0
    0.0879   -0.0195    4.8608 H   0  0  0  0  0  0  0  0  0  0  0  0
    0.0906   -0.0111    2.6838 C   0  0  0  0  0  0  0  0  0  0  0  0
   -1.5927    0.0039   -2.9085 O   0  0  0  0  0  0  0  0  0  0  0  0
    1.3258   -0.0103    2.5307 O   0  0  0  0  0  0  0  0  0  0  0  0
   -0.0495    0.0051   -2.4142 C   0  0  0  0  0  3  0  0  0  0  0  0
    0.6980    0.0079   -3.3436 O   0  0  0  0  0  0  0  0  0  0  0  0
  1  2  1  0  0  0  0
  2 11  2  0  0  0  0
  3  2  1  0  0  0  0
  3  4  1  0  0  0  0
  5  3  2  0  0  0  0
  6  5  1  0  0  0  0
  7  9  2  0  0  0  0
  7  5  1  0  0  0  0
  8  7  1  0  0  0  0
  9  1  1  0  0  0  0
 10 11  1  0  0  0  0
 10 18  1  0  0  0  0
 11 12  1  0  0  0  0
 12 13  1  0  0  0  0
 12 14  1  0  0  0  0
 14 15  1  0  0  0  0
 16 14  2  0  0  0  0
 16 17  1  0  0  0  0
 18 16  1  0  0  0  0
 19 21  1  0  0  0  0
 19  9  1  0  0  0  0
 20 18  2  0  0  0  0
 22 21  2  0  0  0  0
M  END
