1,3,65
q = -1.0

 71 77  0  0  1  0  0  0  0  0999 V2000
    2.3681   -1.1123   -1.6676 N   0  0  0  0  0  2  0  0  0  0  0  0
    0.7874   -4.6049   -0.7071 N   0  0  0  0  0  0  0  0  0  0  0  0
    2.3625    1.4212    1.5405 N   0  0  0  0  0  2  0  0  0  0  0  0
    0.6422    4.7333    0.4472 N   0  0  0  0  0  0  0  0  0  0  0  0
   -5.6012   -1.5731    0.4347 N   0  0  0  0  0  0  0  0  0  0  0  0
   -3.7805    1.4671   -1.6120 N   0  0  0  0  0  0  0  0  0  0  0  0
    0.4976   -2.2671   -0.7686 N   0  0  0  0  0  0  0  0  0  0  0  0
    0.3679    2.4218    0.7394 N   0  0  0  0  0  0  0  0  0  0  0  0
   -3.7926   -0.0851    0.1299 N   0  0  0  0  0  0  0  0  0  0  0  0
    1.4639   -2.1209   -1.7861 C   0  0  1  0  0  3  0  0  0  0  0  0
    1.4839   -2.9759   -2.9075 C   0  0  0  0  0  0  0  0  0  0  0  0
    0.7380   -3.7737   -2.9726 H   0  0  0  0  0  0  0  0  0  0  0  0
    2.4486   -2.7869   -3.8980 C   0  0  0  0  0  0  0  0  0  0  0  0
    2.4652   -3.4443   -4.7802 H   0  0  0  0  0  0  0  0  0  0  0  0
    3.3778   -1.7436   -3.7608 C   0  0  0  0  0  0  0  0  0  0  0  0
    4.1561   -1.5582   -4.5141 H   0  0  0  0  0  0  0  0  0  0  0  0
    3.2992   -0.9237   -2.6365 C   0  0  0  0  0  0  0  0  0  0  0  0
    4.0138   -0.1114   -2.4313 H   0  0  0  0  0  0  0  0  0  0  0  0
    0.2888   -3.5061   -0.1217 C   0  0  0  0  0  0  0  0  0  0  0  0
   -0.3908   -3.5603    1.1240 C   0  0  0  0  0  0  0  0  0  0  0  0
   -0.7505   -2.6451    1.6092 H   0  0  0  0  0  0  0  0  0  0  0  0
   -0.5659   -4.8064    1.7263 C   0  0  0  0  0  0  0  0  0  0  0  0
   -1.0881   -4.8725    2.6933 H   0  0  0  0  0  0  0  0  0  0  0  0
   -0.0591   -5.9614    1.1051 C   0  0  0  0  0  0  0  0  0  0  0  0
   -0.1777   -6.9585    1.5519 H   0  0  0  0  0  0  0  0  0  0  0  0
    0.6222   -5.7919   -0.1063 C   0  0  0  0  0  0  0  0  0  0  0  0
    1.0601   -6.6613   -0.6287 H   0  0  0  0  0  0  0  0  0  0  0  0
    1.4192    2.3887    1.6802 C   0  0  1  0  0  3  0  0  0  0  0  0
    1.4679    3.2910    2.7616 C   0  0  0  0  0  0  0  0  0  0  0  0
    0.6975    4.0652    2.8374 H   0  0  0  0  0  0  0  0  0  0  0  0
    2.4885    3.1712    3.7058 C   0  0  0  0  0  0  0  0  0  0  0  0
    2.5327    3.8669    4.5573 H   0  0  0  0  0  0  0  0  0  0  0  0
    3.4324    2.1404    3.5693 C   0  0  0  0  0  0  0  0  0  0  0  0
    4.2405    1.9953    4.2996 H   0  0  0  0  0  0  0  0  0  0  0  0
    3.3351    1.2769    2.4787 C   0  0  0  0  0  0  0  0  0  0  0  0
    4.0291    0.4327    2.3059 H   0  0  0  0  0  0  0  0  0  0  0  0
    0.0360    3.6064    0.0431 C   0  0  0  0  0  0  0  0  0  0  0  0
   -0.8644    3.5832   -1.0563 C   0  0  0  0  0  0  0  0  0  0  0  0
   -1.3491    2.6552   -1.3885 H   0  0  0  0  0  0  0  0  0  0  0  0
   -1.1252    4.7889   -1.7100 C   0  0  0  0  0  0  0  0  0  0  0  0
   -1.8205    4.7980   -2.5635 H   0  0  0  0  0  0  0  0  0  0  0  0
   -0.4996    5.9734   -1.2835 C   0  0  0  0  0  0  0  0  0  0  0  0
   -0.6847    6.9373   -1.7783 H   0  0  0  0  0  0  0  0  0  0  0  0
    0.3816    5.8778   -0.1994 C   0  0  0  0  0  0  0  0  0  0  0  0
    0.9112    6.7732    0.1733 H   0  0  0  0  0  0  0  0  0  0  0  0
   -4.4025   -1.1320    0.8499 C   0  0  0  0  0  0  0  0  0  0  0  0
   -3.7361   -1.6948    1.9709 C   0  0  0  0  0  0  0  0  0  0  0  0
   -2.7772   -1.2809    2.3108 H   0  0  0  0  0  0  0  0  0  0  0  0
   -4.3356   -2.7693    2.6289 C   0  0  0  0  0  0  0  0  0  0  0  0
   -3.8388   -3.2239    3.4998 H   0  0  0  0  0  0  0  0  0  0  0  0
   -5.5805   -3.2473    2.1824 C   0  0  0  0  0  0  0  0  0  0  0  0
   -6.0848   -4.0916    2.6735 H   0  0  0  0  0  0  0  0  0  0  0  0
   -6.1701   -2.5944    1.0910 C   0  0  0  0  0  0  0  0  0  0  0  0
   -7.1578   -2.9181    0.7155 H   0  0  0  0  0  0  0  0  0  0  0  0
   -4.5008    0.8554   -0.6548 C   0  0  0  0  0  0  0  0  0  0  0  0
   -5.8620    1.1719   -0.4170 C   0  0  0  0  0  0  0  0  0  0  0  0
   -6.4283    0.6583    0.3672 H   0  0  0  0  0  0  0  0  0  0  0  0
   -6.4625    2.1420   -1.2209 C   0  0  0  0  0  0  0  0  0  0  0  0
   -7.5176    2.4078   -1.0538 H   0  0  0  0  0  0  0  0  0  0  0  0
   -5.7163    2.7767   -2.2294 C   0  0  0  0  0  0  0  0  0  0  0  0
   -6.1591    3.5429   -2.8816 H   0  0  0  0  0  0  0  0  0  0  0  0
   -4.3753    2.3987   -2.3704 C   0  0  0  0  0  0  0  0  0  0  0  0
   -3.7399    2.8693   -3.1429 H   0  0  0  0  0  0  0  0  0  0  0  0
   -0.2254   -1.1020   -0.3391 C   0  0  1  0  0  3  0  0  0  0  0  0
    0.4699    0.0661    0.0232 C   0  0  0  0  0  2  0  0  0  0  0  0
   -0.2892    1.1854    0.4220 C   0  0  0  0  0  0  0  0  0  0  0  0
   -1.6874    1.1199    0.5302 C   0  0  0  0  0  0  0  0  0  0  0  0
   -2.2599    1.9857    0.8902 H   0  0  0  0  0  0  0  0  0  0  0  0
   -2.3613   -0.0358    0.1059 C   0  0  0  0  0  0  0  0  0  0  0  0
   -1.6314   -1.1419   -0.3549 C   0  0  0  0  0  0  0  0  0  0  0  0
   -2.1596   -2.0390   -0.7076 H   0  0  0  0  0  0  0  0  0  0  0  0
  2 19  2  0  0  0  0
  2 26  1  0  0  0  0
  3 28  1  0  0  0  0
  3 35  1  0  0  0  0
  5 46  2  0  0  0  0
  5 53  1  0  0  0  0
  6 55  1  0  0  0  0
  7 19  1  0  0  0  0
  9 46  1  0  0  0  0
 10  1  1  0  0  0  0
 10  7  1  6  0  0  0
 11 10  1  0  0  0  0
 12 11  1  0  0  0  0
 13 15  1  0  0  0  0
 13 11  2  0  0  0  0
 14 13  1  0  0  0  0
 15 17  2  0  0  0  0
 16 15  1  0  0  0  0
 17 18  1  0  0  0  0
 17  1  1  0  0  0  0
 19 20  1  0  0  0  0
 20 21  1  0  0  0  0
 20 22  2  0  0  0  0
 22 23  1  0  0  0  0
 24 25  1  0  0  0  0
 24 22  1  0  0  0  0
 26 24  2  0  0  0  0
 27 26  1  0  0  0  0
 28  8  1  1  0  0  0
 28 29  1  0  0  0  0
 29 30  1  0  0  0  0
 29 31  2  0  0  0  0
 31 32  1  0  0  0  0
 33 31  1  0  0  0  0
 33 34  1  0  0  0  0
 35 33  2  0  0  0  0
 36 35  1  0  0  0  0
 37  4  1  0  0  0  0
 37  8  1  0  0  0  0
 38 37  2  0  0  0  0
 39 38  1  0  0  0  0
 40 42  2  0  0  0  0
 40 38  1  0  0  0  0
 41 40  1  0  0  0  0
 42 44  1  0  0  0  0
 43 42  1  0  0  0  0
 44 45  1  0  0  0  0
 44  4  2  0  0  0  0
 46 47  1  0  0  0  0
 47 48  1  0  0  0  0
 47 49  2  0  0  0  0
 49 50  1  0  0  0  0
 51 49  1  0  0  0  0
 51 52  1  0  0  0  0
 53 51  2  0  0  0  0
 54 53  1  0  0  0  0
 55 56  2  0  0  0  0
 55  9  1  0  0  0  0
 56 57  1  0  0  0  0
 58 59  1  0  0  0  0
 58 56  1  0  0  0  0
 60 58  2  0  0  0  0
 61 60  1  0  0  0  0
 62 60  1  0  0  0  0
 62  6  2  0  0  0  0
 63 62  1  0  0  0  0
 64  7  1  6  0  0  0
 64 65  1  0  0  0  0
 65 66  1  0  0  0  0
 66 67  2  0  0  0  0
 66  8  1  0  0  0  0
 67 68  1  0  0  0  0
 69  9  1  0  0  0  0
 69 67  1  0  0  0  0
 70 64  1  0  0  0  0
 70 69  2  0  0  0  0
 71 70  1  0  0  0  0
M  END
