12,21,24
q = -1.0

 39 43  0  0  1  0  0  0  0  0999 V2000
    3.9280    1.9581   -0.0000 S   0  0  0  0  0  0  0  0  0  0  0  0
    4.4762    0.2904   -0.0001 C   0  0  0  0  0  0  0  0  0  0  0  0
    5.7960   -0.1850   -0.0001 C   0  0  0  0  0  0  0  0  0  0  0  0
    6.6484    0.5093   -0.0001 H   0  0  0  0  0  0  0  0  0  0  0  0
    5.9902   -1.5718   -0.0001 C   0  0  0  0  0  0  0  0  0  0  0  0
    7.0151   -1.9718   -0.0001 H   0  0  0  0  0  0  0  0  0  0  0  0
    4.8898   -2.4576   -0.0001 C   0  0  0  0  0  0  0  0  0  0  0  0
    5.0700   -3.5429   -0.0001 H   0  0  0  0  0  0  0  0  0  0  0  0
    3.5733   -1.9890   -0.0000 C   0  0  0  0  0  0  0  0  0  0  0  0
    2.6979   -2.6592    0.0000 H   0  0  0  0  0  0  0  0  0  0  0  0
    3.3604   -0.5959   -0.0000 C   0  0  0  0  0  0  0  0  0  0  0  0
    2.1339    0.0645    0.0000 N   0  0  0  0  0  2  0  0  0  0  0  0
    2.2747    1.4071    0.0000 C   0  0  1  0  0  3  0  0  0  0  0  0
    1.0816    2.2242    0.0000 C   0  0  0  0  0  0  0  0  0  0  0  0
    0.9511    3.6273    0.0000 C   0  0  0  0  0  0  0  0  0  0  0  0
    1.8354    4.2831    0.0001 H   0  0  0  0  0  0  0  0  0  0  0  0
   -0.3333    4.1902    0.0001 C   0  0  0  0  0  0  0  0  0  0  0  0
   -0.4818    5.2786    0.0001 H   0  0  0  0  0  0  0  0  0  0  0  0
   -1.4759    3.3718    0.0000 C   0  0  0  0  0  3  0  0  0  0  0  0
   -1.3925    1.9646    0.0000 C   0  0  0  0  0  0  0  0  0  0  0  0
   -0.0791    1.4063    0.0000 C   0  0  0  0  0  3  0  0  0  0  0  0
   -2.6776    3.9946    0.0001 F   0  0  0  0  0  0  0  0  0  0  0  0
   -2.3809    0.8935    0.0000 C   0  0  0  0  0  0  0  0  0  0  0  0
   -1.8920   -0.3820    0.0000 N   0  0  0  0  0  2  0  0  0  0  0  0
   -2.9715   -1.2488   -0.0000 C   0  0  0  0  0  0  0  0  0  0  0  0
   -3.0327   -2.6548    0.0000 C   0  0  0  0  0  0  0  0  0  0  0  0
   -2.0974   -3.2346    0.0001 H   0  0  0  0  0  0  0  0  0  0  0  0
   -4.3034   -3.2371    0.0000 C   0  0  0  0  0  0  0  0  0  0  0  0
   -4.3903   -4.3337    0.0000 H   0  0  0  0  0  0  0  0  0  0  0  0
   -5.4831   -2.4528   -0.0000 C   0  0  0  0  0  0  0  0  0  0  0  0
   -6.4635   -2.9519   -0.0001 H   0  0  0  0  0  0  0  0  0  0  0  0
   -5.4327   -1.0534   -0.0001 C   0  0  0  0  0  0  0  0  0  0  0  0
   -6.3545   -0.4545   -0.0001 H   0  0  0  0  0  0  0  0  0  0  0  0
   -4.1587   -0.4629   -0.0000 C   0  0  0  0  0  0  0  0  0  0  0  0
   -3.7558    0.8728   -0.0000 N   0  0  0  0  0  0  0  0  0  0  0  0
   -4.6672    2.0050   -0.0002 C   0  0  0  0  0  0  0  0  0  0  0  0
   -4.5188    2.6337    0.8972 H   0  0  0  0  0  0  0  0  0  0  0  0
   -5.7008    1.6184   -0.0002 H   0  0  0  0  0  0  0  0  0  0  0  0
   -4.5187    2.6336   -0.8976 H   0  0  0  0  0  0  0  0  0  0  0  0
  1 13  1  0  0  0  0
  2  1  1  0  0  0  0
  2 11  1  0  0  0  0
  3  2  2  0  0  0  0
  4  3  1  0  0  0  0
  5  3  1  0  0  0  0
  5  7  2  0  0  0  0
  6  5  1  0  0  0  0
  7  9  1  0  0  0  0
  8  7  1  0  0  0  0
  9 10  1  0  0  0  0
 11  9  2  0  0  0  0
 11 12  1  0  0  0  0
 13 12  1  0  0  0  0
 13 14  1  1  0  0  0
 14 15  1  0  0  0  0
 15 16  1  0  0  0  0
 15 17  2  0  0  0  0
 17 18  1  0  0  0  0
 19 22  1  0  0  0  0
 19 17  1  0  0  0  0
 20 19  1  0  0  0  0
 21 14  2  0  0  0  0
 21 20  1  0  0  0  0
 23 20  2  0  0  0  0
 24 23  1  0  0  0  0
 25 24  1  0  0  0  0
 25 26  1  0  0  0  0
 26 27  1  0  0  0  0
 28 29  1  0  0  0  0
 28 26  2  0  0  0  0
 30 28  1  0  0  0  0
 31 30  1  0  0  0  0
 32 30  2  0  0  0  0
 32 34  1  0  0  0  0
 33 32  1  0  0  0  0
 34 35  1  0  0  0  0
 34 25  2  0  0  0  0
 35 23  1  0  0  0  0
 36 35  1  0  0  0  0
 36 37  1  0  0  0  0
 38 36  1  0  0  0  0
 39 36  1  0  0  0  0
M  END
