5,6,7
q = -1.0, confidence = 0.0

 37 39  0  0  1  0  0  0  0  0999 V2000
    3.6418    1.5325   -0.0001 O   0  0  0  0  0  0  0  0  0  0  0  0
    5.5182    0.2553    0.0001 O   0  0  0  0  0  0  0  0  0  0  0  0
   -3.6418    1.5326    0.0004 O   0  0  0  0  0  0  0  0  0  0  0  0
   -5.5182    0.2554    0.0008 O   0  0  0  0  0  0  0  0  0  0  0  0
    1.9958    0.0395   -0.0005 N   0  0  0  0  0  2  0  0  0  0  0  0
   -1.9957    0.0396   -0.0002 N   0  0  0  0  0  2  0  0  0  0  0  0
    0.0000    1.6295   -0.0004 C   0  0  0  0  0  2  0  0  0  0  0  0
   -1.2356    2.3270   -0.0001 C   0  0  0  0  0  0  0  0  0  0  0  0
   -1.2347    3.7372    0.0000 C   0  0  0  0  0  0  0  0  0  0  0  0
    0.0001    4.4177   -0.0000 C   0  0  0  0  0  0  0  0  0  0  0  0
    1.2349    3.7372   -0.0002 C   0  0  0  0  0  0  0  0  0  0  0  0
    1.2357    2.3269   -0.0003 C   0  0  0  0  0  0  0  0  0  0  0  0
    2.2985    1.3472   -0.0004 C   0  0  1  0  0  3  0  0  0  0  0  0
    3.1884   -0.6692   -0.0004 C   0  0  0  0  0  0  0  0  0  0  0  0
    4.1934    0.2748   -0.0001 C   0  0  0  0  0  0  0  0  0  0  0  0
    6.1086   -1.0607    0.0018 C   0  0  0  0  0  0  0  0  0  0  0  0
    7.6133   -0.9046    0.0032 C   0  0  0  0  0  0  0  0  0  0  0  0
   -2.2984    1.3473   -0.0001 C   0  0  0  0  0  0  0  0  0  0  0  0
   -3.1884   -0.6691    0.0001 C   0  0  0  0  0  0  0  0  0  0  0  0
   -4.1933    0.2749    0.0005 C   0  0  0  0  0  0  0  0  0  0  0  0
   -6.1085   -1.0606    0.0015 C   0  0  0  0  0  0  0  0  0  0  0  0
   -7.6132   -0.9045    0.0022 C   0  0  0  0  0  0  0  0  0  0  0  0
   -2.1787    4.3024    0.0002 H   0  0  0  0  0  0  0  0  0  0  0  0
    0.0001    5.5176    0.0001 H   0  0  0  0  0  0  0  0  0  0  0  0
    2.1788    4.3023   -0.0001 H   0  0  0  0  0  0  0  0  0  0  0  0
    3.2071   -1.7621   -0.0006 H   0  0  0  0  0  0  0  0  0  0  0  0
    5.7519   -1.6129   -0.8969 H   0  0  0  0  0  0  0  0  0  0  0  0
    5.7500   -1.6114    0.9005 H   0  0  0  0  0  0  0  0  0  0  0  0
    7.9546   -0.3546   -0.8955 H   0  0  0  0  0  0  0  0  0  0  0  0
    7.9529   -0.3537    0.9018 H   0  0  0  0  0  0  0  0  0  0  0  0
    8.0929   -1.9027    0.0041 H   0  0  0  0  0  0  0  0  0  0  0  0
   -3.2071   -1.7621   -0.0001 H   0  0  0  0  0  0  0  0  0  0  0  0
   -5.7514   -1.6123   -0.8972 H   0  0  0  0  0  0  0  0  0  0  0  0
   -5.7505   -1.6118    0.9002 H   0  0  0  0  0  0  0  0  0  0  0  0
   -7.9532   -0.3538    0.9009 H   0  0  0  0  0  0  0  0  0  0  0  0
   -7.9541   -0.3543   -0.8964 H   0  0  0  0  0  0  0  0  0  0  0  0
   -8.0929   -1.9026    0.0027 H   0  0  0  0  0  0  0  0  0  0  0  0
  2 16  1  0  0  0  0
  3 20  1  0  0  0  0
  4 21  1  0  0  0  0
  5 13  1  0  0  0  0
  5 14  1  0  0  0  0
  6 18  1  0  0  0  0
  6 19  1  0  0  0  0
  7 12  1  0  0  0  0
  7  8  1  0  0  0  0
  8 18  2  0  0  0  0
  8  9  1  0  0  0  0
  9 23  1  0  0  0  0
 10  9  2  0  0  0  0
 10 24  1  0  0  0  0
 11 25  1  0  0  0  0
 11 10  1  0  0  0  0
 12 11  2  0  0  0  0
 13 12  1  1  0  0  0
 13  1  1  0  0  0  0
 14 15  2  0  0  0  0
 15  1  1  0  0  0  0
 15  2  1  0  0  0  0
 16 17  1  0  0  0  0
 16 28  1  0  0  0  0
 17 31  1  0  0  0  0
 17 30  1  0  0  0  0
 18  3  1  0  0  0  0
 19 20  2  0  0  0  0
 20  4  1  0  0  0  0
 21 22  1  0  0  0  0
 21 34  1  0  0  0  0
 22 37  1  0  0  0  0
 22 35  1  0  0  0  0
 26 14  1  0  0  0  0
 27 16  1  0  0  0  0
 29 17  1  0  0  0  0
 32 19  1  0  0  0  0
 33 21  1  0  0  0  0
 36 22  1  0  0  0  0
M  END
