1,11,21
q = -1.0

 29 31  0  0  0  0  0  0  0  0999 V2000
   -2.0186   -0.6276   -0.0000 N   0  0  0  0  0  2  0  0  0  0  0  0
   -2.3894    0.7114   -0.0001 C   0  0  0  0  0  0  0  0  0  0  0  0
   -3.7544    1.0524   -0.0002 C   0  0  0  0  0  0  0  0  0  0  0  0
   -4.0317    2.1137   -0.0002 H   0  0  0  0  0  0  0  0  0  0  0  0
   -4.7239    0.0433   -0.0003 C   0  0  0  0  0  0  0  0  0  0  0  0
   -5.7918    0.3078   -0.0005 H   0  0  0  0  0  0  0  0  0  0  0  0
   -4.3224   -1.3021   -0.0003 C   0  0  0  0  0  0  0  0  0  0  0  0
   -5.0538   -2.1220   -0.0005 H   0  0  0  0  0  0  0  0  0  0  0  0
   -2.9563   -1.5985   -0.0001 C   0  0  0  0  0  3  0  0  0  0  0  0
   -2.5528   -2.6249    0.0000 H   0  0  0  0  0  0  0  0  0  0  0  0
    2.0186   -0.6276   -0.0000 N   0  0  0  0  0  2  0  0  0  0  0  0
    2.9564   -1.5984   -0.0001 C   0  0  0  0  0  0  0  0  0  0  0  0
    2.5529   -2.6248    0.0000 H   0  0  0  0  0  0  0  0  0  0  0  0
    4.3224   -1.3020   -0.0003 C   0  0  0  0  0  0  0  0  0  0  0  0
    5.0538   -2.1219   -0.0005 H   0  0  0  0  0  0  0  0  0  0  0  0
    4.7239    0.0434   -0.0003 C   0  0  0  0  0  0  0  0  0  0  0  0
    5.7918    0.3079   -0.0005 H   0  0  0  0  0  0  0  0  0  0  0  0
    3.7544    1.0525   -0.0002 C   0  0  0  0  0  0  0  0  0  0  0  0
    4.0316    2.1139   -0.0002 H   0  0  0  0  0  0  0  0  0  0  0  0
    2.3894    0.7115   -0.0001 C   0  0  0  0  0  0  0  0  0  0  0  0
   -0.0000    0.9734   -0.0001 C   0  0  0  0  0  2  0  0  0  0  0  0
   -1.2537    1.6343   -0.0001 C   0  0  0  0  0  0  0  0  0  0  0  0
   -1.2146    3.0419    0.0001 C   0  0  0  0  0  0  0  0  0  0  0  0
   -2.3571    3.7590    0.0002 F   0  0  0  0  0  0  0  0  0  0  0  0
   -0.0000    3.7467    0.0002 C   0  0  0  0  0  0  0  0  0  0  0  0
   -0.0001    4.8441    0.0003 H   0  0  0  0  0  0  0  0  0  0  0  0
    1.2145    3.0419    0.0001 C   0  0  0  0  0  0  0  0  0  0  0  0
    2.3570    3.7590    0.0002 F   0  0  0  0  0  0  0  0  0  0  0  0
    1.2536    1.6343   -0.0001 C   0  0  0  0  0  0  0  0  0  0  0  0
  2 22  1  0  0  0  0
  2  1  1  0  0  0  0
  3  2  2  0  0  0  0
  4  3  1  0  0  0  0
  5  7  2  0  0  0  0
  5  3  1  0  0  0  0
  6  5  1  0  0  0  0
  7  9  1  0  0  0  0
  8  7  1  0  0  0  0
  9  1  1  0  0  0  0
  9 10  1  0  0  0  0
 12 11  1  0  0  0  0
 12 13  1  0  0  0  0
 14 12  2  0  0  0  0
 15 14  1  0  0  0  0
 16 14  1  0  0  0  0
 16 18  2  0  0  0  0
 17 16  1  0  0  0  0
 18 20  1  0  0  0  0
 19 18  1  0  0  0  0
 20 29  2  0  0  0  0
 20 11  1  0  0  0  0
 21 29  1  0  0  0  0
 21 22  1  0  0  0  0
 22 23  2  0  0  0  0
 23 25  1  0  0  0  0
 23 24  1  0  0  0  0
 25 26  1  0  0  0  0
 27 25  2  0  0  0  0
 27 28  1  0  0  0  0
 29 27  1  0  0  0  0
M  END
