6,7,8
q = -1

 38 38  0  0  1  0  0  0  0  0999 V2000
   -0.8295   -2.8957   -1.2858 F   0  0  0  0  0  0  0  0  0  0  0  0
   -3.4298   -3.1703   -0.7282 F   0  0  0  0  0  0  0  0  0  0  0  0
   -4.8272   -1.1753    0.5303 F   0  0  0  0  0  0  0  0  0  0  0  0
   -3.5499    1.1572    1.1984 F   0  0  0  0  0  0  0  0  0  0  0  0
    0.5796    4.2017   -0.0547 O   0  0  0  0  0  0  0  0  0  0  0  0
    0.6494    1.5070    0.6791 N   0  0  0  0  0  0  0  0  0  0  0  0
    1.5458   -1.1451    1.6795 N   0  0  0  0  0  0  0  0  0  0  0  0
   -0.7353   -0.6969   -0.3218 C   0  0  0  0  0  3  0  0  0  0  0  0
   -1.4373   -1.8608   -0.6751 C   0  0  0  0  0  0  0  0  0  0  0  0
   -2.8052   -2.0363   -0.3872 C   0  0  0  0  0  0  0  0  0  0  0  0
   -3.5255   -1.0189    0.2578 C   0  0  0  0  0  0  0  0  0  0  0  0
   -2.8505    0.1605    0.6052 C   0  0  0  0  0  0  0  0  0  0  0  0
   -1.4887    0.3290    0.3229 C   0  0  0  0  0  0  0  0  0  0  0  0
   -0.8275    1.6641    0.6180 C   0  0  2  0  0  0  0  0  0  0  0  0
    1.2191    1.3110    2.0267 C   0  0  0  0  0  0  0  0  0  0  0  0
    0.9576   -0.0961    2.5478 C   0  0  0  0  0  0  0  0  0  0  0  0
    3.0013   -1.2816    1.8866 C   0  0  0  0  0  0  0  0  0  0  0  0
    0.8754   -2.4314    1.9277 C   0  0  0  0  0  0  0  0  0  0  0  0
   -1.2232    2.6711   -0.4878 C   0  0  0  0  0  0  0  0  0  0  0  0
   -0.5978    4.0566   -0.3742 C   0  0  0  0  0  0  0  0  0  0  0  0
   -1.4820    5.2353   -0.7009 C   0  0  0  0  0  0  0  0  0  0  0  0
   -1.1993    2.0654    1.5894 H   0  0  0  0  0  0  0  0  0  0  0  0
    0.8064    2.0520    2.7490 H   0  0  0  0  0  0  0  0  0  0  0  0
    2.3081    1.4947    1.9390 H   0  0  0  0  0  0  0  0  0  0  0  0
   -0.1360   -0.2748    2.5894 H   0  0  0  0  0  0  0  0  0  0  0  0
    1.3450   -0.1930    3.5890 H   0  0  0  0  0  0  0  0  0  0  0  0
    3.5186   -0.3855    1.4977 H   0  0  0  0  0  0  0  0  0  0  0  0
    3.2314   -1.4690    2.9605 H   0  0  0  0  0  0  0  0  0  0  0  0
    3.3609   -2.1347    1.2823 H   0  0  0  0  0  0  0  0  0  0  0  0
   -0.2111   -2.3266    1.7524 H   0  0  0  0  0  0  0  0  0  0  0  0
    1.2705   -3.1939    1.2318 H   0  0  0  0  0  0  0  0  0  0  0  0
    1.0464   -2.7772    2.9731 H   0  0  0  0  0  0  0  0  0  0  0  0
   -2.3273    2.7415   -0.5139 H   0  0  0  0  0  0  0  0  0  0  0  0
   -0.9086    2.2546   -1.4701 H   0  0  0  0  0  0  0  0  0  0  0  0
   -0.8952    6.1712   -0.6944 H   0  0  0  0  0  0  0  0  0  0  0  0
   -1.9670    5.0908   -1.6890 H   0  0  0  0  0  0  0  0  0  0  0  0
   -2.3046    5.2996    0.0429 H   0  0  0  0  0  0  0  0  0  0  0  0
    1.0646    2.3735    0.2902 H   0  0  0  0  0  0  0  0  0  0  0  0
  1  9  1  0  0  0  0
  2 10  1  0  0  0  0
  6 15  1  0  0  0  0
  7 17  1  0  0  0  0
  7 18  1  0  0  0  0
  7 16  1  0  0  0  0
  8 13  1  0  0  0  0
  9 10  1  0  0  0  0
  9  8  2  0  0  0  0
 10 11  2  0  0  0  0
 11  3  1  0  0  0  0
 11 12  1  0  0  0  0
 12  4  1  0  0  0  0
 13 12  2  0  0  0  0
 13 14  1  0  0  0  0
 14  6  1  0  0  0  0
 14 22  1  1  0  0  0
 15 16  1  0  0  0  0
 15 23  1  0  0  0  0
 16 25  1  0  0  0  0
 16 26  1  0  0  0  0
 17 28  1  0  0  0  0
 18 32  1  0  0  0  0
 19 20  1  0  0  0  0
 19 14  1  0  0  0  0
 20  5  2  0  0  0  0
 21 35  1  0  0  0  0
 21 20  1  0  0  0  0
 21 37  1  0  0  0  0
 24 15  1  0  0  0  0
 27 17  1  0  0  0  0
 29 17  1  0  0  0  0
 30 18  1  0  0  0  0
 31 18  1  0  0  0  0
 33 19  1  0  0  0  0
 34 19  1  0  0  0  0
 36 21  1  0  0  0  0
 38  6  1  0  0  0  0
M  END
