1,3,16
q = 0.0, confidence = 0.996

 41 43  0  0  1  0  0  0  0  0999 V2000
    0.6504    1.5424    0.2427 N   0  0  0  0  0  2  0  0  0  0  0  0
    1.6728    1.1046   -0.5441 N   0  0  0  0  0  0  0  0  0  0  0  0
    0.5768   -1.2719    0.8839 N   0  0  0  0  0  2  0  0  0  0  0  0
    1.6695   -1.1997    0.0742 N   0  0  0  0  0  0  0  0  0  0  0  0
    1.5667   -0.2602   -1.0349 C   0  0  1  0  0  0  0  0  0  0  0  0
    0.9967    2.7714    0.6710 C   0  0  1  0  0  3  0  0  0  0  0  0
    2.2739    3.1079    0.1456 C   0  0  0  0  0  0  0  0  0  0  0  0
    2.6922    2.0217   -0.6248 C   0  0  0  0  0  0  0  0  0  0  0  0
    0.0835    3.5630    1.5464 C   0  0  0  0  0  0  0  0  0  0  0  0
    3.9339    1.7999   -1.4221 C   0  0  0  0  0  0  0  0  0  0  0  0
    0.8795   -2.1584    1.8511 C   0  0  1  0  0  3  0  0  0  0  0  0
    2.1982   -2.6483    1.6436 C   0  0  0  0  0  0  0  0  0  0  0  0
    2.6887   -2.0140    0.5010 C   0  0  0  0  0  0  0  0  0  0  0  0
    3.9991   -2.1282   -0.2039 C   0  0  0  0  0  0  0  0  0  0  0  0
   -0.1005   -2.4943    2.9251 C   0  0  0  0  0  0  0  0  0  0  0  0
    0.2238   -0.4939   -1.7333 C   0  0  2  0  0  3  0  0  0  0  0  0
   -0.1510   -1.8346   -2.0463 C   0  0  0  0  0  0  0  0  0  0  0  0
   -1.2494   -2.0984   -2.8592 C   0  0  0  0  0  0  0  0  0  0  0  0
   -2.0241   -1.0339   -3.3743 C   0  0  0  0  0  0  0  0  0  0  0  0
   -1.6875    0.2817   -3.0656 C   0  0  0  0  0  0  0  0  0  0  0  0
   -0.5661    0.5729   -2.2473 C   0  0  0  0  0  3  0  0  0  0  0  0
    2.4263   -0.4390   -1.7118 H   0  0  0  0  0  0  0  0  0  0  0  0
    2.8245    4.0414    0.3017 H   0  0  0  0  0  0  0  0  0  0  0  0
   -0.9001    3.7057    1.0547 H   0  0  0  0  0  0  0  0  0  0  0  0
   -0.1166    3.0269    2.4958 H   0  0  0  0  0  0  0  0  0  0  0  0
    0.5186    4.5525    1.7780 H   0  0  0  0  0  0  0  0  0  0  0  0
    3.7147    1.6003   -2.4922 H   0  0  0  0  0  0  0  0  0  0  0  0
    4.5721    2.7012   -1.3754 H   0  0  0  0  0  0  0  0  0  0  0  0
    4.5349    0.9475   -1.0393 H   0  0  0  0  0  0  0  0  0  0  0  0
    2.7284   -3.3892    2.2512 H   0  0  0  0  0  0  0  0  0  0  0  0
    3.8820   -2.4306   -1.2660 H   0  0  0  0  0  0  0  0  0  0  0  0
    4.5678   -1.1738   -0.1879 H   0  0  0  0  0  0  0  0  0  0  0  0
    4.6238   -2.8932    0.2923 H   0  0  0  0  0  0  0  0  0  0  0  0
   -1.1062   -2.6601    2.4908 H   0  0  0  0  0  0  0  0  0  0  0  0
    0.2150   -3.3994    3.4765 H   0  0  0  0  0  0  0  0  0  0  0  0
   -0.2028   -1.6595    3.6480 H   0  0  0  0  0  0  0  0  0  0  0  0
    0.4406   -2.6658   -1.6341 H   0  0  0  0  0  0  0  0  0  0  0  0
   -1.5251   -3.1397   -3.0802 H   0  0  0  0  0  0  0  0  0  0  0  0
   -2.9007   -1.2456   -4.0039 H   0  0  0  0  0  0  0  0  0  0  0  0
   -2.2925    1.1164   -3.4484 H   0  0  0  0  0  0  0  0  0  0  0  0
   -0.2496    1.6162   -2.1167 H   0  0  0  0  0  0  0  0  0  0  0  0
  1  6  1  0  0  0  0
  2  1  1  0  0  0  0
  3 11  1  0  0  0  0
  4 13  1  0  0  0  0
  4  3  1  0  0  0  0
  5 22  1  6  0  0  0
  5  2  1  0  0  0  0
  5  4  1  0  0  0  0
  6  9  1  6  0  0  0
  7 23  1  0  0  0  0
  7  6  1  0  0  0  0
  8  2  1  0  0  0  0
  8  7  2  0  0  0  0
  9 26  1  0  0  0  0
  9 25  1  0  0  0  0
 10 28  1  0  0  0  0
 10 29  1  0  0  0  0
 10  8  1  0  0  0  0
 11 15  1  1  0  0  0
 12 11  1  0  0  0  0
 12 30  1  0  0  0  0
 13 12  2  0  0  0  0
 14 32  1  0  0  0  0
 14 33  1  0  0  0  0
 14 13  1  0  0  0  0
 15 35  1  0  0  0  0
 15 36  1  0  0  0  0
 16  5  1  6  0  0  0
 17 16  1  0  0  0  0
 17 37  1  0  0  0  0
 18 17  2  0  0  0  0
 19 20  2  0  0  0  0
 19 18  1  0  0  0  0
 20 21  1  0  0  0  0
 21 41  1  0  0  0  0
 21 16  1  0  0  0  0
 24  9  1  0  0  0  0
 27 10  1  0  0  0  0
 31 14  1  0  0  0  0
 34 15  1  0  0  0  0
 38 18  1  0  0  0  0
 39 19  1  0  0  0  0
 40 20  1  0  0  0  0
M  END
