2,3,4
q = -1.0

 31 31  0  0  0  0  0  0  0  0999 V2000
   -5.2064   -0.7000   -0.0511 Cl  0  0  0  0  0  0  0  0  0  0  0  0
    0.6731    2.2682   -0.0585 N   0  0  0  0  0  2  0  0  0  0  0  0
    2.8115   -0.1245   -0.0609 N   0  0  0  0  0  0  0  0  0  0  0  0
   -1.4126    0.6741   -0.0267 C   0  0  0  0  0  2  0  0  0  0  0  0
   -1.6618    2.0878    0.0590 C   0  0  0  0  0  0  0  0  0  0  0  0
   -0.4771    2.8926    0.0425 C   0  0  0  0  0  0  0  0  0  0  0  0
   -0.5049    3.9976    0.0939 H   0  0  0  0  0  0  0  0  0  0  0  0
    1.9001    3.0440   -0.1599 C   0  0  0  0  0  0  0  0  0  0  0  0
    1.7402    4.0437    0.3004 H   0  0  0  0  0  0  0  0  0  0  0  0
    2.1185    3.2162   -1.2395 H   0  0  0  0  0  0  0  0  0  0  0  0
    3.1057    2.3575    0.4743 C   0  0  0  0  0  0  0  0  0  0  0  0
    3.9406    3.0881    0.4830 H   0  0  0  0  0  0  0  0  0  0  0  0
    2.8955    2.1151    1.5368 H   0  0  0  0  0  0  0  0  0  0  0  0
    3.5780    1.1270   -0.2952 C   0  0  0  0  0  0  0  0  0  0  0  0
    3.5272    1.3444   -1.3821 H   0  0  0  0  0  0  0  0  0  0  0  0
    4.6492    0.9195   -0.0618 H   0  0  0  0  0  0  0  0  0  0  0  0
    3.1607   -0.6817    1.2669 C   0  0  0  0  0  0  0  0  0  0  0  0
    2.6067   -1.6265    1.4173 H   0  0  0  0  0  0  0  0  0  0  0  0
    2.8620    0.0222    2.0651 H   0  0  0  0  0  0  0  0  0  0  0  0
    4.2580   -0.8701    1.3321 H   0  0  0  0  0  0  0  0  0  0  0  0
    3.2100   -1.0887   -1.1135 C   0  0  0  0  0  0  0  0  0  0  0  0
    2.8936   -0.7043   -2.1012 H   0  0  0  0  0  0  0  0  0  0  0  0
    2.7036   -2.0547   -0.9371 H   0  0  0  0  0  0  0  0  0  0  0  0
    4.3152   -1.2332   -1.1071 H   0  0  0  0  0  0  0  0  0  0  0  0
   -2.9693    2.6185    0.1237 C   0  0  0  0  0  0  0  0  0  0  0  0
   -3.1177    3.7079    0.1924 H   0  0  0  0  0  0  0  0  0  0  0  0
   -4.0712    1.7643    0.0934 C   0  0  0  0  0  0  0  0  0  0  0  0
   -5.1002    2.1451    0.1399 H   0  0  0  0  0  0  0  0  0  0  0  0
   -3.8340    0.3785   -0.0046 C   0  0  0  0  0  0  0  0  0  0  0  0
   -2.5395   -0.1686   -0.0639 C   0  0  0  0  0  0  0  0  0  0  0  0
   -2.4264   -1.2586   -0.1322 H   0  0  0  0  0  0  0  0  0  0  0  0
  1 29  1  0  0  0  0
  2  6  1  0  0  0  0
  3 17  1  0  0  0  0
  4  5  1  0  0  0  0
  5 25  1  0  0  0  0
  6  5  2  0  0  0  0
  6  7  1  0  0  0  0
  8  2  1  0  0  0  0
  8  9  1  0  0  0  0
  8 11  1  0  0  0  0
 10  8  1  0  0  0  0
 11 12  1  0  0  0  0
 11 13  1  0  0  0  0
 14 16  1  0  0  0  0
 14  3  1  0  0  0  0
 14 11  1  0  0  0  0
 15 14  1  0  0  0  0
 17 20  1  0  0  0  0
 17 18  1  0  0  0  0
 17 19  1  0  0  0  0
 21 24  1  0  0  0  0
 21 23  1  0  0  0  0
 21  3  1  0  0  0  0
 22 21  1  0  0  0  0
 25 26  1  0  0  0  0
 27 25  2  0  0  0  0
 27 28  1  0  0  0  0
 29 27  1  0  0  0  0
 30  4  1  0  0  0  0
 30 29  2  0  0  0  0
 31 30  1  0  0  0  0
M  END
