2,3,4
q = -1.0

 31 31  0  0  0  0  0  0  0  0999 V2000
    5.3094    0.1171   -1.1197 Cl  0  0  0  0  0  0  0  0  0  0  0  0
   -0.5834   -0.0003    1.9228 N   0  0  0  0  0  2  0  0  0  0  0  0
   -2.7427    0.0446   -0.6219 N   0  0  0  0  0  0  0  0  0  0  0  0
    1.5402   -0.0036    0.2649 C   0  0  0  0  0  3  0  0  0  0  0  0
    2.6439    0.0655   -0.5901 C   0  0  0  0  0  0  0  0  0  0  0  0
    2.5265    0.1453   -1.6778 H   0  0  0  0  0  0  0  0  0  0  0  0
    3.9410    0.0325   -0.0438 C   0  0  0  0  0  0  0  0  0  0  0  0
    4.1694   -0.0660    1.3420 C   0  0  0  0  0  0  0  0  0  0  0  0
    5.1974   -0.0919    1.7269 H   0  0  0  0  0  0  0  0  0  0  0  0
    3.0675   -0.1199    2.1970 C   0  0  0  0  0  0  0  0  0  0  0  0
    3.2190   -0.1851    3.2859 H   0  0  0  0  0  0  0  0  0  0  0  0
    1.7568   -0.0832    1.6743 C   0  0  0  0  0  0  0  0  0  0  0  0
    0.5745   -0.0792    2.5049 C   0  0  0  0  0  3  0  0  0  0  0  0
    0.6567   -0.1149    3.6103 H   0  0  0  0  0  0  0  0  0  0  0  0
   -1.8183    0.1247    2.6699 C   0  0  0  0  0  0  0  0  0  0  0  0
   -1.9746    1.2070    2.8864 H   0  0  0  0  0  0  0  0  0  0  0  0
   -1.7302   -0.3944    3.6503 H   0  0  0  0  0  0  0  0  0  0  0  0
   -3.0270   -0.4003    1.8938 C   0  0  0  0  0  0  0  0  0  0  0  0
   -2.8648   -1.4656    1.6279 H   0  0  0  0  0  0  0  0  0  0  0  0
   -3.8946   -0.3825    2.5843 H   0  0  0  0  0  0  0  0  0  0  0  0
   -3.4009    0.4300    0.6589 C   0  0  0  0  0  0  0  0  0  0  0  0
   -4.5026    0.3769    0.4932 H   0  0  0  0  0  0  0  0  0  0  0  0
   -3.1501    1.4962    0.8378 H   0  0  0  0  0  0  0  0  0  0  0  0
   -3.2660   -1.2565   -1.0866 C   0  0  0  0  0  0  0  0  0  0  0  0
   -2.7602   -1.5451   -2.0259 H   0  0  0  0  0  0  0  0  0  0  0  0
   -4.3627   -1.1816   -1.2671 H   0  0  0  0  0  0  0  0  0  0  0  0
   -3.0610   -2.0498   -0.3480 H   0  0  0  0  0  0  0  0  0  0  0  0
   -3.0980    1.0606   -1.6390 C   0  0  0  0  0  0  0  0  0  0  0  0
   -2.6974    2.0464   -1.3403 H   0  0  0  0  0  0  0  0  0  0  0  0
   -4.2045    1.1184   -1.7491 H   0  0  0  0  0  0  0  0  0  0  0  0
   -2.6566    0.7822   -2.6119 H   0  0  0  0  0  0  0  0  0  0  0  0
  1  7  1  0  0  0  0
  2 13  1  0  0  0  0
  2 15  1  0  0  0  0
  3 21  1  0  0  0  0
  4 12  1  0  0  0  0
  5  7  1  0  0  0  0
  5  4  2  0  0  0  0
  6  5  1  0  0  0  0
  7  8  2  0  0  0  0
  8  9  1  0  0  0  0
  8 10  1  0  0  0  0
 10 11  1  0  0  0  0
 12 10  2  0  0  0  0
 12 13  1  0  0  0  0
 13 14  1  0  0  0  0
 15 16  1  0  0  0  0
 15 17  1  0  0  0  0
 18 20  1  0  0  0  0
 18 15  1  0  0  0  0
 19 18  1  0  0  0  0
 21 23  1  0  0  0  0
 21 18  1  0  0  0  0
 22 21  1  0  0  0  0
 24  3  1  0  0  0  0
 24 27  1  0  0  0  0
 25 24  1  0  0  0  0
 26 24  1  0  0  0  0
 28 29  1  0  0  0  0
 28  3  1  0  0  0  0
 30 28  1  0  0  0  0
 31 28  1  0  0  0  0
M  END
