1,2,18
q = -1.0

 42 45  0  0  0  0  0  0  0  0999 V2000
   -0.0496    2.2459   -0.1851 N   0  0  0  0  0  2  0  0  0  0  0  0
    1.5235    0.1297   -0.2555 N   0  0  0  0  0  2  0  0  0  0  0  0
   -0.9054    3.2866   -0.2302 C   0  0  0  0  0  0  0  0  0  0  0  0
   -0.4784    4.6192   -0.2793 C   0  0  0  0  0  0  0  0  0  0  0  0
    0.8956    4.8882   -0.2817 C   0  0  0  0  0  0  0  0  0  0  0  0
    1.7907    3.8124   -0.2493 C   0  0  0  0  0  0  0  0  0  0  0  0
    1.3001    2.4970   -0.2076 C   0  0  0  0  0  0  0  0  0  0  0  0
    2.1851    1.3098   -0.2049 C   0  0  0  0  0  0  0  0  0  0  0  0
    3.5833    1.3257   -0.1690 C   0  0  0  0  0  0  0  0  0  0  0  0
    4.3034    0.1037   -0.1815 C   0  0  0  0  0  0  0  0  0  0  0  0
    3.5624   -1.0984   -0.2260 C   0  0  0  0  0  0  0  0  0  0  0  0
    2.1589   -1.0750   -0.2606 C   0  0  0  0  0  0  0  0  0  0  0  0
    1.2318   -2.2122   -0.3038 C   0  0  0  0  0  0  0  0  0  0  0  0
    1.6708   -3.5495   -0.3674 C   0  0  0  0  0  0  0  0  0  0  0  0
    0.7457   -4.5970   -0.4521 C   0  0  0  0  0  0  0  0  0  0  0  0
   -0.6247   -4.3028   -0.4971 C   0  0  0  0  0  0  0  0  0  0  0  0
   -1.0735   -2.9709   -0.4380 C   0  0  0  0  0  3  0  0  0  0  0  0
   -0.1747   -1.8986   -0.3116 C   0  0  0  0  0  2  0  0  0  0  0  0
    5.7798    0.0925   -0.1472 C   0  0  0  0  0  0  0  0  0  0  0  0
    6.5028    1.1102    0.5154 C   0  0  0  0  0  0  0  0  0  0  0  0
    7.9011    1.0908    0.5516 C   0  0  0  0  0  0  0  0  0  0  0  0
    8.6359    0.0660   -0.0796 C   0  0  0  0  0  0  0  0  0  0  0  0
    7.9111   -0.9478   -0.7451 C   0  0  0  0  0  0  0  0  0  0  0  0
    6.5150   -0.9408   -0.7757 C   0  0  0  0  0  0  0  0  0  0  0  0
   10.1402    0.0484   -0.0593 C   0  0  0  0  0  0  0  0  0  0  0  0
   -1.9745    3.0380   -0.2237 H   0  0  0  0  0  0  0  0  0  0  0  0
   -1.2257    5.4240   -0.3136 H   0  0  0  0  0  0  0  0  0  0  0  0
    1.2702    5.9216   -0.3161 H   0  0  0  0  0  0  0  0  0  0  0  0
    2.8738    3.9914   -0.2660 H   0  0  0  0  0  0  0  0  0  0  0  0
    4.1273    2.2782   -0.1581 H   0  0  0  0  0  0  0  0  0  0  0  0
    4.0839   -2.0637   -0.2001 H   0  0  0  0  0  0  0  0  0  0  0  0
    2.7476   -3.7767   -0.3567 H   0  0  0  0  0  0  0  0  0  0  0  0
    1.0938   -5.6391   -0.4943 H   0  0  0  0  0  0  0  0  0  0  0  0
   -1.3627   -5.1151   -0.5749 H   0  0  0  0  0  0  0  0  0  0  0  0
   -2.1544   -2.7899   -0.5029 H   0  0  0  0  0  0  0  0  0  0  0  0
    5.9652    1.9096    1.0474 H   0  0  0  0  0  0  0  0  0  0  0  0
    8.4391    1.8856    1.0908 H   0  0  0  0  0  0  0  0  0  0  0  0
    8.4579   -1.7558   -1.2557 H   0  0  0  0  0  0  0  0  0  0  0  0
    5.9862   -1.7320   -1.3280 H   0  0  0  0  0  0  0  0  0  0  0  0
   10.5254   -0.9275    0.3003 H   0  0  0  0  0  0  0  0  0  0  0  0
   10.5508    0.1955   -1.0805 H   0  0  0  0  0  0  0  0  0  0  0  0
   10.5534    0.8436    0.5893 H   0  0  0  0  0  0  0  0  0  0  0  0
  2  8  1  0  0  0  0
  3 26  1  0  0  0  0
  3  1  1  0  0  0  0
  4  3  2  0  0  0  0
  5  4  1  0  0  0  0
  5  6  2  0  0  0  0
  6  7  1  0  0  0  0
  7  8  2  0  0  0  0
  7  1  1  0  0  0  0
  8  9  1  0  0  0  0
  9 30  1  0  0  0  0
 10  9  2  0  0  0  0
 10 19  1  0  0  0  0
 11 31  1  0  0  0  0
 11 10  1  0  0  0  0
 12  2  1  0  0  0  0
 12 11  2  0  0  0  0
 13 12  1  0  0  0  0
 14 32  1  0  0  0  0
 14 13  2  0  0  0  0
 15 14  1  0  0  0  0
 16 15  2  0  0  0  0
 16 17  1  0  0  0  0
 17 18  1  0  0  0  0
 18 13  1  0  0  0  0
 19 20  1  0  0  0  0
 20 21  2  0  0  0  0
 20 36  1  0  0  0  0
 21 37  1  0  0  0  0
 22 25  1  0  0  0  0
 22 21  1  0  0  0  0
 23 22  2  0  0  0  0
 24 23  1  0  0  0  0
 24 19  2  0  0  0  0
 25 40  1  0  0  0  0
 25 42  1  0  0  0  0
 27  4  1  0  0  0  0
 28  5  1  0  0  0  0
 29  6  1  0  0  0  0
 33 15  1  0  0  0  0
 34 16  1  0  0  0  0
 35 17  1  0  0  0  0
 38 23  1  0  0  0  0
 39 24  1  0  0  0  0
 41 25  1  0  0  0  0
M  END
