14,36,43
q = -1.0, confidence = 0.0

 43 47  0  0  1  0  0  0  0  0999 V2000
   -2.9391   -0.6257    0.1635 C   0  0  0  0  0  0  0  0  0  0  0  0
   -3.0079   -1.5491    1.2367 C   0  0  0  0  0  0  0  0  0  0  0  0
   -2.0858   -1.9089    1.7108 H   0  0  0  0  0  0  0  0  0  0  0  0
   -4.2683   -1.9863    1.6231 C   0  0  0  0  0  0  0  0  0  0  0  0
   -4.3531   -2.7055    2.4517 H   0  0  0  0  0  0  0  0  0  0  0  0
   -5.4599   -1.5372    0.9763 C   0  0  0  0  0  0  0  0  0  0  0  0
   -6.4319   -1.9212    1.3207 H   0  0  0  0  0  0  0  0  0  0  0  0
   -5.4125   -0.6275   -0.0701 C   0  0  0  0  0  3  0  0  0  0  0  0
   -6.3295   -0.2761   -0.5654 H   0  0  0  0  0  0  0  0  0  0  0  0
   -4.1384   -0.1530   -0.4838 C   0  0  0  0  0  0  0  0  0  0  0  0
   -3.6868    0.7665   -1.4498 C   0  0  0  0  0  0  0  0  0  0  0  0
   -4.2172    1.3821   -2.1830 H   0  0  0  0  0  0  0  0  0  0  0  0
   -2.3355    0.8017   -1.3563 N   0  0  0  0  0  0  0  0  0  0  0  0
   -0.0002    1.7947   -0.0000 C   0  0  0  0  0  3  0  0  0  0  0  0
   -0.6685    2.5197   -1.0077 C   0  0  0  0  0  0  0  0  0  0  0  0
   -0.6732    3.9254   -1.0099 C   0  0  0  0  0  0  0  0  0  0  0  0
   -1.2037    4.4735   -1.8059 H   0  0  0  0  0  0  0  0  0  0  0  0
   -0.0009    4.6312    0.0006 C   0  0  0  0  0  0  0  0  0  0  0  0
   -0.0011    5.7313    0.0008 H   0  0  0  0  0  0  0  0  0  0  0  0
    0.6718    3.9253    1.0107 C   0  0  0  0  0  0  0  0  0  0  0  0
    1.2021    4.4733    1.8069 H   0  0  0  0  0  0  0  0  0  0  0  0
    0.6679    2.5195    1.0080 C   0  0  0  0  0  0  0  0  0  0  0  0
    2.3355    0.8020    1.3560 N   0  0  0  0  0  0  0  0  0  0  0  0
    3.6868    0.7667    1.4497 C   0  0  0  0  0  0  0  0  0  0  0  0
    4.2171    1.3821    2.1830 H   0  0  0  0  0  0  0  0  0  0  0  0
    4.1384   -0.1525    0.4834 C   0  0  0  0  0  0  0  0  0  0  0  0
    5.4125   -0.6270    0.0696 C   0  0  0  0  0  0  0  0  0  0  0  0
    6.3296   -0.2758    0.5650 H   0  0  0  0  0  0  0  0  0  0  0  0
    5.4599   -1.5364   -0.9770 C   0  0  0  0  0  0  0  0  0  0  0  0
    6.4319   -1.9205   -1.3215 H   0  0  0  0  0  0  0  0  0  0  0  0
    4.2683   -1.9854   -1.6240 C   0  0  0  0  0  0  0  0  0  0  0  0
    4.3531   -2.7044   -2.4527 H   0  0  0  0  0  0  0  0  0  0  0  0
    3.0079   -1.5482   -1.2375 C   0  0  0  0  0  0  0  0  0  0  0  0
    2.0858   -1.9078   -1.7118 H   0  0  0  0  0  0  0  0  0  0  0  0
    2.9392   -0.6250   -0.1642 C   0  0  2  0  0  3  0  0  0  0  0  0
   -1.8468   -0.0260   -0.4032 N   0  0  0  0  0  2  0  0  0  0  0  0
   -1.4152    1.7069   -2.0417 C   0  0  0  0  0  0  0  0  0  0  0  0
   -2.0167    2.3346   -2.7250 H   0  0  0  0  0  0  0  0  0  0  0  0
   -0.7174    1.0910   -2.6487 H   0  0  0  0  0  0  0  0  0  0  0  0
    1.4150    1.7068    2.0417 C   0  0  0  0  0  0  0  0  0  0  0  0
    2.0165    2.3347    2.7248 H   0  0  0  0  0  0  0  0  0  0  0  0
    0.7176    1.0906    2.6488 H   0  0  0  0  0  0  0  0  0  0  0  0
    1.8469   -0.0253    0.4026 N   0  0  0  0  0  2  0  0  0  0  0  0
  1  2  2  0  0  0  0
  2  4  1  0  0  0  0
  2  3  1  0  0  0  0
  4  5  1  0  0  0  0
  6  7  1  0  0  0  0
  6  4  2  0  0  0  0
  8  6  1  0  0  0  0
  9  8  1  0  0  0  0
 10  8  1  0  0  0  0
 10  1  1  0  0  0  0
 11 13  1  0  0  0  0
 11 10  2  0  0  0  0
 12 11  1  0  0  0  0
 13 36  1  0  0  0  0
 14 22  1  0  0  0  0
 15 14  2  0  0  0  0
 16 15  1  0  0  0  0
 16 18  2  0  0  0  0
 17 16  1  0  0  0  0
 18 19  1  0  0  0  0
 18 20  1  0  0  0  0
 20 21  1  0  0  0  0
 22 20  2  0  0  0  0
 22 40  1  0  0  0  0
 23 24  1  0  0  0  0
 23 40  1  0  0  0  0
 24 25  1  0  0  0  0
 26 24  2  0  0  0  0
 27 26  1  0  0  0  0
 27 28  1  0  0  0  0
 29 27  2  0  0  0  0
 30 29  1  0  0  0  0
 31 33  2  0  0  0  0
 31 29  1  0  0  0  0
 32 31  1  0  0  0  0
 34 33  1  0  0  0  0
 35 33  1  6  0  0  0
 35 43  1  0  0  0  0
 35 26  1  0  0  0  0
 36  1  1  0  0  0  0
 37 13  1  0  0  0  0
 37 15  1  0  0  0  0
 38 37  1  0  0  0  0
 39 37  1  0  0  0  0
 40 42  1  0  0  0  0
 40 41  1  0  0  0  0
 43 23  1  0  0  0  0
M  END
