1,14,23
q = -1.0

 43 47  0  0  1  0  0  0  0  0999 V2000
    2.0189    0.3982   -0.2563 N   0  0  0  0  0  2  0  0  0  0  0  0
    2.3337    1.7109   -0.0851 C   0  0  2  0  0  3  0  0  0  0  0  0
    3.7027    1.8739   -0.0738 N   0  0  0  0  0  0  0  0  0  0  0  0
    4.2809    0.6168   -0.2355 C   0  0  0  0  0  0  0  0  0  0  0  0
    3.2005   -0.3084   -0.3486 C   0  0  0  0  0  0  0  0  0  0  0  0
    3.4474   -1.6820   -0.5191 C   0  0  0  0  0  0  0  0  0  0  0  0
    2.6126   -2.3883   -0.6066 H   0  0  0  0  0  0  0  0  0  0  0  0
    4.7819   -2.0983   -0.5739 C   0  0  0  0  0  0  0  0  0  0  0  0
    5.0079   -3.1666   -0.7073 H   0  0  0  0  0  0  0  0  0  0  0  0
    5.8497   -1.1756   -0.4628 C   0  0  0  0  0  0  0  0  0  0  0  0
    6.8861   -1.5414   -0.5113 H   0  0  0  0  0  0  0  0  0  0  0  0
    5.6184    0.1964   -0.2918 C   0  0  0  0  0  0  0  0  0  0  0  0
    6.4560    0.9036   -0.2056 H   0  0  0  0  0  0  0  0  0  0  0  0
   -0.0001    1.9532   -0.0281 C   0  0  0  0  0  3  0  0  0  0  0  0
    1.2403    2.6541    0.0559 C   0  0  0  0  0  0  0  0  0  0  0  0
    1.2299    4.0530    0.2477 C   0  0  0  0  0  0  0  0  0  0  0  0
    2.1604    4.6332    0.3193 H   0  0  0  0  0  0  0  0  0  0  0  0
   -0.0002    4.7301    0.3459 C   0  0  0  0  0  0  0  0  0  0  0  0
   -0.0003    5.8196    0.4956 H   0  0  0  0  0  0  0  0  0  0  0  0
   -1.2304    4.0529    0.2477 C   0  0  0  0  0  0  0  0  0  0  0  0
   -2.1609    4.6330    0.3193 H   0  0  0  0  0  0  0  0  0  0  0  0
   -1.2406    2.6540    0.0559 C   0  0  0  0  0  0  0  0  0  0  0  0
   -2.0190    0.3980   -0.2563 N   0  0  0  0  0  2  0  0  0  0  0  0
   -2.3339    1.7107   -0.0851 C   0  0  1  0  0  3  0  0  0  0  0  0
   -3.7029    1.8736   -0.0738 N   0  0  0  0  0  0  0  0  0  0  0  0
   -4.2810    0.6164   -0.2355 C   0  0  0  0  0  0  0  0  0  0  0  0
   -3.2005   -0.3086   -0.3486 C   0  0  0  0  0  0  0  0  0  0  0  0
   -3.4473   -1.6823   -0.5191 C   0  0  0  0  0  0  0  0  0  0  0  0
   -2.6124   -2.3885   -0.6066 H   0  0  0  0  0  0  0  0  0  0  0  0
   -4.7817   -2.0988   -0.5739 C   0  0  0  0  0  0  0  0  0  0  0  0
   -5.0077   -3.1671   -0.7073 H   0  0  0  0  0  0  0  0  0  0  0  0
   -5.8497   -1.1762   -0.4629 C   0  0  0  0  0  0  0  0  0  0  0  0
   -6.8860   -1.5420   -0.5113 H   0  0  0  0  0  0  0  0  0  0  0  0
   -5.6184    0.1958   -0.2919 C   0  0  0  0  0  0  0  0  0  0  0  0
   -6.4562    0.9030   -0.2056 H   0  0  0  0  0  0  0  0  0  0  0  0
    4.4123    3.1279    0.0688 C   0  0  0  0  0  0  0  0  0  0  0  0
    4.1319    3.8345   -0.7378 H   0  0  0  0  0  0  0  0  0  0  0  0
    5.4977    2.9363    0.0016 H   0  0  0  0  0  0  0  0  0  0  0  0
    4.1995    3.5982    1.0502 H   0  0  0  0  0  0  0  0  0  0  0  0
   -4.4126    3.1275    0.0688 C   0  0  0  0  0  0  0  0  0  0  0  0
   -5.4981    2.9358    0.0016 H   0  0  0  0  0  0  0  0  0  0  0  0
   -4.1323    3.8341   -0.7378 H   0  0  0  0  0  0  0  0  0  0  0  0
   -4.1999    3.5978    1.0502 H   0  0  0  0  0  0  0  0  0  0  0  0
  1  2  1  0  0  0  0
  2  3  1  0  0  0  0
  2 15  1  1  0  0  0
  3 36  1  0  0  0  0
  4  3  1  0  0  0  0
  5  1  1  0  0  0  0
  5  4  2  0  0  0  0
  6  5  1  0  0  0  0
  7  6  1  0  0  0  0
  8  6  2  0  0  0  0
  8 10  1  0  0  0  0
  9  8  1  0  0  0  0
 10 12  2  0  0  0  0
 11 10  1  0  0  0  0
 12  4  1  0  0  0  0
 12 13  1  0  0  0  0
 14 22  2  0  0  0  0
 14 15  1  0  0  0  0
 15 16  2  0  0  0  0
 16 17  1  0  0  0  0
 16 18  1  0  0  0  0
 18 19  1  0  0  0  0
 20 21  1  0  0  0  0
 20 18  2  0  0  0  0
 22 20  1  0  0  0  0
 23 24  1  0  0  0  0
 24 25  1  0  0  0  0
 24 22  1  1  0  0  0
 25 40  1  0  0  0  0
 26 25  1  0  0  0  0
 27 23  1  0  0  0  0
 27 26  2  0  0  0  0
 28 27  1  0  0  0  0
 29 28  1  0  0  0  0
 30 28  2  0  0  0  0
 30 32  1  0  0  0  0
 31 30  1  0  0  0  0
 32 34  2  0  0  0  0
 33 32  1  0  0  0  0
 34 26  1  0  0  0  0
 34 35  1  0  0  0  0
 36 39  1  0  0  0  0
 37 36  1  0  0  0  0
 38 36  1  0  0  0  0
 40 43  1  0  0  0  0
 41 40  1  0  0  0  0
 42 40  1  0  0  0  0
M  END
