1,2,3
q = -1.0

 41 42  0  0  0  0  0  0  0  0999 V2000
   -0.4488   -1.2307    1.2122 N   0  0  0  0  0  2  0  0  0  0  0  0
   -2.9403   -0.7417    0.0095 N   0  0  0  0  0  0  0  0  0  0  0  0
    0.9035    1.0991    0.0886 C   0  0  0  0  0  2  0  0  0  0  0  0
    0.8799    2.4985    0.3030 C   0  0  0  0  0  0  0  0  0  0  0  0
   -0.0856    3.0221    0.2402 H   0  0  0  0  0  0  0  0  0  0  0  0
    2.0354    3.2529    0.5723 C   0  0  0  0  0  0  0  0  0  0  0  0
    3.2715    2.5770    0.6211 C   0  0  0  0  0  0  0  0  0  0  0  0
    4.1963    3.1311    0.8478 H   0  0  0  0  0  0  0  0  0  0  0  0
    3.3268    1.2042    0.3793 C   0  0  0  0  0  0  0  0  0  0  0  0
    4.2985    0.6881    0.4253 H   0  0  0  0  0  0  0  0  0  0  0  0
    2.1613    0.4389    0.1082 C   0  0  0  0  0  0  0  0  0  0  0  0
    2.3876   -0.9999   -0.1957 C   0  0  0  0  0  0  0  0  0  0  0  0
    3.4272   -1.3126   -1.1046 C   0  0  0  0  0  0  0  0  0  0  0  0
    3.9049   -0.4809   -1.6424 H   0  0  0  0  0  0  0  0  0  0  0  0
    3.8614   -2.6227   -1.3356 C   0  0  0  0  0  0  0  0  0  0  0  0
    4.6703   -2.8104   -2.0582 H   0  0  0  0  0  0  0  0  0  0  0  0
    3.2774   -3.6883   -0.6322 C   0  0  0  0  0  0  0  0  0  0  0  0
    3.6237   -4.7215   -0.7820 H   0  0  0  0  0  0  0  0  0  0  0  0
    2.2398   -3.4153    0.2600 C   0  0  0  0  0  0  0  0  0  0  0  0
    1.7633   -4.2430    0.8094 H   0  0  0  0  0  0  0  0  0  0  0  0
    1.7480   -2.0976    0.4593 C   0  0  0  0  0  0  0  0  0  0  0  0
    0.5707   -2.0393    1.3147 C   0  0  0  0  0  0  0  0  0  0  0  0
    0.4664   -2.8726    2.0394 H   0  0  0  0  0  0  0  0  0  0  0  0
   -1.6625   -1.5384    1.9835 C   0  0  0  0  0  0  0  0  0  0  0  0
   -1.9237   -0.6597    2.6078 H   0  0  0  0  0  0  0  0  0  0  0  0
   -1.5027   -2.4088    2.6569 H   0  0  0  0  0  0  0  0  0  0  0  0
   -2.7763   -1.8517    0.9780 C   0  0  0  0  0  0  0  0  0  0  0  0
   -2.4859   -2.7585    0.4107 H   0  0  0  0  0  0  0  0  0  0  0  0
   -3.7331   -2.0739    1.5042 H   0  0  0  0  0  0  0  0  0  0  0  0
   -3.4138   -1.2127   -1.3042 C   0  0  0  0  0  0  0  0  0  0  0  0
   -2.7128   -1.9736   -1.6959 H   0  0  0  0  0  0  0  0  0  0  0  0
   -3.4105   -0.3506   -1.9983 H   0  0  0  0  0  0  0  0  0  0  0  0
   -4.4388   -1.6468   -1.2367 H   0  0  0  0  0  0  0  0  0  0  0  0
   -3.8394    0.3076    0.5280 C   0  0  0  0  0  0  0  0  0  0  0  0
   -3.8050    1.1683   -0.1666 H   0  0  0  0  0  0  0  0  0  0  0  0
   -3.4844    0.6543    1.5167 H   0  0  0  0  0  0  0  0  0  0  0  0
   -4.8832   -0.0738    0.6223 H   0  0  0  0  0  0  0  0  0  0  0  0
    1.9594    4.7436    0.7877 C   0  0  0  0  0  0  0  0  0  0  0  0
    0.9111    5.0903    0.8698 H   0  0  0  0  0  0  0  0  0  0  0  0
    2.4288    5.2937   -0.0559 H   0  0  0  0  0  0  0  0  0  0  0  0
    2.4984    5.0500    1.7083 H   0  0  0  0  0  0  0  0  0  0  0  0
  1 22  1  0  0  0  0
  1 24  1  0  0  0  0
  2 34  1  0  0  0  0
  2 27  1  0  0  0  0
  3 11  1  0  0  0  0
  3  4  1  0  0  0  0
  4  6  2  0  0  0  0
  5  4  1  0  0  0  0
  6  7  1  0  0  0  0
  6 38  1  0  0  0  0
  7  8  1  0  0  0  0
  9 10  1  0  0  0  0
  9  7  2  0  0  0  0
 11  9  1  0  0  0  0
 12 11  2  0  0  0  0
 12 21  1  0  0  0  0
 13 12  1  0  0  0  0
 14 13  1  0  0  0  0
 15 13  2  0  0  0  0
 15 17  1  0  0  0  0
 16 15  1  0  0  0  0
 17 19  2  0  0  0  0
 18 17  1  0  0  0  0
 19 21  1  0  0  0  0
 19 20  1  0  0  0  0
 21 22  2  0  0  0  0
 22 23  1  0  0  0  0
 24 25  1  0  0  0  0
 24 26  1  0  0  0  0
 27 29  1  0  0  0  0
 27 24  1  0  0  0  0
 28 27  1  0  0  0  0
 30 33  1  0  0  0  0
 30  2  1  0  0  0  0
 31 30  1  0  0  0  0
 32 30  1  0  0  0  0
 34 37  1  0  0  0  0
 34 36  1  0  0  0  0
 35 34  1  0  0  0  0
 38 39  1  0  0  0  0
 38 41  1  0  0  0  0
 40 38  1  0  0  0  0
M  END
