2,3,4
q = -1.0, confidence = 0.03

 47 48  0  0  0  0  0  0  0  0999 V2000
   -9.2045   -0.1068   -0.0128 I   0  0  0  0  0  0  0  0  0  0  0  0
    3.8626    2.0991   -0.0709 N   0  0  0  0  0  0  0  0  0  0  0  0
    4.1683   -2.0875    0.0694 N   0  0  0  0  0  0  0  0  0  0  0  0
    2.3821   -0.1148   -0.0085 C   0  0  0  0  0  3  0  0  0  0  0  0
    1.6065    1.0534    0.1560 C   0  0  0  0  0  0  0  0  0  0  0  0
    0.2139    0.9558    0.1339 C   0  0  0  0  0  0  0  0  0  0  0  0
   -0.4068    1.8572    0.2568 H   0  0  0  0  0  0  0  0  0  0  0  0
   -0.4183   -0.3124   -0.0260 C   0  0  0  0  0  0  0  0  0  0  0  0
    0.3919   -1.4752   -0.1743 C   0  0  0  0  0  0  0  0  0  0  0  0
   -0.1081   -2.4500   -0.3017 H   0  0  0  0  0  0  0  0  0  0  0  0
    1.7874   -1.3801   -0.1793 C   0  0  0  0  0  0  0  0  0  0  0  0
    2.4417    2.2776    0.4462 C   0  0  0  0  0  0  0  0  0  0  0  0
    2.5309    2.4047    1.5453 H   0  0  0  0  0  0  0  0  0  0  0  0
    2.0215    3.2234    0.0377 H   0  0  0  0  0  0  0  0  0  0  0  0
    3.9343    2.5008   -1.5002 C   0  0  0  0  0  0  0  0  0  0  0  0
    3.7130    3.5874   -1.6018 H   0  0  0  0  0  0  0  0  0  0  0  0
    3.1994    1.9140   -2.0801 H   0  0  0  0  0  0  0  0  0  0  0  0
    4.9497    2.2861   -1.8798 H   0  0  0  0  0  0  0  0  0  0  0  0
    4.8079    2.9165    0.7262 C   0  0  0  0  0  0  0  0  0  0  0  0
    5.8351    2.7058    0.3746 H   0  0  0  0  0  0  0  0  0  0  0  0
    4.7405    2.6133    1.7867 H   0  0  0  0  0  0  0  0  0  0  0  0
    4.5631    3.9973    0.6258 H   0  0  0  0  0  0  0  0  0  0  0  0
    2.7916   -2.4730   -0.4560 C   0  0  0  0  0  0  0  0  0  0  0  0
    2.9067   -2.5948   -1.5533 H   0  0  0  0  0  0  0  0  0  0  0  0
    2.5099   -3.4667   -0.0423 H   0  0  0  0  0  0  0  0  0  0  0  0
    4.2889   -2.4730    1.4999 C   0  0  0  0  0  0  0  0  0  0  0  0
    3.4720   -1.9995    2.0737 H   0  0  0  0  0  0  0  0  0  0  0  0
    5.2592   -2.1114    1.8858 H   0  0  0  0  0  0  0  0  0  0  0  0
    4.2286   -3.5802    1.6022 H   0  0  0  0  0  0  0  0  0  0  0  0
    5.2281   -2.7587   -0.7203 C   0  0  0  0  0  0  0  0  0  0  0  0
    6.2111   -2.3993   -0.3631 H   0  0  0  0  0  0  0  0  0  0  0  0
    5.1236   -2.4701   -1.7819 H   0  0  0  0  0  0  0  0  0  0  0  0
    5.1436   -3.8635   -0.6190 H   0  0  0  0  0  0  0  0  0  0  0  0
   -1.8684   -0.4729   -0.0450 C   0  0  0  0  0  0  0  0  0  0  0  0
   -2.2069   -1.5166   -0.1659 H   0  0  0  0  0  0  0  0  0  0  0  0
   -2.8167    0.5010    0.0659 C   0  0  0  0  0  0  0  0  0  0  0  0
   -2.4897    1.5480    0.1854 H   0  0  0  0  0  0  0  0  0  0  0  0
   -4.2657    0.3192    0.0434 C   0  0  0  0  0  0  0  0  0  0  0  0
   -5.1073    1.4525    0.1719 C   0  0  0  0  0  0  0  0  0  0  0  0
   -4.6486    2.4476    0.2864 H   0  0  0  0  0  0  0  0  0  0  0  0
   -6.5032    1.3457    0.1577 C   0  0  0  0  0  0  0  0  0  0  0  0
   -7.1281    2.2443    0.2597 H   0  0  0  0  0  0  0  0  0  0  0  0
   -7.0915    0.0796    0.0119 C   0  0  0  0  0  0  0  0  0  0  0  0
   -6.2889   -1.0686   -0.1183 C   0  0  0  0  0  0  0  0  0  0  0  0
   -6.7509   -2.0596   -0.2323 H   0  0  0  0  0  0  0  0  0  0  0  0
   -4.8970   -0.9430   -0.1018 C   0  0  0  0  0  0  0  0  0  0  0  0
   -4.2877   -1.8531   -0.2052 H   0  0  0  0  0  0  0  0  0  0  0  0
  1 43  1  0  0  0  0
  2 12  1  0  0  0  0
  2 19  1  0  0  0  0
  3 26  1  0  0  0  0
  4  5  1  0  0  0  0
  5 12  1  0  0  0  0
  6  5  2  0  0  0  0
  6  7  1  0  0  0  0
  8  6  1  0  0  0  0
  9  8  2  0  0  0  0
 10  9  1  0  0  0  0
 11  9  1  0  0  0  0
 11  4  2  0  0  0  0
 12 13  1  0  0  0  0
 14 12  1  0  0  0  0
 15  2  1  0  0  0  0
 16 15  1  0  0  0  0
 17 15  1  0  0  0  0
 18 15  1  0  0  0  0
 19 21  1  0  0  0  0
 20 19  1  0  0  0  0
 22 19  1  0  0  0  0
 23 11  1  0  0  0  0
 23 25  1  0  0  0  0
 23  3  1  0  0  0  0
 24 23  1  0  0  0  0
 26 29  1  0  0  0  0
 26 28  1  0  0  0  0
 26 27  1  0  0  0  0
 30 33  1  0  0  0  0
 30 31  1  0  0  0  0
 30  3  1  0  0  0  0
 32 30  1  0  0  0  0
 34  8  1  0  0  0  0
 34 36  2  0  0  0  0
 35 34  1  0  0  0  0
 36 37  1  0  0  0  0
 38 36  1  0  0  0  0
 38 39  1  0  0  0  0
 39 40  1  0  0  0  0
 41 39  2  0  0  0  0
 41 42  1  0  0  0  0
 43 41  1  0  0  0  0
 44 46  1  0  0  0  0
 44 43  2  0  0  0  0
 45 44  1  0  0  0  0
 46 38  2  0  0  0  0
 47 46  1  0  0  0  0
M  END
