1,2,3
q = -1.0

 69 73  0  0  0  0  0  0  0  0999 V2000
    2.0579    0.0362    0.0305 N   0  0  0  0  0  2  0  0  0  0  0  0
   -2.0576   -0.0349    0.0342 N   0  0  0  0  0  2  0  0  0  0  0  0
    0.0020    0.0049    2.0505 C   0  0  0  0  0  2  0  0  0  0  0  0
   -0.5885   -1.0611    2.7834 C   0  0  0  0  0  0  0  0  0  0  0  0
   -0.5867   -1.0396    4.1999 C   0  0  0  0  0  0  0  0  0  0  0  0
   -1.0750   -1.8609    4.7462 H   0  0  0  0  0  0  0  0  0  0  0  0
    0.0048    0.0106    4.9061 C   0  0  0  0  0  0  0  0  0  0  0  0
    0.0059    0.0127    6.0062 H   0  0  0  0  0  0  0  0  0  0  0  0
    0.5948    1.0579    4.1946 C   0  0  0  0  0  0  0  0  0  0  0  0
    1.0843    1.8814    4.7367 H   0  0  0  0  0  0  0  0  0  0  0  0
    0.5938    1.0739    2.7781 C   0  0  0  0  0  0  0  0  0  0  0  0
    1.1937    2.2826    2.1456 C   0  0  0  0  0  0  0  0  0  0  0  0
    0.8164    3.5510    2.6443 C   0  0  0  0  0  0  0  0  0  0  0  0
    0.0246    3.5950    3.4064 H   0  0  0  0  0  0  0  0  0  0  0  0
    1.3968    4.7371    2.1806 C   0  0  0  0  0  0  0  0  0  0  0  0
    1.0577    5.7046    2.5809 H   0  0  0  0  0  0  0  0  0  0  0  0
    2.4157    4.6872    1.2164 C   0  0  0  0  0  0  0  0  0  0  0  0
    2.8908    5.6098    0.8522 H   0  0  0  0  0  0  0  0  0  0  0  0
    2.8283    3.4446    0.7285 C   0  0  0  0  0  3  0  0  0  0  0  0
    3.6373    3.3891   -0.0164 H   0  0  0  0  0  0  0  0  0  0  0  0
    2.2070    2.2435    1.1491 C   0  0  0  0  0  0  0  0  0  0  0  0
    2.7361    1.0282    0.5232 C   0  0  0  0  0  0  0  0  0  0  0  0
    3.8341    1.0069    0.3780 H   0  0  0  0  0  0  0  0  0  0  0  0
    2.8136   -0.9422   -0.7109 C   0  0  0  0  0  0  0  0  0  0  0  0
    3.6031   -0.5236   -1.8174 C   0  0  0  0  0  0  0  0  0  0  0  0
    4.3371   -1.5079   -2.5064 C   0  0  0  0  0  0  0  0  0  0  0  0
    4.9366   -1.2015   -3.3775 H   0  0  0  0  0  0  0  0  0  0  0  0
    4.3007   -2.8522   -2.1216 C   0  0  0  0  0  0  0  0  0  0  0  0
    4.8833   -3.6020   -2.6776 H   0  0  0  0  0  0  0  0  0  0  0  0
    3.5044   -3.2412   -1.0378 C   0  0  0  0  0  0  0  0  0  0  0  0
    3.4599   -4.2985   -0.7338 H   0  0  0  0  0  0  0  0  0  0  0  0
    2.7409   -2.3028   -0.3225 C   0  0  0  0  0  0  0  0  0  0  0  0
    1.8512   -2.7408    0.8023 C   0  0  0  0  0  0  0  0  0  0  0  0
    1.9776   -3.8182    1.0187 H   0  0  0  0  0  0  0  0  0  0  0  0
    0.7882   -2.5664    0.5306 H   0  0  0  0  0  0  0  0  0  0  0  0
    2.0256   -2.1658    1.7339 H   0  0  0  0  0  0  0  0  0  0  0  0
    3.6494    0.9039   -2.3087 C   0  0  0  0  0  0  0  0  0  0  0  0
    4.4501    1.4957   -1.8153 H   0  0  0  0  0  0  0  0  0  0  0  0
    2.6820    1.4206   -2.1546 H   0  0  0  0  0  0  0  0  0  0  0  0
    3.8605    0.9193   -3.3950 H   0  0  0  0  0  0  0  0  0  0  0  0
   -1.1897   -2.2724    2.1571 C   0  0  0  0  0  0  0  0  0  0  0  0
   -0.8116   -3.5387    2.6601 C   0  0  0  0  0  0  0  0  0  0  0  0
   -0.0180   -3.5798    3.4206 H   0  0  0  0  0  0  0  0  0  0  0  0
   -1.3932   -4.7267    2.2026 C   0  0  0  0  0  0  0  0  0  0  0  0
   -1.0534   -5.6925    2.6060 H   0  0  0  0  0  0  0  0  0  0  0  0
   -2.4144   -4.6805    1.2406 C   0  0  0  0  0  0  0  0  0  0  0  0
   -2.8906   -5.6045    0.8813 H   0  0  0  0  0  0  0  0  0  0  0  0
   -2.8278   -3.4399    0.7485 C   0  0  0  0  0  0  0  0  0  0  0  0
   -3.6385   -3.3872    0.0052 H   0  0  0  0  0  0  0  0  0  0  0  0
   -2.2053   -2.2372    1.1627 C   0  0  0  0  0  0  0  0  0  0  0  0
   -2.7354   -1.0244    0.5328 C   0  0  0  0  0  0  0  0  0  0  0  0
   -3.8336   -1.0033    0.3898 H   0  0  0  0  0  0  0  0  0  0  0  0
   -2.8144    0.9403   -0.7102 C   0  0  0  0  0  0  0  0  0  0  0  0
   -2.7393    2.3029   -0.3293 C   0  0  0  0  0  0  0  0  0  0  0  0
   -3.5043    3.2382   -1.0472 C   0  0  0  0  0  0  0  0  0  0  0  0
   -3.4578    4.2970   -0.7489 H   0  0  0  0  0  0  0  0  0  0  0  0
   -4.3042    2.8441   -2.1265 C   0  0  0  0  0  0  0  0  0  0  0  0
   -4.8880    3.5916   -2.6845 H   0  0  0  0  0  0  0  0  0  0  0  0
   -4.3428    1.4980   -2.5042 C   0  0  0  0  0  0  0  0  0  0  0  0
   -4.9450    1.1875   -3.3720 H   0  0  0  0  0  0  0  0  0  0  0  0
   -3.6074    0.5166   -1.8124 C   0  0  0  0  0  0  0  0  0  0  0  0
   -3.6562   -0.9132   -2.2964 C   0  0  0  0  0  0  0  0  0  0  0  0
   -2.6898   -1.4310   -2.1402 H   0  0  0  0  0  0  0  0  0  0  0  0
   -3.8677   -0.9337   -3.3826 H   0  0  0  0  0  0  0  0  0  0  0  0
   -4.4579   -1.5010   -1.7998 H   0  0  0  0  0  0  0  0  0  0  0  0
   -1.8457    2.7460    0.7903 C   0  0  0  0  0  0  0  0  0  0  0  0
   -1.9686    3.8251    0.9998 H   0  0  0  0  0  0  0  0  0  0  0  0
   -0.7839    2.5666    0.5173 H   0  0  0  0  0  0  0  0  0  0  0  0
   -2.0197    2.1777    1.7263 H   0  0  0  0  0  0  0  0  0  0  0  0
  1 22  1  0  0  0  0
  2 51  1  0  0  0  0
  3 11  1  0  0  0  0
  3  4  1  0  0  0  0
  4  5  1  0  0  0  0
  5  6  1  0  0  0  0
  5  7  2  0  0  0  0
  7  8  1  0  0  0  0
  9 10  1  0  0  0  0
  9  7  1  0  0  0  0
 11  9  2  0  0  0  0
 12 13  2  0  0  0  0
 12 11  1  0  0  0  0
 13 14  1  0  0  0  0
 15 16  1  0  0  0  0
 15 13  1  0  0  0  0
 17 15  2  0  0  0  0
 18 17  1  0  0  0  0
 19 21  1  0  0  0  0
 19 17  1  0  0  0  0
 20 19  1  0  0  0  0
 21 12  1  0  0  0  0
 22 21  2  0  0  0  0
 23 22  1  0  0  0  0
 24 32  1  0  0  0  0
 24  1  1  0  0  0  0
 25 24  2  0  0  0  0
 26 28  2  0  0  0  0
 26 25  1  0  0  0  0
 27 26  1  0  0  0  0
 28 30  1  0  0  0  0
 29 28  1  0  0  0  0
 30 31  1  0  0  0  0
 30 32  2  0  0  0  0
 32 33  1  0  0  0  0
 33 34  1  0  0  0  0
 33 36  1  0  0  0  0
 35 33  1  0  0  0  0
 37 39  1  0  0  0  0
 37 25  1  0  0  0  0
 37 38  1  0  0  0  0
 40 37  1  0  0  0  0
 41 42  1  0  0  0  0
 41  4  2  0  0  0  0
 42 43  1  0  0  0  0
 44 45  1  0  0  0  0
 44 42  2  0  0  0  0
 46 44  1  0  0  0  0
 47 46  1  0  0  0  0
 48 50  1  0  0  0  0
 48 46  2  0  0  0  0
 49 48  1  0  0  0  0
 50 41  1  0  0  0  0
 51 50  2  0  0  0  0
 52 51  1  0  0  0  0
 53 54  1  0  0  0  0
 53  2  1  0  0  0  0
 54 66  1  0  0  0  0
 55 56  1  0  0  0  0
 55 54  2  0  0  0  0
 57 55  1  0  0  0  0
 58 57  1  0  0  0  0
 59 57  2  0  0  0  0
 59 61  1  0  0  0  0
 60 59  1  0  0  0  0
 61 53  2  0  0  0  0
 62 63  1  0  0  0  0
 62 61  1  0  0  0  0
 62 65  1  0  0  0  0
 64 62  1  0  0  0  0
 66 67  1  0  0  0  0
 66 69  1  0  0  0  0
 68 66  1  0  0  0  0
M  END
