1,2,69
q = -1.0

 69 73  0  0  0  0  0  0  0  0999 V2000
   -1.2070   -1.6370   -0.1680 N   0  0  0  0  0  2  0  0  0  0  0  0
   -0.0000   -0.0008    1.7546 C   0  0  0  0  0  2  0  0  0  0  0  0
   -2.5756   -1.4588   -0.6861 C   0  0  0  0  0  0  0  0  0  0  0  0
   -2.4171   -1.1260   -1.7393 H   0  0  0  0  0  0  0  0  0  0  0  0
    2.5756    1.4590   -0.6850 C   0  0  0  0  0  0  0  0  0  0  0  0
    2.4173    1.1253   -1.7379 H   0  0  0  0  0  0  0  0  0  0  0  0
   -1.2196    2.2330    1.7751 C   0  0  0  0  0  0  0  0  0  0  0  0
    0.5908   -3.0218    0.7659 C   0  0  0  0  0  0  0  0  0  0  0  0
    0.5619   -1.0888    2.4660 C   0  0  0  0  0  0  0  0  0  0  0  0
    1.2196   -2.2345    1.7738 C   0  0  0  0  0  0  0  0  0  0  0  0
   -0.5908    3.0210    0.7678 C   0  0  0  0  0  0  0  0  0  0  0  0
   -0.7699   -2.7772    0.2515 C   0  0  0  0  0  0  0  0  0  0  0  0
   -1.4219   -3.6680    0.1670 H   0  0  0  0  0  0  0  0  0  0  0  0
   -0.5621    1.0868    2.4666 C   0  0  0  0  0  0  0  0  0  0  0  0
   -1.2565    4.1537    0.2477 C   0  0  0  0  0  0  0  0  0  0  0  0
   -0.7436    4.7696   -0.5075 H   0  0  0  0  0  0  0  0  0  0  0  0
   -3.4604   -2.7086   -0.6883 C   0  0  0  0  0  0  0  0  0  0  0  0
   -3.5772   -3.0864    0.3530 H   0  0  0  0  0  0  0  0  0  0  0  0
   -2.9857   -3.5200   -1.2797 H   0  0  0  0  0  0  0  0  0  0  0  0
   -3.1905    3.6990    1.6246 C   0  0  0  0  0  0  0  0  0  0  0  0
   -4.2112    3.9434    1.9557 H   0  0  0  0  0  0  0  0  0  0  0  0
    0.7698    2.7768    0.2532 C   0  0  0  0  0  0  0  0  0  0  0  0
    1.4218    3.6677    0.1690 H   0  0  0  0  0  0  0  0  0  0  0  0
    1.2565   -4.1540    0.2450 C   0  0  0  0  0  3  0  0  0  0  0  0
    0.7436   -4.7694   -0.5107 H   0  0  0  0  0  0  0  0  0  0  0  0
   -3.2476   -0.2951    0.0648 C   0  0  0  0  0  0  0  0  0  0  0  0
   -2.5902    0.5961   -0.0036 H   0  0  0  0  0  0  0  0  0  0  0  0
   -3.3147   -0.5587    1.1443 H   0  0  0  0  0  0  0  0  0  0  0  0
   -0.5588    1.0724    3.8814 C   0  0  0  0  0  0  0  0  0  0  0  0
   -0.9866    1.9267    4.4290 H   0  0  0  0  0  0  0  0  0  0  0  0
    3.4596    2.7094   -0.6882 C   0  0  0  0  0  0  0  0  0  0  0  0
    3.5765    3.0881    0.3528 H   0  0  0  0  0  0  0  0  0  0  0  0
    2.9841    3.5200   -1.2801 H   0  0  0  0  0  0  0  0  0  0  0  0
   -0.0001   -0.0016    4.5848 C   0  0  0  0  0  0  0  0  0  0  0  0
   -0.0001   -0.0019    5.6852 H   0  0  0  0  0  0  0  0  0  0  0  0
    0.5587   -1.0752    3.8808 C   0  0  0  0  0  0  0  0  0  0  0  0
    0.9864   -1.9297    4.4279 H   0  0  0  0  0  0  0  0  0  0  0  0
   -2.5193    2.6046    2.1854 C   0  0  0  0  0  0  0  0  0  0  0  0
   -3.0156    1.9952    2.9554 H   0  0  0  0  0  0  0  0  0  0  0  0
    4.8462    2.3895   -1.2688 C   0  0  0  0  0  0  0  0  0  0  0  0
    4.7333    2.1078   -2.3391 H   0  0  0  0  0  0  0  0  0  0  0  0
    5.4773    3.3021   -1.2508 H   0  0  0  0  0  0  0  0  0  0  0  0
    3.2483    0.2964    0.0670 C   0  0  0  0  0  0  0  0  0  0  0  0
    2.5916   -0.5953   -0.0004 H   0  0  0  0  0  0  0  0  0  0  0  0
    3.3156    0.5611    1.1462 H   0  0  0  0  0  0  0  0  0  0  0  0
   -2.5554    4.4834    0.6498 C   0  0  0  0  0  0  0  0  0  0  0  0
   -3.0668    5.3509    0.2073 H   0  0  0  0  0  0  0  0  0  0  0  0
    2.5191   -2.6065    2.1839 C   0  0  0  0  0  0  0  0  0  0  0  0
    3.0154   -1.9976    2.9544 H   0  0  0  0  0  0  0  0  0  0  0  0
   -5.5278   -1.2401   -0.5142 C   0  0  0  0  0  0  0  0  0  0  0  0
   -6.5147   -1.0125   -0.9685 H   0  0  0  0  0  0  0  0  0  0  0  0
   -5.7297   -1.5595    0.5334 H   0  0  0  0  0  0  0  0  0  0  0  0
   -4.8470   -2.3884   -1.2687 C   0  0  0  0  0  0  0  0  0  0  0  0
   -4.7343   -2.1077   -2.3392 H   0  0  0  0  0  0  0  0  0  0  0  0
   -5.4787   -3.3005   -1.2497 H   0  0  0  0  0  0  0  0  0  0  0  0
    5.5279    1.2424   -0.5135 C   0  0  0  0  0  0  0  0  0  0  0  0
    5.7299    1.5628    0.5337 H   0  0  0  0  0  0  0  0  0  0  0  0
    6.5148    1.0149   -0.9679 H   0  0  0  0  0  0  0  0  0  0  0  0
    2.5553   -4.4841    0.6470 C   0  0  0  0  0  0  0  0  0  0  0  0
    3.0667   -5.3513    0.2039 H   0  0  0  0  0  0  0  0  0  0  0  0
   -4.6376    0.0077   -0.5013 C   0  0  0  0  0  0  0  0  0  0  0  0
   -5.1070    0.8244    0.0857 H   0  0  0  0  0  0  0  0  0  0  0  0
   -4.5273    0.3922   -1.5395 H   0  0  0  0  0  0  0  0  0  0  0  0
    3.1903   -3.7005    1.6223 C   0  0  0  0  0  0  0  0  0  0  0  0
    4.2111   -3.9452    1.9534 H   0  0  0  0  0  0  0  0  0  0  0  0
    4.6384   -0.0061   -0.4992 C   0  0  0  0  0  0  0  0  0  0  0  0
    5.1086   -0.8219    0.0885 H   0  0  0  0  0  0  0  0  0  0  0  0
    4.5281   -0.3916   -1.5370 H   0  0  0  0  0  0  0  0  0  0  0  0
    1.2069    1.6369   -0.1670 N   0  0  0  0  0  2  0  0  0  0  0  0
  1 12  1  0  0  0  0
  2  9  1  0  0  0  0
  2 14  1  0  0  0  0
  3  1  1  0  0  0  0
  3 26  1  0  0  0  0
  4  3  1  0  0  0  0
  5 69  1  0  0  0  0
  5 43  1  0  0  0  0
  6  5  1  0  0  0  0
  7 38  1  0  0  0  0
  7 14  2  0  0  0  0
  8 10  1  0  0  0  0
  9 36  2  0  0  0  0
 10 48  2  0  0  0  0
 10  9  1  0  0  0  0
 11  7  1  0  0  0  0
 12  8  2  0  0  0  0
 13 12  1  0  0  0  0
 14 29  1  0  0  0  0
 15 46  2  0  0  0  0
 15 11  1  0  0  0  0
 16 15  1  0  0  0  0
 17  3  1  0  0  0  0
 17 18  1  0  0  0  0
 19 17  1  0  0  0  0
 20 21  1  0  0  0  0
 20 38  2  0  0  0  0
 22 11  2  0  0  0  0
 23 22  1  0  0  0  0
 24 59  1  0  0  0  0
 24  8  1  0  0  0  0
 25 24  1  0  0  0  0
 26 28  1  0  0  0  0
 27 26  1  0  0  0  0
 29 30  1  0  0  0  0
 29 34  2  0  0  0  0
 31  5  1  0  0  0  0
 31 32  1  0  0  0  0
 33 31  1  0  0  0  0
 34 35  1  0  0  0  0
 36 37  1  0  0  0  0
 36 34  1  0  0  0  0
 38 39  1  0  0  0  0
 40 42  1  0  0  0  0
 40 31  1  0  0  0  0
 40 56  1  0  0  0  0
 41 40  1  0  0  0  0
 43 45  1  0  0  0  0
 44 43  1  0  0  0  0
 46 20  1  0  0  0  0
 47 46  1  0  0  0  0
 48 49  1  0  0  0  0
 50 61  1  0  0  0  0
 50 52  1  0  0  0  0
 51 50  1  0  0  0  0
 53 55  1  0  0  0  0
 53 17  1  0  0  0  0
 53 50  1  0  0  0  0
 54 53  1  0  0  0  0
 56 66  1  0  0  0  0
 56 57  1  0  0  0  0
 58 56  1  0  0  0  0
 59 64  2  0  0  0  0
 60 59  1  0  0  0  0
 61 26  1  0  0  0  0
 61 62  1  0  0  0  0
 63 61  1  0  0  0  0
 64 65  1  0  0  0  0
 64 48  1  0  0  0  0
 66 43  1  0  0  0  0
 66 67  1  0  0  0  0
 68 66  1  0  0  0  0
 69 22  1  0  0  0  0
M  END
