5,6,7
q = -2.0, confidence = 0.814

 75 78  0  0  0  0  0  0  0  0999 V2000
    1.5943    0.4616    0.3967 P   0  0  0  0  0  4  0  0  0  0  0  0
   -1.6070    0.4514    0.4138 P   0  0  0  0  0  4  0  0  0  0  0  0
    3.5970   -1.7515   -0.6112 Si  0  0  0  0  0  0  0  0  0  0  0  0
   -3.5711   -1.6940   -0.8006 Si  0  0  0  0  0  0  0  0  0  0  0  0
    2.0286   -0.9608   -0.3505 N   0  0  0  0  0  2  0  0  0  0  0  0
   -2.0113   -0.9408   -0.4056 N   0  0  0  0  0  2  0  0  0  0  0  0
   -0.0029    0.0658    0.8161 C   0  0  0  0  0  2  0  0  0  0  0  0
    4.7725   -0.5915   -1.5339 C   0  0  0  0  0  0  0  0  0  0  0  0
    3.2475   -3.2908   -1.6426 C   0  0  0  0  0  0  0  0  0  0  0  0
    4.3499   -2.2436    1.0506 C   0  0  0  0  0  0  0  0  0  0  0  0
   -4.6492   -0.4674   -1.7547 C   0  0  0  0  0  0  0  0  0  0  0  0
   -3.1862   -3.2013   -1.8659 C   0  0  0  0  0  0  0  0  0  0  0  0
   -4.4370   -2.2474    0.7850 C   0  0  0  0  0  0  0  0  0  0  0  0
    1.7885    1.8683   -0.7525 C   0  0  0  0  0  0  0  0  0  0  0  0
    1.9161    1.6173   -2.1332 C   0  0  0  0  0  0  0  0  0  0  0  0
    1.9537    2.6893   -3.0368 C   0  0  0  0  0  0  0  0  0  0  0  0
    1.8525    4.0095   -2.5708 C   0  0  0  0  0  0  0  0  0  0  0  0
    1.7089    4.2605   -1.1961 C   0  0  0  0  0  0  0  0  0  0  0  0
    1.6759    3.1946   -0.2866 C   0  0  0  0  0  0  0  0  0  0  0  0
    2.6828    0.8206    1.8230 C   0  0  0  0  0  0  0  0  0  0  0  0
    3.8965    1.5214    1.6771 C   0  0  0  0  0  0  0  0  0  0  0  0
    4.7592    1.6612    2.7748 C   0  0  0  0  0  0  0  0  0  0  0  0
    4.4133    1.1034    4.0167 C   0  0  0  0  0  0  0  0  0  0  0  0
    3.1993    0.4113    4.1652 C   0  0  0  0  0  0  0  0  0  0  0  0
    2.3337    0.2709    3.0716 C   0  0  0  0  0  0  0  0  0  0  0  0
   -2.6993    0.6971    1.8616 C   0  0  0  0  0  0  0  0  0  0  0  0
   -3.9683    1.2998    1.7442 C   0  0  0  0  0  0  0  0  0  0  0  0
   -4.8217    1.3571    2.8561 C   0  0  0  0  0  0  0  0  0  0  0  0
   -4.4140    0.8114    4.0847 C   0  0  0  0  0  0  0  0  0  0  0  0
   -3.1486    0.2131    4.2040 C   0  0  0  0  0  0  0  0  0  0  0  0
   -2.2910    0.1574    3.0961 C   0  0  0  0  0  0  0  0  0  0  0  0
   -1.8247    1.9260   -0.6423 C   0  0  0  0  0  0  0  0  0  0  0  0
   -1.6905    1.7778   -2.0382 C   0  0  0  0  0  0  0  0  0  0  0  0
   -1.7208    2.9087   -2.8656 C   0  0  0  0  0  0  0  0  0  0  0  0
   -1.8853    4.1880   -2.3099 C   0  0  0  0  0  0  0  0  0  0  0  0
   -2.0104    4.3385   -0.9196 C   0  0  0  0  0  0  0  0  0  0  0  0
   -1.9734    3.2126   -0.0843 C   0  0  0  0  0  0  0  0  0  0  0  0
    4.3679   -0.3149   -2.5281 H   0  0  0  0  0  0  0  0  0  0  0  0
    5.7563   -1.0818   -1.6877 H   0  0  0  0  0  0  0  0  0  0  0  0
    4.9482    0.3445   -0.9661 H   0  0  0  0  0  0  0  0  0  0  0  0
    2.5737   -3.9865   -1.1004 H   0  0  0  0  0  0  0  0  0  0  0  0
    4.1897   -3.8348   -1.8598 H   0  0  0  0  0  0  0  0  0  0  0  0
    2.7639   -3.0262   -2.6043 H   0  0  0  0  0  0  0  0  0  0  0  0
    3.6393   -2.8829    1.6135 H   0  0  0  0  0  0  0  0  0  0  0  0
    4.5840   -1.3589    1.6759 H   0  0  0  0  0  0  0  0  0  0  0  0
    5.2873   -2.8188    0.9015 H   0  0  0  0  0  0  0  0  0  0  0  0
   -4.8645    0.4406   -1.1556 H   0  0  0  0  0  0  0  0  0  0  0  0
   -5.6205   -0.9298   -2.0276 H   0  0  0  0  0  0  0  0  0  0  0  0
   -4.1465   -0.1434   -2.6883 H   0  0  0  0  0  0  0  0  0  0  0  0
   -2.5559   -3.9275   -1.3110 H   0  0  0  0  0  0  0  0  0  0  0  0
   -2.6460   -2.9157   -2.7904 H   0  0  0  0  0  0  0  0  0  0  0  0
   -4.1246   -3.7205   -2.1503 H   0  0  0  0  0  0  0  0  0  0  0  0
   -3.7755   -2.9340    1.3522 H   0  0  0  0  0  0  0  0  0  0  0  0
   -5.3760   -2.7905    0.5497 H   0  0  0  0  0  0  0  0  0  0  0  0
   -4.6882   -1.3931    1.4442 H   0  0  0  0  0  0  0  0  0  0  0  0
    1.9642    0.5778   -2.4907 H   0  0  0  0  0  0  0  0  0  0  0  0
    2.0559    2.4891   -4.1141 H   0  0  0  0  0  0  0  0  0  0  0  0
    1.8786    4.8488   -3.2824 H   0  0  0  0  0  0  0  0  0  0  0  0
    1.6162    5.2944   -0.8306 H   0  0  0  0  0  0  0  0  0  0  0  0
    1.5603    3.3921    0.7907 H   0  0  0  0  0  0  0  0  0  0  0  0
    4.1655    1.9602    0.7038 H   0  0  0  0  0  0  0  0  0  0  0  0
    5.7069    2.2090    2.6605 H   0  0  0  0  0  0  0  0  0  0  0  0
    5.0928    1.2123    4.8757 H   0  0  0  0  0  0  0  0  0  0  0  0
    2.9276   -0.0222    5.1396 H   0  0  0  0  0  0  0  0  0  0  0  0
    1.3779   -0.2698    3.1623 H   0  0  0  0  0  0  0  0  0  0  0  0
   -4.2910    1.7248    0.7814 H   0  0  0  0  0  0  0  0  0  0  0  0
   -5.8117    1.8289    2.7628 H   0  0  0  0  0  0  0  0  0  0  0  0
   -5.0864    0.8550    4.9550 H   0  0  0  0  0  0  0  0  0  0  0  0
   -2.8288   -0.2129    5.1671 H   0  0  0  0  0  0  0  0  0  0  0  0
   -1.2946   -0.3080    3.1638 H   0  0  0  0  0  0  0  0  0  0  0  0
   -1.5467    0.7735   -2.4670 H   0  0  0  0  0  0  0  0  0  0  0  0
   -1.6098    2.7889   -3.9537 H   0  0  0  0  0  0  0  0  0  0  0  0
   -1.9106    5.0731   -2.9635 H   0  0  0  0  0  0  0  0  0  0  0  0
   -2.1329    5.3407   -0.4812 H   0  0  0  0  0  0  0  0  0  0  0  0
   -2.0617    3.3334    1.0064 H   0  0  0  0  0  0  0  0  0  0  0  0
  1  7  1  0  0  0  0
  1 20  1  0  0  0  0
  2  7  1  0  0  0  0
  2 26  1  0  0  0  0
  3  5  1  0  0  0  0
  3 10  1  0  0  0  0
  4  6  1  0  0  0  0
  4 13  1  0  0  0  0
  5  1  1  0  0  0  0
  6  2  1  0  0  0  0
  8 40  1  0  0  0  0
  8  3  1  0  0  0  0
  9 41  1  0  0  0  0
  9  3  1  0  0  0  0
 10 44  1  0  0  0  0
 10 45  1  0  0  0  0
 11 47  1  0  0  0  0
 11  4  1  0  0  0  0
 12 50  1  0  0  0  0
 12  4  1  0  0  0  0
 13 53  1  0  0  0  0
 13 55  1  0  0  0  0
 14 19  1  0  0  0  0
 14  1  1  0  0  0  0
 15 14  2  0  0  0  0
 16 17  2  0  0  0  0
 16 15  1  0  0  0  0
 17 18  1  0  0  0  0
 18 59  1  0  0  0  0
 18 19  2  0  0  0  0
 19 60  1  0  0  0  0
 20 25  1  0  0  0  0
 21 20  2  0  0  0  0
 21 22  1  0  0  0  0
 22 23  2  0  0  0  0
 23 24  1  0  0  0  0
 23 63  1  0  0  0  0
 24 64  1  0  0  0  0
 25 65  1  0  0  0  0
 25 24  2  0  0  0  0
 26 31  1  0  0  0  0
 27 26  2  0  0  0  0
 27 28  1  0  0  0  0
 28 29  2  0  0  0  0
 29 30  1  0  0  0  0
 29 68  1  0  0  0  0
 30 69  1  0  0  0  0
 31 70  1  0  0  0  0
 31 30  2  0  0  0  0
 32 37  1  0  0  0  0
 32  2  1  0  0  0  0
 33 32  2  0  0  0  0
 34 35  2  0  0  0  0
 34 33  1  0  0  0  0
 35 36  1  0  0  0  0
 36 74  1  0  0  0  0
 36 37  2  0  0  0  0
 37 75  1  0  0  0  0
 38  8  1  0  0  0  0
 39  8  1  0  0  0  0
 42  9  1  0  0  0  0
 43  9  1  0  0  0  0
 46 10  1  0  0  0  0
 48 11  1  0  0  0  0
 49 11  1  0  0  0  0
 51 12  1  0  0  0  0
 52 12  1  0  0  0  0
 54 13  1  0  0  0  0
 56 15  1  0  0  0  0
 57 16  1  0  0  0  0
 58 17  1  0  0  0  0
 61 21  1  0  0  0  0
 62 22  1  0  0  0  0
 66 27  1  0  0  0  0
 67 28  1  0  0  0  0
 71 33  1  0  0  0  0
 72 34  1  0  0  0  0
 73 35  1  0  0  0  0
M  END
