5,12,24
q = -1.0

 34 34  0  0  0  0  0  0  0  0999 V2000
    3.9484    0.0000    0.0000 C   0  0  0  0  0  0  0  0  0  0  0  0
    3.2477    1.2209    0.1930 C   0  0  0  0  0  0  0  0  0  0  0  0
    3.8212    2.1483    0.3427 H   0  0  0  0  0  0  0  0  0  0  0  0
    1.8482    1.2154    0.2052 C   0  0  0  0  0  0  0  0  0  0  0  0
    1.1653    0.0000   -0.0000 C   0  0  0  0  0  3  0  0  0  0  0  0
    1.8482   -1.2154   -0.2052 C   0  0  0  0  0  0  0  0  0  0  0  0
    3.2477   -1.2209   -0.1930 C   0  0  0  0  0  0  0  0  0  0  0  0
    3.8212   -2.1483   -0.3426 H   0  0  0  0  0  0  0  0  0  0  0  0
    0.9394   -2.3774   -0.5097 C   0  0  0  0  0  0  0  0  0  0  0  0
    1.3130   -3.3555   -0.1298 H   0  0  0  0  0  0  0  0  0  0  0  0
    0.8338   -2.4753   -1.6105 H   0  0  0  0  0  0  0  0  0  0  0  0
   -0.4445   -2.1150    0.0331 N   0  0  0  0  0  0  0  0  0  0  0  0
   -0.5126   -2.4941    1.4656 C   0  0  0  0  0  0  0  0  0  0  0  0
    0.2736   -1.9578    2.0277 H   0  0  0  0  0  0  0  0  0  0  0  0
   -1.5028   -2.2082    1.8656 H   0  0  0  0  0  0  0  0  0  0  0  0
   -0.3649   -3.5930    1.5794 H   0  0  0  0  0  0  0  0  0  0  0  0
   -1.4487   -2.8823   -0.7353 C   0  0  0  0  0  0  0  0  0  0  0  0
   -2.4554   -2.6448   -0.3451 H   0  0  0  0  0  0  0  0  0  0  0  0
   -1.2436   -3.9741   -0.6541 H   0  0  0  0  0  0  0  0  0  0  0  0
   -1.4116   -2.5750   -1.7963 H   0  0  0  0  0  0  0  0  0  0  0  0
    0.9394    2.3774    0.5096 C   0  0  0  0  0  0  0  0  0  0  0  0
    1.3130    3.3555    0.1297 H   0  0  0  0  0  0  0  0  0  0  0  0
    0.8337    2.4754    1.6104 H   0  0  0  0  0  0  0  0  0  0  0  0
   -0.4445    2.1150   -0.0332 N   0  0  0  0  0  0  0  0  0  0  0  0
   -1.4487    2.8822    0.7352 C   0  0  0  0  0  0  0  0  0  0  0  0
   -1.2437    3.9741    0.6541 H   0  0  0  0  0  0  0  0  0  0  0  0
   -2.4554    2.6448    0.3451 H   0  0  0  0  0  0  0  0  0  0  0  0
   -1.4116    2.5749    1.7963 H   0  0  0  0  0  0  0  0  0  0  0  0
   -0.5126    2.4942   -1.4657 C   0  0  0  0  0  0  0  0  0  0  0  0
    0.2736    1.9579   -2.0278 H   0  0  0  0  0  0  0  0  0  0  0  0
   -0.3650    3.5930   -1.5795 H   0  0  0  0  0  0  0  0  0  0  0  0
   -1.5028    2.2082   -1.8657 H   0  0  0  0  0  0  0  0  0  0  0  0
    5.3810    0.0000    0.0001 C   0  0  0  0  0  0  0  0  0  0  0  0
    6.5562   -0.0000    0.0001 N   0  0  0  0  0  0  0  0  0  0  0  0
  1 33  1  0  0  0  0
  1  2  1  0  0  0  0
  2  4  2  0  0  0  0
  2  3  1  0  0  0  0
  4 21  1  0  0  0  0
  5  4  1  0  0  0  0
  6  7  1  0  0  0  0
  6  5  2  0  0  0  0
  7  1  2  0  0  0  0
  8  7  1  0  0  0  0
  9  6  1  0  0  0  0
  9 10  1  0  0  0  0
  9 12  1  0  0  0  0
 11  9  1  0  0  0  0
 12 13  1  0  0  0  0
 13 16  1  0  0  0  0
 13 15  1  0  0  0  0
 13 14  1  0  0  0  0
 17 19  1  0  0  0  0
 17 18  1  0  0  0  0
 17 12  1  0  0  0  0
 20 17  1  0  0  0  0
 21 23  1  0  0  0  0
 22 21  1  0  0  0  0
 24 21  1  0  0  0  0
 24 25  1  0  0  0  0
 25 28  1  0  0  0  0
 26 25  1  0  0  0  0
 27 25  1  0  0  0  0
 29 24  1  0  0  0  0
 30 29  1  0  0  0  0
 31 29  1  0  0  0  0
 32 29  1  0  0  0  0
 33 34  3  0  0  0  0
M  END
