1,2,22
q = -2.0, confidence = 0.732

 62 65  0  0  1  0  0  0  0  0999 V2000
    0.7870   -0.0823    0.2588 N   0  0  0  0  0  2  0  0  0  0  0  0
   -1.4356    1.1625    0.6321 N   0  0  0  0  0  2  0  0  0  0  0  0
    0.9640    1.2011    0.9248 C   0  0  2  0  0  0  0  0  0  0  0  0
    1.4108    1.0640    1.9387 H   0  0  0  0  0  0  0  0  0  0  0  0
   -0.3886    1.8423    1.1383 C   0  0  2  0  0  3  0  0  0  0  0  0
   -0.5613    3.0533    1.8291 C   0  0  0  0  0  0  0  0  0  0  0  0
    0.3163    3.5929    2.2117 H   0  0  0  0  0  0  0  0  0  0  0  0
   -1.8627    3.5370    2.0057 C   0  0  0  0  0  0  0  0  0  0  0  0
   -2.0355    4.4781    2.5496 H   0  0  0  0  0  0  0  0  0  0  0  0
   -2.9490    2.8153    1.4909 C   0  0  0  0  0  0  0  0  0  0  0  0
   -3.9751    3.1822    1.6253 H   0  0  0  0  0  0  0  0  0  0  0  0
   -2.7164    1.6156    0.7945 C   0  0  0  0  0  0  0  0  0  0  0  0
   -3.7497    0.7467    0.1967 C   0  0  0  0  0  0  0  0  0  0  0  0
   -5.1300    1.0265    0.2851 C   0  0  0  0  0  0  0  0  0  0  0  0
   -5.4972    1.9241    0.8068 H   0  0  0  0  0  0  0  0  0  0  0  0
   -6.0542    0.1483   -0.2971 C   0  0  0  0  0  0  0  0  0  0  0  0
   -7.1319    0.3612   -0.2274 H   0  0  0  0  0  0  0  0  0  0  0  0
   -5.6032   -1.0014   -0.9671 C   0  0  0  0  0  0  0  0  0  0  0  0
   -6.3314   -1.6921   -1.4213 H   0  0  0  0  0  0  0  0  0  0  0  0
   -4.2233   -1.2659   -1.0546 C   0  0  0  0  0  0  0  0  0  0  0  0
   -3.8987   -2.1766   -1.5891 H   0  0  0  0  0  0  0  0  0  0  0  0
   -3.2630   -0.4084   -0.4778 C   0  0  0  0  0  3  0  0  0  0  0  0
    1.8641   -1.0003    0.4801 C   0  0  0  0  0  0  0  0  0  0  0  0
    1.9841   -1.6427    1.7552 C   0  0  0  0  0  0  0  0  0  0  0  0
    3.0509   -2.5297    1.9786 C   0  0  0  0  0  0  0  0  0  0  0  0
    3.1442   -3.0237    2.9588 H   0  0  0  0  0  0  0  0  0  0  0  0
    3.9848   -2.8124    0.9737 C   0  0  0  0  0  0  0  0  0  0  0  0
    4.8109   -3.5142    1.1653 H   0  0  0  0  0  0  0  0  0  0  0  0
    3.8516   -2.2031   -0.2770 C   0  0  0  0  0  0  0  0  0  0  0  0
    4.5798   -2.4311   -1.0711 H   0  0  0  0  0  0  0  0  0  0  0  0
    2.8098   -1.2930   -0.5458 C   0  0  0  0  0  0  0  0  0  0  0  0
    0.9680   -1.4166    2.8713 C   0  0  0  0  0  0  0  0  0  0  0  0
    0.1700   -0.7647    2.4589 H   0  0  0  0  0  0  0  0  0  0  0  0
    1.5941   -0.7022    4.0825 C   0  0  0  0  0  0  0  0  0  0  0  0
    2.3773   -1.3307    4.5552 H   0  0  0  0  0  0  0  0  0  0  0  0
    2.0736    0.2563    3.7955 H   0  0  0  0  0  0  0  0  0  0  0  0
    0.8276   -0.4839    4.8546 H   0  0  0  0  0  0  0  0  0  0  0  0
    0.2940   -2.7300    3.3053 C   0  0  0  0  0  0  0  0  0  0  0  0
   -0.1676   -3.2490    2.4434 H   0  0  0  0  0  0  0  0  0  0  0  0
   -0.4988   -2.5322    4.0563 H   0  0  0  0  0  0  0  0  0  0  0  0
    1.0227   -3.4273    3.7677 H   0  0  0  0  0  0  0  0  0  0  0  0
    2.7188   -0.6673   -1.9302 C   0  0  0  0  0  0  0  0  0  0  0  0
    1.8694    0.0422   -1.8998 H   0  0  0  0  0  0  0  0  0  0  0  0
    2.4080   -1.7325   -2.9957 C   0  0  0  0  0  0  0  0  0  0  0  0
    2.2646   -1.2667   -3.9922 H   0  0  0  0  0  0  0  0  0  0  0  0
    1.4848   -2.2946   -2.7480 H   0  0  0  0  0  0  0  0  0  0  0  0
    3.2338   -2.4693   -3.0827 H   0  0  0  0  0  0  0  0  0  0  0  0
    3.9796    0.1337   -2.2890 C   0  0  0  0  0  0  0  0  0  0  0  0
    4.1877    0.9137   -1.5313 H   0  0  0  0  0  0  0  0  0  0  0  0
    3.8536    0.6375   -3.2694 H   0  0  0  0  0  0  0  0  0  0  0  0
    4.8740   -0.5200   -2.3629 H   0  0  0  0  0  0  0  0  0  0  0  0
    1.9093    2.1439    0.1753 C   0  0  0  0  0  0  0  0  0  0  0  0
    3.1615    2.4803    0.7170 C   0  0  0  0  0  0  0  0  0  0  0  0
    3.4531    2.0686    1.6964 H   0  0  0  0  0  0  0  0  0  0  0  0
    4.0413    3.3226    0.0153 C   0  0  0  0  0  0  0  0  0  0  0  0
    5.0215    3.5738    0.4483 H   0  0  0  0  0  0  0  0  0  0  0  0
    3.6728    3.8338   -1.2374 C   0  0  0  0  0  0  0  0  0  0  0  0
    4.3606    4.4910   -1.7906 H   0  0  0  0  0  0  0  0  0  0  0  0
    2.4234    3.4967   -1.7885 C   0  0  0  0  0  0  0  0  0  0  0  0
    2.1309    3.8914   -2.7735 H   0  0  0  0  0  0  0  0  0  0  0  0
    1.5496    2.6570   -1.0868 C   0  0  0  0  0  0  0  0  0  0  0  0
    0.5751    2.3869   -1.5249 H   0  0  0  0  0  0  0  0  0  0  0  0
  1 23  1  0  0  0  0
  1  3  1  0  0  0  0
  2 12  1  0  0  0  0
  2  5  1  0  0  0  0
  3  4  1  1  0  0  0
  5  3  1  1  0  0  0
  5  6  1  0  0  0  0
  6  8  2  0  0  0  0
  6  7  1  0  0  0  0
  8  9  1  0  0  0  0
 10 11  1  0  0  0  0
 10  8  1  0  0  0  0
 12 10  2  0  0  0  0
 13 14  1  0  0  0  0
 13 12  1  0  0  0  0
 14 15  1  0  0  0  0
 16 17  1  0  0  0  0
 16 14  2  0  0  0  0
 18 16  1  0  0  0  0
 19 18  1  0  0  0  0
 20 18  2  0  0  0  0
 20 22  1  0  0  0  0
 21 20  1  0  0  0  0
 22 13  2  0  0  0  0
 23 24  1  0  0  0  0
 24 25  2  0  0  0  0
 24 32  1  0  0  0  0
 25 26  1  0  0  0  0
 27 28  1  0  0  0  0
 27 25  1  0  0  0  0
 29 27  2  0  0  0  0
 30 29  1  0  0  0  0
 31 29  1  0  0  0  0
 31 23  2  0  0  0  0
 32 38  1  0  0  0  0
 32 34  1  0  0  0  0
 33 32  1  0  0  0  0
 34 35  1  0  0  0  0
 34 37  1  0  0  0  0
 36 34  1  0  0  0  0
 38 41  1  0  0  0  0
 38 40  1  0  0  0  0
 39 38  1  0  0  0  0
 42 43  1  0  0  0  0
 42 31  1  0  0  0  0
 44 46  1  0  0  0  0
 44 42  1  0  0  0  0
 45 44  1  0  0  0  0
 47 44  1  0  0  0  0
 48 42  1  0  0  0  0
 48 49  1  0  0  0  0
 50 48  1  0  0  0  0
 51 48  1  0  0  0  0
 52 53  1  0  0  0  0
 52  3  1  0  0  0  0
 53 54  1  0  0  0  0
 55 56  1  0  0  0  0
 55 53  2  0  0  0  0
 57 55  1  0  0  0  0
 58 57  1  0  0  0  0
 59 57  2  0  0  0  0
 59 61  1  0  0  0  0
 60 59  1  0  0  0  0
 61 52  2  0  0  0  0
 62 61  1  0  0  0  0
M  END
