26,73,74
q = -1.0, confidence = 0.156

 75 79  0  0  1  0  0  0  0  0999 V2000
    5.4027   -3.0336   -0.0033 C   0  0  0  0  0  0  0  0  0  0  0  0
    6.4024   -2.5803    0.1120 H   0  0  0  0  0  0  0  0  0  0  0  0
    5.1872   -4.4127   -0.0986 C   0  0  0  0  0  0  0  0  0  0  0  0
    6.0404   -5.1047   -0.0598 H   0  0  0  0  0  0  0  0  0  0  0  0
    3.8709   -4.8811   -0.2430 C   0  0  0  0  0  0  0  0  0  0  0  0
    3.6651   -5.9589   -0.3212 H   0  0  0  0  0  0  0  0  0  0  0  0
    2.8172   -3.9604   -0.2869 C   0  0  0  0  0  0  0  0  0  0  0  0
    1.7799   -4.3041   -0.3989 H   0  0  0  0  0  0  0  0  0  0  0  0
    3.0952   -2.5855   -0.1866 C   0  0  0  0  0  0  0  0  0  0  0  0
    2.0678   -1.5216   -0.2194 C   0  0  0  0  0  0  0  0  0  0  0  0
    0.6857   -1.7054   -0.3506 C   0  0  0  0  0  0  0  0  0  0  0  0
    0.2797   -2.7182   -0.4694 H   0  0  0  0  0  0  0  0  0  0  0  0
   -0.1831   -0.5861   -0.3674 C   0  0  0  0  0  0  0  0  0  0  0  0
    0.3994    0.6997   -0.2502 C   0  0  0  0  0  0  0  0  0  0  0  0
   -0.2391    1.5924   -0.2211 H   0  0  0  0  0  0  0  0  0  0  0  0
    1.7856    0.8593   -0.1281 C   0  0  0  0  0  0  0  0  0  0  0  0
    2.5653    2.0939    0.0047 C   0  0  2  0  0  3  0  0  0  0  0  0
    1.9983    3.3851    0.0100 C   0  0  0  0  0  0  0  0  0  0  0  0
    0.9093    3.5144   -0.0932 H   0  0  0  0  0  0  0  0  0  0  0  0
    2.8217    4.5093    0.1421 C   0  0  0  0  0  0  0  0  0  0  0  0
    2.3801    5.5172    0.1457 H   0  0  0  0  0  0  0  0  0  0  0  0
    4.2145    4.3441    0.2685 C   0  0  0  0  0  0  0  0  0  0  0  0
    4.8596    5.2312    0.3723 H   0  0  0  0  0  0  0  0  0  0  0  0
    4.7926    3.0641    0.2615 C   0  0  0  0  0  0  0  0  0  0  0  0
    5.8817    2.9401    0.3580 H   0  0  0  0  0  0  0  0  0  0  0  0
    3.9902    1.9149    0.1295 C   0  0  0  0  0  2  0  0  0  0  0  0
   -1.6432   -0.7461   -0.4969 C   0  0  0  0  0  0  0  0  0  0  0  0
   -2.3172   -1.9129   -0.0604 C   0  0  0  0  0  0  0  0  0  0  0  0
   -1.7434   -2.7376    0.3888 H   0  0  0  0  0  0  0  0  0  0  0  0
   -3.7027   -2.0416   -0.1397 C   0  0  0  0  0  0  0  0  0  0  0  0
   -4.1791   -2.9636    0.2195 H   0  0  0  0  0  0  0  0  0  0  0  0
   -4.5098   -0.9938   -0.6648 C   0  0  0  0  0  0  0  0  0  0  0  0
   -3.8326    0.1614   -1.1461 C   0  0  0  0  0  0  0  0  0  0  0  0
   -4.3903    0.9894   -1.6005 H   0  0  0  0  0  0  0  0  0  0  0  0
   -2.4456    0.2730   -1.0577 C   0  0  0  0  0  0  0  0  0  0  0  0
   -1.9713    1.1806   -1.4596 H   0  0  0  0  0  0  0  0  0  0  0  0
   -6.5955   -2.1065    0.0065 C   0  0  0  0  0  0  0  0  0  0  0  0
   -6.4618   -2.1928    1.4081 C   0  0  0  0  0  0  0  0  0  0  0  0
   -5.7845   -1.4974    1.9256 H   0  0  0  0  0  0  0  0  0  0  0  0
   -7.1846   -3.1550    2.1266 C   0  0  0  0  0  0  0  0  0  0  0  0
   -7.0738   -3.2137    3.2201 H   0  0  0  0  0  0  0  0  0  0  0  0
   -8.0593   -4.0286    1.4594 C   0  0  0  0  0  0  0  0  0  0  0  0
   -8.6300   -4.7790    2.0266 H   0  0  0  0  0  0  0  0  0  0  0  0
   -8.2019   -3.9390    0.0657 C   0  0  0  0  0  0  0  0  0  0  0  0
   -8.8810   -4.6234   -0.4650 H   0  0  0  0  0  0  0  0  0  0  0  0
   -7.4685   -2.9887   -0.6597 C   0  0  0  0  0  0  0  0  0  0  0  0
   -7.5587   -2.9257   -1.7546 H   0  0  0  0  0  0  0  0  0  0  0  0
   -6.6921    0.0117   -1.2410 C   0  0  0  0  0  0  0  0  0  0  0  0
   -7.6915   -0.3806   -1.5143 H   0  0  0  0  0  0  0  0  0  0  0  0
   -6.2376    0.3786   -2.1856 H   0  0  0  0  0  0  0  0  0  0  0  0
   -6.8160    1.1604   -0.2260 C   0  0  0  0  0  0  0  0  0  0  0  0
   -7.5233    0.8683    0.5804 H   0  0  0  0  0  0  0  0  0  0  0  0
   -5.8295    1.2815    0.2674 H   0  0  0  0  0  0  0  0  0  0  0  0
   -7.2328    2.4915   -0.8544 C   0  0  0  0  0  0  0  0  0  0  0  0
   -6.5430    2.7169   -1.6991 H   0  0  0  0  0  0  0  0  0  0  0  0
   -8.2397    2.3947   -1.3163 H   0  0  0  0  0  0  0  0  0  0  0  0
   -7.2396    3.6746    0.1281 C   0  0  0  0  0  0  0  0  0  0  0  0
   -7.4945    4.5988   -0.4353 H   0  0  0  0  0  0  0  0  0  0  0  0
   -8.0614    3.5322    0.8636 H   0  0  0  0  0  0  0  0  0  0  0  0
   -5.9271    3.8951    0.8987 C   0  0  0  0  0  0  0  0  0  0  0  0
   -6.0463    4.7843    1.5554 H   0  0  0  0  0  0  0  0  0  0  0  0
   -5.7542    3.0437    1.5942 H   0  0  0  0  0  0  0  0  0  0  0  0
   -4.6800    4.0803    0.0279 C   0  0  0  0  0  0  0  0  0  0  0  0
   -4.5581    3.2053   -0.6486 H   0  0  0  0  0  0  0  0  0  0  0  0
   -4.8191    4.9589   -0.6425 H   0  0  0  0  0  0  0  0  0  0  0  0
   -3.3896    4.2461    0.8372 C   0  0  0  0  0  0  0  0  0  0  0  0
   -3.2692    3.3637    1.5044 H   0  0  0  0  0  0  0  0  0  0  0  0
   -3.4908    5.1225    1.5152 H   0  0  0  0  0  0  0  0  0  0  0  0
   -2.1384    4.4058   -0.0271 C   0  0  0  0  0  0  0  0  0  0  0  0
   -1.9927    3.5250   -0.6882 H   0  0  0  0  0  0  0  0  0  0  0  0
   -1.2243    4.5158    0.5910 H   0  0  0  0  0  0  0  0  0  0  0  0
   -2.2068    5.2979   -0.6840 H   0  0  0  0  0  0  0  0  0  0  0  0
    4.3885   -2.1496   -0.0465 N   0  0  0  0  0  2  0  0  0  0  0  0
    2.5781   -0.2613   -0.1133 N   0  0  0  0  0  2  0  0  0  0  0  0
   -5.8939   -1.1092   -0.7377 N   0  0  0  0  0  0  0  0  0  0  0  0
  1  2  1  0  0  0  0
  3  4  1  0  0  0  0
  3  1  2  0  0  0  0
  5  3  1  0  0  0  0
  6  5  1  0  0  0  0
  7  5  2  0  0  0  0
  7  9  1  0  0  0  0
  8  7  1  0  0  0  0
  9 73  1  0  0  0  0
 10  9  2  0  0  0  0
 10 74  1  0  0  0  0
 11 10  1  0  0  0  0
 12 11  1  0  0  0  0
 13 11  2  0  0  0  0
 13 14  1  0  0  0  0
 14 15  1  0  0  0  0
 14 16  2  0  0  0  0
 16 74  1  0  0  0  0
 17 16  1  6  0  0  0
 17 18  1  0  0  0  0
 17 26  1  0  0  0  0
 18 20  2  0  0  0  0
 19 18  1  0  0  0  0
 20 21  1  0  0  0  0
 20 22  1  0  0  0  0
 22 23  1  0  0  0  0
 24 22  2  0  0  0  0
 24 25  1  0  0  0  0
 26 24  1  0  0  0  0
 27 13  1  0  0  0  0
 27 28  1  0  0  0  0
 28 29  1  0  0  0  0
 30 28  2  0  0  0  0
 30 31  1  0  0  0  0
 32 30  1  0  0  0  0
 33 35  1  0  0  0  0
 33 32  2  0  0  0  0
 34 33  1  0  0  0  0
 35 27  2  0  0  0  0
 36 35  1  0  0  0  0
 37 38  1  0  0  0  0
 38 39  1  0  0  0  0
 38 40  2  0  0  0  0
 40 41  1  0  0  0  0
 42 43  1  0  0  0  0
 42 40  1  0  0  0  0
 44 42  2  0  0  0  0
 45 44  1  0  0  0  0
 46 37  2  0  0  0  0
 46 44  1  0  0  0  0
 47 46  1  0  0  0  0
 48 75  1  0  0  0  0
 48 51  1  0  0  0  0
 49 48  1  0  0  0  0
 50 48  1  0  0  0  0
 51 53  1  0  0  0  0
 51 52  1  0  0  0  0
 54 51  1  0  0  0  0
 54 57  1  0  0  0  0
 55 54  1  0  0  0  0
 56 54  1  0  0  0  0
 57 59  1  0  0  0  0
 57 60  1  0  0  0  0
 58 57  1  0  0  0  0
 60 61  1  0  0  0  0
 60 62  1  0  0  0  0
 63 66  1  0  0  0  0
 63 60  1  0  0  0  0
 64 63  1  0  0  0  0
 65 63  1  0  0  0  0
 66 67  1  0  0  0  0
 66 68  1  0  0  0  0
 69 71  1  0  0  0  0
 69 66  1  0  0  0  0
 70 69  1  0  0  0  0
 72 69  1  0  0  0  0
 73  1  1  0  0  0  0
 75 32  1  0  0  0  0
 75 37  1  0  0  0  0
M  END
