1,2,20
q = -1.0, confidence = 0.004

 29 31  0  0  1  0  0  0  0  0999 V2000
   -0.0000   -0.4305    2.0452 N   0  0  0  0  0  2  0  0  0  0  0  0
    0.0000   -0.4300   -2.0452 N   0  0  0  0  0  2  0  0  0  0  0  0
    0.0000    0.5008   -3.0338 C   0  0  0  0  0  3  0  0  0  0  0  0
    0.0001    1.5498   -2.7030 H   0  0  0  0  0  0  0  0  0  0  0  0
    0.0000    0.1649   -4.3868 C   0  0  0  0  0  0  0  0  0  0  0  0
    0.0000    0.9616   -5.1435 H   0  0  0  0  0  0  0  0  0  0  0  0
   -0.0000   -1.1949   -4.7486 C   0  0  0  0  0  0  0  0  0  0  0  0
   -0.0001   -1.4941   -5.8068 H   0  0  0  0  0  0  0  0  0  0  0  0
   -0.0000   -2.1607   -3.7404 C   0  0  0  0  0  0  0  0  0  0  0  0
   -0.0001   -3.2310   -3.9894 H   0  0  0  0  0  0  0  0  0  0  0  0
   -0.0000   -1.7812   -2.3846 C   0  0  0  0  0  0  0  0  0  0  0  0
   -0.0000   -2.6833   -1.2380 C   0  0  0  0  0  0  0  0  0  0  0  0
   -0.0001   -4.0925   -1.2286 C   0  0  0  0  0  0  0  0  0  0  0  0
   -0.0001   -4.6677   -2.1678 H   0  0  0  0  0  0  0  0  0  0  0  0
   -0.0001   -4.7830   -0.0006 C   0  0  0  0  0  0  0  0  0  0  0  0
   -0.0001   -5.8825   -0.0007 H   0  0  0  0  0  0  0  0  0  0  0  0
   -0.0001   -4.0928    1.2277 C   0  0  0  0  0  0  0  0  0  0  0  0
   -0.0001   -4.6682    2.1667 H   0  0  0  0  0  0  0  0  0  0  0  0
   -0.0000   -2.6836    1.2374 C   0  0  0  0  0  0  0  0  0  0  0  0
   -0.0000   -1.9769   -0.0002 C   0  0  0  0  0  3  0  0  0  0  0  0
   -0.0000   -1.7818    2.3842 C   0  0  2  0  0  3  0  0  0  0  0  0
   -0.0000   -2.1616    3.7400 C   0  0  0  0  0  0  0  0  0  0  0  0
   -0.0000   -3.2320    3.9887 H   0  0  0  0  0  0  0  0  0  0  0  0
    0.0000   -1.1960    4.7484 C   0  0  0  0  0  0  0  0  0  0  0  0
    0.0000   -1.4955    5.8065 H   0  0  0  0  0  0  0  0  0  0  0  0
    0.0000    0.1639    4.3869 C   0  0  0  0  0  0  0  0  0  0  0  0
    0.0000    0.9604    5.1438 H   0  0  0  0  0  0  0  0  0  0  0  0
   -0.0000    0.5001    3.0340 C   0  0  0  0  0  0  0  0  0  0  0  0
   -0.0000    1.5492    2.7034 H   0  0  0  0  0  0  0  0  0  0  0  0
  1 21  1  0  0  0  0
  1 28  1  0  0  0  0
  3  4  1  0  0  0  0
  3  2  1  0  0  0  0
  5  3  1  0  0  0  0
  6  5  1  0  0  0  0
  7  5  2  0  0  0  0
  7  9  1  0  0  0  0
  8  7  1  0  0  0  0
  9 11  2  0  0  0  0
 10  9  1  0  0  0  0
 11  2  1  0  0  0  0
 11 12  1  0  0  0  0
 12 13  2  0  0  0  0
 12 20  1  0  0  0  0
 13 15  1  0  0  0  0
 14 13  1  0  0  0  0
 15 17  2  0  0  0  0
 16 15  1  0  0  0  0
 17 19  1  0  0  0  0
 17 18  1  0  0  0  0
 20 19  2  0  0  0  0
 21 19  1  1  0  0  0
 21 22  1  0  0  0  0
 22 23  1  0  0  0  0
 22 24  2  0  0  0  0
 24 25  1  0  0  0  0
 26 24  1  0  0  0  0
 26 27  1  0  0  0  0
 28 26  2  0  0  0  0
 29 28  1  0  0  0  0
M  END
