2,3,4
q = 0.0, confidence = 0.998

 48 49  0  0  1  0  0  0  0  0999 V2000
    2.0104    2.8538    3.0750 O   0  0  0  0  0  0  0  0  0  0  0  0
   -0.5891   -1.7191    1.2296 N   0  0  0  0  0  0  0  0  0  0  0  0
   -1.3124    1.6359   -1.3003 N   0  0  0  0  0  0  0  0  0  0  0  0
    1.0431    0.2997   -0.1259 C   0  0  1  0  0  3  0  0  0  0  0  0
    1.2564   -0.1758    1.2385 C   0  0  1  0  0  3  0  0  0  0  0  0
    1.5675    0.6846    2.2807 C   0  0  0  0  0  0  0  0  0  0  0  0
    1.6259    2.0842    2.0524 C   0  0  0  0  0  0  0  0  0  0  0  0
    1.1593    2.6029    0.8188 C   0  0  0  0  0  0  0  0  0  0  0  0
    0.8484    1.7408   -0.2317 C   0  0  0  0  0  0  0  0  0  0  0  0
    0.9087   -1.6238    1.4595 C   0  0  0  0  0  0  0  0  0  0  0  0
   -0.9439   -3.0387    0.6430 C   0  0  0  0  0  0  0  0  0  0  0  0
   -1.3153   -1.5173    2.5143 C   0  0  0  0  0  0  0  0  0  0  0  0
    0.0855    2.2055   -1.4468 C   0  0  0  0  0  0  0  0  0  0  0  0
   -1.8872    1.3089   -2.6326 C   0  0  0  0  0  0  0  0  0  0  0  0
   -2.1903    2.6023   -0.5851 C   0  0  0  0  0  0  0  0  0  0  0  0
    1.6362   -0.5068   -1.2979 C   0  0  0  0  0  0  0  0  0  0  0  0
    3.1379   -0.6632   -1.1422 C   0  0  0  0  0  0  0  0  0  0  0  0
    3.7200   -1.9448   -1.0977 C   0  0  0  0  0  0  0  0  0  0  0  0
    5.1061   -2.0974   -0.9351 C   0  0  0  0  0  0  0  0  0  0  0  0
    5.9267   -0.9668   -0.8102 C   0  0  0  0  0  0  0  0  0  0  0  0
    3.9721    0.4663   -1.0153 C   0  0  0  0  0  0  0  0  0  0  0  0
    5.3563    0.3163   -0.8530 C   0  0  0  0  0  0  0  0  0  0  0  0
    1.9886    3.7995    2.8261 H   0  0  0  0  0  0  0  0  0  0  0  0
    1.7370    0.3117    3.3013 H   0  0  0  0  0  0  0  0  0  0  0  0
    0.9978    3.6874    0.7069 H   0  0  0  0  0  0  0  0  0  0  0  0
    1.1567   -1.9843    2.4771 H   0  0  0  0  0  0  0  0  0  0  0  0
    1.4223   -2.2776    0.7305 H   0  0  0  0  0  0  0  0  0  0  0  0
   -0.6174   -3.8510    1.3264 H   0  0  0  0  0  0  0  0  0  0  0  0
   -0.4462   -3.1523   -0.3374 H   0  0  0  0  0  0  0  0  0  0  0  0
   -2.0374   -3.0806    0.4927 H   0  0  0  0  0  0  0  0  0  0  0  0
   -2.4006   -1.5003    2.3087 H   0  0  0  0  0  0  0  0  0  0  0  0
   -1.0186   -0.5486    2.9562 H   0  0  0  0  0  0  0  0  0  0  0  0
   -1.0703   -2.3421    3.2171 H   0  0  0  0  0  0  0  0  0  0  0  0
    0.0363    3.3088   -1.5386 H   0  0  0  0  0  0  0  0  0  0  0  0
    0.5227    1.8048   -2.3805 H   0  0  0  0  0  0  0  0  0  0  0  0
   -2.9003    0.8924   -2.4902 H   0  0  0  0  0  0  0  0  0  0  0  0
   -1.2573    0.5477   -3.1277 H   0  0  0  0  0  0  0  0  0  0  0  0
   -1.9317    2.2268   -3.2565 H   0  0  0  0  0  0  0  0  0  0  0  0
   -2.3128    3.5223   -1.1958 H   0  0  0  0  0  0  0  0  0  0  0  0
   -1.7392    2.8563    0.3916 H   0  0  0  0  0  0  0  0  0  0  0  0
   -3.1719    2.1259   -0.4112 H   0  0  0  0  0  0  0  0  0  0  0  0
    1.1644   -1.5047   -1.3776 H   0  0  0  0  0  0  0  0  0  0  0  0
    1.3951    0.0036   -2.2517 H   0  0  0  0  0  0  0  0  0  0  0  0
    3.0824   -2.8370   -1.2113 H   0  0  0  0  0  0  0  0  0  0  0  0
    5.5464   -3.1054   -0.9103 H   0  0  0  0  0  0  0  0  0  0  0  0
    7.0131   -1.0839   -0.6831 H   0  0  0  0  0  0  0  0  0  0  0  0
    3.5353    1.4774   -1.0470 H   0  0  0  0  0  0  0  0  0  0  0  0
    5.9969    1.2064   -0.7624 H   0  0  0  0  0  0  0  0  0  0  0  0
  2 10  1  0  0  0  0
  2 12  1  0  0  0  0
  3 15  1  0  0  0  0
  4 16  1  6  0  0  0
  4  5  1  0  0  0  0
  5 10  1  1  0  0  0
  5  6  1  0  0  0  0
  6 24  1  0  0  0  0
  7  6  2  0  0  0  0
  7  1  1  0  0  0  0
  8  7  1  0  0  0  0
  9  4  1  0  0  0  0
  9  8  2  0  0  0  0
 10 26  1  0  0  0  0
 11  2  1  0  0  0  0
 11 28  1  0  0  0  0
 12 32  1  0  0  0  0
 12 33  1  0  0  0  0
 13  3  1  0  0  0  0
 13  9  1  0  0  0  0
 14 36  1  0  0  0  0
 14  3  1  0  0  0  0
 15 41  1  0  0  0  0
 15 40  1  0  0  0  0
 16 17  1  0  0  0  0
 17 18  2  0  0  0  0
 17 21  1  0  0  0  0
 18 19  1  0  0  0  0
 19 45  1  0  0  0  0
 19 20  2  0  0  0  0
 20 46  1  0  0  0  0
 21 22  2  0  0  0  0
 22 20  1  0  0  0  0
 22 48  1  0  0  0  0
 23  1  1  0  0  0  0
 25  8  1  0  0  0  0
 27 10  1  0  0  0  0
 29 11  1  0  0  0  0
 30 11  1  0  0  0  0
 31 12  1  0  0  0  0
 34 13  1  0  0  0  0
 35 13  1  0  0  0  0
 37 14  1  0  0  0  0
 38 14  1  0  0  0  0
 39 15  1  0  0  0  0
 42 16  1  0  0  0  0
 43 16  1  0  0  0  0
 44 18  1  0  0  0  0
 47 21  1  0  0  0  0
M  END
