5,6,8
q = -1.0

 46 47  0  0  0  0  0  0  0  0999 V2000
    4.7557    1.6393   -0.2779 O   0  0  0  0  0  0  0  0  0  0  0  0
    4.8273   -0.6234    0.1107 O   0  0  0  0  0  0  0  0  0  0  0  0
    6.4109    0.0763    2.3367 O   0  0  0  0  0  0  0  0  0  0  0  0
    6.4232   -0.7025   -2.2133 O   0  0  0  0  0  0  0  0  0  0  0  0
   -1.8825    2.1351   -0.0342 N   0  0  0  0  0  0  0  0  0  0  0  0
   -1.5179   -2.0740    0.0167 N   0  0  0  0  0  0  0  0  0  0  0  0
    6.1821   -0.4714    0.0882 N   0  0  0  0  0  0  0  0  0  0  0  0
   -0.0791    0.1703   -0.0309 C   0  0  0  0  0  3  0  0  0  0  0  0
    0.4951    1.4357   -0.2769 C   0  0  0  0  0  0  0  0  0  0  0  0
    1.8857    1.5572   -0.2824 C   0  0  0  0  0  0  0  0  0  0  0  0
    2.3936    2.5171   -0.4631 H   0  0  0  0  0  0  0  0  0  0  0  0
    2.6906    0.4080   -0.0688 C   0  0  0  0  0  0  0  0  0  0  0  0
    2.1030   -0.8629    0.1640 C   0  0  0  0  0  0  0  0  0  0  0  0
    2.7538   -1.7330    0.3309 H   0  0  0  0  0  0  0  0  0  0  0  0
    0.7104   -0.9767    0.1960 C   0  0  0  0  0  0  0  0  0  0  0  0
   -0.5217    2.4964   -0.6078 C   0  0  0  0  0  0  0  0  0  0  0  0
   -0.6538    2.5429   -1.7088 H   0  0  0  0  0  0  0  0  0  0  0  0
   -0.2411    3.5166   -0.2652 H   0  0  0  0  0  0  0  0  0  0  0  0
   -2.9387    2.8087   -0.8282 C   0  0  0  0  0  0  0  0  0  0  0  0
   -3.9259    2.5612   -0.3977 H   0  0  0  0  0  0  0  0  0  0  0  0
   -2.9109    2.4314   -1.8663 H   0  0  0  0  0  0  0  0  0  0  0  0
   -2.7736    3.9090   -0.8194 H   0  0  0  0  0  0  0  0  0  0  0  0
   -1.9648    2.5834    1.3822 C   0  0  0  0  0  0  0  0  0  0  0  0
   -1.8997    3.6935    1.4317 H   0  0  0  0  0  0  0  0  0  0  0  0
   -1.1334    2.1366    1.9562 H   0  0  0  0  0  0  0  0  0  0  0  0
   -2.9256    2.2427    1.8093 H   0  0  0  0  0  0  0  0  0  0  0  0
   -0.1002   -2.1952    0.5521 C   0  0  0  0  0  0  0  0  0  0  0  0
   -0.1923   -2.2616    1.6561 H   0  0  0  0  0  0  0  0  0  0  0  0
    0.3415   -3.1530    0.1991 H   0  0  0  0  0  0  0  0  0  0  0  0
   -1.5603   -2.5305   -1.3988 C   0  0  0  0  0  0  0  0  0  0  0  0
   -1.3089   -3.6133   -1.4546 H   0  0  0  0  0  0  0  0  0  0  0  0
   -0.8323   -1.9491   -1.9926 H   0  0  0  0  0  0  0  0  0  0  0  0
   -2.5760   -2.3581   -1.7992 H   0  0  0  0  0  0  0  0  0  0  0  0
   -2.4207   -2.9187    0.8358 C   0  0  0  0  0  0  0  0  0  0  0  0
   -3.4470   -2.8442    0.4330 H   0  0  0  0  0  0  0  0  0  0  0  0
   -2.4297   -2.5421    1.8744 H   0  0  0  0  0  0  0  0  0  0  0  0
   -2.0697   -3.9743    0.8175 H   0  0  0  0  0  0  0  0  0  0  0  0
    4.1493    0.6072   -0.1012 C   0  0  0  0  0  0  0  0  0  0  0  0
    6.8960   -0.0959    1.2406 C   0  0  0  0  0  0  0  0  0  0  0  0
    8.3486    0.0279    0.7895 C   0  0  0  0  0  0  0  0  0  0  0  0
    8.9605   -0.6947    1.3655 H   0  0  0  0  0  0  0  0  0  0  0  0
    8.7052    1.0395    1.0670 H   0  0  0  0  0  0  0  0  0  0  0  0
    8.3523   -0.2294   -0.7282 C   0  0  0  0  0  0  0  0  0  0  0  0
    8.7081    0.6359   -1.3216 H   0  0  0  0  0  0  0  0  0  0  0  0
    8.9688   -1.0989   -1.0318 H   0  0  0  0  0  0  0  0  0  0  0  0
    6.9022   -0.4994   -1.1198 C   0  0  0  0  0  0  0  0  0  0  0  0
  1 38  2  0  0  0  0
  4 46  2  0  0  0  0
  5 23  1  0  0  0  0
  6 27  1  0  0  0  0
  6 34  1  0  0  0  0
  7  2  1  0  0  0  0
  7 39  1  0  0  0  0
  8 15  1  0  0  0  0
  9  8  2  0  0  0  0
 10  9  1  0  0  0  0
 10 12  2  0  0  0  0
 11 10  1  0  0  0  0
 12 13  1  0  0  0  0
 13 15  2  0  0  0  0
 13 14  1  0  0  0  0
 15 27  1  0  0  0  0
 16  9  1  0  0  0  0
 16 18  1  0  0  0  0
 16  5  1  0  0  0  0
 17 16  1  0  0  0  0
 19 22  1  0  0  0  0
 19 20  1  0  0  0  0
 19  5  1  0  0  0  0
 21 19  1  0  0  0  0
 23 24  1  0  0  0  0
 23 26  1  0  0  0  0
 23 25  1  0  0  0  0
 27 28  1  0  0  0  0
 29 27  1  0  0  0  0
 30  6  1  0  0  0  0
 31 30  1  0  0  0  0
 32 30  1  0  0  0  0
 33 30  1  0  0  0  0
 34 36  1  0  0  0  0
 35 34  1  0  0  0  0
 37 34  1  0  0  0  0
 38 12  1  0  0  0  0
 38  2  1  0  0  0  0
 39  3  2  0  0  0  0
 40 42  1  0  0  0  0
 40 39  1  0  0  0  0
 40 41  1  0  0  0  0
 43 40  1  0  0  0  0
 44 43  1  0  0  0  0
 45 43  1  0  0  0  0
 46 43  1  0  0  0  0
 46  7  1  0  0  0  0
M  END
