1,2,3
q = -1.0

 39 42  0  0  0  0  0  0  0  0999 V2000
    1.5184    1.1273    0.1331 N   0  0  0  0  0  2  0  0  0  0  0  0
   -1.1324    1.2488   -0.0053 N   0  0  0  0  0  2  0  0  0  0  0  0
    2.0796   -1.4066   -0.1380 C   0  0  0  0  0  2  0  0  0  0  0  0
    2.3253   -2.7819   -0.2863 C   0  0  0  0  0  3  0  0  0  0  0  0
    3.6349   -3.2819   -0.1873 C   0  0  0  0  0  0  0  0  0  0  0  0
    4.7228   -2.4237    0.0597 C   0  0  0  0  0  0  0  0  0  0  0  0
    4.5011   -1.0508    0.2062 C   0  0  0  0  0  0  0  0  0  0  0  0
    3.1911   -0.5328    0.1092 C   0  0  0  0  0  0  0  0  0  0  0  0
    2.8632    0.8857    0.2262 C   0  0  0  0  0  0  0  0  0  0  0  0
    3.7420    1.9742    0.3848 C   0  0  0  0  0  0  0  0  0  0  0  0
    3.2275    3.2767    0.4154 C   0  0  0  0  0  0  0  0  0  0  0  0
    1.8485    3.4925    0.2729 C   0  0  0  0  0  0  0  0  0  0  0  0
    1.0002    2.3803    0.1247 C   0  0  0  0  0  0  0  0  0  0  0  0
   -0.4683    2.4423   -0.0531 C   0  0  0  0  0  0  0  0  0  0  0  0
   -1.1426    3.6546   -0.2815 C   0  0  0  0  0  0  0  0  0  0  0  0
   -2.5297    3.6346   -0.4664 C   0  0  0  0  0  0  0  0  0  0  0  0
   -3.2088    2.4190   -0.3594 C   0  0  0  0  0  0  0  0  0  0  0  0
   -2.4862    1.2333   -0.0928 C   0  0  0  0  0  0  0  0  0  0  0  0
   -3.2110   -0.0272    0.1806 C   0  0  0  0  0  0  0  0  0  0  0  0
   -2.8303   -0.8279    1.2774 C   0  0  0  0  0  0  0  0  0  0  0  0
   -3.5528   -1.9840    1.5915 C   0  0  0  0  0  0  0  0  0  0  0  0
   -4.6479   -2.3663    0.8023 C   0  0  0  0  0  0  0  0  0  0  0  0
   -5.0273   -1.5811   -0.2985 C   0  0  0  0  0  0  0  0  0  0  0  0
   -4.3207   -0.4106   -0.6013 C   0  0  0  0  0  0  0  0  0  0  0  0
    1.4769   -3.4524   -0.4850 H   0  0  0  0  0  0  0  0  0  0  0  0
    3.8103   -4.3631   -0.3065 H   0  0  0  0  0  0  0  0  0  0  0  0
    5.7430   -2.8286    0.1366 H   0  0  0  0  0  0  0  0  0  0  0  0
    5.3506   -0.3768    0.3992 H   0  0  0  0  0  0  0  0  0  0  0  0
    4.8220    1.7943    0.4729 H   0  0  0  0  0  0  0  0  0  0  0  0
    3.9057    4.1334    0.5418 H   0  0  0  0  0  0  0  0  0  0  0  0
    1.4389    4.5108    0.2858 H   0  0  0  0  0  0  0  0  0  0  0  0
   -0.5853    4.5989   -0.3328 H   0  0  0  0  0  0  0  0  0  0  0  0
   -3.0785    4.5670   -0.6654 H   0  0  0  0  0  0  0  0  0  0  0  0
   -4.3039    2.3717   -0.4336 H   0  0  0  0  0  0  0  0  0  0  0  0
   -1.9612   -0.5336    1.8833 H   0  0  0  0  0  0  0  0  0  0  0  0
   -3.2458   -2.6013    2.4486 H   0  0  0  0  0  0  0  0  0  0  0  0
   -5.2056   -3.2847    1.0409 H   0  0  0  0  0  0  0  0  0  0  0  0
   -5.8749   -1.8871   -0.9299 H   0  0  0  0  0  0  0  0  0  0  0  0
   -4.6075    0.1940   -1.4754 H   0  0  0  0  0  0  0  0  0  0  0  0
  1  9  1  0  0  0  0
  3  8  1  0  0  0  0
  4  5  1  0  0  0  0
  4  3  1  0  0  0  0
  5  6  2  0  0  0  0
  6 27  1  0  0  0  0
  6  7  1  0  0  0  0
  7 28  1  0  0  0  0
  8  7  2  0  0  0  0
  8  9  1  0  0  0  0
  9 10  2  0  0  0  0
 10 11  1  0  0  0  0
 10 29  1  0  0  0  0
 11 30  1  0  0  0  0
 12 31  1  0  0  0  0
 12 11  2  0  0  0  0
 13  1  1  0  0  0  0
 13 12  1  0  0  0  0
 14  2  1  0  0  0  0
 14 13  2  0  0  0  0
 15 14  1  0  0  0  0
 16 17  1  0  0  0  0
 16 15  2  0  0  0  0
 17 18  2  0  0  0  0
 18  2  1  0  0  0  0
 18 19  1  0  0  0  0
 19 20  1  0  0  0  0
 20 21  2  0  0  0  0
 20 35  1  0  0  0  0
 21 36  1  0  0  0  0
 22 37  1  0  0  0  0
 22 21  1  0  0  0  0
 23 22  2  0  0  0  0
 24 23  1  0  0  0  0
 24 19  2  0  0  0  0
 25  4  1  0  0  0  0
 26  5  1  0  0  0  0
 32 15  1  0  0  0  0
 33 16  1  0  0  0  0
 34 17  1  0  0  0  0
 38 23  1  0  0  0  0
 39 24  1  0  0  0  0
M  END
