1,2,4
q = -1.0

 61 61  0  0  1  0  0  0  0  0999 V2000
   -0.9836   -0.9046    0.4557 N   0  0  0  0  0  2  0  0  0  0  0  0
    1.6281    0.3309    0.4621 N   0  0  0  0  0  2  0  0  0  0  0  0
   -1.3881    0.3663    0.5873 C   0  0  1  0  0  3  0  0  0  0  0  0
   -0.4585    1.4522    0.3268 C   0  0  0  0  0  3  0  0  0  0  0  0
   -0.9258    2.4041    0.0643 H   0  0  0  0  0  0  0  0  0  0  0  0
    0.9489    1.4803    0.5670 C   0  0  2  0  0  3  0  0  0  0  0  0
   -1.5145   -2.3512    1.3848 Si  0  0  0  0  0  0  0  0  0  0  0  0
    0.0279   -3.3322    1.8370 C   0  0  0  0  0  0  0  0  0  0  0  0
    0.7743   -2.7046    2.3622 H   0  0  0  0  0  0  0  0  0  0  0  0
    0.4965   -3.7587    0.9290 H   0  0  0  0  0  0  0  0  0  0  0  0
   -0.2532   -4.1693    2.5090 H   0  0  0  0  0  0  0  0  0  0  0  0
   -2.6571   -3.4824    0.3932 C   0  0  0  0  0  0  0  0  0  0  0  0
   -2.2397   -3.6319   -0.6225 H   0  0  0  0  0  0  0  0  0  0  0  0
   -3.6950   -3.1075    0.3021 H   0  0  0  0  0  0  0  0  0  0  0  0
   -2.7021   -4.4725    0.8928 H   0  0  0  0  0  0  0  0  0  0  0  0
   -2.3298   -1.7618    2.9883 C   0  0  0  0  0  0  0  0  0  0  0  0
   -1.6572   -1.0681    3.5336 H   0  0  0  0  0  0  0  0  0  0  0  0
   -2.5165   -2.6363    3.6458 H   0  0  0  0  0  0  0  0  0  0  0  0
   -3.2969   -1.2472    2.8291 H   0  0  0  0  0  0  0  0  0  0  0  0
   -2.6962    0.7068    0.8474 N   0  0  0  0  0  0  0  0  0  0  0  0
   -3.8115   -0.0861    0.3239 C   0  0  0  0  0  0  0  0  0  0  0  0
   -4.5223   -0.3116    1.1512 H   0  0  0  0  0  0  0  0  0  0  0  0
   -3.4153   -1.0451   -0.0486 H   0  0  0  0  0  0  0  0  0  0  0  0
   -4.5255    0.6653   -0.8107 C   0  0  0  0  0  0  0  0  0  0  0  0
   -3.8254    0.7340   -1.6704 H   0  0  0  0  0  0  0  0  0  0  0  0
   -5.3967    0.0642   -1.1444 H   0  0  0  0  0  0  0  0  0  0  0  0
   -4.9616    2.0694   -0.3777 C   0  0  0  0  0  0  0  0  0  0  0  0
   -5.7519    1.9902    0.4033 H   0  0  0  0  0  0  0  0  0  0  0  0
   -5.4158    2.6155   -1.2296 H   0  0  0  0  0  0  0  0  0  0  0  0
   -3.7707    2.8509    0.1926 C   0  0  0  0  0  0  0  0  0  0  0  0
   -3.0337    3.0496   -0.6160 H   0  0  0  0  0  0  0  0  0  0  0  0
   -4.0920    3.8346    0.5938 H   0  0  0  0  0  0  0  0  0  0  0  0
   -3.0935    2.0392    1.3031 C   0  0  0  0  0  0  0  0  0  0  0  0
   -2.2109    2.5556    1.7230 H   0  0  0  0  0  0  0  0  0  0  0  0
   -3.8124    1.8975    2.1433 H   0  0  0  0  0  0  0  0  0  0  0  0
    1.6347    2.8603    0.7451 C   0  0  0  0  0  0  0  0  0  0  0  0
    0.6268    4.0197    0.8582 C   0  0  0  0  0  0  0  0  0  0  0  0
    1.1796    4.9628    1.0401 H   0  0  0  0  0  0  0  0  0  0  0  0
   -0.0781    3.8782    1.7026 H   0  0  0  0  0  0  0  0  0  0  0  0
    0.0412    4.1634   -0.0712 H   0  0  0  0  0  0  0  0  0  0  0  0
    2.4694    2.8491    2.0414 C   0  0  0  0  0  0  0  0  0  0  0  0
    2.9434    3.8408    2.1852 H   0  0  0  0  0  0  0  0  0  0  0  0
    3.2800    2.1017    2.0147 H   0  0  0  0  0  0  0  0  0  0  0  0
    1.8339    2.6415    2.9261 H   0  0  0  0  0  0  0  0  0  0  0  0
    2.5308    3.1113   -0.4879 C   0  0  0  0  0  0  0  0  0  0  0  0
    3.0826    4.0660   -0.3683 H   0  0  0  0  0  0  0  0  0  0  0  0
    1.9193    3.1776   -1.4100 H   0  0  0  0  0  0  0  0  0  0  0  0
    3.2606    2.2977   -0.6407 H   0  0  0  0  0  0  0  0  0  0  0  0
    3.1766   -0.4058    1.0191 Si  0  0  0  0  0  0  0  0  0  0  0  0
    3.0631   -0.5717    2.9020 C   0  0  0  0  0  0  0  0  0  0  0  0
    2.1365   -1.1142    3.1795 H   0  0  0  0  0  0  0  0  0  0  0  0
    3.0628    0.3974    3.4357 H   0  0  0  0  0  0  0  0  0  0  0  0
    3.9253   -1.1660    3.2694 H   0  0  0  0  0  0  0  0  0  0  0  0
    4.7596    0.4696    0.4684 C   0  0  0  0  0  0  0  0  0  0  0  0
    4.9240    1.4796    0.8882 H   0  0  0  0  0  0  0  0  0  0  0  0
    4.7672    0.5372   -0.6383 H   0  0  0  0  0  0  0  0  0  0  0  0
    5.6157   -0.1685    0.7733 H   0  0  0  0  0  0  0  0  0  0  0  0
    3.2622   -2.1365    0.2836 C   0  0  0  0  0  0  0  0  0  0  0  0
    2.3663   -2.7473    0.4982 H   0  0  0  0  0  0  0  0  0  0  0  0
    4.1365   -2.6517    0.7340 H   0  0  0  0  0  0  0  0  0  0  0  0
    3.4085   -2.1041   -0.8133 H   0  0  0  0  0  0  0  0  0  0  0  0
  1  3  1  0  0  0  0
  1  7  1  0  0  0  0
  2  6  1  0  0  0  0
  2 49  1  0  0  0  0
  3  4  1  6  0  0  0
  3 20  1  0  0  0  0
  5  4  1  0  0  0  0
  6  4  1  6  0  0  0
  6 36  1  0  0  0  0
  7  8  1  0  0  0  0
  7 16  1  0  0  0  0
  8  9  1  0  0  0  0
  8 11  1  0  0  0  0
 10  8  1  0  0  0  0
 12 15  1  0  0  0  0
 12  7  1  0  0  0  0
 13 12  1  0  0  0  0
 14 12  1  0  0  0  0
 16 17  1  0  0  0  0
 16 18  1  0  0  0  0
 19 16  1  0  0  0  0
 20 33  1  0  0  0  0
 21 20  1  0  0  0  0
 21 22  1  0  0  0  0
 23 21  1  0  0  0  0
 24 27  1  0  0  0  0
 24 21  1  0  0  0  0
 25 24  1  0  0  0  0
 26 24  1  0  0  0  0
 27 30  1  0  0  0  0
 27 28  1  0  0  0  0
 29 27  1  0  0  0  0
 30 32  1  0  0  0  0
 30 33  1  0  0  0  0
 31 30  1  0  0  0  0
 33 34  1  0  0  0  0
 33 35  1  0  0  0  0
 36 37  1  0  0  0  0
 36 41  1  0  0  0  0
 37 38  1  0  0  0  0
 37 39  1  0  0  0  0
 40 37  1  0  0  0  0
 41 42  1  0  0  0  0
 41 44  1  0  0  0  0
 43 41  1  0  0  0  0
 45 46  1  0  0  0  0
 45 36  1  0  0  0  0
 47 45  1  0  0  0  0
 48 45  1  0  0  0  0
 49 50  1  0  0  0  0
 50 51  1  0  0  0  0
 50 53  1  0  0  0  0
 50 52  1  0  0  0  0
 54 57  1  0  0  0  0
 54 55  1  0  0  0  0
 54 49  1  0  0  0  0
 56 54  1  0  0  0  0
 58 59  1  0  0  0  0
 58 60  1  0  0  0  0
 58 49  1  0  0  0  0
 61 58  1  0  0  0  0
M  END
