1,8,16
q = -1.0, confidence = 0.002

 43 45  0  0  1  0  0  0  0  0999 V2000
    0.0001    1.5884   -0.0001 C   0  0  0  0  0  3  0  0  0  0  0  0
   -0.9768    2.3086    0.7237 C   0  0  0  0  0  0  0  0  0  0  0  0
   -0.9797    3.7144    0.7180 C   0  0  0  0  0  0  0  0  0  0  0  0
    0.0003    4.4196   -0.0001 C   0  0  0  0  0  0  0  0  0  0  0  0
    0.9801    3.7143   -0.7182 C   0  0  0  0  0  0  0  0  0  0  0  0
    0.9771    2.3085   -0.7238 C   0  0  0  0  0  0  0  0  0  0  0  0
   -2.7221    0.5917    0.5826 N   0  0  0  0  0  0  0  0  0  0  0  0
   -2.0279   -0.2988   -0.1835 N   0  0  0  0  0  2  0  0  0  0  0  0
   -2.9074   -0.8507   -1.0541 C   0  0  2  0  0  3  0  0  0  0  0  0
   -2.5100   -1.8247   -2.1101 C   0  0  0  0  0  0  0  0  0  0  0  0
   -4.1879   -0.3047   -0.8076 C   0  0  0  0  0  0  0  0  0  0  0  0
   -4.0406    0.6188    0.2293 C   0  0  0  0  0  0  0  0  0  0  0  0
   -5.0447    1.5062    0.8875 C   0  0  0  0  0  0  0  0  0  0  0  0
   -2.0054    1.4953    1.4824 C   0  0  0  0  0  0  0  0  0  0  0  0
    2.7222    0.5914   -0.5826 N   0  0  0  0  0  0  0  0  0  0  0  0
    2.0279   -0.2990    0.1835 N   0  0  0  0  0  2  0  0  0  0  0  0
    2.9073   -0.8509    1.0543 C   0  0  2  0  0  3  0  0  0  0  0  0
    2.5096   -1.8247    2.1104 C   0  0  0  0  0  0  0  0  0  0  0  0
    4.1877   -0.3049    0.8079 C   0  0  0  0  0  0  0  0  0  0  0  0
    4.0406    0.6185   -0.2291 C   0  0  0  0  0  0  0  0  0  0  0  0
    5.0448    1.5057   -0.8874 C   0  0  0  0  0  0  0  0  0  0  0  0
    2.0056    1.4950   -1.4825 C   0  0  0  0  0  0  0  0  0  0  0  0
   -1.7483    4.2653    1.2851 H   0  0  0  0  0  0  0  0  0  0  0  0
    0.0003    5.5197   -0.0001 H   0  0  0  0  0  0  0  0  0  0  0  0
    1.7488    4.2651   -1.2853 H   0  0  0  0  0  0  0  0  0  0  0  0
   -1.8157   -1.3525   -2.8353 H   0  0  0  0  0  0  0  0  0  0  0  0
   -3.4044   -2.1784   -2.6555 H   0  0  0  0  0  0  0  0  0  0  0  0
   -1.9659   -2.6828   -1.6664 H   0  0  0  0  0  0  0  0  0  0  0  0
   -5.1147   -0.5545   -1.3333 H   0  0  0  0  0  0  0  0  0  0  0  0
   -6.0433    1.3208    0.4515 H   0  0  0  0  0  0  0  0  0  0  0  0
   -4.8087    2.5814    0.7418 H   0  0  0  0  0  0  0  0  0  0  0  0
   -5.1144    1.3222    1.9798 H   0  0  0  0  0  0  0  0  0  0  0  0
   -1.5100    0.8791    2.2627 H   0  0  0  0  0  0  0  0  0  0  0  0
   -2.7610    2.1358    1.9721 H   0  0  0  0  0  0  0  0  0  0  0  0
    3.4041   -2.1787    2.6556 H   0  0  0  0  0  0  0  0  0  0  0  0
    1.9650   -2.6825    1.6668 H   0  0  0  0  0  0  0  0  0  0  0  0
    1.8158   -1.3521    2.8357 H   0  0  0  0  0  0  0  0  0  0  0  0
    5.1145   -0.5547    1.3337 H   0  0  0  0  0  0  0  0  0  0  0  0
    6.0434    1.3205   -0.4512 H   0  0  0  0  0  0  0  0  0  0  0  0
    4.8089    2.5810   -0.7419 H   0  0  0  0  0  0  0  0  0  0  0  0
    5.1147    1.3216   -1.9796 H   0  0  0  0  0  0  0  0  0  0  0  0
    1.5101    0.8788   -2.2627 H   0  0  0  0  0  0  0  0  0  0  0  0
    2.7613    2.1353   -1.9723 H   0  0  0  0  0  0  0  0  0  0  0  0
  1  2  1  0  0  0  0
  2 14  1  0  0  0  0
  3  2  2  0  0  0  0
  3 23  1  0  0  0  0
  4  3  1  0  0  0  0
  5  4  2  0  0  0  0
  6  5  1  0  0  0  0
  6  1  2  0  0  0  0
  7 14  1  0  0  0  0
  8  7  1  0  0  0  0
  9 10  1  6  0  0  0
  9 11  1  0  0  0  0
  9  8  1  0  0  0  0
 10 28  1  0  0  0  0
 11 12  2  0  0  0  0
 12  7  1  0  0  0  0
 12 13  1  0  0  0  0
 13 32  1  0  0  0  0
 14 34  1  0  0  0  0
 14 33  1  0  0  0  0
 15 20  1  0  0  0  0
 15 16  1  0  0  0  0
 16 17  1  0  0  0  0
 17 18  1  1  0  0  0
 18 35  1  0  0  0  0
 18 37  1  0  0  0  0
 19 17  1  0  0  0  0
 19 38  1  0  0  0  0
 20 19  2  0  0  0  0
 21 40  1  0  0  0  0
 21 39  1  0  0  0  0
 21 20  1  0  0  0  0
 22  6  1  0  0  0  0
 22 15  1  0  0  0  0
 24  4  1  0  0  0  0
 25  5  1  0  0  0  0
 26 10  1  0  0  0  0
 27 10  1  0  0  0  0
 29 11  1  0  0  0  0
 30 13  1  0  0  0  0
 31 13  1  0  0  0  0
 36 18  1  0  0  0  0
 41 21  1  0  0  0  0
 42 22  1  0  0  0  0
 43 22  1  0  0  0  0
M  END
