1,52,53
q = 0.0, confidence = 0.974

 59 64  0  0  0  0  0  0  0  0999 V2000
   -0.0000    2.0034   -0.0000 C   0  0  0  0  0  2  0  0  0  0  0  0
    0.6790    4.1619    0.2040 C   0  0  0  0  0  0  0  0  0  0  0  0
    1.3761    5.3573    0.4243 C   0  0  0  0  0  0  0  0  0  0  0  0
    2.4246    5.3694    0.7534 H   0  0  0  0  0  0  0  0  0  0  0  0
    0.6742    6.5523    0.2091 C   0  0  0  0  0  0  0  0  0  0  0  0
    1.1874    7.5112    0.3701 H   0  0  0  0  0  0  0  0  0  0  0  0
   -0.6746    6.5523   -0.2091 C   0  0  0  0  0  0  0  0  0  0  0  0
   -1.1879    7.5112   -0.3701 H   0  0  0  0  0  0  0  0  0  0  0  0
   -1.3764    5.3572   -0.4244 C   0  0  0  0  0  0  0  0  0  0  0  0
   -2.4249    5.3692   -0.7534 H   0  0  0  0  0  0  0  0  0  0  0  0
   -0.6793    4.1619   -0.2040 C   0  0  0  0  0  0  0  0  0  0  0  0
   -2.3364    2.3049   -0.7881 C   0  0  0  0  0  0  0  0  0  0  0  0
   -2.2340    2.0281   -1.8608 H   0  0  0  0  0  0  0  0  0  0  0  0
   -3.0812    3.1190   -0.7264 H   0  0  0  0  0  0  0  0  0  0  0  0
   -2.8140    1.1259    0.0057 C   0  0  0  0  0  0  0  0  0  0  0  0
   -4.0780    0.7775    0.4614 C   0  0  0  0  0  0  0  0  0  0  0  0
   -5.0559    1.2595    0.3696 H   0  0  0  0  0  0  0  0  0  0  0  0
   -4.9051   -1.3308    1.6520 C   0  0  0  0  0  0  0  0  0  0  0  0
   -5.7079   -0.7176    2.1024 H   0  0  0  0  0  0  0  0  0  0  0  0
   -4.3909   -1.8851    2.4610 H   0  0  0  0  0  0  0  0  0  0  0  0
   -5.4455   -2.2602    0.5844 C   0  0  0  0  0  0  0  0  0  0  0  0
   -4.5702   -3.1146   -0.1177 C   0  0  0  0  0  0  0  0  0  0  0  0
   -3.4895   -3.1035    0.1002 H   0  0  0  0  0  0  0  0  0  0  0  0
   -5.0760   -3.9742   -1.1023 C   0  0  0  0  0  0  0  0  0  0  0  0
   -4.3898   -4.6397   -1.6471 H   0  0  0  0  0  0  0  0  0  0  0  0
   -6.4517   -3.9925   -1.3886 C   0  0  0  0  0  0  0  0  0  0  0  0
   -6.8447   -4.6726   -2.1592 H   0  0  0  0  0  0  0  0  0  0  0  0
   -7.3242   -3.1449   -0.6902 C   0  0  0  0  0  0  0  0  0  0  0  0
   -8.4023   -3.1573   -0.9093 H   0  0  0  0  0  0  0  0  0  0  0  0
   -6.8212   -2.2765    0.2914 C   0  0  0  0  0  0  0  0  0  0  0  0
   -7.5083   -1.6131    0.8410 H   0  0  0  0  0  0  0  0  0  0  0  0
    2.3364    2.3050    0.7881 C   0  0  0  0  0  0  0  0  0  0  0  0
    2.2340    2.0283    1.8608 H   0  0  0  0  0  0  0  0  0  0  0  0
    3.0811    3.1192    0.7263 H   0  0  0  0  0  0  0  0  0  0  0  0
    2.8140    1.1261   -0.0056 C   0  0  0  0  0  0  0  0  0  0  0  0
    4.0780    0.7777   -0.4614 C   0  0  0  0  0  0  0  0  0  0  0  0
    5.0559    1.2598   -0.3696 H   0  0  0  0  0  0  0  0  0  0  0  0
    4.9052   -1.3305   -1.6519 C   0  0  0  0  0  0  0  0  0  0  0  0
    5.7081   -0.7173   -2.1022 H   0  0  0  0  0  0  0  0  0  0  0  0
    4.3911   -1.8847   -2.4610 H   0  0  0  0  0  0  0  0  0  0  0  0
    5.4456   -2.2600   -0.5844 C   0  0  0  0  0  0  0  0  0  0  0  0
    6.8213   -2.2764   -0.2914 C   0  0  0  0  0  0  0  0  0  0  0  0
    7.5084   -1.6130   -0.8409 H   0  0  0  0  0  0  0  0  0  0  0  0
    7.3242   -3.1448    0.6902 C   0  0  0  0  0  0  0  0  0  0  0  0
    8.4023   -3.1573    0.9093 H   0  0  0  0  0  0  0  0  0  0  0  0
    6.4517   -3.9925    1.3885 C   0  0  0  0  0  0  0  0  0  0  0  0
    6.8447   -4.6726    2.1590 H   0  0  0  0  0  0  0  0  0  0  0  0
    5.0760   -3.9742    1.1022 C   0  0  0  0  0  0  0  0  0  0  0  0
    4.3898   -4.6397    1.6468 H   0  0  0  0  0  0  0  0  0  0  0  0
    4.5702   -3.1145    0.1177 C   0  0  0  0  0  0  0  0  0  0  0  0
    3.4896   -3.1033   -0.1003 H   0  0  0  0  0  0  0  0  0  0  0  0
   -1.9763    0.1110    0.3949 N   0  0  0  0  0  2  0  0  0  0  0  0
    1.9764    0.1111   -0.3948 N   0  0  0  0  0  2  0  0  0  0  0  0
    2.6254   -0.8077   -1.0720 N   0  0  0  0  0  2  0  0  0  0  0  0
    3.8947   -0.4113   -1.1060 N   0  0  0  0  0  0  0  0  0  0  0  0
    1.0513    2.8152    0.3070 N   0  0  0  0  0  0  0  0  0  0  0  0
   -1.0514    2.8151   -0.3070 N   0  0  0  0  0  0  0  0  0  0  0  0
   -2.6253   -0.8078    1.0721 N   0  0  0  0  0  2  0  0  0  0  0  0
   -3.8946   -0.4115    1.1060 N   0  0  0  0  0  0  0  0  0  0  0  0
  1 56  1  0  0  0  0
  2 56  1  0  0  0  0
  2  3  1  0  0  0  0
  3  4  1  0  0  0  0
  5  6  1  0  0  0  0
  5  3  2  0  0  0  0
  7  5  1  0  0  0  0
  8  7  1  0  0  0  0
  9  7  2  0  0  0  0
  9 11  1  0  0  0  0
 10  9  1  0  0  0  0
 11  2  2  0  0  0  0
 12 14  1  0  0  0  0
 12 57  1  0  0  0  0
 12 15  1  0  0  0  0
 13 12  1  0  0  0  0
 15 52  1  0  0  0  0
 15 16  2  0  0  0  0
 16 59  1  0  0  0  0
 17 16  1  0  0  0  0
 18 19  1  0  0  0  0
 18 20  1  0  0  0  0
 21 18  1  0  0  0  0
 22 23  1  0  0  0  0
 22 21  2  0  0  0  0
 24 22  1  0  0  0  0
 25 24  1  0  0  0  0
 26 24  2  0  0  0  0
 26 28  1  0  0  0  0
 27 26  1  0  0  0  0
 28 30  2  0  0  0  0
 29 28  1  0  0  0  0
 30 21  1  0  0  0  0
 30 31  1  0  0  0  0
 32 33  1  0  0  0  0
 34 32  1  0  0  0  0
 35 32  1  0  0  0  0
 36 37  1  0  0  0  0
 36 35  2  0  0  0  0
 38 55  1  0  0  0  0
 38 41  1  0  0  0  0
 39 38  1  0  0  0  0
 40 38  1  0  0  0  0
 41 42  2  0  0  0  0
 41 50  1  0  0  0  0
 42 44  1  0  0  0  0
 43 42  1  0  0  0  0
 44 45  1  0  0  0  0
 44 46  2  0  0  0  0
 46 47  1  0  0  0  0
 48 46  1  0  0  0  0
 48 49  1  0  0  0  0
 50 48  2  0  0  0  0
 51 50  1  0  0  0  0
 52 58  1  0  0  0  0
 53 35  1  0  0  0  0
 54 53  1  0  0  0  0
 55 54  1  0  0  0  0
 55 36  1  0  0  0  0
 56 32  1  0  0  0  0
 57 11  1  0  0  0  0
 57  1  1  0  0  0  0
 58 59  1  0  0  0  0
 59 18  1  0  0  0  0
M  END
