1,2,4
q = -1.0

 63 69  0  0  1  0  0  0  0  0999 V2000
   -2.0710    0.6591   -0.2069 N   0  0  0  0  0  2  0  0  0  0  0  0
    2.0479    0.7089    0.2044 N   0  0  0  0  0  2  0  0  0  0  0  0
   -1.2757    2.9035   -0.0272 C   0  0  0  0  0  0  0  0  0  0  0  0
   -0.0405    2.2342    0.1156 C   0  0  0  0  0  3  0  0  0  0  0  0
    1.1857    2.9337    0.1731 C   0  0  0  0  0  0  0  0  0  0  0  0
    1.1588    4.3439    0.1665 C   0  0  0  0  0  0  0  0  0  0  0  0
   -0.0714    5.0197    0.0795 C   0  0  0  0  0  0  0  0  0  0  0  0
   -1.2829    4.3141   -0.0294 C   0  0  0  0  0  0  0  0  0  0  0  0
   -2.4154    1.9988   -0.1776 C   0  0  2  0  0  3  0  0  0  0  0  0
   -3.7588    2.3941   -0.2556 C   0  0  0  0  0  0  0  0  0  0  0  0
   -4.7642    1.4239   -0.3253 C   0  0  0  0  0  0  0  0  0  0  0  0
   -4.4157    0.0698   -0.2865 C   0  0  0  0  0  0  0  0  0  0  0  0
   -3.0403   -0.2815   -0.2117 C   0  0  0  0  0  0  0  0  0  0  0  0
   -2.6924   -1.7425   -0.0817 C   0  0  0  0  0  0  0  0  0  0  0  0
   -3.9531   -2.6148   -0.1153 C   0  0  2  0  0  0  0  0  0  0  0  0
   -4.8526   -2.1473   -1.2906 C   0  0  0  0  0  0  0  0  0  0  0  0
   -5.3978   -1.0709   -0.3054 C   0  0  1  0  0  0  0  0  0  0  0  0
   -5.0610   -2.0797    0.8660 C   0  0  0  0  0  0  0  0  0  0  0  0
   -4.6362   -1.5118    2.2187 C   0  0  0  0  0  0  0  0  0  0  0  0
   -6.1856   -3.0980    1.0842 C   0  0  0  0  0  0  0  0  0  0  0  0
    2.3566    2.0573    0.2186 C   0  0  1  0  0  3  0  0  0  0  0  0
    3.6905    2.4829    0.2966 C   0  0  0  0  0  0  0  0  0  0  0  0
    4.7145    1.5348    0.4013 C   0  0  0  0  0  0  0  0  0  0  0  0
    4.3882    0.1772    0.4851 C   0  0  0  0  0  0  0  0  0  0  0  0
    3.0218   -0.2047    0.4028 C   0  0  0  0  0  0  0  0  0  0  0  0
    2.6850   -1.6656    0.5663 C   0  0  0  0  0  0  0  0  0  0  0  0
    3.9520   -2.5036    0.7764 C   0  0  2  0  0  0  0  0  0  0  0  0
    4.8543   -1.8288    1.8438 C   0  0  0  0  0  0  0  0  0  0  0  0
    5.3815   -0.9365    0.6796 C   0  0  1  0  0  0  0  0  0  0  0  0
    5.0459   -2.1381   -0.2937 C   0  0  0  0  0  0  0  0  0  0  0  0
    4.5997   -1.8302   -1.7220 C   0  0  0  0  0  0  0  0  0  0  0  0
    6.1851   -3.1631   -0.3372 C   0  0  0  0  0  0  0  0  0  0  0  0
    2.0935    4.9239    0.2185 H   0  0  0  0  0  0  0  0  0  0  0  0
   -0.0847    6.1195    0.0773 H   0  0  0  0  0  0  0  0  0  0  0  0
   -2.2275    4.8712   -0.1301 H   0  0  0  0  0  0  0  0  0  0  0  0
   -4.0064    3.4643   -0.2458 H   0  0  0  0  0  0  0  0  0  0  0  0
   -5.8235    1.7177   -0.3878 H   0  0  0  0  0  0  0  0  0  0  0  0
   -2.1178   -1.8853    0.8598 H   0  0  0  0  0  0  0  0  0  0  0  0
   -1.9741   -2.0207   -0.8850 H   0  0  0  0  0  0  0  0  0  0  0  0
   -3.6911   -3.6901   -0.0451 H   0  0  0  0  0  0  0  0  0  0  0  0
   -5.6183   -2.8911   -1.5753 H   0  0  0  0  0  0  0  0  0  0  0  0
   -4.3454   -1.7785   -2.2045 H   0  0  0  0  0  0  0  0  0  0  0  0
   -6.4440   -0.7163   -0.4046 H   0  0  0  0  0  0  0  0  0  0  0  0
   -3.8468   -0.7402    2.1445 H   0  0  0  0  0  0  0  0  0  0  0  0
   -5.5031   -1.0495    2.7355 H   0  0  0  0  0  0  0  0  0  0  0  0
   -4.2535   -2.3228    2.8727 H   0  0  0  0  0  0  0  0  0  0  0  0
   -6.5483   -3.5546    0.1435 H   0  0  0  0  0  0  0  0  0  0  0  0
   -5.8342   -3.9212    1.7404 H   0  0  0  0  0  0  0  0  0  0  0  0
   -7.0541   -2.6201    1.5834 H   0  0  0  0  0  0  0  0  0  0  0  0
    3.9155    3.5581    0.2803 H   0  0  0  0  0  0  0  0  0  0  0  0
    5.7683    1.8509    0.4465 H   0  0  0  0  0  0  0  0  0  0  0  0
    2.0841   -2.0024   -0.3076 H   0  0  0  0  0  0  0  0  0  0  0  0
    1.9987   -1.7677    1.4364 H   0  0  0  0  0  0  0  0  0  0  0  0
    3.7003   -3.5769    0.8972 H   0  0  0  0  0  0  0  0  0  0  0  0
    5.6308   -2.5028    2.2484 H   0  0  0  0  0  0  0  0  0  0  0  0
    4.3524   -1.3077    2.6843 H   0  0  0  0  0  0  0  0  0  0  0  0
    6.4251   -0.5621    0.7082 H   0  0  0  0  0  0  0  0  0  0  0  0
    3.7589   -1.1146   -1.7848 H   0  0  0  0  0  0  0  0  0  0  0  0
    5.4439   -1.4139   -2.3105 H   0  0  0  0  0  0  0  0  0  0  0  0
    4.2664   -2.7610   -2.2253 H   0  0  0  0  0  0  0  0  0  0  0  0
    6.5710   -3.4319    0.6650 H   0  0  0  0  0  0  0  0  0  0  0  0
    5.8391   -4.0980   -0.8245 H   0  0  0  0  0  0  0  0  0  0  0  0
    7.0367   -2.7721   -0.9318 H   0  0  0  0  0  0  0  0  0  0  0  0
  1  9  1  0  0  0  0
  2 21  1  0  0  0  0
  2 25  1  0  0  0  0
  3  4  1  0  0  0  0
  4  5  2  0  0  0  0
  6  5  1  0  0  0  0
  6 33  1  0  0  0  0
  7  6  2  0  0  0  0
  8  3  2  0  0  0  0
  8  7  1  0  0  0  0
  9  3  1  1  0  0  0
 10 36  1  0  0  0  0
 10  9  1  0  0  0  0
 11 12  1  0  0  0  0
 11 10  2  0  0  0  0
 12 13  2  0  0  0  0
 13  1  1  0  0  0  0
 13 14  1  0  0  0  0
 14 38  1  0  0  0  0
 15 14  1  0  0  0  0
 15 40  1  1  0  0  0
 15 18  1  0  0  0  0
 16 17  1  0  0  0  0
 16 15  1  0  0  0  0
 17 43  1  6  0  0  0
 17 12  1  0  0  0  0
 17 18  1  0  0  0  0
 18 20  1  0  0  0  0
 18 19  1  0  0  0  0
 19 45  1  0  0  0  0
 19 46  1  0  0  0  0
 20 49  1  0  0  0  0
 20 48  1  0  0  0  0
 21  5  1  1  0  0  0
 21 22  1  0  0  0  0
 22 23  2  0  0  0  0
 23 51  1  0  0  0  0
 23 24  1  0  0  0  0
 24 29  1  0  0  0  0
 25 24  2  0  0  0  0
 25 26  1  0  0  0  0
 26 27  1  0  0  0  0
 26 53  1  0  0  0  0
 27 54  1  1  0  0  0
 27 28  1  0  0  0  0
 28 55  1  0  0  0  0
 28 56  1  0  0  0  0
 29 57  1  1  0  0  0
 29 28  1  0  0  0  0
 30 29  1  0  0  0  0
 30 27  1  0  0  0  0
 31 30  1  0  0  0  0
 32 30  1  0  0  0  0
 32 61  1  0  0  0  0
 34  7  1  0  0  0  0
 35  8  1  0  0  0  0
 37 11  1  0  0  0  0
 39 14  1  0  0  0  0
 41 16  1  0  0  0  0
 42 16  1  0  0  0  0
 44 19  1  0  0  0  0
 47 20  1  0  0  0  0
 50 22  1  0  0  0  0
 52 26  1  0  0  0  0
 58 31  1  0  0  0  0
 59 31  1  0  0  0  0
 60 31  1  0  0  0  0
 62 32  1  0  0  0  0
 63 32  1  0  0  0  0
M  END
