1,2,21
q = -1.0

 69 73  0  0  0  0  0  0  0  0999 V2000
   -3.0516    1.9660   -0.4621 N   0  0  0  0  0  2  0  0  0  0  0  0
   -3.0515   -1.9662    0.4620 N   0  0  0  0  0  2  0  0  0  0  0  0
   -4.0167    2.8857   -0.6751 C   0  0  0  0  0  3  0  0  0  0  0  0
   -5.0459    2.4999   -0.5844 H   0  0  0  0  0  0  0  0  0  0  0  0
   -3.7099    4.2141   -0.9839 C   0  0  0  0  0  0  0  0  0  0  0  0
   -4.5243    4.9328   -1.1505 H   0  0  0  0  0  0  0  0  0  0  0  0
   -2.3614    4.5972   -1.0731 C   0  0  0  0  0  0  0  0  0  0  0  0
   -2.0902    5.6360   -1.3139 H   0  0  0  0  0  0  0  0  0  0  0  0
   -1.3615    3.6437   -0.8521 C   0  0  0  0  0  0  0  0  0  0  0  0
   -0.2977    3.9132   -0.9139 H   0  0  0  0  0  0  0  0  0  0  0  0
   -1.7107    2.3178   -0.5447 C   0  0  0  0  0  0  0  0  0  0  0  0
   -4.0166   -2.8860    0.6751 C   0  0  0  0  0  0  0  0  0  0  0  0
   -5.0458   -2.5001    0.5845 H   0  0  0  0  0  0  0  0  0  0  0  0
   -3.7098   -4.2143    0.9839 C   0  0  0  0  0  0  0  0  0  0  0  0
   -4.5242   -4.9330    1.1505 H   0  0  0  0  0  0  0  0  0  0  0  0
   -2.3612   -4.5974    1.0730 C   0  0  0  0  0  0  0  0  0  0  0  0
   -2.0901   -5.6361    1.3138 H   0  0  0  0  0  0  0  0  0  0  0  0
   -1.3613   -3.6438    0.8520 C   0  0  0  0  0  0  0  0  0  0  0  0
   -0.2976   -3.9134    0.9138 H   0  0  0  0  0  0  0  0  0  0  0  0
   -1.7106   -2.3179    0.5445 C   0  0  0  0  0  0  0  0  0  0  0  0
   -1.4651   -0.0001   -0.0001 C   0  0  0  0  0  2  0  0  0  0  0  0
   -0.7840    1.2100   -0.2841 C   0  0  0  0  0  0  0  0  0  0  0  0
    0.6194    1.1984   -0.2699 C   0  0  0  0  0  0  0  0  0  0  0  0
    1.1974    2.1154   -0.4726 H   0  0  0  0  0  0  0  0  0  0  0  0
    1.3407   -0.0000   -0.0001 C   0  0  0  0  0  0  0  0  0  0  0  0
    0.6194   -1.1985    0.2697 C   0  0  0  0  0  0  0  0  0  0  0  0
    1.1975   -2.1155    0.4723 H   0  0  0  0  0  0  0  0  0  0  0  0
   -0.7839   -1.2101    0.2840 C   0  0  0  0  0  0  0  0  0  0  0  0
    3.6709    1.3594    0.2446 C   0  0  0  0  0  0  0  0  0  0  0  0
    3.3990    2.1600    1.3925 C   0  0  0  0  0  0  0  0  0  0  0  0
    4.0977    3.3672    1.5888 C   0  0  0  0  0  0  0  0  0  0  0  0
    3.8921    3.9605    2.4956 H   0  0  0  0  0  0  0  0  0  0  0  0
    5.0511    3.8348    0.6709 C   0  0  0  0  0  0  0  0  0  0  0  0
    5.3136    3.0400   -0.4610 C   0  0  0  0  0  0  0  0  0  0  0  0
    6.0623    3.3817   -1.1951 H   0  0  0  0  0  0  0  0  0  0  0  0
    4.6602    1.8162   -0.6800 C   0  0  0  0  0  0  0  0  0  0  0  0
    2.3985    1.7468    2.4525 C   0  0  0  0  0  0  0  0  0  0  0  0
    2.6810    2.1588    3.4414 H   0  0  0  0  0  0  0  0  0  0  0  0
    2.3074    0.6485    2.5516 H   0  0  0  0  0  0  0  0  0  0  0  0
    1.3788    2.1200    2.2201 H   0  0  0  0  0  0  0  0  0  0  0  0
    5.7782    5.1386    0.8826 C   0  0  0  0  0  0  0  0  0  0  0  0
    6.8788    4.9955    0.8633 H   0  0  0  0  0  0  0  0  0  0  0  0
    5.5116    5.6042    1.8512 H   0  0  0  0  0  0  0  0  0  0  0  0
    5.5390    5.8673    0.0793 H   0  0  0  0  0  0  0  0  0  0  0  0
    5.0242    1.0128   -1.9083 C   0  0  0  0  0  0  0  0  0  0  0  0
    5.7259    1.5719   -2.5569 H   0  0  0  0  0  0  0  0  0  0  0  0
    4.1345    0.7563   -2.5186 H   0  0  0  0  0  0  0  0  0  0  0  0
    5.5005    0.0495   -1.6351 H   0  0  0  0  0  0  0  0  0  0  0  0
    3.6711   -1.3594   -0.2445 C   0  0  0  0  0  0  0  0  0  0  0  0
    4.6602   -1.8160    0.6803 C   0  0  0  0  0  0  0  0  0  0  0  0
    5.3139   -3.0397    0.4613 C   0  0  0  0  0  0  0  0  0  0  0  0
    6.0626   -3.3813    1.1956 H   0  0  0  0  0  0  0  0  0  0  0  0
    5.0520   -3.8344   -0.6707 C   0  0  0  0  0  0  0  0  0  0  0  0
    4.0987   -3.3669   -1.5888 C   0  0  0  0  0  0  0  0  0  0  0  0
    3.8934   -3.9601   -2.4957 H   0  0  0  0  0  0  0  0  0  0  0  0
    3.3996   -2.1599   -1.3926 C   0  0  0  0  0  0  0  0  0  0  0  0
    2.3991   -1.7468   -2.4526 C   0  0  0  0  0  0  0  0  0  0  0  0
    2.6805   -2.1605   -3.4411 H   0  0  0  0  0  0  0  0  0  0  0  0
    2.3097   -0.6485   -2.5533 H   0  0  0  0  0  0  0  0  0  0  0  0
    1.3790   -2.1180   -2.2191 H   0  0  0  0  0  0  0  0  0  0  0  0
    5.7798   -5.1377   -0.8826 C   0  0  0  0  0  0  0  0  0  0  0  0
    5.5423   -5.8660   -0.0785 H   0  0  0  0  0  0  0  0  0  0  0  0
    6.8802   -4.9938   -0.8649 H   0  0  0  0  0  0  0  0  0  0  0  0
    5.5122   -5.6042   -1.8505 H   0  0  0  0  0  0  0  0  0  0  0  0
    5.0237   -1.0126    1.9088 C   0  0  0  0  0  0  0  0  0  0  0  0
    5.7247   -1.5720    2.5579 H   0  0  0  0  0  0  0  0  0  0  0  0
    4.1336   -0.7557    2.5185 H   0  0  0  0  0  0  0  0  0  0  0  0
    5.5006   -0.0496    1.6358 H   0  0  0  0  0  0  0  0  0  0  0  0
    2.9037   -0.0000   -0.0000 B   0  0  0  0  0  0  0  0  0  0  0  0
  2 20  1  0  0  0  0
  2 12  1  0  0  0  0
  3  4  1  0  0  0  0
  3  1  1  0  0  0  0
  5  3  1  0  0  0  0
  6  5  1  0  0  0  0
  7  5  2  0  0  0  0
  7  9  1  0  0  0  0
  8  7  1  0  0  0  0
  9 11  2  0  0  0  0
 10  9  1  0  0  0  0
 11  1  1  0  0  0  0
 11 22  1  0  0  0  0
 12 14  2  0  0  0  0
 13 12  1  0  0  0  0
 14 16  1  0  0  0  0
 14 15  1  0  0  0  0
 16 17  1  0  0  0  0
 18 19  1  0  0  0  0
 18 16  2  0  0  0  0
 20 18  1  0  0  0  0
 21 28  1  0  0  0  0
 22 23  2  0  0  0  0
 22 21  1  0  0  0  0
 23 25  1  0  0  0  0
 24 23  1  0  0  0  0
 25 69  1  0  0  0  0
 25 26  2  0  0  0  0
 26 28  1  0  0  0  0
 26 27  1  0  0  0  0
 28 20  2  0  0  0  0
 29 30  1  0  0  0  0
 30 31  2  0  0  0  0
 30 37  1  0  0  0  0
 31 32  1  0  0  0  0
 33 41  1  0  0  0  0
 33 31  1  0  0  0  0
 34 33  2  0  0  0  0
 35 34  1  0  0  0  0
 36 34  1  0  0  0  0
 36 29  2  0  0  0  0
 37 39  1  0  0  0  0
 37 38  1  0  0  0  0
 40 37  1  0  0  0  0
 41 43  1  0  0  0  0
 42 41  1  0  0  0  0
 44 41  1  0  0  0  0
 45 48  1  0  0  0  0
 45 36  1  0  0  0  0
 46 45  1  0  0  0  0
 47 45  1  0  0  0  0
 49 69  1  0  0  0  0
 49 50  1  0  0  0  0
 50 65  1  0  0  0  0
 51 50  2  0  0  0  0
 51 52  1  0  0  0  0
 53 51  1  0  0  0  0
 54 56  1  0  0  0  0
 54 53  2  0  0  0  0
 55 54  1  0  0  0  0
 56 49  2  0  0  0  0
 57 60  1  0  0  0  0
 57 56  1  0  0  0  0
 58 57  1  0  0  0  0
 59 57  1  0  0  0  0
 61 63  1  0  0  0  0
 61 53  1  0  0  0  0
 61 62  1  0  0  0  0
 64 61  1  0  0  0  0
 65 67  1  0  0  0  0
 65 66  1  0  0  0  0
 68 65  1  0  0  0  0
 69 29  1  0  0  0  0
M  END
