1,12,15
q = -2.0, confidence = 0.572

 48 50  0  0  1  0  0  0  0  0999 V2000
    0.2011    1.7931    0.1300 N   0  0  0  0  0  2  0  0  0  0  0  0
    1.1126    2.5310    0.7211 C   0  0  1  0  0  3  0  0  0  0  0  0
    0.7429    3.8142    0.9717 O   0  0  0  0  0  0  0  0  0  0  0  0
   -0.6610    3.9136    0.6324 C   0  0  0  0  0  0  0  0  0  0  0  0
   -0.9457    2.6524   -0.2109 C   0  0  1  0  0  0  0  0  0  0  0  0
   -1.0204    2.8870   -1.7258 C   0  0  0  0  0  0  0  0  0  0  0  0
   -2.2636    3.6496   -2.2161 C   0  0  0  0  0  0  0  0  0  0  0  0
   -3.5705    2.9054   -1.9079 C   0  0  0  0  0  0  0  0  0  0  0  0
   -2.1427    3.9444   -3.7164 C   0  0  0  0  0  0  0  0  0  0  0  0
    2.4114    2.0738    1.1390 C   0  0  0  0  0  0  0  0  0  0  0  0
    2.9808    0.8751    0.5613 C   0  0  0  0  0  0  0  0  0  0  0  0
    2.3792    0.2090   -0.4750 N   0  0  0  0  0  2  0  0  0  0  0  0
    3.0554   -0.7049   -1.2858 C   0  0  0  0  0  0  0  0  0  0  0  0
    2.2405   -1.7941   -1.7145 C   0  0  0  0  0  0  0  0  0  0  0  0
    0.7827   -1.5757   -1.5383 C   0  0  0  0  0  3  0  0  0  0  0  0
    2.8228   -2.8972   -2.3584 C   0  0  0  0  0  0  0  0  0  0  0  0
    4.1847   -2.8674   -2.6948 C   0  0  0  0  0  0  0  0  0  0  0  0
    4.9345   -1.7063   -2.4417 C   0  0  0  0  0  0  0  0  0  0  0  0
    4.3965   -0.5924   -1.7671 C   0  0  0  0  0  0  0  0  0  0  0  0
    5.2013    0.6759   -1.6455 C   0  0  0  0  0  0  0  0  0  0  0  0
    4.1827    0.3974    1.1772 C   0  0  0  0  0  0  0  0  0  0  0  0
    4.8141    1.0938    2.2017 C   0  0  0  0  0  0  0  0  0  0  0  0
    4.2985    2.3201    2.6825 C   0  0  0  0  0  0  0  0  0  0  0  0
    3.0983    2.7852    2.1549 C   0  0  0  0  0  0  0  0  0  0  0  0
   -1.2486    3.9296    1.5749 H   0  0  0  0  0  0  0  0  0  0  0  0
   -0.8162    4.8660    0.0884 H   0  0  0  0  0  0  0  0  0  0  0  0
   -1.8760    2.1588    0.1289 H   0  0  0  0  0  0  0  0  0  0  0  0
   -0.9807    1.8879   -2.2146 H   0  0  0  0  0  0  0  0  0  0  0  0
   -0.0980    3.4185   -2.0472 H   0  0  0  0  0  0  0  0  0  0  0  0
   -2.2970    4.6293   -1.6838 H   0  0  0  0  0  0  0  0  0  0  0  0
   -4.4472    3.4704   -2.2847 H   0  0  0  0  0  0  0  0  0  0  0  0
   -3.5818    1.9081   -2.3975 H   0  0  0  0  0  0  0  0  0  0  0  0
   -3.7234    2.7398   -0.8227 H   0  0  0  0  0  0  0  0  0  0  0  0
   -3.0110    4.5262   -4.0871 H   0  0  0  0  0  0  0  0  0  0  0  0
   -2.0987    2.9993   -4.2987 H   0  0  0  0  0  0  0  0  0  0  0  0
   -1.2228    4.5194   -3.9465 H   0  0  0  0  0  0  0  0  0  0  0  0
    0.1996   -2.5179   -1.4725 H   0  0  0  0  0  0  0  0  0  0  0  0
    0.3733   -1.0013   -2.4120 H   0  0  0  0  0  0  0  0  0  0  0  0
    2.1914   -3.7554   -2.6392 H   0  0  0  0  0  0  0  0  0  0  0  0
    4.6494   -3.7209   -3.2115 H   0  0  0  0  0  0  0  0  0  0  0  0
    5.9770   -1.6468   -2.7953 H   0  0  0  0  0  0  0  0  0  0  0  0
    5.9291    0.7487   -2.4778 H   0  0  0  0  0  0  0  0  0  0  0  0
    5.7692    0.7458   -0.6932 H   0  0  0  0  0  0  0  0  0  0  0  0
    4.5453    1.5690   -1.6730 H   0  0  0  0  0  0  0  0  0  0  0  0
    4.5904   -0.5630    0.8319 H   0  0  0  0  0  0  0  0  0  0  0  0
    5.7266    0.6701    2.6505 H   0  0  0  0  0  0  0  0  0  0  0  0
    4.8141    2.8741    3.4798 H   0  0  0  0  0  0  0  0  0  0  0  0
    2.6349    3.7066    2.5367 H   0  0  0  0  0  0  0  0  0  0  0  0
  1  2  1  0  0  0  0
  2  3  1  0  0  0  0
  2 10  1  1  0  0  0
  4  3  1  0  0  0  0
  4 25  1  0  0  0  0
  5 27  1  1  0  0  0
  5  1  1  0  0  0  0
  5  4  1  0  0  0  0
  6  5  1  0  0  0  0
  7  8  1  0  0  0  0
  7  6  1  0  0  0  0
  7 30  1  0  0  0  0
  8 33  1  0  0  0  0
  9  7  1  0  0  0  0
 10 24  1  0  0  0  0
 11 10  2  0  0  0  0
 11 21  1  0  0  0  0
 12 11  1  0  0  0  0
 13 12  1  0  0  0  0
 14 15  1  0  0  0  0
 14 13  1  0  0  0  0
 15 37  1  0  0  0  0
 16 14  2  0  0  0  0
 17 18  2  0  0  0  0
 17 16  1  0  0  0  0
 18 19  1  0  0  0  0
 19 20  1  0  0  0  0
 19 13  2  0  0  0  0
 20 43  1  0  0  0  0
 21 22  2  0  0  0  0
 22 46  1  0  0  0  0
 22 23  1  0  0  0  0
 23 47  1  0  0  0  0
 24 48  1  0  0  0  0
 24 23  2  0  0  0  0
 26  4  1  0  0  0  0
 28  6  1  0  0  0  0
 29  6  1  0  0  0  0
 31  8  1  0  0  0  0
 32  8  1  0  0  0  0
 34  9  1  0  0  0  0
 35  9  1  0  0  0  0
 36  9  1  0  0  0  0
 38 15  1  0  0  0  0
 39 16  1  0  0  0  0
 40 17  1  0  0  0  0
 41 18  1  0  0  0  0
 42 20  1  0  0  0  0
 44 20  1  0  0  0  0
 45 21  1  0  0  0  0
M  END
