1,3,5
q = -1.0, confidence = 0.052

 57 63  0  0  1  0  0  0  0  0999 V2000
    2.0072   -0.9090    0.0101 N   0  0  0  0  0  2  0  0  0  0  0  0
    3.7026    0.5620   -0.0527 N   0  0  0  0  0  0  0  0  0  0  0  0
   -2.0073   -0.9090    0.0100 N   0  0  0  0  0  2  0  0  0  0  0  0
   -3.7026    0.5620   -0.0528 N   0  0  0  0  0  0  0  0  0  0  0  0
   -0.0000    0.6731   -0.0382 C   0  0  0  0  0  2  0  0  0  0  0  0
    1.2397    1.3718   -0.0863 C   0  0  0  0  0  0  0  0  0  0  0  0
    1.2318    2.7778   -0.2142 C   0  0  0  0  0  0  0  0  0  0  0  0
    2.1682    3.3494   -0.2754 H   0  0  0  0  0  0  0  0  0  0  0  0
   -0.0000    3.4563   -0.2792 C   0  0  0  0  0  0  0  0  0  0  0  0
   -0.0001    4.5509   -0.3876 H   0  0  0  0  0  0  0  0  0  0  0  0
   -1.2319    2.7778   -0.2143 C   0  0  0  0  0  0  0  0  0  0  0  0
   -2.1683    3.3494   -0.2755 H   0  0  0  0  0  0  0  0  0  0  0  0
   -1.2397    1.3718   -0.0864 C   0  0  0  0  0  0  0  0  0  0  0  0
    2.3311    0.4120   -0.0304 C   0  0  1  0  0  3  0  0  0  0  0  0
    3.1862   -1.6371    0.0047 C   0  0  0  0  0  0  0  0  0  0  0  0
    3.4140   -3.0244    0.0409 C   0  0  0  0  0  0  0  0  0  0  0  0
    2.5529   -3.7103    0.0709 H   0  0  0  0  0  0  0  0  0  0  0  0
    4.7475   -3.4484    0.0385 C   0  0  0  0  0  0  0  0  0  0  0  0
    4.9670   -4.5262    0.0645 H   0  0  0  0  0  0  0  0  0  0  0  0
    5.8244   -2.5283    0.0079 C   0  0  0  0  0  0  0  0  0  0  0  0
    6.8573   -2.9073    0.0133 H   0  0  0  0  0  0  0  0  0  0  0  0
    5.6078   -1.1437   -0.0271 C   0  0  0  0  0  0  0  0  0  0  0  0
    6.4403   -0.4263   -0.0451 H   0  0  0  0  0  0  0  0  0  0  0  0
    4.2720   -0.7178   -0.0365 C   0  0  0  0  0  0  0  0  0  0  0  0
    4.4341    1.7858   -0.0118 C   0  0  0  0  0  0  0  0  0  0  0  0
    5.2829    2.1233   -1.0805 C   0  0  0  0  0  0  0  0  0  0  0  0
    5.3537    1.4499   -1.9469 H   0  0  0  0  0  0  0  0  0  0  0  0
    6.0147    3.3186   -1.0295 C   0  0  0  0  0  0  0  0  0  0  0  0
    6.6777    3.5861   -1.8658 H   0  0  0  0  0  0  0  0  0  0  0  0
    5.8927    4.1756    0.0760 C   0  0  0  0  0  0  0  0  0  0  0  0
    6.4639    5.1153    0.1095 H   0  0  0  0  0  0  0  0  0  0  0  0
    5.0434    3.8314    1.1405 C   0  0  0  0  0  0  0  0  0  0  0  0
    4.9505    4.4972    2.0114 H   0  0  0  0  0  0  0  0  0  0  0  0
    4.3192    2.6317    1.1060 C   0  0  0  0  0  0  0  0  0  0  0  0
    3.6586    2.3422    1.9360 H   0  0  0  0  0  0  0  0  0  0  0  0
   -2.3311    0.4120   -0.0305 C   0  0  0  0  0  0  0  0  0  0  0  0
   -4.2721   -0.7177   -0.0365 C   0  0  0  0  0  0  0  0  0  0  0  0
   -5.6078   -1.1436   -0.0270 C   0  0  0  0  0  0  0  0  0  0  0  0
   -6.4403   -0.4262   -0.0451 H   0  0  0  0  0  0  0  0  0  0  0  0
   -5.8245   -2.5282    0.0079 C   0  0  0  0  0  0  0  0  0  0  0  0
   -6.8574   -2.9072    0.0134 H   0  0  0  0  0  0  0  0  0  0  0  0
   -4.7476   -3.4484    0.0386 C   0  0  0  0  0  0  0  0  0  0  0  0
   -4.9672   -4.5262    0.0646 H   0  0  0  0  0  0  0  0  0  0  0  0
   -3.4141   -3.0244    0.0409 C   0  0  0  0  0  0  0  0  0  0  0  0
   -2.5530   -3.7103    0.0709 H   0  0  0  0  0  0  0  0  0  0  0  0
   -3.1863   -1.6371    0.0047 C   0  0  0  0  0  0  0  0  0  0  0  0
   -4.4340    1.7859   -0.0119 C   0  0  0  0  0  0  0  0  0  0  0  0
   -4.3191    2.6316    1.1060 C   0  0  0  0  0  0  0  0  0  0  0  0
   -3.6586    2.3420    1.9360 H   0  0  0  0  0  0  0  0  0  0  0  0
   -5.0433    3.8313    1.1406 C   0  0  0  0  0  0  0  0  0  0  0  0
   -4.9504    4.4971    2.0116 H   0  0  0  0  0  0  0  0  0  0  0  0
   -5.8924    4.1758    0.0760 C   0  0  0  0  0  0  0  0  0  0  0  0
   -6.4636    5.1155    0.1096 H   0  0  0  0  0  0  0  0  0  0  0  0
   -6.0144    3.3189   -1.0296 C   0  0  0  0  0  0  0  0  0  0  0  0
   -6.6774    3.5865   -1.8659 H   0  0  0  0  0  0  0  0  0  0  0  0
   -5.2827    2.1235   -1.0806 C   0  0  0  0  0  0  0  0  0  0  0  0
   -5.3535    1.4502   -1.9471 H   0  0  0  0  0  0  0  0  0  0  0  0
  2 24  1  0  0  0  0
  2 14  1  0  0  0  0
  2 25  1  0  0  0  0
  4 37  1  0  0  0  0
  4 36  1  0  0  0  0
  4 47  1  0  0  0  0
  6  5  1  0  0  0  0
  7  6  2  0  0  0  0
  8  7  1  0  0  0  0
  9 11  2  0  0  0  0
  9  7  1  0  0  0  0
 10  9  1  0  0  0  0
 11 13  1  0  0  0  0
 12 11  1  0  0  0  0
 13  5  1  0  0  0  0
 13 36  2  0  0  0  0
 14  6  1  6  0  0  0
 14  1  1  0  0  0  0
 15  1  1  0  0  0  0
 15 16  1  0  0  0  0
 16 17  1  0  0  0  0
 18 16  2  0  0  0  0
 18 19  1  0  0  0  0
 20 21  1  0  0  0  0
 20 18  1  0  0  0  0
 22 20  2  0  0  0  0
 23 22  1  0  0  0  0
 24 22  1  0  0  0  0
 24 15  2  0  0  0  0
 25 34  1  0  0  0  0
 26 28  1  0  0  0  0
 26 25  2  0  0  0  0
 27 26  1  0  0  0  0
 28 30  2  0  0  0  0
 29 28  1  0  0  0  0
 30 31  1  0  0  0  0
 30 32  1  0  0  0  0
 32 33  1  0  0  0  0
 34 32  2  0  0  0  0
 34 35  1  0  0  0  0
 36  3  1  0  0  0  0
 37 38  2  0  0  0  0
 37 46  1  0  0  0  0
 38 40  1  0  0  0  0
 39 38  1  0  0  0  0
 40 41  1  0  0  0  0
 40 42  2  0  0  0  0
 42 44  1  0  0  0  0
 42 43  1  0  0  0  0
 44 45  1  0  0  0  0
 46  3  1  0  0  0  0
 46 44  2  0  0  0  0
 47 48  1  0  0  0  0
 48 50  2  0  0  0  0
 48 49  1  0  0  0  0
 50 51  1  0  0  0  0
 52 53  1  0  0  0  0
 52 50  1  0  0  0  0
 54 52  2  0  0  0  0
 55 54  1  0  0  0  0
 56 54  1  0  0  0  0
 56 47  2  0  0  0  0
 57 56  1  0  0  0  0
M  END
