3,4,41
q = 0.0, confidence = 0.972

 70 74  0  0  1  0  0  0  0  0999 V2000
    5.5866   -1.0639    0.6786 O   0  0  0  0  0  0  0  0  0  0  0  0
    4.3060   -1.7096    2.4417 O   0  0  0  0  0  0  0  0  0  0  0  0
   -1.5390   -0.0154    0.6085 N   0  0  0  0  0  2  0  0  0  0  0  0
   -1.4218   -2.3114   -0.7054 N   0  0  0  0  0  2  0  0  0  0  0  0
    3.1945    0.4288   -0.3016 N   0  0  0  0  0  0  0  0  0  0  0  0
    5.4266   -2.4555    2.9443 C   0  0  0  0  0  0  0  0  0  0  0  0
    5.7444   -3.2239    2.2121 H   0  0  0  0  0  0  0  0  0  0  0  0
    5.0795   -2.9296    3.8785 H   0  0  0  0  0  0  0  0  0  0  0  0
    6.2859   -1.7849    3.1438 H   0  0  0  0  0  0  0  0  0  0  0  0
   -1.2372    1.1293    1.3785 C   0  0  0  0  0  0  0  0  0  0  0  0
    0.1491    1.4398    1.4388 C   0  0  0  0  0  0  0  0  0  0  0  0
    0.5754    2.5359    2.2068 C   0  0  0  0  0  0  0  0  0  0  0  0
    1.6503    2.7640    2.2595 H   0  0  0  0  0  0  0  0  0  0  0  0
   -0.3495    3.3196    2.9109 C   0  0  0  0  0  0  0  0  0  0  0  0
   -0.0024    4.1740    3.5105 H   0  0  0  0  0  0  0  0  0  0  0  0
   -1.7164    2.9969    2.8650 C   0  0  0  0  0  0  0  0  0  0  0  0
   -2.4438    3.5934    3.4349 H   0  0  0  0  0  0  0  0  0  0  0  0
   -2.1653    1.9113    2.1067 C   0  0  0  0  0  0  0  0  0  0  0  0
   -3.2311    1.6612    2.1022 H   0  0  0  0  0  0  0  0  0  0  0  0
   -2.7122   -0.4737    0.2178 C   0  0  0  0  0  0  0  0  0  0  0  0
   -4.0127    0.2285    0.3773 C   0  0  0  0  0  0  0  0  0  0  0  0
   -4.2661    1.3839   -0.3936 C   0  0  0  0  0  0  0  0  0  0  0  0
   -3.5010    1.7474   -1.0967 H   0  0  0  0  0  0  0  0  0  0  0  0
   -5.4836    2.0636   -0.2564 C   0  0  0  0  0  0  0  0  0  0  0  0
   -5.6786    2.9615   -0.8614 H   0  0  0  0  0  0  0  0  0  0  0  0
   -6.4526    1.5998    0.6491 C   0  0  0  0  0  0  0  0  0  0  0  0
   -7.4058    2.1382    0.7577 H   0  0  0  0  0  0  0  0  0  0  0  0
   -6.2076    0.4466    1.4117 C   0  0  0  0  0  0  0  0  0  0  0  0
   -6.9657    0.0818    2.1205 H   0  0  0  0  0  0  0  0  0  0  0  0
   -4.9945   -0.2447    1.2738 C   0  0  0  0  0  0  0  0  0  0  0  0
   -4.7964   -1.1427    1.8787 H   0  0  0  0  0  0  0  0  0  0  0  0
   -1.3212   -3.5073   -1.3246 C   0  0  0  0  0  0  0  0  0  0  0  0
   -0.3039   -3.8990   -1.4578 H   0  0  0  0  0  0  0  0  0  0  0  0
   -2.4422   -4.2101   -1.7806 C   0  0  0  0  0  0  0  0  0  0  0  0
   -2.3019   -5.1812   -2.2757 H   0  0  0  0  0  0  0  0  0  0  0  0
   -3.7164   -3.6537   -1.6030 C   0  0  0  0  0  0  0  0  0  0  0  0
   -4.6151   -4.1754   -1.9623 H   0  0  0  0  0  0  0  0  0  0  0  0
   -3.8259   -2.4164   -0.9582 C   0  0  0  0  0  0  0  0  0  0  0  0
   -4.8030   -1.9402   -0.8012 H   0  0  0  0  0  0  0  0  0  0  0  0
   -2.6701   -1.7601   -0.4970 C   0  0  0  0  0  0  0  0  0  0  0  0
    1.1817    0.5695    0.7607 C   0  0  2  0  0  3  0  0  0  0  0  0
    2.1090   -0.2138    1.5715 C   0  0  0  0  0  0  0  0  0  0  0  0
    1.9045   -0.6312    2.5620 H   0  0  0  0  0  0  0  0  0  0  0  0
    3.3135   -0.2962    0.8953 C   0  0  0  0  0  0  0  0  0  0  0  0
    1.9503    0.9657   -0.4196 C   0  0  1  0  0  3  0  0  0  0  0  0
    4.2155    0.4394   -1.3675 C   0  0  0  0  0  0  0  0  0  0  0  0
    4.1636   -0.5440   -1.8817 H   0  0  0  0  0  0  0  0  0  0  0  0
    5.2045    0.4823   -0.8800 H   0  0  0  0  0  0  0  0  0  0  0  0
    3.9782    1.5775   -2.3466 C   0  0  0  0  0  0  0  0  0  0  0  0
    4.3150    2.5366   -1.9013 H   0  0  0  0  0  0  0  0  0  0  0  0
    4.6173    1.4063   -3.2354 H   0  0  0  0  0  0  0  0  0  0  0  0
    4.5263   -1.0441    1.2866 C   0  0  0  0  0  0  0  0  0  0  0  0
    1.5956    1.9506   -1.5253 C   0  0  0  0  0  0  0  0  0  0  0  0
    0.1028    1.7732   -1.9218 C   0  0  0  0  0  0  0  0  0  0  0  0
   -0.0362    0.7057   -2.2003 H   0  0  0  0  0  0  0  0  0  0  0  0
   -0.5152    1.9306   -1.0155 H   0  0  0  0  0  0  0  0  0  0  0  0
   -0.4443    2.6653   -3.0372 C   0  0  0  0  0  0  0  0  0  0  0  0
   -0.4893    3.7318   -2.7435 H   0  0  0  0  0  0  0  0  0  0  0  0
   -1.4797    2.3560   -3.2858 H   0  0  0  0  0  0  0  0  0  0  0  0
    0.1448    2.5935   -3.9728 H   0  0  0  0  0  0  0  0  0  0  0  0
    1.8622    3.3843   -0.9229 C   0  0  0  0  0  0  0  0  0  0  0  0
    0.9794    3.6501   -0.3056 H   0  0  0  0  0  0  0  0  0  0  0  0
    2.7087    3.3190   -0.2066 H   0  0  0  0  0  0  0  0  0  0  0  0
    2.1644    4.5184   -1.9067 C   0  0  0  0  0  0  0  0  0  0  0  0
    3.1244    4.3717   -2.4399 H   0  0  0  0  0  0  0  0  0  0  0  0
    2.2492    5.4743   -1.3524 H   0  0  0  0  0  0  0  0  0  0  0  0
    1.3765    4.6501   -2.6708 H   0  0  0  0  0  0  0  0  0  0  0  0
    2.5058    1.6601   -2.7411 C   0  0  0  0  0  0  0  0  0  0  0  0
    2.1875    0.6981   -3.1995 H   0  0  0  0  0  0  0  0  0  0  0  0
    2.3556    2.4389   -3.5117 H   0  0  0  0  0  0  0  0  0  0  0  0
  1 52  2  0  0  0  0
  2  6  1  0  0  0  0
  3 10  1  0  0  0  0
  4 40  1  0  0  0  0
  5 44  1  0  0  0  0
  6  9  1  0  0  0  0
  6  8  1  0  0  0  0
  7  6  1  0  0  0  0
 10 11  2  0  0  0  0
 10 18  1  0  0  0  0
 11 12  1  0  0  0  0
 12 13  1  0  0  0  0
 12 14  2  0  0  0  0
 14 15  1  0  0  0  0
 16 14  1  0  0  0  0
 16 17  1  0  0  0  0
 18 16  2  0  0  0  0
 19 18  1  0  0  0  0
 20 21  1  0  0  0  0
 20  3  1  0  0  0  0
 21 30  1  0  0  0  0
 22 24  1  0  0  0  0
 22 21  2  0  0  0  0
 23 22  1  0  0  0  0
 24 26  2  0  0  0  0
 25 24  1  0  0  0  0
 26 27  1  0  0  0  0
 26 28  1  0  0  0  0
 28 29  1  0  0  0  0
 30 28  2  0  0  0  0
 30 31  1  0  0  0  0
 32  4  1  0  0  0  0
 33 32  1  0  0  0  0
 34 36  1  0  0  0  0
 34 32  2  0  0  0  0
 35 34  1  0  0  0  0
 36 38  2  0  0  0  0
 37 36  1  0  0  0  0
 38 39  1  0  0  0  0
 38 40  1  0  0  0  0
 40 20  2  0  0  0  0
 41 11  1  1  0  0  0
 41 42  1  0  0  0  0
 42 43  1  0  0  0  0
 44 52  1  0  0  0  0
 44 42  2  0  0  0  0
 45 53  1  1  0  0  0
 45  5  1  0  0  0  0
 45 41  1  0  0  0  0
 46 48  1  0  0  0  0
 46  5  1  0  0  0  0
 47 46  1  0  0  0  0
 49 50  1  0  0  0  0
 49 46  1  0  0  0  0
 51 49  1  0  0  0  0
 52  2  1  0  0  0  0
 53 61  1  0  0  0  0
 54 53  1  0  0  0  0
 54 56  1  0  0  0  0
 55 54  1  0  0  0  0
 57 58  1  0  0  0  0
 57 54  1  0  0  0  0
 59 57  1  0  0  0  0
 60 57  1  0  0  0  0
 61 62  1  0  0  0  0
 61 63  1  0  0  0  0
 64 66  1  0  0  0  0
 64 61  1  0  0  0  0
 65 64  1  0  0  0  0
 67 64  1  0  0  0  0
 68 49  1  0  0  0  0
 68 53  1  0  0  0  0
 69 68  1  0  0  0  0
 70 68  1  0  0  0  0
M  END
