4,5,6
q = -1.0

 36 36  0  0  0  0  0  0  0  0999 V2000
   -6.1736   -1.1185   -0.1557 O   0  0  0  0  0  0  0  0  0  0  0  0
   -7.1360   -0.9315   -0.1307 H   0  0  0  0  0  0  0  0  0  0  0  0
   -6.2379    1.1204    0.1530 O   0  0  0  0  0  0  0  0  0  0  0  0
    0.3241    2.1150   -0.0499 N   0  0  0  0  0  0  0  0  0  0  0  0
    0.2978   -2.1084    0.0507 N   0  0  0  0  0  0  0  0  0  0  0  0
   -1.3168    0.0134    0.0018 C   0  0  0  0  0  3  0  0  0  0  0  0
   -2.0088   -1.1997   -0.1912 C   0  0  0  0  0  0  0  0  0  0  0  0
   -3.4080   -1.1943   -0.1767 C   0  0  0  0  0  0  0  0  0  0  0  0
   -3.9896   -2.1172   -0.3177 H   0  0  0  0  0  0  0  0  0  0  0  0
   -4.0984    0.0304    0.0040 C   0  0  0  0  0  0  0  0  0  0  0  0
   -3.3905    1.2448    0.1837 C   0  0  0  0  0  0  0  0  0  0  0  0
   -3.9794    2.1646    0.3240 H   0  0  0  0  0  0  0  0  0  0  0  0
   -1.9933    1.2358    0.1963 C   0  0  0  0  0  0  0  0  0  0  0  0
   -1.0684    2.3857    0.4979 C   0  0  0  0  0  0  0  0  0  0  0  0
   -0.9527    2.4830    1.5975 H   0  0  0  0  0  0  0  0  0  0  0  0
   -1.4252    3.3675    0.1157 H   0  0  0  0  0  0  0  0  0  0  0  0
   -1.0987   -2.3609   -0.4950 C   0  0  0  0  0  0  0  0  0  0  0  0
   -0.9854   -2.4591   -1.5948 H   0  0  0  0  0  0  0  0  0  0  0  0
   -1.4667   -3.3388   -0.1128 H   0  0  0  0  0  0  0  0  0  0  0  0
    1.2764   -2.9061   -0.7268 C   0  0  0  0  0  0  0  0  0  0  0  0
    2.2881   -2.7332   -0.3171 H   0  0  0  0  0  0  0  0  0  0  0  0
    1.2685   -2.5679   -1.7786 H   0  0  0  0  0  0  0  0  0  0  0  0
    1.0120   -3.9856   -0.6728 H   0  0  0  0  0  0  0  0  0  0  0  0
    0.3569   -2.5093    1.4820 C   0  0  0  0  0  0  0  0  0  0  0  0
    0.1919   -3.6063    1.5746 H   0  0  0  0  0  0  0  0  0  0  0  0
   -0.4235   -1.9671    2.0455 H   0  0  0  0  0  0  0  0  0  0  0  0
    1.3497   -2.2417    1.8873 H   0  0  0  0  0  0  0  0  0  0  0  0
    0.3860    2.5160   -1.4811 C   0  0  0  0  0  0  0  0  0  0  0  0
    0.2344    3.6149   -1.5728 H   0  0  0  0  0  0  0  0  0  0  0  0
   -0.4022    1.9841   -2.0437 H   0  0  0  0  0  0  0  0  0  0  0  0
    1.3747    2.2363   -1.8882 H   0  0  0  0  0  0  0  0  0  0  0  0
    1.3139    2.9001    0.7264 C   0  0  0  0  0  0  0  0  0  0  0  0
    2.3227    2.7152    0.3147 H   0  0  0  0  0  0  0  0  0  0  0  0
    1.3037    2.5615    1.7780 H   0  0  0  0  0  0  0  0  0  0  0  0
    1.0626    3.9827    0.6736 H   0  0  0  0  0  0  0  0  0  0  0  0
   -5.5815    0.0988    0.0126 C   0  0  0  0  0  0  0  0  0  0  0  0
  1  2  1  0  0  0  0
  1 36  1  0  0  0  0
  4 14  1  0  0  0  0
  4 32  1  0  0  0  0
  5 24  1  0  0  0  0
  6 13  1  0  0  0  0
  7  8  1  0  0  0  0
  7  6  2  0  0  0  0
  8 10  2  0  0  0  0
  9  8  1  0  0  0  0
 10 36  1  0  0  0  0
 10 11  1  0  0  0  0
 11 13  2  0  0  0  0
 11 12  1  0  0  0  0
 13 14  1  0  0  0  0
 14 15  1  0  0  0  0
 16 14  1  0  0  0  0
 17  7  1  0  0  0  0
 17 19  1  0  0  0  0
 17  5  1  0  0  0  0
 18 17  1  0  0  0  0
 20 23  1  0  0  0  0
 20 21  1  0  0  0  0
 20  5  1  0  0  0  0
 22 20  1  0  0  0  0
 24 25  1  0  0  0  0
 24 27  1  0  0  0  0
 24 26  1  0  0  0  0
 28  4  1  0  0  0  0
 29 28  1  0  0  0  0
 30 28  1  0  0  0  0
 31 28  1  0  0  0  0
 32 34  1  0  0  0  0
 33 32  1  0  0  0  0
 35 32  1  0  0  0  0
 36  3  2  0  0  0  0
M  END
