2,6,21
q = -1.0

 37 41  0  0  1  0  0  0  0  0999 V2000
    5.2015    0.0001   -0.0004 Br  0  0  0  0  0  0  0  0  0  0  0  0
   -1.6041    1.9828    0.5064 N   0  0  0  0  0  2  0  0  0  0  0  0
   -2.6865    2.5781    1.0678 C   0  0  0  0  0  3  0  0  0  0  0  0
    0.5527    2.4157   -0.5255 N   0  0  0  0  0  0  0  0  0  0  0  0
   -2.8713    3.9719    1.0581 C   0  0  0  0  0  0  0  0  0  0  0  0
   -1.6037   -1.9831   -0.5066 N   0  0  0  0  0  2  0  0  0  0  0  0
   -1.9461    4.8135    0.4286 C   0  0  0  0  0  0  0  0  0  0  0  0
    0.5528   -2.4153    0.5262 N   0  0  0  0  0  0  0  0  0  0  0  0
   -0.7978    4.2205   -0.1228 C   0  0  0  0  0  0  0  0  0  0  0  0
    0.3829    4.6776   -0.8038 C   0  0  0  0  0  0  0  0  0  0  0  0
    1.1705    3.5685   -1.0244 C   0  0  0  0  0  0  0  0  0  0  0  0
   -0.6690    2.7990   -0.0074 C   0  0  0  0  0  0  0  0  0  0  0  0
   -2.6856   -2.5787   -1.0684 C   0  0  0  0  0  3  0  0  0  0  0  0
   -2.8703   -3.9726   -1.0583 C   0  0  0  0  0  0  0  0  0  0  0  0
   -1.9453   -4.8138   -0.4279 C   0  0  0  0  0  0  0  0  0  0  0  0
   -0.7973   -4.2205    0.1237 C   0  0  0  0  0  0  0  0  0  0  0  0
    0.3831   -4.6771    0.8055 C   0  0  0  0  0  0  0  0  0  0  0  0
    1.1704   -3.5678    1.0260 C   0  0  0  0  0  0  0  0  0  0  0  0
   -0.6687   -2.7990    0.0079 C   0  0  0  0  0  0  0  0  0  0  0  0
    1.1978   -1.1688    0.2721 C   0  0  0  0  0  0  0  0  0  0  0  0
    0.4390    0.0001    0.0001 C   0  0  0  0  0  2  0  0  0  0  0  0
    1.1978    1.1691   -0.2718 C   0  0  2  0  0  3  0  0  0  0  0  0
    2.6087    1.1878   -0.2446 C   0  0  0  0  0  0  0  0  0  0  0  0
    3.2984    0.0001   -0.0001 C   0  0  0  0  0  0  0  0  0  0  0  0
    2.6088   -1.1875    0.2445 C   0  0  0  0  0  0  0  0  0  0  0  0
   -3.4472    1.8926    1.4631 H   0  0  0  0  0  0  0  0  0  0  0  0
   -3.7792    4.3788    1.5246 H   0  0  0  0  0  0  0  0  0  0  0  0
   -2.1069    5.9006    0.3748 H   0  0  0  0  0  0  0  0  0  0  0  0
    0.6157    5.7033   -1.1081 H   0  0  0  0  0  0  0  0  0  0  0  0
    2.1386    3.4955   -1.5277 H   0  0  0  0  0  0  0  0  0  0  0  0
   -3.4463   -1.8935   -1.4645 H   0  0  0  0  0  0  0  0  0  0  0  0
   -3.7779   -4.3798   -1.5251 H   0  0  0  0  0  0  0  0  0  0  0  0
   -2.1060   -5.9009   -0.3738 H   0  0  0  0  0  0  0  0  0  0  0  0
    0.6159   -5.7026    1.1104 H   0  0  0  0  0  0  0  0  0  0  0  0
    2.1383   -3.4944    1.5297 H   0  0  0  0  0  0  0  0  0  0  0  0
    3.1692    2.1196   -0.3832 H   0  0  0  0  0  0  0  0  0  0  0  0
    3.1692   -2.1193    0.3831 H   0  0  0  0  0  0  0  0  0  0  0  0
  1 24  1  0  0  0  0
  2  3  1  0  0  0  0
  3 26  1  0  0  0  0
  4 12  1  0  0  0  0
  5  3  1  0  0  0  0
  5 27  1  0  0  0  0
  6 19  1  0  0  0  0
  7  5  2  0  0  0  0
  8 18  1  0  0  0  0
  9 12  2  0  0  0  0
  9  7  1  0  0  0  0
 10  9  1  0  0  0  0
 11 10  2  0  0  0  0
 11  4  1  0  0  0  0
 12  2  1  0  0  0  0
 13 14  1  0  0  0  0
 13  6  1  0  0  0  0
 14 15  2  0  0  0  0
 15 33  1  0  0  0  0
 15 16  1  0  0  0  0
 16 17  1  0  0  0  0
 17 18  2  0  0  0  0
 17 34  1  0  0  0  0
 18 35  1  0  0  0  0
 19 16  2  0  0  0  0
 19  8  1  0  0  0  0
 20  8  1  0  0  0  0
 21 20  1  0  0  0  0
 22  4  1  1  0  0  0
 22 23  1  0  0  0  0
 22 21  1  0  0  0  0
 23 24  2  0  0  0  0
 24 25  1  0  0  0  0
 25 20  2  0  0  0  0
 25 37  1  0  0  0  0
 28  7  1  0  0  0  0
 29 10  1  0  0  0  0
 30 11  1  0  0  0  0
 31 13  1  0  0  0  0
 32 14  1  0  0  0  0
 36 23  1  0  0  0  0
M  END
