2,3,14
q = -1.0, confidence = 0.07

 73 76  0  0  0  0  0  0  0  0999 V2000
    0.0653    1.0900   -1.3429 O   0  0  0  0  0  0  0  0  0  0  0  0
    0.6177    0.4454    2.1085 N   0  0  0  0  0  2  0  0  0  0  0  0
   -0.6024   -1.6732    0.7706 N   0  0  0  0  0  0  0  0  0  0  0  0
   -3.9085    0.9273   -0.0464 N   0  0  0  0  0  0  0  0  0  0  0  0
    1.2428    1.5879    2.4534 C   0  0  0  0  0  3  0  0  0  0  0  0
    2.5969    1.6048    2.8046 C   0  0  0  0  0  0  0  0  0  0  0  0
    3.3181    0.4021    2.7794 C   0  0  0  0  0  0  0  0  0  0  0  0
    2.6597   -0.7817    2.4188 C   0  0  0  0  0  0  0  0  0  0  0  0
    1.2991   -0.7260    2.0912 C   0  0  0  0  0  0  0  0  0  0  0  0
    0.4630   -1.9413    1.7799 C   0  0  0  0  0  0  0  0  0  0  0  0
   -1.6840   -2.6959    0.9337 C   0  0  0  0  0  0  0  0  0  0  0  0
   -2.8059   -2.6225   -0.0979 C   0  0  0  0  0  0  0  0  0  0  0  0
   -3.4651   -1.2826   -0.2158 C   0  0  0  0  0  0  0  0  0  0  0  0
   -2.9961   -0.0606    0.2846 C   0  0  0  0  0  3  0  0  0  0  0  0
   -4.9684    0.3930   -0.7451 C   0  0  0  0  0  0  0  0  0  0  0  0
   -6.1224    0.9960   -1.2740 C   0  0  0  0  0  0  0  0  0  0  0  0
   -7.0361    0.1755   -1.9478 C   0  0  0  0  0  0  0  0  0  0  0  0
   -6.8069   -1.2151   -2.0917 C   0  0  0  0  0  0  0  0  0  0  0  0
   -5.6590   -1.8165   -1.5636 C   0  0  0  0  0  0  0  0  0  0  0  0
   -4.7185   -1.0162   -0.8768 C   0  0  0  0  0  0  0  0  0  0  0  0
   -0.0548   -1.7336   -0.6394 C   0  0  0  0  0  0  0  0  0  0  0  0
    1.2280   -0.9834   -0.8777 C   0  0  0  0  0  0  0  0  0  0  0  0
    1.2234    0.3961   -1.2102 C   0  0  0  0  0  0  0  0  0  0  0  0
    2.4545    1.0753   -1.4593 C   0  0  0  0  0  0  0  0  0  0  0  0
    3.6361    0.3250   -1.3632 C   0  0  0  0  0  0  0  0  0  0  0  0
    3.6775   -1.0526   -1.0527 C   0  0  0  0  0  0  0  0  0  0  0  0
    2.4509   -1.6844   -0.8243 C   0  0  0  0  0  0  0  0  0  0  0  0
    2.4785    2.5772   -1.8078 C   0  0  0  0  0  0  0  0  0  0  0  0
    1.6866    2.8249   -3.1141 C   0  0  0  0  0  0  0  0  0  0  0  0
    1.8642    3.3942   -0.6456 C   0  0  0  0  0  0  0  0  0  0  0  0
    3.9139    3.0897   -2.0284 C   0  0  0  0  0  0  0  0  0  0  0  0
    5.0290   -1.7857   -0.9970 C   0  0  0  0  0  0  0  0  0  0  0  0
    5.7045   -1.7145   -2.3856 C   0  0  0  0  0  0  0  0  0  0  0  0
    4.8668   -3.2659   -0.6116 C   0  0  0  0  0  0  0  0  0  0  0  0
    5.9410   -1.1089    0.0512 C   0  0  0  0  0  0  0  0  0  0  0  0
   -0.6197    0.7801   -0.6769 H   0  0  0  0  0  0  0  0  0  0  0  0
   -3.7836    1.8933    0.2663 H   0  0  0  0  0  0  0  0  0  0  0  0
    0.6100    2.4903    2.4246 H   0  0  0  0  0  0  0  0  0  0  0  0
    3.0771    2.5544    3.0792 H   0  0  0  0  0  0  0  0  0  0  0  0
    4.3896    0.3856    3.0286 H   0  0  0  0  0  0  0  0  0  0  0  0
    3.1959   -1.7400    2.3730 H   0  0  0  0  0  0  0  0  0  0  0  0
   -0.0567   -2.2442    2.7137 H   0  0  0  0  0  0  0  0  0  0  0  0
    1.0983   -2.7969    1.4632 H   0  0  0  0  0  0  0  0  0  0  0  0
   -1.2076   -3.7038    0.8896 H   0  0  0  0  0  0  0  0  0  0  0  0
   -2.0965   -2.5518    1.9522 H   0  0  0  0  0  0  0  0  0  0  0  0
   -2.4356   -2.9793   -1.0864 H   0  0  0  0  0  0  0  0  0  0  0  0
   -3.5531   -3.3876    0.2096 H   0  0  0  0  0  0  0  0  0  0  0  0
   -6.3003    2.0762   -1.1626 H   0  0  0  0  0  0  0  0  0  0  0  0
   -7.9485    0.6201   -2.3735 H   0  0  0  0  0  0  0  0  0  0  0  0
   -7.5460   -1.8294   -2.6284 H   0  0  0  0  0  0  0  0  0  0  0  0
   -5.4921   -2.8988   -1.6829 H   0  0  0  0  0  0  0  0  0  0  0  0
    0.1112   -2.8094   -0.8747 H   0  0  0  0  0  0  0  0  0  0  0  0
   -0.8618   -1.3575   -1.2973 H   0  0  0  0  0  0  0  0  0  0  0  0
    4.5879    0.8405   -1.5456 H   0  0  0  0  0  0  0  0  0  0  0  0
    2.4140   -2.7611   -0.6025 H   0  0  0  0  0  0  0  0  0  0  0  0
    1.7168    3.9031   -3.3750 H   0  0  0  0  0  0  0  0  0  0  0  0
    2.1348    2.2578   -3.9555 H   0  0  0  0  0  0  0  0  0  0  0  0
    0.6294    2.5219   -3.0117 H   0  0  0  0  0  0  0  0  0  0  0  0
    2.4680    3.2675    0.2761 H   0  0  0  0  0  0  0  0  0  0  0  0
    1.8610    4.4735   -0.9032 H   0  0  0  0  0  0  0  0  0  0  0  0
    0.8245    3.0894   -0.4267 H   0  0  0  0  0  0  0  0  0  0  0  0
    4.5436    2.9737   -1.1225 H   0  0  0  0  0  0  0  0  0  0  0  0
    4.4179    2.5740   -2.8710 H   0  0  0  0  0  0  0  0  0  0  0  0
    3.8824    4.1703   -2.2727 H   0  0  0  0  0  0  0  0  0  0  0  0
    5.8797   -0.6668   -2.7009 H   0  0  0  0  0  0  0  0  0  0  0  0
    6.6862   -2.2320   -2.3709 H   0  0  0  0  0  0  0  0  0  0  0  0
    5.0706   -2.1958   -3.1572 H   0  0  0  0  0  0  0  0  0  0  0  0
    4.2497   -3.8192   -1.3478 H   0  0  0  0  0  0  0  0  0  0  0  0
    5.8591   -3.7584   -0.5723 H   0  0  0  0  0  0  0  0  0  0  0  0
    4.3979   -3.3829    0.3874 H   0  0  0  0  0  0  0  0  0  0  0  0
    5.4886   -1.1609    1.0624 H   0  0  0  0  0  0  0  0  0  0  0  0
    6.9299   -1.6109    0.0909 H   0  0  0  0  0  0  0  0  0  0  0  0
    6.1156   -0.0401   -0.1831 H   0  0  0  0  0  0  0  0  0  0  0  0
  1 23  1  0  0  0  0
  1 36  1  0  0  0  0
  2  5  1  0  0  0  0
  3 11  1  0  0  0  0
  3 10  1  0  0  0  0
  4 37  1  0  0  0  0
  4 14  1  0  0  0  0
  5  6  1  0  0  0  0
  6 39  1  0  0  0  0
  7  6  2  0  0  0  0
  7 40  1  0  0  0  0
  8  7  1  0  0  0  0
  9  2  1  0  0  0  0
  9  8  2  0  0  0  0
 10  9  1  0  0  0  0
 10 42  1  0  0  0  0
 11 45  1  0  0  0  0
 12 47  1  0  0  0  0
 12 11  1  0  0  0  0
 13 12  1  0  0  0  0
 13 14  2  0  0  0  0
 15  4  1  0  0  0  0
 16 48  1  0  0  0  0
 16 15  2  0  0  0  0
 17 16  1  0  0  0  0
 18 17  2  0  0  0  0
 18 19  1  0  0  0  0
 19 20  2  0  0  0  0
 20 15  1  0  0  0  0
 20 13  1  0  0  0  0
 21  3  1  0  0  0  0
 22 27  1  0  0  0  0
 22 21  1  0  0  0  0
 23 22  2  0  0  0  0
 24 25  2  0  0  0  0
 24 23  1  0  0  0  0
 25 26  1  0  0  0  0
 26 32  1  0  0  0  0
 26 27  2  0  0  0  0
 27 55  1  0  0  0  0
 28 24  1  0  0  0  0
 28 30  1  0  0  0  0
 29 58  1  0  0  0  0
 29 28  1  0  0  0  0
 30 61  1  0  0  0  0
 30 59  1  0  0  0  0
 31 28  1  0  0  0  0
 31 62  1  0  0  0  0
 32 34  1  0  0  0  0
 32 35  1  0  0  0  0
 33 66  1  0  0  0  0
 33 32  1  0  0  0  0
 34 69  1  0  0  0  0
 34 70  1  0  0  0  0
 35 72  1  0  0  0  0
 35 71  1  0  0  0  0
 38  5  1  0  0  0  0
 41  8  1  0  0  0  0
 43 10  1  0  0  0  0
 44 11  1  0  0  0  0
 46 12  1  0  0  0  0
 49 17  1  0  0  0  0
 50 18  1  0  0  0  0
 51 19  1  0  0  0  0
 52 21  1  0  0  0  0
 53 21  1  0  0  0  0
 54 25  1  0  0  0  0
 56 29  1  0  0  0  0
 57 29  1  0  0  0  0
 60 30  1  0  0  0  0
 63 31  1  0  0  0  0
 64 31  1  0  0  0  0
 65 33  1  0  0  0  0
 67 33  1  0  0  0  0
 68 34  1  0  0  0  0
 73 35  1  0  0  0  0
M  END
