4,5,27
q = -1.0

 50 53  0  0  1  0  0  0  0  0999 V2000
    0.5302    3.9214    0.1341 O   0  0  0  0  0  0  0  0  0  0  0  0
    0.7573   -2.4811    0.4623 N   0  0  0  0  0  0  0  0  0  0  0  0
    1.2084   -3.1522    1.0868 H   0  0  0  0  0  0  0  0  0  0  0  0
    0.8868   -0.2899   -0.3640 N   0  0  0  0  0  2  0  0  0  0  0  0
   -0.7556    2.0665    0.0082 N   0  0  0  0  0  2  0  0  0  0  0  0
    1.4396   -1.3322    0.2582 C   0  0  1  0  0  3  0  0  0  0  0  0
    2.8163   -1.2993    0.8283 C   0  0  0  0  0  0  0  0  0  0  0  0
    3.2721   -0.1434    1.4990 C   0  0  0  0  0  0  0  0  0  0  0  0
    2.6091    0.7299    1.5777 H   0  0  0  0  0  0  0  0  0  0  0  0
    4.5494   -0.1173    2.0696 C   0  0  0  0  0  0  0  0  0  0  0  0
    4.8919    0.7861    2.5959 H   0  0  0  0  0  0  0  0  0  0  0  0
    5.3891   -1.2406    1.9785 C   0  0  0  0  0  0  0  0  0  0  0  0
    6.3943   -1.2154    2.4254 H   0  0  0  0  0  0  0  0  0  0  0  0
    4.9427   -2.3948    1.3166 C   0  0  0  0  0  0  0  0  0  0  0  0
    5.5989   -3.2743    1.2348 H   0  0  0  0  0  0  0  0  0  0  0  0
    3.6626   -2.4261    0.7458 C   0  0  0  0  0  0  0  0  0  0  0  0
    3.3279   -3.3217    0.1991 H   0  0  0  0  0  0  0  0  0  0  0  0
   -0.4628   -2.8916   -0.1221 C   0  0  0  0  0  0  0  0  0  0  0  0
   -0.6969   -4.2837   -0.1863 C   0  0  0  0  0  0  0  0  0  0  0  0
    0.0501   -4.9828    0.2256 H   0  0  0  0  0  0  0  0  0  0  0  0
   -1.8578   -4.7685   -0.7946 C   0  0  0  0  0  0  0  0  0  0  0  0
   -2.0380   -5.8525   -0.8475 H   0  0  0  0  0  0  0  0  0  0  0  0
   -2.7770   -3.8594   -1.3462 C   0  0  0  0  0  0  0  0  0  0  0  0
   -3.6898   -4.2300   -1.8381 H   0  0  0  0  0  0  0  0  0  0  0  0
   -2.5463   -2.4782   -1.2553 C   0  0  0  0  0  3  0  0  0  0  0  0
   -3.2892   -1.7700   -1.6501 H   0  0  0  0  0  0  0  0  0  0  0  0
   -1.3988   -1.9567   -0.6206 C   0  0  0  0  0  2  0  0  0  0  0  0
    1.7202    0.6272   -1.0328 C   0  0  0  0  0  0  0  0  0  0  0  0
    2.7996    0.1486   -1.8140 C   0  0  0  0  0  0  0  0  0  0  0  0
    2.9243   -0.9376   -1.9223 H   0  0  0  0  0  0  0  0  0  0  0  0
    3.6868    1.0213   -2.4477 C   0  0  0  0  0  0  0  0  0  0  0  0
    4.5122    0.6114   -3.0491 H   0  0  0  0  0  0  0  0  0  0  0  0
    3.5191    2.4114   -2.3261 C   0  0  0  0  0  0  0  0  0  0  0  0
    4.2152    3.1052   -2.8192 H   0  0  0  0  0  0  0  0  0  0  0  0
    2.4390    2.9049   -1.5905 C   0  0  0  0  0  3  0  0  0  0  0  0
    2.2737    3.9869   -1.4961 H   0  0  0  0  0  0  0  0  0  0  0  0
    1.5189    2.0368   -0.9601 C   0  0  0  0  0  0  0  0  0  0  0  0
    0.3852    2.6297   -0.2498 C   0  0  0  0  0  0  0  0  0  0  0  0
   -0.7343    4.3349    0.7008 C   0  0  0  0  0  0  0  0  0  0  0  0
   -1.1562    5.1317    0.0537 H   0  0  0  0  0  0  0  0  0  0  0  0
   -0.5389    4.7520    1.7087 H   0  0  0  0  0  0  0  0  0  0  0  0
   -1.6178    3.0485    0.7270 C   0  0  0  0  0  0  0  0  0  0  0  0
   -2.9270    3.2606   -0.0407 C   0  0  0  0  0  0  0  0  0  0  0  0
   -3.4686    2.3019   -0.1376 H   0  0  0  0  0  0  0  0  0  0  0  0
   -2.7200    3.6415   -1.0610 H   0  0  0  0  0  0  0  0  0  0  0  0
   -3.5623    3.9995    0.4890 H   0  0  0  0  0  0  0  0  0  0  0  0
   -1.8558    2.5507    2.1590 C   0  0  0  0  0  0  0  0  0  0  0  0
   -0.8918    2.4640    2.7009 H   0  0  0  0  0  0  0  0  0  0  0  0
   -2.3389    1.5526    2.1630 H   0  0  0  0  0  0  0  0  0  0  0  0
   -2.4995    3.2687    2.7074 H   0  0  0  0  0  0  0  0  0  0  0  0
  1 39  1  0  0  0  0
  2  3  1  0  0  0  0
  5 42  1  0  0  0  0
  6  4  1  1  0  0  0
  6  2  1  0  0  0  0
  6  7  1  0  0  0  0
  7  8  1  0  0  0  0
  8  9  1  0  0  0  0
  8 10  2  0  0  0  0
 10 11  1  0  0  0  0
 12 10  1  0  0  0  0
 12 13  1  0  0  0  0
 14 12  2  0  0  0  0
 15 14  1  0  0  0  0
 16  7  2  0  0  0  0
 16 14  1  0  0  0  0
 17 16  1  0  0  0  0
 18  2  1  0  0  0  0
 19 18  2  0  0  0  0
 19 20  1  0  0  0  0
 21 19  1  0  0  0  0
 22 21  1  0  0  0  0
 23 25  1  0  0  0  0
 23 21  2  0  0  0  0
 24 23  1  0  0  0  0
 25 27  1  0  0  0  0
 26 25  1  0  0  0  0
 27 18  1  0  0  0  0
 28 37  1  0  0  0  0
 28  4  1  0  0  0  0
 29 28  2  0  0  0  0
 30 29  1  0  0  0  0
 31 33  2  0  0  0  0
 31 29  1  0  0  0  0
 32 31  1  0  0  0  0
 33 35  1  0  0  0  0
 34 33  1  0  0  0  0
 35 36  1  0  0  0  0
 35 37  1  0  0  0  0
 37 38  2  0  0  0  0
 38  5  1  0  0  0  0
 38  1  1  0  0  0  0
 39 42  1  0  0  0  0
 39 41  1  0  0  0  0
 40 39  1  0  0  0  0
 42 47  1  0  0  0  0
 43 46  1  0  0  0  0
 43 42  1  0  0  0  0
 44 43  1  0  0  0  0
 45 43  1  0  0  0  0
 47 49  1  0  0  0  0
 47 48  1  0  0  0  0
 47 50  1  0  0  0  0
M  END
