3,4,30
q = -1.0

 73 79  0  0  1  0  0  0  0  0999 V2000
    3.6968    2.3658    1.2290 O   0  0  0  0  0  0  0  0  0  0  0  0
   -5.6311    1.7707   -1.3636 O   0  0  0  0  0  0  0  0  0  0  0  0
    1.6963   -1.2424    0.3421 N   0  0  0  0  0  2  0  0  0  0  0  0
   -2.3062   -1.1682   -0.4414 N   0  0  0  0  0  2  0  0  0  0  0  0
    3.4113    0.2149    0.4332 N   0  0  0  0  0  0  0  0  0  0  0  0
   -3.9224    0.3811   -0.7100 N   0  0  0  0  0  0  0  0  0  0  0  0
    2.0333    0.0659    0.3085 C   0  0  1  0  0  3  0  0  0  0  0  0
    2.8643   -1.9773    0.5277 C   0  0  0  0  0  0  0  0  0  0  0  0
    3.0733   -3.3605    0.6690 C   0  0  0  0  0  0  0  0  0  0  0  0
    2.2155   -4.0482    0.6175 H   0  0  0  0  0  0  0  0  0  0  0  0
    4.3839   -3.7988    0.8840 C   0  0  0  0  0  0  0  0  0  0  0  0
    4.5747   -4.8762    0.9982 H   0  0  0  0  0  0  0  0  0  0  0  0
    5.4644   -2.8917    0.9715 C   0  0  0  0  0  0  0  0  0  0  0  0
    6.4799   -3.2724    1.1568 H   0  0  0  0  0  0  0  0  0  0  0  0
    5.2727   -1.5106    0.8307 C   0  0  0  0  0  0  0  0  0  0  0  0
    6.1134   -0.8093    0.9068 H   0  0  0  0  0  0  0  0  0  0  0  0
    3.9615   -1.0741    0.5888 C   0  0  0  0  0  0  0  0  0  0  0  0
    4.1359    1.4536    0.5490 C   0  0  0  0  0  0  0  0  0  0  0  0
    5.4012    1.5418   -0.2268 C   0  0  0  0  0  0  0  0  0  0  0  0
    5.6206    0.7875   -1.4006 C   0  0  0  0  0  0  0  0  0  0  0  0
    4.8633    0.0667   -1.7407 H   0  0  0  0  0  0  0  0  0  0  0  0
    6.7969    0.9716   -2.1378 C   0  0  0  0  0  0  0  0  0  0  0  0
    6.9617    0.3908   -3.0573 H   0  0  0  0  0  0  0  0  0  0  0  0
    7.7624    1.8954   -1.7040 C   0  0  0  0  0  0  0  0  0  0  0  0
    8.6900    2.0301   -2.2811 H   0  0  0  0  0  0  0  0  0  0  0  0
    7.5450    2.6530   -0.5396 C   0  0  0  0  0  0  0  0  0  0  0  0
    8.3006    3.3793   -0.2048 H   0  0  0  0  0  0  0  0  0  0  0  0
    6.3635    2.4871    0.1906 C   0  0  0  0  0  0  0  0  0  0  0  0
    6.1599    3.0799    1.0944 H   0  0  0  0  0  0  0  0  0  0  0  0
   -0.2569    0.3493   -0.1212 C   0  0  0  0  0  2  0  0  0  0  0  0
    0.9736    1.0291    0.0460 C   0  0  0  0  0  0  0  0  0  0  0  0
    1.0055    2.4324   -0.0804 C   0  0  0  0  0  0  0  0  0  0  0  0
    1.9430    2.9740    0.0890 H   0  0  0  0  0  0  0  0  0  0  0  0
   -0.1618    3.1610   -0.4040 C   0  0  0  0  0  0  0  0  0  0  0  0
   -1.3793    2.4705   -0.5602 C   0  0  0  0  0  0  0  0  0  0  0  0
   -2.2855    3.0313   -0.8125 H   0  0  0  0  0  0  0  0  0  0  0  0
   -1.4416    1.0704   -0.3844 C   0  0  0  0  0  0  0  0  0  0  0  0
   -0.0720    4.6943   -0.5188 C   0  0  0  0  0  0  0  0  0  0  0  0
    1.0466    5.0822   -1.5113 C   0  0  0  0  0  0  0  0  0  0  0  0
    1.1169    6.1859   -1.5989 H   0  0  0  0  0  0  0  0  0  0  0  0
    0.8431    4.6689   -2.5199 H   0  0  0  0  0  0  0  0  0  0  0  0
    2.0388    4.7115   -1.1860 H   0  0  0  0  0  0  0  0  0  0  0  0
    0.2528    5.2680    0.8805 C   0  0  0  0  0  0  0  0  0  0  0  0
   -0.5466    5.0089    1.6045 H   0  0  0  0  0  0  0  0  0  0  0  0
    0.3366    6.3739    0.8374 H   0  0  0  0  0  0  0  0  0  0  0  0
    1.2088    4.8684    1.2742 H   0  0  0  0  0  0  0  0  0  0  0  0
   -1.3907    5.3168   -1.0088 C   0  0  0  0  0  0  0  0  0  0  0  0
   -2.2253    5.1295   -0.3044 H   0  0  0  0  0  0  0  0  0  0  0  0
   -1.6838    4.9283   -2.0054 H   0  0  0  0  0  0  0  0  0  0  0  0
   -1.2744    6.4155   -1.0994 H   0  0  0  0  0  0  0  0  0  0  0  0
   -2.5689    0.1567   -0.4778 C   0  0  0  0  0  0  0  0  0  0  0  0
   -3.4962   -1.8418   -0.7114 C   0  0  0  0  0  0  0  0  0  0  0  0
   -3.7836   -3.2143   -0.8088 C   0  0  0  0  0  0  0  0  0  0  0  0
   -2.9849   -3.9524   -0.6438 H   0  0  0  0  0  0  0  0  0  0  0  0
   -5.1016   -3.5777   -1.1063 C   0  0  0  0  0  0  0  0  0  0  0  0
   -5.3536   -4.6451   -1.1929 H   0  0  0  0  0  0  0  0  0  0  0  0
   -6.1139   -2.6104   -1.3034 C   0  0  0  0  0  0  0  0  0  0  0  0
   -7.1359   -2.9378   -1.5462 H   0  0  0  0  0  0  0  0  0  0  0  0
   -5.8433   -1.2379   -1.2130 C   0  0  0  0  0  0  0  0  0  0  0  0
   -6.6116   -0.4752   -1.3907 H   0  0  0  0  0  0  0  0  0  0  0  0
   -4.5225   -0.8783   -0.9158 C   0  0  0  0  0  0  0  0  0  0  0  0
   -4.6915    1.5926   -0.6070 C   0  0  0  0  0  0  0  0  0  0  0  0
   -4.3498    2.5236    0.5055 C   0  0  0  0  0  0  0  0  0  0  0  0
   -4.7872    3.8610    0.3858 C   0  0  0  0  0  0  0  0  0  0  0  0
   -5.3290    4.1557   -0.5247 H   0  0  0  0  0  0  0  0  0  0  0  0
   -4.5194    4.7813    1.4047 C   0  0  0  0  0  0  0  0  0  0  0  0
   -4.8455    5.8268    1.2998 H   0  0  0  0  0  0  0  0  0  0  0  0
   -3.8344    4.3685    2.5614 C   0  0  0  0  0  0  0  0  0  0  0  0
   -3.6223    5.0927    3.3625 H   0  0  0  0  0  0  0  0  0  0  0  0
   -3.4308    3.0307    2.7021 C   0  0  0  0  0  0  0  0  0  0  0  0
   -2.9133    2.7019    3.6153 H   0  0  0  0  0  0  0  0  0  0  0  0
   -3.6854    2.1079    1.6795 C   0  0  0  0  0  0  0  0  0  0  0  0
   -3.3739    1.0608    1.8020 H   0  0  0  0  0  0  0  0  0  0  0  0
  2 62  2  0  0  0  0
  3  8  1  0  0  0  0
  5 18  1  0  0  0  0
  5 17  1  0  0  0  0
  6 62  1  0  0  0  0
  6 51  1  0  0  0  0
  7 31  1  6  0  0  0
  7  3  1  0  0  0  0
  7  5  1  0  0  0  0
  8 17  2  0  0  0  0
  8  9  1  0  0  0  0
  9 11  2  0  0  0  0
 10  9  1  0  0  0  0
 11 13  1  0  0  0  0
 11 12  1  0  0  0  0
 13 14  1  0  0  0  0
 15 16  1  0  0  0  0
 15 13  2  0  0  0  0
 17 15  1  0  0  0  0
 18  1  2  0  0  0  0
 19 28  1  0  0  0  0
 19 18  1  0  0  0  0
 20 19  2  0  0  0  0
 21 20  1  0  0  0  0
 22 24  2  0  0  0  0
 22 20  1  0  0  0  0
 23 22  1  0  0  0  0
 24 26  1  0  0  0  0
 25 24  1  0  0  0  0
 26 27  1  0  0  0  0
 26 28  2  0  0  0  0
 28 29  1  0  0  0  0
 30 31  1  0  0  0  0
 32 31  2  0  0  0  0
 32 33  1  0  0  0  0
 34 32  1  0  0  0  0
 35 34  2  0  0  0  0
 35 37  1  0  0  0  0
 36 35  1  0  0  0  0
 37 30  1  0  0  0  0
 38 34  1  0  0  0  0
 38 43  1  0  0  0  0
 39 42  1  0  0  0  0
 39 38  1  0  0  0  0
 40 39  1  0  0  0  0
 41 39  1  0  0  0  0
 43 46  1  0  0  0  0
 43 44  1  0  0  0  0
 45 43  1  0  0  0  0
 47 38  1  0  0  0  0
 47 48  1  0  0  0  0
 49 47  1  0  0  0  0
 50 47  1  0  0  0  0
 51  4  1  0  0  0  0
 51 37  2  0  0  0  0
 52  4  1  0  0  0  0
 53 52  1  0  0  0  0
 53 54  1  0  0  0  0
 55 53  2  0  0  0  0
 56 55  1  0  0  0  0
 57 59  2  0  0  0  0
 57 55  1  0  0  0  0
 58 57  1  0  0  0  0
 59 61  1  0  0  0  0
 60 59  1  0  0  0  0
 61 52  2  0  0  0  0
 61  6  1  0  0  0  0
 62 63  1  0  0  0  0
 63 72  1  0  0  0  0
 64 63  2  0  0  0  0
 64 66  1  0  0  0  0
 65 64  1  0  0  0  0
 66 68  2  0  0  0  0
 67 66  1  0  0  0  0
 68 70  1  0  0  0  0
 68 69  1  0  0  0  0
 70 71  1  0  0  0  0
 72 73  1  0  0  0  0
 72 70  2  0  0  0  0
M  END
