2,3,4
q = -1.0, confidence = 0.002

 28 28  0  0  0  0  0  0  0  0999 V2000
   -5.0682    0.9004   -0.2238 Cl  0  0  0  0  0  0  0  0  0  0  0  0
    2.8391   -0.6534    0.0215 N   0  0  0  0  0  0  0  0  0  0  0  0
    0.6385   -2.4119    0.0118 N   0  0  0  0  0  2  0  0  0  0  0  0
   -1.3563   -0.6801   -0.0878 C   0  0  0  0  0  2  0  0  0  0  0  0
   -2.4295    0.2247   -0.1704 C   0  0  0  0  0  0  0  0  0  0  0  0
   -2.2404    1.3040   -0.2587 H   0  0  0  0  0  0  0  0  0  0  0  0
   -3.7541   -0.2482   -0.1339 C   0  0  0  0  0  0  0  0  0  0  0  0
   -4.0631   -1.6183   -0.0233 C   0  0  0  0  0  0  0  0  0  0  0  0
   -5.1118   -1.9434    0.0014 H   0  0  0  0  0  0  0  0  0  0  0  0
   -3.0105   -2.5349    0.0510 C   0  0  0  0  0  0  0  0  0  0  0  0
   -3.2298   -3.6118    0.1328 H   0  0  0  0  0  0  0  0  0  0  0  0
   -1.6720   -2.0894    0.0185 C   0  0  0  0  0  0  0  0  0  0  0  0
   -0.5313   -2.9868    0.0759 C   0  0  0  0  0  0  0  0  0  0  0  0
   -0.6451   -4.0862    0.1617 H   0  0  0  0  0  0  0  0  0  0  0  0
    1.9497   -3.0229    0.0049 C   0  0  0  0  0  0  0  0  0  0  0  0
    2.2336   -3.2608   -1.0453 H   0  0  0  0  0  0  0  0  0  0  0  0
    1.9885   -3.9792    0.5737 H   0  0  0  0  0  0  0  0  0  0  0  0
    2.9476   -2.0216    0.6125 C   0  0  0  0  0  0  0  0  0  0  0  0
    2.7265   -1.9170    1.6930 H   0  0  0  0  0  0  0  0  0  0  0  0
    3.9910   -2.4036    0.5127 H   0  0  0  0  0  0  0  0  0  0  0  0
    3.5129    0.3367    0.8826 C   0  0  0  0  0  0  0  0  0  0  0  0
    3.0576    0.3177    1.8903 H   0  0  0  0  0  0  0  0  0  0  0  0
    3.3596    1.3456    0.4568 H   0  0  0  0  0  0  0  0  0  0  0  0
    4.6050    0.1258    0.9643 H   0  0  0  0  0  0  0  0  0  0  0  0
    3.3972   -0.5968   -1.3417 C   0  0  0  0  0  0  0  0  0  0  0  0
    3.2388    0.4190   -1.7496 H   0  0  0  0  0  0  0  0  0  0  0  0
    2.8737   -1.3145   -1.9998 H   0  0  0  0  0  0  0  0  0  0  0  0
    4.4894   -0.8263   -1.3394 H   0  0  0  0  0  0  0  0  0  0  0  0
  1  7  1  0  0  0  0
  2 18  1  0  0  0  0
  2 21  1  0  0  0  0
  3 13  1  0  0  0  0
  4 12  1  0  0  0  0
  5  7  2  0  0  0  0
  5  4  1  0  0  0  0
  6  5  1  0  0  0  0
  7  8  1  0  0  0  0
  8  9  1  0  0  0  0
  8 10  2  0  0  0  0
 10 11  1  0  0  0  0
 12 10  1  0  0  0  0
 12 13  2  0  0  0  0
 13 14  1  0  0  0  0
 15  3  1  0  0  0  0
 15 17  1  0  0  0  0
 15 18  1  0  0  0  0
 16 15  1  0  0  0  0
 18 19  1  0  0  0  0
 20 18  1  0  0  0  0
 21 24  1  0  0  0  0
 21 22  1  0  0  0  0
 23 21  1  0  0  0  0
 25 28  1  0  0  0  0
 25  2  1  0  0  0  0
 26 25  1  0  0  0  0
 27 25  1  0  0  0  0
M  END
