4,5,6
q = -1.0

 32 34  0  0  0  0  0  0  0  0999 V2000
   -5.2778    1.0939   -0.5930 F   0  0  0  0  0  0  0  0  0  0  0  0
   -5.2096    0.0003    1.2903 F   0  0  0  0  0  0  0  0  0  0  0  0
   -5.2778   -1.0944   -0.5923 F   0  0  0  0  0  0  0  0  0  0  0  0
    1.1148    2.0175   -0.0006 N   0  0  0  0  0  2  0  0  0  0  0  0
    1.1148   -2.0175   -0.0006 N   0  0  0  0  0  2  0  0  0  0  0  0
   -0.4728   -0.0000   -0.0080 C   0  0  0  0  0  2  0  0  0  0  0  0
   -1.1521    1.2424   -0.0175 C   0  0  0  0  0  0  0  0  0  0  0  0
   -2.5571    1.2345   -0.0349 C   0  0  0  0  0  0  0  0  0  0  0  0
   -3.1407    2.1670   -0.0530 H   0  0  0  0  0  0  0  0  0  0  0  0
   -3.2431   -0.0000   -0.0411 C   0  0  0  0  0  0  0  0  0  0  0  0
   -2.5570   -1.2345   -0.0349 C   0  0  0  0  0  0  0  0  0  0  0  0
   -3.1407   -2.1671   -0.0530 H   0  0  0  0  0  0  0  0  0  0  0  0
   -1.1520   -1.2425   -0.0175 C   0  0  0  0  0  0  0  0  0  0  0  0
   -0.2257    2.3807   -0.0137 C   0  0  0  0  0  0  0  0  0  0  0  0
   -0.5739    3.7416   -0.0208 C   0  0  0  0  0  0  0  0  0  0  0  0
   -1.6368    4.0208   -0.0309 H   0  0  0  0  0  0  0  0  0  0  0  0
    0.4263    4.7202   -0.0146 C   0  0  0  0  0  0  0  0  0  0  0  0
    0.1558    5.7866   -0.0201 H   0  0  0  0  0  0  0  0  0  0  0  0
    1.7741    4.3255   -0.0012 C   0  0  0  0  0  0  0  0  0  0  0  0
    2.5891    5.0625    0.0041 H   0  0  0  0  0  0  0  0  0  0  0  0
    2.0802    2.9616    0.0054 C   0  0  0  0  0  3  0  0  0  0  0  0
    3.1093    2.5650    0.0153 H   0  0  0  0  0  0  0  0  0  0  0  0
   -0.2256   -2.3808   -0.0137 C   0  0  0  0  0  0  0  0  0  0  0  0
   -0.5738   -3.7417   -0.0208 C   0  0  0  0  0  0  0  0  0  0  0  0
   -1.6367   -4.0209   -0.0309 H   0  0  0  0  0  0  0  0  0  0  0  0
    0.4264   -4.7202   -0.0146 C   0  0  0  0  0  0  0  0  0  0  0  0
    0.1559   -5.7866   -0.0201 H   0  0  0  0  0  0  0  0  0  0  0  0
    1.7742   -4.3255   -0.0012 C   0  0  0  0  0  0  0  0  0  0  0  0
    2.5892   -5.0625    0.0041 H   0  0  0  0  0  0  0  0  0  0  0  0
    2.0802   -2.9615    0.0054 C   0  0  0  0  0  0  0  0  0  0  0  0
    3.1094   -2.5649    0.0153 H   0  0  0  0  0  0  0  0  0  0  0  0
   -4.7503   -0.0000    0.0111 C   0  0  0  0  0  0  0  0  0  0  0  0
  1 32  1  0  0  0  0
  3 32  1  0  0  0  0
  4 21  1  0  0  0  0
  5 30  1  0  0  0  0
  7 14  1  0  0  0  0
  7  6  1  0  0  0  0
  8  7  2  0  0  0  0
  9  8  1  0  0  0  0
 10  8  1  0  0  0  0
 10 11  2  0  0  0  0
 10 32  1  0  0  0  0
 11 13  1  0  0  0  0
 12 11  1  0  0  0  0
 13 23  2  0  0  0  0
 13  6  1  0  0  0  0
 14  4  1  0  0  0  0
 15 17  1  0  0  0  0
 15 14  2  0  0  0  0
 16 15  1  0  0  0  0
 17 19  2  0  0  0  0
 18 17  1  0  0  0  0
 19 20  1  0  0  0  0
 19 21  1  0  0  0  0
 21 22  1  0  0  0  0
 23  5  1  0  0  0  0
 24 26  2  0  0  0  0
 24 23  1  0  0  0  0
 25 24  1  0  0  0  0
 26 28  1  0  0  0  0
 27 26  1  0  0  0  0
 28 29  1  0  0  0  0
 28 30  2  0  0  0  0
 30 31  1  0  0  0  0
 32  2  1  0  0  0  0
M  END
