5,6,7
q = -1.0, confidence = 0.0

 49 51  0  0  1  0  0  0  0  0999 V2000
    0.1083   -2.4058   -0.5979 O   0  0  0  0  0  0  0  0  0  0  0  0
   -0.4564   -2.7312    0.1508 H   0  0  0  0  0  0  0  0  0  0  0  0
   -1.6435   -2.4364    1.4566 O   0  0  0  0  0  0  0  0  0  0  0  0
   -1.7232   -3.1185    2.1472 H   0  0  0  0  0  0  0  0  0  0  0  0
    1.9786   -0.3071   -0.1277 N   0  0  0  0  0  0  0  0  0  0  0  0
   -2.1180    0.4119   -0.0047 N   0  0  0  0  0  0  0  0  0  0  0  0
    0.2139    1.6449    0.0378 C   0  0  0  0  0  3  0  0  0  0  0  0
    1.5040    2.0930   -0.2987 C   0  0  0  0  0  0  0  0  0  0  0  0
    1.7428    3.4770   -0.2228 C   0  0  0  0  0  0  0  0  0  0  0  0
    2.7329    3.8938   -0.4652 H   0  0  0  0  0  0  0  0  0  0  0  0
    0.6952    4.3413    0.1575 C   0  0  0  0  0  0  0  0  0  0  0  0
    0.8882    5.4229    0.2071 H   0  0  0  0  0  0  0  0  0  0  0  0
   -0.5931    3.8616    0.4705 C   0  0  0  0  0  0  0  0  0  0  0  0
   -1.3864    4.5710    0.7535 H   0  0  0  0  0  0  0  0  0  0  0  0
   -0.8434    2.4786    0.4185 C   0  0  0  0  0  0  0  0  0  0  0  0
    2.4389    0.9944   -0.7617 C   0  0  0  0  0  0  0  0  0  0  0  0
    3.5062    1.1913   -0.5235 H   0  0  0  0  0  0  0  0  0  0  0  0
    2.3630    0.8614   -1.8615 H   0  0  0  0  0  0  0  0  0  0  0  0
    2.5886   -0.4492    1.2373 C   0  0  0  0  0  0  0  0  0  0  0  0
    1.9284   -1.0919    1.8499 H   0  0  0  0  0  0  0  0  0  0  0  0
    2.6167    0.5431    1.7243 H   0  0  0  0  0  0  0  0  0  0  0  0
    3.9680   -1.1038    0.9996 C   0  0  0  0  0  0  0  0  0  0  0  0
    4.7767   -0.3481    1.0057 H   0  0  0  0  0  0  0  0  0  0  0  0
    4.2034   -1.8211    1.8084 H   0  0  0  0  0  0  0  0  0  0  0  0
    3.8642   -1.7891   -0.3923 C   0  0  0  0  0  0  0  0  0  0  0  0
    4.5581   -1.3256   -1.1191 H   0  0  0  0  0  0  0  0  0  0  0  0
    4.1158   -2.8674   -0.3615 H   0  0  0  0  0  0  0  0  0  0  0  0
    2.4032   -1.5616   -0.8345 C   0  0  1  0  0  0  0  0  0  0  0  0
    2.2876   -1.3998   -1.9249 H   0  0  0  0  0  0  0  0  0  0  0  0
    1.4957   -2.7272   -0.3998 C   0  0  0  0  0  0  0  0  0  0  0  0
    1.7624   -3.6184   -1.0073 H   0  0  0  0  0  0  0  0  0  0  0  0
    1.6872   -2.9820    0.6653 H   0  0  0  0  0  0  0  0  0  0  0  0
   -2.1054    1.7202    0.7537 C   0  0  0  0  0  0  0  0  0  0  0  0
   -3.0409    2.2822    0.5357 H   0  0  0  0  0  0  0  0  0  0  0  0
   -2.1147    1.4738    1.8367 H   0  0  0  0  0  0  0  0  0  0  0  0
   -2.6256    0.5970   -1.4020 C   0  0  0  0  0  0  0  0  0  0  0  0
   -1.8876    1.1574   -2.0048 H   0  0  0  0  0  0  0  0  0  0  0  0
   -3.5656    1.1946   -1.3538 H   0  0  0  0  0  0  0  0  0  0  0  0
   -2.9101   -0.8235   -1.8722 C   0  0  0  0  0  0  0  0  0  0  0  0
   -1.9702   -1.3117   -2.2006 H   0  0  0  0  0  0  0  0  0  0  0  0
   -3.6131   -0.8415   -2.7259 H   0  0  0  0  0  0  0  0  0  0  0  0
   -3.4767   -1.5128   -0.6096 C   0  0  0  0  0  0  0  0  0  0  0  0
   -3.0726   -2.5341   -0.4839 H   0  0  0  0  0  0  0  0  0  0  0  0
   -4.5793   -1.5967   -0.6495 H   0  0  0  0  0  0  0  0  0  0  0  0
   -3.0639   -0.6082    0.5800 C   0  0  1  0  0  0  0  0  0  0  0  0
   -3.9514   -0.0385    0.9403 H   0  0  0  0  0  0  0  0  0  0  0  0
   -2.5209   -1.3509    1.8029 C   0  0  0  0  0  0  0  0  0  0  0  0
   -1.9972   -0.6342    2.4755 H   0  0  0  0  0  0  0  0  0  0  0  0
   -3.3954   -1.7520    2.3575 H   0  0  0  0  0  0  0  0  0  0  0  0
  1 30  1  0  0  0  0
  1  2  1  0  0  0  0
  3 47  1  0  0  0  0
  3  4  1  0  0  0  0
  5 19  1  0  0  0  0
  6 45  1  0  0  0  0
  6 33  1  0  0  0  0
  7 15  1  0  0  0  0
  8  9  1  0  0  0  0
  8  7  2  0  0  0  0
  9 11  2  0  0  0  0
 10  9  1  0  0  0  0
 11 12  1  0  0  0  0
 11 13  1  0  0  0  0
 13 14  1  0  0  0  0
 15 13  2  0  0  0  0
 15 33  1  0  0  0  0
 16 17  1  0  0  0  0
 16  8  1  0  0  0  0
 16  5  1  0  0  0  0
 18 16  1  0  0  0  0
 19 21  1  0  0  0  0
 19 20  1  0  0  0  0
 22 23  1  0  0  0  0
 22 19  1  0  0  0  0
 22 24  1  0  0  0  0
 25 27  1  0  0  0  0
 25 22  1  0  0  0  0
 26 25  1  0  0  0  0
 28 29  1  6  0  0  0
 28 30  1  0  0  0  0
 28 25  1  0  0  0  0
 28  5  1  0  0  0  0
 30 32  1  0  0  0  0
 31 30  1  0  0  0  0
 33 35  1  0  0  0  0
 34 33  1  0  0  0  0
 36 38  1  0  0  0  0
 36  6  1  0  0  0  0
 37 36  1  0  0  0  0
 39 36  1  0  0  0  0
 39 42  1  0  0  0  0
 40 39  1  0  0  0  0
 41 39  1  0  0  0  0
 42 43  1  0  0  0  0
 42 45  1  0  0  0  0
 44 42  1  0  0  0  0
 45 46  1  1  0  0  0
 45 47  1  0  0  0  0
 47 49  1  0  0  0  0
 47 48  1  0  0  0  0
M  END
