1,2,52
q = -1.0

 63 67  0  0  0  0  0  0  0  0999 V2000
   -4.2147    0.4508   -0.4496 N   0  0  0  0  0  2  0  0  0  0  0  0
   -1.7038    0.9590   -0.9595 N   0  0  0  0  0  2  0  0  0  0  0  0
    0.3483    0.0983   -0.3961 N   0  0  0  0  0  0  0  0  0  0  0  0
   -5.4721    0.1120   -0.1081 C   0  0  0  0  0  0  0  0  0  0  0  0
   -5.5496   -0.7575    0.5676 H   0  0  0  0  0  0  0  0  0  0  0  0
   -6.5851    0.8161   -0.5814 C   0  0  0  0  0  0  0  0  0  0  0  0
   -7.5959    0.5076   -0.2790 H   0  0  0  0  0  0  0  0  0  0  0  0
   -6.3792    1.9088   -1.4391 C   0  0  0  0  0  0  0  0  0  0  0  0
   -7.2314    2.4846   -1.8292 H   0  0  0  0  0  0  0  0  0  0  0  0
   -5.0719    2.2602   -1.7945 C   0  0  0  0  0  0  0  0  0  0  0  0
   -4.8841    3.1112   -2.4632 H   0  0  0  0  0  0  0  0  0  0  0  0
   -3.9924    1.5151   -1.2868 C   0  0  0  0  0  0  0  0  0  0  0  0
   -2.5749    1.7950   -1.5944 C   0  0  0  0  0  0  0  0  0  0  0  0
   -2.0874    2.7928   -2.4494 C   0  0  0  0  0  0  0  0  0  0  0  0
   -2.7723    3.4797   -2.9620 H   0  0  0  0  0  0  0  0  0  0  0  0
   -0.6953    2.8774   -2.6454 C   0  0  0  0  0  0  0  0  0  0  0  0
   -0.2885    3.6360   -3.3302 H   0  0  0  0  0  0  0  0  0  0  0  0
    0.1837    2.0073   -1.9953 C   0  0  0  0  0  0  0  0  0  0  0  0
    1.2662    2.0616   -2.1662 H   0  0  0  0  0  0  0  0  0  0  0  0
   -0.3429    1.0293   -1.1101 C   0  0  0  0  0  0  0  0  0  0  0  0
    1.7723    0.0837   -0.3803 C   0  0  0  0  0  0  0  0  0  0  0  0
    2.4898    1.2185    0.0387 C   0  0  0  0  0  0  0  0  0  0  0  0
    1.9368    2.1114    0.3630 H   0  0  0  0  0  0  0  0  0  0  0  0
    3.8986    1.1992    0.0942 C   0  0  0  0  0  0  0  0  0  0  0  0
    4.6530    2.4060    0.5195 C   0  0  0  0  0  0  0  0  0  0  0  0
    4.1917    3.7019    0.1943 C   0  0  0  0  0  0  0  0  0  0  0  0
    3.2747    3.8150   -0.4039 H   0  0  0  0  0  0  0  0  0  0  0  0
    4.9012    4.8417    0.5958 C   0  0  0  0  0  0  0  0  0  0  0  0
    4.5271    5.8405    0.3240 H   0  0  0  0  0  0  0  0  0  0  0  0
    6.0890    4.7116    1.3328 C   0  0  0  0  0  0  0  0  0  0  0  0
    6.6461    5.6063    1.6491 H   0  0  0  0  0  0  0  0  0  0  0  0
    6.5596    3.4311    1.6645 C   0  0  0  0  0  0  0  0  0  0  0  0
    7.4841    3.3182    2.2511 H   0  0  0  0  0  0  0  0  0  0  0  0
    5.8497    2.2918    1.2626 C   0  0  0  0  0  0  0  0  0  0  0  0
    6.2121    1.2942    1.5529 H   0  0  0  0  0  0  0  0  0  0  0  0
    4.5693    0.0088   -0.2568 C   0  0  0  0  0  0  0  0  0  0  0  0
    5.6686   -0.0041   -0.2633 H   0  0  0  0  0  0  0  0  0  0  0  0
    3.8673   -1.1470   -0.6589 C   0  0  0  0  0  0  0  0  0  0  0  0
    4.5944   -2.3888   -1.0278 C   0  0  0  0  0  0  0  0  0  0  0  0
    5.7807   -2.7614   -0.3558 C   0  0  0  0  0  0  0  0  0  0  0  0
    6.1535   -2.1357    0.4691 H   0  0  0  0  0  0  0  0  0  0  0  0
    6.4662   -3.9338   -0.7008 C   0  0  0  0  0  0  0  0  0  0  0  0
    7.3822   -4.2097   -0.1564 H   0  0  0  0  0  0  0  0  0  0  0  0
    5.9815   -4.7604   -1.7270 C   0  0  0  0  0  0  0  0  0  0  0  0
    6.5193   -5.6815   -1.9977 H   0  0  0  0  0  0  0  0  0  0  0  0
    4.8045   -4.4037   -2.4040 C   0  0  0  0  0  0  0  0  0  0  0  0
    4.4197   -5.0404   -3.2150 H   0  0  0  0  0  0  0  0  0  0  0  0
    4.1189   -3.2315   -2.0581 C   0  0  0  0  0  0  0  0  0  0  0  0
    3.2116   -2.9490   -2.6131 H   0  0  0  0  0  0  0  0  0  0  0  0
    2.4592   -1.0936   -0.7220 C   0  0  0  0  0  0  0  0  0  0  0  0
    1.8845   -1.9832   -1.0146 H   0  0  0  0  0  0  0  0  0  0  0  0
   -0.4091   -0.9452    0.4133 C   0  0  0  0  0  3  0  0  0  0  0  0
   -0.2307   -1.9280   -0.0801 H   0  0  0  0  0  0  0  0  0  0  0  0
    0.1164   -0.9964    1.8495 C   0  0  0  0  0  0  0  0  0  0  0  0
   -0.4070   -1.8429    2.3417 H   0  0  0  0  0  0  0  0  0  0  0  0
    1.2008   -1.2575    1.8493 H   0  0  0  0  0  0  0  0  0  0  0  0
   -0.0957    0.2830    2.6634 C   0  0  0  0  0  0  0  0  0  0  0  0
    0.3689    1.1417    2.1292 H   0  0  0  0  0  0  0  0  0  0  0  0
   -1.1854    0.5000    2.6953 H   0  0  0  0  0  0  0  0  0  0  0  0
    0.4731    0.1917    4.0788 C   0  0  0  0  0  0  0  0  0  0  0  0
    0.0024   -0.6385    4.6457 H   0  0  0  0  0  0  0  0  0  0  0  0
    0.3035    1.1260    4.6516 H   0  0  0  0  0  0  0  0  0  0  0  0
    1.5675    0.0028    4.0637 H   0  0  0  0  0  0  0  0  0  0  0  0
  1  4  1  0  0  0  0
  3 21  1  0  0  0  0
  3 52  1  0  0  0  0
  4  5  1  0  0  0  0
  6  7  1  0  0  0  0
  6  4  2  0  0  0  0
  8  6  1  0  0  0  0
  9  8  1  0  0  0  0
 10  8  2  0  0  0  0
 10 12  1  0  0  0  0
 11 10  1  0  0  0  0
 12  1  1  0  0  0  0
 13 12  2  0  0  0  0
 13  2  1  0  0  0  0
 14 13  1  0  0  0  0
 15 14  1  0  0  0  0
 16 14  2  0  0  0  0
 16 18  1  0  0  0  0
 17 16  1  0  0  0  0
 18 20  2  0  0  0  0
 19 18  1  0  0  0  0
 20  2  1  0  0  0  0
 20  3  1  0  0  0  0
 21 22  1  0  0  0  0
 22 24  2  0  0  0  0
 22 23  1  0  0  0  0
 24 25  1  0  0  0  0
 25 34  1  0  0  0  0
 26 25  2  0  0  0  0
 26 28  1  0  0  0  0
 27 26  1  0  0  0  0
 28 30  2  0  0  0  0
 29 28  1  0  0  0  0
 30 31  1  0  0  0  0
 30 32  1  0  0  0  0
 32 33  1  0  0  0  0
 34 35  1  0  0  0  0
 34 32  2  0  0  0  0
 36 24  1  0  0  0  0
 37 36  1  0  0  0  0
 38 36  2  0  0  0  0
 39 38  1  0  0  0  0
 39 40  1  0  0  0  0
 40 41  1  0  0  0  0
 42 40  2  0  0  0  0
 42 43  1  0  0  0  0
 44 42  1  0  0  0  0
 45 44  1  0  0  0  0
 46 48  1  0  0  0  0
 46 44  2  0  0  0  0
 47 46  1  0  0  0  0
 48 39  2  0  0  0  0
 49 48  1  0  0  0  0
 50 38  1  0  0  0  0
 50 21  2  0  0  0  0
 51 50  1  0  0  0  0
 52 54  1  0  0  0  0
 53 52  1  0  0  0  0
 54 55  1  0  0  0  0
 54 57  1  0  0  0  0
 56 54  1  0  0  0  0
 57 59  1  0  0  0  0
 57 60  1  0  0  0  0
 58 57  1  0  0  0  0
 60 61  1  0  0  0  0
 60 62  1  0  0  0  0
 63 60  1  0  0  0  0
M  END
