3,28,29
q = -1.0

 29 31  0  0  1  0  0  0  0  0999 V2000
    4.6292    0.1811   -0.0004 S   0  0  0  0  0  0  0  0  0  0  0  0
   -4.6292    0.1811   -0.0001 S   0  0  0  0  0  0  0  0  0  0  0  0
   -0.0000    1.5897    0.0000 C   0  0  0  0  0  2  0  0  0  0  0  0
   -1.2270    2.2838    0.0000 C   0  0  2  0  0  3  0  0  0  0  0  0
   -1.2240    3.6934    0.0001 C   0  0  0  0  0  0  0  0  0  0  0  0
   -2.1709    4.2558    0.0002 H   0  0  0  0  0  0  0  0  0  0  0  0
    0.0000    4.3852    0.0002 C   0  0  0  0  0  0  0  0  0  0  0  0
    0.0000    5.4852    0.0003 H   0  0  0  0  0  0  0  0  0  0  0  0
    1.2240    3.6934    0.0002 C   0  0  0  0  0  0  0  0  0  0  0  0
    2.1709    4.2558    0.0003 H   0  0  0  0  0  0  0  0  0  0  0  0
    1.2270    2.2838    0.0001 C   0  0  0  0  0  0  0  0  0  0  0  0
    2.3787    1.3905    0.0000 C   0  0  0  0  0  0  0  0  0  0  0  0
    3.7303    1.6562   -0.0003 C   0  0  0  0  0  0  0  0  0  0  0  0
    4.2243    2.6333   -0.0005 H   0  0  0  0  0  0  0  0  0  0  0  0
    3.1547   -0.7527    0.0000 C   0  0  1  0  0  3  0  0  0  0  0  0
    3.2277   -2.2366    0.0003 C   0  0  0  0  0  0  0  0  0  0  0  0
    2.6926   -2.6508    0.8781 H   0  0  0  0  0  0  0  0  0  0  0  0
    4.2805   -2.5759    0.0002 H   0  0  0  0  0  0  0  0  0  0  0  0
    2.6924   -2.6512   -0.8772 H   0  0  0  0  0  0  0  0  0  0  0  0
   -2.3787    1.3905   -0.0000 C   0  0  0  0  0  0  0  0  0  0  0  0
   -3.7303    1.6562    0.0001 C   0  0  0  0  0  0  0  0  0  0  0  0
   -4.2243    2.6333    0.0003 H   0  0  0  0  0  0  0  0  0  0  0  0
   -3.1547   -0.7527   -0.0003 C   0  0  1  0  0  3  0  0  0  0  0  0
   -3.2277   -2.2366   -0.0006 C   0  0  0  0  0  0  0  0  0  0  0  0
   -2.6926   -2.6512    0.8770 H   0  0  0  0  0  0  0  0  0  0  0  0
   -2.6923   -2.6508   -0.8782 H   0  0  0  0  0  0  0  0  0  0  0  0
   -4.2804   -2.5759   -0.0009 H   0  0  0  0  0  0  0  0  0  0  0  0
   -2.0699    0.0140   -0.0002 N   0  0  0  0  0  2  0  0  0  0  0  0
    2.0699    0.0140    0.0002 N   0  0  0  0  0  2  0  0  0  0  0  0
  1 13  1  0  0  0  0
  1 15  1  0  0  0  0
  2 21  1  0  0  0  0
  3  4  1  0  0  0  0
  3 11  1  0  0  0  0
  4 20  1  1  0  0  0
  4  5  1  0  0  0  0
  5  6  1  0  0  0  0
  5  7  2  0  0  0  0
  7  8  1  0  0  0  0
  9  7  1  0  0  0  0
  9 10  1  0  0  0  0
 11  9  2  0  0  0  0
 12 11  1  0  0  0  0
 12 29  1  0  0  0  0
 13 12  2  0  0  0  0
 14 13  1  0  0  0  0
 15 29  1  0  0  0  0
 15 16  1  1  0  0  0
 16 17  1  0  0  0  0
 18 16  1  0  0  0  0
 19 16  1  0  0  0  0
 20 21  2  0  0  0  0
 21 22  1  0  0  0  0
 23 24  1  6  0  0  0
 23 28  1  0  0  0  0
 23  2  1  0  0  0  0
 24 25  1  0  0  0  0
 26 24  1  0  0  0  0
 27 24  1  0  0  0  0
 28 20  1  0  0  0  0
M  END
