1,2,24
q = -1.0

 47 47  0  0  1  0  0  0  0  0999 V2000
   -1.7082    1.3118   -0.5221 N   0  0  0  0  0  0  0  0  0  0  0  0
   -0.8047   -0.0763    1.9528 N   0  0  0  0  0  0  0  0  0  0  0  0
   -2.3489    1.5137    0.7907 C   0  0  0  0  0  0  0  0  0  0  0  0
   -3.1835    0.7874    0.8672 H   0  0  0  0  0  0  0  0  0  0  0  0
   -2.7982    2.5324    0.8757 H   0  0  0  0  0  0  0  0  0  0  0  0
   -1.3614    1.2966    1.9368 C   0  0  0  0  0  0  0  0  0  0  0  0
   -0.5087    1.9968    1.8320 H   0  0  0  0  0  0  0  0  0  0  0  0
   -1.8538    1.5314    2.9092 H   0  0  0  0  0  0  0  0  0  0  0  0
   -1.7446   -1.0281    2.5752 C   0  0  0  0  0  0  0  0  0  0  0  0
   -2.6933   -1.0581    2.0102 H   0  0  0  0  0  0  0  0  0  0  0  0
   -1.9309   -0.7546    3.6398 H   0  0  0  0  0  0  0  0  0  0  0  0
   -1.3211   -2.0476    2.5214 H   0  0  0  0  0  0  0  0  0  0  0  0
    0.4893   -0.1075    2.6580 C   0  0  0  0  0  0  0  0  0  0  0  0
    0.3718    0.1840    3.7278 H   0  0  0  0  0  0  0  0  0  0  0  0
    1.1986    0.5722    2.1536 H   0  0  0  0  0  0  0  0  0  0  0  0
    0.9113   -1.1283    2.6059 H   0  0  0  0  0  0  0  0  0  0  0  0
   -0.8071    2.4278   -0.8988 C   0  0  0  0  0  0  0  0  0  0  0  0
   -0.3736    2.8502    0.0287 H   0  0  0  0  0  0  0  0  0  0  0  0
   -1.4093    3.2400   -1.3731 H   0  0  0  0  0  0  0  0  0  0  0  0
    0.3620    1.9927   -1.8062 C   0  0  0  0  0  0  0  0  0  0  0  0
   -0.0362    1.6305   -2.7784 H   0  0  0  0  0  0  0  0  0  0  0  0
    0.9418    2.9104   -2.0436 H   0  0  0  0  0  0  0  0  0  0  0  0
    1.2360    0.9487   -1.1711 C   0  0  0  0  0  0  0  0  0  0  0  0
    1.0737   -0.4999   -1.3625 C   0  0  2  0  0  3  0  0  0  0  0  0
    2.0488   -1.1386   -0.4740 C   0  0  0  0  0  0  0  0  0  0  0  0
    2.7403   -0.1306    0.2186 C   0  0  0  0  0  0  0  0  0  0  0  0
    2.2262    1.1534   -0.1950 C   0  0  0  0  0  0  0  0  0  0  0  0
    2.6518    2.4682    0.3944 C   0  0  0  0  0  0  0  0  0  0  0  0
    2.2842    3.3297   -0.1995 H   0  0  0  0  0  0  0  0  0  0  0  0
    3.7582    2.5563    0.4462 H   0  0  0  0  0  0  0  0  0  0  0  0
    2.2893    2.6199    1.4396 H   0  0  0  0  0  0  0  0  0  0  0  0
    3.8101   -0.3109    1.2566 C   0  0  0  0  0  0  0  0  0  0  0  0
    4.0303   -1.3808    1.4420 H   0  0  0  0  0  0  0  0  0  0  0  0
    3.5413    0.1432    2.2383 H   0  0  0  0  0  0  0  0  0  0  0  0
    4.7665    0.1689    0.9530 H   0  0  0  0  0  0  0  0  0  0  0  0
    2.2976   -2.6189   -0.4437 C   0  0  0  0  0  0  0  0  0  0  0  0
    2.8974   -2.9210    0.4383 H   0  0  0  0  0  0  0  0  0  0  0  0
    2.8505   -2.9688   -1.3450 H   0  0  0  0  0  0  0  0  0  0  0  0
    1.3475   -3.1934   -0.4147 H   0  0  0  0  0  0  0  0  0  0  0  0
    0.6637   -1.1345   -2.6809 C   0  0  0  0  0  0  0  0  0  0  0  0
    1.5211   -1.1739   -3.3901 H   0  0  0  0  0  0  0  0  0  0  0  0
   -0.1514   -0.5728   -3.1825 H   0  0  0  0  0  0  0  0  0  0  0  0
    0.2870   -2.1674   -2.5439 H   0  0  0  0  0  0  0  0  0  0  0  0
   -2.7054    1.0488   -1.5723 C   0  0  0  0  0  0  0  0  0  0  0  0
   -2.1901    0.9291   -2.5439 H   0  0  0  0  0  0  0  0  0  0  0  0
   -3.4367    1.8858   -1.6609 H   0  0  0  0  0  0  0  0  0  0  0  0
   -3.2242    0.0954   -1.3518 H   0  0  0  0  0  0  0  0  0  0  0  0
  1  3  1  0  0  0  0
  2  9  1  0  0  0  0
  2 13  1  0  0  0  0
  3  4  1  0  0  0  0
  3  5  1  0  0  0  0
  3  6  1  0  0  0  0
  6  2  1  0  0  0  0
  6  8  1  0  0  0  0
  7  6  1  0  0  0  0
  9 11  1  0  0  0  0
 10  9  1  0  0  0  0
 12  9  1  0  0  0  0
 13 14  1  0  0  0  0
 15 13  1  0  0  0  0
 16 13  1  0  0  0  0
 17  1  1  0  0  0  0
 17 18  1  0  0  0  0
 19 17  1  0  0  0  0
 20 23  1  0  0  0  0
 20 17  1  0  0  0  0
 21 20  1  0  0  0  0
 22 20  1  0  0  0  0
 23 27  2  0  0  0  0
 24 40  1  6  0  0  0
 24 23  1  0  0  0  0
 24 25  1  0  0  0  0
 25 36  1  0  0  0  0
 25 26  2  0  0  0  0
 26 32  1  0  0  0  0
 27 26  1  0  0  0  0
 27 28  1  0  0  0  0
 28 30  1  0  0  0  0
 28 31  1  0  0  0  0
 29 28  1  0  0  0  0
 32 33  1  0  0  0  0
 32 34  1  0  0  0  0
 35 32  1  0  0  0  0
 36 39  1  0  0  0  0
 36 37  1  0  0  0  0
 38 36  1  0  0  0  0
 40 43  1  0  0  0  0
 41 40  1  0  0  0  0
 42 40  1  0  0  0  0
 44 47  1  0  0  0  0
 44  1  1  0  0  0  0
 45 44  1  0  0  0  0
 46 44  1  0  0  0  0
M  END
