2,3,5
q = -1.0, confidence = 0.026

 46 47  0  0  0  0  0  0  0  0999 V2000
   -9.8916   -0.1654    0.0658 Cl  0  0  0  0  0  0  0  0  0  0  0  0
    2.9072   -2.0723   -0.0660 N   0  0  0  0  0  0  0  0  0  0  0  0
    2.5165    2.1082    0.0761 N   0  0  0  0  0  0  0  0  0  0  0  0
   -3.9629    0.4609   -0.0285 N   0  0  0  0  0  0  0  0  0  0  0  0
    1.0783   -0.1339   -0.0456 C   0  0  0  0  0  3  0  0  0  0  0  0
    0.5174   -1.3994   -0.3175 C   0  0  0  0  0  0  0  0  0  0  0  0
   -0.8753   -1.5245   -0.3494 C   0  0  0  0  0  0  0  0  0  0  0  0
   -1.3572   -2.4955   -0.5550 H   0  0  0  0  0  0  0  0  0  0  0  0
   -1.6966   -0.3849   -0.1347 C   0  0  0  0  0  0  0  0  0  0  0  0
   -1.1106    0.8860    0.1260 C   0  0  0  0  0  0  0  0  0  0  0  0
   -1.7939    1.7344    0.2881 H   0  0  0  0  0  0  0  0  0  0  0  0
    0.2771    1.0091    0.1832 C   0  0  0  0  0  0  0  0  0  0  0  0
    1.5522   -2.4473   -0.6499 C   0  0  0  0  0  0  0  0  0  0  0  0
    1.6939   -2.4847   -1.7502 H   0  0  0  0  0  0  0  0  0  0  0  0
    1.2837   -3.4744   -0.3171 H   0  0  0  0  0  0  0  0  0  0  0  0
    3.0044   -2.5548    1.3365 C   0  0  0  0  0  0  0  0  0  0  0  0
    2.9660   -3.6674    1.3597 H   0  0  0  0  0  0  0  0  0  0  0  0
    2.1652   -2.1397    1.9231 H   0  0  0  0  0  0  0  0  0  0  0  0
    3.9580   -2.2020    1.7696 H   0  0  0  0  0  0  0  0  0  0  0  0
    3.9987   -2.6649   -0.8754 C   0  0  0  0  0  0  0  0  0  0  0  0
    4.9657   -2.3136   -0.4697 H   0  0  0  0  0  0  0  0  0  0  0  0
    3.9127   -2.3032   -1.9160 H   0  0  0  0  0  0  0  0  0  0  0  0
    3.9347   -3.7755   -0.8546 H   0  0  0  0  0  0  0  0  0  0  0  0
    1.0819    2.2261    0.5719 C   0  0  0  0  0  0  0  0  0  0  0  0
    1.1440    2.2815    1.6786 H   0  0  0  0  0  0  0  0  0  0  0  0
    0.6502    3.1876    0.2168 H   0  0  0  0  0  0  0  0  0  0  0  0
    2.6114    2.6095   -1.3201 C   0  0  0  0  0  0  0  0  0  0  0  0
    2.3711    3.6961   -1.3513 H   0  0  0  0  0  0  0  0  0  0  0  0
    1.9007    2.0518   -1.9562 H   0  0  0  0  0  0  0  0  0  0  0  0
    3.6388    2.4403   -1.6904 H   0  0  0  0  0  0  0  0  0  0  0  0
    3.4285    2.8852    0.9493 C   0  0  0  0  0  0  0  0  0  0  0  0
    4.4668    2.7193    0.6068 H   0  0  0  0  0  0  0  0  0  0  0  0
    3.3447    2.5075    1.9844 H   0  0  0  0  0  0  0  0  0  0  0  0
    3.1636    3.9652    0.9186 H   0  0  0  0  0  0  0  0  0  0  0  0
   -3.1479   -0.5316   -0.1836 C   0  0  0  0  0  0  0  0  0  0  0  0
   -3.5217   -1.5667   -0.3832 H   0  0  0  0  0  0  0  0  0  0  0  0
   -5.3416    0.2628    0.0039 C   0  0  0  0  0  0  0  0  0  0  0  0
   -5.9586   -0.8655    0.6023 C   0  0  0  0  0  0  0  0  0  0  0  0
   -5.3345   -1.6311    1.0871 H   0  0  0  0  0  0  0  0  0  0  0  0
   -7.3515   -0.9980    0.6246 C   0  0  0  0  0  0  0  0  0  0  0  0
   -7.8266   -1.8666    1.1025 H   0  0  0  0  0  0  0  0  0  0  0  0
   -8.1526   -0.0028    0.0404 C   0  0  0  0  0  0  0  0  0  0  0  0
   -7.5668    1.1325   -0.5471 C   0  0  0  0  0  0  0  0  0  0  0  0
   -8.2083    1.9074   -0.9900 H   0  0  0  0  0  0  0  0  0  0  0  0
   -6.1758    1.2659   -0.5482 C   0  0  0  0  0  0  0  0  0  0  0  0
   -5.6966    2.1508   -0.9917 H   0  0  0  0  0  0  0  0  0  0  0  0
  2 16  1  0  0  0  0
  3 24  1  0  0  0  0
  3 31  1  0  0  0  0
  4 37  1  0  0  0  0
  5 12  1  0  0  0  0
  6  5  2  0  0  0  0
  7  6  1  0  0  0  0
  7  9  2  0  0  0  0
  8  7  1  0  0  0  0
  9 10  1  0  0  0  0
 10 12  2  0  0  0  0
 10 11  1  0  0  0  0
 12 24  1  0  0  0  0
 13  6  1  0  0  0  0
 13 15  1  0  0  0  0
 13  2  1  0  0  0  0
 14 13  1  0  0  0  0
 16 17  1  0  0  0  0
 16 19  1  0  0  0  0
 16 18  1  0  0  0  0
 20 23  1  0  0  0  0
 20 21  1  0  0  0  0
 20  2  1  0  0  0  0
 22 20  1  0  0  0  0
 24 25  1  0  0  0  0
 26 24  1  0  0  0  0
 27  3  1  0  0  0  0
 28 27  1  0  0  0  0
 29 27  1  0  0  0  0
 30 27  1  0  0  0  0
 31 33  1  0  0  0  0
 32 31  1  0  0  0  0
 34 31  1  0  0  0  0
 35  9  1  0  0  0  0
 35  4  2  0  0  0  0
 36 35  1  0  0  0  0
 37 38  1  0  0  0  0
 38 40  2  0  0  0  0
 38 39  1  0  0  0  0
 40 41  1  0  0  0  0
 42  1  1  0  0  0  0
 42 40  1  0  0  0  0
 43 42  2  0  0  0  0
 44 43  1  0  0  0  0
 45 43  1  0  0  0  0
 45 37  2  0  0  0  0
 46 45  1  0  0  0  0
M  END
