52,64,65
q = -1.0

 69 73  0  0  1  0  0  0  0  0999 V2000
   -2.2105   -0.5530   -0.0672 B   0  0  1  0  0  0  0  0  0  0  0  0
    0.0922    2.1437   -3.4649 C   0  0  0  0  0  0  0  0  0  0  0  0
    0.9524    2.5263   -2.8810 H   0  0  0  0  0  0  0  0  0  0  0  0
   -0.0329    2.7739   -4.3688 H   0  0  0  0  0  0  0  0  0  0  0  0
    0.3335    1.1102   -3.7838 H   0  0  0  0  0  0  0  0  0  0  0  0
   -1.1729    2.1623   -2.6063 C   0  0  0  0  0  0  0  0  0  0  0  0
   -1.5268    3.5894   -2.1582 C   0  0  0  0  0  0  0  0  0  0  0  0
   -2.4263    3.5815   -1.5106 H   0  0  0  0  0  0  0  0  0  0  0  0
   -1.7364    4.2267   -3.0415 H   0  0  0  0  0  0  0  0  0  0  0  0
   -0.6974    4.0535   -1.5948 H   0  0  0  0  0  0  0  0  0  0  0  0
   -2.3846    1.4878   -3.3045 C   0  0  0  0  0  0  0  0  0  0  0  0
   -3.1629    2.2016   -3.6370 H   0  0  0  0  0  0  0  0  0  0  0  0
   -2.0796    0.8553   -4.1662 H   0  0  0  0  0  0  0  0  0  0  0  0
   -2.0415    0.5069   -1.3011 C   0  0  1  0  0  3  0  0  0  0  0  0
   -0.1722    0.8972    3.7728 C   0  0  0  0  0  0  0  0  0  0  0  0
   -0.4201   -0.1834    3.7752 H   0  0  0  0  0  0  0  0  0  0  0  0
   -0.1944    1.2689    4.8176 H   0  0  0  0  0  0  0  0  0  0  0  0
    0.8539    1.0133    3.3710 H   0  0  0  0  0  0  0  0  0  0  0  0
   -1.1582    1.6773    2.8896 C   0  0  0  0  0  0  0  0  0  0  0  0
   -0.8755    3.1784    2.9474 C   0  0  0  0  0  0  0  0  0  0  0  0
    0.1896    3.3876    2.7334 H   0  0  0  0  0  0  0  0  0  0  0  0
   -1.1005    3.5737    3.9590 H   0  0  0  0  0  0  0  0  0  0  0  0
   -1.4945    3.7272    2.2105 H   0  0  0  0  0  0  0  0  0  0  0  0
   -2.6370    1.3534    3.2290 C   0  0  0  0  0  0  0  0  0  0  0  0
   -2.7829    0.9216    4.2382 H   0  0  0  0  0  0  0  0  0  0  0  0
   -3.2976    2.2399    3.1132 H   0  0  0  0  0  0  0  0  0  0  0  0
   -2.0914    0.3787    1.2705 C   0  0  2  0  0  3  0  0  0  0  0  0
   -0.7528   -2.7623   -0.2004 C   0  0  0  0  0  0  0  0  0  0  0  0
   -1.6422   -3.3958   -0.2533 H   0  0  0  0  0  0  0  0  0  0  0  0
    0.5808   -3.0825   -0.2212 C   0  0  0  0  0  0  0  0  0  0  0  0
    1.1039   -4.0398   -0.2967 H   0  0  0  0  0  0  0  0  0  0  0  0
    2.7016   -1.7900   -0.1346 C   0  0  0  0  0  0  0  0  0  0  0  0
    3.3977   -1.9100    1.0870 C   0  0  0  0  0  0  0  0  0  0  0  0
    2.6446   -2.0643    2.3816 C   0  0  0  0  0  0  0  0  0  0  0  0
    1.9875   -1.1859    2.5544 H   0  0  0  0  0  0  0  0  0  0  0  0
    3.3371   -2.1556    3.2393 H   0  0  0  0  0  0  0  0  0  0  0  0
    1.9823   -2.9544    2.3715 H   0  0  0  0  0  0  0  0  0  0  0  0
    4.7991   -1.8280    1.0490 C   0  0  0  0  0  0  0  0  0  0  0  0
    5.3608   -1.9078    1.9934 H   0  0  0  0  0  0  0  0  0  0  0  0
    5.4990   -1.6288   -0.1559 C   0  0  0  0  0  0  0  0  0  0  0  0
    6.9995   -1.4842   -0.1600 C   0  0  0  0  0  0  0  0  0  0  0  0
    7.4429   -1.8326   -1.1135 H   0  0  0  0  0  0  0  0  0  0  0  0
    7.4689   -2.0485    0.6697 H   0  0  0  0  0  0  0  0  0  0  0  0
    7.2870   -0.4180   -0.0353 H   0  0  0  0  0  0  0  0  0  0  0  0
    4.7634   -1.5219   -1.3509 C   0  0  0  0  0  0  0  0  0  0  0  0
    5.2970   -1.3615   -2.3014 H   0  0  0  0  0  0  0  0  0  0  0  0
    3.3611   -1.5972   -1.3676 C   0  0  0  0  0  0  0  0  0  0  0  0
    2.5699   -1.4200   -2.6359 C   0  0  0  0  0  0  0  0  0  0  0  0
    1.9729   -0.4840   -2.5836 H   0  0  0  0  0  0  0  0  0  0  0  0
    1.8479   -2.2476   -2.7911 H   0  0  0  0  0  0  0  0  0  0  0  0
    3.2341   -1.3629   -3.5184 H   0  0  0  0  0  0  0  0  0  0  0  0
    0.3912   -0.8258   -0.0456 C   0  0  0  0  0  2  0  0  0  0  0  0
   -3.4602   -1.5768   -0.1160 C   0  0  0  0  0  0  0  0  0  0  0  0
   -4.0581   -1.9878   -1.3311 C   0  0  0  0  0  0  0  0  0  0  0  0
   -3.7381   -1.5192   -2.2722 H   0  0  0  0  0  0  0  0  0  0  0  0
   -5.0595   -2.9720   -1.3701 C   0  0  0  0  0  0  0  0  0  0  0  0
   -5.5041   -3.2615   -2.3355 H   0  0  0  0  0  0  0  0  0  0  0  0
   -5.4935   -3.5860   -0.1856 C   0  0  0  0  0  0  0  0  0  0  0  0
   -6.2789   -4.3575   -0.2124 H   0  0  0  0  0  0  0  0  0  0  0  0
   -4.9134   -3.2045    1.0343 C   0  0  0  0  0  0  0  0  0  0  0  0
   -5.2422   -3.6778    1.9731 H   0  0  0  0  0  0  0  0  0  0  0  0
   -3.9147   -2.2187    1.0622 C   0  0  0  0  0  0  0  0  0  0  0  0
   -3.4792   -1.9355    2.0316 H   0  0  0  0  0  0  0  0  0  0  0  0
   -1.0120    1.2892   -1.4137 N   0  0  0  0  0  2  0  0  0  0  0  0
   -1.0661    1.1380    1.5084 N   0  0  0  0  0  2  0  0  0  0  0  0
   -0.8498   -1.3851   -0.0920 N   0  0  0  0  0  0  0  0  0  0  0  0
    1.2717   -1.8771   -0.1252 N   0  0  0  0  0  0  0  0  0  0  0  0
   -2.9577    0.6212   -2.2967 O   0  0  0  0  0  0  0  0  0  0  0  0
   -3.0340    0.3673    2.2468 O   0  0  0  0  0  0  0  0  0  0  0  0
  1 53  1  6  0  0  0
  2  3  1  0  0  0  0
  2  6  1  0  0  0  0
  4  2  1  0  0  0  0
  5  2  1  0  0  0  0
  6  7  1  0  0  0  0
  6 64  1  0  0  0  0
  7 10  1  0  0  0  0
  7  8  1  0  0  0  0
  9  7  1  0  0  0  0
 11  6  1  0  0  0  0
 11 68  1  0  0  0  0
 12 11  1  0  0  0  0
 13 11  1  0  0  0  0
 14  1  1  6  0  0  0
 15 16  1  0  0  0  0
 15 17  1  0  0  0  0
 18 15  1  0  0  0  0
 19 20  1  0  0  0  0
 19 24  1  0  0  0  0
 19 15  1  0  0  0  0
 20 22  1  0  0  0  0
 21 20  1  0  0  0  0
 23 20  1  0  0  0  0
 24 25  1  0  0  0  0
 26 24  1  0  0  0  0
 27  1  1  1  0  0  0
 27 65  1  0  0  0  0
 27 69  1  0  0  0  0
 28 66  1  0  0  0  0
 29 28  1  0  0  0  0
 30 28  2  0  0  0  0
 30 67  1  0  0  0  0
 31 30  1  0  0  0  0
 32 67  1  0  0  0  0
 32 33  1  0  0  0  0
 33 34  1  0  0  0  0
 34 35  1  0  0  0  0
 34 36  1  0  0  0  0
 37 34  1  0  0  0  0
 38 33  2  0  0  0  0
 38 39  1  0  0  0  0
 40 38  1  0  0  0  0
 41 40  1  0  0  0  0
 41 44  1  0  0  0  0
 41 43  1  0  0  0  0
 42 41  1  0  0  0  0
 45 40  2  0  0  0  0
 46 45  1  0  0  0  0
 47 45  1  0  0  0  0
 47 32  2  0  0  0  0
 48 49  1  0  0  0  0
 48 47  1  0  0  0  0
 50 48  1  0  0  0  0
 51 48  1  0  0  0  0
 53 62  1  0  0  0  0
 54 53  2  0  0  0  0
 55 54  1  0  0  0  0
 56 54  1  0  0  0  0
 56 58  2  0  0  0  0
 57 56  1  0  0  0  0
 58 60  1  0  0  0  0
 59 58  1  0  0  0  0
 60 62  2  0  0  0  0
 60 61  1  0  0  0  0
 62 63  1  0  0  0  0
 64 14  1  0  0  0  0
 65 19  1  0  0  0  0
 66  1  1  0  0  0  0
 66 52  1  0  0  0  0
 67 52  1  0  0  0  0
 68 14  1  0  0  0  0
 69 24  1  0  0  0  0
M  END
