1,2,17
q = -1.0

 38 39  0  0  0  0  0  0  0  0999 V2000
   -1.6340   -0.6738    1.6854 N   0  0  0  0  0  2  0  0  0  0  0  0
   -3.3864   -0.6049   -0.5621 N   0  0  0  0  0  0  0  0  0  0  0  0
    4.7838   -0.7801   -1.1838 C   0  0  0  0  0  0  0  0  0  0  0  0
    3.9890   -1.3676   -1.6670 H   0  0  0  0  0  0  0  0  0  0  0  0
    6.0361   -0.6680   -1.8017 C   0  0  0  0  0  0  0  0  0  0  0  0
    6.2094   -1.1548   -2.7735 H   0  0  0  0  0  0  0  0  0  0  0  0
    7.0685    0.0547   -1.1824 C   0  0  0  0  0  0  0  0  0  0  0  0
    8.0515    0.1449   -1.6691 H   0  0  0  0  0  0  0  0  0  0  0  0
    6.8364    0.6632    0.0614 C   0  0  0  0  0  0  0  0  0  0  0  0
    7.6350    1.2421    0.5500 H   0  0  0  0  0  0  0  0  0  0  0  0
    5.5852    0.5478    0.6813 C   0  0  0  0  0  0  0  0  0  0  0  0
    5.4057    1.0533    1.6419 H   0  0  0  0  0  0  0  0  0  0  0  0
    4.5347   -0.1758    0.0705 C   0  0  0  0  0  0  0  0  0  0  0  0
    3.2089   -0.2967    0.7244 C   0  0  0  0  0  0  0  0  0  0  0  0
    2.0271   -0.3396   -0.0564 C   0  0  0  0  0  0  0  0  0  0  0  0
    2.1013   -0.2418   -1.1481 H   0  0  0  0  0  0  0  0  0  0  0  0
    0.7692   -0.4509    0.5396 C   0  0  0  0  0  3  0  0  0  0  0  0
    0.6801   -0.5321    1.9725 C   0  0  0  0  0  0  0  0  0  0  0  0
    1.8572   -0.4853    2.7515 C   0  0  0  0  0  0  0  0  0  0  0  0
    1.7859   -0.5495    3.8489 H   0  0  0  0  0  0  0  0  0  0  0  0
    3.1036   -0.3704    2.1364 C   0  0  0  0  0  0  0  0  0  0  0  0
    4.0163   -0.3653    2.7493 H   0  0  0  0  0  0  0  0  0  0  0  0
   -0.6517   -0.6408    2.5363 C   0  0  0  0  0  3  0  0  0  0  0  0
   -0.8194   -0.6781    3.6315 H   0  0  0  0  0  0  0  0  0  0  0  0
   -3.0525   -0.7876    1.9390 C   0  0  0  0  0  0  0  0  0  0  0  0
   -3.3509   -0.3157    2.9011 H   0  0  0  0  0  0  0  0  0  0  0  0
   -3.3183   -1.8670    2.0130 H   0  0  0  0  0  0  0  0  0  0  0  0
   -3.8123   -0.1183    0.7842 C   0  0  0  0  0  0  0  0  0  0  0  0
   -4.9105   -0.2653    0.9117 H   0  0  0  0  0  0  0  0  0  0  0  0
   -3.5925    0.9681    0.8086 H   0  0  0  0  0  0  0  0  0  0  0  0
   -3.8918    0.3063   -1.6061 C   0  0  0  0  0  0  0  0  0  0  0  0
   -3.4719    1.3174   -1.4395 H   0  0  0  0  0  0  0  0  0  0  0  0
   -5.0059    0.3449   -1.5961 H   0  0  0  0  0  0  0  0  0  0  0  0
   -3.5558   -0.0555   -2.5962 H   0  0  0  0  0  0  0  0  0  0  0  0
   -3.8858   -1.9643   -0.8161 C   0  0  0  0  0  0  0  0  0  0  0  0
   -3.5141   -2.6700   -0.0518 H   0  0  0  0  0  0  0  0  0  0  0  0
   -3.5263   -2.3111   -1.8025 H   0  0  0  0  0  0  0  0  0  0  0  0
   -5.0007   -1.9832   -0.8152 H   0  0  0  0  0  0  0  0  0  0  0  0
  1 25  1  0  0  0  0
  1 23  1  0  0  0  0
  2 28  1  0  0  0  0
  3 13  1  0  0  0  0
  4  3  1  0  0  0  0
  5  3  2  0  0  0  0
  5  7  1  0  0  0  0
  6  5  1  0  0  0  0
  7  9  2  0  0  0  0
  8  7  1  0  0  0  0
  9 10  1  0  0  0  0
  9 11  1  0  0  0  0
 11 12  1  0  0  0  0
 13 11  2  0  0  0  0
 13 14  1  0  0  0  0
 14 21  1  0  0  0  0
 15 17  1  0  0  0  0
 15 14  2  0  0  0  0
 16 15  1  0  0  0  0
 17 18  2  0  0  0  0
 18 23  1  0  0  0  0
 18 19  1  0  0  0  0
 19 20  1  0  0  0  0
 21 22  1  0  0  0  0
 21 19  2  0  0  0  0
 23 24  1  0  0  0  0
 25 27  1  0  0  0  0
 25 26  1  0  0  0  0
 28 30  1  0  0  0  0
 28 29  1  0  0  0  0
 28 25  1  0  0  0  0
 31 33  1  0  0  0  0
 31 32  1  0  0  0  0
 31  2  1  0  0  0  0
 34 31  1  0  0  0  0
 35 38  1  0  0  0  0
 35  2  1  0  0  0  0
 35 36  1  0  0  0  0
 37 35  1  0  0  0  0
M  END
