1,2,3
q = -1.0

 38 39  0  0  0  0  0  0  0  0999 V2000
    0.3291   -1.2434   -0.0853 N   0  0  0  0  0  2  0  0  0  0  0  0
    3.1436   -1.2681   -0.1388 N   0  0  0  0  0  0  0  0  0  0  0  0
   -0.1573    1.3338    0.0864 C   0  0  0  0  0  2  0  0  0  0  0  0
   -0.4259    2.7148    0.1205 C   0  0  0  0  0  0  0  0  0  0  0  0
    0.4095    3.4283    0.1726 H   0  0  0  0  0  0  0  0  0  0  0  0
   -1.7456    3.1952    0.0773 C   0  0  0  0  0  0  0  0  0  0  0  0
   -1.9302    4.2813    0.0978 H   0  0  0  0  0  0  0  0  0  0  0  0
   -2.8373    2.3144    0.0252 C   0  0  0  0  0  0  0  0  0  0  0  0
   -3.8663    2.7039    0.0294 H   0  0  0  0  0  0  0  0  0  0  0  0
   -2.6312    0.9208    0.0158 C   0  0  0  0  0  0  0  0  0  0  0  0
   -1.2916    0.4336    0.0203 C   0  0  0  0  0  0  0  0  0  0  0  0
   -3.8061    0.0093    0.0141 C   0  0  0  0  0  0  0  0  0  0  0  0
   -4.8454    0.1815   -0.9280 C   0  0  0  0  0  0  0  0  0  0  0  0
   -4.7535    0.9775   -1.6826 H   0  0  0  0  0  0  0  0  0  0  0  0
   -5.9680   -0.6584   -0.9238 C   0  0  0  0  0  0  0  0  0  0  0  0
   -6.7614   -0.5120   -1.6729 H   0  0  0  0  0  0  0  0  0  0  0  0
   -6.0791   -1.6862    0.0262 C   0  0  0  0  0  0  0  0  0  0  0  0
   -6.9608   -2.3450    0.0300 H   0  0  0  0  0  0  0  0  0  0  0  0
   -5.0603   -1.8628    0.9761 C   0  0  0  0  0  0  0  0  0  0  0  0
   -5.1467   -2.6543    1.7365 H   0  0  0  0  0  0  0  0  0  0  0  0
   -3.9371   -1.0234    0.9714 C   0  0  0  0  0  0  0  0  0  0  0  0
   -3.1566   -1.1438    1.7383 H   0  0  0  0  0  0  0  0  0  0  0  0
   -0.9489   -0.9756   -0.1033 C   0  0  0  0  0  0  0  0  0  0  0  0
   -1.7090   -1.7691   -0.2278 H   0  0  0  0  0  0  0  0  0  0  0  0
    0.9594   -2.5432   -0.1642 C   0  0  0  0  0  0  0  0  0  0  0  0
    0.3767   -3.2735   -0.7700 H   0  0  0  0  0  0  0  0  0  0  0  0
    1.0419   -2.9703    0.8610 H   0  0  0  0  0  0  0  0  0  0  0  0
    2.3551   -2.3624   -0.7804 C   0  0  0  0  0  0  0  0  0  0  0  0
    2.2349   -2.0819   -1.8453 H   0  0  0  0  0  0  0  0  0  0  0  0
    2.9246   -3.3217   -0.7420 H   0  0  0  0  0  0  0  0  0  0  0  0
    3.6131   -1.6494    1.2042 C   0  0  0  0  0  0  0  0  0  0  0  0
    2.7526   -1.8905    1.8548 H   0  0  0  0  0  0  0  0  0  0  0  0
    4.1472   -0.7932    1.6562 H   0  0  0  0  0  0  0  0  0  0  0  0
    4.3003   -2.5289    1.1592 H   0  0  0  0  0  0  0  0  0  0  0  0
    4.2871   -0.9072   -0.9921 C   0  0  0  0  0  0  0  0  0  0  0  0
    3.9179   -0.5719   -1.9793 H   0  0  0  0  0  0  0  0  0  0  0  0
    4.9835   -1.7686   -1.1284 H   0  0  0  0  0  0  0  0  0  0  0  0
    4.8379   -0.0685   -0.5274 H   0  0  0  0  0  0  0  0  0  0  0  0
  2 31  1  0  0  0  0
  3  4  1  0  0  0  0
  4  5  1  0  0  0  0
  6  7  1  0  0  0  0
  6  4  2  0  0  0  0
  8  9  1  0  0  0  0
  8  6  1  0  0  0  0
 10 11  1  0  0  0  0
 10  8  2  0  0  0  0
 11  3  1  0  0  0  0
 12 10  1  0  0  0  0
 12 21  1  0  0  0  0
 13 15  1  0  0  0  0
 13 12  2  0  0  0  0
 14 13  1  0  0  0  0
 15 17  2  0  0  0  0
 16 15  1  0  0  0  0
 17 18  1  0  0  0  0
 17 19  1  0  0  0  0
 19 20  1  0  0  0  0
 21 19  2  0  0  0  0
 21 22  1  0  0  0  0
 23  1  1  0  0  0  0
 23 11  2  0  0  0  0
 24 23  1  0  0  0  0
 25  1  1  0  0  0  0
 25 27  1  0  0  0  0
 26 25  1  0  0  0  0
 28 30  1  0  0  0  0
 28 25  1  0  0  0  0
 28  2  1  0  0  0  0
 29 28  1  0  0  0  0
 31 33  1  0  0  0  0
 31 32  1  0  0  0  0
 34 31  1  0  0  0  0
 35 38  1  0  0  0  0
 35  2  1  0  0  0  0
 36 35  1  0  0  0  0
 37 35  1  0  0  0  0
M  END
