3,4,5
q = -1.0, confidence = 0.002

 39 39  0  0  0  0  0  0  0  0999 V2000
    5.1158    0.4403   -0.8260 S   0  0  0  0  0  0  0  0  0  0  0  0
    5.0792   -0.7979    1.5701 O   0  0  0  0  0  0  0  0  0  0  0  0
   -0.8959   -2.0833   -0.2029 N   0  0  0  0  0  0  0  0  0  0  0  0
   -1.1296    2.1088    0.1020 N   0  0  0  0  0  0  0  0  0  0  0  0
    0.6066    0.1184   -0.2587 C   0  0  0  0  0  3  0  0  0  0  0  0
    1.3781   -1.0594   -0.2183 C   0  0  0  0  0  0  0  0  0  0  0  0
    2.7633   -0.9756   -0.4095 C   0  0  0  0  0  0  0  0  0  0  0  0
    3.3993   -1.8729   -0.3987 H   0  0  0  0  0  0  0  0  0  0  0  0
    3.3572    0.2961   -0.5889 C   0  0  0  0  0  0  0  0  0  0  0  0
    2.5795    1.4781   -0.6056 C   0  0  0  0  0  0  0  0  0  0  0  0
    3.0819    2.4489   -0.7410 H   0  0  0  0  0  0  0  0  0  0  0  0
    1.1879    1.3848   -0.4632 C   0  0  0  0  0  0  0  0  0  0  0  0
    0.5740   -2.2844    0.1372 C   0  0  0  0  0  0  0  0  0  0  0  0
    0.6175   -2.4401    1.2352 H   0  0  0  0  0  0  0  0  0  0  0  0
    0.9338   -3.2212   -0.3431 H   0  0  0  0  0  0  0  0  0  0  0  0
   -1.7346   -2.9376    0.6714 C   0  0  0  0  0  0  0  0  0  0  0  0
   -2.7981   -2.7538    0.4316 H   0  0  0  0  0  0  0  0  0  0  0  0
   -1.5661   -2.6523    1.7254 H   0  0  0  0  0  0  0  0  0  0  0  0
   -1.4735   -4.0091    0.5226 H   0  0  0  0  0  0  0  0  0  0  0  0
   -1.1367   -2.4388   -1.6262 C   0  0  0  0  0  0  0  0  0  0  0  0
   -0.9371   -3.5226   -1.7859 H   0  0  0  0  0  0  0  0  0  0  0  0
   -0.4689   -1.8381   -2.2694 H   0  0  0  0  0  0  0  0  0  0  0  0
   -2.1877   -2.2079   -1.8785 H   0  0  0  0  0  0  0  0  0  0  0  0
    0.1718    2.4921   -0.5874 C   0  0  0  0  0  0  0  0  0  0  0  0
   -0.0813    2.6384   -1.6583 H   0  0  0  0  0  0  0  0  0  0  0  0
    0.5169    3.4737   -0.1931 H   0  0  0  0  0  0  0  0  0  0  0  0
   -2.2603    2.8410   -0.5165 C   0  0  0  0  0  0  0  0  0  0  0  0
   -3.1986    2.5256   -0.0240 H   0  0  0  0  0  0  0  0  0  0  0  0
   -2.3263    2.5691   -1.5854 H   0  0  0  0  0  0  0  0  0  0  0  0
   -2.1074    3.9385   -0.4132 H   0  0  0  0  0  0  0  0  0  0  0  0
   -1.0500    2.4435    1.5485 C   0  0  0  0  0  0  0  0  0  0  0  0
   -0.9558    3.5454    1.6785 H   0  0  0  0  0  0  0  0  0  0  0  0
   -0.1723    1.9393    1.9912 H   0  0  0  0  0  0  0  0  0  0  0  0
   -1.9667    2.0818    2.0489 H   0  0  0  0  0  0  0  0  0  0  0  0
    5.7664   -0.2865    0.7124 C   0  0  0  0  0  0  0  0  0  0  0  0
    7.2757   -0.1709    0.7777 C   0  0  0  0  0  0  0  0  0  0  0  0
    7.5372    0.5790    1.5525 H   0  0  0  0  0  0  0  0  0  0  0  0
    7.7220    0.1396   -0.1860 H   0  0  0  0  0  0  0  0  0  0  0  0
    7.6998   -1.1426    1.0989 H   0  0  0  0  0  0  0  0  0  0  0  0
  1  9  1  0  0  0  0
  1 35  1  0  0  0  0
  3 13  1  0  0  0  0
  3 16  1  0  0  0  0
  4 31  1  0  0  0  0
  5  6  1  0  0  0  0
  6 13  1  0  0  0  0
  7  8  1  0  0  0  0
  7  6  2  0  0  0  0
  9  7  1  0  0  0  0
 10  9  2  0  0  0  0
 10 12  1  0  0  0  0
 11 10  1  0  0  0  0
 12  5  2  0  0  0  0
 13 14  1  0  0  0  0
 15 13  1  0  0  0  0
 16 18  1  0  0  0  0
 17 16  1  0  0  0  0
 19 16  1  0  0  0  0
 20  3  1  0  0  0  0
 21 20  1  0  0  0  0
 22 20  1  0  0  0  0
 23 20  1  0  0  0  0
 24 12  1  0  0  0  0
 24 26  1  0  0  0  0
 24  4  1  0  0  0  0
 25 24  1  0  0  0  0
 27 30  1  0  0  0  0
 27 28  1  0  0  0  0
 27  4  1  0  0  0  0
 29 27  1  0  0  0  0
 31 32  1  0  0  0  0
 31 33  1  0  0  0  0
 31 34  1  0  0  0  0
 35 36  1  0  0  0  0
 35  2  2  0  0  0  0
 36 39  1  0  0  0  0
 36 37  1  0  0  0  0
 38 36  1  0  0  0  0
M  END
