1,2,11
q = -1.0

 39 41  0  0  0  0  0  0  0  0999 V2000
   -0.5880   -2.1510   -0.0001 N   0  0  0  0  0  0  0  0  0  0  0  0
   -0.5880    2.1510    0.0001 N   0  0  0  0  0  0  0  0  0  0  0  0
    0.8815   -2.3942    0.0000 C   0  0  0  0  0  0  0  0  0  0  0  0
    1.4934   -3.6345    0.0001 C   0  0  0  0  0  0  0  0  0  0  0  0
    2.9263   -3.6839    0.0001 C   0  0  0  0  0  0  0  0  0  0  0  0
    3.7138   -2.5411    0.0001 C   0  0  0  0  0  0  0  0  0  0  0  0
    3.7138    2.5411   -0.0001 C   0  0  0  0  0  0  0  0  0  0  0  0
    2.9263    3.6839   -0.0001 C   0  0  0  0  0  0  0  0  0  0  0  0
    1.4934    3.6345   -0.0001 C   0  0  0  0  0  0  0  0  0  0  0  0
    0.8815    2.3942   -0.0000 C   0  0  0  0  0  0  0  0  0  0  0  0
    0.9779   -0.0000    0.0000 C   0  0  0  0  0  3  0  0  0  0  0  0
    3.8106   -0.0000   -0.0000 C   0  0  0  0  0  0  0  0  0  0  0  0
    1.6711   -1.2163   -0.0000 C   0  0  0  0  0  0  0  0  0  0  0  0
    3.1155   -1.2373    0.0000 C   0  0  0  0  0  0  0  0  0  0  0  0
    3.1155    1.2373   -0.0000 C   0  0  0  0  0  0  0  0  0  0  0  0
    1.6711    1.2163   -0.0000 C   0  0  0  0  0  0  0  0  0  0  0  0
   -1.2241   -2.7143    1.2193 C   0  0  0  0  0  0  0  0  0  0  0  0
   -1.2238   -2.7139   -1.2197 C   0  0  0  0  0  0  0  0  0  0  0  0
   -1.2238    2.7139    1.2197 C   0  0  0  0  0  0  0  0  0  0  0  0
   -1.2241    2.7143   -1.2192 C   0  0  0  0  0  0  0  0  0  0  0  0
    0.9170   -4.5711    0.0002 H   0  0  0  0  0  0  0  0  0  0  0  0
    3.4129   -4.6712    0.0002 H   0  0  0  0  0  0  0  0  0  0  0  0
    4.8113   -2.6305    0.0001 H   0  0  0  0  0  0  0  0  0  0  0  0
    4.9116   -0.0000   -0.0000 H   0  0  0  0  0  0  0  0  0  0  0  0
    4.8113    2.6305   -0.0001 H   0  0  0  0  0  0  0  0  0  0  0  0
    3.4129    4.6712   -0.0002 H   0  0  0  0  0  0  0  0  0  0  0  0
    0.9170    4.5711   -0.0001 H   0  0  0  0  0  0  0  0  0  0  0  0
   -0.7245   -2.2975    2.1124 H   0  0  0  0  0  0  0  0  0  0  0  0
   -2.2892   -2.4129    1.2226 H   0  0  0  0  0  0  0  0  0  0  0  0
   -1.1401   -3.8236    1.2317 H   0  0  0  0  0  0  0  0  0  0  0  0
   -0.7241   -2.2967   -2.1127 H   0  0  0  0  0  0  0  0  0  0  0  0
   -2.2890   -2.4126   -1.2232 H   0  0  0  0  0  0  0  0  0  0  0  0
   -1.1398   -3.8232   -1.2325 H   0  0  0  0  0  0  0  0  0  0  0  0
   -1.1397    3.8232    1.2325 H   0  0  0  0  0  0  0  0  0  0  0  0
   -2.2890    2.4126    1.2232 H   0  0  0  0  0  0  0  0  0  0  0  0
   -0.7241    2.2967    2.1127 H   0  0  0  0  0  0  0  0  0  0  0  0
   -1.1402    3.8236   -1.2317 H   0  0  0  0  0  0  0  0  0  0  0  0
   -2.2892    2.4129   -1.2226 H   0  0  0  0  0  0  0  0  0  0  0  0
   -0.7245    2.2975   -2.1124 H   0  0  0  0  0  0  0  0  0  0  0  0
  1  3  1  0  0  0  0
  1 17  1  0  0  0  0
  2 19  1  0  0  0  0
  3  4  1  0  0  0  0
  4  5  2  0  0  0  0
  4 21  1  0  0  0  0
  5 22  1  0  0  0  0
  6 23  1  0  0  0  0
  6  5  1  0  0  0  0
  7 15  1  0  0  0  0
  8  9  1  0  0  0  0
  8  7  2  0  0  0  0
  9 10  2  0  0  0  0
 10 16  1  0  0  0  0
 10  2  1  0  0  0  0
 12 14  1  0  0  0  0
 13 11  1  0  0  0  0
 13 14  1  0  0  0  0
 13  3  2  0  0  0  0
 14  6  2  0  0  0  0
 15 12  2  0  0  0  0
 15 16  1  0  0  0  0
 16 11  2  0  0  0  0
 17 29  1  0  0  0  0
 17 30  1  0  0  0  0
 17 28  1  0  0  0  0
 18  1  1  0  0  0  0
 19 35  1  0  0  0  0
 19 34  1  0  0  0  0
 19 36  1  0  0  0  0
 20  2  1  0  0  0  0
 24 12  1  0  0  0  0
 25  7  1  0  0  0  0
 26  8  1  0  0  0  0
 27  9  1  0  0  0  0
 31 18  1  0  0  0  0
 32 18  1  0  0  0  0
 33 18  1  0  0  0  0
 37 20  1  0  0  0  0
 38 20  1  0  0  0  0
 39 20  1  0  0  0  0
M  END
