2,5,19
q = -1.0, confidence = 0.0

 35 36  0  0  1  0  0  0  0  0999 V2000
    1.4313   -2.9799    0.6360 O   0  0  0  0  0  0  0  0  0  0  0  0
    1.9657    0.3679   -0.2083 N   0  0  0  0  0  2  0  0  0  0  0  0
    2.3166   -0.9501   -0.0385 N   0  0  0  0  0  0  0  0  0  0  0  0
   -2.3578   -1.1211   -0.0757 N   0  0  0  0  0  0  0  0  0  0  0  0
   -2.0639    0.2161    0.0018 N   0  0  0  0  0  2  0  0  0  0  0  0
    3.1405    2.5489   -0.4536 C   0  0  0  0  0  0  0  0  0  0  0  0
    3.1642    2.7799   -1.5398 H   0  0  0  0  0  0  0  0  0  0  0  0
    4.0475    2.9854    0.0053 H   0  0  0  0  0  0  0  0  0  0  0  0
    2.2266    3.0164   -0.0327 H   0  0  0  0  0  0  0  0  0  0  0  0
    3.1069    1.0753   -0.2410 C   0  0  2  0  0  3  0  0  0  0  0  0
    4.2055    0.1795   -0.0775 C   0  0  0  0  0  0  0  0  0  0  0  0
    5.2665    0.4503   -0.0693 H   0  0  0  0  0  0  0  0  0  0  0  0
    3.6813   -1.1000    0.0625 C   0  0  0  0  0  0  0  0  0  0  0  0
    4.3480   -2.4166    0.2737 C   0  0  0  0  0  0  0  0  0  0  0  0
    5.4452   -2.2825    0.2672 H   0  0  0  0  0  0  0  0  0  0  0  0
    4.0738   -3.1436   -0.5173 H   0  0  0  0  0  0  0  0  0  0  0  0
    4.0396   -2.8720    1.2349 H   0  0  0  0  0  0  0  0  0  0  0  0
    1.2512   -1.9104    0.0756 C   0  0  0  0  0  0  0  0  0  0  0  0
    0.0013   -1.3914   -0.5348 C   0  0  0  0  0  3  0  0  0  0  0  0
    0.1033   -1.3579   -1.6431 H   0  0  0  0  0  0  0  0  0  0  0  0
   -1.2676   -2.0882   -0.0669 C   0  0  0  0  0  0  0  0  0  0  0  0
   -1.5609   -2.9428   -0.7119 H   0  0  0  0  0  0  0  0  0  0  0  0
   -1.1197   -2.4882    0.9598 H   0  0  0  0  0  0  0  0  0  0  0  0
   -4.3006   -2.7012   -0.1018 C   0  0  0  0  0  0  0  0  0  0  0  0
   -4.0189   -3.2481   -1.0262 H   0  0  0  0  0  0  0  0  0  0  0  0
   -5.4033   -2.6320   -0.0728 H   0  0  0  0  0  0  0  0  0  0  0  0
   -3.9743   -3.3210    0.7595 H   0  0  0  0  0  0  0  0  0  0  0  0
   -3.7038   -1.3341   -0.0600 C   0  0  1  0  0  3  0  0  0  0  0  0
   -4.2960   -0.0713    0.0109 C   0  0  0  0  0  0  0  0  0  0  0  0
   -5.3686    0.1461    0.0363 H   0  0  0  0  0  0  0  0  0  0  0  0
   -3.2437    0.8767    0.0412 C   0  0  0  0  0  0  0  0  0  0  0  0
   -3.3532    2.3631    0.0713 C   0  0  0  0  0  0  0  0  0  0  0  0
   -4.3473    2.6627    0.4529 H   0  0  0  0  0  0  0  0  0  0  0  0
   -3.2340    2.7843   -0.9489 H   0  0  0  0  0  0  0  0  0  0  0  0
   -2.5455    2.8087    0.6834 H   0  0  0  0  0  0  0  0  0  0  0  0
  2  3  1  0  0  0  0
  3 13  1  0  0  0  0
  3 18  1  0  0  0  0
  4 21  1  0  0  0  0
  4 28  1  0  0  0  0
  4  5  1  0  0  0  0
  5 31  1  0  0  0  0
  6  9  1  0  0  0  0
  6  8  1  0  0  0  0
  7  6  1  0  0  0  0
 10  6  1  6  0  0  0
 10  2  1  0  0  0  0
 10 11  1  0  0  0  0
 11 12  1  0  0  0  0
 11 13  2  0  0  0  0
 13 14  1  0  0  0  0
 14 17  1  0  0  0  0
 15 14  1  0  0  0  0
 16 14  1  0  0  0  0
 18  1  2  0  0  0  0
 19 21  1  0  0  0  0
 19 18  1  0  0  0  0
 20 19  1  0  0  0  0
 21 23  1  0  0  0  0
 22 21  1  0  0  0  0
 24 26  1  0  0  0  0
 24 27  1  0  0  0  0
 25 24  1  0  0  0  0
 28 24  1  1  0  0  0
 28 29  1  0  0  0  0
 29 30  1  0  0  0  0
 29 31  2  0  0  0  0
 31 32  1  0  0  0  0
 32 33  1  0  0  0  0
 32 35  1  0  0  0  0
 34 32  1  0  0  0  0
M  END
