1,2,20
q = -1.0, confidence = 0.002

 37 38  0  0  0  0  0  0  0  0999 V2000
   -1.7734   -0.7579   -0.0348 N   0  0  0  0  0  2  0  0  0  0  0  0
    2.2746    0.1126    0.0522 N   0  0  0  0  0  0  0  0  0  0  0  0
   -2.4673   -1.9100    0.0226 C   0  0  0  0  0  0  0  0  0  0  0  0
   -1.8453   -2.8207    0.0599 H   0  0  0  0  0  0  0  0  0  0  0  0
   -3.8673   -1.9255    0.0431 C   0  0  0  0  0  0  0  0  0  0  0  0
   -4.4000   -2.8856    0.0889 H   0  0  0  0  0  0  0  0  0  0  0  0
   -4.5567   -0.7030    0.0067 C   0  0  0  0  0  0  0  0  0  0  0  0
   -5.6568   -0.6816    0.0222 H   0  0  0  0  0  0  0  0  0  0  0  0
   -3.8319    0.4934   -0.0480 C   0  0  0  0  0  0  0  0  0  0  0  0
   -4.3464    1.4641   -0.0751 H   0  0  0  0  0  0  0  0  0  0  0  0
   -2.4261    0.4586   -0.0694 C   0  0  0  0  0  0  0  0  0  0  0  0
   -1.5189    1.6090   -0.1253 C   0  0  0  0  0  0  0  0  0  0  0  0
   -1.8417    2.9825   -0.1431 C   0  0  0  0  0  3  0  0  0  0  0  0
   -2.8900    3.3201   -0.1193 H   0  0  0  0  0  0  0  0  0  0  0  0
   -0.8074    3.9319   -0.1845 C   0  0  0  0  0  0  0  0  0  0  0  0
   -1.0573    5.0032   -0.1912 H   0  0  0  0  0  0  0  0  0  0  0  0
    0.5489    3.5390   -0.2189 C   0  0  0  0  0  0  0  0  0  0  0  0
    1.3351    4.3109   -0.2560 H   0  0  0  0  0  0  0  0  0  0  0  0
    0.8848    2.1741   -0.2093 C   0  0  0  0  0  0  0  0  0  0  0  0
   -0.1555    1.2303   -0.1557 C   0  0  0  0  0  3  0  0  0  0  0  0
    2.2675    1.5821   -0.3224 C   0  0  0  0  0  0  0  0  0  0  0  0
    3.0281    2.1200    0.2864 H   0  0  0  0  0  0  0  0  0  0  0  0
    2.6051    1.6549   -1.3764 H   0  0  0  0  0  0  0  0  0  0  0  0
    3.1711   -0.6678   -0.8558 C   0  0  0  0  0  0  0  0  0  0  0  0
    3.2421   -1.6786   -0.4089 H   0  0  0  0  0  0  0  0  0  0  0  0
    4.1841   -0.2003   -0.8305 H   0  0  0  0  0  0  0  0  0  0  0  0
    2.6561   -0.8027   -2.2804 C   0  0  0  0  0  0  0  0  0  0  0  0
    1.6990   -1.3622   -2.2822 H   0  0  0  0  0  0  0  0  0  0  0  0
    3.3921   -1.3731   -2.8813 H   0  0  0  0  0  0  0  0  0  0  0  0
    2.4986    0.1724   -2.7841 H   0  0  0  0  0  0  0  0  0  0  0  0
    2.7530   -0.0793    1.4584 C   0  0  0  0  0  0  0  0  0  0  0  0
    3.8188    0.2508    1.5025 H   0  0  0  0  0  0  0  0  0  0  0  0
    2.7252   -1.1732    1.6349 H   0  0  0  0  0  0  0  0  0  0  0  0
    1.9339    0.6380    2.5214 C   0  0  0  0  0  0  0  0  0  0  0  0
    0.8832    0.2841    2.5139 H   0  0  0  0  0  0  0  0  0  0  0  0
    1.9234    1.7379    2.3885 H   0  0  0  0  0  0  0  0  0  0  0  0
    2.3694    0.4212    3.5170 H   0  0  0  0  0  0  0  0  0  0  0  0
  1  3  1  0  0  0  0
  2 31  1  0  0  0  0
  3  5  2  0  0  0  0
  3  4  1  0  0  0  0
  5  6  1  0  0  0  0
  7  8  1  0  0  0  0
  7  5  1  0  0  0  0
  9  7  2  0  0  0  0
 10  9  1  0  0  0  0
 11  9  1  0  0  0  0
 11  1  1  0  0  0  0
 12 11  2  0  0  0  0
 13 12  1  0  0  0  0
 13 14  1  0  0  0  0
 15 13  1  0  0  0  0
 16 15  1  0  0  0  0
 17 19  1  0  0  0  0
 17 15  2  0  0  0  0
 18 17  1  0  0  0  0
 19 20  2  0  0  0  0
 20 12  1  0  0  0  0
 21 19  1  0  0  0  0
 21  2  1  0  0  0  0
 21 22  1  0  0  0  0
 23 21  1  0  0  0  0
 24 26  1  0  0  0  0
 24 25  1  0  0  0  0
 24  2  1  0  0  0  0
 27 24  1  0  0  0  0
 28 27  1  0  0  0  0
 29 27  1  0  0  0  0
 30 27  1  0  0  0  0
 31 32  1  0  0  0  0
 31 33  1  0  0  0  0
 31 34  1  0  0  0  0
 34 37  1  0  0  0  0
 35 34  1  0  0  0  0
 36 34  1  0  0  0  0
M  END
