1,2,3
q = -1.0

 38 40  0  0  0  0  0  0  0  0999 V2000
    0.9202    1.2502   -0.3993 N   0  0  0  0  0  2  0  0  0  0  0  0
   -1.4061    0.3590   -1.5217 N   0  0  0  0  0  0  0  0  0  0  0  0
    2.1644   -0.9327    0.2735 C   0  0  0  0  0  2  0  0  0  0  0  0
    2.8032   -2.1448    0.5785 C   0  0  0  0  0  0  0  0  0  0  0  0
    2.3596   -3.0859    0.2228 H   0  0  0  0  0  0  0  0  0  0  0  0
    3.9890   -2.1450    1.3336 C   0  0  0  0  0  0  0  0  0  0  0  0
    4.4817   -3.1026    1.5660 H   0  0  0  0  0  0  0  0  0  0  0  0
    4.5531   -0.9418    1.7984 C   0  0  0  0  0  0  0  0  0  0  0  0
    5.4804   -0.9575    2.3902 H   0  0  0  0  0  0  0  0  0  0  0  0
    3.9309    0.2762    1.5050 C   0  0  0  0  0  0  0  0  0  0  0  0
    4.3720    1.2183    1.8673 H   0  0  0  0  0  0  0  0  0  0  0  0
    2.7418    0.2957    0.7444 C   0  0  0  0  0  0  0  0  0  0  0  0
    2.0259    1.5130    0.3649 C   0  0  0  0  0  0  0  0  0  0  0  0
    2.3332    2.8546    0.6637 C   0  0  0  0  0  0  0  0  0  0  0  0
    3.2125    3.0897    1.2789 H   0  0  0  0  0  0  0  0  0  0  0  0
    1.5093    3.8757    0.1738 C   0  0  0  0  0  0  0  0  0  0  0  0
    1.7376    4.9252    0.4117 H   0  0  0  0  0  0  0  0  0  0  0  0
    0.3939    3.5651   -0.6270 C   0  0  0  0  0  0  0  0  0  0  0  0
   -0.2565    4.3535   -1.0320 H   0  0  0  0  0  0  0  0  0  0  0  0
    0.1306    2.2192   -0.9094 C   0  0  0  0  0  0  0  0  0  0  0  0
   -0.9534    1.7243   -1.8496 C   0  0  0  0  0  0  0  0  0  0  0  0
   -0.5103    1.6785   -2.8670 H   0  0  0  0  0  0  0  0  0  0  0  0
   -1.7995    2.4453   -1.8890 H   0  0  0  0  0  0  0  0  0  0  0  0
   -2.4383    0.2079   -0.5362 C   0  0  0  0  0  0  0  0  0  0  0  0
   -2.7420    1.2212    0.3887 C   0  0  0  0  0  0  0  0  0  0  0  0
   -2.1963    2.1748    0.3832 H   0  0  0  0  0  0  0  0  0  0  0  0
   -3.7410    1.0100    1.3535 C   0  0  0  0  0  0  0  0  0  0  0  0
   -3.9645    1.8137    2.0727 H   0  0  0  0  0  0  0  0  0  0  0  0
   -4.4561   -0.1977    1.4248 C   0  0  0  0  0  0  0  0  0  0  0  0
   -4.1256   -1.2066    0.4923 C   0  0  0  0  0  0  0  0  0  0  0  0
   -4.6526   -2.1731    0.5304 H   0  0  0  0  0  0  0  0  0  0  0  0
   -3.1331   -1.0179   -0.4707 C   0  0  0  0  0  0  0  0  0  0  0  0
   -2.8463   -1.8366   -1.1482 H   0  0  0  0  0  0  0  0  0  0  0  0
   -5.5268   -0.4255    2.4615 C   0  0  0  0  0  0  0  0  0  0  0  0
   -6.5053   -0.6556    1.9903 H   0  0  0  0  0  0  0  0  0  0  0  0
   -5.6637    0.4620    3.1091 H   0  0  0  0  0  0  0  0  0  0  0  0
   -5.2770   -1.2866    3.1163 H   0  0  0  0  0  0  0  0  0  0  0  0
   -1.6369   -0.1733   -2.3669 H   0  0  0  0  0  0  0  0  0  0  0  0
  1 13  1  0  0  0  0
  2 24  1  0  0  0  0
  3  4  1  0  0  0  0
  3 12  1  0  0  0  0
  4  6  2  0  0  0  0
  5  4  1  0  0  0  0
  6  7  1  0  0  0  0
  6  8  1  0  0  0  0
  8  9  1  0  0  0  0
 10  8  2  0  0  0  0
 10 11  1  0  0  0  0
 12 10  1  0  0  0  0
 13 14  1  0  0  0  0
 13 12  2  0  0  0  0
 14 15  1  0  0  0  0
 16 17  1  0  0  0  0
 16 14  2  0  0  0  0
 18 16  1  0  0  0  0
 19 18  1  0  0  0  0
 20 18  2  0  0  0  0
 20  1  1  0  0  0  0
 21  2  1  0  0  0  0
 21 20  1  0  0  0  0
 22 21  1  0  0  0  0
 23 21  1  0  0  0  0
 24 32  2  0  0  0  0
 24 25  1  0  0  0  0
 25 27  2  0  0  0  0
 26 25  1  0  0  0  0
 27 29  1  0  0  0  0
 27 28  1  0  0  0  0
 29 34  1  0  0  0  0
 30 31  1  0  0  0  0
 30 29  2  0  0  0  0
 32 30  1  0  0  0  0
 33 32  1  0  0  0  0
 34 36  1  0  0  0  0
 34 37  1  0  0  0  0
 35 34  1  0  0  0  0
 38  2  1  0  0  0  0
M  END
