1,3,5
q = -1.0

 73 77  0  0  1  0  0  0  0  0999 V2000
    1.8930   -1.3258    0.1240 N   0  0  0  0  0  2  0  0  0  0  0  0
    3.7002    0.0257    0.0387 N   0  0  0  0  0  0  0  0  0  0  0  0
   -1.8017   -1.3509   -0.1129 N   0  0  0  0  0  2  0  0  0  0  0  0
   -3.5994   -0.0558   -0.5345 N   0  0  0  0  0  0  0  0  0  0  0  0
    0.0473    0.2147   -0.2229 C   0  0  0  0  0  2  0  0  0  0  0  0
    1.2814    0.9037   -0.2829 C   0  0  0  0  0  0  0  0  0  0  0  0
    1.2984    2.2664   -0.6487 C   0  0  0  0  0  0  0  0  0  0  0  0
    2.2424    2.8232   -0.7332 H   0  0  0  0  0  0  0  0  0  0  0  0
    0.0786    2.9107   -0.9361 C   0  0  0  0  0  0  0  0  0  0  0  0
    0.0929    3.9685   -1.2379 H   0  0  0  0  0  0  0  0  0  0  0  0
   -1.1581    2.2405   -0.8556 C   0  0  0  0  0  0  0  0  0  0  0  0
   -2.0866    2.7772   -1.0974 H   0  0  0  0  0  0  0  0  0  0  0  0
   -1.1748    0.8800   -0.4817 C   0  0  0  0  0  0  0  0  0  0  0  0
   -2.2378   -0.1170   -0.3631 C   0  0  2  0  0  3  0  0  0  0  0  0
   -4.1131   -1.4400   -0.5727 C   0  0  0  0  0  0  0  0  0  0  0  0
   -4.3334   -1.7417   -1.6198 H   0  0  0  0  0  0  0  0  0  0  0  0
   -5.0503   -1.5118    0.0142 H   0  0  0  0  0  0  0  0  0  0  0  0
   -2.9448   -2.2620    0.0333 C   0  0  2  0  0  0  0  0  0  0  0  0
   -2.7377   -3.1784   -0.5535 H   0  0  0  0  0  0  0  0  0  0  0  0
    2.3342   -0.0762   -0.0146 C   0  0  0  0  0  0  0  0  0  0  0  0
    4.2553   -1.3193    0.3015 C   0  0  0  0  0  0  0  0  0  0  0  0
    4.6857   -1.3427    1.3257 H   0  0  0  0  0  0  0  0  0  0  0  0
    5.0661   -1.5636   -0.4147 H   0  0  0  0  0  0  0  0  0  0  0  0
    3.0271   -2.2569    0.1386 C   0  0  2  0  0  0  0  0  0  0  0  0
    2.9128   -2.9452    1.0006 H   0  0  0  0  0  0  0  0  0  0  0  0
   -3.1306   -2.6842    1.5121 C   0  0  0  0  0  0  0  0  0  0  0  0
   -2.1528   -3.1407    1.7777 H   0  0  0  0  0  0  0  0  0  0  0  0
   -3.3860   -1.4970    2.4452 C   0  0  0  0  0  0  0  0  0  0  0  0
   -2.5704   -0.7492    2.3772 H   0  0  0  0  0  0  0  0  0  0  0  0
   -3.4359   -1.8371    3.4992 H   0  0  0  0  0  0  0  0  0  0  0  0
   -4.3464   -0.9829    2.2233 H   0  0  0  0  0  0  0  0  0  0  0  0
   -4.2118   -3.7616    1.6335 C   0  0  0  0  0  0  0  0  0  0  0  0
   -3.9837   -4.6350    0.9890 H   0  0  0  0  0  0  0  0  0  0  0  0
   -5.2164   -3.3793    1.3489 H   0  0  0  0  0  0  0  0  0  0  0  0
   -4.2877   -4.1256    2.6778 H   0  0  0  0  0  0  0  0  0  0  0  0
    3.0448   -3.1237   -1.1465 C   0  0  0  0  0  0  0  0  0  0  0  0
    2.0627   -3.6431   -1.1291 H   0  0  0  0  0  0  0  0  0  0  0  0
    3.1289   -2.2861   -2.4251 C   0  0  0  0  0  0  0  0  0  0  0  0
    3.0675   -2.9374   -3.3202 H   0  0  0  0  0  0  0  0  0  0  0  0
    4.0837   -1.7213   -2.4987 H   0  0  0  0  0  0  0  0  0  0  0  0
    2.2939   -1.5594   -2.4828 H   0  0  0  0  0  0  0  0  0  0  0  0
    4.1486   -4.1818   -1.0681 C   0  0  0  0  0  0  0  0  0  0  0  0
    4.1085   -4.8554   -1.9476 H   0  0  0  0  0  0  0  0  0  0  0  0
    4.0426   -4.8091   -0.1593 H   0  0  0  0  0  0  0  0  0  0  0  0
    5.1642   -3.7287   -1.0530 H   0  0  0  0  0  0  0  0  0  0  0  0
    4.4623    1.1947    0.2548 C   0  0  0  0  0  0  0  0  0  0  0  0
    5.7305    1.3237   -0.3499 C   0  0  0  0  0  0  0  0  0  0  0  0
    6.0990    0.5283   -1.0141 H   0  0  0  0  0  0  0  0  0  0  0  0
    6.5090    2.4631   -0.1209 C   0  0  0  0  0  0  0  0  0  0  0  0
    7.4953    2.5443   -0.6047 H   0  0  0  0  0  0  0  0  0  0  0  0
    6.0535    3.5140    0.7033 C   0  0  0  0  0  0  0  0  0  0  0  0
    4.7909    3.3650    1.3118 C   0  0  0  0  0  0  0  0  0  0  0  0
    4.4175    4.1564    1.9809 H   0  0  0  0  0  0  0  0  0  0  0  0
    4.0088    2.2208    1.1097 C   0  0  0  0  0  0  0  0  0  0  0  0
    3.0438    2.1116    1.6243 H   0  0  0  0  0  0  0  0  0  0  0  0
    6.8833    4.7557    0.9095 C   0  0  0  0  0  0  0  0  0  0  0  0
    6.5707    5.3099    1.8159 H   0  0  0  0  0  0  0  0  0  0  0  0
    6.7844    5.4510    0.0480 H   0  0  0  0  0  0  0  0  0  0  0  0
    7.9611    4.5155    1.0069 H   0  0  0  0  0  0  0  0  0  0  0  0
   -4.4382    1.0686   -0.4496 C   0  0  0  0  0  0  0  0  0  0  0  0
   -5.6401    1.1080   -1.1877 C   0  0  0  0  0  0  0  0  0  0  0  0
   -5.8994    0.2731   -1.8547 H   0  0  0  0  0  0  0  0  0  0  0  0
   -6.4966    2.2111   -1.0836 C   0  0  0  0  0  0  0  0  0  0  0  0
   -7.4290    2.2211   -1.6699 H   0  0  0  0  0  0  0  0  0  0  0  0
   -6.1896    3.3100   -0.2567 C   0  0  0  0  0  0  0  0  0  0  0  0
   -4.9940    3.2474    0.4906 C   0  0  0  0  0  0  0  0  0  0  0  0
   -4.7390    4.0746    1.1722 H   0  0  0  0  0  0  0  0  0  0  0  0
   -4.1366    2.1451    0.4149 C   0  0  0  0  0  0  0  0  0  0  0  0
   -3.2365    2.0993    1.0435 H   0  0  0  0  0  0  0  0  0  0  0  0
   -7.0945    4.5130   -0.1755 C   0  0  0  0  0  0  0  0  0  0  0  0
   -8.1092    4.2881   -0.5579 H   0  0  0  0  0  0  0  0  0  0  0  0
   -6.6949    5.3582   -0.7767 H   0  0  0  0  0  0  0  0  0  0  0  0
   -7.1936    4.8793    0.8664 H   0  0  0  0  0  0  0  0  0  0  0  0
  1 24  1  0  0  0  0
  2 46  1  0  0  0  0
  2 21  1  0  0  0  0
  3 18  1  0  0  0  0
  4 60  1  0  0  0  0
  4 14  1  0  0  0  0
  6  5  1  0  0  0  0
  6 20  2  0  0  0  0
  7  6  1  0  0  0  0
  8  7  1  0  0  0  0
  9 11  1  0  0  0  0
  9  7  2  0  0  0  0
 10  9  1  0  0  0  0
 11 13  2  0  0  0  0
 12 11  1  0  0  0  0
 13  5  1  0  0  0  0
 14 13  1  6  0  0  0
 14  3  1  0  0  0  0
 15  4  1  0  0  0  0
 15 17  1  0  0  0  0
 15 18  1  0  0  0  0
 16 15  1  0  0  0  0
 18 19  1  6  0  0  0
 18 26  1  0  0  0  0
 20  2  1  0  0  0  0
 20  1  1  0  0  0  0
 21 22  1  0  0  0  0
 23 21  1  0  0  0  0
 24 21  1  0  0  0  0
 24 25  1  1  0  0  0
 26 32  1  0  0  0  0
 26 27  1  0  0  0  0
 26 28  1  0  0  0  0
 28 30  1  0  0  0  0
 29 28  1  0  0  0  0
 31 28  1  0  0  0  0
 32 35  1  0  0  0  0
 33 32  1  0  0  0  0
 34 32  1  0  0  0  0
 36 37  1  0  0  0  0
 36 42  1  0  0  0  0
 36 24  1  0  0  0  0
 38 36  1  0  0  0  0
 39 38  1  0  0  0  0
 40 38  1  0  0  0  0
 41 38  1  0  0  0  0
 42 45  1  0  0  0  0
 42 44  1  0  0  0  0
 43 42  1  0  0  0  0
 46 54  1  0  0  0  0
 47 49  1  0  0  0  0
 47 46  2  0  0  0  0
 48 47  1  0  0  0  0
 49 51  2  0  0  0  0
 50 49  1  0  0  0  0
 51 56  1  0  0  0  0
 51 52  1  0  0  0  0
 52 53  1  0  0  0  0
 54 52  2  0  0  0  0
 54 55  1  0  0  0  0
 56 59  1  0  0  0  0
 56 57  1  0  0  0  0
 58 56  1  0  0  0  0
 60 68  1  0  0  0  0
 61 63  1  0  0  0  0
 61 60  2  0  0  0  0
 62 61  1  0  0  0  0
 63 65  2  0  0  0  0
 64 63  1  0  0  0  0
 65 70  1  0  0  0  0
 65 66  1  0  0  0  0
 66 67  1  0  0  0  0
 68 66  2  0  0  0  0
 68 69  1  0  0  0  0
 70 73  1  0  0  0  0
 71 70  1  0  0  0  0
 72 70  1  0  0  0  0
M  END
