4,5,23
q = -1.0

 32 34  0  0  1  0  0  0  0  0999 V2000
   -5.3963    0.5632   -0.0000 O   0  0  0  0  0  0  0  0  0  0  0  0
   -6.3416    0.2994    0.0001 H   0  0  0  0  0  0  0  0  0  0  0  0
   -5.2262   -1.6950   -0.0002 O   0  0  0  0  0  0  0  0  0  0  0  0
    0.8623    2.1751   -0.0004 N   0  0  0  0  0  2  0  0  0  0  0  0
   -0.4805   -0.0706    0.0000 N   0  0  0  0  0  2  0  0  0  0  0  0
    1.6554    3.2589   -0.0002 C   0  0  0  0  0  0  0  0  0  0  0  0
    2.7373    3.0394   -0.0006 H   0  0  0  0  0  0  0  0  0  0  0  0
    1.1321    4.5585    0.0006 C   0  0  0  0  0  0  0  0  0  0  0  0
    1.8104    5.4235    0.0009 H   0  0  0  0  0  0  0  0  0  0  0  0
   -0.2619    4.7226    0.0011 C   0  0  0  0  0  0  0  0  0  0  0  0
   -0.7072    5.7285    0.0017 H   0  0  0  0  0  0  0  0  0  0  0  0
   -1.0865    3.5905    0.0007 C   0  0  0  0  0  0  0  0  0  0  0  0
   -2.1800    3.6952    0.0012 H   0  0  0  0  0  0  0  0  0  0  0  0
   -0.4973    2.3136   -0.0000 C   0  0  0  0  0  0  0  0  0  0  0  0
   -1.2600    1.0440   -0.0001 C   0  0  0  0  0  0  0  0  0  0  0  0
   -2.6566    0.9179   -0.0003 C   0  0  0  0  0  0  0  0  0  0  0  0
   -3.3117    1.7974   -0.0005 H   0  0  0  0  0  0  0  0  0  0  0  0
   -3.2164   -0.3762   -0.0003 C   0  0  0  0  0  0  0  0  0  0  0  0
   -2.3824   -1.5086   -0.0000 C   0  0  0  0  0  0  0  0  0  0  0  0
   -2.8431   -2.5058   -0.0000 H   0  0  0  0  0  0  0  0  0  0  0  0
   -0.9872   -1.3435    0.0001 C   0  0  0  0  0  0  0  0  0  0  0  0
   -4.6946   -0.5992   -0.0006 C   0  0  0  0  0  0  0  0  0  0  0  0
    1.4094   -1.8660    0.0001 C   0  0  0  0  0  2  0  0  0  0  0  0
    0.0609   -2.3635    0.0003 C   0  0  2  0  0  3  0  0  0  0  0  0
   -0.1906   -3.7525    0.0005 C   0  0  0  0  0  0  0  0  0  0  0  0
   -1.2256   -4.1289    0.0006 H   0  0  0  0  0  0  0  0  0  0  0  0
    2.2019   -4.1694    0.0006 C   0  0  0  0  0  0  0  0  0  0  0  0
    3.0418   -4.8823    0.0007 H   0  0  0  0  0  0  0  0  0  0  0  0
    2.4673   -2.7886    0.0003 C   0  0  0  0  0  0  0  0  0  0  0  0
    3.5013   -2.4138    0.0002 H   0  0  0  0  0  0  0  0  0  0  0  0
    0.8799   -4.6532    0.0007 C   0  0  0  0  0  0  0  0  0  0  0  0
    0.6870   -5.7363    0.0009 H   0  0  0  0  0  0  0  0  0  0  0  0
  1  2  1  0  0  0  0
  4  6  1  0  0  0  0
  4 14  1  0  0  0  0
  5 21  1  0  0  0  0
  6  8  2  0  0  0  0
  7  6  1  0  0  0  0
  8  9  1  0  0  0  0
  8 10  1  0  0  0  0
 10 11  1  0  0  0  0
 12 10  2  0  0  0  0
 12 13  1  0  0  0  0
 14 12  1  0  0  0  0
 15 14  2  0  0  0  0
 15  5  1  0  0  0  0
 16 18  2  0  0  0  0
 16 15  1  0  0  0  0
 17 16  1  0  0  0  0
 18 19  1  0  0  0  0
 19 20  1  0  0  0  0
 19 21  2  0  0  0  0
 22 18  1  0  0  0  0
 22  3  2  0  0  0  0
 22  1  1  0  0  0  0
 23 24  1  0  0  0  0
 23 29  1  0  0  0  0
 24 21  1  6  0  0  0
 24 25  1  0  0  0  0
 25 26  1  0  0  0  0
 25 31  2  0  0  0  0
 27 31  1  0  0  0  0
 27 28  1  0  0  0  0
 29 27  2  0  0  0  0
 30 29  1  0  0  0  0
 31 32  1  0  0  0  0
M  END
