1,2,31
q = -1.0, confidence = 0.002

 33 37  0  0  1  0  0  0  0  0999 V2000
    2.0816   -0.8963   -0.0011 N   0  0  0  0  0  2  0  0  0  0  0  0
   -2.0816   -0.8964   -0.0011 N   0  0  0  0  0  2  0  0  0  0  0  0
    3.1239   -1.7376    0.0006 C   0  0  0  0  0  0  0  0  0  0  0  0
    2.8688   -2.8099    0.0007 H   0  0  0  0  0  0  0  0  0  0  0  0
    4.4563   -1.2613    0.0023 C   0  0  0  0  0  0  0  0  0  0  0  0
    5.2772   -1.9923    0.0036 H   0  0  0  0  0  0  0  0  0  0  0  0
    4.7246    0.1120    0.0026 C   0  0  0  0  0  0  0  0  0  0  0  0
    5.7630    0.4786    0.0041 H   0  0  0  0  0  0  0  0  0  0  0  0
    3.6422    1.0273    0.0010 C   0  0  0  0  0  0  0  0  0  0  0  0
    3.7054    2.4769    0.0016 C   0  0  0  0  0  0  0  0  0  0  0  0
    4.7012    2.9469    0.0029 H   0  0  0  0  0  0  0  0  0  0  0  0
    2.5778    3.2815    0.0008 C   0  0  0  0  0  0  0  0  0  0  0  0
    2.7016    4.3760    0.0016 H   0  0  0  0  0  0  0  0  0  0  0  0
    1.2398    2.7253   -0.0008 C   0  0  0  0  0  0  0  0  0  0  0  0
   -0.0001    3.4288   -0.0004 C   0  0  0  0  0  0  0  0  0  0  0  0
   -0.0001    4.5297    0.0008 H   0  0  0  0  0  0  0  0  0  0  0  0
   -1.2400    2.7253   -0.0008 C   0  0  0  0  0  0  0  0  0  0  0  0
   -2.5779    3.2814    0.0008 C   0  0  0  0  0  0  0  0  0  0  0  0
   -2.7017    4.3759    0.0016 H   0  0  0  0  0  0  0  0  0  0  0  0
   -3.7055    2.4768    0.0016 C   0  0  0  0  0  3  0  0  0  0  0  0
   -4.7013    2.9468    0.0030 H   0  0  0  0  0  0  0  0  0  0  0  0
   -3.6423    1.0271    0.0010 C   0  0  0  0  0  0  0  0  0  0  0  0
   -4.7247    0.1118    0.0026 C   0  0  0  0  0  0  0  0  0  0  0  0
   -5.7631    0.4784    0.0041 H   0  0  0  0  0  0  0  0  0  0  0  0
   -4.4562   -1.2615    0.0023 C   0  0  0  0  0  0  0  0  0  0  0  0
   -5.2772   -1.9925    0.0036 H   0  0  0  0  0  0  0  0  0  0  0  0
   -3.1239   -1.7377    0.0006 C   0  0  0  0  0  0  0  0  0  0  0  0
   -2.8688   -2.8100    0.0007 H   0  0  0  0  0  0  0  0  0  0  0  0
   -2.3440    0.4596   -0.0010 C   0  0  0  0  0  0  0  0  0  0  0  0
   -1.2004    1.2970   -0.0022 C   0  0  0  0  0  0  0  0  0  0  0  0
   -0.0000    0.5958   -0.0031 C   0  0  0  0  0  3  0  0  0  0  0  0
    1.2004    1.2971   -0.0022 C   0  0  0  0  0  0  0  0  0  0  0  0
    2.3439    0.4597   -0.0010 C   0  0  2  0  0  3  0  0  0  0  0  0
  1 33  1  0  0  0  0
  1  3  1  0  0  0  0
  2 29  1  0  0  0  0
  2 27  1  0  0  0  0
  3  4  1  0  0  0  0
  3  5  2  0  0  0  0
  5  7  1  0  0  0  0
  5  6  1  0  0  0  0
  7  8  1  0  0  0  0
  9 10  1  0  0  0  0
  9  7  2  0  0  0  0
 10 11  1  0  0  0  0
 12 10  2  0  0  0  0
 12 13  1  0  0  0  0
 14 15  2  0  0  0  0
 14 12  1  0  0  0  0
 15 16  1  0  0  0  0
 17 15  1  0  0  0  0
 17 18  2  0  0  0  0
 18 20  1  0  0  0  0
 18 19  1  0  0  0  0
 20 21  1  0  0  0  0
 22 20  1  0  0  0  0
 22 23  2  0  0  0  0
 23 24  1  0  0  0  0
 25 23  1  0  0  0  0
 25 26  1  0  0  0  0
 27 28  1  0  0  0  0
 27 25  2  0  0  0  0
 29 22  1  0  0  0  0
 30 29  2  0  0  0  0
 30 17  1  0  0  0  0
 31 30  1  0  0  0  0
 31 32  2  0  0  0  0
 32 14  1  0  0  0  0
 33 32  1  1  0  0  0
 33  9  1  0  0  0  0
M  END
