1,3,25
q = -1.0, confidence = 0.022

 41 44  0  0  0  0  0  0  0  0999 V2000
    0.1576    0.9619    0.1431 N   0  0  0  0  0  0  0  0  0  0  0  0
    2.5432    1.2817   -0.2812 N   0  0  0  0  0  0  0  0  0  0  0  0
    2.2290   -1.0618    0.2470 N   0  0  0  0  0  2  0  0  0  0  0  0
   -2.1925    1.5003    0.2469 N   0  0  0  0  0  0  0  0  0  0  0  0
   -3.9913    0.1313    0.2766 N   0  0  0  0  0  0  0  0  0  0  0  0
   -4.4353    1.0398    0.4585 H   0  0  0  0  0  0  0  0  0  0  0  0
    1.3250    1.6930   -0.0757 C   0  0  0  0  0  0  0  0  0  0  0  0
    0.9667    3.1293   -0.0772 C   0  0  0  0  0  3  0  0  0  0  0  0
    1.7437    4.2807   -0.2232 C   0  0  0  0  0  0  0  0  0  0  0  0
    2.8297    4.2014   -0.3768 H   0  0  0  0  0  0  0  0  0  0  0  0
    1.0832    5.5230   -0.1695 C   0  0  0  0  0  0  0  0  0  0  0  0
    1.6628    6.4522   -0.2800 H   0  0  0  0  0  0  0  0  0  0  0  0
   -0.3119    5.5986    0.0209 C   0  0  0  0  0  0  0  0  0  0  0  0
   -0.7981    6.5853    0.0571 H   0  0  0  0  0  0  0  0  0  0  0  0
   -1.0906    4.4341    0.1608 C   0  0  0  0  0  0  0  0  0  0  0  0
   -2.1803    4.4776    0.3022 H   0  0  0  0  0  0  0  0  0  0  0  0
   -0.4284    3.2042    0.1124 C   0  0  0  0  0  0  0  0  0  0  0  0
   -0.9129    1.8123    0.1926 C   0  0  0  0  0  0  0  0  0  0  0  0
   -2.6166    0.2193    0.1289 C   0  0  0  0  0  0  0  0  0  0  0  0
   -4.7396   -1.0001    0.1965 C   0  0  0  0  0  0  0  0  0  0  0  0
   -4.0526   -2.1821   -0.0629 C   0  0  0  0  0  0  0  0  0  0  0  0
   -4.6138   -3.1243   -0.1363 H   0  0  0  0  0  0  0  0  0  0  0  0
   -2.6517   -2.1618   -0.2295 C   0  0  0  0  0  0  0  0  0  0  0  0
   -2.1181   -3.0999   -0.4477 H   0  0  0  0  0  0  0  0  0  0  0  0
   -1.8839   -0.9821   -0.1429 C   0  0  0  0  0  3  0  0  0  0  0  0
    2.8224   -2.1891    0.7358 C   0  0  0  0  0  0  0  0  0  0  0  0
    4.2159   -2.3609    0.6507 C   0  0  0  0  0  0  0  0  0  0  0  0
    4.6589   -3.2904    1.0348 H   0  0  0  0  0  0  0  0  0  0  0  0
    5.0173   -1.3541    0.0937 C   0  0  0  0  0  0  0  0  0  0  0  0
    6.1046   -1.4914   -0.0054 H   0  0  0  0  0  0  0  0  0  0  0  0
    4.4158   -0.1524   -0.2641 C   0  0  0  0  0  0  0  0  0  0  0  0
    4.9826    0.7224   -0.6085 H   0  0  0  0  0  0  0  0  0  0  0  0
    3.0121    0.0006   -0.1231 C   0  0  0  0  0  0  0  0  0  0  0  0
   -6.2203   -0.8781    0.3913 C   0  0  0  0  0  0  0  0  0  0  0  0
   -6.6735   -0.2012   -0.3635 H   0  0  0  0  0  0  0  0  0  0  0  0
   -6.4651   -0.4692    1.3945 H   0  0  0  0  0  0  0  0  0  0  0  0
   -6.7042   -1.8668    0.2977 H   0  0  0  0  0  0  0  0  0  0  0  0
    1.9802   -3.2269    1.4176 C   0  0  0  0  0  0  0  0  0  0  0  0
    1.2309   -2.7391    2.0728 H   0  0  0  0  0  0  0  0  0  0  0  0
    2.6145   -3.9029    2.0214 H   0  0  0  0  0  0  0  0  0  0  0  0
    1.4053   -3.8109    0.6689 H   0  0  0  0  0  0  0  0  0  0  0  0
  1 18  1  0  0  0  0
  2 33  2  0  0  0  0
  2  7  1  0  0  0  0
  3 26  1  0  0  0  0
  5  6  1  0  0  0  0
  7  1  2  0  0  0  0
  8  7  1  0  0  0  0
  8 17  1  0  0  0  0
  9 11  2  0  0  0  0
  9  8  1  0  0  0  0
 10  9  1  0  0  0  0
 11 13  1  0  0  0  0
 12 11  1  0  0  0  0
 13 14  1  0  0  0  0
 13 15  2  0  0  0  0
 15 16  1  0  0  0  0
 17 15  1  0  0  0  0
 17 18  2  0  0  0  0
 18  4  1  0  0  0  0
 19  4  2  0  0  0  0
 19  5  1  0  0  0  0
 20  5  1  0  0  0  0
 20 34  1  0  0  0  0
 21 20  2  0  0  0  0
 22 21  1  0  0  0  0
 23 25  2  0  0  0  0
 23 21  1  0  0  0  0
 24 23  1  0  0  0  0
 25 19  1  0  0  0  0
 26 38  1  0  0  0  0
 27 26  2  0  0  0  0
 27 28  1  0  0  0  0
 29 27  1  0  0  0  0
 30 29  1  0  0  0  0
 31 33  1  0  0  0  0
 31 29  2  0  0  0  0
 32 31  1  0  0  0  0
 33  3  1  0  0  0  0
 34 36  1  0  0  0  0
 35 34  1  0  0  0  0
 37 34  1  0  0  0  0
 38 40  1  0  0  0  0
 38 39  1  0  0  0  0
 41 38  1  0  0  0  0
M  END
