1,3,35
q = -1.0

 73 77  0  0  1  0  0  0  0  0999 V2000
    2.1871   -0.8785   -0.4429 N   0  0  0  0  0  2  0  0  0  0  0  0
    3.5268    0.6834   -1.3055 N   0  0  0  0  0  0  0  0  0  0  0  0
   -1.7596   -1.5731    0.0363 N   0  0  0  0  0  2  0  0  0  0  0  0
   -3.7053   -0.5983   -0.4535 N   0  0  0  0  0  0  0  0  0  0  0  0
    3.4831   -1.3371   -0.2742 C   0  0  0  0  0  0  0  0  0  0  0  0
    3.9994   -2.5148    0.2957 C   0  0  0  0  0  0  0  0  0  0  0  0
    3.3195   -3.2715    0.7105 H   0  0  0  0  0  0  0  0  0  0  0  0
    5.3890   -2.6562    0.3000 C   0  0  0  0  0  0  0  0  0  0  0  0
    5.8325   -3.5629    0.7366 H   0  0  0  0  0  0  0  0  0  0  0  0
    6.2446   -1.6641   -0.2423 C   0  0  0  0  0  0  0  0  0  0  0  0
    7.3328   -1.8198   -0.2146 H   0  0  0  0  0  0  0  0  0  0  0  0
    5.7408   -0.4901   -0.8105 C   0  0  0  0  0  0  0  0  0  0  0  0
    6.4113    0.2768   -1.2211 H   0  0  0  0  0  0  0  0  0  0  0  0
    4.3443   -0.3408   -0.8195 C   0  0  0  0  0  0  0  0  0  0  0  0
    4.0045    1.9336   -1.9069 C   0  0  0  0  0  0  0  0  0  0  0  0
    3.3639    2.1539   -2.7829 H   0  0  0  0  0  0  0  0  0  0  0  0
    5.0154    1.7238   -2.3069 H   0  0  0  0  0  0  0  0  0  0  0  0
    4.0421    3.1071   -0.9225 C   0  0  0  0  0  0  0  0  0  0  0  0
    3.0143    3.3060   -0.5465 H   0  0  0  0  0  0  0  0  0  0  0  0
    4.3331    4.0095   -1.5024 H   0  0  0  0  0  0  0  0  0  0  0  0
    4.9948    2.9183    0.2609 C   0  0  0  0  0  0  0  0  0  0  0  0
    4.7164    2.0015    0.8265 H   0  0  0  0  0  0  0  0  0  0  0  0
    6.0249    2.7370   -0.1199 H   0  0  0  0  0  0  0  0  0  0  0  0
    5.0094    4.1128    1.2186 C   0  0  0  0  0  0  0  0  0  0  0  0
    3.9768    4.2945    1.5943 H   0  0  0  0  0  0  0  0  0  0  0  0
    5.2897    5.0326    0.6575 H   0  0  0  0  0  0  0  0  0  0  0  0
    5.9580    3.9331    2.4079 C   0  0  0  0  0  0  0  0  0  0  0  0
    5.6758    3.0098    2.9614 H   0  0  0  0  0  0  0  0  0  0  0  0
    6.9873    3.7504    2.0269 H   0  0  0  0  0  0  0  0  0  0  0  0
    5.9652    5.1270    3.3625 C   0  0  0  0  0  0  0  0  0  0  0  0
    4.9566    5.3108    3.7876 H   0  0  0  0  0  0  0  0  0  0  0  0
    6.2800    6.0565    2.8443 H   0  0  0  0  0  0  0  0  0  0  0  0
    6.6601    4.9666    4.2103 H   0  0  0  0  0  0  0  0  0  0  0  0
    2.2319    0.3385   -1.0613 C   0  0  1  0  0  3  0  0  0  0  0  0
   -0.1247    0.2066   -0.9268 C   0  0  0  0  0  2  0  0  0  0  0  0
    0.9586    0.9976   -1.3483 C   0  0  0  0  0  0  0  0  0  0  0  0
    0.6523    2.2431   -1.9463 C   0  0  0  0  0  0  0  0  0  0  0  0
    1.4398    2.9239   -2.2940 H   0  0  0  0  0  0  0  0  0  0  0  0
   -0.6931    2.6264   -2.0883 C   0  0  0  0  0  0  0  0  0  0  0  0
   -0.9200    3.5986   -2.5486 H   0  0  0  0  0  0  0  0  0  0  0  0
   -1.7586    1.8167   -1.6571 C   0  0  0  0  0  0  0  0  0  0  0  0
   -2.7879    2.1776   -1.7814 H   0  0  0  0  0  0  0  0  0  0  0  0
   -1.4778    0.5638   -1.0624 C   0  0  0  0  0  0  0  0  0  0  0  0
   -2.3512   -0.4759   -0.5216 C   0  0  0  0  0  0  0  0  0  0  0  0
   -4.7024    0.3758   -0.9008 C   0  0  0  0  0  0  0  0  0  0  0  0
   -5.6255   -0.1918   -1.1298 H   0  0  0  0  0  0  0  0  0  0  0  0
   -4.3591    0.8005   -1.8648 H   0  0  0  0  0  0  0  0  0  0  0  0
   -4.9778    1.4714    0.1320 C   0  0  0  0  0  0  0  0  0  0  0  0
   -5.3296    0.9983    1.0739 H   0  0  0  0  0  0  0  0  0  0  0  0
   -4.0245    1.9857    0.3848 H   0  0  0  0  0  0  0  0  0  0  0  0
   -3.9975   -1.8026    0.1911 C   0  0  0  0  0  0  0  0  0  0  0  0
   -5.2230   -2.3992    0.5282 C   0  0  0  0  0  0  0  0  0  0  0  0
   -6.1857   -1.9189    0.3049 H   0  0  0  0  0  0  0  0  0  0  0  0
   -5.1616   -3.6390    1.1723 C   0  0  0  0  0  0  0  0  0  0  0  0
   -6.0978   -4.1415    1.4556 H   0  0  0  0  0  0  0  0  0  0  0  0
   -3.9235   -4.2626    1.4703 C   0  0  0  0  0  0  0  0  0  0  0  0
   -3.9264   -5.2383    1.9775 H   0  0  0  0  0  0  0  0  0  0  0  0
   -2.7005   -3.6734    1.1401 C   0  0  0  0  0  0  0  0  0  0  0  0
   -1.7316   -4.1408    1.3630 H   0  0  0  0  0  0  0  0  0  0  0  0
   -2.7516   -2.4255    0.4936 C   0  0  0  0  0  0  0  0  0  0  0  0
   -6.3007    3.5971    0.6543 C   0  0  0  0  0  0  0  0  0  0  0  0
   -6.6617    3.1367    1.6014 H   0  0  0  0  0  0  0  0  0  0  0  0
   -5.3522    4.1178    0.9178 H   0  0  0  0  0  0  0  0  0  0  0  0
   -7.6150    5.7245    1.1865 C   0  0  0  0  0  0  0  0  0  0  0  0
   -8.3592    6.4504    0.8038 H   0  0  0  0  0  0  0  0  0  0  0  0
   -6.6955    6.2917    1.4412 H   0  0  0  0  0  0  0  0  0  0  0  0
   -8.0155    5.3028    2.1317 H   0  0  0  0  0  0  0  0  0  0  0  0
   -7.3262    4.6246    0.1649 C   0  0  0  0  0  0  0  0  0  0  0  0
   -8.2706    4.0983   -0.0979 H   0  0  0  0  0  0  0  0  0  0  0  0
   -6.9627    5.0783   -0.7841 H   0  0  0  0  0  0  0  0  0  0  0  0
   -6.0056    2.4918   -0.3634 C   0  0  0  0  0  0  0  0  0  0  0  0
   -6.9518    1.9678   -0.6258 H   0  0  0  0  0  0  0  0  0  0  0  0
   -5.6458    2.9503   -1.3130 H   0  0  0  0  0  0  0  0  0  0  0  0
  1  5  1  0  0  0  0
  2 34  1  0  0  0  0
  2 14  1  0  0  0  0
  3 60  1  0  0  0  0
  4 51  1  0  0  0  0
  5  6  1  0  0  0  0
  6  8  2  0  0  0  0
  6  7  1  0  0  0  0
  8  9  1  0  0  0  0
 10 11  1  0  0  0  0
 10  8  1  0  0  0  0
 12 10  2  0  0  0  0
 13 12  1  0  0  0  0
 14 12  1  0  0  0  0
 14  5  2  0  0  0  0
 15  2  1  0  0  0  0
 15 18  1  0  0  0  0
 16 15  1  0  0  0  0
 17 15  1  0  0  0  0
 18 19  1  0  0  0  0
 18 21  1  0  0  0  0
 20 18  1  0  0  0  0
 21 22  1  0  0  0  0
 21 24  1  0  0  0  0
 23 21  1  0  0  0  0
 24 25  1  0  0  0  0
 24 27  1  0  0  0  0
 26 24  1  0  0  0  0
 27 28  1  0  0  0  0
 27 30  1  0  0  0  0
 29 27  1  0  0  0  0
 30 31  1  0  0  0  0
 30 33  1  0  0  0  0
 32 30  1  0  0  0  0
 34 36  1  6  0  0  0
 34  1  1  0  0  0  0
 36 35  1  0  0  0  0
 37 36  2  0  0  0  0
 38 37  1  0  0  0  0
 39 37  1  0  0  0  0
 39 41  2  0  0  0  0
 40 39  1  0  0  0  0
 41 43  1  0  0  0  0
 42 41  1  0  0  0  0
 43 35  1  0  0  0  0
 43 44  2  0  0  0  0
 44  4  1  0  0  0  0
 44  3  1  0  0  0  0
 45  4  1  0  0  0  0
 45 48  1  0  0  0  0
 46 45  1  0  0  0  0
 47 45  1  0  0  0  0
 48 50  1  0  0  0  0
 48 49  1  0  0  0  0
 51 60  2  0  0  0  0
 51 52  1  0  0  0  0
 52 54  2  0  0  0  0
 53 52  1  0  0  0  0
 54 55  1  0  0  0  0
 54 56  1  0  0  0  0
 56 57  1  0  0  0  0
 58 59  1  0  0  0  0
 58 56  2  0  0  0  0
 60 58  1  0  0  0  0
 61 63  1  0  0  0  0
 61 62  1  0  0  0  0
 64 66  1  0  0  0  0
 64 67  1  0  0  0  0
 65 64  1  0  0  0  0
 68 61  1  0  0  0  0
 68 64  1  0  0  0  0
 69 68  1  0  0  0  0
 70 68  1  0  0  0  0
 71 48  1  0  0  0  0
 71 61  1  0  0  0  0
 72 71  1  0  0  0  0
 73 71  1  0  0  0  0
M  END
