1,2,13
q = -1.0, confidence = 0.002

 35 37  0  0  1  0  0  0  0  0999 V2000
    0.0011    0.1712    2.0234 N   0  0  0  0  0  2  0  0  0  0  0  0
   -0.0009    0.1730   -2.0233 N   0  0  0  0  0  2  0  0  0  0  0  0
    0.0026   -0.7933    2.9723 C   0  0  0  0  0  3  0  0  0  0  0  0
    0.0033   -1.8290    2.6017 H   0  0  0  0  0  0  0  0  0  0  0  0
    0.0034   -0.5132    4.3388 C   0  0  0  0  0  0  0  0  0  0  0  0
    0.0046   -1.3361    5.0669 H   0  0  0  0  0  0  0  0  0  0  0  0
    0.0024    0.8319    4.7395 C   0  0  0  0  0  0  0  0  0  0  0  0
    0.0030    1.1009    5.8060 H   0  0  0  0  0  0  0  0  0  0  0  0
    0.0009    1.8345    3.7662 C   0  0  0  0  0  0  0  0  0  0  0  0
    0.0002    2.8836    4.0735 H   0  0  0  0  0  0  0  0  0  0  0  0
    0.0002    1.5121    2.3905 C   0  0  0  0  0  0  0  0  0  0  0  0
   -0.0013    2.4353    1.2517 C   0  0  0  0  0  0  0  0  0  0  0  0
   -0.0012    1.7459    0.0007 C   0  0  0  0  0  3  0  0  0  0  0  0
   -0.0026    2.4364   -1.2497 C   0  0  0  0  0  0  0  0  0  0  0  0
   -0.0042    3.8599   -1.2492 C   0  0  0  0  0  0  0  0  0  0  0  0
   -0.0043    4.5115    0.0019 C   0  0  0  0  0  0  0  0  0  0  0  0
   -0.0056    5.6126    0.0024 H   0  0  0  0  0  0  0  0  0  0  0  0
   -0.0029    3.8588    1.2524 C   0  0  0  0  0  0  0  0  0  0  0  0
   -0.0022    1.5142   -2.3893 C   0  0  2  0  0  3  0  0  0  0  0  0
   -0.0030    1.8377   -3.7647 C   0  0  0  0  0  0  0  0  0  0  0  0
   -0.0040    2.8870   -4.0712 H   0  0  0  0  0  0  0  0  0  0  0  0
   -0.0025    0.8359   -4.7389 C   0  0  0  0  0  0  0  0  0  0  0  0
   -0.0031    1.1057   -5.8051 H   0  0  0  0  0  0  0  0  0  0  0  0
   -0.0012   -0.5096   -4.3393 C   0  0  0  0  0  0  0  0  0  0  0  0
   -0.0008   -1.3318   -5.0680 H   0  0  0  0  0  0  0  0  0  0  0  0
   -0.0004   -0.7907   -2.9730 C   0  0  0  0  0  0  0  0  0  0  0  0
    0.0007   -1.8268   -2.6032 H   0  0  0  0  0  0  0  0  0  0  0  0
   -0.0031    4.7147    2.4928 C   0  0  0  0  0  0  0  0  0  0  0  0
   -0.0046    5.7885    2.2277 H   0  0  0  0  0  0  0  0  0  0  0  0
    0.8908    4.5301    3.1246 H   0  0  0  0  0  0  0  0  0  0  0  0
   -0.8959    4.5280    3.1257 H   0  0  0  0  0  0  0  0  0  0  0  0
   -0.0060    4.7168   -2.4889 C   0  0  0  0  0  0  0  0  0  0  0  0
   -0.0074    5.7905   -2.2229 H   0  0  0  0  0  0  0  0  0  0  0  0
   -0.8993    4.5305   -3.1210 H   0  0  0  0  0  0  0  0  0  0  0  0
    0.8874    4.5330   -3.1217 H   0  0  0  0  0  0  0  0  0  0  0  0
  1 11  1  0  0  0  0
  1  3  1  0  0  0  0
  3  5  1  0  0  0  0
  4  3  1  0  0  0  0
  5  7  2  0  0  0  0
  5  6  1  0  0  0  0
  7  8  1  0  0  0  0
  9 10  1  0  0  0  0
  9  7  1  0  0  0  0
 11  9  2  0  0  0  0
 12 18  1  0  0  0  0
 12 11  1  0  0  0  0
 13 12  2  0  0  0  0
 14 15  2  0  0  0  0
 14 13  1  0  0  0  0
 15 16  1  0  0  0  0
 16 17  1  0  0  0  0
 16 18  2  0  0  0  0
 18 28  1  0  0  0  0
 19  2  1  0  0  0  0
 19 14  1  1  0  0  0
 20 19  1  0  0  0  0
 21 20  1  0  0  0  0
 22 24  1  0  0  0  0
 22 20  2  0  0  0  0
 23 22  1  0  0  0  0
 24 26  2  0  0  0  0
 25 24  1  0  0  0  0
 26 27  1  0  0  0  0
 26  2  1  0  0  0  0
 28 30  1  0  0  0  0
 28 31  1  0  0  0  0
 29 28  1  0  0  0  0
 32 33  1  0  0  0  0
 32 15  1  0  0  0  0
 34 32  1  0  0  0  0
 35 32  1  0  0  0  0
M  END
