1,3,13
q = -1.0

 31 33  0  0  1  0  0  0  0  0999 V2000
   -1.4246    1.6095    0.0001 N   0  0  0  0  0  2  0  0  0  0  0  0
   -0.5251    3.8161   -0.0001 N   0  0  0  0  0  0  0  0  0  0  0  0
    0.2684   -2.0607    0.0001 N   0  0  0  0  0  2  0  0  0  0  0  0
    2.5339   -2.8033   -0.0001 N   0  0  0  0  0  0  0  0  0  0  0  0
    4.5781    2.2666    0.0009 O   0  0  0  0  0  0  0  0  0  0  0  0
   -0.3532    2.4930    0.0003 C   0  0  2  0  0  3  0  0  0  0  0  0
   -2.6837    2.0712   -0.0006 C   0  0  0  0  0  0  0  0  0  0  0  0
   -3.4676    1.2934   -0.0008 H   0  0  0  0  0  0  0  0  0  0  0  0
   -2.9107    3.4520   -0.0010 C   0  0  0  0  0  0  0  0  0  0  0  0
   -3.9325    3.8547   -0.0016 H   0  0  0  0  0  0  0  0  0  0  0  0
   -1.7814    4.2857   -0.0007 C   0  0  0  0  0  0  0  0  0  0  0  0
   -1.8931    5.3842   -0.0011 H   0  0  0  0  0  0  0  0  0  0  0  0
    0.8881    0.4494    0.0009 C   0  0  0  0  0  3  0  0  0  0  0  0
    0.9665    1.8475    0.0008 C   0  0  0  0  0  0  0  0  0  0  0  0
    2.2409    2.4356    0.0007 C   0  0  0  0  0  0  0  0  0  0  0  0
    2.3714    3.5271    0.0005 H   0  0  0  0  0  0  0  0  0  0  0  0
    3.3919    1.6016    0.0007 C   0  0  0  0  0  0  0  0  0  0  0  0
    3.2850    0.1889    0.0007 C   0  0  0  0  0  0  0  0  0  0  0  0
    4.1681   -0.4634    0.0007 H   0  0  0  0  0  0  0  0  0  0  0  0
    1.9991   -0.3940    0.0008 C   0  0  0  0  0  0  0  0  0  0  0  0
    1.6359   -1.8149    0.0003 C   0  0  1  0  0  3  0  0  0  0  0  0
    2.0781   -4.0646   -0.0007 C   0  0  0  0  0  0  0  0  0  0  0  0
    2.8426   -4.8612   -0.0010 H   0  0  0  0  0  0  0  0  0  0  0  0
    0.7115   -4.3860   -0.0010 C   0  0  0  0  0  0  0  0  0  0  0  0
    0.3574   -5.4255   -0.0015 H   0  0  0  0  0  0  0  0  0  0  0  0
   -0.1942   -3.3189   -0.0006 C   0  0  0  0  0  0  0  0  0  0  0  0
   -1.2945   -3.4133   -0.0008 H   0  0  0  0  0  0  0  0  0  0  0  0
    5.7752    1.5109   -0.0012 C   0  0  0  0  0  0  0  0  0  0  0  0
    5.8601    0.8672    0.9030 H   0  0  0  0  0  0  0  0  0  0  0  0
    6.6048    2.2414   -0.0024 H   0  0  0  0  0  0  0  0  0  0  0  0
    5.8571    0.8676   -0.9059 H   0  0  0  0  0  0  0  0  0  0  0  0
  1  6  1  0  0  0  0
  2  6  1  0  0  0  0
  3 21  1  0  0  0  0
  4 21  1  0  0  0  0
  6 14  1  6  0  0  0
  7  1  1  0  0  0  0
  8  7  1  0  0  0  0
  9 11  1  0  0  0  0
  9  7  2  0  0  0  0
 10  9  1  0  0  0  0
 11  2  2  0  0  0  0
 12 11  1  0  0  0  0
 14 13  1  0  0  0  0
 15 17  1  0  0  0  0
 15 14  2  0  0  0  0
 16 15  1  0  0  0  0
 17 18  2  0  0  0  0
 17  5  1  0  0  0  0
 18 20  1  0  0  0  0
 19 18  1  0  0  0  0
 20 13  2  0  0  0  0
 21 20  1  6  0  0  0
 22  4  2  0  0  0  0
 23 22  1  0  0  0  0
 24 22  1  0  0  0  0
 24 26  2  0  0  0  0
 25 24  1  0  0  0  0
 26  3  1  0  0  0  0
 27 26  1  0  0  0  0
 28  5  1  0  0  0  0
 28 29  1  0  0  0  0
 30 28  1  0  0  0  0
 31 28  1  0  0  0  0
M  END
