1,13,26
q = 0.0, confidence = 0.918

 37 38  0  0  0  0  0  0  0  0999 V2000
    2.3204   -0.8259    0.0492 N   0  0  0  0  0  2  0  0  0  0  0  0
    2.8075   -2.0084    0.4531 C   0  0  0  0  0  3  0  0  0  0  0  0
    2.0671   -2.7802    0.7093 H   0  0  0  0  0  0  0  0  0  0  0  0
    4.1867   -2.2515    0.5531 C   0  0  0  0  0  0  0  0  0  0  0  0
    4.5389   -3.2359    0.8920 H   0  0  0  0  0  0  0  0  0  0  0  0
    5.0852   -1.2303    0.2198 C   0  0  0  0  0  0  0  0  0  0  0  0
    6.1708   -1.3906    0.2922 H   0  0  0  0  0  0  0  0  0  0  0  0
    4.5755    0.0026   -0.2106 C   0  0  0  0  0  0  0  0  0  0  0  0
    5.2440    0.8312   -0.4854 H   0  0  0  0  0  0  0  0  0  0  0  0
    3.1840    0.1768   -0.2889 C   0  0  0  0  0  0  0  0  0  0  0  0
    2.5820    1.4348   -0.7342 C   0  0  0  0  0  3  0  0  0  0  0  0
    3.2534    2.2746   -1.0029 H   0  0  0  0  0  0  0  0  0  0  0  0
    1.2963    1.5485   -0.8040 N   0  0  0  0  0  2  0  0  0  0  0  0
    0.6903    2.8089   -1.2128 C   0  0  0  0  0  0  0  0  0  0  0  0
    0.0260    2.6018   -2.0800 H   0  0  0  0  0  0  0  0  0  0  0  0
    1.4832    3.5013   -1.5687 H   0  0  0  0  0  0  0  0  0  0  0  0
   -0.1040    3.4940   -0.0788 C   0  0  0  0  0  0  0  0  0  0  0  0
    0.4473    3.3637    0.8757 H   0  0  0  0  0  0  0  0  0  0  0  0
   -0.1005    4.5811   -0.2981 H   0  0  0  0  0  0  0  0  0  0  0  0
   -1.5729    3.1099    0.1157 C   0  0  0  0  0  0  0  0  0  0  0  0
   -2.0193    3.7971    0.8622 H   0  0  0  0  0  0  0  0  0  0  0  0
   -2.1516    3.2273   -0.8240 H   0  0  0  0  0  0  0  0  0  0  0  0
   -1.7946    1.7325    0.6188 N   0  3  0  0  0  0  0  0  0  0  0  0
   -2.7922    1.5414    0.9862 H   0  0  0  0  0  0  0  0  0  0  0  0
   -1.1283    1.5284    1.4322 H   0  0  0  0  0  0  0  0  0  0  0  0
   -1.6299    0.6081   -0.3650 C   0  0  0  0  0  3  0  0  0  0  0  0
   -1.6019    1.0508   -1.3830 H   0  0  0  0  0  0  0  0  0  0  0  0
   -2.8908   -0.2332   -0.2591 C   0  0  0  0  0  0  0  0  0  0  0  0
   -3.1668   -1.3276   -1.0992 C   0  0  0  0  0  0  0  0  0  0  0  0
   -2.4455   -1.6362   -1.8669 H   0  0  0  0  0  0  0  0  0  0  0  0
   -4.3754   -2.0112   -0.9271 C   0  0  0  0  0  0  0  0  0  0  0  0
   -4.6197   -2.8704   -1.5696 H   0  0  0  0  0  0  0  0  0  0  0  0
   -5.2715   -1.5930    0.0713 C   0  0  0  0  0  0  0  0  0  0  0  0
   -6.2264   -2.1115    0.2368 H   0  0  0  0  0  0  0  0  0  0  0  0
   -4.9242   -0.4841    0.8514 C   0  0  0  0  0  0  0  0  0  0  0  0
   -5.5959   -0.1032    1.6381 H   0  0  0  0  0  0  0  0  0  0  0  0
   -3.7654    0.1753    0.6784 N   0  0  0  0  0  0  0  0  0  0  0  0
  1  2  1  0  0  0  0
  2  4  1  0  0  0  0
  2  3  1  0  0  0  0
  4  5  1  0  0  0  0
  6  7  1  0  0  0  0
  6  4  2  0  0  0  0
  8  6  1  0  0  0  0
  9  8  1  0  0  0  0
 10  8  2  0  0  0  0
 10  1  1  0  0  0  0
 11 10  1  0  0  0  0
 12 11  1  0  0  0  0
 13 11  1  0  0  0  0
 14 13  1  0  0  0  0
 14 17  1  0  0  0  0
 15 14  1  0  0  0  0
 16 14  1  0  0  0  0
 17 20  1  0  0  0  0
 17 18  1  0  0  0  0
 19 17  1  0  0  0  0
 20 23  1  0  0  0  0
 20 21  1  0  0  0  0
 22 20  1  0  0  0  0
 23 24  1  0  0  0  0
 23 25  1  0  0  0  0
 26 28  1  0  0  0  0
 26 23  1  0  0  0  0
 27 26  1  0  0  0  0
 28 37  1  0  0  0  0
 29 31  1  0  0  0  0
 29 28  2  0  0  0  0
 30 29  1  0  0  0  0
 31 33  2  0  0  0  0
 32 31  1  0  0  0  0
 33 34  1  0  0  0  0
 33 35  1  0  0  0  0
 35 36  1  0  0  0  0
 37 35  2  0  0  0  0
M  CHG  1  23   1
M  END
