1,2,14
q = -1.0

 31 32  0  0  0  0  0  0  0  0999 V2000
   -1.8942   -0.0766    0.0684 N   0  0  0  0  0  2  0  0  0  0  0  0
    0.5576    0.8440   -0.0475 N   0  0  0  0  0  2  0  0  0  0  0  0
   -3.1000   -0.6636    0.1339 C   0  0  0  0  0  0  0  0  0  0  0  0
   -4.2869    0.0807    0.1562 C   0  0  0  0  0  0  0  0  0  0  0  0
   -4.2035    1.4814    0.1053 C   0  0  0  0  0  0  0  0  0  0  0  0
   -2.9447    2.0912    0.0326 C   0  0  0  0  0  0  0  0  0  0  0  0
   -1.7916    1.2844    0.0152 C   0  0  0  0  0  0  0  0  0  0  0  0
   -0.4087    1.8074   -0.0567 C   0  0  0  0  0  0  0  0  0  0  0  0
   -0.0361    3.1604   -0.1270 C   0  0  0  0  0  0  0  0  0  0  0  0
    1.3254    3.4862   -0.1923 C   0  0  0  0  0  0  0  0  0  0  0  0
    2.2948    2.4680   -0.1578 C   0  0  0  0  0  0  0  0  0  0  0  0
    1.8874    1.1296   -0.0664 C   0  0  0  0  0  0  0  0  0  0  0  0
    2.7714   -0.0954    0.1165 C   0  0  0  0  0  0  0  0  0  0  0  0
    2.0029   -1.3483   -0.4051 C   0  0  0  0  0  3  0  0  0  0  0  0
    4.1255    0.0526   -0.5990 C   0  0  0  0  0  0  0  0  0  0  0  0
    3.0015   -0.2381    1.6429 C   0  0  0  0  0  0  0  0  0  0  0  0
   -3.0738   -1.7673    0.1622 H   0  0  0  0  0  0  0  0  0  0  0  0
   -5.2574   -0.4328    0.2113 H   0  0  0  0  0  0  0  0  0  0  0  0
   -5.1146    2.0978    0.1202 H   0  0  0  0  0  0  0  0  0  0  0  0
   -2.8582    3.1856   -0.0109 H   0  0  0  0  0  0  0  0  0  0  0  0
   -0.8002    3.9495   -0.1345 H   0  0  0  0  0  0  0  0  0  0  0  0
    1.6342    4.5396   -0.2611 H   0  0  0  0  0  0  0  0  0  0  0  0
    3.3659    2.7109   -0.1918 H   0  0  0  0  0  0  0  0  0  0  0  0
    2.0924   -1.4361   -1.5103 H   0  0  0  0  0  0  0  0  0  0  0  0
    2.3947   -2.2765    0.0555 H   0  0  0  0  0  0  0  0  0  0  0  0
    3.9896    0.2410   -1.6831 H   0  0  0  0  0  0  0  0  0  0  0  0
    4.7415    0.8738   -0.1750 H   0  0  0  0  0  0  0  0  0  0  0  0
    4.7057   -0.8850   -0.4873 H   0  0  0  0  0  0  0  0  0  0  0  0
    2.0368   -0.3803    2.1698 H   0  0  0  0  0  0  0  0  0  0  0  0
    3.6299   -1.1302    1.8393 H   0  0  0  0  0  0  0  0  0  0  0  0
    3.5134    0.6516    2.0640 H   0  0  0  0  0  0  0  0  0  0  0  0
  1  3  1  0  0  0  0
  3  4  2  0  0  0  0
  3 17  1  0  0  0  0
  4 18  1  0  0  0  0
  5 19  1  0  0  0  0
  5  4  1  0  0  0  0
  6  5  2  0  0  0  0
  7  6  1  0  0  0  0
  7  1  1  0  0  0  0
  8  2  1  0  0  0  0
  8  7  2  0  0  0  0
  9  8  1  0  0  0  0
 10 11  1  0  0  0  0
 10  9  2  0  0  0  0
 11 12  2  0  0  0  0
 12  2  1  0  0  0  0
 12 13  1  0  0  0  0
 13 16  1  0  0  0  0
 14 25  1  0  0  0  0
 14 13  1  0  0  0  0
 15 28  1  0  0  0  0
 15 27  1  0  0  0  0
 15 13  1  0  0  0  0
 16 30  1  0  0  0  0
 16 31  1  0  0  0  0
 16 29  1  0  0  0  0
 20  6  1  0  0  0  0
 21  9  1  0  0  0  0
 22 10  1  0  0  0  0
 23 11  1  0  0  0  0
 24 14  1  0  0  0  0
 26 15  1  0  0  0  0
M  END
