4,5,6
q = -1.0

 33 34  0  0  0  0  0  0  0  0999 V2000
   -3.5098   -0.3438   -2.2993 Cl  0  0  0  0  0  0  0  0  0  0  0  0
   -1.5110   -2.6881    2.1801 Cl  0  0  0  0  0  0  0  0  0  0  0  0
    6.3040   -0.1443    0.2792 Cl  0  0  0  0  0  0  0  0  0  0  0  0
    2.1960   -1.7264   -0.4518 N   0  0  0  0  0  2  0  0  0  0  0  0
   -0.3385   -1.8744   -0.9195 N   0  0  0  0  0  2  0  0  0  0  0  0
    2.3229    0.7390    0.0739 C   0  0  0  0  0  2  0  0  0  0  0  0
    2.3424    2.1164    0.3194 C   0  0  0  0  0  0  0  0  0  0  0  0
    3.5651    2.7841    0.5543 C   0  0  0  0  0  0  0  0  0  0  0  0
    4.7884    2.1010    0.5504 C   0  0  0  0  0  0  0  0  0  0  0  0
    4.7941    0.7201    0.2971 C   0  0  0  0  0  0  0  0  0  0  0  0
    3.5782    0.0413    0.0570 C   0  0  0  0  0  0  0  0  0  0  0  0
    3.4353   -1.3552   -0.2676 C   0  0  0  0  0  0  0  0  0  0  0  0
    1.7544   -3.0536   -0.8449 C   0  0  0  0  0  0  0  0  0  0  0  0
    0.4985   -2.8200   -1.6849 C   0  0  0  0  0  0  0  0  0  0  0  0
   -1.5984   -2.1366   -0.8145 C   0  0  0  0  0  3  0  0  0  0  0  0
   -2.5484   -1.3688    0.0237 C   0  0  0  0  0  0  0  0  0  0  0  0
   -3.5170   -0.5273   -0.5648 C   0  0  0  0  0  0  0  0  0  0  0  0
   -4.4740    0.1474    0.2043 C   0  0  0  0  0  0  0  0  0  0  0  0
   -4.4845   -0.0428    1.5935 C   0  0  0  0  0  0  0  0  0  0  0  0
   -3.5639   -0.9019    2.2100 C   0  0  0  0  0  0  0  0  0  0  0  0
   -2.6116   -1.5640    1.4220 C   0  0  0  0  0  0  0  0  0  0  0  0
    1.4144    2.7072    0.3299 H   0  0  0  0  0  0  0  0  0  0  0  0
    3.5611    3.8686    0.7448 H   0  0  0  0  0  0  0  0  0  0  0  0
    5.7357    2.6248    0.7363 H   0  0  0  0  0  0  0  0  0  0  0  0
    4.2832   -2.0555   -0.3754 H   0  0  0  0  0  0  0  0  0  0  0  0
    1.4910   -3.6402    0.0629 H   0  0  0  0  0  0  0  0  0  0  0  0
    2.5336   -3.6099   -1.4065 H   0  0  0  0  0  0  0  0  0  0  0  0
   -0.0421   -3.7629   -1.9086 H   0  0  0  0  0  0  0  0  0  0  0  0
    0.7786   -2.3374   -2.6456 H   0  0  0  0  0  0  0  0  0  0  0  0
   -2.0145   -3.0159   -1.3536 H   0  0  0  0  0  0  0  0  0  0  0  0
   -5.2055    0.8007   -0.2903 H   0  0  0  0  0  0  0  0  0  0  0  0
   -5.2373    0.4742    2.2067 H   0  0  0  0  0  0  0  0  0  0  0  0
   -3.5864   -1.0794    3.2938 H   0  0  0  0  0  0  0  0  0  0  0  0
  1 17  1  0  0  0  0
  3 10  1  0  0  0  0
  4 12  1  0  0  0  0
  5 15  1  0  0  0  0
  6  7  1  0  0  0  0
  7 22  1  0  0  0  0
  7  8  2  0  0  0  0
  8 23  1  0  0  0  0
  9  8  1  0  0  0  0
  9 24  1  0  0  0  0
 10  9  2  0  0  0  0
 11  6  1  0  0  0  0
 11 10  1  0  0  0  0
 12 11  2  0  0  0  0
 13  4  1  0  0  0  0
 13 26  1  0  0  0  0
 14  5  1  0  0  0  0
 14 13  1  0  0  0  0
 15 16  1  0  0  0  0
 16 21  1  0  0  0  0
 17 16  2  0  0  0  0
 17 18  1  0  0  0  0
 18 19  2  0  0  0  0
 19 32  1  0  0  0  0
 19 20  1  0  0  0  0
 20 33  1  0  0  0  0
 21  2  1  0  0  0  0
 21 20  2  0  0  0  0
 25 12  1  0  0  0  0
 27 13  1  0  0  0  0
 28 14  1  0  0  0  0
 29 14  1  0  0  0  0
 30 15  1  0  0  0  0
 31 18  1  0  0  0  0
M  END
