1,4,14
q = 0.0, confidence = 0.998

 52 54  0  0  1  0  0  0  0  0999 V2000
    1.8354   -0.7269   -0.7806 N   0  0  0  0  0  2  0  0  0  0  0  0
    0.5537   -2.5861   -0.9544 N   0  0  0  0  0  0  0  0  0  0  0  0
   -1.4636   -2.6921   -0.1305 N   0  0  0  0  0  0  0  0  0  0  0  0
    1.5899    1.5674    0.3106 N   0  0  0  0  0  2  0  0  0  0  0  0
    2.7742    1.3160   -0.3534 N   0  0  1  0  0  0  0  0  0  0  0  0
    2.9247    0.0497   -0.9435 C   0  0  1  0  0  3  0  0  0  0  0  0
    4.0446   -0.4370   -1.6401 C   0  0  0  0  0  0  0  0  0  0  0  0
    4.9427    0.1680   -1.7860 H   0  0  0  0  0  0  0  0  0  0  0  0
    3.9790   -1.7461   -2.1478 C   0  0  0  0  0  0  0  0  0  0  0  0
    4.8433   -2.1479   -2.6958 H   0  0  0  0  0  0  0  0  0  0  0  0
    2.8440   -2.5500   -1.9683 C   0  0  0  0  0  0  0  0  0  0  0  0
    2.7980   -3.5732   -2.3615 H   0  0  0  0  0  0  0  0  0  0  0  0
    1.7732   -1.9881   -1.2592 C   0  0  0  0  0  0  0  0  0  0  0  0
   -0.3970   -1.8454   -0.2130 C   0  0  0  0  0  2  0  0  0  0  0  0
   -1.2059   -3.8994   -0.7839 C   0  0  0  0  0  0  0  0  0  0  0  0
   -1.9477   -4.7027   -0.8204 H   0  0  0  0  0  0  0  0  0  0  0  0
    0.0575   -3.8436   -1.2982 C   0  0  0  0  0  0  0  0  0  0  0  0
    0.6344   -4.5819   -1.8602 H   0  0  0  0  0  0  0  0  0  0  0  0
   -2.7721   -2.3298    0.4108 C   0  0  0  0  0  0  0  0  0  0  0  0
   -2.6035   -1.5264    1.1486 H   0  0  0  0  0  0  0  0  0  0  0  0
   -3.1673   -3.2071    0.9644 H   0  0  0  0  0  0  0  0  0  0  0  0
   -3.7422   -1.8889   -0.6913 C   0  0  0  0  0  0  0  0  0  0  0  0
   -3.2647   -1.0644   -1.2632 H   0  0  0  0  0  0  0  0  0  0  0  0
   -3.8677   -2.7300   -1.4074 H   0  0  0  0  0  0  0  0  0  0  0  0
   -5.1185   -1.4612   -0.1617 C   0  0  0  0  0  0  0  0  0  0  0  0
   -5.5459   -2.2857    0.4523 H   0  0  0  0  0  0  0  0  0  0  0  0
   -5.8006   -1.3509   -1.0325 H   0  0  0  0  0  0  0  0  0  0  0  0
   -5.1406   -0.1554    0.6489 C   0  0  0  0  0  0  0  0  0  0  0  0
   -6.1715   -0.0027    1.0382 H   0  0  0  0  0  0  0  0  0  0  0  0
   -4.4967   -0.2480    1.5511 H   0  0  0  0  0  0  0  0  0  0  0  0
   -4.7104    1.0822   -0.1438 C   0  0  0  0  0  0  0  0  0  0  0  0
   -5.3409    1.1719   -1.0586 H   0  0  0  0  0  0  0  0  0  0  0  0
   -3.6698    0.9557   -0.5148 H   0  0  0  0  0  0  0  0  0  0  0  0
   -4.7818    2.3861    0.6564 C   0  0  0  0  0  0  0  0  0  0  0  0
   -5.8315    2.5686    0.9803 H   0  0  0  0  0  0  0  0  0  0  0  0
   -4.1908    2.2630    1.5892 H   0  0  0  0  0  0  0  0  0  0  0  0
   -4.2551    3.5919   -0.1232 C   0  0  0  0  0  0  0  0  0  0  0  0
   -3.1982    3.4344   -0.4262 H   0  0  0  0  0  0  0  0  0  0  0  0
   -4.3049    4.5245    0.4752 H   0  0  0  0  0  0  0  0  0  0  0  0
   -4.8373    3.7596   -1.0539 H   0  0  0  0  0  0  0  0  0  0  0  0
    3.5987    2.4325   -0.3151 C   0  0  2  0  0  3  0  0  0  0  0  0
    2.8968    3.3973    0.3941 C   0  0  0  0  0  0  0  0  0  0  0  0
    3.2463    4.4102    0.6183 H   0  0  0  0  0  0  0  0  0  0  0  0
    1.6492    2.8219    0.7651 C   0  0  0  0  0  0  0  0  0  0  0  0
    4.9534    2.5262   -0.9313 C   0  0  0  0  0  0  0  0  0  0  0  0
    5.3582    3.5380   -0.7477 H   0  0  0  0  0  0  0  0  0  0  0  0
    4.9284    2.3694   -2.0295 H   0  0  0  0  0  0  0  0  0  0  0  0
    5.6665    1.7965   -0.4950 H   0  0  0  0  0  0  0  0  0  0  0  0
    0.5096    3.4145    1.5207 C   0  0  0  0  0  0  0  0  0  0  0  0
   -0.4136    3.3825    0.9064 H   0  0  0  0  0  0  0  0  0  0  0  0
    0.7219    4.4632    1.7965 H   0  0  0  0  0  0  0  0  0  0  0  0
    0.3113    2.8336    2.4441 H   0  0  0  0  0  0  0  0  0  0  0  0
  2 14  1  0  0  0  0
  3 19  1  0  0  0  0
  4 44  1  0  0  0  0
  5 41  1  0  0  0  0
  5  4  1  6  0  0  0
  6  7  1  1  0  0  0
  6  1  1  0  0  0  0
  6  5  1  0  0  0  0
  8  7  1  0  0  0  0
  9 11  1  0  0  0  0
  9  7  2  0  0  0  0
 10  9  1  0  0  0  0
 11 13  2  0  0  0  0
 12 11  1  0  0  0  0
 13  2  1  0  0  0  0
 13  1  1  0  0  0  0
 14  3  1  0  0  0  0
 15  3  1  0  0  0  0
 16 15  1  0  0  0  0
 17  2  1  0  0  0  0
 17 15  2  0  0  0  0
 18 17  1  0  0  0  0
 19 21  1  0  0  0  0
 19 20  1  0  0  0  0
 22 25  1  0  0  0  0
 22 19  1  0  0  0  0
 23 22  1  0  0  0  0
 24 22  1  0  0  0  0
 25 26  1  0  0  0  0
 25 28  1  0  0  0  0
 27 25  1  0  0  0  0
 28 29  1  0  0  0  0
 28 30  1  0  0  0  0
 31 28  1  0  0  0  0
 31 34  1  0  0  0  0
 32 31  1  0  0  0  0
 33 31  1  0  0  0  0
 34 35  1  0  0  0  0
 34 36  1  0  0  0  0
 37 39  1  0  0  0  0
 37 34  1  0  0  0  0
 38 37  1  0  0  0  0
 40 37  1  0  0  0  0
 41 45  1  6  0  0  0
 41 42  1  0  0  0  0
 42 43  1  0  0  0  0
 42 44  2  0  0  0  0
 44 49  1  0  0  0  0
 45 46  1  0  0  0  0
 45 48  1  0  0  0  0
 47 45  1  0  0  0  0
 49 51  1  0  0  0  0
 49 52  1  0  0  0  0
 50 49  1  0  0  0  0
M  END
