1,2,3
q = -1.0

 31 31  0  0  0  0  0  0  0  0999 V2000
    0.1271    2.0054   -0.0979 N   0  0  0  0  0  2  0  0  0  0  0  0
   -2.4747    0.1454   -0.0419 N   0  0  0  0  0  0  0  0  0  0  0  0
    1.7946   -0.0396   -0.0458 C   0  0  0  0  0  2  0  0  0  0  0  0
    2.6902   -1.1228   -0.0604 C   0  0  0  0  0  0  0  0  0  0  0  0
    2.3008   -2.1492   -0.1104 H   0  0  0  0  0  0  0  0  0  0  0  0
    4.0796   -0.9020   -0.0029 C   0  0  0  0  0  0  0  0  0  0  0  0
    4.7587   -1.7696   -0.0151 H   0  0  0  0  0  0  0  0  0  0  0  0
    4.6174    0.3965    0.0729 C   0  0  0  0  0  0  0  0  0  0  0  0
    5.7065    0.5454    0.1201 H   0  0  0  0  0  0  0  0  0  0  0  0
    3.7516    1.4936    0.0851 C   0  0  0  0  0  0  0  0  0  0  0  0
    4.1455    2.5214    0.1389 H   0  0  0  0  0  0  0  0  0  0  0  0
    2.3563    1.2779    0.0215 C   0  0  0  0  0  0  0  0  0  0  0  0
    1.3875    2.3409   -0.0033 C   0  0  0  0  0  0  0  0  0  0  0  0
    1.6808    3.4093    0.0414 H   0  0  0  0  0  0  0  0  0  0  0  0
   -0.8952    3.0330   -0.1932 C   0  0  0  0  0  0  0  0  0  0  0  0
   -1.0913    3.2340   -1.2724 H   0  0  0  0  0  0  0  0  0  0  0  0
   -0.5151    3.9825    0.2462 H   0  0  0  0  0  0  0  0  0  0  0  0
   -2.2128    2.6343    0.4696 C   0  0  0  0  0  0  0  0  0  0  0  0
   -2.0395    2.3660    1.5328 H   0  0  0  0  0  0  0  0  0  0  0  0
   -2.8667    3.5307    0.4809 H   0  0  0  0  0  0  0  0  0  0  0  0
   -2.9642    1.5258   -0.2669 C   0  0  0  0  0  0  0  0  0  0  0  0
   -2.9072    1.7230   -1.3578 H   0  0  0  0  0  0  0  0  0  0  0  0
   -4.0472    1.5598    0.0041 H   0  0  0  0  0  0  0  0  0  0  0  0
   -3.0681   -0.7323   -1.0729 C   0  0  0  0  0  0  0  0  0  0  0  0
   -2.7240   -1.7694   -0.9056 H   0  0  0  0  0  0  0  0  0  0  0  0
   -2.7259   -0.4082   -2.0741 H   0  0  0  0  0  0  0  0  0  0  0  0
   -4.1822   -0.6863   -1.0337 H   0  0  0  0  0  0  0  0  0  0  0  0
   -2.8805   -0.3308    1.2973 C   0  0  0  0  0  0  0  0  0  0  0  0
   -3.9919   -0.3112    1.4007 H   0  0  0  0  0  0  0  0  0  0  0  0
   -2.4337    0.3080    2.0818 H   0  0  0  0  0  0  0  0  0  0  0  0
   -2.5048   -1.3615    1.4367 H   0  0  0  0  0  0  0  0  0  0  0  0
  1 13  1  0  0  0  0
  2 28  1  0  0  0  0
  3 12  1  0  0  0  0
  4  3  1  0  0  0  0
  4  6  2  0  0  0  0
  5  4  1  0  0  0  0
  6  8  1  0  0  0  0
  7  6  1  0  0  0  0
  8 10  2  0  0  0  0
  8  9  1  0  0  0  0
 10 11  1  0  0  0  0
 12 10  1  0  0  0  0
 13 12  2  0  0  0  0
 13 14  1  0  0  0  0
 15  1  1  0  0  0  0
 15 17  1  0  0  0  0
 15 18  1  0  0  0  0
 16 15  1  0  0  0  0
 18 20  1  0  0  0  0
 18 19  1  0  0  0  0
 21  2  1  0  0  0  0
 21 23  1  0  0  0  0
 21 18  1  0  0  0  0
 22 21  1  0  0  0  0
 24 27  1  0  0  0  0
 24 25  1  0  0  0  0
 24  2  1  0  0  0  0
 26 24  1  0  0  0  0
 28 29  1  0  0  0  0
 28 31  1  0  0  0  0
 28 30  1  0  0  0  0
M  END
