1,2,4
q = -1.0, confidence = 0.0

 38 38  0  0  0  0  0  0  0  0999 V2000
    0.0824   -1.4669   -2.4191 N   0  0  0  0  0  0  0  0  0  0  0  0
    0.3032    0.8467    2.5739 N   0  0  0  0  0  0  0  0  0  0  0  0
    0.1093   -3.0953    0.0799 C   0  0  0  0  0  0  0  0  0  0  0  0
    0.9798   -2.6247    1.1136 C   0  0  0  0  0  3  0  0  0  0  0  0
    0.1818   -2.1207    2.1881 C   0  0  0  0  0  0  0  0  0  0  0  0
   -1.1859   -2.2796    1.8109 C   0  0  0  0  0  0  0  0  0  0  0  0
   -1.2298   -2.8774    0.5220 C   0  0  0  0  0  0  0  0  0  0  0  0
    0.5106   -3.6734   -1.2551 C   0  0  0  0  0  0  0  0  0  0  0  0
    0.9988   -2.6252   -2.2665 C   0  0  0  0  0  0  0  0  0  0  0  0
    0.6758   -0.4906   -3.3471 C   0  0  0  0  0  0  0  0  0  0  0  0
   -1.2410   -1.8733   -2.9215 C   0  0  0  0  0  0  0  0  0  0  0  0
    0.6722   -1.4954    3.4704 C   0  0  0  0  0  0  0  0  0  0  0  0
    1.2179   -0.0704    3.3010 C   0  0  0  0  0  0  0  0  0  0  0  0
    0.9590    2.1563    2.4226 C   0  0  0  0  0  0  0  0  0  0  0  0
   -0.9790    1.0168    3.2766 C   0  0  0  0  0  0  0  0  0  0  0  0
    2.0769   -2.6497    1.0874 H   0  0  0  0  0  0  0  0  0  0  0  0
   -2.0614   -2.0103    2.4160 H   0  0  0  0  0  0  0  0  0  0  0  0
   -2.1449   -3.1382   -0.0252 H   0  0  0  0  0  0  0  0  0  0  0  0
    1.3340   -4.4066   -1.1257 H   0  0  0  0  0  0  0  0  0  0  0  0
   -0.3409   -4.2471   -1.6748 H   0  0  0  0  0  0  0  0  0  0  0  0
    1.9734   -2.2129   -1.9302 H   0  0  0  0  0  0  0  0  0  0  0  0
    1.1663   -3.1041   -3.2643 H   0  0  0  0  0  0  0  0  0  0  0  0
    1.6649   -0.1685   -2.9660 H   0  0  0  0  0  0  0  0  0  0  0  0
    0.0148    0.3945   -3.4324 H   0  0  0  0  0  0  0  0  0  0  0  0
    0.8059   -0.9255   -4.3674 H   0  0  0  0  0  0  0  0  0  0  0  0
   -1.1575   -2.3768   -3.9153 H   0  0  0  0  0  0  0  0  0  0  0  0
   -1.8913   -0.9831   -3.0212 H   0  0  0  0  0  0  0  0  0  0  0  0
   -1.7352   -2.5632   -2.2153 H   0  0  0  0  0  0  0  0  0  0  0  0
    1.4911   -2.1045    3.9074 H   0  0  0  0  0  0  0  0  0  0  0  0
   -0.1459   -1.5095    4.2195 H   0  0  0  0  0  0  0  0  0  0  0  0
    1.4638    0.3661    4.3021 H   0  0  0  0  0  0  0  0  0  0  0  0
    2.1600   -0.1019    2.7146 H   0  0  0  0  0  0  0  0  0  0  0  0
    0.2905    2.8513    1.8801 H   0  0  0  0  0  0  0  0  0  0  0  0
    1.8959    2.0388    1.8434 H   0  0  0  0  0  0  0  0  0  0  0  0
    1.1952    2.6079    3.4163 H   0  0  0  0  0  0  0  0  0  0  0  0
   -0.8291    1.4295    4.3039 H   0  0  0  0  0  0  0  0  0  0  0  0
   -1.5151    0.0545    3.3571 H   0  0  0  0  0  0  0  0  0  0  0  0
   -1.6296    1.7088    2.7070 H   0  0  0  0  0  0  0  0  0  0  0  0
  1  9  1  0  0  0  0
  2 15  1  0  0  0  0
  2 13  1  0  0  0  0
  3  7  2  0  0  0  0
  3  4  1  0  0  0  0
  4  5  1  0  0  0  0
  5 12  1  0  0  0  0
  6  5  2  0  0  0  0
  6 17  1  0  0  0  0
  7  6  1  0  0  0  0
  8 19  1  0  0  0  0
  8  3  1  0  0  0  0
  9 21  1  0  0  0  0
  9  8  1  0  0  0  0
 10 23  1  0  0  0  0
 10  1  1  0  0  0  0
 11  1  1  0  0  0  0
 11 28  1  0  0  0  0
 12 29  1  0  0  0  0
 12 30  1  0  0  0  0
 13 12  1  0  0  0  0
 13 31  1  0  0  0  0
 14  2  1  0  0  0  0
 14 35  1  0  0  0  0
 15 37  1  0  0  0  0
 15 36  1  0  0  0  0
 16  4  1  0  0  0  0
 18  7  1  0  0  0  0
 20  8  1  0  0  0  0
 22  9  1  0  0  0  0
 24 10  1  0  0  0  0
 25 10  1  0  0  0  0
 26 11  1  0  0  0  0
 27 11  1  0  0  0  0
 32 13  1  0  0  0  0
 33 14  1  0  0  0  0
 34 14  1  0  0  0  0
 38 15  1  0  0  0  0
M  END
