3,4,5
q = -1.0

 35 39  0  0  1  0  0  0  0  0999 V2000
    4.0310    1.7154   -0.0001 S   0  0  0  0  0  0  0  0  0  0  0  0
   -4.0309    1.7154    0.0003 S   0  0  0  0  0  0  0  0  0  0  0  0
    2.0451    0.0218   -0.0001 N   0  0  0  0  0  2  0  0  0  0  0  0
   -2.0450    0.0218    0.0001 N   0  0  0  0  0  2  0  0  0  0  0  0
    0.0000    1.5794   -0.0000 C   0  0  0  0  0  2  0  0  0  0  0  0
    1.2313    2.2820   -0.0002 C   0  0  0  0  0  0  0  0  0  0  0  0
    1.2289    3.6919   -0.0003 C   0  0  0  0  0  0  0  0  0  0  0  0
    2.1743    4.2568   -0.0004 H   0  0  0  0  0  0  0  0  0  0  0  0
    0.0000    4.3795   -0.0001 C   0  0  0  0  0  0  0  0  0  0  0  0
    0.0000    5.4791   -0.0002 H   0  0  0  0  0  0  0  0  0  0  0  0
   -1.2289    3.6919    0.0000 C   0  0  0  0  0  0  0  0  0  0  0  0
   -2.1743    4.2568    0.0001 H   0  0  0  0  0  0  0  0  0  0  0  0
   -1.2313    2.2820    0.0001 C   0  0  0  0  0  0  0  0  0  0  0  0
    2.3309    1.3435   -0.0002 C   0  0  1  0  0  3  0  0  0  0  0  0
    3.1964   -0.7650    0.0000 C   0  0  0  0  0  0  0  0  0  0  0  0
    3.2672   -2.1726    0.0001 C   0  0  0  0  0  0  0  0  0  0  0  0
    2.3294   -2.7512    0.0001 H   0  0  0  0  0  0  0  0  0  0  0  0
    4.5283   -2.7741    0.0002 C   0  0  0  0  0  0  0  0  0  0  0  0
    4.5950   -3.8722    0.0003 H   0  0  0  0  0  0  0  0  0  0  0  0
    5.7144   -2.0070    0.0002 C   0  0  0  0  0  0  0  0  0  0  0  0
    6.6926   -2.5104    0.0003 H   0  0  0  0  0  0  0  0  0  0  0  0
    5.6632   -0.6081    0.0001 C   0  0  0  0  0  0  0  0  0  0  0  0
    6.5818   -0.0042    0.0001 H   0  0  0  0  0  0  0  0  0  0  0  0
    4.3990    0.0002    0.0000 C   0  0  0  0  0  0  0  0  0  0  0  0
   -2.3308    1.3435    0.0002 C   0  0  0  0  0  0  0  0  0  0  0  0
   -3.1964   -0.7649    0.0000 C   0  0  0  0  0  0  0  0  0  0  0  0
   -3.2673   -2.1725   -0.0002 C   0  0  0  0  0  0  0  0  0  0  0  0
   -2.3294   -2.7512   -0.0003 H   0  0  0  0  0  0  0  0  0  0  0  0
   -4.5283   -2.7741   -0.0003 C   0  0  0  0  0  0  0  0  0  0  0  0
   -4.5951   -3.8722   -0.0005 H   0  0  0  0  0  0  0  0  0  0  0  0
   -5.7144   -2.0069   -0.0001 C   0  0  0  0  0  0  0  0  0  0  0  0
   -6.6926   -2.5104   -0.0001 H   0  0  0  0  0  0  0  0  0  0  0  0
   -5.6632   -0.6080    0.0001 C   0  0  0  0  0  0  0  0  0  0  0  0
   -6.5818   -0.0042    0.0002 H   0  0  0  0  0  0  0  0  0  0  0  0
   -4.3990    0.0003    0.0001 C   0  0  0  0  0  0  0  0  0  0  0  0
  1 24  1  0  0  0  0
  3 15  1  0  0  0  0
  4 25  1  0  0  0  0
  5 13  1  0  0  0  0
  6  5  1  0  0  0  0
  7  6  2  0  0  0  0
  7  9  1  0  0  0  0
  8  7  1  0  0  0  0
  9 11  2  0  0  0  0
 10  9  1  0  0  0  0
 11 13  1  0  0  0  0
 11 12  1  0  0  0  0
 13 25  2  0  0  0  0
 14  6  1  1  0  0  0
 14  3  1  0  0  0  0
 14  1  1  0  0  0  0
 15 24  2  0  0  0  0
 15 16  1  0  0  0  0
 16 18  2  0  0  0  0
 17 16  1  0  0  0  0
 18 20  1  0  0  0  0
 18 19  1  0  0  0  0
 20 21  1  0  0  0  0
 22 20  2  0  0  0  0
 23 22  1  0  0  0  0
 24 22  1  0  0  0  0
 25  2  1  0  0  0  0
 26  4  1  0  0  0  0
 26 35  1  0  0  0  0
 27 26  2  0  0  0  0
 28 27  1  0  0  0  0
 29 27  1  0  0  0  0
 29 31  2  0  0  0  0
 30 29  1  0  0  0  0
 31 33  1  0  0  0  0
 32 31  1  0  0  0  0
 33 35  2  0  0  0  0
 33 34  1  0  0  0  0
 35  2  1  0  0  0  0
M  END
