1,6,19
q = -1.0, confidence = 0.022

 32 34  0  0  0  0  0  0  0  0999 V2000
    0.2195    0.8029   -0.1264 N   0  0  0  0  0  2  0  0  0  0  0  0
   -0.9338    1.5996   -0.1119 C   0  0  0  0  0  0  0  0  0  0  0  0
   -0.9724    2.9943   -0.1826 C   0  0  0  0  0  0  0  0  0  0  0  0
   -0.0374    3.5657   -0.2582 H   0  0  0  0  0  0  0  0  0  0  0  0
    1.4045    1.3196   -0.2107 N   0  0  0  0  0  0  0  0  0  0  0  0
    2.0796   -0.9952   -0.1238 N   0  0  0  0  0  2  0  0  0  0  0  0
   -2.2344    3.6294   -0.1538 C   0  0  0  0  0  0  0  0  0  0  0  0
   -2.2856    4.7272   -0.2085 H   0  0  0  0  0  0  0  0  0  0  0  0
    3.6963    0.5496   -0.2800 N   0  0  0  0  0  0  0  0  0  0  0  0
   -3.4148    2.8881   -0.0571 C   0  0  0  0  0  3  0  0  0  0  0  0
   -4.3860    3.4074   -0.0360 H   0  0  0  0  0  0  0  0  0  0  0  0
   -3.3986    1.4641    0.0161 C   0  0  0  0  0  3  0  0  0  0  0  0
   -4.5649    0.6499    0.1164 C   0  0  0  0  0  0  0  0  0  0  0  0
   -5.5559    1.1284    0.1402 H   0  0  0  0  0  0  0  0  0  0  0  0
   -4.4388   -0.7323    0.1826 C   0  0  0  0  0  0  0  0  0  0  0  0
   -5.3439   -1.3554    0.2599 H   0  0  0  0  0  0  0  0  0  0  0  0
   -3.1667   -1.3738    0.1528 C   0  0  0  0  0  0  0  0  0  0  0  0
   -3.0951   -2.4702    0.2059 H   0  0  0  0  0  0  0  0  0  0  0  0
   -2.0012   -0.6197    0.0558 C   0  0  0  0  0  3  0  0  0  0  0  0
   -2.1223    0.8078   -0.0125 C   0  0  0  0  0  0  0  0  0  0  0  0
    2.3435    0.3307   -0.2046 C   0  0  0  0  0  0  0  0  0  0  0  0
    3.2842   -1.6338   -0.1397 C   0  0  0  0  0  0  0  0  0  0  0  0
    3.3560   -2.7260   -0.0909 H   0  0  0  0  0  0  0  0  0  0  0  0
    4.3043   -0.6880   -0.2312 C   0  0  0  0  0  0  0  0  0  0  0  0
    5.3929   -0.7951   -0.2741 H   0  0  0  0  0  0  0  0  0  0  0  0
    4.3415    1.8619   -0.2983 C   0  0  0  0  0  0  0  0  0  0  0  0
    3.6911    2.5316   -0.8942 H   0  0  0  0  0  0  0  0  0  0  0  0
    5.2990    1.7498   -0.8449 H   0  0  0  0  0  0  0  0  0  0  0  0
    4.5590    2.4289    1.1028 C   0  0  0  0  0  0  0  0  0  0  0  0
    3.5902    2.5624    1.6230 H   0  0  0  0  0  0  0  0  0  0  0  0
    5.0555    3.4173    1.0388 H   0  0  0  0  0  0  0  0  0  0  0  0
    5.1968    1.7602    1.7143 H   0  0  0  0  0  0  0  0  0  0  0  0
  1  2  1  0  0  0  0
  2 20  2  0  0  0  0
  3  7  2  0  0  0  0
  3  2  1  0  0  0  0
  4  3  1  0  0  0  0
  5 21  2  0  0  0  0
  5  1  1  0  0  0  0
  7 10  1  0  0  0  0
  8  7  1  0  0  0  0
  9 24  1  0  0  0  0
  9 21  1  0  0  0  0
 10 11  1  0  0  0  0
 10 12  1  0  0  0  0
 12 13  1  0  0  0  0
 13 14  1  0  0  0  0
 13 15  2  0  0  0  0
 15 16  1  0  0  0  0
 17 15  1  0  0  0  0
 17 18  1  0  0  0  0
 19 17  2  0  0  0  0
 20 12  1  0  0  0  0
 20 19  1  0  0  0  0
 21  6  1  0  0  0  0
 22  6  1  0  0  0  0
 22 23  1  0  0  0  0
 24 22  2  0  0  0  0
 25 24  1  0  0  0  0
 26  9  1  0  0  0  0
 26 29  1  0  0  0  0
 27 26  1  0  0  0  0
 28 26  1  0  0  0  0
 29 30  1  0  0  0  0
 29 32  1  0  0  0  0
 31 29  1  0  0  0  0
M  END
