1,2,4
q = -1.0, confidence = 0.0

 41 41  0  0  0  0  0  0  0  0999 V2000
   -0.7698   -2.1138    0.0565 N   0  0  0  0  0  0  0  0  0  0  0  0
   -0.7698    2.1137   -0.0562 N   0  0  0  0  0  0  0  0  0  0  0  0
    5.0398   -0.0000    0.0004 N   0  0  0  0  0  0  0  0  0  0  0  0
    0.8278   -0.0001    0.0004 C   0  0  0  0  0  3  0  0  0  0  0  0
    1.5198   -1.2061   -0.1899 C   0  0  0  0  0  0  0  0  0  0  0  0
    2.9221   -1.2160   -0.1798 C   0  0  0  0  0  0  0  0  0  0  0  0
    3.4582   -2.1636   -0.3253 H   0  0  0  0  0  0  0  0  0  0  0  0
    3.6492   -0.0000    0.0003 C   0  0  0  0  0  0  0  0  0  0  0  0
    2.9221    1.2159    0.1802 C   0  0  0  0  0  0  0  0  0  0  0  0
    3.4582    2.1636    0.3254 H   0  0  0  0  0  0  0  0  0  0  0  0
    1.5198    1.2059    0.1905 C   0  0  0  0  0  0  0  0  0  0  0  0
    0.6166   -2.3756   -0.4831 C   0  0  0  0  0  0  0  0  0  0  0  0
    0.9912   -3.3497   -0.0910 H   0  0  0  0  0  0  0  0  0  0  0  0
    0.5085   -2.4890   -1.5824 H   0  0  0  0  0  0  0  0  0  0  0  0
    0.6165    2.3755    0.4835 C   0  0  0  0  0  0  0  0  0  0  0  0
    0.9913    3.3496    0.0914 H   0  0  0  0  0  0  0  0  0  0  0  0
    0.5083    2.4889    1.5828 H   0  0  0  0  0  0  0  0  0  0  0  0
   -0.8337    2.4726   -1.4926 C   0  0  0  0  0  0  0  0  0  0  0  0
   -1.8236    2.1833   -1.8914 H   0  0  0  0  0  0  0  0  0  0  0  0
   -0.0473    1.9243   -2.0423 H   0  0  0  0  0  0  0  0  0  0  0  0
   -0.6824    3.5701   -1.6227 H   0  0  0  0  0  0  0  0  0  0  0  0
   -1.7726    2.8925    0.6991 C   0  0  0  0  0  0  0  0  0  0  0  0
   -1.5708    3.9843    0.6001 H   0  0  0  0  0  0  0  0  0  0  0  0
   -1.7332    2.6032    1.7652 H   0  0  0  0  0  0  0  0  0  0  0  0
   -2.7800    2.6453    0.3157 H   0  0  0  0  0  0  0  0  0  0  0  0
   -0.8340   -2.4729    1.4928 C   0  0  0  0  0  0  0  0  0  0  0  0
   -1.8238   -2.1836    1.8915 H   0  0  0  0  0  0  0  0  0  0  0  0
   -0.0475   -1.9246    2.0427 H   0  0  0  0  0  0  0  0  0  0  0  0
   -0.6827   -3.5704    1.6228 H   0  0  0  0  0  0  0  0  0  0  0  0
   -1.7725   -2.8924   -0.6990 C   0  0  0  0  0  0  0  0  0  0  0  0
   -1.5708   -3.9843   -0.6002 H   0  0  0  0  0  0  0  0  0  0  0  0
   -1.7331   -2.6030   -1.7651 H   0  0  0  0  0  0  0  0  0  0  0  0
   -2.7799   -2.6452   -0.3158 H   0  0  0  0  0  0  0  0  0  0  0  0
    5.7613    1.2378    0.1867 C   0  0  0  0  0  0  0  0  0  0  0  0
    5.5343    1.9860   -0.6085 H   0  0  0  0  0  0  0  0  0  0  0  0
    6.8479    1.0378    0.1581 H   0  0  0  0  0  0  0  0  0  0  0  0
    5.5320    1.7198    1.1658 H   0  0  0  0  0  0  0  0  0  0  0  0
    5.7613   -1.2376   -0.1880 C   0  0  0  0  0  0  0  0  0  0  0  0
    5.5338   -1.9871    0.6058 H   0  0  0  0  0  0  0  0  0  0  0  0
    6.8479   -1.0377   -0.1582 H   0  0  0  0  0  0  0  0  0  0  0  0
    5.5326   -1.7178   -1.1681 H   0  0  0  0  0  0  0  0  0  0  0  0
  1 26  1  0  0  0  0
  2 15  1  0  0  0  0
  2 22  1  0  0  0  0
  3 34  1  0  0  0  0
  4 11  1  0  0  0  0
  5  6  1  0  0  0  0
  5  4  2  0  0  0  0
  6  8  2  0  0  0  0
  7  6  1  0  0  0  0
  8  3  1  0  0  0  0
  8  9  1  0  0  0  0
  9 11  2  0  0  0  0
  9 10  1  0  0  0  0
 11 15  1  0  0  0  0
 12  5  1  0  0  0  0
 12 13  1  0  0  0  0
 12  1  1  0  0  0  0
 14 12  1  0  0  0  0
 15 17  1  0  0  0  0
 16 15  1  0  0  0  0
 18  2  1  0  0  0  0
 19 18  1  0  0  0  0
 20 18  1  0  0  0  0
 21 18  1  0  0  0  0
 22 24  1  0  0  0  0
 23 22  1  0  0  0  0
 25 22  1  0  0  0  0
 26 29  1  0  0  0  0
 26 27  1  0  0  0  0
 26 28  1  0  0  0  0
 30 31  1  0  0  0  0
 30 33  1  0  0  0  0
 30  1  1  0  0  0  0
 32 30  1  0  0  0  0
 34 37  1  0  0  0  0
 35 34  1  0  0  0  0
 36 34  1  0  0  0  0
 38 40  1  0  0  0  0
 38  3  1  0  0  0  0
 38 39  1  0  0  0  0
 41 38  1  0  0  0  0
M  END
