2,3,4
q = -1.0, confidence = 0.0

 38 38  0  0  0  0  0  0  0  0999 V2000
   -5.7102    1.2543    0.2253 O   0  0  0  0  0  0  0  0  0  0  0  0
    0.7062   -2.1095   -0.0453 N   0  0  0  0  0  0  0  0  0  0  0  0
    0.7701    2.1102   -0.0372 N   0  0  0  0  0  0  0  0  0  0  0  0
   -0.8853    0.0255   -0.2725 C   0  0  0  0  0  3  0  0  0  0  0  0
   -1.5873   -1.1961   -0.2362 C   0  0  0  0  0  0  0  0  0  0  0  0
   -1.5514    1.2693   -0.2302 C   0  0  0  0  0  0  0  0  0  0  0  0
   -2.9818   -1.1722   -0.0967 C   0  0  0  0  0  0  0  0  0  0  0  0
   -3.5468   -2.1164   -0.0592 H   0  0  0  0  0  0  0  0  0  0  0  0
   -2.9416    1.2843   -0.0903 C   0  0  0  0  0  0  0  0  0  0  0  0
   -3.5253    2.2171   -0.0397 H   0  0  0  0  0  0  0  0  0  0  0  0
   -3.6647    0.0670   -0.0093 C   0  0  0  0  0  0  0  0  0  0  0  0
   -5.1503    0.1623    0.1592 C   0  0  0  0  0  0  0  0  0  0  0  0
   -5.9552   -1.1260    0.2470 C   0  0  0  0  0  0  0  0  0  0  0  0
   -5.6213   -1.7507    1.1009 H   0  0  0  0  0  0  0  0  0  0  0  0
   -5.8333   -1.7378   -0.6706 H   0  0  0  0  0  0  0  0  0  0  0  0
   -7.0215   -0.8688    0.3756 H   0  0  0  0  0  0  0  0  0  0  0  0
   -0.7138   -2.4021   -0.4658 C   0  0  0  0  0  0  0  0  0  0  0  0
   -0.6839   -2.6216   -1.5539 H   0  0  0  0  0  0  0  0  0  0  0  0
   -1.0714   -3.3269    0.0413 H   0  0  0  0  0  0  0  0  0  0  0  0
   -0.6418    2.4494   -0.4526 C   0  0  0  0  0  0  0  0  0  0  0  0
   -0.6090    2.6753   -1.5391 H   0  0  0  0  0  0  0  0  0  0  0  0
   -0.9712    3.3796    0.0621 H   0  0  0  0  0  0  0  0  0  0  0  0
    1.6660   -2.9068   -0.8383 C   0  0  0  0  0  0  0  0  0  0  0  0
    2.6916   -2.6417   -0.5195 H   0  0  0  0  0  0  0  0  0  0  0  0
    1.5551   -2.6553   -1.9092 H   0  0  0  0  0  0  0  0  0  0  0  0
    1.4833   -3.9960   -0.6903 H   0  0  0  0  0  0  0  0  0  0  0  0
    0.8782   -2.4072    1.3985 C   0  0  0  0  0  0  0  0  0  0  0  0
    0.7491   -3.4991    1.5815 H   0  0  0  0  0  0  0  0  0  0  0  0
    0.1238   -1.8464    1.9807 H   0  0  0  0  0  0  0  0  0  0  0  0
    1.8900   -2.0872    1.7106 H   0  0  0  0  0  0  0  0  0  0  0  0
    0.9545    2.3987    1.4072 C   0  0  0  0  0  0  0  0  0  0  0  0
    1.9566    2.0470    1.7165 H   0  0  0  0  0  0  0  0  0  0  0  0
    0.1840    1.8608    1.9898 H   0  0  0  0  0  0  0  0  0  0  0  0
    0.8592    3.4935    1.5929 H   0  0  0  0  0  0  0  0  0  0  0  0
    1.7523    2.8798   -0.8303 C   0  0  0  0  0  0  0  0  0  0  0  0
    1.6027    3.9735   -0.6792 H   0  0  0  0  0  0  0  0  0  0  0  0
    1.6314    2.6348   -1.9015 H   0  0  0  0  0  0  0  0  0  0  0  0
    2.7700    2.5834   -0.5143 H   0  0  0  0  0  0  0  0  0  0  0  0
  2 27  1  0  0  0  0
  3 31  1  0  0  0  0
  4  5  2  0  0  0  0
  4  6  1  0  0  0  0
  5  7  1  0  0  0  0
  6  9  2  0  0  0  0
  7  8  1  0  0  0  0
  7 11  2  0  0  0  0
  9 10  1  0  0  0  0
  9 11  1  0  0  0  0
 11 12  1  0  0  0  0
 12  1  2  0  0  0  0
 12 13  1  0  0  0  0
 13 16  1  0  0  0  0
 13 14  1  0  0  0  0
 15 13  1  0  0  0  0
 17  5  1  0  0  0  0
 17  2  1  0  0  0  0
 17 19  1  0  0  0  0
 18 17  1  0  0  0  0
 20  6  1  0  0  0  0
 20  3  1  0  0  0  0
 20 22  1  0  0  0  0
 21 20  1  0  0  0  0
 23 26  1  0  0  0  0
 23 24  1  0  0  0  0
 23  2  1  0  0  0  0
 25 23  1  0  0  0  0
 27 28  1  0  0  0  0
 27 30  1  0  0  0  0
 27 29  1  0  0  0  0
 31 34  1  0  0  0  0
 31 32  1  0  0  0  0
 31 33  1  0  0  0  0
 35 36  1  0  0  0  0
 35 38  1  0  0  0  0
 35  3  1  0  0  0  0
 37 35  1  0  0  0  0
M  END
