1,2,3
q = -1.0, confidence = 0.072

 54 56  0  0  0  0  0  0  0  0999 V2000
   -1.6910    1.3153    0.1814 N   0  0  0  0  0  2  0  0  0  0  0  0
    0.8640    0.7865    0.3032 N   0  0  0  0  0  2  0  0  0  0  0  0
   -2.7791   -0.9930   -0.2688 C   0  0  0  0  0  2  0  0  0  0  0  0
   -3.2994   -2.2757   -0.4957 C   0  0  0  0  0  3  0  0  0  0  0  0
   -2.6063   -3.1274   -0.5681 H   0  0  0  0  0  0  0  0  0  0  0  0
   -4.6872   -2.4606   -0.6267 C   0  0  0  0  0  0  0  0  0  0  0  0
   -5.0873   -3.4717   -0.8038 H   0  0  0  0  0  0  0  0  0  0  0  0
   -5.5731   -1.3697   -0.5364 C   0  0  0  0  0  0  0  0  0  0  0  0
   -6.6565   -1.5282   -0.6434 H   0  0  0  0  0  0  0  0  0  0  0  0
   -5.0741   -0.0813   -0.3096 C   0  0  0  0  0  0  0  0  0  0  0  0
   -5.7695    0.7701   -0.2384 H   0  0  0  0  0  0  0  0  0  0  0  0
   -3.6842    0.1179   -0.1727 C   0  0  0  0  0  0  0  0  0  0  0  0
   -3.0501    1.4134    0.0774 C   0  0  0  0  0  0  0  0  0  0  0  0
   -3.6440    2.6850    0.2205 C   0  0  0  0  0  0  0  0  0  0  0  0
   -4.7344    2.7895    0.1381 H   0  0  0  0  0  0  0  0  0  0  0  0
   -2.8345    3.8020    0.4650 C   0  0  0  0  0  0  0  0  0  0  0  0
   -3.2928    4.7959    0.5744 H   0  0  0  0  0  0  0  0  0  0  0  0
   -1.4397    3.6611    0.5725 C   0  0  0  0  0  0  0  0  0  0  0  0
   -0.7973    4.5306    0.7637 H   0  0  0  0  0  0  0  0  0  0  0  0
   -0.8816    2.3794    0.4240 C   0  0  0  0  0  0  0  0  0  0  0  0
    0.5587    2.0407    0.5164 C   0  0  0  0  0  0  0  0  0  0  0  0
    1.5452    3.1082    0.8835 C   0  0  0  0  0  0  0  0  0  0  0  0
    2.5446    2.6735    1.0640 H   0  0  0  0  0  0  0  0  0  0  0  0
    1.2103    3.6440    1.7948 H   0  0  0  0  0  0  0  0  0  0  0  0
    1.6337    3.8618    0.0739 H   0  0  0  0  0  0  0  0  0  0  0  0
    2.1845    0.2682    0.3273 C   0  0  0  0  0  0  0  0  0  0  0  0
    2.4850   -0.6746    1.3527 C   0  0  0  0  0  0  0  0  0  0  0  0
    3.7575   -1.2683    1.3540 C   0  0  0  0  0  0  0  0  0  0  0  0
    4.0124   -1.9892    2.1441 H   0  0  0  0  0  0  0  0  0  0  0  0
    4.7023   -0.9582    0.3662 C   0  0  0  0  0  0  0  0  0  0  0  0
    5.6939   -1.4353    0.3816 H   0  0  0  0  0  0  0  0  0  0  0  0
    4.3766   -0.0507   -0.6468 C   0  0  0  0  0  0  0  0  0  0  0  0
    5.1121    0.1675   -1.4361 H   0  0  0  0  0  0  0  0  0  0  0  0
    3.1183    0.5788   -0.7000 C   0  0  0  0  0  0  0  0  0  0  0  0
    2.7917    1.4858   -1.8816 C   0  0  0  0  0  0  0  0  0  0  0  0
    1.7547    1.8567   -1.7533 H   0  0  0  0  0  0  0  0  0  0  0  0
    2.8211    0.6951   -3.2034 C   0  0  0  0  0  0  0  0  0  0  0  0
    2.4783    1.3362   -4.0418 H   0  0  0  0  0  0  0  0  0  0  0  0
    2.1682   -0.1966   -3.1358 H   0  0  0  0  0  0  0  0  0  0  0  0
    3.8531    0.3614   -3.4408 H   0  0  0  0  0  0  0  0  0  0  0  0
    3.7318    2.7032   -1.9490 C   0  0  0  0  0  0  0  0  0  0  0  0
    3.4324    3.3800   -2.7754 H   0  0  0  0  0  0  0  0  0  0  0  0
    4.7772    2.3880   -2.1461 H   0  0  0  0  0  0  0  0  0  0  0  0
    3.7374    3.2894   -1.0084 H   0  0  0  0  0  0  0  0  0  0  0  0
    1.4723   -0.9617    2.4516 C   0  0  0  0  0  0  0  0  0  0  0  0
    0.4639   -0.8090    2.0036 H   0  0  0  0  0  0  0  0  0  0  0  0
    1.5116   -2.4056    2.9606 C   0  0  0  0  0  0  0  0  0  0  0  0
    0.6792   -2.5787    3.6721 H   0  0  0  0  0  0  0  0  0  0  0  0
    2.4539   -2.6403    3.4985 H   0  0  0  0  0  0  0  0  0  0  0  0
    1.3918   -3.1156    2.1193 H   0  0  0  0  0  0  0  0  0  0  0  0
    1.6216    0.0543    3.5991 C   0  0  0  0  0  0  0  0  0  0  0  0
    1.5330    1.0987    3.2360 H   0  0  0  0  0  0  0  0  0  0  0  0
    2.6134   -0.0444    4.0880 H   0  0  0  0  0  0  0  0  0  0  0  0
    0.8407   -0.1043    4.3711 H   0  0  0  0  0  0  0  0  0  0  0  0
  1 20  1  0  0  0  0
  2 26  1  0  0  0  0
  2 21  1  0  0  0  0
  3 12  1  0  0  0  0
  4  3  1  0  0  0  0
  5  4  1  0  0  0  0
  6  8  2  0  0  0  0
  6  4  1  0  0  0  0
  7  6  1  0  0  0  0
  8 10  1  0  0  0  0
  9  8  1  0  0  0  0
 10 11  1  0  0  0  0
 10 12  2  0  0  0  0
 12 13  1  0  0  0  0
 13  1  1  0  0  0  0
 13 14  2  0  0  0  0
 14 16  1  0  0  0  0
 15 14  1  0  0  0  0
 16 18  2  0  0  0  0
 16 17  1  0  0  0  0
 18 19  1  0  0  0  0
 20 21  2  0  0  0  0
 20 18  1  0  0  0  0
 21 22  1  0  0  0  0
 22 23  1  0  0  0  0
 22 24  1  0  0  0  0
 25 22  1  0  0  0  0
 26 27  1  0  0  0  0
 27 28  2  0  0  0  0
 27 45  1  0  0  0  0
 28 29  1  0  0  0  0
 30 31  1  0  0  0  0
 30 28  1  0  0  0  0
 32 30  2  0  0  0  0
 33 32  1  0  0  0  0
 34 32  1  0  0  0  0
 34 26  2  0  0  0  0
 35 36  1  0  0  0  0
 35 34  1  0  0  0  0
 37 39  1  0  0  0  0
 37 35  1  0  0  0  0
 38 37  1  0  0  0  0
 40 37  1  0  0  0  0
 41 35  1  0  0  0  0
 41 44  1  0  0  0  0
 42 41  1  0  0  0  0
 43 41  1  0  0  0  0
 45 47  1  0  0  0  0
 45 51  1  0  0  0  0
 46 45  1  0  0  0  0
 47 49  1  0  0  0  0
 47 48  1  0  0  0  0
 50 47  1  0  0  0  0
 51 53  1  0  0  0  0
 51 54  1  0  0  0  0
 52 51  1  0  0  0  0
M  END
