2,4,5
q = -1.0, confidence = 0.03

 39 42  0  0  1  0  0  0  0  0999 V2000
    2.7202   -0.5594    0.0161 N   0  0  0  0  0  0  0  0  0  0  0  0
    1.2966    1.3689   -0.0157 N   0  0  0  0  0  2  0  0  0  0  0  0
   -0.1514    3.2154   -0.0552 N   0  0  0  0  0  0  0  0  0  0  0  0
   -1.1737    2.3186   -0.0406 N   0  0  0  0  0  2  0  0  0  0  0  0
    0.3379   -1.4667    0.0633 C   0  0  0  0  0  2  0  0  0  0  0  0
   -0.4469   -2.6494    0.1136 C   0  0  0  0  0  0  0  0  0  0  0  0
   -1.5386   -2.5297    0.1194 H   0  0  0  0  0  0  0  0  0  0  0  0
    0.0978   -3.9351    0.1547 C   0  0  0  0  0  0  0  0  0  0  0  0
   -0.5641   -4.8138    0.1932 H   0  0  0  0  0  0  0  0  0  0  0  0
    1.4902   -4.0842    0.1460 C   0  0  0  0  0  0  0  0  0  0  0  0
    1.9570   -5.0804    0.1762 H   0  0  0  0  0  0  0  0  0  0  0  0
    2.3037   -2.9510    0.0988 C   0  0  0  0  0  0  0  0  0  0  0  0
    3.3887   -3.1001    0.0940 H   0  0  0  0  0  0  0  0  0  0  0  0
    1.7562   -1.6392    0.0588 C   0  0  2  0  0  3  0  0  0  0  0  0
    2.5465    0.8110   -0.0119 C   0  0  2  0  0  3  0  0  0  0  0  0
    3.6903    1.6713   -0.0384 C   0  0  0  0  0  0  0  0  0  0  0  0
    4.6954    1.2408   -0.0363 H   0  0  0  0  0  0  0  0  0  0  0  0
    3.5347    3.0490   -0.0659 C   0  0  0  0  0  0  0  0  0  0  0  0
    4.4228    3.6967   -0.0851 H   0  0  0  0  0  0  0  0  0  0  0  0
    2.2496    3.6150   -0.0702 C   0  0  0  0  0  0  0  0  0  0  0  0
    2.0974    4.6999   -0.0940 H   0  0  0  0  0  0  0  0  0  0  0  0
    1.1746    2.7312   -0.0458 C   0  0  0  0  0  0  0  0  0  0  0  0
   -0.6403    4.5013   -0.0844 C   0  0  0  0  0  3  0  0  0  0  0  0
    0.0222    5.3706   -0.1000 H   0  0  0  0  0  0  0  0  0  0  0  0
   -2.0252    4.4056   -0.0885 C   0  0  0  0  0  0  0  0  0  0  0  0
   -2.7382    5.2356   -0.1095 H   0  0  0  0  0  0  0  0  0  0  0  0
   -2.3139    3.0166   -0.0608 C   0  0  0  0  0  0  0  0  0  0  0  0
   -3.2654    2.4717   -0.0552 H   0  0  0  0  0  0  0  0  0  0  0  0
    4.1073   -0.9744    0.0043 C   0  0  0  0  0  0  0  0  0  0  0  0
    4.7533   -1.2027   -1.2210 C   0  0  0  0  0  0  0  0  0  0  0  0
    4.1890   -1.0742   -2.1560 H   0  0  0  0  0  0  0  0  0  0  0  0
    6.0997   -1.5963   -1.2305 C   0  0  0  0  0  0  0  0  0  0  0  0
    6.6086   -1.7775   -2.1891 H   0  0  0  0  0  0  0  0  0  0  0  0
    6.7944   -1.7617   -0.0208 C   0  0  0  0  0  0  0  0  0  0  0  0
    7.8500   -2.0718   -0.0307 H   0  0  0  0  0  0  0  0  0  0  0  0
    6.1406   -1.5347    1.2016 C   0  0  0  0  0  0  0  0  0  0  0  0
    6.6815   -1.6677    2.1505 H   0  0  0  0  0  0  0  0  0  0  0  0
    4.7943   -1.1411    1.2174 C   0  0  0  0  0  0  0  0  0  0  0  0
    4.2617   -0.9651    2.1633 H   0  0  0  0  0  0  0  0  0  0  0  0
  2 15  1  0  0  0  0
  3 22  1  0  0  0  0
  3  4  1  0  0  0  0
  5  6  1  0  0  0  0
  6  7  1  0  0  0  0
  6  8  2  0  0  0  0
  8  9  1  0  0  0  0
 10  8  1  0  0  0  0
 10 11  1  0  0  0  0
 12 10  2  0  0  0  0
 13 12  1  0  0  0  0
 14  1  1  1  0  0  0
 14  5  1  0  0  0  0
 14 12  1  0  0  0  0
 15  1  1  6  0  0  0
 16 17  1  0  0  0  0
 16 15  1  0  0  0  0
 18 16  2  0  0  0  0
 19 18  1  0  0  0  0
 20 18  1  0  0  0  0
 20 22  2  0  0  0  0
 21 20  1  0  0  0  0
 22  2  1  0  0  0  0
 23  3  1  0  0  0  0
 24 23  1  0  0  0  0
 25 23  1  0  0  0  0
 25 27  2  0  0  0  0
 26 25  1  0  0  0  0
 27 28  1  0  0  0  0
 27  4  1  0  0  0  0
 29  1  1  0  0  0  0
 29 38  1  0  0  0  0
 30 29  2  0  0  0  0
 31 30  1  0  0  0  0
 32 30  1  0  0  0  0
 32 34  2  0  0  0  0
 33 32  1  0  0  0  0
 34 36  1  0  0  0  0
 35 34  1  0  0  0  0
 36 38  2  0  0  0  0
 36 37  1  0  0  0  0
 38 39  1  0  0  0  0
M  END
