4,6,8
q = -1.0, confidence = 0.156

 78 84  0  0  1  0  0  0  0  0999 V2000
   -6.9125    2.9233    0.8131 O   0  0  0  0  0  0  0  0  0  0  0  0
    5.5928    5.7202    0.2880 O   0  0  0  0  0  0  0  0  0  0  0  0
   -0.5633    3.7049    0.5439 O   0  0  0  0  0  0  0  0  0  0  0  0
   -1.3129   -2.3497    0.0088 N   0  0  0  0  0  2  0  0  0  0  0  0
   -3.2884   -1.2869    0.1512 N   0  0  0  0  0  0  0  0  0  0  0  0
    2.5963   -1.4319   -0.0181 N   0  0  0  0  0  2  0  0  0  0  0  0
    3.9086    0.3892    0.0815 N   0  0  0  0  0  0  0  0  0  0  0  0
    0.2881   -0.3621    0.1427 C   0  0  0  0  0  2  0  0  0  0  0  0
    1.3287    0.6078    0.1793 C   0  0  0  0  0  0  0  0  0  0  0  0
    1.0038    1.9706    0.3173 C   0  0  0  0  0  0  0  0  0  0  0  0
    1.7633    2.7619    0.3666 H   0  0  0  0  0  0  0  0  0  0  0  0
   -0.3556    2.3583    0.4031 C   0  0  0  0  0  0  0  0  0  0  0  0
   -1.3969    1.4058    0.3580 C   0  0  0  0  0  0  0  0  0  0  0  0
   -2.4439    1.7219    0.4157 H   0  0  0  0  0  0  0  0  0  0  0  0
   -1.0691    0.0370    0.2332 C   0  0  0  0  0  0  0  0  0  0  0  0
   -1.9171   -1.1384    0.1512 C   0  0  2  0  0  3  0  0  0  0  0  0
    2.6099   -0.0731    0.0756 C   0  0  0  0  0  0  0  0  0  0  0  0
   -2.3086   -3.3076   -0.0943 C   0  0  0  0  0  0  0  0  0  0  0  0
   -3.5687   -2.6485   -0.0083 C   0  0  0  0  0  0  0  0  0  0  0  0
   -4.7811   -3.3494   -0.0677 C   0  0  0  0  0  0  0  0  0  0  0  0
   -5.7474   -2.8308    0.0079 H   0  0  0  0  0  0  0  0  0  0  0  0
   -4.6947   -4.7399   -0.2270 C   0  0  0  0  0  0  0  0  0  0  0  0
   -5.6214   -5.3307   -0.2801 H   0  0  0  0  0  0  0  0  0  0  0  0
   -3.4447   -5.4007   -0.3185 C   0  0  0  0  0  0  0  0  0  0  0  0
   -3.4272   -6.4938   -0.4430 H   0  0  0  0  0  0  0  0  0  0  0  0
   -2.2330   -4.7030   -0.2524 C   0  0  0  0  0  0  0  0  0  0  0  0
   -1.2442   -5.1839   -0.3153 H   0  0  0  0  0  0  0  0  0  0  0  0
   -4.2457   -0.2407    0.3039 C   0  0  0  0  0  0  0  0  0  0  0  0
   -4.3699    0.4264    1.5392 C   0  0  0  0  0  0  0  0  0  0  0  0
   -3.7404    0.1154    2.3854 H   0  0  0  0  0  0  0  0  0  0  0  0
   -5.2686    1.4840    1.6750 C   0  0  0  0  0  0  0  0  0  0  0  0
   -5.3765    2.0239    2.6264 H   0  0  0  0  0  0  0  0  0  0  0  0
   -6.0770    1.8779    0.5838 C   0  0  0  0  0  0  0  0  0  0  0  0
   -5.9712    1.1927   -0.6455 C   0  0  0  0  0  0  0  0  0  0  0  0
   -6.5881    1.4781   -1.5074 H   0  0  0  0  0  0  0  0  0  0  0  0
   -5.0512    0.1416   -0.7790 C   0  0  0  0  0  0  0  0  0  0  0  0
   -4.9449   -0.3817   -1.7404 H   0  0  0  0  0  0  0  0  0  0  0  0
   -7.7984    3.3227   -0.2205 C   0  0  0  0  0  0  0  0  0  0  0  0
   -8.4830    2.4965   -0.5146 H   0  0  0  0  0  0  0  0  0  0  0  0
   -7.2497    3.6768   -1.1201 H   0  0  0  0  0  0  0  0  0  0  0  0
   -8.3955    4.1583    0.1881 H   0  0  0  0  0  0  0  0  0  0  0  0
    3.9109   -1.8655   -0.0650 C   0  0  0  0  0  0  0  0  0  0  0  0
    4.7558   -0.7213   -0.0012 C   0  0  0  0  0  0  0  0  0  0  0  0
    6.1534   -0.8252   -0.0448 C   0  0  0  0  0  0  0  0  0  0  0  0
    6.7963    0.0654   -0.0044 H   0  0  0  0  0  0  0  0  0  0  0  0
    6.6830   -2.1195   -0.1425 C   0  0  0  0  0  0  0  0  0  0  0  0
    7.7752   -2.2489   -0.1774 H   0  0  0  0  0  0  0  0  0  0  0  0
    5.8472   -3.2625   -0.1998 C   0  0  0  0  0  0  0  0  0  0  0  0
    6.3095   -4.2581   -0.2764 H   0  0  0  0  0  0  0  0  0  0  0  0
    4.4520   -3.1600   -0.1651 C   0  0  0  0  0  0  0  0  0  0  0  0
    3.7719   -4.0249   -0.2149 H   0  0  0  0  0  0  0  0  0  0  0  0
    4.3298    1.7520    0.1086 C   0  0  0  0  0  0  0  0  0  0  0  0
    4.0584    2.5950   -0.9794 C   0  0  0  0  0  0  0  0  0  0  0  0
    3.5184    2.1951   -1.8498 H   0  0  0  0  0  0  0  0  0  0  0  0
    4.4580    3.9387   -0.9541 C   0  0  0  0  0  0  0  0  0  0  0  0
    4.2260    4.5815   -1.8130 H   0  0  0  0  0  0  0  0  0  0  0  0
    5.1576    4.4410    0.1646 C   0  0  0  0  0  0  0  0  0  0  0  0
    5.4444    3.5823    1.2505 C   0  0  0  0  0  0  0  0  0  0  0  0
    5.9881    3.9950    2.1121 H   0  0  0  0  0  0  0  0  0  0  0  0
    5.0297    2.2509    1.2249 C   0  0  0  0  0  0  0  0  0  0  0  0
    5.2354    1.5852    2.0756 H   0  0  0  0  0  0  0  0  0  0  0  0
    5.3255    6.6305   -0.7641 C   0  0  0  0  0  0  0  0  0  0  0  0
    4.2328    6.7570   -0.9333 H   0  0  0  0  0  0  0  0  0  0  0  0
    5.8012    6.3113   -1.7183 H   0  0  0  0  0  0  0  0  0  0  0  0
    5.7565    7.6002   -0.4546 H   0  0  0  0  0  0  0  0  0  0  0  0
   -1.8929    4.1995    0.6620 C   0  0  0  0  0  0  0  0  0  0  0  0
   -1.7829    5.2062    1.1162 H   0  0  0  0  0  0  0  0  0  0  0  0
   -2.4794    3.5814    1.3815 H   0  0  0  0  0  0  0  0  0  0  0  0
   -2.6249    4.3137   -0.6756 C   0  0  0  0  0  0  0  0  0  0  0  0
   -2.7219    3.3092   -1.1406 H   0  0  0  0  0  0  0  0  0  0  0  0
   -1.9947    4.9133   -1.3676 H   0  0  0  0  0  0  0  0  0  0  0  0
   -4.0105    4.9511   -0.5372 C   0  0  0  0  0  0  0  0  0  0  0  0
   -3.9069    5.9642   -0.0884 H   0  0  0  0  0  0  0  0  0  0  0  0
   -4.6222    4.3647    0.1832 H   0  0  0  0  0  0  0  0  0  0  0  0
   -4.7538    5.0529   -1.8697 C   0  0  0  0  0  0  0  0  0  0  0  0
   -4.9254    4.0474   -2.3087 H   0  0  0  0  0  0  0  0  0  0  0  0
   -4.1752    5.6398   -2.6130 H   0  0  0  0  0  0  0  0  0  0  0  0
   -5.7402    5.5463   -1.7535 H   0  0  0  0  0  0  0  0  0  0  0  0
  3 66  1  0  0  0  0
  4 16  1  0  0  0  0
  5 16  1  0  0  0  0
  5 28  1  0  0  0  0
  6 17  1  0  0  0  0
  7 52  1  0  0  0  0
  8  9  1  0  0  0  0
  8 15  1  0  0  0  0
  9 10  1  0  0  0  0
 10 11  1  0  0  0  0
 10 12  2  0  0  0  0
 12  3  1  0  0  0  0
 13 12  1  0  0  0  0
 13 14  1  0  0  0  0
 15 13  2  0  0  0  0
 16 15  1  6  0  0  0
 17  7  1  0  0  0  0
 17  9  2  0  0  0  0
 18 19  1  0  0  0  0
 18  4  1  0  0  0  0
 19  5  1  0  0  0  0
 20 19  2  0  0  0  0
 20 21  1  0  0  0  0
 22 20  1  0  0  0  0
 23 22  1  0  0  0  0
 24 26  1  0  0  0  0
 24 22  2  0  0  0  0
 25 24  1  0  0  0  0
 26 18  2  0  0  0  0
 27 26  1  0  0  0  0
 28 29  1  0  0  0  0
 29 31  2  0  0  0  0
 29 30  1  0  0  0  0
 31 32  1  0  0  0  0
 33  1  1  0  0  0  0
 33 31  1  0  0  0  0
 34 33  2  0  0  0  0
 35 34  1  0  0  0  0
 36 34  1  0  0  0  0
 36 28  2  0  0  0  0
 37 36  1  0  0  0  0
 38 41  1  0  0  0  0
 38  1  1  0  0  0  0
 39 38  1  0  0  0  0
 40 38  1  0  0  0  0
 42  6  1  0  0  0  0
 42 43  1  0  0  0  0
 43  7  1  0  0  0  0
 44 45  1  0  0  0  0
 44 43  2  0  0  0  0
 46 44  1  0  0  0  0
 47 46  1  0  0  0  0
 48 50  1  0  0  0  0
 48 46  2  0  0  0  0
 49 48  1  0  0  0  0
 50 42  2  0  0  0  0
 51 50  1  0  0  0  0
 52 60  1  0  0  0  0
 53 55  1  0  0  0  0
 53 52  2  0  0  0  0
 54 53  1  0  0  0  0
 55 57  2  0  0  0  0
 56 55  1  0  0  0  0
 57  2  1  0  0  0  0
 57 58  1  0  0  0  0
 58 59  1  0  0  0  0
 60 58  2  0  0  0  0
 60 61  1  0  0  0  0
 62 65  1  0  0  0  0
 62  2  1  0  0  0  0
 63 62  1  0  0  0  0
 64 62  1  0  0  0  0
 66 67  1  0  0  0  0
 66 68  1  0  0  0  0
 69 72  1  0  0  0  0
 69 66  1  0  0  0  0
 70 69  1  0  0  0  0
 71 69  1  0  0  0  0
 72 73  1  0  0  0  0
 72 74  1  0  0  0  0
 75 78  1  0  0  0  0
 75 72  1  0  0  0  0
 76 75  1  0  0  0  0
 77 75  1  0  0  0  0
M  END
