3,4,29
q = -1.0, confidence = 0.088

 74 78  0  0  1  0  0  0  0  0999 V2000
    3.0037    2.8368   -0.0990 O   0  0  0  0  0  0  0  0  0  0  0  0
    2.1665   -2.7991   -0.4600 N   0  0  0  0  0  0  0  0  0  0  0  0
   -0.0432   -2.4717   -0.2133 N   0  0  0  0  0  2  0  0  0  0  0  0
   -2.6110    0.5857    0.1958 N   0  0  0  0  0  2  0  0  0  0  0  0
   -2.5634    2.8261    0.3605 N   0  0  0  0  0  0  0  0  0  0  0  0
    0.1669   -3.8367   -0.3003 C   0  0  0  0  0  0  0  0  0  0  0  0
   -5.1285    0.3029    0.3560 C   0  0  0  0  0  0  0  0  0  0  0  0
   -5.1042   -0.7959    0.2843 H   0  0  0  0  0  0  0  0  0  0  0  0
   -0.7389   -4.9121   -0.2632 C   0  0  0  0  0  0  0  0  0  0  0  0
   -1.8147   -4.7047   -0.1505 H   0  0  0  0  0  0  0  0  0  0  0  0
   -0.2016   -6.1990   -0.3747 C   0  0  0  0  0  0  0  0  0  0  0  0
   -0.8774   -7.0669   -0.3488 H   0  0  0  0  0  0  0  0  0  0  0  0
    1.1911   -6.4166   -0.5187 C   0  0  0  0  0  0  0  0  0  0  0  0
    1.5701   -7.4464   -0.5996 H   0  0  0  0  0  0  0  0  0  0  0  0
    2.1014   -5.3514   -0.5581 C   0  0  0  0  0  0  0  0  0  0  0  0
    3.1815   -5.5288   -0.6644 H   0  0  0  0  0  0  0  0  0  0  0  0
    1.5675   -4.0581   -0.4488 C   0  0  0  0  0  0  0  0  0  0  0  0
    4.3586    2.4169   -0.1608 C   0  0  0  0  0  0  0  0  0  0  0  0
    4.5518    1.8658   -1.1133 H   0  0  0  0  0  0  0  0  0  0  0  0
    4.5806    1.7081    0.6741 H   0  0  0  0  0  0  0  0  0  0  0  0
    1.1721   -1.8607   -0.3021 C   0  0  1  0  0  3  0  0  0  0  0  0
    1.2018   -0.4101   -0.2105 C   0  0  0  0  0  0  0  0  0  0  0  0
    2.2846    0.5010   -0.2350 C   0  0  0  0  0  0  0  0  0  0  0  0
    3.3164    0.1548   -0.3531 H   0  0  0  0  0  0  0  0  0  0  0  0
    2.0241    1.8813   -0.0998 C   0  0  0  0  0  0  0  0  0  0  0  0
    0.7058    2.3731    0.0498 C   0  0  0  0  0  3  0  0  0  0  0  0
    0.5925    3.4602    0.1447 H   0  0  0  0  0  0  0  0  0  0  0  0
   -0.3746    1.4715    0.0757 C   0  0  0  0  0  0  0  0  0  0  0  0
   -0.1223    0.0752   -0.0519 C   0  0  0  0  0  3  0  0  0  0  0  0
   -1.8074    1.6867    0.2137 C   0  0  0  0  0  0  0  0  0  0  0  0
   -3.9190    1.0201    0.3186 C   0  0  0  0  0  0  0  0  0  0  0  0
   -3.9023    2.4423    0.4134 C   0  0  0  0  0  0  0  0  0  0  0  0
   -5.0859    3.1865    0.5393 C   0  0  0  0  0  0  0  0  0  0  0  0
   -5.0795    4.2842    0.6033 H   0  0  0  0  0  0  0  0  0  0  0  0
   -6.2859    2.4634    0.5734 C   0  0  0  0  0  0  0  0  0  0  0  0
   -7.2361    3.0097    0.6697 H   0  0  0  0  0  0  0  0  0  0  0  0
   -6.3047    1.0491    0.4845 C   0  0  0  0  0  0  0  0  0  0  0  0
   -7.2718    0.5254    0.5160 H   0  0  0  0  0  0  0  0  0  0  0  0
    3.5909   -2.5284   -0.5809 C   0  0  0  0  0  0  0  0  0  0  0  0
    3.7216   -1.6821   -1.2865 H   0  0  0  0  0  0  0  0  0  0  0  0
    4.0557   -3.4080   -1.0692 H   0  0  0  0  0  0  0  0  0  0  0  0
    4.2747   -2.2231    0.7567 C   0  0  0  0  0  0  0  0  0  0  0  0
    3.6818   -1.4523    1.2946 H   0  0  0  0  0  0  0  0  0  0  0  0
    4.2500   -3.1307    1.3973 H   0  0  0  0  0  0  0  0  0  0  0  0
    5.7135   -1.7305    0.5785 C   0  0  0  0  0  0  0  0  0  0  0  0
    5.7131   -0.8491   -0.1032 H   0  0  0  0  0  0  0  0  0  0  0  0
    6.3120   -2.5091    0.0554 H   0  0  0  0  0  0  0  0  0  0  0  0
    6.3883   -1.3520    1.8969 C   0  0  0  0  0  0  0  0  0  0  0  0
    5.8321   -0.5409    2.4120 H   0  0  0  0  0  0  0  0  0  0  0  0
    7.4266   -0.9986    1.7374 H   0  0  0  0  0  0  0  0  0  0  0  0
    6.4304   -2.2153    2.5925 H   0  0  0  0  0  0  0  0  0  0  0  0
    5.2550    3.6409   -0.0659 C   0  0  0  0  0  0  0  0  0  0  0  0
    5.0177    4.1818    0.8756 H   0  0  0  0  0  0  0  0  0  0  0  0
    5.0011    4.3353   -0.8959 H   0  0  0  0  0  0  0  0  0  0  0  0
    6.7436    3.2840   -0.1103 C   0  0  0  0  0  0  0  0  0  0  0  0
    6.9619    2.7328   -1.0523 H   0  0  0  0  0  0  0  0  0  0  0  0
    6.9753    2.5722    0.7138 H   0  0  0  0  0  0  0  0  0  0  0  0
    7.6585    4.5046   -0.0067 C   0  0  0  0  0  0  0  0  0  0  0  0
    7.4894    5.0548    0.9421 H   0  0  0  0  0  0  0  0  0  0  0  0
    7.4747    5.2167   -0.8378 H   0  0  0  0  0  0  0  0  0  0  0  0
    8.7285    4.2178   -0.0417 H   0  0  0  0  0  0  0  0  0  0  0  0
   -2.0730    4.1967    0.3720 C   0  0  0  0  0  0  0  0  0  0  0  0
   -1.1506    4.2238    0.9838 H   0  0  0  0  0  0  0  0  0  0  0  0
   -2.8209    4.8107    0.9134 H   0  0  0  0  0  0  0  0  0  0  0  0
   -1.8331    4.7599   -1.0344 C   0  0  0  0  0  0  0  0  0  0  0  0
   -2.7950    4.7316   -1.5882 H   0  0  0  0  0  0  0  0  0  0  0  0
   -1.1415    4.0803   -1.5783 H   0  0  0  0  0  0  0  0  0  0  0  0
   -1.2664    6.1861   -1.0347 C   0  0  0  0  0  0  0  0  0  0  0  0
   -1.2784    6.5622   -2.0794 H   0  0  0  0  0  0  0  0  0  0  0  0
   -1.9533    6.8556   -0.4698 H   0  0  0  0  0  0  0  0  0  0  0  0
    0.1536    6.3090   -0.4728 C   0  0  0  0  0  0  0  0  0  0  0  0
    0.5261    7.3500   -0.5503 H   0  0  0  0  0  0  0  0  0  0  0  0
    0.8658    5.6590   -1.0226 H   0  0  0  0  0  0  0  0  0  0  0  0
    0.2107    6.0281    0.5993 H   0  0  0  0  0  0  0  0  0  0  0  0
  2 17  1  0  0  0  0
  2 21  1  0  0  0  0
  4 30  1  0  0  0  0
  4 31  1  0  0  0  0
  5 62  1  0  0  0  0
  5 32  1  0  0  0  0
  6  9  1  0  0  0  0
  6  3  1  0  0  0  0
  7 37  1  0  0  0  0
  8  7  1  0  0  0  0
  9 10  1  0  0  0  0
 11 12  1  0  0  0  0
 11  9  2  0  0  0  0
 13 11  1  0  0  0  0
 14 13  1  0  0  0  0
 15 13  2  0  0  0  0
 15 17  1  0  0  0  0
 16 15  1  0  0  0  0
 17  6  2  0  0  0  0
 18  1  1  0  0  0  0
 18 52  1  0  0  0  0
 18 20  1  0  0  0  0
 19 18  1  0  0  0  0
 21  3  1  0  0  0  0
 21 22  1  1  0  0  0
 22 29  2  0  0  0  0
 23 22  1  0  0  0  0
 23 25  2  0  0  0  0
 24 23  1  0  0  0  0
 25  1  1  0  0  0  0
 25 26  1  0  0  0  0
 26 28  1  0  0  0  0
 26 27  1  0  0  0  0
 28 30  2  0  0  0  0
 29 28  1  0  0  0  0
 30  5  1  0  0  0  0
 31  7  2  0  0  0  0
 31 32  1  0  0  0  0
 32 33  2  0  0  0  0
 33 35  1  0  0  0  0
 33 34  1  0  0  0  0
 35 36  1  0  0  0  0
 37 38  1  0  0  0  0
 37 35  2  0  0  0  0
 39  2  1  0  0  0  0
 39 42  1  0  0  0  0
 40 39  1  0  0  0  0
 41 39  1  0  0  0  0
 42 43  1  0  0  0  0
 42 44  1  0  0  0  0
 45 42  1  0  0  0  0
 45 48  1  0  0  0  0
 46 45  1  0  0  0  0
 47 45  1  0  0  0  0
 48 49  1  0  0  0  0
 48 51  1  0  0  0  0
 50 48  1  0  0  0  0
 52 53  1  0  0  0  0
 54 52  1  0  0  0  0
 55 52  1  0  0  0  0
 55 58  1  0  0  0  0
 55 57  1  0  0  0  0
 56 55  1  0  0  0  0
 58 59  1  0  0  0  0
 60 58  1  0  0  0  0
 61 58  1  0  0  0  0
 62 64  1  0  0  0  0
 62 63  1  0  0  0  0
 65 62  1  0  0  0  0
 66 65  1  0  0  0  0
 67 65  1  0  0  0  0
 68 65  1  0  0  0  0
 68 71  1  0  0  0  0
 68 70  1  0  0  0  0
 69 68  1  0  0  0  0
 71 74  1  0  0  0  0
 72 71  1  0  0  0  0
 73 71  1  0  0  0  0
M  END
