3,4,5
q = -1.0, confidence = 0.12

 65 69  0  0  1  0  0  0  0  0999 V2000
   -3.6253   -1.1269   -1.6889 O   0  0  0  0  0  0  0  0  0  0  0  0
    1.7009    2.9625    1.0133 O   0  0  0  0  0  0  0  0  0  0  0  0
   -1.4395   -1.4363   -1.2261 N   0  0  0  0  0  2  0  0  0  0  0  0
    1.4845    0.8220    0.3416 N   0  0  0  0  0  2  0  0  0  0  0  0
   -0.9317    0.9085   -0.3958 C   0  0  0  0  0  2  0  0  0  0  0  0
   -2.2638    0.7609   -0.8203 C   0  0  0  0  0  0  0  0  0  0  0  0
   -3.1516    1.8525   -0.7412 C   0  0  0  0  0  0  0  0  0  0  0  0
   -4.1908    1.7203   -1.0706 H   0  0  0  0  0  0  0  0  0  0  0  0
   -2.7096    3.0978   -0.2355 C   0  0  0  0  0  0  0  0  0  0  0  0
   -1.3629    3.2304    0.1936 C   0  0  0  0  0  0  0  0  0  0  0  0
   -1.0033    4.1901    0.5950 H   0  0  0  0  0  0  0  0  0  0  0  0
   -0.4776    2.1418    0.1161 C   0  0  0  0  0  0  0  0  0  0  0  0
   -2.4683   -0.6121   -1.2640 C   0  0  2  0  0  3  0  0  0  0  0  0
   -1.9080   -2.7899   -1.5413 C   0  0  2  0  0  0  0  0  0  0  0  0
   -1.2532   -3.2290   -2.3211 H   0  0  0  0  0  0  0  0  0  0  0  0
   -3.3345   -2.5052   -2.0824 C   0  0  0  0  0  0  0  0  0  0  0  0
   -3.3940   -2.5528   -3.1887 H   0  0  0  0  0  0  0  0  0  0  0  0
   -4.1175   -3.1474   -1.6370 H   0  0  0  0  0  0  0  0  0  0  0  0
   -1.8459   -3.7067   -0.2927 C   0  0  0  0  0  0  0  0  0  0  0  0
   -2.1513   -4.7257   -0.6097 H   0  0  0  0  0  0  0  0  0  0  0  0
   -0.7768   -3.7557    0.0038 H   0  0  0  0  0  0  0  0  0  0  0  0
   -2.7084   -3.2277    0.8490 C   0  0  0  0  0  0  0  0  0  0  0  0
   -3.9983   -3.7582    1.0620 C   0  0  0  0  0  0  0  0  0  0  0  0
   -4.3539   -4.5861    0.4266 H   0  0  0  0  0  0  0  0  0  0  0  0
   -4.8263   -3.2622    2.0812 C   0  0  0  0  0  0  0  0  0  0  0  0
   -5.8276   -3.6941    2.2323 H   0  0  0  0  0  0  0  0  0  0  0  0
   -4.3755   -2.2220    2.9081 C   0  0  0  0  0  0  0  0  0  0  0  0
   -5.0232   -1.8300    3.7071 H   0  0  0  0  0  0  0  0  0  0  0  0
   -3.0882   -1.6939    2.7175 C   0  0  0  0  0  0  0  0  0  0  0  0
   -2.7201   -0.8862    3.3687 H   0  0  0  0  0  0  0  0  0  0  0  0
   -2.2613   -2.1949    1.7021 C   0  0  0  0  0  0  0  0  0  0  0  0
   -1.2495   -1.7816    1.5588 H   0  0  0  0  0  0  0  0  0  0  0  0
   -3.6478    4.3159   -0.1284 C   0  0  0  0  0  0  0  0  0  0  0  0
   -5.0662    4.0018   -0.6341 C   0  0  0  0  0  0  0  0  0  0  0  0
   -5.7046    4.9030   -0.5401 H   0  0  0  0  0  0  0  0  0  0  0  0
   -5.5451    3.1924   -0.0469 H   0  0  0  0  0  0  0  0  0  0  0  0
   -5.0679    3.7030   -1.7017 H   0  0  0  0  0  0  0  0  0  0  0  0
   -3.7455    4.7538    1.3509 C   0  0  0  0  0  0  0  0  0  0  0  0
   -4.4145    5.6334    1.4508 H   0  0  0  0  0  0  0  0  0  0  0  0
   -2.7570    5.0362    1.7647 H   0  0  0  0  0  0  0  0  0  0  0  0
   -4.1536    3.9367    1.9794 H   0  0  0  0  0  0  0  0  0  0  0  0
   -3.0756    5.4756   -0.9752 C   0  0  0  0  0  0  0  0  0  0  0  0
   -3.7343    6.3659   -0.9071 H   0  0  0  0  0  0  0  0  0  0  0  0
   -2.9968    5.1856   -2.0424 H   0  0  0  0  0  0  0  0  0  0  0  0
   -2.0662    5.7789   -0.6327 H   0  0  0  0  0  0  0  0  0  0  0  0
    0.9215    2.0017    0.5041 C   0  0  0  0  0  0  0  0  0  0  0  0
    2.9729    2.3156    1.3530 C   0  0  0  0  0  0  0  0  0  0  0  0
    3.0359    2.2749    2.4589 H   0  0  0  0  0  0  0  0  0  0  0  0
    3.7931    2.9492    0.9650 H   0  0  0  0  0  0  0  0  0  0  0  0
    2.9031    0.9125    0.6930 C   0  0  2  0  0  0  0  0  0  0  0  0
    3.1485    0.1072    1.4145 H   0  0  0  0  0  0  0  0  0  0  0  0
    3.7888    0.7288   -0.5580 C   0  0  0  0  0  0  0  0  0  0  0  0
    3.4266   -0.1920   -1.0614 H   0  0  0  0  0  0  0  0  0  0  0  0
    3.6210    1.5837   -1.2462 H   0  0  0  0  0  0  0  0  0  0  0  0
    5.2478    0.5927   -0.2003 C   0  0  0  0  0  0  0  0  0  0  0  0
    5.7282   -0.6340    0.3076 C   0  0  0  0  0  0  0  0  0  0  0  0
    5.0355   -1.4889    0.3803 H   0  0  0  0  0  0  0  0  0  0  0  0
    7.0679   -0.7694    0.6974 C   0  0  0  0  0  0  0  0  0  0  0  0
    7.4288   -1.7346    1.0847 H   0  0  0  0  0  0  0  0  0  0  0  0
    7.9509    0.3182    0.5866 C   0  0  0  0  0  0  0  0  0  0  0  0
    9.0033    0.2098    0.8900 H   0  0  0  0  0  0  0  0  0  0  0  0
    7.4861    1.5405    0.0783 C   0  0  0  0  0  0  0  0  0  0  0  0
    8.1736    2.3945   -0.0213 H   0  0  0  0  0  0  0  0  0  0  0  0
    6.1435    1.6748   -0.3112 C   0  0  0  0  0  0  0  0  0  0  0  0
    5.7871    2.6325   -0.7250 H   0  0  0  0  0  0  0  0  0  0  0  0
  1 13  1  0  0  0  0
  2 47  1  0  0  0  0
  4 46  1  0  0  0  0
  4 50  1  0  0  0  0
  5 12  1  0  0  0  0
  6  7  2  0  0  0  0
  6  5  1  0  0  0  0
  7  9  1  0  0  0  0
  8  7  1  0  0  0  0
  9 33  1  0  0  0  0
  9 10  2  0  0  0  0
 10 11  1  0  0  0  0
 12 10  1  0  0  0  0
 12 46  2  0  0  0  0
 13  3  1  0  0  0  0
 13  6  1  1  0  0  0
 14 15  1  6  0  0  0
 14  3  1  0  0  0  0
 14 19  1  0  0  0  0
 16  1  1  0  0  0  0
 16 18  1  0  0  0  0
 16 14  1  0  0  0  0
 17 16  1  0  0  0  0
 19 21  1  0  0  0  0
 19 22  1  0  0  0  0
 20 19  1  0  0  0  0
 22 23  2  0  0  0  0
 22 31  1  0  0  0  0
 23 25  1  0  0  0  0
 24 23  1  0  0  0  0
 25 26  1  0  0  0  0
 25 27  2  0  0  0  0
 27 28  1  0  0  0  0
 29 27  1  0  0  0  0
 29 30  1  0  0  0  0
 31 29  2  0  0  0  0
 32 31  1  0  0  0  0
 33 38  1  0  0  0  0
 34 35  1  0  0  0  0
 34 33  1  0  0  0  0
 34 36  1  0  0  0  0
 37 34  1  0  0  0  0
 38 39  1  0  0  0  0
 38 40  1  0  0  0  0
 38 41  1  0  0  0  0
 42 43  1  0  0  0  0
 42 45  1  0  0  0  0
 42 33  1  0  0  0  0
 44 42  1  0  0  0  0
 46  2  1  0  0  0  0
 47 48  1  0  0  0  0
 49 47  1  0  0  0  0
 50 47  1  0  0  0  0
 50 51  1  1  0  0  0
 52 55  1  0  0  0  0
 52 50  1  0  0  0  0
 53 52  1  0  0  0  0
 54 52  1  0  0  0  0
 55 56  1  0  0  0  0
 56 57  1  0  0  0  0
 56 58  2  0  0  0  0
 58 59  1  0  0  0  0
 60 58  1  0  0  0  0
 60 61  1  0  0  0  0
 62 60  2  0  0  0  0
 63 62  1  0  0  0  0
 64 55  2  0  0  0  0
 64 62  1  0  0  0  0
 65 64  1  0  0  0  0
M  END
