4,5,6
q = -1.0, confidence = 0.012

 38 38  0  0  1  0  0  0  0  0999 V2000
    3.1288   -2.6550    0.0319 O   0  0  0  0  0  0  0  0  0  0  0  0
   -0.6563    4.8148   -0.8030 F   0  0  0  0  0  0  0  0  0  0  0  0
    2.8910    2.4888    1.2877 F   0  0  0  0  0  0  0  0  0  0  0  0
    0.8376   -1.1862    0.6754 N   0  0  0  0  0  0  0  0  0  0  0  0
   -1.8799   -0.4115    1.5896 N   0  0  0  0  0  0  0  0  0  0  0  0
   -0.1435    1.2209   -0.3483 C   0  0  0  0  0  3  0  0  0  0  0  0
   -0.7205    2.4461   -0.7430 C   0  0  0  0  0  0  0  0  0  0  0  0
   -0.0853    3.6531   -0.4263 C   0  0  0  0  0  0  0  0  0  0  0  0
    1.1272    3.7060    0.2745 C   0  0  0  0  0  0  0  0  0  0  0  0
    1.6961    2.4825    0.6385 C   0  0  0  0  0  0  0  0  0  0  0  0
    1.0995    1.2474    0.3495 C   0  0  0  0  0  0  0  0  0  0  0  0
    1.8088   -0.0552    0.6700 C   0  0  2  0  0  0  0  0  0  0  0  0
    0.3028   -1.5604    1.9992 C   0  0  0  0  0  0  0  0  0  0  0  0
   -0.7144   -0.5426    2.4973 C   0  0  0  0  0  0  0  0  0  0  0  0
   -2.5576    0.8709    1.8353 C   0  0  0  0  0  0  0  0  0  0  0  0
   -2.8311   -1.5299    1.7488 C   0  0  0  0  0  0  0  0  0  0  0  0
    2.9150   -0.2971   -0.3846 C   0  0  0  0  0  0  0  0  0  0  0  0
    3.6945   -1.5982   -0.2387 C   0  0  0  0  0  0  0  0  0  0  0  0
    5.1850   -1.5344   -0.4696 C   0  0  0  0  0  0  0  0  0  0  0  0
   -1.6730    2.4823   -1.2893 H   0  0  0  0  0  0  0  0  0  0  0  0
    1.6149    4.6593    0.5140 H   0  0  0  0  0  0  0  0  0  0  0  0
    2.3021    0.0116    1.6674 H   0  0  0  0  0  0  0  0  0  0  0  0
    1.1204   -1.6594    2.7495 H   0  0  0  0  0  0  0  0  0  0  0  0
   -0.1707   -2.5552    1.8810 H   0  0  0  0  0  0  0  0  0  0  0  0
   -0.2330    0.4539    2.5653 H   0  0  0  0  0  0  0  0  0  0  0  0
   -1.0532   -0.8148    3.5244 H   0  0  0  0  0  0  0  0  0  0  0  0
   -1.8543    1.7067    1.6646 H   0  0  0  0  0  0  0  0  0  0  0  0
   -2.9515    0.9228    2.8765 H   0  0  0  0  0  0  0  0  0  0  0  0
   -3.4041    0.9804    1.1326 H   0  0  0  0  0  0  0  0  0  0  0  0
   -2.3848   -2.4590    1.3484 H   0  0  0  0  0  0  0  0  0  0  0  0
   -3.7205   -1.3217    1.1260 H   0  0  0  0  0  0  0  0  0  0  0  0
   -3.1440   -1.6331    2.8133 H   0  0  0  0  0  0  0  0  0  0  0  0
    2.4396   -0.3152   -1.3901 H   0  0  0  0  0  0  0  0  0  0  0  0
    3.5981    0.5733   -0.3738 H   0  0  0  0  0  0  0  0  0  0  0  0
    5.6240   -2.5477   -0.4391 H   0  0  0  0  0  0  0  0  0  0  0  0
    5.6548   -0.8943    0.3073 H   0  0  0  0  0  0  0  0  0  0  0  0
    5.4020   -1.0496   -1.4445 H   0  0  0  0  0  0  0  0  0  0  0  0
    1.3311   -2.0146    0.2952 H   0  0  0  0  0  0  0  0  0  0  0  0
  2  8  1  0  0  0  0
  4 13  1  0  0  0  0
  5 16  1  0  0  0  0
  5 15  1  0  0  0  0
  5 14  1  0  0  0  0
  6 11  1  0  0  0  0
  7  8  1  0  0  0  0
  7  6  2  0  0  0  0
  8  9  2  0  0  0  0
  9 21  1  0  0  0  0
  9 10  1  0  0  0  0
 10  3  1  0  0  0  0
 11 10  2  0  0  0  0
 11 12  1  0  0  0  0
 12  4  1  0  0  0  0
 12 22  1  1  0  0  0
 13 14  1  0  0  0  0
 13 23  1  0  0  0  0
 14 25  1  0  0  0  0
 14 26  1  0  0  0  0
 15 28  1  0  0  0  0
 16 32  1  0  0  0  0
 17 34  1  0  0  0  0
 17 18  1  0  0  0  0
 17 12  1  0  0  0  0
 18  1  2  0  0  0  0
 19 35  1  0  0  0  0
 19 18  1  0  0  0  0
 19 36  1  0  0  0  0
 20  7  1  0  0  0  0
 24 13  1  0  0  0  0
 27 15  1  0  0  0  0
 29 15  1  0  0  0  0
 30 16  1  0  0  0  0
 31 16  1  0  0  0  0
 33 17  1  0  0  0  0
 37 19  1  0  0  0  0
 38  4  1  0  0  0  0
M  END
