4,5,6
q = -1.0, confidence = 0.0

 28 28  0  0  0  0  0  0  0  0999 V2000
   -4.3146   -2.1250    0.0037 F   0  0  0  0  0  0  0  0  0  0  0  0
   -5.2197    0.4358   -0.0316 F   0  0  0  0  0  0  0  0  0  0  0  0
   -3.4319    2.5068   -0.0352 F   0  0  0  0  0  0  0  0  0  0  0  0
    3.0637    0.1798   -0.0431 N   0  0  0  0  0  0  0  0  0  0  0  0
    0.6438    1.6104    0.0240 N   0  0  0  0  0  2  0  0  0  0  0  0
   -1.0946   -0.3792    0.0179 C   0  0  0  0  0  2  0  0  0  0  0  0
   -2.0420   -1.4181    0.0223 C   0  0  0  0  0  0  0  0  0  0  0  0
   -3.4130   -1.1312    0.0044 C   0  0  0  0  0  0  0  0  0  0  0  0
   -3.9015    0.1909   -0.0151 C   0  0  0  0  0  0  0  0  0  0  0  0
   -2.9752    1.2404   -0.0186 C   0  0  0  0  0  0  0  0  0  0  0  0
   -1.5898    0.9823   -0.0019 C   0  0  0  0  0  0  0  0  0  0  0  0
   -0.5917    2.0331    0.0030 C   0  0  0  0  0  0  0  0  0  0  0  0
    1.8547    2.3991    0.0838 C   0  0  0  0  0  0  0  0  0  0  0  0
    2.9839    1.5807   -0.5609 C   0  0  0  0  0  0  0  0  0  0  0  0
    3.8883   -0.6406   -0.9472 C   0  0  0  0  0  0  0  0  0  0  0  0
    3.6176    0.1375    1.3230 C   0  0  0  0  0  0  0  0  0  0  0  0
   -1.7368   -2.4740    0.0355 H   0  0  0  0  0  0  0  0  0  0  0  0
    2.0942    2.6193    1.1489 H   0  0  0  0  0  0  0  0  0  0  0  0
    1.7628    3.3800   -0.4345 H   0  0  0  0  0  0  0  0  0  0  0  0
    2.7850    1.5041   -1.6479 H   0  0  0  0  0  0  0  0  0  0  0  0
    3.9648    2.0955   -0.4282 H   0  0  0  0  0  0  0  0  0  0  0  0
    3.9097   -1.6817   -0.5758 H   0  0  0  0  0  0  0  0  0  0  0  0
    4.9331   -0.2542   -1.0075 H   0  0  0  0  0  0  0  0  0  0  0  0
    3.4371   -0.6428   -1.9569 H   0  0  0  0  0  0  0  0  0  0  0  0
    3.6128   -0.9082    1.6821 H   0  0  0  0  0  0  0  0  0  0  0  0
    2.9872    0.7325    2.0086 H   0  0  0  0  0  0  0  0  0  0  0  0
    4.6625    0.5299    1.3468 H   0  0  0  0  0  0  0  0  0  0  0  0
   -0.8559    3.1072   -0.0026 H   0  0  0  0  0  0  0  0  0  0  0  0
  1  8  1  0  0  0  0
  2  9  1  0  0  0  0
  3 10  1  0  0  0  0
  4 16  1  0  0  0  0
  5 13  1  0  0  0  0
  6  7  1  0  0  0  0
  7 17  1  0  0  0  0
  8  7  2  0  0  0  0
  9  8  1  0  0  0  0
 10  9  2  0  0  0  0
 10 11  1  0  0  0  0
 11 12  2  0  0  0  0
 11  6  1  0  0  0  0
 12  5  1  0  0  0  0
 13 18  1  0  0  0  0
 14 21  1  0  0  0  0
 14  4  1  0  0  0  0
 14 13  1  0  0  0  0
 15 22  1  0  0  0  0
 15  4  1  0  0  0  0
 16 27  1  0  0  0  0
 16 25  1  0  0  0  0
 16 26  1  0  0  0  0
 19 13  1  0  0  0  0
 20 14  1  0  0  0  0
 23 15  1  0  0  0  0
 24 15  1  0  0  0  0
 28 12  1  0  0  0  0
M  END
