3,4,5
q = 0.0, confidence = 0.99

 44 46  0  0  1  0  0  0  0  0999 V2000
    1.3383    1.1288    0.9303 N   0  0  0  0  0  0  0  0  0  0  0  0
   -0.3882    1.9046   -0.4173 N   0  0  0  0  0  0  0  0  0  0  0  0
    1.4999   -1.6398   -0.0830 N   0  0  0  0  0  2  0  0  0  0  0  0
   -2.3554   -0.2610    0.1018 N   0  0  0  0  0  2  0  0  0  0  0  0
    0.2386    0.8880    0.1974 C   0  0  0  0  0  2  0  0  0  0  0  0
    1.9721    2.4522    1.0444 C   0  0  0  0  0  0  0  0  0  0  0  0
    3.0719    2.3094    1.0620 H   0  0  0  0  0  0  0  0  0  0  0  0
    1.6834    2.9157    2.0140 H   0  0  0  0  0  0  0  0  0  0  0  0
    1.5880    3.3657   -0.1298 C   0  0  0  0  0  0  0  0  0  0  0  0
    0.0570    3.2983   -0.2701 C   0  0  0  0  0  0  0  0  0  0  0  0
   -0.4380    3.7638    0.6112 H   0  0  0  0  0  0  0  0  0  0  0  0
   -0.2626    3.8628   -1.1678 H   0  0  0  0  0  0  0  0  0  0  0  0
    2.2650    2.8842   -1.4262 C   0  0  0  0  0  0  0  0  0  0  0  0
    2.0038    1.8357   -1.6736 H   0  0  0  0  0  0  0  0  0  0  0  0
    3.3675    2.9449   -1.3338 H   0  0  0  0  0  0  0  0  0  0  0  0
    1.9663    3.5198   -2.2834 H   0  0  0  0  0  0  0  0  0  0  0  0
    2.0054    4.8072    0.1928 C   0  0  0  0  0  0  0  0  0  0  0  0
    1.7409    5.4883   -0.6405 H   0  0  0  0  0  0  0  0  0  0  0  0
    3.1014    4.8752    0.3425 H   0  0  0  0  0  0  0  0  0  0  0  0
    1.5108    5.1820    1.1119 H   0  0  0  0  0  0  0  0  0  0  0  0
    1.9428    0.0059    1.6619 C   0  0  0  0  0  0  0  0  0  0  0  0
    1.1960   -0.4236    2.3640 H   0  0  0  0  0  0  0  0  0  0  0  0
    2.7830    0.3956    2.2638 H   0  0  0  0  0  0  0  0  0  0  0  0
    2.4304   -1.0800    0.7312 C   0  0  1  0  0  3  0  0  0  0  0  0
    3.7635   -1.5091    0.7029 C   0  0  0  0  0  0  0  0  0  0  0  0
    4.4967   -1.0478    1.3799 H   0  0  0  0  0  0  0  0  0  0  0  0
    4.1406   -2.5294   -0.1829 C   0  0  0  0  0  0  0  0  0  0  0  0
    5.1830   -2.8790   -0.2177 H   0  0  0  0  0  0  0  0  0  0  0  0
    3.1677   -3.0934   -1.0167 C   0  0  0  0  0  0  0  0  0  0  0  0
    3.4120   -3.8984   -1.7238 H   0  0  0  0  0  0  0  0  0  0  0  0
    1.8509   -2.6272   -0.9393 C   0  0  0  0  0  0  0  0  0  0  0  0
    1.0317   -3.0586   -1.5323 H   0  0  0  0  0  0  0  0  0  0  0  0
   -1.5556    1.6043   -1.2580 C   0  0  0  0  0  0  0  0  0  0  0  0
   -1.2434    0.9564   -2.1068 H   0  0  0  0  0  0  0  0  0  0  0  0
   -1.9286    2.5542   -1.6798 H   0  0  0  0  0  0  0  0  0  0  0  0
   -2.6659    0.9149   -0.5000 C   0  0  1  0  0  3  0  0  0  0  0  0
   -3.9649    1.4357   -0.4336 C   0  0  0  0  0  0  0  0  0  0  0  0
   -4.1947    2.3862   -0.9361 H   0  0  0  0  0  0  0  0  0  0  0  0
   -4.9558    0.7317    0.2662 C   0  0  0  0  0  0  0  0  0  0  0  0
   -5.9807    1.1265    0.3271 H   0  0  0  0  0  0  0  0  0  0  0  0
   -4.6162   -0.4789    0.8820 C   0  0  0  0  0  0  0  0  0  0  0  0
   -5.3574   -1.0701    1.4376 H   0  0  0  0  0  0  0  0  0  0  0  0
   -3.3034   -0.9505    0.7786 C   0  0  0  0  0  0  0  0  0  0  0  0
   -2.9829   -1.9133    1.2017 H   0  0  0  0  0  0  0  0  0  0  0  0
  1  6  1  0  0  0  0
  1 21  1  0  0  0  0
  2 10  1  0  0  0  0
  2  5  1  0  0  0  0
  3 24  1  0  0  0  0
  4 43  1  0  0  0  0
  5  1  1  0  0  0  0
  6  7  1  0  0  0  0
  6  8  1  0  0  0  0
  9 17  1  0  0  0  0
  9  6  1  0  0  0  0
 10  9  1  0  0  0  0
 10 11  1  0  0  0  0
 12 10  1  0  0  0  0
 13 15  1  0  0  0  0
 13  9  1  0  0  0  0
 14 13  1  0  0  0  0
 16 13  1  0  0  0  0
 17 19  1  0  0  0  0
 17 20  1  0  0  0  0
 18 17  1  0  0  0  0
 21 23  1  0  0  0  0
 21 22  1  0  0  0  0
 24 21  1  1  0  0  0
 25 24  1  0  0  0  0
 25 26  1  0  0  0  0
 27 25  2  0  0  0  0
 28 27  1  0  0  0  0
 29 31  2  0  0  0  0
 29 27  1  0  0  0  0
 30 29  1  0  0  0  0
 31  3  1  0  0  0  0
 32 31  1  0  0  0  0
 33  2  1  0  0  0  0
 34 33  1  0  0  0  0
 35 33  1  0  0  0  0
 36 33  1  6  0  0  0
 36 37  1  0  0  0  0
 36  4  1  0  0  0  0
 37 39  2  0  0  0  0
 38 37  1  0  0  0  0
 39 40  1  0  0  0  0
 39 41  1  0  0  0  0
 41 42  1  0  0  0  0
 43 41  2  0  0  0  0
 43 44  1  0  0  0  0
M  END
