1,3,33
q = -1.0

 54 56  0  0  1  0  0  0  0  0999 V2000
   -0.3167    0.1121    1.7104 N   0  0  0  0  0  2  0  0  0  0  0  0
    0.9380    0.4183    1.3078 N   0  0  0  0  0  0  0  0  0  0  0  0
   -0.9219    1.5596   -0.6931 N   0  0  0  0  0  2  0  0  0  0  0  0
    0.4250    1.6727   -0.6506 N   0  0  0  0  0  0  0  0  0  0  0  0
    1.7709    0.6550    2.3767 C   0  0  2  0  0  3  0  0  0  0  0  0
    0.9943    0.4425    3.5158 C   0  0  0  0  0  0  0  0  0  0  0  0
    1.3305    0.5298    4.5543 H   0  0  0  0  0  0  0  0  0  0  0  0
   -0.3071    0.1084    3.0520 C   0  0  0  0  0  0  0  0  0  0  0  0
    3.1975    1.0734    2.2380 C   0  0  0  0  0  0  0  0  0  0  0  0
    3.6392    1.2219    3.2402 H   0  0  0  0  0  0  0  0  0  0  0  0
    3.2990    2.0306    1.6839 H   0  0  0  0  0  0  0  0  0  0  0  0
    3.8121    0.3150    1.7097 H   0  0  0  0  0  0  0  0  0  0  0  0
   -1.5432   -0.2261    3.8226 C   0  0  0  0  0  0  0  0  0  0  0  0
   -2.4144   -0.2763    3.1422 H   0  0  0  0  0  0  0  0  0  0  0  0
   -1.7439    0.5291    4.6084 H   0  0  0  0  0  0  0  0  0  0  0  0
   -1.4440   -1.2100    4.3262 H   0  0  0  0  0  0  0  0  0  0  0  0
    0.8620    2.8196   -1.2650 C   0  0  2  0  0  3  0  0  0  0  0  0
   -0.2890    3.4713   -1.7116 C   0  0  0  0  0  0  0  0  0  0  0  0
   -0.3275    4.4279   -2.2433 H   0  0  0  0  0  0  0  0  0  0  0  0
   -1.3831    2.6486   -1.3307 C   0  0  0  0  0  0  0  0  0  0  0  0
    2.3049    3.1868   -1.3823 C   0  0  0  0  0  0  0  0  0  0  0  0
    2.4023    4.1514   -1.9128 H   0  0  0  0  0  0  0  0  0  0  0  0
    2.8854    2.4301   -1.9508 H   0  0  0  0  0  0  0  0  0  0  0  0
    2.7896    3.3015   -0.3897 H   0  0  0  0  0  0  0  0  0  0  0  0
   -2.8490    2.8479   -1.5442 C   0  0  0  0  0  0  0  0  0  0  0  0
   -3.4163    2.0116   -1.0941 H   0  0  0  0  0  0  0  0  0  0  0  0
   -3.0917    2.8944   -2.6254 H   0  0  0  0  0  0  0  0  0  0  0  0
   -3.1963    3.7967   -1.0871 H   0  0  0  0  0  0  0  0  0  0  0  0
    1.2190    0.5694   -0.1142 C   0  0  2  0  0  0  0  0  0  0  0  0
    2.2682    0.9021   -0.1774 H   0  0  0  0  0  0  0  0  0  0  0  0
    1.0450   -0.7038   -1.0081 C   0  0  2  0  0  0  0  0  0  0  0  0
    1.0147   -0.2508   -2.0231 H   0  0  0  0  0  0  0  0  0  0  0  0
   -0.2700   -1.4554   -0.8747 C   0  0  2  0  0  3  0  0  0  0  0  0
   -0.6257   -2.4892    0.0935 C   0  0  0  0  0  0  0  0  0  0  0  0
   -0.1949   -2.6086    1.0956 H   0  0  0  0  0  0  0  0  0  0  0  0
   -1.6455   -3.2825   -0.4638 C   0  0  0  0  0  0  0  0  0  0  0  0
   -2.1694   -4.0985    0.0529 H   0  0  0  0  0  0  0  0  0  0  0  0
   -1.9441   -2.7967   -1.7689 C   0  0  0  0  0  0  0  0  0  0  0  0
   -2.7286   -3.1836   -2.4333 H   0  0  0  0  0  0  0  0  0  0  0  0
   -1.1147   -1.6950   -2.0305 C   0  0  0  0  0  0  0  0  0  0  0  0
   -1.0668   -1.1110   -2.9614 H   0  0  0  0  0  0  0  0  0  0  0  0
    2.3274   -1.6191   -1.0480 C   0  0  0  0  0  0  0  0  0  0  0  0
    3.5504   -0.8009   -1.5146 C   0  0  0  0  0  0  0  0  0  0  0  0
    4.4111   -1.4729   -1.7067 H   0  0  0  0  0  0  0  0  0  0  0  0
    3.8974   -0.0620   -0.7608 H   0  0  0  0  0  0  0  0  0  0  0  0
    3.3382   -0.2553   -2.4586 H   0  0  0  0  0  0  0  0  0  0  0  0
    2.6499   -2.2805    0.3035 C   0  0  0  0  0  0  0  0  0  0  0  0
    3.5749   -2.8872    0.2165 H   0  0  0  0  0  0  0  0  0  0  0  0
    1.8310   -2.9536    0.6167 H   0  0  0  0  0  0  0  0  0  0  0  0
    2.8118   -1.5424    1.1136 H   0  0  0  0  0  0  0  0  0  0  0  0
    2.0620   -2.7258   -2.0867 C   0  0  0  0  0  0  0  0  0  0  0  0
    1.8496   -2.2954   -3.0867 H   0  0  0  0  0  0  0  0  0  0  0  0
    1.1886   -3.3410   -1.7951 H   0  0  0  0  0  0  0  0  0  0  0  0
    2.9487   -3.3866   -2.1772 H   0  0  0  0  0  0  0  0  0  0  0  0
  1  8  1  0  0  0  0
  2  1  1  0  0  0  0
  2  5  1  0  0  0  0
  3  4  1  0  0  0  0
  4 29  1  0  0  0  0
  5  9  1  6  0  0  0
  5  6  1  0  0  0  0
  6  7  1  0  0  0  0
  8  6  2  0  0  0  0
  8 13  1  0  0  0  0
  9 10  1  0  0  0  0
 11  9  1  0  0  0  0
 12  9  1  0  0  0  0
 13 16  1  0  0  0  0
 13 15  1  0  0  0  0
 14 13  1  0  0  0  0
 17 21  1  6  0  0  0
 17  4  1  0  0  0  0
 18 20  2  0  0  0  0
 18 17  1  0  0  0  0
 19 18  1  0  0  0  0
 20  3  1  0  0  0  0
 21 24  1  0  0  0  0
 22 21  1  0  0  0  0
 23 21  1  0  0  0  0
 25 20  1  0  0  0  0
 25 26  1  0  0  0  0
 25 28  1  0  0  0  0
 27 25  1  0  0  0  0
 29 30  1  6  0  0  0
 29  2  1  0  0  0  0
 31 32  1  6  0  0  0
 31 29  1  0  0  0  0
 33 31  1  6  0  0  0
 33 34  1  0  0  0  0
 34 35  1  0  0  0  0
 36 37  1  0  0  0  0
 36 34  2  0  0  0  0
 38 36  1  0  0  0  0
 39 38  1  0  0  0  0
 40 38  2  0  0  0  0
 40 33  1  0  0  0  0
 41 40  1  0  0  0  0
 42 31  1  0  0  0  0
 42 47  1  0  0  0  0
 43 42  1  0  0  0  0
 43 45  1  0  0  0  0
 44 43  1  0  0  0  0
 46 43  1  0  0  0  0
 47 49  1  0  0  0  0
 47 50  1  0  0  0  0
 48 47  1  0  0  0  0
 51 53  1  0  0  0  0
 51 42  1  0  0  0  0
 52 51  1  0  0  0  0
 54 51  1  0  0  0  0
M  END
