1,2,13
q = -1.0

 38 41  0  0  0  0  0  0  0  0999 V2000
   -0.7548    1.1735   -0.0238 N   0  0  0  0  0  2  0  0  0  0  0  0
    1.7205    0.1814   -0.7554 N   0  0  0  0  0  0  0  0  0  0  0  0
   -2.0195    1.5262    0.3279 C   0  0  0  0  0  0  0  0  0  0  0  0
   -2.3148    2.9039    0.5319 C   0  0  0  0  0  0  0  0  0  0  0  0
   -1.3311    3.8655    0.3637 C   0  0  0  0  0  0  0  0  0  0  0  0
   -0.0051    3.4880   -0.0181 C   0  0  0  0  0  0  0  0  0  0  0  0
    1.0709    4.3929   -0.2244 C   0  0  0  0  0  0  0  0  0  0  0  0
    2.3272    3.9244   -0.5981 C   0  0  0  0  0  0  0  0  0  0  0  0
    2.5630    2.5379   -0.7774 C   0  0  0  0  0  0  0  0  0  0  0  0
    1.5340    1.6203   -0.5877 C   0  0  0  0  0  0  0  0  0  0  0  0
    0.2449    2.0902   -0.2051 C   0  0  0  0  0  0  0  0  0  0  0  0
   -2.9078    0.3745    0.4255 C   0  0  0  0  0  0  0  0  0  0  0  0
   -2.2912   -0.8924    0.1185 C   0  0  0  0  0  2  0  0  0  0  0  0
   -3.0824   -2.0538    0.1765 C   0  0  0  0  0  0  0  0  0  0  0  0
   -4.4386   -1.9688    0.5314 C   0  0  0  0  0  0  0  0  0  0  0  0
   -5.0370   -0.7292    0.8328 C   0  0  0  0  0  0  0  0  0  0  0  0
   -4.2732    0.4405    0.7791 C   0  0  0  0  0  0  0  0  0  0  0  0
    2.7531   -0.4456    0.0314 C   0  0  0  0  0  0  0  0  0  0  0  0
    3.0467    0.0122    1.3283 C   0  0  0  0  0  0  0  0  0  0  0  0
    4.0135   -0.6533    2.0945 C   0  0  0  0  0  0  0  0  0  0  0  0
    4.6849   -1.7739    1.5808 C   0  0  0  0  0  0  0  0  0  0  0  0
    4.3755   -2.2323    0.2906 C   0  0  0  0  0  0  0  0  0  0  0  0
    3.4123   -1.5751   -0.4856 C   0  0  0  0  0  0  0  0  0  0  0  0
   -3.3350    3.1933    0.8194 H   0  0  0  0  0  0  0  0  0  0  0  0
   -1.5601    4.9306    0.5183 H   0  0  0  0  0  0  0  0  0  0  0  0
    0.8955    5.4704   -0.0843 H   0  0  0  0  0  0  0  0  0  0  0  0
    3.1528    4.6336   -0.7561 H   0  0  0  0  0  0  0  0  0  0  0  0
    3.5641    2.1760   -1.0550 H   0  0  0  0  0  0  0  0  0  0  0  0
   -2.6209   -3.0240   -0.0579 H   0  0  0  0  0  0  0  0  0  0  0  0
   -5.0438   -2.8883    0.5752 H   0  0  0  0  0  0  0  0  0  0  0  0
   -6.1007   -0.6808    1.1091 H   0  0  0  0  0  0  0  0  0  0  0  0
   -4.7388    1.4110    1.0129 H   0  0  0  0  0  0  0  0  0  0  0  0
    1.8564   -0.0478   -1.7493 H   0  0  0  0  0  0  0  0  0  0  0  0
    2.5140    0.8824    1.7375 H   0  0  0  0  0  0  0  0  0  0  0  0
    4.2387   -0.2913    3.1091 H   0  0  0  0  0  0  0  0  0  0  0  0
    5.4413   -2.2933    2.1873 H   0  0  0  0  0  0  0  0  0  0  0  0
    4.8834   -3.1183   -0.1189 H   0  0  0  0  0  0  0  0  0  0  0  0
    3.1422   -1.9565   -1.4815 H   0  0  0  0  0  0  0  0  0  0  0  0
  1  3  1  0  0  0  0
  2 10  1  0  0  0  0
  2 18  1  0  0  0  0
  3 12  2  0  0  0  0
  3  4  1  0  0  0  0
  4 24  1  0  0  0  0
  5 25  1  0  0  0  0
  5  4  2  0  0  0  0
  6  5  1  0  0  0  0
  7 26  1  0  0  0  0
  7  6  2  0  0  0  0
  8  7  1  0  0  0  0
  9  8  2  0  0  0  0
  9 10  1  0  0  0  0
 10 11  2  0  0  0  0
 11  1  1  0  0  0  0
 11  6  1  0  0  0  0
 12 17  1  0  0  0  0
 13 14  1  0  0  0  0
 13 12  1  0  0  0  0
 14 15  2  0  0  0  0
 15 30  1  0  0  0  0
 15 16  1  0  0  0  0
 16 31  1  0  0  0  0
 17 16  2  0  0  0  0
 17 32  1  0  0  0  0
 18 19  1  0  0  0  0
 19 34  1  0  0  0  0
 19 20  2  0  0  0  0
 20 35  1  0  0  0  0
 21 20  1  0  0  0  0
 21 36  1  0  0  0  0
 22 21  2  0  0  0  0
 23 18  2  0  0  0  0
 23 22  1  0  0  0  0
 27  8  1  0  0  0  0
 28  9  1  0  0  0  0
 29 14  1  0  0  0  0
 33  2  1  0  0  0  0
 37 22  1  0  0  0  0
 38 23  1  0  0  0  0
M  END
