1,25,26
q = -1.0

 59 60  0  0  1  0  0  0  0  0999 V2000
    1.0910   -1.4700    0.4563 C   0  0  0  0  0  2  0  0  0  0  0  0
    0.7291   -1.3558    1.7700 C   0  0  2  0  0  3  0  0  0  0  0  0
   -0.4297   -0.3656    2.0114 C   0  0  2  0  0  0  0  0  0  0  0  0
    0.2696    0.9840    1.8166 C   0  0  1  0  0  3  0  0  0  0  0  0
    2.3141   -2.1765    0.0118 C   0  0  0  0  0  0  0  0  0  0  0  0
    3.2700   -4.1770   -0.7410 C   0  0  0  0  0  0  0  0  0  0  0  0
    1.5529   -1.7833    2.9221 C   0  0  0  0  0  0  0  0  0  0  0  0
    3.2618   -3.2315    3.6521 C   0  0  0  0  0  0  0  0  0  0  0  0
   -1.2103   -0.5409    3.3102 C   0  0  0  0  0  0  0  0  0  0  0  0
    0.6518    1.8163    2.9932 C   0  0  0  0  0  0  0  0  0  0  0  0
   -2.5992    0.0568    0.7839 C   0  0  0  0  0  0  0  0  0  0  0  0
   -2.7752    1.4349    0.9862 C   0  0  0  0  0  0  0  0  0  0  0  0
   -4.0523    2.0127    0.9258 C   0  0  0  0  0  0  0  0  0  0  0  0
   -5.1783    1.2096    0.6484 C   0  0  0  0  0  0  0  0  0  0  0  0
   -5.0001   -0.1753    0.4424 C   0  0  0  0  0  0  0  0  0  0  0  0
   -3.7281   -0.7444    0.5145 C   0  0  0  0  0  0  0  0  0  0  0  0
   -6.6817    3.0565    0.7410 C   0  0  0  0  0  0  0  0  0  0  0  0
    1.4228    2.3035    0.1810 C   0  0  0  0  0  0  0  0  0  0  0  0
    2.7835    2.0800   -0.0918 C   0  0  0  0  0  0  0  0  0  0  0  0
    3.5997    3.1364   -0.5200 C   0  0  0  0  0  0  0  0  0  0  0  0
    3.0547    4.4266   -0.6941 C   0  0  0  0  0  0  0  0  0  0  0  0
    1.6838    4.6416   -0.4326 C   0  0  0  0  0  0  0  0  0  0  0  0
    0.8747    3.5885   -0.0002 C   0  0  0  0  0  0  0  0  0  0  0  0
    5.1332    5.3464   -1.4119 C   0  0  0  0  0  0  0  0  0  0  0  0
   -1.3023   -0.5748    0.8008 N   0  0  0  0  0  0  0  0  0  0  0  0
    0.6116    1.2043    0.5816 N   0  0  0  0  0  2  0  0  0  0  0  0
    2.1401   -3.4946   -0.1924 O   0  0  0  0  0  0  0  0  0  0  0  0
    3.3686   -1.5870   -0.1947 O   0  0  0  0  0  0  0  0  0  0  0  0
    2.3246   -2.8599    2.6389 O   0  0  0  0  0  0  0  0  0  0  0  0
    1.5982   -1.2140    4.0105 O   0  0  0  0  0  0  0  0  0  0  0  0
   -6.4545    1.6719    0.5613 O   0  0  0  0  0  0  0  0  0  0  0  0
    3.7601    5.5125   -1.1117 O   0  0  0  0  0  0  0  0  0  0  0  0
   -1.9101    2.0817    1.1844 H   0  0  0  0  0  0  0  0  0  0  0  0
   -4.1543    3.0936    1.0881 H   0  0  0  0  0  0  0  0  0  0  0  0
   -5.8854   -0.7901    0.2258 H   0  0  0  0  0  0  0  0  0  0  0  0
   -3.5787   -1.8188    0.3292 H   0  0  0  0  0  0  0  0  0  0  0  0
    3.1945    1.0642    0.0206 H   0  0  0  0  0  0  0  0  0  0  0  0
    4.6594    2.9361   -0.7254 H   0  0  0  0  0  0  0  0  0  0  0  0
    1.2746    5.6504   -0.5852 H   0  0  0  0  0  0  0  0  0  0  0  0
   -0.1972    3.7539    0.1850 H   0  0  0  0  0  0  0  0  0  0  0  0
    3.5746   -3.7185   -1.7037 H   0  0  0  0  0  0  0  0  0  0  0  0
    4.1338   -4.1371   -0.0462 H   0  0  0  0  0  0  0  0  0  0  0  0
    2.9498   -5.2230   -0.8952 H   0  0  0  0  0  0  0  0  0  0  0  0
    3.9833   -2.4112    3.8437 H   0  0  0  0  0  0  0  0  0  0  0  0
    2.7443   -3.4678    4.6035 H   0  0  0  0  0  0  0  0  0  0  0  0
    3.7879   -4.1229    3.2666 H   0  0  0  0  0  0  0  0  0  0  0  0
   -1.6774   -1.5452    3.3213 H   0  0  0  0  0  0  0  0  0  0  0  0
   -0.5378   -0.4684    4.1814 H   0  0  0  0  0  0  0  0  0  0  0  0
   -2.0163    0.2128    3.3927 H   0  0  0  0  0  0  0  0  0  0  0  0
   -0.2517    2.1729    3.5297 H   0  0  0  0  0  0  0  0  0  0  0  0
    1.2093    1.1699    3.7042 H   0  0  0  0  0  0  0  0  0  0  0  0
    1.2722    2.6823    2.7011 H   0  0  0  0  0  0  0  0  0  0  0  0
   -6.3764    3.3999    1.7554 H   0  0  0  0  0  0  0  0  0  0  0  0
   -6.1435    3.6676   -0.0183 H   0  0  0  0  0  0  0  0  0  0  0  0
   -7.7697    3.2139    0.6224 H   0  0  0  0  0  0  0  0  0  0  0  0
    5.7158    5.0140   -0.5232 H   0  0  0  0  0  0  0  0  0  0  0  0
    5.2925    4.6144   -2.2352 H   0  0  0  0  0  0  0  0  0  0  0  0
    5.5050    6.3365   -1.7345 H   0  0  0  0  0  0  0  0  0  0  0  0
   -1.4447   -1.6050    0.6462 H   0  0  0  0  0  0  0  0  0  0  0  0
  2  1  1  6  0  0  0
  2  3  1  0  0  0  0
  2  7  1  0  0  0  0
  3 25  1  6  0  0  0
  3  9  1  0  0  0  0
  4 26  1  1  0  0  0
  4  3  1  0  0  0  0
  4 10  1  0  0  0  0
  5  1  1  0  0  0  0
  6 27  1  0  0  0  0
  6 42  1  0  0  0  0
  7 30  2  0  0  0  0
  8 44  1  0  0  0  0
  8 45  1  0  0  0  0
  9 47  1  0  0  0  0
  9 49  1  0  0  0  0
  9 48  1  0  0  0  0
 10 50  1  0  0  0  0
 10 51  1  0  0  0  0
 11 25  1  0  0  0  0
 11 12  1  0  0  0  0
 12 33  1  0  0  0  0
 13 12  2  0  0  0  0
 13 34  1  0  0  0  0
 14 13  1  0  0  0  0
 15 16  1  0  0  0  0
 15 14  2  0  0  0  0
 16 11  2  0  0  0  0
 17 53  1  0  0  0  0
 18 26  1  0  0  0  0
 19 37  1  0  0  0  0
 19 18  2  0  0  0  0
 20 19  1  0  0  0  0
 21 20  2  0  0  0  0
 21 22  1  0  0  0  0
 22 23  2  0  0  0  0
 23 18  1  0  0  0  0
 23 40  1  0  0  0  0
 24 32  1  0  0  0  0
 24 56  1  0  0  0  0
 27  5  1  0  0  0  0
 28  5  2  0  0  0  0
 29  7  1  0  0  0  0
 29  8  1  0  0  0  0
 31 14  1  0  0  0  0
 31 17  1  0  0  0  0
 32 21  1  0  0  0  0
 35 15  1  0  0  0  0
 36 16  1  0  0  0  0
 38 20  1  0  0  0  0
 39 22  1  0  0  0  0
 41  6  1  0  0  0  0
 43  6  1  0  0  0  0
 46  8  1  0  0  0  0
 52 10  1  0  0  0  0
 54 17  1  0  0  0  0
 55 17  1  0  0  0  0
 57 24  1  0  0  0  0
 58 24  1  0  0  0  0
 59 25  1  0  0  0  0
M  END
