1,3,22
q = -1.0

 81 87  0  0  1  0  0  0  0  0999 V2000
    2.0067   -0.5619    0.2443 N   0  0  0  0  0  2  0  0  0  0  0  0
    3.6415    0.9880    0.3088 N   0  0  1  0  0  0  0  0  0  0  0  0
   -1.9229   -0.8120   -0.2514 N   0  0  0  0  0  2  0  0  0  0  0  0
   -3.6678    0.5047   -0.7874 N   0  0  0  0  0  0  0  0  0  0  0  0
    4.4462   -3.1170   -1.0288 C   0  0  0  0  0  0  0  0  0  0  0  0
    4.7961   -3.5394   -0.0730 H   0  0  0  0  0  0  0  0  0  0  0  0
    4.8414   -3.7055   -2.2383 C   0  0  0  0  0  0  0  0  0  0  0  0
    5.5037   -4.5847   -2.2291 H   0  0  0  0  0  0  0  0  0  0  0  0
    4.3787   -3.1837   -3.4571 C   0  0  0  0  0  0  0  0  0  0  0  0
    4.6808   -3.6487   -4.4079 H   0  0  0  0  0  0  0  0  0  0  0  0
    3.5166   -2.0765   -3.4546 C   0  0  0  0  0  0  0  0  0  0  0  0
    3.1365   -1.6719   -4.4052 H   0  0  0  0  0  0  0  0  0  0  0  0
    3.1231   -1.4875   -2.2434 C   0  0  0  0  0  0  0  0  0  0  0  0
    2.4229   -0.6392   -2.2440 H   0  0  0  0  0  0  0  0  0  0  0  0
    3.5906   -1.9995   -1.0201 C   0  0  0  0  0  0  0  0  0  0  0  0
    3.2432   -1.3422    0.3100 C   0  0  1  0  0  0  0  0  0  0  0  0
    3.1384   -2.1362    1.0749 H   0  0  0  0  0  0  0  0  0  0  0  0
    4.2843   -0.2665    0.7327 C   0  0  0  0  0  0  0  0  0  0  0  0
    4.4461   -0.2670    1.8358 H   0  0  0  0  0  0  0  0  0  0  0  0
    5.2581   -0.4167    0.2304 H   0  0  0  0  0  0  0  0  0  0  0  0
    2.2978    0.7445    0.1882 C   0  0  1  0  0  3  0  0  0  0  0  0
   -0.0405    0.8768   -0.1423 C   0  0  0  0  0  2  0  0  0  0  0  0
    1.1549    1.6457   -0.0176 C   0  0  0  0  0  0  0  0  0  0  0  0
    1.0584    3.0519   -0.0979 C   0  0  0  0  0  0  0  0  0  0  0  0
    1.9390    3.7009    0.0060 H   0  0  0  0  0  0  0  0  0  0  0  0
   -0.1974    3.6533   -0.3039 C   0  0  0  0  0  0  0  0  0  0  0  0
   -0.2623    4.7502   -0.3492 H   0  0  0  0  0  0  0  0  0  0  0  0
   -1.3739    2.8929   -0.4512 C   0  0  0  0  0  0  0  0  0  0  0  0
   -2.3258    3.4237   -0.5946 H   0  0  0  0  0  0  0  0  0  0  0  0
   -1.3071    1.4851   -0.3862 C   0  0  0  0  0  0  0  0  0  0  0  0
   -2.3363    0.4404   -0.4851 C   0  0  0  0  0  0  0  0  0  0  0  0
   -4.1924   -0.8681   -0.8734 C   0  0  0  0  0  0  0  0  0  0  0  0
   -4.3053   -1.1695   -1.9381 H   0  0  0  0  0  0  0  0  0  0  0  0
   -5.1806   -0.9623   -0.3819 H   0  0  0  0  0  0  0  0  0  0  0  0
   -3.1018   -1.7016   -0.1618 C   0  0  2  0  0  0  0  0  0  0  0  0
   -2.8778   -2.6413   -0.7016 H   0  0  0  0  0  0  0  0  0  0  0  0
   -3.3876   -2.0252    1.3021 C   0  0  0  0  0  0  0  0  0  0  0  0
   -2.7260   -3.1139    1.9033 C   0  0  0  0  0  0  0  0  0  0  0  0
   -2.0046   -3.6996    1.3095 H   0  0  0  0  0  0  0  0  0  0  0  0
   -2.9341   -3.4080    3.2587 C   0  0  0  0  0  0  0  0  0  0  0  0
   -2.4075   -4.2606    3.7141 H   0  0  0  0  0  0  0  0  0  0  0  0
   -3.7982   -2.6178    4.0331 C   0  0  0  0  0  0  0  0  0  0  0  0
   -3.9608   -2.8512    5.0966 H   0  0  0  0  0  0  0  0  0  0  0  0
   -4.4480   -1.5217    3.4451 C   0  0  0  0  0  0  0  0  0  0  0  0
   -5.1196   -0.8890    4.0457 H   0  0  0  0  0  0  0  0  0  0  0  0
   -4.2419   -1.2266    2.0887 C   0  0  0  0  0  0  0  0  0  0  0  0
   -4.7489   -0.3539    1.6498 H   0  0  0  0  0  0  0  0  0  0  0  0
    4.2415    2.2948    0.5596 C   0  0  0  0  0  0  0  0  0  0  0  0
    3.7408    3.0042   -0.1326 H   0  0  0  0  0  0  0  0  0  0  0  0
    5.7333    2.3144    0.1941 C   0  0  0  0  0  0  0  0  0  0  0  0
    5.8637    1.9620   -0.8502 H   0  0  0  0  0  0  0  0  0  0  0  0
    6.2834    1.6018    0.8472 H   0  0  0  0  0  0  0  0  0  0  0  0
    6.3217    3.7190    0.3843 C   0  0  0  0  0  0  0  0  0  0  0  0
    7.4025    3.7123    0.1332 H   0  0  0  0  0  0  0  0  0  0  0  0
    5.8397    4.4181   -0.3355 H   0  0  0  0  0  0  0  0  0  0  0  0
    6.1025    4.2324    1.8137 C   0  0  0  0  0  0  0  0  0  0  0  0
    6.6806    3.5966    2.5216 H   0  0  0  0  0  0  0  0  0  0  0  0
    6.5034    5.2617    1.9205 H   0  0  0  0  0  0  0  0  0  0  0  0
    4.6183    4.1922    2.2000 C   0  0  0  0  0  0  0  0  0  0  0  0
    4.0568    4.9179    1.5683 H   0  0  0  0  0  0  0  0  0  0  0  0
    4.4766    4.5237    3.2494 H   0  0  0  0  0  0  0  0  0  0  0  0
    4.0216    2.7931    2.0022 C   0  0  0  0  0  0  0  0  0  0  0  0
    4.5012    2.0768    2.7057 H   0  0  0  0  0  0  0  0  0  0  0  0
    2.9363    2.7899    2.2337 H   0  0  0  0  0  0  0  0  0  0  0  0
   -4.4311    1.6864   -1.1679 C   0  0  0  0  0  0  0  0  0  0  0  0
   -3.6975    2.4390   -1.5225 H   0  0  0  0  0  0  0  0  0  0  0  0
   -5.3783    1.4150   -2.3490 C   0  0  0  0  0  0  0  0  0  0  0  0
   -4.8017    1.0104   -3.2067 H   0  0  0  0  0  0  0  0  0  0  0  0
   -6.1173    0.6360   -2.0598 H   0  0  0  0  0  0  0  0  0  0  0  0
   -6.1291    2.6919   -2.7513 C   0  0  0  0  0  0  0  0  0  0  0  0
   -6.8213    2.4727   -3.5903 H   0  0  0  0  0  0  0  0  0  0  0  0
   -5.3993    3.4385   -3.1377 H   0  0  0  0  0  0  0  0  0  0  0  0
   -6.8918    3.2969   -1.5655 C   0  0  0  0  0  0  0  0  0  0  0  0
   -7.4014    4.2340   -1.8718 H   0  0  0  0  0  0  0  0  0  0  0  0
   -7.6947    2.5928   -1.2507 H   0  0  0  0  0  0  0  0  0  0  0  0
   -5.9573    3.5579   -0.3774 C   0  0  0  0  0  0  0  0  0  0  0  0
   -6.5245    3.9564    0.4890 H   0  0  0  0  0  0  0  0  0  0  0  0
   -5.2236    4.3480   -0.6567 H   0  0  0  0  0  0  0  0  0  0  0  0
   -5.1959    2.2894    0.0267 C   0  0  0  0  0  0  0  0  0  0  0  0
   -4.4801    2.4957    0.8492 H   0  0  0  0  0  0  0  0  0  0  0  0
   -5.9106    1.5270    0.4103 H   0  0  0  0  0  0  0  0  0  0  0  0
  1 16  1  0  0  0  0
  2 48  1  1  0  0  0
  2 18  1  0  0  0  0
  3 35  1  0  0  0  0
  4 31  1  0  0  0  0
  5 15  1  0  0  0  0
  5  6  1  0  0  0  0
  7  8  1  0  0  0  0
  7  5  2  0  0  0  0
  9 11  2  0  0  0  0
  9  7  1  0  0  0  0
 10  9  1  0  0  0  0
 11 13  1  0  0  0  0
 12 11  1  0  0  0  0
 13 15  2  0  0  0  0
 14 13  1  0  0  0  0
 15 16  1  0  0  0  0
 16 18  1  0  0  0  0
 16 17  1  1  0  0  0
 18 19  1  0  0  0  0
 20 18  1  0  0  0  0
 21 23  1  6  0  0  0
 21  1  1  0  0  0  0
 21  2  1  0  0  0  0
 22 23  1  0  0  0  0
 24 23  2  0  0  0  0
 24 25  1  0  0  0  0
 26 24  1  0  0  0  0
 27 26  1  0  0  0  0
 28 30  1  0  0  0  0
 28 26  2  0  0  0  0
 29 28  1  0  0  0  0
 30 22  1  0  0  0  0
 31 30  2  0  0  0  0
 31  3  1  0  0  0  0
 32  4  1  0  0  0  0
 32 34  1  0  0  0  0
 32 35  1  0  0  0  0
 33 32  1  0  0  0  0
 35 36  1  6  0  0  0
 35 37  1  0  0  0  0
 37 38  2  0  0  0  0
 37 46  1  0  0  0  0
 38 40  1  0  0  0  0
 39 38  1  0  0  0  0
 40 41  1  0  0  0  0
 40 42  2  0  0  0  0
 42 43  1  0  0  0  0
 44 42  1  0  0  0  0
 44 45  1  0  0  0  0
 46 44  2  0  0  0  0
 47 46  1  0  0  0  0
 48 62  1  0  0  0  0
 49 48  1  0  0  0  0
 50 53  1  0  0  0  0
 50 48  1  0  0  0  0
 50 52  1  0  0  0  0
 51 50  1  0  0  0  0
 53 56  1  0  0  0  0
 54 53  1  0  0  0  0
 55 53  1  0  0  0  0
 56 58  1  0  0  0  0
 56 59  1  0  0  0  0
 56 57  1  0  0  0  0
 59 61  1  0  0  0  0
 60 59  1  0  0  0  0
 62 59  1  0  0  0  0
 62 64  1  0  0  0  0
 62 63  1  0  0  0  0
 65  4  1  0  0  0  0
 65 79  1  0  0  0  0
 66 65  1  0  0  0  0
 67 69  1  0  0  0  0
 67 65  1  0  0  0  0
 68 67  1  0  0  0  0
 70 67  1  0  0  0  0
 70 73  1  0  0  0  0
 71 70  1  0  0  0  0
 72 70  1  0  0  0  0
 73 75  1  0  0  0  0
 73 76  1  0  0  0  0
 74 73  1  0  0  0  0
 76 79  1  0  0  0  0
 76 77  1  0  0  0  0
 78 76  1  0  0  0  0
 79 81  1  0  0  0  0
 79 80  1  0  0  0  0
M  END
