1,2,21
q = -2.0, confidence = 0.86

 58 60  0  0  1  0  0  0  0  0999 V2000
    1.0447    0.3709   -0.5396 N   0  0  0  0  0  2  0  0  0  0  0  0
   -1.4195    1.0398   -0.7243 N   0  0  0  0  0  2  0  0  0  0  0  0
    0.8348    1.4904   -1.4809 C   0  0  0  0  0  0  0  0  0  0  0  0
   -0.6054    1.9706   -1.2659 C   0  0  1  0  0  3  0  0  0  0  0  0
   -1.0987    3.2306   -1.6402 C   0  0  0  0  0  0  0  0  0  0  0  0
   -0.4301    3.9805   -2.0832 H   0  0  0  0  0  0  0  0  0  0  0  0
   -2.4553    3.5117   -1.4193 C   0  0  0  0  0  0  0  0  0  0  0  0
   -2.8640    4.5000   -1.6806 H   0  0  0  0  0  0  0  0  0  0  0  0
   -3.2889    2.5346   -0.8643 C   0  0  0  0  0  0  0  0  0  0  0  0
   -4.3532    2.7412   -0.6908 H   0  0  0  0  0  0  0  0  0  0  0  0
   -2.7465    1.2780   -0.5285 C   0  0  0  0  0  0  0  0  0  0  0  0
   -3.4955    0.1372    0.0391 C   0  0  0  0  0  0  0  0  0  0  0  0
   -4.8814    0.1892    0.2985 C   0  0  0  0  0  0  0  0  0  0  0  0
   -5.4663    1.0989    0.0904 H   0  0  0  0  0  0  0  0  0  0  0  0
   -5.5319   -0.9343    0.8275 C   0  0  0  0  0  0  0  0  0  0  0  0
   -6.6130   -0.8968    1.0308 H   0  0  0  0  0  0  0  0  0  0  0  0
   -4.8025   -2.1046    1.0959 C   0  0  0  0  0  0  0  0  0  0  0  0
   -5.3151   -2.9866    1.5119 H   0  0  0  0  0  0  0  0  0  0  0  0
   -3.4199   -2.1435    0.8340 C   0  0  0  0  0  0  0  0  0  0  0  0
   -2.8719   -3.0759    1.0604 H   0  0  0  0  0  0  0  0  0  0  0  0
   -2.7290   -1.0338    0.3029 C   0  0  0  0  0  3  0  0  0  0  0  0
    2.1749    0.3465    0.3294 C   0  0  0  0  0  0  0  0  0  0  0  0
    2.1709    1.1163    1.5383 C   0  0  0  0  0  0  0  0  0  0  0  0
    3.2548    1.0052    2.4256 C   0  0  0  0  0  0  0  0  0  0  0  0
    3.2512    1.5873    3.3599 H   0  0  0  0  0  0  0  0  0  0  0  0
    4.3351    0.1549    2.1519 C   0  0  0  0  0  0  0  0  0  0  0  0
    5.1716    0.0770    2.8631 H   0  0  0  0  0  0  0  0  0  0  0  0
    4.3403   -0.5956    0.9723 C   0  0  0  0  0  0  0  0  0  0  0  0
    5.1890   -1.2647    0.7590 H   0  0  0  0  0  0  0  0  0  0  0  0
    3.2790   -0.5146    0.0501 C   0  0  0  0  0  0  0  0  0  0  0  0
    0.9847    2.0051    1.9069 C   0  0  0  0  0  0  0  0  0  0  0  0
    0.4115    2.1885    0.9780 H   0  0  0  0  0  0  0  0  0  0  0  0
    1.4043    3.3729    2.4655 C   0  0  0  0  0  0  0  0  0  0  0  0
    1.8942    3.2844    3.4570 H   0  0  0  0  0  0  0  0  0  0  0  0
    0.5170    4.0251    2.5984 H   0  0  0  0  0  0  0  0  0  0  0  0
    2.1150    3.8910    1.7897 H   0  0  0  0  0  0  0  0  0  0  0  0
    0.0257    1.2913    2.8753 C   0  0  0  0  0  0  0  0  0  0  0  0
   -0.3494    0.3349    2.4561 H   0  0  0  0  0  0  0  0  0  0  0  0
   -0.8527    1.9288    3.1054 H   0  0  0  0  0  0  0  0  0  0  0  0
    0.5339    1.0411    3.8294 H   0  0  0  0  0  0  0  0  0  0  0  0
    3.3278   -1.3480   -1.2225 C   0  0  0  0  0  0  0  0  0  0  0  0
    2.3617   -1.1784   -1.7384 H   0  0  0  0  0  0  0  0  0  0  0  0
    3.4366   -2.8514   -0.9217 C   0  0  0  0  0  0  0  0  0  0  0  0
    4.3937   -3.1023   -0.4185 H   0  0  0  0  0  0  0  0  0  0  0  0
    3.3873   -3.4448   -1.8580 H   0  0  0  0  0  0  0  0  0  0  0  0
    2.6137   -3.1878   -0.2592 H   0  0  0  0  0  0  0  0  0  0  0  0
    4.4526   -0.8778   -2.1595 C   0  0  0  0  0  0  0  0  0  0  0  0
    4.3509    0.1993   -2.4046 H   0  0  0  0  0  0  0  0  0  0  0  0
    4.4396   -1.4484   -3.1114 H   0  0  0  0  0  0  0  0  0  0  0  0
    5.4523   -1.0179   -1.6972 H   0  0  0  0  0  0  0  0  0  0  0  0
    1.8621    2.6270   -1.3479 C   0  0  0  0  0  0  0  0  0  0  0  0
    1.7955    3.1522   -0.3782 H   0  0  0  0  0  0  0  0  0  0  0  0
    1.7305    3.3710   -2.1578 H   0  0  0  0  0  0  0  0  0  0  0  0
    2.8843    2.2123   -1.4396 H   0  0  0  0  0  0  0  0  0  0  0  0
    0.9015    0.9572   -2.9418 C   0  0  0  0  0  0  0  0  0  0  0  0
    1.9265    0.5965   -3.1562 H   0  0  0  0  0  0  0  0  0  0  0  0
    0.6436    1.7462   -3.6780 H   0  0  0  0  0  0  0  0  0  0  0  0
    0.2039    0.1075   -3.0766 H   0  0  0  0  0  0  0  0  0  0  0  0
  1 22  1  0  0  0  0
  2 11  1  0  0  0  0
  3 51  1  0  0  0  0
  3  1  1  0  0  0  0
  4  3  1  6  0  0  0
  4  2  1  0  0  0  0
  5  7  2  0  0  0  0
  5  4  1  0  0  0  0
  6  5  1  0  0  0  0
  7  9  1  0  0  0  0
  8  7  1  0  0  0  0
  9 10  1  0  0  0  0
  9 11  2  0  0  0  0
 11 12  1  0  0  0  0
 12 13  2  0  0  0  0
 12 21  1  0  0  0  0
 13 15  1  0  0  0  0
 14 13  1  0  0  0  0
 15 16  1  0  0  0  0
 15 17  2  0  0  0  0
 17 18  1  0  0  0  0
 19 20  1  0  0  0  0
 19 17  1  0  0  0  0
 21 19  2  0  0  0  0
 22 23  1  0  0  0  0
 23 31  1  0  0  0  0
 23 24  2  0  0  0  0
 24 25  1  0  0  0  0
 26 24  1  0  0  0  0
 26 27  1  0  0  0  0
 28 26  2  0  0  0  0
 29 28  1  0  0  0  0
 30 22  2  0  0  0  0
 30 28  1  0  0  0  0
 31 33  1  0  0  0  0
 31 37  1  0  0  0  0
 32 31  1  0  0  0  0
 33 35  1  0  0  0  0
 33 34  1  0  0  0  0
 36 33  1  0  0  0  0
 37 39  1  0  0  0  0
 37 40  1  0  0  0  0
 38 37  1  0  0  0  0
 41 43  1  0  0  0  0
 41 30  1  0  0  0  0
 42 41  1  0  0  0  0
 43 44  1  0  0  0  0
 43 46  1  0  0  0  0
 45 43  1  0  0  0  0
 47 50  1  0  0  0  0
 47 41  1  0  0  0  0
 48 47  1  0  0  0  0
 49 47  1  0  0  0  0
 51 52  1  0  0  0  0
 53 51  1  0  0  0  0
 54 51  1  0  0  0  0
 55  3  1  0  0  0  0
 56 55  1  0  0  0  0
 57 55  1  0  0  0  0
 58 55  1  0  0  0  0
M  END
