1,2,26
q = -1.0

 60 63  0  0  0  0  0  0  0  0999 V2000
   -1.6764    0.5884   -0.2124 N   0  0  0  0  0  2  0  0  0  0  0  0
    0.8536    1.2211   -0.4083 N   0  0  0  0  0  2  0  0  0  0  0  0
   -2.9819    0.0781    0.0232 C   0  0  0  0  0  0  0  0  0  0  0  0
   -3.6597    0.4124    1.2270 C   0  0  0  0  0  0  0  0  0  0  0  0
   -4.9270   -0.1597    1.4376 C   0  0  0  0  0  0  0  0  0  0  0  0
   -5.4766    0.0770    2.3600 H   0  0  0  0  0  0  0  0  0  0  0  0
   -5.4953   -1.0349    0.5026 C   0  0  0  0  0  0  0  0  0  0  0  0
   -6.4904   -1.4662    0.6888 H   0  0  0  0  0  0  0  0  0  0  0  0
   -4.7896   -1.3758   -0.6573 C   0  0  0  0  0  0  0  0  0  0  0  0
   -5.2312   -2.0813   -1.3763 H   0  0  0  0  0  0  0  0  0  0  0  0
   -3.5160   -0.8399   -0.9162 C   0  0  0  0  0  0  0  0  0  0  0  0
   -1.4501    1.8187   -0.5981 C   0  0  0  0  0  0  0  0  0  0  0  0
   -2.5237    2.8247   -0.8906 C   0  0  0  0  0  0  0  0  0  0  0  0
   -2.4105    3.2252   -1.9187 H   0  0  0  0  0  0  0  0  0  0  0  0
   -3.5259    2.3719   -0.7878 H   0  0  0  0  0  0  0  0  0  0  0  0
   -2.4511    3.6871   -0.1954 H   0  0  0  0  0  0  0  0  0  0  0  0
   -0.0273    2.1975   -0.7525 C   0  0  0  0  0  0  0  0  0  0  0  0
    0.4398    3.4335   -1.2293 C   0  0  0  0  0  0  0  0  0  0  0  0
   -0.2623    4.2339   -1.4959 H   0  0  0  0  0  0  0  0  0  0  0  0
    1.8251    3.5962   -1.3860 C   0  0  0  0  0  0  0  0  0  0  0  0
    2.2234    4.5334   -1.8020 H   0  0  0  0  0  0  0  0  0  0  0  0
    2.7095    2.5704   -1.0298 C   0  0  0  0  0  0  0  0  0  0  0  0
    3.7819    2.6972   -1.2088 H   0  0  0  0  0  0  0  0  0  0  0  0
    2.2171    1.3587   -0.4844 C   0  0  0  0  0  0  0  0  0  0  0  0
    2.9239    0.1470   -0.0512 C   0  0  0  0  0  0  0  0  0  0  0  0
    2.0708   -0.9744    0.1784 C   0  0  0  0  0  3  0  0  0  0  0  0
    2.6250   -2.2528    0.4391 C   0  0  0  0  0  0  0  0  0  0  0  0
    1.9401   -3.0994    0.5919 H   0  0  0  0  0  0  0  0  0  0  0  0
    3.9992   -2.4201    0.4832 C   0  0  0  0  0  3  0  0  0  0  0  0
    4.4309   -3.4199    0.6535 H   0  0  0  0  0  0  0  0  0  0  0  0
    4.8885   -1.3127    0.3550 C   0  0  0  0  0  0  0  0  0  0  0  0
    4.3542    0.0126    0.1278 C   0  0  0  0  0  0  0  0  0  0  0  0
    5.2822    1.0968    0.1562 C   0  0  0  0  0  3  0  0  0  0  0  0
    4.9204    2.1302    0.1116 H   0  0  0  0  0  0  0  0  0  0  0  0
    6.6478    0.8884    0.3135 C   0  0  0  0  0  0  0  0  0  0  0  0
    7.3268    1.7544    0.3433 H   0  0  0  0  0  0  0  0  0  0  0  0
    7.1689   -0.4206    0.4551 C   0  0  0  0  0  0  0  0  0  0  0  0
    8.2524   -0.5769    0.5654 H   0  0  0  0  0  0  0  0  0  0  0  0
    6.2945   -1.4962    0.4903 C   0  0  0  0  0  0  0  0  0  0  0  0
    6.6725   -2.5191    0.6444 H   0  0  0  0  0  0  0  0  0  0  0  0
   -2.9809    1.2548    2.3013 C   0  0  0  0  0  0  0  0  0  0  0  0
   -2.3017    1.9730    1.7963 H   0  0  0  0  0  0  0  0  0  0  0  0
   -2.1002    0.3495    3.1858 C   0  0  0  0  0  0  0  0  0  0  0  0
   -2.7294   -0.3794    3.7366 H   0  0  0  0  0  0  0  0  0  0  0  0
   -1.5350    0.9509    3.9274 H   0  0  0  0  0  0  0  0  0  0  0  0
   -1.3756   -0.2322    2.5805 H   0  0  0  0  0  0  0  0  0  0  0  0
   -3.9570    2.0835    3.1456 C   0  0  0  0  0  0  0  0  0  0  0  0
   -4.6215    2.7080    2.5143 H   0  0  0  0  0  0  0  0  0  0  0  0
   -3.3980    2.7547    3.8283 H   0  0  0  0  0  0  0  0  0  0  0  0
   -4.5998    1.4416    3.7822 H   0  0  0  0  0  0  0  0  0  0  0  0
   -2.7424   -1.1827   -2.1814 C   0  0  0  0  0  0  0  0  0  0  0  0
   -1.6706   -0.9874   -1.9595 H   0  0  0  0  0  0  0  0  0  0  0  0
   -2.8464   -2.6623   -2.5672 C   0  0  0  0  0  0  0  0  0  0  0  0
   -2.5119   -3.3003   -1.7261 H   0  0  0  0  0  0  0  0  0  0  0  0
   -2.1958   -2.8738   -3.4400 H   0  0  0  0  0  0  0  0  0  0  0  0
   -3.8791   -2.9530   -2.8516 H   0  0  0  0  0  0  0  0  0  0  0  0
   -3.1564   -0.2561   -3.3392 C   0  0  0  0  0  0  0  0  0  0  0  0
   -4.2250   -0.4039   -3.6016 H   0  0  0  0  0  0  0  0  0  0  0  0
   -2.5503   -0.4604   -4.2457 H   0  0  0  0  0  0  0  0  0  0  0  0
   -3.0257    0.8136   -3.0761 H   0  0  0  0  0  0  0  0  0  0  0  0
  1  3  1  0  0  0  0
  3  4  1  0  0  0  0
  4  5  2  0  0  0  0
  4 41  1  0  0  0  0
  5  6  1  0  0  0  0
  7  8  1  0  0  0  0
  7  5  1  0  0  0  0
  9  7  2  0  0  0  0
 10  9  1  0  0  0  0
 11  9  1  0  0  0  0
 11  3  2  0  0  0  0
 12  1  1  0  0  0  0
 13 15  1  0  0  0  0
 13 12  1  0  0  0  0
 13 16  1  0  0  0  0
 14 13  1  0  0  0  0
 17 12  2  0  0  0  0
 17  2  1  0  0  0  0
 18 17  1  0  0  0  0
 19 18  1  0  0  0  0
 20 18  2  0  0  0  0
 20 22  1  0  0  0  0
 21 20  1  0  0  0  0
 22 24  2  0  0  0  0
 23 22  1  0  0  0  0
 24  2  1  0  0  0  0
 24 25  1  0  0  0  0
 25 32  2  0  0  0  0
 25 26  1  0  0  0  0
 26 27  2  0  0  0  0
 27 29  1  0  0  0  0
 27 28  1  0  0  0  0
 29 30  1  0  0  0  0
 31 29  1  0  0  0  0
 31 39  2  0  0  0  0
 32 33  1  0  0  0  0
 32 31  1  0  0  0  0
 33 35  1  0  0  0  0
 34 33  1  0  0  0  0
 35 36  1  0  0  0  0
 35 37  2  0  0  0  0
 37 39  1  0  0  0  0
 37 38  1  0  0  0  0
 39 40  1  0  0  0  0
 41 47  1  0  0  0  0
 41 43  1  0  0  0  0
 42 41  1  0  0  0  0
 43 44  1  0  0  0  0
 43 45  1  0  0  0  0
 46 43  1  0  0  0  0
 47 50  1  0  0  0  0
 47 49  1  0  0  0  0
 48 47  1  0  0  0  0
 51 52  1  0  0  0  0
 51 11  1  0  0  0  0
 53 51  1  0  0  0  0
 53 54  1  0  0  0  0
 55 53  1  0  0  0  0
 56 53  1  0  0  0  0
 57 60  1  0  0  0  0
 57 51  1  0  0  0  0
 58 57  1  0  0  0  0
 59 57  1  0  0  0  0
M  END
