1,3,34
q = -1.0, confidence = 0.012

 63 67  0  0  1  0  0  0  0  0999 V2000
   -0.3783   -1.1183    1.2161 N   0  0  0  0  0  2  0  0  0  0  0  0
    0.0792    0.0696    1.6810 N   0  0  0  0  0  0  0  0  0  0  0  0
   -2.3242    0.7222    0.0772 N   0  0  0  0  0  2  0  0  0  0  0  0
   -1.5181    1.5964    0.7297 N   0  0  0  0  0  0  0  0  0  0  0  0
    0.8356   -0.0855    2.8173 C   0  0  1  0  0  3  0  0  0  0  0  0
    0.8492   -1.4543    3.0825 C   0  0  0  0  0  0  0  0  0  0  0  0
    1.3543   -1.9480    3.9189 H   0  0  0  0  0  0  0  0  0  0  0  0
    0.0767   -2.0626    2.0590 C   0  0  0  0  0  0  0  0  0  0  0  0
    1.4716    1.0567    3.5381 C   0  0  0  0  0  0  0  0  0  0  0  0
    2.1701    1.6174    2.8825 H   0  0  0  0  0  0  0  0  0  0  0  0
    2.0481    0.6766    4.4009 H   0  0  0  0  0  0  0  0  0  0  0  0
    0.7180    1.7740    3.9275 H   0  0  0  0  0  0  0  0  0  0  0  0
   -0.2366   -3.5073    1.8404 C   0  0  0  0  0  0  0  0  0  0  0  0
   -0.8474   -3.6322    0.9270 H   0  0  0  0  0  0  0  0  0  0  0  0
   -0.7997   -3.9311    2.6962 H   0  0  0  0  0  0  0  0  0  0  0  0
    0.6939   -4.1004    1.7298 H   0  0  0  0  0  0  0  0  0  0  0  0
   -2.1216    2.8203    0.8831 C   0  0  2  0  0  3  0  0  0  0  0  0
   -3.3898    2.6955    0.3158 C   0  0  0  0  0  0  0  0  0  0  0  0
   -4.1615    3.4706    0.2690 H   0  0  0  0  0  0  0  0  0  0  0  0
   -3.4730    1.3690   -0.1795 C   0  0  0  0  0  0  0  0  0  0  0  0
   -1.4544    3.9817    1.5429 C   0  0  0  0  0  0  0  0  0  0  0  0
   -1.1308    3.7462    2.5790 H   0  0  0  0  0  0  0  0  0  0  0  0
   -2.1574    4.8327    1.5985 H   0  0  0  0  0  0  0  0  0  0  0  0
   -0.5597    4.3248    0.9813 H   0  0  0  0  0  0  0  0  0  0  0  0
   -4.5806    0.7049   -0.9319 C   0  0  0  0  0  0  0  0  0  0  0  0
   -4.2841    0.5582   -1.9909 H   0  0  0  0  0  0  0  0  0  0  0  0
   -5.4987    1.3201   -0.9050 H   0  0  0  0  0  0  0  0  0  0  0  0
   -4.8070   -0.2950   -0.5127 H   0  0  0  0  0  0  0  0  0  0  0  0
   -0.1077    1.3017    0.9330 C   0  0  2  0  0  0  0  0  0  0  0  0
    0.2722    2.0944    1.6002 H   0  0  0  0  0  0  0  0  0  0  0  0
    0.7094    1.4126   -0.4142 C   0  0  2  0  0  0  0  0  0  0  0  0
    0.6747    2.5046   -0.6161 H   0  0  0  0  0  0  0  0  0  0  0  0
    0.0474    0.7644   -1.6022 C   0  0  0  0  0  0  0  0  0  0  0  0
   -0.1135   -0.6476   -1.9209 C   0  0  0  0  0  3  0  0  0  0  0  0
    0.6038   -1.4411   -1.6586 H   0  0  0  0  0  0  0  0  0  0  0  0
   -0.9652   -0.7148   -3.0889 C   0  0  0  0  0  0  0  0  0  0  0  0
   -1.2246   -1.6379   -3.6255 H   0  0  0  0  0  0  0  0  0  0  0  0
   -1.3612    0.5887   -3.4252 C   0  0  0  0  0  0  0  0  0  0  0  0
   -2.0378    0.8671   -4.2450 H   0  0  0  0  0  0  0  0  0  0  0  0
   -0.7369    1.4916   -2.5165 C   0  0  0  0  0  0  0  0  0  0  0  0
   -0.8896    2.5812   -2.4828 H   0  0  0  0  0  0  0  0  0  0  0  0
    2.1709    1.0644   -0.2115 C   0  0  0  0  0  0  0  0  0  0  0  0
    3.1465    2.0053   -0.2681 C   0  0  0  0  0  0  0  0  0  0  0  0
    2.8963    3.0729   -0.3954 H   0  0  0  0  0  0  0  0  0  0  0  0
    4.5987    1.5873   -0.2955 C   0  0  0  0  0  0  0  0  0  0  0  0
    5.1705    2.0723    0.5288 H   0  0  0  0  0  0  0  0  0  0  0  0
    5.0695    1.9551   -1.2361 H   0  0  0  0  0  0  0  0  0  0  0  0
    4.7212    0.0568   -0.1921 C   0  0  1  0  0  0  0  0  0  0  0  0
    5.7827   -0.2696   -0.1992 H   0  0  0  0  0  0  0  0  0  0  0  0
    3.7991   -0.4230    0.9579 C   0  0  0  0  0  0  0  0  0  0  0  0
    3.7089    0.2390    1.8421 H   0  0  0  0  0  0  0  0  0  0  0  0
    4.0235   -1.4495    1.2995 H   0  0  0  0  0  0  0  0  0  0  0  0
    2.6421   -0.3745   -0.0808 C   0  0  2  0  0  0  0  0  0  0  0  0
    1.8171   -1.1002    0.0212 H   0  0  0  0  0  0  0  0  0  0  0  0
    3.7379   -0.6635   -1.1907 C   0  0  0  0  0  0  0  0  0  0  0  0
    4.0327   -2.1635   -1.3150 C   0  0  0  0  0  0  0  0  0  0  0  0
    3.1937   -2.6767   -1.8292 H   0  0  0  0  0  0  0  0  0  0  0  0
    4.1851   -2.6640   -0.3392 H   0  0  0  0  0  0  0  0  0  0  0  0
    4.9467   -2.3295   -1.9228 H   0  0  0  0  0  0  0  0  0  0  0  0
    3.5475   -0.0844   -2.5901 C   0  0  0  0  0  0  0  0  0  0  0  0
    4.4799   -0.2011   -3.1819 H   0  0  0  0  0  0  0  0  0  0  0  0
    3.2725    0.9861   -2.5811 H   0  0  0  0  0  0  0  0  0  0  0  0
    2.7353   -0.6194   -3.1228 H   0  0  0  0  0  0  0  0  0  0  0  0
  1  2  1  0  0  0  0
  1  8  1  0  0  0  0
  2  5  1  0  0  0  0
  3  4  1  0  0  0  0
  4 17  1  0  0  0  0
  4 29  1  0  0  0  0
  5  6  1  0  0  0  0
  5  9  1  6  0  0  0
  6  7  1  0  0  0  0
  8  6  2  0  0  0  0
  9 12  1  0  0  0  0
  9 11  1  0  0  0  0
 10  9  1  0  0  0  0
 13  8  1  0  0  0  0
 13 15  1  0  0  0  0
 14 13  1  0  0  0  0
 16 13  1  0  0  0  0
 17 21  1  6  0  0  0
 18 17  1  0  0  0  0
 19 18  1  0  0  0  0
 20  3  1  0  0  0  0
 20 18  2  0  0  0  0
 21 23  1  0  0  0  0
 21 22  1  0  0  0  0
 24 21  1  0  0  0  0
 25 27  1  0  0  0  0
 25 28  1  0  0  0  0
 25 20  1  0  0  0  0
 26 25  1  0  0  0  0
 29 30  1  1  0  0  0
 29  2  1  0  0  0  0
 31 32  1  6  0  0  0
 31 42  1  0  0  0  0
 31 29  1  0  0  0  0
 33 31  1  0  0  0  0
 34 35  1  0  0  0  0
 34 33  1  0  0  0  0
 36 34  1  0  0  0  0
 37 36  1  0  0  0  0
 38 36  2  0  0  0  0
 38 40  1  0  0  0  0
 39 38  1  0  0  0  0
 40 41  1  0  0  0  0
 40 33  2  0  0  0  0
 42 53  1  0  0  0  0
 43 42  2  0  0  0  0
 44 43  1  0  0  0  0
 45 43  1  0  0  0  0
 45 48  1  0  0  0  0
 45 46  1  0  0  0  0
 47 45  1  0  0  0  0
 48 49  1  1  0  0  0
 48 50  1  0  0  0  0
 50 52  1  0  0  0  0
 50 51  1  0  0  0  0
 53 54  1  1  0  0  0
 53 50  1  0  0  0  0
 55 48  1  0  0  0  0
 55 53  1  0  0  0  0
 56 55  1  0  0  0  0
 56 58  1  0  0  0  0
 57 56  1  0  0  0  0
 59 56  1  0  0  0  0
 60 62  1  0  0  0  0
 60 55  1  0  0  0  0
 61 60  1  0  0  0  0
 63 60  1  0  0  0  0
M  END
