1,2,3
q = -1.0

 44 47  0  0  0  0  0  0  0  0999 V2000
   -0.5917   -0.0006   -0.0001 N   0  0  0  0  0  2  0  0  0  0  0  0
    1.0136   -2.0709   -0.0001 N   0  0  0  0  0  2  0  0  0  0  0  0
    1.0948    2.0169   -0.0001 C   0  0  0  0  0  2  0  0  0  0  0  0
    2.0166    3.0811   -0.0002 C   0  0  0  0  0  3  0  0  0  0  0  0
    3.0920    2.8499   -0.0002 H   0  0  0  0  0  0  0  0  0  0  0  0
    1.5788    4.4154   -0.0002 C   0  0  0  0  0  0  0  0  0  0  0  0
    2.3196    5.2308   -0.0002 H   0  0  0  0  0  0  0  0  0  0  0  0
    0.2056    4.7236   -0.0001 C   0  0  0  0  0  0  0  0  0  0  0  0
   -0.1283    5.7719   -0.0001 H   0  0  0  0  0  0  0  0  0  0  0  0
   -0.7360    3.6884   -0.0001 C   0  0  0  0  0  0  0  0  0  0  0  0
   -1.8107    3.9296   -0.0001 H   0  0  0  0  0  0  0  0  0  0  0  0
   -0.3116    2.3434   -0.0001 C   0  0  0  0  0  0  0  0  0  0  0  0
   -1.2414    1.2053   -0.0001 C   0  0  0  0  0  0  0  0  0  0  0  0
   -2.6426    1.2137   -0.0000 C   0  0  0  0  0  0  0  0  0  0  0  0
   -3.1930    2.1634    0.0000 H   0  0  0  0  0  0  0  0  0  0  0  0
   -3.3632   -0.0109    0.0000 C   0  0  0  0  0  0  0  0  0  0  0  0
   -2.6387   -1.2341    0.0000 C   0  0  0  0  0  0  0  0  0  0  0  0
   -3.1848   -2.1857    0.0001 H   0  0  0  0  0  0  0  0  0  0  0  0
   -1.2399   -1.1966   -0.0001 C   0  0  0  0  0  0  0  0  0  0  0  0
   -0.3288   -2.3637   -0.0001 C   0  0  0  0  0  0  0  0  0  0  0  0
   -0.7652   -3.7006   -0.0002 C   0  0  0  0  0  0  0  0  0  0  0  0
   -1.8405   -3.9248   -0.0002 H   0  0  0  0  0  0  0  0  0  0  0  0
    0.1766   -4.7355   -0.0003 C   0  0  0  0  0  0  0  0  0  0  0  0
   -0.1547   -5.7844   -0.0004 H   0  0  0  0  0  0  0  0  0  0  0  0
    1.5441   -4.4158   -0.0003 C   0  0  0  0  0  0  0  0  0  0  0  0
    2.3160   -5.1983   -0.0003 H   0  0  0  0  0  0  0  0  0  0  0  0
    1.9194   -3.0684   -0.0002 C   0  0  0  0  0  0  0  0  0  0  0  0
    2.9728   -2.7429   -0.0002 H   0  0  0  0  0  0  0  0  0  0  0  0
   -4.7824   -0.0157    0.0002 C   0  0  0  0  0  0  0  0  0  0  0  0
   -6.0157   -0.0169    0.0004 C   0  0  0  0  0  0  0  0  0  0  0  0
   -7.4374   -0.0127    0.0006 C   0  0  0  0  0  0  0  0  0  0  0  0
   -8.1707   -1.2264    0.0013 C   0  0  0  0  0  0  0  0  0  0  0  0
   -7.6257   -2.1814    0.0019 H   0  0  0  0  0  0  0  0  0  0  0  0
   -9.5688   -1.2107    0.0020 C   0  0  0  0  0  0  0  0  0  0  0  0
  -10.1192   -2.1647    0.0032 H   0  0  0  0  0  0  0  0  0  0  0  0
  -10.2906    0.0007    0.0017 C   0  0  0  0  0  0  0  0  0  0  0  0
   -9.5560    1.2077    0.0017 C   0  0  0  0  0  0  0  0  0  0  0  0
  -10.0963    2.1678    0.0028 H   0  0  0  0  0  0  0  0  0  0  0  0
   -8.1604    1.2100    0.0010 C   0  0  0  0  0  0  0  0  0  0  0  0
   -7.6051    2.1590    0.0014 H   0  0  0  0  0  0  0  0  0  0  0  0
  -11.7968    0.0192   -0.0037 C   0  0  0  0  0  0  0  0  0  0  0  0
  -12.1954    0.6047    0.8508 H   0  0  0  0  0  0  0  0  0  0  0  0
  -12.2201   -1.0018    0.0545 H   0  0  0  0  0  0  0  0  0  0  0  0
  -12.1881    0.4967   -0.9268 H   0  0  0  0  0  0  0  0  0  0  0  0
  1 13  1  0  0  0  0
  1 19  1  0  0  0  0
  3 12  1  0  0  0  0
  4  6  1  0  0  0  0
  4  3  1  0  0  0  0
  5  4  1  0  0  0  0
  6  8  2  0  0  0  0
  7  6  1  0  0  0  0
  8  9  1  0  0  0  0
  8 10  1  0  0  0  0
 10 11  1  0  0  0  0
 12 10  2  0  0  0  0
 12 13  1  0  0  0  0
 13 14  2  0  0  0  0
 14 15  1  0  0  0  0
 14 16  1  0  0  0  0
 16 29  1  0  0  0  0
 17 16  2  0  0  0  0
 17 18  1  0  0  0  0
 19 17  1  0  0  0  0
 20  2  1  0  0  0  0
 20 19  2  0  0  0  0
 21 20  1  0  0  0  0
 22 21  1  0  0  0  0
 23 25  1  0  0  0  0
 23 21  2  0  0  0  0
 24 23  1  0  0  0  0
 25 27  2  0  0  0  0
 26 25  1  0  0  0  0
 27 28  1  0  0  0  0
 27  2  1  0  0  0  0
 29 30  3  0  0  0  0
 30 31  1  0  0  0  0
 31 39  2  0  0  0  0
 31 32  1  0  0  0  0
 32 33  1  0  0  0  0
 32 34  2  0  0  0  0
 34 35  1  0  0  0  0
 36 37  2  0  0  0  0
 36 34  1  0  0  0  0
 37 38  1  0  0  0  0
 39 40  1  0  0  0  0
 39 37  1  0  0  0  0
 41 36  1  0  0  0  0
 41 43  1  0  0  0  0
 41 42  1  0  0  0  0
 44 41  1  0  0  0  0
M  END
