2,3,29
q = -1.0

 29 31  0  0  0  0  0  0  0  0999 V2000
   -4.9126   -0.0485   -0.0006 I   0  0  0  0  0  0  0  0  0  0  0  0
   -0.0495   -0.0077    0.0005 N   0  0  0  0  0  2  0  0  0  0  0  0
    1.5135    2.0951   -0.0008 N   0  0  0  0  0  2  0  0  0  0  0  0
    0.1694    2.3677    0.0004 C   0  0  0  0  0  0  0  0  0  0  0  0
   -0.2874    3.6976    0.0021 C   0  0  0  0  0  0  0  0  0  0  0  0
   -1.3650    3.9109    0.0031 H   0  0  0  0  0  0  0  0  0  0  0  0
    0.6434    4.7434    0.0027 C   0  0  0  0  0  0  0  0  0  0  0  0
    0.2988    5.7880    0.0042 H   0  0  0  0  0  0  0  0  0  0  0  0
    2.0151    4.4423    0.0017 C   0  0  0  0  0  0  0  0  0  0  0  0
    2.7755    5.2361    0.0022 H   0  0  0  0  0  0  0  0  0  0  0  0
    2.4094    3.0997   -0.0001 C   0  0  0  0  0  0  0  0  0  0  0  0
    3.4644    2.7759   -0.0011 H   0  0  0  0  0  0  0  0  0  0  0  0
   -0.7149    1.1825    0.0002 C   0  0  0  0  0  0  0  0  0  0  0  0
   -2.1196    1.1989   -0.0002 C   0  0  0  0  0  0  0  0  0  0  0  0
   -2.6701    2.1477   -0.0007 H   0  0  0  0  0  0  0  0  0  0  0  0
   -2.7975   -0.0325    0.0000 C   0  0  0  0  0  0  0  0  0  0  0  0
   -2.0949   -1.2477    0.0005 C   0  0  0  0  0  0  0  0  0  0  0  0
   -2.6248   -2.2089    0.0006 H   0  0  0  0  0  0  0  0  0  0  0  0
   -0.6881   -1.2246    0.0007 C   0  0  0  0  0  0  0  0  0  0  0  0
    0.2474   -2.3494    0.0009 C   0  0  0  0  0  0  0  0  0  0  0  0
   -0.1486   -3.7039    0.0018 C   0  0  0  0  0  0  0  0  0  0  0  0
   -1.2169   -3.9721    0.0023 H   0  0  0  0  0  0  0  0  0  0  0  0
    0.8198   -4.7131    0.0021 C   0  0  0  0  0  0  0  0  0  0  0  0
    0.5133   -5.7697    0.0028 H   0  0  0  0  0  0  0  0  0  0  0  0
    2.1863   -4.3708    0.0015 C   0  0  0  0  0  0  0  0  0  0  0  0
    2.9455   -5.1690    0.0017 H   0  0  0  0  0  0  0  0  0  0  0  0
    2.5947   -3.0275    0.0005 C   0  0  0  0  0  3  0  0  0  0  0  0
    3.6633   -2.7659    0.0000 H   0  0  0  0  0  0  0  0  0  0  0  0
    1.6440   -1.9896    0.0001 C   0  0  0  0  0  2  0  0  0  0  0  0
  1 16  1  0  0  0  0
  2 19  1  0  0  0  0
  3 11  1  0  0  0  0
  3  4  1  0  0  0  0
  4  5  1  0  0  0  0
  5  7  2  0  0  0  0
  5  6  1  0  0  0  0
  7  8  1  0  0  0  0
  9 10  1  0  0  0  0
  9  7  1  0  0  0  0
 11  9  2  0  0  0  0
 12 11  1  0  0  0  0
 13  4  2  0  0  0  0
 13  2  1  0  0  0  0
 14 16  2  0  0  0  0
 14 13  1  0  0  0  0
 15 14  1  0  0  0  0
 16 17  1  0  0  0  0
 17 18  1  0  0  0  0
 17 19  2  0  0  0  0
 19 20  1  0  0  0  0
 20 21  2  0  0  0  0
 21 23  1  0  0  0  0
 21 22  1  0  0  0  0
 23 24  1  0  0  0  0
 25 26  1  0  0  0  0
 25 23  2  0  0  0  0
 27 25  1  0  0  0  0
 28 27  1  0  0  0  0
 29 27  1  0  0  0  0
 29 20  1  0  0  0  0
M  END
