1,2,3
q = -1.0, confidence = 0.032

 39 42  0  0  1  0  0  0  0  0999 V2000
   -0.7787    0.0340   -0.0003 N   0  0  0  0  0  2  0  0  0  0  0  0
    1.0685   -1.8347    0.0410 C   0  0  0  0  0  2  0  0  0  0  0  0
    0.6470    2.2279   -0.0471 N   0  0  0  0  0  2  0  0  0  0  0  0
    1.4664    3.2975   -0.0726 C   0  0  0  0  0  0  0  0  0  0  0  0
    2.5429    3.0593   -0.0663 H   0  0  0  0  0  0  0  0  0  0  0  0
    0.9794    4.6085   -0.1048 C   0  0  0  0  0  0  0  0  0  0  0  0
    1.6831    5.4527   -0.1251 H   0  0  0  0  0  0  0  0  0  0  0  0
   -0.4100    4.8129   -0.1105 C   0  0  0  0  0  0  0  0  0  0  0  0
   -0.8278    5.8301   -0.1359 H   0  0  0  0  0  0  0  0  0  0  0  0
   -1.2620    3.7030   -0.0834 C   0  0  0  0  0  0  0  0  0  0  0  0
   -2.3524    3.8367   -0.0871 H   0  0  0  0  0  0  0  0  0  0  0  0
   -0.7155    2.4075   -0.0516 C   0  0  0  0  0  0  0  0  0  0  0  0
   -1.5252    1.1687   -0.0210 C   0  0  0  0  0  0  0  0  0  0  0  0
   -2.9248    1.0835   -0.0184 C   0  0  0  0  0  0  0  0  0  0  0  0
   -3.5376    1.9930   -0.0658 H   0  0  0  0  0  0  0  0  0  0  0  0
   -3.5467   -0.1872    0.0044 C   0  0  0  0  0  0  0  0  0  0  0  0
   -5.0246   -0.3065    0.0047 C   0  0  0  0  0  0  0  0  0  0  0  0
   -5.8301    0.6454    0.6712 C   0  0  0  0  0  0  0  0  0  0  0  0
   -5.3520    1.4680    1.2242 H   0  0  0  0  0  0  0  0  0  0  0  0
   -7.2264    0.5314    0.6719 C   0  0  0  0  0  0  0  0  0  0  0  0
   -7.8339    1.2767    1.2075 H   0  0  0  0  0  0  0  0  0  0  0  0
   -7.8489   -0.5349    0.0034 C   0  0  0  0  0  0  0  0  0  0  0  0
   -8.9456   -0.6240    0.0032 H   0  0  0  0  0  0  0  0  0  0  0  0
   -7.0622   -1.4874   -0.6638 C   0  0  0  0  0  0  0  0  0  0  0  0
   -7.5410   -2.3217   -1.1985 H   0  0  0  0  0  0  0  0  0  0  0  0
   -5.6657   -1.3759   -0.6620 C   0  0  0  0  0  0  0  0  0  0  0  0
   -5.0605   -2.1126   -1.2113 H   0  0  0  0  0  0  0  0  0  0  0  0
   -2.7255   -1.3383    0.0250 C   0  0  0  0  0  0  0  0  0  0  0  0
   -3.1827   -2.3357    0.0727 H   0  0  0  0  0  0  0  0  0  0  0  0
   -1.3266   -1.2191    0.0226 C   0  0  0  0  0  0  0  0  0  0  0  0
   -0.3070   -2.2763    0.0484 C   0  0  1  0  0  3  0  0  0  0  0  0
   -0.6196   -3.6516    0.0777 C   0  0  0  0  0  0  0  0  0  0  0  0
   -1.6710   -3.9802    0.0836 H   0  0  0  0  0  0  0  0  0  0  0  0
    0.4036   -4.6058    0.0999 C   0  0  0  0  0  0  0  0  0  0  0  0
    0.1569   -5.6778    0.1232 H   0  0  0  0  0  0  0  0  0  0  0  0
    1.7470   -4.1856    0.0927 C   0  0  0  0  0  0  0  0  0  0  0  0
    2.5521   -4.9375    0.1100 H   0  0  0  0  0  0  0  0  0  0  0  0
    2.0743   -2.8203    0.0636 C   0  0  0  0  0  0  0  0  0  0  0  0
    3.1270   -2.5010    0.0583 H   0  0  0  0  0  0  0  0  0  0  0  0
  1 30  1  0  0  0  0
  2 31  1  0  0  0  0
  2 38  1  0  0  0  0
  4  5  1  0  0  0  0
  4  3  1  0  0  0  0
  6  4  2  0  0  0  0
  7  6  1  0  0  0  0
  8  6  1  0  0  0  0
  8 10  2  0  0  0  0
  9  8  1  0  0  0  0
 10 12  1  0  0  0  0
 11 10  1  0  0  0  0
 12  3  1  0  0  0  0
 12 13  2  0  0  0  0
 13 14  1  0  0  0  0
 13  1  1  0  0  0  0
 14 16  2  0  0  0  0
 15 14  1  0  0  0  0
 16 17  1  0  0  0  0
 16 28  1  0  0  0  0
 17 18  1  0  0  0  0
 18 20  2  0  0  0  0
 18 19  1  0  0  0  0
 20 21  1  0  0  0  0
 22 20  1  0  0  0  0
 23 22  1  0  0  0  0
 24 26  1  0  0  0  0
 24 22  2  0  0  0  0
 25 24  1  0  0  0  0
 26 17  2  0  0  0  0
 27 26  1  0  0  0  0
 28 29  1  0  0  0  0
 30 28  2  0  0  0  0
 31 30  1  6  0  0  0
 31 32  1  0  0  0  0
 32 33  1  0  0  0  0
 32 34  2  0  0  0  0
 34 35  1  0  0  0  0
 36 34  1  0  0  0  0
 36 37  1  0  0  0  0
 38 36  2  0  0  0  0
 39 38  1  0  0  0  0
M  END
