1,28,29
q = -1.0

 29 31  0  0  1  0  0  0  0  0999 V2000
   -0.4859    1.8290   -0.4803 C   0  0  0  0  0  3  0  0  0  0  0  0
   -1.6895    2.4506   -0.8703 C   0  0  0  0  0  0  0  0  0  0  0  0
   -2.5783    1.8345   -1.0830 H   0  0  0  0  0  0  0  0  0  0  0  0
   -1.7823    3.8469   -1.0003 C   0  0  0  0  0  0  0  0  0  0  0  0
   -2.7347    4.3054   -1.3097 H   0  0  0  0  0  0  0  0  0  0  0  0
   -0.6680    4.6672   -0.7406 C   0  0  0  0  0  0  0  0  0  0  0  0
   -0.7457    5.7587   -0.8492 H   0  0  0  0  0  0  0  0  0  0  0  0
    0.5383    4.0864   -0.3353 C   0  0  0  0  0  0  0  0  0  0  0  0
    1.4049    4.7313   -0.1215 H   0  0  0  0  0  0  0  0  0  0  0  0
    0.6361    2.6835   -0.1976 C   0  0  0  0  0  0  0  0  0  0  0  0
    1.8513    1.9991    0.2519 C   0  0  1  0  0  3  0  0  0  0  0  0
    3.0849    2.5688    0.6273 C   0  0  0  0  0  0  0  0  0  0  0  0
    3.2167    3.6584    0.5876 H   0  0  0  0  0  0  0  0  0  0  0  0
    4.1311    1.7404    1.0537 C   0  0  0  0  0  0  0  0  0  0  0  0
    5.0945    2.1801    1.3495 H   0  0  0  0  0  0  0  0  0  0  0  0
    3.9519    0.3487    1.1082 C   0  0  0  0  0  0  0  0  0  0  0  0
    4.7657   -0.3063    1.4454 H   0  0  0  0  0  0  0  0  0  0  0  0
    2.7126   -0.1895    0.7228 C   0  0  0  0  0  0  0  0  0  0  0  0
    2.3587   -1.6233    0.6956 C   0  0  2  0  0  3  0  0  0  0  0  0
    3.2502   -2.6598    1.0246 C   0  0  0  0  0  0  0  0  0  0  0  0
    4.2738   -2.4250    1.3463 H   0  0  0  0  0  0  0  0  0  0  0  0
    2.8259   -3.9903    0.9308 C   0  0  0  0  0  0  0  0  0  0  0  0
    3.5132   -4.8107    1.1834 H   0  0  0  0  0  0  0  0  0  0  0  0
    1.5166   -4.2574    0.5022 C   0  0  0  0  0  0  0  0  0  0  0  0
    1.1443   -5.2868    0.4049 H   0  0  0  0  0  0  0  0  0  0  0  0
    0.6769   -3.1828    0.1907 C   0  0  0  0  0  0  0  0  0  0  0  0
   -0.3541   -3.3387   -0.1598 H   0  0  0  0  0  0  0  0  0  0  0  0
    1.7073    0.6351    0.3064 N   0  0  0  0  0  2  0  0  0  0  0  0
    1.0769   -1.8989    0.2912 N   0  0  0  0  0  2  0  0  0  0  0  0
  1 10  1  0  0  0  0
  2  1  2  0  0  0  0
  3  2  1  0  0  0  0
  4  2  1  0  0  0  0
  4  6  2  0  0  0  0
  5  4  1  0  0  0  0
  6  8  1  0  0  0  0
  7  6  1  0  0  0  0
  8 10  2  0  0  0  0
  8  9  1  0  0  0  0
 11 10  1  1  0  0  0
 11 28  1  0  0  0  0
 11 12  1  0  0  0  0
 12 14  2  0  0  0  0
 13 12  1  0  0  0  0
 14 16  1  0  0  0  0
 14 15  1  0  0  0  0
 16 17  1  0  0  0  0
 18 16  2  0  0  0  0
 19 18  1  6  0  0  0
 19 20  1  0  0  0  0
 20 21  1  0  0  0  0
 22 20  2  0  0  0  0
 22 23  1  0  0  0  0
 24 22  1  0  0  0  0
 25 24  1  0  0  0  0
 26 29  1  0  0  0  0
 26 24  2  0  0  0  0
 27 26  1  0  0  0  0
 28 18  1  0  0  0  0
 29 19  1  0  0  0  0
M  END
