1,2,3
q = -1.0, confidence = 0.0

 45 45  0  0  1  0  0  0  0  0999 V2000
    1.8857    0.6423   -0.9013 N   0  0  0  0  0  0  0  0  0  0  0  0
   -1.3735   -1.3616    0.8236 N   0  0  0  0  0  0  0  0  0  0  0  0
   -0.5714    1.0219   -0.0017 C   0  0  0  0  0  3  0  0  0  0  0  0
   -1.9463    0.9806    0.3057 C   0  0  0  0  0  0  0  0  0  0  0  0
   -2.6431    2.1927    0.4419 C   0  0  0  0  0  0  0  0  0  0  0  0
   -1.9650    3.4123    0.2303 C   0  0  0  0  0  0  0  0  0  0  0  0
   -0.5942    3.4393   -0.1006 C   0  0  0  0  0  0  0  0  0  0  0  0
    0.1177    2.2326   -0.2060 C   0  0  0  0  0  0  0  0  0  0  0  0
   -2.5054   -0.4304    0.3403 C   0  0  1  0  0  0  0  0  0  0  0  0
   -1.6301   -2.7944    0.5514 C   0  0  0  0  0  0  0  0  0  0  0  0
   -1.2108   -1.1840    2.2918 C   0  0  0  0  0  0  0  0  0  0  0  0
    1.6179    2.0681   -0.3668 C   0  0  1  0  0  0  0  0  0  0  0  0
    3.2750    0.1871   -0.6702 C   0  0  0  0  0  0  0  0  0  0  0  0
    1.6293    0.6431   -2.3678 C   0  0  0  0  0  0  0  0  0  0  0  0
   -3.0153   -0.8485   -1.0539 C   0  0  0  0  0  0  0  0  0  0  0  0
   -4.0869    0.0814   -1.6221 C   0  0  0  0  0  0  0  0  0  0  0  0
    2.3436    2.3883    0.9582 C   0  0  0  0  0  0  0  0  0  0  0  0
    1.8877    1.6116    2.1941 C   0  0  0  0  0  0  0  0  0  0  0  0
   -3.7143    2.2030    0.7003 H   0  0  0  0  0  0  0  0  0  0  0  0
   -2.5162    4.3597    0.3263 H   0  0  0  0  0  0  0  0  0  0  0  0
   -0.0899    4.4080   -0.2530 H   0  0  0  0  0  0  0  0  0  0  0  0
   -3.3433   -0.5301    1.0697 H   0  0  0  0  0  0  0  0  0  0  0  0
   -2.5836   -3.1166    1.0268 H   0  0  0  0  0  0  0  0  0  0  0  0
   -0.7761   -3.3712    0.9505 H   0  0  0  0  0  0  0  0  0  0  0  0
   -1.6628   -2.9781   -0.5344 H   0  0  0  0  0  0  0  0  0  0  0  0
   -1.0593   -0.1138    2.5175 H   0  0  0  0  0  0  0  0  0  0  0  0
   -0.3250   -1.7542    2.6248 H   0  0  0  0  0  0  0  0  0  0  0  0
   -2.1175   -1.5531    2.8225 H   0  0  0  0  0  0  0  0  0  0  0  0
    2.0283    2.7633   -1.1351 H   0  0  0  0  0  0  0  0  0  0  0  0
    3.4788    0.1138    0.4106 H   0  0  0  0  0  0  0  0  0  0  0  0
    3.9989    0.8824   -1.1506 H   0  0  0  0  0  0  0  0  0  0  0  0
    3.3704   -0.8318   -1.0880 H   0  0  0  0  0  0  0  0  0  0  0  0
    0.6078    1.0156   -2.5611 H   0  0  0  0  0  0  0  0  0  0  0  0
    1.7160   -0.3907   -2.7476 H   0  0  0  0  0  0  0  0  0  0  0  0
    2.3700    1.2969   -2.8821 H   0  0  0  0  0  0  0  0  0  0  0  0
   -2.1346   -0.8859   -1.7321 H   0  0  0  0  0  0  0  0  0  0  0  0
   -3.4312   -1.8746   -0.9995 H   0  0  0  0  0  0  0  0  0  0  0  0
   -4.4659   -0.3129   -2.5857 H   0  0  0  0  0  0  0  0  0  0  0  0
   -3.6954    1.1013   -1.8020 H   0  0  0  0  0  0  0  0  0  0  0  0
   -4.9556    0.1720   -0.9362 H   0  0  0  0  0  0  0  0  0  0  0  0
    3.4397    2.2898    0.8144 H   0  0  0  0  0  0  0  0  0  0  0  0
    2.1695    3.4729    1.1237 H   0  0  0  0  0  0  0  0  0  0  0  0
    0.8246    1.8224    2.4240 H   0  0  0  0  0  0  0  0  0  0  0  0
    2.4952    1.8981    3.0756 H   0  0  0  0  0  0  0  0  0  0  0  0
    1.9677    0.5145    2.0496 H   0  0  0  0  0  0  0  0  0  0  0  0
  1 13  1  0  0  0  0
  1 12  1  0  0  0  0
  2 11  1  0  0  0  0
  3  4  1  0  0  0  0
  4  9  1  0  0  0  0
  4  5  2  0  0  0  0
  5 19  1  0  0  0  0
  6 20  1  0  0  0  0
  6  5  1  0  0  0  0
  7  6  2  0  0  0  0
  8  7  1  0  0  0  0
  8  3  2  0  0  0  0
  9  2  1  0  0  0  0
  9 22  1  1  0  0  0
 10  2  1  0  0  0  0
 10 24  1  0  0  0  0
 10 23  1  0  0  0  0
 11 26  1  0  0  0  0
 11 27  1  0  0  0  0
 11 28  1  0  0  0  0
 12 29  1  6  0  0  0
 12  8  1  0  0  0  0
 12 17  1  0  0  0  0
 13 30  1  0  0  0  0
 14  1  1  0  0  0  0
 15 37  1  0  0  0  0
 15  9  1  0  0  0  0
 16 15  1  0  0  0  0
 16 40  1  0  0  0  0
 17 42  1  0  0  0  0
 17 18  1  0  0  0  0
 18 43  1  0  0  0  0
 18 44  1  0  0  0  0
 21  7  1  0  0  0  0
 25 10  1  0  0  0  0
 31 13  1  0  0  0  0
 32 13  1  0  0  0  0
 33 14  1  0  0  0  0
 34 14  1  0  0  0  0
 35 14  1  0  0  0  0
 36 15  1  0  0  0  0
 38 16  1  0  0  0  0
 39 16  1  0  0  0  0
 41 17  1  0  0  0  0
 45 18  1  0  0  0  0
M  END
