1,2,3
q = -2.0, confidence = 0.726

 64 70  0  0  1  0  0  0  0  0999 V2000
    1.0383    0.9626   -0.6110 N   0  0  0  0  0  2  0  0  0  0  0  0
   -1.3864    0.1118   -0.2776 N   0  0  0  0  0  2  0  0  0  0  0  0
    2.5477   -0.7109    0.7297 C   0  0  0  0  0  3  0  0  0  0  0  0
    3.2992   -1.6259    1.5192 C   0  0  0  0  0  0  0  0  0  0  0  0
    2.7754   -2.3101    2.2103 H   0  0  0  0  0  0  0  0  0  0  0  0
    4.6859   -1.6621    1.4675 C   0  0  0  0  0  0  0  0  0  0  0  0
    5.2610   -2.3347    2.1248 H   0  0  0  0  0  0  0  0  0  0  0  0
    5.3965   -0.8653    0.5239 C   0  0  0  0  0  0  0  0  0  0  0  0
    6.8104   -0.9872    0.3845 C   0  0  0  0  0  0  0  0  0  0  0  0
    7.3451   -1.6659    1.0675 H   0  0  0  0  0  0  0  0  0  0  0  0
    7.4976   -0.2984   -0.6024 C   0  0  0  0  0  0  0  0  0  0  0  0
    8.5878   -0.4088   -0.7029 H   0  0  0  0  0  0  0  0  0  0  0  0
    6.7789    0.5198   -1.5106 C   0  0  0  0  0  0  0  0  0  0  0  0
    7.3103    1.0194   -2.3350 H   0  0  0  0  0  0  0  0  0  0  0  0
    5.4055    0.6832   -1.3811 C   0  0  0  0  0  0  0  0  0  0  0  0
    4.8754    1.2805   -2.1332 H   0  0  0  0  0  0  0  0  0  0  0  0
    4.6681    0.0412   -0.3393 C   0  0  0  0  0  0  0  0  0  0  0  0
    3.2435    0.1656   -0.1267 C   0  0  0  0  0  0  0  0  0  0  0  0
    2.3841    1.2137   -0.7226 C   0  0  2  0  0  3  0  0  0  0  0  0
    2.8053    2.4440   -1.2648 C   0  0  0  0  0  0  0  0  0  0  0  0
    3.8697    2.7012   -1.2830 H   0  0  0  0  0  0  0  0  0  0  0  0
    1.8534    3.3639   -1.7294 C   0  0  0  0  0  0  0  0  0  0  0  0
    2.1834    4.3234   -2.1560 H   0  0  0  0  0  0  0  0  0  0  0  0
    0.4923    3.0695   -1.6268 C   0  0  0  0  0  0  0  0  0  0  0  0
   -0.2794    3.7795   -1.9534 H   0  0  0  0  0  0  0  0  0  0  0  0
    0.1204    1.8490   -1.0348 C   0  0  0  0  0  0  0  0  0  0  0  0
   -1.3238    1.4782   -0.7501 C   0  0  2  0  0  0  0  0  0  0  0  0
   -1.8895    1.6224   -1.7034 H   0  0  0  0  0  0  0  0  0  0  0  0
   -1.8571    2.5335    0.2421 C   0  0  0  0  0  0  0  0  0  0  0  0
   -2.6267    3.6230   -0.2033 C   0  0  0  0  0  0  0  0  0  0  0  0
   -2.8944    3.6972   -1.2706 H   0  0  0  0  0  0  0  0  0  0  0  0
   -3.0761    4.5997    0.6996 C   0  0  0  0  0  0  0  0  0  0  0  0
   -3.6884    5.4402    0.3384 H   0  0  0  0  0  0  0  0  0  0  0  0
   -2.7537    4.4973    2.0617 C   0  0  0  0  0  0  0  0  0  0  0  0
   -3.1075    5.2592    2.7727 H   0  0  0  0  0  0  0  0  0  0  0  0
   -1.9826    3.4127    2.5132 C   0  0  0  0  0  0  0  0  0  0  0  0
   -1.7277    3.3234    3.5803 H   0  0  0  0  0  0  0  0  0  0  0  0
   -1.5391    2.4376    1.6087 C   0  0  0  0  0  0  0  0  0  0  0  0
   -0.9561    1.5730    1.9645 H   0  0  0  0  0  0  0  0  0  0  0  0
   -2.6889   -0.5662   -0.4575 C   0  0  1  0  0  0  0  0  0  0  0  0
   -2.7008   -1.8623    0.3906 C   0  0  0  0  0  0  0  0  0  0  0  0
   -2.5835   -1.5951    1.4605 H   0  0  0  0  0  0  0  0  0  0  0  0
   -1.8420   -2.5117    0.1054 H   0  0  0  0  0  0  0  0  0  0  0  0
   -4.0041   -2.6592    0.1882 C   0  0  1  0  0  0  0  0  0  0  0  0
   -3.9580   -3.5844    0.8008 H   0  0  0  0  0  0  0  0  0  0  0  0
   -5.1936   -1.7931    0.6394 C   0  0  0  0  0  0  0  0  0  0  0  0
   -5.0971   -1.5448    1.7181 H   0  0  0  0  0  0  0  0  0  0  0  0
   -6.1453   -2.3542    0.5185 H   0  0  0  0  0  0  0  0  0  0  0  0
   -5.2244   -0.5035   -0.2003 C   0  0  1  0  0  0  0  0  0  0  0  0
   -6.0723    0.1351    0.1276 H   0  0  0  0  0  0  0  0  0  0  0  0
   -3.9097    0.2781   -0.0063 C   0  0  0  0  0  0  0  0  0  0  0  0
   -3.9611    1.2193   -0.5899 H   0  0  0  0  0  0  0  0  0  0  0  0
   -3.7805    0.5726    1.0559 H   0  0  0  0  0  0  0  0  0  0  0  0
   -2.8944   -0.9634   -1.9452 C   0  0  0  0  0  0  0  0  0  0  0  0
   -2.0274   -1.5785   -2.2670 H   0  0  0  0  0  0  0  0  0  0  0  0
   -2.8946   -0.0491   -2.5778 H   0  0  0  0  0  0  0  0  0  0  0  0
   -4.1656   -3.0267   -1.2986 C   0  0  0  0  0  0  0  0  0  0  0  0
   -3.3201   -3.6684   -1.6277 H   0  0  0  0  0  0  0  0  0  0  0  0
   -5.0962   -3.6159   -1.4460 H   0  0  0  0  0  0  0  0  0  0  0  0
   -5.3938   -0.8639   -1.6885 C   0  0  0  0  0  0  0  0  0  0  0  0
   -6.3524   -1.4040   -1.8449 H   0  0  0  0  0  0  0  0  0  0  0  0
   -5.4408    0.0620   -2.3020 H   0  0  0  0  0  0  0  0  0  0  0  0
   -4.2101   -1.7386   -2.1425 C   0  0  1  0  0  0  0  0  0  0  0  0
   -4.3265   -1.9998   -3.2162 H   0  0  0  0  0  0  0  0  0  0  0  0
  3  4  1  0  0  0  0
  4  5  1  0  0  0  0
  6  4  2  0  0  0  0
  6  7  1  0  0  0  0
  8  6  1  0  0  0  0
  9  8  1  0  0  0  0
  9 10  1  0  0  0  0
 11  9  2  0  0  0  0
 12 11  1  0  0  0  0
 13 15  2  0  0  0  0
 13 11  1  0  0  0  0
 14 13  1  0  0  0  0
 15 17  1  0  0  0  0
 16 15  1  0  0  0  0
 17 18  1  0  0  0  0
 17  8  2  0  0  0  0
 18  3  2  0  0  0  0
 19  1  1  0  0  0  0
 19 18  1  1  0  0  0
 20 19  1  0  0  0  0
 21 20  1  0  0  0  0
 22 24  1  0  0  0  0
 22 20  2  0  0  0  0
 23 22  1  0  0  0  0
 24 26  2  0  0  0  0
 25 24  1  0  0  0  0
 26 27  1  0  0  0  0
 26  1  1  0  0  0  0
 27 28  1  6  0  0  0
 27  2  1  0  0  0  0
 27 29  1  0  0  0  0
 29 38  1  0  0  0  0
 30 29  2  0  0  0  0
 30 32  1  0  0  0  0
 31 30  1  0  0  0  0
 32 34  2  0  0  0  0
 33 32  1  0  0  0  0
 34 36  1  0  0  0  0
 34 35  1  0  0  0  0
 36 37  1  0  0  0  0
 38 39  1  0  0  0  0
 38 36  2  0  0  0  0
 40  2  1  1  0  0  0
 40 51  1  0  0  0  0
 40 41  1  0  0  0  0
 41 42  1  0  0  0  0
 43 41  1  0  0  0  0
 44 41  1  0  0  0  0
 44 46  1  0  0  0  0
 44 45  1  1  0  0  0
 46 47  1  0  0  0  0
 48 46  1  0  0  0  0
 49 51  1  0  0  0  0
 49 50  1  1  0  0  0
 49 46  1  0  0  0  0
 51 53  1  0  0  0  0
 52 51  1  0  0  0  0
 54 40  1  0  0  0  0
 55 54  1  0  0  0  0
 56 54  1  0  0  0  0
 57 44  1  0  0  0  0
 58 57  1  0  0  0  0
 59 57  1  0  0  0  0
 60 49  1  0  0  0  0
 61 60  1  0  0  0  0
 62 60  1  0  0  0  0
 63 64  1  6  0  0  0
 63 54  1  0  0  0  0
 63 60  1  0  0  0  0
 63 57  1  0  0  0  0
M  END
