8,36,37
q = -1.0

 37 39  0  0  0  0  0  0  0  0999 V2000
    1.2291    4.2318    0.0323 C   0  0  0  0  0  0  0  0  0  0  0  0
    2.1744    4.7965    0.0559 H   0  0  0  0  0  0  0  0  0  0  0  0
    0.0003    4.9197    0.0001 C   0  0  0  0  0  0  0  0  0  0  0  0
    0.0004    6.0195    0.0001 H   0  0  0  0  0  0  0  0  0  0  0  0
   -1.2285    4.2320   -0.0322 C   0  0  0  0  0  3  0  0  0  0  0  0
   -2.1738    4.7968   -0.0559 H   0  0  0  0  0  0  0  0  0  0  0  0
   -1.2349    2.8188   -0.0327 C   0  0  0  0  0  0  0  0  0  0  0  0
    0.0001    2.1304    0.0000 C   0  0  0  0  0  3  0  0  0  0  0  0
    1.2353    2.8186    0.0328 C   0  0  0  0  0  0  0  0  0  0  0  0
    2.3477    1.8982    0.0793 C   0  0  0  0  0  3  0  0  0  0  0  0
    3.4031    2.2261    0.1267 H   0  0  0  0  0  0  0  0  0  0  0  0
    3.1151   -0.3398    0.0813 C   0  0  0  0  0  0  0  0  0  0  0  0
    4.1899   -0.1991   -0.8233 C   0  0  0  0  0  0  0  0  0  0  0  0
    4.1761    0.6201   -1.5578 H   0  0  0  0  0  0  0  0  0  0  0  0
    5.2398   -1.1268   -0.8123 C   0  0  0  0  0  0  0  0  0  0  0  0
    6.0674   -1.0197   -1.5296 H   0  0  0  0  0  0  0  0  0  0  0  0
    5.2252   -2.1967    0.0967 C   0  0  0  0  0  0  0  0  0  0  0  0
    6.0474   -2.9279    0.1010 H   0  0  0  0  0  0  0  0  0  0  0  0
    4.1489   -2.3406    0.9879 C   0  0  0  0  0  0  0  0  0  0  0  0
    4.1263   -3.1835    1.6947 H   0  0  0  0  0  0  0  0  0  0  0  0
    3.0878   -1.4274    0.9781 C   0  0  0  0  0  0  0  0  0  0  0  0
    2.2302   -1.5424    1.6531 H   0  0  0  0  0  0  0  0  0  0  0  0
   -2.3474    1.8985   -0.0793 C   0  0  0  0  0  0  0  0  0  0  0  0
   -3.4028    2.2265   -0.1265 H   0  0  0  0  0  0  0  0  0  0  0  0
   -3.1151   -0.3395   -0.0812 C   0  0  0  0  0  0  0  0  0  0  0  0
   -4.1892   -0.1989    0.8241 C   0  0  0  0  0  0  0  0  0  0  0  0
   -4.1750    0.6201    1.5588 H   0  0  0  0  0  0  0  0  0  0  0  0
   -5.2392   -1.1266    0.8134 C   0  0  0  0  0  0  0  0  0  0  0  0
   -6.0664   -1.0196    1.5313 H   0  0  0  0  0  0  0  0  0  0  0  0
   -5.2252   -2.1962   -0.0959 C   0  0  0  0  0  0  0  0  0  0  0  0
   -6.0474   -2.9274   -0.0999 H   0  0  0  0  0  0  0  0  0  0  0  0
   -4.1494   -2.3399   -0.9878 C   0  0  0  0  0  0  0  0  0  0  0  0
   -4.1274   -3.1826   -1.6948 H   0  0  0  0  0  0  0  0  0  0  0  0
   -3.0883   -1.4268   -0.9783 C   0  0  0  0  0  0  0  0  0  0  0  0
   -2.2311   -1.5416   -1.6538 H   0  0  0  0  0  0  0  0  0  0  0  0
    2.0612    0.6092    0.0941 N   0  0  0  0  0  2  0  0  0  0  0  0
   -2.0611    0.6095   -0.0942 N   0  0  0  0  0  2  0  0  0  0  0  0
  1  9  1  0  0  0  0
  1  2  1  0  0  0  0
  3  4  1  0  0  0  0
  3  1  2  0  0  0  0
  5  3  1  0  0  0  0
  6  5  1  0  0  0  0
  7  5  1  0  0  0  0
  7  8  1  0  0  0  0
  8  9  2  0  0  0  0
  9 10  1  0  0  0  0
 10 36  1  0  0  0  0
 10 11  1  0  0  0  0
 12 36  1  0  0  0  0
 12 21  1  0  0  0  0
 13 15  1  0  0  0  0
 13 12  2  0  0  0  0
 14 13  1  0  0  0  0
 15 17  2  0  0  0  0
 16 15  1  0  0  0  0
 17 18  1  0  0  0  0
 17 19  1  0  0  0  0
 19 20  1  0  0  0  0
 21 19  2  0  0  0  0
 21 22  1  0  0  0  0
 23  7  2  0  0  0  0
 24 23  1  0  0  0  0
 25 26  1  0  0  0  0
 26 27  1  0  0  0  0
 28 26  2  0  0  0  0
 28 29  1  0  0  0  0
 30 28  1  0  0  0  0
 31 30  1  0  0  0  0
 32 34  1  0  0  0  0
 32 30  2  0  0  0  0
 33 32  1  0  0  0  0
 34 25  2  0  0  0  0
 35 34  1  0  0  0  0
 37 25  1  0  0  0  0
 37 23  1  0  0  0  0
M  END
