3,4,5
q = -1.0, confidence = 0.0

 51 53  0  0  1  0  0  0  0  0999 V2000
    3.5560    2.0282    0.7080 O   0  0  0  0  0  0  0  0  0  0  0  0
   -3.5568    2.0271   -0.7075 O   0  0  0  0  0  0  0  0  0  0  0  0
    1.9615    0.4637    0.4033 N   0  0  0  0  0  2  0  0  0  0  0  0
   -1.9615    0.4631   -0.4042 N   0  0  0  0  0  2  0  0  0  0  0  0
   -0.0003    2.0145   -0.0001 C   0  0  0  0  0  2  0  0  0  0  0  0
    1.2051    2.7098    0.2415 C   0  0  0  0  0  0  0  0  0  0  0  0
    1.2075    4.1183    0.2425 C   0  0  0  0  0  0  0  0  0  0  0  0
   -0.0009    4.8038    0.0006 C   0  0  0  0  0  0  0  0  0  0  0  0
   -1.2090    4.1180   -0.2416 C   0  0  0  0  0  0  0  0  0  0  0  0
   -1.2060    2.7094   -0.2413 C   0  0  0  0  0  0  0  0  0  0  0  0
    2.2733    1.7402    0.4571 C   0  0  1  0  0  3  0  0  0  0  0  0
    4.2424    0.7457    0.8817 C   0  0  0  0  0  0  0  0  0  0  0  0
    3.1680   -0.3457    0.5996 C   0  0  2  0  0  0  0  0  0  0  0  0
    3.4379   -1.2332   -0.6198 C   0  0  0  0  0  0  0  0  0  0  0  0
    4.5131   -2.3146   -0.4127 C   0  0  0  0  0  0  0  0  0  0  0  0
    4.7911   -3.0252   -1.7434 C   0  0  0  0  0  0  0  0  0  0  0  0
    4.1001   -3.3242    0.6687 C   0  0  0  0  0  0  0  0  0  0  0  0
   -2.2739    1.7395   -0.4572 C   0  0  0  0  0  0  0  0  0  0  0  0
   -4.2425    0.7444   -0.8825 C   0  0  0  0  0  0  0  0  0  0  0  0
   -3.1679   -0.3467   -0.6000 C   0  0  2  0  0  0  0  0  0  0  0  0
   -3.4374   -1.2336    0.6200 C   0  0  0  0  0  0  0  0  0  0  0  0
   -4.5123   -2.3154    0.4137 C   0  0  0  0  0  0  0  0  0  0  0  0
   -4.7899   -3.0252    1.7449 C   0  0  0  0  0  0  0  0  0  0  0  0
   -4.0992   -3.3256   -0.6671 C   0  0  0  0  0  0  0  0  0  0  0  0
    2.1369    4.6775    0.4289 H   0  0  0  0  0  0  0  0  0  0  0  0
   -0.0011    5.9036    0.0009 H   0  0  0  0  0  0  0  0  0  0  0  0
   -2.1387    4.6769   -0.4276 H   0  0  0  0  0  0  0  0  0  0  0  0
    5.0859    0.7183    0.1629 H   0  0  0  0  0  0  0  0  0  0  0  0
    4.6433    0.7224    1.9141 H   0  0  0  0  0  0  0  0  0  0  0  0
    3.0057   -0.9906    1.4878 H   0  0  0  0  0  0  0  0  0  0  0  0
    2.4744   -1.7250   -0.8767 H   0  0  0  0  0  0  0  0  0  0  0  0
    3.7104   -0.5773   -1.4763 H   0  0  0  0  0  0  0  0  0  0  0  0
    5.4614   -1.8213   -0.0891 H   0  0  0  0  0  0  0  0  0  0  0  0
    5.5833   -3.7935   -1.6343 H   0  0  0  0  0  0  0  0  0  0  0  0
    3.8750   -3.5341   -2.1103 H   0  0  0  0  0  0  0  0  0  0  0  0
    5.1139   -2.3108   -2.5284 H   0  0  0  0  0  0  0  0  0  0  0  0
    4.0379   -2.8654    1.6766 H   0  0  0  0  0  0  0  0  0  0  0  0
    3.0999   -3.7486    0.4412 H   0  0  0  0  0  0  0  0  0  0  0  0
    4.8284   -4.1578    0.7349 H   0  0  0  0  0  0  0  0  0  0  0  0
   -5.0868    0.7163   -0.1645 H   0  0  0  0  0  0  0  0  0  0  0  0
   -4.6424    0.7214   -1.9152 H   0  0  0  0  0  0  0  0  0  0  0  0
   -3.0056   -0.9920   -1.4879 H   0  0  0  0  0  0  0  0  0  0  0  0
   -2.4737   -1.7250    0.8770 H   0  0  0  0  0  0  0  0  0  0  0  0
   -3.7099   -0.5773    1.4761 H   0  0  0  0  0  0  0  0  0  0  0  0
   -5.4608   -1.8226    0.0899 H   0  0  0  0  0  0  0  0  0  0  0  0
   -5.1127   -2.3104    2.5295 H   0  0  0  0  0  0  0  0  0  0  0  0
   -5.5819   -3.7938    1.6364 H   0  0  0  0  0  0  0  0  0  0  0  0
   -3.8736   -3.5336    2.1120 H   0  0  0  0  0  0  0  0  0  0  0  0
   -3.0988   -3.7495   -0.4395 H   0  0  0  0  0  0  0  0  0  0  0  0
   -4.8272   -4.1595   -0.7325 H   0  0  0  0  0  0  0  0  0  0  0  0
   -4.0373   -2.8674   -1.6753 H   0  0  0  0  0  0  0  0  0  0  0  0
  1 12  1  0  0  0  0
  2 18  1  0  0  0  0
  3 11  1  0  0  0  0
  3 13  1  0  0  0  0
  5  6  1  0  0  0  0
  6  7  2  0  0  0  0
  7 25  1  0  0  0  0
  8 26  1  0  0  0  0
  8  7  1  0  0  0  0
  9 10  1  0  0  0  0
  9  8  2  0  0  0  0
 10  5  1  0  0  0  0
 11  6  1  1  0  0  0
 11  1  1  0  0  0  0
 12 29  1  0  0  0  0
 13 12  1  0  0  0  0
 13 30  1  1  0  0  0
 14 15  1  0  0  0  0
 14 13  1  0  0  0  0
 15 33  1  0  0  0  0
 15 17  1  0  0  0  0
 16 34  1  0  0  0  0
 16 15  1  0  0  0  0
 17 39  1  0  0  0  0
 17 37  1  0  0  0  0
 18  4  1  0  0  0  0
 18 10  2  0  0  0  0
 19  2  1  0  0  0  0
 19 20  1  0  0  0  0
 19 40  1  0  0  0  0
 20 42  1  6  0  0  0
 20  4  1  0  0  0  0
 20 21  1  0  0  0  0
 21 43  1  0  0  0  0
 21 44  1  0  0  0  0
 22 21  1  0  0  0  0
 22 23  1  0  0  0  0
 23 48  1  0  0  0  0
 23 46  1  0  0  0  0
 24 49  1  0  0  0  0
 24 22  1  0  0  0  0
 27  9  1  0  0  0  0
 28 12  1  0  0  0  0
 31 14  1  0  0  0  0
 32 14  1  0  0  0  0
 35 16  1  0  0  0  0
 36 16  1  0  0  0  0
 38 17  1  0  0  0  0
 41 19  1  0  0  0  0
 45 22  1  0  0  0  0
 47 23  1  0  0  0  0
 50 24  1  0  0  0  0
 51 24  1  0  0  0  0
M  END
