1,4,29
q = -1.0

 54 55  0  0  1  0  0  0  0  0999 V2000
    0.1305    1.6385   -0.1401 N   0  0  0  0  0  2  0  0  0  0  0  0
    1.4168    1.4102    0.2206 N   0  0  0  0  0  0  0  0  0  0  0  0
    1.7129   -0.9718    0.1346 N   0  0  0  0  0  0  0  0  0  0  0  0
    0.5292   -1.3820   -0.3854 N   0  0  0  0  0  2  0  0  0  0  0  0
   -1.3211    2.9228   -2.8914 C   0  0  0  0  0  0  0  0  0  0  0  0
   -0.5041    3.3672   -3.4976 H   0  0  0  0  0  0  0  0  0  0  0  0
   -2.2879    3.2788   -3.3012 H   0  0  0  0  0  0  0  0  0  0  0  0
   -1.2890    1.8215   -3.0062 H   0  0  0  0  0  0  0  0  0  0  0  0
   -1.1898    3.3192   -1.4097 C   0  0  0  0  0  0  0  0  0  0  0  0
   -2.0083    2.8110   -0.8565 H   0  0  0  0  0  0  0  0  0  0  0  0
   -1.3156    4.8348   -1.2045 C   0  0  0  0  0  0  0  0  0  0  0  0
   -1.2386    5.1081   -0.1334 H   0  0  0  0  0  0  0  0  0  0  0  0
   -2.2939    5.1943   -1.5810 H   0  0  0  0  0  0  0  0  0  0  0  0
   -0.5256    5.3863   -1.7566 H   0  0  0  0  0  0  0  0  0  0  0  0
    0.0948    2.7868   -0.8356 C   0  0  2  0  0  3  0  0  0  0  0  0
    1.4205    3.2974   -0.9150 C   0  0  0  0  0  0  0  0  0  0  0  0
    1.7363    4.2216   -1.4096 H   0  0  0  0  0  0  0  0  0  0  0  0
    2.2495    2.3974   -0.2314 C   0  0  0  0  0  0  0  0  0  0  0  0
    3.7385    2.3691   -0.0279 C   0  0  0  0  0  0  0  0  0  0  0  0
    3.9395    1.6406    0.7895 H   0  0  0  0  0  0  0  0  0  0  0  0
    4.2782    3.7376    0.4126 C   0  0  0  0  0  0  0  0  0  0  0  0
    4.1069    4.5020   -0.3728 H   0  0  0  0  0  0  0  0  0  0  0  0
    5.3703    3.6857    0.5946 H   0  0  0  0  0  0  0  0  0  0  0  0
    3.7863    4.0888    1.3406 H   0  0  0  0  0  0  0  0  0  0  0  0
    4.4455    1.8619   -1.3007 C   0  0  0  0  0  0  0  0  0  0  0  0
    4.0398    0.8846   -1.6296 H   0  0  0  0  0  0  0  0  0  0  0  0
    5.5349    1.7474   -1.1275 H   0  0  0  0  0  0  0  0  0  0  0  0
    4.3027    2.5791   -2.1343 H   0  0  0  0  0  0  0  0  0  0  0  0
    1.4865    0.1769    0.9845 C   0  0  0  0  0  3  0  0  0  0  0  0
    2.1730    0.2304    1.8449 H   0  0  0  0  0  0  0  0  0  0  0  0
    5.1962   -2.0791   -0.8039 C   0  0  0  0  0  0  0  0  0  0  0  0
    5.0869   -3.1704   -0.9703 H   0  0  0  0  0  0  0  0  0  0  0  0
    6.2233   -1.9027   -0.4281 H   0  0  0  0  0  0  0  0  0  0  0  0
    5.0935   -1.5732   -1.7842 H   0  0  0  0  0  0  0  0  0  0  0  0
    4.1602   -1.5710    0.2055 C   0  0  0  0  0  0  0  0  0  0  0  0
    4.3327   -0.4830    0.3573 H   0  0  0  0  0  0  0  0  0  0  0  0
    4.3138   -2.2635    1.5749 C   0  0  0  0  0  0  0  0  0  0  0  0
    3.5798   -1.8821    2.3127 H   0  0  0  0  0  0  0  0  0  0  0  0
    5.3310   -2.0989    1.9844 H   0  0  0  0  0  0  0  0  0  0  0  0
    4.1519   -3.3561    1.4775 H   0  0  0  0  0  0  0  0  0  0  0  0
    2.7571   -1.7355   -0.3117 C   0  0  1  0  0  3  0  0  0  0  0  0
    2.1813   -2.6734   -1.1795 C   0  0  0  0  0  0  0  0  0  0  0  0
    2.7113   -3.4556   -1.7320 H   0  0  0  0  0  0  0  0  0  0  0  0
    0.7800   -2.4210   -1.1991 C   0  0  0  0  0  0  0  0  0  0  0  0
   -0.3246   -3.1499   -1.9147 C   0  0  0  0  0  0  0  0  0  0  0  0
   -1.2213   -2.4979   -1.8365 H   0  0  0  0  0  0  0  0  0  0  0  0
    0.0082   -3.3510   -3.4002 C   0  0  0  0  0  0  0  0  0  0  0  0
    0.2107   -2.3853   -3.9046 H   0  0  0  0  0  0  0  0  0  0  0  0
   -0.8389   -3.8393   -3.9222 H   0  0  0  0  0  0  0  0  0  0  0  0
    0.8993   -4.0004   -3.5330 H   0  0  0  0  0  0  0  0  0  0  0  0
   -0.6421   -4.4832   -1.2130 C   0  0  0  0  0  0  0  0  0  0  0  0
    0.2342   -5.1646   -1.2298 H   0  0  0  0  0  0  0  0  0  0  0  0
   -1.4820   -4.9951   -1.7248 H   0  0  0  0  0  0  0  0  0  0  0  0
   -0.9357   -4.3222   -0.1576 H   0  0  0  0  0  0  0  0  0  0  0  0
  1  2  1  0  0  0  0
  2 29  1  0  0  0  0
  3 29  1  0  0  0  0
  4  3  1  0  0  0  0
  5  9  1  0  0  0  0
  6  5  1  0  0  0  0
  7  5  1  0  0  0  0
  8  5  1  0  0  0  0
  9 11  1  0  0  0  0
  9 10  1  0  0  0  0
 11 12  1  0  0  0  0
 13 11  1  0  0  0  0
 14 11  1  0  0  0  0
 15  9  1  6  0  0  0
 15  1  1  0  0  0  0
 16 15  1  0  0  0  0
 16 18  2  0  0  0  0
 17 16  1  0  0  0  0
 18 19  1  0  0  0  0
 18  2  1  0  0  0  0
 19 21  1  0  0  0  0
 19 20  1  0  0  0  0
 21 23  1  0  0  0  0
 21 24  1  0  0  0  0
 22 21  1  0  0  0  0
 25 27  1  0  0  0  0
 25 19  1  0  0  0  0
 26 25  1  0  0  0  0
 28 25  1  0  0  0  0
 29 30  1  0  0  0  0
 31 33  1  0  0  0  0
 31 35  1  0  0  0  0
 32 31  1  0  0  0  0
 34 31  1  0  0  0  0
 35 36  1  0  0  0  0
 35 37  1  0  0  0  0
 37 39  1  0  0  0  0
 37 38  1  0  0  0  0
 40 37  1  0  0  0  0
 41  3  1  0  0  0  0
 41 35  1  1  0  0  0
 42 41  1  0  0  0  0
 43 42  1  0  0  0  0
 44 42  2  0  0  0  0
 44  4  1  0  0  0  0
 45 46  1  0  0  0  0
 45 51  1  0  0  0  0
 45 44  1  0  0  0  0
 47 45  1  0  0  0  0
 48 47  1  0  0  0  0
 49 47  1  0  0  0  0
 50 47  1  0  0  0  0
 51 54  1  0  0  0  0
 52 51  1  0  0  0  0
 53 51  1  0  0  0  0
M  END
