2,4,8
q = -1.0

 63 65  0  0  1  0  0  0  0  0999 V2000
    2.6761    1.5211   -1.9589 O   0  0  0  0  0  0  0  0  0  0  0  0
   -0.6234    1.7194    0.0385 N   0  0  0  0  0  2  0  0  0  0  0  0
    0.7324    1.8044    0.0548 N   0  0  0  0  0  0  0  0  0  0  0  0
    0.2501   -1.0392    1.0399 N   0  0  0  0  0  2  0  0  0  0  0  0
    1.4035   -0.3535    0.8533 N   0  0  0  0  0  0  0  0  0  0  0  0
    2.9200   -0.7363   -1.6690 N   0  0  0  0  0  0  0  0  0  0  0  0
    2.4819   -1.9264   -1.1738 N   0  0  0  0  0  0  0  0  0  0  0  0
    1.2889    0.5152   -0.2897 C   0  0  2  0  0  3  0  0  0  0  0  0
    2.3341    0.5251   -1.3364 C   0  0  0  0  0  0  0  0  0  0  0  0
   -1.1170    2.8933    0.4642 C   0  0  1  0  0  3  0  0  0  0  0  0
   -0.0224    3.7457    0.7704 C   0  0  0  0  0  0  0  0  0  0  0  0
   -0.0796    4.7755    1.1379 H   0  0  0  0  0  0  0  0  0  0  0  0
    1.1520    3.0278    0.5086 C   0  0  0  0  0  0  0  0  0  0  0  0
   -2.5969    3.1549    0.5238 C   0  0  0  0  0  0  0  0  0  0  0  0
   -3.0902    2.1734    0.3571 H   0  0  0  0  0  0  0  0  0  0  0  0
   -3.0277    4.1102   -0.6034 C   0  0  0  0  0  0  0  0  0  0  0  0
   -2.5362    5.1003   -0.5019 H   0  0  0  0  0  0  0  0  0  0  0  0
   -4.1245    4.2694   -0.5735 H   0  0  0  0  0  0  0  0  0  0  0  0
   -2.7712    3.6974   -1.5986 H   0  0  0  0  0  0  0  0  0  0  0  0
   -3.0159    3.6712    1.9083 C   0  0  0  0  0  0  0  0  0  0  0  0
   -2.7324    2.9564    2.7061 H   0  0  0  0  0  0  0  0  0  0  0  0
   -4.1143    3.8132    1.9501 H   0  0  0  0  0  0  0  0  0  0  0  0
   -2.5425    4.6490    2.1377 H   0  0  0  0  0  0  0  0  0  0  0  0
    2.5914    3.4460    0.6356 C   0  0  0  0  0  0  0  0  0  0  0  0
    3.2098    2.5283    0.5462 H   0  0  0  0  0  0  0  0  0  0  0  0
    2.9919    4.3930   -0.5108 C   0  0  0  0  0  0  0  0  0  0  0  0
    2.8384    3.9017   -1.4889 H   0  0  0  0  0  0  0  0  0  0  0  0
    4.0606    4.6755   -0.4203 H   0  0  0  0  0  0  0  0  0  0  0  0
    2.3879    5.3228   -0.4774 H   0  0  0  0  0  0  0  0  0  0  0  0
    2.8563    4.0806    2.0107 C   0  0  0  0  0  0  0  0  0  0  0  0
    2.2973    5.0322    2.1222 H   0  0  0  0  0  0  0  0  0  0  0  0
    3.9339    4.3114    2.1292 H   0  0  0  0  0  0  0  0  0  0  0  0
    2.5501    3.4125    2.8396 H   0  0  0  0  0  0  0  0  0  0  0  0
    0.4432   -1.8923    2.0597 C   0  0  2  0  0  3  0  0  0  0  0  0
    1.7735   -1.7242    2.5319 C   0  0  0  0  0  0  0  0  0  0  0  0
    2.2460   -2.2641    3.3592 H   0  0  0  0  0  0  0  0  0  0  0  0
    2.3732   -0.7410    1.7357 C   0  0  0  0  0  0  0  0  0  0  0  0
   -0.6280   -2.8452    2.5133 C   0  0  0  0  0  0  0  0  0  0  0  0
   -1.5327   -2.5985    1.9177 H   0  0  0  0  0  0  0  0  0  0  0  0
   -0.2271   -4.2989    2.2082 C   0  0  0  0  0  0  0  0  0  0  0  0
   -0.0417   -4.4431    1.1259 H   0  0  0  0  0  0  0  0  0  0  0  0
   -1.0370   -4.9925    2.5121 H   0  0  0  0  0  0  0  0  0  0  0  0
    0.6925   -4.5881    2.7588 H   0  0  0  0  0  0  0  0  0  0  0  0
   -0.9644   -2.6382    3.9984 C   0  0  0  0  0  0  0  0  0  0  0  0
   -0.0885   -2.8528    4.6462 H   0  0  0  0  0  0  0  0  0  0  0  0
   -1.7848   -3.3171    4.3064 H   0  0  0  0  0  0  0  0  0  0  0  0
   -1.2899   -1.5973    4.1941 H   0  0  0  0  0  0  0  0  0  0  0  0
    3.7664   -0.1757    1.7426 C   0  0  0  0  0  0  0  0  0  0  0  0
    3.8129    0.5868    0.9346 H   0  0  0  0  0  0  0  0  0  0  0  0
    4.8120   -1.2599    1.4289 C   0  0  0  0  0  0  0  0  0  0  0  0
    4.8106   -2.0428    2.2147 H   0  0  0  0  0  0  0  0  0  0  0  0
    5.8280   -0.8180    1.3918 H   0  0  0  0  0  0  0  0  0  0  0  0
    4.6054   -1.7528    0.4603 H   0  0  0  0  0  0  0  0  0  0  0  0
    4.0664    0.5314    3.0758 C   0  0  0  0  0  0  0  0  0  0  0  0
    3.3192    1.3184    3.2963 H   0  0  0  0  0  0  0  0  0  0  0  0
    5.0698    1.0020    3.0510 H   0  0  0  0  0  0  0  0  0  0  0  0
    4.0517   -0.1929    3.9156 H   0  0  0  0  0  0  0  0  0  0  0  0
    3.2171   -2.8418   -1.8015 C   0  0  0  0  0  0  0  0  0  0  0  0
    3.0553   -3.9055   -1.5830 H   0  0  0  0  0  0  0  0  0  0  0  0
    4.1438   -2.2499   -2.7147 C   0  0  0  0  0  0  0  0  0  0  0  0
    4.8645   -2.7534   -3.3670 H   0  0  0  0  0  0  0  0  0  0  0  0
    3.9171   -0.8905   -2.6108 C   0  0  0  0  0  0  0  0  0  0  0  0
    4.3419   -0.0149   -3.1104 H   0  0  0  0  0  0  0  0  0  0  0  0
  1  9  2  0  0  0  0
  2  3  1  0  0  0  0
  2 10  1  0  0  0  0
  3 13  1  0  0  0  0
  4 34  1  0  0  0  0
  5  4  1  0  0  0  0
  5 37  1  0  0  0  0
  6  9  1  0  0  0  0
  6  7  1  0  0  0  0
  8  9  1  1  0  0  0
  8  3  1  0  0  0  0
  8  5  1  0  0  0  0
 10 14  1  6  0  0  0
 10 11  1  0  0  0  0
 11 12  1  0  0  0  0
 13 24  1  0  0  0  0
 13 11  2  0  0  0  0
 14 20  1  0  0  0  0
 15 14  1  0  0  0  0
 16 18  1  0  0  0  0
 16 17  1  0  0  0  0
 16 14  1  0  0  0  0
 19 16  1  0  0  0  0
 20 22  1  0  0  0  0
 20 23  1  0  0  0  0
 20 21  1  0  0  0  0
 24 30  1  0  0  0  0
 25 24  1  0  0  0  0
 26 29  1  0  0  0  0
 26 28  1  0  0  0  0
 26 24  1  0  0  0  0
 27 26  1  0  0  0  0
 30 31  1  0  0  0  0
 30 32  1  0  0  0  0
 30 33  1  0  0  0  0
 34 38  1  6  0  0  0
 34 35  1  0  0  0  0
 35 36  1  0  0  0  0
 37 48  1  0  0  0  0
 37 35  2  0  0  0  0
 38 44  1  0  0  0  0
 39 38  1  0  0  0  0
 40 42  1  0  0  0  0
 40 38  1  0  0  0  0
 40 43  1  0  0  0  0
 41 40  1  0  0  0  0
 44 47  1  0  0  0  0
 44 46  1  0  0  0  0
 44 45  1  0  0  0  0
 48 54  1  0  0  0  0
 49 48  1  0  0  0  0
 50 48  1  0  0  0  0
 50 51  1  0  0  0  0
 52 50  1  0  0  0  0
 53 50  1  0  0  0  0
 54 55  1  0  0  0  0
 54 57  1  0  0  0  0
 56 54  1  0  0  0  0
 58 59  1  0  0  0  0
 58  7  2  0  0  0  0
 60 62  2  0  0  0  0
 60 58  1  0  0  0  0
 61 60  1  0  0  0  0
 62  6  1  0  0  0  0
 63 62  1  0  0  0  0
M  END
