1,2,5
q = -1.0

 53 57  0  0  1  0  0  0  0  0999 V2000
    1.3715    1.4378    0.3697 N   0  0  0  0  0  2  0  0  0  0  0  0
   -1.9206   -0.4822   -1.0496 N   0  0  0  0  0  2  0  0  0  0  0  0
    1.7392    3.4211    1.3850 O   0  0  0  0  0  0  0  0  0  0  0  0
   -4.1226    0.0141   -1.1717 O   0  0  0  0  0  0  0  0  0  0  0  0
   -1.1038    1.7925   -0.1973 C   0  0  0  0  0  3  0  0  0  0  0  0
   -0.5021    2.9234    0.4117 C   0  0  0  0  0  0  0  0  0  0  0  0
   -1.2817    4.0644    0.7297 C   0  0  0  0  0  0  0  0  0  0  0  0
   -2.6639    4.0033    0.4392 C   0  0  0  0  0  0  0  0  0  0  0  0
   -3.2803    4.8847    0.6780 H   0  0  0  0  0  0  0  0  0  0  0  0
   -3.3122    2.8705   -0.1051 C   0  0  0  0  0  0  0  0  0  0  0  0
   -2.5036    1.7482   -0.4155 C   0  0  0  0  0  0  0  0  0  0  0  0
   -0.6822    5.2886    1.3695 C   0  0  0  0  0  0  0  0  0  0  0  0
   -0.2107    5.0411    2.3426 H   0  0  0  0  0  0  0  0  0  0  0  0
   -1.4454    6.0720    1.5383 H   0  0  0  0  0  0  0  0  0  0  0  0
    0.1261    5.7159    0.7410 H   0  0  0  0  0  0  0  0  0  0  0  0
   -4.8020    2.8672   -0.3236 C   0  0  0  0  0  0  0  0  0  0  0  0
   -5.2563    3.8331   -0.0313 H   0  0  0  0  0  0  0  0  0  0  0  0
   -5.2899    2.0591    0.2594 H   0  0  0  0  0  0  0  0  0  0  0  0
   -5.0524    2.6677   -1.3857 H   0  0  0  0  0  0  0  0  0  0  0  0
    0.8897    2.6196    0.7065 C   0  0  2  0  0  3  0  0  0  0  0  0
    3.0274    2.7388    1.3707 C   0  0  0  0  0  0  0  0  0  0  0  0
    3.4927    2.8556    2.3665 H   0  0  0  0  0  0  0  0  0  0  0  0
    3.6655    3.2236    0.6011 H   0  0  0  0  0  0  0  0  0  0  0  0
    2.6934    1.2740    0.9887 C   0  0  2  0  0  0  0  0  0  0  0  0
    2.5612    0.6470    1.9006 H   0  0  0  0  0  0  0  0  0  0  0  0
    3.7072    0.5957    0.0964 C   0  0  0  0  0  0  0  0  0  0  0  0
    3.7844    0.9137   -1.2729 C   0  0  0  0  0  0  0  0  0  0  0  0
    3.0820    1.6430   -1.7033 H   0  0  0  0  0  0  0  0  0  0  0  0
    4.7228    0.2758   -2.0956 C   0  0  0  0  0  0  0  0  0  0  0  0
    4.7606    0.5194   -3.1681 H   0  0  0  0  0  0  0  0  0  0  0  0
    5.5987   -0.6818   -1.5581 C   0  0  0  0  0  0  0  0  0  0  0  0
    6.3322   -1.1849   -2.2064 H   0  0  0  0  0  0  0  0  0  0  0  0
    5.5270   -1.0033   -0.1936 C   0  0  0  0  0  0  0  0  0  0  0  0
    6.2037   -1.7595    0.2329 H   0  0  0  0  0  0  0  0  0  0  0  0
    4.5808   -0.3700    0.6272 C   0  0  0  0  0  0  0  0  0  0  0  0
    4.5021   -0.6426    1.6917 H   0  0  0  0  0  0  0  0  0  0  0  0
   -2.8677    0.4213   -0.8906 C   0  0  1  0  0  3  0  0  0  0  0  0
   -4.0283   -1.3701   -1.6133 C   0  0  0  0  0  0  0  0  0  0  0  0
   -4.3917   -1.4178   -2.6588 H   0  0  0  0  0  0  0  0  0  0  0  0
   -4.6905   -1.9818   -0.9698 H   0  0  0  0  0  0  0  0  0  0  0  0
   -2.5232   -1.7532   -1.4759 C   0  0  2  0  0  0  0  0  0  0  0  0
   -2.0917   -2.0364   -2.4589 H   0  0  0  0  0  0  0  0  0  0  0  0
   -2.2234   -2.8659   -0.4861 C   0  0  0  0  0  0  0  0  0  0  0  0
   -2.7099   -2.7995    0.8337 C   0  0  0  0  0  0  0  0  0  0  0  0
   -3.3054   -1.9301    1.1544 H   0  0  0  0  0  0  0  0  0  0  0  0
   -2.4163   -3.8172    1.7511 C   0  0  0  0  0  0  0  0  0  0  0  0
   -2.8010   -3.7541    2.7804 H   0  0  0  0  0  0  0  0  0  0  0  0
   -1.6228   -4.9092    1.3630 C   0  0  0  0  0  0  0  0  0  0  0  0
   -1.3869   -5.7047    2.0860 H   0  0  0  0  0  0  0  0  0  0  0  0
   -1.1246   -4.9764    0.0538 C   0  0  0  0  0  0  0  0  0  0  0  0
   -0.4928   -5.8232   -0.2547 H   0  0  0  0  0  0  0  0  0  0  0  0
   -1.4251   -3.9586   -0.8646 C   0  0  0  0  0  0  0  0  0  0  0  0
   -1.0219   -4.0016   -1.8885 H   0  0  0  0  0  0  0  0  0  0  0  0
  1 20  1  0  0  0  0
  1 24  1  0  0  0  0
  2 37  1  0  0  0  0
  4 37  1  0  0  0  0
  5  6  1  0  0  0  0
  6  7  2  0  0  0  0
  7 12  1  0  0  0  0
  8  9  1  0  0  0  0
  8  7  1  0  0  0  0
 10  8  2  0  0  0  0
 11  5  2  0  0  0  0
 11 10  1  0  0  0  0
 12 14  1  0  0  0  0
 12 13  1  0  0  0  0
 15 12  1  0  0  0  0
 16 10  1  0  0  0  0
 16 17  1  0  0  0  0
 16 18  1  0  0  0  0
 19 16  1  0  0  0  0
 20  6  1  1  0  0  0
 20  3  1  0  0  0  0
 21  3  1  0  0  0  0
 21 22  1  0  0  0  0
 23 21  1  0  0  0  0
 24 21  1  0  0  0  0
 24 25  1  1  0  0  0
 26 35  1  0  0  0  0
 26 24  1  0  0  0  0
 27 26  2  0  0  0  0
 28 27  1  0  0  0  0
 29 31  2  0  0  0  0
 29 27  1  0  0  0  0
 30 29  1  0  0  0  0
 31 33  1  0  0  0  0
 32 31  1  0  0  0  0
 33 34  1  0  0  0  0
 33 35  2  0  0  0  0
 35 36  1  0  0  0  0
 37 11  1  1  0  0  0
 38 41  1  0  0  0  0
 38  4  1  0  0  0  0
 38 40  1  0  0  0  0
 39 38  1  0  0  0  0
 41 42  1  6  0  0  0
 41  2  1  0  0  0  0
 41 43  1  0  0  0  0
 43 44  1  0  0  0  0
 44 45  1  0  0  0  0
 44 46  2  0  0  0  0
 46 47  1  0  0  0  0
 48 46  1  0  0  0  0
 48 49  1  0  0  0  0
 50 48  2  0  0  0  0
 51 50  1  0  0  0  0
 52 43  2  0  0  0  0
 52 50  1  0  0  0  0
 53 52  1  0  0  0  0
M  END
