1,14,33
q = -1.0

 61 65  0  0  1  0  0  0  0  0999 V2000
   -1.9637   -0.3650    0.3807 N   0  0  0  0  0  2  0  0  0  0  0  0
   -3.6344   -1.8266    0.7080 N   0  0  0  0  0  0  0  0  0  0  0  0
   -3.1160    0.3700    0.5922 C   0  0  0  0  0  0  0  0  0  0  0  0
   -3.3346    1.7596    0.6219 C   0  0  0  0  0  0  0  0  0  0  0  0
   -2.5013    2.4563    0.4637 H   0  0  0  0  0  0  0  0  0  0  0  0
   -4.6410    2.1934    0.8659 C   0  0  0  0  0  0  0  0  0  0  0  0
   -4.8480    3.2731    0.8980 H   0  0  0  0  0  0  0  0  0  0  0  0
   -5.7029    1.2787    1.0729 C   0  0  0  0  0  0  0  0  0  0  0  0
   -6.7163    1.6638    1.2603 H   0  0  0  0  0  0  0  0  0  0  0  0
   -5.4970   -0.1067    1.0419 C   0  0  0  0  0  0  0  0  0  0  0  0
   -6.3291   -0.8084    1.1946 H   0  0  0  0  0  0  0  0  0  0  0  0
   -4.1863   -0.5476    0.7989 C   0  0  0  0  0  0  0  0  0  0  0  0
   -2.2915   -1.6871    0.4467 C   0  0  2  0  0  3  0  0  0  0  0  0
   -0.0010   -1.9639   -0.0001 C   0  0  0  0  0  2  0  0  0  0  0  0
   -1.2189   -2.6567    0.2418 C   0  0  0  0  0  0  0  0  0  0  0  0
   -1.2101   -4.0698    0.2394 C   0  0  0  0  0  0  0  0  0  0  0  0
   -2.1209   -4.6581    0.4175 H   0  0  0  0  0  0  0  0  0  0  0  0
   -0.0021   -4.7514   -0.0002 C   0  0  0  0  0  0  0  0  0  0  0  0
   -0.0026   -5.8512   -0.0002 H   0  0  0  0  0  0  0  0  0  0  0  0
   -4.3819   -3.0774    0.7835 C   0  0  0  0  0  0  0  0  0  0  0  0
   -5.3092   -2.8641    1.3515 H   0  0  0  0  0  0  0  0  0  0  0  0
   -3.7976   -3.7921    1.3962 H   0  0  0  0  0  0  0  0  0  0  0  0
   -4.7164   -3.6746   -0.5885 C   0  0  0  0  0  0  0  0  0  0  0  0
   -3.7696   -3.8950   -1.1283 H   0  0  0  0  0  0  0  0  0  0  0  0
   -5.2062   -4.6582   -0.4155 H   0  0  0  0  0  0  0  0  0  0  0  0
   -5.6117   -2.7925   -1.4639 C   0  0  0  0  0  0  0  0  0  0  0  0
   -5.1274   -1.8025   -1.6062 H   0  0  0  0  0  0  0  0  0  0  0  0
   -6.5635   -2.5869   -0.9255 H   0  0  0  0  0  0  0  0  0  0  0  0
   -5.9099   -3.4180   -2.8265 C   0  0  0  0  0  0  0  0  0  0  0  0
   -4.9760   -3.5961   -3.3991 H   0  0  0  0  0  0  0  0  0  0  0  0
   -6.5575   -2.7620   -3.4412 H   0  0  0  0  0  0  0  0  0  0  0  0
   -6.4254   -4.3955   -2.7212 H   0  0  0  0  0  0  0  0  0  0  0  0
    1.9630   -0.3666   -0.3808 N   0  0  0  0  0  2  0  0  0  0  0  0
    3.6326   -1.8296   -0.7080 N   0  0  0  0  0  0  0  0  0  0  0  0
    3.1160    0.3675   -0.5921 C   0  0  0  0  0  0  0  0  0  0  0  0
    3.3358    1.7569   -0.6217 C   0  0  0  0  0  0  0  0  0  0  0  0
    2.5031    2.4544   -0.4635 H   0  0  0  0  0  0  0  0  0  0  0  0
    4.6426    2.1896   -0.8655 C   0  0  0  0  0  0  0  0  0  0  0  0
    4.8505    3.2691   -0.8974 H   0  0  0  0  0  0  0  0  0  0  0  0
    5.7037    1.2741   -1.0725 C   0  0  0  0  0  0  0  0  0  0  0  0
    6.7174    1.6583   -1.2598 H   0  0  0  0  0  0  0  0  0  0  0  0
    5.4967   -0.1112   -1.0416 C   0  0  0  0  0  0  0  0  0  0  0  0
    6.3281   -0.8135   -1.1943 H   0  0  0  0  0  0  0  0  0  0  0  0
    4.1856   -0.5510   -0.7988 C   0  0  0  0  0  0  0  0  0  0  0  0
    2.2898   -1.6889   -0.4468 C   0  0  0  0  0  0  0  0  0  0  0  0
    1.2163   -2.6577   -0.2420 C   0  0  0  0  0  0  0  0  0  0  0  0
    1.2064   -4.0707   -0.2397 C   0  0  0  0  0  0  0  0  0  0  0  0
    2.1168   -4.6598   -0.4178 H   0  0  0  0  0  0  0  0  0  0  0  0
    4.3790   -3.0810   -0.7834 C   0  0  0  0  0  0  0  0  0  0  0  0
    5.3066   -2.8684   -1.3513 H   0  0  0  0  0  0  0  0  0  0  0  0
    3.7943   -3.7952   -1.3962 H   0  0  0  0  0  0  0  0  0  0  0  0
    4.7128   -3.6784    0.5886 C   0  0  0  0  0  0  0  0  0  0  0  0
    3.7657   -3.8981    1.1283 H   0  0  0  0  0  0  0  0  0  0  0  0
    5.2018   -4.6624    0.4158 H   0  0  0  0  0  0  0  0  0  0  0  0
    5.6087   -2.7971    1.4642 C   0  0  0  0  0  0  0  0  0  0  0  0
    5.1251   -1.8067    1.6065 H   0  0  0  0  0  0  0  0  0  0  0  0
    6.5608   -2.5922    0.9261 H   0  0  0  0  0  0  0  0  0  0  0  0
    5.9061   -3.4229    2.8269 C   0  0  0  0  0  0  0  0  0  0  0  0
    4.9720   -3.6002    3.3993 H   0  0  0  0  0  0  0  0  0  0  0  0
    6.5541   -2.7674    3.4417 H   0  0  0  0  0  0  0  0  0  0  0  0
    6.4208   -4.4008    2.7216 H   0  0  0  0  0  0  0  0  0  0  0  0
  1 13  1  0  0  0  0
  1  3  1  0  0  0  0
  2 20  1  0  0  0  0
  2 12  1  0  0  0  0
  3  4  2  0  0  0  0
  3 12  1  0  0  0  0
  4  6  1  0  0  0  0
  5  4  1  0  0  0  0
  6  7  1  0  0  0  0
  6  8  2  0  0  0  0
  8  9  1  0  0  0  0
 10  8  1  0  0  0  0
 10 11  1  0  0  0  0
 12 10  2  0  0  0  0
 13 15  1  1  0  0  0
 13  2  1  0  0  0  0
 14 15  1  0  0  0  0
 16 15  2  0  0  0  0
 16 17  1  0  0  0  0
 18 16  1  0  0  0  0
 19 18  1  0  0  0  0
 20 21  1  0  0  0  0
 20 22  1  0  0  0  0
 23 25  1  0  0  0  0
 23 20  1  0  0  0  0
 24 23  1  0  0  0  0
 26 28  1  0  0  0  0
 26 23  1  0  0  0  0
 27 26  1  0  0  0  0
 29 32  1  0  0  0  0
 29 26  1  0  0  0  0
 30 29  1  0  0  0  0
 31 29  1  0  0  0  0
 34 45  1  0  0  0  0
 35 33  1  0  0  0  0
 36 35  1  0  0  0  0
 36 37  1  0  0  0  0
 38 36  2  0  0  0  0
 39 38  1  0  0  0  0
 40 42  2  0  0  0  0
 40 38  1  0  0  0  0
 41 40  1  0  0  0  0
 42 44  1  0  0  0  0
 43 42  1  0  0  0  0
 44 34  1  0  0  0  0
 44 35  2  0  0  0  0
 45 33  1  0  0  0  0
 45 46  2  0  0  0  0
 46 47  1  0  0  0  0
 46 14  1  0  0  0  0
 47 18  2  0  0  0  0
 48 47  1  0  0  0  0
 49 34  1  0  0  0  0
 49 52  1  0  0  0  0
 50 49  1  0  0  0  0
 51 49  1  0  0  0  0
 52 53  1  0  0  0  0
 52 55  1  0  0  0  0
 54 52  1  0  0  0  0
 55 56  1  0  0  0  0
 55 58  1  0  0  0  0
 57 55  1  0  0  0  0
 58 59  1  0  0  0  0
 58 60  1  0  0  0  0
 61 58  1  0  0  0  0
M  END
