1,3,10
q = -1.0

 37 39  0  0  0  0  0  0  0  0999 V2000
   -1.9393    0.7502   -0.1766 N   0  0  0  0  0  2  0  0  0  0  0  0
   -0.9545    2.8917   -0.0778 C   0  0  0  0  0  0  0  0  0  0  0  0
    2.0948    0.3746    0.1696 N   0  0  0  0  0  2  0  0  0  0  0  0
   -3.0271   -0.1602   -0.2030 C   0  0  0  0  0  0  0  0  0  0  0  0
   -3.0937   -1.1196   -1.2344 C   0  0  0  0  0  0  0  0  0  0  0  0
   -2.3154   -1.1073   -2.0135 H   0  0  0  0  0  0  0  0  0  0  0  0
    2.8264   -1.7372    1.1411 C   0  0  0  0  0  0  0  0  0  0  0  0
    1.9919   -1.6520    1.8542 H   0  0  0  0  0  0  0  0  0  0  0  0
    3.0078   -0.7103    0.1923 C   0  0  0  0  0  0  0  0  0  0  0  0
    0.2186    2.0965   -0.0011 C   0  0  0  0  0  3  0  0  0  0  0  0
    1.6363    4.0698    0.0870 C   0  0  0  0  0  0  0  0  0  0  0  0
    2.6249    4.5513    0.1506 H   0  0  0  0  0  0  0  0  0  0  0  0
   -2.1331    2.0609   -0.1601 C   0  0  0  0  0  3  0  0  0  0  0  0
   -3.1623    2.4563   -0.2263 H   0  0  0  0  0  0  0  0  0  0  0  0
    1.5170    2.6629    0.0826 C   0  0  0  0  0  0  0  0  0  0  0  0
   -3.9969   -0.1425    0.8179 C   0  0  0  0  0  0  0  0  0  0  0  0
   -3.8962    0.5814    1.6395 H   0  0  0  0  0  0  0  0  0  0  0  0
    4.9470   -1.8677   -0.7052 C   0  0  0  0  0  0  0  0  0  0  0  0
    5.7631   -1.9267   -1.4412 H   0  0  0  0  0  0  0  0  0  0  0  0
    4.0637   -0.7788   -0.7381 C   0  0  0  0  0  0  0  0  0  0  0  0
    4.1558    0.0029   -1.5060 H   0  0  0  0  0  0  0  0  0  0  0  0
    2.5225    1.6297    0.1636 C   0  0  0  0  0  3  0  0  0  0  0  0
    3.6056    1.8317    0.2396 H   0  0  0  0  0  0  0  0  0  0  0  0
   -5.0409   -1.0797    0.7984 C   0  0  0  0  0  0  0  0  0  0  0  0
   -5.7923   -1.0714    1.6024 H   0  0  0  0  0  0  0  0  0  0  0  0
    3.7217   -2.8129    1.1693 C   0  0  0  0  0  0  0  0  0  0  0  0
    3.5923   -3.6054    1.9222 H   0  0  0  0  0  0  0  0  0  0  0  0
    0.4737    4.8637    0.0099 C   0  0  0  0  0  0  0  0  0  0  0  0
    0.5749    5.9590    0.0140 H   0  0  0  0  0  0  0  0  0  0  0  0
   -5.1206   -2.0303   -0.2312 C   0  0  0  0  0  0  0  0  0  0  0  0
   -5.9423   -2.7622   -0.2436 H   0  0  0  0  0  0  0  0  0  0  0  0
    4.7824   -2.8840    0.2485 C   0  0  0  0  0  0  0  0  0  0  0  0
    5.4771   -3.7372    0.2706 H   0  0  0  0  0  0  0  0  0  0  0  0
   -0.8143    4.2970   -0.0713 C   0  0  0  0  0  0  0  0  0  0  0  0
   -1.6982    4.9516   -0.1286 H   0  0  0  0  0  0  0  0  0  0  0  0
   -4.1460   -2.0441   -1.2461 C   0  0  0  0  0  0  0  0  0  0  0  0
   -4.2122   -2.7790   -2.0637 H   0  0  0  0  0  0  0  0  0  0  0  0
  1 13  1  0  0  0  0
  2 34  2  0  0  0  0
  2 10  1  0  0  0  0
  3  9  1  0  0  0  0
  4  1  1  0  0  0  0
  4 16  1  0  0  0  0
  5  4  2  0  0  0  0
  6  5  1  0  0  0  0
  7 26  1  0  0  0  0
  7  8  1  0  0  0  0
  9  7  2  0  0  0  0
 10 15  2  0  0  0  0
 11 12  1  0  0  0  0
 13  2  1  0  0  0  0
 14 13  1  0  0  0  0
 15 11  1  0  0  0  0
 15 22  1  0  0  0  0
 16 17  1  0  0  0  0
 18 32  1  0  0  0  0
 19 18  1  0  0  0  0
 20 18  2  0  0  0  0
 20  9  1  0  0  0  0
 21 20  1  0  0  0  0
 22  3  1  0  0  0  0
 22 23  1  0  0  0  0
 24 16  2  0  0  0  0
 24 25  1  0  0  0  0
 26 27  1  0  0  0  0
 28 29  1  0  0  0  0
 28 11  2  0  0  0  0
 30 24  1  0  0  0  0
 31 30  1  0  0  0  0
 32 33  1  0  0  0  0
 32 26  2  0  0  0  0
 34 28  1  0  0  0  0
 35 34  1  0  0  0  0
 36  5  1  0  0  0  0
 36 30  2  0  0  0  0
 37 36  1  0  0  0  0
M  END
