7,8,9
q = -1.0, confidence = 0.0

 50 56  0  0  1  0  0  0  0  0999 V2000
    0.0007    4.3354    0.5830 F   0  0  0  0  0  0  0  0  0  0  0  0
    0.0005    3.8190   -1.6574 F   0  0  0  0  0  0  0  0  0  0  0  0
   -1.2242    2.3669   -0.1456 N   0  0  0  0  0  0  0  0  0  0  0  0
   -2.4906    0.5146   -0.1947 N   0  0  0  0  0  0  0  0  0  0  0  0
    1.2250    2.3665   -0.1459 N   0  0  0  0  0  0  0  0  0  0  0  0
    2.4908    0.5139   -0.1948 N   0  0  0  0  0  0  0  0  0  0  0  0
   -2.0396   -1.8160   -0.3494 N   0  0  0  0  0  2  0  0  0  0  0  0
    2.0390   -1.8166   -0.3490 N   0  0  0  0  0  2  0  0  0  0  0  0
    0.0001    0.2482   -0.4271 C   0  0  0  0  0  3  0  0  0  0  0  0
   -1.1734    1.0073   -0.2945 C   0  0  2  0  0  3  0  0  0  0  0  0
   -2.5253    2.7549    0.1297 C   0  0  0  0  0  0  0  0  0  0  0  0
   -3.0467    4.0214    0.4340 C   0  0  0  0  0  0  0  0  0  0  0  0
   -2.3870    4.8979    0.4481 H   0  0  0  0  0  0  0  0  0  0  0  0
   -4.4102    4.0985    0.7512 C   0  0  0  0  0  0  0  0  0  0  0  0
   -4.8506    5.0760    0.9974 H   0  0  0  0  0  0  0  0  0  0  0  0
   -5.2191    2.9454    0.7896 C   0  0  0  0  0  0  0  0  0  0  0  0
   -6.2776    3.0310    1.0755 H   0  0  0  0  0  0  0  0  0  0  0  0
   -4.6986    1.6756    0.4842 C   0  0  0  0  0  0  0  0  0  0  0  0
   -5.3348    0.7852    0.5609 H   0  0  0  0  0  0  0  0  0  0  0  0
   -3.3455    1.5994    0.1235 C   0  0  0  0  0  0  0  0  0  0  0  0
   -2.9036   -0.7782   -0.5122 C   0  0  2  0  0  3  0  0  0  0  0  0
   -4.2028   -0.9847   -1.0340 C   0  0  0  0  0  0  0  0  0  0  0  0
   -4.8309   -0.1153   -1.2582 H   0  0  0  0  0  0  0  0  0  0  0  0
   -4.6446   -2.2762   -1.3033 C   0  0  0  0  0  0  0  0  0  0  0  0
   -5.6500   -2.4387   -1.7193 H   0  0  0  0  0  0  0  0  0  0  0  0
   -3.7754   -3.3518   -1.0577 C   0  0  0  0  0  0  0  0  0  0  0  0
   -4.0731   -4.3938   -1.2371 H   0  0  0  0  0  0  0  0  0  0  0  0
   -2.4865   -3.0762   -0.6122 C   0  0  0  0  0  0  0  0  0  0  0  0
   -1.7366   -3.8627   -0.4298 H   0  0  0  0  0  0  0  0  0  0  0  0
    1.1737    1.0070   -0.2946 C   0  0  0  0  0  0  0  0  0  0  0  0
    2.5263    2.7542    0.1293 C   0  0  0  0  0  0  0  0  0  0  0  0
    3.0480    4.0206    0.4335 C   0  0  0  0  0  0  0  0  0  0  0  0
    2.3886    4.8972    0.4476 H   0  0  0  0  0  0  0  0  0  0  0  0
    4.4116    4.0972    0.7507 C   0  0  0  0  0  0  0  0  0  0  0  0
    4.8523    5.0747    0.9968 H   0  0  0  0  0  0  0  0  0  0  0  0
    5.2201    2.9439    0.7891 C   0  0  0  0  0  0  0  0  0  0  0  0
    6.2786    3.0292    1.0749 H   0  0  0  0  0  0  0  0  0  0  0  0
    4.6992    1.6742    0.4838 C   0  0  0  0  0  0  0  0  0  0  0  0
    5.3352    0.7837    0.5605 H   0  0  0  0  0  0  0  0  0  0  0  0
    3.3461    1.5984    0.1232 C   0  0  0  0  0  0  0  0  0  0  0  0
    2.9034   -0.7792   -0.5120 C   0  0  1  0  0  3  0  0  0  0  0  0
    4.2025   -0.9863   -1.0336 C   0  0  0  0  0  0  0  0  0  0  0  0
    4.8310   -0.1172   -1.2581 H   0  0  0  0  0  0  0  0  0  0  0  0
    4.6440   -2.2780   -1.3026 C   0  0  0  0  0  0  0  0  0  0  0  0
    5.6493   -2.4409   -1.7184 H   0  0  0  0  0  0  0  0  0  0  0  0
    3.7744   -3.3533   -1.0568 C   0  0  0  0  0  0  0  0  0  0  0  0
    4.0717   -4.3954   -1.2358 H   0  0  0  0  0  0  0  0  0  0  0  0
    2.4855   -3.0770   -0.6115 C   0  0  0  0  0  0  0  0  0  0  0  0
    1.7353   -3.8633   -0.4290 H   0  0  0  0  0  0  0  0  0  0  0  0
    0.0005    3.3084   -0.3620 B   0  0  0  0  0  0  0  0  0  0  0  0
  2 50  1  0  0  0  0
  3 11  1  0  0  0  0
  4 20  1  0  0  0  0
  5 31  1  0  0  0  0
  6 40  1  0  0  0  0
  9 30  2  0  0  0  0
 10  9  1  1  0  0  0
 10  4  1  0  0  0  0
 10  3  1  0  0  0  0
 11 12  1  0  0  0  0
 12 13  1  0  0  0  0
 12 14  2  0  0  0  0
 14 16  1  0  0  0  0
 14 15  1  0  0  0  0
 16 17  1  0  0  0  0
 18 19  1  0  0  0  0
 18 16  2  0  0  0  0
 20 11  2  0  0  0  0
 20 18  1  0  0  0  0
 21  7  1  0  0  0  0
 21  4  1  6  0  0  0
 22 21  1  0  0  0  0
 23 22  1  0  0  0  0
 24 26  1  0  0  0  0
 24 22  2  0  0  0  0
 25 24  1  0  0  0  0
 26 28  2  0  0  0  0
 27 26  1  0  0  0  0
 28 29  1  0  0  0  0
 28  7  1  0  0  0  0
 30  6  1  0  0  0  0
 30  5  1  0  0  0  0
 31 32  1  0  0  0  0
 32 33  1  0  0  0  0
 32 34  2  0  0  0  0
 34 36  1  0  0  0  0
 34 35  1  0  0  0  0
 36 37  1  0  0  0  0
 38 39  1  0  0  0  0
 38 36  2  0  0  0  0
 40 31  2  0  0  0  0
 40 38  1  0  0  0  0
 41  8  1  0  0  0  0
 41  6  1  6  0  0  0
 42 41  1  0  0  0  0
 43 42  1  0  0  0  0
 44 46  1  0  0  0  0
 44 42  2  0  0  0  0
 45 44  1  0  0  0  0
 46 48  2  0  0  0  0
 47 46  1  0  0  0  0
 48 49  1  0  0  0  0
 48  8  1  0  0  0  0
 50  5  1  0  0  0  0
 50  3  1  0  0  0  0
 50  1  1  0  0  0  0
M  END
