10,35,36
q = -1.0, confidence = 0.022

 39 41  0  0  0  0  0  0  0  0999 V2000
    1.3032    2.3530   -0.0770 C   0  0  0  0  0  3  0  0  0  0  0  0
    1.6323    3.4076   -0.1227 H   0  0  0  0  0  0  0  0  0  0  0  0
    2.2240    1.2381   -0.0308 C   0  0  0  0  0  0  0  0  0  0  0  0
    3.6314    1.2401   -0.0296 C   0  0  0  0  0  0  0  0  0  0  0  0
    4.2342    2.1588   -0.0500 H   0  0  0  0  0  0  0  0  0  0  0  0
    4.2960   -0.0001   -0.0000 C   0  0  0  0  0  0  0  0  0  0  0  0
    3.6314   -1.2402    0.0296 C   0  0  0  0  0  3  0  0  0  0  0  0
    4.2341   -2.1590    0.0500 H   0  0  0  0  0  0  0  0  0  0  0  0
    2.2239   -1.2382    0.0309 C   0  0  0  0  0  0  0  0  0  0  0  0
    1.5352   -0.0000    0.0000 C   0  0  0  0  0  3  0  0  0  0  0  0
    1.3031   -2.3531    0.0770 C   0  0  0  0  0  0  0  0  0  0  0  0
    1.6322   -3.4077    0.1228 H   0  0  0  0  0  0  0  0  0  0  0  0
   -0.9364    3.1139   -0.0810 C   0  0  0  0  0  0  0  0  0  0  0  0
   -0.8007    4.1844    0.8292 C   0  0  0  0  0  0  0  0  0  0  0  0
    0.0154    4.1695    1.5671 H   0  0  0  0  0  0  0  0  0  0  0  0
   -1.7314    5.2313    0.8189 C   0  0  0  0  0  0  0  0  0  0  0  0
   -1.6299    6.0558    1.5405 H   0  0  0  0  0  0  0  0  0  0  0  0
   -2.7968    5.2178   -0.0955 C   0  0  0  0  0  0  0  0  0  0  0  0
   -3.5298    6.0383   -0.0994 H   0  0  0  0  0  0  0  0  0  0  0  0
   -2.9341    4.1461   -0.9933 C   0  0  0  0  0  0  0  0  0  0  0  0
   -3.7726    4.1261   -1.7051 H   0  0  0  0  0  0  0  0  0  0  0  0
   -2.0190    3.0869   -0.9836 C   0  0  0  0  0  0  0  0  0  0  0  0
   -2.1273    2.2339   -1.6655 H   0  0  0  0  0  0  0  0  0  0  0  0
   -0.9365   -3.1138    0.0810 C   0  0  0  0  0  0  0  0  0  0  0  0
   -2.0191   -3.0868    0.9836 C   0  0  0  0  0  0  0  0  0  0  0  0
   -2.1274   -2.2338    1.6655 H   0  0  0  0  0  0  0  0  0  0  0  0
   -2.9343   -4.1460    0.9933 C   0  0  0  0  0  0  0  0  0  0  0  0
   -3.7728   -4.1259    1.7051 H   0  0  0  0  0  0  0  0  0  0  0  0
   -2.7970   -5.2177    0.0956 C   0  0  0  0  0  0  0  0  0  0  0  0
   -3.5301   -6.0381    0.0995 H   0  0  0  0  0  0  0  0  0  0  0  0
   -1.7317   -5.2312   -0.8189 C   0  0  0  0  0  0  0  0  0  0  0  0
   -1.6302   -6.0557   -1.5404 H   0  0  0  0  0  0  0  0  0  0  0  0
   -0.8009   -4.1844   -0.8292 C   0  0  0  0  0  0  0  0  0  0  0  0
    0.0152   -4.1695   -1.5671 H   0  0  0  0  0  0  0  0  0  0  0  0
    0.0164    2.0627   -0.0938 N   0  0  0  0  0  2  0  0  0  0  0  0
    0.0163   -2.0627    0.0938 N   0  0  0  0  0  2  0  0  0  0  0  0
    5.7778   -0.0001   -0.0000 N   0  0  0  0  0  0  0  0  0  0  0  0
    6.3448   -1.0932    0.0205 O   0  0  0  0  0  0  0  0  0  0  0  0
    6.3449    1.0929   -0.0205 O   0  0  0  0  0  0  0  0  0  0  0  0
  1  3  1  0  0  0  0
  2  1  1  0  0  0  0
  3  4  1  0  0  0  0
  3 10  2  0  0  0  0
  4  6  2  0  0  0  0
  5  4  1  0  0  0  0
  6  7  1  0  0  0  0
  7  9  1  0  0  0  0
  7  8  1  0  0  0  0
  9 11  2  0  0  0  0
 10  9  1  0  0  0  0
 11 36  1  0  0  0  0
 11 12  1  0  0  0  0
 13 14  1  0  0  0  0
 14 15  1  0  0  0  0
 16 14  2  0  0  0  0
 16 17  1  0  0  0  0
 18 16  1  0  0  0  0
 19 18  1  0  0  0  0
 20 22  1  0  0  0  0
 20 18  2  0  0  0  0
 21 20  1  0  0  0  0
 22 13  2  0  0  0  0
 23 22  1  0  0  0  0
 24 36  1  0  0  0  0
 24 25  1  0  0  0  0
 25 27  2  0  0  0  0
 25 26  1  0  0  0  0
 27 28  1  0  0  0  0
 29 30  1  0  0  0  0
 29 27  1  0  0  0  0
 31 29  2  0  0  0  0
 32 31  1  0  0  0  0
 33 31  1  0  0  0  0
 33 24  2  0  0  0  0
 34 33  1  0  0  0  0
 35 13  1  0  0  0  0
 35  1  1  0  0  0  0
 37  6  1  0  0  0  0
 37 38  2  0  0  0  0
 39 37  2  0  0  0  0
M  END
