2,3,29
q = -1.0

 49 51  0  0  0  0  0  0  0  0999 V2000
    2.8628   -0.7274   -0.9852 N   0  0  0  0  0  0  0  0  0  0  0  0
   -1.9208    0.7958    0.4571 N   0  0  0  0  0  2  0  0  0  0  0  0
    1.9061    0.1560   -0.6156 N   0  0  0  0  0  2  0  0  0  0  0  0
   -4.5178   -2.8188   -1.0418 C   0  0  0  0  0  0  0  0  0  0  0  0
   -5.4647   -2.8455   -0.4551 H   0  0  0  0  0  0  0  0  0  0  0  0
   -4.8262   -2.9157   -2.1049 H   0  0  0  0  0  0  0  0  0  0  0  0
   -0.7843    2.8908    0.3292 C   0  0  0  0  0  0  0  0  0  0  0  0
   -3.3177    2.4879    1.0392 C   0  0  0  0  0  0  0  0  0  0  0  0
   -3.7125    3.4824    1.2650 H   0  0  0  0  0  0  0  0  0  0  0  0
   -3.1294    0.2750    0.7745 N   0  0  0  0  0  0  0  0  0  0  0  0
   -2.0114    2.1591    0.6163 C   0  0  0  0  0  0  0  0  0  0  0  0
   -0.5371    4.2775    0.3673 C   0  0  0  0  0  3  0  0  0  0  0  0
   -1.3343    4.9815    0.6528 H   0  0  0  0  0  0  0  0  0  0  0  0
    4.0111   -0.0671   -1.3057 C   0  0  0  0  0  3  0  0  0  0  0  0
    4.8984   -0.6282   -1.6162 H   0  0  0  0  0  0  0  0  0  0  0  0
    2.6962   -2.1740   -0.8635 C   0  0  0  0  0  0  0  0  0  0  0  0
    3.4505   -2.6218   -1.5416 H   0  0  0  0  0  0  0  0  0  0  0  0
    1.6785   -2.4296   -1.2212 H   0  0  0  0  0  0  0  0  0  0  0  0
   -3.9922    1.2713    1.1209 C   0  0  0  0  0  0  0  0  0  0  0  0
   -5.0242    1.0324    1.3981 H   0  0  0  0  0  0  0  0  0  0  0  0
    2.4546    1.4137   -0.7115 C   0  0  0  0  0  0  0  0  0  0  0  0
    3.7923    1.3004   -1.1491 C   0  0  0  0  0  0  0  0  0  0  0  0
    4.5015    2.1116   -1.3360 H   0  0  0  0  0  0  0  0  0  0  0  0
    4.3444   -2.9435    2.6287 C   0  0  0  0  0  0  0  0  0  0  0  0
    5.3287   -2.7079    3.0807 H   0  0  0  0  0  0  0  0  0  0  0  0
    4.2267   -4.0472    2.6348 H   0  0  0  0  0  0  0  0  0  0  0  0
    3.5600   -2.5258    3.2932 H   0  0  0  0  0  0  0  0  0  0  0  0
    1.5475    2.5020   -0.3702 C   0  0  0  0  0  0  0  0  0  0  0  0
    0.2631    2.0175   -0.0380 C   0  0  0  0  0  3  0  0  0  0  0  0
    1.7854    3.8904   -0.3343 C   0  0  0  0  0  0  0  0  0  0  0  0
    2.7764    4.2963   -0.5910 H   0  0  0  0  0  0  0  0  0  0  0  0
   -3.4726   -1.1307    0.5808 C   0  0  0  0  0  0  0  0  0  0  0  0
   -4.3160   -1.3374    1.2711 H   0  0  0  0  0  0  0  0  0  0  0  0
   -2.5949   -1.7362    0.8844 H   0  0  0  0  0  0  0  0  0  0  0  0
    2.8650   -2.6796    0.5719 C   0  0  0  0  0  0  0  0  0  0  0  0
    2.0342   -2.2669    1.1823 H   0  0  0  0  0  0  0  0  0  0  0  0
    2.6873   -3.7765    0.5446 H   0  0  0  0  0  0  0  0  0  0  0  0
    4.2207   -2.3784    1.2128 C   0  0  0  0  0  0  0  0  0  0  0  0
    4.3808   -1.2781    1.2415 H   0  0  0  0  0  0  0  0  0  0  0  0
    5.0360   -2.7866    0.5725 H   0  0  0  0  0  0  0  0  0  0  0  0
   -3.8599   -1.4425   -0.8701 C   0  0  0  0  0  0  0  0  0  0  0  0
   -2.9405   -1.3806   -1.4898 H   0  0  0  0  0  0  0  0  0  0  0  0
   -4.5567   -0.6541   -1.2281 H   0  0  0  0  0  0  0  0  0  0  0  0
    0.7427    4.7618    0.0350 C   0  0  0  0  0  0  0  0  0  0  0  0
    0.9321    5.8451    0.0640 H   0  0  0  0  0  0  0  0  0  0  0  0
   -3.6382   -4.0120   -0.6595 C   0  0  0  0  0  0  0  0  0  0  0  0
   -3.3932   -4.0202    0.4221 H   0  0  0  0  0  0  0  0  0  0  0  0
   -2.6703   -3.9857   -1.1981 H   0  0  0  0  0  0  0  0  0  0  0  0
   -4.1470   -4.9697   -0.8912 H   0  0  0  0  0  0  0  0  0  0  0  0
  1 16  1  0  0  0  0
  1  3  1  0  0  0  0
  2 11  1  0  0  0  0
  2 10  1  0  0  0  0
  4 41  1  0  0  0  0
  4 46  1  0  0  0  0
  4  5  1  0  0  0  0
  6  4  1  0  0  0  0
  7 12  1  0  0  0  0
  7 11  2  0  0  0  0
  8 19  2  0  0  0  0
  8  9  1  0  0  0  0
 10 19  1  0  0  0  0
 11  8  1  0  0  0  0
 12 13  1  0  0  0  0
 14 22  1  0  0  0  0
 14  1  1  0  0  0  0
 15 14  1  0  0  0  0
 16 35  1  0  0  0  0
 17 16  1  0  0  0  0
 18 16  1  0  0  0  0
 19 20  1  0  0  0  0
 21  3  1  0  0  0  0
 21 28  1  0  0  0  0
 22 21  2  0  0  0  0
 23 22  1  0  0  0  0
 24 26  1  0  0  0  0
 24 25  1  0  0  0  0
 24 27  1  0  0  0  0
 28 30  1  0  0  0  0
 28 29  2  0  0  0  0
 29  7  1  0  0  0  0
 30 44  2  0  0  0  0
 31 30  1  0  0  0  0
 32 10  1  0  0  0  0
 32 34  1  0  0  0  0
 32 33  1  0  0  0  0
 35 36  1  0  0  0  0
 35 38  1  0  0  0  0
 37 35  1  0  0  0  0
 38 39  1  0  0  0  0
 38 24  1  0  0  0  0
 40 38  1  0  0  0  0
 41 32  1  0  0  0  0
 42 41  1  0  0  0  0
 43 41  1  0  0  0  0
 44 45  1  0  0  0  0
 44 12  1  0  0  0  0
 46 47  1  0  0  0  0
 48 46  1  0  0  0  0
 49 46  1  0  0  0  0
M  END
