1,3,6
q = -1.0

 53 57  0  0  0  0  0  0  0  0999 V2000
    1.2804    0.0599    0.9211 N   0  0  0  0  0  2  0  0  0  0  0  0
   -0.4579    2.4737    0.4927 N   0  0  0  0  0  0  0  0  0  0  0  0
   -2.1723   -0.6603   -1.1223 N   0  0  0  0  0  2  0  0  0  0  0  0
   -1.1378    4.9222    0.4871 C   0  0  0  0  0  0  0  0  0  0  0  0
   -0.2979    5.2850    1.0983 H   0  0  0  0  0  0  0  0  0  0  0  0
   -1.0025    1.3260   -0.0094 C   0  0  0  0  0  2  0  0  0  0  0  0
    1.6129    1.3450    1.2949 C   0  0  0  0  0  0  0  0  0  0  0  0
   -2.3805    3.0724   -0.6208 C   0  0  0  0  0  0  0  0  0  0  0  0
   -1.2786    3.5682    0.1606 C   0  0  0  0  0  0  0  0  0  0  0  0
   -2.1127    5.8133    0.0080 C   0  0  0  0  0  0  0  0  0  0  0  0
   -2.0291    6.8841    0.2457 H   0  0  0  0  0  0  0  0  0  0  0  0
   -2.1832    1.6427   -0.7163 C   0  0  0  0  0  0  0  0  0  0  0  0
    6.6054   -0.0813    0.2064 C   0  0  0  0  0  0  0  0  0  0  0  0
    7.0502    0.4732    1.0486 H   0  0  0  0  0  0  0  0  0  0  0  0
    3.3041   -0.0091    1.5567 N   0  0  0  0  0  0  0  0  0  0  0  0
   -2.7905    0.4923   -1.3004 C   0  0  0  0  0  0  0  0  0  0  0  0
   -3.7370    0.5217   -1.8724 H   0  0  0  0  0  0  0  0  0  0  0  0
   -3.1960    5.3519   -0.7701 C   0  0  0  0  0  0  0  0  0  0  0  0
   -3.9444    6.0732   -1.1315 H   0  0  0  0  0  0  0  0  0  0  0  0
    2.9434    1.2983    1.6947 C   0  0  0  0  0  0  0  0  0  0  0  0
    3.6300    2.0710    2.0526 H   0  0  0  0  0  0  0  0  0  0  0  0
   -3.9545   -3.8014    1.5297 C   0  0  0  0  0  0  0  0  0  0  0  0
   -3.5156   -4.3870    2.3524 H   0  0  0  0  0  0  0  0  0  0  0  0
   -3.6699   -2.5282   -0.5296 C   0  0  0  0  0  0  0  0  0  0  0  0
   -3.1204   -3.2769    0.5311 C   0  0  0  0  0  0  0  0  0  0  0  0
   -2.0296   -3.4369    0.5557 H   0  0  0  0  0  0  0  0  0  0  0  0
   -2.7673   -1.9154   -1.5857 C   0  0  0  0  0  0  0  0  0  0  0  0
   -3.3505   -1.7223   -2.5123 H   0  0  0  0  0  0  0  0  0  0  0  0
   -1.9305   -2.6036   -1.8171 H   0  0  0  0  0  0  0  0  0  0  0  0
   -3.3391    3.9932   -1.0874 C   0  0  0  0  0  0  0  0  0  0  0  0
   -4.1925    3.6498   -1.6911 H   0  0  0  0  0  0  0  0  0  0  0  0
   -5.3419   -3.5871    1.4830 C   0  0  0  0  0  0  0  0  0  0  0  0
   -5.9936   -4.0019    2.2675 H   0  0  0  0  0  0  0  0  0  0  0  0
   -5.0618   -2.3179   -0.5702 C   0  0  0  0  0  0  0  0  0  0  0  0
   -5.5003   -1.7393   -1.4001 H   0  0  0  0  0  0  0  0  0  0  0  0
   -5.8957   -2.8451    0.4279 C   0  0  0  0  0  0  0  0  0  0  0  0
   -6.9830   -2.6785    0.3797 H   0  0  0  0  0  0  0  0  0  0  0  0
    2.3037   -0.7510    1.0865 N   0  0  0  0  0  2  0  0  0  0  0  0
    4.7917   -1.4203   -0.7143 C   0  0  0  0  0  0  0  0  0  0  0  0
    3.8090   -1.9065   -0.5999 H   0  0  0  0  0  0  0  0  0  0  0  0
    4.6250   -0.6306    1.6909 C   0  0  0  0  0  0  0  0  0  0  0  0
    4.4421   -1.6391    2.1109 H   0  0  0  0  0  0  0  0  0  0  0  0
    5.1979   -0.0433    2.4327 H   0  0  0  0  0  0  0  0  0  0  0  0
    5.3579   -0.7112    0.3659 C   0  0  0  0  0  0  0  0  0  0  0  0
    5.4739   -1.4895   -1.9369 C   0  0  0  0  0  0  0  0  0  0  0  0
    5.0249   -2.0412   -2.7763 H   0  0  0  0  0  0  0  0  0  0  0  0
    6.7220   -0.8626   -2.0909 C   0  0  0  0  0  0  0  0  0  0  0  0
    7.2539   -0.9221   -3.0525 H   0  0  0  0  0  0  0  0  0  0  0  0
    7.2886   -0.1597   -1.0174 C   0  0  0  0  0  0  0  0  0  0  0  0
    8.2653    0.3342   -1.1320 H   0  0  0  0  0  0  0  0  0  0  0  0
    0.6858    2.5289    1.3776 C   0  0  0  0  0  0  0  0  0  0  0  0
    0.3346    2.6290    2.4325 H   0  0  0  0  0  0  0  0  0  0  0  0
    1.2720    3.4456    1.1577 H   0  0  0  0  0  0  0  0  0  0  0  0
  1 38  1  0  0  0  0
  1  7  1  0  0  0  0
  2 51  1  0  0  0  0
  4  5  1  0  0  0  0
  6  2  1  0  0  0  0
  7 51  1  0  0  0  0
  7 20  2  0  0  0  0
  8  9  2  0  0  0  0
  9  4  1  0  0  0  0
  9  2  1  0  0  0  0
 10 11  1  0  0  0  0
 10  4  2  0  0  0  0
 12  8  1  0  0  0  0
 12  6  1  0  0  0  0
 13 44  1  0  0  0  0
 13 14  1  0  0  0  0
 15 41  1  0  0  0  0
 15 20  1  0  0  0  0
 16  3  1  0  0  0  0
 16 12  2  0  0  0  0
 17 16  1  0  0  0  0
 18 10  1  0  0  0  0
 19 18  1  0  0  0  0
 20 21  1  0  0  0  0
 22 23  1  0  0  0  0
 24 25  1  0  0  0  0
 25 26  1  0  0  0  0
 25 22  2  0  0  0  0
 27  3  1  0  0  0  0
 27 24  1  0  0  0  0
 28 27  1  0  0  0  0
 29 27  1  0  0  0  0
 30 18  2  0  0  0  0
 30  8  1  0  0  0  0
 31 30  1  0  0  0  0
 32 22  1  0  0  0  0
 32 33  1  0  0  0  0
 34 24  2  0  0  0  0
 34 36  1  0  0  0  0
 35 34  1  0  0  0  0
 36 32  2  0  0  0  0
 37 36  1  0  0  0  0
 38 15  1  0  0  0  0
 39 40  1  0  0  0  0
 39 44  2  0  0  0  0
 41 42  1  0  0  0  0
 41 43  1  0  0  0  0
 44 41  1  0  0  0  0
 45 39  1  0  0  0  0
 46 45  1  0  0  0  0
 47 45  2  0  0  0  0
 47 49  1  0  0  0  0
 48 47  1  0  0  0  0
 49 13  2  0  0  0  0
 50 49  1  0  0  0  0
 51 52  1  0  0  0  0
 53 51  1  0  0  0  0
M  END
