2,3,14
q = -1.0, confidence = 0.0

 30 32  0  0  1  0  0  0  0  0999 V2000
    2.1900    2.0687   -0.7759 S   0  0  0  0  0  0  0  0  0  0  0  0
   -2.0820   -0.7449   -0.0631 N   0  0  0  0  0  2  0  0  0  0  0  0
    2.0125   -0.5314    0.1476 N   0  0  0  0  0  2  0  0  0  0  0  0
   -2.8238   -1.8678   -0.1610 C   0  0  0  0  0  0  0  0  0  0  0  0
   -4.2092   -1.8547    0.0310 C   0  0  0  0  0  0  0  0  0  0  0  0
   -4.8397   -0.6401    0.3407 C   0  0  0  0  0  0  0  0  0  0  0  0
   -4.0673    0.5211    0.4384 C   0  0  0  0  0  0  0  0  0  0  0  0
   -2.6772    0.4573    0.2280 C   0  0  0  0  0  0  0  0  0  0  0  0
   -1.7488    1.5878    0.2433 C   0  0  0  0  0  0  0  0  0  0  0  0
   -2.1473    2.9328    0.3846 C   0  0  0  0  0  3  0  0  0  0  0  0
   -1.2009    3.9564    0.2600 C   0  0  0  0  0  0  0  0  0  0  0  0
    0.1330    3.6416   -0.0386 C   0  0  0  0  0  0  0  0  0  0  0  0
    0.5251    2.2924   -0.1864 C   0  0  0  0  0  0  0  0  0  0  0  0
   -0.3860    1.2398   -0.0017 C   0  0  0  0  0  3  0  0  0  0  0  0
    2.7872    0.5580   -0.0937 C   0  0  1  0  0  3  0  0  0  0  0  0
    4.1839    0.5385    0.1325 C   0  0  0  0  0  0  0  0  0  0  0  0
    4.7893   -0.6112    0.6346 C   0  0  0  0  0  0  0  0  0  0  0  0
    3.9781   -1.7182    0.9286 C   0  0  0  0  0  0  0  0  0  0  0  0
    2.6101   -1.6376    0.6779 C   0  0  0  0  0  0  0  0  0  0  0  0
   -2.2472   -2.7802   -0.3890 H   0  0  0  0  0  0  0  0  0  0  0  0
   -4.7755   -2.7921   -0.0600 H   0  0  0  0  0  0  0  0  0  0  0  0
   -5.9270   -0.5971    0.5047 H   0  0  0  0  0  0  0  0  0  0  0  0
   -4.5333    1.4865    0.6776 H   0  0  0  0  0  0  0  0  0  0  0  0
   -3.2009    3.1859    0.5763 H   0  0  0  0  0  0  0  0  0  0  0  0
   -1.5001    5.0080    0.3796 H   0  0  0  0  0  0  0  0  0  0  0  0
    0.8774    4.4432   -0.1642 H   0  0  0  0  0  0  0  0  0  0  0  0
    4.7646    1.4487   -0.0732 H   0  0  0  0  0  0  0  0  0  0  0  0
    5.8742   -0.6338    0.8171 H   0  0  0  0  0  0  0  0  0  0  0  0
    4.3917   -2.6469    1.3451 H   0  0  0  0  0  0  0  0  0  0  0  0
    1.9341   -2.4901    0.8422 H   0  0  0  0  0  0  0  0  0  0  0  0
  1 13  1  0  0  0  0
  2  8  1  0  0  0  0
  3 19  1  0  0  0  0
  4  2  1  0  0  0  0
  4  5  2  0  0  0  0
  5  6  1  0  0  0  0
  6  7  2  0  0  0  0
  6 22  1  0  0  0  0
  7 23  1  0  0  0  0
  8  9  2  0  0  0  0
  8  7  1  0  0  0  0
  9 10  1  0  0  0  0
 10 24  1  0  0  0  0
 11 25  1  0  0  0  0
 11 10  1  0  0  0  0
 12 11  2  0  0  0  0
 13 12  1  0  0  0  0
 13 14  2  0  0  0  0
 14  9  1  0  0  0  0
 15  1  1  6  0  0  0
 15 16  1  0  0  0  0
 15  3  1  0  0  0  0
 16 17  2  0  0  0  0
 17 28  1  0  0  0  0
 17 18  1  0  0  0  0
 18 29  1  0  0  0  0
 19 30  1  0  0  0  0
 19 18  2  0  0  0  0
 20  4  1  0  0  0  0
 21  5  1  0  0  0  0
 26 12  1  0  0  0  0
 27 16  1  0  0  0  0
M  END
