1,2,40
q = -1.0

 40 42  0  0  0  0  0  0  0  0999 V2000
    2.5066   -0.0686    0.1374 N   0  0  0  0  0  2  0  0  0  0  0  0
    0.2011    1.2063   -0.2331 N   0  0  0  0  0  2  0  0  0  0  0  0
   -2.1705    1.0999    0.0668 N   0  0  0  0  0  0  0  0  0  0  0  0
    3.6103   -0.8241    0.3156 C   0  0  0  0  0  0  0  0  0  0  0  0
    3.4059   -1.8623    0.6292 H   0  0  0  0  0  0  0  0  0  0  0  0
    4.8939   -0.3168    0.0973 C   0  0  0  0  0  0  0  0  0  0  0  0
    5.7692   -0.9629    0.2543 H   0  0  0  0  0  0  0  0  0  0  0  0
    5.0335    1.0140   -0.3309 C   0  0  0  0  0  0  0  0  0  0  0  0
    6.0283    1.4404   -0.5268 H   0  0  0  0  0  0  0  0  0  0  0  0
    3.8867    1.7938   -0.5126 C   0  0  0  0  0  0  0  0  0  0  0  0
    3.9720    2.8327   -0.8578 H   0  0  0  0  0  0  0  0  0  0  0  0
    2.6206    1.2307   -0.2634 C   0  0  0  0  0  0  0  0  0  0  0  0
    1.3465    1.9656   -0.3709 C   0  0  0  0  0  0  0  0  0  0  0  0
    1.3014    3.3587   -0.4903 C   0  0  0  0  0  0  0  0  0  0  0  0
    2.2304    3.9337   -0.5851 H   0  0  0  0  0  0  0  0  0  0  0  0
    0.0579    4.0041   -0.4431 C   0  0  0  0  0  0  0  0  0  0  0  0
   -0.0110    5.0963   -0.5495 H   0  0  0  0  0  0  0  0  0  0  0  0
   -1.0925    3.2442   -0.2652 C   0  0  0  0  0  0  0  0  0  0  0  0
   -2.0766    3.7267   -0.2543 H   0  0  0  0  0  0  0  0  0  0  0  0
   -1.0213    1.8270   -0.1564 C   0  0  0  0  0  0  0  0  0  0  0  0
   -3.1599    1.6993    1.0165 C   0  0  0  0  0  0  0  0  0  0  0  0
   -2.5842    2.4913    1.5378 H   0  0  0  0  0  0  0  0  0  0  0  0
   -4.3809    2.3793    0.3755 C   0  0  0  0  0  0  0  0  0  0  0  0
   -4.1057    2.9826   -0.5120 H   0  0  0  0  0  0  0  0  0  0  0  0
   -4.8566    3.0546    1.1154 H   0  0  0  0  0  0  0  0  0  0  0  0
   -5.1498    1.6475    0.0620 H   0  0  0  0  0  0  0  0  0  0  0  0
   -3.5619    0.6763    2.0840 C   0  0  0  0  0  0  0  0  0  0  0  0
   -4.1701   -0.1424    1.6538 H   0  0  0  0  0  0  0  0  0  0  0  0
   -4.1609    1.1791    2.8692 H   0  0  0  0  0  0  0  0  0  0  0  0
   -2.6660    0.2249    2.5523 H   0  0  0  0  0  0  0  0  0  0  0  0
   -2.3792   -0.2401   -0.4046 C   0  0  0  0  0  0  0  0  0  0  0  0
   -3.6437   -0.5346   -0.9652 C   0  0  0  0  0  0  0  0  0  0  0  0
   -4.3768    0.2699   -1.1009 H   0  0  0  0  0  0  0  0  0  0  0  0
   -3.9660   -1.8334   -1.3728 C   0  0  0  0  0  0  0  0  0  0  0  0
   -4.9573   -2.0402   -1.8040 H   0  0  0  0  0  0  0  0  0  0  0  0
   -3.0095   -2.8515   -1.2442 C   0  0  0  0  0  0  0  0  0  0  0  0
   -3.2458   -3.8806   -1.5565 H   0  0  0  0  0  0  0  0  0  0  0  0
   -1.7385   -2.5523   -0.7391 C   0  0  0  0  0  3  0  0  0  0  0  0
   -0.9832   -3.3463   -0.6572 H   0  0  0  0  0  0  0  0  0  0  0  0
   -1.3825   -1.2468   -0.3138 C   0  0  0  0  0  2  0  0  0  0  0  0
  1  4  1  0  0  0  0
  2 20  1  0  0  0  0
  3 21  1  0  0  0  0
  4  5  1  0  0  0  0
  6  7  1  0  0  0  0
  6  4  2  0  0  0  0
  8  6  1  0  0  0  0
  9  8  1  0  0  0  0
 10  8  2  0  0  0  0
 10 12  1  0  0  0  0
 11 10  1  0  0  0  0
 12  1  1  0  0  0  0
 13 12  2  0  0  0  0
 13  2  1  0  0  0  0
 14 16  2  0  0  0  0
 14 13  1  0  0  0  0
 15 14  1  0  0  0  0
 16 18  1  0  0  0  0
 17 16  1  0  0  0  0
 18 19  1  0  0  0  0
 18 20  2  0  0  0  0
 20  3  1  0  0  0  0
 21 22  1  0  0  0  0
 21 27  1  0  0  0  0
 23 21  1  0  0  0  0
 23 25  1  0  0  0  0
 24 23  1  0  0  0  0
 26 23  1  0  0  0  0
 27 30  1  0  0  0  0
 27 29  1  0  0  0  0
 28 27  1  0  0  0  0
 31 40  1  0  0  0  0
 31  3  1  0  0  0  0
 32 31  2  0  0  0  0
 33 32  1  0  0  0  0
 34 36  2  0  0  0  0
 34 32  1  0  0  0  0
 35 34  1  0  0  0  0
 36 38  1  0  0  0  0
 37 36  1  0  0  0  0
 38 39  1  0  0  0  0
 38 40  1  0  0  0  0
M  END
