1,2,21
q = -1.0, confidence = 0.016

 40 42  0  0  0  0  0  0  0  0999 V2000
   -2.7201    0.2199   -0.0003 N   0  0  0  0  0  2  0  0  0  0  0  0
   -0.2611    1.0749    0.0002 N   0  0  0  0  0  2  0  0  0  0  0  0
    1.8491    0.1715    0.0006 N   0  0  0  0  0  0  0  0  0  0  0  0
   -3.9454   -0.3369   -0.0004 C   0  0  0  0  0  0  0  0  0  0  0  0
   -3.9497   -1.4404   -0.0006 H   0  0  0  0  0  0  0  0  0  0  0  0
   -5.1106    0.4381   -0.0002 C   0  0  0  0  0  0  0  0  0  0  0  0
   -6.0945   -0.0522   -0.0003 H   0  0  0  0  0  0  0  0  0  0  0  0
   -4.9906    1.8377   -0.0000 C   0  0  0  0  0  0  0  0  0  0  0  0
   -5.8858    2.4769    0.0001 H   0  0  0  0  0  0  0  0  0  0  0  0
   -3.7154    2.4152    0.0001 C   0  0  0  0  0  0  0  0  0  0  0  0
   -3.5958    3.5072    0.0003 H   0  0  0  0  0  0  0  0  0  0  0  0
   -2.5802    1.5847   -0.0000 C   0  0  0  0  0  0  0  0  0  0  0  0
   -1.1871    2.0761    0.0002 C   0  0  0  0  0  0  0  0  0  0  0  0
   -0.7680    3.4141    0.0005 C   0  0  0  0  0  0  0  0  0  0  0  0
   -1.4983    4.2330    0.0004 H   0  0  0  0  0  0  0  0  0  0  0  0
    0.6160    3.6773    0.0009 C   0  0  0  0  0  0  0  0  0  0  0  0
    0.9695    4.7189    0.0012 H   0  0  0  0  0  0  0  0  0  0  0  0
    1.5533    2.6403    0.0010 C   0  0  0  0  0  0  0  0  0  0  0  0
    2.6320    2.8425    0.0014 H   0  0  0  0  0  0  0  0  0  0  0  0
    1.0910    1.2970    0.0005 C   0  0  0  0  0  0  0  0  0  0  0  0
    1.1808   -1.2151    0.0003 C   0  0  0  0  0  3  0  0  0  0  0  0
    1.5969   -1.9766    1.2618 C   0  0  0  0  0  0  0  0  0  0  0  0
    1.0547   -2.9418    1.2832 H   0  0  0  0  0  0  0  0  0  0  0  0
    1.3319   -1.4191    2.1821 H   0  0  0  0  0  0  0  0  0  0  0  0
    2.6898   -2.1900    1.2771 H   0  0  0  0  0  0  0  0  0  0  0  0
    1.5977   -1.9763   -1.2610 C   0  0  0  0  0  0  0  0  0  0  0  0
    2.6907   -2.1893   -1.2759 H   0  0  0  0  0  0  0  0  0  0  0  0
    1.3330   -1.4188   -2.1813 H   0  0  0  0  0  0  0  0  0  0  0  0
    1.0558   -2.9417   -1.2828 H   0  0  0  0  0  0  0  0  0  0  0  0
    3.2756    0.2830    0.0002 C   0  0  0  0  0  0  0  0  0  0  0  0
    3.9810    0.3350    1.2178 C   0  0  0  0  0  0  0  0  0  0  0  0
    3.4181    0.2994    2.1613 H   0  0  0  0  0  0  0  0  0  0  0  0
    5.3804    0.4324    1.2148 C   0  0  0  0  0  0  0  0  0  0  0  0
    5.9269    0.4704    2.1693 H   0  0  0  0  0  0  0  0  0  0  0  0
    6.0813    0.4803   -0.0009 C   0  0  0  0  0  0  0  0  0  0  0  0
    7.1792    0.5545   -0.0013 H   0  0  0  0  0  0  0  0  0  0  0  0
    5.3792    0.4355   -1.2161 C   0  0  0  0  0  0  0  0  0  0  0  0
    5.9248    0.4758   -2.1710 H   0  0  0  0  0  0  0  0  0  0  0  0
    3.9799    0.3380   -1.2179 C   0  0  0  0  0  0  0  0  0  0  0  0
    3.4161    0.3046   -2.1610 H   0  0  0  0  0  0  0  0  0  0  0  0
  1 12  1  0  0  0  0
  2 13  1  0  0  0  0
  2 20  1  0  0  0  0
  4  1  1  0  0  0  0
  4  6  2  0  0  0  0
  5  4  1  0  0  0  0
  6  8  1  0  0  0  0
  7  6  1  0  0  0  0
  8 10  2  0  0  0  0
  8  9  1  0  0  0  0
 10 11  1  0  0  0  0
 12 10  1  0  0  0  0
 12 13  2  0  0  0  0
 13 14  1  0  0  0  0
 14 16  2  0  0  0  0
 15 14  1  0  0  0  0
 16 18  1  0  0  0  0
 16 17  1  0  0  0  0
 18 19  1  0  0  0  0
 20  3  1  0  0  0  0
 20 18  2  0  0  0  0
 21  3  1  0  0  0  0
 21 22  1  0  0  0  0
 22 25  1  0  0  0  0
 22 23  1  0  0  0  0
 22 24  1  0  0  0  0
 26 21  1  0  0  0  0
 27 26  1  0  0  0  0
 28 26  1  0  0  0  0
 29 26  1  0  0  0  0
 30  3  1  0  0  0  0
 30 31  1  0  0  0  0
 31 32  1  0  0  0  0
 33 31  2  0  0  0  0
 33 34  1  0  0  0  0
 35 33  1  0  0  0  0
 36 35  1  0  0  0  0
 37 35  2  0  0  0  0
 38 37  1  0  0  0  0
 39 37  1  0  0  0  0
 39 30  2  0  0  0  0
 40 39  1  0  0  0  0
M  END
