1,2,37
q = 0.0, confidence = 0.986

 66 68  0  0  1  0  0  0  0  0999 V2000
    2.4460    1.7422   -0.1247 N   0  0  0  0  0  0  0  0  0  0  0  0
    2.2712   -0.8549    0.9018 N   0  0  0  0  0  2  0  0  0  0  0  0
   -0.2125   -2.4186    0.8728 N   0  0  0  0  0  0  0  0  0  0  0  0
   -1.9613   -1.1412    0.7390 N   0  0  0  0  0  0  0  0  0  0  0  0
    2.6488    2.0619   -2.6282 C   0  0  0  0  0  0  0  0  0  0  0  0
    3.2428    1.7061   -3.4924 H   0  0  0  0  0  0  0  0  0  0  0  0
    2.6188    3.1690   -2.6715 H   0  0  0  0  0  0  0  0  0  0  0  0
    1.6263    1.6548   -2.7481 H   0  0  0  0  0  0  0  0  0  0  0  0
    3.2795    1.5370   -1.3479 C   0  0  0  0  0  0  0  0  0  0  0  0
    3.4281    0.4422   -1.4447 H   0  0  0  0  0  0  0  0  0  0  0  0
    4.2808    2.0047   -1.1879 H   0  0  0  0  0  0  0  0  0  0  0  0
    3.0471    4.2273    0.1074 C   0  0  0  0  0  0  0  0  0  0  0  0
    2.5601    5.2179    0.2054 H   0  0  0  0  0  0  0  0  0  0  0  0
    3.6878    4.2655   -0.7963 H   0  0  0  0  0  0  0  0  0  0  0  0
    3.7066    4.1017    0.9897 H   0  0  0  0  0  0  0  0  0  0  0  0
    1.9663    3.1495    0.0154 C   0  0  0  0  0  0  0  0  0  0  0  0
    1.3197    3.1628    0.9148 H   0  0  0  0  0  0  0  0  0  0  0  0
    1.2978    3.3528   -0.8403 H   0  0  0  0  0  0  0  0  0  0  0  0
    3.2259    1.3600    1.0749 C   0  0  0  0  0  0  0  0  0  0  0  0
    2.6581    1.7262    1.9583 H   0  0  0  0  0  0  0  0  0  0  0  0
    4.2312    1.8392    1.0864 H   0  0  0  0  0  0  0  0  0  0  0  0
    3.3718   -0.1274    1.2261 C   0  0  1  0  0  3  0  0  0  0  0  0
    4.5300   -0.7292    1.7338 C   0  0  0  0  0  0  0  0  0  0  0  0
    5.4081   -0.1088    1.9632 H   0  0  0  0  0  0  0  0  0  0  0  0
    4.5399   -2.1138    1.9512 C   0  0  0  0  0  0  0  0  0  0  0  0
    5.4305   -2.6113    2.3624 H   0  0  0  0  0  0  0  0  0  0  0  0
    3.3947   -2.8521    1.6300 C   0  0  0  0  0  0  0  0  0  0  0  0
    3.3625   -3.9411    1.7798 H   0  0  0  0  0  0  0  0  0  0  0  0
    2.2778   -2.1971    1.0874 C   0  0  0  0  0  0  0  0  0  0  0  0
    1.0982   -2.9727    0.5661 C   0  0  0  0  0  0  0  0  0  0  0  0
    1.2045   -2.9675   -0.5490 H   0  0  0  0  0  0  0  0  0  0  0  0
    1.1323   -4.0129    0.9375 H   0  0  0  0  0  0  0  0  0  0  0  0
   -1.2978   -3.1836    1.2904 C   0  0  0  0  0  0  0  0  0  0  0  0
   -1.1929   -4.2265    1.6033 H   0  0  0  0  0  0  0  0  0  0  0  0
   -2.3998   -2.3803    1.2052 C   0  0  0  0  0  0  0  0  0  0  0  0
   -3.4521   -2.5675    1.4339 H   0  0  0  0  0  0  0  0  0  0  0  0
   -0.5956   -1.1343    0.5265 C   0  0  0  0  0  2  0  0  0  0  0  0
   -2.8611   -0.0756    0.3985 C   0  0  0  0  0  0  0  0  0  0  0  0
   -3.1833    0.8906    1.3786 C   0  0  0  0  0  0  0  0  0  0  0  0
   -4.1157    1.8844    1.0290 C   0  0  0  0  0  0  0  0  0  0  0  0
   -4.3903    2.6521    1.7682 H   0  0  0  0  0  0  0  0  0  0  0  0
   -4.6900    1.9141   -0.2476 C   0  0  0  0  0  0  0  0  0  0  0  0
   -5.4167    2.7006   -0.5029 H   0  0  0  0  0  0  0  0  0  0  0  0
   -4.3273    0.9625   -1.2084 C   0  0  0  0  0  0  0  0  0  0  0  0
   -4.7611    1.0156   -2.2178 H   0  0  0  0  0  0  0  0  0  0  0  0
   -3.3965   -0.0493   -0.9123 C   0  0  0  0  0  0  0  0  0  0  0  0
   -2.5513    0.8594    2.7630 C   0  0  0  0  0  0  0  0  0  0  0  0
   -1.7033    0.1471    2.7183 H   0  0  0  0  0  0  0  0  0  0  0  0
   -3.5513    0.3415    3.8117 C   0  0  0  0  0  0  0  0  0  0  0  0
   -3.9215   -0.6709    3.5518 H   0  0  0  0  0  0  0  0  0  0  0  0
   -4.4335    1.0110    3.8876 H   0  0  0  0  0  0  0  0  0  0  0  0
   -3.0796    0.2861    4.8145 H   0  0  0  0  0  0  0  0  0  0  0  0
   -1.9669    2.2236    3.1586 C   0  0  0  0  0  0  0  0  0  0  0  0
   -1.2441    2.5728    2.3949 H   0  0  0  0  0  0  0  0  0  0  0  0
   -1.4346    2.1477    4.1290 H   0  0  0  0  0  0  0  0  0  0  0  0
   -2.7544    2.9970    3.2728 H   0  0  0  0  0  0  0  0  0  0  0  0
   -2.9738   -1.0612   -1.9698 C   0  0  0  0  0  0  0  0  0  0  0  0
   -2.0338   -1.5361   -1.6236 H   0  0  0  0  0  0  0  0  0  0  0  0
   -4.0362   -2.1641   -2.1261 C   0  0  0  0  0  0  0  0  0  0  0  0
   -4.2217   -2.6921   -1.1689 H   0  0  0  0  0  0  0  0  0  0  0  0
   -3.7108   -2.9169   -2.8731 H   0  0  0  0  0  0  0  0  0  0  0  0
   -5.0032   -1.7395   -2.4691 H   0  0  0  0  0  0  0  0  0  0  0  0
   -2.6462   -0.3992   -3.3164 C   0  0  0  0  0  0  0  0  0  0  0  0
   -1.8926    0.4011   -3.1904 H   0  0  0  0  0  0  0  0  0  0  0  0
   -3.5465    0.0345   -3.7997 H   0  0  0  0  0  0  0  0  0  0  0  0
   -2.2201   -1.1509   -4.0103 H   0  0  0  0  0  0  0  0  0  0  0  0
  1 16  1  0  0  0  0
  1 19  1  0  0  0  0
  2 29  1  0  0  0  0
  2 22  1  0  0  0  0
  3 33  1  0  0  0  0
  4 35  1  0  0  0  0
  5  9  1  0  0  0  0
  6  5  1  0  0  0  0
  7  5  1  0  0  0  0
  8  5  1  0  0  0  0
  9 11  1  0  0  0  0
  9  1  1  0  0  0  0
 10  9  1  0  0  0  0
 12 13  1  0  0  0  0
 12 15  1  0  0  0  0
 14 12  1  0  0  0  0
 16 12  1  0  0  0  0
 16 17  1  0  0  0  0
 18 16  1  0  0  0  0
 19 21  1  0  0  0  0
 19 20  1  0  0  0  0
 22 19  1  1  0  0  0
 22 23  1  0  0  0  0
 23 25  2  0  0  0  0
 23 24  1  0  0  0  0
 25 26  1  0  0  0  0
 27 28  1  0  0  0  0
 27 25  1  0  0  0  0
 29 27  2  0  0  0  0
 30  3  1  0  0  0  0
 30 32  1  0  0  0  0
 30 29  1  0  0  0  0
 31 30  1  0  0  0  0
 33 34  1  0  0  0  0
 35 33  2  0  0  0  0
 35 36  1  0  0  0  0
 37  4  1  0  0  0  0
 37  3  1  0  0  0  0
 38  4  1  0  0  0  0
 38 39  1  0  0  0  0
 39 47  1  0  0  0  0
 40 39  2  0  0  0  0
 40 41  1  0  0  0  0
 42 40  1  0  0  0  0
 43 42  1  0  0  0  0
 44 46  1  0  0  0  0
 44 42  2  0  0  0  0
 45 44  1  0  0  0  0
 46 38  2  0  0  0  0
 47 53  1  0  0  0  0
 47 49  1  0  0  0  0
 48 47  1  0  0  0  0
 49 51  1  0  0  0  0
 49 52  1  0  0  0  0
 50 49  1  0  0  0  0
 53 56  1  0  0  0  0
 53 55  1  0  0  0  0
 54 53  1  0  0  0  0
 57 58  1  0  0  0  0
 57 46  1  0  0  0  0
 59 57  1  0  0  0  0
 59 60  1  0  0  0  0
 61 59  1  0  0  0  0
 62 59  1  0  0  0  0
 63 64  1  0  0  0  0
 63 57  1  0  0  0  0
 65 63  1  0  0  0  0
 66 63  1  0  0  0  0
M  END
