1,2,37
q = 0.0, confidence = 0.986

 57 59  0  0  1  0  0  0  0  0999 V2000
   -1.9085    1.9982   -0.3994 N   0  0  0  0  0  0  0  0  0  0  0  0
   -2.2652   -0.7642   -0.6601 N   0  0  0  0  0  2  0  0  0  0  0  0
   -0.1126   -2.7063   -0.1920 N   0  0  0  0  0  0  0  0  0  0  0  0
    1.8453   -1.8017   -0.4262 N   0  0  0  0  0  0  0  0  0  0  0  0
   -1.9181    3.0252    1.9156 C   0  0  0  0  0  0  0  0  0  0  0  0
   -2.5229    3.0424    2.8431 H   0  0  0  0  0  0  0  0  0  0  0  0
   -1.6843    4.0742    1.6452 H   0  0  0  0  0  0  0  0  0  0  0  0
   -0.9827    2.4808    2.1485 H   0  0  0  0  0  0  0  0  0  0  0  0
   -2.6986    2.2954    0.8335 C   0  0  0  0  0  0  0  0  0  0  0  0
   -3.0337    1.3165    1.2330 H   0  0  0  0  0  0  0  0  0  0  0  0
   -3.6080    2.8785    0.5504 H   0  0  0  0  0  0  0  0  0  0  0  0
   -2.0617    4.3937   -1.3100 C   0  0  0  0  0  0  0  0  0  0  0  0
   -1.4095    5.2098   -1.6798 H   0  0  0  0  0  0  0  0  0  0  0  0
   -2.6346    4.7963   -0.4508 H   0  0  0  0  0  0  0  0  0  0  0  0
   -2.7804    4.1605   -2.1215 H   0  0  0  0  0  0  0  0  0  0  0  0
   -1.1904    3.1970   -0.9259 C   0  0  0  0  0  0  0  0  0  0  0  0
   -0.6029    2.8424   -1.7954 H   0  0  0  0  0  0  0  0  0  0  0  0
   -0.4495    3.4944   -0.1624 H   0  0  0  0  0  0  0  0  0  0  0  0
   -2.8085    1.4579   -1.4441 C   0  0  0  0  0  0  0  0  0  0  0  0
   -2.2319    1.4533   -2.3950 H   0  0  0  0  0  0  0  0  0  0  0  0
   -3.7088    2.0975   -1.5877 H   0  0  0  0  0  0  0  0  0  0  0  0
   -3.2310    0.0421   -1.1735 C   0  0  1  0  0  3  0  0  0  0  0  0
   -4.5057   -0.4437   -1.4907 C   0  0  0  0  0  0  0  0  0  0  0  0
   -5.2667    0.2456   -1.8835 H   0  0  0  0  0  0  0  0  0  0  0  0
   -4.7804   -1.8064   -1.3113 C   0  0  0  0  0  0  0  0  0  0  0  0
   -5.7679   -2.2184   -1.5657 H   0  0  0  0  0  0  0  0  0  0  0  0
   -3.7736   -2.6320   -0.7969 C   0  0  0  0  0  0  0  0  0  0  0  0
   -3.9493   -3.7053   -0.6348 H   0  0  0  0  0  0  0  0  0  0  0  0
   -2.5278   -2.0787   -0.4610 C   0  0  0  0  0  0  0  0  0  0  0  0
   -1.4846   -2.8918    0.2572 C   0  0  0  0  0  0  0  0  0  0  0  0
   -1.5288   -2.5604    1.3262 H   0  0  0  0  0  0  0  0  0  0  0  0
   -1.7300   -3.9673    0.1922 H   0  0  0  0  0  0  0  0  0  0  0  0
    0.7902   -3.7507   -0.3705 C   0  0  0  0  0  0  0  0  0  0  0  0
    0.4784   -4.7993   -0.3730 H   0  0  0  0  0  0  0  0  0  0  0  0
    2.0242   -3.1820   -0.5166 C   0  0  0  0  0  0  0  0  0  0  0  0
    3.0113   -3.6234   -0.6780 H   0  0  0  0  0  0  0  0  0  0  0  0
    0.5185   -1.4751   -0.2249 C   0  0  0  0  0  2  0  0  0  0  0  0
    2.9338   -0.8685   -0.4021 C   0  0  0  0  0  0  0  0  0  0  0  0
    3.3701   -0.2846   -1.6089 C   0  0  0  0  0  0  0  0  0  0  0  0
    4.4401    0.6242   -1.5438 C   0  0  0  0  0  0  0  0  0  0  0  0
    4.7912    1.0976   -2.4750 H   0  0  0  0  0  0  0  0  0  0  0  0
    5.0628    0.9510   -0.3251 C   0  0  0  0  0  0  0  0  0  0  0  0
    4.5965    0.3394    0.8534 C   0  0  0  0  0  0  0  0  0  0  0  0
    5.0654    0.5947    1.8172 H   0  0  0  0  0  0  0  0  0  0  0  0
    3.5268   -0.5707    0.8451 C   0  0  0  0  0  0  0  0  0  0  0  0
    2.6728   -0.6003   -2.9048 C   0  0  0  0  0  0  0  0  0  0  0  0
    1.6153   -0.2620   -2.8560 H   0  0  0  0  0  0  0  0  0  0  0  0
    2.6488   -1.6913   -3.1061 H   0  0  0  0  0  0  0  0  0  0  0  0
    3.1669   -0.0996   -3.7588 H   0  0  0  0  0  0  0  0  0  0  0  0
    6.1717    1.9714   -0.2726 C   0  0  0  0  0  0  0  0  0  0  0  0
    6.9215    1.7223    0.5045 H   0  0  0  0  0  0  0  0  0  0  0  0
    5.7655    2.9751   -0.0223 H   0  0  0  0  0  0  0  0  0  0  0  0
    6.6948    2.0611   -1.2449 H   0  0  0  0  0  0  0  0  0  0  0  0
    2.9750   -1.1585    2.1159 C   0  0  0  0  0  0  0  0  0  0  0  0
    3.5922   -0.8716    2.9878 H   0  0  0  0  0  0  0  0  0  0  0  0
    2.9266   -2.2662    2.0730 H   0  0  0  0  0  0  0  0  0  0  0  0
    1.9336   -0.8067    2.2942 H   0  0  0  0  0  0  0  0  0  0  0  0
  1  9  1  0  0  0  0
  2 29  1  0  0  0  0
  3 30  1  0  0  0  0
  4 38  1  0  0  0  0
  4 37  1  0  0  0  0
  5  8  1  0  0  0  0
  5  6  1  0  0  0  0
  7  5  1  0  0  0  0
  9 10  1  0  0  0  0
  9  5  1  0  0  0  0
 11  9  1  0  0  0  0
 12 16  1  0  0  0  0
 12 14  1  0  0  0  0
 13 12  1  0  0  0  0
 15 12  1  0  0  0  0
 16  1  1  0  0  0  0
 16 18  1  0  0  0  0
 17 16  1  0  0  0  0
 19  1  1  0  0  0  0
 20 19  1  0  0  0  0
 21 19  1  0  0  0  0
 22 19  1  6  0  0  0
 22  2  1  0  0  0  0
 23 25  2  0  0  0  0
 23 22  1  0  0  0  0
 24 23  1  0  0  0  0
 25 27  1  0  0  0  0
 26 25  1  0  0  0  0
 27 28  1  0  0  0  0
 27 29  2  0  0  0  0
 29 30  1  0  0  0  0
 30 31  1  0  0  0  0
 32 30  1  0  0  0  0
 33  3  1  0  0  0  0
 34 33  1  0  0  0  0
 35  4  1  0  0  0  0
 35 33  2  0  0  0  0
 36 35  1  0  0  0  0
 37  3  1  0  0  0  0
 38 45  1  0  0  0  0
 39 40  1  0  0  0  0
 39 38  2  0  0  0  0
 40 42  2  0  0  0  0
 41 40  1  0  0  0  0
 42 50  1  0  0  0  0
 42 43  1  0  0  0  0
 43 44  1  0  0  0  0
 45 43  2  0  0  0  0
 45 54  1  0  0  0  0
 46 47  1  0  0  0  0
 46 39  1  0  0  0  0
 48 46  1  0  0  0  0
 49 46  1  0  0  0  0
 50 52  1  0  0  0  0
 50 51  1  0  0  0  0
 53 50  1  0  0  0  0
 54 57  1  0  0  0  0
 54 55  1  0  0  0  0
 56 54  1  0  0  0  0
M  END
