3,4,9
q = -2.0, confidence = 0.884

 32 34  0  0  1  0  0  0  0  0999 V2000
   -0.6662   -3.6130   -0.6511 O   0  0  0  0  0  0  0  0  0  0  0  0
    5.1593    0.2351    1.7725 F   0  0  0  0  0  0  0  0  0  0  0  0
   -0.6978   -1.3269   -0.2394 N   0  0  0  0  0  2  0  0  0  0  0  0
   -1.8098    1.1150   -0.1589 N   0  0  0  0  0  2  0  0  0  0  0  0
   -2.0388   -1.2594    0.1357 C   0  0  0  0  0  0  0  0  0  0  0  0
    2.2803   -1.6422   -0.5607 C   0  0  0  0  0  0  0  0  0  0  0  0
    3.0088    0.2631    0.7732 C   0  0  0  0  0  0  0  0  0  0  0  0
    2.8535    1.2475    1.2373 H   0  0  0  0  0  0  0  0  0  0  0  0
    2.0253   -0.3588   -0.0201 C   0  0  0  0  0  3  0  0  0  0  0  0
    1.2325   -2.3425   -1.3863 C   0  0  0  0  0  0  0  0  0  0  0  0
    1.5567   -3.3615   -1.6650 H   0  0  0  0  0  0  0  0  0  0  0  0
    1.0560   -1.7757   -2.3280 H   0  0  0  0  0  0  0  0  0  0  0  0
   -2.8804   -2.3421    0.4594 C   0  0  0  0  0  0  0  0  0  0  0  0
   -2.4559   -3.3507    0.4389 H   0  0  0  0  0  0  0  0  0  0  0  0
    4.2286   -0.3847    1.0098 C   0  0  0  0  0  0  0  0  0  0  0  0
   -0.1288   -2.5036   -0.6990 C   0  0  0  0  0  0  0  0  0  0  0  0
   -4.8191   -0.8666    0.7899 C   0  0  0  0  0  0  0  0  0  0  0  0
   -5.8797   -0.7200    1.0420 H   0  0  0  0  0  0  0  0  0  0  0  0
   -2.2950    2.3568   -0.1806 C   0  0  0  0  0  0  0  0  0  0  0  0
   -1.5848    3.1571   -0.4408 H   0  0  0  0  0  0  0  0  0  0  0  0
   -4.0143    0.2601    0.4713 C   0  0  0  0  0  0  0  0  0  0  0  0
    3.5164   -2.2663   -0.2994 C   0  0  0  0  0  0  0  0  0  0  0  0
    3.7092   -3.2671   -0.7176 H   0  0  0  0  0  0  0  0  0  0  0  0
   -2.6257    0.0577    0.1532 C   0  0  2  0  0  3  0  0  0  0  0  0
   -4.2421   -2.1313    0.7795 C   0  0  0  0  0  0  0  0  0  0  0  0
   -4.8576   -3.0094    1.0297 H   0  0  0  0  0  0  0  0  0  0  0  0
   -4.4986    1.5978    0.4457 C   0  0  0  0  0  0  0  0  0  0  0  0
   -5.5562    1.7869    0.6877 H   0  0  0  0  0  0  0  0  0  0  0  0
    4.5047   -1.6474    0.4809 C   0  0  0  0  0  0  0  0  0  0  0  0
    5.4704   -2.1296    0.6880 H   0  0  0  0  0  0  0  0  0  0  0  0
   -3.6473    2.6435    0.1175 C   0  0  0  0  0  0  0  0  0  0  0  0
   -4.0016    3.6837    0.0873 H   0  0  0  0  0  0  0  0  0  0  0  0
  3  5  1  0  0  0  0
  5 24  1  0  0  0  0
  5 13  2  0  0  0  0
  6 22  2  0  0  0  0
  6  9  1  0  0  0  0
  7 15  1  0  0  0  0
  7  8  1  0  0  0  0
  9  7  2  0  0  0  0
 10 16  1  0  0  0  0
 10  6  1  0  0  0  0
 11 10  1  0  0  0  0
 12 10  1  0  0  0  0
 13 25  1  0  0  0  0
 14 13  1  0  0  0  0
 15  2  1  0  0  0  0
 16  1  2  0  0  0  0
 16  3  1  0  0  0  0
 17 18  1  0  0  0  0
 19  4  1  0  0  0  0
 19 31  2  0  0  0  0
 20 19  1  0  0  0  0
 21 17  1  0  0  0  0
 22 29  1  0  0  0  0
 23 22  1  0  0  0  0
 24  4  1  6  0  0  0
 24 21  1  0  0  0  0
 25 17  2  0  0  0  0
 25 26  1  0  0  0  0
 27 21  2  0  0  0  0
 27 28  1  0  0  0  0
 29 30  1  0  0  0  0
 29 15  2  0  0  0  0
 31 27  1  0  0  0  0
 32 31  1  0  0  0  0
M  END
