5,6,7
q = -1.0

 35 39  0  0  1  0  0  0  0  0999 V2000
   -4.0442    1.9868   -0.0747 S   0  0  0  0  0  0  0  0  0  0  0  0
    4.0439    1.9874   -0.0742 S   0  0  0  0  0  0  0  0  0  0  0  0
   -2.3699    4.6158    0.2055 F   0  0  0  0  0  0  0  0  0  0  0  0
    2.3691    4.6162    0.2058 F   0  0  0  0  0  0  0  0  0  0  0  0
   -2.0529    0.3046   -0.2662 N   0  0  0  0  0  2  0  0  0  0  0  0
    2.0529    0.3049   -0.2660 N   0  0  0  0  0  2  0  0  0  0  0  0
   -0.0001    1.8444   -0.0815 C   0  0  0  0  0  3  0  0  0  0  0  0
    1.2107    3.9342    0.1378 C   0  0  0  0  0  0  0  0  0  0  0  0
   -0.0004    4.6405    0.2174 C   0  0  0  0  0  0  0  0  0  0  0  0
   -1.2113    3.9340    0.1376 C   0  0  0  0  0  0  0  0  0  0  0  0
   -1.2391    2.5356   -0.0134 C   0  0  0  0  0  0  0  0  0  0  0  0
    2.3409    1.6184   -0.1212 C   0  0  1  0  0  3  0  0  0  0  0  0
    4.4052    0.2798   -0.2501 C   0  0  0  0  0  0  0  0  0  0  0  0
    5.6659   -0.3333   -0.3040 C   0  0  0  0  0  0  0  0  0  0  0  0
    5.7163   -1.7252   -0.4462 C   0  0  0  0  0  0  0  0  0  0  0  0
    4.5290   -2.4841   -0.5336 C   0  0  0  0  0  0  0  0  0  0  0  0
    3.2724   -1.8751   -0.4818 C   0  0  0  0  0  0  0  0  0  0  0  0
    3.1996   -0.4753   -0.3385 C   0  0  0  0  0  0  0  0  0  0  0  0
   -2.3411    1.6179   -0.1215 C   0  0  2  0  0  3  0  0  0  0  0  0
   -4.4052    0.2791   -0.2505 C   0  0  0  0  0  0  0  0  0  0  0  0
   -5.6659   -0.3341   -0.3044 C   0  0  0  0  0  0  0  0  0  0  0  0
   -5.7162   -1.7261   -0.4465 C   0  0  0  0  0  0  0  0  0  0  0  0
   -4.5288   -2.4848   -0.5338 C   0  0  0  0  0  0  0  0  0  0  0  0
   -3.2723   -1.8757   -0.4820 C   0  0  0  0  0  0  0  0  0  0  0  0
   -3.1995   -0.4759   -0.3387 C   0  0  0  0  0  0  0  0  0  0  0  0
    1.2386    2.5358   -0.0132 C   0  0  0  0  0  0  0  0  0  0  0  0
   -0.0005    5.7315    0.3335 H   0  0  0  0  0  0  0  0  0  0  0  0
    6.5866    0.2639   -0.2362 H   0  0  0  0  0  0  0  0  0  0  0  0
    6.6930   -2.2293   -0.4907 H   0  0  0  0  0  0  0  0  0  0  0  0
    4.5903   -3.5766   -0.6465 H   0  0  0  0  0  0  0  0  0  0  0  0
    2.3514   -2.4613   -0.5548 H   0  0  0  0  0  0  0  0  0  0  0  0
   -6.5867    0.2630   -0.2366 H   0  0  0  0  0  0  0  0  0  0  0  0
   -6.6929   -2.2302   -0.4910 H   0  0  0  0  0  0  0  0  0  0  0  0
   -4.5900   -3.5773   -0.6467 H   0  0  0  0  0  0  0  0  0  0  0  0
   -2.3513   -2.4618   -0.5549 H   0  0  0  0  0  0  0  0  0  0  0  0
  5 19  1  0  0  0  0
  6 12  1  0  0  0  0
  7 11  2  0  0  0  0
  7 26  1  0  0  0  0
  8  4  1  0  0  0  0
  8  9  1  0  0  0  0
  9 27  1  0  0  0  0
 10  3  1  0  0  0  0
 10  9  2  0  0  0  0
 11 10  1  0  0  0  0
 12  2  1  0  0  0  0
 12 26  1  1  0  0  0
 13  2  1  0  0  0  0
 14 13  1  0  0  0  0
 14 28  1  0  0  0  0
 15 14  2  0  0  0  0
 16 17  2  0  0  0  0
 16 15  1  0  0  0  0
 17 18  1  0  0  0  0
 18  6  1  0  0  0  0
 18 13  2  0  0  0  0
 19  1  1  0  0  0  0
 19 11  1  1  0  0  0
 20  1  1  0  0  0  0
 21 20  1  0  0  0  0
 21 32  1  0  0  0  0
 22 21  2  0  0  0  0
 23 24  2  0  0  0  0
 23 22  1  0  0  0  0
 24 25  1  0  0  0  0
 25  5  1  0  0  0  0
 25 20  2  0  0  0  0
 26  8  2  0  0  0  0
 29 15  1  0  0  0  0
 30 16  1  0  0  0  0
 31 17  1  0  0  0  0
 33 22  1  0  0  0  0
 34 23  1  0  0  0  0
 35 24  1  0  0  0  0
M  END
