3,4,5
q = -1.0

 28 29  0  0  0  0  0  0  0  0999 V2000
    1.1211    1.9814    0.0002 N   0  0  0  0  0  0  0  0  0  0  0  0
    1.1432    3.0042    0.0001 H   0  0  0  0  0  0  0  0  0  0  0  0
   -0.0397    1.3255    0.0002 N   0  0  0  0  0  2  0  0  0  0  0  0
   -1.9987   -0.3929    0.0002 N   0  0  0  0  0  2  0  0  0  0  0  0
    2.0762   -0.2255   -0.0001 C   0  0  0  0  0  2  0  0  0  0  0  0
    3.2081   -1.0491   -0.0002 C   0  0  0  0  0  3  0  0  0  0  0  0
    3.0657   -2.1400   -0.0003 H   0  0  0  0  0  0  0  0  0  0  0  0
    4.5038   -0.4915   -0.0003 C   0  0  0  0  0  0  0  0  0  0  0  0
    5.3819   -1.1556   -0.0004 H   0  0  0  0  0  0  0  0  0  0  0  0
    4.6827    0.9004   -0.0002 C   0  0  0  0  0  0  0  0  0  0  0  0
    5.6954    1.3304   -0.0003 H   0  0  0  0  0  0  0  0  0  0  0  0
    3.5682    1.7558   -0.0000 C   0  0  0  0  0  0  0  0  0  0  0  0
    3.7007    2.8496    0.0000 H   0  0  0  0  0  0  0  0  0  0  0  0
    2.2845    1.1869    0.0000 C   0  0  0  0  0  0  0  0  0  0  0  0
   -1.2425    1.8929    0.0001 C   0  0  0  0  0  0  0  0  0  0  0  0
   -2.3506    0.9355    0.0001 C   0  0  0  0  0  0  0  0  0  0  0  0
   -3.7161    1.2953   -0.0001 C   0  0  0  0  0  0  0  0  0  0  0  0
   -4.0113    2.3534   -0.0000 H   0  0  0  0  0  0  0  0  0  0  0  0
   -4.6936    0.2926   -0.0003 C   0  0  0  0  0  0  0  0  0  0  0  0
   -5.7590    0.5677   -0.0005 H   0  0  0  0  0  0  0  0  0  0  0  0
   -4.3061   -1.0559   -0.0003 C   0  0  0  0  0  0  0  0  0  0  0  0
   -5.0458   -1.8685   -0.0005 H   0  0  0  0  0  0  0  0  0  0  0  0
   -2.9343   -1.3508   -0.0000 C   0  0  0  0  0  0  0  0  0  0  0  0
   -2.5388   -2.3815    0.0001 H   0  0  0  0  0  0  0  0  0  0  0  0
   -1.3885    3.3831   -0.0000 C   0  0  0  0  0  0  0  0  0  0  0  0
   -0.9108    3.8375   -0.8969 H   0  0  0  0  0  0  0  0  0  0  0  0
   -0.9124    3.8375    0.8977 H   0  0  0  0  0  0  0  0  0  0  0  0
   -2.4462    3.6976   -0.0010 H   0  0  0  0  0  0  0  0  0  0  0  0
  2  1  1  0  0  0  0
  3  1  1  0  0  0  0
  5 14  1  0  0  0  0
  6  5  1  0  0  0  0
  7  6  1  0  0  0  0
  8  6  1  0  0  0  0
  8 10  2  0  0  0  0
  9  8  1  0  0  0  0
 10 12  1  0  0  0  0
 11 10  1  0  0  0  0
 12 14  2  0  0  0  0
 12 13  1  0  0  0  0
 14  1  1  0  0  0  0
 15  3  1  0  0  0  0
 16 15  2  0  0  0  0
 16  4  1  0  0  0  0
 17 18  1  0  0  0  0
 17 16  1  0  0  0  0
 19 17  2  0  0  0  0
 20 19  1  0  0  0  0
 21 19  1  0  0  0  0
 21 23  2  0  0  0  0
 22 21  1  0  0  0  0
 23 24  1  0  0  0  0
 23  4  1  0  0  0  0
 25 15  1  0  0  0  0
 25 27  1  0  0  0  0
 26 25  1  0  0  0  0
 28 25  1  0  0  0  0
M  END
