1,2,6
q = -1.0, confidence = 0.048

 60 63  0  0  0  0  0  0  0  0999 V2000
    3.5059    1.8350    1.0527 N   0  0  0  0  0  0  0  0  0  0  0  0
    3.5059   -1.8350   -1.0527 N   0  0  0  0  0  0  0  0  0  0  0  0
   -5.2246    0.0000   -0.0000 N   0  0  0  0  0  0  0  0  0  0  0  0
   -4.6144   -3.5432    0.5127 N   0  0  0  0  0  0  0  0  0  0  0  0
   -4.6143    3.5432   -0.5127 N   0  0  0  0  0  0  0  0  0  0  0  0
    1.9024   -0.0000    0.0001 C   0  0  0  0  0  3  0  0  0  0  0  0
    1.2161    1.1614    0.3996 C   0  0  0  0  0  0  0  0  0  0  0  0
   -0.1849    1.1552    0.4072 C   0  0  0  0  0  0  0  0  0  0  0  0
   -0.7423    2.0437    0.7422 H   0  0  0  0  0  0  0  0  0  0  0  0
   -0.9014   -0.0000    0.0001 C   0  0  0  0  0  0  0  0  0  0  0  0
   -0.1849   -1.1552   -0.4071 C   0  0  0  0  0  0  0  0  0  0  0  0
   -0.7423   -2.0437   -0.7421 H   0  0  0  0  0  0  0  0  0  0  0  0
    1.2161   -1.1614   -0.3995 C   0  0  0  0  0  0  0  0  0  0  0  0
    2.1222    2.3264    0.6994 C   0  0  0  0  0  0  0  0  0  0  0  0
    2.2327    2.9469   -0.2147 H   0  0  0  0  0  0  0  0  0  0  0  0
    1.7460    2.9978    1.5049 H   0  0  0  0  0  0  0  0  0  0  0  0
    3.5669    1.4709    2.4887 C   0  0  0  0  0  0  0  0  0  0  0  0
    4.5554    1.0253    2.7048 H   0  0  0  0  0  0  0  0  0  0  0  0
    2.7783    0.7301    2.7145 H   0  0  0  0  0  0  0  0  0  0  0  0
    3.4170    2.3764    3.1217 H   0  0  0  0  0  0  0  0  0  0  0  0
    4.5115    2.8775    0.7578 C   0  0  0  0  0  0  0  0  0  0  0  0
    4.3066    3.7927    1.3594 H   0  0  0  0  0  0  0  0  0  0  0  0
    4.4771    3.1256   -0.3187 H   0  0  0  0  0  0  0  0  0  0  0  0
    5.5175    2.4790    0.9847 H   0  0  0  0  0  0  0  0  0  0  0  0
    2.1222   -2.3264   -0.6993 C   0  0  0  0  0  0  0  0  0  0  0  0
    1.7460   -2.9979   -1.5048 H   0  0  0  0  0  0  0  0  0  0  0  0
    2.2328   -2.9469    0.2149 H   0  0  0  0  0  0  0  0  0  0  0  0
    3.5668   -1.4709   -2.4887 C   0  0  0  0  0  0  0  0  0  0  0  0
    4.5552   -1.0252   -2.7048 H   0  0  0  0  0  0  0  0  0  0  0  0
    2.7782   -0.7301   -2.7144 H   0  0  0  0  0  0  0  0  0  0  0  0
    3.4167   -2.3763   -3.1217 H   0  0  0  0  0  0  0  0  0  0  0  0
    4.5115   -2.8776   -0.7580 C   0  0  0  0  0  0  0  0  0  0  0  0
    4.3065   -3.7927   -1.3596 H   0  0  0  0  0  0  0  0  0  0  0  0
    4.4772   -3.1257    0.3186 H   0  0  0  0  0  0  0  0  0  0  0  0
    5.5175   -2.4790   -0.9848 H   0  0  0  0  0  0  0  0  0  0  0  0
   -4.5320    1.1424   -0.1652 C   0  0  0  0  0  0  0  0  0  0  0  0
   -3.1249    1.1871   -0.1749 C   0  0  0  0  0  0  0  0  0  0  0  0
   -2.6484    2.1621   -0.3430 H   0  0  0  0  0  0  0  0  0  0  0  0
   -2.3841   -0.0000    0.0000 C   0  0  0  0  0  0  0  0  0  0  0  0
   -3.1249   -1.1871    0.1749 C   0  0  0  0  0  0  0  0  0  0  0  0
   -2.6485   -2.1621    0.3431 H   0  0  0  0  0  0  0  0  0  0  0  0
   -4.5320   -1.1424    0.1652 C   0  0  0  0  0  0  0  0  0  0  0  0
   -5.3143   -2.4000    0.3515 C   0  0  0  0  0  0  0  0  0  0  0  0
   -6.7256   -2.3732    0.3550 C   0  0  0  0  0  0  0  0  0  0  0  0
   -7.2346   -1.4097    0.2191 H   0  0  0  0  0  0  0  0  0  0  0  0
   -7.4222   -3.5733    0.5315 C   0  0  0  0  0  0  0  0  0  0  0  0
   -8.5231   -3.5833    0.5387 H   0  0  0  0  0  0  0  0  0  0  0  0
   -6.6948   -4.7615    0.6997 C   0  0  0  0  0  0  0  0  0  0  0  0
   -7.1990   -5.7288    0.8423 H   0  0  0  0  0  0  0  0  0  0  0  0
   -5.2917   -4.6848    0.6816 C   0  0  0  0  0  0  0  0  0  0  0  0
   -4.6848   -5.5993    0.8111 H   0  0  0  0  0  0  0  0  0  0  0  0
   -5.3143    2.4001   -0.3515 C   0  0  0  0  0  0  0  0  0  0  0  0
   -6.7256    2.3732   -0.3550 C   0  0  0  0  0  0  0  0  0  0  0  0
   -7.2346    1.4097   -0.2192 H   0  0  0  0  0  0  0  0  0  0  0  0
   -7.4221    3.5734   -0.5316 C   0  0  0  0  0  0  0  0  0  0  0  0
   -8.5230    3.5834   -0.5388 H   0  0  0  0  0  0  0  0  0  0  0  0
   -6.6947    4.7616   -0.6998 C   0  0  0  0  0  0  0  0  0  0  0  0
   -7.1989    5.7289   -0.8424 H   0  0  0  0  0  0  0  0  0  0  0  0
   -5.2916    4.6849   -0.6816 C   0  0  0  0  0  0  0  0  0  0  0  0
   -4.6847    5.5993   -0.8112 H   0  0  0  0  0  0  0  0  0  0  0  0
  1 17  1  0  0  0  0
  2 32  1  0  0  0  0
  2 25  1  0  0  0  0
  3 42  1  0  0  0  0
  4 50  1  0  0  0  0
  5 52  1  0  0  0  0
  6  7  1  0  0  0  0
  7  8  2  0  0  0  0
  7 14  1  0  0  0  0
  8  9  1  0  0  0  0
 10  8  1  0  0  0  0
 11 13  1  0  0  0  0
 11 10  2  0  0  0  0
 12 11  1  0  0  0  0
 13  6  2  0  0  0  0
 14  1  1  0  0  0  0
 14 16  1  0  0  0  0
 15 14  1  0  0  0  0
 17 18  1  0  0  0  0
 17 19  1  0  0  0  0
 17 20  1  0  0  0  0
 21 24  1  0  0  0  0
 21  1  1  0  0  0  0
 21 22  1  0  0  0  0
 23 21  1  0  0  0  0
 25 13  1  0  0  0  0
 25 27  1  0  0  0  0
 26 25  1  0  0  0  0
 28  2  1  0  0  0  0
 29 28  1  0  0  0  0
 30 28  1  0  0  0  0
 31 28  1  0  0  0  0
 32 34  1  0  0  0  0
 33 32  1  0  0  0  0
 35 32  1  0  0  0  0
 36  3  2  0  0  0  0
 37 36  1  0  0  0  0
 37 39  2  0  0  0  0
 38 37  1  0  0  0  0
 39 10  1  0  0  0  0
 39 40  1  0  0  0  0
 40 41  1  0  0  0  0
 42 40  2  0  0  0  0
 42 43  1  0  0  0  0
 43 44  1  0  0  0  0
 43  4  2  0  0  0  0
 44 46  2  0  0  0  0
 45 44  1  0  0  0  0
 46 47  1  0  0  0  0
 46 48  1  0  0  0  0
 48 49  1  0  0  0  0
 50 48  2  0  0  0  0
 50 51  1  0  0  0  0
 52 36  1  0  0  0  0
 53 52  2  0  0  0  0
 53 54  1  0  0  0  0
 55 53  1  0  0  0  0
 56 55  1  0  0  0  0
 57 59  1  0  0  0  0
 57 55  2  0  0  0  0
 58 57  1  0  0  0  0
 59  5  2  0  0  0  0
 60 59  1  0  0  0  0
M  END
