1,2,44
q = -1.0, confidence = 0.0

 44 46  0  0  1  0  0  0  0  0999 V2000
    0.3139   -1.1556   -0.4109 N   0  0  0  0  0  0  0  0  0  0  0  0
    1.4297    1.5958    0.1054 N   0  0  0  0  0  0  0  0  0  0  0  0
    2.0454   -0.5665    1.3358 C   0  0  1  0  0  0  0  0  0  0  0  0
    1.7687   -0.0387    2.2673 H   0  0  0  0  0  0  0  0  0  0  0  0
    0.8653   -1.4930    0.9252 C   0  0  0  0  0  0  0  0  0  0  0  0
    1.2026   -2.5575    0.9063 H   0  0  0  0  0  0  0  0  0  0  0  0
    0.0288   -1.4297    1.6455 H   0  0  0  0  0  0  0  0  0  0  0  0
    1.3913   -1.1603   -1.4372 C   0  0  0  0  0  0  0  0  0  0  0  0
    0.9348   -0.7789   -2.3704 H   0  0  0  0  0  0  0  0  0  0  0  0
    1.6876   -2.2199   -1.6268 H   0  0  0  0  0  0  0  0  0  0  0  0
    2.6406   -0.3291   -1.0512 C   0  0  2  0  0  0  0  0  0  0  0  0
    2.8614    0.3649   -1.8833 H   0  0  0  0  0  0  0  0  0  0  0  0
    3.9060   -1.1940   -0.8488 C   0  0  0  0  0  0  0  0  0  0  0  0
    4.1068   -1.7771   -1.7723 H   0  0  0  0  0  0  0  0  0  0  0  0
    4.7705   -0.5067   -0.7235 H   0  0  0  0  0  0  0  0  0  0  0  0
    3.8135   -2.1288    0.3628 C   0  0  0  0  0  0  0  0  0  0  0  0
    4.7980   -2.6021    0.5562 H   0  0  0  0  0  0  0  0  0  0  0  0
    3.1252   -2.9699    0.1286 H   0  0  0  0  0  0  0  0  0  0  0  0
    3.3181   -1.3973    1.6174 C   0  0  0  0  0  0  0  0  0  0  0  0
    4.1101   -0.7153    1.9953 H   0  0  0  0  0  0  0  0  0  0  0  0
    3.1180   -2.1234    2.4331 H   0  0  0  0  0  0  0  0  0  0  0  0
    2.4011    0.4734    0.2403 C   0  0  1  0  0  0  0  0  0  0  0  0
    3.3800    0.9316    0.5285 H   0  0  0  0  0  0  0  0  0  0  0  0
    1.4164    2.4201    1.3320 C   0  0  0  0  0  0  0  0  0  0  0  0
    1.1399    1.8085    2.2088 H   0  0  0  0  0  0  0  0  0  0  0  0
    2.4166    2.8836    1.5068 H   0  0  0  0  0  0  0  0  0  0  0  0
    0.6389    3.1977    1.2150 H   0  0  0  0  0  0  0  0  0  0  0  0
    1.7259    2.4807   -1.0371 C   0  0  0  0  0  0  0  0  0  0  0  0
    1.6146    1.9419   -1.9951 H   0  0  0  0  0  0  0  0  0  0  0  0
    0.9762    3.2939   -1.0290 H   0  0  0  0  0  0  0  0  0  0  0  0
    2.7553    2.9086   -0.9684 H   0  0  0  0  0  0  0  0  0  0  0  0
   -0.7636   -2.1122   -0.8214 C   0  0  0  0  0  0  0  0  0  0  0  0
   -0.4760   -3.1490   -0.5295 H   0  0  0  0  0  0  0  0  0  0  0  0
   -0.7924   -2.0864   -1.9318 H   0  0  0  0  0  0  0  0  0  0  0  0
   -2.0996   -1.6871   -0.2825 C   0  0  0  0  0  0  0  0  0  0  0  0
   -3.1484   -2.5960   -0.0584 C   0  0  0  0  0  0  0  0  0  0  0  0
   -2.9831   -3.6764   -0.2054 H   0  0  0  0  0  0  0  0  0  0  0  0
   -4.4075   -2.1250    0.3450 C   0  0  0  0  0  0  0  0  0  0  0  0
   -5.2307   -2.8340    0.5215 H   0  0  0  0  0  0  0  0  0  0  0  0
   -4.6068   -0.7462    0.5247 C   0  0  0  0  0  0  0  0  0  0  0  0
   -5.5944   -0.3722    0.8389 H   0  0  0  0  0  0  0  0  0  0  0  0
   -3.5562    0.1648    0.3180 C   0  0  0  0  0  0  0  0  0  0  0  0
   -3.7115    1.2425    0.4719 H   0  0  0  0  0  0  0  0  0  0  0  0
   -2.2869   -0.2923   -0.0865 C   0  0  0  0  0  3  0  0  0  0  0  0
  1  5  1  0  0  0  0
  2 22  1  0  0  0  0
  2 24  1  0  0  0  0
  3 19  1  0  0  0  0
  3  4  1  1  0  0  0
  5  3  1  0  0  0  0
  5  7  1  0  0  0  0
  6  5  1  0  0  0  0
  8 11  1  0  0  0  0
  8  1  1  0  0  0  0
  9  8  1  0  0  0  0
 10  8  1  0  0  0  0
 11 12  1  6  0  0  0
 11 13  1  0  0  0  0
 11 22  1  0  0  0  0
 13 15  1  0  0  0  0
 13 16  1  0  0  0  0
 14 13  1  0  0  0  0
 16 17  1  0  0  0  0
 16 19  1  0  0  0  0
 18 16  1  0  0  0  0
 19 20  1  0  0  0  0
 19 21  1  0  0  0  0
 22 23  1  1  0  0  0
 22  3  1  0  0  0  0
 24 26  1  0  0  0  0
 24 25  1  0  0  0  0
 27 24  1  0  0  0  0
 28 30  1  0  0  0  0
 28 31  1  0  0  0  0
 28  2  1  0  0  0  0
 29 28  1  0  0  0  0
 32 33  1  0  0  0  0
 32  1  1  0  0  0  0
 32 35  1  0  0  0  0
 34 32  1  0  0  0  0
 35 44  2  0  0  0  0
 35 36  1  0  0  0  0
 36 38  2  0  0  0  0
 37 36  1  0  0  0  0
 38 39  1  0  0  0  0
 38 40  1  0  0  0  0
 40 41  1  0  0  0  0
 42 43  1  0  0  0  0
 42 40  2  0  0  0  0
 44 42  1  0  0  0  0
M  END
