1,15,30
q = -1.0

 43 46  0  0  0  0  0  0  0  0999 V2000
   -3.4682    0.0150    0.0000 N   0  0  0  0  0  2  0  0  0  0  0  0
   -4.6381   -0.6794    0.0000 C   0  0  0  0  0  0  0  0  0  0  0  0
   -4.5916   -2.1724    0.0002 C   0  0  0  0  0  0  0  0  0  0  0  0
   -4.0251   -2.5519   -0.8737 H   0  0  0  0  0  0  0  0  0  0  0  0
   -5.6110   -2.5993    0.0002 H   0  0  0  0  0  0  0  0  0  0  0  0
   -4.0254   -2.5516    0.8744 H   0  0  0  0  0  0  0  0  0  0  0  0
   -5.8760   -0.0032   -0.0002 C   0  0  0  0  0  0  0  0  0  0  0  0
   -6.8019   -0.5953   -0.0003 H   0  0  0  0  0  0  0  0  0  0  0  0
   -5.9173    1.3933   -0.0003 C   0  0  0  0  0  0  0  0  0  0  0  0
   -6.8784    1.9282   -0.0005 H   0  0  0  0  0  0  0  0  0  0  0  0
   -4.7117    2.0993   -0.0002 C   0  0  0  0  0  0  0  0  0  0  0  0
   -4.7063    3.1967   -0.0003 H   0  0  0  0  0  0  0  0  0  0  0  0
   -3.5002    1.3885   -0.0000 C   0  0  0  0  0  0  0  0  0  0  0  0
   -2.1948    2.0783    0.0000 C   0  0  0  0  0  0  0  0  0  0  0  0
   -1.1194    1.2463    0.0000 N   0  0  0  0  0  2  0  0  0  0  0  0
    0.1667    1.7137    0.0000 C   0  0  0  0  0  0  0  0  0  0  0  0
    0.4085    3.0938    0.0000 C   0  0  0  0  0  0  0  0  0  0  0  0
    1.4534    3.4329    0.0001 H   0  0  0  0  0  0  0  0  0  0  0  0
   -0.6819    3.9752    0.0000 C   0  0  0  0  0  0  0  0  0  0  0  0
   -0.5157    5.0623    0.0001 H   0  0  0  0  0  0  0  0  0  0  0  0
   -1.9919    3.4708    0.0000 C   0  0  0  0  0  0  0  0  0  0  0  0
   -2.8494    4.1559    0.0000 H   0  0  0  0  0  0  0  0  0  0  0  0
    1.1619    0.6347    0.0000 C   0  0  0  0  0  0  0  0  0  0  0  0
    2.4674    0.9391    0.0000 N   0  0  0  0  0  0  0  0  0  0  0  0
    3.3514   -0.0751   -0.0000 C   0  0  0  0  0  0  0  0  0  0  0  0
    2.9347   -1.4297   -0.0001 C   0  0  0  0  0  0  0  0  0  0  0  0
    3.7132   -2.2058   -0.0001 H   0  0  0  0  0  0  0  0  0  0  0  0
    1.5716   -1.7407   -0.0001 C   0  0  0  0  0  3  0  0  0  0  0  0
    1.2230   -2.7839   -0.0001 H   0  0  0  0  0  0  0  0  0  0  0  0
    0.6249   -0.6967   -0.0000 C   0  0  0  0  0  2  0  0  0  0  0  0
    4.8006    0.2683   -0.0000 C   0  0  0  0  0  0  0  0  0  0  0  0
    5.6740   -0.7579   -0.0001 N   0  0  0  0  0  0  0  0  0  0  0  0
    6.9943   -0.5042   -0.0001 C   0  0  0  0  0  0  0  0  0  0  0  0
    7.9079   -1.7035   -0.0003 C   0  0  0  0  0  0  0  0  0  0  0  0
    7.7075   -2.3367    0.8881 H   0  0  0  0  0  0  0  0  0  0  0  0
    8.9761   -1.4156    0.0002 H   0  0  0  0  0  0  0  0  0  0  0  0
    7.7081   -2.3359   -0.8892 H   0  0  0  0  0  0  0  0  0  0  0  0
    7.4980    0.8138    0.0001 C   0  0  0  0  0  0  0  0  0  0  0  0
    8.5840    0.9909    0.0001 H   0  0  0  0  0  0  0  0  0  0  0  0
    6.5918    1.8846    0.0002 C   0  0  0  0  0  0  0  0  0  0  0  0
    6.9578    2.9231    0.0003 H   0  0  0  0  0  0  0  0  0  0  0  0
    5.2205    1.6168    0.0001 C   0  0  0  0  0  0  0  0  0  0  0  0
    4.4610    2.4097    0.0002 H   0  0  0  0  0  0  0  0  0  0  0  0
  2  1  1  0  0  0  0
  2  3  1  0  0  0  0
  3  6  1  0  0  0  0
  4  3  1  0  0  0  0
  5  3  1  0  0  0  0
  7  2  2  0  0  0  0
  8  7  1  0  0  0  0
  9 11  2  0  0  0  0
  9  7  1  0  0  0  0
 10  9  1  0  0  0  0
 11 13  1  0  0  0  0
 12 11  1  0  0  0  0
 13 14  2  0  0  0  0
 13  1  1  0  0  0  0
 14 21  1  0  0  0  0
 14 15  1  0  0  0  0
 15 16  1  0  0  0  0
 16 17  2  0  0  0  0
 17 18  1  0  0  0  0
 19 17  1  0  0  0  0
 19 20  1  0  0  0  0
 21 19  2  0  0  0  0
 22 21  1  0  0  0  0
 23 16  1  0  0  0  0
 24 23  2  0  0  0  0
 25 31  1  0  0  0  0
 25 24  1  0  0  0  0
 26 28  1  0  0  0  0
 26 25  2  0  0  0  0
 27 26  1  0  0  0  0
 28 30  1  0  0  0  0
 29 28  1  0  0  0  0
 30 23  1  0  0  0  0
 31 42  1  0  0  0  0
 32 33  1  0  0  0  0
 32 31  2  0  0  0  0
 33 38  2  0  0  0  0
 34 33  1  0  0  0  0
 34 36  1  0  0  0  0
 34 35  1  0  0  0  0
 37 34  1  0  0  0  0
 38 39  1  0  0  0  0
 38 40  1  0  0  0  0
 40 41  1  0  0  0  0
 42 43  1  0  0  0  0
 42 40  2  0  0  0  0
M  END
