1,2,4
q = -1.0

 54 55  0  0  1  0  0  0  0  0999 V2000
   -1.5946   -0.1241    1.1121 N   0  0  0  0  0  2  0  0  0  0  0  0
    1.2975    0.5222    0.8675 N   0  0  0  0  0  2  0  0  0  0  0  0
   -1.5043    1.4278   -0.7374 C   0  0  0  0  0  0  0  0  0  0  0  0
   -1.1831    0.1944   -1.5871 C   0  0  2  0  0  3  0  0  0  0  0  0
    0.0929   -0.0296   -2.2060 C   0  0  0  0  0  3  0  0  0  0  0  0
    1.3975    0.3918   -1.9276 C   0  0  2  0  0  3  0  0  0  0  0  0
    1.7835    1.6735   -1.2210 C   0  0  0  0  0  0  0  0  0  0  0  0
   -2.3754   -0.4338   -2.2817 C   0  0  0  0  0  0  0  0  0  0  0  0
    2.5410   -0.2999   -2.6359 C   0  0  0  0  0  0  0  0  0  0  0  0
   -2.2385    1.0665    0.5795 C   0  0  1  0  0  0  0  0  0  0  0  0
   -3.7601    0.9546    0.4087 C   0  0  0  0  0  0  0  0  0  0  0  0
   -4.4328   -0.2817    0.3819 C   0  0  0  0  0  0  0  0  0  0  0  0
   -5.8217   -0.3446    0.1920 C   0  0  0  0  0  0  0  0  0  0  0  0
   -6.5655    0.8336    0.0220 C   0  0  0  0  0  0  0  0  0  0  0  0
   -5.9086    2.0740    0.0540 C   0  0  0  0  0  0  0  0  0  0  0  0
   -4.5213    2.1299    0.2548 C   0  0  0  0  0  0  0  0  0  0  0  0
   -2.0185   -0.4407    2.4573 C   0  0  0  0  0  0  0  0  0  0  0  0
    2.2143    1.4612    0.2528 C   0  0  2  0  0  0  0  0  0  0  0  0
    3.7004    1.1044    0.3712 C   0  0  0  0  0  0  0  0  0  0  0  0
    4.6758    2.1162    0.2725 C   0  0  0  0  0  0  0  0  0  0  0  0
    6.0429    1.8072    0.3241 C   0  0  0  0  0  0  0  0  0  0  0  0
    6.4588    0.4754    0.4883 C   0  0  0  0  0  0  0  0  0  0  0  0
    5.4957   -0.5391    0.6024 C   0  0  0  0  0  0  0  0  0  0  0  0
    4.1295   -0.2230    0.5439 C   0  0  0  0  0  0  0  0  0  0  0  0
    1.3629    0.5507    2.3154 C   0  0  0  0  0  0  0  0  0  0  0  0
   -2.1067    2.1538   -1.3293 H   0  0  0  0  0  0  0  0  0  0  0  0
   -0.5808    1.9540   -0.4437 H   0  0  0  0  0  0  0  0  0  0  0  0
    0.0581   -0.8730   -2.9200 H   0  0  0  0  0  0  0  0  0  0  0  0
    2.6211    2.1492   -1.7732 H   0  0  0  0  0  0  0  0  0  0  0  0
    0.9502    2.3993   -1.2465 H   0  0  0  0  0  0  0  0  0  0  0  0
   -2.0587   -1.2415   -2.9712 H   0  0  0  0  0  0  0  0  0  0  0  0
   -2.9228    0.3228   -2.8888 H   0  0  0  0  0  0  0  0  0  0  0  0
   -3.1116   -0.8551   -1.5745 H   0  0  0  0  0  0  0  0  0  0  0  0
    2.2080   -1.1945   -3.1977 H   0  0  0  0  0  0  0  0  0  0  0  0
    3.3438   -0.6044   -1.9331 H   0  0  0  0  0  0  0  0  0  0  0  0
    3.0210    0.3942   -3.3617 H   0  0  0  0  0  0  0  0  0  0  0  0
   -2.0885    1.9324    1.2780 H   0  0  0  0  0  0  0  0  0  0  0  0
   -3.8443   -1.2034    0.5048 H   0  0  0  0  0  0  0  0  0  0  0  0
   -6.3270   -1.3227    0.1754 H   0  0  0  0  0  0  0  0  0  0  0  0
   -7.6548    0.7861   -0.1286 H   0  0  0  0  0  0  0  0  0  0  0  0
   -6.4819    3.0057   -0.0713 H   0  0  0  0  0  0  0  0  0  0  0  0
   -4.0148    3.1086    0.2945 H   0  0  0  0  0  0  0  0  0  0  0  0
   -3.1269   -0.5032    2.5598 H   0  0  0  0  0  0  0  0  0  0  0  0
   -1.6002   -1.4066    2.7970 H   0  0  0  0  0  0  0  0  0  0  0  0
   -1.6822    0.3360    3.1897 H   0  0  0  0  0  0  0  0  0  0  0  0
    2.1114    2.4532    0.7669 H   0  0  0  0  0  0  0  0  0  0  0  0
    4.3561    3.1650    0.1546 H   0  0  0  0  0  0  0  0  0  0  0  0
    6.7901    2.6117    0.2427 H   0  0  0  0  0  0  0  0  0  0  0  0
    7.5310    0.2314    0.5345 H   0  0  0  0  0  0  0  0  0  0  0  0
    5.8106   -1.5855    0.7386 H   0  0  0  0  0  0  0  0  0  0  0  0
    3.3609   -1.0024    0.6287 H   0  0  0  0  0  0  0  0  0  0  0  0
    2.3770    0.2868    2.7026 H   0  0  0  0  0  0  0  0  0  0  0  0
    0.6454   -0.1667    2.7608 H   0  0  0  0  0  0  0  0  0  0  0  0
    1.1143    1.5622    2.7223 H   0  0  0  0  0  0  0  0  0  0  0  0
  1 17  1  0  0  0  0
  2 25  1  0  0  0  0
  3 27  1  0  0  0  0
  3 10  1  0  0  0  0
  4  5  1  6  0  0  0
  4  3  1  0  0  0  0
  6  5  1  6  0  0  0
  6  7  1  0  0  0  0
  7 18  1  0  0  0  0
  8  4  1  0  0  0  0
  8 33  1  0  0  0  0
  9 35  1  0  0  0  0
  9  6  1  0  0  0  0
 10  1  1  0  0  0  0
 10 37  1  1  0  0  0
 11 10  1  0  0  0  0
 12 11  1  0  0  0  0
 12 38  1  0  0  0  0
 13 12  2  0  0  0  0
 14 15  2  0  0  0  0
 14 13  1  0  0  0  0
 15 16  1  0  0  0  0
 16 42  1  0  0  0  0
 16 11  2  0  0  0  0
 17 43  1  0  0  0  0
 17 44  1  0  0  0  0
 17 45  1  0  0  0  0
 18 19  1  0  0  0  0
 18 46  1  1  0  0  0
 18  2  1  0  0  0  0
 19 24  1  0  0  0  0
 20 21  1  0  0  0  0
 20 19  2  0  0  0  0
 21 22  2  0  0  0  0
 22 49  1  0  0  0  0
 22 23  1  0  0  0  0
 23 50  1  0  0  0  0
 24 23  2  0  0  0  0
 24 51  1  0  0  0  0
 25 52  1  0  0  0  0
 25 54  1  0  0  0  0
 25 53  1  0  0  0  0
 26  3  1  0  0  0  0
 28  5  1  0  0  0  0
 29  7  1  0  0  0  0
 30  7  1  0  0  0  0
 31  8  1  0  0  0  0
 32  8  1  0  0  0  0
 34  9  1  0  0  0  0
 36  9  1  0  0  0  0
 39 13  1  0  0  0  0
 40 14  1  0  0  0  0
 41 15  1  0  0  0  0
 47 20  1  0  0  0  0
 48 21  1  0  0  0  0
M  END
