1,3,4
q = -1.0

 41 44  0  0  1  0  0  0  0  0999 V2000
    0.2552   -1.0880   -0.2651 N   0  0  0  0  0  2  0  0  0  0  0  0
   -2.0112   -0.2179   -0.1453 N   0  0  0  0  0  0  0  0  0  0  0  0
   -0.6440    1.7689   -0.2913 N   0  0  0  0  0  2  0  0  0  0  0  0
    2.7935   -0.4824    0.1862 C   0  0  0  0  0  2  0  0  0  0  0  0
    4.1242   -0.1246    0.4896 C   0  0  0  0  0  0  0  0  0  0  0  0
    4.3532    0.9268    0.7139 H   0  0  0  0  0  0  0  0  0  0  0  0
    5.1414   -1.0897    0.4941 C   0  0  0  0  0  0  0  0  0  0  0  0
    6.1737   -0.7877    0.7332 H   0  0  0  0  0  0  0  0  0  0  0  0
    4.8626   -2.4376    0.1936 C   0  0  0  0  0  0  0  0  0  0  0  0
    5.6686   -3.1866    0.1953 H   0  0  0  0  0  0  0  0  0  0  0  0
    3.5527   -2.8192   -0.1050 C   0  0  0  0  0  0  0  0  0  0  0  0
    3.3354   -3.8736   -0.3351 H   0  0  0  0  0  0  0  0  0  0  0  0
    2.5188   -1.8547   -0.1049 C   0  0  0  0  0  0  0  0  0  0  0  0
    1.1189   -2.1731   -0.3587 C   0  0  0  0  0  0  0  0  0  0  0  0
    0.6297   -3.4561   -0.6393 C   0  0  0  0  0  0  0  0  0  0  0  0
    1.3317   -4.2957   -0.7160 H   0  0  0  0  0  0  0  0  0  0  0  0
   -0.7420   -3.6422   -0.8115 C   0  0  0  0  0  0  0  0  0  0  0  0
   -1.1501   -4.6352   -1.0497 H   0  0  0  0  0  0  0  0  0  0  0  0
   -1.6062   -2.5568   -0.6668 C   0  0  0  0  0  0  0  0  0  0  0  0
   -2.6846   -2.6995   -0.7788 H   0  0  0  0  0  0  0  0  0  0  0  0
   -1.0876   -1.2714   -0.3729 C   0  0  0  0  0  0  0  0  0  0  0  0
   -1.8675    1.1840   -0.2452 C   0  0  2  0  0  3  0  0  0  0  0  0
   -3.0404    1.9888   -0.2791 C   0  0  0  0  0  0  0  0  0  0  0  0
   -4.0289    1.5286   -0.1903 H   0  0  0  0  0  0  0  0  0  0  0  0
   -2.9364    3.3681   -0.4374 C   0  0  0  0  0  0  0  0  0  0  0  0
   -3.8501    3.9803   -0.4698 H   0  0  0  0  0  0  0  0  0  0  0  0
   -1.6665    3.9494   -0.5618 C   0  0  0  0  0  0  0  0  0  0  0  0
   -1.5269    5.0299   -0.7022 H   0  0  0  0  0  0  0  0  0  0  0  0
   -0.5586    3.1137   -0.4741 C   0  0  0  0  0  0  0  0  0  0  0  0
    0.4736    3.5000   -0.4940 H   0  0  0  0  0  0  0  0  0  0  0  0
   -3.3504   -0.6709    0.1765 C   0  0  0  0  0  0  0  0  0  0  0  0
   -4.3123   -0.8470   -0.8344 C   0  0  0  0  0  0  0  0  0  0  0  0
   -4.0413   -0.6361   -1.8796 H   0  0  0  0  0  0  0  0  0  0  0  0
   -5.6002   -1.2864   -0.4959 C   0  0  0  0  0  0  0  0  0  0  0  0
   -6.3543   -1.4255   -1.2849 H   0  0  0  0  0  0  0  0  0  0  0  0
   -5.9251   -1.5492    0.8458 C   0  0  0  0  0  0  0  0  0  0  0  0
   -6.9362   -1.8944    1.1087 H   0  0  0  0  0  0  0  0  0  0  0  0
   -4.9605   -1.3711    1.8500 C   0  0  0  0  0  0  0  0  0  0  0  0
   -5.2125   -1.5754    2.9013 H   0  0  0  0  0  0  0  0  0  0  0  0
   -3.6701   -0.9307    1.5174 C   0  0  0  0  0  0  0  0  0  0  0  0
   -2.9000   -0.7847    2.2889 H   0  0  0  0  0  0  0  0  0  0  0  0
  2 31  1  0  0  0  0
  3 22  1  0  0  0  0
  4  5  1  0  0  0  0
  5  7  2  0  0  0  0
  5  6  1  0  0  0  0
  7  8  1  0  0  0  0
  9 10  1  0  0  0  0
  9  7  1  0  0  0  0
 11 13  1  0  0  0  0
 11  9  2  0  0  0  0
 12 11  1  0  0  0  0
 13  4  1  0  0  0  0
 14  1  1  0  0  0  0
 14 13  2  0  0  0  0
 15 14  1  0  0  0  0
 16 15  1  0  0  0  0
 17 19  1  0  0  0  0
 17 15  2  0  0  0  0
 18 17  1  0  0  0  0
 19 21  2  0  0  0  0
 20 19  1  0  0  0  0
 21  1  1  0  0  0  0
 21  2  1  0  0  0  0
 22  2  1  1  0  0  0
 23 22  1  0  0  0  0
 23 24  1  0  0  0  0
 25 23  2  0  0  0  0
 26 25  1  0  0  0  0
 27 29  2  0  0  0  0
 27 25  1  0  0  0  0
 28 27  1  0  0  0  0
 29  3  1  0  0  0  0
 30 29  1  0  0  0  0
 31 40  1  0  0  0  0
 32 34  1  0  0  0  0
 32 31  2  0  0  0  0
 33 32  1  0  0  0  0
 34 36  2  0  0  0  0
 35 34  1  0  0  0  0
 36 37  1  0  0  0  0
 36 38  1  0  0  0  0
 38 39  1  0  0  0  0
 40 38  2  0  0  0  0
 40 41  1  0  0  0  0
M  END
