14,15,21
q = 0.0, confidence = 0.996

 51 54  0  0  1  0  0  0  0  0999 V2000
   -0.8409   -0.8381    1.2421 N   0  0  0  0  0  0  0  0  0  0  0  0
   -0.8732   -0.9930   -1.1176 N   0  0  0  0  0  0  0  0  0  0  0  0
    0.7448   -1.4751    2.6006 C   0  0  2  0  0  3  0  0  0  0  0  0
   -1.4055   -1.8450    2.0035 C   0  0  0  0  0  0  0  0  0  0  0  0
    2.0879   -2.4637   -2.5775 C   0  0  0  0  0  0  0  0  0  0  0  0
   -0.5285   -2.7038   -2.4768 C   0  0  0  0  0  0  0  0  0  0  0  0
   -3.0000   -2.2642   -1.8425 C   0  0  0  0  0  0  0  0  0  0  0  0
    0.0116    1.7426   -1.2811 C   0  0  0  0  0  3  0  0  0  0  0  0
    0.2392    3.9525   -0.2534 C   0  0  0  0  0  0  0  0  0  0  0  0
   -0.5046    2.0666    1.0932 C   0  0  0  0  0  0  0  0  0  0  0  0
   -2.7161    0.3243   -0.0178 C   0  0  0  0  0  0  0  0  0  0  0  0
   -4.7001    1.1788    1.1185 C   0  0  0  0  0  0  0  0  0  0  0  0
   -4.5444    1.3165   -1.2954 C   0  0  0  0  0  0  0  0  0  0  0  0
    0.4826   -0.6644    1.5613 N   0  0  0  0  0  2  0  0  0  0  0  0
    0.4849   -1.0847   -1.2877 N   0  0  0  0  0  2  0  0  0  0  0  0
    2.0937   -1.5201    3.2376 C   0  0  0  0  0  0  0  0  0  0  0  0
   -0.4158   -2.2285    2.9084 C   0  0  0  0  0  0  0  0  0  0  0  0
   -2.7444   -2.4789    1.8085 C   0  0  0  0  0  0  0  0  0  0  0  0
    0.7088   -2.1030   -2.1362 C   0  0  1  0  0  3  0  0  0  0  0  0
   -1.5276   -2.0052   -1.7992 C   0  0  0  0  0  0  0  0  0  0  0  0
   -0.4455    1.1931   -0.0435 C   0  0  1  0  0  3  0  0  0  0  0  0
    0.3377    3.1254   -1.3648 C   0  0  0  0  0  0  0  0  0  0  0  0
   -0.1759    3.4113    0.9883 C   0  0  0  0  0  0  0  0  0  0  0  0
   -1.2601   -0.1317    0.0146 C   0  0  1  0  0  0  0  0  0  0  0  0
   -3.4274    0.5900    1.1679 C   0  0  0  0  0  0  0  0  0  0  0  0
   -5.2702    1.5322   -0.1129 C   0  0  0  0  0  0  0  0  0  0  0  0
   -3.2735    0.7310   -1.2469 C   0  0  0  0  0  0  0  0  0  0  0  0
    2.0132   -1.8155    4.3012 H   0  0  0  0  0  0  0  0  0  0  0  0
    2.7542   -2.2499    2.7268 H   0  0  0  0  0  0  0  0  0  0  0  0
    2.5880   -0.5327    3.1642 H   0  0  0  0  0  0  0  0  0  0  0  0
   -0.5243   -2.9852    3.6928 H   0  0  0  0  0  0  0  0  0  0  0  0
   -2.9580   -3.1345    2.6729 H   0  0  0  0  0  0  0  0  0  0  0  0
   -3.5759   -1.7573    1.7062 H   0  0  0  0  0  0  0  0  0  0  0  0
   -2.7480   -3.1195    0.9023 H   0  0  0  0  0  0  0  0  0  0  0  0
    2.0536   -3.1966   -3.4049 H   0  0  0  0  0  0  0  0  0  0  0  0
    2.6399   -1.5625   -2.9101 H   0  0  0  0  0  0  0  0  0  0  0  0
    2.6728   -2.8999   -1.7429 H   0  0  0  0  0  0  0  0  0  0  0  0
   -0.6850   -3.5528   -3.1508 H   0  0  0  0  0  0  0  0  0  0  0  0
   -3.1638   -3.3121   -2.1579 H   0  0  0  0  0  0  0  0  0  0  0  0
   -3.5002   -2.1091   -0.8704 H   0  0  0  0  0  0  0  0  0  0  0  0
   -3.5204   -1.6102   -2.5716 H   0  0  0  0  0  0  0  0  0  0  0  0
   -0.0544    1.1564   -2.2068 H   0  0  0  0  0  0  0  0  0  0  0  0
    0.6744    3.5266   -2.3320 H   0  0  0  0  0  0  0  0  0  0  0  0
    0.4981    5.0185   -0.3313 H   0  0  0  0  0  0  0  0  0  0  0  0
   -0.2200    4.0499    1.8824 H   0  0  0  0  0  0  0  0  0  0  0  0
   -0.8253    1.6582    2.0618 H   0  0  0  0  0  0  0  0  0  0  0  0
   -2.9767    0.3543    2.1418 H   0  0  0  0  0  0  0  0  0  0  0  0
   -5.2436    1.3706    2.0558 H   0  0  0  0  0  0  0  0  0  0  0  0
   -6.2681    1.9938   -0.1505 H   0  0  0  0  0  0  0  0  0  0  0  0
   -4.9651    1.6195   -2.2659 H   0  0  0  0  0  0  0  0  0  0  0  0
   -2.6945    0.6049   -2.1727 H   0  0  0  0  0  0  0  0  0  0  0  0
  1 14  1  0  0  0  0
  1  4  1  0  0  0  0
  2 24  1  0  0  0  0
  3 17  1  0  0  0  0
  3 16  1  6  0  0  0
  4 17  2  0  0  0  0
  5 37  1  0  0  0  0
  6 19  1  0  0  0  0
  6 20  2  0  0  0  0
  7 20  1  0  0  0  0
  7 40  1  0  0  0  0
  8 21  1  0  0  0  0
  9 23  1  0  0  0  0
 10 46  1  0  0  0  0
 11 25  1  0  0  0  0
 12 25  2  0  0  0  0
 12 48  1  0  0  0  0
 13 27  1  0  0  0  0
 13 26  2  0  0  0  0
 14  3  1  0  0  0  0
 15  2  1  0  0  0  0
 16 28  1  0  0  0  0
 17 31  1  0  0  0  0
 18  4  1  0  0  0  0
 18 32  1  0  0  0  0
 19  5  1  1  0  0  0
 19 15  1  0  0  0  0
 20  2  1  0  0  0  0
 21 24  1  6  0  0  0
 21 10  1  0  0  0  0
 22  8  1  0  0  0  0
 22  9  2  0  0  0  0
 23 10  2  0  0  0  0
 23 45  1  0  0  0  0
 24 11  1  1  0  0  0
 24  1  1  0  0  0  0
 25 47  1  0  0  0  0
 26 12  1  0  0  0  0
 27 11  2  0  0  0  0
 29 16  1  0  0  0  0
 30 16  1  0  0  0  0
 33 18  1  0  0  0  0
 34 18  1  0  0  0  0
 35  5  1  0  0  0  0
 36  5  1  0  0  0  0
 38  6  1  0  0  0  0
 39  7  1  0  0  0  0
 41  7  1  0  0  0  0
 42  8  1  0  0  0  0
 43 22  1  0  0  0  0
 44  9  1  0  0  0  0
 49 26  1  0  0  0  0
 50 13  1  0  0  0  0
 51 27  1  0  0  0  0
M  END
