5,7,9
q = -2.0, confidence = 0.784

 31 31  0  0  1  0  0  0  0  0999 V2000
    0.8416    0.7059   -2.0967 O   0  0  0  0  0  0  0  0  0  0  0  0
   -1.7183    0.5715   -0.0209 O   0  0  0  0  0  0  0  0  0  0  0  0
   -2.5523   -0.5143    2.4593 O   0  0  0  0  0  0  0  0  0  0  0  0
   -4.6423   -0.5752    1.6162 O   0  0  0  0  0  0  0  0  0  0  0  0
    1.4593    0.7864   -0.7897 N   0  0  0  0  0  0  0  0  0  0  0  0
    2.4803    0.8172   -0.9590 H   0  0  0  0  0  0  0  0  0  0  0  0
   -0.6518    0.1175    0.7835 N   0  0  0  0  0  2  0  0  0  0  0  0
   -1.6338   -0.4493    2.0254 H   0  0  0  0  0  0  0  0  0  0  0  0
    0.2010   -0.5720   -2.0464 C   0  0  0  0  0  3  0  0  0  0  0  0
   -0.9019   -0.4914   -2.0630 H   0  0  0  0  0  0  0  0  0  0  0  0
    0.6589   -1.2988   -2.7433 H   0  0  0  0  0  0  0  0  0  0  0  0
   -2.8252   -0.3515    0.0546 C   0  0  0  0  0  0  0  0  0  0  0  0
   -2.4881   -1.3602   -0.2793 H   0  0  0  0  0  0  0  0  0  0  0  0
   -3.5834    0.0417   -0.6449 H   0  0  0  0  0  0  0  0  0  0  0  0
   -3.4437   -0.4771    1.4603 C   0  0  0  0  0  0  0  0  0  0  0  0
    0.8986    1.9275    0.0099 C   0  0  1  0  0  0  0  0  0  0  0  0
    0.1864    2.4289   -0.6715 H   0  0  0  0  0  0  0  0  0  0  0  0
    0.1291    1.3057    1.1988 C   0  0  2  0  0  0  0  0  0  0  0  0
   -0.5952    2.0584    1.5808 H   0  0  0  0  0  0  0  0  0  0  0  0
    1.9939    2.9152    0.4280 C   0  0  0  0  0  0  0  0  0  0  0  0
    2.5728    3.2224   -0.4690 H   0  0  0  0  0  0  0  0  0  0  0  0
    1.4802    3.8331    0.7855 H   0  0  0  0  0  0  0  0  0  0  0  0
    1.0541    0.8582    2.3457 C   0  0  0  0  0  0  0  0  0  0  0  0
    1.6149   -0.0561    2.0340 H   0  0  0  0  0  0  0  0  0  0  0  0
    0.4260    0.5447    3.2034 H   0  0  0  0  0  0  0  0  0  0  0  0
    2.9004    2.3762    1.5401 C   0  0  0  0  0  0  0  0  0  0  0  0
    3.6378    3.1515    1.8302 H   0  0  0  0  0  0  0  0  0  0  0  0
    3.4960    1.5107    1.1694 H   0  0  0  0  0  0  0  0  0  0  0  0
    2.0635    1.9372    2.7458 C   0  0  0  0  0  0  0  0  0  0  0  0
    2.7139    1.5573    3.5590 H   0  0  0  0  0  0  0  0  0  0  0  0
    1.5233    2.8173    3.1607 H   0  0  0  0  0  0  0  0  0  0  0  0
  1  9  1  0  0  0  0
  1  5  1  0  0  0  0
  2 12  1  0  0  0  0
  2  7  1  0  0  0  0
  5 16  1  0  0  0  0
  6  5  1  0  0  0  0
  7 18  1  0  0  0  0
  8  3  1  0  0  0  0
 10  9  1  0  0  0  0
 11  9  1  0  0  0  0
 12 15  1  0  0  0  0
 13 12  1  0  0  0  0
 14 12  1  0  0  0  0
 15  4  2  0  0  0  0
 15  3  1  0  0  0  0
 16 17  1  6  0  0  0
 16 20  1  0  0  0  0
 16 18  1  0  0  0  0
 18 19  1  1  0  0  0
 18 23  1  0  0  0  0
 20 22  1  0  0  0  0
 20 26  1  0  0  0  0
 21 20  1  0  0  0  0
 23 29  1  0  0  0  0
 23 25  1  0  0  0  0
 24 23  1  0  0  0  0
 26 27  1  0  0  0  0
 26 29  1  0  0  0  0
 28 26  1  0  0  0  0
 29 31  1  0  0  0  0
 29 30  1  0  0  0  0
M  END
