1,17,35
q = -1.0

 35 37  0  0  0  0  0  0  0  0999 V2000
    2.0071   -0.6426    0.0000 N   0  0  0  0  0  2  0  0  0  0  0  0
    2.9256   -1.6315    0.0001 C   0  0  0  0  0  3  0  0  0  0  0  0
    2.4991   -2.6490    0.0001 H   0  0  0  0  0  0  0  0  0  0  0  0
    4.2971   -1.3659    0.0001 C   0  0  0  0  0  0  0  0  0  0  0  0
    5.0129   -2.1995    0.0001 H   0  0  0  0  0  0  0  0  0  0  0  0
    4.7177   -0.0283   -0.0000 C   0  0  0  0  0  0  0  0  0  0  0  0
    5.7892    0.2223   -0.0001 H   0  0  0  0  0  0  0  0  0  0  0  0
    3.7646    0.9966   -0.0001 C   0  0  0  0  0  0  0  0  0  0  0  0
    4.0906    2.0407   -0.0002 H   0  0  0  0  0  0  0  0  0  0  0  0
    2.3865    0.6965   -0.0000 C   0  0  0  0  0  0  0  0  0  0  0  0
    1.2560    1.6394   -0.0000 C   0  0  0  0  0  0  0  0  0  0  0  0
    1.2530    3.0616   -0.0000 C   0  0  0  0  0  0  0  0  0  0  0  0
   -0.0001    3.7113    0.0000 C   0  0  0  0  0  0  0  0  0  0  0  0
   -0.0001    4.8129    0.0001 H   0  0  0  0  0  0  0  0  0  0  0  0
   -1.2531    3.0616    0.0000 C   0  0  0  0  0  3  0  0  0  0  0  0
   -1.2560    1.6394   -0.0000 C   0  0  0  0  0  0  0  0  0  0  0  0
   -0.0000    0.9743   -0.0000 C   0  0  0  0  0  3  0  0  0  0  0  0
    2.4971    3.9122    0.0000 C   0  0  0  0  0  0  0  0  0  0  0  0
    2.2374    4.9878    0.0001 H   0  0  0  0  0  0  0  0  0  0  0  0
    3.1282    3.7215   -0.8933 H   0  0  0  0  0  0  0  0  0  0  0  0
    3.1282    3.7214    0.8934 H   0  0  0  0  0  0  0  0  0  0  0  0
   -2.4972    3.9121    0.0001 C   0  0  0  0  0  0  0  0  0  0  0  0
   -2.2376    4.9877    0.0002 H   0  0  0  0  0  0  0  0  0  0  0  0
   -3.1284    3.7212    0.8933 H   0  0  0  0  0  0  0  0  0  0  0  0
   -3.1283    3.7215   -0.8934 H   0  0  0  0  0  0  0  0  0  0  0  0
   -2.3865    0.6965   -0.0000 C   0  0  0  0  0  0  0  0  0  0  0  0
   -3.7646    0.9966   -0.0001 C   0  0  0  0  0  0  0  0  0  0  0  0
   -4.0906    2.0406   -0.0001 H   0  0  0  0  0  0  0  0  0  0  0  0
   -4.7177   -0.0284   -0.0000 C   0  0  0  0  0  0  0  0  0  0  0  0
   -5.7892    0.2222   -0.0001 H   0  0  0  0  0  0  0  0  0  0  0  0
   -4.2970   -1.3660    0.0000 C   0  0  0  0  0  0  0  0  0  0  0  0
   -5.0128   -2.1996    0.0001 H   0  0  0  0  0  0  0  0  0  0  0  0
   -2.9255   -1.6315    0.0000 C   0  0  0  0  0  0  0  0  0  0  0  0
   -2.4990   -2.6491    0.0001 H   0  0  0  0  0  0  0  0  0  0  0  0
   -2.0071   -0.6427    0.0000 N   0  0  0  0  0  2  0  0  0  0  0  0
  1  2  1  0  0  0  0
  2  3  1  0  0  0  0
  4  2  1  0  0  0  0
  4  5  1  0  0  0  0
  6  4  2  0  0  0  0
  7  6  1  0  0  0  0
  8  6  1  0  0  0  0
  8 10  2  0  0  0  0
  9  8  1  0  0  0  0
 10  1  1  0  0  0  0
 11 10  1  0  0  0  0
 11 17  2  0  0  0  0
 11 12  1  0  0  0  0
 12 13  2  0  0  0  0
 12 18  1  0  0  0  0
 13 14  1  0  0  0  0
 15 13  1  0  0  0  0
 15 22  1  0  0  0  0
 16 17  1  0  0  0  0
 16 15  1  0  0  0  0
 18 19  1  0  0  0  0
 18 21  1  0  0  0  0
 20 18  1  0  0  0  0
 22 23  1  0  0  0  0
 22 24  1  0  0  0  0
 25 22  1  0  0  0  0
 26 16  2  0  0  0  0
 26 35  1  0  0  0  0
 27 29  2  0  0  0  0
 27 26  1  0  0  0  0
 28 27  1  0  0  0  0
 29 31  1  0  0  0  0
 30 29  1  0  0  0  0
 31 33  2  0  0  0  0
 31 32  1  0  0  0  0
 33 34  1  0  0  0  0
 35 33  1  0  0  0  0
M  END
