1,4,5
q = -1.0, confidence = 0.098

 51 54  0  0  0  0  0  0  0  0999 V2000
    0.6547   -0.1376   -0.0357 N   0  0  0  0  0  2  0  0  0  0  0  0
    1.8532   -0.6616   -0.0785 N   0  0  0  0  0  2  0  0  0  0  0  0
    2.7057    0.3743    0.0065 N   0  0  0  0  0  0  0  0  0  0  0  0
   -3.2475   -1.0249   -0.0737 N   0  0  0  0  0  2  0  0  0  0  0  0
   -1.6575    0.9817    0.0586 C   0  0  0  0  0  2  0  0  0  0  0  0
   -3.0248    1.3611    0.0936 C   0  0  0  0  0  0  0  0  0  0  0  0
   -3.3331    2.7498    0.1969 C   0  0  0  0  0  0  0  0  0  0  0  0
   -2.2590    3.6649    0.2597 C   0  0  0  0  0  0  0  0  0  0  0  0
   -2.5025    4.7365    0.3392 H   0  0  0  0  0  0  0  0  0  0  0  0
   -0.8961    3.2981    0.2287 C   0  0  0  0  0  0  0  0  0  0  0  0
   -0.5989    1.9221    0.1260 C   0  0  0  0  0  0  0  0  0  0  0  0
   -4.7373    3.2972    0.2430 C   0  0  0  0  0  0  0  0  0  0  0  0
   -5.3063    2.9057    1.1125 H   0  0  0  0  0  0  0  0  0  0  0  0
   -5.3140    3.0358   -0.6693 H   0  0  0  0  0  0  0  0  0  0  0  0
   -4.7261    4.4008    0.3236 H   0  0  0  0  0  0  0  0  0  0  0  0
    0.1928    4.3341    0.3027 C   0  0  0  0  0  0  0  0  0  0  0  0
    0.8442    4.1723    1.1885 H   0  0  0  0  0  0  0  0  0  0  0  0
   -0.2199    5.3588    0.3706 H   0  0  0  0  0  0  0  0  0  0  0  0
    0.8507    4.2924   -0.5921 H   0  0  0  0  0  0  0  0  0  0  0  0
    0.6979    1.2600    0.0734 C   0  0  0  0  0  0  0  0  0  0  0  0
    2.0501    1.5780    0.1034 C   0  0  0  0  0  0  0  0  0  0  0  0
    2.5899    2.5225    0.1960 H   0  0  0  0  0  0  0  0  0  0  0  0
    4.1221    0.1479    0.0123 C   0  0  0  0  0  0  0  0  0  0  0  0
    4.8791    0.5511   -1.1078 C   0  0  0  0  0  0  0  0  0  0  0  0
    6.2676    0.3270   -1.0655 C   0  0  0  0  0  0  0  0  0  0  0  0
    6.8780    0.6300   -1.9310 H   0  0  0  0  0  0  0  0  0  0  0  0
    6.8904   -0.2843    0.0369 C   0  0  0  0  0  0  0  0  0  0  0  0
    6.0881   -0.6818    1.1250 C   0  0  0  0  0  0  0  0  0  0  0  0
    6.5590   -1.1668    1.9951 H   0  0  0  0  0  0  0  0  0  0  0  0
    4.6988   -0.4804    1.1403 C   0  0  0  0  0  0  0  0  0  0  0  0
    4.2266    1.1793   -2.3130 C   0  0  0  0  0  0  0  0  0  0  0  0
    4.9138    1.1723   -3.1798 H   0  0  0  0  0  0  0  0  0  0  0  0
    3.3005    0.6413   -2.5982 H   0  0  0  0  0  0  0  0  0  0  0  0
    3.9390    2.2356   -2.1267 H   0  0  0  0  0  0  0  0  0  0  0  0
    8.3773   -0.5326    0.0555 C   0  0  0  0  0  0  0  0  0  0  0  0
    8.8406   -0.1364    0.9823 H   0  0  0  0  0  0  0  0  0  0  0  0
    8.8831   -0.0631   -0.8097 H   0  0  0  0  0  0  0  0  0  0  0  0
    8.5986   -1.6203    0.0269 H   0  0  0  0  0  0  0  0  0  0  0  0
    3.8499   -0.9255    2.3016 C   0  0  0  0  0  0  0  0  0  0  0  0
    4.4791   -1.2454    3.1529 H   0  0  0  0  0  0  0  0  0  0  0  0
    3.1771   -0.1151    2.6503 H   0  0  0  0  0  0  0  0  0  0  0  0
    3.1940   -1.7717    2.0110 H   0  0  0  0  0  0  0  0  0  0  0  0
   -3.9167    0.1936    0.0151 C   0  0  0  0  0  0  0  0  0  0  0  0
   -5.3271    0.1780    0.0208 C   0  0  0  0  0  0  0  0  0  0  0  0
   -5.8764    1.1215    0.0891 H   0  0  0  0  0  0  0  0  0  0  0  0
   -6.0283   -1.0303   -0.0602 C   0  0  0  0  0  0  0  0  0  0  0  0
   -7.1287   -1.0250   -0.0547 H   0  0  0  0  0  0  0  0  0  0  0  0
   -5.3194   -2.2370   -0.1475 C   0  0  0  0  0  0  0  0  0  0  0  0
   -5.8308   -3.2074   -0.2125 H   0  0  0  0  0  0  0  0  0  0  0  0
   -3.9233   -2.1908   -0.1512 C   0  0  0  0  0  0  0  0  0  0  0  0
   -3.2745   -3.0830   -0.2158 H   0  0  0  0  0  0  0  0  0  0  0  0
  1 20  1  0  0  0  0
  2  1  1  0  0  0  0
  2  3  1  0  0  0  0
  3 23  1  0  0  0  0
  3 21  1  0  0  0  0
  4 43  1  0  0  0  0
  5  6  1  0  0  0  0
  5 11  1  0  0  0  0
  6  7  1  0  0  0  0
  7 12  1  0  0  0  0
  7  8  2  0  0  0  0
  8  9  1  0  0  0  0
 10  8  1  0  0  0  0
 10 16  1  0  0  0  0
 11 10  2  0  0  0  0
 12 15  1  0  0  0  0
 12 13  1  0  0  0  0
 14 12  1  0  0  0  0
 16 18  1  0  0  0  0
 16 17  1  0  0  0  0
 19 16  1  0  0  0  0
 20 21  2  0  0  0  0
 20 11  1  0  0  0  0
 21 22  1  0  0  0  0
 23 30  1  0  0  0  0
 24 25  1  0  0  0  0
 24 23  2  0  0  0  0
 25 27  2  0  0  0  0
 26 25  1  0  0  0  0
 27 35  1  0  0  0  0
 27 28  1  0  0  0  0
 28 30  2  0  0  0  0
 28 29  1  0  0  0  0
 30 39  1  0  0  0  0
 31 34  1  0  0  0  0
 31 24  1  0  0  0  0
 32 31  1  0  0  0  0
 33 31  1  0  0  0  0
 35 36  1  0  0  0  0
 37 35  1  0  0  0  0
 38 35  1  0  0  0  0
 39 41  1  0  0  0  0
 39 40  1  0  0  0  0
 42 39  1  0  0  0  0
 43 44  1  0  0  0  0
 43  6  2  0  0  0  0
 44 45  1  0  0  0  0
 46 47  1  0  0  0  0
 46 44  2  0  0  0  0
 48 46  1  0  0  0  0
 49 48  1  0  0  0  0
 50 48  2  0  0  0  0
 50  4  1  0  0  0  0
 51 50  1  0  0  0  0
M  END
