1,2,20
q = -1.0

 46 50  0  0  1  0  0  0  0  0999 V2000
   -3.1572   -0.8245    0.0742 N   0  0  0  0  0  2  0  0  0  0  0  0
    0.9096   -1.0025   -0.1521 N   0  0  0  0  0  2  0  0  0  0  0  0
   -4.0884    0.1536    0.1163 C   0  0  0  0  0  3  0  0  0  0  0  0
   -3.7084    1.1832    0.0868 H   0  0  0  0  0  0  0  0  0  0  0  0
   -5.4569   -0.1167    0.1929 C   0  0  0  0  0  0  0  0  0  0  0  0
   -6.1726    0.7162    0.2245 H   0  0  0  0  0  0  0  0  0  0  0  0
   -5.8796   -1.4539    0.2276 C   0  0  0  0  0  0  0  0  0  0  0  0
   -6.9493   -1.7024    0.2878 H   0  0  0  0  0  0  0  0  0  0  0  0
   -4.9205   -2.4708    0.1844 C   0  0  0  0  0  0  0  0  0  0  0  0
   -5.2205   -3.5274    0.2097 H   0  0  0  0  0  0  0  0  0  0  0  0
   -3.5540   -2.1540    0.1073 C   0  0  0  0  0  0  0  0  0  0  0  0
   -2.4518   -3.1212    0.0559 C   0  0  0  0  0  0  0  0  0  0  0  0
   -2.5079   -4.5314    0.0733 C   0  0  0  0  0  0  0  0  0  0  0  0
   -3.4682   -5.0659    0.1314 H   0  0  0  0  0  0  0  0  0  0  0  0
   -1.3102   -5.2674    0.0153 C   0  0  0  0  0  0  0  0  0  0  0  0
   -1.3564   -6.3659    0.0289 H   0  0  0  0  0  0  0  0  0  0  0  0
   -0.0533   -4.6361   -0.0597 C   0  0  0  0  0  3  0  0  0  0  0  0
    0.8577   -5.2522   -0.1033 H   0  0  0  0  0  0  0  0  0  0  0  0
    0.0141   -3.2276   -0.0778 C   0  0  0  0  0  0  0  0  0  0  0  0
   -1.1906   -2.5038   -0.0198 C   0  0  0  0  0  3  0  0  0  0  0  0
    1.1954   -2.3570   -0.1515 C   0  0  0  0  0  0  0  0  0  0  0  0
    2.5302   -2.7865   -0.2163 C   0  0  0  0  0  0  0  0  0  0  0  0
    2.7403   -3.8660   -0.2074 H   0  0  0  0  0  0  0  0  0  0  0  0
    3.5800   -1.8633   -0.2856 C   0  0  0  0  0  0  0  0  0  0  0  0
    3.2611   -0.4795   -0.2970 C   0  0  0  0  0  0  0  0  0  0  0  0
    1.9192   -0.1046   -0.2229 C   0  0  0  0  0  0  0  0  0  0  0  0
    1.6292    0.9540   -0.2202 H   0  0  0  0  0  0  0  0  0  0  0  0
    5.0419   -2.2492   -0.3300 C   0  0  0  0  0  0  0  0  0  0  0  0
    5.2886   -2.8549    0.5691 H   0  0  0  0  0  0  0  0  0  0  0  0
    5.2209   -2.9175   -1.2005 H   0  0  0  0  0  0  0  0  0  0  0  0
    5.9335   -1.0010   -0.4238 C   0  0  1  0  0  0  0  0  0  0  0  0
    7.0051   -1.2780   -0.4797 H   0  0  0  0  0  0  0  0  0  0  0  0
    5.3582   -0.0493   -1.5074 C   0  0  0  0  0  0  0  0  0  0  0  0
    4.8808   -0.5079   -2.3968 H   0  0  0  0  0  0  0  0  0  0  0  0
    6.0854    0.7105   -1.8428 H   0  0  0  0  0  0  0  0  0  0  0  0
    4.4070    0.4872   -0.3941 C   0  0  2  0  0  0  0  0  0  0  0  0
    4.0742    1.5445   -0.4188 H   0  0  0  0  0  0  0  0  0  0  0  0
    5.5265    0.0777    0.6496 C   0  0  0  0  0  0  0  0  0  0  0  0
    5.0958   -0.3847    2.0401 C   0  0  0  0  0  0  0  0  0  0  0  0
    4.7180    0.4738    2.6330 H   0  0  0  0  0  0  0  0  0  0  0  0
    5.9627   -0.8068    2.5889 H   0  0  0  0  0  0  0  0  0  0  0  0
    4.2990   -1.1527    2.0303 H   0  0  0  0  0  0  0  0  0  0  0  0
    6.5895    1.1726    0.7960 C   0  0  0  0  0  0  0  0  0  0  0  0
    6.1867    2.0299    1.3733 H   0  0  0  0  0  0  0  0  0  0  0  0
    6.9558    1.5612   -0.1730 H   0  0  0  0  0  0  0  0  0  0  0  0
    7.4663    0.7800    1.3503 H   0  0  0  0  0  0  0  0  0  0  0  0
  1 11  1  0  0  0  0
  1  3  1  0  0  0  0
  2 21  1  0  0  0  0
  3  5  1  0  0  0  0
  4  3  1  0  0  0  0
  5  6  1  0  0  0  0
  5  7  2  0  0  0  0
  7  8  1  0  0  0  0
  9 10  1  0  0  0  0
  9  7  1  0  0  0  0
 11  9  2  0  0  0  0
 12 13  1  0  0  0  0
 12 11  1  0  0  0  0
 13 14  1  0  0  0  0
 15 16  1  0  0  0  0
 15 13  2  0  0  0  0
 17 15  1  0  0  0  0
 18 17  1  0  0  0  0
 19 17  1  0  0  0  0
 19 20  1  0  0  0  0
 20 12  2  0  0  0  0
 21 19  2  0  0  0  0
 22 23  1  0  0  0  0
 22 21  1  0  0  0  0
 24 22  2  0  0  0  0
 25 24  1  0  0  0  0
 25 26  2  0  0  0  0
 26 27  1  0  0  0  0
 26  2  1  0  0  0  0
 28 24  1  0  0  0  0
 28 29  1  0  0  0  0
 30 28  1  0  0  0  0
 31 32  1  6  0  0  0
 31 28  1  0  0  0  0
 31 38  1  0  0  0  0
 33 31  1  0  0  0  0
 33 36  1  0  0  0  0
 34 33  1  0  0  0  0
 35 33  1  0  0  0  0
 36 37  1  6  0  0  0
 36 25  1  0  0  0  0
 36 38  1  0  0  0  0
 38 43  1  0  0  0  0
 38 39  1  0  0  0  0
 39 41  1  0  0  0  0
 39 40  1  0  0  0  0
 42 39  1  0  0  0  0
 43 46  1  0  0  0  0
 43 44  1  0  0  0  0
 45 43  1  0  0  0  0
M  END
