3,4,5
q = -1.0

 37 40  0  0  0  0  0  0  0  0999 V2000
   -1.2478   -1.9877   -2.9898 H   0  0  0  0  0  0  0  0  0  0  0  0
   -0.2750   -0.7424   -3.5672 H   0  0  0  0  0  0  0  0  0  0  0  0
   -0.5195   -1.3129   -2.7315 N   0  0  0  0  0  0  0  0  0  0  0  0
    0.9672    0.0915   -1.0570 N   0  0  0  0  0  2  0  0  0  0  0  0
   -0.5311    2.1997   -0.4090 C   0  0  0  0  0  2  0  0  0  0  0  0
   -1.2593    3.3394   -0.0301 C   0  0  0  0  0  0  0  0  0  0  0  0
   -2.3081    3.4478   -0.3429 H   0  0  0  0  0  0  0  0  0  0  0  0
   -0.6767    4.3699    0.7468 C   0  0  0  0  0  0  0  0  0  0  0  0
   -1.2932    5.2417    1.0186 H   0  0  0  0  0  0  0  0  0  0  0  0
    0.6493    4.3094    1.1818 C   0  0  0  0  0  0  0  0  0  0  0  0
    1.0808    5.1140    1.7966 H   0  0  0  0  0  0  0  0  0  0  0  0
    1.4447    3.1938    0.8198 C   0  0  0  0  0  0  0  0  0  0  0  0
    0.8439    2.1724    0.0207 C   0  0  0  0  0  0  0  0  0  0  0  0
    1.6347    1.0412   -0.3492 C   0  0  0  0  0  0  0  0  0  0  0  0
    2.9961    0.8736    0.0358 C   0  0  0  0  0  0  0  0  0  0  0  0
    3.5612    1.9091    0.8629 C   0  0  0  0  0  0  0  0  0  0  0  0
    4.5954    1.8056    1.2187 H   0  0  0  0  0  0  0  0  0  0  0  0
    2.8152    3.0124    1.2273 C   0  0  0  0  0  0  0  0  0  0  0  0
    3.2726    3.7863    1.8645 H   0  0  0  0  0  0  0  0  0  0  0  0
    3.6456   -0.3343   -0.3792 C   0  0  0  0  0  0  0  0  0  0  0  0
    5.0559   -0.6336   -0.0262 C   0  0  0  0  0  0  0  0  0  0  0  0
    6.0964    0.2820   -0.3020 C   0  0  0  0  0  0  0  0  0  0  0  0
    5.8584    1.2355   -0.7966 H   0  0  0  0  0  0  0  0  0  0  0  0
    7.4247   -0.0313    0.0181 C   0  0  0  0  0  0  0  0  0  0  0  0
    8.2247    0.6882   -0.2137 H   0  0  0  0  0  0  0  0  0  0  0  0
    7.7369   -1.2596    0.6230 C   0  0  0  0  0  0  0  0  0  0  0  0
    8.7801   -1.5015    0.8767 H   0  0  0  0  0  0  0  0  0  0  0  0
    6.7120   -2.1784    0.8991 C   0  0  0  0  0  0  0  0  0  0  0  0
    6.9485   -3.1421    1.3756 H   0  0  0  0  0  0  0  0  0  0  0  0
    5.3838   -1.8703    0.5736 C   0  0  0  0  0  0  0  0  0  0  0  0
    4.5759   -2.5823    0.8032 H   0  0  0  0  0  0  0  0  0  0  0  0
    2.9105   -1.2768   -1.1209 C   0  0  0  0  0  0  0  0  0  0  0  0
    3.3998   -2.2007   -1.4612 H   0  0  0  0  0  0  0  0  0  0  0  0
    1.5626   -1.0382   -1.4498 C   0  0  0  0  0  0  0  0  0  0  0  0
    0.6690   -2.0056   -2.1942 C   0  0  0  0  0  0  0  0  0  0  0  0
    1.2501   -2.5359   -2.9810 H   0  0  0  0  0  0  0  0  0  0  0  0
    0.3264   -2.7774   -1.4717 H   0  0  0  0  0  0  0  0  0  0  0  0
  1  3  1  0  0  0  0
  2  3  1  0  0  0  0
  3 35  1  0  0  0  0
  4 14  1  0  0  0  0
  5  6  1  0  0  0  0
  5 13  1  0  0  0  0
  6  8  2  0  0  0  0
  7  6  1  0  0  0  0
  8  9  1  0  0  0  0
  8 10  1  0  0  0  0
 10 11  1  0  0  0  0
 12 10  2  0  0  0  0
 12 18  1  0  0  0  0
 13 12  1  0  0  0  0
 14 13  2  0  0  0  0
 14 15  1  0  0  0  0
 15 16  1  0  0  0  0
 16 17  1  0  0  0  0
 16 18  2  0  0  0  0
 18 19  1  0  0  0  0
 20 21  1  0  0  0  0
 20 15  2  0  0  0  0
 21 30  1  0  0  0  0
 22 21  2  0  0  0  0
 22 24  1  0  0  0  0
 23 22  1  0  0  0  0
 24 26  2  0  0  0  0
 25 24  1  0  0  0  0
 26 27  1  0  0  0  0
 26 28  1  0  0  0  0
 28 29  1  0  0  0  0
 30 31  1  0  0  0  0
 30 28  2  0  0  0  0
 32 20  1  0  0  0  0
 33 32  1  0  0  0  0
 34 32  2  0  0  0  0
 34  4  1  0  0  0  0
 35 37  1  0  0  0  0
 35 34  1  0  0  0  0
 36 35  1  0  0  0  0
M  END
