1,2,36
q = -1.0

 61 67  0  0  0  0  0  0  0  0999 V2000
    2.0661    0.3096    0.0383 N   0  0  0  0  0  2  0  0  0  0  0  0
   -2.0596    0.2924   -0.0752 N   0  0  0  0  0  2  0  0  0  0  0  0
    6.6165   -1.9939    0.9344 C   0  0  0  0  0  0  0  0  0  0  0  0
    5.9316   -2.2610    1.7537 H   0  0  0  0  0  0  0  0  0  0  0  0
    7.9128   -2.5267    0.8977 C   0  0  0  0  0  0  0  0  0  0  0  0
    8.2403   -3.2196    1.6875 H   0  0  0  0  0  0  0  0  0  0  0  0
    8.7907   -2.1746   -0.1393 C   0  0  0  0  0  0  0  0  0  0  0  0
    9.8078   -2.5938   -0.1693 H   0  0  0  0  0  0  0  0  0  0  0  0
    8.3639   -1.2874   -1.1406 C   0  0  0  0  0  0  0  0  0  0  0  0
    9.0419   -1.0178   -1.9645 H   0  0  0  0  0  0  0  0  0  0  0  0
    7.0712   -0.7469   -1.1016 C   0  0  0  0  0  0  0  0  0  0  0  0
    6.7338   -0.0690   -1.8996 H   0  0  0  0  0  0  0  0  0  0  0  0
    6.1800   -1.0909   -0.0599 C   0  0  0  0  0  0  0  0  0  0  0  0
    4.7891   -0.5701   -0.0278 C   0  0  0  0  0  0  0  0  0  0  0  0
    3.7289   -1.4637    0.0233 C   0  0  0  0  0  0  0  0  0  0  0  0
    3.9252   -2.5443    0.0135 H   0  0  0  0  0  0  0  0  0  0  0  0
    2.3844   -1.0237    0.0314 C   0  0  0  0  0  0  0  0  0  0  0  0
    3.0884    1.2398   -0.0648 C   0  0  0  0  0  0  0  0  0  0  0  0
    4.4772    0.8329   -0.0733 C   0  0  0  0  0  0  0  0  0  0  0  0
    2.7827    2.6225   -0.1847 C   0  0  0  0  0  0  0  0  0  0  0  0
    1.7278    2.9289   -0.1703 H   0  0  0  0  0  0  0  0  0  0  0  0
    3.7954    3.5686   -0.2581 C   0  0  0  0  0  0  0  0  0  0  0  0
    3.5281    4.6324   -0.3465 H   0  0  0  0  0  0  0  0  0  0  0  0
    5.1556    3.1827   -0.1974 C   0  0  0  0  0  0  0  0  0  0  0  0
    5.9496    3.9441   -0.2210 H   0  0  0  0  0  0  0  0  0  0  0  0
    5.4854    1.8382   -0.1072 C   0  0  0  0  0  3  0  0  0  0  0  0
    6.5381    1.5294   -0.0547 H   0  0  0  0  0  0  0  0  0  0  0  0
    1.2470   -1.9364   -0.0169 C   0  0  0  0  0  0  0  0  0  0  0  0
    1.2430   -3.3458    0.0215 C   0  0  0  0  0  0  0  0  0  0  0  0
    2.1844   -3.9137    0.0811 H   0  0  0  0  0  0  0  0  0  0  0  0
    0.0188   -4.0399    0.0015 C   0  0  0  0  0  0  0  0  0  0  0  0
    0.0226   -5.1393    0.0311 H   0  0  0  0  0  0  0  0  0  0  0  0
   -1.2105   -3.3555   -0.0284 C   0  0  0  0  0  0  0  0  0  0  0  0
   -2.1493   -3.9305   -0.0076 H   0  0  0  0  0  0  0  0  0  0  0  0
   -1.2241   -1.9463   -0.0690 C   0  0  0  0  0  0  0  0  0  0  0  0
    0.0104   -1.2560   -0.0996 C   0  0  0  0  0  3  0  0  0  0  0  0
   -2.3697   -1.0429   -0.0730 C   0  0  0  0  0  0  0  0  0  0  0  0
   -3.7127   -1.4876   -0.0762 C   0  0  0  0  0  0  0  0  0  0  0  0
   -3.9061   -2.5655    0.0101 H   0  0  0  0  0  0  0  0  0  0  0  0
   -4.7750   -0.5964   -0.1332 C   0  0  0  0  0  0  0  0  0  0  0  0
   -4.4636    0.7986   -0.2984 C   0  0  0  0  0  0  0  0  0  0  0  0
   -3.0779    1.2126   -0.2643 C   0  0  0  0  0  0  0  0  0  0  0  0
   -5.4655    1.7776   -0.5538 C   0  0  0  0  0  3  0  0  0  0  0  0
   -6.5131    1.4535   -0.6182 H   0  0  0  0  0  0  0  0  0  0  0  0
   -5.1328    3.1094   -0.7560 C   0  0  0  0  0  0  0  0  0  0  0  0
   -5.9212    3.8481   -0.9640 H   0  0  0  0  0  0  0  0  0  0  0  0
   -3.7759    3.5082   -0.7143 C   0  0  0  0  0  0  0  0  0  0  0  0
   -3.5066    4.5620   -0.8815 H   0  0  0  0  0  0  0  0  0  0  0  0
   -2.7683    2.5834   -0.4776 C   0  0  0  0  0  0  0  0  0  0  0  0
   -1.7172    2.8961   -0.4240 H   0  0  0  0  0  0  0  0  0  0  0  0
   -6.1670   -1.1035   -0.0453 C   0  0  0  0  0  0  0  0  0  0  0  0
   -7.0827   -0.5639    0.8870 C   0  0  0  0  0  0  0  0  0  0  0  0
   -6.7605    0.2542    1.5482 H   0  0  0  0  0  0  0  0  0  0  0  0
   -8.3797   -1.0839    0.9948 C   0  0  0  0  0  0  0  0  0  0  0  0
   -9.0762   -0.6599    1.7339 H   0  0  0  0  0  0  0  0  0  0  0  0
   -8.7878   -2.1451    0.1706 C   0  0  0  0  0  0  0  0  0  0  0  0
   -9.8083   -2.5485    0.2535 H   0  0  0  0  0  0  0  0  0  0  0  0
   -7.8870   -2.6898   -0.7580 C   0  0  0  0  0  0  0  0  0  0  0  0
   -8.2005   -3.5184   -1.4109 H   0  0  0  0  0  0  0  0  0  0  0  0
   -6.5864   -2.1771   -0.8619 C   0  0  0  0  0  0  0  0  0  0  0  0
   -5.8860   -2.5953   -1.6008 H   0  0  0  0  0  0  0  0  0  0  0  0
  2 37  1  0  0  0  0
  3  4  1  0  0  0  0
  5  3  1  0  0  0  0
  5  6  1  0  0  0  0
  7  5  2  0  0  0  0
  8  7  1  0  0  0  0
  9 11  2  0  0  0  0
  9  7  1  0  0  0  0
 10  9  1  0  0  0  0
 11 13  1  0  0  0  0
 12 11  1  0  0  0  0
 13 14  1  0  0  0  0
 13  3  2  0  0  0  0
 14 15  1  0  0  0  0
 15 17  2  0  0  0  0
 16 15  1  0  0  0  0
 17  1  1  0  0  0  0
 18  1  1  0  0  0  0
 19 18  1  0  0  0  0
 19 14  2  0  0  0  0
 20 21  1  0  0  0  0
 20 18  2  0  0  0  0
 22 24  2  0  0  0  0
 22 20  1  0  0  0  0
 23 22  1  0  0  0  0
 24 26  1  0  0  0  0
 25 24  1  0  0  0  0
 26 19  1  0  0  0  0
 26 27  1  0  0  0  0
 28 29  1  0  0  0  0
 28 17  1  0  0  0  0
 29 30  1  0  0  0  0
 31 29  2  0  0  0  0
 31 32  1  0  0  0  0
 33 34  1  0  0  0  0
 33 31  1  0  0  0  0
 35 33  2  0  0  0  0
 36 35  1  0  0  0  0
 36 28  2  0  0  0  0
 37 35  1  0  0  0  0
 38 37  2  0  0  0  0
 38 39  1  0  0  0  0
 40 38  1  0  0  0  0
 40 51  1  0  0  0  0
 41 42  1  0  0  0  0
 41 40  2  0  0  0  0
 42  2  1  0  0  0  0
 43 41  1  0  0  0  0
 44 43  1  0  0  0  0
 45 47  2  0  0  0  0
 45 43  1  0  0  0  0
 46 45  1  0  0  0  0
 47 49  1  0  0  0  0
 48 47  1  0  0  0  0
 49 50  1  0  0  0  0
 49 42  2  0  0  0  0
 51 52  1  0  0  0  0
 52 54  2  0  0  0  0
 52 53  1  0  0  0  0
 54 55  1  0  0  0  0
 56 57  1  0  0  0  0
 56 54  1  0  0  0  0
 58 56  2  0  0  0  0
 59 58  1  0  0  0  0
 60 58  1  0  0  0  0
 60 51  2  0  0  0  0
 61 60  1  0  0  0  0
M  END
