1,3,5
q = -1.0, confidence = 0.0

 27 29  0  0  1  0  0  0  0  0999 V2000
   -0.3752   -0.0736   -2.0725 N   0  0  0  0  0  2  0  0  0  0  0  0
   -1.8007   -0.1549   -3.7631 N   0  0  0  0  0  0  0  0  0  0  0  0
   -0.5201    0.0312    1.9773 N   0  0  0  0  0  2  0  0  0  0  0  0
   -2.0874    0.1794    3.5911 N   0  0  0  0  0  0  0  0  0  0  0  0
   -1.9841   -0.0439   -0.0819 C   0  0  0  0  0  3  0  0  0  0  0  0
   -2.6715   -0.0942   -1.3295 C   0  0  0  0  0  0  0  0  0  0  0  0
   -4.0799   -0.1097   -1.3629 C   0  0  0  0  0  0  0  0  0  0  0  0
   -4.8040   -0.0695   -0.1532 C   0  0  0  0  0  0  0  0  0  0  0  0
   -4.1478   -0.0140    1.0906 C   0  0  0  0  0  0  0  0  0  0  0  0
   -2.7376   -0.0047    1.1236 C   0  0  0  0  0  0  0  0  0  0  0  0
   -1.6965   -0.1109   -2.4027 C   0  0  2  0  0  3  0  0  0  0  0  0
   -0.5308   -0.1453   -4.3126 C   0  0  0  0  0  0  0  0  0  0  0  0
    0.3484   -0.0945   -3.2455 C   0  0  0  0  0  0  0  0  0  0  0  0
   -1.8248    0.0536    2.2558 C   0  0  1  0  0  3  0  0  0  0  0  0
   -0.8384   -0.0465    4.3324 C   0  0  0  0  0  0  0  0  0  0  0  0
    0.2247    0.2014    3.2301 C   0  0  0  0  0  0  0  0  0  0  0  0
   -2.6762   -0.1884   -4.2852 H   0  0  0  0  0  0  0  0  0  0  0  0
   -2.9873   -0.1085    3.9756 H   0  0  0  0  0  0  0  0  0  0  0  0
   -4.6312   -0.1489   -2.3164 H   0  0  0  0  0  0  0  0  0  0  0  0
   -5.9030   -0.0776   -0.1845 H   0  0  0  0  0  0  0  0  0  0  0  0
   -4.7447    0.0276    2.0157 H   0  0  0  0  0  0  0  0  0  0  0  0
   -0.3602   -0.1751   -5.3926 H   0  0  0  0  0  0  0  0  0  0  0  0
    1.4428   -0.0722   -3.2541 H   0  0  0  0  0  0  0  0  0  0  0  0
   -0.7882   -1.0896    4.7201 H   0  0  0  0  0  0  0  0  0  0  0  0
   -0.7397    0.6464    5.1905 H   0  0  0  0  0  0  0  0  0  0  0  0
    0.6353    1.2356    3.2792 H   0  0  0  0  0  0  0  0  0  0  0  0
    1.0805   -0.4995    3.2900 H   0  0  0  0  0  0  0  0  0  0  0  0
  2 11  1  0  0  0  0
  3 14  1  0  0  0  0
  3 16  1  0  0  0  0
  4 18  1  0  0  0  0
  4 15  1  0  0  0  0
  5 10  1  0  0  0  0
  6  5  2  0  0  0  0
  7  6  1  0  0  0  0
  7  8  2  0  0  0  0
  8  9  1  0  0  0  0
  9 10  2  0  0  0  0
  9 21  1  0  0  0  0
 11  1  1  0  0  0  0
 11  6  1  6  0  0  0
 12  2  1  0  0  0  0
 12 13  2  0  0  0  0
 13  1  1  0  0  0  0
 14 10  1  6  0  0  0
 14  4  1  0  0  0  0
 15 24  1  0  0  0  0
 15 25  1  0  0  0  0
 16 26  1  0  0  0  0
 16 27  1  0  0  0  0
 16 15  1  0  0  0  0
 17  2  1  0  0  0  0
 19  7  1  0  0  0  0
 20  8  1  0  0  0  0
 22 12  1  0  0  0  0
 23 13  1  0  0  0  0
M  END
