1,3,5
q = -1.0

 29 31  0  0  1  0  0  0  0  0999 V2000
    0.4586   -0.0400   -2.0195 N   0  0  0  0  0  2  0  0  0  0  0  0
    1.9817    0.0223   -3.6817 N   0  0  0  0  0  0  0  0  0  0  0  0
    0.4593   -0.0408    2.0194 N   0  0  0  0  0  2  0  0  0  0  0  0
    1.9830    0.0205    3.6810 N   0  0  0  0  0  0  0  0  0  0  0  0
    1.9777   -0.0855   -0.0003 C   0  0  0  0  0  3  0  0  0  0  0  0
    2.6978   -0.0953   -1.2282 C   0  0  0  0  0  0  0  0  0  0  0  0
    4.1070   -0.1172   -1.2287 C   0  0  0  0  0  0  0  0  0  0  0  0
    4.7984   -0.1313   -0.0009 C   0  0  0  0  0  0  0  0  0  0  0  0
    4.1074   -0.1178    1.2273 C   0  0  0  0  0  0  0  0  0  0  0  0
    2.6983   -0.0958    1.2273 C   0  0  0  0  0  0  0  0  0  0  0  0
    1.7548   -0.0551   -2.3359 C   0  0  1  0  0  3  0  0  0  0  0  0
    0.7074   -0.2009   -4.3797 C   0  0  0  0  0  0  0  0  0  0  0  0
   -0.3180    0.1049   -3.2564 C   0  0  0  0  0  0  0  0  0  0  0  0
    1.7557   -0.0561    2.3354 C   0  0  2  0  0  3  0  0  0  0  0  0
    0.7090   -0.2024    4.3796 C   0  0  0  0  0  0  0  0  0  0  0  0
   -0.3168    0.1036    3.2567 C   0  0  0  0  0  0  0  0  0  0  0  0
    4.6803   -0.1132   -2.1698 H   0  0  0  0  0  0  0  0  0  0  0  0
    5.8977   -0.1448   -0.0011 H   0  0  0  0  0  0  0  0  0  0  0  0
    4.6811   -0.1143    2.1681 H   0  0  0  0  0  0  0  0  0  0  0  0
    2.8634   -0.2992   -4.0814 H   0  0  0  0  0  0  0  0  0  0  0  0
    0.5980    0.4662   -5.2567 H   0  0  0  0  0  0  0  0  0  0  0  0
    0.6248   -1.2545   -4.7316 H   0  0  0  0  0  0  0  0  0  0  0  0
   -1.1892   -0.5792   -3.2688 H   0  0  0  0  0  0  0  0  0  0  0  0
   -0.7086    1.1455   -3.3277 H   0  0  0  0  0  0  0  0  0  0  0  0
    2.8653   -0.2994    4.0806 H   0  0  0  0  0  0  0  0  0  0  0  0
    0.6265   -1.2560    4.7316 H   0  0  0  0  0  0  0  0  0  0  0  0
    0.6001    0.4647    5.2567 H   0  0  0  0  0  0  0  0  0  0  0  0
   -0.7077    1.1440    3.3285 H   0  0  0  0  0  0  0  0  0  0  0  0
   -1.1879   -0.5808    3.2692 H   0  0  0  0  0  0  0  0  0  0  0  0
  2 11  1  0  0  0  0
  3 14  1  0  0  0  0
  3 16  1  0  0  0  0
  4 25  1  0  0  0  0
  4 15  1  0  0  0  0
  5 10  1  0  0  0  0
  6  5  2  0  0  0  0
  7  6  1  0  0  0  0
  7  8  2  0  0  0  0
  8  9  1  0  0  0  0
  9 10  2  0  0  0  0
  9 19  1  0  0  0  0
 11  1  1  0  0  0  0
 11  6  1  1  0  0  0
 12  2  1  0  0  0  0
 12 13  1  0  0  0  0
 13  1  1  0  0  0  0
 14 10  1  6  0  0  0
 14  4  1  0  0  0  0
 15 26  1  0  0  0  0
 15 27  1  0  0  0  0
 16 29  1  0  0  0  0
 16 28  1  0  0  0  0
 16 15  1  0  0  0  0
 17  7  1  0  0  0  0
 18  8  1  0  0  0  0
 20  2  1  0  0  0  0
 21 12  1  0  0  0  0
 22 12  1  0  0  0  0
 23 13  1  0  0  0  0
 24 13  1  0  0  0  0
M  END
