5,12,24
q = -1.0

 37 37  0  0  0  0  0  0  0  0999 V2000
    3.6052    0.3340    0.0407 C   0  0  0  0  0  0  0  0  0  0  0  0
    2.9877   -0.9312   -0.1558 C   0  0  0  0  0  0  0  0  0  0  0  0
    3.6363   -1.8092   -0.2978 H   0  0  0  0  0  0  0  0  0  0  0  0
    1.5938   -1.0305   -0.1811 C   0  0  0  0  0  0  0  0  0  0  0  0
    0.8165    0.1302    0.0149 C   0  0  0  0  0  3  0  0  0  0  0  0
    1.4065    1.3898    0.2223 C   0  0  0  0  0  0  0  0  0  0  0  0
    2.8051    1.4910    0.2225 C   0  0  0  0  0  0  0  0  0  0  0  0
    3.3004    2.4642    0.3766 H   0  0  0  0  0  0  0  0  0  0  0  0
    0.7760   -2.2569   -0.4913 C   0  0  0  0  0  0  0  0  0  0  0  0
    1.2188   -3.2047   -0.1084 H   0  0  0  0  0  0  0  0  0  0  0  0
    0.6830   -2.3633   -1.5925 H   0  0  0  0  0  0  0  0  0  0  0  0
   -0.6276   -2.0996    0.0429 N   0  0  0  0  0  0  0  0  0  0  0  0
   -0.6736   -2.4766    1.4761 C   0  0  0  0  0  0  0  0  0  0  0  0
   -0.4446   -3.5612    1.5960 H   0  0  0  0  0  0  0  0  0  0  0  0
   -1.6840   -2.2635    1.8712 H   0  0  0  0  0  0  0  0  0  0  0  0
    0.0685   -1.8804    2.0377 H   0  0  0  0  0  0  0  0  0  0  0  0
   -1.5669   -2.9427   -0.7262 C   0  0  0  0  0  0  0  0  0  0  0  0
   -2.5912   -2.7785   -0.3439 H   0  0  0  0  0  0  0  0  0  0  0  0
   -1.2821   -4.0164   -0.6387 H   0  0  0  0  0  0  0  0  0  0  0  0
   -1.5460   -2.6387   -1.7888 H   0  0  0  0  0  0  0  0  0  0  0  0
    0.4132    2.4831    0.5157 C   0  0  0  0  0  0  0  0  0  0  0  0
    0.7157    3.4854    0.1339 H   0  0  0  0  0  0  0  0  0  0  0  0
    0.2883    2.5793    1.6148 H   0  0  0  0  0  0  0  0  0  0  0  0
   -0.9436    2.1183   -0.0379 N   0  0  0  0  0  0  0  0  0  0  0  0
   -2.0091    2.8116    0.7163 C   0  0  0  0  0  0  0  0  0  0  0  0
   -2.9918    2.4953    0.3205 H   0  0  0  0  0  0  0  0  0  0  0  0
   -1.8875    3.9158    0.6299 H   0  0  0  0  0  0  0  0  0  0  0  0
   -1.9576    2.5146    1.7798 H   0  0  0  0  0  0  0  0  0  0  0  0
   -1.0253    2.4843   -1.4724 C   0  0  0  0  0  0  0  0  0  0  0  0
   -0.9588    3.5909   -1.5913 H   0  0  0  0  0  0  0  0  0  0  0  0
   -1.9871    2.1233   -1.8809 H   0  0  0  0  0  0  0  0  0  0  0  0
   -0.1951    2.0048   -2.0223 H   0  0  0  0  0  0  0  0  0  0  0  0
    5.0610    0.4738    0.0595 C   0  0  0  0  0  0  0  0  0  0  0  0
    5.4916    1.4852    0.2143 H   0  0  0  0  0  0  0  0  0  0  0  0
    5.8463   -0.5428   -0.0984 N   0  0  0  0  0  0  0  0  0  0  0  0
    7.1821   -0.1724   -0.0432 O   0  0  0  0  0  0  0  0  0  0  0  0
    7.6402   -1.0229   -0.1755 H   0  0  0  0  0  0  0  0  0  0  0  0
  1 33  1  0  0  0  0
  1  7  1  0  0  0  0
  2  1  2  0  0  0  0
  3  2  1  0  0  0  0
  4  2  1  0  0  0  0
  4  5  2  0  0  0  0
  5  6  1  0  0  0  0
  6  7  2  0  0  0  0
  6 21  1  0  0  0  0
  7  8  1  0  0  0  0
  9  4  1  0  0  0  0
  9 10  1  0  0  0  0
  9 12  1  0  0  0  0
 11  9  1  0  0  0  0
 12 13  1  0  0  0  0
 13 14  1  0  0  0  0
 13 15  1  0  0  0  0
 13 16  1  0  0  0  0
 17 19  1  0  0  0  0
 17 18  1  0  0  0  0
 17 12  1  0  0  0  0
 20 17  1  0  0  0  0
 21 23  1  0  0  0  0
 22 21  1  0  0  0  0
 24 21  1  0  0  0  0
 24 25  1  0  0  0  0
 25 28  1  0  0  0  0
 26 25  1  0  0  0  0
 27 25  1  0  0  0  0
 29 24  1  0  0  0  0
 30 29  1  0  0  0  0
 31 29  1  0  0  0  0
 32 29  1  0  0  0  0
 33 34  1  0  0  0  0
 35 36  1  0  0  0  0
 35 33  2  0  0  0  0
 37 36  1  0  0  0  0
M  END
