2,3,4
q = -1.0

 41 44  0  0  1  0  0  0  0  0999 V2000
   -1.3166    2.9061   -0.3629 O   0  0  0  0  0  0  0  0  0  0  0  0
    1.8131    1.1637   -0.0594 N   0  0  0  0  0  2  0  0  0  0  0  0
   -0.7349    0.7193   -0.3847 N   0  0  0  0  0  2  0  0  0  0  0  0
    2.8083   -1.2341    0.0632 C   0  0  0  0  0  2  0  0  0  0  0  0
    3.2955   -2.5499    0.1237 C   0  0  0  0  0  3  0  0  0  0  0  0
    2.5827   -3.3837    0.0395 H   0  0  0  0  0  0  0  0  0  0  0  0
    4.6701   -2.7907    0.2904 C   0  0  0  0  0  0  0  0  0  0  0  0
    5.0369   -3.8286    0.3357 H   0  0  0  0  0  0  0  0  0  0  0  0
    5.5842   -1.7255    0.4007 C   0  0  0  0  0  0  0  0  0  0  0  0
    6.6577   -1.9282    0.5309 H   0  0  0  0  0  0  0  0  0  0  0  0
    5.1231   -0.4059    0.3444 C   0  0  0  0  0  0  0  0  0  0  0  0
    5.8377    0.4280    0.4308 H   0  0  0  0  0  0  0  0  0  0  0  0
    3.7454   -0.1476    0.1769 C   0  0  0  0  0  0  0  0  0  0  0  0
    3.1663    1.1941    0.1113 C   0  0  0  0  0  0  0  0  0  0  0  0
    3.7988    2.4539    0.2047 C   0  0  0  0  0  0  0  0  0  0  0  0
    4.8878    2.5059    0.3405 H   0  0  0  0  0  0  0  0  0  0  0  0
    3.0350    3.6270    0.1271 C   0  0  0  0  0  0  0  0  0  0  0  0
    3.5307    4.6061    0.2010 H   0  0  0  0  0  0  0  0  0  0  0  0
    1.6390    3.5616   -0.0421 C   0  0  0  0  0  0  0  0  0  0  0  0
    1.0116    4.4607   -0.1031 H   0  0  0  0  0  0  0  0  0  0  0  0
    1.0577    2.2910   -0.1322 C   0  0  0  0  0  0  0  0  0  0  0  0
   -0.3639    1.9639   -0.3011 C   0  0  0  0  0  0  0  0  0  0  0  0
   -2.5810    2.1833   -0.5365 C   0  0  0  0  0  0  0  0  0  0  0  0
   -3.0177    2.5031   -1.5023 H   0  0  0  0  0  0  0  0  0  0  0  0
   -3.2598    2.4869    0.2848 H   0  0  0  0  0  0  0  0  0  0  0  0
   -2.1935    0.6746   -0.4922 C   0  0  2  0  0  0  0  0  0  0  0  0
   -2.4590    0.1625   -1.4411 H   0  0  0  0  0  0  0  0  0  0  0  0
   -2.7955   -0.1394    0.6721 C   0  0  0  0  0  0  0  0  0  0  0  0
   -2.2433   -1.1027    0.6958 H   0  0  0  0  0  0  0  0  0  0  0  0
   -2.5855    0.3910    1.6243 H   0  0  0  0  0  0  0  0  0  0  0  0
   -4.2757   -0.3715    0.4941 C   0  0  0  0  0  0  0  0  0  0  0  0
   -4.7253   -1.3747   -0.3909 C   0  0  0  0  0  0  0  0  0  0  0  0
   -3.9832   -2.0146   -0.8957 H   0  0  0  0  0  0  0  0  0  0  0  0
   -5.2346    0.4229    1.1541 C   0  0  0  0  0  0  0  0  0  0  0  0
   -4.9006    1.1957    1.8655 H   0  0  0  0  0  0  0  0  0  0  0  0
   -6.0951   -1.5725   -0.6139 C   0  0  0  0  0  0  0  0  0  0  0  0
   -6.4283   -2.3648   -1.3015 H   0  0  0  0  0  0  0  0  0  0  0  0
   -7.0410   -0.7697    0.0456 C   0  0  0  0  0  0  0  0  0  0  0  0
   -8.1166   -0.9273   -0.1265 H   0  0  0  0  0  0  0  0  0  0  0  0
   -6.6074    0.2266    0.9331 C   0  0  0  0  0  0  0  0  0  0  0  0
   -7.3422    0.8523    1.4627 H   0  0  0  0  0  0  0  0  0  0  0  0
  1 22  1  0  0  0  0
  2 14  1  0  0  0  0
  3 22  1  0  0  0  0
  4  5  1  0  0  0  0
  4 13  1  0  0  0  0
  5  7  1  0  0  0  0
  6  5  1  0  0  0  0
  7  8  1  0  0  0  0
  7  9  2  0  0  0  0
  9 10  1  0  0  0  0
 11  9  1  0  0  0  0
 11 12  1  0  0  0  0
 13 11  2  0  0  0  0
 14 13  1  0  0  0  0
 14 15  2  0  0  0  0
 15 16  1  0  0  0  0
 17 18  1  0  0  0  0
 17 15  1  0  0  0  0
 19 17  2  0  0  0  0
 20 19  1  0  0  0  0
 21  2  1  0  0  0  0
 21 19  1  0  0  0  0
 22 21  2  0  0  0  0
 23 26  1  0  0  0  0
 23  1  1  0  0  0  0
 23 25  1  0  0  0  0
 24 23  1  0  0  0  0
 26 27  1  6  0  0  0
 26  3  1  0  0  0  0
 26 28  1  0  0  0  0
 28 29  1  0  0  0  0
 28 30  1  0  0  0  0
 31 28  1  0  0  0  0
 31 34  1  0  0  0  0
 32 31  2  0  0  0  0
 33 32  1  0  0  0  0
 34 35  1  0  0  0  0
 36 32  1  0  0  0  0
 36 38  2  0  0  0  0
 37 36  1  0  0  0  0
 38 40  1  0  0  0  0
 39 38  1  0  0  0  0
 40 34  2  0  0  0  0
 40 41  1  0  0  0  0
M  END
