1,3,21
q = -1.0, confidence = 0.018

 47 51  0  0  0  0  0  0  0  0999 V2000
    3.1325   -0.1174    0.0998 N   0  0  0  0  0  2  0  0  0  0  0  0
   -1.4854    1.0011   -0.2502 N   0  0  0  0  0  0  0  0  0  0  0  0
   -0.7657   -1.2704   -0.0393 N   0  0  0  0  0  2  0  0  0  0  0  0
    4.1891   -0.7529    0.6537 C   0  0  0  0  0  0  0  0  0  0  0  0
    3.9252   -1.6276    1.2713 H   0  0  0  0  0  0  0  0  0  0  0  0
    5.5017   -0.3310    0.4268 C   0  0  0  0  0  0  0  0  0  0  0  0
    6.3318   -0.8759    0.8973 H   0  0  0  0  0  0  0  0  0  0  0  0
    5.7257    0.7789   -0.4036 C   0  0  0  0  0  0  0  0  0  0  0  0
    6.7484    1.1316   -0.6047 H   0  0  0  0  0  0  0  0  0  0  0  0
    4.6309    1.4346   -0.9747 C   0  0  0  0  0  0  0  0  0  0  0  0
    4.7744    2.3077   -1.6258 H   0  0  0  0  0  0  0  0  0  0  0  0
    3.3249    0.9810   -0.7161 C   0  0  0  0  0  0  0  0  0  0  0  0
    2.0843    1.5857   -1.2010 C   0  0  0  0  0  0  0  0  0  0  0  0
    1.9778    2.7377   -2.0067 C   0  0  0  0  0  3  0  0  0  0  0  0
    2.8777    3.2399   -2.3938 H   0  0  0  0  0  0  0  0  0  0  0  0
    0.7100    3.2460   -2.3210 C   0  0  0  0  0  0  0  0  0  0  0  0
    0.6161    4.1240   -2.9765 H   0  0  0  0  0  0  0  0  0  0  0  0
   -0.4486    2.6542   -1.7810 C   0  0  0  0  0  0  0  0  0  0  0  0
   -1.4411    3.0710   -2.0085 H   0  0  0  0  0  0  0  0  0  0  0  0
   -0.3390    1.5374   -0.9323 C   0  0  0  0  0  0  0  0  0  0  0  0
    0.9131    0.9391   -0.7113 C   0  0  0  0  0  3  0  0  0  0  0  0
   -1.7367   -0.3821   -0.3470 C   0  0  0  0  0  0  0  0  0  0  0  0
   -3.0365   -0.8136   -0.7843 C   0  0  0  0  0  0  0  0  0  0  0  0
   -4.0405    0.1116   -1.1919 C   0  0  0  0  0  3  0  0  0  0  0  0
   -3.8106    1.1852   -1.1819 H   0  0  0  0  0  0  0  0  0  0  0  0
   -5.2867   -0.3429   -1.5964 C   0  0  0  0  0  0  0  0  0  0  0  0
   -6.0546    0.3787   -1.9123 H   0  0  0  0  0  0  0  0  0  0  0  0
   -5.5797   -1.7331   -1.6113 C   0  0  0  0  0  0  0  0  0  0  0  0
   -6.5754   -2.0764   -1.9301 H   0  0  0  0  0  0  0  0  0  0  0  0
   -4.6142   -2.6561   -1.2369 C   0  0  0  0  0  0  0  0  0  0  0  0
   -4.8278   -3.7355   -1.2575 H   0  0  0  0  0  0  0  0  0  0  0  0
   -3.3242   -2.2204   -0.8227 C   0  0  0  0  0  0  0  0  0  0  0  0
   -2.2786   -3.1128   -0.4552 C   0  0  0  0  0  0  0  0  0  0  0  0
   -2.4456   -4.1996   -0.4619 H   0  0  0  0  0  0  0  0  0  0  0  0
   -1.0425   -2.6227   -0.1013 C   0  0  0  0  0  0  0  0  0  0  0  0
   -0.2022   -3.2663    0.2010 H   0  0  0  0  0  0  0  0  0  0  0  0
   -2.1045    1.7282    0.8082 C   0  0  0  0  0  0  0  0  0  0  0  0
   -1.9610    3.1299    0.9256 C   0  0  0  0  0  0  0  0  0  0  0  0
   -1.3450    3.6835    0.2071 H   0  0  0  0  0  0  0  0  0  0  0  0
   -2.5848    3.8231    1.9718 C   0  0  0  0  0  0  0  0  0  0  0  0
   -2.4511    4.9138    2.0377 H   0  0  0  0  0  0  0  0  0  0  0  0
   -3.3657    3.1509    2.9231 C   0  0  0  0  0  0  0  0  0  0  0  0
   -3.8562    3.7022    3.7384 H   0  0  0  0  0  0  0  0  0  0  0  0
   -3.4910    1.7570    2.8244 C   0  0  0  0  0  0  0  0  0  0  0  0
   -4.0726    1.1987    3.5738 H   0  0  0  0  0  0  0  0  0  0  0  0
   -2.8633    1.0495    1.7923 C   0  0  0  0  0  0  0  0  0  0  0  0
   -2.9493   -0.0448    1.7658 H   0  0  0  0  0  0  0  0  0  0  0  0
  1  4  1  0  0  0  0
  2 37  1  0  0  0  0
  4  5  1  0  0  0  0
  6  4  2  0  0  0  0
  6  7  1  0  0  0  0
  8  6  1  0  0  0  0
  9  8  1  0  0  0  0
 10 12  1  0  0  0  0
 10  8  2  0  0  0  0
 11 10  1  0  0  0  0
 12  1  1  0  0  0  0
 13 12  2  0  0  0  0
 13 21  1  0  0  0  0
 14 13  1  0  0  0  0
 15 14  1  0  0  0  0
 16 14  1  0  0  0  0
 16 18  2  0  0  0  0
 17 16  1  0  0  0  0
 18 20  1  0  0  0  0
 19 18  1  0  0  0  0
 20 21  2  0  0  0  0
 20  2  1  0  0  0  0
 22  2  1  0  0  0  0
 22  3  1  0  0  0  0
 23 22  2  0  0  0  0
 24 25  1  0  0  0  0
 24 23  1  0  0  0  0
 26 24  1  0  0  0  0
 27 26  1  0  0  0  0
 28 26  2  0  0  0  0
 28 30  1  0  0  0  0
 29 28  1  0  0  0  0
 30 32  2  0  0  0  0
 31 30  1  0  0  0  0
 32 23  1  0  0  0  0
 32 33  1  0  0  0  0
 33 35  2  0  0  0  0
 34 33  1  0  0  0  0
 35  3  1  0  0  0  0
 35 36  1  0  0  0  0
 37 38  2  0  0  0  0
 37 46  1  0  0  0  0
 38 40  1  0  0  0  0
 39 38  1  0  0  0  0
 40 41  1  0  0  0  0
 40 42  2  0  0  0  0
 42 43  1  0  0  0  0
 44 42  1  0  0  0  0
 44 45  1  0  0  0  0
 46 44  2  0  0  0  0
 47 46  1  0  0  0  0
M  END
