1,3,21
q = -1.0

 47 51  0  0  0  0  0  0  0  0999 V2000
    1.0703   -1.6912   -0.1521 N   0  0  0  0  0  2  0  0  0  0  0  0
    2.6127    0.1741    0.0659 N   0  0  0  0  0  0  0  0  0  0  0  0
   -2.2719    0.7004    0.0035 N   0  0  0  0  0  2  0  0  0  0  0  0
    0.9066   -3.0497   -0.1784 C   0  0  0  0  0  3  0  0  0  0  0  0
   -0.1214   -3.3665   -0.4202 H   0  0  0  0  0  0  0  0  0  0  0  0
    1.9202   -3.9617    0.0734 C   0  0  0  0  0  0  0  0  0  0  0  0
    1.7019   -5.0371    0.0297 H   0  0  0  0  0  0  0  0  0  0  0  0
    3.1901   -3.4608    0.4023 C   0  0  0  0  0  0  0  0  0  0  0  0
    4.0255   -4.1329    0.6496 H   0  0  0  0  0  0  0  0  0  0  0  0
    3.3850   -2.0880    0.4177 C   0  0  0  0  0  0  0  0  0  0  0  0
    4.3681   -1.6817    0.6746 H   0  0  0  0  0  0  0  0  0  0  0  0
    2.3219   -1.1867    0.1036 C   0  0  0  0  0  0  0  0  0  0  0  0
    1.7232    1.2704   -0.1277 C   0  0  0  0  0  0  0  0  0  0  0  0
    2.2698    2.5603   -0.3390 C   0  0  0  0  0  0  0  0  0  0  0  0
    3.3573    2.7024   -0.3588 H   0  0  0  0  0  0  0  0  0  0  0  0
    1.4430    3.6765   -0.5323 C   0  0  0  0  0  0  0  0  0  0  0  0
    1.9017    4.6622   -0.6974 H   0  0  0  0  0  0  0  0  0  0  0  0
    0.0539    3.5364   -0.5193 C   0  0  0  0  0  3  0  0  0  0  0  0
   -0.5883    4.4150   -0.6761 H   0  0  0  0  0  0  0  0  0  0  0  0
   -0.5020    2.2583   -0.3094 C   0  0  0  0  0  0  0  0  0  0  0  0
    0.3207    1.1056   -0.1127 C   0  0  0  0  0  3  0  0  0  0  0  0
   -1.9362    2.0009   -0.2258 C   0  0  0  0  0  0  0  0  0  0  0  0
   -2.9328    3.0103   -0.3183 C   0  0  0  0  0  0  0  0  0  0  0  0
   -2.6298    4.0377   -0.5575 H   0  0  0  0  0  0  0  0  0  0  0  0
   -4.2579    2.6931   -0.1088 C   0  0  0  0  0  0  0  0  0  0  0  0
   -5.0440    3.4586   -0.1977 H   0  0  0  0  0  0  0  0  0  0  0  0
   -4.6132    1.3708    0.2764 C   0  0  0  0  0  0  0  0  0  0  0  0
   -5.9478    1.0184    0.6202 C   0  0  0  0  0  0  0  0  0  0  0  0
   -6.7296    1.7894    0.5398 H   0  0  0  0  0  0  0  0  0  0  0  0
   -6.2486   -0.2584    1.0698 C   0  0  0  0  0  0  0  0  0  0  0  0
   -7.2815   -0.5223    1.3421 H   0  0  0  0  0  0  0  0  0  0  0  0
   -5.2132   -1.2179    1.1974 C   0  0  0  0  0  0  0  0  0  0  0  0
   -5.4451   -2.2227    1.5812 H   0  0  0  0  0  0  0  0  0  0  0  0
   -3.9040   -0.9182    0.8429 C   0  0  0  0  0  0  0  0  0  0  0  0
   -3.1127   -1.6730    0.9180 H   0  0  0  0  0  0  0  0  0  0  0  0
   -3.5716    0.3747    0.3529 C   0  0  0  0  0  0  0  0  0  0  0  0
    4.0016    0.5304    0.2384 C   0  0  0  0  0  0  0  0  0  0  0  0
    4.8749    0.4916   -0.8615 C   0  0  0  0  0  0  0  0  0  0  0  0
    4.4884    0.1755   -1.8415 H   0  0  0  0  0  0  0  0  0  0  0  0
    6.2191    0.8551   -0.6926 C   0  0  0  0  0  0  0  0  0  0  0  0
    6.9047    0.8257   -1.5527 H   0  0  0  0  0  0  0  0  0  0  0  0
    6.6866    1.2602    0.5685 C   0  0  0  0  0  0  0  0  0  0  0  0
    7.7410    1.5464    0.6983 H   0  0  0  0  0  0  0  0  0  0  0  0
    5.8076    1.3021    1.6634 C   0  0  0  0  0  0  0  0  0  0  0  0
    6.1713    1.6204    2.6519 H   0  0  0  0  0  0  0  0  0  0  0  0
    4.4628    0.9377    1.5010 C   0  0  0  0  0  0  0  0  0  0  0  0
    3.7575    0.9669    2.3444 H   0  0  0  0  0  0  0  0  0  0  0  0
  1 12  1  0  0  0  0
  2 12  1  0  0  0  0
  2 37  1  0  0  0  0
  3 36  1  0  0  0  0
  4  1  1  0  0  0  0
  4  6  1  0  0  0  0
  5  4  1  0  0  0  0
  6  8  2  0  0  0  0
  7  6  1  0  0  0  0
  8 10  1  0  0  0  0
  8  9  1  0  0  0  0
 10 11  1  0  0  0  0
 12 10  2  0  0  0  0
 13 21  2  0  0  0  0
 13  2  1  0  0  0  0
 14 13  1  0  0  0  0
 15 14  1  0  0  0  0
 16 18  1  0  0  0  0
 16 14  2  0  0  0  0
 17 16  1  0  0  0  0
 18 20  1  0  0  0  0
 19 18  1  0  0  0  0
 20 22  2  0  0  0  0
 20 21  1  0  0  0  0
 22  3  1  0  0  0  0
 23 22  1  0  0  0  0
 23 25  2  0  0  0  0
 24 23  1  0  0  0  0
 25 27  1  0  0  0  0
 26 25  1  0  0  0  0
 27 36  2  0  0  0  0
 27 28  1  0  0  0  0
 28 30  2  0  0  0  0
 29 28  1  0  0  0  0
 30 32  1  0  0  0  0
 30 31  1  0  0  0  0
 32 33  1  0  0  0  0
 34 35  1  0  0  0  0
 34 32  2  0  0  0  0
 36 34  1  0  0  0  0
 37 46  1  0  0  0  0
 38 40  1  0  0  0  0
 38 37  2  0  0  0  0
 39 38  1  0  0  0  0
 40 42  2  0  0  0  0
 41 40  1  0  0  0  0
 42 43  1  0  0  0  0
 42 44  1  0  0  0  0
 44 45  1  0  0  0  0
 46 44  2  0  0  0  0
 46 47  1  0  0  0  0
M  END
