2,3,7
q = -1.0, confidence = 0.014

 28 27  0  0  1  0  0  0  0  0999 V2000
   -1.9442    0.8192    1.9483 O   0  0  0  0  0  0  0  0  0  0  0  0
   -1.1477    0.1321   -0.7909 N   0  0  0  0  0  0  0  0  0  0  0  0
    0.5215    1.5935    0.8495 N   0  0  0  0  0  0  0  0  0  0  0  0
   -1.1453    1.6331   -0.8949 C   0  0  0  0  0  0  0  0  0  0  0  0
    0.2820    2.1262   -0.5546 C   0  0  1  0  0  0  0  0  0  0  0  0
    0.4107    3.6418   -0.6497 C   0  0  0  0  0  0  0  0  0  0  0  0
    1.2867    1.2423   -1.3071 C   0  0  0  0  0  3  0  0  0  0  0  0
   -2.2383   -0.5513   -0.0393 C   0  0  1  0  0  0  0  0  0  0  0  0
   -2.0503   -0.3106    1.4707 C   0  0  0  0  0  0  0  0  0  0  0  0
   -3.6478   -0.1610   -0.5148 C   0  0  0  0  0  0  0  0  0  0  0  0
   -4.7488   -1.0016    0.1360 C   0  0  0  0  0  0  0  0  0  0  0  0
   -1.0771   -0.3060   -1.7242 H   0  0  0  0  0  0  0  0  0  0  0  0
    1.4211    1.9002    1.2536 H   0  0  0  0  0  0  0  0  0  0  0  0
   -0.2659    1.7031    1.5199 H   0  0  0  0  0  0  0  0  0  0  0  0
   -1.8804    2.0412   -0.1774 H   0  0  0  0  0  0  0  0  0  0  0  0
   -1.4276    1.9503   -1.9172 H   0  0  0  0  0  0  0  0  0  0  0  0
   -0.3265    4.1672   -0.0059 H   0  0  0  0  0  0  0  0  0  0  0  0
    1.4297    3.9574   -0.3500 H   0  0  0  0  0  0  0  0  0  0  0  0
    0.2566    3.9709   -1.6967 H   0  0  0  0  0  0  0  0  0  0  0  0
    1.0454    1.0513   -2.3703 H   0  0  0  0  0  0  0  0  0  0  0  0
    2.3353    1.5773   -1.1911 H   0  0  0  0  0  0  0  0  0  0  0  0
   -2.0628   -1.6301   -0.2293 H   0  0  0  0  0  0  0  0  0  0  0  0
   -2.1806   -1.2125    2.1254 H   0  0  0  0  0  0  0  0  0  0  0  0
   -3.6834   -0.2810   -1.6199 H   0  0  0  0  0  0  0  0  0  0  0  0
   -3.8212    0.9156   -0.3035 H   0  0  0  0  0  0  0  0  0  0  0  0
   -5.7430   -0.7292   -0.2681 H   0  0  0  0  0  0  0  0  0  0  0  0
   -4.5940   -2.0841   -0.0496 H   0  0  0  0  0  0  0  0  0  0  0  0
   -4.7856   -0.8507    1.2340 H   0  0  0  0  0  0  0  0  0  0  0  0
  2  8  1  0  0  0  0
  3 13  1  0  0  0  0
  3 14  1  0  0  0  0
  4  2  1  0  0  0  0
  4  5  1  0  0  0  0
  4 15  1  0  0  0  0
  5  7  1  6  0  0  0
  5  3  1  0  0  0  0
  6  5  1  0  0  0  0
  6 18  1  0  0  0  0
  6 17  1  0  0  0  0
  7 21  1  0  0  0  0
  8 22  1  6  0  0  0
  8  9  1  0  0  0  0
  9  1  2  0  0  0  0
  9 23  1  0  0  0  0
 10 25  1  0  0  0  0
 10  8  1  0  0  0  0
 10 11  1  0  0  0  0
 11 28  1  0  0  0  0
 12  2  1  0  0  0  0
 16  4  1  0  0  0  0
 19  6  1  0  0  0  0
 20  7  1  0  0  0  0
 24 10  1  0  0  0  0
 26 11  1  0  0  0  0
 27 11  1  0  0  0  0
M  END
