4,15,16
q = -1.0

 43 42  0  0  1  0  0  0  0  0999 V2000
   -0.8982   -1.1968    1.2746 C   0  0  1  0  0  0  0  0  0  0  0  0
   -0.0088   -0.4982    2.2673 C   0  0  0  0  0  3  0  0  0  0  0  0
   -1.6041   -0.1002    0.4830 C   0  0  0  0  0  0  0  0  0  0  0  0
   -0.7784    0.6119   -0.3304 C   0  0  0  0  0  3  0  0  0  0  0  0
   -0.6660   -2.7372   -0.7433 C   0  0  0  0  0  0  0  0  0  0  0  0
   -1.7980   -3.5822   -0.1569 C   0  0  0  0  0  0  0  0  0  0  0  0
    0.3882   -3.6069   -1.4248 C   0  0  0  0  0  0  0  0  0  0  0  0
    1.8589    0.9390    2.7218 C   0  0  0  0  0  0  0  0  0  0  0  0
    1.4562    2.4096    2.5666 C   0  0  0  0  0  0  0  0  0  0  0  0
    3.3510    0.6993    2.5104 C   0  0  0  0  0  0  0  0  0  0  0  0
   -3.0665    0.1459    0.5975 C   0  0  0  0  0  0  0  0  0  0  0  0
   -5.0636   -0.5392    1.6648 C   0  0  0  0  0  0  0  0  0  0  0  0
   -1.2438    1.6256   -1.3159 C   0  0  0  0  0  0  0  0  0  0  0  0
   -1.9311    3.8547   -1.6502 C   0  0  0  0  0  0  0  0  0  0  0  0
    0.0215   -1.8930    0.3084 N   0  0  0  0  0  0  0  0  0  0  0  0
    1.0354    0.1052    1.8117 N   0  0  0  0  0  2  0  0  0  0  0  0
   -3.6757    0.9788   -0.0472 O   0  0  0  0  0  0  0  0  0  0  0  0
   -3.6404   -0.6954    1.4975 O   0  0  0  0  0  0  0  0  0  0  0  0
   -1.3628    1.3457   -2.4980 O   0  0  0  0  0  0  0  0  0  0  0  0
   -1.4059    2.8368   -0.7722 O   0  0  0  0  0  0  0  0  0  0  0  0
   -1.6035   -1.8855    1.7721 H   0  0  0  0  0  0  0  0  0  0  0  0
   -0.2920   -0.4422    3.3359 H   0  0  0  0  0  0  0  0  0  0  0  0
   -1.0960   -2.0171   -1.4689 H   0  0  0  0  0  0  0  0  0  0  0  0
    1.5949    0.6155    3.7532 H   0  0  0  0  0  0  0  0  0  0  0  0
   -1.4348   -4.2521    0.6509 H   0  0  0  0  0  0  0  0  0  0  0  0
   -2.6302   -2.9662    0.2347 H   0  0  0  0  0  0  0  0  0  0  0  0
   -2.2159   -4.2262   -0.9544 H   0  0  0  0  0  0  0  0  0  0  0  0
    1.2274   -3.0162   -1.8391 H   0  0  0  0  0  0  0  0  0  0  0  0
    0.8063   -4.3553   -0.7186 H   0  0  0  0  0  0  0  0  0  0  0  0
   -0.0695   -4.1651   -2.2633 H   0  0  0  0  0  0  0  0  0  0  0  0
    1.7401    2.8173    1.5782 H   0  0  0  0  0  0  0  0  0  0  0  0
    0.3653    2.5460    2.6973 H   0  0  0  0  0  0  0  0  0  0  0  0
    1.9772    3.0113    3.3366 H   0  0  0  0  0  0  0  0  0  0  0  0
    3.6134   -0.3723    2.6076 H   0  0  0  0  0  0  0  0  0  0  0  0
    3.6875    1.0630    1.5191 H   0  0  0  0  0  0  0  0  0  0  0  0
    3.9236    1.2565    3.2767 H   0  0  0  0  0  0  0  0  0  0  0  0
   -5.2999    0.4832    2.0190 H   0  0  0  0  0  0  0  0  0  0  0  0
   -5.5865   -0.7082    0.7032 H   0  0  0  0  0  0  0  0  0  0  0  0
   -5.3667   -1.2913    2.4130 H   0  0  0  0  0  0  0  0  0  0  0  0
   -1.3601    3.8869   -2.5982 H   0  0  0  0  0  0  0  0  0  0  0  0
   -2.9939    3.6349   -1.8709 H   0  0  0  0  0  0  0  0  0  0  0  0
   -1.8404    4.8067   -1.1001 H   0  0  0  0  0  0  0  0  0  0  0  0
    0.6256   -2.5328    0.8516 H   0  0  0  0  0  0  0  0  0  0  0  0
  1 21  1  1  0  0  0
  1  2  1  0  0  0  0
  2 22  1  0  0  0  0
  3 11  1  0  0  0  0
  3  1  1  0  0  0  0
  4  3  2  0  0  0  0
  5  6  1  0  0  0  0
  5 15  1  0  0  0  0
  6 26  1  0  0  0  0
  6 25  1  0  0  0  0
  7  5  1  0  0  0  0
  7 29  1  0  0  0  0
  8 24  1  0  0  0  0
  9 32  1  0  0  0  0
  9  8  1  0  0  0  0
  9 33  1  0  0  0  0
 10 34  1  0  0  0  0
 10  8  1  0  0  0  0
 10 36  1  0  0  0  0
 11 18  1  0  0  0  0
 12 37  1  0  0  0  0
 12 39  1  0  0  0  0
 13 20  1  0  0  0  0
 13  4  1  0  0  0  0
 14 42  1  0  0  0  0
 14 20  1  0  0  0  0
 15 43  1  0  0  0  0
 15  1  1  0  0  0  0
 16  2  1  0  0  0  0
 16  8  1  0  0  0  0
 17 11  2  0  0  0  0
 18 12  1  0  0  0  0
 19 13  2  0  0  0  0
 23  5  1  0  0  0  0
 27  6  1  0  0  0  0
 28  7  1  0  0  0  0
 30  7  1  0  0  0  0
 31  9  1  0  0  0  0
 35 10  1  0  0  0  0
 38 12  1  0  0  0  0
 40 14  1  0  0  0  0
 41 14  1  0  0  0  0
M  END
