1,2,14
q = -2, confidence = 1.0

 53 56  0  0  1  0  0  0  0  0999 V2000
   -1.2751   -1.1580   -1.2295 N   0  0  0  0  0  2  0  0  0  0  0  0
    1.3757   -1.8248   -1.7865 C   0  0  0  0  0  3  0  0  0  0  0  0
    2.9792   -0.8396   -0.3551 C   0  0  0  0  0  0  0  0  0  0  0  0
    2.6267    0.3584   -2.4979 C   0  0  0  0  0  0  0  0  0  0  0  0
    2.1344    0.4545   -3.4771 H   0  0  0  0  0  0  0  0  0  0  0  0
    1.5349   -2.6612   -0.6293 C   0  0  0  0  0  0  0  0  0  0  0  0
   -1.0798   -2.0592   -2.3511 C   0  0  0  0  0  0  0  0  0  0  0  0
   -1.7745   -1.8457   -3.2023 H   0  0  0  0  0  0  0  0  0  0  0  0
   -1.3265   -3.1159   -2.0516 H   0  0  0  0  0  0  0  0  0  0  0  0
    2.3103   -0.7396   -1.6456 C   0  0  0  0  0  0  0  0  0  0  0  0
    2.4744   -2.0318    0.2946 C   0  0  0  0  0  0  0  0  0  0  0  0
   -2.6456   -1.1348   -0.7630 C   0  0  1  0  0  0  0  0  0  0  0  0
   -3.0386   -2.1891   -0.6854 H   0  0  0  0  0  0  0  0  0  0  0  0
   -1.6781   -1.0799    1.5635 N   0  0  0  0  0  0  0  0  0  0  0  0
    2.7404   -2.6227    1.5576 C   0  0  0  0  0  0  0  0  0  0  0  0
    3.4529   -2.1486    2.2506 H   0  0  0  0  0  0  0  0  0  0  0  0
    0.9129   -3.8849   -0.2439 C   0  0  0  0  0  0  0  0  0  0  0  0
    0.2171   -4.3869   -0.9323 H   0  0  0  0  0  0  0  0  0  0  0  0
    3.9641    0.1123    0.0145 C   0  0  0  0  0  0  0  0  0  0  0  0
    4.5052    0.0085    0.9682 H   0  0  0  0  0  0  0  0  0  0  0  0
    0.3642   -1.9905   -2.8876 C   0  0  0  0  0  0  0  0  0  0  0  0
    0.5669   -2.8948   -3.5043 H   0  0  0  0  0  0  0  0  0  0  0  0
    0.4509   -1.1238   -3.5744 H   0  0  0  0  0  0  0  0  0  0  0  0
   -1.7261   -2.5463    1.6979 C   0  0  0  0  0  0  0  0  0  0  0  0
   -0.8589   -2.8861    2.2982 H   0  0  0  0  0  0  0  0  0  0  0  0
   -1.6492   -3.0208    0.7041 H   0  0  0  0  0  0  0  0  0  0  0  0
   -2.6565   -2.8926    2.2035 H   0  0  0  0  0  0  0  0  0  0  0  0
   -2.7406   -0.5203    0.6522 C   0  0  2  0  0  0  0  0  0  0  0  0
   -2.4796    0.5600    0.5619 H   0  0  0  0  0  0  0  0  0  0  0  0
   -4.1795   -0.6147    1.1920 C   0  0  0  0  0  0  0  0  0  0  0  0
   -4.4662   -1.6839    1.3002 H   0  0  0  0  0  0  0  0  0  0  0  0
   -4.2497   -0.1601    2.2008 H   0  0  0  0  0  0  0  0  0  0  0  0
   -3.6358   -0.3896   -1.6905 C   0  0  0  0  0  0  0  0  0  0  0  0
   -3.3108    0.6700   -1.7698 H   0  0  0  0  0  0  0  0  0  0  0  0
   -3.5641   -0.8160   -2.7114 H   0  0  0  0  0  0  0  0  0  0  0  0
   -5.1698    0.0851    0.2508 C   0  0  0  0  0  0  0  0  0  0  0  0
   -6.2013   -0.0159    0.6482 H   0  0  0  0  0  0  0  0  0  0  0  0
   -4.9458    1.1751    0.2389 H   0  0  0  0  0  0  0  0  0  0  0  0
   -1.7326   -0.4559    2.8945 C   0  0  0  0  0  0  0  0  0  0  0  0
   -2.6569   -0.7255    3.4531 H   0  0  0  0  0  0  0  0  0  0  0  0
   -1.6846    0.6455    2.7962 H   0  0  0  0  0  0  0  0  0  0  0  0
   -0.8707   -0.7939    3.5018 H   0  0  0  0  0  0  0  0  0  0  0  0
    2.1091   -3.8174    1.9017 C   0  0  0  0  0  0  0  0  0  0  0  0
    2.3201   -4.2893    2.8730 H   0  0  0  0  0  0  0  0  0  0  0  0
   -5.0756   -0.4629   -1.1761 C   0  0  0  0  0  0  0  0  0  0  0  0
   -5.4179   -1.5223   -1.1858 H   0  0  0  0  0  0  0  0  0  0  0  0
   -5.7608    0.0924   -1.8502 H   0  0  0  0  0  0  0  0  0  0  0  0
    1.2095   -4.4479    0.9942 C   0  0  0  0  0  0  0  0  0  0  0  0
    0.7394   -5.4012    1.2816 H   0  0  0  0  0  0  0  0  0  0  0  0
    3.5882    1.2811   -2.1005 C   0  0  0  0  0  0  0  0  0  0  0  0
    3.8427    2.1183   -2.7683 H   0  0  0  0  0  0  0  0  0  0  0  0
    4.2647    1.1585   -0.8536 C   0  0  0  0  0  0  0  0  0  0  0  0
    5.0389    1.8915   -0.5826 H   0  0  0  0  0  0  0  0  0  0  0  0
  1 12  1  0  0  0  0
  2 10  1  0  0  0  0
  2  6  1  0  0  0  0
  3 19  1  0  0  0  0
  3 11  1  0  0  0  0
  4 50  2  0  0  0  0
  4 10  1  0  0  0  0
  5  4  1  0  0  0  0
  6 17  2  0  0  0  0
  6 11  1  0  0  0  0
  7  9  1  0  0  0  0
  7  1  1  0  0  0  0
  8  7  1  0  0  0  0
 10  3  2  0  0  0  0
 11 15  2  0  0  0  0
 12 13  1  1  0  0  0
 12 28  1  0  0  0  0
 14 24  1  0  0  0  0
 14 39  1  0  0  0  0
 15 43  1  0  0  0  0
 15 16  1  0  0  0  0
 17 48  1  0  0  0  0
 18 17  1  0  0  0  0
 19 20  1  0  0  0  0
 21  7  1  0  0  0  0
 21  2  1  0  0  0  0
 22 21  1  0  0  0  0
 23 21  1  0  0  0  0
 24 27  1  0  0  0  0
 24 25  1  0  0  0  0
 26 24  1  0  0  0  0
 28 29  1  6  0  0  0
 28 30  1  0  0  0  0
 28 14  1  0  0  0  0
 30 31  1  0  0  0  0
 30 32  1  0  0  0  0
 33 45  1  0  0  0  0
 33 12  1  0  0  0  0
 34 33  1  0  0  0  0
 35 33  1  0  0  0  0
 36 37  1  0  0  0  0
 36 30  1  0  0  0  0
 38 36  1  0  0  0  0
 39 40  1  0  0  0  0
 39 42  1  0  0  0  0
 41 39  1  0  0  0  0
 43 44  1  0  0  0  0
 45 36  1  0  0  0  0
 46 45  1  0  0  0  0
 47 45  1  0  0  0  0
 48 49  1  0  0  0  0
 48 43  2  0  0  0  0
 50 52  1  0  0  0  0
 51 50  1  0  0  0  0
 52 53  1  0  0  0  0
 52 19  2  0  0  0  0
M  END
