4,5,6
q = -1.0, confidence = 0.044

 61 61  0  0  0  0  0  0  0  0999 V2000
    2.8443    2.7352    0.4083 Si  0  0  0  0  0  0  0  0  0  0  0  0
    6.6280   -4.0903    1.2607 O   0  0  0  0  0  0  0  0  0  0  0  0
    6.7244   -5.0566    1.3237 H   0  0  0  0  0  0  0  0  0  0  0  0
   -2.7468   -0.5044    2.0779 N   0  0  0  0  0  0  0  0  0  0  0  0
   -2.6351   -0.0381   -2.1133 N   0  0  0  0  0  0  0  0  0  0  0  0
   -1.2884    0.5123    0.1076 C   0  0  0  0  0  3  0  0  0  0  0  0
   -0.6138    0.5146    1.3413 C   0  0  0  0  0  0  0  0  0  0  0  0
    0.6073    1.2023    1.4450 C   0  0  0  0  0  0  0  0  0  0  0  0
    1.1455    1.2172    2.4077 H   0  0  0  0  0  0  0  0  0  0  0  0
    1.1660    1.8615    0.3212 C   0  0  0  0  0  0  0  0  0  0  0  0
    0.4656    1.8284   -0.9135 C   0  0  0  0  0  0  0  0  0  0  0  0
    0.8926    2.3366   -1.7963 H   0  0  0  0  0  0  0  0  0  0  0  0
   -0.7680    1.1682   -1.0241 C   0  0  0  0  0  0  0  0  0  0  0  0
   -1.2792   -0.3345    2.3945 C   0  0  0  0  0  0  0  0  0  0  0  0
   -1.1622    0.0544    3.4322 H   0  0  0  0  0  0  0  0  0  0  0  0
   -0.8362   -1.3526    2.3781 H   0  0  0  0  0  0  0  0  0  0  0  0
   -3.5184    0.6521    2.5910 C   0  0  0  0  0  0  0  0  0  0  0  0
   -4.5702    0.5561    2.2646 H   0  0  0  0  0  0  0  0  0  0  0  0
   -3.0959    1.5867    2.1792 H   0  0  0  0  0  0  0  0  0  0  0  0
   -3.4728    0.6825    3.7048 H   0  0  0  0  0  0  0  0  0  0  0  0
   -3.2706   -1.7573    2.6603 C   0  0  0  0  0  0  0  0  0  0  0  0
   -3.2014   -1.7296    3.7721 H   0  0  0  0  0  0  0  0  0  0  0  0
   -2.6842   -2.6111    2.2741 H   0  0  0  0  0  0  0  0  0  0  0  0
   -4.3188   -1.8881    2.3329 H   0  0  0  0  0  0  0  0  0  0  0  0
   -1.6894    1.1354   -2.2167 C   0  0  0  0  0  0  0  0  0  0  0  0
   -1.1613    1.1063   -3.1977 H   0  0  0  0  0  0  0  0  0  0  0  0
   -2.3223    2.0478   -2.2161 H   0  0  0  0  0  0  0  0  0  0  0  0
   -1.9880   -1.2647   -2.6355 C   0  0  0  0  0  0  0  0  0  0  0  0
   -2.6579   -2.1265   -2.4607 H   0  0  0  0  0  0  0  0  0  0  0  0
   -1.0353   -1.4329   -2.1009 H   0  0  0  0  0  0  0  0  0  0  0  0
   -1.7881   -1.1604   -3.7277 H   0  0  0  0  0  0  0  0  0  0  0  0
   -3.8865    0.2253   -2.8534 C   0  0  0  0  0  0  0  0  0  0  0  0
   -3.6779    0.3508   -3.9409 H   0  0  0  0  0  0  0  0  0  0  0  0
   -4.3563    1.1445   -2.4580 H   0  0  0  0  0  0  0  0  0  0  0  0
   -4.5833   -0.6157   -2.6793 H   0  0  0  0  0  0  0  0  0  0  0  0
    2.6530    4.5512   -0.0963 C   0  0  0  0  0  0  0  0  0  0  0  0
    2.2101    4.6393   -1.1096 H   0  0  0  0  0  0  0  0  0  0  0  0
    3.6349    5.0681   -0.1098 H   0  0  0  0  0  0  0  0  0  0  0  0
    1.9892    5.0914    0.6092 H   0  0  0  0  0  0  0  0  0  0  0  0
    3.5403    2.6251    2.1658 C   0  0  0  0  0  0  0  0  0  0  0  0
    3.6856    1.5729    2.4850 H   0  0  0  0  0  0  0  0  0  0  0  0
    2.8690    3.1156    2.9001 H   0  0  0  0  0  0  0  0  0  0  0  0
    4.5258    3.1315    2.2203 H   0  0  0  0  0  0  0  0  0  0  0  0
    4.0209    1.8713   -0.8135 C   0  0  0  0  0  0  0  0  0  0  0  0
    3.6399    2.0565   -1.8438 H   0  0  0  0  0  0  0  0  0  0  0  0
    5.0122    2.3771   -0.7689 H   0  0  0  0  0  0  0  0  0  0  0  0
    4.1784    0.3627   -0.5784 C   0  0  0  0  0  0  0  0  0  0  0  0
    4.5663    0.1879    0.4491 H   0  0  0  0  0  0  0  0  0  0  0  0
    3.1753   -0.1202   -0.6017 H   0  0  0  0  0  0  0  0  0  0  0  0
    5.0919   -0.3325   -1.5955 C   0  0  0  0  0  0  0  0  0  0  0  0
    6.1070    0.1233   -1.5474 H   0  0  0  0  0  0  0  0  0  0  0  0
    4.7132   -0.1142   -2.6186 H   0  0  0  0  0  0  0  0  0  0  0  0
    5.2080   -1.8524   -1.4192 C   0  0  0  0  0  0  0  0  0  0  0  0
    4.1925   -2.3053   -1.4886 H   0  0  0  0  0  0  0  0  0  0  0  0
    5.7836   -2.2717   -2.2742 H   0  0  0  0  0  0  0  0  0  0  0  0
    5.8701   -2.2906   -0.1104 C   0  0  0  0  0  0  0  0  0  0  0  0
    6.8744   -1.8221   -0.0141 H   0  0  0  0  0  0  0  0  0  0  0  0
    5.2832   -1.9422    0.7660 H   0  0  0  0  0  0  0  0  0  0  0  0
    6.0308   -3.7994    0.0084 C   0  0  0  0  0  0  0  0  0  0  0  0
    5.0259   -4.2834   -0.0976 H   0  0  0  0  0  0  0  0  0  0  0  0
    6.6506   -4.1724   -0.8470 H   0  0  0  0  0  0  0  0  0  0  0  0
  1 40  1  0  0  0  0
  2  3  1  0  0  0  0
  4 14  1  0  0  0  0
  4 17  1  0  0  0  0
  4 21  1  0  0  0  0
  6  7  1  0  0  0  0
  7  8  2  0  0  0  0
  7 14  1  0  0  0  0
  8  9  1  0  0  0  0
 10  1  1  0  0  0  0
 10  8  1  0  0  0  0
 11 10  2  0  0  0  0
 12 11  1  0  0  0  0
 13 11  1  0  0  0  0
 13  6  2  0  0  0  0
 14 15  1  0  0  0  0
 16 14  1  0  0  0  0
 17 20  1  0  0  0  0
 18 17  1  0  0  0  0
 19 17  1  0  0  0  0
 21 22  1  0  0  0  0
 23 21  1  0  0  0  0
 24 21  1  0  0  0  0
 25 27  1  0  0  0  0
 25  5  1  0  0  0  0
 25 13  1  0  0  0  0
 26 25  1  0  0  0  0
 28 29  1  0  0  0  0
 28  5  1  0  0  0  0
 28 30  1  0  0  0  0
 31 28  1  0  0  0  0
 32 35  1  0  0  0  0
 32 34  1  0  0  0  0
 32  5  1  0  0  0  0
 33 32  1  0  0  0  0
 36  1  1  0  0  0  0
 36 39  1  0  0  0  0
 37 36  1  0  0  0  0
 38 36  1  0  0  0  0
 40 43  1  0  0  0  0
 40 41  1  0  0  0  0
 40 42  1  0  0  0  0
 44 46  1  0  0  0  0
 44 47  1  0  0  0  0
 44  1  1  0  0  0  0
 45 44  1  0  0  0  0
 47 48  1  0  0  0  0
 49 47  1  0  0  0  0
 50 51  1  0  0  0  0
 50 53  1  0  0  0  0
 50 47  1  0  0  0  0
 52 50  1  0  0  0  0
 53 56  1  0  0  0  0
 54 53  1  0  0  0  0
 55 53  1  0  0  0  0
 56 57  1  0  0  0  0
 56 59  1  0  0  0  0
 56 58  1  0  0  0  0
 59  2  1  0  0  0  0
 60 59  1  0  0  0  0
 61 59  1  0  0  0  0
M  END
