1,2,21
q = -1.0

 38 39  0  0  0  0  0  0  0  0999 V2000
    0.0027   -1.3054    0.3251 N   0  0  0  0  0  2  0  0  0  0  0  0
   -2.8434   -1.5080    0.1111 N   0  0  0  0  0  0  0  0  0  0  0  0
    4.2107   -1.0485   -0.8957 C   0  0  0  0  0  0  0  0  0  0  0  0
    3.4019   -1.2535   -1.6142 H   0  0  0  0  0  0  0  0  0  0  0  0
    5.3565   -1.8565   -0.8791 C   0  0  0  0  0  0  0  0  0  0  0  0
    5.4310   -2.7116   -1.5683 H   0  0  0  0  0  0  0  0  0  0  0  0
    6.4126   -1.5663   -0.0007 C   0  0  0  0  0  0  0  0  0  0  0  0
    7.3119   -2.2004    0.0116 H   0  0  0  0  0  0  0  0  0  0  0  0
    6.3186   -0.4577    0.8562 C   0  0  0  0  0  0  0  0  0  0  0  0
    7.1421   -0.2245    1.5481 H   0  0  0  0  0  0  0  0  0  0  0  0
    5.1749    0.3524    0.8402 C   0  0  0  0  0  0  0  0  0  0  0  0
    5.0958    1.2106    1.5245 H   0  0  0  0  0  0  0  0  0  0  0  0
    4.0995    0.0646   -0.0299 C   0  0  0  0  0  0  0  0  0  0  0  0
    2.8961    0.9327   -0.0574 C   0  0  0  0  0  0  0  0  0  0  0  0
    3.0251    2.3302   -0.1722 C   0  0  0  0  0  0  0  0  0  0  0  0
    4.0323    2.7677   -0.2362 H   0  0  0  0  0  0  0  0  0  0  0  0
    1.8943    3.1588   -0.2546 C   0  0  0  0  0  0  0  0  0  0  0  0
    2.0305    4.2462   -0.3629 H   0  0  0  0  0  0  0  0  0  0  0  0
    0.5908    2.6279   -0.2270 C   0  0  0  0  0  0  0  0  0  0  0  0
   -0.2973    3.2699   -0.3100 H   0  0  0  0  0  0  0  0  0  0  0  0
    0.4372    1.2500   -0.0954 C   0  0  0  0  0  3  0  0  0  0  0  0
    1.5783    0.3926    0.0127 C   0  0  0  0  0  0  0  0  0  0  0  0
    1.2682   -0.9974    0.2757 C   0  0  0  0  0  3  0  0  0  0  0  0
    2.0411   -1.7621    0.4681 H   0  0  0  0  0  0  0  0  0  0  0  0
   -0.6327   -2.5654    0.6664 C   0  0  0  0  0  0  0  0  0  0  0  0
    0.0315   -3.4257    0.4383 H   0  0  0  0  0  0  0  0  0  0  0  0
   -0.8248   -2.5602    1.7622 H   0  0  0  0  0  0  0  0  0  0  0  0
   -1.9473   -2.6778   -0.1187 C   0  0  0  0  0  0  0  0  0  0  0  0
   -2.4694   -3.6271    0.1402 H   0  0  0  0  0  0  0  0  0  0  0  0
   -1.7068   -2.6864   -1.2001 H   0  0  0  0  0  0  0  0  0  0  0  0
   -3.5172   -1.5690    1.4204 C   0  0  0  0  0  0  0  0  0  0  0  0
   -2.7781   -1.5949    2.2404 H   0  0  0  0  0  0  0  0  0  0  0  0
   -4.1865   -2.4579    1.4701 H   0  0  0  0  0  0  0  0  0  0  0  0
   -4.1118   -0.6468    1.5536 H   0  0  0  0  0  0  0  0  0  0  0  0
   -3.8537   -1.3942   -0.9604 C   0  0  0  0  0  0  0  0  0  0  0  0
   -3.3399   -1.3105   -1.9354 H   0  0  0  0  0  0  0  0  0  0  0  0
   -4.4273   -0.4631   -0.7968 H   0  0  0  0  0  0  0  0  0  0  0  0
   -4.5379   -2.2724   -0.9516 H   0  0  0  0  0  0  0  0  0  0  0  0
  1 25  1  0  0  0  0
  2 31  1  0  0  0  0
  3  5  2  0  0  0  0
  3 13  1  0  0  0  0
  4  3  1  0  0  0  0
  5  7  1  0  0  0  0
  6  5  1  0  0  0  0
  7  8  1  0  0  0  0
  7  9  2  0  0  0  0
  9 10  1  0  0  0  0
 11  9  1  0  0  0  0
 11 12  1  0  0  0  0
 13 11  2  0  0  0  0
 14 13  1  0  0  0  0
 14 22  1  0  0  0  0
 15 14  2  0  0  0  0
 16 15  1  0  0  0  0
 17 19  2  0  0  0  0
 17 15  1  0  0  0  0
 18 17  1  0  0  0  0
 19 21  1  0  0  0  0
 20 19  1  0  0  0  0
 21 22  2  0  0  0  0
 22 23  1  0  0  0  0
 23  1  1  0  0  0  0
 23 24  1  0  0  0  0
 25 27  1  0  0  0  0
 26 25  1  0  0  0  0
 28  2  1  0  0  0  0
 28 29  1  0  0  0  0
 28 25  1  0  0  0  0
 30 28  1  0  0  0  0
 31 33  1  0  0  0  0
 31 34  1  0  0  0  0
 31 32  1  0  0  0  0
 35 38  1  0  0  0  0
 35 37  1  0  0  0  0
 35  2  1  0  0  0  0
 36 35  1  0  0  0  0
M  END
