18,35,50
q = -2.0, confidence = 0.918

 70 73  0  0  1  0  0  0  0  0999 V2000
    7.0921    0.8382   -1.7660 C   0  0  0  0  0  0  0  0  0  0  0  0
    7.8132    1.3581   -1.1060 H   0  0  0  0  0  0  0  0  0  0  0  0
    6.8439    1.5174   -2.6075 H   0  0  0  0  0  0  0  0  0  0  0  0
    7.6121   -0.0387   -2.2070 H   0  0  0  0  0  0  0  0  0  0  0  0
    5.8545    0.4133   -1.0169 C   0  0  0  0  0  0  0  0  0  0  0  0
    5.7776    0.5155    0.3864 C   0  0  0  0  0  0  0  0  0  0  0  0
    6.6361    0.9196    0.9464 H   0  0  0  0  0  0  0  0  0  0  0  0
    4.6295    0.1074    1.0820 C   0  0  0  0  0  0  0  0  0  0  0  0
    4.5603    0.1737    2.1777 H   0  0  0  0  0  0  0  0  0  0  0  0
    3.5432   -0.4107    0.3647 C   0  0  0  0  0  0  0  0  0  0  0  0
    3.5892   -0.5313   -1.0347 C   0  0  0  0  0  0  0  0  0  0  0  0
    2.7212   -0.9395   -1.5805 H   0  0  0  0  0  0  0  0  0  0  0  0
    4.7421   -0.1147   -1.7103 C   0  0  0  0  0  0  0  0  0  0  0  0
    4.7825   -0.2039   -2.8081 H   0  0  0  0  0  0  0  0  0  0  0  0
    2.0612   -0.9412    1.2554 S   0  0  0  0  0  0  0  0  0  0  0  0
    2.3187   -0.6546    2.6979 O   0  0  0  0  0  0  0  0  0  0  0  0
    1.7795   -2.3427    0.8575 O   0  0  0  0  0  0  0  0  0  0  0  0
    0.8121    0.0053    0.7166 N   0  0  0  0  0  2  0  0  0  0  0  0
    1.0773    1.4103    0.4224 C   0  0  2  0  0  0  0  0  0  0  0  0
    1.8286    1.5126   -0.4076 H   0  0  0  0  0  0  0  0  0  0  0  0
    1.5895    2.2553    1.6022 C   0  0  0  0  0  0  0  0  0  0  0  0
    2.5214    1.8149    2.0029 H   0  0  0  0  0  0  0  0  0  0  0  0
    0.8440    2.1944    2.4247 H   0  0  0  0  0  0  0  0  0  0  0  0
    1.8092    3.7085    1.1665 C   0  0  0  0  0  0  0  0  0  0  0  0
    2.1566    4.3173    2.0266 H   0  0  0  0  0  0  0  0  0  0  0  0
    2.6265    3.7413    0.4119 H   0  0  0  0  0  0  0  0  0  0  0  0
    0.5381    4.3205    0.5650 C   0  0  0  0  0  0  0  0  0  0  0  0
    0.7290    5.3526    0.2047 H   0  0  0  0  0  0  0  0  0  0  0  0
   -0.2373    4.4049    1.3587 H   0  0  0  0  0  0  0  0  0  0  0  0
   -0.0236    3.4640   -0.5805 C   0  0  0  0  0  0  0  0  0  0  0  0
    0.6817    3.4659   -1.4416 H   0  0  0  0  0  0  0  0  0  0  0  0
   -0.9806    3.8954   -0.9409 H   0  0  0  0  0  0  0  0  0  0  0  0
   -0.2317    2.0219   -0.1066 C   0  0  1  0  0  0  0  0  0  0  0  0
   -0.9761    2.0167    0.7192 H   0  0  0  0  0  0  0  0  0  0  0  0
   -0.7480    1.0884   -1.1348 N   0  0  0  0  0  0  0  0  0  0  0  0
   -0.0248    0.9022   -1.8584 H   0  0  0  0  0  0  0  0  0  0  0  0
   -2.0079    1.4347   -1.8249 C   0  0  0  0  0  0  0  0  0  0  0  0
   -2.1506    0.6391   -2.5854 H   0  0  0  0  0  0  0  0  0  0  0  0
   -1.8874    2.3900   -2.3788 H   0  0  0  0  0  0  0  0  0  0  0  0
   -3.2247    1.5546   -0.9298 C   0  0  0  0  0  0  0  0  0  0  0  0
   -4.0078    2.7223   -1.0235 C   0  0  0  0  0  0  0  0  0  0  0  0
   -3.6924    3.5169   -1.7182 H   0  0  0  0  0  0  0  0  0  0  0  0
   -5.1698    2.8953   -0.2593 C   0  0  0  0  0  0  0  0  0  0  0  0
   -5.7590    3.8193   -0.3568 H   0  0  0  0  0  0  0  0  0  0  0  0
   -5.5670    1.8898    0.6328 C   0  0  0  0  0  0  0  0  0  0  0  0
   -6.4744    2.0114    1.2432 H   0  0  0  0  0  0  0  0  0  0  0  0
   -4.7947    0.7268    0.7499 C   0  0  0  0  0  0  0  0  0  0  0  0
   -5.0930   -0.0644    1.4544 H   0  0  0  0  0  0  0  0  0  0  0  0
   -3.6290    0.5364   -0.0218 C   0  0  0  0  0  0  0  0  0  0  0  0
   -2.8541   -0.7090    0.2047 C   0  0  2  0  0  3  0  0  0  0  0  0
   -2.1093   -0.9878    1.4265 C   0  0  2  0  0  3  0  0  0  0  0  0
   -1.4768   -2.2896    1.2604 C   0  0  0  0  0  0  0  0  0  0  0  0
   -1.7963   -2.7778   -0.0547 C   0  0  0  0  0  0  0  0  0  0  0  0
   -2.6801   -1.8181   -0.7173 C   0  0  1  0  0  3  0  0  0  0  0  0
   -3.3074   -1.9854   -2.0646 C   0  0  0  0  0  0  0  0  0  0  0  0
   -4.0228   -2.8349   -2.0723 H   0  0  0  0  0  0  0  0  0  0  0  0
   -2.5341   -2.1846   -2.8345 H   0  0  0  0  0  0  0  0  0  0  0  0
   -3.8674   -1.0763   -2.3582 H   0  0  0  0  0  0  0  0  0  0  0  0
   -1.3181   -4.0539   -0.6653 C   0  0  0  0  0  0  0  0  0  0  0  0
   -2.1037   -4.8372   -0.6007 H   0  0  0  0  0  0  0  0  0  0  0  0
   -0.4104   -4.4201   -0.1517 H   0  0  0  0  0  0  0  0  0  0  0  0
   -1.0602   -3.9025   -1.7309 H   0  0  0  0  0  0  0  0  0  0  0  0
   -0.7019   -2.9893    2.3272 C   0  0  0  0  0  0  0  0  0  0  0  0
   -1.4109   -3.4650    3.0405 H   0  0  0  0  0  0  0  0  0  0  0  0
   -0.0617   -2.2881    2.8945 H   0  0  0  0  0  0  0  0  0  0  0  0
   -0.0358   -3.7632    1.9100 H   0  0  0  0  0  0  0  0  0  0  0  0
   -1.9965   -0.1308    2.6455 C   0  0  0  0  0  0  0  0  0  0  0  0
   -2.5311   -0.5832    3.5074 H   0  0  0  0  0  0  0  0  0  0  0  0
   -2.4239    0.8751    2.4702 H   0  0  0  0  0  0  0  0  0  0  0  0
   -0.9291   -0.0160    2.9245 H   0  0  0  0  0  0  0  0  0  0  0  0
  1  2  1  0  0  0  0
  1  5  1  0  0  0  0
  3  1  1  0  0  0  0
  4  1  1  0  0  0  0
  5  6  1  0  0  0  0
  6  7  1  0  0  0  0
  6  8  2  0  0  0  0
  8  9  1  0  0  0  0
 10  8  1  0  0  0  0
 10 15  1  0  0  0  0
 11 10  2  0  0  0  0
 12 11  1  0  0  0  0
 13 11  1  0  0  0  0
 13  5  2  0  0  0  0
 14 13  1  0  0  0  0
 15 16  2  0  0  0  0
 17 15  2  0  0  0  0
 18 15  1  0  0  0  0
 19 20  1  6  0  0  0
 19 18  1  0  0  0  0
 19 21  1  0  0  0  0
 21 22  1  0  0  0  0
 21 23  1  0  0  0  0
 24 21  1  0  0  0  0
 24 25  1  0  0  0  0
 26 24  1  0  0  0  0
 27 24  1  0  0  0  0
 27 29  1  0  0  0  0
 28 27  1  0  0  0  0
 30 33  1  0  0  0  0
 30 27  1  0  0  0  0
 31 30  1  0  0  0  0
 32 30  1  0  0  0  0
 33 19  1  0  0  0  0
 33 34  1  1  0  0  0
 35 33  1  0  0  0  0
 36 35  1  0  0  0  0
 37 35  1  0  0  0  0
 37 40  1  0  0  0  0
 38 37  1  0  0  0  0
 39 37  1  0  0  0  0
 40 49  1  0  0  0  0
 41 40  2  0  0  0  0
 41 43  1  0  0  0  0
 42 41  1  0  0  0  0
 43 45  2  0  0  0  0
 44 43  1  0  0  0  0
 45 47  1  0  0  0  0
 45 46  1  0  0  0  0
 47 48  1  0  0  0  0
 49 47  2  0  0  0  0
 50 49  1  6  0  0  0
 50 51  1  0  0  0  0
 51 67  1  1  0  0  0
 52 51  1  0  0  0  0
 52 63  1  0  0  0  0
 53 52  2  0  0  0  0
 54 55  1  1  0  0  0
 54 53  1  0  0  0  0
 54 50  1  0  0  0  0
 56 55  1  0  0  0  0
 57 55  1  0  0  0  0
 58 55  1  0  0  0  0
 59 60  1  0  0  0  0
 59 61  1  0  0  0  0
 59 53  1  0  0  0  0
 62 59  1  0  0  0  0
 63 65  1  0  0  0  0
 63 64  1  0  0  0  0
 66 63  1  0  0  0  0
 67 70  1  0  0  0  0
 67 68  1  0  0  0  0
 69 67  1  0  0  0  0
M  END
