1,2,19
q = -1.0

 80 85  0  0  1  0  0  0  0  0999 V2000
    0.4820    1.0898    0.2248 N   0  0  0  0  0  2  0  0  0  0  0  0
    2.9095    0.4799    0.2324 N   0  0  0  0  0  2  0  0  0  0  0  0
   -1.9561    0.6371    0.0252 C   0  0  0  0  0  0  0  0  0  0  0  0
    1.3200    2.0979    0.6751 C   0  0  0  0  0  0  0  0  0  0  0  0
    0.5315    3.2105    1.0811 C   0  0  0  0  0  0  0  0  0  0  0  0
    0.8988    4.1564    1.4950 H   0  0  0  0  0  0  0  0  0  0  0  0
   -0.7979    2.8456    0.8649 C   0  0  0  0  0  0  0  0  0  0  0  0
   -1.6724    3.4591    1.0921 H   0  0  0  0  0  0  0  0  0  0  0  0
   -0.8206    1.5106    0.3194 C   0  0  1  0  0  3  0  0  0  0  0  0
    2.6794    1.7237    0.6598 C   0  0  0  0  0  0  0  0  0  0  0  0
    3.5087    2.3762    0.9786 H   0  0  0  0  0  0  0  0  0  0  0  0
   -3.3149    1.1044    0.0663 C   0  0  0  0  0  0  0  0  0  0  0  0
   -4.3822    0.1941    0.0409 C   0  0  0  0  0  0  0  0  0  0  0  0
   -5.4033    0.6035    0.0591 H   0  0  0  0  0  0  0  0  0  0  0  0
   -4.1980   -1.1991   -0.0860 C   0  0  0  0  0  0  0  0  0  0  0  0
   -2.8725   -1.6431   -0.2569 C   0  0  0  0  0  0  0  0  0  0  0  0
   -2.6707   -2.7150   -0.4051 H   0  0  0  0  0  0  0  0  0  0  0  0
   -1.7789   -0.7660   -0.2257 C   0  0  0  0  0  0  0  0  0  0  0  0
   -0.4500   -1.3739   -0.5087 C   0  0  2  0  0  3  0  0  0  0  0  0
    0.2632   -2.1052    0.5007 C   0  0  0  0  0  0  0  0  0  0  0  0
   -0.2006   -2.2615    1.4851 H   0  0  0  0  0  0  0  0  0  0  0  0
    1.5930   -2.5227    0.2385 C   0  0  0  0  0  0  0  0  0  0  0  0
    2.1938   -3.0012    1.0253 H   0  0  0  0  0  0  0  0  0  0  0  0
    2.1876   -2.2504   -1.0320 C   0  0  0  0  0  3  0  0  0  0  0  0
    3.2554   -2.4723   -1.1764 H   0  0  0  0  0  0  0  0  0  0  0  0
    1.4566   -1.6161   -2.0785 C   0  0  0  0  0  0  0  0  0  0  0  0
    1.9306   -1.4293   -3.0532 H   0  0  0  0  0  0  0  0  0  0  0  0
    0.1432   -1.1660   -1.8090 C   0  0  0  0  0  0  0  0  0  0  0  0
   -0.4204   -0.5874   -2.5549 H   0  0  0  0  0  0  0  0  0  0  0  0
   -3.6814    2.5490    0.0507 C   0  0  0  0  0  0  0  0  0  0  0  0
   -3.2841    3.3727   -1.0260 C   0  0  0  0  0  0  0  0  0  0  0  0
   -2.6557    2.9453   -1.8216 H   0  0  0  0  0  0  0  0  0  0  0  0
   -3.6747    4.7163   -1.0793 C   0  0  0  0  0  0  0  0  0  0  0  0
   -3.3580    5.3434   -1.9267 H   0  0  0  0  0  0  0  0  0  0  0  0
   -4.4676    5.2642   -0.0561 C   0  0  0  0  0  0  0  0  0  0  0  0
   -4.7693    6.3219   -0.0961 H   0  0  0  0  0  0  0  0  0  0  0  0
   -4.8753    4.4539    1.0143 C   0  0  0  0  0  0  0  0  0  0  0  0
   -5.4963    4.8746    1.8200 H   0  0  0  0  0  0  0  0  0  0  0  0
   -4.4901    3.1048    1.0638 C   0  0  0  0  0  0  0  0  0  0  0  0
   -4.8000    2.4710    1.9088 H   0  0  0  0  0  0  0  0  0  0  0  0
   -5.3437   -2.1371   -0.0858 C   0  0  0  0  0  0  0  0  0  0  0  0
   -6.5108   -1.8561    0.6637 C   0  0  0  0  0  0  0  0  0  0  0  0
   -6.5529   -0.9401    1.2720 H   0  0  0  0  0  0  0  0  0  0  0  0
   -7.5976   -2.7401    0.6696 C   0  0  0  0  0  0  0  0  0  0  0  0
   -8.4903   -2.5008    1.2677 H   0  0  0  0  0  0  0  0  0  0  0  0
   -7.5468   -3.9310   -0.0726 C   0  0  0  0  0  0  0  0  0  0  0  0
   -8.4002   -4.6258   -0.0679 H   0  0  0  0  0  0  0  0  0  0  0  0
   -6.3962   -4.2259   -0.8218 C   0  0  0  0  0  0  0  0  0  0  0  0
   -6.3477   -5.1514   -1.4161 H   0  0  0  0  0  0  0  0  0  0  0  0
   -5.3105   -3.3406   -0.8293 C   0  0  0  0  0  0  0  0  0  0  0  0
   -4.4290   -3.5715   -1.4460 H   0  0  0  0  0  0  0  0  0  0  0  0
    4.2193   -0.0673    0.1932 C   0  0  0  0  0  0  0  0  0  0  0  0
    4.7245   -0.7428    1.3369 C   0  0  0  0  0  0  0  0  0  0  0  0
    6.0105   -1.3088    1.2578 C   0  0  0  0  0  0  0  0  0  0  0  0
    6.4269   -1.8291    2.1333 H   0  0  0  0  0  0  0  0  0  0  0  0
    6.7674   -1.2239    0.0816 C   0  0  0  0  0  0  0  0  0  0  0  0
    7.7720   -1.6718    0.0406 H   0  0  0  0  0  0  0  0  0  0  0  0
    6.2418   -0.5784   -1.0456 C   0  0  0  0  0  0  0  0  0  0  0  0
    6.8387   -0.5270   -1.9687 H   0  0  0  0  0  0  0  0  0  0  0  0
    4.9610    0.0033   -1.0164 C   0  0  0  0  0  0  0  0  0  0  0  0
    4.3781    0.7168   -2.2286 C   0  0  0  0  0  0  0  0  0  0  0  0
    3.2761    0.7185   -2.0871 H   0  0  0  0  0  0  0  0  0  0  0  0
    4.6819    0.0023   -3.5527 C   0  0  0  0  0  0  0  0  0  0  0  0
    5.7589    0.0514   -3.8164 H   0  0  0  0  0  0  0  0  0  0  0  0
    4.1239    0.4777   -4.3848 H   0  0  0  0  0  0  0  0  0  0  0  0
    4.3978   -1.0692   -3.5153 H   0  0  0  0  0  0  0  0  0  0  0  0
    4.8394    2.1849   -2.2745 C   0  0  0  0  0  0  0  0  0  0  0  0
    5.9429    2.2494   -2.3776 H   0  0  0  0  0  0  0  0  0  0  0  0
    4.5544    2.7264   -1.3512 H   0  0  0  0  0  0  0  0  0  0  0  0
    4.3822    2.7163   -3.1346 H   0  0  0  0  0  0  0  0  0  0  0  0
    3.8935   -0.8241    2.6112 C   0  0  0  0  0  0  0  0  0  0  0  0
    2.8342   -0.6950    2.3014 H   0  0  0  0  0  0  0  0  0  0  0  0
    4.2402    0.3294    3.5707 C   0  0  0  0  0  0  0  0  0  0  0  0
    5.3030    0.2732    3.8863 H   0  0  0  0  0  0  0  0  0  0  0  0
    3.6084    0.2876    4.4817 H   0  0  0  0  0  0  0  0  0  0  0  0
    4.0814    1.3162    3.0943 H   0  0  0  0  0  0  0  0  0  0  0  0
    4.0157   -2.1771    3.3266 C   0  0  0  0  0  0  0  0  0  0  0  0
    3.8250   -3.0267    2.6396 H   0  0  0  0  0  0  0  0  0  0  0  0
    3.2874   -2.2392    4.1604 H   0  0  0  0  0  0  0  0  0  0  0  0
    5.0238   -2.3266    3.7657 H   0  0  0  0  0  0  0  0  0  0  0  0
  1  9  1  0  0  0  0
  1  4  1  0  0  0  0
  2 10  1  0  0  0  0
  3 12  1  0  0  0  0
  4  5  1  0  0  0  0
  5  6  1  0  0  0  0
  7  5  2  0  0  0  0
  7  8  1  0  0  0  0
  9  3  1  1  0  0  0
  9  7  1  0  0  0  0
 10  4  2  0  0  0  0
 10 11  1  0  0  0  0
 13 14  1  0  0  0  0
 13 12  2  0  0  0  0
 15 41  1  0  0  0  0
 15 13  1  0  0  0  0
 16 18  1  0  0  0  0
 16 15  2  0  0  0  0
 17 16  1  0  0  0  0
 18  3  2  0  0  0  0
 19 18  1  1  0  0  0
 19 20  1  0  0  0  0
 20 21  1  0  0  0  0
 22 20  2  0  0  0  0
 22 23  1  0  0  0  0
 24 22  1  0  0  0  0
 25 24  1  0  0  0  0
 26 28  2  0  0  0  0
 26 24  1  0  0  0  0
 27 26  1  0  0  0  0
 28 19  1  0  0  0  0
 29 28  1  0  0  0  0
 30 12  1  0  0  0  0
 30 39  1  0  0  0  0
 31 30  2  0  0  0  0
 32 31  1  0  0  0  0
 33 31  1  0  0  0  0
 33 35  2  0  0  0  0
 34 33  1  0  0  0  0
 35 37  1  0  0  0  0
 36 35  1  0  0  0  0
 37 39  2  0  0  0  0
 37 38  1  0  0  0  0
 39 40  1  0  0  0  0
 41 42  1  0  0  0  0
 42 44  2  0  0  0  0
 42 43  1  0  0  0  0
 44 45  1  0  0  0  0
 46 47  1  0  0  0  0
 46 44  1  0  0  0  0
 48 46  2  0  0  0  0
 49 48  1  0  0  0  0
 50 48  1  0  0  0  0
 50 41  2  0  0  0  0
 51 50  1  0  0  0  0
 52  2  1  0  0  0  0
 52 53  1  0  0  0  0
 53 71  1  0  0  0  0
 54 53  2  0  0  0  0
 54 55  1  0  0  0  0
 56 54  1  0  0  0  0
 57 56  1  0  0  0  0
 58 60  1  0  0  0  0
 58 56  2  0  0  0  0
 59 58  1  0  0  0  0
 60 52  2  0  0  0  0
 61 62  1  0  0  0  0
 61 60  1  0  0  0  0
 63 66  1  0  0  0  0
 63 61  1  0  0  0  0
 64 63  1  0  0  0  0
 65 63  1  0  0  0  0
 67 61  1  0  0  0  0
 67 69  1  0  0  0  0
 68 67  1  0  0  0  0
 70 67  1  0  0  0  0
 71 77  1  0  0  0  0
 71 73  1  0  0  0  0
 72 71  1  0  0  0  0
 73 74  1  0  0  0  0
 73 75  1  0  0  0  0
 76 73  1  0  0  0  0
 77 80  1  0  0  0  0
 77 79  1  0  0  0  0
 78 77  1  0  0  0  0
M  END
