3,4,22
q = -1.0, confidence = 0.018

 42 43  0  0  1  0  0  0  0  0999 V2000
    3.5488   -1.2474    0.5436 O   0  0  0  0  0  0  0  0  0  0  0  0
   -0.4443    3.3099    0.9589 O   0  0  0  0  0  0  0  0  0  0  0  0
    1.5065   -0.2796   -0.0045 N   0  0  0  0  0  2  0  0  0  0  0  0
   -0.9217    1.1709    0.4741 N   0  0  0  0  0  2  0  0  0  0  0  0
    2.0107    0.9508   -0.4287 C   0  0  0  0  0  0  0  0  0  0  0  0
    3.2981    1.0771   -1.0162 C   0  0  0  0  0  0  0  0  0  0  0  0
    3.9147    0.1780   -1.1164 H   0  0  0  0  0  0  0  0  0  0  0  0
    3.7838    2.3155   -1.4388 C   0  0  0  0  0  0  0  0  0  0  0  0
    4.7804    2.3647   -1.9042 H   0  0  0  0  0  0  0  0  0  0  0  0
    3.0224    3.4885   -1.2829 C   0  0  0  0  0  0  0  0  0  0  0  0
    3.4108    4.4610   -1.6178 H   0  0  0  0  0  0  0  0  0  0  0  0
    1.7614    3.3965   -0.6979 C   0  0  0  0  0  0  0  0  0  0  0  0
    1.1423    4.2931   -0.5568 H   0  0  0  0  0  0  0  0  0  0  0  0
    1.2385    2.1499   -0.2777 C   0  0  0  0  0  0  0  0  0  0  0  0
   -0.0651    2.1531    0.3729 C   0  0  2  0  0  3  0  0  0  0  0  0
   -1.8029    3.1244    1.4127 C   0  0  0  0  0  0  0  0  0  0  0  0
   -2.4762    3.6638    0.7129 H   0  0  0  0  0  0  0  0  0  0  0  0
   -1.8935    3.5638    2.4244 H   0  0  0  0  0  0  0  0  0  0  0  0
   -2.0336    1.5914    1.3744 C   0  0  0  0  0  0  0  0  0  0  0  0
    2.3254   -1.3124    0.4233 C   0  0  0  0  0  0  0  0  0  0  0  0
    1.5499   -2.5853    0.8600 C   0  0  0  0  0  0  0  0  0  0  0  0
    0.2458   -2.6999    0.0937 C   0  0  0  0  0  3  0  0  0  0  0  0
   -0.5823   -3.2249    0.6046 H   0  0  0  0  0  0  0  0  0  0  0  0
    0.1327   -2.4816   -1.2899 C   0  0  0  0  0  3  0  0  0  0  0  0
    1.0170   -2.2242   -1.8958 H   0  0  0  0  0  0  0  0  0  0  0  0
   -0.7507   -2.8438   -1.8355 H   0  0  0  0  0  0  0  0  0  0  0  0
   -1.8114    0.9311    2.7439 C   0  0  0  0  0  0  0  0  0  0  0  0
   -2.6116    1.2249    3.4531 H   0  0  0  0  0  0  0  0  0  0  0  0
   -0.8318    1.2237    3.1726 H   0  0  0  0  0  0  0  0  0  0  0  0
   -1.8279   -0.1715    2.6344 H   0  0  0  0  0  0  0  0  0  0  0  0
   -3.4164    1.2589    0.8148 C   0  0  0  0  0  0  0  0  0  0  0  0
   -3.5073    1.6078   -0.2317 H   0  0  0  0  0  0  0  0  0  0  0  0
   -4.1940    1.7557    1.4299 H   0  0  0  0  0  0  0  0  0  0  0  0
   -3.5880    0.1681    0.8343 H   0  0  0  0  0  0  0  0  0  0  0  0
    2.4253   -3.8235    0.6015 C   0  0  0  0  0  0  0  0  0  0  0  0
    1.9443   -4.7384    1.0017 H   0  0  0  0  0  0  0  0  0  0  0  0
    3.4069   -3.6792    1.0937 H   0  0  0  0  0  0  0  0  0  0  0  0
    2.6063   -3.9664   -0.4820 H   0  0  0  0  0  0  0  0  0  0  0  0
    1.2661   -2.4399    2.3712 C   0  0  0  0  0  0  0  0  0  0  0  0
    0.6306   -1.5536    2.5704 H   0  0  0  0  0  0  0  0  0  0  0  0
    2.2154   -2.3227    2.9287 H   0  0  0  0  0  0  0  0  0  0  0  0
    0.7421   -3.3392    2.7556 H   0  0  0  0  0  0  0  0  0  0  0  0
  2 16  1  0  0  0  0
  3 20  1  0  0  0  0
  4 19  1  0  0  0  0
  5 14  1  0  0  0  0
  5  3  1  0  0  0  0
  6  5  2  0  0  0  0
  7  6  1  0  0  0  0
  8 10  2  0  0  0  0
  8  6  1  0  0  0  0
  9  8  1  0  0  0  0
 10 12  1  0  0  0  0
 11 10  1  0  0  0  0
 12 13  1  0  0  0  0
 12 14  2  0  0  0  0
 15 14  1  1  0  0  0
 15  4  1  0  0  0  0
 15  2  1  0  0  0  0
 16 18  1  0  0  0  0
 17 16  1  0  0  0  0
 19 16  1  0  0  0  0
 19 27  1  0  0  0  0
 20  1  2  0  0  0  0
 20 21  1  0  0  0  0
 21 39  1  0  0  0  0
 22 23  1  0  0  0  0
 22 21  1  0  0  0  0
 24 22  1  0  0  0  0
 25 24  1  0  0  0  0
 26 24  1  0  0  0  0
 27 29  1  0  0  0  0
 27 28  1  0  0  0  0
 30 27  1  0  0  0  0
 31 34  1  0  0  0  0
 31 19  1  0  0  0  0
 31 33  1  0  0  0  0
 32 31  1  0  0  0  0
 35 21  1  0  0  0  0
 35 36  1  0  0  0  0
 35 37  1  0  0  0  0
 38 35  1  0  0  0  0
 39 40  1  0  0  0  0
 39 42  1  0  0  0  0
 39 41  1  0  0  0  0
M  END
