3,4,7
q = -2.0, confidence = 0.676

 44 45  0  0  1  0  0  0  0  0999 V2000
   -2.9067    2.0259   -0.6930 O   0  0  0  0  0  0  0  0  0  0  0  0
    3.4406    0.7816   -0.1422 O   0  0  0  0  0  0  0  0  0  0  0  0
   -0.9333    0.9063   -0.0843 N   0  0  0  0  0  2  0  0  0  0  0  0
    1.6706   -0.5791    0.0779 N   0  0  0  0  0  2  0  0  0  0  0  0
   -0.6546   -3.2297    0.0186 C   0  0  0  0  0  3  0  0  0  0  0  0
   -1.7887   -2.4849    0.4741 C   0  0  0  0  0  3  0  0  0  0  0  0
   -2.3120   -1.4825   -0.3988 C   0  0  0  0  0  3  0  0  0  0  0  0
   -3.1436   -0.2816   -0.0034 C   0  0  0  0  0  0  0  0  0  0  0  0
   -2.3108    1.0169   -0.3225 C   0  0  0  0  0  0  0  0  0  0  0  0
   -0.1048    2.0214   -0.0106 C   0  0  1  0  0  3  0  0  0  0  0  0
   -0.6297    3.3499    0.0781 C   0  0  0  0  0  0  0  0  0  0  0  0
    0.1847    4.4726    0.1819 C   0  0  0  0  0  0  0  0  0  0  0  0
    1.5871    4.3542    0.1935 C   0  0  0  0  0  0  0  0  0  0  0  0
    2.1388    3.0828    0.1185 C   0  0  0  0  0  0  0  0  0  0  0  0
    1.3386    1.9076    0.0261 C   0  0  0  0  0  0  0  0  0  0  0  0
    2.0902    0.6603   -0.0119 C   0  0  0  0  0  0  0  0  0  0  0  0
    4.0149   -0.5198    0.0639 C   0  0  0  0  0  0  0  0  0  0  0  0
    2.8258   -1.5047   -0.0645 C   0  0  0  0  0  0  0  0  0  0  0  0
   -3.4525   -0.2274    1.5059 C   0  0  0  0  0  0  0  0  0  0  0  0
   -4.4481   -0.2428   -0.8118 C   0  0  0  0  0  0  0  0  0  0  0  0
    2.8333   -2.5506    1.0511 C   0  0  0  0  0  0  0  0  0  0  0  0
    2.7714   -2.1629   -1.4508 C   0  0  0  0  0  0  0  0  0  0  0  0
   -0.5868   -3.5263   -1.0429 H   0  0  0  0  0  0  0  0  0  0  0  0
   -0.1553   -3.9117    0.7246 H   0  0  0  0  0  0  0  0  0  0  0  0
   -2.0757   -2.5076    1.5387 H   0  0  0  0  0  0  0  0  0  0  0  0
   -2.2951   -1.6892   -1.4867 H   0  0  0  0  0  0  0  0  0  0  0  0
   -1.7155    3.4708    0.0407 H   0  0  0  0  0  0  0  0  0  0  0  0
   -0.2883    5.4647    0.2530 H   0  0  0  0  0  0  0  0  0  0  0  0
    2.2340    5.2402    0.2680 H   0  0  0  0  0  0  0  0  0  0  0  0
    3.2284    2.9567    0.1410 H   0  0  0  0  0  0  0  0  0  0  0  0
    4.4717   -0.5446    1.0773 H   0  0  0  0  0  0  0  0  0  0  0  0
    4.8068   -0.6761   -0.6940 H   0  0  0  0  0  0  0  0  0  0  0  0
   -4.0120    0.6999    1.7374 H   0  0  0  0  0  0  0  0  0  0  0  0
   -2.5242   -0.2264    2.1117 H   0  0  0  0  0  0  0  0  0  0  0  0
   -4.0770   -1.0914    1.8129 H   0  0  0  0  0  0  0  0  0  0  0  0
   -4.9751    0.7125   -0.6270 H   0  0  0  0  0  0  0  0  0  0  0  0
   -4.2454   -0.3028   -1.9000 H   0  0  0  0  0  0  0  0  0  0  0  0
   -5.1049   -1.0905   -0.5307 H   0  0  0  0  0  0  0  0  0  0  0  0
    3.7431   -3.1810    0.9833 H   0  0  0  0  0  0  0  0  0  0  0  0
    2.8126   -2.0634    2.0457 H   0  0  0  0  0  0  0  0  0  0  0  0
    1.9463   -3.2056    0.9678 H   0  0  0  0  0  0  0  0  0  0  0  0
    3.6239   -2.8589   -1.5876 H   0  0  0  0  0  0  0  0  0  0  0  0
    2.8078   -1.3965   -2.2506 H   0  0  0  0  0  0  0  0  0  0  0  0
    1.8271   -2.7312   -1.5598 H   0  0  0  0  0  0  0  0  0  0  0  0
  1  9  2  0  0  0  0
  2 16  1  0  0  0  0
  2 17  1  0  0  0  0
  5  6  1  0  0  0  0
  5 24  1  0  0  0  0
  6 25  1  0  0  0  0
  7  8  1  0  0  0  0
  7  6  1  0  0  0  0
  8 19  1  0  0  0  0
  9  3  1  0  0  0  0
  9  8  1  0  0  0  0
 10  3  1  1  0  0  0
 10 15  1  0  0  0  0
 10 11  1  0  0  0  0
 11 12  2  0  0  0  0
 12 13  1  0  0  0  0
 12 28  1  0  0  0  0
 13 29  1  0  0  0  0
 14 30  1  0  0  0  0
 14 13  2  0  0  0  0
 15 14  1  0  0  0  0
 16 15  2  0  0  0  0
 16  4  1  0  0  0  0
 17 31  1  0  0  0  0
 18 17  1  0  0  0  0
 18  4  1  0  0  0  0
 18 21  1  0  0  0  0
 19 33  1  0  0  0  0
 19 35  1  0  0  0  0
 19 34  1  0  0  0  0
 20 36  1  0  0  0  0
 20 38  1  0  0  0  0
 20  8  1  0  0  0  0
 21 40  1  0  0  0  0
 22 18  1  0  0  0  0
 23  5  1  0  0  0  0
 26  7  1  0  0  0  0
 27 11  1  0  0  0  0
 32 17  1  0  0  0  0
 37 20  1  0  0  0  0
 39 21  1  0  0  0  0
 41 21  1  0  0  0  0
 42 22  1  0  0  0  0
 43 22  1  0  0  0  0
 44 22  1  0  0  0  0
M  END
