1,4,8
q = -1.0

 35 37  0  0  0  0  0  0  0  0999 V2000
   -0.8021    1.3377    0.0396 N   0  0  0  0  0  2  0  0  0  0  0  0
    1.5164    1.5515   -0.5543 C   0  0  0  0  0  0  0  0  0  0  0  0
   -1.9356    1.8157    0.4158 N   0  0  0  0  0  0  0  0  0  0  0  0
   -2.5031   -0.5244    0.0796 C   0  0  0  0  0  2  0  0  0  0  0  0
   -2.8880    0.8163    0.4608 C   0  0  0  0  0  0  0  0  0  0  0  0
   -3.4750   -1.5306    0.1113 C   0  0  0  0  0  0  0  0  0  0  0  0
   -3.1977   -2.5544   -0.1791 H   0  0  0  0  0  0  0  0  0  0  0  0
    1.5292    0.1102   -0.7798 N   0  0  0  0  0  0  0  0  0  0  0  0
    1.6571   -0.0952   -1.7798 H   0  0  0  0  0  0  0  0  0  0  0  0
    0.3177    2.1758   -0.1261 C   0  0  0  0  0  0  0  0  0  0  0  0
    0.2824    3.5676    0.0993 C   0  0  0  0  0  0  0  0  0  0  0  0
   -0.6663    4.0146    0.4259 H   0  0  0  0  0  0  0  0  0  0  0  0
    2.6692    2.3270   -0.7454 C   0  0  0  0  0  0  0  0  0  0  0  0
    3.6001    1.8327   -1.0608 H   0  0  0  0  0  0  0  0  0  0  0  0
    2.6315    3.7112   -0.5236 C   0  0  0  0  0  0  0  0  0  0  0  0
    3.5382    4.3137   -0.6812 H   0  0  0  0  0  0  0  0  0  0  0  0
    2.4645   -0.6631   -0.0030 C   0  0  0  0  0  0  0  0  0  0  0  0
    2.9993   -1.8422   -0.5527 C   0  0  0  0  0  0  0  0  0  0  0  0
    2.7063   -2.1537   -1.5663 H   0  0  0  0  0  0  0  0  0  0  0  0
    2.7862   -0.2872    1.3138 C   0  0  0  0  0  0  0  0  0  0  0  0
    2.3533    0.6263    1.7461 H   0  0  0  0  0  0  0  0  0  0  0  0
   -5.1598    0.0854    0.8883 C   0  0  0  0  0  0  0  0  0  0  0  0
   -6.1938    0.2967    1.1984 H   0  0  0  0  0  0  0  0  0  0  0  0
   -4.2133    1.1116    0.8615 C   0  0  0  0  0  0  0  0  0  0  0  0
   -4.4665    2.1445    1.1414 H   0  0  0  0  0  0  0  0  0  0  0  0
    3.6547   -1.0876    2.0690 C   0  0  0  0  0  0  0  0  0  0  0  0
    3.9027   -0.7892    3.0987 H   0  0  0  0  0  0  0  0  0  0  0  0
    1.4382    4.3269   -0.0997 C   0  0  0  0  0  0  0  0  0  0  0  0
    1.4131    5.4128    0.0751 H   0  0  0  0  0  0  0  0  0  0  0  0
    3.8644   -2.6340    0.2129 C   0  0  0  0  0  0  0  0  0  0  0  0
    4.2743   -3.5579   -0.2216 H   0  0  0  0  0  0  0  0  0  0  0  0
    4.1999   -2.2605    1.5242 C   0  0  0  0  0  0  0  0  0  0  0  0
    4.8793   -2.8857    2.1219 H   0  0  0  0  0  0  0  0  0  0  0  0
   -4.7896   -1.2239    0.5153 C   0  0  0  0  0  0  0  0  0  0  0  0
   -5.5445   -2.0259    0.5403 H   0  0  0  0  0  0  0  0  0  0  0  0
  1  3  1  0  0  0  0
  2 10  1  0  0  0  0
  3  5  2  0  0  0  0
  4  6  1  0  0  0  0
  4  5  1  0  0  0  0
  5 24  1  0  0  0  0
  6 34  2  0  0  0  0
  7  6  1  0  0  0  0
  8  2  1  0  0  0  0
  8 17  1  0  0  0  0
  9  8  1  0  0  0  0
 10  1  1  0  0  0  0
 10 11  2  0  0  0  0
 11 12  1  0  0  0  0
 13  2  2  0  0  0  0
 13 15  1  0  0  0  0
 14 13  1  0  0  0  0
 15 28  2  0  0  0  0
 16 15  1  0  0  0  0
 17 20  1  0  0  0  0
 18 17  2  0  0  0  0
 18 30  1  0  0  0  0
 19 18  1  0  0  0  0
 20 21  1  0  0  0  0
 20 26  2  0  0  0  0
 22 23  1  0  0  0  0
 24 22  2  0  0  0  0
 24 25  1  0  0  0  0
 26 27  1  0  0  0  0
 28 29  1  0  0  0  0
 28 11  1  0  0  0  0
 30 32  2  0  0  0  0
 31 30  1  0  0  0  0
 32 26  1  0  0  0  0
 32 33  1  0  0  0  0
 34 35  1  0  0  0  0
 34 22  1  0  0  0  0
M  END
