4,5,28
q = -2.0, confidence = 0.702

 52 55  0  0  1  0  0  0  0  0999 V2000
   -1.4103   -2.8658   -0.3974 O   0  0  0  0  0  0  0  0  0  0  0  0
   -3.4551    0.0729   -2.3463 O   0  0  0  0  0  0  0  0  0  0  0  0
   -2.5320   -0.9653    2.0662 O   0  0  0  0  0  0  0  0  0  0  0  0
    3.2660   -1.3215   -0.1109 N   0  0  0  0  0  2  0  0  0  0  0  0
    0.6717   -1.8287   -0.2630 N   0  0  0  0  0  2  0  0  0  0  0  0
   -2.6517   -0.4003   -0.2038 N   0  0  0  0  0  0  0  0  0  0  0  0
    4.5586   -0.9284   -0.0920 C   0  0  0  0  0  3  0  0  0  0  0  0
    4.7297    0.1596   -0.0753 H   0  0  0  0  0  0  0  0  0  0  0  0
    5.6211   -1.8332   -0.0911 C   0  0  0  0  0  0  0  0  0  0  0  0
    6.6575   -1.4673   -0.0750 H   0  0  0  0  0  0  0  0  0  0  0  0
    5.3232   -3.2056   -0.1107 C   0  0  0  0  0  0  0  0  0  0  0  0
    6.1290   -3.9550   -0.1081 H   0  0  0  0  0  0  0  0  0  0  0  0
    3.9850   -3.6081   -0.1378 C   0  0  0  0  0  0  0  0  0  0  0  0
    3.7241   -4.6752   -0.1583 H   0  0  0  0  0  0  0  0  0  0  0  0
    2.9562   -2.6460   -0.1420 C   0  0  0  0  0  0  0  0  0  0  0  0
    1.4819   -3.0491   -0.1706 C   0  0  0  0  0  0  0  0  0  0  0  0
    1.1422   -3.8098    1.1357 C   0  0  0  0  0  0  0  0  0  0  0  0
    1.3442   -3.1661    2.0144 H   0  0  0  0  0  0  0  0  0  0  0  0
    1.7291   -4.7456    1.2318 H   0  0  0  0  0  0  0  0  0  0  0  0
    0.0636   -4.0562    1.1157 H   0  0  0  0  0  0  0  0  0  0  0  0
    1.2309   -3.9482   -1.4064 C   0  0  0  0  0  0  0  0  0  0  0  0
    0.1510   -4.1828   -1.4457 H   0  0  0  0  0  0  0  0  0  0  0  0
    1.8045   -4.8946   -1.3464 H   0  0  0  0  0  0  0  0  0  0  0  0
    1.5177   -3.4141   -2.3337 H   0  0  0  0  0  0  0  0  0  0  0  0
   -0.6791   -1.8663   -0.3686 C   0  0  0  0  0  0  0  0  0  0  0  0
   -1.2377   -0.4306   -0.5285 C   0  0  2  0  0  0  0  0  0  0  0  0
   -1.2004   -0.2210   -1.6184 H   0  0  0  0  0  0  0  0  0  0  0  0
   -0.4011    0.5930    0.2446 C   0  0  0  0  0  3  0  0  0  0  0  0
   -0.5298    0.4154    1.3322 H   0  0  0  0  0  0  0  0  0  0  0  0
   -3.6518   -0.2041   -1.1730 C   0  0  0  0  0  0  0  0  0  0  0  0
   -3.1795   -0.7386    1.0574 C   0  0  0  0  0  0  0  0  0  0  0  0
   -4.6686   -0.7219    0.8819 C   0  0  0  0  0  0  0  0  0  0  0  0
   -4.9518   -0.3962   -0.4552 C   0  0  0  0  0  0  0  0  0  0  0  0
   -6.2636   -0.3016   -0.9203 C   0  0  0  0  0  0  0  0  0  0  0  0
   -6.4688   -0.0466   -1.9705 H   0  0  0  0  0  0  0  0  0  0  0  0
   -7.2998   -0.5467    0.0023 C   0  0  0  0  0  0  0  0  0  0  0  0
   -8.3482   -0.4842   -0.3273 H   0  0  0  0  0  0  0  0  0  0  0  0
   -7.0162   -0.8729    1.3427 C   0  0  0  0  0  0  0  0  0  0  0  0
   -7.8476   -1.0604    2.0393 H   0  0  0  0  0  0  0  0  0  0  0  0
   -5.6876   -0.9638    1.8030 C   0  0  0  0  0  0  0  0  0  0  0  0
   -5.4497   -1.2183    2.8465 H   0  0  0  0  0  0  0  0  0  0  0  0
   -0.6192    2.0290   -0.0744 C   0  0  0  0  0  0  0  0  0  0  0  0
   -0.9683    2.4928   -1.3668 C   0  0  0  0  0  0  0  0  0  0  0  0
   -1.1713    1.7697   -2.1711 H   0  0  0  0  0  0  0  0  0  0  0  0
   -1.0849    3.8647   -1.6388 C   0  0  0  0  0  0  0  0  0  0  0  0
   -1.3637    4.1925   -2.6525 H   0  0  0  0  0  0  0  0  0  0  0  0
   -0.8612    4.8158   -0.6302 C   0  0  0  0  0  0  0  0  0  0  0  0
   -0.9548    5.8910   -0.8463 H   0  0  0  0  0  0  0  0  0  0  0  0
   -0.5386    4.3739    0.6650 C   0  0  0  0  0  0  0  0  0  0  0  0
   -0.3784    5.1049    1.4731 H   0  0  0  0  0  0  0  0  0  0  0  0
   -0.4281    3.0053    0.9359 C   0  0  0  0  0  0  0  0  0  0  0  0
   -0.1773    2.6661    1.9539 H   0  0  0  0  0  0  0  0  0  0  0  0
  1 25  2  0  0  0  0
  2 30  2  0  0  0  0
  4  7  1  0  0  0  0
  5 16  1  0  0  0  0
  6 31  1  0  0  0  0
  7  9  1  0  0  0  0
  7  8  1  0  0  0  0
  9 10  1  0  0  0  0
 11 12  1  0  0  0  0
 11  9  2  0  0  0  0
 13 11  1  0  0  0  0
 14 13  1  0  0  0  0
 15 13  2  0  0  0  0
 15  4  1  0  0  0  0
 16 15  1  0  0  0  0
 16 17  1  0  0  0  0
 17 19  1  0  0  0  0
 17 18  1  0  0  0  0
 20 17  1  0  0  0  0
 21 23  1  0  0  0  0
 21 16  1  0  0  0  0
 22 21  1  0  0  0  0
 24 21  1  0  0  0  0
 25  5  1  0  0  0  0
 26 27  1  6  0  0  0
 26 25  1  0  0  0  0
 26  6  1  0  0  0  0
 26 28  1  0  0  0  0
 28 29  1  0  0  0  0
 30 33  1  0  0  0  0
 30  6  1  0  0  0  0
 31  3  2  0  0  0  0
 32 31  1  0  0  0  0
 32 40  1  0  0  0  0
 33 32  2  0  0  0  0
 34 33  1  0  0  0  0
 34 36  2  0  0  0  0
 35 34  1  0  0  0  0
 36 38  1  0  0  0  0
 37 36  1  0  0  0  0
 38 40  2  0  0  0  0
 38 39  1  0  0  0  0
 40 41  1  0  0  0  0
 42 28  1  0  0  0  0
 42 51  1  0  0  0  0
 43 42  2  0  0  0  0
 44 43  1  0  0  0  0
 45 43  1  0  0  0  0
 45 47  2  0  0  0  0
 46 45  1  0  0  0  0
 47 49  1  0  0  0  0
 48 47  1  0  0  0  0
 49 51  2  0  0  0  0
 49 50  1  0  0  0  0
 51 52  1  0  0  0  0
M  END
