1,3,33
q = -1.0, confidence = 0.008

 62 66  0  0  1  0  0  0  0  0999 V2000
    1.6320    1.4507    0.6851 N   0  0  0  0  0  2  0  0  0  0  0  0
    0.4277    1.2514    1.2765 N   0  0  0  0  0  0  0  0  0  0  0  0
    1.5324   -1.3981    0.4479 N   0  0  0  0  0  2  0  0  0  0  0  0
    0.4490   -1.1209    1.2144 N   0  0  0  0  0  0  0  0  0  0  0  0
    0.2318    2.1452    2.3109 C   0  0  2  0  0  3  0  0  0  0  0  0
    1.3514    2.9758    2.3174 C   0  0  0  0  0  0  0  0  0  0  0  0
    1.5312    3.8114    3.0019 H   0  0  0  0  0  0  0  0  0  0  0  0
    2.2022    2.5056    1.2869 C   0  0  0  0  0  0  0  0  0  0  0  0
   -0.9409    2.1752    3.2345 C   0  0  0  0  0  0  0  0  0  0  0  0
   -0.6408    2.6607    4.1819 H   0  0  0  0  0  0  0  0  0  0  0  0
   -1.3175    1.1630    3.4850 H   0  0  0  0  0  0  0  0  0  0  0  0
   -1.7866    2.7530    2.8107 H   0  0  0  0  0  0  0  0  0  0  0  0
    3.5325    3.0210    0.8419 C   0  0  0  0  0  0  0  0  0  0  0  0
    4.1451    3.3381    1.7081 H   0  0  0  0  0  0  0  0  0  0  0  0
    3.4147    3.9027    0.1777 H   0  0  0  0  0  0  0  0  0  0  0  0
    4.0803    2.2426    0.2775 H   0  0  0  0  0  0  0  0  0  0  0  0
    0.2157   -2.1041    2.1447 C   0  0  2  0  0  3  0  0  0  0  0  0
    1.2170   -3.0553    1.9487 C   0  0  0  0  0  0  0  0  0  0  0  0
    1.3456   -3.9875    2.5081 H   0  0  0  0  0  0  0  0  0  0  0  0
    2.0200   -2.5742    0.8822 C   0  0  0  0  0  0  0  0  0  0  0  0
   -0.9462   -2.0898    3.0799 C   0  0  0  0  0  0  0  0  0  0  0  0
   -0.9499   -1.1919    3.7330 H   0  0  0  0  0  0  0  0  0  0  0  0
   -0.9051   -2.9778    3.7364 H   0  0  0  0  0  0  0  0  0  0  0  0
   -1.9087   -2.1214    2.5267 H   0  0  0  0  0  0  0  0  0  0  0  0
    3.2441   -3.1778    0.2730 C   0  0  0  0  0  0  0  0  0  0  0  0
    3.2222   -3.0837   -0.8296 H   0  0  0  0  0  0  0  0  0  0  0  0
    3.3261   -4.2476    0.5409 H   0  0  0  0  0  0  0  0  0  0  0  0
    4.1613   -2.6603    0.6212 H   0  0  0  0  0  0  0  0  0  0  0  0
   -0.3596    0.0574    0.9522 C   0  0  2  0  0  0  0  0  0  0  0  0
   -1.1574    0.0325    1.7113 H   0  0  0  0  0  0  0  0  0  0  0  0
   -1.1246    0.0090   -0.4697 C   0  0  0  0  0  0  0  0  0  0  0  0
   -0.2145   -0.1227   -1.6835 C   0  0  0  0  0  0  0  0  0  0  0  0
    0.8052    0.8391   -2.0926 C   0  0  0  0  0  3  0  0  0  0  0  0
    0.8399    1.8809   -1.7386 H   0  0  0  0  0  0  0  0  0  0  0  0
    1.2743    0.4334   -3.3962 C   0  0  0  0  0  0  0  0  0  0  0  0
    2.0363    0.9639   -3.9834 H   0  0  0  0  0  0  0  0  0  0  0  0
    0.6128   -0.7474   -3.7512 C   0  0  0  0  0  0  0  0  0  0  0  0
    0.7848   -1.3399   -4.6604 H   0  0  0  0  0  0  0  0  0  0  0  0
   -0.3060   -1.0824   -2.7128 C   0  0  0  0  0  0  0  0  0  0  0  0
   -0.9675   -1.9567   -2.7218 H   0  0  0  0  0  0  0  0  0  0  0  0
   -2.0498   -1.2365   -0.3618 C   0  0  0  0  0  0  0  0  0  0  0  0
   -1.4866   -2.5351   -0.3473 C   0  0  0  0  0  0  0  0  0  0  0  0
   -0.4066   -2.6600   -0.4911 H   0  0  0  0  0  0  0  0  0  0  0  0
   -2.2865   -3.6755   -0.1941 C   0  0  0  0  0  0  0  0  0  0  0  0
   -1.8106   -4.6681   -0.1829 H   0  0  0  0  0  0  0  0  0  0  0  0
   -3.6794   -3.5566   -0.0680 C   0  0  0  0  0  0  0  0  0  0  0  0
   -4.3085   -4.4519    0.0508 H   0  0  0  0  0  0  0  0  0  0  0  0
   -4.2581   -2.2816   -0.1189 C   0  0  0  0  0  0  0  0  0  0  0  0
   -5.3508   -2.1658   -0.0521 H   0  0  0  0  0  0  0  0  0  0  0  0
   -3.4533   -1.1391   -0.2654 C   0  0  0  0  0  0  0  0  0  0  0  0
   -3.9389   -0.1566   -0.3216 H   0  0  0  0  0  0  0  0  0  0  0  0
   -1.9786    1.2964   -0.5685 C   0  0  0  0  0  0  0  0  0  0  0  0
   -2.0795    1.9920   -1.7899 C   0  0  0  0  0  0  0  0  0  0  0  0
   -1.5204    1.6170   -2.6581 H   0  0  0  0  0  0  0  0  0  0  0  0
   -2.8842    3.1360   -1.9073 C   0  0  0  0  0  0  0  0  0  0  0  0
   -2.9404    3.6581   -2.8747 H   0  0  0  0  0  0  0  0  0  0  0  0
   -3.6131    3.6131   -0.8081 C   0  0  0  0  0  0  0  0  0  0  0  0
   -4.2385    4.5141   -0.9003 H   0  0  0  0  0  0  0  0  0  0  0  0
   -3.5499    2.9146    0.4069 C   0  0  0  0  0  0  0  0  0  0  0  0
   -4.1389    3.2537    1.2735 H   0  0  0  0  0  0  0  0  0  0  0  0
   -2.7478    1.7687    0.5161 C   0  0  0  0  0  0  0  0  0  0  0  0
   -2.7667    1.2123    1.4635 H   0  0  0  0  0  0  0  0  0  0  0  0
  1  2  1  0  0  0  0
  1  8  1  0  0  0  0
  2  5  1  0  0  0  0
  3 20  1  0  0  0  0
  3  4  1  0  0  0  0
  4 17  1  0  0  0  0
  5  6  1  0  0  0  0
  5  9  1  1  0  0  0
  6  7  1  0  0  0  0
  8  6  2  0  0  0  0
  9 11  1  0  0  0  0
  9 10  1  0  0  0  0
 12  9  1  0  0  0  0
 13  8  1  0  0  0  0
 13 14  1  0  0  0  0
 15 13  1  0  0  0  0
 16 13  1  0  0  0  0
 17 21  1  6  0  0  0
 18 17  1  0  0  0  0
 18 19  1  0  0  0  0
 20 18  2  0  0  0  0
 21 22  1  0  0  0  0
 21 23  1  0  0  0  0
 24 21  1  0  0  0  0
 25 27  1  0  0  0  0
 25 28  1  0  0  0  0
 25 20  1  0  0  0  0
 26 25  1  0  0  0  0
 29  4  1  0  0  0  0
 29  2  1  0  0  0  0
 29 30  1  1  0  0  0
 31 41  1  0  0  0  0
 31 29  1  0  0  0  0
 32 31  1  0  0  0  0
 33 34  1  0  0  0  0
 33 32  1  0  0  0  0
 35 33  1  0  0  0  0
 36 35  1  0  0  0  0
 37 35  2  0  0  0  0
 37 39  1  0  0  0  0
 38 37  1  0  0  0  0
 39 32  2  0  0  0  0
 40 39  1  0  0  0  0
 41 42  2  0  0  0  0
 41 50  1  0  0  0  0
 42 44  1  0  0  0  0
 43 42  1  0  0  0  0
 44 45  1  0  0  0  0
 44 46  2  0  0  0  0
 46 47  1  0  0  0  0
 48 46  1  0  0  0  0
 48 49  1  0  0  0  0
 50 48  2  0  0  0  0
 51 50  1  0  0  0  0
 52 31  1  0  0  0  0
 52 61  1  0  0  0  0
 53 52  2  0  0  0  0
 54 53  1  0  0  0  0
 55 53  1  0  0  0  0
 55 57  2  0  0  0  0
 56 55  1  0  0  0  0
 57 59  1  0  0  0  0
 58 57  1  0  0  0  0
 59 61  2  0  0  0  0
 59 60  1  0  0  0  0
 61 62  1  0  0  0  0
M  END
