3,4,21
q = -1.0

 40 42  0  0  0  0  0  0  0  0999 V2000
    2.0126   -2.0698    1.7930 O   0  0  0  0  0  0  0  0  0  0  0  0
    2.9972   -3.5057    0.4674 O   0  0  0  0  0  0  0  0  0  0  0  0
    0.2085   -0.6275   -0.1957 N   0  0  0  0  0  2  0  0  0  0  0  0
   -2.2730   -1.9665   -0.4556 N   0  0  0  0  0  0  0  0  0  0  0  0
    2.7339   -2.3604    0.8362 N   0  0  0  0  0  0  0  0  0  0  0  0
    3.0008    2.3970   -0.3483 N   0  0  0  0  0  0  0  0  0  0  0  0
    3.6416    3.1729   -0.5204 H   0  0  0  0  0  0  0  0  0  0  0  0
    3.3684   -1.2383    0.1234 C   0  0  0  0  0  0  0  0  0  0  0  0
    4.7272   -1.4149   -0.1519 C   0  0  0  0  0  0  0  0  0  0  0  0
    5.1728   -2.4048    0.0096 H   0  0  0  0  0  0  0  0  0  0  0  0
    5.4903   -0.3077   -0.5567 C   0  0  0  0  0  0  0  0  0  0  0  0
    6.5617   -0.4267   -0.7733 H   0  0  0  0  0  0  0  0  0  0  0  0
    4.9019    0.9522   -0.6196 C   0  0  0  0  0  0  0  0  0  0  0  0
    5.5077    1.8370   -0.8690 H   0  0  0  0  0  0  0  0  0  0  0  0
    1.2032    4.0134    0.0558 C   0  0  0  0  0  0  0  0  0  0  0  0
    1.8994    4.8609   -0.0370 H   0  0  0  0  0  0  0  0  0  0  0  0
   -0.1653    4.2216    0.2786 C   0  0  0  0  0  0  0  0  0  0  0  0
   -0.5357    5.2544    0.3747 H   0  0  0  0  0  0  0  0  0  0  0  0
   -1.0795    3.1502    0.3508 C   0  0  0  0  0  0  0  0  0  0  0  0
   -2.1550    3.3402    0.4782 H   0  0  0  0  0  0  0  0  0  0  0  0
   -0.6285    1.8257    0.2221 C   0  0  0  0  0  2  0  0  0  0  0  0
    1.2280    0.2273   -0.0667 C   0  0  0  0  0  0  0  0  0  0  0  0
    2.6723   -0.0092   -0.0815 C   0  0  0  0  0  0  0  0  0  0  0  0
    3.5195    1.1275   -0.3543 C   0  0  0  0  0  0  0  0  0  0  0  0
    1.6746    2.6910   -0.0603 C   0  0  0  0  0  0  0  0  0  0  0  0
    0.7782    1.6063    0.0660 C   0  0  0  0  0  0  0  0  0  0  0  0
    0.2293   -2.0594   -0.4533 C   0  0  0  0  0  0  0  0  0  0  0  0
    0.3189   -2.6130    0.5063 H   0  0  0  0  0  0  0  0  0  0  0  0
    1.0984   -2.3574   -1.0785 H   0  0  0  0  0  0  0  0  0  0  0  0
   -1.0626   -2.4637   -1.1674 C   0  0  0  0  0  0  0  0  0  0  0  0
   -1.1002   -3.5726   -1.2831 H   0  0  0  0  0  0  0  0  0  0  0  0
   -1.0797   -2.0128   -2.1791 H   0  0  0  0  0  0  0  0  0  0  0  0
   -2.5281   -2.6940    0.8020 C   0  0  0  0  0  0  0  0  0  0  0  0
   -1.6515   -2.6229    1.4717 H   0  0  0  0  0  0  0  0  0  0  0  0
   -2.7562   -3.7679    0.6044 H   0  0  0  0  0  0  0  0  0  0  0  0
   -3.3875   -2.2210    1.3126 H   0  0  0  0  0  0  0  0  0  0  0  0
   -3.4610   -2.0265   -1.3263 C   0  0  0  0  0  0  0  0  0  0  0  0
   -3.2526   -1.4830   -2.2667 H   0  0  0  0  0  0  0  0  0  0  0  0
   -4.2977   -1.5126   -0.8167 H   0  0  0  0  0  0  0  0  0  0  0  0
   -3.7355   -3.0816   -1.5586 H   0  0  0  0  0  0  0  0  0  0  0  0
  2  5  2  0  0  0  0
  3 22  1  0  0  0  0
  4 33  1  0  0  0  0
  5  1  2  0  0  0  0
  6 25  1  0  0  0  0
  7  6  1  0  0  0  0
  8  5  1  0  0  0  0
  9 10  1  0  0  0  0
  9  8  2  0  0  0  0
 11  9  1  0  0  0  0
 12 11  1  0  0  0  0
 13 11  2  0  0  0  0
 13 24  1  0  0  0  0
 14 13  1  0  0  0  0
 15 17  1  0  0  0  0
 16 15  1  0  0  0  0
 17 19  2  0  0  0  0
 17 18  1  0  0  0  0
 19 20  1  0  0  0  0
 21 19  1  0  0  0  0
 22 26  2  0  0  0  0
 23 22  1  0  0  0  0
 23  8  1  0  0  0  0
 24  6  1  0  0  0  0
 24 23  2  0  0  0  0
 25 15  2  0  0  0  0
 25 26  1  0  0  0  0
 26 21  1  0  0  0  0
 27  3  1  0  0  0  0
 27 28  1  0  0  0  0
 29 27  1  0  0  0  0
 30  4  1  0  0  0  0
 30 27  1  0  0  0  0
 31 30  1  0  0  0  0
 32 30  1  0  0  0  0
 33 36  1  0  0  0  0
 33 34  1  0  0  0  0
 35 33  1  0  0  0  0
 37 39  1  0  0  0  0
 37  4  1  0  0  0  0
 38 37  1  0  0  0  0
 40 37  1  0  0  0  0
M  END
