1,3
q = -1.0, confidence = 0.024

 10 10  0  0  1  0  0  0  0  0999 V2000
   -0.3457    2.9603   -0.3940 Se  0  0  0  0  0  1  0  0  0  0  0  0
   -3.1043    3.7357    0.0394 N   0  0  0  0  0  0  0  0  0  0  0  0
   -2.3818    1.5239    0.5833 N   0  0  0  0  0  2  0  0  0  0  0  0
   -2.1625    2.7907    0.1129 C   0  0  2  0  0  3  0  0  0  0  0  0
   -4.3290    3.3919    0.4661 C   0  0  0  0  0  0  0  0  0  0  0  0
   -5.1062    4.1754    0.4050 H   0  0  0  0  0  0  0  0  0  0  0  0
   -4.6440    2.1170    0.9709 C   0  0  0  0  0  0  0  0  0  0  0  0
   -5.6544    1.8626    1.3181 H   0  0  0  0  0  0  0  0  0  0  0  0
   -3.6000    1.1804    1.0122 C   0  0  0  0  0  0  0  0  0  0  0  0
   -3.7165    0.1516    1.3924 H   0  0  0  0  0  0  0  0  0  0  0  0
  2  4  1  0  0  0  0
  2  5  2  0  0  0  0
  3  9  1  0  0  0  0
  4  1  1  1  0  0  0
  4  3  1  0  0  0  0
  5  7  1  0  0  0  0
  6  5  1  0  0  0  0
  7  9  2  0  0  0  0
  7  8  1  0  0  0  0
  9 10  1  0  0  0  0
M  END
