1,2
 OpenBabel05122313063D

 16 16  0  0  1  0  0  0  0  0999 V2000
   -1.7970    0.1295   -1.9682 Se  0  0  0  0  0  1  0  0  0  0  0  0
   -1.9165   -0.9243    0.5993 N   0  0  0  0  0  2  0  0  0  0  0  0
   -2.5528   -0.9632   -0.6096 C   0  0  2  0  0  3  0  0  0  0  0  0
   -3.6352   -1.7130   -0.8710 N   0  0  0  0  0  0  0  0  0  0  0  0
   -2.3699   -1.7054    1.5968 C   0  0  0  0  0  0  0  0  0  0  0  0
   -4.0985   -2.5023    0.1161 C   0  0  0  0  0  0  0  0  0  0  0  0
   -3.4814   -2.5415    1.3823 C   0  0  0  0  0  0  0  0  0  0  0  0
   -3.8585   -3.1939    2.1828 H   0  0  0  0  0  0  0  0  0  0  0  0
   -5.3042   -3.3420   -0.2078 C   0  0  0  0  0  0  0  0  0  0  0  0
   -6.1202   -2.6956   -0.5888 H   0  0  0  0  0  0  0  0  0  0  0  0
   -5.6662   -3.9148    0.6664 H   0  0  0  0  0  0  0  0  0  0  0  0
   -5.0591   -4.0491   -1.0267 H   0  0  0  0  0  0  0  0  0  0  0  0
   -1.6619   -1.6125    2.9182 C   0  0  0  0  0  0  0  0  0  0  0  0
   -0.5686   -1.4938    2.7682 H   0  0  0  0  0  0  0  0  0  0  0  0
   -1.8682   -2.4917    3.5571 H   0  0  0  0  0  0  0  0  0  0  0  0
   -2.0060   -0.7085    3.4660 H   0  0  0  0  0  0  0  0  0  0  0  0
  2  5  1  0  0  0  0
  3  1  1  6  0  0  0
  3  2  1  0  0  0  0
  4  3  1  0  0  0  0
  4  6  2  0  0  0  0
  5 13  1  0  0  0  0
  6  7  1  0  0  0  0
  7  5  2  0  0  0  0
  7  8  1  0  0  0  0
  9  6  1  0  0  0  0
  9 11  1  0  0  0  0
 10  9  1  0  0  0  0
 12  9  1  0  0  0  0
 13 16  1  0  0  0  0
 13 15  1  0  0  0  0
 14 13  1  0  0  0  0
M  END
