1,2
 OpenBabel05122313063D

 17 17  0  0  1  0  0  0  0  0999 V2000
   -0.4215   -2.6206   -0.6956 Se  0  0  0  0  0  1  0  0  0  0  0  0
    1.8949   -0.7362   -0.1922 N   0  0  0  0  0  2  0  0  0  0  0  0
    2.6341   -0.0359   -0.0875 H   0  0  0  0  0  0  0  0  0  0  0  0
    1.4481   -2.9337   -0.7113 N   0  0  0  0  0  0  0  0  0  0  0  0
    1.7715   -3.9010   -0.7715 H   0  0  0  0  0  0  0  0  0  0  0  0
    3.7856   -2.2774   -0.4962 C   0  0  0  0  0  0  0  0  0  0  0  0
    4.6594   -1.6438    0.4153 C   0  0  0  0  0  0  0  0  0  0  0  0
    4.2575   -0.9466    1.1670 H   0  0  0  0  0  0  0  0  0  0  0  0
    6.0303   -1.9297    0.3897 C   0  0  0  0  0  0  0  0  0  0  0  0
    6.7029   -1.4398    1.1094 H   0  0  0  0  0  0  0  0  0  0  0  0
    6.5431   -2.8486   -0.5405 C   0  0  0  0  0  0  0  0  0  0  0  0
    7.6200   -3.0724   -0.5573 H   0  0  0  0  0  0  0  0  0  0  0  0
    5.6798   -3.4815   -1.4492 C   0  0  0  0  0  0  0  0  0  0  0  0
    6.0795   -4.1934   -2.1864 H   0  0  0  0  0  0  0  0  0  0  0  0
    4.3077   -3.1985   -1.4305 C   0  0  0  0  0  0  0  0  0  0  0  0
    3.6409   -3.6704   -2.1683 H   0  0  0  0  0  0  0  0  0  0  0  0
    2.3359   -1.9619   -0.4682 C   0  0  2  0  0  3  0  0  0  0  0  0
  2  3  1  0  0  0  0
  4  1  1  0  0  0  0
  4 17  1  0  0  0  0
  5  4  1  0  0  0  0
  6 17  1  0  0  0  0
  6  7  1  0  0  0  0
  7  8  1  0  0  0  0
  9  7  2  0  0  0  0
  9 10  1  0  0  0  0
 11  9  1  0  0  0  0
 12 11  1  0  0  0  0
 13 15  1  0  0  0  0
 13 11  2  0  0  0  0
 14 13  1  0  0  0  0
 15  6  2  0  0  0  0
 16 15  1  0  0  0  0
 17  2  1  1  0  0  0
M  END
