1,2
 OpenBabel05122313063D

 19 18  0  0  1  0  0  0  0  0999 V2000
    0.1194   -1.8233    0.1719 Se  0  0  0  0  0  1  0  0  0  0  0  0
   -2.6902   -0.2641   -0.0998 N   0  0  0  0  0  0  0  0  0  0  0  0
   -2.7438   -1.7734   -0.2574 C   0  0  1  0  0  0  0  0  0  0  0  0
   -2.4415   -1.9430   -1.3119 H   0  0  0  0  0  0  0  0  0  0  0  0
   -1.7025   -2.4533    0.6193 C   0  0  0  0  0  0  0  0  0  0  0  0
   -1.7260   -3.5466    0.4411 H   0  0  0  0  0  0  0  0  0  0  0  0
   -1.9093   -2.2882    1.6972 H   0  0  0  0  0  0  0  0  0  0  0  0
   -3.3653    0.3898   -1.2466 C   0  0  0  0  0  0  0  0  0  0  0  0
   -4.4476    0.1353   -1.2717 H   0  0  0  0  0  0  0  0  0  0  0  0
   -2.8845    0.0581   -2.1854 H   0  0  0  0  0  0  0  0  0  0  0  0
   -3.2398    1.4843   -1.1505 H   0  0  0  0  0  0  0  0  0  0  0  0
   -3.3061    0.2024    1.1666 C   0  0  0  0  0  0  0  0  0  0  0  0
   -4.3980   -0.0052    1.1847 H   0  0  0  0  0  0  0  0  0  0  0  0
   -3.1368    1.2926    1.2457 H   0  0  0  0  0  0  0  0  0  0  0  0
   -2.8197   -0.2957    2.0254 H   0  0  0  0  0  0  0  0  0  0  0  0
   -4.1425   -2.3663   -0.0373 C   0  0  0  0  0  0  0  0  0  0  0  0
   -4.1423   -3.4234   -0.3672 H   0  0  0  0  0  0  0  0  0  0  0  0
   -4.9252   -1.8420   -0.6204 H   0  0  0  0  0  0  0  0  0  0  0  0
   -4.4363   -2.3535    1.0311 H   0  0  0  0  0  0  0  0  0  0  0  0
  1  5  1  0  0  0  0
  2 12  1  0  0  0  0
  3  4  1  6  0  0  0
  3  2  1  0  0  0  0
  3 16  1  0  0  0  0
  3  5  1  0  0  0  0
  5  7  1  0  0  0  0
  6  5  1  0  0  0  0
  8 11  1  0  0  0  0
  8  2  1  0  0  0  0
  9  8  1  0  0  0  0
 10  8  1  0  0  0  0
 12 13  1  0  0  0  0
 12 14  1  0  0  0  0
 12 15  1  0  0  0  0
 16 19  1  0  0  0  0
 17 16  1  0  0  0  0
 18 16  1  0  0  0  0
M  END
