1,3
 OpenBabel05122313063D

  4  3  0  0  0  0  0  0  0  0999 V2000
   -2.5220   -0.9617   -0.1202 Se  0  0  0  0  0  0  0  0  0  0  0  0
   -0.8621   -3.3757   -0.0488 S   0  0  0  0  0  0  0  0  0  0  0  0
    0.3240   -2.3136    0.0134 N   0  0  0  0  0  0  0  0  0  0  0  0
   -2.3455   -2.8041   -0.1075 N   0  0  0  0  0  0  0  0  0  0  0  0
  1  4  1  0  0  0  0
  2  3  1  0  0  0  0
  4  2  1  0  0  0  0
M  END
