1,2
q = -1.0, confidence = 0.002

 17 18  0  0  1  0  0  0  0  0999 V2000
    1.3151   -2.0525   -0.2354 Se  0  0  0  0  0  1  0  0  0  0  0  0
    1.8299    0.9635   -0.1423 N   0  0  0  0  0  2  0  0  0  0  0  0
    3.0108    0.2483   -0.0211 C   0  0  1  0  0  3  0  0  0  0  0  0
    2.9725   -1.1824   -0.0025 C   0  0  0  0  0  0  0  0  0  0  0  0
    1.8944    2.2965   -0.2808 C   0  0  0  0  0  0  0  0  0  0  0  0
    4.1742   -1.8910    0.1311 C   0  0  0  0  0  0  0  0  0  0  0  0
    3.1036    3.0223   -0.2431 C   0  0  0  0  0  0  0  0  0  0  0  0
    4.2836    0.9263    0.0483 C   0  0  0  0  0  0  0  0  0  0  0  0
    5.4771    0.1661    0.1970 C   0  0  0  0  0  0  0  0  0  0  0  0
    5.4125   -1.2213    0.2428 C   0  0  0  0  0  0  0  0  0  0  0  0
    4.2950    2.3430   -0.0566 C   0  0  0  0  0  0  0  0  0  0  0  0
    6.4387    0.6958    0.2636 H   0  0  0  0  0  0  0  0  0  0  0  0
    5.2558    2.8785   -0.0050 H   0  0  0  0  0  0  0  0  0  0  0  0
    4.1448   -2.9910    0.1429 H   0  0  0  0  0  0  0  0  0  0  0  0
    0.9422    2.8244   -0.4341 H   0  0  0  0  0  0  0  0  0  0  0  0
    3.0694    4.1151   -0.3542 H   0  0  0  0  0  0  0  0  0  0  0  0
    6.3341   -1.8124    0.3555 H   0  0  0  0  0  0  0  0  0  0  0  0
  1  4  1  0  0  0  0
  3  2  1  6  0  0  0
  3  4  1  0  0  0  0
  3  8  1  0  0  0  0
  4  6  2  0  0  0  0
  5  7  2  0  0  0  0
  5  2  1  0  0  0  0
  6 14  1  0  0  0  0
  6 10  1  0  0  0  0
  7 11  1  0  0  0  0
  8  9  1  0  0  0  0
  9 10  2  0  0  0  0
  9 12  1  0  0  0  0
 10 17  1  0  0  0  0
 11 13  1  0  0  0  0
 11  8  2  0  0  0  0
 15  5  1  0  0  0  0
 16  7  1  0  0  0  0
M  END
