3,4,9,10
 OpenBabel05122313063D

 70 69  0  0  0  0  0  0  0  0999 V2000
   -1.0790    0.2849    2.5142 Cl  0  0  0  0  0  0  0  0  0  0  0  0
    1.0790    0.2850   -2.5142 Cl  0  0  0  0  0  0  0  0  0  0  0  0
   -1.0597   -0.1528    0.4169 Si  0  0  2  0  0  0  0  0  0  0  0  0
    1.0597   -0.1527   -0.4169 Si  0  0  2  0  0  0  0  0  0  0  0  0
   -3.0561    0.7174   -0.5361 Si  0  0  0  0  0  0  0  0  0  0  0  0
    3.0560    0.7174    0.5361 Si  0  0  0  0  0  0  0  0  0  0  0  0
    1.0997   -2.2614    2.7372 O   0  0  0  0  0  1  0  0  0  0  0  0
   -1.0997   -2.2612   -2.7373 O   0  0  0  0  0  1  0  0  0  0  0  0
    0.6775   -2.2109    1.6591 C   0  0  0  0  0  2  0  0  0  0  0  0
   -0.6775   -2.2108   -1.6591 C   0  0  0  0  0  2  0  0  0  0  0  0
   -3.2886   -0.0180   -2.2683 C   0  0  0  0  0  0  0  0  0  0  0  0
   -4.1011    0.5298   -2.7895 H   0  0  0  0  0  0  0  0  0  0  0  0
   -3.5700   -1.0881   -2.2281 H   0  0  0  0  0  0  0  0  0  0  0  0
   -2.3697    0.0706   -2.8778 H   0  0  0  0  0  0  0  0  0  0  0  0
   -4.5470    0.1627    0.5843 C   0  0  0  0  0  0  0  0  0  0  0  0
   -5.8535    0.2745   -0.2287 C   0  0  0  0  0  0  0  0  0  0  0  0
   -6.7122   -0.0527    0.3992 H   0  0  0  0  0  0  0  0  0  0  0  0
   -5.8434   -0.3706   -1.1302 H   0  0  0  0  0  0  0  0  0  0  0  0
   -6.0626    1.3126   -0.5554 H   0  0  0  0  0  0  0  0  0  0  0  0
   -4.6635    1.0093    1.8645 C   0  0  0  0  0  0  0  0  0  0  0  0
   -5.4961    0.6249    2.4950 H   0  0  0  0  0  0  0  0  0  0  0  0
   -4.8866    2.0724    1.6436 H   0  0  0  0  0  0  0  0  0  0  0  0
   -3.7382    0.9716    2.4719 H   0  0  0  0  0  0  0  0  0  0  0  0
   -4.3234   -1.3127    0.9705 C   0  0  0  0  0  0  0  0  0  0  0  0
   -5.2061   -1.7006    1.5261 H   0  0  0  0  0  0  0  0  0  0  0  0
   -3.4407   -1.4362    1.6305 H   0  0  0  0  0  0  0  0  0  0  0  0
   -4.1816   -1.9671    0.0855 H   0  0  0  0  0  0  0  0  0  0  0  0
   -2.7554    2.6308   -0.7206 C   0  0  0  0  0  0  0  0  0  0  0  0
   -1.7929    2.8367   -1.9072 C   0  0  0  0  0  0  0  0  0  0  0  0
   -1.5174    3.9118   -1.9871 H   0  0  0  0  0  0  0  0  0  0  0  0
   -2.2490    2.5402   -2.8728 H   0  0  0  0  0  0  0  0  0  0  0  0
   -0.8518    2.2603   -1.7950 H   0  0  0  0  0  0  0  0  0  0  0  0
   -2.1205    3.2331    0.5455 C   0  0  0  0  0  0  0  0  0  0  0  0
   -1.9833    4.3297    0.4141 H   0  0  0  0  0  0  0  0  0  0  0  0
   -1.1191    2.8005    0.7447 H   0  0  0  0  0  0  0  0  0  0  0  0
   -2.7371    3.0779    1.4521 H   0  0  0  0  0  0  0  0  0  0  0  0
   -4.0884    3.3411   -1.0268 C   0  0  0  0  0  0  0  0  0  0  0  0
   -3.9010    4.4174   -1.2390 H   0  0  0  0  0  0  0  0  0  0  0  0
   -4.7964    3.2946   -0.1753 H   0  0  0  0  0  0  0  0  0  0  0  0
   -4.5967    2.9177   -1.9180 H   0  0  0  0  0  0  0  0  0  0  0  0
    3.2886   -0.0179    2.2684 C   0  0  0  0  0  0  0  0  0  0  0  0
    4.1011    0.5299    2.7895 H   0  0  0  0  0  0  0  0  0  0  0  0
    3.5699   -1.0880    2.2282 H   0  0  0  0  0  0  0  0  0  0  0  0
    2.3697    0.0708    2.8779 H   0  0  0  0  0  0  0  0  0  0  0  0
    4.5470    0.1626   -0.5842 C   0  0  0  0  0  0  0  0  0  0  0  0
    4.6633    1.0090   -1.8646 C   0  0  0  0  0  0  0  0  0  0  0  0
    5.4960    0.6246   -2.4951 H   0  0  0  0  0  0  0  0  0  0  0  0
    4.8863    2.0722   -1.6439 H   0  0  0  0  0  0  0  0  0  0  0  0
    3.7380    0.9711   -2.4719 H   0  0  0  0  0  0  0  0  0  0  0  0
    5.8535    0.2746    0.2287 C   0  0  0  0  0  0  0  0  0  0  0  0
    6.7122   -0.0525   -0.3991 H   0  0  0  0  0  0  0  0  0  0  0  0
    5.8435   -0.3703    1.1304 H   0  0  0  0  0  0  0  0  0  0  0  0
    6.0626    1.3129    0.5552 H   0  0  0  0  0  0  0  0  0  0  0  0
    4.3235   -1.3128   -0.9701 C   0  0  0  0  0  0  0  0  0  0  0  0
    5.2062   -1.7008   -1.5257 H   0  0  0  0  0  0  0  0  0  0  0  0
    3.4407   -1.4366   -1.6301 H   0  0  0  0  0  0  0  0  0  0  0  0
    4.1818   -1.9671   -0.0850 H   0  0  0  0  0  0  0  0  0  0  0  0
    2.7554    2.6308    0.7205 C   0  0  0  0  0  0  0  0  0  0  0  0
    2.1203    3.2330   -0.5454 C   0  0  0  0  0  0  0  0  0  0  0  0
    1.9831    4.3297   -0.4141 H   0  0  0  0  0  0  0  0  0  0  0  0
    1.1188    2.8005   -0.7444 H   0  0  0  0  0  0  0  0  0  0  0  0
    2.7366    3.0778   -1.4522 H   0  0  0  0  0  0  0  0  0  0  0  0
    4.0885    3.3411    1.0263 C   0  0  0  0  0  0  0  0  0  0  0  0
    3.9012    4.4175    1.2386 H   0  0  0  0  0  0  0  0  0  0  0  0
    4.7963    3.2946    0.1747 H   0  0  0  0  0  0  0  0  0  0  0  0
    4.5971    2.9178    1.9175 H   0  0  0  0  0  0  0  0  0  0  0  0
    1.7932    2.8369    1.9074 C   0  0  0  0  0  0  0  0  0  0  0  0
    1.5178    3.9119    1.9873 H   0  0  0  0  0  0  0  0  0  0  0  0
    2.2496    2.5404    2.8728 H   0  0  0  0  0  0  0  0  0  0  0  0
    0.8521    2.2604    1.7954 H   0  0  0  0  0  0  0  0  0  0  0  0
  3  1  1  1  0  0  0
  3 10  1  0  0  0  0
  4  2  1  6  0  0  0
  4  3  1  0  0  0  0
  4  6  1  0  0  0  0
  4  9  1  0  0  0  0
  5  3  1  0  0  0  0
  5 15  1  0  0  0  0
  6 58  1  0  0  0  0
  6 41  1  0  0  0  0
  8 10  1  0  0  0  0
  9  7  1  0  0  0  0
 11 13  1  0  0  0  0
 11  5  1  0  0  0  0
 12 11  1  0  0  0  0
 14 11  1  0  0  0  0
 15 24  1  0  0  0  0
 15 20  1  0  0  0  0
 16 17  1  0  0  0  0
 16 15  1  0  0  0  0
 18 16  1  0  0  0  0
 19 16  1  0  0  0  0
 20 23  1  0  0  0  0
 20 21  1  0  0  0  0
 22 20  1  0  0  0  0
 24 25  1  0  0  0  0
 24 26  1  0  0  0  0
 27 24  1  0  0  0  0
 28  5  1  0  0  0  0
 28 33  1  0  0  0  0
 29 32  1  0  0  0  0
 29 28  1  0  0  0  0
 30 29  1  0  0  0  0
 31 29  1  0  0  0  0
 33 35  1  0  0  0  0
 33 36  1  0  0  0  0
 34 33  1  0  0  0  0
 37 28  1  0  0  0  0
 37 39  1  0  0  0  0
 38 37  1  0  0  0  0
 40 37  1  0  0  0  0
 41 42  1  0  0  0  0
 41 44  1  0  0  0  0
 43 41  1  0  0  0  0
 45 50  1  0  0  0  0
 45  6  1  0  0  0  0
 46 48  1  0  0  0  0
 46 45  1  0  0  0  0
 47 46  1  0  0  0  0
 49 46  1  0  0  0  0
 50 53  1  0  0  0  0
 50 52  1  0  0  0  0
 51 50  1  0  0  0  0
 54 45  1  0  0  0  0
 54 57  1  0  0  0  0
 55 54  1  0  0  0  0
 56 54  1  0  0  0  0
 58 63  1  0  0  0  0
 58 67  1  0  0  0  0
 59 60  1  0  0  0  0
 59 58  1  0  0  0  0
 61 59  1  0  0  0  0
 62 59  1  0  0  0  0
 63 64  1  0  0  0  0
 63 66  1  0  0  0  0
 65 63  1  0  0  0  0
 67 68  1  0  0  0  0
 67 69  1  0  0  0  0
 70 67  1  0  0  0  0
M  HYD  4   7   0   8   0   9   0  10   0
M  ZBO  2   2   0   6   0
M  END
