1,2,20
q = -1.0, confidence = 0.004

 73 74  0  0  0  0  0  0  0  0999 V2000
    2.1276   -0.4826    0.0581 P   0  0  0  0  0  0  0  0  0  0  0  0
   -2.1233   -0.4972   -0.0651 P   0  0  0  0  0  0  0  0  0  0  0  0
   -1.1293    1.8995   -0.2577 N   0  0  0  0  0  0  0  0  0  0  0  0
    1.1131    1.9093    0.2137 N   0  0  0  0  0  0  0  0  0  0  0  0
    2.4086    1.3492    0.4828 C   0  0  0  0  0  0  0  0  0  0  0  0
    2.7043    1.4561    1.5498 H   0  0  0  0  0  0  0  0  0  0  0  0
    3.2198    1.7998   -0.1316 H   0  0  0  0  0  0  0  0  0  0  0  0
   -2.4239    1.3275   -0.5061 C   0  0  0  0  0  0  0  0  0  0  0  0
   -2.7336    1.4202   -1.5705 H   0  0  0  0  0  0  0  0  0  0  0  0
   -3.2303    1.7792    0.1137 H   0  0  0  0  0  0  0  0  0  0  0  0
    0.6894    3.2279    0.1347 C   0  0  0  0  0  0  0  0  0  0  0  0
   -1.4220    4.4263   -0.3097 C   0  0  0  0  0  0  0  0  0  0  0  0
   -2.4971    4.4239   -0.5441 H   0  0  0  0  0  0  0  0  0  0  0  0
   -0.7200    3.2217   -0.1661 C   0  0  0  0  0  0  0  0  0  0  0  0
    3.1597   -1.3674    1.4093 C   0  0  0  0  0  0  0  0  0  0  0  0
   -2.8932   -0.6318    1.6876 C   0  0  0  0  0  0  0  0  0  0  0  0
    2.9415   -0.6349   -1.6727 C   0  0  0  0  0  0  0  0  0  0  0  0
   -0.7169    5.6348   -0.1494 C   0  0  0  0  0  0  0  0  0  0  0  0
   -1.2527    6.5898   -0.2583 H   0  0  0  0  0  0  0  0  0  0  0  0
   -0.0036    1.0078   -0.0249 B   0  0  0  0  0  2  0  0  0  0  0  0
   -3.1853   -1.4045   -1.3778 C   0  0  0  0  0  0  0  0  0  0  0  0
    4.4652   -0.4540   -1.6719 C   0  0  0  0  0  0  0  0  0  0  0  0
    4.8348   -0.4463   -2.7202 H   0  0  0  0  0  0  0  0  0  0  0  0
    4.9851   -1.2801   -1.1492 H   0  0  0  0  0  0  0  0  0  0  0  0
    4.7773    0.5037   -1.2083 H   0  0  0  0  0  0  0  0  0  0  0  0
    0.6596    5.6408    0.1458 C   0  0  0  0  0  0  0  0  0  0  0  0
    1.1846    6.6003    0.2657 H   0  0  0  0  0  0  0  0  0  0  0  0
    1.3781    4.4384    0.2922 C   0  0  0  0  0  0  0  0  0  0  0  0
    2.4531    4.4452    0.5267 H   0  0  0  0  0  0  0  0  0  0  0  0
   -4.4180   -0.4630    1.7218 C   0  0  0  0  0  0  0  0  0  0  0  0
   -4.7620   -0.4469    2.7786 H   0  0  0  0  0  0  0  0  0  0  0  0
   -4.9440   -1.2984    1.2205 H   0  0  0  0  0  0  0  0  0  0  0  0
   -4.7488    0.4875    1.2561 H   0  0  0  0  0  0  0  0  0  0  0  0
    2.2912    0.4531   -2.5516 C   0  0  0  0  0  0  0  0  0  0  0  0
    2.6546    0.3373   -3.5952 H   0  0  0  0  0  0  0  0  0  0  0  0
    2.5420    1.4807   -2.2232 H   0  0  0  0  0  0  0  0  0  0  0  0
    1.1869    0.3576   -2.5532 H   0  0  0  0  0  0  0  0  0  0  0  0
    2.5638   -2.0079   -2.2578 C   0  0  0  0  0  0  0  0  0  0  0  0
    2.9604   -2.0894   -3.2925 H   0  0  0  0  0  0  0  0  0  0  0  0
    1.4630   -2.1255   -2.2962 H   0  0  0  0  0  0  0  0  0  0  0  0
    2.9721   -2.8523   -1.6718 H   0  0  0  0  0  0  0  0  0  0  0  0
   -3.4153   -2.8669   -0.9624 C   0  0  0  0  0  0  0  0  0  0  0  0
   -3.8724   -3.4190   -1.8115 H   0  0  0  0  0  0  0  0  0  0  0  0
   -4.1121   -2.9512   -0.1054 H   0  0  0  0  0  0  0  0  0  0  0  0
   -2.4718   -3.3815   -0.6994 H   0  0  0  0  0  0  0  0  0  0  0  0
    2.2485   -1.3223    2.6536 C   0  0  0  0  0  0  0  0  0  0  0  0
    2.7557   -1.8217    3.5072 H   0  0  0  0  0  0  0  0  0  0  0  0
    1.2866   -1.8381    2.4619 H   0  0  0  0  0  0  0  0  0  0  0  0
    2.0141   -0.2826    2.9620 H   0  0  0  0  0  0  0  0  0  0  0  0
   -2.3060   -1.3735   -2.6452 C   0  0  0  0  0  0  0  0  0  0  0  0
   -2.8314   -1.8898   -3.4775 H   0  0  0  0  0  0  0  0  0  0  0  0
   -1.3359   -1.8797   -2.4706 H   0  0  0  0  0  0  0  0  0  0  0  0
   -2.0875   -0.3373   -2.9763 H   0  0  0  0  0  0  0  0  0  0  0  0
   -2.2320    0.4721    2.5379 C   0  0  0  0  0  0  0  0  0  0  0  0
   -2.5729    0.3678    3.5902 H   0  0  0  0  0  0  0  0  0  0  0  0
   -2.4966    1.4936    2.2012 H   0  0  0  0  0  0  0  0  0  0  0  0
   -1.1273    0.3838    2.5179 H   0  0  0  0  0  0  0  0  0  0  0  0
   -4.5358   -0.7328   -1.6802 C   0  0  0  0  0  0  0  0  0  0  0  0
   -5.0476   -1.2997   -2.4879 H   0  0  0  0  0  0  0  0  0  0  0  0
   -4.4206    0.3078   -2.0417 H   0  0  0  0  0  0  0  0  0  0  0  0
   -5.2130   -0.7212   -0.8069 H   0  0  0  0  0  0  0  0  0  0  0  0
    4.5000   -0.6870    1.7366 C   0  0  0  0  0  0  0  0  0  0  0  0
    4.9926   -1.2409    2.5649 H   0  0  0  0  0  0  0  0  0  0  0  0
    4.3726    0.3582    2.0803 H   0  0  0  0  0  0  0  0  0  0  0  0
    5.1992   -0.6855    0.8808 H   0  0  0  0  0  0  0  0  0  0  0  0
   -2.4905   -1.9947    2.2801 C   0  0  0  0  0  0  0  0  0  0  0  0
   -2.8604   -2.0663    3.3253 H   0  0  0  0  0  0  0  0  0  0  0  0
   -1.3881   -2.1031    2.2917 H   0  0  0  0  0  0  0  0  0  0  0  0
   -2.9064   -2.8492    1.7146 H   0  0  0  0  0  0  0  0  0  0  0  0
    3.4051   -2.8343    1.0197 C   0  0  0  0  0  0  0  0  0  0  0  0
    3.8398   -3.3740    1.8883 H   0  0  0  0  0  0  0  0  0  0  0  0
    4.1258   -2.9274    0.1837 H   0  0  0  0  0  0  0  0  0  0  0  0
    2.4708   -3.3552    0.7368 H   0  0  0  0  0  0  0  0  0  0  0  0
  1  5  1  0  0  0  0
  1 15  1  0  0  0  0
  2 16  1  0  0  0  0
  3 14  1  0  0  0  0
  3 20  1  0  0  0  0
  4  5  1  0  0  0  0
  5  6  1  0  0  0  0
  7  5  1  0  0  0  0
  8  3  1  0  0  0  0
  8  2  1  0  0  0  0
  8 10  1  0  0  0  0
  9  8  1  0  0  0  0
 11  4  1  0  0  0  0
 11 28  1  0  0  0  0
 12 14  1  0  0  0  0
 12 18  2  0  0  0  0
 13 12  1  0  0  0  0
 14 11  2  0  0  0  0
 15 62  1  0  0  0  0
 15 46  1  0  0  0  0
 16 30  1  0  0  0  0
 16 66  1  0  0  0  0
 16 54  1  0  0  0  0
 17 22  1  0  0  0  0
 17  1  1  0  0  0  0
 18 26  1  0  0  0  0
 19 18  1  0  0  0  0
 20  4  1  0  0  0  0
 21 42  1  0  0  0  0
 21  2  1  0  0  0  0
 22 25  1  0  0  0  0
 22 24  1  0  0  0  0
 23 22  1  0  0  0  0
 26 27  1  0  0  0  0
 26 28  2  0  0  0  0
 28 29  1  0  0  0  0
 30 31  1  0  0  0  0
 32 30  1  0  0  0  0
 33 30  1  0  0  0  0
 34 36  1  0  0  0  0
 34 17  1  0  0  0  0
 35 34  1  0  0  0  0
 37 34  1  0  0  0  0
 38 17  1  0  0  0  0
 38 41  1  0  0  0  0
 39 38  1  0  0  0  0
 40 38  1  0  0  0  0
 42 45  1  0  0  0  0
 42 44  1  0  0  0  0
 43 42  1  0  0  0  0
 46 49  1  0  0  0  0
 46 47  1  0  0  0  0
 48 46  1  0  0  0  0
 50 52  1  0  0  0  0
 50 21  1  0  0  0  0
 51 50  1  0  0  0  0
 53 50  1  0  0  0  0
 54 55  1  0  0  0  0
 56 54  1  0  0  0  0
 57 54  1  0  0  0  0
 58 21  1  0  0  0  0
 58 61  1  0  0  0  0
 59 58  1  0  0  0  0
 60 58  1  0  0  0  0
 62 64  1  0  0  0  0
 62 63  1  0  0  0  0
 65 62  1  0  0  0  0
 66 68  1  0  0  0  0
 66 67  1  0  0  0  0
 69 66  1  0  0  0  0
 70 15  1  0  0  0  0
 70 71  1  0  0  0  0
 72 70  1  0  0  0  0
 73 70  1  0  0  0  0
M  END
