1,2,67
q = 0.0, confidence = 0.996

 71 76  0  0  0  0  0  0  0  0999 V2000
   -2.0873    0.1954   -0.0448 P   0  0  0  0  0  0  0  0  0  0  0  0
    2.1604    0.1779   -0.1336 P   0  0  0  0  0  0  0  0  0  0  0  0
   -3.9162    2.2714   -0.8447 C   0  0  0  0  0  0  0  0  0  0  0  0
   -4.7492    1.6691   -0.4486 H   0  0  0  0  0  0  0  0  0  0  0  0
   -1.4917    2.4906   -1.3199 C   0  0  0  0  0  0  0  0  0  0  0  0
   -3.4911   -0.9474   -0.4119 C   0  0  0  0  0  0  0  0  0  0  0  0
   -3.9820   -1.0091   -1.7354 C   0  0  0  0  0  0  0  0  0  0  0  0
   -3.5953   -0.3060   -2.4901 H   0  0  0  0  0  0  0  0  0  0  0  0
   -2.5929    1.7895   -0.7749 C   0  0  0  0  0  0  0  0  0  0  0  0
    2.3661    1.9917   -0.2264 C   0  0  0  0  0  0  0  0  0  0  0  0
    2.5476   -1.5301    2.0772 C   0  0  0  0  0  0  0  0  0  0  0  0
    2.7195   -2.3132    1.3227 H   0  0  0  0  0  0  0  0  0  0  0  0
    2.3209   -0.1978    1.6637 C   0  0  0  0  0  0  0  0  0  0  0  0
   -2.2046    0.3724    1.7894 C   0  0  0  0  0  0  0  0  0  0  0  0
    4.8969   -0.7120   -0.1230 C   0  0  0  0  0  0  0  0  0  0  0  0
    4.9341   -0.4311    0.9406 H   0  0  0  0  0  0  0  0  0  0  0  0
    3.6624   -0.9349   -2.2070 C   0  0  0  0  0  0  0  0  0  0  0  0
    2.7209   -0.8228   -2.7687 H   0  0  0  0  0  0  0  0  0  0  0  0
    1.1802    2.6664   -0.6205 C   0  0  0  0  0  0  0  0  0  0  0  0
    1.1927    4.0747   -0.4668 C   0  0  0  0  0  0  0  0  0  0  0  0
    0.2861    4.6514   -0.7045 H   0  0  0  0  0  0  0  0  0  0  0  0
    4.8043   -1.4588   -2.8300 C   0  0  0  0  0  0  0  0  0  0  0  0
    4.7641   -1.7527   -3.8901 H   0  0  0  0  0  0  0  0  0  0  0  0
    3.6991   -0.5509   -0.8503 C   0  0  0  0  0  0  0  0  0  0  0  0
    2.1059    0.7932    2.6434 C   0  0  0  0  0  0  0  0  0  0  0  0
    1.9155    1.8311    2.3338 H   0  0  0  0  0  0  0  0  0  0  0  0
   -1.7878    3.7279   -1.9454 C   0  0  0  0  0  0  0  0  0  0  0  0
   -0.9789    4.2963   -2.4319 H   0  0  0  0  0  0  0  0  0  0  0  0
   -2.3687    0.5239    4.5986 C   0  0  0  0  0  0  0  0  0  0  0  0
   -2.4338    0.5852    5.6959 H   0  0  0  0  0  0  0  0  0  0  0  0
    3.5289    2.6678    0.1853 C   0  0  0  0  0  0  0  0  0  0  0  0
    4.4326    2.1009    0.4603 H   0  0  0  0  0  0  0  0  0  0  0  0
    6.0369   -1.2429   -0.7466 C   0  0  0  0  0  0  0  0  0  0  0  0
    6.9667   -1.3663   -0.1701 H   0  0  0  0  0  0  0  0  0  0  0  0
   -4.1666    3.5086   -1.4525 C   0  0  0  0  0  0  0  0  0  0  0  0
   -5.1939    3.8993   -1.5136 H   0  0  0  0  0  0  0  0  0  0  0  0
   -1.3521   -0.2312    3.9944 C   0  0  0  0  0  0  0  0  0  0  0  0
   -0.6075   -0.7590    4.6083 H   0  0  0  0  0  0  0  0  0  0  0  0
    5.9939   -1.6155   -2.0998 C   0  0  0  0  0  0  0  0  0  0  0  0
    6.8891   -2.0330   -2.5855 H   0  0  0  0  0  0  0  0  0  0  0  0
   -3.0950    4.2341   -2.0032 C   0  0  0  0  0  0  0  0  0  0  0  0
   -3.2871    5.1968   -2.5031 H   0  0  0  0  0  0  0  0  0  0  0  0
   -3.9895   -1.8562    0.5444 C   0  0  0  0  0  0  0  0  0  0  0  0
   -3.6266   -1.8081    1.5827 H   0  0  0  0  0  0  0  0  0  0  0  0
   -4.9498   -1.9582   -2.0913 C   0  0  0  0  0  0  0  0  0  0  0  0
   -5.3275   -1.9907   -3.1249 H   0  0  0  0  0  0  0  0  0  0  0  0
    2.1270    0.4579    4.0060 C   0  0  0  0  0  0  0  0  0  0  0  0
    1.9542    1.2424    4.7583 H   0  0  0  0  0  0  0  0  0  0  0  0
    2.3328    4.7623   -0.0231 C   0  0  0  0  0  0  0  0  0  0  0  0
    2.3023    5.8587    0.0800 H   0  0  0  0  0  0  0  0  0  0  0  0
   -1.2640   -0.2992    2.5950 C   0  0  0  0  0  0  0  0  0  0  0  0
   -0.4486   -0.8591    2.1111 H   0  0  0  0  0  0  0  0  0  0  0  0
    3.5159    4.0661    0.2818 C   0  0  0  0  0  0  0  0  0  0  0  0
    4.4133    4.6085    0.6169 H   0  0  0  0  0  0  0  0  0  0  0  0
    2.3601   -0.8659    4.4103 C   0  0  0  0  0  0  0  0  0  0  0  0
    2.3800   -1.1242    5.4800 H   0  0  0  0  0  0  0  0  0  0  0  0
   -5.4333   -2.8692   -1.1355 C   0  0  0  0  0  0  0  0  0  0  0  0
   -6.1890   -3.6179   -1.4174 H   0  0  0  0  0  0  0  0  0  0  0  0
   -3.2196    1.1360    2.4018 C   0  0  0  0  0  0  0  0  0  0  0  0
   -3.9462    1.6823    1.7827 H   0  0  0  0  0  0  0  0  0  0  0  0
    2.5696   -1.8609    3.4394 C   0  0  0  0  0  0  0  0  0  0  0  0
    2.7558   -2.9020    3.7453 H   0  0  0  0  0  0  0  0  0  0  0  0
   -3.2969    1.2134    3.7999 C   0  0  0  0  0  0  0  0  0  0  0  0
   -4.0874    1.8186    4.2696 H   0  0  0  0  0  0  0  0  0  0  0  0
   -4.9507   -2.8140    0.1812 C   0  0  0  0  0  0  0  0  0  0  0  0
   -5.3304   -3.5179    0.9379 H   0  0  0  0  0  0  0  0  0  0  0  0
   -0.0077    1.8392   -1.3425 B   0  0  0  0  0  0  0  0  0  0  0  0
    0.3899    1.3716   -2.8596 C   0  0  0  0  0  0  0  0  0  0  0  0
    1.4658    1.1393   -2.9930 H   0  0  0  0  0  0  0  0  0  0  0  0
    0.1544    2.2154   -3.5505 H   0  0  0  0  0  0  0  0  0  0  0  0
   -0.2078    0.5103   -3.2414 H   0  0  0  0  0  0  0  0  0  0  0  0
  1 14  1  0  0  0  0
  2 13  1  0  0  0  0
  3  9  1  0  0  0  0
  3  4  1  0  0  0  0
  5  9  2  0  0  0  0
  6  1  1  0  0  0  0
  6 43  1  0  0  0  0
  7  6  2  0  0  0  0
  8  7  1  0  0  0  0
  9  1  1  0  0  0  0
 10  2  1  0  0  0  0
 10 31  1  0  0  0  0
 11 61  1  0  0  0  0
 12 11  1  0  0  0  0
 13 11  2  0  0  0  0
 13 25  1  0  0  0  0
 14 59  2  0  0  0  0
 14 51  1  0  0  0  0
 15 16  1  0  0  0  0
 17 24  1  0  0  0  0
 18 17  1  0  0  0  0
 19 20  1  0  0  0  0
 19 10  2  0  0  0  0
 20 49  2  0  0  0  0
 21 20  1  0  0  0  0
 22 17  2  0  0  0  0
 22 39  1  0  0  0  0
 23 22  1  0  0  0  0
 24  2  1  0  0  0  0
 24 15  2  0  0  0  0
 25 47  2  0  0  0  0
 26 25  1  0  0  0  0
 27  5  1  0  0  0  0
 28 27  1  0  0  0  0
 29 30  1  0  0  0  0
 31 53  2  0  0  0  0
 31 32  1  0  0  0  0
 33 34  1  0  0  0  0
 33 15  1  0  0  0  0
 35  3  2  0  0  0  0
 36 35  1  0  0  0  0
 37 29  1  0  0  0  0
 37 38  1  0  0  0  0
 39 33  2  0  0  0  0
 40 39  1  0  0  0  0
 41 27  2  0  0  0  0
 41 35  1  0  0  0  0
 42 41  1  0  0  0  0
 43 44  1  0  0  0  0
 45  7  1  0  0  0  0
 45 57  2  0  0  0  0
 46 45  1  0  0  0  0
 47 55  1  0  0  0  0
 47 48  1  0  0  0  0
 49 50  1  0  0  0  0
 49 53  1  0  0  0  0
 51 37  2  0  0  0  0
 52 51  1  0  0  0  0
 53 54  1  0  0  0  0
 55 56  1  0  0  0  0
 57 65  1  0  0  0  0
 58 57  1  0  0  0  0
 59 63  1  0  0  0  0
 60 59  1  0  0  0  0
 61 62  1  0  0  0  0
 61 55  2  0  0  0  0
 63 64  1  0  0  0  0
 63 29  2  0  0  0  0
 65 43  2  0  0  0  0
 65 66  1  0  0  0  0
 67  5  1  0  0  0  0
 67 19  1  0  0  0  0
 68 67  1  0  0  0  0
 69 68  1  0  0  0  0
 70 68  1  0  0  0  0
 71 68  1  0  0  0  0
M  END
