2,3,78
q = 0.0, confidence = 0.988

 78 84  0  0  0  0  0  0  0  0999 V2000
   -3.2997    5.1553   -0.8245 Cl  0  0  0  0  0  0  0  0  0  0  0  0
   -1.9382   -1.1916    0.0153 P   0  0  0  0  0  0  0  0  0  0  0  0
    2.4967    0.0989   -0.0016 P   0  0  0  0  0  0  0  0  0  0  0  0
   -1.0123    3.7305   -0.3625 C   0  0  0  0  0  0  0  0  0  0  0  0
   -0.5383    4.3883   -1.1048 H   0  0  0  0  0  0  0  0  0  0  0  0
   -2.8270   -3.0200   -1.9137 C   0  0  0  0  0  0  0  0  0  0  0  0
   -3.1236   -2.1343   -2.4938 H   0  0  0  0  0  0  0  0  0  0  0  0
    3.7095   -1.2362   -0.2856 C   0  0  0  0  0  0  0  0  0  0  0  0
   -2.9852   -4.3034   -2.4551 C   0  0  0  0  0  0  0  0  0  0  0  0
   -3.4162   -4.4188   -3.4609 H   0  0  0  0  0  0  0  0  0  0  0  0
   -2.0598   -1.2503    1.8364 C   0  0  0  0  0  0  0  0  0  0  0  0
   -3.1927   -0.0737   -0.7002 C   0  0  0  0  0  0  0  0  0  0  0  0
    4.2345   -3.6097   -0.1956 C   0  0  0  0  0  0  0  0  0  0  0  0
    3.9210   -4.6476   -0.0079 H   0  0  0  0  0  0  0  0  0  0  0  0
   -2.9736    3.0986    0.9405 C   0  0  0  0  0  0  0  0  0  0  0  0
   -4.0261    3.2654    1.2087 H   0  0  0  0  0  0  0  0  0  0  0  0
   -2.3622    3.9147   -0.0206 C   0  0  0  0  0  0  0  0  0  0  0  0
    3.8370    0.8996    2.3624 C   0  0  0  0  0  0  0  0  0  0  0  0
    4.7814    0.6574    1.8494 H   0  0  0  0  0  0  0  0  0  0  0  0
    3.0362    1.4987   -1.0517 C   0  0  0  0  0  0  0  0  0  0  0  0
   -0.2954    2.6914    0.2421 C   0  0  0  0  0  0  0  0  0  0  0  0
    0.7612    2.5631   -0.0404 H   0  0  0  0  0  0  0  0  0  0  0  0
    2.6321    1.8045    4.2562 C   0  0  0  0  0  0  0  0  0  0  0  0
    2.6334    2.2904    5.2445 H   0  0  0  0  0  0  0  0  0  0  0  0
    3.1741    2.4472   -3.2850 C   0  0  0  0  0  0  0  0  0  0  0  0
    2.9843    2.3667   -4.3662 H   0  0  0  0  0  0  0  0  0  0  0  0
   -1.8643   -4.0013    0.1035 C   0  0  0  0  0  0  0  0  0  0  0  0
   -1.4173   -3.8824    1.1019 H   0  0  0  0  0  0  0  0  0  0  0  0
   -1.9650   -1.4700    4.6076 C   0  0  0  0  0  0  0  0  0  0  0  0
   -1.9027   -1.5700    5.7026 H   0  0  0  0  0  0  0  0  0  0  0  0
   -2.8258    0.7187   -1.8078 C   0  0  0  0  0  0  0  0  0  0  0  0
   -1.8286    0.5938   -2.2625 H   0  0  0  0  0  0  0  0  0  0  0  0
    1.4138    1.5187    3.6239 C   0  0  0  0  0  0  0  0  0  0  0  0
    0.4756    1.8108    4.1208 H   0  0  0  0  0  0  0  0  0  0  0  0
   -0.8912    1.7918    1.1643 C   0  0  0  0  0  0  0  0  0  0  0  0
   -5.0069    1.7965   -1.7377 C   0  0  0  0  0  0  0  0  0  0  0  0
   -5.7072    2.5504   -2.1272 H   0  0  0  0  0  0  0  0  0  0  0  0
    2.7996    1.3927   -2.4409 C   0  0  0  0  0  0  0  0  0  0  0  0
    2.2824    0.5034   -2.8453 H   0  0  0  0  0  0  0  0  0  0  0  0
   -1.0352   -0.5358    2.5229 C   0  0  0  0  0  0  0  0  0  0  0  0
   -5.3780    0.9879   -0.6502 C   0  0  0  0  0  0  0  0  0  0  0  0
   -6.3740    1.0974   -0.1947 H   0  0  0  0  0  0  0  0  0  0  0  0
    1.3539    0.8783    2.3601 C   0  0  0  0  0  0  0  0  0  0  0  0
    3.8517    1.4714    3.6399 C   0  0  0  0  0  0  0  0  0  0  0  0
    4.8074    1.6742    4.1465 H   0  0  0  0  0  0  0  0  0  0  0  0
    2.6019    0.6351    1.7336 C   0  0  0  0  0  0  0  0  0  0  0  0
    3.6208    2.6645   -0.5177 C   0  0  0  0  0  0  0  0  0  0  0  0
    3.7770    2.7579    0.5671 H   0  0  0  0  0  0  0  0  0  0  0  0
    3.9876    3.7142   -1.3747 C   0  0  0  0  0  0  0  0  0  0  0  0
    4.4414    4.6251   -0.9556 H   0  0  0  0  0  0  0  0  0  0  0  0
    3.7700    3.6052   -2.7570 C   0  0  0  0  0  0  0  0  0  0  0  0
    4.0559    4.4318   -3.4253 H   0  0  0  0  0  0  0  0  0  0  0  0
    5.0240   -0.9596   -0.7112 C   0  0  0  0  0  0  0  0  0  0  0  0
    5.3236    0.0763   -0.9325 H   0  0  0  0  0  0  0  0  0  0  0  0
    5.9408   -2.0101   -0.8677 C   0  0  0  0  0  0  0  0  0  0  0  0
    6.9668   -1.7935   -1.2019 H   0  0  0  0  0  0  0  0  0  0  0  0
    5.5485   -3.3329   -0.6083 C   0  0  0  0  0  0  0  0  0  0  0  0
    6.2683   -4.1552   -0.7392 H   0  0  0  0  0  0  0  0  0  0  0  0
   -3.7375    1.6543   -2.3186 C   0  0  0  0  0  0  0  0  0  0  0  0
   -3.4435    2.2933   -3.1644 H   0  0  0  0  0  0  0  0  0  0  0  0
   -4.4733    0.0540   -0.1272 C   0  0  0  0  0  0  0  0  0  0  0  0
   -4.7524   -0.5531    0.7473 H   0  0  0  0  0  0  0  0  0  0  0  0
   -2.9869   -2.1249    3.9044 C   0  0  0  0  0  0  0  0  0  0  0  0
   -3.7315   -2.7358    4.4367 H   0  0  0  0  0  0  0  0  0  0  0  0
   -3.0290   -2.0203    2.5055 C   0  0  0  0  0  0  0  0  0  0  0  0
   -3.7897   -2.5743    1.9332 H   0  0  0  0  0  0  0  0  0  0  0  0
   -1.0135   -0.6911    3.9265 C   0  0  0  0  0  0  0  0  0  0  0  0
   -0.2231   -0.1963    4.5099 H   0  0  0  0  0  0  0  0  0  0  0  0
   -2.2387    2.0501    1.5117 C   0  0  0  0  0  0  0  0  0  0  0  0
   -2.7446    1.3969    2.2394 H   0  0  0  0  0  0  0  0  0  0  0  0
   -2.0278   -5.2806   -0.4455 C   0  0  0  0  0  0  0  0  0  0  0  0
   -1.7114   -6.1643    0.1293 H   0  0  0  0  0  0  0  0  0  0  0  0
   -2.5900   -5.4342   -1.7234 C   0  0  0  0  0  0  0  0  0  0  0  0
   -2.7157   -6.4398   -2.1526 H   0  0  0  0  0  0  0  0  0  0  0  0
   -2.2761   -2.8658   -0.6259 C   0  0  0  0  0  0  0  0  0  0  0  0
    3.3134   -2.5660   -0.0362 C   0  0  0  0  0  0  0  0  0  0  0  0
    2.2754   -2.7763    0.2663 H   0  0  0  0  0  0  0  0  0  0  0  0
   -0.0811    0.5033    1.7074 B   0  0  0  0  0  0  0  0  0  0  0  0
  1 17  1  0  0  0  0
  2 11  1  0  0  0  0
  3 46  1  0  0  0  0
  4 17  2  0  0  0  0
  4 21  1  0  0  0  0
  5  4  1  0  0  0  0
  6 75  1  0  0  0  0
  7  6  1  0  0  0  0
  8 76  1  0  0  0  0
  8  3  1  0  0  0  0
  9  6  2  0  0  0  0
  9 73  1  0  0  0  0
 10  9  1  0  0  0  0
 11 65  2  0  0  0  0
 11 40  1  0  0  0  0
 12 61  1  0  0  0  0
 12  2  1  0  0  0  0
 13 76  2  0  0  0  0
 13 14  1  0  0  0  0
 15 16  1  0  0  0  0
 15 69  2  0  0  0  0
 17 15  1  0  0  0  0
 18 44  1  0  0  0  0
 19 18  1  0  0  0  0
 20 47  1  0  0  0  0
 20  3  1  0  0  0  0
 21 35  2  0  0  0  0
 22 21  1  0  0  0  0
 23 24  1  0  0  0  0
 25 51  2  0  0  0  0
 25 38  1  0  0  0  0
 26 25  1  0  0  0  0
 27 28  1  0  0  0  0
 29 30  1  0  0  0  0
 31 12  2  0  0  0  0
 32 31  1  0  0  0  0
 33 34  1  0  0  0  0
 33 23  1  0  0  0  0
 35 69  1  0  0  0  0
 35 78  1  0  0  0  0
 36 41  1  0  0  0  0
 37 36  1  0  0  0  0
 38 20  2  0  0  0  0
 39 38  1  0  0  0  0
 40 67  2  0  0  0  0
 41 42  1  0  0  0  0
 41 61  2  0  0  0  0
 43 33  2  0  0  0  0
 44 45  1  0  0  0  0
 44 23  2  0  0  0  0
 46 43  1  0  0  0  0
 46 18  2  0  0  0  0
 47 48  1  0  0  0  0
 49 50  1  0  0  0  0
 49 47  2  0  0  0  0
 51 49  1  0  0  0  0
 52 51  1  0  0  0  0
 53  8  2  0  0  0  0
 54 53  1  0  0  0  0
 55 53  1  0  0  0  0
 55 57  2  0  0  0  0
 56 55  1  0  0  0  0
 57 13  1  0  0  0  0
 58 57  1  0  0  0  0
 59 31  1  0  0  0  0
 59 36  2  0  0  0  0
 60 59  1  0  0  0  0
 61 62  1  0  0  0  0
 63 64  1  0  0  0  0
 63 29  2  0  0  0  0
 65 63  1  0  0  0  0
 66 65  1  0  0  0  0
 67 68  1  0  0  0  0
 67 29  1  0  0  0  0
 69 70  1  0  0  0  0
 71 27  1  0  0  0  0
 71 72  1  0  0  0  0
 73 71  2  0  0  0  0
 74 73  1  0  0  0  0
 75  2  1  0  0  0  0
 75 27  2  0  0  0  0
 76 77  1  0  0  0  0
 78 43  1  0  0  0  0
 78 40  1  0  0  0  0
M  END
