1,2,4
q = -1.0

 61 62  0  0  0  0  0  0  0  0999 V2000
   -2.2526   -0.6779   -0.0322 P   0  0  0  0  0  0  0  0  0  0  0  0
    2.3151   -0.2906   -0.1959 P   0  0  0  0  0  0  0  0  0  0  0  0
   -1.3046    1.8480   -0.0078 N   0  0  0  0  0  0  0  0  0  0  0  0
   -0.0875    1.0791   -0.1472 B   0  0  0  0  0  2  0  0  0  0  0  0
    1.0000    2.0365   -0.1583 N   0  0  0  0  0  0  0  0  0  0  0  0
    0.4639    3.3172   -0.0265 C   0  0  0  0  0  0  0  0  0  0  0  0
    1.0774    4.5738    0.0235 C   0  0  0  0  0  0  0  0  0  0  0  0
    2.1714    4.6663   -0.0501 H   0  0  0  0  0  0  0  0  0  0  0  0
    0.2614    5.7156    0.1642 C   0  0  0  0  0  0  0  0  0  0  0  0
    0.7298    6.7105    0.2026 H   0  0  0  0  0  0  0  0  0  0  0  0
   -1.1362    5.6013    0.2537 C   0  0  0  0  0  0  0  0  0  0  0  0
   -1.7507    6.5076    0.3616 H   0  0  0  0  0  0  0  0  0  0  0  0
   -1.7678    4.3410    0.2063 C   0  0  0  0  0  0  0  0  0  0  0  0
   -2.8625    4.2540    0.2752 H   0  0  0  0  0  0  0  0  0  0  0  0
   -0.9703    3.1999    0.0659 C   0  0  0  0  0  0  0  0  0  0  0  0
   -2.5911    1.2031   -0.0275 C   0  0  0  0  0  0  0  0  0  0  0  0
   -3.1872    1.4787   -0.9280 H   0  0  0  0  0  0  0  0  0  0  0  0
   -3.2111    1.4512    0.8632 H   0  0  0  0  0  0  0  0  0  0  0  0
   -3.4012   -1.3370   -1.3585 C   0  0  0  0  0  0  0  0  0  0  0  0
   -3.2869   -2.4382   -1.2516 H   0  0  0  0  0  0  0  0  0  0  0  0
   -4.8734   -0.9648   -1.1534 C   0  0  0  0  0  0  0  0  0  0  0  0
   -5.0300    0.1323   -1.2136 H   0  0  0  0  0  0  0  0  0  0  0  0
   -5.2679   -1.3132   -0.1786 H   0  0  0  0  0  0  0  0  0  0  0  0
   -5.4978   -1.4254   -1.9473 H   0  0  0  0  0  0  0  0  0  0  0  0
   -2.8804   -0.9378   -2.7441 C   0  0  0  0  0  0  0  0  0  0  0  0
   -3.5075   -1.3948   -3.5372 H   0  0  0  0  0  0  0  0  0  0  0  0
   -1.8331   -1.2683   -2.8883 H   0  0  0  0  0  0  0  0  0  0  0  0
   -2.9091    0.1623   -2.8913 H   0  0  0  0  0  0  0  0  0  0  0  0
   -3.0153   -1.2089    1.5925 C   0  0  0  0  0  0  0  0  0  0  0  0
   -4.0190   -0.7270    1.6233 H   0  0  0  0  0  0  0  0  0  0  0  0
   -2.1610   -0.6704    2.7487 C   0  0  0  0  0  0  0  0  0  0  0  0
   -2.6662   -0.8696    3.7165 H   0  0  0  0  0  0  0  0  0  0  0  0
   -1.9843    0.4221    2.6762 H   0  0  0  0  0  0  0  0  0  0  0  0
   -1.1763   -1.1789    2.7570 H   0  0  0  0  0  0  0  0  0  0  0  0
   -3.1671   -2.7329    1.6619 C   0  0  0  0  0  0  0  0  0  0  0  0
   -2.1769   -3.2217    1.5534 H   0  0  0  0  0  0  0  0  0  0  0  0
   -3.8490   -3.1284    0.8827 H   0  0  0  0  0  0  0  0  0  0  0  0
   -3.5870   -3.0231    2.6476 H   0  0  0  0  0  0  0  0  0  0  0  0
    2.3637    1.6063   -0.3334 C   0  0  0  0  0  0  0  0  0  0  0  0
    3.0453    2.0126    0.4473 H   0  0  0  0  0  0  0  0  0  0  0  0
    2.7851    1.9024   -1.3215 H   0  0  0  0  0  0  0  0  0  0  0  0
    3.4859   -0.9049   -1.5148 C   0  0  0  0  0  0  0  0  0  0  0  0
    4.4414   -0.3467   -1.3960 H   0  0  0  0  0  0  0  0  0  0  0  0
    2.8957   -0.6166   -2.9004 C   0  0  0  0  0  0  0  0  0  0  0  0
    3.5972   -0.9519   -3.6919 H   0  0  0  0  0  0  0  0  0  0  0  0
    2.6956    0.4616   -3.0629 H   0  0  0  0  0  0  0  0  0  0  0  0
    1.9372   -1.1585   -3.0332 H   0  0  0  0  0  0  0  0  0  0  0  0
    3.7275   -2.4063   -1.3079 C   0  0  0  0  0  0  0  0  0  0  0  0
    2.7650   -2.9584   -1.2842 H   0  0  0  0  0  0  0  0  0  0  0  0
    4.2568   -2.6238   -0.3596 H   0  0  0  0  0  0  0  0  0  0  0  0
    4.3408   -2.8136   -2.1379 H   0  0  0  0  0  0  0  0  0  0  0  0
    3.1322   -0.6348    1.4497 C   0  0  0  0  0  0  0  0  0  0  0  0
    2.9909   -1.7336    1.5552 H   0  0  0  0  0  0  0  0  0  0  0  0
    2.3247    0.0416    2.5656 C   0  0  0  0  0  0  0  0  0  0  0  0
    2.7259   -0.2594    3.5551 H   0  0  0  0  0  0  0  0  0  0  0  0
    1.2590   -0.2546    2.5209 H   0  0  0  0  0  0  0  0  0  0  0  0
    2.3797    1.1486    2.5061 H   0  0  0  0  0  0  0  0  0  0  0  0
    4.6190   -0.2756    1.5033 C   0  0  0  0  0  0  0  0  0  0  0  0
    4.7859    0.8106    1.3421 H   0  0  0  0  0  0  0  0  0  0  0  0
    5.2221   -0.8276    0.7559 H   0  0  0  0  0  0  0  0  0  0  0  0
    5.0308   -0.5196    2.5048 H   0  0  0  0  0  0  0  0  0  0  0  0
  1 16  1  0  0  0  0
  1 29  1  0  0  0  0
  2 52  1  0  0  0  0
  3 15  1  0  0  0  0
  4  3  1  0  0  0  0
  5  4  1  0  0  0  0
  5  6  1  0  0  0  0
  6  7  2  0  0  0  0
  6 15  1  0  0  0  0
  7  9  1  0  0  0  0
  8  7  1  0  0  0  0
  9 10  1  0  0  0  0
  9 11  2  0  0  0  0
 11 12  1  0  0  0  0
 13 11  1  0  0  0  0
 13 14  1  0  0  0  0
 15 13  2  0  0  0  0
 16  3  1  0  0  0  0
 16 18  1  0  0  0  0
 17 16  1  0  0  0  0
 19 20  1  0  0  0  0
 19 21  1  0  0  0  0
 19  1  1  0  0  0  0
 21 23  1  0  0  0  0
 22 21  1  0  0  0  0
 24 21  1  0  0  0  0
 25 19  1  0  0  0  0
 26 25  1  0  0  0  0
 27 25  1  0  0  0  0
 28 25  1  0  0  0  0
 29 30  1  0  0  0  0
 29 35  1  0  0  0  0
 29 31  1  0  0  0  0
 31 34  1  0  0  0  0
 31 32  1  0  0  0  0
 33 31  1  0  0  0  0
 35 38  1  0  0  0  0
 36 35  1  0  0  0  0
 37 35  1  0  0  0  0
 39  2  1  0  0  0  0
 39  5  1  0  0  0  0
 39 40  1  0  0  0  0
 41 39  1  0  0  0  0
 42 43  1  0  0  0  0
 42 48  1  0  0  0  0
 42  2  1  0  0  0  0
 44 42  1  0  0  0  0
 45 44  1  0  0  0  0
 46 44  1  0  0  0  0
 47 44  1  0  0  0  0
 48 49  1  0  0  0  0
 48 50  1  0  0  0  0
 51 48  1  0  0  0  0
 52 58  1  0  0  0  0
 52 53  1  0  0  0  0
 52 54  1  0  0  0  0
 54 55  1  0  0  0  0
 56 54  1  0  0  0  0
 57 54  1  0  0  0  0
 58 61  1  0  0  0  0
 59 58  1  0  0  0  0
 60 58  1  0  0  0  0
M  END
