1,2,3
q = -1.0

 63 64  0  0  0  0  0  0  0  0999 V2000
   -0.1244    1.3575   -0.1991 B   0  0  0  0  0  2  0  0  0  0  0  0
    2.2161   -0.3322   -0.0389 P   0  0  0  0  0  0  0  0  0  0  0  0
   -2.1770   -0.4038    0.5277 P   0  0  0  0  0  0  0  0  0  0  0  0
    1.1960    2.1868    0.1011 C   0  0  0  0  0  0  0  0  0  0  0  0
    2.4305    1.4831    0.0840 C   0  0  0  0  0  0  0  0  0  0  0  0
    3.6627    2.1407    0.2361 C   0  0  0  0  0  0  0  0  0  0  0  0
    4.6102    1.5842    0.1729 H   0  0  0  0  0  0  0  0  0  0  0  0
    3.6847    3.5242    0.4822 C   0  0  0  0  0  0  0  0  0  0  0  0
    4.6458    4.0450    0.6121 H   0  0  0  0  0  0  0  0  0  0  0  0
    2.4760    4.2321    0.5842 C   0  0  0  0  0  0  0  0  0  0  0  0
    2.4899    5.3100    0.8090 H   0  0  0  0  0  0  0  0  0  0  0  0
    1.2525    3.5730    0.3888 C   0  0  0  0  0  0  0  0  0  0  0  0
    0.3182    4.1473    0.4731 H   0  0  0  0  0  0  0  0  0  0  0  0
   -1.5320    2.0739   -0.3611 C   0  0  0  0  0  0  0  0  0  0  0  0
   -2.6538    1.3020    0.0407 C   0  0  0  0  0  0  0  0  0  0  0  0
   -1.7885    3.3724   -0.8623 C   0  0  0  0  0  0  0  0  0  0  0  0
   -0.9560    3.9879   -1.2358 H   0  0  0  0  0  0  0  0  0  0  0  0
   -3.0955    3.8806   -0.9319 C   0  0  0  0  0  0  0  0  0  0  0  0
   -3.2724    4.8852   -1.3466 H   0  0  0  0  0  0  0  0  0  0  0  0
   -4.1802    3.1147   -0.4735 C   0  0  0  0  0  0  0  0  0  0  0  0
   -5.2024    3.5210   -0.5158 H   0  0  0  0  0  0  0  0  0  0  0  0
   -3.9596    1.8165    0.0170 C   0  0  0  0  0  0  0  0  0  0  0  0
   -4.8138    1.2089    0.3554 H   0  0  0  0  0  0  0  0  0  0  0  0
   -3.6236   -1.4467   -0.0720 C   0  0  0  0  0  0  0  0  0  0  0  0
   -4.5199   -0.9750    0.3911 H   0  0  0  0  0  0  0  0  0  0  0  0
    2.2304   -0.2813    2.7538 C   0  0  0  0  0  0  0  0  0  0  0  0
    2.6117    0.7556    2.8500 H   0  0  0  0  0  0  0  0  0  0  0  0
    2.4297   -0.8112    3.7077 H   0  0  0  0  0  0  0  0  0  0  0  0
    1.1344   -0.2271    2.6033 H   0  0  0  0  0  0  0  0  0  0  0  0
    4.4285   -1.0130    1.7251 C   0  0  0  0  0  0  0  0  0  0  0  0
    4.9344   -1.5925    0.9286 H   0  0  0  0  0  0  0  0  0  0  0  0
    4.7110   -1.4734    2.6953 H   0  0  0  0  0  0  0  0  0  0  0  0
    4.8402    0.0163    1.7249 H   0  0  0  0  0  0  0  0  0  0  0  0
    2.9039   -1.0098    1.5863 C   0  0  0  0  0  0  0  0  0  0  0  0
    2.5415   -2.0611    1.5723 H   0  0  0  0  0  0  0  0  0  0  0  0
    3.1748   -0.1530   -2.6685 C   0  0  0  0  0  0  0  0  0  0  0  0
    3.2452    0.9462   -2.5505 H   0  0  0  0  0  0  0  0  0  0  0  0
    2.1677   -0.3884   -3.0648 H   0  0  0  0  0  0  0  0  0  0  0  0
    3.9195   -0.4653   -3.4297 H   0  0  0  0  0  0  0  0  0  0  0  0
    3.3727   -2.4095   -1.5152 C   0  0  0  0  0  0  0  0  0  0  0  0
    2.3643   -2.7180   -1.8590 H   0  0  0  0  0  0  0  0  0  0  0  0
    3.5850   -2.9511   -0.5713 H   0  0  0  0  0  0  0  0  0  0  0  0
    4.1116   -2.7462   -2.2713 H   0  0  0  0  0  0  0  0  0  0  0  0
    3.4359   -0.8876   -1.3505 C   0  0  0  0  0  0  0  0  0  0  0  0
    4.4403   -0.5969   -0.9709 H   0  0  0  0  0  0  0  0  0  0  0  0
   -3.5395   -2.9039    0.3924 C   0  0  0  0  0  0  0  0  0  0  0  0
   -4.3627   -3.4914   -0.0646 H   0  0  0  0  0  0  0  0  0  0  0  0
   -3.6303   -3.0077    1.4906 H   0  0  0  0  0  0  0  0  0  0  0  0
   -2.5833   -3.3697    0.0770 H   0  0  0  0  0  0  0  0  0  0  0  0
   -2.3443   -0.4196    2.4110 C   0  0  0  0  0  0  0  0  0  0  0  0
   -3.4377   -0.5103    2.6026 H   0  0  0  0  0  0  0  0  0  0  0  0
   -3.7348   -1.3530   -1.5968 C   0  0  0  0  0  0  0  0  0  0  0  0
   -3.7602   -0.3049   -1.9542 H   0  0  0  0  0  0  0  0  0  0  0  0
   -4.6615   -1.8572   -1.9407 H   0  0  0  0  0  0  0  0  0  0  0  0
   -2.8735   -1.8533   -2.0811 H   0  0  0  0  0  0  0  0  0  0  0  0
   -1.6077   -1.6128    3.0291 C   0  0  0  0  0  0  0  0  0  0  0  0
   -0.5207   -1.5333    2.8291 H   0  0  0  0  0  0  0  0  0  0  0  0
   -1.9397   -2.5880    2.6279 H   0  0  0  0  0  0  0  0  0  0  0  0
   -1.7589   -1.6243    4.1285 H   0  0  0  0  0  0  0  0  0  0  0  0
   -1.8332    0.9004    2.9978 C   0  0  0  0  0  0  0  0  0  0  0  0
   -0.7892    1.0948    2.6719 H   0  0  0  0  0  0  0  0  0  0  0  0
   -1.8362    0.8492    4.1063 H   0  0  0  0  0  0  0  0  0  0  0  0
   -2.4478    1.7661    2.6867 H   0  0  0  0  0  0  0  0  0  0  0  0
  1  4  1  0  0  0  0
  2  5  1  0  0  0  0
  2 34  1  0  0  0  0
  3 50  1  0  0  0  0
  4 12  1  0  0  0  0
  5  4  2  0  0  0  0
  5  6  1  0  0  0  0
  6  8  2  0  0  0  0
  7  6  1  0  0  0  0
  8 10  1  0  0  0  0
  8  9  1  0  0  0  0
 10 11  1  0  0  0  0
 12 13  1  0  0  0  0
 12 10  2  0  0  0  0
 14  1  1  0  0  0  0
 14 15  1  0  0  0  0
 15  3  1  0  0  0  0
 16 14  2  0  0  0  0
 17 16  1  0  0  0  0
 18 16  1  0  0  0  0
 18 20  2  0  0  0  0
 19 18  1  0  0  0  0
 20 22  1  0  0  0  0
 21 20  1  0  0  0  0
 22 15  2  0  0  0  0
 22 23  1  0  0  0  0
 24 25  1  0  0  0  0
 24 46  1  0  0  0  0
 24  3  1  0  0  0  0
 26 27  1  0  0  0  0
 26 28  1  0  0  0  0
 29 26  1  0  0  0  0
 30 32  1  0  0  0  0
 31 30  1  0  0  0  0
 33 30  1  0  0  0  0
 34 30  1  0  0  0  0
 34 26  1  0  0  0  0
 35 34  1  0  0  0  0
 36 37  1  0  0  0  0
 36 44  1  0  0  0  0
 38 36  1  0  0  0  0
 39 36  1  0  0  0  0
 40 44  1  0  0  0  0
 40 42  1  0  0  0  0
 41 40  1  0  0  0  0
 43 40  1  0  0  0  0
 44 45  1  0  0  0  0
 44  2  1  0  0  0  0
 46 48  1  0  0  0  0
 47 46  1  0  0  0  0
 49 46  1  0  0  0  0
 50 51  1  0  0  0  0
 50 60  1  0  0  0  0
 50 56  1  0  0  0  0
 52 24  1  0  0  0  0
 53 52  1  0  0  0  0
 54 52  1  0  0  0  0
 55 52  1  0  0  0  0
 56 59  1  0  0  0  0
 57 56  1  0  0  0  0
 58 56  1  0  0  0  0
 60 62  1  0  0  0  0
 61 60  1  0  0  0  0
 63 60  1  0  0  0  0
M  END
