1,2,3
q = 0.0, confidence = 0.996

 78 84  0  0  0  0  0  0  0  0999 V2000
   -2.3595    0.2225    0.0396 P   0  0  0  0  0  0  0  0  0  0  0  0
    2.2412    0.5003    0.0495 P   0  0  0  0  0  0  0  0  0  0  0  0
    0.0770   -1.0702    1.5040 B   0  0  0  0  0  0  0  0  0  0  0  0
   -2.5601   -0.5713    1.6646 C   0  0  0  0  0  0  0  0  0  0  0  0
   -1.3969   -1.2076    2.1666 C   0  0  0  0  0  0  0  0  0  0  0  0
   -1.5909   -2.0338    3.3029 C   0  0  0  0  0  0  0  0  0  0  0  0
   -0.7450   -2.6266    3.6841 H   0  0  0  0  0  0  0  0  0  0  0  0
   -2.8314   -2.1336    3.9487 C   0  0  0  0  0  0  0  0  0  0  0  0
   -2.9341   -2.7765    4.8369 H   0  0  0  0  0  0  0  0  0  0  0  0
   -3.9434   -1.4158    3.4732 C   0  0  0  0  0  0  0  0  0  0  0  0
   -4.9109   -1.4740    3.9944 H   0  0  0  0  0  0  0  0  0  0  0  0
   -3.8115   -0.6450    2.3123 C   0  0  0  0  0  0  0  0  0  0  0  0
   -4.6774   -0.0986    1.9055 H   0  0  0  0  0  0  0  0  0  0  0  0
    0.5293   -2.3867    0.6862 C   0  0  0  0  0  0  0  0  0  0  0  0
    1.8149   -2.9677    0.8103 C   0  0  0  0  0  0  0  0  0  0  0  0
    2.5306   -2.5438    1.5315 H   0  0  0  0  0  0  0  0  0  0  0  0
    2.2085   -4.0687    0.0341 C   0  0  0  0  0  0  0  0  0  0  0  0
    3.2208   -4.4860    0.1513 H   0  0  0  0  0  0  0  0  0  0  0  0
    1.3224   -4.6267   -0.8994 C   0  0  0  0  0  0  0  0  0  0  0  0
    1.6338   -5.4810   -1.5202 H   0  0  0  0  0  0  0  0  0  0  0  0
    0.0309   -4.0875   -1.0300 C   0  0  0  0  0  0  0  0  0  0  0  0
   -0.6800   -4.5193   -1.7518 H   0  0  0  0  0  0  0  0  0  0  0  0
   -0.3563   -2.9968   -0.2413 C   0  0  0  0  0  0  0  0  0  0  0  0
   -1.3765   -2.5990   -0.3584 H   0  0  0  0  0  0  0  0  0  0  0  0
    1.2629   -0.4474    2.4327 C   0  0  0  0  0  0  0  0  0  0  0  0
    2.4049    0.1584    1.8337 C   0  0  0  0  0  0  0  0  0  0  0  0
    3.5324    0.5596    2.5752 C   0  0  0  0  0  0  0  0  0  0  0  0
    4.3813    1.0484    2.0715 H   0  0  0  0  0  0  0  0  0  0  0  0
    3.5447    0.3862    3.9670 C   0  0  0  0  0  0  0  0  0  0  0  0
    4.4151    0.7084    4.5583 H   0  0  0  0  0  0  0  0  0  0  0  0
    2.4196   -0.1698    4.5946 C   0  0  0  0  0  0  0  0  0  0  0  0
    2.4037   -0.2829    5.6900 H   0  0  0  0  0  0  0  0  0  0  0  0
    1.3071   -0.5769    3.8392 C   0  0  0  0  0  0  0  0  0  0  0  0
    0.4404   -0.9999    4.3676 H   0  0  0  0  0  0  0  0  0  0  0  0
   -3.2587   -0.7871   -1.1952 C   0  0  0  0  0  0  0  0  0  0  0  0
   -4.1174   -1.8440   -0.8330 C   0  0  0  0  0  0  0  0  0  0  0  0
   -4.2749   -2.0908    0.2273 H   0  0  0  0  0  0  0  0  0  0  0  0
   -4.7584   -2.5932   -1.8325 C   0  0  0  0  0  0  0  0  0  0  0  0
   -5.4269   -3.4200   -1.5479 H   0  0  0  0  0  0  0  0  0  0  0  0
   -4.5425   -2.2935   -3.1866 C   0  0  0  0  0  0  0  0  0  0  0  0
   -5.0446   -2.8852   -3.9673 H   0  0  0  0  0  0  0  0  0  0  0  0
   -3.6740   -1.2485   -3.5447 C   0  0  0  0  0  0  0  0  0  0  0  0
   -3.4868   -1.0239   -4.6058 H   0  0  0  0  0  0  0  0  0  0  0  0
   -3.0245   -0.4947   -2.5576 C   0  0  0  0  0  0  0  0  0  0  0  0
   -2.3005    0.2931   -2.8354 H   0  0  0  0  0  0  0  0  0  0  0  0
   -3.2006    1.8441    0.0601 C   0  0  0  0  0  0  0  0  0  0  0  0
   -4.5595    1.9723   -0.2903 C   0  0  0  0  0  0  0  0  0  0  0  0
   -5.1230    1.0924   -0.6370 H   0  0  0  0  0  0  0  0  0  0  0  0
   -5.1836    3.2265   -0.2137 C   0  0  0  0  0  0  0  0  0  0  0  0
   -6.2445    3.3258   -0.4893 H   0  0  0  0  0  0  0  0  0  0  0  0
   -4.4551    4.3522    0.2027 C   0  0  0  0  0  0  0  0  0  0  0  0
   -4.9459    5.3360    0.2542 H   0  0  0  0  0  0  0  0  0  0  0  0
   -3.0971    4.2270    0.5390 C   0  0  0  0  0  0  0  0  0  0  0  0
   -2.5201    5.1113    0.8486 H   0  0  0  0  0  0  0  0  0  0  0  0
   -2.4672    2.9773    0.4664 C   0  0  0  0  0  0  0  0  0  0  0  0
   -1.3969    2.8748    0.7060 H   0  0  0  0  0  0  0  0  0  0  0  0
    3.2681   -0.6348   -0.9458 C   0  0  0  0  0  0  0  0  0  0  0  0
    4.4575   -1.1900   -0.4349 C   0  0  0  0  0  0  0  0  0  0  0  0
    4.8011   -0.9281    0.5771 H   0  0  0  0  0  0  0  0  0  0  0  0
    5.1848   -2.1054   -1.2077 C   0  0  0  0  0  0  0  0  0  0  0  0
    6.1095   -2.5464   -0.8054 H   0  0  0  0  0  0  0  0  0  0  0  0
    4.7273   -2.4682   -2.4855 C   0  0  0  0  0  0  0  0  0  0  0  0
    5.2947   -3.1963   -3.0852 H   0  0  0  0  0  0  0  0  0  0  0  0
    3.5462   -1.9070   -2.9957 C   0  0  0  0  0  0  0  0  0  0  0  0
    3.1852   -2.1917   -3.9954 H   0  0  0  0  0  0  0  0  0  0  0  0
    2.8097   -0.9894   -2.2317 C   0  0  0  0  0  0  0  0  0  0  0  0
    1.8810   -0.5397   -2.6254 H   0  0  0  0  0  0  0  0  0  0  0  0
    2.8601    2.1925   -0.2489 C   0  0  0  0  0  0  0  0  0  0  0  0
    2.6703    3.1928    0.7281 C   0  0  0  0  0  0  0  0  0  0  0  0
    2.2314    2.9335    1.7033 H   0  0  0  0  0  0  0  0  0  0  0  0
    3.0444    4.5159    0.4551 C   0  0  0  0  0  0  0  0  0  0  0  0
    2.9005    5.2916    1.2226 H   0  0  0  0  0  0  0  0  0  0  0  0
    3.5984    4.8503   -0.7914 C   0  0  0  0  0  0  0  0  0  0  0  0
    3.8901    5.8901   -1.0037 H   0  0  0  0  0  0  0  0  0  0  0  0
    3.7740    3.8576   -1.7680 C   0  0  0  0  0  0  0  0  0  0  0  0
    4.1985    4.1168   -2.7495 H   0  0  0  0  0  0  0  0  0  0  0  0
    3.4035    2.5315   -1.5038 C   0  0  0  0  0  0  0  0  0  0  0  0
    3.5291    1.7589   -2.2757 H   0  0  0  0  0  0  0  0  0  0  0  0
  1 46  1  0  0  0  0
  1  4  1  0  0  0  0
  2 26  1  0  0  0  0
  3  5  1  0  0  0  0
  3 25  1  0  0  0  0
  4  5  2  0  0  0  0
  4 12  1  0  0  0  0
  5  6  1  0  0  0  0
  6  7  1  0  0  0  0
  6  8  2  0  0  0  0
  8  9  1  0  0  0  0
 10  8  1  0  0  0  0
 10 11  1  0  0  0  0
 12 10  2  0  0  0  0
 13 12  1  0  0  0  0
 14 15  1  0  0  0  0
 14  3  1  0  0  0  0
 15 16  1  0  0  0  0
 17 18  1  0  0  0  0
 17 15  2  0  0  0  0
 19 17  1  0  0  0  0
 20 19  1  0  0  0  0
 21 19  2  0  0  0  0
 21 23  1  0  0  0  0
 22 21  1  0  0  0  0
 23 14  2  0  0  0  0
 24 23  1  0  0  0  0
 25 33  1  0  0  0  0
 26 25  2  0  0  0  0
 26 27  1  0  0  0  0
 27 29  2  0  0  0  0
 28 27  1  0  0  0  0
 29 30  1  0  0  0  0
 29 31  1  0  0  0  0
 31 32  1  0  0  0  0
 33 34  1  0  0  0  0
 33 31  2  0  0  0  0
 35 36  1  0  0  0  0
 35  1  1  0  0  0  0
 36 37  1  0  0  0  0
 38 39  1  0  0  0  0
 38 36  2  0  0  0  0
 40 38  1  0  0  0  0
 41 40  1  0  0  0  0
 42 40  2  0  0  0  0
 42 44  1  0  0  0  0
 43 42  1  0  0  0  0
 44 35  2  0  0  0  0
 45 44  1  0  0  0  0
 46 55  1  0  0  0  0
 47 49  1  0  0  0  0
 47 46  2  0  0  0  0
 48 47  1  0  0  0  0
 49 51  2  0  0  0  0
 50 49  1  0  0  0  0
 51 52  1  0  0  0  0
 51 53  1  0  0  0  0
 53 54  1  0  0  0  0
 55 53  2  0  0  0  0
 55 56  1  0  0  0  0
 57 58  1  0  0  0  0
 57  2  1  0  0  0  0
 58 59  1  0  0  0  0
 60 61  1  0  0  0  0
 60 58  2  0  0  0  0
 62 60  1  0  0  0  0
 63 62  1  0  0  0  0
 64 62  2  0  0  0  0
 64 66  1  0  0  0  0
 65 64  1  0  0  0  0
 66 57  2  0  0  0  0
 67 66  1  0  0  0  0
 68  2  1  0  0  0  0
 68 69  1  0  0  0  0
 69 70  1  0  0  0  0
 71 69  2  0  0  0  0
 71 72  1  0  0  0  0
 73 71  1  0  0  0  0
 74 73  1  0  0  0  0
 75 77  1  0  0  0  0
 75 73  2  0  0  0  0
 76 75  1  0  0  0  0
 77 68  2  0  0  0  0
 78 77  1  0  0  0  0
M  END
