1,2,3,7,9
q = -2.0, confidence = 0.94

 37 37  0  0  0  0  0  0  0  0999 V2000
   -2.2273   -1.3459   -0.8415 S   0  0  0  0  0  0  0  0  0  0  0  0
   -0.8635   -0.1561    1.7095 O   0  5  0  0  0  0  0  0  0  0  0  0
   -0.1670    1.1664   -1.1354 N   0  0  0  0  0  0  0  0  0  0  0  0
   -2.5259    0.3618   -1.4673 C   0  0  0  0  0  0  0  0  0  0  0  0
   -3.3259    0.3198   -2.2324 H   0  0  0  0  0  0  0  0  0  0  0  0
   -2.8983    0.9777   -0.6239 H   0  0  0  0  0  0  0  0  0  0  0  0
    1.5800   -2.3327   -0.4671 S   0  0  0  0  0  1  0  0  0  0  0  0
   -2.8462    0.8551    2.0988 O   0  0  0  0  0  0  0  0  0  0  0  0
    1.9139    0.6306    0.4717 N   0  0  0  0  0  0  0  0  0  0  0  0
   -1.2585    0.9437   -2.0957 C   0  0  0  0  0  0  0  0  0  0  0  0
   -0.8875    0.2427   -2.8721 H   0  0  0  0  0  0  0  0  0  0  0  0
   -1.5218    1.8967   -2.6180 H   0  0  0  0  0  0  0  0  0  0  0  0
   -0.4812    2.3005   -0.2204 C   0  0  0  0  0  0  0  0  0  0  0  0
   -1.2811    1.9847    0.4765 H   0  0  0  0  0  0  0  0  0  0  0  0
   -0.8808    3.1484   -0.8287 H   0  0  0  0  0  0  0  0  0  0  0  0
    0.7183    2.8103    0.5818 C   0  0  0  0  0  0  0  0  0  0  0  0
    1.3980    3.3848   -0.0824 H   0  0  0  0  0  0  0  0  0  0  0  0
    0.3337    3.5464    1.3162 H   0  0  0  0  0  0  0  0  0  0  0  0
    1.5118    1.7488    1.3459 C   0  0  0  0  0  0  0  0  0  0  0  0
    2.4131    2.2337    1.7966 H   0  0  0  0  0  0  0  0  0  0  0  0
    0.8912    1.3248    2.1607 H   0  0  0  0  0  0  0  0  0  0  0  0
    1.1359    1.3180   -1.8131 C   0  0  0  0  0  0  0  0  0  0  0  0
    1.2180    2.3175   -2.3010 H   0  0  0  0  0  0  0  0  0  0  0  0
    1.1590    0.5533   -2.6126 H   0  0  0  0  0  0  0  0  0  0  0  0
    2.3469    1.0639   -0.8604 C   0  0  0  0  0  0  0  0  0  0  0  0
    2.9515    0.2502   -1.2972 H   0  0  0  0  0  0  0  0  0  0  0  0
    3.0011    1.9639   -0.7994 H   0  0  0  0  0  0  0  0  0  0  0  0
    2.8189   -0.3180    1.1393 C   0  0  0  0  0  0  0  0  0  0  0  0
    2.3298   -0.5835    2.1005 H   0  0  0  0  0  0  0  0  0  0  0  0
    3.7947    0.1697    1.3908 H   0  0  0  0  0  0  0  0  0  0  0  0
    3.0757   -1.5926    0.3247 C   0  0  0  0  0  0  0  0  0  0  0  0
    3.5274   -2.3399    1.0088 H   0  0  0  0  0  0  0  0  0  0  0  0
    3.8378   -1.4002   -0.4616 H   0  0  0  0  0  0  0  0  0  0  0  0
   -2.8632   -1.2053    0.8724 C   0  0  0  0  0  0  0  0  0  0  0  0
   -3.9587   -1.0516    0.8577 H   0  0  0  0  0  0  0  0  0  0  0  0
   -2.6309   -2.1908    1.3260 H   0  0  0  0  0  0  0  0  0  0  0  0
   -2.1592   -0.0635    1.6465 C   0  0  0  0  0  0  0  0  0  0  0  0
  1 34  1  0  0  0  0
  3 13  1  0  0  0  0
  4  1  1  0  0  0  0
  4  6  1  0  0  0  0
  5  4  1  0  0  0  0
  7 31  1  0  0  0  0
  9 28  1  0  0  0  0
  9 19  1  0  0  0  0
 10  4  1  0  0  0  0
 10  3  1  0  0  0  0
 11 10  1  0  0  0  0
 12 10  1  0  0  0  0
 13 14  1  0  0  0  0
 13 16  1  0  0  0  0
 15 13  1  0  0  0  0
 16 18  1  0  0  0  0
 16 19  1  0  0  0  0
 17 16  1  0  0  0  0
 19 20  1  0  0  0  0
 19 21  1  0  0  0  0
 22  3  1  0  0  0  0
 22 25  1  0  0  0  0
 23 22  1  0  0  0  0
 24 22  1  0  0  0  0
 25 27  1  0  0  0  0
 25  9  1  0  0  0  0
 26 25  1  0  0  0  0
 28 30  1  0  0  0  0
 28 29  1  0  0  0  0
 31 32  1  0  0  0  0
 31 28  1  0  0  0  0
 33 31  1  0  0  0  0
 34 36  1  0  0  0  0
 34 37  1  0  0  0  0
 35 34  1  0  0  0  0
 37  2  1  0  0  0  0
 37  8  2  0  0  0  0
M  CHG  1   2  -1
M  END
