2,5,8,10
q = 0.0, confidence = 0.522

 52 56  0  0  0  0  0  0  0  0999 V2000
    2.5671   -1.7734    1.0449 N   0  0  0  0  0  0  0  0  0  0  0  0
    1.3623   -1.1724    1.2431 C   0  0  0  0  0  2  0  0  0  0  0  0
   -3.2128   -2.2146   -0.3401 B   0  0  0  0  0  0  0  0  0  0  0  0
    1.1939   -1.1207    2.6118 N   0  0  0  0  0  0  0  0  0  0  0  0
   -1.3634   -1.1715    1.2433 C   0  0  0  0  0  2  0  0  0  0  0  0
    3.2112   -2.2162   -0.3406 B   0  0  0  0  0  0  0  0  0  0  0  0
   -1.1948   -1.1199    2.6120 N   0  0  0  0  0  0  0  0  0  0  0  0
   -1.3626   -0.6836   -1.4499 C   0  0  0  0  0  2  0  0  0  0  0  0
   -2.5686   -1.7718    1.0453 N   0  0  0  0  0  0  0  0  0  0  0  0
    1.3613   -0.6846   -1.4502 C   0  0  0  0  0  2  0  0  0  0  0  0
    3.1382   -2.0854    2.2680 C   0  0  0  0  0  0  0  0  0  0  0  0
    4.1081   -2.5834    2.3461 H   0  0  0  0  0  0  0  0  0  0  0  0
   -2.5663   -1.3184   -1.4827 N   0  0  0  0  0  0  0  0  0  0  0  0
   -1.1950   -0.1389   -2.7069 N   0  0  0  0  0  0  0  0  0  0  0  0
    2.2862   -1.6685    3.2649 C   0  0  0  0  0  0  0  0  0  0  0  0
    2.3758   -1.7076    4.3550 H   0  0  0  0  0  0  0  0  0  0  0  0
   -0.0002   -0.5578    3.2158 C   0  0  0  0  0  0  0  0  0  0  0  0
    0.0001    0.5452    3.0800 H   0  0  0  0  0  0  0  0  0  0  0  0
   -0.0002   -0.7862    4.2978 H   0  0  0  0  0  0  0  0  0  0  0  0
    1.1938   -0.1397   -2.7071 N   0  0  0  0  0  0  0  0  0  0  0  0
   -2.2874   -1.6670    3.2653 C   0  0  0  0  0  0  0  0  0  0  0  0
   -2.3768   -1.7060    4.3553 H   0  0  0  0  0  0  0  0  0  0  0  0
    2.5647   -1.3199   -1.4831 N   0  0  0  0  0  0  0  0  0  0  0  0
   -3.1397   -2.0833    2.2685 C   0  0  0  0  0  0  0  0  0  0  0  0
   -4.1100   -2.5807    2.3468 H   0  0  0  0  0  0  0  0  0  0  0  0
   -3.1357   -1.1708   -2.7366 C   0  0  0  0  0  0  0  0  0  0  0  0
   -4.1046   -1.6090   -2.9901 H   0  0  0  0  0  0  0  0  0  0  0  0
   -2.2850   -0.4192   -3.5150 C   0  0  0  0  0  0  0  0  0  0  0  0
   -2.3751   -0.0624   -4.5458 H   0  0  0  0  0  0  0  0  0  0  0  0
   -0.0004    0.6057   -3.0663 C   0  0  0  0  0  0  0  0  0  0  0  0
    0.0000    1.5850   -2.5431 H   0  0  0  0  0  0  0  0  0  0  0  0
   -0.0004    0.7816   -4.1581 H   0  0  0  0  0  0  0  0  0  0  0  0
    3.1341   -1.1724   -2.7370 C   0  0  0  0  0  0  0  0  0  0  0  0
    4.1028   -1.6110   -2.9907 H   0  0  0  0  0  0  0  0  0  0  0  0
    2.2837   -0.4203   -3.5153 C   0  0  0  0  0  0  0  0  0  0  0  0
    2.3738   -0.0635   -4.5460 H   0  0  0  0  0  0  0  0  0  0  0  0
    4.8163   -1.9501   -0.2953 C   0  0  0  0  0  0  0  0  0  0  0  0
    5.3103   -2.2491   -1.2437 H   0  0  0  0  0  0  0  0  0  0  0  0
    5.3131   -2.5543    0.4927 H   0  0  0  0  0  0  0  0  0  0  0  0
    5.0716   -0.8840   -0.1086 H   0  0  0  0  0  0  0  0  0  0  0  0
   -2.8029   -3.7658   -0.6169 C   0  0  0  0  0  0  0  0  0  0  0  0
   -3.2003   -4.1267   -1.5897 H   0  0  0  0  0  0  0  0  0  0  0  0
   -3.2022   -4.4419    0.1692 H   0  0  0  0  0  0  0  0  0  0  0  0
   -1.6987   -3.8966   -0.6392 H   0  0  0  0  0  0  0  0  0  0  0  0
   -4.8179   -1.9486   -0.2949 C   0  0  0  0  0  0  0  0  0  0  0  0
   -5.3119   -2.2477   -1.2433 H   0  0  0  0  0  0  0  0  0  0  0  0
   -5.0733   -0.8825   -0.1081 H   0  0  0  0  0  0  0  0  0  0  0  0
   -5.3147   -2.5528    0.4932 H   0  0  0  0  0  0  0  0  0  0  0  0
    2.8014   -3.7674   -0.6174 C   0  0  0  0  0  0  0  0  0  0  0  0
    3.1987   -4.1283   -1.5902 H   0  0  0  0  0  0  0  0  0  0  0  0
    1.6972   -3.8982   -0.6397 H   0  0  0  0  0  0  0  0  0  0  0  0
    3.2007   -4.4435    0.1687 H   0  0  0  0  0  0  0  0  0  0  0  0
  1  2  1  0  0  0  0
  1 11  1  0  0  0  0
  2  4  1  0  0  0  0
  3 45  1  0  0  0  0
  3  9  1  0  0  0  0
  4 17  1  0  0  0  0
  4 15  1  0  0  0  0
  5  7  1  0  0  0  0
  6 37  1  0  0  0  0
  6  1  1  0  0  0  0
  7 17  1  0  0  0  0
  7 21  1  0  0  0  0
  9  5  1  0  0  0  0
  9 24  1  0  0  0  0
 11 12  1  0  0  0  0
 11 15  2  0  0  0  0
 13  8  1  0  0  0  0
 13  3  1  0  0  0  0
 14  8  1  0  0  0  0
 15 16  1  0  0  0  0
 17 19  1  0  0  0  0
 18 17  1  0  0  0  0
 20 10  1  0  0  0  0
 21 22  1  0  0  0  0
 23 10  1  0  0  0  0
 23  6  1  0  0  0  0
 24 25  1  0  0  0  0
 24 21  2  0  0  0  0
 26 13  1  0  0  0  0
 27 26  1  0  0  0  0
 28 26  2  0  0  0  0
 28 14  1  0  0  0  0
 29 28  1  0  0  0  0
 30 20  1  0  0  0  0
 30 14  1  0  0  0  0
 30 31  1  0  0  0  0
 32 30  1  0  0  0  0
 33 23  1  0  0  0  0
 34 33  1  0  0  0  0
 35 33  2  0  0  0  0
 35 20  1  0  0  0  0
 36 35  1  0  0  0  0
 37 40  1  0  0  0  0
 37 39  1  0  0  0  0
 38 37  1  0  0  0  0
 41  3  1  0  0  0  0
 41 43  1  0  0  0  0
 42 41  1  0  0  0  0
 44 41  1  0  0  0  0
 45 47  1  0  0  0  0
 45 48  1  0  0  0  0
 46 45  1  0  0  0  0
 49  6  1  0  0  0  0
 49 52  1  0  0  0  0
 50 49  1  0  0  0  0
 51 49  1  0  0  0  0
M  END
