1,8,13,44
q = -2.0, confidence = 0.734

 62 67  0  0  0  0  0  0  0  0999 V2000
   -0.8646   -1.8343   -0.0490 C   0  0  0  0  0  3  0  0  0  0  0  0
   -1.5823   -1.9684    0.7639 H   0  0  0  0  0  0  0  0  0  0  0  0
   -2.2692   -0.2864   -1.6438 C   0  0  0  0  0  0  0  0  0  0  0  0
   -2.2692    0.2857    1.6439 C   0  0  0  0  0  0  0  0  0  0  0  0
    0.3523    2.5806    0.1987 C   0  0  0  0  0  0  0  0  0  0  0  0
    0.3528   -2.5806   -0.1981 C   0  0  0  0  0  0  0  0  0  0  0  0
    0.9499    3.5703   -0.6419 C   0  0  0  0  0  0  0  0  0  0  0  0
   -0.8650    1.8342    0.0495 C   0  0  0  0  0  3  0  0  0  0  0  0
   -1.5829    1.9684   -0.7633 H   0  0  0  0  0  0  0  0  0  0  0  0
   -2.4219    0.0440   -3.0108 C   0  0  0  0  0  0  0  0  0  0  0  0
   -1.6720   -0.3141   -3.7294 H   0  0  0  0  0  0  0  0  0  0  0  0
   -3.2755    0.1496   -0.7318 C   0  0  0  0  0  0  0  0  0  0  0  0
    0.0987    1.2087    2.0561 C   0  0  0  0  0  3  0  0  0  0  0  0
    0.2877    0.7117    3.0127 H   0  0  0  0  0  0  0  0  0  0  0  0
    0.3080   -3.9384    1.9463 C   0  0  0  0  0  0  0  0  0  0  0  0
    0.8578   -4.7514    2.4574 H   0  0  0  0  0  0  0  0  0  0  0  0
   -0.7456   -4.2618    1.8100 H   0  0  0  0  0  0  0  0  0  0  0  0
    0.2896   -3.0585    2.6262 H   0  0  0  0  0  0  0  0  0  0  0  0
   -3.5085   -0.7910    3.4802 C   0  0  0  0  0  0  0  0  0  0  0  0
   -3.5875   -1.0268    4.5520 H   0  0  0  0  0  0  0  0  0  0  0  0
    0.9746   -2.1692   -1.4375 C   0  0  0  0  0  0  0  0  0  0  0  0
    2.7749   -3.6935   -1.0158 C   0  0  0  0  0  0  0  0  0  0  0  0
    3.7277   -4.1642   -1.3044 H   0  0  0  0  0  0  0  0  0  0  0  0
    2.1510    4.1072   -0.1971 C   0  0  0  0  0  0  0  0  0  0  0  0
    2.6489    4.8755   -0.8093 H   0  0  0  0  0  0  0  0  0  0  0  0
    0.3068    3.9396   -1.9450 C   0  0  0  0  0  0  0  0  0  0  0  0
    0.8563    4.7529   -2.4557 H   0  0  0  0  0  0  0  0  0  0  0  0
   -0.7468    4.2627   -1.8082 H   0  0  0  0  0  0  0  0  0  0  0  0
    0.2885    3.0600   -2.6253 H   0  0  0  0  0  0  0  0  0  0  0  0
   -4.3713    0.8903   -1.2251 C   0  0  0  0  0  0  0  0  0  0  0  0
   -5.1338    1.2287   -0.5074 H   0  0  0  0  0  0  0  0  0  0  0  0
   -4.4939    1.2204   -2.5808 C   0  0  0  0  0  0  0  0  0  0  0  0
   -5.3565    1.8071   -2.9304 H   0  0  0  0  0  0  0  0  0  0  0  0
   -2.4219   -0.0447    3.0109 C   0  0  0  0  0  0  0  0  0  0  0  0
   -1.6721    0.3134    3.7295 H   0  0  0  0  0  0  0  0  0  0  0  0
    2.2277    2.7270    1.8541 C   0  0  0  0  0  0  0  0  0  0  0  0
   -3.2755   -0.1504    0.7319 C   0  0  0  0  0  0  0  0  0  0  0  0
   -4.3713   -0.8910    1.2252 C   0  0  0  0  0  0  0  0  0  0  0  0
   -5.1338   -1.2295    0.5075 H   0  0  0  0  0  0  0  0  0  0  0  0
   -1.0742    1.0614    1.2463 C   0  0  0  0  0  3  0  0  0  0  0  0
    0.9744    2.1688    1.4379 C   0  0  0  0  0  0  0  0  0  0  0  0
   -3.5085    0.7903   -3.4801 C   0  0  0  0  0  0  0  0  0  0  0  0
   -3.5875    1.0261   -4.5519 H   0  0  0  0  0  0  0  0  0  0  0  0
    0.0986   -1.2096   -2.0561 C   0  0  0  0  0  3  0  0  0  0  0  0
    0.2875   -0.7130   -3.0129 H   0  0  0  0  0  0  0  0  0  0  0  0
    0.9508   -3.5697    0.6429 C   0  0  0  0  0  0  0  0  0  0  0  0
   -4.4939   -1.2211    2.5810 C   0  0  0  0  0  0  0  0  0  0  0  0
   -5.3564   -1.8079    2.9305 H   0  0  0  0  0  0  0  0  0  0  0  0
   -1.0741   -1.0621   -1.2462 C   0  0  0  0  0  3  0  0  0  0  0  0
    2.7742    3.6937    1.0166 C   0  0  0  0  0  0  0  0  0  0  0  0
    3.7270    4.1646    1.3054 H   0  0  0  0  0  0  0  0  0  0  0  0
    2.8655   -2.3046   -3.1446 C   0  0  0  0  0  0  0  0  0  0  0  0
    3.8039   -2.8596   -3.3335 H   0  0  0  0  0  0  0  0  0  0  0  0
    3.0949   -1.2188   -3.1250 H   0  0  0  0  0  0  0  0  0  0  0  0
    2.1829   -2.4760   -4.0045 H   0  0  0  0  0  0  0  0  0  0  0  0
    2.1519   -4.1066    0.1981 C   0  0  0  0  0  0  0  0  0  0  0  0
    2.6500   -4.8745    0.8107 H   0  0  0  0  0  0  0  0  0  0  0  0
    2.8652    2.3042    3.1449 C   0  0  0  0  0  0  0  0  0  0  0  0
    3.8035    2.8594    3.3341 H   0  0  0  0  0  0  0  0  0  0  0  0
    3.0950    1.2185    3.1250 H   0  0  0  0  0  0  0  0  0  0  0  0
    2.1826    2.4750    4.0049 H   0  0  0  0  0  0  0  0  0  0  0  0
    2.2281   -2.7272   -1.8536 C   0  0  0  0  0  0  0  0  0  0  0  0
  1  2  1  0  0  0  0
  3 49  1  0  0  0  0
  3 12  1  0  0  0  0
  4 34  1  0  0  0  0
  5 41  1  0  0  0  0
  6  1  1  0  0  0  0
  6 46  1  0  0  0  0
  7 24  1  0  0  0  0
  7  5  2  0  0  0  0
  8  5  1  0  0  0  0
  8 40  1  0  0  0  0
  9  8  1  0  0  0  0
 10  3  2  0  0  0  0
 11 10  1  0  0  0  0
 12 37  1  0  0  0  0
 13 14  1  0  0  0  0
 15 16  1  0  0  0  0
 15 18  1  0  0  0  0
 17 15  1  0  0  0  0
 19 20  1  0  0  0  0
 21  6  2  0  0  0  0
 22 56  1  0  0  0  0
 23 22  1  0  0  0  0
 24 50  2  0  0  0  0
 25 24  1  0  0  0  0
 26 28  1  0  0  0  0
 26  7  1  0  0  0  0
 27 26  1  0  0  0  0
 29 26  1  0  0  0  0
 30 12  2  0  0  0  0
 30 31  1  0  0  0  0
 32 30  1  0  0  0  0
 33 32  1  0  0  0  0
 34 19  2  0  0  0  0
 34 35  1  0  0  0  0
 36 58  1  0  0  0  0
 37 38  1  0  0  0  0
 37  4  2  0  0  0  0
 38 47  2  0  0  0  0
 39 38  1  0  0  0  0
 40  4  1  0  0  0  0
 40 13  1  0  0  0  0
 41 36  2  0  0  0  0
 41 13  1  0  0  0  0
 42 10  1  0  0  0  0
 42 32  2  0  0  0  0
 43 42  1  0  0  0  0
 44 21  1  0  0  0  0
 44 49  1  0  0  0  0
 45 44  1  0  0  0  0
 46 15  1  0  0  0  0
 47 48  1  0  0  0  0
 47 19  1  0  0  0  0
 49  1  1  0  0  0  0
 50 51  1  0  0  0  0
 50 36  1  0  0  0  0
 52 54  1  0  0  0  0
 52 62  1  0  0  0  0
 53 52  1  0  0  0  0
 55 52  1  0  0  0  0
 56 46  2  0  0  0  0
 56 57  1  0  0  0  0
 58 59  1  0  0  0  0
 58 61  1  0  0  0  0
 60 58  1  0  0  0  0
 62 21  1  0  0  0  0
 62 22  2  0  0  0  0
M  END
