9,17,28,36
q = 0.0, confidence = 0.972

 46 50  0  0  0  0  0  0  0  0999 V2000
   -2.5917    1.4344    0.5521 N   0  0  0  0  0  0  0  0  0  0  0  0
   -1.3103    2.2767   -0.9598 N   0  0  0  0  0  0  0  0  0  0  0  0
    1.0530    2.2952   -1.1245 N   0  0  0  0  0  0  0  0  0  0  0  0
    2.6431    1.5208    0.1127 N   0  0  0  0  0  0  0  0  0  0  0  0
    2.5915   -1.4347    0.5524 N   0  0  0  0  0  0  0  0  0  0  0  0
    1.3103   -2.2766   -0.9599 N   0  0  0  0  0  0  0  0  0  0  0  0
   -1.0529   -2.2949   -1.1249 N   0  0  0  0  0  0  0  0  0  0  0  0
   -2.6429   -1.5210    0.1127 N   0  0  0  0  0  0  0  0  0  0  0  0
   -1.3499    1.2873   -0.0136 C   0  0  0  0  0  2  0  0  0  0  0  0
   -2.4909    3.0164   -0.9975 C   0  0  0  0  0  0  0  0  0  0  0  0
   -2.6492    3.8547   -1.6828 H   0  0  0  0  0  0  0  0  0  0  0  0
   -3.3045    2.4769   -0.0369 C   0  0  0  0  0  0  0  0  0  0  0  0
   -4.3102    2.7621    0.2865 H   0  0  0  0  0  0  0  0  0  0  0  0
   -0.1868    2.3431   -1.8657 C   0  0  0  0  0  0  0  0  0  0  0  0
   -0.2308    1.4652   -2.5525 H   0  0  0  0  0  0  0  0  0  0  0  0
   -0.2311    3.2783   -2.4532 H   0  0  0  0  0  0  0  0  0  0  0  0
    1.3194    1.2817   -0.2201 C   0  0  0  0  0  2  0  0  0  0  0  0
    2.1446    3.1282   -1.3394 C   0  0  0  0  0  0  0  0  0  0  0  0
    2.1192    3.9836   -2.0214 H   0  0  0  0  0  0  0  0  0  0  0  0
    3.1477    2.6366   -0.5579 C   0  0  0  0  0  0  0  0  0  0  0  0
    4.1732    2.9888   -0.4116 H   0  0  0  0  0  0  0  0  0  0  0  0
    3.5350    0.8132    1.0417 C   0  0  0  0  0  0  0  0  0  0  0  0
    3.7475    1.4763    1.9080 H   0  0  0  0  0  0  0  0  0  0  0  0
    4.4939    0.6665    0.5021 H   0  0  0  0  0  0  0  0  0  0  0  0
    3.0607   -0.5314    1.5872 C   0  0  0  0  0  0  0  0  0  0  0  0
    3.9163   -1.0010    2.1103 H   0  0  0  0  0  0  0  0  0  0  0  0
    2.2516   -0.3999    2.3258 H   0  0  0  0  0  0  0  0  0  0  0  0
    1.3498   -1.2874   -0.0134 C   0  0  0  0  0  2  0  0  0  0  0  0
    3.3043   -2.4771   -0.0368 C   0  0  0  0  0  0  0  0  0  0  0  0
    4.3099   -2.7625    0.2867 H   0  0  0  0  0  0  0  0  0  0  0  0
    2.4908   -3.0163   -0.9977 C   0  0  0  0  0  0  0  0  0  0  0  0
    2.6491   -3.8544   -1.6832 H   0  0  0  0  0  0  0  0  0  0  0  0
    0.1869   -2.3425   -1.8660 C   0  0  0  0  0  0  0  0  0  0  0  0
    0.2310   -1.4642   -2.5523 H   0  0  0  0  0  0  0  0  0  0  0  0
    0.2312   -3.2773   -2.4540 H   0  0  0  0  0  0  0  0  0  0  0  0
   -1.3194   -1.2816   -0.2203 C   0  0  0  0  0  2  0  0  0  0  0  0
   -2.1446   -3.1280   -1.3399 C   0  0  0  0  0  0  0  0  0  0  0  0
   -2.1191   -3.9831   -2.0221 H   0  0  0  0  0  0  0  0  0  0  0  0
   -3.1476   -2.6365   -0.5582 C   0  0  0  0  0  0  0  0  0  0  0  0
   -4.1730   -2.9889   -0.4119 H   0  0  0  0  0  0  0  0  0  0  0  0
   -3.5346   -0.8137    1.0422 C   0  0  0  0  0  0  0  0  0  0  0  0
   -3.7462   -1.4768    1.9087 H   0  0  0  0  0  0  0  0  0  0  0  0
   -4.4940   -0.6677    0.5032 H   0  0  0  0  0  0  0  0  0  0  0  0
   -3.0606    0.5312    1.5871 C   0  0  0  0  0  0  0  0  0  0  0  0
   -3.9164    1.0008    2.1101 H   0  0  0  0  0  0  0  0  0  0  0  0
   -2.2515    0.4002    2.3258 H   0  0  0  0  0  0  0  0  0  0  0  0
  1 44  1  0  0  0  0
  2  9  1  0  0  0  0
  3 17  1  0  0  0  0
  4 22  1  0  0  0  0
  5 25  1  0  0  0  0
  6 28  1  0  0  0  0
  7 36  1  0  0  0  0
  8 41  1  0  0  0  0
  9  1  1  0  0  0  0
 10  2  1  0  0  0  0
 10 12  2  0  0  0  0
 11 10  1  0  0  0  0
 12 13  1  0  0  0  0
 12  1  1  0  0  0  0
 14  3  1  0  0  0  0
 14  2  1  0  0  0  0
 15 14  1  0  0  0  0
 16 14  1  0  0  0  0
 17  4  1  0  0  0  0
 18  3  1  0  0  0  0
 18 20  2  0  0  0  0
 19 18  1  0  0  0  0
 20 21  1  0  0  0  0
 20  4  1  0  0  0  0
 22 25  1  0  0  0  0
 22 23  1  0  0  0  0
 24 22  1  0  0  0  0
 25 26  1  0  0  0  0
 25 27  1  0  0  0  0
 28  5  1  0  0  0  0
 29 30  1  0  0  0  0
 29  5  1  0  0  0  0
 31  6  1  0  0  0  0
 31 29  2  0  0  0  0
 32 31  1  0  0  0  0
 33  7  1  0  0  0  0
 33  6  1  0  0  0  0
 34 33  1  0  0  0  0
 35 33  1  0  0  0  0
 36  8  1  0  0  0  0
 37  7  1  0  0  0  0
 37 39  2  0  0  0  0
 38 37  1  0  0  0  0
 39 40  1  0  0  0  0
 39  8  1  0  0  0  0
 41 44  1  0  0  0  0
 41 42  1  0  0  0  0
 43 41  1  0  0  0  0
 44 45  1  0  0  0  0
 44 46  1  0  0  0  0
M  END
