1,3,7,9
q = -2.0, confidence = 0.536

 26 25  0  0  1  0  0  0  0  0999 V2000
    0.1887    0.4652   -2.1542 C   0  0  0  0  0  3  0  0  0  0  0  0
    1.3131    1.2100   -1.7177 C   0  0  2  0  0  3  0  0  0  0  0  0
    2.4313    0.4160   -1.2953 C   0  0  0  0  0  3  0  0  0  0  0  0
    3.6325    0.9829   -0.5615 C   0  0  0  0  0  0  0  0  0  0  0  0
    1.2565    2.7072   -1.5663 C   0  0  0  0  0  0  0  0  0  0  0  0
    3.7597    0.1511    0.7158 C   0  0  0  0  0  0  0  0  0  0  0  0
    2.3625    0.1034    1.3050 C   0  0  0  0  0  3  0  0  0  0  0  0
    1.6991   -1.1120    1.6802 C   0  0  1  0  0  3  0  0  0  0  0  0
    0.3109   -0.9505    1.9435 C   0  0  0  0  0  3  0  0  0  0  0  0
    2.3533   -2.4639    1.6786 C   0  0  0  0  0  0  0  0  0  0  0  0
   -0.7681    0.9947   -2.2904 H   0  0  0  0  0  0  0  0  0  0  0  0
    0.3026   -0.4995   -2.6729 H   0  0  0  0  0  0  0  0  0  0  0  0
    2.6032   -0.5420   -1.8183 H   0  0  0  0  0  0  0  0  0  0  0  0
    3.4707    2.0479   -0.3007 H   0  0  0  0  0  0  0  0  0  0  0  0
    4.5459    0.9364   -1.1933 H   0  0  0  0  0  0  0  0  0  0  0  0
    1.8689    3.1708   -2.3684 H   0  0  0  0  0  0  0  0  0  0  0  0
    0.2194    3.0761   -1.6764 H   0  0  0  0  0  0  0  0  0  0  0  0
    1.6448    3.0553   -0.5915 H   0  0  0  0  0  0  0  0  0  0  0  0
    4.4899    0.5797    1.4367 H   0  0  0  0  0  0  0  0  0  0  0  0
    4.1078   -0.8693    0.4631 H   0  0  0  0  0  0  0  0  0  0  0  0
    2.0277    1.0389    1.7891 H   0  0  0  0  0  0  0  0  0  0  0  0
   -0.3167   -1.8532    2.0089 H   0  0  0  0  0  0  0  0  0  0  0  0
   -0.0638   -0.0581    2.4696 H   0  0  0  0  0  0  0  0  0  0  0  0
    2.8814   -2.5872    2.6494 H   0  0  0  0  0  0  0  0  0  0  0  0
    1.6015   -3.2668    1.5799 H   0  0  0  0  0  0  0  0  0  0  0  0
    3.0840   -2.5903    0.8603 H   0  0  0  0  0  0  0  0  0  0  0  0
  2  1  1  1  0  0  0
  2  5  1  0  0  0  0
  2  3  1  0  0  0  0
  3  4  1  0  0  0  0
  4 14  1  0  0  0  0
  4  6  1  0  0  0  0
  5 18  1  0  0  0  0
  6  7  1  0  0  0  0
  6 19  1  0  0  0  0
  7 21  1  0  0  0  0
  8  7  1  6  0  0  0
  8  9  1  0  0  0  0
  9 22  1  0  0  0  0
  9 23  1  0  0  0  0
 10  8  1  0  0  0  0
 10 24  1  0  0  0  0
 11  1  1  0  0  0  0
 12  1  1  0  0  0  0
 13  3  1  0  0  0  0
 15  4  1  0  0  0  0
 16  5  1  0  0  0  0
 17  5  1  0  0  0  0
 20  6  1  0  0  0  0
 25 10  1  0  0  0  0
 26 10  1  0  0  0  0
M  END
