2,5,15,17
 OpenBabel05122313063D

 50 55  0  0  0  0  0  0  0  0999 V2000
    0.9010    1.1484   -1.1688 C   0  0  0  0  0  3  0  0  0  0  0  0
    0.6939    1.8540    0.0690 C   0  0  0  0  0  3  0  0  0  0  0  0
    1.4158    1.9497    0.8849 H   0  0  0  0  0  0  0  0  0  0  0  0
    0.9010   -1.1486    1.1687 C   0  0  0  0  0  3  0  0  0  0  0  0
   -0.2777   -1.3248    1.9641 C   0  0  0  0  0  3  0  0  0  0  0  0
   -0.4694   -0.8782    2.9448 H   0  0  0  0  0  0  0  0  0  0  0  0
    2.2550   -0.1818    3.0065 C   0  0  0  0  0  0  0  0  0  0  0  0
    1.5059   -0.5927    3.6970 H   0  0  0  0  0  0  0  0  0  0  0  0
   -1.1454   -3.5508   -0.8247 C   0  0  0  0  0  0  0  0  0  0  0  0
   -0.6612   -3.8385   -1.7691 H   0  0  0  0  0  0  0  0  0  0  0  0
    3.1049   -0.0954   -0.7407 C   0  0  0  0  0  0  0  0  0  0  0  0
    2.0986   -0.4052    1.6183 C   0  0  0  0  0  0  0  0  0  0  0  0
   -1.1588   -2.2384    1.2884 C   0  0  0  0  0  0  0  0  0  0  0  0
    2.0986    0.4051   -1.6184 C   0  0  0  0  0  0  0  0  0  0  0  0
   -0.2778    1.3244   -1.9642 C   0  0  0  0  0  3  0  0  0  0  0  0
   -0.4695    0.8775   -2.9447 H   0  0  0  0  0  0  0  0  0  0  0  0
    0.6938   -1.8540   -0.0693 C   0  0  0  0  0  3  0  0  0  0  0  0
    1.4157   -1.9494   -0.8852 H   0  0  0  0  0  0  0  0  0  0  0  0
   -0.5270    2.6025   -0.0365 C   0  0  0  0  0  0  0  0  0  0  0  0
   -0.5271   -2.6024    0.0361 C   0  0  0  0  0  0  0  0  0  0  0  0
    3.1049    0.0953    0.7407 C   0  0  0  0  0  0  0  0  0  0  0  0
    2.2551    0.1817   -3.0066 C   0  0  0  0  0  0  0  0  0  0  0  0
    1.5060    0.5926   -3.6971 H   0  0  0  0  0  0  0  0  0  0  0  0
    3.3458   -0.5214   -3.5298 C   0  0  0  0  0  0  0  0  0  0  0  0
    3.4282   -0.6725   -4.6165 H   0  0  0  0  0  0  0  0  0  0  0  0
   -1.1589    2.2382   -1.2887 C   0  0  0  0  0  0  0  0  0  0  0  0
    4.3304    1.0166    2.6640 C   0  0  0  0  0  0  0  0  0  0  0  0
    5.1958    1.5717    3.0558 H   0  0  0  0  0  0  0  0  0  0  0  0
    4.2038    0.7929    1.2872 C   0  0  0  0  0  0  0  0  0  0  0  0
    4.9662    1.1831    0.5962 H   0  0  0  0  0  0  0  0  0  0  0  0
   -2.3691    4.0829    0.4514 C   0  0  0  0  0  0  0  0  0  0  0  0
   -2.8628    4.8193    1.1030 H   0  0  0  0  0  0  0  0  0  0  0  0
    4.2039   -0.7929   -1.2872 C   0  0  0  0  0  0  0  0  0  0  0  0
    4.9662   -1.1832   -0.5962 H   0  0  0  0  0  0  0  0  0  0  0  0
    4.3305   -1.0167   -2.6640 C   0  0  0  0  0  0  0  0  0  0  0  0
    5.1960   -1.5717   -3.0558 H   0  0  0  0  0  0  0  0  0  0  0  0
   -2.4396    2.7686   -1.6211 C   0  0  0  0  0  0  0  0  0  0  0  0
   -2.9410    2.4583   -2.5485 H   0  0  0  0  0  0  0  0  0  0  0  0
    3.3456    0.5214    3.5297 C   0  0  0  0  0  0  0  0  0  0  0  0
    3.4280    0.6725    4.6164 H   0  0  0  0  0  0  0  0  0  0  0  0
   -3.0200    3.6823   -0.7554 C   0  0  0  0  0  0  0  0  0  0  0  0
   -4.0036    4.1113   -0.9984 H   0  0  0  0  0  0  0  0  0  0  0  0
   -2.3692   -4.0827   -0.4520 C   0  0  0  0  0  0  0  0  0  0  0  0
   -2.8630   -4.8189   -1.1037 H   0  0  0  0  0  0  0  0  0  0  0  0
   -2.4395   -2.7689    1.6208 C   0  0  0  0  0  0  0  0  0  0  0  0
   -2.9409   -2.4588    2.5484 H   0  0  0  0  0  0  0  0  0  0  0  0
   -1.1453    3.5510    0.8242 C   0  0  0  0  0  0  0  0  0  0  0  0
   -0.6610    3.8390    1.7685 H   0  0  0  0  0  0  0  0  0  0  0  0
   -3.0201   -3.6823    0.7550 C   0  0  0  0  0  0  0  0  0  0  0  0
   -4.0036   -4.1114    0.9979 H   0  0  0  0  0  0  0  0  0  0  0  0
  1  2  1  0  0  0  0
  2  3  1  0  0  0  0
  4 12  1  0  0  0  0
  4  5  1  0  0  0  0
  5  6  1  0  0  0  0
  7 39  1  0  0  0  0
  7  8  1  0  0  0  0
  9 43  2  0  0  0  0
  9 20  1  0  0  0  0
 10  9  1  0  0  0  0
 11 21  1  0  0  0  0
 12  7  2  0  0  0  0
 13 45  1  0  0  0  0
 13  5  1  0  0  0  0
 14  1  1  0  0  0  0
 14 11  2  0  0  0  0
 15 26  1  0  0  0  0
 15  1  1  0  0  0  0
 16 15  1  0  0  0  0
 17 20  1  0  0  0  0
 17  4  1  0  0  0  0
 18 17  1  0  0  0  0
 19  2  1  0  0  0  0
 19 47  1  0  0  0  0
 20 13  2  0  0  0  0
 21 29  2  0  0  0  0
 21 12  1  0  0  0  0
 22 14  1  0  0  0  0
 23 22  1  0  0  0  0
 24 22  2  0  0  0  0
 24 35  1  0  0  0  0
 25 24  1  0  0  0  0
 26 19  2  0  0  0  0
 27 28  1  0  0  0  0
 27 39  2  0  0  0  0
 29 27  1  0  0  0  0
 30 29  1  0  0  0  0
 31 47  2  0  0  0  0
 31 32  1  0  0  0  0
 33 11  1  0  0  0  0
 33 34  1  0  0  0  0
 35 33  2  0  0  0  0
 36 35  1  0  0  0  0
 37 26  1  0  0  0  0
 37 41  2  0  0  0  0
 38 37  1  0  0  0  0
 39 40  1  0  0  0  0
 41 31  1  0  0  0  0
 42 41  1  0  0  0  0
 43 49  1  0  0  0  0
 44 43  1  0  0  0  0
 45 46  1  0  0  0  0
 47 48  1  0  0  0  0
 49 50  1  0  0  0  0
 49 45  2  0  0  0  0
M  END
