5,17,23,35
 OpenBabel05122313063D

 36 39  0  0  0  0  0  0  0  0999 V2000
    0.5951    3.3763   -0.5709 C   0  0  0  0  0  0  0  0  0  0  0  0
    1.2661    4.2400   -0.3765 H   0  0  0  0  0  0  0  0  0  0  0  0
    0.2526    3.4775   -1.6204 H   0  0  0  0  0  0  0  0  0  0  0  0
    1.3576    2.0855   -0.4218 C   0  0  0  0  0  3  0  0  0  0  0  0
    1.6626    1.1576   -1.4603 C   0  0  0  0  0  3  0  0  0  0  0  0
    1.4112    1.2808   -2.5211 H   0  0  0  0  0  0  0  0  0  0  0  0
    2.4586    0.0938   -0.8979 C   0  0  0  0  0  0  0  0  0  0  0  0
    3.0894   -1.0457   -1.4736 C   0  0  0  0  0  0  0  0  0  0  0  0
    2.9936   -1.2445   -2.5502 H   0  0  0  0  0  0  0  0  0  0  0  0
    3.8244   -1.8840   -0.6501 C   0  0  0  0  0  0  0  0  0  0  0  0
    4.3278   -2.7631   -1.0798 H   0  0  0  0  0  0  0  0  0  0  0  0
    3.9371   -1.6374    0.7515 C   0  0  0  0  0  0  0  0  0  0  0  0
    4.5262   -2.3312    1.3699 H   0  0  0  0  0  0  0  0  0  0  0  0
    3.3108   -0.5540    1.3466 C   0  0  0  0  0  0  0  0  0  0  0  0
    3.3841   -0.3778    2.4290 H   0  0  0  0  0  0  0  0  0  0  0  0
    2.5636    0.3375    0.5258 C   0  0  0  0  0  0  0  0  0  0  0  0
    1.8172    1.5369    0.8165 C   0  0  0  0  0  3  0  0  0  0  0  0
    1.7275    2.0059    1.8042 H   0  0  0  0  0  0  0  0  0  0  0  0
   -0.6071    3.3954    0.3876 C   0  0  0  0  0  0  0  0  0  0  0  0
   -1.2719    4.2580    0.1664 H   0  0  0  0  0  0  0  0  0  0  0  0
   -0.2649    3.5246    1.4343 H   0  0  0  0  0  0  0  0  0  0  0  0
   -1.3753    2.1049    0.2725 C   0  0  0  0  0  3  0  0  0  0  0  0
   -1.7489    1.2414    1.3408 C   0  0  0  0  0  3  0  0  0  0  0  0
   -1.5522    1.4178    2.4050 H   0  0  0  0  0  0  0  0  0  0  0  0
   -2.5003    0.1389    0.7908 C   0  0  0  0  0  0  0  0  0  0  0  0
   -3.1371   -0.9875    1.3878 C   0  0  0  0  0  0  0  0  0  0  0  0
   -3.0820   -1.1393    2.4748 H   0  0  0  0  0  0  0  0  0  0  0  0
   -3.8261   -1.8702    0.5708 C   0  0  0  0  0  0  0  0  0  0  0  0
   -4.3329   -2.7395    1.0160 H   0  0  0  0  0  0  0  0  0  0  0  0
   -3.8906   -1.6794   -0.8427 C   0  0  0  0  0  0  0  0  0  0  0  0
   -4.4503   -2.4033   -1.4537 H   0  0  0  0  0  0  0  0  0  0  0  0
   -3.2498   -0.6161   -1.4576 C   0  0  0  0  0  0  0  0  0  0  0  0
   -3.2800   -0.4873   -2.5490 H   0  0  0  0  0  0  0  0  0  0  0  0
   -2.5375    0.3120   -0.6474 C   0  0  0  0  0  0  0  0  0  0  0  0
   -1.7676    1.4884   -0.9600 C   0  0  0  0  0  3  0  0  0  0  0  0
   -1.6233    1.9052   -1.9645 H   0  0  0  0  0  0  0  0  0  0  0  0
  1  4  1  0  0  0  0
  1  2  1  0  0  0  0
  1 19  1  0  0  0  0
  3  1  1  0  0  0  0
  4 17  1  0  0  0  0
  5  7  1  0  0  0  0
  5  4  1  0  0  0  0
  6  5  1  0  0  0  0
  7 16  1  0  0  0  0
  8  7  2  0  0  0  0
  8 10  1  0  0  0  0
  9  8  1  0  0  0  0
 10 12  2  0  0  0  0
 11 10  1  0  0  0  0
 12 14  1  0  0  0  0
 12 13  1  0  0  0  0
 14 15  1  0  0  0  0
 16 17  1  0  0  0  0
 16 14  2  0  0  0  0
 17 18  1  0  0  0  0
 19 21  1  0  0  0  0
 20 19  1  0  0  0  0
 22 19  1  0  0  0  0
 22 23  1  0  0  0  0
 23 24  1  0  0  0  0
 25 23  1  0  0  0  0
 25 26  1  0  0  0  0
 26 27  1  0  0  0  0
 28 29  1  0  0  0  0
 28 26  2  0  0  0  0
 30 28  1  0  0  0  0
 31 30  1  0  0  0  0
 32 30  2  0  0  0  0
 32 34  1  0  0  0  0
 33 32  1  0  0  0  0
 34 25  2  0  0  0  0
 35 34  1  0  0  0  0
 35 22  1  0  0  0  0
 36 35  1  0  0  0  0
M  END
