3,6,41,44
 OpenBabel05122313063D

 77 80  0  0  1  0  0  0  0  0999 V2000
   -0.0000    2.6777   -0.0000 Si  0  0  0  0  0  0  0  0  0  0  0  0
    3.1913    2.6702    0.1618 O   0  0  0  0  0  0  0  0  0  0  0  0
    0.9901   -1.8353   -2.3322 C   0  0  0  0  0  3  0  0  0  0  0  0
    1.3978   -2.7858   -2.6955 H   0  0  0  0  0  0  0  0  0  0  0  0
   -0.3391   -1.3707   -2.5249 C   0  0  1  0  0  3  0  0  0  0  0  0
   -0.4793   -0.1268   -1.8289 C   0  0  0  0  0  3  0  0  0  0  0  0
   -1.3991    0.4680   -1.7980 H   0  0  0  0  0  0  0  0  0  0  0  0
    0.8246    0.2775   -1.3457 C   0  0  0  0  0  0  0  0  0  0  0  0
    1.3000    1.4560   -0.6764 C   0  0  0  0  0  0  0  0  0  0  0  0
    2.6713    1.5121   -0.3953 C   0  0  0  0  0  0  0  0  0  0  0  0
    3.5733    0.3897   -0.5612 C   0  0  0  0  0  0  0  0  0  0  0  0
    3.0754   -0.7488   -1.1881 C   0  0  0  0  0  0  0  0  0  0  0  0
    3.7084   -1.6312   -1.3344 H   0  0  0  0  0  0  0  0  0  0  0  0
    1.7309   -0.8078   -1.6427 C   0  0  0  0  0  0  0  0  0  0  0  0
   -1.4016   -2.0299   -3.3475 C   0  0  0  0  0  0  0  0  0  0  0  0
   -1.3331   -1.6681   -4.3957 H   0  0  0  0  0  0  0  0  0  0  0  0
   -2.4142   -1.7928   -2.9692 H   0  0  0  0  0  0  0  0  0  0  0  0
   -1.2888   -3.1300   -3.3524 H   0  0  0  0  0  0  0  0  0  0  0  0
   -0.6493    3.7409   -1.4250 C   0  0  0  0  0  0  0  0  0  0  0  0
   -1.3067    4.5611   -1.0793 H   0  0  0  0  0  0  0  0  0  0  0  0
   -1.2181    3.1255   -2.1484 H   0  0  0  0  0  0  0  0  0  0  0  0
    0.2081    4.1950   -1.9627 H   0  0  0  0  0  0  0  0  0  0  0  0
    3.2695    3.7828   -0.7193 C   0  0  0  0  0  0  0  0  0  0  0  0
    3.6607    4.6340   -0.1297 H   0  0  0  0  0  0  0  0  0  0  0  0
    2.2778    4.0599   -1.1382 H   0  0  0  0  0  0  0  0  0  0  0  0
    3.9608    3.5797   -1.5675 H   0  0  0  0  0  0  0  0  0  0  0  0
    4.9969    0.3977    0.0359 C   0  0  0  0  0  0  0  0  0  0  0  0
    5.8809    1.4885   -0.6099 C   0  0  0  0  0  0  0  0  0  0  0  0
    5.9064    1.3769   -1.7130 H   0  0  0  0  0  0  0  0  0  0  0  0
    6.9221    1.3982   -0.2369 H   0  0  0  0  0  0  0  0  0  0  0  0
    5.5264    2.5047   -0.3651 H   0  0  0  0  0  0  0  0  0  0  0  0
    5.6999   -0.9571   -0.1767 C   0  0  0  0  0  0  0  0  0  0  0  0
    5.8524   -1.1841   -1.2512 H   0  0  0  0  0  0  0  0  0  0  0  0
    5.1335   -1.7939    0.2787 H   0  0  0  0  0  0  0  0  0  0  0  0
    6.6994   -0.9287    0.3014 H   0  0  0  0  0  0  0  0  0  0  0  0
    4.8921    0.6341    1.5627 C   0  0  0  0  0  0  0  0  0  0  0  0
    5.9029    0.6233    2.0206 H   0  0  0  0  0  0  0  0  0  0  0  0
    4.2954   -0.1707    2.0400 H   0  0  0  0  0  0  0  0  0  0  0  0
    4.4179    1.6071    1.7879 H   0  0  0  0  0  0  0  0  0  0  0  0
   -3.1913    2.6702   -0.1618 O   0  0  0  0  0  0  0  0  0  0  0  0
   -0.9901   -1.8353    2.3321 C   0  0  0  0  0  3  0  0  0  0  0  0
   -1.3978   -2.7858    2.6955 H   0  0  0  0  0  0  0  0  0  0  0  0
    0.3390   -1.3706    2.5249 C   0  0  1  0  0  3  0  0  0  0  0  0
    0.4793   -0.1268    1.8289 C   0  0  0  0  0  3  0  0  0  0  0  0
    1.3991    0.4681    1.7981 H   0  0  0  0  0  0  0  0  0  0  0  0
   -0.8246    0.2775    1.3457 C   0  0  0  0  0  0  0  0  0  0  0  0
   -1.3000    1.4560    0.6764 C   0  0  0  0  0  0  0  0  0  0  0  0
   -2.6713    1.5121    0.3953 C   0  0  0  0  0  0  0  0  0  0  0  0
   -3.5733    0.3897    0.5611 C   0  0  0  0  0  0  0  0  0  0  0  0
   -3.0754   -0.7489    1.1880 C   0  0  0  0  0  0  0  0  0  0  0  0
   -3.7083   -1.6312    1.3343 H   0  0  0  0  0  0  0  0  0  0  0  0
   -1.7309   -0.8078    1.6427 C   0  0  0  0  0  0  0  0  0  0  0  0
    1.4015   -2.0299    3.3476 C   0  0  0  0  0  0  0  0  0  0  0  0
    1.3330   -1.6681    4.3957 H   0  0  0  0  0  0  0  0  0  0  0  0
    2.4141   -1.7928    2.9692 H   0  0  0  0  0  0  0  0  0  0  0  0
    1.2888   -3.1300    3.3525 H   0  0  0  0  0  0  0  0  0  0  0  0
    0.6494    3.7409    1.4249 C   0  0  0  0  0  0  0  0  0  0  0  0
    1.3067    4.5612    1.0792 H   0  0  0  0  0  0  0  0  0  0  0  0
    1.2182    3.1256    2.1484 H   0  0  0  0  0  0  0  0  0  0  0  0
   -0.2081    4.1951    1.9626 H   0  0  0  0  0  0  0  0  0  0  0  0
   -3.2697    3.7827    0.7193 C   0  0  0  0  0  0  0  0  0  0  0  0
   -3.6608    4.6340    0.1298 H   0  0  0  0  0  0  0  0  0  0  0  0
   -2.2781    4.0598    1.1385 H   0  0  0  0  0  0  0  0  0  0  0  0
   -3.9611    3.5796    1.5674 H   0  0  0  0  0  0  0  0  0  0  0  0
   -4.9969    0.3977   -0.0359 C   0  0  0  0  0  0  0  0  0  0  0  0
   -5.8809    1.4885    0.6099 C   0  0  0  0  0  0  0  0  0  0  0  0
   -5.9064    1.3768    1.7130 H   0  0  0  0  0  0  0  0  0  0  0  0
   -6.9221    1.3982    0.2369 H   0  0  0  0  0  0  0  0  0  0  0  0
   -5.5264    2.5047    0.3651 H   0  0  0  0  0  0  0  0  0  0  0  0
   -5.6999   -0.9571    0.1766 C   0  0  0  0  0  0  0  0  0  0  0  0
   -5.8523   -1.1841    1.2512 H   0  0  0  0  0  0  0  0  0  0  0  0
   -5.1334   -1.7940   -0.2786 H   0  0  0  0  0  0  0  0  0  0  0  0
   -6.6994   -0.9287   -0.3014 H   0  0  0  0  0  0  0  0  0  0  0  0
   -4.8922    0.6340   -1.5627 C   0  0  0  0  0  0  0  0  0  0  0  0
   -5.9030    0.6232   -2.0206 H   0  0  0  0  0  0  0  0  0  0  0  0
   -4.2954   -0.1707   -2.0400 H   0  0  0  0  0  0  0  0  0  0  0  0
   -4.4180    1.6070   -1.7880 H   0  0  0  0  0  0  0  0  0  0  0  0
  1 47  1  0  0  0  0
  1 57  1  0  0  0  0
  3 14  1  0  0  0  0
  4  3  1  0  0  0  0
  5 15  1  6  0  0  0
  5  3  1  0  0  0  0
  5  6  1  0  0  0  0
  6  7  1  0  0  0  0
  6  8  1  0  0  0  0
  8  9  1  0  0  0  0
  9 10  2  0  0  0  0
  9  1  1  0  0  0  0
 10  2  1  0  0  0  0
 11 10  1  0  0  0  0
 11 27  1  0  0  0  0
 12 11  2  0  0  0  0
 13 12  1  0  0  0  0
 14  8  2  0  0  0  0
 14 12  1  0  0  0  0
 15 17  1  0  0  0  0
 16 15  1  0  0  0  0
 18 15  1  0  0  0  0
 19 20  1  0  0  0  0
 19  1  1  0  0  0  0
 21 19  1  0  0  0  0
 22 19  1  0  0  0  0
 23 24  1  0  0  0  0
 23  2  1  0  0  0  0
 25 23  1  0  0  0  0
 26 23  1  0  0  0  0
 27 36  1  0  0  0  0
 28 31  1  0  0  0  0
 28 30  1  0  0  0  0
 28 27  1  0  0  0  0
 29 28  1  0  0  0  0
 32 27  1  0  0  0  0
 32 34  1  0  0  0  0
 32 35  1  0  0  0  0
 33 32  1  0  0  0  0
 36 39  1  0  0  0  0
 36 37  1  0  0  0  0
 36 38  1  0  0  0  0
 40 48  1  0  0  0  0
 40 61  1  0  0  0  0
 41 43  1  0  0  0  0
 41 42  1  0  0  0  0
 43 53  1  1  0  0  0
 44 43  1  0  0  0  0
 45 44  1  0  0  0  0
 46 52  1  0  0  0  0
 46 44  1  0  0  0  0
 47 46  2  0  0  0  0
 48 49  2  0  0  0  0
 48 47  1  0  0  0  0
 49 50  1  0  0  0  0
 50 51  1  0  0  0  0
 50 52  2  0  0  0  0
 52 41  1  0  0  0  0
 53 56  1  0  0  0  0
 53 54  1  0  0  0  0
 55 53  1  0  0  0  0
 57 60  1  0  0  0  0
 57 59  1  0  0  0  0
 58 57  1  0  0  0  0
 61 63  1  0  0  0  0
 61 64  1  0  0  0  0
 62 61  1  0  0  0  0
 65 70  1  0  0  0  0
 65 49  1  0  0  0  0
 65 66  1  0  0  0  0
 66 67  1  0  0  0  0
 68 66  1  0  0  0  0
 69 66  1  0  0  0  0
 70 71  1  0  0  0  0
 72 70  1  0  0  0  0
 73 70  1  0  0  0  0
 74 65  1  0  0  0  0
 75 74  1  0  0  0  0
 76 74  1  0  0  0  0
 77 74  1  0  0  0  0
M  END
