3,18,31,38
 OpenBabel05122313063D

 58 62  0  0  0  0  0  0  0  0999 V2000
    2.1516   -1.9461    1.2482 B   0  0  0  0  0  0  0  0  0  0  0  0
   -1.8514    1.5343    1.6777 B   0  0  0  0  0  0  0  0  0  0  0  0
   -1.9662    0.0561   -0.4217 C   0  0  0  0  0  2  0  0  0  0  0  0
   -3.9564    0.3406    0.5701 C   0  0  0  0  0  0  0  0  0  0  0  0
   -4.6655    0.7383    1.3009 H   0  0  0  0  0  0  0  0  0  0  0  0
   -4.1653   -0.5002   -0.4978 C   0  0  0  0  0  0  0  0  0  0  0  0
   -5.0756   -0.9630   -0.8909 H   0  0  0  0  0  0  0  0  0  0  0  0
   -2.5755   -1.5736   -2.1688 C   0  0  0  0  0  0  0  0  0  0  0  0
   -1.8355   -1.0722   -2.8182 H   0  0  0  0  0  0  0  0  0  0  0  0
   -3.4767   -1.7855   -2.7772 H   0  0  0  0  0  0  0  0  0  0  0  0
   -2.0318   -2.9056   -1.6467 C   0  0  0  0  0  0  0  0  0  0  0  0
   -2.8699   -3.5011   -1.2305 H   0  0  0  0  0  0  0  0  0  0  0  0
   -1.6263   -3.4734   -2.5133 H   0  0  0  0  0  0  0  0  0  0  0  0
   -0.8297   -3.9311    0.2416 C   0  0  0  0  0  0  0  0  0  0  0  0
   -1.4688   -4.8181    0.1974 H   0  0  0  0  0  0  0  0  0  0  0  0
    0.2555   -3.6388    1.0218 C   0  0  0  0  0  0  0  0  0  0  0  0
    0.7295   -4.2283    1.8106 H   0  0  0  0  0  0  0  0  0  0  0  0
   -0.0538   -1.8704   -0.3389 C   0  0  0  0  0  2  0  0  0  0  0  0
    2.0506   -1.6753    2.8462 C   0  0  0  0  0  0  0  0  0  0  0  0
    1.3408   -0.8668    3.1106 H   0  0  0  0  0  0  0  0  0  0  0  0
    3.0444   -1.3914    3.2549 H   0  0  0  0  0  0  0  0  0  0  0  0
    1.7371   -2.5857    3.4008 H   0  0  0  0  0  0  0  0  0  0  0  0
    3.2259   -3.1231    0.8737 C   0  0  0  0  0  0  0  0  0  0  0  0
    2.9693   -4.0906    1.3539 H   0  0  0  0  0  0  0  0  0  0  0  0
    4.2473   -2.8708    1.2296 H   0  0  0  0  0  0  0  0  0  0  0  0
    3.2908   -3.3022   -0.2215 H   0  0  0  0  0  0  0  0  0  0  0  0
    3.9094   -0.1702    0.5409 C   0  0  0  0  0  0  0  0  0  0  0  0
    4.6530   -0.6060    1.2132 H   0  0  0  0  0  0  0  0  0  0  0  0
    4.0404    0.8380   -0.3820 C   0  0  0  0  0  0  0  0  0  0  0  0
    4.9052    1.4388   -0.6794 H   0  0  0  0  0  0  0  0  0  0  0  0
    1.9010    0.0776   -0.4223 C   0  0  0  0  0  2  0  0  0  0  0  0
    2.4275    1.8885   -2.0381 C   0  0  0  0  0  0  0  0  0  0  0  0
    1.7434    1.3492   -2.7176 H   0  0  0  0  0  0  0  0  0  0  0  0
    3.3382    2.1486   -2.6129 H   0  0  0  0  0  0  0  0  0  0  0  0
    1.7880    3.1899   -1.5559 C   0  0  0  0  0  0  0  0  0  0  0  0
    2.5710    3.8478   -1.1258 H   0  0  0  0  0  0  0  0  0  0  0  0
    1.3736    3.7150   -2.4449 H   0  0  0  0  0  0  0  0  0  0  0  0
   -0.0402    1.9757   -0.2013 C   0  0  0  0  0  2  0  0  0  0  0  0
    0.4451    4.1499    0.2733 C   0  0  0  0  0  0  0  0  0  0  0  0
    0.9401    5.1189    0.1590 H   0  0  0  0  0  0  0  0  0  0  0  0
   -0.5406    3.7286    1.1259 C   0  0  0  0  0  0  0  0  0  0  0  0
   -1.0560    4.2681    1.9239 H   0  0  0  0  0  0  0  0  0  0  0  0
   -2.8926    2.4762    2.4885 C   0  0  0  0  0  0  0  0  0  0  0  0
   -3.4667    3.1789    1.8456 H   0  0  0  0  0  0  0  0  0  0  0  0
   -2.3786    3.0775    3.2679 H   0  0  0  0  0  0  0  0  0  0  0  0
   -3.6289    1.8553    3.0420 H   0  0  0  0  0  0  0  0  0  0  0  0
   -0.9945    0.5326    2.6226 C   0  0  0  0  0  0  0  0  0  0  0  0
   -1.6450   -0.1675    3.1888 H   0  0  0  0  0  0  0  0  0  0  0  0
   -0.3742    1.0837    3.3609 H   0  0  0  0  0  0  0  0  0  0  0  0
   -0.3017   -0.0895    2.0165 H   0  0  0  0  0  0  0  0  0  0  0  0
   -2.6125    0.6723    0.5966 N   0  0  0  0  0  0  0  0  0  0  0  0
    0.7571    3.0599   -0.5301 N   0  0  0  0  0  0  0  0  0  0  0  0
   -2.9223   -0.6646   -1.0973 N   0  0  0  0  0  0  0  0  0  0  0  0
   -1.0193   -2.8390   -0.5917 N   0  0  0  0  0  0  0  0  0  0  0  0
   -0.8310    2.4135    0.8254 N   0  0  0  0  0  0  0  0  0  0  0  0
    0.7393   -2.3985    0.6427 N   0  0  0  0  0  0  0  0  0  0  0  0
    2.6040   -0.6396    0.4858 N   0  0  0  0  0  0  0  0  0  0  0  0
    2.7918    0.9798   -0.9681 N   0  0  0  0  0  0  0  0  0  0  0  0
  1 19  1  0  0  0  0
  2 43  1  0  0  0  0
  2 47  1  0  0  0  0
  3 51  1  0  0  0  0
  4 51  1  0  0  0  0
  4  5  1  0  0  0  0
  6  4  2  0  0  0  0
  7  6  1  0  0  0  0
  8 11  1  0  0  0  0
  8 53  1  0  0  0  0
  9  8  1  0  0  0  0
 10  8  1  0  0  0  0
 11 12  1  0  0  0  0
 11 54  1  0  0  0  0
 13 11  1  0  0  0  0
 14 16  2  0  0  0  0
 15 14  1  0  0  0  0
 16 17  1  0  0  0  0
 18 56  1  0  0  0  0
 19 20  1  0  0  0  0
 19 21  1  0  0  0  0
 19 22  1  0  0  0  0
 23 25  1  0  0  0  0
 23  1  1  0  0  0  0
 23 24  1  0  0  0  0
 26 23  1  0  0  0  0
 27 28  1  0  0  0  0
 29 27  2  0  0  0  0
 30 29  1  0  0  0  0
 31 57  1  0  0  0  0
 32 35  1  0  0  0  0
 32 58  1  0  0  0  0
 33 32  1  0  0  0  0
 34 32  1  0  0  0  0
 35 36  1  0  0  0  0
 35 52  1  0  0  0  0
 37 35  1  0  0  0  0
 38 55  1  0  0  0  0
 39 41  2  0  0  0  0
 40 39  1  0  0  0  0
 41 42  1  0  0  0  0
 43 46  1  0  0  0  0
 43 45  1  0  0  0  0
 44 43  1  0  0  0  0
 47 48  1  0  0  0  0
 47 49  1  0  0  0  0
 50 47  1  0  0  0  0
 51  2  1  0  0  0  0
 52 38  1  0  0  0  0
 52 39  1  0  0  0  0
 53  6  1  0  0  0  0
 53  3  1  0  0  0  0
 54 18  1  0  0  0  0
 54 14  1  0  0  0  0
 55 41  1  0  0  0  0
 55  2  1  0  0  0  0
 56 16  1  0  0  0  0
 56  1  1  0  0  0  0
 57 27  1  0  0  0  0
 57  1  1  0  0  0  0
 58 31  1  0  0  0  0
 58 29  1  0  0  0  0
M  END
