17,20,32,35
 OpenBabel05122313063D

 46 51  0  0  0  0  0  0  0  0999 V2000
    2.4037    0.9994   -0.7682 C   0  0  0  0  0  0  0  0  0  0  0  0
    3.1235    1.7808   -1.6760 C   0  0  0  0  0  0  0  0  0  0  0  0
    2.5922    2.5539   -2.2509 H   0  0  0  0  0  0  0  0  0  0  0  0
    4.5322    1.6706   -1.7826 C   0  0  0  0  0  0  0  0  0  0  0  0
    5.0718    2.3018   -2.5046 H   0  0  0  0  0  0  0  0  0  0  0  0
    5.2309    0.8392   -0.9211 C   0  0  0  0  0  0  0  0  0  0  0  0
    6.3315    0.8147   -0.9329 H   0  0  0  0  0  0  0  0  0  0  0  0
    5.2309   -0.8393    0.9209 C   0  0  0  0  0  0  0  0  0  0  0  0
    6.3315   -0.8148    0.9327 H   0  0  0  0  0  0  0  0  0  0  0  0
    4.5323   -1.6706    1.7825 C   0  0  0  0  0  0  0  0  0  0  0  0
    5.0718   -2.3018    2.5044 H   0  0  0  0  0  0  0  0  0  0  0  0
    3.1235   -1.7808    1.6758 C   0  0  0  0  0  0  0  0  0  0  0  0
    2.5922   -2.5539    2.2508 H   0  0  0  0  0  0  0  0  0  0  0  0
    2.4037   -0.9994    0.7681 C   0  0  0  0  0  0  0  0  0  0  0  0
    3.0954   -0.0000   -0.0001 C   0  0  0  0  0  0  0  0  0  0  0  0
    4.5371   -0.0000   -0.0001 C   0  0  0  0  0  0  0  0  0  0  0  0
    0.5825    1.6607    0.9136 C   0  0  0  0  0  3  0  0  0  0  0  0
    1.1706    1.4489    1.8147 H   0  0  0  0  0  0  0  0  0  0  0  0
    1.0253    1.4142   -0.4342 C   0  0  0  0  0  3  0  0  0  0  0  0
    0.0078    1.8660   -1.3237 C   0  0  0  0  0  3  0  0  0  0  0  0
    0.0292    1.7834   -2.4166 H   0  0  0  0  0  0  0  0  0  0  0  0
   -2.2105    3.2065   -0.9086 C   0  0  0  0  0  0  0  0  0  0  0  0
   -2.5232    3.2466   -1.9613 H   0  0  0  0  0  0  0  0  0  0  0  0
   -2.9598    3.8089    0.0903 C   0  0  0  0  0  0  0  0  0  0  0  0
   -3.8853    4.3426   -0.1728 H   0  0  0  0  0  0  0  0  0  0  0  0
   -2.5584    3.7514    1.4593 C   0  0  0  0  0  0  0  0  0  0  0  0
   -3.1803    4.2486    2.2187 H   0  0  0  0  0  0  0  0  0  0  0  0
   -1.4181    3.0687    1.8494 C   0  0  0  0  0  0  0  0  0  0  0  0
   -1.1276    3.0009    2.9073 H   0  0  0  0  0  0  0  0  0  0  0  0
   -0.6236    2.4419    0.8485 C   0  0  0  0  0  0  0  0  0  0  0  0
   -1.0058    2.5378   -0.5464 C   0  0  0  0  0  0  0  0  0  0  0  0
    0.0079   -1.8660    1.3236 C   0  0  0  0  0  3  0  0  0  0  0  0
    0.0292   -1.7834    2.4165 H   0  0  0  0  0  0  0  0  0  0  0  0
    1.0252   -1.4141    0.4341 C   0  0  0  0  0  3  0  0  0  0  0  0
    0.5825   -1.6607   -0.9137 C   0  0  0  0  0  3  0  0  0  0  0  0
    1.1706   -1.4489   -1.8148 H   0  0  0  0  0  0  0  0  0  0  0  0
   -1.4181   -3.0686   -1.8495 C   0  0  0  0  0  0  0  0  0  0  0  0
   -1.1276   -3.0008   -2.9075 H   0  0  0  0  0  0  0  0  0  0  0  0
   -2.5585   -3.7513   -1.4595 C   0  0  0  0  0  0  0  0  0  0  0  0
   -3.1804   -4.2484   -2.2188 H   0  0  0  0  0  0  0  0  0  0  0  0
   -2.9598   -3.8088   -0.0904 C   0  0  0  0  0  0  0  0  0  0  0  0
   -3.8853   -4.3424    0.1726 H   0  0  0  0  0  0  0  0  0  0  0  0
   -2.2105   -3.2065    0.9084 C   0  0  0  0  0  0  0  0  0  0  0  0
   -2.5232   -3.2466    1.9611 H   0  0  0  0  0  0  0  0  0  0  0  0
   -1.0057   -2.5378    0.5463 C   0  0  0  0  0  0  0  0  0  0  0  0
   -0.6236   -2.4418   -0.8487 C   0  0  0  0  0  0  0  0  0  0  0  0
  1 19  1  0  0  0  0
  1 15  1  0  0  0  0
  2  1  2  0  0  0  0
  3  2  1  0  0  0  0
  4  2  1  0  0  0  0
  4  6  2  0  0  0  0
  5  4  1  0  0  0  0
  6 16  1  0  0  0  0
  7  6  1  0  0  0  0
  8  9  1  0  0  0  0
  8 10  1  0  0  0  0
 10 11  1  0  0  0  0
 12 10  2  0  0  0  0
 12 13  1  0  0  0  0
 14 12  1  0  0  0  0
 15 14  2  0  0  0  0
 16 15  1  0  0  0  0
 16  8  2  0  0  0  0
 17 18  1  0  0  0  0
 19 17  1  0  0  0  0
 20 31  1  0  0  0  0
 20 19  1  0  0  0  0
 21 20  1  0  0  0  0
 22 31  2  0  0  0  0
 22 24  1  0  0  0  0
 23 22  1  0  0  0  0
 24 26  2  0  0  0  0
 25 24  1  0  0  0  0
 26 28  1  0  0  0  0
 26 27  1  0  0  0  0
 28 29  1  0  0  0  0
 30 17  1  0  0  0  0
 30 28  2  0  0  0  0
 31 30  1  0  0  0  0
 32 33  1  0  0  0  0
 34 14  1  0  0  0  0
 34 32  1  0  0  0  0
 35 46  1  0  0  0  0
 35 34  1  0  0  0  0
 36 35  1  0  0  0  0
 37 39  2  0  0  0  0
 37 46  1  0  0  0  0
 38 37  1  0  0  0  0
 39 41  1  0  0  0  0
 40 39  1  0  0  0  0
 41 42  1  0  0  0  0
 41 43  2  0  0  0  0
 43 44  1  0  0  0  0
 45 43  1  0  0  0  0
 45 32  1  0  0  0  0
 46 45  2  0  0  0  0
M  END
