5,15,32,38
 OpenBabel05122313063D

 46 49  0  0  0  0  0  0  0  0999 V2000
    0.5915   -1.6561   -2.3770 N   0  0  0  0  0  0  0  0  0  0  0  0
   -0.1842    0.2560   -3.0755 N   0  0  0  0  0  0  0  0  0  0  0  0
   -1.2345    2.8468   -0.0876 N   0  0  0  0  0  0  0  0  0  0  0  0
    0.9206    2.7370    0.1191 N   0  0  0  0  0  0  0  0  0  0  0  0
    0.8186   -2.0692   -0.0616 C   0  0  0  0  0  3  0  0  0  0  0  0
    1.1872   -2.9383    0.9848 C   0  0  0  0  0  0  0  0  0  0  0  0
    1.0840   -2.6026    2.0293 H   0  0  0  0  0  0  0  0  0  0  0  0
    1.6833   -4.2307    0.7317 C   0  0  0  0  0  0  0  0  0  0  0  0
    1.9594   -4.8851    1.5738 H   0  0  0  0  0  0  0  0  0  0  0  0
    1.8275   -4.6967   -0.5863 C   0  0  0  0  0  0  0  0  0  0  0  0
    2.2162   -5.7075   -0.7814 H   0  0  0  0  0  0  0  0  0  0  0  0
    1.4725   -3.8654   -1.6608 C   0  0  0  0  0  0  0  0  0  0  0  0
    1.5829   -4.2184   -2.6979 H   0  0  0  0  0  0  0  0  0  0  0  0
    0.9808   -2.5844   -1.3764 C   0  0  0  0  0  0  0  0  0  0  0  0
    0.1585   -0.4221   -1.9308 C   0  0  0  0  0  2  0  0  0  0  0  0
    0.5175   -1.7461   -3.7594 C   0  0  0  0  0  0  0  0  0  0  0  0
    0.8210   -2.6374   -4.3143 H   0  0  0  0  0  0  0  0  0  0  0  0
    0.0235   -0.5442   -4.1997 C   0  0  0  0  0  0  0  0  0  0  0  0
   -0.1868   -0.1867   -5.2118 H   0  0  0  0  0  0  0  0  0  0  0  0
   -0.8271    1.5644   -3.0813 C   0  0  0  0  0  0  0  0  0  0  0  0
   -0.6421    2.0243   -4.0722 H   0  0  0  0  0  0  0  0  0  0  0  0
   -0.2982    2.1853   -2.3370 H   0  0  0  0  0  0  0  0  0  0  0  0
   -2.3406    1.4740   -2.7752 C   0  0  0  0  0  0  0  0  0  0  0  0
   -2.5241    0.5172   -2.2487 H   0  0  0  0  0  0  0  0  0  0  0  0
   -2.9002    1.4099   -3.7316 H   0  0  0  0  0  0  0  0  0  0  0  0
   -2.9336    2.5987   -1.9138 C   0  0  0  0  0  0  0  0  0  0  0  0
   -2.6353    3.6011   -2.2951 H   0  0  0  0  0  0  0  0  0  0  0  0
   -4.0391    2.5573   -2.0064 H   0  0  0  0  0  0  0  0  0  0  0  0
   -2.6147    2.4999   -0.4120 C   0  0  0  0  0  0  0  0  0  0  0  0
   -3.2759    3.1812    0.1612 H   0  0  0  0  0  0  0  0  0  0  0  0
   -2.7834    1.4678   -0.0474 H   0  0  0  0  0  0  0  0  0  0  0  0
   -0.2056    1.9450    0.0006 C   0  0  0  0  0  2  0  0  0  0  0  0
   -0.7625    4.1572   -0.0318 C   0  0  0  0  0  0  0  0  0  0  0  0
   -1.4310    5.0221   -0.0812 H   0  0  0  0  0  0  0  0  0  0  0  0
    0.6008    4.0864    0.1036 C   0  0  0  0  0  0  0  0  0  0  0  0
    1.3481    4.8783    0.1987 H   0  0  0  0  0  0  0  0  0  0  0  0
    2.1891    2.0860    0.1592 C   0  0  0  0  0  0  0  0  0  0  0  0
    2.1054    0.6729    0.0482 C   0  0  0  0  0  3  0  0  0  0  0  0
    3.3411   -0.0096    0.0668 C   0  0  0  0  0  0  0  0  0  0  0  0
    3.3437   -1.1085   -0.0135 H   0  0  0  0  0  0  0  0  0  0  0  0
    4.5662    0.6721    0.1935 C   0  0  0  0  0  0  0  0  0  0  0  0
    5.5107    0.1048    0.2020 H   0  0  0  0  0  0  0  0  0  0  0  0
    4.5954    2.0719    0.3091 C   0  0  0  0  0  0  0  0  0  0  0  0
    5.5526    2.6051    0.4119 H   0  0  0  0  0  0  0  0  0  0  0  0
    3.3919    2.7953    0.2926 C   0  0  0  0  0  0  0  0  0  0  0  0
    3.4058    3.8926    0.3844 H   0  0  0  0  0  0  0  0  0  0  0  0
  1 15  1  0  0  0  0
  1 14  1  0  0  0  0
  2 15  1  0  0  0  0
  3 33  1  0  0  0  0
  3 32  1  0  0  0  0
  4 37  1  0  0  0  0
  5  6  1  0  0  0  0
  6  7  1  0  0  0  0
  8  6  2  0  0  0  0
  8  9  1  0  0  0  0
 10  8  1  0  0  0  0
 11 10  1  0  0  0  0
 12 14  1  0  0  0  0
 12 10  2  0  0  0  0
 13 12  1  0  0  0  0
 14  5  2  0  0  0  0
 16  1  1  0  0  0  0
 17 16  1  0  0  0  0
 18 16  2  0  0  0  0
 18  2  1  0  0  0  0
 19 18  1  0  0  0  0
 20  2  1  0  0  0  0
 20 23  1  0  0  0  0
 20 22  1  0  0  0  0
 21 20  1  0  0  0  0
 23 24  1  0  0  0  0
 23 26  1  0  0  0  0
 25 23  1  0  0  0  0
 26 29  1  0  0  0  0
 27 26  1  0  0  0  0
 28 26  1  0  0  0  0
 29  3  1  0  0  0  0
 29 31  1  0  0  0  0
 29 30  1  0  0  0  0
 32  4  1  0  0  0  0
 33 35  2  0  0  0  0
 34 33  1  0  0  0  0
 35  4  1  0  0  0  0
 35 36  1  0  0  0  0
 37 45  1  0  0  0  0
 38 39  1  0  0  0  0
 38 37  2  0  0  0  0
 39 41  2  0  0  0  0
 40 39  1  0  0  0  0
 41 42  1  0  0  0  0
 41 43  1  0  0  0  0
 43 44  1  0  0  0  0
 45 43  2  0  0  0  0
 45 46  1  0  0  0  0
M  END
