2,5,39,42
 OpenBabel05122313063D

 74 79  0  0  1  0  0  0  0  0999 V2000
   -1.1945    2.4532    0.5930 C   0  0  2  0  0  3  0  0  0  0  0  0
   -2.0418    1.6476   -0.2296 C   0  0  0  0  0  3  0  0  0  0  0  0
   -2.4360    0.4619    0.4768 C   0  0  0  0  0  0  0  0  0  0  0  0
   -1.7290    0.4942    1.7046 C   0  0  0  0  0  0  0  0  0  0  0  0
   -0.9565    1.6966    1.7975 C   0  0  2  0  0  3  0  0  0  0  0  0
   -0.1721    2.0235    3.0355 C   0  0  0  0  0  0  0  0  0  0  0  0
   -3.4830   -0.4771    0.0349 C   0  0  0  0  0  0  0  0  0  0  0  0
   -4.5520    0.0611   -0.6898 C   0  0  0  0  0  0  0  0  0  0  0  0
   -5.6649   -0.7211   -1.0790 C   0  0  0  0  0  0  0  0  0  0  0  0
   -5.7228   -2.0607   -0.7333 C   0  0  0  0  0  0  0  0  0  0  0  0
   -4.6538   -2.6696   -0.0143 C   0  0  0  0  0  0  0  0  0  0  0  0
   -4.6963   -4.0558    0.3200 C   0  0  0  0  0  0  0  0  0  0  0  0
   -3.6408   -4.6649    0.9793 C   0  0  0  0  0  0  0  0  0  0  0  0
   -2.4900   -3.9053    1.3124 C   0  0  0  0  0  0  0  0  0  0  0  0
   -2.4204   -2.5524    1.0106 C   0  0  0  0  0  0  0  0  0  0  0  0
   -3.5006   -1.8835    0.3634 C   0  0  0  0  0  0  0  0  0  0  0  0
   -0.7679    3.8853    0.2415 C   0  0  0  0  0  0  0  0  0  0  0  0
   -1.7202    4.4291   -0.8475 C   0  0  0  0  0  0  0  0  0  0  0  0
   -1.0147    4.7925    1.4687 C   0  0  0  0  0  0  0  0  0  0  0  0
   -2.3817    1.8989   -1.2389 H   0  0  0  0  0  0  0  0  0  0  0  0
   -1.7692   -0.2664    2.4900 H   0  0  0  0  0  0  0  0  0  0  0  0
    0.7001    2.6717    2.8418 H   0  0  0  0  0  0  0  0  0  0  0  0
    0.2063    1.0877    3.4901 H   0  0  0  0  0  0  0  0  0  0  0  0
   -0.8114    2.5381    3.7839 H   0  0  0  0  0  0  0  0  0  0  0  0
   -4.5470    1.1349   -0.9277 H   0  0  0  0  0  0  0  0  0  0  0  0
   -6.4884   -0.2529   -1.6389 H   0  0  0  0  0  0  0  0  0  0  0  0
   -6.5913   -2.6774   -1.0126 H   0  0  0  0  0  0  0  0  0  0  0  0
   -5.5864   -4.6364    0.0306 H   0  0  0  0  0  0  0  0  0  0  0  0
   -3.6854   -5.7364    1.2273 H   0  0  0  0  0  0  0  0  0  0  0  0
   -1.6316   -4.3911    1.8008 H   0  0  0  0  0  0  0  0  0  0  0  0
   -1.4942   -2.0109    1.2390 H   0  0  0  0  0  0  0  0  0  0  0  0
   -1.6423    3.8962   -1.8117 H   0  0  0  0  0  0  0  0  0  0  0  0
   -1.5212    5.4995   -1.0428 H   0  0  0  0  0  0  0  0  0  0  0  0
   -2.7694    4.3405   -0.5042 H   0  0  0  0  0  0  0  0  0  0  0  0
   -0.4259    4.5099    2.3566 H   0  0  0  0  0  0  0  0  0  0  0  0
   -2.0854    4.7469    1.7521 H   0  0  0  0  0  0  0  0  0  0  0  0
   -0.7790    5.8481    1.2263 H   0  0  0  0  0  0  0  0  0  0  0  0
    1.1947    2.4532   -0.5929 C   0  0  2  0  0  3  0  0  0  0  0  0
    2.0418    1.6475    0.2298 C   0  0  0  0  0  3  0  0  0  0  0  0
    2.4361    0.4618   -0.4766 C   0  0  0  0  0  0  0  0  0  0  0  0
    1.7293    0.4943   -1.7046 C   0  0  0  0  0  0  0  0  0  0  0  0
    0.9569    1.6966   -1.7975 C   0  0  2  0  0  3  0  0  0  0  0  0
    0.7681    3.8853   -0.2414 C   0  0  0  0  0  0  0  0  0  0  0  0
    2.3816    1.8987    1.2391 H   0  0  0  0  0  0  0  0  0  0  0  0
    3.4830   -0.4773   -0.0347 C   0  0  0  0  0  0  0  0  0  0  0  0
    1.7695   -0.2663   -2.4900 H   0  0  0  0  0  0  0  0  0  0  0  0
    0.1726    2.0237   -3.0356 C   0  0  0  0  0  0  0  0  0  0  0  0
    1.7205    4.4290    0.8476 C   0  0  0  0  0  0  0  0  0  0  0  0
    1.0150    4.7925   -1.4685 C   0  0  0  0  0  0  0  0  0  0  0  0
    4.5519    0.0607    0.6902 C   0  0  0  0  0  0  0  0  0  0  0  0
    3.5004   -1.8837   -0.3633 C   0  0  0  0  0  0  0  0  0  0  0  0
   -0.6998    2.6716   -2.8418 H   0  0  0  0  0  0  0  0  0  0  0  0
   -0.2054    1.0880   -3.4905 H   0  0  0  0  0  0  0  0  0  0  0  0
    0.8119    2.5387   -3.7837 H   0  0  0  0  0  0  0  0  0  0  0  0
    1.6426    3.8962    1.8118 H   0  0  0  0  0  0  0  0  0  0  0  0
    1.5216    5.4995    1.0429 H   0  0  0  0  0  0  0  0  0  0  0  0
    2.7697    4.3404    0.5043 H   0  0  0  0  0  0  0  0  0  0  0  0
    0.4262    4.5100   -2.3565 H   0  0  0  0  0  0  0  0  0  0  0  0
    2.0856    4.7469   -1.7519 H   0  0  0  0  0  0  0  0  0  0  0  0
    0.7793    5.8481   -1.2261 H   0  0  0  0  0  0  0  0  0  0  0  0
    5.6647   -0.7216    1.0794 C   0  0  0  0  0  0  0  0  0  0  0  0
    4.5470    1.1344    0.9282 H   0  0  0  0  0  0  0  0  0  0  0  0
    4.6536   -2.6699    0.0144 C   0  0  0  0  0  0  0  0  0  0  0  0
    2.4202   -2.5525   -1.0106 C   0  0  0  0  0  0  0  0  0  0  0  0
    5.7225   -2.0612    0.7335 C   0  0  0  0  0  0  0  0  0  0  0  0
    6.4882   -0.2536    1.6394 H   0  0  0  0  0  0  0  0  0  0  0  0
    4.6959   -4.0562   -0.3201 C   0  0  0  0  0  0  0  0  0  0  0  0
    2.4897   -3.9053   -1.3126 C   0  0  0  0  0  0  0  0  0  0  0  0
    1.4940   -2.0109   -1.2390 H   0  0  0  0  0  0  0  0  0  0  0  0
    6.5910   -2.6780    1.0128 H   0  0  0  0  0  0  0  0  0  0  0  0
    3.6404   -4.6651   -0.9795 C   0  0  0  0  0  0  0  0  0  0  0  0
    5.5860   -4.6368   -0.0307 H   0  0  0  0  0  0  0  0  0  0  0  0
    1.6313   -4.3910   -1.8010 H   0  0  0  0  0  0  0  0  0  0  0  0
    3.6849   -5.7365   -1.2275 H   0  0  0  0  0  0  0  0  0  0  0  0
  1 17  1  1  0  0  0
  1  5  1  0  0  0  0
  2  3  1  0  0  0  0
  2  1  1  0  0  0  0
  3  4  2  0  0  0  0
  4  5  1  0  0  0  0
  4 21  1  0  0  0  0
  5  6  1  1  0  0  0
  6 23  1  0  0  0  0
  6 24  1  0  0  0  0
  7 16  1  0  0  0  0
  7  3  1  0  0  0  0
  8  7  2  0  0  0  0
  9 10  2  0  0  0  0
  9  8  1  0  0  0  0
 10 11  1  0  0  0  0
 11 12  2  0  0  0  0
 11 16  1  0  0  0  0
 12 13  1  0  0  0  0
 13 29  1  0  0  0  0
 13 14  2  0  0  0  0
 14 30  1  0  0  0  0
 15 31  1  0  0  0  0
 15 14  1  0  0  0  0
 16 15  2  0  0  0  0
 17 19  1  0  0  0  0
 18 34  1  0  0  0  0
 18 17  1  0  0  0  0
 19 36  1  0  0  0  0
 19 35  1  0  0  0  0
 20  2  1  0  0  0  0
 22  6  1  0  0  0  0
 25  8  1  0  0  0  0
 26  9  1  0  0  0  0
 27 10  1  0  0  0  0
 28 12  1  0  0  0  0
 32 18  1  0  0  0  0
 33 18  1  0  0  0  0
 37 19  1  0  0  0  0
 38 43  1  6  0  0  0
 38 39  1  0  0  0  0
 39 44  1  0  0  0  0
 40 45  1  0  0  0  0
 40 39  1  0  0  0  0
 41 40  2  0  0  0  0
 42 47  1  6  0  0  0
 42 41  1  0  0  0  0
 42 38  1  0  0  0  0
 43 17  1  0  0  0  0
 43 48  1  0  0  0  0
 45 50  1  0  0  0  0
 46 41  1  0  0  0  0
 47 52  1  0  0  0  0
 48 56  1  0  0  0  0
 48 55  1  0  0  0  0
 49 60  1  0  0  0  0
 49 43  1  0  0  0  0
 50 62  1  0  0  0  0
 50 61  2  0  0  0  0
 51 45  2  0  0  0  0
 51 63  1  0  0  0  0
 53 47  1  0  0  0  0
 54 47  1  0  0  0  0
 57 48  1  0  0  0  0
 58 49  1  0  0  0  0
 59 49  1  0  0  0  0
 61 66  1  0  0  0  0
 63 65  2  0  0  0  0
 64 51  1  0  0  0  0
 65 70  1  0  0  0  0
 65 61  1  0  0  0  0
 67 72  1  0  0  0  0
 67 63  1  0  0  0  0
 68 64  2  0  0  0  0
 68 71  1  0  0  0  0
 69 64  1  0  0  0  0
 71 67  2  0  0  0  0
 73 68  1  0  0  0  0
 74 71  1  0  0  0  0
M  END
