7,47,49
 OpenBabel05122313063D

 76 77  0  0  1  0  0  0  0  0999 V2000
   -2.9036    0.7402   -0.1407 Si  0  0  0  0  0  0  0  0  0  0  0  0
   -1.7098   -1.7991    0.7850 C   0  0  0  0  0  0  0  0  0  0  0  0
   -0.5888   -2.1611    1.6069 C   0  0  0  0  0  0  0  0  0  0  0  0
   -0.2434   -1.0256    2.3989 C   0  0  0  0  0  0  0  0  0  0  0  0
   -1.1850    0.0167    2.1202 C   0  0  0  0  0  0  0  0  0  0  0  0
   -2.0953   -0.4443    1.1048 C   0  0  1  0  0  3  0  0  0  0  0  0
   -1.2515    1.3353   -0.7919 C   0  0  0  0  0  3  0  0  0  0  0  0
   -0.7677    2.6388   -0.1084 C   0  0  2  0  0  0  0  0  0  0  0  0
   -1.2643    3.8691   -0.8842 C   0  0  0  0  0  0  0  0  0  0  0  0
   -2.5175   -2.7603   -0.0456 C   0  0  0  0  0  0  0  0  0  0  0  0
   -0.0789   -3.5499    1.8495 C   0  0  0  0  0  0  0  0  0  0  0  0
    0.7896   -0.9708    3.4821 C   0  0  0  0  0  0  0  0  0  0  0  0
   -1.3036    1.2460    2.9730 C   0  0  0  0  0  0  0  0  0  0  0  0
   -3.9647   -0.1436   -1.4403 C   0  0  0  0  0  0  0  0  0  0  0  0
   -4.0438    2.0256    0.6746 C   0  0  0  0  0  0  0  0  0  0  0  0
   -1.0418    4.8220   -0.3611 H   0  0  0  0  0  0  0  0  0  0  0  0
   -2.3611    3.8207   -1.0399 H   0  0  0  0  0  0  0  0  0  0  0  0
   -0.7890    3.9159   -1.8878 H   0  0  0  0  0  0  0  0  0  0  0  0
   -2.1251   -3.7903    0.0326 H   0  0  0  0  0  0  0  0  0  0  0  0
   -2.5520   -2.4987   -1.1194 H   0  0  0  0  0  0  0  0  0  0  0  0
   -3.5683   -2.7768    0.3094 H   0  0  0  0  0  0  0  0  0  0  0  0
    0.9468   -3.5578    2.2610 H   0  0  0  0  0  0  0  0  0  0  0  0
   -0.0807   -4.1823    0.9436 H   0  0  0  0  0  0  0  0  0  0  0  0
   -0.7303   -4.0556    2.5958 H   0  0  0  0  0  0  0  0  0  0  0  0
    0.3186   -1.0865    4.4832 H   0  0  0  0  0  0  0  0  0  0  0  0
    1.3254   -0.0006    3.4909 H   0  0  0  0  0  0  0  0  0  0  0  0
    1.5451   -1.7743    3.3838 H   0  0  0  0  0  0  0  0  0  0  0  0
   -1.5313    0.9456    4.0191 H   0  0  0  0  0  0  0  0  0  0  0  0
   -2.1216    1.9074    2.6389 H   0  0  0  0  0  0  0  0  0  0  0  0
   -0.3695    1.8423    3.0085 H   0  0  0  0  0  0  0  0  0  0  0  0
   -4.4387    0.6287   -2.0817 H   0  0  0  0  0  0  0  0  0  0  0  0
   -4.7760   -0.7456   -0.9830 H   0  0  0  0  0  0  0  0  0  0  0  0
   -3.3719   -0.8034   -2.1010 H   0  0  0  0  0  0  0  0  0  0  0  0
   -3.4993    2.7800    1.2753 H   0  0  0  0  0  0  0  0  0  0  0  0
   -4.7730    1.5202    1.3417 H   0  0  0  0  0  0  0  0  0  0  0  0
   -4.6168    2.5706   -0.1042 H   0  0  0  0  0  0  0  0  0  0  0  0
   -1.1859    1.4249   -1.8945 H   0  0  0  0  0  0  0  0  0  0  0  0
   -1.2096    2.6982    0.9092 H   0  0  0  0  0  0  0  0  0  0  0  0
    1.7097   -1.7991   -0.7850 C   0  0  0  0  0  0  0  0  0  0  0  0
    0.5888   -2.1611   -1.6069 C   0  0  0  0  0  0  0  0  0  0  0  0
    0.2433   -1.0255   -2.3989 C   0  0  0  0  0  0  0  0  0  0  0  0
    0.0788   -3.5499   -1.8495 C   0  0  0  0  0  0  0  0  0  0  0  0
   -0.9469   -3.5577   -2.2610 H   0  0  0  0  0  0  0  0  0  0  0  0
    0.0807   -4.1823   -0.9437 H   0  0  0  0  0  0  0  0  0  0  0  0
    0.7302   -4.0556   -2.5958 H   0  0  0  0  0  0  0  0  0  0  0  0
    1.1850    0.0167   -2.1202 C   0  0  0  0  0  0  0  0  0  0  0  0
    2.0953   -0.4443   -1.1048 C   0  0  1  0  0  3  0  0  0  0  0  0
    2.9036    0.7402    0.1407 Si  0  0  0  0  0  0  0  0  0  0  0  0
    1.2515    1.3353    0.7919 C   0  0  0  0  0  3  0  0  0  0  0  0
    0.7678    2.6388    0.1084 C   0  0  2  0  0  0  0  0  0  0  0  0
    1.2644    3.8690    0.8842 C   0  0  0  0  0  0  0  0  0  0  0  0
    1.0419    4.8220    0.3611 H   0  0  0  0  0  0  0  0  0  0  0  0
    2.3612    3.8206    1.0400 H   0  0  0  0  0  0  0  0  0  0  0  0
    0.7891    3.9159    1.8879 H   0  0  0  0  0  0  0  0  0  0  0  0
    1.2097    2.6982   -0.9091 H   0  0  0  0  0  0  0  0  0  0  0  0
    1.1860    1.4249    1.8945 H   0  0  0  0  0  0  0  0  0  0  0  0
    3.9647   -0.1437    1.4403 C   0  0  0  0  0  0  0  0  0  0  0  0
    4.4387    0.6286    2.0817 H   0  0  0  0  0  0  0  0  0  0  0  0
    4.7760   -0.7457    0.9830 H   0  0  0  0  0  0  0  0  0  0  0  0
    3.3719   -0.8035    2.1010 H   0  0  0  0  0  0  0  0  0  0  0  0
    4.0438    2.0255   -0.6745 C   0  0  0  0  0  0  0  0  0  0  0  0
    3.4994    2.7799   -1.2753 H   0  0  0  0  0  0  0  0  0  0  0  0
    4.7731    1.5201   -1.3417 H   0  0  0  0  0  0  0  0  0  0  0  0
    4.6169    2.5705    0.1042 H   0  0  0  0  0  0  0  0  0  0  0  0
    2.5175   -2.7604    0.0455 C   0  0  0  0  0  0  0  0  0  0  0  0
    2.1250   -3.7903   -0.0327 H   0  0  0  0  0  0  0  0  0  0  0  0
    2.5519   -2.4988    1.1193 H   0  0  0  0  0  0  0  0  0  0  0  0
    3.5682   -2.7769   -0.3094 H   0  0  0  0  0  0  0  0  0  0  0  0
    1.3037    1.2460   -2.9730 C   0  0  0  0  0  0  0  0  0  0  0  0
    1.5313    0.9456   -4.0191 H   0  0  0  0  0  0  0  0  0  0  0  0
    2.1217    1.9073   -2.6389 H   0  0  0  0  0  0  0  0  0  0  0  0
    0.3696    1.8423   -3.0084 H   0  0  0  0  0  0  0  0  0  0  0  0
   -0.7896   -0.9707   -3.4821 C   0  0  0  0  0  0  0  0  0  0  0  0
   -0.3187   -1.0865   -4.4832 H   0  0  0  0  0  0  0  0  0  0  0  0
   -1.3254   -0.0005   -3.4908 H   0  0  0  0  0  0  0  0  0  0  0  0
   -1.5452   -1.7742   -3.3838 H   0  0  0  0  0  0  0  0  0  0  0  0
  1 15  1  0  0  0  0
  2  6  1  0  0  0  0
  2  3  2  0  0  0  0
  3 11  1  0  0  0  0
  3  4  1  0  0  0  0
  4 12  1  0  0  0  0
  5  4  2  0  0  0  0
  5 13  1  0  0  0  0
  6  1  1  6  0  0  0
  6  5  1  0  0  0  0
  7  1  1  0  0  0  0
  7  8  1  0  0  0  0
  8 50  1  0  0  0  0
  8 38  1  1  0  0  0
  9 16  1  0  0  0  0
  9  8  1  0  0  0  0
 10 19  1  0  0  0  0
 10 21  1  0  0  0  0
 10  2  1  0  0  0  0
 11 22  1  0  0  0  0
 11 24  1  0  0  0  0
 12 26  1  0  0  0  0
 12 25  1  0  0  0  0
 13 30  1  0  0  0  0
 13 28  1  0  0  0  0
 14 32  1  0  0  0  0
 14  1  1  0  0  0  0
 15 34  1  0  0  0  0
 15 35  1  0  0  0  0
 17  9  1  0  0  0  0
 18  9  1  0  0  0  0
 20 10  1  0  0  0  0
 23 11  1  0  0  0  0
 27 12  1  0  0  0  0
 29 13  1  0  0  0  0
 31 14  1  0  0  0  0
 33 14  1  0  0  0  0
 36 15  1  0  0  0  0
 37  7  1  0  0  0  0
 39 65  1  0  0  0  0
 40 39  2  0  0  0  0
 41 46  2  0  0  0  0
 41 40  1  0  0  0  0
 42 40  1  0  0  0  0
 42 44  1  0  0  0  0
 43 42  1  0  0  0  0
 45 42  1  0  0  0  0
 46 47  1  0  0  0  0
 47 39  1  0  0  0  0
 47 48  1  1  0  0  0
 48 49  1  0  0  0  0
 48 57  1  0  0  0  0
 49 56  1  0  0  0  0
 50 55  1  6  0  0  0
 50 49  1  0  0  0  0
 50 51  1  0  0  0  0
 51 53  1  0  0  0  0
 51 54  1  0  0  0  0
 52 51  1  0  0  0  0
 57 58  1  0  0  0  0
 57 60  1  0  0  0  0
 59 57  1  0  0  0  0
 61 64  1  0  0  0  0
 61 48  1  0  0  0  0
 62 61  1  0  0  0  0
 63 61  1  0  0  0  0
 65 67  1  0  0  0  0
 66 65  1  0  0  0  0
 68 65  1  0  0  0  0
 69 71  1  0  0  0  0
 69 46  1  0  0  0  0
 70 69  1  0  0  0  0
 72 69  1  0  0  0  0
 73 76  1  0  0  0  0
 73 41  1  0  0  0  0
 74 73  1  0  0  0  0
 75 73  1  0  0  0  0
M  END
