3,8,16,18
 OpenBabel05122313063D

 70 71  0  0  1  0  0  0  0  0999 V2000
   -2.7343   -1.2545   -0.3722 Si  0  0  0  0  0  0  0  0  0  0  0  0
    2.7343   -1.2546    0.3721 Si  0  0  0  0  0  0  0  0  0  0  0  0
    1.9295    1.4800   -0.3761 C   0  0  1  0  0  3  0  0  0  0  0  0
    0.9956    2.0664   -1.2981 C   0  0  0  0  0  0  0  0  0  0  0  0
    0.6464    1.0714   -2.2562 C   0  0  0  0  0  0  0  0  0  0  0  0
    1.4283   -0.0986   -1.9926 C   0  0  2  0  0  3  0  0  0  0  0  0
    2.2227    0.1317   -0.8172 C   0  0  2  0  0  3  0  0  0  0  0  0
    1.0222   -1.5092    1.0827 C   0  0  0  0  0  3  0  0  0  0  0  0
    1.0426   -1.3443    2.1809 H   0  0  0  0  0  0  0  0  0  0  0  0
    0.2472   -2.7904    0.7261 C   0  0  0  0  0  0  0  0  0  0  0  0
    0.8556   -3.7092    0.9103 H   0  0  0  0  0  0  0  0  0  0  0  0
   -0.6307   -2.8918    1.3962 H   0  0  0  0  0  0  0  0  0  0  0  0
   -0.2474   -2.7903   -0.7263 C   0  0  0  0  0  0  0  0  0  0  0  0
   -0.8558   -3.7091   -0.9106 H   0  0  0  0  0  0  0  0  0  0  0  0
    0.6306   -2.8917   -1.3964 H   0  0  0  0  0  0  0  0  0  0  0  0
   -1.0223   -1.5091   -1.0828 C   0  0  0  0  0  3  0  0  0  0  0  0
   -1.0427   -1.3441   -2.1810 H   0  0  0  0  0  0  0  0  0  0  0  0
   -1.9294    1.4800    0.3762 C   0  0  1  0  0  3  0  0  0  0  0  0
   -0.9955    2.0663    1.2983 C   0  0  2  0  0  3  0  0  0  0  0  0
   -0.6463    1.0713    2.2562 C   0  0  0  0  0  0  0  0  0  0  0  0
   -1.4283   -0.0986    1.9926 C   0  0  0  0  0  0  0  0  0  0  0  0
   -2.2227    0.1318    0.8172 C   0  0  2  0  0  3  0  0  0  0  0  0
    2.6325    2.2154    0.7346 C   0  0  0  0  0  0  0  0  0  0  0  0
    2.4349    3.3030    0.6813 H   0  0  0  0  0  0  0  0  0  0  0  0
    3.7292    2.0763    0.6624 H   0  0  0  0  0  0  0  0  0  0  0  0
    2.3324    1.8762    1.7457 H   0  0  0  0  0  0  0  0  0  0  0  0
    0.6587    3.5192   -1.4571 C   0  0  0  0  0  0  0  0  0  0  0  0
    1.0148    4.1334   -0.6123 H   0  0  0  0  0  0  0  0  0  0  0  0
   -0.4264    3.7007   -1.5748 H   0  0  0  0  0  0  0  0  0  0  0  0
    1.1493    3.9093   -2.3750 H   0  0  0  0  0  0  0  0  0  0  0  0
   -0.2299    1.2548   -3.4579 C   0  0  0  0  0  0  0  0  0  0  0  0
   -0.7705    2.2199   -3.4405 H   0  0  0  0  0  0  0  0  0  0  0  0
   -0.9822    0.4430   -3.5461 H   0  0  0  0  0  0  0  0  0  0  0  0
    0.3706    1.2291   -4.3935 H   0  0  0  0  0  0  0  0  0  0  0  0
    1.5578   -1.2129   -2.9866 C   0  0  0  0  0  0  0  0  0  0  0  0
    0.5804   -1.6556   -3.2679 H   0  0  0  0  0  0  0  0  0  0  0  0
    2.2205   -2.0196   -2.6313 H   0  0  0  0  0  0  0  0  0  0  0  0
    2.0044   -0.8108   -3.9221 H   0  0  0  0  0  0  0  0  0  0  0  0
   -2.6324    2.2155   -0.7345 C   0  0  0  0  0  0  0  0  0  0  0  0
   -2.4344    3.3031   -0.6813 H   0  0  0  0  0  0  0  0  0  0  0  0
   -3.7291    2.0767   -0.6621 H   0  0  0  0  0  0  0  0  0  0  0  0
   -2.3326    1.8761   -1.7455 H   0  0  0  0  0  0  0  0  0  0  0  0
   -0.6584    3.5191    1.4572 C   0  0  0  0  0  0  0  0  0  0  0  0
   -1.1491    3.9092    2.3752 H   0  0  0  0  0  0  0  0  0  0  0  0
   -1.0146    4.1334    0.6125 H   0  0  0  0  0  0  0  0  0  0  0  0
    0.4266    3.7006    1.5749 H   0  0  0  0  0  0  0  0  0  0  0  0
    0.2300    1.2545    3.4579 C   0  0  0  0  0  0  0  0  0  0  0  0
    0.7700    2.2200    3.4410 H   0  0  0  0  0  0  0  0  0  0  0  0
    0.9829    0.4431    3.5456 H   0  0  0  0  0  0  0  0  0  0  0  0
   -0.3703    1.2279    4.3936 H   0  0  0  0  0  0  0  0  0  0  0  0
   -1.5578   -1.2130    2.9865 C   0  0  0  0  0  0  0  0  0  0  0  0
   -2.0044   -0.8109    3.9221 H   0  0  0  0  0  0  0  0  0  0  0  0
   -0.5805   -1.6557    3.2678 H   0  0  0  0  0  0  0  0  0  0  0  0
   -2.2206   -2.0197    2.6313 H   0  0  0  0  0  0  0  0  0  0  0  0
    3.5252   -2.7607   -0.4730 C   0  0  0  0  0  0  0  0  0  0  0  0
    3.9288   -3.4387    0.3077 H   0  0  0  0  0  0  0  0  0  0  0  0
    4.3684   -2.4602   -1.1287 H   0  0  0  0  0  0  0  0  0  0  0  0
    2.8061   -3.3473   -1.0771 H   0  0  0  0  0  0  0  0  0  0  0  0
    3.9762   -0.6654    1.6812 C   0  0  0  0  0  0  0  0  0  0  0  0
    3.5434    0.0814    2.3743 H   0  0  0  0  0  0  0  0  0  0  0  0
    4.8848   -0.2234    1.2225 H   0  0  0  0  0  0  0  0  0  0  0  0
    4.2946   -1.5391    2.2875 H   0  0  0  0  0  0  0  0  0  0  0  0
   -3.5253   -2.7606    0.4729 C   0  0  0  0  0  0  0  0  0  0  0  0
   -3.9289   -3.4385   -0.3079 H   0  0  0  0  0  0  0  0  0  0  0  0
   -4.3685   -2.4601    1.1286 H   0  0  0  0  0  0  0  0  0  0  0  0
   -2.8062   -3.3473    1.0769 H   0  0  0  0  0  0  0  0  0  0  0  0
   -3.9763   -0.6651   -1.6811 C   0  0  0  0  0  0  0  0  0  0  0  0
   -3.5435    0.0816   -2.3744 H   0  0  0  0  0  0  0  0  0  0  0  0
   -4.8848   -0.2229   -1.2223 H   0  0  0  0  0  0  0  0  0  0  0  0
   -4.2949   -1.5388   -2.2873 H   0  0  0  0  0  0  0  0  0  0  0  0
  1 63  1  0  0  0  0
  2  8  1  0  0  0  0
  2 59  1  0  0  0  0
  3 23  1  6  0  0  0
  4  3  1  0  0  0  0
  5  6  1  0  0  0  0
  5  4  2  0  0  0  0
  6 35  1  6  0  0  0
  6  7  1  0  0  0  0
  7  3  1  0  0  0  0
  7  2  1  1  0  0  0
  8  9  1  0  0  0  0
 10 11  1  0  0  0  0
 10  8  1  0  0  0  0
 10 12  1  0  0  0  0
 13 10  1  0  0  0  0
 14 13  1  0  0  0  0
 15 13  1  0  0  0  0
 16 13  1  0  0  0  0
 16  1  1  0  0  0  0
 17 16  1  0  0  0  0
 18 39  1  1  0  0  0
 18 22  1  0  0  0  0
 18 19  1  0  0  0  0
 19 43  1  1  0  0  0
 19 20  1  0  0  0  0
 20 47  1  0  0  0  0
 21 20  2  0  0  0  0
 21 51  1  0  0  0  0
 22  1  1  6  0  0  0
 22 21  1  0  0  0  0
 23 26  1  0  0  0  0
 24 23  1  0  0  0  0
 25 23  1  0  0  0  0
 27  4  1  0  0  0  0
 27 28  1  0  0  0  0
 29 27  1  0  0  0  0
 30 27  1  0  0  0  0
 31 32  1  0  0  0  0
 31  5  1  0  0  0  0
 33 31  1  0  0  0  0
 34 31  1  0  0  0  0
 35 37  1  0  0  0  0
 36 35  1  0  0  0  0
 38 35  1  0  0  0  0
 39 40  1  0  0  0  0
 39 41  1  0  0  0  0
 42 39  1  0  0  0  0
 43 46  1  0  0  0  0
 43 44  1  0  0  0  0
 45 43  1  0  0  0  0
 47 49  1  0  0  0  0
 47 50  1  0  0  0  0
 48 47  1  0  0  0  0
 51 53  1  0  0  0  0
 51 52  1  0  0  0  0
 54 51  1  0  0  0  0
 55 56  1  0  0  0  0
 55  2  1  0  0  0  0
 57 55  1  0  0  0  0
 58 55  1  0  0  0  0
 59 62  1  0  0  0  0
 59 60  1  0  0  0  0
 61 59  1  0  0  0  0
 63 66  1  0  0  0  0
 63 65  1  0  0  0  0
 64 63  1  0  0  0  0
 67 69  1  0  0  0  0
 67  1  1  0  0  0  0
 68 67  1  0  0  0  0
 70 67  1  0  0  0  0
M  END
