2,4,31,34
 OpenBabel05122313063D

 66 67  0  0  1  0  0  0  0  0999 V2000
    0.5584   -2.2482   -0.8641 C   0  0  0  0  0  0  0  0  0  0  0  0
    1.6561   -2.4103    0.0427 C   0  0  1  0  0  3  0  0  0  0  0  0
    1.2108   -1.9973    1.3369 C   0  0  1  0  0  3  0  0  0  0  0  0
   -0.1330   -1.5173    1.2276 C   0  0  1  0  0  3  0  0  0  0  0  0
   -0.5501   -1.6926   -0.1512 C   0  0  0  0  0  0  0  0  0  0  0  0
   -1.9242   -1.5863   -0.7730 C   0  0  0  0  0  0  0  0  0  0  0  0
   -1.8897   -2.0833   -1.7639 H   0  0  0  0  0  0  0  0  0  0  0  0
   -2.1576   -0.5329   -1.0079 H   0  0  0  0  0  0  0  0  0  0  0  0
   -3.1003   -2.1781    0.0226 C   0  0  0  0  0  0  0  0  0  0  0  0
   -3.0792   -1.8074    1.0667 H   0  0  0  0  0  0  0  0  0  0  0  0
   -2.9771   -3.2788    0.1039 H   0  0  0  0  0  0  0  0  0  0  0  0
   -4.4721   -1.8572   -0.6002 C   0  0  0  0  0  0  0  0  0  0  0  0
   -5.2608   -2.3620   -0.0006 H   0  0  0  0  0  0  0  0  0  0  0  0
   -4.5250   -2.3104   -1.6144 H   0  0  0  0  0  0  0  0  0  0  0  0
   -4.8023   -0.3565   -0.7150 C   0  0  0  0  0  0  0  0  0  0  0  0
   -4.0357    0.1295   -1.3553 H   0  0  0  0  0  0  0  0  0  0  0  0
   -5.7517   -0.2373   -1.2787 H   0  0  0  0  0  0  0  0  0  0  0  0
   -4.9060    0.3898    0.6296 C   0  0  0  0  0  0  0  0  0  0  0  0
   -4.2648   -0.1139    1.3840 H   0  0  0  0  0  0  0  0  0  0  0  0
   -5.9377    0.2902    1.0290 H   0  0  0  0  0  0  0  0  0  0  0  0
   -4.5300    1.8832    0.5873 C   0  0  0  0  0  0  0  0  0  0  0  0
   -5.2617    2.4364   -0.0412 H   0  0  0  0  0  0  0  0  0  0  0  0
   -4.6407    2.2964    1.6138 H   0  0  0  0  0  0  0  0  0  0  0  0
   -3.1107    2.1900    0.0693 C   0  0  0  0  0  0  0  0  0  0  0  0
   -2.8899    3.2690    0.2114 H   0  0  0  0  0  0  0  0  0  0  0  0
   -3.0722    2.0256   -1.0260 H   0  0  0  0  0  0  0  0  0  0  0  0
   -2.0310    1.3383    0.7575 C   0  0  0  0  0  0  0  0  0  0  0  0
   -2.0656    1.5447    1.8471 H   0  0  0  0  0  0  0  0  0  0  0  0
   -2.3240    0.2821    0.6577 H   0  0  0  0  0  0  0  0  0  0  0  0
   -0.6189    1.5557    0.2783 C   0  0  1  0  0  3  0  0  0  0  0  0
   -0.1574    1.6801   -1.0800 C   0  0  2  0  0  3  0  0  0  0  0  0
    1.1515    2.2803   -1.0433 C   0  0  0  0  0  0  0  0  0  0  0  0
    1.5353    2.4346    0.3133 C   0  0  0  0  0  0  0  0  0  0  0  0
    0.4663    1.9407    1.1369 C   0  0  1  0  0  3  0  0  0  0  0  0
    0.5229   -2.7244   -2.2838 C   0  0  0  0  0  0  0  0  0  0  0  0
    0.0369   -1.9969   -2.9613 H   0  0  0  0  0  0  0  0  0  0  0  0
   -0.0397   -3.6818   -2.3467 H   0  0  0  0  0  0  0  0  0  0  0  0
    1.5412   -2.8995   -2.6734 H   0  0  0  0  0  0  0  0  0  0  0  0
    2.9969   -2.9856   -0.2857 C   0  0  0  0  0  0  0  0  0  0  0  0
    3.2827   -2.7450   -1.3275 H   0  0  0  0  0  0  0  0  0  0  0  0
    3.0005   -4.0906   -0.1671 H   0  0  0  0  0  0  0  0  0  0  0  0
    3.7771   -2.5609    0.3745 H   0  0  0  0  0  0  0  0  0  0  0  0
    1.9439   -2.1950    2.6265 C   0  0  0  0  0  0  0  0  0  0  0  0
    1.5392   -3.0872    3.1536 H   0  0  0  0  0  0  0  0  0  0  0  0
    1.8412   -1.3267    3.3053 H   0  0  0  0  0  0  0  0  0  0  0  0
    3.0240   -2.3523    2.4591 H   0  0  0  0  0  0  0  0  0  0  0  0
   -0.9540   -1.2678    2.4622 C   0  0  0  0  0  0  0  0  0  0  0  0
   -1.8310   -0.6220    2.3035 H   0  0  0  0  0  0  0  0  0  0  0  0
   -0.3404   -0.8129    3.2627 H   0  0  0  0  0  0  0  0  0  0  0  0
   -1.3272   -2.2365    2.8612 H   0  0  0  0  0  0  0  0  0  0  0  0
   -0.8857    1.4404   -2.3719 C   0  0  0  0  0  0  0  0  0  0  0  0
   -1.7751    0.7966   -2.2576 H   0  0  0  0  0  0  0  0  0  0  0  0
   -0.2108    0.9489   -3.1018 H   0  0  0  0  0  0  0  0  0  0  0  0
   -1.2253    2.3978   -2.8224 H   0  0  0  0  0  0  0  0  0  0  0  0
    1.9002    2.8192   -2.2190 C   0  0  0  0  0  0  0  0  0  0  0  0
    1.6286    3.8870   -2.3744 H   0  0  0  0  0  0  0  0  0  0  0  0
    1.6696    2.2659   -3.1469 H   0  0  0  0  0  0  0  0  0  0  0  0
    2.9945    2.7648   -2.0655 H   0  0  0  0  0  0  0  0  0  0  0  0
    2.7511    3.1549    0.7987 C   0  0  0  0  0  0  0  0  0  0  0  0
    3.0503    2.8224    1.8090 H   0  0  0  0  0  0  0  0  0  0  0  0
    2.5462    4.2479    0.8377 H   0  0  0  0  0  0  0  0  0  0  0  0
    3.6165    2.9943    0.1284 H   0  0  0  0  0  0  0  0  0  0  0  0
    0.4751    2.0059    2.6348 C   0  0  0  0  0  0  0  0  0  0  0  0
    0.4884    3.0595    2.9873 H   0  0  0  0  0  0  0  0  0  0  0  0
    1.3827    1.5133    3.0402 H   0  0  0  0  0  0  0  0  0  0  0  0
   -0.4075    1.5147    3.0834 H   0  0  0  0  0  0  0  0  0  0  0  0
  1  5  2  0  0  0  0
  1  2  1  0  0  0  0
  2 39  1  1  0  0  0
  2  3  1  0  0  0  0
  3 43  1  1  0  0  0
  4  3  1  0  0  0  0
  4 47  1  1  0  0  0
  5  4  1  0  0  0  0
  6  5  1  0  0  0  0
  6  9  1  0  0  0  0
  7  6  1  0  0  0  0
  8  6  1  0  0  0  0
  9 11  1  0  0  0  0
  9 10  1  0  0  0  0
 12 13  1  0  0  0  0
 12  9  1  0  0  0  0
 14 12  1  0  0  0  0
 15 12  1  0  0  0  0
 15 18  1  0  0  0  0
 16 15  1  0  0  0  0
 17 15  1  0  0  0  0
 18 20  1  0  0  0  0
 18 19  1  0  0  0  0
 21 18  1  0  0  0  0
 21 23  1  0  0  0  0
 22 21  1  0  0  0  0
 24 25  1  0  0  0  0
 24 21  1  0  0  0  0
 24 27  1  0  0  0  0
 26 24  1  0  0  0  0
 27 28  1  0  0  0  0
 29 27  1  0  0  0  0
 30 27  1  6  0  0  0
 30 34  1  0  0  0  0
 31 51  1  6  0  0  0
 31 32  1  0  0  0  0
 31 30  1  0  0  0  0
 32 33  2  0  0  0  0
 33 59  1  0  0  0  0
 33 34  1  0  0  0  0
 34 63  1  1  0  0  0
 35  1  1  0  0  0  0
 36 35  1  0  0  0  0
 37 35  1  0  0  0  0
 38 35  1  0  0  0  0
 39 41  1  0  0  0  0
 39 42  1  0  0  0  0
 40 39  1  0  0  0  0
 43 44  1  0  0  0  0
 43 45  1  0  0  0  0
 46 43  1  0  0  0  0
 47 50  1  0  0  0  0
 47 49  1  0  0  0  0
 48 47  1  0  0  0  0
 51 52  1  0  0  0  0
 53 51  1  0  0  0  0
 54 51  1  0  0  0  0
 55 58  1  0  0  0  0
 55 32  1  0  0  0  0
 56 55  1  0  0  0  0
 57 55  1  0  0  0  0
 59 61  1  0  0  0  0
 59 60  1  0  0  0  0
 62 59  1  0  0  0  0
 63 64  1  0  0  0  0
 63 65  1  0  0  0  0
 63 66  1  0  0  0  0
M  END
