5,28,40,63
 OpenBabel05122313063D

 70 71  0  0  1  0  0  0  0  0999 V2000
    0.1825    2.3045    0.6934 C   0  0  2  0  0  3  0  0  0  0  0  0
   -0.1311    2.3723   -0.6973 C   0  0  0  0  0  0  0  0  0  0  0  0
    0.9894    1.8609   -1.4268 C   0  0  0  0  0  0  0  0  0  0  0  0
    2.0302    1.5588   -0.4953 C   0  0  2  0  0  3  0  0  0  0  0  0
    1.5210    1.7978    0.8269 C   0  0  1  0  0  3  0  0  0  0  0  0
   -1.2888    3.0860   -1.3243 C   0  0  0  0  0  0  0  0  0  0  0  0
   -2.0607    3.3663   -0.5832 H   0  0  0  0  0  0  0  0  0  0  0  0
   -1.7876    2.4939   -2.1187 H   0  0  0  0  0  0  0  0  0  0  0  0
   -0.9320    4.0235   -1.8036 H   0  0  0  0  0  0  0  0  0  0  0  0
    1.0983    1.8465   -2.9213 C   0  0  0  0  0  0  0  0  0  0  0  0
    1.9711    1.2626   -3.2714 H   0  0  0  0  0  0  0  0  0  0  0  0
    1.2152    2.8776   -3.3223 H   0  0  0  0  0  0  0  0  0  0  0  0
    0.1908    1.4211   -3.3965 H   0  0  0  0  0  0  0  0  0  0  0  0
    3.4633    1.3494   -0.8876 C   0  0  0  0  0  0  0  0  0  0  0  0
    4.1127    1.1575   -0.0157 H   0  0  0  0  0  0  0  0  0  0  0  0
    3.8456    2.2671   -1.3847 H   0  0  0  0  0  0  0  0  0  0  0  0
    3.6048    0.5183   -1.6036 H   0  0  0  0  0  0  0  0  0  0  0  0
    2.2851    1.7536    2.1209 C   0  0  0  0  0  0  0  0  0  0  0  0
    3.3781    1.7275    1.9466 H   0  0  0  0  0  0  0  0  0  0  0  0
    2.0286    0.8820    2.7569 H   0  0  0  0  0  0  0  0  0  0  0  0
    2.0717    2.6588    2.7265 H   0  0  0  0  0  0  0  0  0  0  0  0
   -0.7275    2.6489    1.8375 C   0  0  0  0  0  0  0  0  0  0  0  0
   -0.2352    3.3472    2.5491 H   0  0  0  0  0  0  0  0  0  0  0  0
   -1.6204    3.1818    1.4532 H   0  0  0  0  0  0  0  0  0  0  0  0
   -1.1386    1.3391    2.5265 C   0  0  0  0  0  0  0  0  0  0  0  0
   -2.0010    1.5077    3.2175 H   0  0  0  0  0  0  0  0  0  0  0  0
   -0.3057    1.0022    3.1811 H   0  0  0  0  0  0  0  0  0  0  0  0
   -1.4106    0.2503    1.4823 C   0  0  0  0  0  3  0  0  0  0  0  0
   -1.5493   -0.7028    2.0292 H   0  0  0  0  0  0  0  0  0  0  0  0
   -2.6827    0.4633    0.6237 C   0  0  2  0  0  0  0  0  0  0  0  0
   -2.6803    1.5050    0.2342 H   0  0  0  0  0  0  0  0  0  0  0  0
   -3.9533    0.2995    1.4762 C   0  0  0  0  0  0  0  0  0  0  0  0
   -3.8982    0.9093    2.4006 H   0  0  0  0  0  0  0  0  0  0  0  0
   -4.0818   -0.7605    1.7848 H   0  0  0  0  0  0  0  0  0  0  0  0
   -4.8722    0.6080    0.9376 H   0  0  0  0  0  0  0  0  0  0  0  0
    0.1846   -2.3046   -0.6928 C   0  0  2  0  0  3  0  0  0  0  0  0
   -0.1277   -2.3721    0.6982 C   0  0  0  0  0  0  0  0  0  0  0  0
    0.9929   -1.8596    1.4265 C   0  0  0  0  0  0  0  0  0  0  0  0
    2.0326   -1.5567    0.4941 C   0  0  2  0  0  3  0  0  0  0  0  0
    1.5225   -1.7966   -0.8276 C   0  0  1  0  0  3  0  0  0  0  0  0
   -1.2842   -3.0869    1.3264 C   0  0  0  0  0  0  0  0  0  0  0  0
   -1.7778   -2.4981    2.1263 H   0  0  0  0  0  0  0  0  0  0  0  0
   -0.9272   -4.0278    1.7988 H   0  0  0  0  0  0  0  0  0  0  0  0
   -2.0603   -3.3615    0.5874 H   0  0  0  0  0  0  0  0  0  0  0  0
    1.1031   -1.8446    2.9210 C   0  0  0  0  0  0  0  0  0  0  0  0
    0.1963   -1.4182    3.3968 H   0  0  0  0  0  0  0  0  0  0  0  0
    1.9767   -1.2614    3.2702 H   0  0  0  0  0  0  0  0  0  0  0  0
    1.2192   -2.8757    3.3224 H   0  0  0  0  0  0  0  0  0  0  0  0
    3.4658   -1.3457    0.8850 C   0  0  0  0  0  0  0  0  0  0  0  0
    3.6070   -0.5144    1.6009 H   0  0  0  0  0  0  0  0  0  0  0  0
    4.1142   -1.1530    0.0125 H   0  0  0  0  0  0  0  0  0  0  0  0
    3.8496   -2.2630    1.3817 H   0  0  0  0  0  0  0  0  0  0  0  0
    2.2854   -1.7517   -2.1223 C   0  0  0  0  0  0  0  0  0  0  0  0
    2.0277   -0.8802   -2.7579 H   0  0  0  0  0  0  0  0  0  0  0  0
    2.0721   -2.6570   -2.7278 H   0  0  0  0  0  0  0  0  0  0  0  0
    3.3785   -1.7248   -1.9489 H   0  0  0  0  0  0  0  0  0  0  0  0
   -0.7260   -2.6504   -1.8360 C   0  0  0  0  0  0  0  0  0  0  0  0
   -1.6182   -3.1837   -1.4508 H   0  0  0  0  0  0  0  0  0  0  0  0
   -0.2336   -3.3490   -2.5474 H   0  0  0  0  0  0  0  0  0  0  0  0
   -1.1382   -1.3414   -2.5258 C   0  0  0  0  0  0  0  0  0  0  0  0
   -2.0008   -1.5111   -3.2163 H   0  0  0  0  0  0  0  0  0  0  0  0
   -0.3058   -1.0044   -3.1809 H   0  0  0  0  0  0  0  0  0  0  0  0
   -1.4106   -0.2521   -1.4821 C   0  0  0  0  0  3  0  0  0  0  0  0
   -1.5497    0.7006   -2.0296 H   0  0  0  0  0  0  0  0  0  0  0  0
   -2.6824   -0.4654   -0.6233 C   0  0  2  0  0  0  0  0  0  0  0  0
   -2.6795   -1.5071   -0.2337 H   0  0  0  0  0  0  0  0  0  0  0  0
   -3.9533   -0.3025   -1.4757 C   0  0  0  0  0  0  0  0  0  0  0  0
   -4.0824    0.7574   -1.7845 H   0  0  0  0  0  0  0  0  0  0  0  0
   -4.8719   -0.6114   -0.9370 H   0  0  0  0  0  0  0  0  0  0  0  0
   -3.8979   -0.9123   -2.4001 H   0  0  0  0  0  0  0  0  0  0  0  0
  1  5  1  0  0  0  0
  1 22  1  1  0  0  0
  2  1  1  0  0  0  0
  3  2  2  0  0  0  0
  3  4  1  0  0  0  0
  4 14  1  6  0  0  0
  4  5  1  0  0  0  0
  5 18  1  6  0  0  0
  6  2  1  0  0  0  0
  6  7  1  0  0  0  0
  8  6  1  0  0  0  0
  9  6  1  0  0  0  0
 10  3  1  0  0  0  0
 11 10  1  0  0  0  0
 12 10  1  0  0  0  0
 13 10  1  0  0  0  0
 14 15  1  0  0  0  0
 16 14  1  0  0  0  0
 17 14  1  0  0  0  0
 18 21  1  0  0  0  0
 18 20  1  0  0  0  0
 19 18  1  0  0  0  0
 22 25  1  0  0  0  0
 22 23  1  0  0  0  0
 24 22  1  0  0  0  0
 25 27  1  0  0  0  0
 25 26  1  0  0  0  0
 28 29  1  0  0  0  0
 28 25  1  0  0  0  0
 30 31  1  6  0  0  0
 30 32  1  0  0  0  0
 30 28  1  0  0  0  0
 32 34  1  0  0  0  0
 32 33  1  0  0  0  0
 35 32  1  0  0  0  0
 36 57  1  6  0  0  0
 36 37  1  0  0  0  0
 37 41  1  0  0  0  0
 37 38  2  0  0  0  0
 38 45  1  0  0  0  0
 39 49  1  1  0  0  0
 39 38  1  0  0  0  0
 40 53  1  1  0  0  0
 40 36  1  0  0  0  0
 40 39  1  0  0  0  0
 41 43  1  0  0  0  0
 41 42  1  0  0  0  0
 44 41  1  0  0  0  0
 45 47  1  0  0  0  0
 45 48  1  0  0  0  0
 45 46  1  0  0  0  0
 49 52  1  0  0  0  0
 49 50  1  0  0  0  0
 51 49  1  0  0  0  0
 53 56  1  0  0  0  0
 54 53  1  0  0  0  0
 55 53  1  0  0  0  0
 57 58  1  0  0  0  0
 59 57  1  0  0  0  0
 60 57  1  0  0  0  0
 60 63  1  0  0  0  0
 61 60  1  0  0  0  0
 62 60  1  0  0  0  0
 63 65  1  0  0  0  0
 64 63  1  0  0  0  0
 65 66  1  1  0  0  0
 65 30  1  0  0  0  0
 67 69  1  0  0  0  0
 67 65  1  0  0  0  0
 68 67  1  0  0  0  0
 70 67  1  0  0  0  0
M  END
