2,5,21,24
q = -2.0, confidence = 0.856

 50 53  0  0  1  0  0  0  0  0999 V2000
   -0.5194   -1.0028   -1.1912 C   0  0  2  0  0  3  0  0  0  0  0  0
   -0.3014    0.3073   -1.7504 C   0  0  0  0  0  3  0  0  0  0  0  0
    0.9400    0.3193   -2.4419 C   0  0  0  0  0  0  0  0  0  0  0  0
    1.5682   -0.9515   -2.2392 C   0  0  0  0  0  0  0  0  0  0  0  0
    0.6643   -1.7525   -1.4786 C   0  0  0  0  0  3  0  0  0  0  0  0
    1.4436    1.4268   -3.3072 C   0  0  0  0  0  0  0  0  0  0  0  0
    2.9097   -1.3558   -2.7611 C   0  0  0  0  0  0  0  0  0  0  0  0
   -1.7389   -1.5508   -0.5669 C   0  0  0  0  0  0  0  0  0  0  0  0
   -1.8904   -2.9567   -0.5277 C   0  0  0  0  0  0  0  0  0  0  0  0
   -3.0040   -3.5701    0.0564 C   0  0  0  0  0  0  0  0  0  0  0  0
   -4.0168   -2.7787    0.6158 C   0  0  0  0  0  0  0  0  0  0  0  0
   -3.8938   -1.3843    0.5750 C   0  0  0  0  0  0  0  0  0  0  0  0
   -2.7730   -0.7467   -0.0011 C   0  0  0  0  0  0  0  0  0  0  0  0
   -2.7731    0.7465    0.0011 C   0  0  0  0  0  0  0  0  0  0  0  0
   -3.8940    1.3840   -0.5749 C   0  0  0  0  0  0  0  0  0  0  0  0
   -4.0172    2.7784   -0.6157 C   0  0  0  0  0  0  0  0  0  0  0  0
   -3.0044    3.5700   -0.0564 C   0  0  0  0  0  0  0  0  0  0  0  0
   -1.8907    2.9567    0.5276 C   0  0  0  0  0  0  0  0  0  0  0  0
   -1.7390    1.5508    0.5668 C   0  0  0  0  0  0  0  0  0  0  0  0
   -0.5194    1.0030    1.1910 C   0  0  1  0  0  3  0  0  0  0  0  0
    0.6643    1.7528    1.4781 C   0  0  0  0  0  3  0  0  0  0  0  0
    1.5682    0.9520    2.2390 C   0  0  0  0  0  0  0  0  0  0  0  0
    0.9401   -0.3188    2.4420 C   0  0  0  0  0  0  0  0  0  0  0  0
   -0.3014   -0.3070    1.7505 C   0  0  0  0  0  3  0  0  0  0  0  0
    1.4437   -1.4260    3.3076 C   0  0  0  0  0  0  0  0  0  0  0  0
    2.9097    1.3565    2.7609 C   0  0  0  0  0  0  0  0  0  0  0  0
   -1.0136    1.1372   -1.7505 H   0  0  0  0  0  0  0  0  0  0  0  0
    0.8763   -2.7714   -1.1379 H   0  0  0  0  0  0  0  0  0  0  0  0
    1.1931    1.2107   -4.3684 H   0  0  0  0  0  0  0  0  0  0  0  0
    0.9808    2.3939   -3.0338 H   0  0  0  0  0  0  0  0  0  0  0  0
    2.5411    1.5395   -3.2269 H   0  0  0  0  0  0  0  0  0  0  0  0
    2.8573   -1.5861   -3.8468 H   0  0  0  0  0  0  0  0  0  0  0  0
    3.6448   -0.5382   -2.6213 H   0  0  0  0  0  0  0  0  0  0  0  0
    3.2893   -2.2468   -2.2286 H   0  0  0  0  0  0  0  0  0  0  0  0
   -1.1161   -3.5856   -0.9884 H   0  0  0  0  0  0  0  0  0  0  0  0
   -3.0815   -4.6677    0.0657 H   0  0  0  0  0  0  0  0  0  0  0  0
   -4.8997   -3.2417    1.0814 H   0  0  0  0  0  0  0  0  0  0  0  0
   -4.6767   -0.7536    1.0224 H   0  0  0  0  0  0  0  0  0  0  0  0
   -4.6769    0.7533   -1.0223 H   0  0  0  0  0  0  0  0  0  0  0  0
   -4.9001    3.2413   -1.0812 H   0  0  0  0  0  0  0  0  0  0  0  0
   -3.0821    4.6675   -0.0658 H   0  0  0  0  0  0  0  0  0  0  0  0
   -1.1164    3.5857    0.9882 H   0  0  0  0  0  0  0  0  0  0  0  0
    0.8762    2.7716    1.1371 H   0  0  0  0  0  0  0  0  0  0  0  0
   -1.0135   -1.1369    1.7508 H   0  0  0  0  0  0  0  0  0  0  0  0
    1.1926   -1.2099    4.3687 H   0  0  0  0  0  0  0  0  0  0  0  0
    0.9814   -2.3933    3.0341 H   0  0  0  0  0  0  0  0  0  0  0  0
    2.5413   -1.5383    3.2277 H   0  0  0  0  0  0  0  0  0  0  0  0
    2.8572    1.5867    3.8465 H   0  0  0  0  0  0  0  0  0  0  0  0
    3.6449    0.5390    2.6211 H   0  0  0  0  0  0  0  0  0  0  0  0
    3.2892    2.2475    2.2284 H   0  0  0  0  0  0  0  0  0  0  0  0
  1  8  1  6  0  0  0
  2  1  1  0  0  0  0
  3  4  2  0  0  0  0
  3  2  1  0  0  0  0
  4  5  1  0  0  0  0
  5  1  1  0  0  0  0
  5 28  1  0  0  0  0
  6 31  1  0  0  0  0
  6 30  1  0  0  0  0
  6  3  1  0  0  0  0
  7 33  1  0  0  0  0
  7  4  1  0  0  0  0
  7 34  1  0  0  0  0
  8  9  2  0  0  0  0
  8 13  1  0  0  0  0
  9 10  1  0  0  0  0
 10 36  1  0  0  0  0
 10 11  2  0  0  0  0
 11 37  1  0  0  0  0
 12 11  1  0  0  0  0
 12 38  1  0  0  0  0
 13 14  1  0  0  0  0
 13 12  2  0  0  0  0
 14 19  1  0  0  0  0
 15 14  2  0  0  0  0
 16 15  1  0  0  0  0
 16 17  2  0  0  0  0
 17 18  1  0  0  0  0
 18 19  2  0  0  0  0
 18 42  1  0  0  0  0
 20 19  1  1  0  0  0
 20 21  1  0  0  0  0
 20 24  1  0  0  0  0
 21 22  1  0  0  0  0
 22 23  2  0  0  0  0
 22 26  1  0  0  0  0
 23 25  1  0  0  0  0
 24 44  1  0  0  0  0
 24 23  1  0  0  0  0
 25 45  1  0  0  0  0
 26 48  1  0  0  0  0
 27  2  1  0  0  0  0
 29  6  1  0  0  0  0
 32  7  1  0  0  0  0
 35  9  1  0  0  0  0
 39 15  1  0  0  0  0
 40 16  1  0  0  0  0
 41 17  1  0  0  0  0
 43 21  1  0  0  0  0
 46 25  1  0  0  0  0
 47 25  1  0  0  0  0
 49 26  1  0  0  0  0
 50 26  1  0  0  0  0
M  END
