1,10
q = 0.0, confidence = 0.994

 34 35  0  0  0  0  0  0  0  0999 V2000
   -0.3851   -1.9036   -2.6002 S   0  0  0  0  0  0  0  0  0  0  0  0
   -1.9233   -2.6720   -1.9994 C   0  0  0  0  0  0  0  0  0  0  0  0
   -2.7554   -2.0282   -2.3401 H   0  0  0  0  0  0  0  0  0  0  0  0
   -1.9363   -2.7181   -0.8935 H   0  0  0  0  0  0  0  0  0  0  0  0
   -2.0391   -3.6818   -2.4373 H   0  0  0  0  0  0  0  0  0  0  0  0
    0.8704   -3.0658   -1.8824 C   0  0  0  0  0  0  0  0  0  0  0  0
    0.4134   -3.5252   -0.9819 H   0  0  0  0  0  0  0  0  0  0  0  0
    1.0565   -3.8646   -2.6276 H   0  0  0  0  0  0  0  0  0  0  0  0
    2.1622   -2.3372   -1.5209 C   0  0  0  0  0  0  0  0  0  0  0  0
    1.7893   -0.9702   -0.3017 P   0  0  0  0  0  0  0  0  0  0  0  0
    3.3767   -0.1177    0.0075 C   0  0  0  0  0  0  0  0  0  0  0  0
    4.3674    0.0014   -0.9904 C   0  0  0  0  0  0  0  0  0  0  0  0
    4.2611   -0.5215   -1.9527 H   0  0  0  0  0  0  0  0  0  0  0  0
    5.5074    0.7890   -0.7655 C   0  0  0  0  0  0  0  0  0  0  0  0
    6.2771    0.8666   -1.5480 H   0  0  0  0  0  0  0  0  0  0  0  0
    5.6704    1.4677    0.4521 C   0  0  0  0  0  0  0  0  0  0  0  0
    6.5658    2.0827    0.6257 H   0  0  0  0  0  0  0  0  0  0  0  0
    4.6904    1.3499    1.4516 C   0  0  0  0  0  0  0  0  0  0  0  0
    4.8184    1.8691    2.4135 H   0  0  0  0  0  0  0  0  0  0  0  0
    3.5496    0.5651    1.2332 C   0  0  0  0  0  0  0  0  0  0  0  0
    2.7921    0.4694    2.0269 H   0  0  0  0  0  0  0  0  0  0  0  0
    1.4156   -1.8967    1.2372 C   0  0  0  0  0  0  0  0  0  0  0  0
    2.4125   -2.5489    1.9927 C   0  0  0  0  0  0  0  0  0  0  0  0
    3.4709   -2.4693    1.6988 H   0  0  0  0  0  0  0  0  0  0  0  0
    2.0544   -3.2899    3.1281 C   0  0  0  0  0  0  0  0  0  0  0  0
    2.8335   -3.7945    3.7189 H   0  0  0  0  0  0  0  0  0  0  0  0
    0.7056   -3.3904    3.5122 C   0  0  0  0  0  0  0  0  0  0  0  0
    0.4317   -3.9736    4.4041 H   0  0  0  0  0  0  0  0  0  0  0  0
   -0.2895   -2.7450    2.7618 C   0  0  0  0  0  0  0  0  0  0  0  0
   -1.3461   -2.8199    3.0607 H   0  0  0  0  0  0  0  0  0  0  0  0
    0.0654   -1.9954    1.6303 C   0  0  0  0  0  0  0  0  0  0  0  0
   -0.7001   -1.4705    1.0353 H   0  0  0  0  0  0  0  0  0  0  0  0
    2.6185   -1.8802   -2.4237 H   0  0  0  0  0  0  0  0  0  0  0  0
    2.8974   -3.0505   -1.0938 H   0  0  0  0  0  0  0  0  0  0  0  0
  1  2  1  0  0  0  0
  1  6  1  0  0  0  0
  2  4  1  0  0  0  0
  3  2  1  0  0  0  0
  5  2  1  0  0  0  0
  6  9  1  0  0  0  0
  6  7  1  0  0  0  0
  8  6  1  0  0  0  0
  9 34  1  0  0  0  0
  9 10  1  0  0  0  0
 10 11  1  0  0  0  0
 10 22  1  0  0  0  0
 11 20  1  0  0  0  0
 12 14  1  0  0  0  0
 12 11  2  0  0  0  0
 13 12  1  0  0  0  0
 14 16  2  0  0  0  0
 15 14  1  0  0  0  0
 16 17  1  0  0  0  0
 16 18  1  0  0  0  0
 18 19  1  0  0  0  0
 20 18  2  0  0  0  0
 20 21  1  0  0  0  0
 22 31  2  0  0  0  0
 22 23  1  0  0  0  0
 23 25  2  0  0  0  0
 24 23  1  0  0  0  0
 25 27  1  0  0  0  0
 25 26  1  0  0  0  0
 27 28  1  0  0  0  0
 29 30  1  0  0  0  0
 29 27  2  0  0  0  0
 31 29  1  0  0  0  0
 32 31  1  0  0  0  0
 33  9  1  0  0  0  0
M  END
