1,2
q = 0.0, confidence = 1.0

 55 59  0  0  1  0  0  0  0  0999 V2000
   -1.1738   -1.1996    1.1837 S   0  0  0  0  0  0  0  0  0  0  0  0
    1.5252    0.4007    0.4621 P   0  0  0  0  0  0  0  0  0  0  0  0
    0.5443    0.9069    1.9648 C   0  0  0  0  0  0  0  0  0  0  0  0
    1.1986    1.3525    2.7418 H   0  0  0  0  0  0  0  0  0  0  0  0
   -0.1401    1.7078    1.6210 H   0  0  0  0  0  0  0  0  0  0  0  0
   -0.2273   -0.2936    2.4916 C   0  0  0  0  0  0  0  0  0  0  0  0
   -0.9347   -0.0328    3.3021 H   0  0  0  0  0  0  0  0  0  0  0  0
    0.4579   -1.0733    2.8837 H   0  0  0  0  0  0  0  0  0  0  0  0
   -2.7003   -0.1232    0.8330 C   0  0  2  0  0  0  0  0  0  0  0  0
   -3.7387   -1.1317    0.2945 C   0  0  0  0  0  0  0  0  0  0  0  0
   -3.3299   -1.6300   -0.6098 H   0  0  0  0  0  0  0  0  0  0  0  0
   -3.9141   -1.9226    1.0542 H   0  0  0  0  0  0  0  0  0  0  0  0
   -5.0528   -0.3880   -0.0168 C   0  0  1  0  0  0  0  0  0  0  0  0
   -5.7894   -1.1206   -0.4081 H   0  0  0  0  0  0  0  0  0  0  0  0
   -5.5893    0.2567    1.2745 C   0  0  0  0  0  0  0  0  0  0  0  0
   -6.5474    0.7826    1.0755 H   0  0  0  0  0  0  0  0  0  0  0  0
   -5.8020   -0.5263    2.0338 H   0  0  0  0  0  0  0  0  0  0  0  0
   -4.5499    1.2552    1.8177 C   0  0  2  0  0  0  0  0  0  0  0  0
   -4.9229    1.7159    2.7570 H   0  0  0  0  0  0  0  0  0  0  0  0
   -4.2870    2.3501    0.7660 C   0  0  0  0  0  0  0  0  0  0  0  0
   -3.5530    3.0886    1.1559 H   0  0  0  0  0  0  0  0  0  0  0  0
   -5.2252    2.9074    0.5586 H   0  0  0  0  0  0  0  0  0  0  0  0
   -3.7552    1.7037   -0.5270 C   0  0  1  0  0  0  0  0  0  0  0  0
   -3.5535    2.4887   -1.2860 H   0  0  0  0  0  0  0  0  0  0  0  0
   -2.4355    0.9602   -0.2268 C   0  0  0  0  0  0  0  0  0  0  0  0
   -2.0332    0.4832   -1.1440 H   0  0  0  0  0  0  0  0  0  0  0  0
   -1.6666    1.6768    0.1293 H   0  0  0  0  0  0  0  0  0  0  0  0
   -3.2250    0.5178    2.1273 C   0  0  0  0  0  0  0  0  0  0  0  0
   -2.4933    1.2505    2.5288 H   0  0  0  0  0  0  0  0  0  0  0  0
   -3.3906   -0.2588    2.9051 H   0  0  0  0  0  0  0  0  0  0  0  0
   -4.7893    0.7014   -1.0732 C   0  0  0  0  0  0  0  0  0  0  0  0
   -4.4127    0.2391   -2.0095 H   0  0  0  0  0  0  0  0  0  0  0  0
   -5.7349    1.2280   -1.3241 H   0  0  0  0  0  0  0  0  0  0  0  0
    1.9491    1.9878   -0.3440 C   0  0  0  0  0  0  0  0  0  0  0  0
    1.1745    2.4220   -1.4383 C   0  0  0  0  0  0  0  0  0  0  0  0
    0.3891    1.7623   -1.8373 H   0  0  0  0  0  0  0  0  0  0  0  0
    1.4387    3.6681   -2.0247 C   0  0  0  0  0  0  0  0  0  0  0  0
    0.8396    4.0025   -2.8850 H   0  0  0  0  0  0  0  0  0  0  0  0
    2.4741    4.4769   -1.5291 C   0  0  0  0  0  0  0  0  0  0  0  0
    2.6830    5.4511   -1.9969 H   0  0  0  0  0  0  0  0  0  0  0  0
    3.2537    4.0383   -0.4463 C   0  0  0  0  0  0  0  0  0  0  0  0
    4.0740    4.6656   -0.0656 H   0  0  0  0  0  0  0  0  0  0  0  0
    2.9961    2.7933    0.1463 C   0  0  0  0  0  0  0  0  0  0  0  0
    3.6192    2.4402    0.9829 H   0  0  0  0  0  0  0  0  0  0  0  0
    3.1116   -0.2792    1.0854 C   0  0  0  0  0  0  0  0  0  0  0  0
    3.5426   -0.1412    2.4206 C   0  0  0  0  0  0  0  0  0  0  0  0
    2.9280    0.3919    3.1611 H   0  0  0  0  0  0  0  0  0  0  0  0
    4.7717   -0.6875    2.8240 C   0  0  0  0  0  0  0  0  0  0  0  0
    5.0995   -0.5785    3.8690 H   0  0  0  0  0  0  0  0  0  0  0  0
    5.5763   -1.3690    1.8988 C   0  0  0  0  0  0  0  0  0  0  0  0
    6.5389   -1.7972    2.2175 H   0  0  0  0  0  0  0  0  0  0  0  0
    5.1475   -1.5099    0.5684 C   0  0  0  0  0  0  0  0  0  0  0  0
    5.7716   -2.0504   -0.1592 H   0  0  0  0  0  0  0  0  0  0  0  0
    3.9190   -0.9752    0.1586 C   0  0  0  0  0  0  0  0  0  0  0  0
    3.5640   -1.0964   -0.8792 H   0  0  0  0  0  0  0  0  0  0  0  0
  1  6  1  0  0  0  0
  2 45  1  0  0  0  0
  2  3  1  0  0  0  0
  3  6  1  0  0  0  0
  3  4  1  0  0  0  0
  5  3  1  0  0  0  0
  6  8  1  0  0  0  0
  6  7  1  0  0  0  0
  9  1  1  1  0  0  0
  9 28  1  0  0  0  0
 10  9  1  0  0  0  0
 10 12  1  0  0  0  0
 11 10  1  0  0  0  0
 13 14  1  6  0  0  0
 13 10  1  0  0  0  0
 13 15  1  0  0  0  0
 15 18  1  0  0  0  0
 15 17  1  0  0  0  0
 16 15  1  0  0  0  0
 18 28  1  0  0  0  0
 18 19  1  1  0  0  0
 20 21  1  0  0  0  0
 20 18  1  0  0  0  0
 22 20  1  0  0  0  0
 23 24  1  6  0  0  0
 23 25  1  0  0  0  0
 23 20  1  0  0  0  0
 25 27  1  0  0  0  0
 25  9  1  0  0  0  0
 26 25  1  0  0  0  0
 28 29  1  0  0  0  0
 28 30  1  0  0  0  0
 31 23  1  0  0  0  0
 31 13  1  0  0  0  0
 32 31  1  0  0  0  0
 33 31  1  0  0  0  0
 34 43  1  0  0  0  0
 34  2  1  0  0  0  0
 35 34  2  0  0  0  0
 36 35  1  0  0  0  0
 37 39  2  0  0  0  0
 37 35  1  0  0  0  0
 38 37  1  0  0  0  0
 39 41  1  0  0  0  0
 40 39  1  0  0  0  0
 41 42  1  0  0  0  0
 41 43  2  0  0  0  0
 43 44  1  0  0  0  0
 45 46  1  0  0  0  0
 46 48  2  0  0  0  0
 46 47  1  0  0  0  0
 48 49  1  0  0  0  0
 50 51  1  0  0  0  0
 50 48  1  0  0  0  0
 52 50  2  0  0  0  0
 53 52  1  0  0  0  0
 54 52  1  0  0  0  0
 54 45  2  0  0  0  0
 55 54  1  0  0  0  0
M  END
