1,2
q = 0.0, confidence = 1.0

 45 48  0  0  0  0  0  0  0  0999 V2000
   -1.8182    0.5736    0.6006 P   0  0  2  0  0  0  0  0  0  0  0  0
   -0.9596   -1.6590   -1.5782 S   0  0  0  0  0  0  0  0  0  0  0  0
   -2.6660   -1.5810   -0.9996 C   0  0  0  0  0  0  0  0  0  0  0  0
   -3.1006   -0.5248   -0.1697 C   0  0  0  0  0  0  0  0  0  0  0  0
   -4.4749   -0.3979    0.0744 C   0  0  0  0  0  0  0  0  0  0  0  0
   -5.4016   -1.3173   -0.4476 C   0  0  0  0  0  0  0  0  0  0  0  0
   -4.9496   -2.3883   -1.2380 C   0  0  0  0  0  0  0  0  0  0  0  0
   -3.5800   -2.5006   -1.5337 C   0  0  0  0  0  0  0  0  0  0  0  0
   -0.3900   -3.2149   -0.8944 C   0  0  0  0  0  0  0  0  0  0  0  0
   -0.5934   -3.5853    0.4461 C   0  0  0  0  0  0  0  0  0  0  0  0
    0.0198   -4.7400    0.9536 C   0  0  0  0  0  0  0  0  0  0  0  0
    0.8255   -5.5353    0.1320 C   0  0  0  0  0  0  0  0  0  0  0  0
    1.3043   -6.4382    0.5340 H   0  0  0  0  0  0  0  0  0  0  0  0
    1.0220   -5.1696   -1.2027 C   0  0  0  0  0  0  0  0  0  0  0  0
    0.4139   -4.0152   -1.7273 C   0  0  0  0  0  0  0  0  0  0  0  0
   -1.9489    0.3010    2.4054 C   0  0  0  0  0  0  0  0  0  0  0  0
   -3.0447    0.7469    3.1741 C   0  0  0  0  0  0  0  0  0  0  0  0
   -3.8610    1.3124    2.7058 H   0  0  0  0  0  0  0  0  0  0  0  0
   -3.0828    0.4760    4.5473 C   0  0  0  0  0  0  0  0  0  0  0  0
   -3.9360    0.8274    5.1467 H   0  0  0  0  0  0  0  0  0  0  0  0
   -2.0338   -0.2315    5.1594 C   0  0  0  0  0  0  0  0  0  0  0  0
   -2.0681   -0.4376    6.2399 H   0  0  0  0  0  0  0  0  0  0  0  0
   -0.9407   -0.6661    4.3961 C   0  0  0  0  0  0  0  0  0  0  0  0
   -0.1107   -1.2110    4.8698 H   0  0  0  0  0  0  0  0  0  0  0  0
   -0.8918   -0.4026    3.0195 C   0  0  0  0  0  0  0  0  0  0  0  0
   -0.0307   -0.7376    2.4222 H   0  0  0  0  0  0  0  0  0  0  0  0
   -2.3622    2.2860    0.2361 C   0  0  0  0  0  0  0  0  0  0  0  0
   -2.8534    2.5998   -1.0474 C   0  0  0  0  0  0  0  0  0  0  0  0
   -3.1230    3.9176   -1.4405 C   0  0  0  0  0  0  0  0  0  0  0  0
   -2.8561    4.9692   -0.5464 C   0  0  0  0  0  0  0  0  0  0  0  0
   -2.3434    4.6906    0.7312 C   0  0  0  0  0  0  0  0  0  0  0  0
   -2.0799    3.3618    1.1036 C   0  0  0  0  0  0  0  0  0  0  0  0
   -4.9572    0.6218    0.7988 F   0  0  0  0  0  0  0  0  0  0  0  0
   -6.7006   -1.1827   -0.1962 F   0  0  0  0  0  0  0  0  0  0  0  0
   -5.8205   -3.2620   -1.7328 F   0  0  0  0  0  0  0  0  0  0  0  0
   -3.1688   -3.4948   -2.3232 F   0  0  0  0  0  0  0  0  0  0  0  0
   -1.3379   -2.8261    1.2580 F   0  0  0  0  0  0  0  0  0  0  0  0
   -0.1742   -5.0680    2.2349 F   0  0  0  0  0  0  0  0  0  0  0  0
    1.7860   -5.9182   -2.0028 F   0  0  0  0  0  0  0  0  0  0  0  0
    0.6146   -3.6836   -3.0008 F   0  0  0  0  0  0  0  0  0  0  0  0
   -3.0690    1.6274   -1.9478 F   0  0  0  0  0  0  0  0  0  0  0  0
   -3.6039    4.1796   -2.6558 F   0  0  0  0  0  0  0  0  0  0  0  0
   -3.0988    6.2259   -0.9075 F   0  0  0  0  0  0  0  0  0  0  0  0
   -2.0876    5.6891    1.5759 F   0  0  0  0  0  0  0  0  0  0  0  0
   -1.5597    3.1587    2.3151 F   0  0  0  0  0  0  0  0  0  0  0  0
  1  4  1  6  0  0  0
  1 16  1  0  0  0  0
  2  3  1  0  0  0  0
  2  9  1  0  0  0  0
  3  4  1  0  0  0  0
  4  5  2  0  0  0  0
  5 33  1  0  0  0  0
  6 34  1  0  0  0  0
  6  5  1  0  0  0  0
  7  6  2  0  0  0  0
  8  7  1  0  0  0  0
  8  3  2  0  0  0  0
  9 10  1  0  0  0  0
 10 11  2  0  0  0  0
 10 37  1  0  0  0  0
 11 38  1  0  0  0  0
 12 13  1  0  0  0  0
 12 11  1  0  0  0  0
 14 12  2  0  0  0  0
 15 14  1  0  0  0  0
 15  9  2  0  0  0  0
 16 25  2  0  0  0  0
 16 17  1  0  0  0  0
 17 19  2  0  0  0  0
 18 17  1  0  0  0  0
 19 20  1  0  0  0  0
 19 21  1  0  0  0  0
 21 22  1  0  0  0  0
 23 24  1  0  0  0  0
 23 21  2  0  0  0  0
 25 23  1  0  0  0  0
 26 25  1  0  0  0  0
 27  1  1  0  0  0  0
 27 32  1  0  0  0  0
 28 27  2  0  0  0  0
 29 28  1  0  0  0  0
 29 30  2  0  0  0  0
 30 31  1  0  0  0  0
 31 32  2  0  0  0  0
 31 44  1  0  0  0  0
 32 45  1  0  0  0  0
 35  7  1  0  0  0  0
 36  8  1  0  0  0  0
 39 14  1  0  0  0  0
 40 15  1  0  0  0  0
 41 28  1  0  0  0  0
 42 29  1  0  0  0  0
 43 30  1  0  0  0  0
M  END
