1,2
q = 0.0, confidence = 1.0

 72 77  0  0  1  0  0  0  0  0999 V2000
   -2.6914    1.0977   -1.2776 S   0  0  0  0  0  1  0  0  0  0  0  0
   -0.7128   -1.5953   -0.3751 P   0  0  0  0  0  0  0  0  0  0  0  0
   -1.0644    1.9835   -0.4528 P   0  0  0  0  0  4  0  0  0  0  0  0
    1.6028   -0.8029   -1.6681 O   0  0  0  0  0  0  0  0  0  0  0  0
    7.1802   -0.1446    1.3586 O   0  0  0  0  0  0  0  0  0  0  0  0
    0.2820   -0.3636   -1.3898 C   0  0  2  0  0  0  0  0  0  0  0  0
   -0.3141   -0.2022   -2.3219 H   0  0  0  0  0  0  0  0  0  0  0  0
    0.4864    0.9697   -0.6536 C   0  0  1  0  0  0  0  0  0  0  0  0
    0.8255    0.7425    0.3779 H   0  0  0  0  0  0  0  0  0  0  0  0
    1.6350    1.5805   -1.4644 C   0  0  0  0  0  0  0  0  0  0  0  0
    2.2191    2.3294   -0.8974 H   0  0  0  0  0  0  0  0  0  0  0  0
    1.2438    2.0767   -2.3746 H   0  0  0  0  0  0  0  0  0  0  0  0
    2.4859    0.3346   -1.8430 C   0  0  1  0  0  0  0  0  0  0  0  0
    2.7697    0.3941   -2.9169 H   0  0  0  0  0  0  0  0  0  0  0  0
    3.7412    0.1654   -1.0204 C   0  0  0  0  0  0  0  0  0  0  0  0
    5.0004    0.4155   -1.5880 C   0  0  0  0  0  0  0  0  0  0  0  0
    5.0698    0.6838   -2.6547 H   0  0  0  0  0  0  0  0  0  0  0  0
    6.1807    0.3291   -0.8312 C   0  0  0  0  0  0  0  0  0  0  0  0
    7.1465    0.5281   -1.3142 H   0  0  0  0  0  0  0  0  0  0  0  0
    6.1068   -0.0248    0.5314 C   0  0  0  0  0  0  0  0  0  0  0  0
    4.8449   -0.2896    1.1098 C   0  0  0  0  0  0  0  0  0  0  0  0
    4.8030   -0.5836    2.1683 H   0  0  0  0  0  0  0  0  0  0  0  0
    3.6837   -0.1948    0.3443 C   0  0  0  0  0  0  0  0  0  0  0  0
    2.7182   -0.4329    0.8118 H   0  0  0  0  0  0  0  0  0  0  0  0
    8.4689    0.0971    0.8273 C   0  0  0  0  0  0  0  0  0  0  0  0
    9.1839   -0.0532    1.6572 H   0  0  0  0  0  0  0  0  0  0  0  0
    8.5726    1.1379    0.4454 H   0  0  0  0  0  0  0  0  0  0  0  0
    8.7181   -0.6094    0.0037 H   0  0  0  0  0  0  0  0  0  0  0  0
   -0.8230   -3.0842   -1.4396 C   0  0  0  0  0  0  0  0  0  0  0  0
    0.0628   -3.3028   -2.5183 C   0  0  0  0  0  0  0  0  0  0  0  0
    0.8681   -2.5836   -2.7251 H   0  0  0  0  0  0  0  0  0  0  0  0
   -0.0770   -4.4519   -3.3121 C   0  0  0  0  0  0  0  0  0  0  0  0
    0.6147   -4.6173   -4.1523 H   0  0  0  0  0  0  0  0  0  0  0  0
   -1.0880   -5.3855   -3.0365 C   0  0  0  0  0  0  0  0  0  0  0  0
   -1.1937   -6.2842   -3.6634 H   0  0  0  0  0  0  0  0  0  0  0  0
   -1.9648   -5.1694   -1.9612 C   0  0  0  0  0  0  0  0  0  0  0  0
   -2.7608   -5.8967   -1.7409 H   0  0  0  0  0  0  0  0  0  0  0  0
   -1.8412   -4.0230   -1.1643 C   0  0  0  0  0  0  0  0  0  0  0  0
   -2.5233   -3.8443   -0.3170 H   0  0  0  0  0  0  0  0  0  0  0  0
    0.4516   -1.9745    0.9866 C   0  0  0  0  0  0  0  0  0  0  0  0
    1.4673   -2.9371    0.8352 C   0  0  0  0  0  0  0  0  0  0  0  0
    1.5286   -3.5304   -0.0886 H   0  0  0  0  0  0  0  0  0  0  0  0
    2.3999   -3.1339    1.8650 C   0  0  0  0  0  0  0  0  0  0  0  0
    3.1921   -3.8880    1.7454 H   0  0  0  0  0  0  0  0  0  0  0  0
    2.3303   -2.3653    3.0380 C   0  0  0  0  0  0  0  0  0  0  0  0
    3.0652   -2.5224    3.8425 H   0  0  0  0  0  0  0  0  0  0  0  0
    1.3169   -1.4036    3.1892 C   0  0  0  0  0  0  0  0  0  0  0  0
    1.2483   -0.8082    4.1122 H   0  0  0  0  0  0  0  0  0  0  0  0
    0.3695   -1.2147    2.1727 C   0  0  0  0  0  0  0  0  0  0  0  0
   -0.4540   -0.4958    2.3032 H   0  0  0  0  0  0  0  0  0  0  0  0
   -0.7925    3.5861   -1.2923 C   0  0  0  0  0  0  0  0  0  0  0  0
   -0.3515    4.7234   -0.5878 C   0  0  0  0  0  0  0  0  0  0  0  0
   -0.1952    4.6754    0.4998 H   0  0  0  0  0  0  0  0  0  0  0  0
   -0.1299    5.9263   -1.2759 C   0  0  0  0  0  0  0  0  0  0  0  0
    0.2082    6.8147   -0.7217 H   0  0  0  0  0  0  0  0  0  0  0  0
   -0.3492    5.9998   -2.6601 C   0  0  0  0  0  0  0  0  0  0  0  0
   -0.1779    6.9463   -3.1947 H   0  0  0  0  0  0  0  0  0  0  0  0
   -0.7995    4.8689   -3.3611 C   0  0  0  0  0  0  0  0  0  0  0  0
   -0.9859    4.9270   -4.4440 H   0  0  0  0  0  0  0  0  0  0  0  0
   -1.0236    3.6635   -2.6823 C   0  0  0  0  0  0  0  0  0  0  0  0
   -1.3984    2.7802   -3.2227 H   0  0  0  0  0  0  0  0  0  0  0  0
   -1.1834    2.2954    1.3400 C   0  0  0  0  0  0  0  0  0  0  0  0
   -2.4389    2.2228    1.9725 C   0  0  0  0  0  0  0  0  0  0  0  0
   -3.3444    1.9533    1.4017 H   0  0  0  0  0  0  0  0  0  0  0  0
   -2.5186    2.4104    3.3608 C   0  0  0  0  0  0  0  0  0  0  0  0
   -3.4972    2.3180    3.8544 H   0  0  0  0  0  0  0  0  0  0  0  0
   -1.3632    2.6785    4.1105 C   0  0  0  0  0  0  0  0  0  0  0  0
   -1.4330    2.8133    5.2006 H   0  0  0  0  0  0  0  0  0  0  0  0
   -0.1123    2.7602    3.4749 C   0  0  0  0  0  0  0  0  0  0  0  0
    0.7965    2.9646    4.0606 H   0  0  0  0  0  0  0  0  0  0  0  0
   -0.0166    2.5645    2.0898 C   0  0  0  0  0  0  0  0  0  0  0  0
    0.9715    2.6109    1.6053 H   0  0  0  0  0  0  0  0  0  0  0  0
  1  3  1  0  0  0  0
  2 40  1  0  0  0  0
  3 62  1  0  0  0  0
  4  6  1  0  0  0  0
  6  7  1  6  0  0  0
  6  8  1  0  0  0  0
  6  2  1  0  0  0  0
  8  3  1  0  0  0  0
  8  9  1  1  0  0  0
 10 11  1  0  0  0  0
 10  8  1  0  0  0  0
 12 10  1  0  0  0  0
 13 14  1  6  0  0  0
 13  4  1  0  0  0  0
 13 10  1  0  0  0  0
 13 15  1  0  0  0  0
 15 23  1  0  0  0  0
 16 15  2  0  0  0  0
 16 18  1  0  0  0  0
 17 16  1  0  0  0  0
 18 20  2  0  0  0  0
 19 18  1  0  0  0  0
 20 21  1  0  0  0  0
 20  5  1  0  0  0  0
 21 22  1  0  0  0  0
 23 24  1  0  0  0  0
 23 21  2  0  0  0  0
 25  5  1  0  0  0  0
 25 26  1  0  0  0  0
 27 25  1  0  0  0  0
 28 25  1  0  0  0  0
 29 38  1  0  0  0  0
 29  2  1  0  0  0  0
 30 29  2  0  0  0  0
 31 30  1  0  0  0  0
 32 34  2  0  0  0  0
 32 30  1  0  0  0  0
 33 32  1  0  0  0  0
 34 36  1  0  0  0  0
 35 34  1  0  0  0  0
 36 37  1  0  0  0  0
 36 38  2  0  0  0  0
 38 39  1  0  0  0  0
 40 49  1  0  0  0  0
 41 40  2  0  0  0  0
 41 43  1  0  0  0  0
 42 41  1  0  0  0  0
 43 45  2  0  0  0  0
 44 43  1  0  0  0  0
 45 47  1  0  0  0  0
 45 46  1  0  0  0  0
 47 48  1  0  0  0  0
 49 50  1  0  0  0  0
 49 47  2  0  0  0  0
 51 52  1  0  0  0  0
 51  3  1  0  0  0  0
 52 53  1  0  0  0  0
 54 55  1  0  0  0  0
 54 52  2  0  0  0  0
 56 54  1  0  0  0  0
 57 56  1  0  0  0  0
 58 60  1  0  0  0  0
 58 56  2  0  0  0  0
 59 58  1  0  0  0  0
 60 51  2  0  0  0  0
 61 60  1  0  0  0  0
 62 63  2  0  0  0  0
 62 71  1  0  0  0  0
 63 65  1  0  0  0  0
 64 63  1  0  0  0  0
 65 66  1  0  0  0  0
 65 67  2  0  0  0  0
 67 68  1  0  0  0  0
 69 70  1  0  0  0  0
 69 67  1  0  0  0  0
 71 69  2  0  0  0  0
 72 71  1  0  0  0  0
M  END
