1,3
q = -1.0, confidence = 0.0

 36 37  0  0  1  0  0  0  0  0999 V2000
    1.7089   -0.8465    2.9805 S   0  0  0  0  0  1  0  0  0  0  0  0
    4.0576   -2.2826    1.6040 S   0  0  0  0  0  0  0  0  0  0  0  0
    1.7210   -0.7445    0.1818 P   0  0  2  0  0  0  0  0  0  0  0  0
    2.6708   -1.3946    1.6329 C   0  0  0  0  0  0  0  0  0  0  0  0
    1.4923   -2.1672   -0.9853 C   0  0  1  0  0  0  0  0  0  0  0  0
    0.6568   -3.2526   -0.2797 C   0  0  0  0  0  0  0  0  0  0  0  0
    0.0653   -4.2510   -1.2362 C   0  0  0  0  0  0  0  0  0  0  0  0
    0.0860   -4.1124   -2.5776 C   0  0  0  0  0  0  0  0  0  0  0  0
    0.6845   -2.9145   -3.2665 C   0  0  0  0  0  0  0  0  0  0  0  0
    0.8541   -1.7257   -2.3111 C   0  0  0  0  0  0  0  0  0  0  0  0
    2.7791    0.5443   -0.6441 C   0  0  0  0  0  0  0  0  0  0  0  0
    3.1449    1.6426    0.3714 C   0  0  0  0  0  0  0  0  0  0  0  0
    3.9432    2.7668   -0.3004 C   0  0  0  0  0  0  0  0  0  0  0  0
    5.1908    2.2222   -1.0066 C   0  0  0  0  0  0  0  0  0  0  0  0
    4.8252    1.1237   -2.0122 C   0  0  0  0  0  0  0  0  0  0  0  0
    4.0266   -0.0115   -1.3529 C   0  0  0  0  0  0  0  0  0  0  0  0
    2.5159   -2.5621   -1.1705 H   0  0  0  0  0  0  0  0  0  0  0  0
   -0.1604   -2.7774    0.3150 H   0  0  0  0  0  0  0  0  0  0  0  0
    1.2878   -3.7704    0.4738 H   0  0  0  0  0  0  0  0  0  0  0  0
   -0.4040   -5.1434   -0.7889 H   0  0  0  0  0  0  0  0  0  0  0  0
   -0.3475   -4.9038   -3.2116 H   0  0  0  0  0  0  0  0  0  0  0  0
    0.0518   -2.6157   -4.1301 H   0  0  0  0  0  0  0  0  0  0  0  0
    1.6697   -3.1902   -3.7100 H   0  0  0  0  0  0  0  0  0  0  0  0
   -0.1434   -1.2855   -2.0971 H   0  0  0  0  0  0  0  0  0  0  0  0
    1.4536   -0.9285   -2.7961 H   0  0  0  0  0  0  0  0  0  0  0  0
    2.0998    0.9947   -1.4059 H   0  0  0  0  0  0  0  0  0  0  0  0
    2.2256    2.0373    0.8540 H   0  0  0  0  0  0  0  0  0  0  0  0
    3.7505    1.1902    1.1868 H   0  0  0  0  0  0  0  0  0  0  0  0
    3.2932    3.2825   -1.0440 H   0  0  0  0  0  0  0  0  0  0  0  0
    4.2215    3.5317    0.4538 H   0  0  0  0  0  0  0  0  0  0  0  0
    5.8847    1.8020   -0.2449 H   0  0  0  0  0  0  0  0  0  0  0  0
    5.7404    3.0429   -1.5130 H   0  0  0  0  0  0  0  0  0  0  0  0
    5.7385    0.7092   -2.4876 H   0  0  0  0  0  0  0  0  0  0  0  0
    4.2183    1.5674   -2.8341 H   0  0  0  0  0  0  0  0  0  0  0  0
    4.6537   -0.5431   -0.6052 H   0  0  0  0  0  0  0  0  0  0  0  0
    3.7423   -0.7663   -2.1150 H   0  0  0  0  0  0  0  0  0  0  0  0
  2  4  2  0  0  0  0
  3  4  1  1  0  0  0
  4  1  1  0  0  0  0
  5 17  1  6  0  0  0
  5  6  1  0  0  0  0
  5  3  1  0  0  0  0
  6 18  1  0  0  0  0
  6 19  1  0  0  0  0
  7 20  1  0  0  0  0
  7  6  1  0  0  0  0
  8  7  2  0  0  0  0
  9  8  1  0  0  0  0
  9 10  1  0  0  0  0
 10 24  1  0  0  0  0
 10  5  1  0  0  0  0
 11  3  1  0  0  0  0
 11 12  1  0  0  0  0
 12 27  1  0  0  0  0
 12 28  1  0  0  0  0
 13 12  1  0  0  0  0
 13 30  1  0  0  0  0
 14 13  1  0  0  0  0
 14 31  1  0  0  0  0
 15 16  1  0  0  0  0
 15 14  1  0  0  0  0
 16 11  1  0  0  0  0
 16 35  1  0  0  0  0
 21  8  1  0  0  0  0
 22  9  1  0  0  0  0
 23  9  1  0  0  0  0
 25 10  1  0  0  0  0
 26 11  1  0  0  0  0
 29 13  1  0  0  0  0
 32 14  1  0  0  0  0
 33 15  1  0  0  0  0
 34 15  1  0  0  0  0
 36 16  1  0  0  0  0
M  END
