2,3
q = -1.0, confidence = 0.006

 42 48  0  0  1  0  0  0  0  0999 V2000
   -0.0248    0.8186   -2.3378 Cl  0  0  0  0  0  0  0  0  0  0  0  0
   -2.9889    0.8368   -0.2589 S   0  0  0  0  0  0  0  0  0  0  0  0
   -0.1538    1.7437    0.9049 P   0  0  2  0  0  0  0  0  0  0  0  0
   -1.4673    3.0049    0.6124 C   0  0  0  0  0  0  0  0  0  0  0  0
   -1.3190    4.3942    0.7760 C   0  0  0  0  0  0  0  0  0  0  0  0
   -2.2650    5.2701    0.2047 C   0  0  0  0  0  0  0  0  0  0  0  0
   -3.3291    4.7934   -0.5799 C   0  0  0  0  0  0  0  0  0  0  0  0
   -3.5037    3.4038   -0.7454 C   0  0  0  0  0  0  0  0  0  0  0  0
   -4.4203    2.6397   -1.5930 C   0  0  0  0  0  0  0  0  0  0  0  0
   -5.4324    3.1055   -2.4552 C   0  0  0  0  0  0  0  0  0  0  0  0
   -6.1659    2.1943   -3.2260 C   0  0  0  0  0  0  0  0  0  0  0  0
   -5.9106    0.8104   -3.1453 C   0  0  0  0  0  0  0  0  0  0  0  0
   -4.9227    0.3149   -2.2812 C   0  0  0  0  0  0  0  0  0  0  0  0
   -4.1881    1.2344   -1.5242 C   0  0  0  0  0  0  0  0  0  0  0  0
   -2.6011    2.5530   -0.0684 C   0  0  0  0  0  0  0  0  0  0  0  0
    0.9317    2.3083    2.2834 C   0  0  0  0  0  0  0  0  0  0  0  0
    0.6542    2.4377    3.6404 C   0  0  0  0  0  3  0  0  0  0  0  0
    1.6693    2.9405    4.2952 C   0  0  0  0  0  3  0  0  0  0  0  0
    2.9703    3.3704    4.0680 C   0  0  0  0  0  0  0  0  0  0  0  0
    3.1700    3.2953    2.6693 C   0  0  0  0  0  3  0  0  0  0  0  0
    2.2509    2.7847    1.7740 C   0  0  0  0  0  0  0  0  0  0  0  0
    4.0013    3.7918    5.0730 C   0  0  0  0  0  0  0  0  0  0  0  0
    1.1482    2.1467   -0.2799 C   0  0  0  0  0  0  0  0  0  0  0  0
    1.3490    1.7353   -1.6144 C   0  0  0  0  0  0  0  0  0  0  0  0
    2.6407    1.9199   -2.0193 C   0  0  2  0  0  3  0  0  0  0  0  0
    3.9845    2.2151   -1.8323 C   0  0  1  0  0  3  0  0  0  0  0  0
    3.3140    2.5299   -0.6996 C   0  0  2  0  0  3  0  0  0  0  0  0
    2.3434    2.6058    0.3167 C   0  0  2  0  0  3  0  0  0  0  0  0
    5.2902    2.1013   -2.5164 C   0  0  0  0  0  0  0  0  0  0  0  0
   -0.4406    4.7838    1.3129 H   0  0  0  0  0  0  0  0  0  0  0  0
   -2.1346    6.3550    0.3328 H   0  0  0  0  0  0  0  0  0  0  0  0
   -4.0064    5.5018   -1.0802 H   0  0  0  0  0  0  0  0  0  0  0  0
   -5.6370    4.1844   -2.5263 H   0  0  0  0  0  0  0  0  0  0  0  0
   -6.9483    2.5637   -3.9053 H   0  0  0  0  0  0  0  0  0  0  0  0
   -6.4887    0.1094   -3.7658 H   0  0  0  0  0  0  0  0  0  0  0  0
   -4.7200   -0.7640   -2.2087 H   0  0  0  0  0  0  0  0  0  0  0  0
    5.0081    3.4676    4.7448 H   0  0  0  0  0  0  0  0  0  0  0  0
    3.7809    3.3784    6.0761 H   0  0  0  0  0  0  0  0  0  0  0  0
    4.0276    4.8997    5.1594 H   0  0  0  0  0  0  0  0  0  0  0  0
    5.4613    1.0262   -2.7438 H   0  0  0  0  0  0  0  0  0  0  0  0
    6.1061    2.4705   -1.8699 H   0  0  0  0  0  0  0  0  0  0  0  0
    5.2783    2.6637   -3.4714 H   0  0  0  0  0  0  0  0  0  0  0  0
  1 24  1  0  0  0  0
  2 15  1  0  0  0  0
  3  4  1  6  0  0  0
  3 16  1  0  0  0  0
  4  5  1  0  0  0  0
  5 30  1  0  0  0  0
  6 31  1  0  0  0  0
  6  5  2  0  0  0  0
  7  6  1  0  0  0  0
  8  7  2  0  0  0  0
  8 15  1  0  0  0  0
  9 14  1  0  0  0  0
  9  8  1  0  0  0  0
 10  9  2  0  0  0  0
 11 12  2  0  0  0  0
 11 10  1  0  0  0  0
 12 13  1  0  0  0  0
 13 36  1  0  0  0  0
 13 14  2  0  0  0  0
 14  2  1  0  0  0  0
 15  4  2  0  0  0  0
 16 17  1  0  0  0  0
 17 18  2  0  0  0  0
 19 18  1  0  0  0  0
 19 22  1  0  0  0  0
 20 19  2  0  0  0  0
 21 16  2  0  0  0  0
 21 20  1  0  0  0  0
 22 39  1  0  0  0  0
 22 38  1  0  0  0  0
 23 28  1  0  0  0  0
 23  3  1  0  0  0  0
 24 23  2  0  0  0  0
 25 26  1  0  0  0  0
 25 24  1  1  0  0  0
 25 27  1  0  0  0  0
 26 29  1  1  0  0  0
 26 27  1  0  0  0  0
 27 28  1  0  0  0  0
 28 21  1  0  0  0  0
 29 41  1  0  0  0  0
 32  7  1  0  0  0  0
 33 10  1  0  0  0  0
 34 11  1  0  0  0  0
 35 12  1  0  0  0  0
 37 22  1  0  0  0  0
 40 29  1  0  0  0  0
 42 29  1  0  0  0  0
M  END
