1,2
q = 0.0, confidence = 0.968

 41 42  0  0  1  0  0  0  0  0999 V2000
   -0.2849   -1.9181   -0.4532 S   0  0  0  0  0  1  0  0  0  0  0  0
   -2.2600    0.2886   -0.0263 P   0  0  0  0  0  0  0  0  0  0  0  0
   -2.5292   -0.8104   -1.5125 C   0  0  0  0  0  0  0  0  0  0  0  0
   -1.7280   -2.0530   -1.2841 C   0  0  2  0  0  3  0  0  0  0  0  0
   -2.2325   -3.3905   -1.7927 C   0  0  0  0  0  0  0  0  0  0  0  0
   -2.5738   -3.2585   -3.2975 C   0  0  0  0  0  0  0  0  0  0  0  0
   -3.5180   -3.7250   -0.9857 C   0  0  0  0  0  0  0  0  0  0  0  0
   -1.2047   -4.5160   -1.5977 C   0  0  0  0  0  0  0  0  0  0  0  0
   -3.0830    1.8765   -0.3794 C   0  0  0  0  0  0  0  0  0  0  0  0
   -3.4649    2.2738   -1.6765 C   0  0  0  0  0  0  0  0  0  0  0  0
   -3.9889    3.5589   -1.8903 C   0  0  0  0  0  0  0  0  0  0  0  0
   -4.1277    4.4526   -0.8174 C   0  0  0  0  0  0  0  0  0  0  0  0
   -3.7434    4.0615    0.4771 C   0  0  0  0  0  0  0  0  0  0  0  0
   -3.2192    2.7814    0.6977 C   0  0  0  0  0  0  0  0  0  0  0  0
   -3.2906   -0.5116    1.2605 C   0  0  0  0  0  0  0  0  0  0  0  0
   -2.7238   -1.4431    2.1545 C   0  0  0  0  0  0  0  0  0  0  0  0
   -3.5402   -2.1268    3.0673 C   0  0  0  0  0  0  0  0  0  0  0  0
   -4.9227   -1.8864    3.0951 C   0  0  0  0  0  0  0  0  0  0  0  0
   -5.4914   -0.9571    2.2086 C   0  0  0  0  0  0  0  0  0  0  0  0
   -4.6818   -0.2706    1.2931 C   0  0  0  0  0  0  0  0  0  0  0  0
   -2.0822   -0.2496   -2.3656 H   0  0  0  0  0  0  0  0  0  0  0  0
   -3.5993   -0.9983   -1.7267 H   0  0  0  0  0  0  0  0  0  0  0  0
   -3.3533   -2.4952   -3.4882 H   0  0  0  0  0  0  0  0  0  0  0  0
   -2.9566   -4.2283   -3.6727 H   0  0  0  0  0  0  0  0  0  0  0  0
   -1.6730   -2.9952   -3.8874 H   0  0  0  0  0  0  0  0  0  0  0  0
   -3.9136   -4.7012   -1.3304 H   0  0  0  0  0  0  0  0  0  0  0  0
   -4.3154   -2.9691   -1.1262 H   0  0  0  0  0  0  0  0  0  0  0  0
   -3.3014   -3.7986    0.0983 H   0  0  0  0  0  0  0  0  0  0  0  0
   -0.9599   -4.6648   -0.5278 H   0  0  0  0  0  0  0  0  0  0  0  0
   -0.2595   -4.3006   -2.1347 H   0  0  0  0  0  0  0  0  0  0  0  0
   -1.6178   -5.4660   -1.9897 H   0  0  0  0  0  0  0  0  0  0  0  0
   -3.3588    1.5886   -2.5292 H   0  0  0  0  0  0  0  0  0  0  0  0
   -4.2922    3.8606   -2.9039 H   0  0  0  0  0  0  0  0  0  0  0  0
   -4.5415    5.4576   -0.9887 H   0  0  0  0  0  0  0  0  0  0  0  0
   -3.8541    4.7583    1.3214 H   0  0  0  0  0  0  0  0  0  0  0  0
   -2.9129    2.4814    1.7122 H   0  0  0  0  0  0  0  0  0  0  0  0
   -1.6419   -1.6344    2.1386 H   0  0  0  0  0  0  0  0  0  0  0  0
   -3.0902   -2.8468    3.7669 H   0  0  0  0  0  0  0  0  0  0  0  0
   -5.5599   -2.4201    3.8160 H   0  0  0  0  0  0  0  0  0  0  0  0
   -6.5738   -0.7615    2.2323 H   0  0  0  0  0  0  0  0  0  0  0  0
   -5.1321    0.4607    0.6047 H   0  0  0  0  0  0  0  0  0  0  0  0
  2 15  1  0  0  0  0
  3  4  1  0  0  0  0
  3  2  1  0  0  0  0
  4  1  1  1  0  0  0
  5  8  1  0  0  0  0
  5  4  1  0  0  0  0
  5  7  1  0  0  0  0
  6  5  1  0  0  0  0
  7 28  1  0  0  0  0
  8 29  1  0  0  0  0
  9  2  1  0  0  0  0
  9 14  1  0  0  0  0
 10  9  2  0  0  0  0
 11 10  1  0  0  0  0
 11 12  2  0  0  0  0
 12 13  1  0  0  0  0
 13 14  2  0  0  0  0
 13 35  1  0  0  0  0
 14 36  1  0  0  0  0
 15 20  2  0  0  0  0
 15 16  1  0  0  0  0
 16 17  2  0  0  0  0
 17 18  1  0  0  0  0
 17 38  1  0  0  0  0
 18 39  1  0  0  0  0
 19 40  1  0  0  0  0
 19 18  2  0  0  0  0
 20 19  1  0  0  0  0
 21  3  1  0  0  0  0
 22  3  1  0  0  0  0
 23  6  1  0  0  0  0
 24  6  1  0  0  0  0
 25  6  1  0  0  0  0
 26  7  1  0  0  0  0
 27  7  1  0  0  0  0
 30  8  1  0  0  0  0
 31  8  1  0  0  0  0
 32 10  1  0  0  0  0
 33 11  1  0  0  0  0
 34 12  1  0  0  0  0
 37 16  1  0  0  0  0
 41 20  1  0  0  0  0
M  END
