1,24
q = 0.0, confidence = 0.998

 38 40  0  0  0  0  0  0  0  0999 V2000
   -1.1231    0.6281    0.0331 P   0  0  0  0  0  0  0  0  0  0  0  0
   -2.2381    0.5103    1.4932 C   0  0  0  0  0  0  0  0  0  0  0  0
   -3.2669   -0.4545    1.4695 C   0  0  0  0  0  0  0  0  0  0  0  0
   -3.4191   -1.0725    0.5702 H   0  0  0  0  0  0  0  0  0  0  0  0
   -4.0847   -0.6338    2.5924 C   0  0  0  0  0  0  0  0  0  0  0  0
   -4.8847   -1.3892    2.5695 H   0  0  0  0  0  0  0  0  0  0  0  0
   -3.8791    0.1409    3.7471 C   0  0  0  0  0  0  0  0  0  0  0  0
   -4.5198   -0.0055    4.6297 H   0  0  0  0  0  0  0  0  0  0  0  0
   -2.8515    1.0954    3.7751 C   0  0  0  0  0  0  0  0  0  0  0  0
   -2.6843    1.7009    4.6790 H   0  0  0  0  0  0  0  0  0  0  0  0
   -2.0301    1.2814    2.6511 C   0  0  0  0  0  0  0  0  0  0  0  0
   -1.2181    2.0250    2.6732 H   0  0  0  0  0  0  0  0  0  0  0  0
   -2.2866    1.1029   -1.3156 C   0  0  0  0  0  0  0  0  0  0  0  0
   -3.3006    2.0549   -1.0771 C   0  0  0  0  0  0  0  0  0  0  0  0
   -3.4218    2.4889   -0.0720 H   0  0  0  0  0  0  0  0  0  0  0  0
   -4.1639    2.4352   -2.1134 C   0  0  0  0  0  0  0  0  0  0  0  0
   -4.9537    3.1777   -1.9227 H   0  0  0  0  0  0  0  0  0  0  0  0
   -4.0269    1.8632   -3.3899 C   0  0  0  0  0  0  0  0  0  0  0  0
   -4.7095    2.1590   -4.2011 H   0  0  0  0  0  0  0  0  0  0  0  0
   -3.0259    0.9092   -3.6272 C   0  0  0  0  0  0  0  0  0  0  0  0
   -2.9210    0.4520   -4.6226 H   0  0  0  0  0  0  0  0  0  0  0  0
   -2.1561    0.5279   -2.5934 C   0  0  0  0  0  0  0  0  0  0  0  0
   -1.3766   -0.2263   -2.7724 H   0  0  0  0  0  0  0  0  0  0  0  0
    1.8952    0.4650    0.9618 S   0  0  0  0  0  0  0  0  0  0  0  0
    2.3734    3.3316    0.5353 S   0  0  0  0  0  0  0  0  0  0  0  0
   -0.1571    2.1605    0.2687 C   0  0  0  0  0  0  0  0  0  0  0  0
   -0.6145    3.1418    0.0666 H   0  0  0  0  0  0  0  0  0  0  0  0
    1.1700    2.0548    0.5371 C   0  0  0  0  0  0  0  0  0  0  0  0
    3.7814    2.2455    0.3321 C   0  0  0  0  0  0  0  0  0  0  0  0
    5.0801    2.9360    0.0472 C   0  0  0  0  0  0  0  0  0  0  0  0
    5.3218    3.6734    0.8415 H   0  0  0  0  0  0  0  0  0  0  0  0
    5.0393    3.4892   -0.9144 H   0  0  0  0  0  0  0  0  0  0  0  0
    5.9124    2.2104   -0.0071 H   0  0  0  0  0  0  0  0  0  0  0  0
    3.5601    0.9117    0.4571 C   0  0  0  0  0  0  0  0  0  0  0  0
    4.5180   -0.2257    0.3144 C   0  0  0  0  0  0  0  0  0  0  0  0
    4.5234   -0.8640    1.2229 H   0  0  0  0  0  0  0  0  0  0  0  0
    5.5483    0.1345    0.1376 H   0  0  0  0  0  0  0  0  0  0  0  0
    4.2248   -0.8807   -0.5325 H   0  0  0  0  0  0  0  0  0  0  0  0
  1 26  1  0  0  0  0
  1  2  1  0  0  0  0
  2 11  1  0  0  0  0
  3  2  2  0  0  0  0
  3  5  1  0  0  0  0
  4  3  1  0  0  0  0
  5  7  2  0  0  0  0
  6  5  1  0  0  0  0
  7  9  1  0  0  0  0
  7  8  1  0  0  0  0
  9 10  1  0  0  0  0
 11 12  1  0  0  0  0
 11  9  2  0  0  0  0
 13 14  1  0  0  0  0
 13  1  1  0  0  0  0
 14 15  1  0  0  0  0
 16 17  1  0  0  0  0
 16 14  2  0  0  0  0
 18 16  1  0  0  0  0
 19 18  1  0  0  0  0
 20 18  2  0  0  0  0
 20 22  1  0  0  0  0
 21 20  1  0  0  0  0
 22 13  2  0  0  0  0
 23 22  1  0  0  0  0
 25 28  1  0  0  0  0
 26 28  2  0  0  0  0
 27 26  1  0  0  0  0
 28 24  1  0  0  0  0
 29 34  2  0  0  0  0
 29 25  1  0  0  0  0
 30 29  1  0  0  0  0
 30 31  1  0  0  0  0
 32 30  1  0  0  0  0
 33 30  1  0  0  0  0
 34 24  1  0  0  0  0
 35 34  1  0  0  0  0
 35 36  1  0  0  0  0
 37 35  1  0  0  0  0
 38 35  1  0  0  0  0
M  END
