1,2
q = -1.0, confidence = 0.0

 37 39  0  0  0  0  0  0  0  0999 V2000
   -0.3013    1.8376   -1.2562 S   0  0  0  0  0  1  0  0  0  0  0  0
   -2.3762   -0.0939   -0.0490 P   0  0  0  0  0  0  0  0  0  0  0  0
   -2.9465    1.5927   -0.4517 C   0  0  0  0  0  0  0  0  0  0  0  0
   -1.9356    2.4310   -0.9758 C   0  0  0  0  0  0  0  0  0  0  0  0
   -2.2893    3.7645   -1.3016 C   0  0  0  0  0  0  0  0  0  0  0  0
   -1.5155    4.4378   -1.7011 H   0  0  0  0  0  0  0  0  0  0  0  0
   -3.5999    4.2140   -1.1277 C   0  0  0  0  0  0  0  0  0  0  0  0
   -3.8482    5.2548   -1.3938 H   0  0  0  0  0  0  0  0  0  0  0  0
   -4.6223    3.3698   -0.6295 C   0  0  0  0  0  0  0  0  0  0  0  0
   -4.2678    2.0512   -0.2977 C   0  0  0  0  0  0  0  0  0  0  0  0
   -5.0392    1.3647    0.0878 H   0  0  0  0  0  0  0  0  0  0  0  0
   -6.0360    3.8717   -0.4754 C   0  0  0  0  0  0  0  0  0  0  0  0
   -6.0820    4.7767    0.1666 H   0  0  0  0  0  0  0  0  0  0  0  0
   -6.6928    3.1033   -0.0231 H   0  0  0  0  0  0  0  0  0  0  0  0
   -6.4769    4.1535   -1.4555 H   0  0  0  0  0  0  0  0  0  0  0  0
   -2.7656   -0.3028    1.7407 C   0  0  0  0  0  0  0  0  0  0  0  0
   -3.0634    0.8118    2.5527 C   0  0  0  0  0  0  0  0  0  0  0  0
   -3.1141    1.8148    2.1043 H   0  0  0  0  0  0  0  0  0  0  0  0
   -3.2999    0.6440    3.9271 C   0  0  0  0  0  0  0  0  0  0  0  0
   -3.5357    1.5214    4.5488 H   0  0  0  0  0  0  0  0  0  0  0  0
   -3.2414   -0.6347    4.5038 C   0  0  0  0  0  0  0  0  0  0  0  0
   -3.4319   -0.7655    5.5800 H   0  0  0  0  0  0  0  0  0  0  0  0
   -2.9366   -1.7460    3.6994 C   0  0  0  0  0  0  0  0  0  0  0  0
   -2.8818   -2.7513    4.1442 H   0  0  0  0  0  0  0  0  0  0  0  0
   -2.6949   -1.5857    2.3281 C   0  0  0  0  0  0  0  0  0  0  0  0
   -2.4396   -2.4556    1.7081 H   0  0  0  0  0  0  0  0  0  0  0  0
   -3.5838   -1.1644   -0.9258 C   0  0  0  0  0  0  0  0  0  0  0  0
   -4.8276   -1.5181   -0.3694 C   0  0  0  0  0  0  0  0  0  0  0  0
   -5.0765   -1.2185    0.6602 H   0  0  0  0  0  0  0  0  0  0  0  0
   -5.7444   -2.2668   -1.1240 C   0  0  0  0  0  0  0  0  0  0  0  0
   -6.7149   -2.5443   -0.6847 H   0  0  0  0  0  0  0  0  0  0  0  0
   -5.4231   -2.6644   -2.4311 C   0  0  0  0  0  0  0  0  0  0  0  0
   -6.1422   -3.2544   -3.0197 H   0  0  0  0  0  0  0  0  0  0  0  0
   -4.1781   -2.3190   -2.9830 C   0  0  0  0  0  0  0  0  0  0  0  0
   -3.9163   -2.6421   -4.0020 H   0  0  0  0  0  0  0  0  0  0  0  0
   -3.2575   -1.5751   -2.2336 C   0  0  0  0  0  0  0  0  0  0  0  0
   -2.2680   -1.3272   -2.6475 H   0  0  0  0  0  0  0  0  0  0  0  0
  1  4  1  0  0  0  0
  2 16  1  0  0  0  0
  3 10  1  0  0  0  0
  3  2  1  0  0  0  0
  4  3  2  0  0  0  0
  5  7  2  0  0  0  0
  5  4  1  0  0  0  0
  6  5  1  0  0  0  0
  7  9  1  0  0  0  0
  8  7  1  0  0  0  0
  9 12  1  0  0  0  0
  9 10  2  0  0  0  0
 10 11  1  0  0  0  0
 12 14  1  0  0  0  0
 12 13  1  0  0  0  0
 15 12  1  0  0  0  0
 16 25  2  0  0  0  0
 16 17  1  0  0  0  0
 17 19  2  0  0  0  0
 18 17  1  0  0  0  0
 19 21  1  0  0  0  0
 19 20  1  0  0  0  0
 21 22  1  0  0  0  0
 23 24  1  0  0  0  0
 23 21  2  0  0  0  0
 25 23  1  0  0  0  0
 26 25  1  0  0  0  0
 27 28  1  0  0  0  0
 27  2  1  0  0  0  0
 28 29  1  0  0  0  0
 30 31  1  0  0  0  0
 30 28  2  0  0  0  0
 32 30  1  0  0  0  0
 33 32  1  0  0  0  0
 34 32  2  0  0  0  0
 34 36  1  0  0  0  0
 35 34  1  0  0  0  0
 36 27  2  0  0  0  0
 37 36  1  0  0  0  0
M  END
