1,2
q = 0.0, confidence = 1.0

 54 57  0  0  1  0  0  0  0  0999 V2000
    1.7359   -0.7388    0.9186 S   0  0  0  0  0  0  0  0  0  0  0  0
   -1.5529    0.1156    0.4373 P   0  0  0  0  0  0  0  0  0  0  0  0
   -1.3167    0.1455    2.2521 C   0  0  1  0  0  0  0  0  0  0  0  0
   -2.1673    0.6159    2.7747 H   0  0  0  0  0  0  0  0  0  0  0  0
   -0.6798   -1.0504    2.9346 C   0  0  0  0  0  0  0  0  0  0  0  0
   -1.1274   -1.4082    3.8737 H   0  0  0  0  0  0  0  0  0  0  0  0
   -0.2921   -1.8492    2.2798 H   0  0  0  0  0  0  0  0  0  0  0  0
    0.0369    0.2763    2.9242 C   0  0  1  0  0  0  0  0  0  0  0  0
   -0.0082    0.8365    3.8750 H   0  0  0  0  0  0  0  0  0  0  0  0
    1.3561    0.5525    2.2144 C   0  0  1  0  0  0  0  0  0  0  0  0
    1.2889    1.5248    1.6855 H   0  0  0  0  0  0  0  0  0  0  0  0
    2.5153    0.5769    3.2112 C   0  0  0  0  0  0  0  0  0  0  0  0
    2.3523    1.3848    3.9543 H   0  0  0  0  0  0  0  0  0  0  0  0
    3.4804    0.7704    2.7047 H   0  0  0  0  0  0  0  0  0  0  0  0
    2.5852   -0.3847    3.7580 H   0  0  0  0  0  0  0  0  0  0  0  0
    3.1643    0.0355    0.1211 C   0  0  0  0  0  0  0  0  0  0  0  0
    4.3970   -0.6416    0.3127 C   0  0  0  0  0  0  0  0  0  0  0  0
    5.5583   -0.0527   -0.2215 C   0  0  0  0  0  0  0  0  0  0  0  0
    6.5233   -0.5634   -0.0812 H   0  0  0  0  0  0  0  0  0  0  0  0
    5.4956    1.1495   -0.9351 C   0  0  0  0  0  0  0  0  0  0  0  0
    6.4140    1.5955   -1.3457 H   0  0  0  0  0  0  0  0  0  0  0  0
    4.2600    1.7692   -1.1516 C   0  0  0  0  0  0  0  0  0  0  0  0
    4.2051    2.6935   -1.7471 H   0  0  0  0  0  0  0  0  0  0  0  0
    3.0624    1.2263   -0.6433 C   0  0  0  0  0  0  0  0  0  0  0  0
    4.4772   -1.9793    1.0015 C   0  0  0  0  0  0  0  0  0  0  0  0
    5.5213   -2.3445    1.0265 H   0  0  0  0  0  0  0  0  0  0  0  0
    3.8549   -2.7159    0.4512 H   0  0  0  0  0  0  0  0  0  0  0  0
    4.0939   -1.9453    2.0411 H   0  0  0  0  0  0  0  0  0  0  0  0
    1.7564    1.8813   -0.9991 C   0  0  0  0  0  0  0  0  0  0  0  0
    1.1875    2.2534   -0.1234 H   0  0  0  0  0  0  0  0  0  0  0  0
    1.0880    1.1568   -1.5173 H   0  0  0  0  0  0  0  0  0  0  0  0
    1.9209    2.7421   -1.6735 H   0  0  0  0  0  0  0  0  0  0  0  0
   -1.6793    1.8738   -0.0567 C   0  0  0  0  0  0  0  0  0  0  0  0
   -1.4838    2.9281    0.8583 C   0  0  0  0  0  0  0  0  0  0  0  0
   -1.3028    2.7144    1.9219 H   0  0  0  0  0  0  0  0  0  0  0  0
   -1.5122    4.2593    0.4115 C   0  0  0  0  0  0  0  0  0  0  0  0
   -1.3575    5.0792    1.1294 H   0  0  0  0  0  0  0  0  0  0  0  0
   -1.7362    4.5423   -0.9443 C   0  0  0  0  0  0  0  0  0  0  0  0
   -1.7558    5.5862   -1.2924 H   0  0  0  0  0  0  0  0  0  0  0  0
   -1.9300    3.4912   -1.8576 C   0  0  0  0  0  0  0  0  0  0  0  0
   -2.0982    3.7095   -2.9230 H   0  0  0  0  0  0  0  0  0  0  0  0
   -1.8974    2.1600   -1.4228 C   0  0  0  0  0  0  0  0  0  0  0  0
   -2.0132    1.3250   -2.1346 H   0  0  0  0  0  0  0  0  0  0  0  0
   -3.2479   -0.5711    0.3264 C   0  0  0  0  0  0  0  0  0  0  0  0
   -4.3748    0.2667    0.4269 C   0  0  0  0  0  0  0  0  0  0  0  0
   -4.2475    1.3585    0.4887 H   0  0  0  0  0  0  0  0  0  0  0  0
   -5.6620   -0.2933    0.4324 C   0  0  0  0  0  0  0  0  0  0  0  0
   -6.5424    0.3636    0.5013 H   0  0  0  0  0  0  0  0  0  0  0  0
   -5.8245   -1.6844    0.3435 C   0  0  0  0  0  0  0  0  0  0  0  0
   -6.8348   -2.1211    0.3432 H   0  0  0  0  0  0  0  0  0  0  0  0
   -4.6987   -2.5190    0.2428 C   0  0  0  0  0  0  0  0  0  0  0  0
   -4.8245   -3.6089    0.1579 H   0  0  0  0  0  0  0  0  0  0  0  0
   -3.4109   -1.9673    0.2273 C   0  0  0  0  0  0  0  0  0  0  0  0
   -2.5268   -2.6118    0.1110 H   0  0  0  0  0  0  0  0  0  0  0  0
  1 10  1  0  0  0  0
  2  3  1  0  0  0  0
  3  4  1  1  0  0  0
  3  8  1  0  0  0  0
  3  5  1  0  0  0  0
  5  6  1  0  0  0  0
  7  5  1  0  0  0  0
  8  5  1  0  0  0  0
  8  9  1  1  0  0  0
 10 11  1  6  0  0  0
 10  8  1  0  0  0  0
 10 12  1  0  0  0  0
 12 15  1  0  0  0  0
 12 13  1  0  0  0  0
 14 12  1  0  0  0  0
 16 17  1  0  0  0  0
 16  1  1  0  0  0  0
 17 25  1  0  0  0  0
 18 19  1  0  0  0  0
 18 17  2  0  0  0  0
 20 18  1  0  0  0  0
 21 20  1  0  0  0  0
 22 20  2  0  0  0  0
 22 24  1  0  0  0  0
 23 22  1  0  0  0  0
 24 16  2  0  0  0  0
 25 26  1  0  0  0  0
 25 28  1  0  0  0  0
 27 25  1  0  0  0  0
 29 24  1  0  0  0  0
 29 30  1  0  0  0  0
 31 29  1  0  0  0  0
 32 29  1  0  0  0  0
 33  2  1  0  0  0  0
 33 34  1  0  0  0  0
 34 35  1  0  0  0  0
 36 34  2  0  0  0  0
 36 37  1  0  0  0  0
 38 36  1  0  0  0  0
 39 38  1  0  0  0  0
 40 42  1  0  0  0  0
 40 38  2  0  0  0  0
 41 40  1  0  0  0  0
 42 33  2  0  0  0  0
 43 42  1  0  0  0  0
 44 45  1  0  0  0  0
 44  2  1  0  0  0  0
 45 47  2  0  0  0  0
 45 46  1  0  0  0  0
 47 48  1  0  0  0  0
 49 47  1  0  0  0  0
 50 49  1  0  0  0  0
 51 49  2  0  0  0  0
 52 51  1  0  0  0  0
 53 51  1  0  0  0  0
 53 44  2  0  0  0  0
 54 53  1  0  0  0  0
M  END
