1,4
q = 0.0, confidence = 1.0

 46 48  0  0  0  0  0  0  0  0999 V2000
   -2.0229   -1.3743    1.3834 S   0  0  0  0  0  0  0  0  0  0  0  0
   -0.7899    2.5254    1.4760 S   0  0  0  0  0  0  0  0  0  0  0  0
    3.3433   -0.7808    0.1475 O   0  0  0  0  0  0  0  0  0  0  0  0
    0.3915    0.0533   -0.1149 P   0  0  0  0  0  0  0  0  0  0  0  0
    0.6036   -0.4415    1.6563 C   0  0  0  0  0  0  0  0  0  0  0  0
   -0.4436   -1.1799    2.2473 C   0  0  0  0  0  0  0  0  0  0  0  0
   -0.3520   -1.6218    3.5774 C   0  0  0  0  0  0  0  0  0  0  0  0
   -1.1902   -2.1739    4.0295 H   0  0  0  0  0  0  0  0  0  0  0  0
    0.7898   -1.3172    4.3326 C   0  0  0  0  0  0  0  0  0  0  0  0
    0.8612   -1.6579    5.3763 H   0  0  0  0  0  0  0  0  0  0  0  0
    1.8132   -0.5374    3.7701 C   0  0  0  0  0  0  0  0  0  0  0  0
    2.6879   -0.2578    4.3766 H   0  0  0  0  0  0  0  0  0  0  0  0
    1.7220   -0.1011    2.4407 C   0  0  0  0  0  0  0  0  0  0  0  0
    2.5133    0.5207    2.0018 H   0  0  0  0  0  0  0  0  0  0  0  0
   -1.9480   -3.1195    0.8341 C   0  0  0  0  0  0  0  0  0  0  0  0
   -1.0423   -3.2874    0.2231 H   0  0  0  0  0  0  0  0  0  0  0  0
   -2.8588   -3.2381    0.2160 H   0  0  0  0  0  0  0  0  0  0  0  0
   -1.9758   -3.7868    1.7163 H   0  0  0  0  0  0  0  0  0  0  0  0
    1.1892    1.6879   -0.2956 C   0  0  0  0  0  0  0  0  0  0  0  0
    0.6261    2.7810    0.4067 C   0  0  0  0  0  0  0  0  0  0  0  0
    1.1740    4.0661    0.2431 C   0  0  0  0  0  0  0  0  0  0  0  0
    0.7412    4.9054    0.8080 H   0  0  0  0  0  0  0  0  0  0  0  0
    2.2495    4.2708   -0.6332 C   0  0  0  0  0  0  0  0  0  0  0  0
    2.6653    5.2817   -0.7612 H   0  0  0  0  0  0  0  0  0  0  0  0
    2.7909    3.1896   -1.3469 C   0  0  0  0  0  0  0  0  0  0  0  0
    3.6258    3.3501   -2.0453 H   0  0  0  0  0  0  0  0  0  0  0  0
    2.2640    1.9018   -1.1785 C   0  0  0  0  0  0  0  0  0  0  0  0
    2.6731    1.0585   -1.7526 H   0  0  0  0  0  0  0  0  0  0  0  0
   -2.0960    3.2631    0.4229 C   0  0  0  0  0  0  0  0  0  0  0  0
   -2.0025    4.3658    0.3946 H   0  0  0  0  0  0  0  0  0  0  0  0
   -3.0578    2.9793    0.8916 H   0  0  0  0  0  0  0  0  0  0  0  0
   -2.0457    2.8251   -0.5946 H   0  0  0  0  0  0  0  0  0  0  0  0
    1.3724   -1.1467   -1.1101 C   0  0  0  0  0  0  0  0  0  0  0  0
    2.7312   -1.4743   -0.8486 C   0  0  0  0  0  0  0  0  0  0  0  0
    3.3788   -2.4604   -1.6194 C   0  0  0  0  0  0  0  0  0  0  0  0
    4.4251   -2.7257   -1.4191 H   0  0  0  0  0  0  0  0  0  0  0  0
    2.6867   -3.1054   -2.6559 C   0  0  0  0  0  0  0  0  0  0  0  0
    3.2067   -3.8725   -3.2500 H   0  0  0  0  0  0  0  0  0  0  0  0
    1.3555   -2.7744   -2.9405 C   0  0  0  0  0  0  0  0  0  0  0  0
    0.8175   -3.2669   -3.7630 H   0  0  0  0  0  0  0  0  0  0  0  0
    0.7071   -1.8004   -2.1672 C   0  0  0  0  0  0  0  0  0  0  0  0
   -0.3342   -1.5138   -2.3866 H   0  0  0  0  0  0  0  0  0  0  0  0
    4.6893   -1.0772    0.4744 C   0  0  0  0  0  0  0  0  0  0  0  0
    4.8118   -2.1355    0.7929 H   0  0  0  0  0  0  0  0  0  0  0  0
    4.9561   -0.4135    1.3176 H   0  0  0  0  0  0  0  0  0  0  0  0
    5.3738   -0.8729   -0.3780 H   0  0  0  0  0  0  0  0  0  0  0  0
  1  6  1  0  0  0  0
  3 43  1  0  0  0  0
  4  5  1  0  0  0  0
  5  6  2  0  0  0  0
  5 13  1  0  0  0  0
  6  7  1  0  0  0  0
  7  8  1  0  0  0  0
  7  9  2  0  0  0  0
  9 10  1  0  0  0  0
 11  9  1  0  0  0  0
 11 12  1  0  0  0  0
 13 11  2  0  0  0  0
 14 13  1  0  0  0  0
 15  1  1  0  0  0  0
 15 18  1  0  0  0  0
 16 15  1  0  0  0  0
 17 15  1  0  0  0  0
 19  4  1  0  0  0  0
 19 20  1  0  0  0  0
 20  2  1  0  0  0  0
 21 20  2  0  0  0  0
 21 22  1  0  0  0  0
 23 21  1  0  0  0  0
 24 23  1  0  0  0  0
 25 27  1  0  0  0  0
 25 23  2  0  0  0  0
 26 25  1  0  0  0  0
 27 19  2  0  0  0  0
 28 27  1  0  0  0  0
 29 31  1  0  0  0  0
 29  2  1  0  0  0  0
 30 29  1  0  0  0  0
 32 29  1  0  0  0  0
 33 34  1  0  0  0  0
 33  4  1  0  0  0  0
 34  3  1  0  0  0  0
 35 36  1  0  0  0  0
 35 34  2  0  0  0  0
 37 35  1  0  0  0  0
 38 37  1  0  0  0  0
 39 37  2  0  0  0  0
 39 41  1  0  0  0  0
 40 39  1  0  0  0  0
 41 33  2  0  0  0  0
 42 41  1  0  0  0  0
 43 44  1  0  0  0  0
 43 45  1  0  0  0  0
 46 43  1  0  0  0  0
M  END
