1,2
q = 0.0, confidence = 0.992

 27 27  0  0  0  0  0  0  0  0999 V2000
   -1.7504    1.1913   -0.9933 S   0  0  0  0  0  0  0  0  0  0  0  0
    1.1215    2.0423   -0.0471 P   0  0  0  0  0  0  0  0  0  0  0  0
    2.5138    2.3304   -1.2158 C   0  0  0  0  0  0  0  0  0  0  0  0
    1.7571    2.7109    1.5459 C   0  0  0  0  0  0  0  0  0  0  0  0
   -0.1281    3.3332   -0.6043 C   0  0  0  0  0  0  0  0  0  0  0  0
   -1.5437    2.8861   -0.2671 C   0  0  0  0  0  0  0  0  0  0  0  0
   -3.4019    0.7642   -0.4089 C   0  0  0  0  0  0  0  0  0  0  0  0
   -4.2804    0.2366   -1.3747 C   0  0  0  0  0  0  0  0  0  0  0  0
   -5.5680   -0.1747   -0.9958 C   0  0  0  0  0  0  0  0  0  0  0  0
   -5.9843   -0.0387    0.3382 C   0  0  0  0  0  0  0  0  0  0  0  0
   -5.1053    0.4983    1.2942 C   0  0  0  0  0  0  0  0  0  0  0  0
   -3.8090    0.8940    0.9321 C   0  0  0  0  0  0  0  0  0  0  0  0
    3.4230    1.8319   -0.8296 H   0  0  0  0  0  0  0  0  0  0  0  0
    2.2449    1.8571   -2.1805 H   0  0  0  0  0  0  0  0  0  0  0  0
    2.7142    3.4129   -1.3457 H   0  0  0  0  0  0  0  0  0  0  0  0
    2.0852    3.7651    1.4484 H   0  0  0  0  0  0  0  0  0  0  0  0
    0.9570    2.6028    2.3037 H   0  0  0  0  0  0  0  0  0  0  0  0
    2.6151    2.0859    1.8628 H   0  0  0  0  0  0  0  0  0  0  0  0
    0.1007    4.3109   -0.1323 H   0  0  0  0  0  0  0  0  0  0  0  0
   -0.0076    3.4498   -1.7021 H   0  0  0  0  0  0  0  0  0  0  0  0
   -2.3213    3.5403   -0.7095 H   0  0  0  0  0  0  0  0  0  0  0  0
   -1.6907    2.7963    0.8278 H   0  0  0  0  0  0  0  0  0  0  0  0
   -3.9478    0.1557   -2.4211 H   0  0  0  0  0  0  0  0  0  0  0  0
   -6.2517   -0.5922   -1.7505 H   0  0  0  0  0  0  0  0  0  0  0  0
   -6.9965   -0.3534    0.6343 H   0  0  0  0  0  0  0  0  0  0  0  0
   -5.4242    0.5939    2.3434 H   0  0  0  0  0  0  0  0  0  0  0  0
   -3.0867    1.2330    1.6895 H   0  0  0  0  0  0  0  0  0  0  0  0
  1  7  1  0  0  0  0
  1  6  1  0  0  0  0
  2  4  1  0  0  0  0
  3 13  1  0  0  0  0
  3  2  1  0  0  0  0
  4 18  1  0  0  0  0
  4 17  1  0  0  0  0
  5  6  1  0  0  0  0
  5 19  1  0  0  0  0
  5  2  1  0  0  0  0
  6 22  1  0  0  0  0
  7 12  1  0  0  0  0
  8  9  1  0  0  0  0
  8  7  2  0  0  0  0
  9 10  2  0  0  0  0
 10 25  1  0  0  0  0
 10 11  1  0  0  0  0
 11 26  1  0  0  0  0
 12 11  2  0  0  0  0
 12 27  1  0  0  0  0
 14  3  1  0  0  0  0
 15  3  1  0  0  0  0
 16  4  1  0  0  0  0
 20  5  1  0  0  0  0
 21  6  1  0  0  0  0
 23  8  1  0  0  0  0
 24  9  1  0  0  0  0
M  END
