1,2
q = 0.0, confidence = 0.994

 41 43  0  0  0  0  0  0  0  0999 V2000
   -0.8273    0.1504   -0.3270 P   0  0  0  0  0  0  0  0  0  0  0  0
    2.0139   -1.0764   -1.3595 S   0  0  0  0  0  0  0  0  0  0  0  0
    3.6363   -1.8456   -1.1260 C   0  0  0  0  0  0  0  0  0  0  0  0
    3.4430   -2.9322   -1.1665 H   0  0  0  0  0  0  0  0  0  0  0  0
    4.0405   -1.6147   -0.1240 H   0  0  0  0  0  0  0  0  0  0  0  0
    4.2944   -1.5256   -1.9562 H   0  0  0  0  0  0  0  0  0  0  0  0
   -0.0924    0.9833   -1.8491 C   0  0  0  0  0  0  0  0  0  0  0  0
   -0.0439    0.1959   -2.6322 H   0  0  0  0  0  0  0  0  0  0  0  0
   -0.7798    1.7821   -2.1872 H   0  0  0  0  0  0  0  0  0  0  0  0
    1.2635    1.5471   -1.5406 C   0  0  0  0  0  0  0  0  0  0  0  0
    1.4683    2.9345   -1.4315 C   0  0  0  0  0  0  0  0  0  0  0  0
    0.6167    3.6087   -1.6108 H   0  0  0  0  0  0  0  0  0  0  0  0
    2.7240    3.4608   -1.0973 C   0  0  0  0  0  0  0  0  0  0  0  0
    2.8599    4.5495   -1.0213 H   0  0  0  0  0  0  0  0  0  0  0  0
    3.7995    2.5946   -0.8537 C   0  0  0  0  0  0  0  0  0  0  0  0
    4.7880    2.9969   -0.5861 H   0  0  0  0  0  0  0  0  0  0  0  0
    3.6207    1.2056   -0.9348 C   0  0  0  0  0  0  0  0  0  0  0  0
    4.4629    0.5362   -0.7166 H   0  0  0  0  0  0  0  0  0  0  0  0
    2.3605    0.6857   -1.2716 C   0  0  0  0  0  0  0  0  0  0  0  0
   -2.4325   -0.5179   -0.9105 C   0  0  0  0  0  0  0  0  0  0  0  0
   -3.0573   -1.5288   -0.1479 C   0  0  0  0  0  0  0  0  0  0  0  0
   -2.5662   -1.8856    0.7726 H   0  0  0  0  0  0  0  0  0  0  0  0
   -4.2876   -2.0564   -0.5638 C   0  0  0  0  0  0  0  0  0  0  0  0
   -4.7674   -2.8441    0.0365 H   0  0  0  0  0  0  0  0  0  0  0  0
   -4.9013   -1.5915   -1.7381 C   0  0  0  0  0  0  0  0  0  0  0  0
   -5.8650   -2.0126   -2.0625 H   0  0  0  0  0  0  0  0  0  0  0  0
   -4.2806   -0.5909   -2.5013 C   0  0  0  0  0  0  0  0  0  0  0  0
   -4.7543   -0.2239   -3.4245 H   0  0  0  0  0  0  0  0  0  0  0  0
   -3.0506   -0.0534   -2.0919 C   0  0  0  0  0  0  0  0  0  0  0  0
   -2.5828    0.7306   -2.7043 H   0  0  0  0  0  0  0  0  0  0  0  0
   -1.1998    1.5905    0.7391 C   0  0  0  0  0  0  0  0  0  0  0  0
   -2.4271    2.2751    0.6537 C   0  0  0  0  0  0  0  0  0  0  0  0
   -3.2236    1.9005   -0.0074 H   0  0  0  0  0  0  0  0  0  0  0  0
   -2.6369    3.4275    1.4267 C   0  0  0  0  0  0  0  0  0  0  0  0
   -3.6006    3.9559    1.3671 H   0  0  0  0  0  0  0  0  0  0  0  0
   -1.6258    3.8983    2.2793 C   0  0  0  0  0  0  0  0  0  0  0  0
   -1.7954    4.7997    2.8877 H   0  0  0  0  0  0  0  0  0  0  0  0
   -0.4033    3.2122    2.3664 C   0  0  0  0  0  0  0  0  0  0  0  0
    0.3860    3.5715    3.0437 H   0  0  0  0  0  0  0  0  0  0  0  0
   -0.1887    2.0559    1.6043 C   0  0  0  0  0  0  0  0  0  0  0  0
    0.7567    1.4975    1.6865 H   0  0  0  0  0  0  0  0  0  0  0  0
  1 31  1  0  0  0  0
  2 19  1  0  0  0  0
  2  3  1  0  0  0  0
  3  5  1  0  0  0  0
  4  3  1  0  0  0  0
  6  3  1  0  0  0  0
  7 10  1  0  0  0  0
  7  1  1  0  0  0  0
  8  7  1  0  0  0  0
  9  7  1  0  0  0  0
 10 11  2  0  0  0  0
 10 19  1  0  0  0  0
 11 13  1  0  0  0  0
 12 11  1  0  0  0  0
 13 14  1  0  0  0  0
 13 15  2  0  0  0  0
 15 16  1  0  0  0  0
 17 15  1  0  0  0  0
 17 18  1  0  0  0  0
 19 17  2  0  0  0  0
 20  1  1  0  0  0  0
 20 21  1  0  0  0  0
 21 22  1  0  0  0  0
 23 21  2  0  0  0  0
 23 24  1  0  0  0  0
 25 23  1  0  0  0  0
 26 25  1  0  0  0  0
 27 29  1  0  0  0  0
 27 25  2  0  0  0  0
 28 27  1  0  0  0  0
 29 20  2  0  0  0  0
 30 29  1  0  0  0  0
 31 40  1  0  0  0  0
 32 31  2  0  0  0  0
 32 34  1  0  0  0  0
 33 32  1  0  0  0  0
 34 36  2  0  0  0  0
 35 34  1  0  0  0  0
 36 38  1  0  0  0  0
 36 37  1  0  0  0  0
 38 39  1  0  0  0  0
 40 41  1  0  0  0  0
 40 38  2  0  0  0  0
M  END
