1,3
q = 0.0, confidence = 1.0

 54 54  0  0  0  0  0  0  0  0999 V2000
    2.8186   -1.6600    1.5480 S   0  0  0  0  0  0  0  0  0  0  0  0
   -5.5984   -1.0470    1.4196 S   0  0  0  0  0  0  0  0  0  0  0  0
    0.1247    0.0184    0.0698 P   0  0  2  0  0  0  0  0  0  0  0  0
   -1.5644    1.3948   -1.3474 P   0  0  1  0  0  0  0  0  0  0  0  0
   -0.5161   -1.2338    0.9925 O   0  0  0  0  0  0  0  0  0  0  0  0
   -3.1643    0.9583   -1.1402 O   0  0  0  0  0  0  0  0  0  0  0  0
   -0.8801    1.3729    0.2898 N   0  0  0  0  0  0  0  0  0  0  0  0
   -0.7004   -0.1619   -1.3972 N   0  0  0  0  0  0  0  0  0  0  0  0
   -0.8529    2.4888    1.2638 C   0  0  0  0  0  0  0  0  0  0  0  0
   -0.3859    3.7853    0.5791 C   0  0  0  0  0  0  0  0  0  0  0  0
    0.6258    3.6498    0.1510 H   0  0  0  0  0  0  0  0  0  0  0  0
   -0.3726    4.6219    1.3060 H   0  0  0  0  0  0  0  0  0  0  0  0
   -1.0733    4.0626   -0.2463 H   0  0  0  0  0  0  0  0  0  0  0  0
   -2.2808    2.6610    1.8166 C   0  0  0  0  0  0  0  0  0  0  0  0
   -2.9911    2.8874    0.9961 H   0  0  0  0  0  0  0  0  0  0  0  0
   -2.3205    3.4956    2.5448 H   0  0  0  0  0  0  0  0  0  0  0  0
   -2.6205    1.7345    2.3221 H   0  0  0  0  0  0  0  0  0  0  0  0
    0.1099    2.1277    2.4044 C   0  0  0  0  0  0  0  0  0  0  0  0
   -0.2111    1.1973    2.9172 H   0  0  0  0  0  0  0  0  0  0  0  0
    0.1204    2.9386    3.1585 H   0  0  0  0  0  0  0  0  0  0  0  0
    1.1455    1.9955    2.0287 H   0  0  0  0  0  0  0  0  0  0  0  0
   -0.3774   -0.9629   -2.6006 C   0  0  0  0  0  0  0  0  0  0  0  0
   -1.7074   -1.4906   -3.1700 C   0  0  0  0  0  0  0  0  0  0  0  0
   -2.2087   -2.1564   -2.4392 H   0  0  0  0  0  0  0  0  0  0  0  0
   -1.5320   -2.0603   -4.1043 H   0  0  0  0  0  0  0  0  0  0  0  0
   -2.3965   -0.6537   -3.4032 H   0  0  0  0  0  0  0  0  0  0  0  0
    0.3524   -0.1016   -3.6456 C   0  0  0  0  0  0  0  0  0  0  0  0
   -0.2912    0.7400   -3.9739 H   0  0  0  0  0  0  0  0  0  0  0  0
    0.6080   -0.7063   -4.5390 H   0  0  0  0  0  0  0  0  0  0  0  0
    1.2758    0.3327   -3.2156 H   0  0  0  0  0  0  0  0  0  0  0  0
    0.5108   -2.1432   -2.1755 C   0  0  0  0  0  0  0  0  0  0  0  0
    1.4877   -1.7780   -1.7926 H   0  0  0  0  0  0  0  0  0  0  0  0
    0.7093   -2.7984   -3.0461 H   0  0  0  0  0  0  0  0  0  0  0  0
    0.0155   -2.7437   -1.3862 H   0  0  0  0  0  0  0  0  0  0  0  0
    0.1025   -1.7271    2.1764 C   0  0  0  0  0  0  0  0  0  0  0  0
   -0.6795   -2.3165    2.6971 H   0  0  0  0  0  0  0  0  0  0  0  0
    0.3992   -0.8997    2.8615 H   0  0  0  0  0  0  0  0  0  0  0  0
    1.2928   -2.6321    1.8801 C   0  0  0  0  0  0  0  0  0  0  0  0
    1.0668   -3.2753    1.0061 H   0  0  0  0  0  0  0  0  0  0  0  0
    1.5145   -3.2781    2.7541 H   0  0  0  0  0  0  0  0  0  0  0  0
    3.7184   -2.8534    0.5053 C   0  0  0  0  0  0  0  0  0  0  0  0
    3.9797   -3.7364    1.1197 H   0  0  0  0  0  0  0  0  0  0  0  0
    4.6225   -2.3063    0.1783 H   0  0  0  0  0  0  0  0  0  0  0  0
    3.1049   -3.1406   -0.3697 H   0  0  0  0  0  0  0  0  0  0  0  0
   -3.5885   -0.1069   -0.2721 C   0  0  0  0  0  0  0  0  0  0  0  0
   -2.8487   -0.2798    0.5369 H   0  0  0  0  0  0  0  0  0  0  0  0
   -3.6542   -1.0415   -0.8689 H   0  0  0  0  0  0  0  0  0  0  0  0
   -4.9443    0.2542    0.3184 C   0  0  0  0  0  0  0  0  0  0  0  0
   -5.6804    0.4798   -0.4818 H   0  0  0  0  0  0  0  0  0  0  0  0
   -4.8552    1.1613    0.9498 H   0  0  0  0  0  0  0  0  0  0  0  0
   -6.1559   -2.2700    0.1908 C   0  0  0  0  0  0  0  0  0  0  0  0
   -6.9097   -1.8321   -0.4949 H   0  0  0  0  0  0  0  0  0  0  0  0
   -6.6314   -3.0929    0.7585 H   0  0  0  0  0  0  0  0  0  0  0  0
   -5.3183   -2.6920   -0.3998 H   0  0  0  0  0  0  0  0  0  0  0  0
  1 38  1  0  0  0  0
  3  7  1  0  0  0  0
  3  5  1  1  0  0  0
  4  6  1  1  0  0  0
  4  7  1  0  0  0  0
  5 35  1  0  0  0  0
  6 45  1  0  0  0  0
  7  9  1  0  0  0  0
  8  4  1  0  0  0  0
  8  3  1  0  0  0  0
  9 14  1  0  0  0  0
  9 18  1  0  0  0  0
 10  9  1  0  0  0  0
 10 12  1  0  0  0  0
 11 10  1  0  0  0  0
 13 10  1  0  0  0  0
 14 17  1  0  0  0  0
 14 16  1  0  0  0  0
 15 14  1  0  0  0  0
 18 19  1  0  0  0  0
 18 20  1  0  0  0  0
 21 18  1  0  0  0  0
 22 31  1  0  0  0  0
 22  8  1  0  0  0  0
 23 22  1  0  0  0  0
 23 24  1  0  0  0  0
 25 23  1  0  0  0  0
 26 23  1  0  0  0  0
 27 30  1  0  0  0  0
 27 22  1  0  0  0  0
 28 27  1  0  0  0  0
 29 27  1  0  0  0  0
 31 32  1  0  0  0  0
 31 34  1  0  0  0  0
 33 31  1  0  0  0  0
 35 36  1  0  0  0  0
 35 37  1  0  0  0  0
 38 35  1  0  0  0  0
 38 40  1  0  0  0  0
 39 38  1  0  0  0  0
 41 42  1  0  0  0  0
 41  1  1  0  0  0  0
 43 41  1  0  0  0  0
 44 41  1  0  0  0  0
 45 48  1  0  0  0  0
 45 46  1  0  0  0  0
 47 45  1  0  0  0  0
 48 50  1  0  0  0  0
 48  2  1  0  0  0  0
 49 48  1  0  0  0  0
 51 53  1  0  0  0  0
 51  2  1  0  0  0  0
 52 51  1  0  0  0  0
 54 51  1  0  0  0  0
M  END
