1,2
q = 0.0, confidence = 0.99

 31 32  0  0  0  0  0  0  0  0999 V2000
    1.7091    2.1190    0.0508 S   0  0  0  0  0  0  0  0  0  0  0  0
   -1.3558    1.2075   -0.0293 P   0  0  0  0  0  0  0  0  0  0  0  0
    1.0187    3.1860    1.4107 C   0  0  0  0  0  0  0  0  0  0  0  0
   -0.1594    2.5875    2.1759 C   0  0  0  0  0  0  0  0  0  0  0  0
   -1.4675    2.4140    1.3968 C   0  0  0  0  0  0  0  0  0  0  0  0
   -1.3877    2.2904   -1.5388 C   0  0  0  0  0  0  0  0  0  0  0  0
   -0.3441    3.4133   -1.5418 C   0  0  0  0  0  0  0  0  0  0  0  0
    1.1262    3.0103   -1.4607 C   0  0  0  0  0  0  0  0  0  0  0  0
   -2.9831    0.3722   -0.0172 C   0  0  0  0  0  0  0  0  0  0  0  0
   -3.3451   -0.3434    1.1449 C   0  0  0  0  0  0  0  0  0  0  0  0
   -4.5678   -1.0232    1.2031 C   0  0  0  0  0  0  0  0  0  0  0  0
   -5.4291   -1.0203    0.0938 C   0  0  0  0  0  0  0  0  0  0  0  0
   -5.0612   -0.3362   -1.0738 C   0  0  0  0  0  0  0  0  0  0  0  0
   -3.8424    0.3581   -1.1324 C   0  0  0  0  0  0  0  0  0  0  0  0
    0.7811    4.1759    0.9696 H   0  0  0  0  0  0  0  0  0  0  0  0
    1.8808    3.3248    2.0922 H   0  0  0  0  0  0  0  0  0  0  0  0
   -0.3518    3.2452    3.0516 H   0  0  0  0  0  0  0  0  0  0  0  0
    0.1505    1.6010    2.5823 H   0  0  0  0  0  0  0  0  0  0  0  0
   -2.2459    2.0090    2.0731 H   0  0  0  0  0  0  0  0  0  0  0  0
   -1.8575    3.3832    1.0176 H   0  0  0  0  0  0  0  0  0  0  0  0
   -2.4005    2.7369   -1.6213 H   0  0  0  0  0  0  0  0  0  0  0  0
   -1.2433    1.6156   -2.4080 H   0  0  0  0  0  0  0  0  0  0  0  0
   -0.4631    3.9891   -2.4855 H   0  0  0  0  0  0  0  0  0  0  0  0
   -0.5750    4.1417   -0.7351 H   0  0  0  0  0  0  0  0  0  0  0  0
    1.4095    2.3112   -2.2738 H   0  0  0  0  0  0  0  0  0  0  0  0
    1.7756    3.9057   -1.5456 H   0  0  0  0  0  0  0  0  0  0  0  0
   -2.6551   -0.3891    2.0016 H   0  0  0  0  0  0  0  0  0  0  0  0
   -4.8395   -1.5772    2.1139 H   0  0  0  0  0  0  0  0  0  0  0  0
   -6.3849   -1.5639    0.1364 H   0  0  0  0  0  0  0  0  0  0  0  0
   -5.7254   -0.3424   -1.9511 H   0  0  0  0  0  0  0  0  0  0  0  0
   -3.5688    0.8769   -2.0620 H   0  0  0  0  0  0  0  0  0  0  0  0
  1  3  1  0  0  0  0
  2  9  1  0  0  0  0
  2  5  1  0  0  0  0
  3 16  1  0  0  0  0
  3  4  1  0  0  0  0
  4 18  1  0  0  0  0
  4 17  1  0  0  0  0
  5 19  1  0  0  0  0
  5  4  1  0  0  0  0
  6  2  1  0  0  0  0
  7  6  1  0  0  0  0
  7  8  1  0  0  0  0
  7 24  1  0  0  0  0
  8  1  1  0  0  0  0
  9 10  1  0  0  0  0
 10 11  2  0  0  0  0
 10 27  1  0  0  0  0
 11 28  1  0  0  0  0
 12 29  1  0  0  0  0
 12 11  1  0  0  0  0
 13 12  2  0  0  0  0
 14 13  1  0  0  0  0
 14  9  2  0  0  0  0
 15  3  1  0  0  0  0
 20  5  1  0  0  0  0
 21  6  1  0  0  0  0
 22  6  1  0  0  0  0
 23  7  1  0  0  0  0
 25  8  1  0  0  0  0
 26  8  1  0  0  0  0
 30 13  1  0  0  0  0
 31 14  1  0  0  0  0
M  END
