1
q = 0.0, confidence = 1.0

 47 51  0  0  0  0  0  0  0  0999 V2000
   -2.7014   -0.2561   -0.4758 S   0  0  0  0  0  0  0  0  0  0  0  0
    0.6005    0.0836   -0.1289 P   0  0  0  0  0  0  0  0  0  0  0  0
    1.6741    0.9748   -1.0006 O   0  0  0  0  0  0  0  0  0  0  0  0
    1.5035   -0.4974    1.1142 O   0  0  0  0  0  0  0  0  0  0  0  0
   -0.1836    1.1978    0.8484 O   0  0  0  0  0  0  0  0  0  0  0  0
   -4.1680    4.6541   -0.9149 O   0  0  0  0  0  0  0  0  0  0  0  0
    2.6270    1.7911   -0.3891 C   0  0  0  0  0  0  0  0  0  0  0  0
    2.5206    3.1718   -0.6053 C   0  0  0  0  0  0  0  0  0  0  0  0
    3.4951    4.0339   -0.0859 C   0  0  0  0  0  0  0  0  0  0  0  0
    4.5695    3.5058    0.6485 C   0  0  0  0  0  0  0  0  0  0  0  0
    4.6647    2.1242    0.8537 C   0  0  0  0  0  0  0  0  0  0  0  0
    3.6987    1.2267    0.3428 C   0  0  0  0  0  0  0  0  0  0  0  0
    3.8485   -0.2354    0.5428 C   0  0  0  0  0  0  0  0  0  0  0  0
    5.1140   -0.8538    0.4226 C   0  0  0  0  0  0  0  0  0  0  0  0
    5.2779   -2.2272    0.6363 C   0  0  0  0  0  0  0  0  0  0  0  0
    4.1724   -3.0228    0.9811 C   0  0  0  0  0  0  0  0  0  0  0  0
    2.9063   -2.4400    1.1076 C   0  0  0  0  0  0  0  0  0  0  0  0
    2.7591   -1.0650    0.8935 C   0  0  0  0  0  0  0  0  0  0  0  0
   -2.3849    1.4865   -0.2009 C   0  0  0  0  0  0  0  0  0  0  0  0
   -1.1914    1.9983    0.3591 C   0  0  0  0  0  0  0  0  0  0  0  0
   -1.0377    3.3910    0.4785 C   0  0  0  0  0  0  0  0  0  0  0  0
   -2.0407    4.2654    0.0559 C   0  0  0  0  0  0  0  0  0  0  0  0
   -3.2289    3.7606   -0.5146 C   0  0  0  0  0  0  0  0  0  0  0  0
   -3.3912    2.3687   -0.6394 C   0  0  0  0  0  0  0  0  0  0  0  0
   -2.8566   -0.9154    1.2076 C   0  0  0  0  0  0  0  0  0  0  0  0
   -2.9017   -2.3175    1.3202 C   0  0  0  0  0  0  0  0  0  0  0  0
   -3.0699   -2.8860    2.5900 C   0  0  0  0  0  0  0  0  0  0  0  0
   -3.1909   -2.0705    3.7277 C   0  0  0  0  0  0  0  0  0  0  0  0
   -3.1489   -0.6748    3.5940 C   0  0  0  0  0  0  0  0  0  0  0  0
   -2.9844   -0.0850    2.3306 C   0  0  0  0  0  0  0  0  0  0  0  0
    1.6743    3.5442   -1.2001 H   0  0  0  0  0  0  0  0  0  0  0  0
    3.4153    5.1176   -0.2581 H   0  0  0  0  0  0  0  0  0  0  0  0
    5.3359    4.1744    1.0673 H   0  0  0  0  0  0  0  0  0  0  0  0
    5.4989    1.7135    1.4418 H   0  0  0  0  0  0  0  0  0  0  0  0
    5.9761   -0.2362    0.1297 H   0  0  0  0  0  0  0  0  0  0  0  0
    6.2726   -2.6824    0.5215 H   0  0  0  0  0  0  0  0  0  0  0  0
    4.2927   -4.1046    1.1394 H   0  0  0  0  0  0  0  0  0  0  0  0
    2.0160   -3.0317    1.3591 H   0  0  0  0  0  0  0  0  0  0  0  0
   -0.1035    3.7682    0.9189 H   0  0  0  0  0  0  0  0  0  0  0  0
   -1.9225    5.3537    0.1541 H   0  0  0  0  0  0  0  0  0  0  0  0
   -4.3103    1.9490   -1.0782 H   0  0  0  0  0  0  0  0  0  0  0  0
   -2.7922   -2.9424    0.4179 H   0  0  0  0  0  0  0  0  0  0  0  0
   -3.1007   -3.9817    2.6868 H   0  0  0  0  0  0  0  0  0  0  0  0
   -3.3159   -2.5248    4.7218 H   0  0  0  0  0  0  0  0  0  0  0  0
   -3.2412   -0.0298    4.4808 H   0  0  0  0  0  0  0  0  0  0  0  0
   -2.9525    1.0088    2.2283 H   0  0  0  0  0  0  0  0  0  0  0  0
   -4.9228    4.1734   -1.3029 H   0  0  0  0  0  0  0  0  0  0  0  0
  1 19  1  0  0  0  0
  1 25  1  0  0  0  0
  2  5  1  0  0  0  0
  2  4  1  0  0  0  0
  3  7  1  0  0  0  0
  3  2  1  0  0  0  0
  6 23  1  0  0  0  0
  7 12  1  0  0  0  0
  8  7  2  0  0  0  0
  8  9  1  0  0  0  0
  9 10  2  0  0  0  0
 10 11  1  0  0  0  0
 10 33  1  0  0  0  0
 11 34  1  0  0  0  0
 12 13  1  0  0  0  0
 12 11  2  0  0  0  0
 13 18  1  0  0  0  0
 14 13  2  0  0  0  0
 14 15  1  0  0  0  0
 15 16  2  0  0  0  0
 16 17  1  0  0  0  0
 16 37  1  0  0  0  0
 17 38  1  0  0  0  0
 18 17  2  0  0  0  0
 18  4  1  0  0  0  0
 19 20  1  0  0  0  0
 20 21  2  0  0  0  0
 20  5  1  0  0  0  0
 21 39  1  0  0  0  0
 22 40  1  0  0  0  0
 22 21  1  0  0  0  0
 23 22  2  0  0  0  0
 24 23  1  0  0  0  0
 24 19  2  0  0  0  0
 25 26  2  0  0  0  0
 25 30  1  0  0  0  0
 26 27  1  0  0  0  0
 27 43  1  0  0  0  0
 27 28  2  0  0  0  0
 28 44  1  0  0  0  0
 29 28  1  0  0  0  0
 29 45  1  0  0  0  0
 30 29  2  0  0  0  0
 31  8  1  0  0  0  0
 32  9  1  0  0  0  0
 35 14  1  0  0  0  0
 36 15  1  0  0  0  0
 41 24  1  0  0  0  0
 42 26  1  0  0  0  0
 46 30  1  0  0  0  0
 47  6  1  0  0  0  0
M  END
