1,2
q = -1.0, confidence = 0.002

 34 36  0  0  0  0  0  0  0  0999 V2000
   -0.3075   -2.5912   -0.1404 S   0  0  0  0  0  1  0  0  0  0  0  0
    0.0537    0.6863   -0.0178 P   0  0  0  0  0  0  0  0  0  0  0  0
   -2.6637    2.0529    0.1667 F   0  0  0  0  0  0  0  0  0  0  0  0
   -5.1323    0.8723    0.2789 F   0  0  0  0  0  0  0  0  0  0  0  0
   -5.3235   -1.8522    0.1822 F   0  0  0  0  0  0  0  0  0  0  0  0
   -3.1088   -3.3978   -0.0211 F   0  0  0  0  0  0  0  0  0  0  0  0
   -1.5954   -0.0728    0.0329 C   0  0  0  0  0  0  0  0  0  0  0  0
   -2.7588    0.7140    0.1359 C   0  0  0  0  0  0  0  0  0  0  0  0
   -4.0281    0.1280    0.1848 C   0  0  0  0  0  0  0  0  0  0  0  0
   -4.1233   -1.2783    0.1333 C   0  0  0  0  0  0  0  0  0  0  0  0
   -2.9703   -2.0687    0.0274 C   0  0  0  0  0  0  0  0  0  0  0  0
   -1.6819   -1.4890   -0.0194 C   0  0  0  0  0  0  0  0  0  0  0  0
    0.2733    1.7229    1.4601 C   0  0  0  0  0  0  0  0  0  0  0  0
   -0.0632    3.0912    1.4419 C   0  0  0  0  0  0  0  0  0  0  0  0
   -0.4314    3.5594    0.5180 H   0  0  0  0  0  0  0  0  0  0  0  0
    0.0736    3.8501    2.6128 C   0  0  0  0  0  0  0  0  0  0  0  0
   -0.1858    4.9192    2.6003 H   0  0  0  0  0  0  0  0  0  0  0  0
    0.5394    3.2503    3.7935 C   0  0  0  0  0  0  0  0  0  0  0  0
    0.6487    3.8518    4.7084 H   0  0  0  0  0  0  0  0  0  0  0  0
    0.8733    1.8860    3.8082 C   0  0  0  0  0  0  0  0  0  0  0  0
    1.2477    1.4165    4.7298 H   0  0  0  0  0  0  0  0  0  0  0  0
    0.7457    1.1190    2.6435 C   0  0  0  0  0  0  0  0  0  0  0  0
    1.0254    0.0544    2.6482 H   0  0  0  0  0  0  0  0  0  0  0  0
    0.1510    1.7304   -1.4994 C   0  0  0  0  0  0  0  0  0  0  0  0
   -0.8150    1.6136   -2.5195 C   0  0  0  0  0  0  0  0  0  0  0  0
   -1.6504    0.9060   -2.4138 H   0  0  0  0  0  0  0  0  0  0  0  0
   -0.7021    2.4014   -3.6732 C   0  0  0  0  0  0  0  0  0  0  0  0
   -1.4574    2.3129   -4.4681 H   0  0  0  0  0  0  0  0  0  0  0  0
    0.3704    3.2965   -3.8132 C   0  0  0  0  0  0  0  0  0  0  0  0
    0.4555    3.9131   -4.7207 H   0  0  0  0  0  0  0  0  0  0  0  0
    1.3397    3.4000   -2.8016 C   0  0  0  0  0  0  0  0  0  0  0  0
    2.1878    4.0911   -2.9168 H   0  0  0  0  0  0  0  0  0  0  0  0
    1.2405    2.6172   -1.6443 C   0  0  0  0  0  0  0  0  0  0  0  0
    2.0147    2.6650   -0.8645 H   0  0  0  0  0  0  0  0  0  0  0  0
  1 12  1  0  0  0  0
  2  7  1  0  0  0  0
  2 13  1  0  0  0  0
  6 11  1  0  0  0  0
  7  8  1  0  0  0  0
  8  3  1  0  0  0  0
  8  9  2  0  0  0  0
  9  4  1  0  0  0  0
 10  5  1  0  0  0  0
 10  9  1  0  0  0  0
 11 10  2  0  0  0  0
 12 11  1  0  0  0  0
 12  7  2  0  0  0  0
 13 22  1  0  0  0  0
 14 13  2  0  0  0  0
 14 16  1  0  0  0  0
 15 14  1  0  0  0  0
 16 18  2  0  0  0  0
 17 16  1  0  0  0  0
 18 20  1  0  0  0  0
 18 19  1  0  0  0  0
 20 21  1  0  0  0  0
 22 23  1  0  0  0  0
 22 20  2  0  0  0  0
 24  2  1  0  0  0  0
 25 26  1  0  0  0  0
 25 24  2  0  0  0  0
 27 25  1  0  0  0  0
 28 27  1  0  0  0  0
 29 27  2  0  0  0  0
 29 31  1  0  0  0  0
 30 29  1  0  0  0  0
 31 33  2  0  0  0  0
 32 31  1  0  0  0  0
 33 24  1  0  0  0  0
 33 34  1  0  0  0  0
M  END
