1,2
q = -1.0, confidence = 0.0

 43 44  0  0  0  0  0  0  0  0999 V2000
    0.4782   -1.8712   -1.7854 S   0  0  0  0  0  1  0  0  0  0  0  0
    0.6762    0.5391    0.1632 P   0  0  2  0  0  0  0  0  0  0  0  0
    0.9722   -1.4781    2.6242 Si  0  0  0  0  0  0  0  0  0  0  0  0
    0.9788    0.3190    1.9621 C   0  0  0  0  0  0  0  0  0  0  0  0
    1.2199    1.3719    2.7772 C   0  0  0  0  0  0  0  0  0  0  0  0
    1.2298    2.4160    2.4188 H   0  0  0  0  0  0  0  0  0  0  0  0
    1.4201    1.2252    3.8527 H   0  0  0  0  0  0  0  0  0  0  0  0
   -0.7764   -2.1938    2.4921 C   0  0  0  0  0  0  0  0  0  0  0  0
   -1.4710   -1.7645    3.2413 H   0  0  0  0  0  0  0  0  0  0  0  0
   -0.7557   -3.2956    2.6197 H   0  0  0  0  0  0  0  0  0  0  0  0
   -1.1664   -1.9615    1.4738 H   0  0  0  0  0  0  0  0  0  0  0  0
    2.1280   -2.5803    1.6212 C   0  0  0  0  0  0  0  0  0  0  0  0
    1.6960   -2.7759    0.6186 H   0  0  0  0  0  0  0  0  0  0  0  0
    2.2484   -3.5530    2.1427 H   0  0  0  0  0  0  0  0  0  0  0  0
    3.1298   -2.1273    1.4835 H   0  0  0  0  0  0  0  0  0  0  0  0
    1.5215   -1.4291    4.4354 C   0  0  0  0  0  0  0  0  0  0  0  0
    2.5470   -1.0200    4.5411 H   0  0  0  0  0  0  0  0  0  0  0  0
    1.5257   -2.4590    4.8483 H   0  0  0  0  0  0  0  0  0  0  0  0
    0.8377   -0.8203    5.0615 H   0  0  0  0  0  0  0  0  0  0  0  0
    2.0666   -1.1532   -1.4868 C   0  0  0  0  0  0  0  0  0  0  0  0
    2.2270   -0.0748   -0.5855 C   0  0  0  0  0  0  0  0  0  0  0  0
    3.5028    0.4275   -0.2693 C   0  0  0  0  0  0  0  0  0  0  0  0
    3.5919    1.2489    0.4609 H   0  0  0  0  0  0  0  0  0  0  0  0
    4.6600   -0.1020   -0.8647 C   0  0  0  0  0  0  0  0  0  0  0  0
    6.0326    0.4338   -0.5432 C   0  0  0  0  0  0  0  0  0  0  0  0
    5.9893    1.2211    0.2344 H   0  0  0  0  0  0  0  0  0  0  0  0
    6.5184    0.8744   -1.4399 H   0  0  0  0  0  0  0  0  0  0  0  0
    6.7081   -0.3674   -0.1764 H   0  0  0  0  0  0  0  0  0  0  0  0
    4.4907   -1.1638   -1.7868 C   0  0  0  0  0  0  0  0  0  0  0  0
    5.3806   -1.6003   -2.2693 H   0  0  0  0  0  0  0  0  0  0  0  0
    3.2311   -1.6847   -2.0923 C   0  0  0  0  0  0  0  0  0  0  0  0
    3.1324   -2.5257   -2.7952 H   0  0  0  0  0  0  0  0  0  0  0  0
    0.6383    2.3396   -0.2001 C   0  0  0  0  0  0  0  0  0  0  0  0
   -0.2812    3.1815    0.4654 C   0  0  0  0  0  0  0  0  0  0  0  0
   -0.9440    2.7732    1.2412 H   0  0  0  0  0  0  0  0  0  0  0  0
   -0.3719    4.5378    0.1228 C   0  0  0  0  0  0  0  0  0  0  0  0
   -1.0948    5.1789    0.6498 H   0  0  0  0  0  0  0  0  0  0  0  0
    0.4371    5.0689   -0.8942 C   0  0  0  0  0  0  0  0  0  0  0  0
    0.3596    6.1333   -1.1640 H   0  0  0  0  0  0  0  0  0  0  0  0
    1.3389    4.2337   -1.5715 C   0  0  0  0  0  0  0  0  0  0  0  0
    1.9707    4.6387   -2.3768 H   0  0  0  0  0  0  0  0  0  0  0  0
    1.4413    2.8770   -1.2284 C   0  0  0  0  0  0  0  0  0  0  0  0
    2.1467    2.2269   -1.7661 H   0  0  0  0  0  0  0  0  0  0  0  0
  1 20  1  0  0  0  0
  2  4  1  1  0  0  0
  3 16  1  0  0  0  0
  4  3  1  0  0  0  0
  4  5  2  0  0  0  0
  5  7  1  0  0  0  0
  6  5  1  0  0  0  0
  8 10  1  0  0  0  0
  8  3  1  0  0  0  0
  8  9  1  0  0  0  0
 11  8  1  0  0  0  0
 12 14  1  0  0  0  0
 12  3  1  0  0  0  0
 13 12  1  0  0  0  0
 15 12  1  0  0  0  0
 16 17  1  0  0  0  0
 16 18  1  0  0  0  0
 16 19  1  0  0  0  0
 20 21  1  0  0  0  0
 21 22  2  0  0  0  0
 21  2  1  0  0  0  0
 22 23  1  0  0  0  0
 24 25  1  0  0  0  0
 24 22  1  0  0  0  0
 25 28  1  0  0  0  0
 25 26  1  0  0  0  0
 27 25  1  0  0  0  0
 29 24  2  0  0  0  0
 30 29  1  0  0  0  0
 31 29  1  0  0  0  0
 31 20  2  0  0  0  0
 32 31  1  0  0  0  0
 33  2  1  0  0  0  0
 33 34  1  0  0  0  0
 34 35  1  0  0  0  0
 36 34  2  0  0  0  0
 36 37  1  0  0  0  0
 38 36  1  0  0  0  0
 39 38  1  0  0  0  0
 40 42  1  0  0  0  0
 40 38  2  0  0  0  0
 41 40  1  0  0  0  0
 42 33  2  0  0  0  0
 43 42  1  0  0  0  0
M  END
