1,2
q = 0.0, confidence = 1.0

 55 58  0  0  0  0  0  0  0  0999 V2000
    3.0046    0.1656    0.5408 P   0  0  0  0  0  0  0  0  0  0  0  0
    0.2775   -1.8736    0.6385 S   0  0  0  0  0  0  0  0  0  0  0  0
   -2.4185   -0.7796    1.6310 S   0  0  0  0  0  0  0  0  0  0  0  0
   -1.4870   -2.0188    0.7440 C   0  0  0  0  0  0  0  0  0  0  0  0
    0.6966   -1.6761    2.4320 C   0  0  0  0  0  0  0  0  0  0  0  0
    0.1503   -0.7864    2.8085 H   0  0  0  0  0  0  0  0  0  0  0  0
    0.2894   -2.5788    2.9286 H   0  0  0  0  0  0  0  0  0  0  0  0
    2.8481   -0.1983    2.3656 C   0  0  0  0  0  0  0  0  0  0  0  0
    3.8640   -0.1558    2.8102 H   0  0  0  0  0  0  0  0  0  0  0  0
    2.2475    0.6241    2.8077 H   0  0  0  0  0  0  0  0  0  0  0  0
    4.2491   -1.1128    0.0523 C   0  0  0  0  0  0  0  0  0  0  0  0
    3.8075   -2.3234   -0.5177 C   0  0  0  0  0  0  0  0  0  0  0  0
    2.7353   -2.4725   -0.7152 H   0  0  0  0  0  0  0  0  0  0  0  0
    5.6264   -0.9252    0.2935 C   0  0  0  0  0  0  0  0  0  0  0  0
    5.9821    0.0212    0.7290 H   0  0  0  0  0  0  0  0  0  0  0  0
    2.2014   -1.5550    2.6838 C   0  0  0  0  0  0  0  0  0  0  0  0
    2.7405   -2.3729    2.1577 H   0  0  0  0  0  0  0  0  0  0  0  0
    2.3507   -1.7514    3.7669 H   0  0  0  0  0  0  0  0  0  0  0  0
    4.4727    2.1316   -0.7717 C   0  0  0  0  0  0  0  0  0  0  0  0
    4.3048    1.4949   -1.6543 H   0  0  0  0  0  0  0  0  0  0  0  0
    3.9769    1.7254    0.4865 C   0  0  0  0  0  0  0  0  0  0  0  0
    4.8590    3.7757    1.4674 C   0  0  0  0  0  0  0  0  0  0  0  0
    5.0022    4.4211    2.3473 H   0  0  0  0  0  0  0  0  0  0  0  0
    4.7280   -3.3335   -0.8382 C   0  0  0  0  0  0  0  0  0  0  0  0
    4.3714   -4.2730   -1.2869 H   0  0  0  0  0  0  0  0  0  0  0  0
    4.1729    2.5576    1.6056 C   0  0  0  0  0  0  0  0  0  0  0  0
    3.7874    2.2702    2.5940 H   0  0  0  0  0  0  0  0  0  0  0  0
    5.1634    3.3421   -0.9027 C   0  0  0  0  0  0  0  0  0  0  0  0
    5.5425    3.6483   -1.8892 H   0  0  0  0  0  0  0  0  0  0  0  0
    5.3571    4.1689    0.2170 C   0  0  0  0  0  0  0  0  0  0  0  0
    5.8918    5.1249    0.1115 H   0  0  0  0  0  0  0  0  0  0  0  0
    6.0970   -3.1395   -0.6000 C   0  0  0  0  0  0  0  0  0  0  0  0
    6.8198   -3.9275   -0.8607 H   0  0  0  0  0  0  0  0  0  0  0  0
    6.5441   -1.9337   -0.0345 C   0  0  0  0  0  0  0  0  0  0  0  0
    7.6177   -1.7751    0.1496 H   0  0  0  0  0  0  0  0  0  0  0  0
   -3.9501   -2.7885    0.0813 S   0  0  0  0  0  0  0  0  0  0  0  0
   -2.1836   -2.9569    0.0394 C   0  0  0  0  0  0  0  0  0  0  0  0
   -1.6209   -4.0784   -0.7750 C   0  0  0  0  0  0  0  0  0  0  0  0
   -2.1753   -5.0209   -0.5848 H   0  0  0  0  0  0  0  0  0  0  0  0
   -0.5532   -4.2351   -0.5297 H   0  0  0  0  0  0  0  0  0  0  0  0
   -1.7011   -3.8602   -1.8609 H   0  0  0  0  0  0  0  0  0  0  0  0
   -3.9117   -1.1481    0.7590 C   0  0  0  0  0  0  0  0  0  0  0  0
   -4.9004   -0.2277    0.5693 C   0  0  0  0  0  0  0  0  0  0  0  0
   -4.7819    1.4330    1.1604 S   0  0  0  0  0  0  0  0  0  0  0  0
   -6.3954   -0.5755   -0.3038 S   0  0  0  0  0  0  0  0  0  0  0  0
   -6.8654    1.1290   -0.5029 C   0  0  0  0  0  0  0  0  0  0  0  0
   -6.1243    2.0507    0.1708 C   0  0  0  0  0  0  0  0  0  0  0  0
   -6.3167    3.5366    0.2050 C   0  0  0  0  0  0  0  0  0  0  0  0
   -5.4722    4.0647   -0.2859 H   0  0  0  0  0  0  0  0  0  0  0  0
   -6.3709    3.9073    1.2506 H   0  0  0  0  0  0  0  0  0  0  0  0
   -7.2501    3.8323   -0.3092 H   0  0  0  0  0  0  0  0  0  0  0  0
   -8.0601    1.3700   -1.3752 C   0  0  0  0  0  0  0  0  0  0  0  0
   -8.9194    0.7420   -1.0574 H   0  0  0  0  0  0  0  0  0  0  0  0
   -7.8454    1.1193   -2.4355 H   0  0  0  0  0  0  0  0  0  0  0  0
   -8.3793    2.4280   -1.3329 H   0  0  0  0  0  0  0  0  0  0  0  0
  1  8  1  0  0  0  0
  2  4  1  0  0  0  0
  2  5  1  0  0  0  0
  4  3  1  0  0  0  0
  5 16  1  0  0  0  0
  5  6  1  0  0  0  0
  5  7  1  0  0  0  0
  8 16  1  0  0  0  0
  8 10  1  0  0  0  0
  8  9  1  0  0  0  0
 11 14  1  0  0  0  0
 11  1  1  0  0  0  0
 12 11  2  0  0  0  0
 13 12  1  0  0  0  0
 14 15  1  0  0  0  0
 16 18  1  0  0  0  0
 17 16  1  0  0  0  0
 19 21  1  0  0  0  0
 20 19  1  0  0  0  0
 21  1  1  0  0  0  0
 21 26  2  0  0  0  0
 22 26  1  0  0  0  0
 22 23  1  0  0  0  0
 24 32  2  0  0  0  0
 24 12  1  0  0  0  0
 25 24  1  0  0  0  0
 26 27  1  0  0  0  0
 28 19  2  0  0  0  0
 28 30  1  0  0  0  0
 29 28  1  0  0  0  0
 30 22  2  0  0  0  0
 31 30  1  0  0  0  0
 32 34  1  0  0  0  0
 33 32  1  0  0  0  0
 34 35  1  0  0  0  0
 34 14  2  0  0  0  0
 36 42  1  0  0  0  0
 37 36  1  0  0  0  0
 37  4  2  0  0  0  0
 38 39  1  0  0  0  0
 38 40  1  0  0  0  0
 38 37  1  0  0  0  0
 41 38  1  0  0  0  0
 42  3  1  0  0  0  0
 43 42  2  0  0  0  0
 43 44  1  0  0  0  0
 45 43  1  0  0  0  0
 46 45  1  0  0  0  0
 46 47  2  0  0  0  0
 47 48  1  0  0  0  0
 47 44  1  0  0  0  0
 48 50  1  0  0  0  0
 49 48  1  0  0  0  0
 51 48  1  0  0  0  0
 52 55  1  0  0  0  0
 52 53  1  0  0  0  0
 52 46  1  0  0  0  0
 54 52  1  0  0  0  0
M  END
