2,3
 OpenBabel05122313063D

 53 56  0  0  0  0  0  0  0  0999 V2000
    2.2957   -0.3904   -0.6943 P   0  0  0  0  0  4  0  0  0  0  0  0
   -1.2007   -0.9496   -0.8271 P   0  0  0  0  0  0  0  0  0  0  0  0
    1.4203    1.4176   -1.1494 S   0  0  0  0  0  1  0  0  0  0  0  0
    1.4229   -1.7979   -1.5419 C   0  0  0  0  0  0  0  0  0  0  0  0
    2.0933   -2.1206   -2.3638 H   0  0  0  0  0  0  0  0  0  0  0  0
    1.3617   -2.6343   -0.8159 H   0  0  0  0  0  0  0  0  0  0  0  0
    0.0453   -1.4533   -2.1063 C   0  0  0  0  0  0  0  0  0  0  0  0
   -0.3742   -2.3317   -2.6390 H   0  0  0  0  0  0  0  0  0  0  0  0
    0.1146   -0.6206   -2.8356 H   0  0  0  0  0  0  0  0  0  0  0  0
    3.9880   -0.3220   -1.3309 C   0  0  0  0  0  0  0  0  0  0  0  0
    4.1921   -0.2297   -2.7261 C   0  0  0  0  0  0  0  0  0  0  0  0
    3.3386   -0.2200   -3.4220 H   0  0  0  0  0  0  0  0  0  0  0  0
    5.4959   -0.1283   -3.2262 C   0  0  0  0  0  0  0  0  0  0  0  0
    5.6598   -0.0550   -4.3113 H   0  0  0  0  0  0  0  0  0  0  0  0
    6.5894   -0.1130   -2.3433 C   0  0  0  0  0  0  0  0  0  0  0  0
    7.6120   -0.0325   -2.7409 H   0  0  0  0  0  0  0  0  0  0  0  0
    6.3828   -0.1949   -0.9573 C   0  0  0  0  0  0  0  0  0  0  0  0
    7.2400   -0.1781   -0.2683 H   0  0  0  0  0  0  0  0  0  0  0  0
    5.0823   -0.2948   -0.4422 C   0  0  0  0  0  0  0  0  0  0  0  0
    4.9196   -0.3537    0.6439 H   0  0  0  0  0  0  0  0  0  0  0  0
    2.3353   -0.7083    1.0923 C   0  0  0  0  0  0  0  0  0  0  0  0
    2.1178    0.3475    2.0018 C   0  0  0  0  0  0  0  0  0  0  0  0
    1.9084    1.3673    1.6418 H   0  0  0  0  0  0  0  0  0  0  0  0
    2.1564    0.0864    3.3797 C   0  0  0  0  0  0  0  0  0  0  0  0
    1.9719    0.9074    4.0881 H   0  0  0  0  0  0  0  0  0  0  0  0
    2.4295   -1.2091    3.8467 C   0  0  0  0  0  0  0  0  0  0  0  0
    2.4600   -1.4072    4.9287 H   0  0  0  0  0  0  0  0  0  0  0  0
    2.6715   -2.2533    2.9374 C   0  0  0  0  0  0  0  0  0  0  0  0
    2.8939   -3.2665    3.3030 H   0  0  0  0  0  0  0  0  0  0  0  0
    2.6241   -2.0096    1.5587 C   0  0  0  0  0  0  0  0  0  0  0  0
    2.8170   -2.8363    0.8579 H   0  0  0  0  0  0  0  0  0  0  0  0
   -2.7881   -0.9277   -1.6967 C   0  0  0  0  0  0  0  0  0  0  0  0
   -3.9321   -1.5089   -1.1106 C   0  0  0  0  0  0  0  0  0  0  0  0
   -3.8632   -2.0038   -0.1314 H   0  0  0  0  0  0  0  0  0  0  0  0
   -5.1590   -1.4432   -1.7845 C   0  0  0  0  0  0  0  0  0  0  0  0
   -6.0516   -1.8992   -1.3317 H   0  0  0  0  0  0  0  0  0  0  0  0
   -5.2519   -0.7905   -3.0242 C   0  0  0  0  0  0  0  0  0  0  0  0
   -6.2194   -0.7369   -3.5449 H   0  0  0  0  0  0  0  0  0  0  0  0
   -4.1155   -0.1957   -3.5973 C   0  0  0  0  0  0  0  0  0  0  0  0
   -4.1909    0.3263   -4.5624 H   0  0  0  0  0  0  0  0  0  0  0  0
   -2.8822   -0.2570   -2.9361 C   0  0  0  0  0  0  0  0  0  0  0  0
   -2.0036    0.2327   -3.3836 H   0  0  0  0  0  0  0  0  0  0  0  0
   -1.1802   -2.2848    0.4065 C   0  0  0  0  0  0  0  0  0  0  0  0
   -0.8696   -2.0323    1.7573 C   0  0  0  0  0  0  0  0  0  0  0  0
   -0.6835   -1.0053    2.1027 H   0  0  0  0  0  0  0  0  0  0  0  0
   -0.8140   -3.0986    2.6667 C   0  0  0  0  0  0  0  0  0  0  0  0
   -0.5773   -2.8962    3.7214 H   0  0  0  0  0  0  0  0  0  0  0  0
   -1.0649   -4.4100    2.2358 C   0  0  0  0  0  0  0  0  0  0  0  0
   -1.0265   -5.2424    2.9543 H   0  0  0  0  0  0  0  0  0  0  0  0
   -1.3753   -4.6635    0.8885 C   0  0  0  0  0  0  0  0  0  0  0  0
   -1.5821   -5.6899    0.5512 H   0  0  0  0  0  0  0  0  0  0  0  0
   -1.4347   -3.6062   -0.0292 C   0  0  0  0  0  0  0  0  0  0  0  0
   -1.6982   -3.8108   -1.0787 H   0  0  0  0  0  0  0  0  0  0  0  0
  1 21  1  0  0  0  0
  2 43  1  0  0  0  0
  3  1  1  0  0  0  0
  4  6  1  0  0  0  0
  4  1  1  0  0  0  0
  5  4  1  0  0  0  0
  7  4  1  0  0  0  0
  7  2  1  0  0  0  0
  8  7  1  0  0  0  0
  9  7  1  0  0  0  0
 10  1  1  0  0  0  0
 10 19  1  0  0  0  0
 11 10  2  0  0  0  0
 12 11  1  0  0  0  0
 13 11  1  0  0  0  0
 13 15  2  0  0  0  0
 14 13  1  0  0  0  0
 15 17  1  0  0  0  0
 16 15  1  0  0  0  0
 17 19  2  0  0  0  0
 17 18  1  0  0  0  0
 19 20  1  0  0  0  0
 21 30  2  0  0  0  0
 21 22  1  0  0  0  0
 22 24  2  0  0  0  0
 23 22  1  0  0  0  0
 24 26  1  0  0  0  0
 24 25  1  0  0  0  0
 26 27  1  0  0  0  0
 28 29  1  0  0  0  0
 28 26  2  0  0  0  0
 30 28  1  0  0  0  0
 31 30  1  0  0  0  0
 32 33  1  0  0  0  0
 32  2  1  0  0  0  0
 33 34  1  0  0  0  0
 35 36  1  0  0  0  0
 35 33  2  0  0  0  0
 37 35  1  0  0  0  0
 38 37  1  0  0  0  0
 39 37  2  0  0  0  0
 39 41  1  0  0  0  0
 40 39  1  0  0  0  0
 41 32  2  0  0  0  0
 42 41  1  0  0  0  0
 43 44  1  0  0  0  0
 44 45  1  0  0  0  0
 44 46  2  0  0  0  0
 46 47  1  0  0  0  0
 48 46  1  0  0  0  0
 48 49  1  0  0  0  0
 50 48  2  0  0  0  0
 51 50  1  0  0  0  0
 52 43  2  0  0  0  0
 52 50  1  0  0  0  0
 53 52  1  0  0  0  0
M  END
