1,2
 OpenBabel05122313063D

 75 81  0  0  0  0  0  0  0  0999 V2000
   -0.7355   -1.8072    0.6121 S   0  0  0  0  0  1  0  0  0  0  0  0
    2.1270   -0.0424    0.2646 P   0  0  0  0  0  0  0  0  0  0  0  0
   -2.3391   -0.5866    0.3899 P   0  0  0  0  0  4  0  0  0  0  0  0
   -0.3201    1.6370   -0.2059 O   0  0  0  0  0  0  0  0  0  0  0  0
    3.0869    3.4137   -1.8260 C   0  0  0  0  0  0  0  0  0  0  0  0
    3.9861    3.8598   -2.2752 H   0  0  0  0  0  0  0  0  0  0  0  0
    3.1946    2.2287   -1.0866 C   0  0  0  0  0  0  0  0  0  0  0  0
    4.1737    1.7447   -0.9671 H   0  0  0  0  0  0  0  0  0  0  0  0
    1.2103    1.4885    2.5079 C   0  0  0  0  0  0  0  0  0  0  0  0
    1.1999    2.3689    1.8495 H   0  0  0  0  0  0  0  0  0  0  0  0
    0.9084    1.6418    3.8710 C   0  0  0  0  0  0  0  0  0  0  0  0
    0.6478    2.6375    4.2609 H   0  0  0  0  0  0  0  0  0  0  0  0
    1.5621   -0.8980    2.8594 C   0  0  0  0  0  0  0  0  0  0  0  0
    1.8101   -1.8908    2.4481 H   0  0  0  0  0  0  0  0  0  0  0  0
   -1.0445    4.7626   -0.1707 C   0  0  0  0  0  0  0  0  0  0  0  0
   -2.0693    5.1857   -0.1907 H   0  0  0  0  0  0  0  0  0  0  0  0
   -0.3253    5.5819    0.0309 H   0  0  0  0  0  0  0  0  0  0  0  0
   -0.9882    4.0385    0.6659 H   0  0  0  0  0  0  0  0  0  0  0  0
    1.5433    0.2200    1.9986 C   0  0  0  0  0  0  0  0  0  0  0  0
    0.6794    3.4660   -1.4379 C   0  0  0  0  0  0  0  0  0  0  0  0
    3.9319   -0.2616    0.6026 C   0  0  0  0  0  0  0  0  0  0  0  0
   -2.4196    0.7188   -0.8902 C   0  0  0  0  0  0  0  0  0  0  0  0
    1.2645   -0.7355    4.2188 C   0  0  0  0  0  0  0  0  0  0  0  0
    1.2880   -1.6112    4.8854 H   0  0  0  0  0  0  0  0  0  0  0  0
   -3.7140    2.1855    3.1329 C   0  0  0  0  0  0  0  0  0  0  0  0
   -4.2999    3.1171    3.1217 H   0  0  0  0  0  0  0  0  0  0  0  0
    2.0548    1.6306   -0.5134 C   0  0  0  0  0  0  0  0  0  0  0  0
    0.8098    2.2659   -0.7131 C   0  0  0  0  0  0  0  0  0  0  0  0
    1.8391    4.0272   -1.9989 C   0  0  0  0  0  0  0  0  0  0  0  0
    1.7681    4.9565   -2.5802 H   0  0  0  0  0  0  0  0  0  0  0  0
   -6.1308   -2.2409    0.3306 C   0  0  0  0  0  0  0  0  0  0  0  0
   -7.1132   -2.0586    0.7918 H   0  0  0  0  0  0  0  0  0  0  0  0
   -0.8204    5.1260   -2.6504 C   0  0  0  0  0  0  0  0  0  0  0  0
   -0.5904    4.6891   -3.6421 H   0  0  0  0  0  0  0  0  0  0  0  0
   -0.1236    5.9666   -2.4680 H   0  0  0  0  0  0  0  0  0  0  0  0
   -1.8376    5.5620   -2.6856 H   0  0  0  0  0  0  0  0  0  0  0  0
    0.9425    0.5338    4.7295 C   0  0  0  0  0  0  0  0  0  0  0  0
    0.7162    0.6586    5.7997 H   0  0  0  0  0  0  0  0  0  0  0  0
   -2.1973   -0.1834    3.1560 C   0  0  0  0  0  0  0  0  0  0  0  0
   -1.5699   -1.0879    3.1490 H   0  0  0  0  0  0  0  0  0  0  0  0
   -0.7161    4.0845   -1.5309 C   0  0  0  0  0  0  0  0  0  0  0  0
   -3.7911   -1.6495    0.0586 C   0  0  0  0  0  0  0  0  0  0  0  0
   -1.4784    1.7706   -0.9361 C   0  0  0  0  0  0  0  0  0  0  0  0
   -2.6829    0.3320    1.9405 C   0  0  0  0  0  0  0  0  0  0  0  0
   -2.8066    2.9419   -2.5750 C   0  0  0  0  0  0  0  0  0  0  0  0
   -2.9797    3.8141   -3.2202 H   0  0  0  0  0  0  0  0  0  0  0  0
   -1.6892    2.9199   -1.7244 C   0  0  0  0  0  0  0  0  0  0  0  0
    4.6026    0.7151    1.3733 C   0  0  0  0  0  0  0  0  0  0  0  0
    4.0513    1.5870    1.7574 H   0  0  0  0  0  0  0  0  0  0  0  0
   -3.4405    1.5220    1.9275 C   0  0  0  0  0  0  0  0  0  0  0  0
   -3.8091    1.9345    0.9762 H   0  0  0  0  0  0  0  0  0  0  0  0
   -5.0496   -1.4020    0.6409 C   0  0  0  0  0  0  0  0  0  0  0  0
   -5.1829   -0.5626    1.3400 H   0  0  0  0  0  0  0  0  0  0  0  0
    5.9673    0.5772    1.6560 C   0  0  0  0  0  0  0  0  0  0  0  0
    6.4812    1.3461    2.2527 H   0  0  0  0  0  0  0  0  0  0  0  0
   -3.6046   -2.7339   -0.8248 C   0  0  0  0  0  0  0  0  0  0  0  0
   -2.6051   -2.9377   -1.2535 H   0  0  0  0  0  0  0  0  0  0  0  0
    4.6359   -1.3945    0.1567 C   0  0  0  0  0  0  0  0  0  0  0  0
    4.1023   -2.2014   -0.3629 H   0  0  0  0  0  0  0  0  0  0  0  0
   -3.5328    0.7769   -1.7523 C   0  0  0  0  0  0  0  0  0  0  0  0
   -4.2645   -0.0426   -1.7436 H   0  0  0  0  0  0  0  0  0  0  0  0
   -3.7092    1.8697   -2.6100 C   0  0  0  0  0  0  0  0  0  0  0  0
   -4.5702    1.8944   -3.2933 H   0  0  0  0  0  0  0  0  0  0  0  0
    6.6727   -0.5448    1.1876 C   0  0  0  0  0  0  0  0  0  0  0  0
    7.7443   -0.6555    1.4135 H   0  0  0  0  0  0  0  0  0  0  0  0
   -5.9561   -3.3130   -0.5596 C   0  0  0  0  0  0  0  0  0  0  0  0
   -6.8060   -3.9704   -0.7989 H   0  0  0  0  0  0  0  0  0  0  0  0
   -4.6977   -3.5553   -1.1359 C   0  0  0  0  0  0  0  0  0  0  0  0
   -4.5566   -4.3998   -1.8270 H   0  0  0  0  0  0  0  0  0  0  0  0
    6.0035   -1.5297    0.4480 C   0  0  0  0  0  0  0  0  0  0  0  0
    6.5426   -2.4230    0.0987 H   0  0  0  0  0  0  0  0  0  0  0  0
   -2.4826    0.4821    4.3562 C   0  0  0  0  0  0  0  0  0  0  0  0
   -2.0945    0.0795    5.3032 H   0  0  0  0  0  0  0  0  0  0  0  0
   -3.2397    1.6640    4.3477 C   0  0  0  0  0  0  0  0  0  0  0  0
   -3.4551    2.1873    5.2917 H   0  0  0  0  0  0  0  0  0  0  0  0
  2 21  1  0  0  0  0
  2 19  1  0  0  0  0
  3  1  1  0  0  0  0
  3 44  1  0  0  0  0
  5  7  1  0  0  0  0
  6  5  1  0  0  0  0
  7  8  1  0  0  0  0
  7 27  2  0  0  0  0
  9 11  1  0  0  0  0
 10  9  1  0  0  0  0
 11 12  1  0  0  0  0
 11 37  2  0  0  0  0
 13 23  2  0  0  0  0
 14 13  1  0  0  0  0
 15 17  1  0  0  0  0
 15 18  1  0  0  0  0
 16 15  1  0  0  0  0
 19  9  2  0  0  0  0
 19 13  1  0  0  0  0
 20 28  2  0  0  0  0
 21 48  1  0  0  0  0
 22  3  1  0  0  0  0
 23 37  1  0  0  0  0
 23 24  1  0  0  0  0
 25 74  1  0  0  0  0
 26 25  1  0  0  0  0
 27  2  1  0  0  0  0
 28 27  1  0  0  0  0
 28  4  1  0  0  0  0
 29  5  2  0  0  0  0
 29 20  1  0  0  0  0
 30 29  1  0  0  0  0
 31 52  1  0  0  0  0
 31 32  1  0  0  0  0
 33 35  1  0  0  0  0
 33 41  1  0  0  0  0
 34 33  1  0  0  0  0
 36 33  1  0  0  0  0
 37 38  1  0  0  0  0
 39 72  1  0  0  0  0
 40 39  1  0  0  0  0
 41 20  1  0  0  0  0
 41 15  1  0  0  0  0
 42  3  1  0  0  0  0
 42 52  2  0  0  0  0
 43 22  1  0  0  0  0
 43  4  1  0  0  0  0
 44 39  2  0  0  0  0
 45 47  1  0  0  0  0
 46 45  1  0  0  0  0
 47 41  1  0  0  0  0
 47 43  2  0  0  0  0
 48 54  2  0  0  0  0
 48 49  1  0  0  0  0
 50 44  1  0  0  0  0
 50 25  2  0  0  0  0
 51 50  1  0  0  0  0
 52 53  1  0  0  0  0
 54 55  1  0  0  0  0
 56 42  1  0  0  0  0
 57 56  1  0  0  0  0
 58 70  1  0  0  0  0
 58 21  2  0  0  0  0
 59 58  1  0  0  0  0
 60 61  1  0  0  0  0
 60 22  2  0  0  0  0
 62 45  2  0  0  0  0
 62 60  1  0  0  0  0
 63 62  1  0  0  0  0
 64 65  1  0  0  0  0
 64 54  1  0  0  0  0
 66 31  2  0  0  0  0
 67 66  1  0  0  0  0
 68 56  2  0  0  0  0
 68 66  1  0  0  0  0
 69 68  1  0  0  0  0
 70 64  2  0  0  0  0
 71 70  1  0  0  0  0
 72 73  1  0  0  0  0
 74 72  2  0  0  0  0
 74 75  1  0  0  0  0
M  END
