1,2
 OpenBabel05122313063D

 41 43  0  0  0  0  0  0  0  0999 V2000
   -1.9526   -1.7040    0.2773 P   0  0  0  0  0  0  0  0  0  0  0  0
    0.7126   -2.4388   -1.4067 S   0  0  0  0  0  0  0  0  0  0  0  0
    1.3867   -2.1103    1.6257 F   0  0  0  0  0  0  0  0  0  0  0  0
    3.2279   -3.2895   -2.6166 F   0  0  0  0  0  0  0  0  0  0  0  0
    5.6294   -3.6954   -1.4448 F   0  0  0  0  0  0  0  0  0  0  0  0
    3.7882   -2.5414    2.7683 F   0  0  0  0  0  0  0  0  0  0  0  0
   -1.1832   -3.3949    0.4674 C   0  0  0  0  0  0  0  0  0  0  0  0
   -0.5189   -3.3469    1.3508 H   0  0  0  0  0  0  0  0  0  0  0  0
   -1.9869   -4.1303    0.6797 H   0  0  0  0  0  0  0  0  0  0  0  0
   -0.4186   -3.7770   -0.7893 C   0  0  0  0  0  0  0  0  0  0  0  0
   -1.0998   -3.9450   -1.6493 H   0  0  0  0  0  0  0  0  0  0  0  0
    0.2018   -4.6852   -0.6615 H   0  0  0  0  0  0  0  0  0  0  0  0
    2.2406   -2.7146   -0.5260 C   0  0  0  0  0  0  0  0  0  0  0  0
    2.4112   -2.5200    0.8573 C   0  0  0  0  0  0  0  0  0  0  0  0
    3.6601   -2.7366    1.4567 C   0  0  0  0  0  0  0  0  0  0  0  0
    4.7531   -3.1459    0.6871 C   0  0  0  0  0  0  0  0  0  0  0  0
    5.7323   -3.3060    1.1586 H   0  0  0  0  0  0  0  0  0  0  0  0
    4.5986   -3.3212   -0.6897 C   0  0  0  0  0  0  0  0  0  0  0  0
    3.3502   -3.1096   -1.3039 C   0  0  0  0  0  0  0  0  0  0  0  0
   -3.3723   -1.9857   -0.8359 C   0  0  0  0  0  0  0  0  0  0  0  0
   -3.4193   -1.3024   -2.0691 C   0  0  0  0  0  0  0  0  0  0  0  0
   -2.6180   -0.5892   -2.3218 H   0  0  0  0  0  0  0  0  0  0  0  0
   -4.4735   -1.5372   -2.9640 C   0  0  0  0  0  0  0  0  0  0  0  0
   -4.5036   -1.0009   -3.9241 H   0  0  0  0  0  0  0  0  0  0  0  0
   -5.4817   -2.4571   -2.6358 C   0  0  0  0  0  0  0  0  0  0  0  0
   -6.3085   -2.6411   -3.3379 H   0  0  0  0  0  0  0  0  0  0  0  0
   -5.4311   -3.1527   -1.4159 C   0  0  0  0  0  0  0  0  0  0  0  0
   -6.2152   -3.8818   -1.1632 H   0  0  0  0  0  0  0  0  0  0  0  0
   -4.3786   -2.9250   -0.5178 C   0  0  0  0  0  0  0  0  0  0  0  0
   -4.3472   -3.4823    0.4313 H   0  0  0  0  0  0  0  0  0  0  0  0
   -4.2769   -0.8900    3.6072 C   0  0  0  0  0  0  0  0  0  0  0  0
   -5.3435   -0.8058    3.8626 H   0  0  0  0  0  0  0  0  0  0  0  0
   -3.9055   -1.1902    2.2878 C   0  0  0  0  0  0  0  0  0  0  0  0
   -4.6793   -1.3192    1.5188 H   0  0  0  0  0  0  0  0  0  0  0  0
   -2.5422   -1.2962    1.9550 C   0  0  0  0  0  0  0  0  0  0  0  0
   -1.5550   -1.0767    2.9423 C   0  0  0  0  0  0  0  0  0  0  0  0
   -0.4876   -1.1367    2.6825 H   0  0  0  0  0  0  0  0  0  0  0  0
   -1.9366   -0.7764    4.2565 C   0  0  0  0  0  0  0  0  0  0  0  0
   -1.1649   -0.6130    5.0237 H   0  0  0  0  0  0  0  0  0  0  0  0
   -3.2983   -0.6887    4.5919 C   0  0  0  0  0  0  0  0  0  0  0  0
   -3.5963   -0.4564    5.6252 H   0  0  0  0  0  0  0  0  0  0  0  0
  1  7  1  0  0  0  0
  1 35  1  0  0  0  0
  2 10  1  0  0  0  0
  2 13  1  0  0  0  0
  4 19  1  0  0  0  0
  5 18  1  0  0  0  0
  7  9  1  0  0  0  0
  7  8  1  0  0  0  0
 10 12  1  0  0  0  0
 10  7  1  0  0  0  0
 11 10  1  0  0  0  0
 13 14  1  0  0  0  0
 14 15  2  0  0  0  0
 14  3  1  0  0  0  0
 15  6  1  0  0  0  0
 16 17  1  0  0  0  0
 16 15  1  0  0  0  0
 18 16  2  0  0  0  0
 19 18  1  0  0  0  0
 19 13  2  0  0  0  0
 20 29  1  0  0  0  0
 20  1  1  0  0  0  0
 21 20  2  0  0  0  0
 22 21  1  0  0  0  0
 23 25  2  0  0  0  0
 23 21  1  0  0  0  0
 24 23  1  0  0  0  0
 25 27  1  0  0  0  0
 26 25  1  0  0  0  0
 27 28  1  0  0  0  0
 27 29  2  0  0  0  0
 29 30  1  0  0  0  0
 31 32  1  0  0  0  0
 31 40  1  0  0  0  0
 33 31  2  0  0  0  0
 34 33  1  0  0  0  0
 35 33  1  0  0  0  0
 35 36  2  0  0  0  0
 36 38  1  0  0  0  0
 37 36  1  0  0  0  0
 38 40  2  0  0  0  0
 38 39  1  0  0  0  0
 40 41  1  0  0  0  0
M  END
