1,2
 OpenBabel05122313063D

 37 39  0  0  0  0  0  0  0  0999 V2000
   -0.7009   -2.1126    0.0006 S   0  0  0  0  0  1  0  0  0  0  0  0
    0.5132    0.4313   -0.0000 P   0  0  0  0  0  0  0  0  0  0  0  0
   -2.2532    0.2516    0.0001 N   0  0  0  0  0  0  0  0  0  0  0  0
   -1.1401   -0.3954    0.0002 C   0  0  0  0  0  0  0  0  0  0  0  0
    0.6155    1.5497   -1.4487 C   0  0  0  0  0  0  0  0  0  0  0  0
   -0.5369    2.1856   -1.9538 C   0  0  0  0  0  0  0  0  0  0  0  0
   -0.4226    3.0555   -3.0480 C   0  0  0  0  0  0  0  0  0  0  0  0
    0.8307    3.3012   -3.6317 C   0  0  0  0  0  0  0  0  0  0  0  0
    1.9778    2.6708   -3.1238 C   0  0  0  0  0  0  0  0  0  0  0  0
    1.8736    1.7913   -2.0367 C   0  0  0  0  0  0  0  0  0  0  0  0
    0.6156    1.5501    1.4482 C   0  0  0  0  0  0  0  0  0  0  0  0
   -0.5368    2.1858    1.9537 C   0  0  0  0  0  0  0  0  0  0  0  0
   -0.4224    3.0560    3.0477 C   0  0  0  0  0  0  0  0  0  0  0  0
    0.8311    3.3023    3.6308 C   0  0  0  0  0  0  0  0  0  0  0  0
    1.9782    2.6722    3.1225 C   0  0  0  0  0  0  0  0  0  0  0  0
    1.8738    1.7924    2.0357 C   0  0  0  0  0  0  0  0  0  0  0  0
   -3.5548   -0.2497    0.0001 C   0  0  0  0  0  0  0  0  0  0  0  0
   -3.9116   -1.6238    0.0002 C   0  0  0  0  0  0  0  0  0  0  0  0
   -5.2607   -2.0010    0.0002 C   0  0  0  0  0  0  0  0  0  0  0  0
   -6.2777   -1.0325    0.0001 C   0  0  0  0  0  0  0  0  0  0  0  0
   -5.9365    0.3312    0.0000 C   0  0  0  0  0  0  0  0  0  0  0  0
   -4.5930    0.7171    0.0000 C   0  0  0  0  0  0  0  0  0  0  0  0
   -1.5140    1.9813   -1.4903 H   0  0  0  0  0  0  0  0  0  0  0  0
   -1.3234    3.5447   -3.4487 H   0  0  0  0  0  0  0  0  0  0  0  0
    0.9140    3.9854   -4.4897 H   0  0  0  0  0  0  0  0  0  0  0  0
    2.9612    2.8580   -3.5807 H   0  0  0  0  0  0  0  0  0  0  0  0
    2.7747    1.2937   -1.6468 H   0  0  0  0  0  0  0  0  0  0  0  0
   -1.5141    1.9811    1.4907 H   0  0  0  0  0  0  0  0  0  0  0  0
   -1.3232    3.5449    3.4487 H   0  0  0  0  0  0  0  0  0  0  0  0
    0.9145    3.9867    4.4886 H   0  0  0  0  0  0  0  0  0  0  0  0
    2.9617    2.8599    3.5790 H   0  0  0  0  0  0  0  0  0  0  0  0
    2.7750    1.2949    1.6456 H   0  0  0  0  0  0  0  0  0  0  0  0
   -3.1279   -2.3939    0.0004 H   0  0  0  0  0  0  0  0  0  0  0  0
   -5.5208   -3.0707    0.0003 H   0  0  0  0  0  0  0  0  0  0  0  0
   -7.3344   -1.3397    0.0000 H   0  0  0  0  0  0  0  0  0  0  0  0
   -6.7260    1.0982   -0.0000 H   0  0  0  0  0  0  0  0  0  0  0  0
   -4.3063    1.7792   -0.0000 H   0  0  0  0  0  0  0  0  0  0  0  0
  2  4  1  0  0  0  0
  2 11  1  0  0  0  0
  3 17  1  0  0  0  0
  3  4  2  0  0  0  0
  4  1  1  0  0  0  0
  5  2  1  0  0  0  0
  6 23  1  0  0  0  0
  6  5  1  0  0  0  0
  7  6  2  0  0  0  0
  8  9  2  0  0  0  0
  8  7  1  0  0  0  0
  9 10  1  0  0  0  0
 10 27  1  0  0  0  0
 10  5  2  0  0  0  0
 11 12  2  0  0  0  0
 11 16  1  0  0  0  0
 12 13  1  0  0  0  0
 13 29  1  0  0  0  0
 13 14  2  0  0  0  0
 14 30  1  0  0  0  0
 15 31  1  0  0  0  0
 15 14  1  0  0  0  0
 16 15  2  0  0  0  0
 17 18  1  0  0  0  0
 18 33  1  0  0  0  0
 19 18  2  0  0  0  0
 19 34  1  0  0  0  0
 20 19  1  0  0  0  0
 21 22  1  0  0  0  0
 21 20  2  0  0  0  0
 22 17  2  0  0  0  0
 24  7  1  0  0  0  0
 25  8  1  0  0  0  0
 26  9  1  0  0  0  0
 28 12  1  0  0  0  0
 32 16  1  0  0  0  0
 35 20  1  0  0  0  0
 36 21  1  0  0  0  0
 37 22  1  0  0  0  0
M  END
