1,2
 OpenBabel05122313063D

 50 53  0  0  0  0  0  0  0  0999 V2000
   -1.1267   -1.7968   -1.3219 S   0  0  0  0  0  1  0  0  0  0  0  0
    1.0189    0.0561    0.7060 P   0  0  0  0  0  0  0  0  0  0  0  0
   -1.8285   -0.5719    0.1028 P   0  0  0  0  0  4  0  0  0  0  0  0
   -0.6069   -0.4623    1.4835 C   0  0  0  0  0  0  0  0  0  0  0  0
   -0.4992   -1.4860    1.8945 H   0  0  0  0  0  0  0  0  0  0  0  0
   -0.9423    0.2191    2.2905 H   0  0  0  0  0  0  0  0  0  0  0  0
    2.2684   -0.5430    1.9155 C   0  0  0  0  0  0  0  0  0  0  0  0
    2.3744   -1.9413    2.0808 C   0  0  0  0  0  0  0  0  0  0  0  0
    1.7068   -2.6094    1.5125 H   0  0  0  0  0  0  0  0  0  0  0  0
    3.3508   -2.4793    2.9283 C   0  0  0  0  0  0  0  0  0  0  0  0
    3.4246   -3.5703    3.0527 H   0  0  0  0  0  0  0  0  0  0  0  0
    4.2473   -1.6295    3.5993 C   0  0  0  0  0  0  0  0  0  0  0  0
    5.0207   -2.0534    4.2575 H   0  0  0  0  0  0  0  0  0  0  0  0
    4.1655   -0.2420    3.4130 C   0  0  0  0  0  0  0  0  0  0  0  0
    4.8777    0.4263    3.9207 H   0  0  0  0  0  0  0  0  0  0  0  0
    3.1801    0.3040    2.5737 C   0  0  0  0  0  0  0  0  0  0  0  0
    3.1299    1.3923    2.4248 H   0  0  0  0  0  0  0  0  0  0  0  0
    0.9656    1.8863    0.9003 C   0  0  0  0  0  0  0  0  0  0  0  0
    0.7432    2.5000    2.1517 C   0  0  0  0  0  0  0  0  0  0  0  0
    0.6481    1.8866    3.0620 H   0  0  0  0  0  0  0  0  0  0  0  0
    0.6472    3.8958    2.2444 C   0  0  0  0  0  0  0  0  0  0  0  0
    0.4760    4.3695    3.2231 H   0  0  0  0  0  0  0  0  0  0  0  0
    0.7703    4.6867    1.0893 C   0  0  0  0  0  0  0  0  0  0  0  0
    0.6926    5.7823    1.1632 H   0  0  0  0  0  0  0  0  0  0  0  0
    0.9887    4.0795   -0.1566 C   0  0  0  0  0  0  0  0  0  0  0  0
    1.0762    4.6949   -1.0645 H   0  0  0  0  0  0  0  0  0  0  0  0
    1.0870    2.6832   -0.2540 C   0  0  0  0  0  0  0  0  0  0  0  0
    1.2342    2.1847   -1.2256 H   0  0  0  0  0  0  0  0  0  0  0  0
   -2.0805    1.1489   -0.4560 C   0  0  0  0  0  0  0  0  0  0  0  0
   -2.3617    2.1803    0.4646 C   0  0  0  0  0  0  0  0  0  0  0  0
   -2.4582    1.9649    1.5397 H   0  0  0  0  0  0  0  0  0  0  0  0
   -2.5017    3.4981    0.0092 C   0  0  0  0  0  0  0  0  0  0  0  0
   -2.7074    4.3048    0.7281 H   0  0  0  0  0  0  0  0  0  0  0  0
   -2.3595    3.7876   -1.3583 C   0  0  0  0  0  0  0  0  0  0  0  0
   -2.4620    4.8251   -1.7112 H   0  0  0  0  0  0  0  0  0  0  0  0
   -2.0728    2.7610   -2.2712 C   0  0  0  0  0  0  0  0  0  0  0  0
   -1.9472    2.9883   -3.3403 H   0  0  0  0  0  0  0  0  0  0  0  0
   -1.9295    1.4391   -1.8242 C   0  0  0  0  0  0  0  0  0  0  0  0
   -1.6732    0.6237   -2.5191 H   0  0  0  0  0  0  0  0  0  0  0  0
   -3.3864   -1.1834    0.8365 C   0  0  0  0  0  0  0  0  0  0  0  0
   -3.4178   -2.5260    1.2712 C   0  0  0  0  0  0  0  0  0  0  0  0
   -2.5288   -3.1628    1.1397 H   0  0  0  0  0  0  0  0  0  0  0  0
   -4.5882   -3.0511    1.8334 C   0  0  0  0  0  0  0  0  0  0  0  0
   -4.6092   -4.0983    2.1704 H   0  0  0  0  0  0  0  0  0  0  0  0
   -5.7350   -2.2475    1.9528 C   0  0  0  0  0  0  0  0  0  0  0  0
   -6.6553   -2.6641    2.3894 H   0  0  0  0  0  0  0  0  0  0  0  0
   -5.7105   -0.9187    1.5035 C   0  0  0  0  0  0  0  0  0  0  0  0
   -6.6118   -0.2921    1.5815 H   0  0  0  0  0  0  0  0  0  0  0  0
   -4.5397   -0.3824    0.9445 C   0  0  0  0  0  0  0  0  0  0  0  0
   -4.5281    0.6560    0.5828 H   0  0  0  0  0  0  0  0  0  0  0  0
  1  3  1  0  0  0  0
  2 18  1  0  0  0  0
  2  4  1  0  0  0  0
  2  7  1  0  0  0  0
  3 40  1  0  0  0  0
  3  4  1  0  0  0  0
  4  5  1  0  0  0  0
  4  6  1  0  0  0  0
  7  8  2  0  0  0  0
  7 16  1  0  0  0  0
  8 10  1  0  0  0  0
  9  8  1  0  0  0  0
 10 11  1  0  0  0  0
 10 12  2  0  0  0  0
 12 13  1  0  0  0  0
 14 12  1  0  0  0  0
 14 15  1  0  0  0  0
 16 14  2  0  0  0  0
 17 16  1  0  0  0  0
 18 19  1  0  0  0  0
 19 21  2  0  0  0  0
 19 20  1  0  0  0  0
 21 22  1  0  0  0  0
 23 24  1  0  0  0  0
 23 21  1  0  0  0  0
 25 23  2  0  0  0  0
 26 25  1  0  0  0  0
 27 25  1  0  0  0  0
 27 18  2  0  0  0  0
 28 27  1  0  0  0  0
 29  3  1  0  0  0  0
 29 30  1  0  0  0  0
 30 31  1  0  0  0  0
 32 30  2  0  0  0  0
 32 33  1  0  0  0  0
 34 32  1  0  0  0  0
 35 34  1  0  0  0  0
 36 38  1  0  0  0  0
 36 34  2  0  0  0  0
 37 36  1  0  0  0  0
 38 29  2  0  0  0  0
 39 38  1  0  0  0  0
 40 49  2  0  0  0  0
 40 41  1  0  0  0  0
 41 43  2  0  0  0  0
 42 41  1  0  0  0  0
 43 45  1  0  0  0  0
 43 44  1  0  0  0  0
 45 46  1  0  0  0  0
 47 48  1  0  0  0  0
 47 45  2  0  0  0  0
 49 47  1  0  0  0  0
 50 49  1  0  0  0  0
M  END
