1,6
 OpenBabel05122313063D

 63 68  0  0  1  0  0  0  0  0999 V2000
    1.8310   -0.1602    0.0342 P   0  0  0  0  0  0  0  0  0  0  0  0
   -3.6254    0.1261    0.4760 C   0  0  1  0  0  0  0  0  0  0  0  0
   -2.4077    1.0335    0.5023 C   0  0  0  0  0  0  0  0  0  0  0  0
   -1.8339    0.9060    1.4441 H   0  0  0  0  0  0  0  0  0  0  0  0
   -2.6499    2.1098    0.4048 H   0  0  0  0  0  0  0  0  0  0  0  0
   -1.2391    0.6919   -0.8805 S   0  0  0  0  0  0  0  0  0  0  0  0
   -1.1053   -1.1513   -0.4720 C   0  0  1  0  0  0  0  0  0  0  0  0
   -0.7926   -1.1758    0.5988 H   0  0  0  0  0  0  0  0  0  0  0  0
   -2.3487   -1.7480   -0.6443 O   0  0  0  0  0  0  0  0  0  0  0  0
   -3.3102   -1.3963    0.3645 C   0  0  2  0  0  0  0  0  0  0  0  0
   -2.9122   -1.7667    1.3389 H   0  0  0  0  0  0  0  0  0  0  0  0
   -4.6800   -2.0111   -0.0090 C   0  0  0  0  0  0  0  0  0  0  0  0
   -4.5953   -2.4861   -1.0046 H   0  0  0  0  0  0  0  0  0  0  0  0
   -5.0010   -2.7938    0.7054 H   0  0  0  0  0  0  0  0  0  0  0  0
   -5.6371   -0.7972   -0.0168 C   0  0  1  0  0  0  0  0  0  0  0  0
   -6.5832   -0.9823   -0.5628 H   0  0  0  0  0  0  0  0  0  0  0  0
   -5.8239   -0.3647    1.4520 C   0  0  0  0  0  0  0  0  0  0  0  0
   -6.0892   -1.2231    2.1009 H   0  0  0  0  0  0  0  0  0  0  0  0
   -6.6349    0.3816    1.5577 H   0  0  0  0  0  0  0  0  0  0  0  0
   -4.4360    0.2440    1.8014 C   0  0  0  0  0  0  0  0  0  0  0  0
   -4.5106    1.3054    2.1094 H   0  0  0  0  0  0  0  0  0  0  0  0
   -3.9193   -0.2885    2.6258 H   0  0  0  0  0  0  0  0  0  0  0  0
   -4.7474    0.3424   -0.6096 C   0  0  0  0  0  0  0  0  0  0  0  0
   -5.3839    1.7401   -0.5514 C   0  0  0  0  0  0  0  0  0  0  0  0
   -4.6605    2.5065   -0.8973 H   0  0  0  0  0  0  0  0  0  0  0  0
   -5.7300    2.0404    0.4549 H   0  0  0  0  0  0  0  0  0  0  0  0
   -6.2579    1.7872   -1.2327 H   0  0  0  0  0  0  0  0  0  0  0  0
   -4.3419    0.0967   -2.0735 C   0  0  0  0  0  0  0  0  0  0  0  0
   -3.6942    0.9156   -2.4431 H   0  0  0  0  0  0  0  0  0  0  0  0
   -5.2536    0.0794   -2.7069 H   0  0  0  0  0  0  0  0  0  0  0  0
   -3.7885   -0.8448   -2.2301 H   0  0  0  0  0  0  0  0  0  0  0  0
    1.3146   -1.4252   -1.2202 C   0  0  0  0  0  0  0  0  0  0  0  0
   -0.0588   -1.7717   -1.3592 C   0  0  0  0  0  0  0  0  0  0  0  0
   -0.4445   -2.7020   -2.3394 C   0  0  0  0  0  0  0  0  0  0  0  0
   -1.5083   -2.9620   -2.4222 H   0  0  0  0  0  0  0  0  0  0  0  0
    0.5083   -3.2895   -3.1841 C   0  0  0  0  0  0  0  0  0  0  0  0
    0.1891   -4.0148   -3.9476 H   0  0  0  0  0  0  0  0  0  0  0  0
    1.8614   -2.9499   -3.0525 C   0  0  0  0  0  0  0  0  0  0  0  0
    2.6170   -3.4066   -3.7093 H   0  0  0  0  0  0  0  0  0  0  0  0
    2.2594   -2.0245   -2.0756 C   0  0  0  0  0  0  0  0  0  0  0  0
    3.3226   -1.7639   -1.9742 H   0  0  0  0  0  0  0  0  0  0  0  0
    3.6663   -0.1433   -0.1140 C   0  0  0  0  0  0  0  0  0  0  0  0
    4.5060   -0.9307    0.6973 C   0  0  0  0  0  0  0  0  0  0  0  0
    4.0735   -1.5805    1.4720 H   0  0  0  0  0  0  0  0  0  0  0  0
    5.8983   -0.8781    0.5249 C   0  0  0  0  0  0  0  0  0  0  0  0
    6.5497   -1.4883    1.1689 H   0  0  0  0  0  0  0  0  0  0  0  0
    6.4580   -0.0489   -0.4593 C   0  0  0  0  0  0  0  0  0  0  0  0
    7.5501   -0.0085   -0.5900 H   0  0  0  0  0  0  0  0  0  0  0  0
    5.6231    0.7381   -1.2698 C   0  0  0  0  0  0  0  0  0  0  0  0
    6.0573    1.3975   -2.0364 H   0  0  0  0  0  0  0  0  0  0  0  0
    4.2332    0.6986   -1.0942 C   0  0  0  0  0  0  0  0  0  0  0  0
    3.5726    1.3299   -1.7099 H   0  0  0  0  0  0  0  0  0  0  0  0
    1.5061   -1.0408    1.6288 C   0  0  0  0  0  0  0  0  0  0  0  0
    1.5551   -2.4464    1.7364 C   0  0  0  0  0  0  0  0  0  0  0  0
    1.8038   -3.0559    0.8537 H   0  0  0  0  0  0  0  0  0  0  0  0
    1.2685   -3.0671    2.9620 C   0  0  0  0  0  0  0  0  0  0  0  0
    1.3019   -4.1645    3.0398 H   0  0  0  0  0  0  0  0  0  0  0  0
    0.9351   -2.2911    4.0847 C   0  0  0  0  0  0  0  0  0  0  0  0
    0.7066   -2.7813    5.0434 H   0  0  0  0  0  0  0  0  0  0  0  0
    0.8872   -0.8911    3.9816 C   0  0  0  0  0  0  0  0  0  0  0  0
    0.6221   -0.2810    4.8584 H   0  0  0  0  0  0  0  0  0  0  0  0
    1.1669   -0.2660    2.7570 C   0  0  0  0  0  0  0  0  0  0  0  0
    1.1061    0.8296    2.6479 H   0  0  0  0  0  0  0  0  0  0  0  0
  1 53  1  0  0  0  0
  2 23  1  6  0  0  0
  2  3  1  0  0  0  0
  2 20  1  0  0  0  0
  3  4  1  0  0  0  0
  5  3  1  0  0  0  0
  6  7  1  0  0  0  0
  6  3  1  0  0  0  0
  7  8  1  1  0  0  0
  9  7  1  0  0  0  0
  9 10  1  0  0  0  0
 10  2  1  0  0  0  0
 10 11  1  1  0  0  0
 12 10  1  0  0  0  0
 12 14  1  0  0  0  0
 13 12  1  0  0  0  0
 15 16  1  6  0  0  0
 15 12  1  0  0  0  0
 15 17  1  0  0  0  0
 17 19  1  0  0  0  0
 17 20  1  0  0  0  0
 17 18  1  0  0  0  0
 20 21  1  0  0  0  0
 20 22  1  0  0  0  0
 23 24  1  0  0  0  0
 23 15  1  0  0  0  0
 24 26  1  0  0  0  0
 25 24  1  0  0  0  0
 27 24  1  0  0  0  0
 28 23  1  0  0  0  0
 29 28  1  0  0  0  0
 30 28  1  0  0  0  0
 31 28  1  0  0  0  0
 32  1  1  0  0  0  0
 33 32  1  0  0  0  0
 33  7  1  0  0  0  0
 34 33  2  0  0  0  0
 35 34  1  0  0  0  0
 36 38  2  0  0  0  0
 36 34  1  0  0  0  0
 37 36  1  0  0  0  0
 38 40  1  0  0  0  0
 39 38  1  0  0  0  0
 40 41  1  0  0  0  0
 40 32  2  0  0  0  0
 42  1  1  0  0  0  0
 42 43  1  0  0  0  0
 43 44  1  0  0  0  0
 45 43  2  0  0  0  0
 45 46  1  0  0  0  0
 47 45  1  0  0  0  0
 48 47  1  0  0  0  0
 49 51  1  0  0  0  0
 49 47  2  0  0  0  0
 50 49  1  0  0  0  0
 51 42  2  0  0  0  0
 52 51  1  0  0  0  0
 53 54  2  0  0  0  0
 53 62  1  0  0  0  0
 54 56  1  0  0  0  0
 55 54  1  0  0  0  0
 56 57  1  0  0  0  0
 56 58  2  0  0  0  0
 58 59  1  0  0  0  0
 60 58  1  0  0  0  0
 60 61  1  0  0  0  0
 62 60  2  0  0  0  0
 63 62  1  0  0  0  0
M  END
