1,2
 OpenBabel05122313063D

 64 66  0  0  0  0  0  0  0  0999 V2000
    0.4575    0.0801   -0.2258 P   0  0  0  0  0  0  0  0  0  0  0  0
   -2.1392   -1.1285    1.2064 S   0  0  0  0  0  0  0  0  0  0  0  0
   -0.7226    2.3108    1.8238 S   0  0  0  0  0  0  0  0  0  0  0  0
    3.9396    0.4144   -0.1352 S   0  0  0  0  0  0  0  0  0  0  0  0
    0.5725   -0.5023    1.5333 C   0  0  0  0  0  0  0  0  0  0  0  0
   -0.5755   -1.0985    2.1055 C   0  0  0  0  0  0  0  0  0  0  0  0
   -0.5728   -1.5158    3.4471 C   0  0  0  0  0  0  0  0  0  0  0  0
   -1.4927   -1.9172    3.8950 H   0  0  0  0  0  0  0  0  0  0  0  0
    0.5880   -1.3797    4.2228 C   0  0  0  0  0  0  0  0  0  0  0  0
    0.5856   -1.7127    5.2715 H   0  0  0  0  0  0  0  0  0  0  0  0
    1.7281   -0.7817    3.6678 C   0  0  0  0  0  0  0  0  0  0  0  0
    2.6326   -0.6410    4.2789 H   0  0  0  0  0  0  0  0  0  0  0  0
    1.7149   -0.3346    2.3386 C   0  0  0  0  0  0  0  0  0  0  0  0
    2.5977    0.1549    1.9038 H   0  0  0  0  0  0  0  0  0  0  0  0
    0.9701    1.8326   -0.3379 C   0  0  0  0  0  0  0  0  0  0  0  0
    0.4256    2.7968    0.5473 C   0  0  0  0  0  0  0  0  0  0  0  0
    0.7565    4.1549    0.3714 C   0  0  0  0  0  0  0  0  0  0  0  0
    0.3639    4.8959    1.0836 H   0  0  0  0  0  0  0  0  0  0  0  0
    1.5565    4.5617   -0.7050 C   0  0  0  0  0  0  0  0  0  0  0  0
    1.7937    5.6284   -0.8356 H   0  0  0  0  0  0  0  0  0  0  0  0
    2.0411    3.6127   -1.6181 C   0  0  0  0  0  0  0  0  0  0  0  0
    2.6445    3.9277   -2.4820 H   0  0  0  0  0  0  0  0  0  0  0  0
    1.7508    2.2550   -1.4337 C   0  0  0  0  0  0  0  0  0  0  0  0
    2.1054    1.5161   -2.1660 H   0  0  0  0  0  0  0  0  0  0  0  0
    1.6926   -0.9017   -1.2045 C   0  0  0  0  0  0  0  0  0  0  0  0
    3.1137   -0.8256   -1.1209 C   0  0  0  0  0  0  0  0  0  0  0  0
    3.8906   -1.6982   -1.9153 C   0  0  0  0  0  0  0  0  0  0  0  0
    4.9868   -1.6262   -1.8811 H   0  0  0  0  0  0  0  0  0  0  0  0
    3.2947   -2.6370   -2.7647 C   0  0  0  0  0  0  0  0  0  0  0  0
    3.9308   -3.3057   -3.3647 H   0  0  0  0  0  0  0  0  0  0  0  0
    1.8987   -2.6935   -2.8739 C   0  0  0  0  0  0  0  0  0  0  0  0
    1.4145   -3.4024   -3.5612 H   0  0  0  0  0  0  0  0  0  0  0  0
    1.1158   -1.8214   -2.1097 C   0  0  0  0  0  0  0  0  0  0  0  0
    0.0197   -1.8219   -2.2167 H   0  0  0  0  0  0  0  0  0  0  0  0
   -2.4476   -2.9615    0.9013 C   0  0  0  0  0  0  0  0  0  0  0  0
   -3.2395   -2.8365    0.1293 H   0  0  0  0  0  0  0  0  0  0  0  0
   -3.0151   -3.6351    2.1452 C   0  0  0  0  0  0  0  0  0  0  0  0
   -3.8509   -3.0560    2.5843 H   0  0  0  0  0  0  0  0  0  0  0  0
   -2.2390   -3.7918    2.9214 H   0  0  0  0  0  0  0  0  0  0  0  0
   -3.4048   -4.6360    1.8663 H   0  0  0  0  0  0  0  0  0  0  0  0
   -1.2327   -3.6589    0.3121 C   0  0  0  0  0  0  0  0  0  0  0  0
   -0.8978   -3.1532   -0.6129 H   0  0  0  0  0  0  0  0  0  0  0  0
   -1.4959   -4.7073    0.0613 H   0  0  0  0  0  0  0  0  0  0  0  0
   -0.3859   -3.6812    1.0286 H   0  0  0  0  0  0  0  0  0  0  0  0
   -2.2354    3.3036    1.3632 C   0  0  0  0  0  0  0  0  0  0  0  0
   -1.9728    4.3675    1.5475 H   0  0  0  0  0  0  0  0  0  0  0  0
   -3.3124    2.8665    2.3568 C   0  0  0  0  0  0  0  0  0  0  0  0
   -2.9947    3.0211    3.4077 H   0  0  0  0  0  0  0  0  0  0  0  0
   -3.5577    1.7935    2.2162 H   0  0  0  0  0  0  0  0  0  0  0  0
   -4.2385    3.4517    2.1852 H   0  0  0  0  0  0  0  0  0  0  0  0
   -2.6529    3.1023   -0.0870 C   0  0  0  0  0  0  0  0  0  0  0  0
   -1.8430    3.3496   -0.7999 H   0  0  0  0  0  0  0  0  0  0  0  0
   -3.5216    3.7550   -0.3153 H   0  0  0  0  0  0  0  0  0  0  0  0
   -2.9492    2.0502   -0.2770 H   0  0  0  0  0  0  0  0  0  0  0  0
    5.4378   -0.4711    0.5178 C   0  0  0  0  0  0  0  0  0  0  0  0
    6.0711   -0.7290   -0.3573 H   0  0  0  0  0  0  0  0  0  0  0  0
    5.0863   -1.7342    1.2977 C   0  0  0  0  0  0  0  0  0  0  0  0
    4.5179   -2.4562    0.6797 H   0  0  0  0  0  0  0  0  0  0  0  0
    4.4762   -1.4948    2.1914 H   0  0  0  0  0  0  0  0  0  0  0  0
    6.0158   -2.2364    1.6398 H   0  0  0  0  0  0  0  0  0  0  0  0
    6.1800    0.5658    1.3638 C   0  0  0  0  0  0  0  0  0  0  0  0
    6.4247    1.4736    0.7776 H   0  0  0  0  0  0  0  0  0  0  0  0
    7.1281    0.1325    1.7420 H   0  0  0  0  0  0  0  0  0  0  0  0
    5.5736    0.8742    2.2404 H   0  0  0  0  0  0  0  0  0  0  0  0
  1  5  1  0  0  0  0
  2  6  1  0  0  0  0
  4 55  1  0  0  0  0
  5  6  2  0  0  0  0
  5 13  1  0  0  0  0
  6  7  1  0  0  0  0
  7  8  1  0  0  0  0
  7  9  2  0  0  0  0
  9 10  1  0  0  0  0
 11  9  1  0  0  0  0
 11 12  1  0  0  0  0
 13 11  2  0  0  0  0
 14 13  1  0  0  0  0
 15  1  1  0  0  0  0
 15 16  1  0  0  0  0
 16  3  1  0  0  0  0
 17 16  2  0  0  0  0
 17 18  1  0  0  0  0
 19 17  1  0  0  0  0
 20 19  1  0  0  0  0
 21 23  1  0  0  0  0
 21 19  2  0  0  0  0
 22 21  1  0  0  0  0
 23 15  2  0  0  0  0
 24 23  1  0  0  0  0
 25 26  1  0  0  0  0
 25  1  1  0  0  0  0
 26  4  1  0  0  0  0
 27 28  1  0  0  0  0
 27 26  2  0  0  0  0
 29 27  1  0  0  0  0
 30 29  1  0  0  0  0
 31 29  2  0  0  0  0
 31 33  1  0  0  0  0
 32 31  1  0  0  0  0
 33 25  2  0  0  0  0
 34 33  1  0  0  0  0
 35  2  1  0  0  0  0
 35 37  1  0  0  0  0
 36 35  1  0  0  0  0
 37 38  1  0  0  0  0
 37 39  1  0  0  0  0
 40 37  1  0  0  0  0
 41 35  1  0  0  0  0
 41 44  1  0  0  0  0
 42 41  1  0  0  0  0
 43 41  1  0  0  0  0
 45 46  1  0  0  0  0
 45  3  1  0  0  0  0
 45 47  1  0  0  0  0
 47 48  1  0  0  0  0
 49 47  1  0  0  0  0
 50 47  1  0  0  0  0
 51 45  1  0  0  0  0
 52 51  1  0  0  0  0
 53 51  1  0  0  0  0
 54 51  1  0  0  0  0
 55 57  1  0  0  0  0
 55 61  1  0  0  0  0
 56 55  1  0  0  0  0
 57 60  1  0  0  0  0
 57 59  1  0  0  0  0
 58 57  1  0  0  0  0
 61 63  1  0  0  0  0
 61 64  1  0  0  0  0
 62 61  1  0  0  0  0
M  END
