1,8
 OpenBabel05122313063D

 46 47  0  0  0  0  0  0  0  0999 V2000
   -1.5156    0.3361    0.7129 P   0  0  2  0  0  0  0  0  0  0  0  0
   -1.4509   -0.1520    2.5184 C   0  0  0  0  0  0  0  0  0  0  0  0
   -1.6842    0.7171    3.1683 H   0  0  0  0  0  0  0  0  0  0  0  0
   -2.2531   -0.9046    2.6644 H   0  0  0  0  0  0  0  0  0  0  0  0
   -0.0832   -0.7324    2.8596 C   0  0  0  0  0  0  0  0  0  0  0  0
   -0.0643   -1.1820    3.8726 H   0  0  0  0  0  0  0  0  0  0  0  0
    0.7107    0.0392    2.8010 H   0  0  0  0  0  0  0  0  0  0  0  0
    0.3505   -2.0859    1.6569 S   0  0  0  0  0  0  0  0  0  0  0  0
    2.1942   -1.9477    1.6447 C   0  0  0  0  0  0  0  0  0  0  0  0
    2.5094   -2.0373    2.7059 H   0  0  0  0  0  0  0  0  0  0  0  0
    2.4937   -2.8635    1.0972 H   0  0  0  0  0  0  0  0  0  0  0  0
    2.7238   -0.7005    0.9455 C   0  0  0  0  0  0  0  0  0  0  0  0
    2.4470   -0.7647   -0.1300 H   0  0  0  0  0  0  0  0  0  0  0  0
    2.2364    0.2066    1.3609 H   0  0  0  0  0  0  0  0  0  0  0  0
    4.2355   -0.5597    1.0414 C   0  0  0  0  0  0  0  0  0  0  0  0
    4.7486   -1.5010    0.7537 H   0  0  0  0  0  0  0  0  0  0  0  0
    4.6119   -0.2466    2.0387 H   0  0  0  0  0  0  0  0  0  0  0  0
    4.9041    0.6668   -0.2135 S   0  0  1  0  0  0  0  0  0  0  0  0
    4.2453    0.3141   -1.5373 O   0  0  0  0  0  0  0  0  0  0  0  0
    4.0136    2.2078    0.4434 C   0  0  0  0  0  0  0  0  0  0  0  0
    3.7839    2.0448    1.5176 H   0  0  0  0  0  0  0  0  0  0  0  0
    4.7649    3.0216    0.3792 H   0  0  0  0  0  0  0  0  0  0  0  0
    2.7737    2.5143   -0.3904 C   0  0  0  0  0  0  0  0  0  0  0  0
    2.1334    1.6117   -0.4547 H   0  0  0  0  0  0  0  0  0  0  0  0
    3.0649    2.7288   -1.4376 H   0  0  0  0  0  0  0  0  0  0  0  0
    1.9841    3.6851    0.1969 C   0  0  0  0  0  0  0  0  0  0  0  0
    2.5835    4.6194    0.1823 H   0  0  0  0  0  0  0  0  0  0  0  0
    1.7369    3.4958    1.2655 H   0  0  0  0  0  0  0  0  0  0  0  0
    0.4596    4.1330   -0.7141 S   0  0  0  0  0  0  0  0  0  0  0  0
   -0.4427    2.5400   -0.7089 C   0  0  0  0  0  0  0  0  0  0  0  0
   -1.3950    2.7571   -1.2334 H   0  0  0  0  0  0  0  0  0  0  0  0
    0.0788    1.7867   -1.3340 H   0  0  0  0  0  0  0  0  0  0  0  0
   -0.7051    2.0021    0.6953 C   0  0  0  0  0  0  0  0  0  0  0  0
   -1.3088    2.7181    1.2925 H   0  0  0  0  0  0  0  0  0  0  0  0
    0.2536    1.8497    1.2358 H   0  0  0  0  0  0  0  0  0  0  0  0
   -3.2889    0.6302    0.3806 C   0  0  0  0  0  0  0  0  0  0  0  0
   -3.9545   -0.1311   -0.6006 C   0  0  0  0  0  0  0  0  0  0  0  0
   -3.3828   -0.8543   -1.2016 H   0  0  0  0  0  0  0  0  0  0  0  0
   -5.3242    0.0738   -0.8270 C   0  0  0  0  0  0  0  0  0  0  0  0
   -5.8391   -0.5170   -1.5993 H   0  0  0  0  0  0  0  0  0  0  0  0
   -6.0318    1.0288   -0.0811 C   0  0  0  0  0  0  0  0  0  0  0  0
   -7.1057    1.1859   -0.2639 H   0  0  0  0  0  0  0  0  0  0  0  0
   -5.3694    1.7899    0.8965 C   0  0  0  0  0  0  0  0  0  0  0  0
   -5.9208    2.5420    1.4808 H   0  0  0  0  0  0  0  0  0  0  0  0
   -4.0007    1.5943    1.1271 C   0  0  0  0  0  0  0  0  0  0  0  0
   -3.4913    2.1996    1.8940 H   0  0  0  0  0  0  0  0  0  0  0  0
  1 36  1  1  0  0  0
  1  2  1  0  0  0  0
  2  4  1  0  0  0  0
  2  5  1  0  0  0  0
  2  3  1  0  0  0  0
  5  6  1  0  0  0  0
  7  5  1  0  0  0  0
  8  5  1  0  0  0  0
  9  8  1  0  0  0  0
  9 10  1  0  0  0  0
 11  9  1  0  0  0  0
 12 15  1  0  0  0  0
 12 14  1  0  0  0  0
 12  9  1  0  0  0  0
 13 12  1  0  0  0  0
 15 17  1  0  0  0  0
 16 15  1  0  0  0  0
 18 19  2  6  0  0  0
 18 20  1  0  0  0  0
 18 15  1  0  0  0  0
 20 21  1  0  0  0  0
 22 20  1  0  0  0  0
 23 26  1  0  0  0  0
 23 20  1  0  0  0  0
 24 23  1  0  0  0  0
 25 23  1  0  0  0  0
 26 28  1  0  0  0  0
 27 26  1  0  0  0  0
 29 30  1  0  0  0  0
 29 26  1  0  0  0  0
 30 33  1  0  0  0  0
 31 30  1  0  0  0  0
 32 30  1  0  0  0  0
 33  1  1  0  0  0  0
 33 35  1  0  0  0  0
 33 34  1  0  0  0  0
 36 45  1  0  0  0  0
 37 36  2  0  0  0  0
 38 37  1  0  0  0  0
 39 37  1  0  0  0  0
 39 41  2  0  0  0  0
 40 39  1  0  0  0  0
 41 43  1  0  0  0  0
 42 41  1  0  0  0  0
 43 45  2  0  0  0  0
 43 44  1  0  0  0  0
 45 46  1  0  0  0  0
M  END
