1,8
 OpenBabel05122313063D

 49 50  0  0  0  0  0  0  0  0999 V2000
    0.6190    0.1223   -0.4630 P   0  0  0  0  0  0  0  0  0  0  0  0
    0.0148    0.6116   -2.1747 C   0  0  0  0  0  0  0  0  0  0  0  0
    0.6584    1.4137   -2.5910 H   0  0  0  0  0  0  0  0  0  0  0  0
    0.1393   -0.2757   -2.8286 H   0  0  0  0  0  0  0  0  0  0  0  0
   -1.4437    1.0518   -2.1480 C   0  0  0  0  0  0  0  0  0  0  0  0
   -1.8588    1.1544   -3.1713 H   0  0  0  0  0  0  0  0  0  0  0  0
   -1.5675    2.0148   -1.6134 H   0  0  0  0  0  0  0  0  0  0  0  0
   -2.4384   -0.2066   -1.2322 S   0  0  0  0  0  0  0  0  0  0  0  0
   -3.9414    0.7546   -0.8026 C   0  0  0  0  0  0  0  0  0  0  0  0
   -4.3463    0.1709    0.0518 H   0  0  0  0  0  0  0  0  0  0  0  0
   -3.6020    1.7283   -0.3940 H   0  0  0  0  0  0  0  0  0  0  0  0
   -4.9140    0.8979   -1.9635 C   0  0  0  0  0  0  0  0  0  0  0  0
   -4.4863    1.4815   -2.8045 H   0  0  0  0  0  0  0  0  0  0  0  0
   -5.8266    1.4286   -1.6222 H   0  0  0  0  0  0  0  0  0  0  0  0
   -5.2221   -0.0922   -2.3541 H   0  0  0  0  0  0  0  0  0  0  0  0
    1.5950    1.5926    0.1498 C   0  0  0  0  0  0  0  0  0  0  0  0
    1.9759    1.2410    1.1364 H   0  0  0  0  0  0  0  0  0  0  0  0
    0.6546    2.7825    0.4176 C   0  0  0  0  0  0  0  0  0  0  0  0
    0.2128    3.1218   -0.5475 H   0  0  0  0  0  0  0  0  0  0  0  0
   -0.1920    2.4476    1.0543 H   0  0  0  0  0  0  0  0  0  0  0  0
    1.4117    3.9554    1.0540 C   0  0  0  0  0  0  0  0  0  0  0  0
    0.7229    4.8113    1.2119 H   0  0  0  0  0  0  0  0  0  0  0  0
    1.7669    3.6498    2.0634 H   0  0  0  0  0  0  0  0  0  0  0  0
    2.6121    4.3786    0.1975 C   0  0  0  0  0  0  0  0  0  0  0  0
    3.1707    5.2020    0.6892 H   0  0  0  0  0  0  0  0  0  0  0  0
    2.2432    4.7869   -0.7709 H   0  0  0  0  0  0  0  0  0  0  0  0
    3.5452    3.1936   -0.0809 C   0  0  0  0  0  0  0  0  0  0  0  0
    4.3860    3.5032   -0.7365 H   0  0  0  0  0  0  0  0  0  0  0  0
    4.0027    2.8550    0.8755 H   0  0  0  0  0  0  0  0  0  0  0  0
    2.7939    2.0118   -0.7157 C   0  0  0  0  0  0  0  0  0  0  0  0
    3.4890    1.1611   -0.8708 H   0  0  0  0  0  0  0  0  0  0  0  0
    2.4345    2.3131   -1.7256 H   0  0  0  0  0  0  0  0  0  0  0  0
    1.8932   -1.1925   -0.8498 C   0  0  0  0  0  0  0  0  0  0  0  0
    2.5119   -0.8033   -1.6921 H   0  0  0  0  0  0  0  0  0  0  0  0
    2.8125   -1.4768    0.3519 C   0  0  0  0  0  0  0  0  0  0  0  0
    3.3609   -0.5613    0.6553 H   0  0  0  0  0  0  0  0  0  0  0  0
    2.1868   -1.7711    1.2222 H   0  0  0  0  0  0  0  0  0  0  0  0
    3.8103   -2.6022    0.0415 C   0  0  0  0  0  0  0  0  0  0  0  0
    4.5036   -2.2645   -0.7620 H   0  0  0  0  0  0  0  0  0  0  0  0
    4.4395   -2.8001    0.9342 H   0  0  0  0  0  0  0  0  0  0  0  0
    3.0960   -3.8810   -0.4101 C   0  0  0  0  0  0  0  0  0  0  0  0
    2.4857   -4.2742    0.4332 H   0  0  0  0  0  0  0  0  0  0  0  0
    3.8347   -4.6714   -0.6588 H   0  0  0  0  0  0  0  0  0  0  0  0
    2.1788   -3.6062   -1.6074 C   0  0  0  0  0  0  0  0  0  0  0  0
    1.6294   -4.5259   -1.8980 H   0  0  0  0  0  0  0  0  0  0  0  0
    2.7988   -3.3202   -2.4873 H   0  0  0  0  0  0  0  0  0  0  0  0
    1.1801   -2.4820   -1.3020 C   0  0  0  0  0  0  0  0  0  0  0  0
    0.4847   -2.7935   -0.4903 H   0  0  0  0  0  0  0  0  0  0  0  0
    0.5400   -2.2896   -2.1890 H   0  0  0  0  0  0  0  0  0  0  0  0
  1 16  1  0  0  0  0
  2  5  1  0  0  0  0
  2  1  1  0  0  0  0
  3  2  1  0  0  0  0
  4  2  1  0  0  0  0
  5  7  1  0  0  0  0
  5  8  1  0  0  0  0
  6  5  1  0  0  0  0
  8  9  1  0  0  0  0
  9 11  1  0  0  0  0
  9 10  1  0  0  0  0
 12 14  1  0  0  0  0
 12  9  1  0  0  0  0
 13 12  1  0  0  0  0
 15 12  1  0  0  0  0
 16 18  1  0  0  0  0
 16 17  1  0  0  0  0
 18 21  1  0  0  0  0
 18 20  1  0  0  0  0
 19 18  1  0  0  0  0
 21 22  1  0  0  0  0
 21 23  1  0  0  0  0
 24 25  1  0  0  0  0
 24 21  1  0  0  0  0
 26 24  1  0  0  0  0
 27 24  1  0  0  0  0
 27 29  1  0  0  0  0
 28 27  1  0  0  0  0
 30 27  1  0  0  0  0
 30 16  1  0  0  0  0
 31 30  1  0  0  0  0
 32 30  1  0  0  0  0
 33  1  1  0  0  0  0
 33 35  1  0  0  0  0
 34 33  1  0  0  0  0
 35 36  1  0  0  0  0
 35 37  1  0  0  0  0
 38 35  1  0  0  0  0
 38 40  1  0  0  0  0
 39 38  1  0  0  0  0
 41 38  1  0  0  0  0
 41 42  1  0  0  0  0
 43 41  1  0  0  0  0
 44 47  1  0  0  0  0
 44 41  1  0  0  0  0
 45 44  1  0  0  0  0
 46 44  1  0  0  0  0
 47 33  1  0  0  0  0
 47 48  1  0  0  0  0
 49 47  1  0  0  0  0
M  END
