1,2
 OpenBabel05122313063D

 49 52  0  0  0  0  0  0  0  0999 V2000
    1.1709    0.0238   -0.0149 P   0  0  0  0  0  0  0  0  0  0  0  0
   -2.1315   -0.3427   -0.7387 S   0  0  0  0  0  0  0  0  0  0  0  0
   -4.0070    1.8548    0.2224 S   0  0  0  0  0  0  0  0  0  0  0  0
   -2.5583    0.8196    0.6358 C   0  0  0  0  0  0  0  0  0  0  0  0
   -2.8151    0.1881    1.5123 H   0  0  0  0  0  0  0  0  0  0  0  0
   -3.6706   -1.3374   -0.7489 C   0  0  0  0  0  0  0  0  0  0  0  0
   -3.4907   -2.0934   -1.5373 H   0  0  0  0  0  0  0  0  0  0  0  0
   -3.7149   -1.8976    0.2085 H   0  0  0  0  0  0  0  0  0  0  0  0
   -4.9158   -0.5020   -1.0371 C   0  0  0  0  0  0  0  0  0  0  0  0
   -4.8124    0.0194   -2.0122 H   0  0  0  0  0  0  0  0  0  0  0  0
   -5.7742   -1.2037   -1.1306 H   0  0  0  0  0  0  0  0  0  0  0  0
   -5.2478    0.5174    0.0528 C   0  0  0  0  0  0  0  0  0  0  0  0
   -5.3673    0.0184    1.0392 H   0  0  0  0  0  0  0  0  0  0  0  0
   -6.1966    1.0450   -0.1704 H   0  0  0  0  0  0  0  0  0  0  0  0
   -1.3341    1.6957    0.9625 C   0  0  0  0  0  0  0  0  0  0  0  0
   -1.6841    2.5395    1.5932 H   0  0  0  0  0  0  0  0  0  0  0  0
   -0.6536    1.0928    1.5945 H   0  0  0  0  0  0  0  0  0  0  0  0
   -0.6111    2.2240   -0.2603 C   0  0  0  0  0  0  0  0  0  0  0  0
   -1.0895    3.3866   -0.8942 C   0  0  0  0  0  0  0  0  0  0  0  0
   -1.9554    3.9092   -0.4593 H   0  0  0  0  0  0  0  0  0  0  0  0
   -0.4952    3.8801   -2.0637 C   0  0  0  0  0  0  0  0  0  0  0  0
   -0.8929    4.7890   -2.5396 H   0  0  0  0  0  0  0  0  0  0  0  0
    0.6034    3.2111   -2.6204 C   0  0  0  0  0  0  0  0  0  0  0  0
    1.0796    3.5880   -3.5382 H   0  0  0  0  0  0  0  0  0  0  0  0
    1.1049    2.0581   -1.9994 C   0  0  0  0  0  0  0  0  0  0  0  0
    1.9721    1.5399   -2.4337 H   0  0  0  0  0  0  0  0  0  0  0  0
    0.5138    1.5576   -0.8219 C   0  0  0  0  0  0  0  0  0  0  0  0
    1.8622    0.7074    1.5565 C   0  0  0  0  0  0  0  0  0  0  0  0
    1.7542   -0.0335    2.7508 C   0  0  0  0  0  0  0  0  0  0  0  0
    1.2523   -1.0126    2.7328 H   0  0  0  0  0  0  0  0  0  0  0  0
    2.2627    0.4879    3.9503 C   0  0  0  0  0  0  0  0  0  0  0  0
    2.1711   -0.0960    4.8785 H   0  0  0  0  0  0  0  0  0  0  0  0
    2.8758    1.7505    3.9685 C   0  0  0  0  0  0  0  0  0  0  0  0
    3.2705    2.1587    4.9114 H   0  0  0  0  0  0  0  0  0  0  0  0
    2.9728    2.4989    2.7839 C   0  0  0  0  0  0  0  0  0  0  0  0
    3.4405    3.4952    2.7961 H   0  0  0  0  0  0  0  0  0  0  0  0
    2.4642    1.9840    1.5823 C   0  0  0  0  0  0  0  0  0  0  0  0
    2.5198    2.5835    0.6607 H   0  0  0  0  0  0  0  0  0  0  0  0
    2.6341   -0.4181   -1.0415 C   0  0  0  0  0  0  0  0  0  0  0  0
    2.4009   -1.2545   -2.1538 C   0  0  0  0  0  0  0  0  0  0  0  0
    1.3811   -1.6278   -2.3417 H   0  0  0  0  0  0  0  0  0  0  0  0
    3.4602   -1.6215   -2.9947 C   0  0  0  0  0  0  0  0  0  0  0  0
    3.2690   -2.2729   -3.8608 H   0  0  0  0  0  0  0  0  0  0  0  0
    4.7635   -1.1738   -2.7213 C   0  0  0  0  0  0  0  0  0  0  0  0
    5.5972   -1.4716   -3.3752 H   0  0  0  0  0  0  0  0  0  0  0  0
    5.0027   -0.3579   -1.6049 C   0  0  0  0  0  0  0  0  0  0  0  0
    6.0244   -0.0167   -1.3789 H   0  0  0  0  0  0  0  0  0  0  0  0
    3.9426    0.0229   -0.7665 C   0  0  0  0  0  0  0  0  0  0  0  0
    4.1391    0.6565    0.1106 H   0  0  0  0  0  0  0  0  0  0  0  0
  1 28  1  0  0  0  0
  2  4  1  0  0  0  0
  3  4  1  0  0  0  0
  4 15  1  0  0  0  0
  4  5  1  0  0  0  0
  6  2  1  0  0  0  0
  6  8  1  0  0  0  0
  7  6  1  0  0  0  0
  9  6  1  0  0  0  0
  9 12  1  0  0  0  0
 10  9  1  0  0  0  0
 11  9  1  0  0  0  0
 12  3  1  0  0  0  0
 12 13  1  0  0  0  0
 14 12  1  0  0  0  0
 15 16  1  0  0  0  0
 15 17  1  0  0  0  0
 18 15  1  0  0  0  0
 19 20  1  0  0  0  0
 19 18  2  0  0  0  0
 21 19  1  0  0  0  0
 22 21  1  0  0  0  0
 23 21  2  0  0  0  0
 23 25  1  0  0  0  0
 24 23  1  0  0  0  0
 25 27  2  0  0  0  0
 26 25  1  0  0  0  0
 27 18  1  0  0  0  0
 27  1  1  0  0  0  0
 28 37  2  0  0  0  0
 28 29  1  0  0  0  0
 29 31  2  0  0  0  0
 30 29  1  0  0  0  0
 31 33  1  0  0  0  0
 31 32  1  0  0  0  0
 33 34  1  0  0  0  0
 35 36  1  0  0  0  0
 35 33  2  0  0  0  0
 37 35  1  0  0  0  0
 38 37  1  0  0  0  0
 39 48  1  0  0  0  0
 39  1  1  0  0  0  0
 40 39  2  0  0  0  0
 41 40  1  0  0  0  0
 42 44  2  0  0  0  0
 42 40  1  0  0  0  0
 43 42  1  0  0  0  0
 44 46  1  0  0  0  0
 45 44  1  0  0  0  0
 46 47  1  0  0  0  0
 46 48  2  0  0  0  0
 48 49  1  0  0  0  0
M  END
