1,2
 OpenBabel05122313063D

 48 51  0  0  0  0  0  0  0  0999 V2000
   -1.9174   -1.1007   -1.1326 S   0  0  0  0  0  0  0  0  0  0  0  0
    1.0918    0.1030    0.0215 P   0  0  0  0  0  0  0  0  0  0  0  0
    1.6919    0.7752    2.6584 C   0  0  0  0  0  0  0  0  0  0  0  0
    0.6629    0.4314    2.8490 H   0  0  0  0  0  0  0  0  0  0  0  0
    2.4856    1.2554    3.7082 C   0  0  0  0  0  0  0  0  0  0  0  0
    2.0735    1.3013    4.7276 H   0  0  0  0  0  0  0  0  0  0  0  0
    3.8087    1.6601    3.4623 C   0  0  0  0  0  0  0  0  0  0  0  0
    4.4353    2.0267    4.2894 H   0  0  0  0  0  0  0  0  0  0  0  0
    4.3332    1.5848    2.1631 C   0  0  0  0  0  0  0  0  0  0  0  0
    5.3721    1.8912    1.9682 H   0  0  0  0  0  0  0  0  0  0  0  0
    3.5376    1.1156    1.1052 C   0  0  0  0  0  0  0  0  0  0  0  0
    3.9535    1.0573    0.0885 H   0  0  0  0  0  0  0  0  0  0  0  0
    2.2105    0.7140    1.3474 C   0  0  0  0  0  0  0  0  0  0  0  0
    2.6173   -1.4564   -1.7342 C   0  0  0  0  0  0  0  0  0  0  0  0
    2.2706   -2.2917   -1.1048 H   0  0  0  0  0  0  0  0  0  0  0  0
    2.1866   -0.1465   -1.4379 C   0  0  0  0  0  0  0  0  0  0  0  0
    2.5960    0.9276   -2.2554 C   0  0  0  0  0  0  0  0  0  0  0  0
    2.2480    1.9485   -2.0339 H   0  0  0  0  0  0  0  0  0  0  0  0
    3.4353    0.6913   -3.3548 C   0  0  0  0  0  0  0  0  0  0  0  0
    3.7490    1.5310   -3.9935 H   0  0  0  0  0  0  0  0  0  0  0  0
    3.8704   -0.6132   -3.6416 C   0  0  0  0  0  0  0  0  0  0  0  0
    4.5258   -0.7961   -4.5067 H   0  0  0  0  0  0  0  0  0  0  0  0
    3.4616   -1.6848   -2.8311 C   0  0  0  0  0  0  0  0  0  0  0  0
    3.7936   -2.7089   -3.0592 H   0  0  0  0  0  0  0  0  0  0  0  0
    0.1071    1.6043   -0.4241 C   0  0  0  0  0  0  0  0  0  0  0  0
    0.2788    2.8152    0.2754 C   0  0  0  0  0  0  0  0  0  0  0  0
    1.0608    2.8904    1.0443 H   0  0  0  0  0  0  0  0  0  0  0  0
   -0.5379    3.9249    0.0095 C   0  0  0  0  0  0  0  0  0  0  0  0
   -0.3870    4.8596    0.5702 H   0  0  0  0  0  0  0  0  0  0  0  0
   -1.5416    3.8343   -0.9635 C   0  0  0  0  0  0  0  0  0  0  0  0
   -2.1962    4.6937   -1.1718 H   0  0  0  0  0  0  0  0  0  0  0  0
   -1.7123    2.6373   -1.6724 C   0  0  0  0  0  0  0  0  0  0  0  0
   -2.5043    2.5589   -2.4332 H   0  0  0  0  0  0  0  0  0  0  0  0
   -0.8984    1.5146   -1.4276 C   0  0  0  0  0  0  0  0  0  0  0  0
   -1.1703    0.2498   -2.1864 C   0  0  0  0  0  0  0  0  0  0  0  0
   -0.2524   -0.2263   -2.5870 H   0  0  0  0  0  0  0  0  0  0  0  0
   -1.8644    0.4357   -3.0283 H   0  0  0  0  0  0  0  0  0  0  0  0
   -3.2034   -0.1447   -0.3195 C   0  0  0  0  0  0  0  0  0  0  0  0
   -4.4162    0.0762   -0.9963 C   0  0  0  0  0  0  0  0  0  0  0  0
   -4.5745   -0.3652   -1.9921 H   0  0  0  0  0  0  0  0  0  0  0  0
   -5.4150    0.8533   -0.3908 C   0  0  0  0  0  0  0  0  0  0  0  0
   -6.3653    1.0277   -0.9178 H   0  0  0  0  0  0  0  0  0  0  0  0
   -5.2074    1.3942    0.8886 C   0  0  0  0  0  0  0  0  0  0  0  0
   -5.9949    1.9986    1.3637 H   0  0  0  0  0  0  0  0  0  0  0  0
   -4.0009    1.1554    1.5657 C   0  0  0  0  0  0  0  0  0  0  0  0
   -3.8396    1.5707    2.5719 H   0  0  0  0  0  0  0  0  0  0  0  0
   -2.9943    0.3855    0.9653 C   0  0  0  0  0  0  0  0  0  0  0  0
   -2.0419    0.1833    1.4795 H   0  0  0  0  0  0  0  0  0  0  0  0
  1 38  1  0  0  0  0
  2 13  1  0  0  0  0
  3  4  1  0  0  0  0
  3  5  1  0  0  0  0
  5  6  1  0  0  0  0
  7  5  2  0  0  0  0
  7  8  1  0  0  0  0
  9  7  1  0  0  0  0
 10  9  1  0  0  0  0
 11 13  1  0  0  0  0
 11  9  2  0  0  0  0
 12 11  1  0  0  0  0
 13  3  2  0  0  0  0
 14 16  1  0  0  0  0
 14 15  1  0  0  0  0
 16  2  1  0  0  0  0
 17 18  1  0  0  0  0
 17 16  2  0  0  0  0
 19 17  1  0  0  0  0
 20 19  1  0  0  0  0
 21 19  2  0  0  0  0
 21 23  1  0  0  0  0
 22 21  1  0  0  0  0
 23 14  2  0  0  0  0
 24 23  1  0  0  0  0
 25  2  1  0  0  0  0
 25 26  1  0  0  0  0
 26 27  1  0  0  0  0
 28 26  2  0  0  0  0
 28 29  1  0  0  0  0
 30 28  1  0  0  0  0
 31 30  1  0  0  0  0
 32 34  1  0  0  0  0
 32 30  2  0  0  0  0
 33 32  1  0  0  0  0
 34 25  2  0  0  0  0
 35 34  1  0  0  0  0
 35  1  1  0  0  0  0
 36 35  1  0  0  0  0
 37 35  1  0  0  0  0
 38 47  1  0  0  0  0
 39 41  1  0  0  0  0
 39 38  2  0  0  0  0
 40 39  1  0  0  0  0
 41 43  2  0  0  0  0
 42 41  1  0  0  0  0
 43 44  1  0  0  0  0
 43 45  1  0  0  0  0
 45 46  1  0  0  0  0
 47 48  1  0  0  0  0
 47 45  2  0  0  0  0
M  END
