1,2
 OpenBabel05122313063D

 44 46  0  0  1  0  0  0  0  0999 V2000
   -0.7979    0.2299    0.4227 P   0  0  0  0  0  0  0  0  0  0  0  0
    2.5266   -0.4776    0.8421 S   0  0  0  0  0  0  0  0  0  0  0  0
   -0.4729    0.6669    2.1695 C   0  0  1  0  0  0  0  0  0  0  0  0
   -1.2943    1.2482    2.6219 H   0  0  0  0  0  0  0  0  0  0  0  0
    0.2229   -0.3478    3.0589 C   0  0  0  0  0  0  0  0  0  0  0  0
   -0.1526   -0.4795    4.0846 H   0  0  0  0  0  0  0  0  0  0  0  0
    0.5688   -1.2763    2.5731 H   0  0  0  0  0  0  0  0  0  0  0  0
    0.9208    0.9386    2.6994 C   0  0  1  0  0  0  0  0  0  0  0  0
    0.9357    1.6971    3.5019 H   0  0  0  0  0  0  0  0  0  0  0  0
    2.1731    1.0560    1.8391 C   0  0  1  0  0  0  0  0  0  0  0  0
    2.0227    1.8753    1.1051 H   0  0  0  0  0  0  0  0  0  0  0  0
    3.3956    1.3420    2.7152 C   0  0  0  0  0  0  0  0  0  0  0  0
    3.2441    2.2869    3.2773 H   0  0  0  0  0  0  0  0  0  0  0  0
    4.3210    1.4556    2.1182 H   0  0  0  0  0  0  0  0  0  0  0  0
    3.5526    0.5249    3.4471 H   0  0  0  0  0  0  0  0  0  0  0  0
    3.5979    0.2616   -0.4708 C   0  0  0  0  0  0  0  0  0  0  0  0
    4.4516    0.7305    0.0597 H   0  0  0  0  0  0  0  0  0  0  0  0
    3.9506   -0.6529   -0.9878 H   0  0  0  0  0  0  0  0  0  0  0  0
    2.9028    1.2073   -1.4373 C   0  0  0  0  0  0  0  0  0  0  0  0
    2.1117    0.6721   -1.9999 H   0  0  0  0  0  0  0  0  0  0  0  0
    3.6452    1.5943   -2.1652 H   0  0  0  0  0  0  0  0  0  0  0  0
    2.4382    2.0821   -0.9387 H   0  0  0  0  0  0  0  0  0  0  0  0
   -0.7946    1.8148   -0.4944 C   0  0  0  0  0  0  0  0  0  0  0  0
   -0.5542    3.0534    0.1338 C   0  0  0  0  0  0  0  0  0  0  0  0
   -0.4156    3.1053    1.2238 H   0  0  0  0  0  0  0  0  0  0  0  0
   -0.4881    4.2279   -0.6338 C   0  0  0  0  0  0  0  0  0  0  0  0
   -0.2983    5.1930   -0.1397 H   0  0  0  0  0  0  0  0  0  0  0  0
   -0.6661    4.1710   -2.0245 C   0  0  0  0  0  0  0  0  0  0  0  0
   -0.6123    5.0925   -2.6239 H   0  0  0  0  0  0  0  0  0  0  0  0
   -0.9092    2.9363   -2.6513 C   0  0  0  0  0  0  0  0  0  0  0  0
   -1.0440    2.8880   -3.7424 H   0  0  0  0  0  0  0  0  0  0  0  0
   -0.9680    1.7582   -1.8955 C   0  0  0  0  0  0  0  0  0  0  0  0
   -1.1287    0.7788   -2.3777 H   0  0  0  0  0  0  0  0  0  0  0  0
   -2.5446   -0.3112    0.5181 C   0  0  0  0  0  0  0  0  0  0  0  0
   -3.5996    0.6066    0.3588 C   0  0  0  0  0  0  0  0  0  0  0  0
   -3.3856    1.6535    0.0939 H   0  0  0  0  0  0  0  0  0  0  0  0
   -4.9264    0.1788    0.5245 C   0  0  0  0  0  0  0  0  0  0  0  0
   -5.7511    0.8952    0.3906 H   0  0  0  0  0  0  0  0  0  0  0  0
   -5.1992   -1.1579    0.8530 C   0  0  0  0  0  0  0  0  0  0  0  0
   -6.2404   -1.4921    0.9777 H   0  0  0  0  0  0  0  0  0  0  0  0
   -4.1444   -2.0729    1.0109 C   0  0  0  0  0  0  0  0  0  0  0  0
   -4.3570   -3.1249    1.2536 H   0  0  0  0  0  0  0  0  0  0  0  0
   -2.8182   -1.6563    0.8379 C   0  0  0  0  0  0  0  0  0  0  0  0
   -1.9898   -2.3752    0.9246 H   0  0  0  0  0  0  0  0  0  0  0  0
  1 34  1  0  0  0  0
  1  3  1  0  0  0  0
  2 10  1  0  0  0  0
  3  4  1  1  0  0  0
  3  8  1  0  0  0  0
  3  5  1  0  0  0  0
  5  6  1  0  0  0  0
  7  5  1  0  0  0  0
  8  5  1  0  0  0  0
  8  9  1  1  0  0  0
 10 11  1  6  0  0  0
 10  8  1  0  0  0  0
 10 12  1  0  0  0  0
 12 13  1  0  0  0  0
 12 15  1  0  0  0  0
 14 12  1  0  0  0  0
 16 17  1  0  0  0  0
 16  2  1  0  0  0  0
 18 16  1  0  0  0  0
 19 22  1  0  0  0  0
 19 16  1  0  0  0  0
 20 19  1  0  0  0  0
 21 19  1  0  0  0  0
 23 24  1  0  0  0  0
 23  1  1  0  0  0  0
 24 25  1  0  0  0  0
 26 27  1  0  0  0  0
 26 24  2  0  0  0  0
 28 26  1  0  0  0  0
 29 28  1  0  0  0  0
 30 28  2  0  0  0  0
 30 32  1  0  0  0  0
 31 30  1  0  0  0  0
 32 23  2  0  0  0  0
 33 32  1  0  0  0  0
 34 43  1  0  0  0  0
 35 34  2  0  0  0  0
 35 37  1  0  0  0  0
 36 35  1  0  0  0  0
 37 39  2  0  0  0  0
 38 37  1  0  0  0  0
 39 40  1  0  0  0  0
 39 41  1  0  0  0  0
 41 42  1  0  0  0  0
 43 44  1  0  0  0  0
 43 41  2  0  0  0  0
M  END
