1,2
 OpenBabel05122313063D

 34 33  0  0  0  0  0  0  0  0999 V2000
    2.9545   -0.1377    0.3150 P   0  0  0  0  0  0  0  0  0  0  0  0
    0.4969   -2.0855    0.9051 S   0  0  0  0  0  1  0  0  0  0  0  0
    3.2761   -1.7034    1.2751 C   0  0  0  0  0  0  0  0  0  0  0  0
    4.3130   -2.0709    1.1266 H   0  0  0  0  0  0  0  0  0  0  0  0
    3.1679   -1.4057    2.3363 H   0  0  0  0  0  0  0  0  0  0  0  0
    2.2357   -2.7633    0.9474 C   0  0  0  0  0  0  0  0  0  0  0  0
    2.2373   -3.5604    1.7182 H   0  0  0  0  0  0  0  0  0  0  0  0
    2.4486   -3.2520   -0.0266 H   0  0  0  0  0  0  0  0  0  0  0  0
    4.0958    1.1625    1.1270 C   0  0  0  0  0  0  0  0  0  0  0  0
    3.8398    1.1119    2.6466 C   0  0  0  0  0  0  0  0  0  0  0  0
    4.3546    1.9758    3.1167 H   0  0  0  0  0  0  0  0  0  0  0  0
    4.2463    0.1945    3.1155 H   0  0  0  0  0  0  0  0  0  0  0  0
    2.7605    1.1900    2.8861 H   0  0  0  0  0  0  0  0  0  0  0  0
    5.5839    0.8821    0.8597 C   0  0  0  0  0  0  0  0  0  0  0  0
    6.1964    1.6185    1.4224 H   0  0  0  0  0  0  0  0  0  0  0  0
    5.8506    0.9823   -0.2094 H   0  0  0  0  0  0  0  0  0  0  0  0
    5.8874   -0.1274    1.2036 H   0  0  0  0  0  0  0  0  0  0  0  0
    3.6919    2.5596    0.6214 C   0  0  0  0  0  0  0  0  0  0  0  0
    4.2942    3.3218    1.1596 H   0  0  0  0  0  0  0  0  0  0  0  0
    2.6197    2.7566    0.8131 H   0  0  0  0  0  0  0  0  0  0  0  0
    3.8656    2.6917   -0.4610 H   0  0  0  0  0  0  0  0  0  0  0  0
    3.4567   -0.5320   -1.4955 C   0  0  0  0  0  0  0  0  0  0  0  0
    3.8026    0.7591   -2.2587 C   0  0  0  0  0  0  0  0  0  0  0  0
    3.9542    0.5016   -3.3285 H   0  0  0  0  0  0  0  0  0  0  0  0
    4.7366    1.2317   -1.8994 H   0  0  0  0  0  0  0  0  0  0  0  0
    2.9730    1.4906   -2.1979 H   0  0  0  0  0  0  0  0  0  0  0  0
    2.2279   -1.1695   -2.1814 C   0  0  0  0  0  0  0  0  0  0  0  0
    2.5122   -1.4650   -3.2139 H   0  0  0  0  0  0  0  0  0  0  0  0
    1.3922   -0.4464   -2.2569 H   0  0  0  0  0  0  0  0  0  0  0  0
    1.8530   -2.0678   -1.6568 H   0  0  0  0  0  0  0  0  0  0  0  0
    4.6404   -1.5133   -1.5462 C   0  0  0  0  0  0  0  0  0  0  0  0
    4.9219   -1.6750   -2.6085 H   0  0  0  0  0  0  0  0  0  0  0  0
    4.3823   -2.5043   -1.1241 H   0  0  0  0  0  0  0  0  0  0  0  0
    5.5371   -1.1331   -1.0207 H   0  0  0  0  0  0  0  0  0  0  0  0
  1  9  1  0  0  0  0
  1  3  1  0  0  0  0
  2  6  1  0  0  0  0
  3  5  1  0  0  0  0
  4  3  1  0  0  0  0
  6  3  1  0  0  0  0
  6  7  1  0  0  0  0
  8  6  1  0  0  0  0
  9 10  1  0  0  0  0
 10 13  1  0  0  0  0
 10 12  1  0  0  0  0
 10 11  1  0  0  0  0
 14  9  1  0  0  0  0
 14 17  1  0  0  0  0
 14 15  1  0  0  0  0
 16 14  1  0  0  0  0
 18 20  1  0  0  0  0
 18  9  1  0  0  0  0
 18 19  1  0  0  0  0
 21 18  1  0  0  0  0
 22  1  1  0  0  0  0
 23 26  1  0  0  0  0
 23 25  1  0  0  0  0
 23 22  1  0  0  0  0
 24 23  1  0  0  0  0
 27 30  1  0  0  0  0
 27 22  1  0  0  0  0
 28 27  1  0  0  0  0
 29 27  1  0  0  0  0
 31 22  1  0  0  0  0
 31 33  1  0  0  0  0
 31 34  1  0  0  0  0
 32 31  1  0  0  0  0
M  END
