2,4
 OpenBabel05122313063D

 42 45  0  0  0  0  0  0  0  0999 V2000
    0.6805   -0.3577    2.8360 Cl  0  0  0  0  0  0  0  0  0  0  0  0
   -1.0889    0.1159   -2.2508 S   0  0  0  0  0  1  0  0  0  0  0  0
   -0.5114    1.4390   -0.8776 P   0  0  2  0  0  4  0  0  0  0  0  0
    0.6850   -0.6673    0.7371 P   0  0  1  0  0  0  0  0  0  0  0  0
    0.3746    2.8041   -1.4334 N   0  0  0  0  0  0  0  0  0  0  0  0
    0.7961    0.9696    0.1536 N   0  0  0  0  0  0  0  0  0  0  0  0
   -0.1331    3.7391   -2.4153 C   0  0  0  0  0  0  0  0  0  0  0  0
    1.6114    2.9497   -0.7930 C   0  0  0  0  0  0  0  0  0  0  0  0
    2.5508    3.9727   -0.9768 C   0  0  0  0  0  0  0  0  0  0  0  0
    3.7357    3.9436   -0.2149 C   0  0  0  0  0  0  0  0  0  0  0  0
    3.9726    2.9191    0.7128 C   0  0  0  0  0  0  0  0  0  0  0  0
    3.0324    1.8860    0.9003 C   0  0  0  0  0  0  0  0  0  0  0  0
    1.8627    1.9057    0.1385 C   0  0  0  0  0  0  0  0  0  0  0  0
    2.3897   -1.2798    0.4629 C   0  0  0  0  0  0  0  0  0  0  0  0
    3.1326   -1.9626    1.4421 C   0  0  0  0  0  0  0  0  0  0  0  0
    4.3844   -2.5035    1.1106 C   0  0  0  0  0  0  0  0  0  0  0  0
    4.8937   -2.3626   -0.1895 C   0  0  0  0  0  0  0  0  0  0  0  0
    4.1473   -1.6843   -1.1674 C   0  0  0  0  0  0  0  0  0  0  0  0
    2.8937   -1.1476   -0.8485 C   0  0  0  0  0  0  0  0  0  0  0  0
   -1.8760    2.0560    0.1441 C   0  0  0  0  0  0  0  0  0  0  0  0
   -1.5981    2.5470    1.4365 C   0  0  0  0  0  0  0  0  0  0  0  0
   -2.6432    3.0657    2.2122 C   0  0  0  0  0  0  0  0  0  0  0  0
   -3.9511    3.1033    1.7016 C   0  0  0  0  0  0  0  0  0  0  0  0
   -4.2220    2.6136    0.4134 C   0  0  0  0  0  0  0  0  0  0  0  0
   -3.1875    2.0854   -0.3693 C   0  0  0  0  0  0  0  0  0  0  0  0
    0.5661    3.8328   -3.2733 H   0  0  0  0  0  0  0  0  0  0  0  0
   -1.1006    3.3701   -2.8071 H   0  0  0  0  0  0  0  0  0  0  0  0
   -0.2938    4.7467   -1.9742 H   0  0  0  0  0  0  0  0  0  0  0  0
    2.3638    4.7822   -1.6961 H   0  0  0  0  0  0  0  0  0  0  0  0
    4.4780    4.7443   -0.3487 H   0  0  0  0  0  0  0  0  0  0  0  0
    4.8974    2.9174    1.3077 H   0  0  0  0  0  0  0  0  0  0  0  0
    3.2030    1.0854    1.6312 H   0  0  0  0  0  0  0  0  0  0  0  0
    2.7328   -2.0611    2.4618 H   0  0  0  0  0  0  0  0  0  0  0  0
    4.9652   -3.0385    1.8771 H   0  0  0  0  0  0  0  0  0  0  0  0
    5.8768   -2.7863   -0.4444 H   0  0  0  0  0  0  0  0  0  0  0  0
    4.5418   -1.5744   -2.1885 H   0  0  0  0  0  0  0  0  0  0  0  0
    2.3016   -0.6267   -1.6175 H   0  0  0  0  0  0  0  0  0  0  0  0
   -0.5781    2.4874    1.8443 H   0  0  0  0  0  0  0  0  0  0  0  0
   -2.4362    3.4318    3.2289 H   0  0  0  0  0  0  0  0  0  0  0  0
   -4.7688    3.5049    2.3189 H   0  0  0  0  0  0  0  0  0  0  0  0
   -5.2498    2.6284    0.0212 H   0  0  0  0  0  0  0  0  0  0  0  0
   -3.3867    1.6608   -1.3654 H   0  0  0  0  0  0  0  0  0  0  0  0
  3  2  1  6  0  0  0
  3 20  1  0  0  0  0
  3  6  1  0  0  0  0
  4  1  1  1  0  0  0
  5  3  1  0  0  0  0
  5  8  1  0  0  0  0
  6  4  1  0  0  0  0
  7 28  1  0  0  0  0
  7  5  1  0  0  0  0
  8 13  1  0  0  0  0
  9  8  2  0  0  0  0
  9 10  1  0  0  0  0
 10 11  2  0  0  0  0
 11 12  1  0  0  0  0
 11 31  1  0  0  0  0
 12 32  1  0  0  0  0
 13  6  1  0  0  0  0
 13 12  2  0  0  0  0
 14  4  1  0  0  0  0
 14 15  1  0  0  0  0
 15 33  1  0  0  0  0
 16 15  2  0  0  0  0
 16 34  1  0  0  0  0
 17 16  1  0  0  0  0
 18 19  1  0  0  0  0
 18 17  2  0  0  0  0
 19 14  2  0  0  0  0
 20 21  1  0  0  0  0
 21 38  1  0  0  0  0
 21 22  2  0  0  0  0
 22 39  1  0  0  0  0
 23 22  1  0  0  0  0
 23 40  1  0  0  0  0
 24 23  2  0  0  0  0
 25 20  2  0  0  0  0
 25 24  1  0  0  0  0
 26  7  1  0  0  0  0
 27  7  1  0  0  0  0
 29  9  1  0  0  0  0
 30 10  1  0  0  0  0
 35 17  1  0  0  0  0
 36 18  1  0  0  0  0
 37 19  1  0  0  0  0
 41 24  1  0  0  0  0
 42 25  1  0  0  0  0
M  END
