1,42
 OpenBabel05122313063D

 42 44  0  0  1  0  0  0  0  0999 V2000
    1.1018    0.9218   -0.0282 P   0  0  1  0  0  0  0  0  0  0  0  0
    0.3241    2.3421    0.8060 C   0  0  0  0  0  0  0  0  0  0  0  0
    0.1766    3.6128    0.2158 C   0  0  0  0  0  0  0  0  0  0  0  0
    0.5598    3.8055   -0.7957 H   0  0  0  0  0  0  0  0  0  0  0  0
   -0.4760    4.6369    0.9170 C   0  0  0  0  0  0  0  0  0  0  0  0
   -0.5967    5.6254    0.4494 H   0  0  0  0  0  0  0  0  0  0  0  0
   -0.9760    4.4024    2.2076 C   0  0  0  0  0  0  0  0  0  0  0  0
   -1.4879    5.2087    2.7536 H   0  0  0  0  0  0  0  0  0  0  0  0
   -0.8325    3.1363    2.7978 C   0  0  0  0  0  0  0  0  0  0  0  0
   -1.2307    2.9474    3.8057 H   0  0  0  0  0  0  0  0  0  0  0  0
   -0.1942    2.1045    2.0965 C   0  0  0  0  0  0  0  0  0  0  0  0
   -0.1092    1.1020    2.5458 H   0  0  0  0  0  0  0  0  0  0  0  0
    1.9586    1.4318   -1.6217 C   0  0  1  0  0  0  0  0  0  0  0  0
    1.3068    1.6985   -2.4734 H   0  0  0  0  0  0  0  0  0  0  0  0
    2.9010    2.5271   -1.1329 C   0  0  0  0  0  0  0  0  0  0  0  0
    3.4100    2.2011    0.0911 C   0  0  0  0  0  0  0  0  0  0  0  0
    2.8922    0.8367    0.5297 C   0  0  2  0  0  0  0  0  0  0  0  0
    3.0674    0.5683    1.5864 H   0  0  0  0  0  0  0  0  0  0  0  0
    3.4866   -0.1943   -0.4993 C   0  0  2  0  0  0  0  0  0  0  0  0
    4.5579    0.0607   -0.5770 H   0  0  0  0  0  0  0  0  0  0  0  0
    2.7882    0.1353   -1.8687 C   0  0  0  0  0  0  0  0  0  0  0  0
    3.5367    0.3064   -2.6670 H   0  0  0  0  0  0  0  0  0  0  0  0
    2.1288   -0.6960   -2.1885 H   0  0  0  0  0  0  0  0  0  0  0  0
    3.2103    3.7116   -1.9897 C   0  0  0  0  0  0  0  0  0  0  0  0
    2.2881    4.2694   -2.2609 H   0  0  0  0  0  0  0  0  0  0  0  0
    3.6732    3.3990   -2.9508 H   0  0  0  0  0  0  0  0  0  0  0  0
    3.9015    4.4190   -1.4947 H   0  0  0  0  0  0  0  0  0  0  0  0
    4.3797    2.9553    0.9398 C   0  0  0  0  0  0  0  0  0  0  0  0
    5.2932    2.3568    1.1477 H   0  0  0  0  0  0  0  0  0  0  0  0
    3.9292    3.1924    1.9275 H   0  0  0  0  0  0  0  0  0  0  0  0
    4.6963    3.9065    0.4726 H   0  0  0  0  0  0  0  0  0  0  0  0
    3.3766   -1.6438   -0.0789 C   0  0  1  0  0  3  0  0  0  0  0  0
    4.4730   -2.4235   -0.1676 N   0  0  0  0  0  0  0  0  0  0  0  0
    5.7434   -1.9490   -0.7309 C   0  0  0  0  0  0  0  0  0  0  0  0
    6.3819   -2.8241   -0.9409 H   0  0  0  0  0  0  0  0  0  0  0  0
    6.2872   -1.2877   -0.0240 H   0  0  0  0  0  0  0  0  0  0  0  0
    5.5872   -1.4105   -1.6842 H   0  0  0  0  0  0  0  0  0  0  0  0
    4.4152   -3.8083    0.3056 C   0  0  0  0  0  0  0  0  0  0  0  0
    5.4092   -4.2739    0.1955 H   0  0  0  0  0  0  0  0  0  0  0  0
    3.6639   -4.3835   -0.2745 H   0  0  0  0  0  0  0  0  0  0  0  0
    4.1044   -3.8408    1.3695 H   0  0  0  0  0  0  0  0  0  0  0  0
    1.9373   -2.3259    0.5314 S   0  0  0  0  0  1  0  0  0  0  0  0
  1 17  1  0  0  0  0
  1  2  1  1  0  0  0
  2 11  1  0  0  0  0
  3  2  2  0  0  0  0
  3  5  1  0  0  0  0
  4  3  1  0  0  0  0
  5  7  2  0  0  0  0
  6  5  1  0  0  0  0
  7  8  1  0  0  0  0
  7  9  1  0  0  0  0
  9 10  1  0  0  0  0
 11 12  1  0  0  0  0
 11  9  2  0  0  0  0
 13 14  1  6  0  0  0
 13 15  1  0  0  0  0
 13  1  1  0  0  0  0
 15 16  2  0  0  0  0
 16 17  1  0  0  0  0
 16 28  1  0  0  0  0
 17 18  1  1  0  0  0
 19 20  1  6  0  0  0
 19 32  1  0  0  0  0
 19 17  1  0  0  0  0
 21 13  1  0  0  0  0
 21 19  1  0  0  0  0
 22 21  1  0  0  0  0
 23 21  1  0  0  0  0
 24 27  1  0  0  0  0
 24 15  1  0  0  0  0
 25 24  1  0  0  0  0
 26 24  1  0  0  0  0
 28 29  1  0  0  0  0
 28 30  1  0  0  0  0
 31 28  1  0  0  0  0
 32 42  1  1  0  0  0
 33 32  1  0  0  0  0
 33 38  1  0  0  0  0
 34 33  1  0  0  0  0
 34 36  1  0  0  0  0
 35 34  1  0  0  0  0
 37 34  1  0  0  0  0
 38 41  1  0  0  0  0
 39 38  1  0  0  0  0
 40 38  1  0  0  0  0
M  END
