1,2
 OpenBabel05122313063D

 43 46  0  0  1  0  0  0  0  0999 V2000
   -0.9912   -0.1074   -0.2948 P   0  0  1  0  0  0  0  0  0  0  0  0
    1.9700    0.3886   -1.1901 S   0  0  0  0  0  0  0  0  0  0  0  0
   -3.2829   -1.3566    0.6761 C   0  0  0  0  0  0  0  0  0  0  0  0
   -4.3538   -1.5194    1.5662 C   0  0  0  0  0  0  0  0  0  0  0  0
   -4.5209   -0.6350    2.6439 C   0  0  0  0  0  0  0  0  0  0  0  0
   -3.6108    0.4164    2.8380 C   0  0  0  0  0  0  0  0  0  0  0  0
   -2.5406    0.5918    1.9492 C   0  0  0  0  0  0  0  0  0  0  0  0
   -2.3816   -0.2863    0.8582 C   0  0  0  0  0  0  0  0  0  0  0  0
   -1.6545    0.5012   -1.9600 C   0  0  1  0  0  0  0  0  0  0  0  0
   -2.3622    1.7878   -1.5622 C   0  0  0  0  0  0  0  0  0  0  0  0
   -1.6239    2.4679   -0.6376 C   0  0  0  0  0  0  0  0  0  0  0  0
   -0.3779    1.6763   -0.2693 C   0  0  2  0  0  0  0  0  0  0  0  0
    0.5495    1.5560   -1.5122 C   0  0  2  0  0  0  0  0  0  0  0  0
   -0.3109    0.9027   -2.6404 C   0  0  0  0  0  0  0  0  0  0  0  0
   -3.6572    2.1749   -2.1964 C   0  0  0  0  0  0  0  0  0  0  0  0
   -1.8882    3.8058   -0.0259 C   0  0  0  0  0  0  0  0  0  0  0  0
    2.9435    2.5176    0.3446 C   0  0  0  0  0  0  0  0  0  0  0  0
    3.5973    3.0576    1.4625 C   0  0  0  0  0  0  0  0  0  0  0  0
    4.0778    2.2146    2.4770 C   0  0  0  0  0  0  0  0  0  0  0  0
    3.9072    0.8253    2.3687 C   0  0  0  0  0  0  0  0  0  0  0  0
    3.2437    0.2695    1.2649 C   0  0  0  0  0  0  0  0  0  0  0  0
    2.7535    1.1252    0.2617 C   0  0  0  0  0  0  0  0  0  0  0  0
   -3.1225   -2.0759   -0.1397 H   0  0  0  0  0  0  0  0  0  0  0  0
   -5.0555   -2.3548    1.4235 H   0  0  0  0  0  0  0  0  0  0  0  0
   -5.3595   -0.7720    3.3433 H   0  0  0  0  0  0  0  0  0  0  0  0
   -3.7322    1.1041    3.6885 H   0  0  0  0  0  0  0  0  0  0  0  0
   -1.8254    1.4116    2.1119 H   0  0  0  0  0  0  0  0  0  0  0  0
   -2.2535   -0.2250   -2.5375 H   0  0  0  0  0  0  0  0  0  0  0  0
    0.1581    2.0085    0.6380 H   0  0  0  0  0  0  0  0  0  0  0  0
    0.9745    2.5329   -1.8097 H   0  0  0  0  0  0  0  0  0  0  0  0
   -0.5023    1.6269   -3.4561 H   0  0  0  0  0  0  0  0  0  0  0  0
    0.1997    0.0234   -3.0842 H   0  0  0  0  0  0  0  0  0  0  0  0
   -4.4355    1.4108   -1.9816 H   0  0  0  0  0  0  0  0  0  0  0  0
   -3.5672    2.2282   -3.3031 H   0  0  0  0  0  0  0  0  0  0  0  0
   -4.0299    3.1521   -1.8350 H   0  0  0  0  0  0  0  0  0  0  0  0
   -2.8193    4.2651   -0.4087 H   0  0  0  0  0  0  0  0  0  0  0  0
   -1.0528    4.5122   -0.2232 H   0  0  0  0  0  0  0  0  0  0  0  0
   -1.9777    3.7292    1.0796 H   0  0  0  0  0  0  0  0  0  0  0  0
    2.5900    3.1857   -0.4543 H   0  0  0  0  0  0  0  0  0  0  0  0
    3.7375    4.1469    1.5334 H   0  0  0  0  0  0  0  0  0  0  0  0
    4.5914    2.6425    3.3509 H   0  0  0  0  0  0  0  0  0  0  0  0
    4.2899    0.1569    3.1546 H   0  0  0  0  0  0  0  0  0  0  0  0
    3.1176   -0.8213    1.1567 H   0  0  0  0  0  0  0  0  0  0  0  0
  1 12  1  0  0  0  0
  1  8  1  1  0  0  0
  2 22  1  0  0  0  0
  3  8  2  0  0  0  0
  3  4  1  0  0  0  0
  4  5  2  0  0  0  0
  5  6  1  0  0  0  0
  5 25  1  0  0  0  0
  6 26  1  0  0  0  0
  7 27  1  0  0  0  0
  7  6  2  0  0  0  0
  8  7  1  0  0  0  0
  9 28  1  6  0  0  0
  9 10  1  0  0  0  0
  9  1  1  0  0  0  0
 10 11  2  0  0  0  0
 11 12  1  0  0  0  0
 11 16  1  0  0  0  0
 12 29  1  1  0  0  0
 13 30  1  6  0  0  0
 13  2  1  0  0  0  0
 13 12  1  0  0  0  0
 14  9  1  0  0  0  0
 14 13  1  0  0  0  0
 15 33  1  0  0  0  0
 15 35  1  0  0  0  0
 15 10  1  0  0  0  0
 16 38  1  0  0  0  0
 17 18  1  0  0  0  0
 18 40  1  0  0  0  0
 18 19  2  0  0  0  0
 19 41  1  0  0  0  0
 20 19  1  0  0  0  0
 20 42  1  0  0  0  0
 21 20  2  0  0  0  0
 22 17  2  0  0  0  0
 22 21  1  0  0  0  0
 23  3  1  0  0  0  0
 24  4  1  0  0  0  0
 31 14  1  0  0  0  0
 32 14  1  0  0  0  0
 34 15  1  0  0  0  0
 36 16  1  0  0  0  0
 37 16  1  0  0  0  0
 39 17  1  0  0  0  0
 43 21  1  0  0  0  0
M  END
