1,2
 OpenBabel05122313063D

 57 58  0  0  1  0  0  0  0  0999 V2000
   -2.0782   -0.6804   -0.4723 S   0  0  0  0  0  0  0  0  0  0  0  0
    1.0385    0.5585   -0.1523 P   0  0  0  0  0  0  0  0  0  0  0  0
   -3.7959    2.9049   -0.8939 N   0  0  0  0  0  0  0  0  0  0  0  0
   -0.1718    1.6922   -1.0076 C   0  0  0  0  0  0  0  0  0  0  0  0
    0.3494    2.6141   -1.3400 H   0  0  0  0  0  0  0  0  0  0  0  0
   -0.4368    1.1259   -1.9265 H   0  0  0  0  0  0  0  0  0  0  0  0
   -2.4729    2.5354   -1.3833 C   0  0  0  0  0  0  0  0  0  0  0  0
   -1.9974    3.3749   -1.9441 H   0  0  0  0  0  0  0  0  0  0  0  0
   -2.5694    1.6979   -2.1072 H   0  0  0  0  0  0  0  0  0  0  0  0
   -2.1233    0.8863    0.4913 C   0  0  0  0  0  0  0  0  0  0  0  0
   -3.1837    1.1567    0.6804 H   0  0  0  0  0  0  0  0  0  0  0  0
   -1.6157    0.7079    1.4584 H   0  0  0  0  0  0  0  0  0  0  0  0
   -1.4828    2.0653   -0.2711 C   0  0  1  0  0  0  0  0  0  0  0  0
   -1.2544    3.1882    0.7544 C   0  0  0  0  0  0  0  0  0  0  0  0
   -0.8260    4.0888    0.2681 H   0  0  0  0  0  0  0  0  0  0  0  0
   -0.5557    2.8730    1.5527 H   0  0  0  0  0  0  0  0  0  0  0  0
   -2.2158    3.4685    1.2287 H   0  0  0  0  0  0  0  0  0  0  0  0
    3.7274    0.2134   -0.8613 C   0  0  0  0  0  0  0  0  0  0  0  0
    3.8836    0.0829    0.2201 H   0  0  0  0  0  0  0  0  0  0  0  0
    4.8085    0.0713   -1.7410 C   0  0  0  0  0  0  0  0  0  0  0  0
    5.8057   -0.1673   -1.3414 H   0  0  0  0  0  0  0  0  0  0  0  0
    4.6204    0.2271   -3.1242 C   0  0  0  0  0  0  0  0  0  0  0  0
    5.4698    0.1131   -3.8144 H   0  0  0  0  0  0  0  0  0  0  0  0
    3.3429    0.5223   -3.6217 C   0  0  0  0  0  0  0  0  0  0  0  0
    3.1844    0.6398   -4.7045 H   0  0  0  0  0  0  0  0  0  0  0  0
    2.2562    0.6634   -2.7442 C   0  0  0  0  0  0  0  0  0  0  0  0
    1.2613    0.8788   -3.1593 H   0  0  0  0  0  0  0  0  0  0  0  0
    2.4401    0.5156   -1.3553 C   0  0  0  0  0  0  0  0  0  0  0  0
    2.3160    2.8708    0.8753 C   0  0  0  0  0  0  0  0  0  0  0  0
    2.3279    3.2272   -0.1666 H   0  0  0  0  0  0  0  0  0  0  0  0
    2.8544    3.6725    1.8896 C   0  0  0  0  0  0  0  0  0  0  0  0
    3.2749    4.6592    1.6423 H   0  0  0  0  0  0  0  0  0  0  0  0
    2.8641    3.2151    3.2194 C   0  0  0  0  0  0  0  0  0  0  0  0
    3.2887    3.8459    4.0152 H   0  0  0  0  0  0  0  0  0  0  0  0
    2.3428    1.9503    3.5270 C   0  0  0  0  0  0  0  0  0  0  0  0
    2.3594    1.5802    4.5632 H   0  0  0  0  0  0  0  0  0  0  0  0
    1.7996    1.1459    2.5108 C   0  0  0  0  0  0  0  0  0  0  0  0
    1.3979    0.1512    2.7465 H   0  0  0  0  0  0  0  0  0  0  0  0
    1.7711    1.6052    1.1826 C   0  0  0  0  0  0  0  0  0  0  0  0
   -4.0501    4.3346   -0.8629 C   0  0  0  0  0  0  0  0  0  0  0  0
   -5.0005    4.5406   -0.3286 H   0  0  0  0  0  0  0  0  0  0  0  0
   -4.1316    4.7909   -1.8858 H   0  0  0  0  0  0  0  0  0  0  0  0
   -3.2428    4.8632   -0.3213 H   0  0  0  0  0  0  0  0  0  0  0  0
   -4.8836    2.1694   -1.5155 C   0  0  0  0  0  0  0  0  0  0  0  0
   -4.6931    1.0787   -1.4579 H   0  0  0  0  0  0  0  0  0  0  0  0
   -5.0404    2.4283   -2.5967 H   0  0  0  0  0  0  0  0  0  0  0  0
   -5.8351    2.3757   -0.9828 H   0  0  0  0  0  0  0  0  0  0  0  0
   -3.6236   -1.5272    0.1350 C   0  0  0  0  0  0  0  0  0  0  0  0
   -4.4119   -0.7686   -0.0665 H   0  0  0  0  0  0  0  0  0  0  0  0
   -3.8470   -2.7461   -0.7571 C   0  0  0  0  0  0  0  0  0  0  0  0
   -3.8864   -2.4679   -1.8287 H   0  0  0  0  0  0  0  0  0  0  0  0
   -4.8070   -3.2323   -0.4888 H   0  0  0  0  0  0  0  0  0  0  0  0
   -3.0416   -3.4941   -0.6183 H   0  0  0  0  0  0  0  0  0  0  0  0
   -3.5915   -1.8655    1.6182 C   0  0  0  0  0  0  0  0  0  0  0  0
   -3.3949   -0.9778    2.2500 H   0  0  0  0  0  0  0  0  0  0  0  0
   -2.8107   -2.6208    1.8318 H   0  0  0  0  0  0  0  0  0  0  0  0
   -4.5718   -2.2879    1.9228 H   0  0  0  0  0  0  0  0  0  0  0  0
  1 48  1  0  0  0  0
  1 10  1  0  0  0  0
  2 39  1  0  0  0  0
  3 40  1  0  0  0  0
  4 13  1  0  0  0  0
  4  2  1  0  0  0  0
  5  4  1  0  0  0  0
  6  4  1  0  0  0  0
  7  3  1  0  0  0  0
  8  7  1  0  0  0  0
  9  7  1  0  0  0  0
 10 11  1  0  0  0  0
 10 12  1  0  0  0  0
 13  7  1  6  0  0  0
 13 10  1  0  0  0  0
 13 14  1  0  0  0  0
 14 17  1  0  0  0  0
 14 16  1  0  0  0  0
 15 14  1  0  0  0  0
 18 19  1  0  0  0  0
 20 21  1  0  0  0  0
 20 18  2  0  0  0  0
 22 20  1  0  0  0  0
 23 22  1  0  0  0  0
 24 22  2  0  0  0  0
 24 26  1  0  0  0  0
 25 24  1  0  0  0  0
 26 28  2  0  0  0  0
 27 26  1  0  0  0  0
 28 18  1  0  0  0  0
 28  2  1  0  0  0  0
 29 39  2  0  0  0  0
 29 31  1  0  0  0  0
 30 29  1  0  0  0  0
 31 33  2  0  0  0  0
 32 31  1  0  0  0  0
 33 35  1  0  0  0  0
 33 34  1  0  0  0  0
 35 36  1  0  0  0  0
 37 38  1  0  0  0  0
 37 35  2  0  0  0  0
 39 37  1  0  0  0  0
 40 41  1  0  0  0  0
 40 43  1  0  0  0  0
 42 40  1  0  0  0  0
 44 45  1  0  0  0  0
 44 47  1  0  0  0  0
 44  3  1  0  0  0  0
 46 44  1  0  0  0  0
 48 54  1  0  0  0  0
 49 48  1  0  0  0  0
 50 53  1  0  0  0  0
 50 52  1  0  0  0  0
 50 48  1  0  0  0  0
 51 50  1  0  0  0  0
 54 56  1  0  0  0  0
 54 57  1  0  0  0  0
 54 55  1  0  0  0  0
M  END
