1,2
 OpenBabel05122313063D

 37 41  0  0  0  0  0  0  0  0999 V2000
    1.8660   -1.2447    1.2669 P   0  0  0  0  0  4  0  0  0  0  0  0
   -0.1844   -0.0139   -0.7469 S   0  0  0  0  0  0  0  0  0  0  0  0
    0.8137   -2.6023    0.9311 O   0  0  0  0  0  0  0  0  0  0  0  0
    0.6138   -0.3999    2.2033 O   0  0  0  0  0  0  0  0  0  0  0  0
    2.8463   -1.7652    2.2715 O   0  0  0  0  0  0  0  0  0  0  0  0
   -0.4539   -2.5400    0.5105 C   0  0  0  0  0  0  0  0  0  0  0  0
   -1.2204   -3.7249    0.7673 C   0  0  0  0  0  0  0  0  0  0  0  0
   -0.6867   -4.5515    1.2579 H   0  0  0  0  0  0  0  0  0  0  0  0
   -2.5546   -3.8081    0.4410 C   0  0  0  0  0  0  0  0  0  0  0  0
   -3.1229   -4.7260    0.6604 H   0  0  0  0  0  0  0  0  0  0  0  0
   -3.2315   -2.7101   -0.1697 C   0  0  0  0  0  0  0  0  0  0  0  0
   -4.6175   -2.7712   -0.4862 C   0  0  0  0  0  0  0  0  0  0  0  0
   -5.1661   -3.6964   -0.2466 H   0  0  0  0  0  0  0  0  0  0  0  0
   -5.2677   -1.6980   -1.0793 C   0  0  0  0  0  0  0  0  0  0  0  0
   -6.3410   -1.7578   -1.3162 H   0  0  0  0  0  0  0  0  0  0  0  0
   -4.5361   -0.5207   -1.3768 C   0  0  0  0  0  0  0  0  0  0  0  0
   -5.0432    0.3375   -1.8441 H   0  0  0  0  0  0  0  0  0  0  0  0
   -3.1818   -0.4312   -1.0831 C   0  0  0  0  0  0  0  0  0  0  0  0
   -2.6364    0.4928   -1.3193 H   0  0  0  0  0  0  0  0  0  0  0  0
   -2.4814   -1.5142   -0.4710 C   0  0  0  0  0  0  0  0  0  0  0  0
   -1.0792   -1.4561   -0.1393 C   0  0  0  0  0  0  0  0  0  0  0  0
   -0.3848    1.1407    0.6157 C   0  0  0  0  0  0  0  0  0  0  0  0
   -0.9368    2.4351    0.3491 C   0  0  0  0  0  0  0  0  0  0  0  0
   -1.2333    2.8969   -0.9685 C   0  0  0  0  0  0  0  0  0  0  0  0
   -0.9586    2.2624   -1.8252 H   0  0  0  0  0  0  0  0  0  0  0  0
   -1.7913    4.1515   -1.1725 C   0  0  0  0  0  0  0  0  0  0  0  0
   -1.9988    4.4914   -2.1988 H   0  0  0  0  0  0  0  0  0  0  0  0
   -2.0746    5.0064   -0.0751 C   0  0  0  0  0  0  0  0  0  0  0  0
   -2.5192    5.9981   -0.2504 H   0  0  0  0  0  0  0  0  0  0  0  0
   -1.7653    4.5969    1.2145 C   0  0  0  0  0  0  0  0  0  0  0  0
   -1.9550    5.2606    2.0734 H   0  0  0  0  0  0  0  0  0  0  0  0
   -1.1830    3.3213    1.4621 C   0  0  0  0  0  0  0  0  0  0  0  0
   -0.8158    2.8963    2.7742 C   0  0  0  0  0  0  0  0  0  0  0  0
   -1.0046    3.5748    3.6212 H   0  0  0  0  0  0  0  0  0  0  0  0
   -0.2069    1.6751    2.9877 C   0  0  0  0  0  0  0  0  0  0  0  0
    0.1156    1.3512    3.9878 H   0  0  0  0  0  0  0  0  0  0  0  0
    0.0303    0.7700    1.9068 C   0  0  0  0  0  0  0  0  0  0  0  0
  1  4  1  0  0  0  0
  1  5  2  0  0  0  0
  2 21  1  0  0  0  0
  2 22  1  0  0  0  0
  3  1  1  0  0  0  0
  6  7  1  0  0  0  0
  6  3  1  0  0  0  0
  7  8  1  0  0  0  0
  9 10  1  0  0  0  0
  9  7  2  0  0  0  0
 11  9  1  0  0  0  0
 12 13  1  0  0  0  0
 12 11  2  0  0  0  0
 14 12  1  0  0  0  0
 15 14  1  0  0  0  0
 16 18  1  0  0  0  0
 16 14  2  0  0  0  0
 17 16  1  0  0  0  0
 18 20  2  0  0  0  0
 19 18  1  0  0  0  0
 20 11  1  0  0  0  0
 20 21  1  0  0  0  0
 21  6  2  0  0  0  0
 22 37  1  0  0  0  0
 23 22  2  0  0  0  0
 23 32  1  0  0  0  0
 24 23  1  0  0  0  0
 25 24  1  0  0  0  0
 26 24  2  0  0  0  0
 26 28  1  0  0  0  0
 27 26  1  0  0  0  0
 28 30  2  0  0  0  0
 29 28  1  0  0  0  0
 30 32  1  0  0  0  0
 30 31  1  0  0  0  0
 32 33  2  0  0  0  0
 33 35  1  0  0  0  0
 33 34  1  0  0  0  0
 35 36  1  0  0  0  0
 37  4  1  0  0  0  0
 37 35  2  0  0  0  0
M  END
