1,16
 OpenBabel05122313063D

 35 36  0  0  0  0  0  0  0  0999 V2000
    0.6839   -0.0428    0.4207 P   0  0  0  0  0  0  0  0  0  0  0  0
    1.5107    1.5822    0.2235 C   0  0  0  0  0  0  0  0  0  0  0  0
    2.8171    1.7839    0.7152 C   0  0  0  0  0  0  0  0  0  0  0  0
    3.4151    3.0474    0.6107 C   0  0  0  0  0  0  0  0  0  0  0  0
    2.7169    4.1095    0.0115 C   0  0  0  0  0  0  0  0  0  0  0  0
    1.4220    3.9056   -0.4895 C   0  0  0  0  0  0  0  0  0  0  0  0
    0.8164    2.6436   -0.3901 C   0  0  0  0  0  0  0  0  0  0  0  0
    1.9697   -1.3137    0.1441 C   0  0  0  0  0  0  0  0  0  0  0  0
    2.1954   -1.7636   -1.1742 C   0  0  0  0  0  0  0  0  0  0  0  0
    3.1901   -2.7202   -1.4202 C   0  0  0  0  0  0  0  0  0  0  0  0
    3.9598   -3.2342   -0.3644 C   0  0  0  0  0  0  0  0  0  0  0  0
    3.7330   -2.7914    0.9479 C   0  0  0  0  0  0  0  0  0  0  0  0
    2.7401   -1.8344    1.2064 C   0  0  0  0  0  0  0  0  0  0  0  0
    0.3009   -0.1354    2.2566 C   0  0  0  0  0  0  0  0  0  0  0  0
   -1.0597    0.4928    2.5164 C   0  0  0  0  0  0  0  0  0  0  0  0
   -2.2596   -0.4199    1.4352 S   0  0  2  0  0  3  0  0  0  0  0  0
   -3.7785    0.5404    1.6416 C   0  0  0  0  0  0  0  0  0  0  0  0
   -2.4562   -1.7856    2.0300 O   0  0  0  0  0  1  0  0  0  0  0  0
    3.3752    0.9478    1.1653 H   0  0  0  0  0  0  0  0  0  0  0  0
    4.4363    3.2014    0.9907 H   0  0  0  0  0  0  0  0  0  0  0  0
    3.1913    5.0988   -0.0750 H   0  0  0  0  0  0  0  0  0  0  0  0
    0.8804    4.7310   -0.9756 H   0  0  0  0  0  0  0  0  0  0  0  0
   -0.1833    2.4639   -0.8145 H   0  0  0  0  0  0  0  0  0  0  0  0
    1.5774   -1.3588   -1.9931 H   0  0  0  0  0  0  0  0  0  0  0  0
    3.3585   -3.0714   -2.4493 H   0  0  0  0  0  0  0  0  0  0  0  0
    4.7365   -3.9883   -0.5631 H   0  0  0  0  0  0  0  0  0  0  0  0
    4.3293   -3.1951    1.7801 H   0  0  0  0  0  0  0  0  0  0  0  0
    2.5737   -1.5038    2.2421 H   0  0  0  0  0  0  0  0  0  0  0  0
    1.0960    0.3719    2.8384 H   0  0  0  0  0  0  0  0  0  0  0  0
    0.2743   -1.2077    2.5406 H   0  0  0  0  0  0  0  0  0  0  0  0
   -1.1031    1.5637    2.2284 H   0  0  0  0  0  0  0  0  0  0  0  0
   -1.4138    0.3544    3.5582 H   0  0  0  0  0  0  0  0  0  0  0  0
   -4.1382    0.3604    2.6721 H   0  0  0  0  0  0  0  0  0  0  0  0
   -3.5623    1.6055    1.4373 H   0  0  0  0  0  0  0  0  0  0  0  0
   -4.4613    0.1446    0.8648 H   0  0  0  0  0  0  0  0  0  0  0  0
  1 14  1  0  0  0  0
  2  1  1  0  0  0  0
  2  3  1  0  0  0  0
  3 19  1  0  0  0  0
  4  3  2  0  0  0  0
  4 20  1  0  0  0  0
  5  4  1  0  0  0  0
  6  7  1  0  0  0  0
  6  5  2  0  0  0  0
  7  2  2  0  0  0  0
  8  1  1  0  0  0  0
  8 13  1  0  0  0  0
  9  8  2  0  0  0  0
 10  9  1  0  0  0  0
 10 11  2  0  0  0  0
 11 12  1  0  0  0  0
 12 13  2  0  0  0  0
 12 27  1  0  0  0  0
 13 28  1  0  0  0  0
 14 15  1  0  0  0  0
 14 30  1  0  0  0  0
 14 29  1  0  0  0  0
 15 32  1  0  0  0  0
 16 17  1  0  0  0  0
 16 18  1  1  0  0  0
 16 15  1  0  0  0  0
 17 33  1  0  0  0  0
 21  5  1  0  0  0  0
 22  6  1  0  0  0  0
 23  7  1  0  0  0  0
 24  9  1  0  0  0  0
 25 10  1  0  0  0  0
 26 11  1  0  0  0  0
 31 15  1  0  0  0  0
 34 17  1  0  0  0  0
 35 17  1  0  0  0  0
M  END
