1,2
 OpenBabel05122313063D

 51 55  0  0  0  0  0  0  0  0999 V2000
   -1.7793   -0.5346   -1.3311 S   0  0  0  0  0  0  0  0  0  0  0  0
    0.7801    0.4057    0.3993 P   0  0  0  0  0  0  0  0  0  0  0  0
   -0.3348    1.8852    0.5275 C   0  0  0  0  0  0  0  0  0  0  0  0
    0.1018    2.8647    1.4259 C   0  0  0  0  0  0  0  0  0  0  0  0
   -0.5297    4.1231    1.5416 C   0  0  0  0  0  0  0  0  0  0  0  0
   -1.5804    4.4318    0.6976 C   0  0  0  0  0  0  0  0  0  0  0  0
   -2.0702    3.4762   -0.2371 C   0  0  0  0  0  0  0  0  0  0  0  0
   -3.1446    3.8414   -1.1019 C   0  0  0  0  0  0  0  0  0  0  0  0
   -3.6721    2.9427   -2.0096 C   0  0  0  0  0  0  0  0  0  0  0  0
   -3.1687    1.6208   -2.0368 C   0  0  0  0  0  0  0  0  0  0  0  0
   -2.1264    1.2244   -1.2014 C   0  0  0  0  0  0  0  0  0  0  0  0
   -1.4826    2.1480   -0.3030 C   0  0  0  0  0  0  0  0  0  0  0  0
    2.4431    1.1780    0.5125 C   0  0  0  0  0  0  0  0  0  0  0  0
    2.9542    1.7957   -0.6469 C   0  0  0  0  0  0  0  0  0  0  0  0
    4.2004    2.4320   -0.6059 C   0  0  0  0  0  0  0  0  0  0  0  0
    4.9492    2.4430    0.5837 C   0  0  0  0  0  0  0  0  0  0  0  0
    4.4481    1.8149    1.7333 C   0  0  0  0  0  0  0  0  0  0  0  0
    3.1947    1.1816    1.7018 C   0  0  0  0  0  0  0  0  0  0  0  0
    0.5749   -0.5179    1.9723 C   0  0  0  0  0  0  0  0  0  0  0  0
   -0.3107   -0.1291    2.9934 C   0  0  0  0  0  0  0  0  0  0  0  0
   -0.4407   -0.9235    4.1436 C   0  0  0  0  0  0  0  0  0  0  0  0
    0.3159   -2.0966    4.2811 C   0  0  0  0  0  0  0  0  0  0  0  0
    1.2004   -2.4853    3.2599 C   0  0  0  0  0  0  0  0  0  0  0  0
    1.3271   -1.7076    2.1017 C   0  0  0  0  0  0  0  0  0  0  0  0
   -2.3767   -1.1305    0.2790 C   0  0  0  0  0  0  0  0  0  0  0  0
   -3.3488   -0.4319    1.0124 C   0  0  0  0  0  0  0  0  0  0  0  0
   -3.8232   -0.9812    2.2142 C   0  0  0  0  0  0  0  0  0  0  0  0
   -3.3396   -2.2164    2.6706 C   0  0  0  0  0  0  0  0  0  0  0  0
   -2.3753   -2.9093    1.9209 C   0  0  0  0  0  0  0  0  0  0  0  0
   -1.8876   -2.3725    0.7224 C   0  0  0  0  0  0  0  0  0  0  0  0
    0.9909    2.6649    2.0417 H   0  0  0  0  0  0  0  0  0  0  0  0
   -0.1555    4.8573    2.2700 H   0  0  0  0  0  0  0  0  0  0  0  0
   -2.0564    5.4239    0.7289 H   0  0  0  0  0  0  0  0  0  0  0  0
   -3.5463    4.8635   -1.0264 H   0  0  0  0  0  0  0  0  0  0  0  0
   -4.4919    3.2318   -2.6830 H   0  0  0  0  0  0  0  0  0  0  0  0
   -3.6167    0.8727   -2.7079 H   0  0  0  0  0  0  0  0  0  0  0  0
    2.3785    1.7542   -1.5844 H   0  0  0  0  0  0  0  0  0  0  0  0
    4.5989    2.9083   -1.5143 H   0  0  0  0  0  0  0  0  0  0  0  0
    5.9334    2.9350    0.6097 H   0  0  0  0  0  0  0  0  0  0  0  0
    5.0370    1.8108    2.6631 H   0  0  0  0  0  0  0  0  0  0  0  0
    2.8068    0.6810    2.6016 H   0  0  0  0  0  0  0  0  0  0  0  0
   -0.9151    0.7828    2.8849 H   0  0  0  0  0  0  0  0  0  0  0  0
   -1.1456   -0.6237    4.9338 H   0  0  0  0  0  0  0  0  0  0  0  0
    0.2114   -2.7163    5.1848 H   0  0  0  0  0  0  0  0  0  0  0  0
    1.7909   -3.4086    3.3607 H   0  0  0  0  0  0  0  0  0  0  0  0
    1.9987   -2.0148    1.2819 H   0  0  0  0  0  0  0  0  0  0  0  0
   -3.7311    0.5351    0.6561 H   0  0  0  0  0  0  0  0  0  0  0  0
   -4.5784   -0.4321    2.7969 H   0  0  0  0  0  0  0  0  0  0  0  0
   -3.7102   -2.6382    3.6168 H   0  0  0  0  0  0  0  0  0  0  0  0
   -1.9819   -3.8726    2.2773 H   0  0  0  0  0  0  0  0  0  0  0  0
   -1.1144   -2.8955    0.1385 H   0  0  0  0  0  0  0  0  0  0  0  0
  1 11  1  0  0  0  0
  1 25  1  0  0  0  0
  2 13  1  0  0  0  0
  2  3  1  0  0  0  0
  2 19  1  0  0  0  0
  3  4  1  0  0  0  0
  4  5  2  0  0  0  0
  4 31  1  0  0  0  0
  5 32  1  0  0  0  0
  6 33  1  0  0  0  0
  6  5  1  0  0  0  0
  7  6  2  0  0  0  0
  8 34  1  0  0  0  0
  8  7  1  0  0  0  0
  9  8  2  0  0  0  0
 10  9  1  0  0  0  0
 10 11  2  0  0  0  0
 11 12  1  0  0  0  0
 12  7  1  0  0  0  0
 12  3  2  0  0  0  0
 13 18  1  0  0  0  0
 14 15  1  0  0  0  0
 14 13  2  0  0  0  0
 15 16  2  0  0  0  0
 16 39  1  0  0  0  0
 16 17  1  0  0  0  0
 17 40  1  0  0  0  0
 18 17  2  0  0  0  0
 18 41  1  0  0  0  0
 19 24  2  0  0  0  0
 19 20  1  0  0  0  0
 20 21  2  0  0  0  0
 21 22  1  0  0  0  0
 21 43  1  0  0  0  0
 22 44  1  0  0  0  0
 23 45  1  0  0  0  0
 23 22  2  0  0  0  0
 24 23  1  0  0  0  0
 25 30  2  0  0  0  0
 25 26  1  0  0  0  0
 26 27  2  0  0  0  0
 27 28  1  0  0  0  0
 27 48  1  0  0  0  0
 28 49  1  0  0  0  0
 29 50  1  0  0  0  0
 29 28  2  0  0  0  0
 30 29  1  0  0  0  0
 35  9  1  0  0  0  0
 36 10  1  0  0  0  0
 37 14  1  0  0  0  0
 38 15  1  0  0  0  0
 42 20  1  0  0  0  0
 46 24  1  0  0  0  0
 47 26  1  0  0  0  0
 51 30  1  0  0  0  0
M  END
