1,3
 OpenBabel05122313063D

 55 59  0  0  1  0  0  0  0  0999 V2000
    1.2338    2.0597   -0.3445 S   0  0  0  0  0  1  0  0  0  0  0  0
    2.1028    0.2371   -0.4641 P   0  0  2  0  0  4  0  0  0  0  0  0
   -1.4155   -0.3653    0.0689 P   0  0  0  0  0  0  0  0  0  0  0  0
    1.9560   -0.8749   -1.9820 C   0  0  2  0  0  0  0  0  0  0  0  0
    0.4165   -1.0786   -1.9865 C   0  0  0  0  0  0  0  0  0  0  0  0
    0.0193   -1.4182   -0.5162 C   0  0  1  0  0  0  0  0  0  0  0  0
    1.3138   -1.2656    0.3393 C   0  0  1  0  0  0  0  0  0  0  0  0
    2.2956   -2.3242   -0.1301 C   0  0  0  0  0  0  0  0  0  0  0  0
    2.6459   -2.1124   -1.4367 C   0  0  0  0  0  0  0  0  0  0  0  0
    2.7566   -3.3938    0.8055 C   0  0  0  0  0  0  0  0  0  0  0  0
    3.5817   -2.9105   -2.2861 C   0  0  0  0  0  0  0  0  0  0  0  0
    3.8423    0.3776    0.0395 C   0  0  0  0  0  0  0  0  0  0  0  0
    4.1277    0.6286    1.3974 C   0  0  0  0  0  0  0  0  0  0  0  0
    5.4573    0.7911    1.8104 C   0  0  0  0  0  0  0  0  0  0  0  0
    6.5003    0.7245    0.8719 C   0  0  0  0  0  0  0  0  0  0  0  0
    6.2142    0.4973   -0.4837 C   0  0  0  0  0  0  0  0  0  0  0  0
    4.8873    0.3244   -0.9034 C   0  0  0  0  0  0  0  0  0  0  0  0
   -2.7428   -1.0434   -1.0107 C   0  0  0  0  0  0  0  0  0  0  0  0
   -3.1259   -0.3146   -2.1547 C   0  0  0  0  0  0  0  0  0  0  0  0
   -4.0600   -0.8577   -3.0482 C   0  0  0  0  0  0  0  0  0  0  0  0
   -4.6273   -2.1181   -2.7997 C   0  0  0  0  0  0  0  0  0  0  0  0
   -4.2596   -2.8375   -1.6517 C   0  0  0  0  0  0  0  0  0  0  0  0
   -3.3181   -2.3040   -0.7582 C   0  0  0  0  0  0  0  0  0  0  0  0
   -1.7401   -1.0089    1.7660 C   0  0  0  0  0  0  0  0  0  0  0  0
   -2.3892   -0.1614    2.6892 C   0  0  0  0  0  0  0  0  0  0  0  0
   -2.6458   -0.6089    3.9933 C   0  0  0  0  0  0  0  0  0  0  0  0
   -2.2556   -1.8961    4.3948 C   0  0  0  0  0  0  0  0  0  0  0  0
   -1.6081   -2.7436    3.4825 C   0  0  0  0  0  0  0  0  0  0  0  0
   -1.3516   -2.3046    2.1745 C   0  0  0  0  0  0  0  0  0  0  0  0
    2.3570   -0.4722   -2.9296 H   0  0  0  0  0  0  0  0  0  0  0  0
   -0.0838   -0.1502   -2.3354 H   0  0  0  0  0  0  0  0  0  0  0  0
    0.1343   -1.8928   -2.6806 H   0  0  0  0  0  0  0  0  0  0  0  0
   -0.3129   -2.4742   -0.4520 H   0  0  0  0  0  0  0  0  0  0  0  0
    1.1467   -1.2069    1.4292 H   0  0  0  0  0  0  0  0  0  0  0  0
    3.2907   -2.9459    1.6718 H   0  0  0  0  0  0  0  0  0  0  0  0
    3.4405   -4.1148    0.3194 H   0  0  0  0  0  0  0  0  0  0  0  0
    1.8988   -3.9619    1.2258 H   0  0  0  0  0  0  0  0  0  0  0  0
    4.4435   -2.2909   -2.6167 H   0  0  0  0  0  0  0  0  0  0  0  0
    3.9866   -3.7905   -1.7517 H   0  0  0  0  0  0  0  0  0  0  0  0
    3.0799   -3.2706   -3.2098 H   0  0  0  0  0  0  0  0  0  0  0  0
    3.3072    0.7110    2.1269 H   0  0  0  0  0  0  0  0  0  0  0  0
    5.6792    0.9819    2.8710 H   0  0  0  0  0  0  0  0  0  0  0  0
    7.5424    0.8605    1.1980 H   0  0  0  0  0  0  0  0  0  0  0  0
    7.0292    0.4586   -1.2218 H   0  0  0  0  0  0  0  0  0  0  0  0
    4.6670    0.1546   -1.9678 H   0  0  0  0  0  0  0  0  0  0  0  0
   -2.7099    0.6909   -2.3202 H   0  0  0  0  0  0  0  0  0  0  0  0
   -4.3595   -0.2818   -3.9368 H   0  0  0  0  0  0  0  0  0  0  0  0
   -5.3690   -2.5361   -3.4973 H   0  0  0  0  0  0  0  0  0  0  0  0
   -4.7145   -3.8179   -1.4435 H   0  0  0  0  0  0  0  0  0  0  0  0
   -3.0481   -2.8651    0.1496 H   0  0  0  0  0  0  0  0  0  0  0  0
   -2.7056    0.8425    2.3617 H   0  0  0  0  0  0  0  0  0  0  0  0
   -3.1547    0.0611    4.7026 H   0  0  0  0  0  0  0  0  0  0  0  0
   -2.4550   -2.2408    5.4209 H   0  0  0  0  0  0  0  0  0  0  0  0
   -1.2997   -3.7551    3.7882 H   0  0  0  0  0  0  0  0  0  0  0  0
   -0.8436   -2.9878    1.4774 H   0  0  0  0  0  0  0  0  0  0  0  0
  2  1  1  6  0  0  0
  2 12  1  0  0  0  0
  2  7  1  0  0  0  0
  3 24  1  0  0  0  0
  4 30  1  6  0  0  0
  4  9  1  0  0  0  0
  4  2  1  0  0  0  0
  5  4  1  0  0  0  0
  5  6  1  0  0  0  0
  6 33  1  1  0  0  0
  6  3  1  0  0  0  0
  6  7  1  0  0  0  0
  7 34  1  1  0  0  0
  8  7  1  0  0  0  0
  8 10  1  0  0  0  0
  9  8  2  0  0  0  0
 10 37  1  0  0  0  0
 10 35  1  0  0  0  0
 11 39  1  0  0  0  0
 11  9  1  0  0  0  0
 12 13  1  0  0  0  0
 13 14  2  0  0  0  0
 13 41  1  0  0  0  0
 14 42  1  0  0  0  0
 15 43  1  0  0  0  0
 15 14  1  0  0  0  0
 16 15  2  0  0  0  0
 17 16  1  0  0  0  0
 17 12  2  0  0  0  0
 18 23  1  0  0  0  0
 18  3  1  0  0  0  0
 19 18  2  0  0  0  0
 20 21  2  0  0  0  0
 20 19  1  0  0  0  0
 21 22  1  0  0  0  0
 22 49  1  0  0  0  0
 22 23  2  0  0  0  0
 23 50  1  0  0  0  0
 24 29  2  0  0  0  0
 24 25  1  0  0  0  0
 25 26  2  0  0  0  0
 26 27  1  0  0  0  0
 26 52  1  0  0  0  0
 27 53  1  0  0  0  0
 28 54  1  0  0  0  0
 28 27  2  0  0  0  0
 29 28  1  0  0  0  0
 31  5  1  0  0  0  0
 32  5  1  0  0  0  0
 36 10  1  0  0  0  0
 38 11  1  0  0  0  0
 40 11  1  0  0  0  0
 44 16  1  0  0  0  0
 45 17  1  0  0  0  0
 46 19  1  0  0  0  0
 47 20  1  0  0  0  0
 48 21  1  0  0  0  0
 51 25  1  0  0  0  0
 55 29  1  0  0  0  0
M  END
