1,2
 OpenBabel05122313063D

 36 37  0  0  0  0  0  0  0  0999 V2000
    0.7262   -0.4023   -2.1265 S   0  0  0  0  0  1  0  0  0  0  0  0
   -0.2810   -0.0585   -0.3793 P   0  0  0  0  0  0  0  0  0  0  0  0
   -0.9851    1.6582   -0.1493 C   0  0  0  0  0  0  0  0  0  0  0  0
   -0.6665    2.1975    1.2598 C   0  0  0  0  0  0  0  0  0  0  0  0
   -1.2986    3.5802    1.4738 C   0  0  0  0  0  0  0  0  0  0  0  0
   -0.8660    4.5665    0.3820 C   0  0  0  0  0  0  0  0  0  0  0  0
   -1.1903    4.0242   -1.0158 C   0  0  0  0  0  0  0  0  0  0  0  0
   -0.5612    2.6434   -1.2505 C   0  0  0  0  0  0  0  0  0  0  0  0
   -1.7148   -1.2246   -0.1875 C   0  0  0  0  0  0  0  0  0  0  0  0
   -2.7988   -1.0288   -1.2609 C   0  0  0  0  0  0  0  0  0  0  0  0
   -3.9237   -2.0607   -1.0903 C   0  0  0  0  0  0  0  0  0  0  0  0
   -4.5141   -2.0244    0.3252 C   0  0  0  0  0  0  0  0  0  0  0  0
   -3.4268   -2.2159    1.3903 C   0  0  0  0  0  0  0  0  0  0  0  0
   -2.2992   -1.1841    1.2363 C   0  0  0  0  0  0  0  0  0  0  0  0
   -2.0871    1.5128   -0.2222 H   0  0  0  0  0  0  0  0  0  0  0  0
    0.4348    2.2748    1.3791 H   0  0  0  0  0  0  0  0  0  0  0  0
   -1.0111    1.4847    2.0379 H   0  0  0  0  0  0  0  0  0  0  0  0
   -1.0276    3.9637    2.4794 H   0  0  0  0  0  0  0  0  0  0  0  0
   -2.4078    3.4824    1.4641 H   0  0  0  0  0  0  0  0  0  0  0  0
    0.2308    4.7384    0.4609 H   0  0  0  0  0  0  0  0  0  0  0  0
   -1.3505    5.5529    0.5374 H   0  0  0  0  0  0  0  0  0  0  0  0
   -0.8426    4.7297   -1.7990 H   0  0  0  0  0  0  0  0  0  0  0  0
   -2.2952    3.9479   -1.1321 H   0  0  0  0  0  0  0  0  0  0  0  0
   -0.8411    2.2425   -2.2454 H   0  0  0  0  0  0  0  0  0  0  0  0
    0.5447    2.7346   -1.2605 H   0  0  0  0  0  0  0  0  0  0  0  0
   -1.2514   -2.2213   -0.3501 H   0  0  0  0  0  0  0  0  0  0  0  0
   -2.3400   -1.1042   -2.2682 H   0  0  0  0  0  0  0  0  0  0  0  0
   -3.2301   -0.0058   -1.1780 H   0  0  0  0  0  0  0  0  0  0  0  0
   -3.5161   -3.0762   -1.2928 H   0  0  0  0  0  0  0  0  0  0  0  0
   -4.7143   -1.8846   -1.8492 H   0  0  0  0  0  0  0  0  0  0  0  0
   -5.3027   -2.7975    0.4355 H   0  0  0  0  0  0  0  0  0  0  0  0
   -5.0149   -1.0429    0.4873 H   0  0  0  0  0  0  0  0  0  0  0  0
   -2.9951   -3.2373    1.2973 H   0  0  0  0  0  0  0  0  0  0  0  0
   -3.8608   -2.1509    2.4097 H   0  0  0  0  0  0  0  0  0  0  0  0
   -2.7078   -0.1690    1.4411 H   0  0  0  0  0  0  0  0  0  0  0  0
   -1.4985   -1.3620    1.9847 H   0  0  0  0  0  0  0  0  0  0  0  0
  1  2  1  0  0  0  0
  2  9  1  0  0  0  0
  2  3  1  0  0  0  0
  3  4  1  0  0  0  0
  4 16  1  0  0  0  0
  4  5  1  0  0  0  0
  4 17  1  0  0  0  0
  5 18  1  0  0  0  0
  6 20  1  0  0  0  0
  6 21  1  0  0  0  0
  6  5  1  0  0  0  0
  7  6  1  0  0  0  0
  8  7  1  0  0  0  0
  8  3  1  0  0  0  0
  9 14  1  0  0  0  0
 10 28  1  0  0  0  0
 10 11  1  0  0  0  0
 10  9  1  0  0  0  0
 11 12  1  0  0  0  0
 12 31  1  0  0  0  0
 12 32  1  0  0  0  0
 12 13  1  0  0  0  0
 13 34  1  0  0  0  0
 14 13  1  0  0  0  0
 14 35  1  0  0  0  0
 14 36  1  0  0  0  0
 15  3  1  0  0  0  0
 19  5  1  0  0  0  0
 22  7  1  0  0  0  0
 23  7  1  0  0  0  0
 24  8  1  0  0  0  0
 25  8  1  0  0  0  0
 26  9  1  0  0  0  0
 27 10  1  0  0  0  0
 29 11  1  0  0  0  0
 30 11  1  0  0  0  0
 33 13  1  0  0  0  0
M  END
