37,38
 OpenBabel05122313063D

 38 40  0  0  1  0  0  0  0  0999 V2000
   -3.5317    2.1452    2.1427 C   0  0  0  0  0  0  0  0  0  0  0  0
   -4.1404    2.5488    1.3168 H   0  0  0  0  0  0  0  0  0  0  0  0
   -3.9023    2.2305    3.1757 H   0  0  0  0  0  0  0  0  0  0  0  0
   -2.3697    1.5380    1.8747 C   0  0  0  0  0  0  0  0  0  0  0  0
   -1.7088    1.0352    2.5976 H   0  0  0  0  0  0  0  0  0  0  0  0
   -0.3154    2.3627    0.0390 C   0  0  2  0  0  0  0  0  0  0  0  0
   -0.5913    3.3693    0.4070 H   0  0  0  0  0  0  0  0  0  0  0  0
    0.0924    2.3040   -1.4620 C   0  0  0  0  0  0  0  0  0  0  0  0
    0.3297    3.3176   -1.8392 H   0  0  0  0  0  0  0  0  0  0  0  0
   -0.7376    1.9097   -2.0832 H   0  0  0  0  0  0  0  0  0  0  0  0
    1.3689    1.4082   -1.5195 C   0  0  1  0  0  0  0  0  0  0  0  0
    1.6085    1.0377   -2.5322 H   0  0  0  0  0  0  0  0  0  0  0  0
    2.4707    2.1828   -0.8063 C   0  0  0  0  0  0  0  0  0  0  0  0
    3.6299    2.7443   -1.5646 C   0  0  0  0  0  0  0  0  0  0  0  0
    3.2873    3.4529   -2.3501 H   0  0  0  0  0  0  0  0  0  0  0  0
    4.1932    1.9460   -2.0948 H   0  0  0  0  0  0  0  0  0  0  0  0
    4.3397    3.2831   -0.9089 H   0  0  0  0  0  0  0  0  0  0  0  0
    2.1514    2.3513    0.5089 C   0  0  0  0  0  0  0  0  0  0  0  0
    2.9001    3.0884    1.5713 C   0  0  0  0  0  0  0  0  0  0  0  0
    3.8448    3.5226    1.1931 H   0  0  0  0  0  0  0  0  0  0  0  0
    3.1502    2.4118    2.4170 H   0  0  0  0  0  0  0  0  0  0  0  0
    2.2917    3.9151    1.9983 H   0  0  0  0  0  0  0  0  0  0  0  0
    0.8275    1.6751    0.8284 C   0  0  2  0  0  0  0  0  0  0  0  0
    0.6224    1.5260    1.9039 H   0  0  0  0  0  0  0  0  0  0  0  0
    2.3219   -0.9128    0.2304 C   0  0  0  0  0  0  0  0  0  0  0  0
    3.5685   -0.8315   -0.4209 C   0  0  0  0  0  0  0  0  0  0  0  0
    3.7127   -0.1406   -1.2626 H   0  0  0  0  0  0  0  0  0  0  0  0
    4.6291   -1.6481   -0.0026 C   0  0  0  0  0  0  0  0  0  0  0  0
    5.5998   -1.5867   -0.5171 H   0  0  0  0  0  0  0  0  0  0  0  0
    4.4505   -2.5437    1.0634 C   0  0  0  0  0  0  0  0  0  0  0  0
    5.2842   -3.1846    1.3879 H   0  0  0  0  0  0  0  0  0  0  0  0
    3.2040   -2.6361    1.7039 C   0  0  0  0  0  0  0  0  0  0  0  0
    3.0554   -3.3531    2.5249 H   0  0  0  0  0  0  0  0  0  0  0  0
    2.1354   -1.8338    1.2835 C   0  0  0  0  0  0  0  0  0  0  0  0
    1.1445   -1.9353    1.7509 H   0  0  0  0  0  0  0  0  0  0  0  0
   -2.9185    2.0306   -0.7090 O   0  0  0  0  0  1  0  0  0  0  0  0
    0.8956    0.1052   -0.2359 P   0  0  2  0  0  0  0  0  0  0  0  0
   -1.8943    1.3518    0.1504 S   0  0  2  0  0  3  0  0  0  0  0  0
  1  3  1  0  0  0  0
  2  1  1  0  0  0  0
  4  1  2  0  0  0  0
  4  5  1  0  0  0  0
  6 38  1  0  0  0  0
  6  7  1  1  0  0  0
  6 23  1  0  0  0  0
  8  6  1  0  0  0  0
  9  8  1  0  0  0  0
 10  8  1  0  0  0  0
 11 12  1  6  0  0  0
 11  8  1  0  0  0  0
 11 13  1  0  0  0  0
 11 37  1  0  0  0  0
 13 18  2  0  0  0  0
 14 17  1  0  0  0  0
 14 13  1  0  0  0  0
 15 14  1  0  0  0  0
 16 14  1  0  0  0  0
 18 23  1  0  0  0  0
 18 19  1  0  0  0  0
 19 22  1  0  0  0  0
 19 21  1  0  0  0  0
 20 19  1  0  0  0  0
 23 24  1  1  0  0  0
 25 34  1  0  0  0  0
 26 28  1  0  0  0  0
 26 25  2  0  0  0  0
 27 26  1  0  0  0  0
 28 30  2  0  0  0  0
 29 28  1  0  0  0  0
 30 31  1  0  0  0  0
 30 32  1  0  0  0  0
 32 33  1  0  0  0  0
 34 32  2  0  0  0  0
 34 35  1  0  0  0  0
 37 25  1  1  0  0  0
 37 23  1  0  0  0  0
 38 36  1  6  0  0  0
 38  4  1  0  0  0  0
M  END
