43,44
 OpenBabel05122313063D

 44 47  0  0  1  0  0  0  0  0999 V2000
    3.3597   -1.9802   -0.1056 C   0  0  0  0  0  0  0  0  0  0  0  0
    3.0295   -2.3992   -1.4053 C   0  0  0  0  0  0  0  0  0  0  0  0
    2.1502   -1.9802   -1.9205 H   0  0  0  0  0  0  0  0  0  0  0  0
    3.8342   -3.3701   -2.0213 C   0  0  0  0  0  0  0  0  0  0  0  0
    3.5965   -3.7103   -3.0401 H   0  0  0  0  0  0  0  0  0  0  0  0
    4.9329   -3.9129   -1.3334 C   0  0  0  0  0  0  0  0  0  0  0  0
    5.5567   -4.6778   -1.8191 H   0  0  0  0  0  0  0  0  0  0  0  0
    5.2310   -3.4966   -0.0245 C   0  0  0  0  0  0  0  0  0  0  0  0
    6.0833   -3.9368    0.5140 H   0  0  0  0  0  0  0  0  0  0  0  0
    4.4380   -2.5261    0.6057 C   0  0  0  0  0  0  0  0  0  0  0  0
    4.6247   -2.2003    1.6403 H   0  0  0  0  0  0  0  0  0  0  0  0
    3.0945    0.8698    0.2685 C   0  0  1  0  0  0  0  0  0  0  0  0
    4.1248    0.8431    0.6733 H   0  0  0  0  0  0  0  0  0  0  0  0
    2.9800    1.1111   -1.2590 C   0  0  0  0  0  0  0  0  0  0  0  0
    2.7221    0.1854   -1.8094 H   0  0  0  0  0  0  0  0  0  0  0  0
    3.9437    1.4717   -1.6675 H   0  0  0  0  0  0  0  0  0  0  0  0
    1.8872    2.2121   -1.4403 C   0  0  2  0  0  0  0  0  0  0  0  0
    1.5090    2.2980   -2.4746 H   0  0  0  0  0  0  0  0  0  0  0  0
    2.1922    1.9335    0.9535 C   0  0  1  0  0  0  0  0  0  0  0  0
    2.0711    1.7758    2.0399 H   0  0  0  0  0  0  0  0  0  0  0  0
    2.6290    3.3251    0.5205 C   0  0  0  0  0  0  0  0  0  0  0  0
    3.1968    4.2786    1.5197 C   0  0  0  0  0  0  0  0  0  0  0  0
    3.4761    5.2463    1.0633 H   0  0  0  0  0  0  0  0  0  0  0  0
    4.1004    3.8583    2.0111 H   0  0  0  0  0  0  0  0  0  0  0  0
    2.4637    4.4792    2.3301 H   0  0  0  0  0  0  0  0  0  0  0  0
    2.7953    4.6647   -1.6764 C   0  0  0  0  0  0  0  0  0  0  0  0
    3.1891    5.5109   -1.0833 H   0  0  0  0  0  0  0  0  0  0  0  0
    1.9176    5.0302   -2.2517 H   0  0  0  0  0  0  0  0  0  0  0  0
    3.5656    4.3900   -2.4294 H   0  0  0  0  0  0  0  0  0  0  0  0
    2.4393    3.4933   -0.8204 C   0  0  0  0  0  0  0  0  0  0  0  0
   -0.6005    2.9075    0.2086 C   0  0  0  0  0  0  0  0  0  0  0  0
   -1.4540    2.6806    1.3095 C   0  0  0  0  0  0  0  0  0  0  0  0
   -1.3290    1.7767    1.9255 H   0  0  0  0  0  0  0  0  0  0  0  0
   -2.4736    3.5956    1.6000 C   0  0  0  0  0  0  0  0  0  0  0  0
   -3.1365    3.4193    2.4598 H   0  0  0  0  0  0  0  0  0  0  0  0
   -2.6569    4.7261    0.7865 C   0  0  0  0  0  0  0  0  0  0  0  0
   -3.4652    5.4381    1.0105 H   0  0  0  0  0  0  0  0  0  0  0  0
   -1.8173    4.9452   -0.3171 C   0  0  0  0  0  0  0  0  0  0  0  0
   -1.9656    5.8270   -0.9578 H   0  0  0  0  0  0  0  0  0  0  0  0
   -0.7866    4.0402   -0.6094 C   0  0  0  0  0  0  0  0  0  0  0  0
   -0.1375    4.2155   -1.4785 H   0  0  0  0  0  0  0  0  0  0  0  0
    2.5509   -0.9410    2.2502 O   0  0  0  0  0  1  0  0  0  0  0  0
    0.6623    1.6551   -0.1278 P   0  0  1  0  0  0  0  0  0  0  0  0
    2.3349   -0.7699    0.7636 S   0  0  2  0  0  3  0  0  0  0  0  0
  1 10  1  0  0  0  0
  1 44  1  0  0  0  0
  2  1  2  0  0  0  0
  3  2  1  0  0  0  0
  4  2  1  0  0  0  0
  4  6  2  0  0  0  0
  5  4  1  0  0  0  0
  6  8  1  0  0  0  0
  7  6  1  0  0  0  0
  8  9  1  0  0  0  0
  8 10  2  0  0  0  0
 10 11  1  0  0  0  0
 12 13  1  1  0  0  0
 12 44  1  0  0  0  0
 12 19  1  0  0  0  0
 14 12  1  0  0  0  0
 15 14  1  0  0  0  0
 16 14  1  0  0  0  0
 17 18  1  6  0  0  0
 17 14  1  0  0  0  0
 17 30  1  0  0  0  0
 17 43  1  0  0  0  0
 19 20  1  1  0  0  0
 21 19  1  0  0  0  0
 21 22  1  0  0  0  0
 22 24  1  0  0  0  0
 22 25  1  0  0  0  0
 23 22  1  0  0  0  0
 26 27  1  0  0  0  0
 26 30  1  0  0  0  0
 28 26  1  0  0  0  0
 29 26  1  0  0  0  0
 30 21  2  0  0  0  0
 31 32  1  0  0  0  0
 32 34  2  0  0  0  0
 32 33  1  0  0  0  0
 34 35  1  0  0  0  0
 36 37  1  0  0  0  0
 36 34  1  0  0  0  0
 38 36  2  0  0  0  0
 39 38  1  0  0  0  0
 40 38  1  0  0  0  0
 40 31  2  0  0  0  0
 41 40  1  0  0  0  0
 43 31  1  1  0  0  0
 43 19  1  0  0  0  0
 44 42  1  1  0  0  0
M  END
