1,2
 OpenBabel05122313063D

 50 51  0  0  0  0  0  0  0  0999 V2000
   -0.6617    2.1791   -0.3836 S   0  0  0  0  0  0  0  0  0  0  0  0
   -0.5702   -1.0947   -0.3542 P   0  0  0  0  0  0  0  0  0  0  0  0
   -3.4263    1.7859    0.4090 C   0  0  0  0  0  0  0  0  0  0  0  0
   -3.4913    2.4374    1.3046 H   0  0  0  0  0  0  0  0  0  0  0  0
   -3.7250    2.4246   -0.4515 H   0  0  0  0  0  0  0  0  0  0  0  0
   -2.0435    1.2204    0.1750 C   0  0  0  0  0  0  0  0  0  0  0  0
   -2.0779   -0.1566    0.1353 C   0  0  0  0  0  0  0  0  0  0  0  0
   -3.4694   -0.6014    0.3561 C   0  0  0  0  0  0  0  0  0  0  0  0
   -4.0663   -1.8763    0.3924 C   0  0  0  0  0  0  0  0  0  0  0  0
   -3.4714   -2.7865    0.2493 H   0  0  0  0  0  0  0  0  0  0  0  0
   -5.4477   -1.9803    0.6217 C   0  0  0  0  0  0  0  0  0  0  0  0
   -5.9162   -2.9756    0.6497 H   0  0  0  0  0  0  0  0  0  0  0  0
   -6.2371   -0.8337    0.8167 C   0  0  0  0  0  0  0  0  0  0  0  0
   -7.3178   -0.9371    0.9960 H   0  0  0  0  0  0  0  0  0  0  0  0
   -5.6536    0.4455    0.7746 C   0  0  0  0  0  0  0  0  0  0  0  0
   -6.2711    1.3458    0.9177 H   0  0  0  0  0  0  0  0  0  0  0  0
   -4.2822    0.5550    0.5331 C   0  0  0  0  0  0  0  0  0  0  0  0
   -0.1206   -2.2712    1.0265 C   0  0  0  0  0  0  0  0  0  0  0  0
    0.8007   -2.7332    0.6098 H   0  0  0  0  0  0  0  0  0  0  0  0
    0.3005   -1.4689    2.2610 C   0  0  0  0  0  0  0  0  0  0  0  0
   -0.5641   -0.9348    2.7079 H   0  0  0  0  0  0  0  0  0  0  0  0
    1.0824   -0.7285    2.0053 H   0  0  0  0  0  0  0  0  0  0  0  0
    0.7191   -2.1511    3.0285 H   0  0  0  0  0  0  0  0  0  0  0  0
   -1.1177   -3.3799    1.3645 C   0  0  0  0  0  0  0  0  0  0  0  0
   -0.6420   -4.0977    2.0649 H   0  0  0  0  0  0  0  0  0  0  0  0
   -1.4418   -3.9577    0.4758 H   0  0  0  0  0  0  0  0  0  0  0  0
   -2.0177   -2.9781    1.8700 H   0  0  0  0  0  0  0  0  0  0  0  0
   -1.2287   -2.1283   -1.7757 C   0  0  0  0  0  0  0  0  0  0  0  0
   -2.1092   -2.6689   -1.3678 H   0  0  0  0  0  0  0  0  0  0  0  0
   -1.6978   -1.1884   -2.8925 C   0  0  0  0  0  0  0  0  0  0  0  0
   -0.8571   -0.5553   -3.2455 H   0  0  0  0  0  0  0  0  0  0  0  0
   -2.5103   -0.5158   -2.5532 H   0  0  0  0  0  0  0  0  0  0  0  0
   -2.0800   -1.7770   -3.7518 H   0  0  0  0  0  0  0  0  0  0  0  0
   -0.2073   -3.1512   -2.2805 C   0  0  0  0  0  0  0  0  0  0  0  0
   -0.6803   -3.8063   -3.0409 H   0  0  0  0  0  0  0  0  0  0  0  0
    0.1850   -3.8041   -1.4752 H   0  0  0  0  0  0  0  0  0  0  0  0
    0.6525   -2.6469   -2.7628 H   0  0  0  0  0  0  0  0  0  0  0  0
   -0.0621    3.1965    1.1339 C   0  0  0  0  0  0  0  0  0  0  0  0
    0.8189    4.2785    0.5016 C   0  0  0  0  0  0  0  0  0  0  0  0
    0.2262    4.9483   -0.1528 H   0  0  0  0  0  0  0  0  0  0  0  0
    1.6389    3.8302   -0.0957 H   0  0  0  0  0  0  0  0  0  0  0  0
    1.2634    4.8901    1.3145 H   0  0  0  0  0  0  0  0  0  0  0  0
   -1.2580    3.8224    1.8509 C   0  0  0  0  0  0  0  0  0  0  0  0
   -0.8720    4.5480    2.5973 H   0  0  0  0  0  0  0  0  0  0  0  0
   -1.8532    3.0707    2.4043 H   0  0  0  0  0  0  0  0  0  0  0  0
   -1.9182    4.3775    1.1553 H   0  0  0  0  0  0  0  0  0  0  0  0
    0.7292    2.2833    2.0659 C   0  0  0  0  0  0  0  0  0  0  0  0
    1.1104    2.8789    2.9226 H   0  0  0  0  0  0  0  0  0  0  0  0
    1.5891    1.8253    1.5394 H   0  0  0  0  0  0  0  0  0  0  0  0
    0.0940    1.4703    2.4673 H   0  0  0  0  0  0  0  0  0  0  0  0
  1  6  1  0  0  0  0
  1 38  1  0  0  0  0
  2  7  1  0  0  0  0
  2 18  1  0  0  0  0
  3 17  1  0  0  0  0
  3  4  1  0  0  0  0
  5  3  1  0  0  0  0
  6  3  1  0  0  0  0
  7  6  2  0  0  0  0
  7  8  1  0  0  0  0
  8  9  2  0  0  0  0
  8 17  1  0  0  0  0
  9 11  1  0  0  0  0
 10  9  1  0  0  0  0
 11 12  1  0  0  0  0
 11 13  2  0  0  0  0
 13 14  1  0  0  0  0
 15 13  1  0  0  0  0
 15 16  1  0  0  0  0
 17 15  2  0  0  0  0
 18 24  1  0  0  0  0
 18 20  1  0  0  0  0
 19 18  1  0  0  0  0
 20 21  1  0  0  0  0
 20 23  1  0  0  0  0
 22 20  1  0  0  0  0
 24 27  1  0  0  0  0
 24 25  1  0  0  0  0
 26 24  1  0  0  0  0
 28 29  1  0  0  0  0
 28  2  1  0  0  0  0
 30 32  1  0  0  0  0
 30 28  1  0  0  0  0
 31 30  1  0  0  0  0
 33 30  1  0  0  0  0
 34 28  1  0  0  0  0
 34 36  1  0  0  0  0
 35 34  1  0  0  0  0
 37 34  1  0  0  0  0
 38 43  1  0  0  0  0
 38 47  1  0  0  0  0
 39 38  1  0  0  0  0
 39 42  1  0  0  0  0
 40 39  1  0  0  0  0
 41 39  1  0  0  0  0
 43 45  1  0  0  0  0
 43 44  1  0  0  0  0
 46 43  1  0  0  0  0
 47 50  1  0  0  0  0
 47 48  1  0  0  0  0
 49 47  1  0  0  0  0
M  END
