1,2
 OpenBabel05122313063D

 41 44  0  0  0  0  0  0  0  0999 V2000
    1.6208    0.7590    0.1447 P   0  0  0  0  0  0  0  0  0  0  0  0
    1.7351   -1.7791   -2.1122 S   0  0  0  0  0  0  0  0  0  0  0  0
    1.7569   -3.4856   -1.7468 C   0  0  0  0  0  0  0  0  0  0  0  0
    0.8811   -4.0862   -2.0181 H   0  0  0  0  0  0  0  0  0  0  0  0
    2.9539   -3.8535   -1.1832 C   0  0  0  0  0  0  0  0  0  0  0  0
    3.1998   -4.8920   -0.9201 H   0  0  0  0  0  0  0  0  0  0  0  0
    3.8392   -2.7421   -0.9520 C   0  0  0  0  0  0  0  0  0  0  0  0
    4.8256   -2.8307   -0.4746 H   0  0  0  0  0  0  0  0  0  0  0  0
    3.3098   -1.5320   -1.3549 C   0  0  0  0  0  0  0  0  0  0  0  0
    3.9016   -0.1863   -1.3336 C   0  0  0  0  0  0  0  0  0  0  0  0
    5.1900   -0.0184   -1.8908 C   0  0  0  0  0  0  0  0  0  0  0  0
    5.6890   -0.8977   -2.3247 H   0  0  0  0  0  0  0  0  0  0  0  0
    5.8070    1.2369   -1.9295 C   0  0  0  0  0  0  0  0  0  0  0  0
    6.8065    1.3445   -2.3770 H   0  0  0  0  0  0  0  0  0  0  0  0
    5.1324    2.3534   -1.4165 C   0  0  0  0  0  0  0  0  0  0  0  0
    5.5961    3.3506   -1.4541 H   0  0  0  0  0  0  0  0  0  0  0  0
    3.8614    2.2017   -0.8441 C   0  0  0  0  0  0  0  0  0  0  0  0
    3.3528    3.0817   -0.4278 H   0  0  0  0  0  0  0  0  0  0  0  0
    3.2329    0.9434   -0.7773 C   0  0  0  0  0  0  0  0  0  0  0  0
    1.6631    3.1022    1.7756 C   0  0  0  0  0  0  0  0  0  0  0  0
    2.2403    2.5088    2.4994 H   0  0  0  0  0  0  0  0  0  0  0  0
    1.3361    4.4357    2.0687 C   0  0  0  0  0  0  0  0  0  0  0  0
    1.6629    4.8789    3.0220 H   0  0  0  0  0  0  0  0  0  0  0  0
    0.5925    5.1989    1.1540 C   0  0  0  0  0  0  0  0  0  0  0  0
    0.3331    6.2427    1.3890 H   0  0  0  0  0  0  0  0  0  0  0  0
    0.1843    4.6255   -0.0626 C   0  0  0  0  0  0  0  0  0  0  0  0
   -0.4018    5.2133   -0.7852 H   0  0  0  0  0  0  0  0  0  0  0  0
    0.5031    3.2924   -0.3603 C   0  0  0  0  0  0  0  0  0  0  0  0
    0.1835    2.8313   -1.3101 H   0  0  0  0  0  0  0  0  0  0  0  0
    1.2393    2.5201    0.5641 C   0  0  0  0  0  0  0  0  0  0  0  0
    3.5040   -0.4229    1.9764 C   0  0  0  0  0  0  0  0  0  0  0  0
    4.2649   -0.3185    1.1907 H   0  0  0  0  0  0  0  0  0  0  0  0
    3.8430   -1.0362    3.1941 C   0  0  0  0  0  0  0  0  0  0  0  0
    4.8663   -1.4134    3.3445 H   0  0  0  0  0  0  0  0  0  0  0  0
    2.8894   -1.1602    4.2163 C   0  0  0  0  0  0  0  0  0  0  0  0
    3.1591   -1.6405    5.1692 H   0  0  0  0  0  0  0  0  0  0  0  0
    1.5909   -0.6640    4.0169 C   0  0  0  0  0  0  0  0  0  0  0  0
    0.8309   -0.7500    4.8081 H   0  0  0  0  0  0  0  0  0  0  0  0
    1.2450   -0.0656    2.7985 C   0  0  0  0  0  0  0  0  0  0  0  0
    0.2221    0.3041    2.6494 H   0  0  0  0  0  0  0  0  0  0  0  0
    2.1982    0.0620    1.7635 C   0  0  0  0  0  0  0  0  0  0  0  0
  1 30  1  0  0  0  0
  1 41  1  0  0  0  0
  2  3  1  0  0  0  0
  2  9  1  0  0  0  0
  3  5  2  0  0  0  0
  4  3  1  0  0  0  0
  5  7  1  0  0  0  0
  5  6  1  0  0  0  0
  7  8  1  0  0  0  0
  9 10  1  0  0  0  0
  9  7  2  0  0  0  0
 10 19  1  0  0  0  0
 11 10  2  0  0  0  0
 12 11  1  0  0  0  0
 13 11  1  0  0  0  0
 13 15  2  0  0  0  0
 14 13  1  0  0  0  0
 15 17  1  0  0  0  0
 16 15  1  0  0  0  0
 17 19  2  0  0  0  0
 17 18  1  0  0  0  0
 19  1  1  0  0  0  0
 20 22  1  0  0  0  0
 20 21  1  0  0  0  0
 22 23  1  0  0  0  0
 24 25  1  0  0  0  0
 24 22  2  0  0  0  0
 26 24  1  0  0  0  0
 27 26  1  0  0  0  0
 28 26  2  0  0  0  0
 28 30  1  0  0  0  0
 29 28  1  0  0  0  0
 30 20  2  0  0  0  0
 31 33  1  0  0  0  0
 32 31  1  0  0  0  0
 33 34  1  0  0  0  0
 33 35  2  0  0  0  0
 35 36  1  0  0  0  0
 37 35  1  0  0  0  0
 37 38  1  0  0  0  0
 39 37  2  0  0  0  0
 40 39  1  0  0  0  0
 41 31  2  0  0  0  0
 41 39  1  0  0  0  0
M  END
