1,3
 OpenBabel05122313063D

 42 44  0  0  0  0  0  0  0  0999 V2000
    1.0207   -2.0321    1.4661 S   0  0  0  0  0  0  0  0  0  0  0  0
    0.9379    3.4983   -1.5202 S   0  0  0  0  0  0  0  0  0  0  0  0
   -1.1232    0.2118    0.6931 P   0  0  0  0  0  0  0  0  0  0  0  0
    2.8284   -1.7209    1.0924 C   0  0  0  0  0  0  0  0  0  0  0  0
    3.3928   -2.1200    1.9577 H   0  0  0  0  0  0  0  0  0  0  0  0
    2.9525   -2.3862    0.2117 H   0  0  0  0  0  0  0  0  0  0  0  0
    3.1480   -0.2853    0.8050 C   0  0  0  0  0  0  0  0  0  0  0  0
    3.7767    0.5154    1.7785 C   0  0  0  0  0  0  0  0  0  0  0  0
    4.1093    0.0613    2.7257 H   0  0  0  0  0  0  0  0  0  0  0  0
    3.9819    1.8869    1.5448 C   0  0  0  0  0  0  0  0  0  0  0  0
    4.4841    2.5035    2.3056 H   0  0  0  0  0  0  0  0  0  0  0  0
    3.5275    2.4710    0.3580 C   0  0  0  0  0  0  0  0  0  0  0  0
    3.6355    3.5548    0.1972 H   0  0  0  0  0  0  0  0  0  0  0  0
    2.8971    1.6862   -0.6337 C   0  0  0  0  0  0  0  0  0  0  0  0
    2.7411    0.3072   -0.4121 C   0  0  0  0  0  0  0  0  0  0  0  0
    2.2619   -0.3249   -1.1789 H   0  0  0  0  0  0  0  0  0  0  0  0
    2.3271    2.3366   -1.8711 C   0  0  0  0  0  0  0  0  0  0  0  0
    1.9816    1.5775   -2.6013 H   0  0  0  0  0  0  0  0  0  0  0  0
    3.0818    2.9759   -2.3736 H   0  0  0  0  0  0  0  0  0  0  0  0
   -0.3672    2.3111   -1.0366 C   0  0  0  0  0  0  0  0  0  0  0  0
   -1.3295    2.8204   -1.2446 H   0  0  0  0  0  0  0  0  0  0  0  0
   -0.3277    1.4434   -1.7300 H   0  0  0  0  0  0  0  0  0  0  0  0
   -0.3050    1.8526    0.4278 C   0  0  0  0  0  0  0  0  0  0  0  0
   -0.7398    2.6075    1.1163 H   0  0  0  0  0  0  0  0  0  0  0  0
    0.7464    1.6939    0.7389 H   0  0  0  0  0  0  0  0  0  0  0  0
   -0.7941   -0.1862    2.4890 C   0  0  0  0  0  0  0  0  0  0  0  0
   -0.9946    0.6987    3.1295 H   0  0  0  0  0  0  0  0  0  0  0  0
   -1.5294   -0.9704    2.7649 H   0  0  0  0  0  0  0  0  0  0  0  0
    0.6384   -0.6735    2.6717 C   0  0  0  0  0  0  0  0  0  0  0  0
    0.8080   -1.0806    3.6887 H   0  0  0  0  0  0  0  0  0  0  0  0
    1.3717    0.1396    2.4922 H   0  0  0  0  0  0  0  0  0  0  0  0
   -2.9271    0.4889    0.6100 C   0  0  0  0  0  0  0  0  0  0  0  0
   -3.5152    1.5587    1.3187 C   0  0  0  0  0  0  0  0  0  0  0  0
   -2.8915    2.2583    1.8978 H   0  0  0  0  0  0  0  0  0  0  0  0
   -4.9051    1.7392    1.2891 C   0  0  0  0  0  0  0  0  0  0  0  0
   -5.3601    2.5747    1.8423 H   0  0  0  0  0  0  0  0  0  0  0  0
   -5.7120    0.8566    0.5518 C   0  0  0  0  0  0  0  0  0  0  0  0
   -6.8027    1.0019    0.5265 H   0  0  0  0  0  0  0  0  0  0  0  0
   -5.1277   -0.2046   -0.1568 C   0  0  0  0  0  0  0  0  0  0  0  0
   -5.7570   -0.8908   -0.7430 H   0  0  0  0  0  0  0  0  0  0  0  0
   -3.7375   -0.3929   -0.1322 C   0  0  0  0  0  0  0  0  0  0  0  0
   -3.2649   -1.1986   -0.7138 H   0  0  0  0  0  0  0  0  0  0  0  0
  1 29  1  0  0  0  0
  2 20  1  0  0  0  0
  3 26  1  0  0  0  0
  4  1  1  0  0  0  0
  4  5  1  0  0  0  0
  6  4  1  0  0  0  0
  7  4  1  0  0  0  0
  7  8  1  0  0  0  0
  8  9  1  0  0  0  0
 10  8  2  0  0  0  0
 10 11  1  0  0  0  0
 12 10  1  0  0  0  0
 13 12  1  0  0  0  0
 14 15  1  0  0  0  0
 14 12  2  0  0  0  0
 15  7  2  0  0  0  0
 16 15  1  0  0  0  0
 17  2  1  0  0  0  0
 17 14  1  0  0  0  0
 18 17  1  0  0  0  0
 19 17  1  0  0  0  0
 20 23  1  0  0  0  0
 21 20  1  0  0  0  0
 22 20  1  0  0  0  0
 23  3  1  0  0  0  0
 23 25  1  0  0  0  0
 23 24  1  0  0  0  0
 26 29  1  0  0  0  0
 26 28  1  0  0  0  0
 26 27  1  0  0  0  0
 29 30  1  0  0  0  0
 31 29  1  0  0  0  0
 32  3  1  0  0  0  0
 32 33  1  0  0  0  0
 33 34  1  0  0  0  0
 35 33  2  0  0  0  0
 35 36  1  0  0  0  0
 37 35  1  0  0  0  0
 38 37  1  0  0  0  0
 39 41  1  0  0  0  0
 39 37  2  0  0  0  0
 40 39  1  0  0  0  0
 41 32  2  0  0  0  0
 42 41  1  0  0  0  0
M  END
