1,23
 OpenBabel05122313063D

 71 77  0  0  0  0  0  0  0  0999 V2000
   -0.1503   -0.2781   -0.1170 P   0  0  0  0  0  0  0  0  0  0  0  0
   -1.5016    0.8050    0.0126 C   0  0  0  0  0  0  0  0  0  0  0  0
   -1.0920    2.1707    0.2124 C   0  0  0  0  0  3  0  0  0  0  0  0
    0.3531    2.3104    0.2486 C   0  0  0  0  0  0  0  0  0  0  0  0
    1.0242    1.0279    0.0781 C   0  0  0  0  0  0  0  0  0  0  0  0
   -1.9133    3.3165    0.3501 C   0  0  0  0  0  0  0  0  0  0  0  0
   -1.3391    4.5765    0.5210 C   0  0  0  0  0  0  0  0  0  0  0  0
    0.0660    4.7174    0.5507 C   0  0  0  0  0  0  0  0  0  0  0  0
    0.9023    3.6060    0.4149 C   0  0  0  0  0  0  0  0  0  0  0  0
   -3.0806    0.0178   -0.0524 P   0  0  0  0  0  4  0  0  0  0  0  0
   -3.9997    0.3439    1.5038 C   0  0  0  0  0  0  0  0  0  0  0  0
   -3.7527   -0.4969    2.6066 C   0  0  0  0  0  0  0  0  0  0  0  0
   -4.3709   -0.2331    3.8363 C   0  0  0  0  0  0  0  0  0  0  0  0
   -5.2410    0.8622    3.9692 C   0  0  0  0  0  0  0  0  0  0  0  0
   -5.4937    1.6957    2.8685 C   0  0  0  0  0  0  0  0  0  0  0  0
   -4.8745    1.4407    1.6351 C   0  0  0  0  0  0  0  0  0  0  0  0
   -4.1009    0.7432   -1.3818 C   0  0  0  0  0  0  0  0  0  0  0  0
   -5.4527    0.3598   -1.5075 C   0  0  0  0  0  0  0  0  0  0  0  0
   -6.2228    0.8584   -2.5663 C   0  0  0  0  0  0  0  0  0  0  0  0
   -5.6493    1.7353   -3.5033 C   0  0  0  0  0  0  0  0  0  0  0  0
   -4.3020    2.1099   -3.3826 C   0  0  0  0  0  0  0  0  0  0  0  0
   -3.5236    1.6138   -2.3256 C   0  0  0  0  0  0  0  0  0  0  0  0
   -2.8384   -1.9895   -0.3611 S   0  0  0  0  0  1  0  0  0  0  0  0
    2.7269    0.6217    0.0392 P   0  0  0  0  0  4  0  0  0  0  0  0
    3.0646   -0.3805   -1.4517 C   0  0  0  0  0  0  0  0  0  0  0  0
    4.0673   -1.3682   -1.4783 C   0  0  0  0  0  0  0  0  0  0  0  0
    4.3085   -2.0790   -2.6622 C   0  0  0  0  0  0  0  0  0  0  0  0
    3.5588   -1.8075   -3.8167 C   0  0  0  0  0  0  0  0  0  0  0  0
    2.5580   -0.8235   -3.7907 C   0  0  0  0  0  0  0  0  0  0  0  0
    2.3066   -0.1104   -2.6112 C   0  0  0  0  0  0  0  0  0  0  0  0
    3.2786   -0.3077    1.5110 C   0  0  0  0  0  0  0  0  0  0  0  0
    4.6525   -0.5405    1.7414 C   0  0  0  0  0  0  0  0  0  0  0  0
    5.0492   -1.3218    2.8351 C   0  0  0  0  0  0  0  0  0  0  0  0
    4.0843   -1.8693    3.6982 C   0  0  0  0  0  0  0  0  0  0  0  0
    2.7215   -1.6179    3.4815 C   0  0  0  0  0  0  0  0  0  0  0  0
    2.3176   -0.8292    2.3951 C   0  0  0  0  0  0  0  0  0  0  0  0
    3.8089    2.0900   -0.0525 C   0  0  0  0  0  0  0  0  0  0  0  0
    4.1327    2.6479   -1.3045 C   0  0  0  0  0  0  0  0  0  0  0  0
    4.8948    3.8234   -1.3658 C   0  0  0  0  0  0  0  0  0  0  0  0
    5.3375    4.4397   -0.1846 C   0  0  0  0  0  0  0  0  0  0  0  0
    5.0218    3.8784    1.0637 C   0  0  0  0  0  0  0  0  0  0  0  0
    4.2580    2.7052    1.1346 C   0  0  0  0  0  0  0  0  0  0  0  0
   -3.0066    3.2047    0.3222 H   0  0  0  0  0  0  0  0  0  0  0  0
   -1.9836    5.4616    0.6322 H   0  0  0  0  0  0  0  0  0  0  0  0
    0.5137    5.7143    0.6830 H   0  0  0  0  0  0  0  0  0  0  0  0
    1.9892    3.7488    0.4399 H   0  0  0  0  0  0  0  0  0  0  0  0
   -3.0844   -1.3633    2.4874 H   0  0  0  0  0  0  0  0  0  0  0  0
   -4.1754   -0.8924    4.6955 H   0  0  0  0  0  0  0  0  0  0  0  0
   -5.7290    1.0640    4.9350 H   0  0  0  0  0  0  0  0  0  0  0  0
   -6.1800    2.5504    2.9677 H   0  0  0  0  0  0  0  0  0  0  0  0
   -5.0830    2.0895    0.7710 H   0  0  0  0  0  0  0  0  0  0  0  0
   -5.8978   -0.3339   -0.7774 H   0  0  0  0  0  0  0  0  0  0  0  0
   -7.2770    0.5578   -2.6642 H   0  0  0  0  0  0  0  0  0  0  0  0
   -6.2569    2.1256   -4.3339 H   0  0  0  0  0  0  0  0  0  0  0  0
   -3.8510    2.7950   -4.1163 H   0  0  0  0  0  0  0  0  0  0  0  0
   -2.4661    1.9004   -2.2238 H   0  0  0  0  0  0  0  0  0  0  0  0
    4.6268   -1.6212   -0.5683 H   0  0  0  0  0  0  0  0  0  0  0  0
    5.0742   -2.8687   -2.6724 H   0  0  0  0  0  0  0  0  0  0  0  0
    3.7415   -2.3803   -4.7383 H   0  0  0  0  0  0  0  0  0  0  0  0
    1.9481   -0.6283   -4.6845 H   0  0  0  0  0  0  0  0  0  0  0  0
    1.4995    0.6366   -2.5734 H   0  0  0  0  0  0  0  0  0  0  0  0
    5.4121   -0.1033    1.0755 H   0  0  0  0  0  0  0  0  0  0  0  0
    6.1191   -1.5060    3.0141 H   0  0  0  0  0  0  0  0  0  0  0  0
    4.4006   -2.4918    4.5487 H   0  0  0  0  0  0  0  0  0  0  0  0
    1.9566   -2.0403    4.1495 H   0  0  0  0  0  0  0  0  0  0  0  0
    1.2517   -0.6224    2.2263 H   0  0  0  0  0  0  0  0  0  0  0  0
    3.7895    2.1620   -2.2299 H   0  0  0  0  0  0  0  0  0  0  0  0
    5.1457    4.2590   -2.3445 H   0  0  0  0  0  0  0  0  0  0  0  0
    5.9356    5.3620   -0.2367 H   0  0  0  0  0  0  0  0  0  0  0  0
    5.3690    4.3591    1.9904 H   0  0  0  0  0  0  0  0  0  0  0  0
    4.0004    2.2713    2.1120 H   0  0  0  0  0  0  0  0  0  0  0  0
  1  2  2  0  0  0  0
  1  5  1  0  0  0  0
  2  3  1  0  0  0  0
  3  4  1  0  0  0  0
  3  6  1  0  0  0  0
  4  9  1  0  0  0  0
  5  4  2  0  0  0  0
  6  7  2  0  0  0  0
  7  8  1  0  0  0  0
  7 44  1  0  0  0  0
  8 45  1  0  0  0  0
  9 46  1  0  0  0  0
  9  8  2  0  0  0  0
 10  2  1  0  0  0  0
 10 11  1  0  0  0  0
 11 16  2  0  0  0  0
 11 12  1  0  0  0  0
 12 13  2  0  0  0  0
 13 14  1  0  0  0  0
 13 48  1  0  0  0  0
 14 49  1  0  0  0  0
 15 50  1  0  0  0  0
 15 14  2  0  0  0  0
 16 15  1  0  0  0  0
 17 10  1  0  0  0  0
 18 17  1  0  0  0  0
 18 52  1  0  0  0  0
 19 18  2  0  0  0  0
 20 21  2  0  0  0  0
 20 19  1  0  0  0  0
 21 22  1  0  0  0  0
 22 56  1  0  0  0  0
 22 17  2  0  0  0  0
 23 10  1  0  0  0  0
 24  5  1  0  0  0  0
 24 31  1  0  0  0  0
 25 24  1  0  0  0  0
 26 25  1  0  0  0  0
 26 57  1  0  0  0  0
 27 26  2  0  0  0  0
 28 29  2  0  0  0  0
 28 27  1  0  0  0  0
 29 30  1  0  0  0  0
 30 61  1  0  0  0  0
 30 25  2  0  0  0  0
 31 32  2  0  0  0  0
 31 36  1  0  0  0  0
 32 33  1  0  0  0  0
 33 63  1  0  0  0  0
 33 34  2  0  0  0  0
 34 64  1  0  0  0  0
 35 34  1  0  0  0  0
 35 65  1  0  0  0  0
 36 35  2  0  0  0  0
 37 24  1  0  0  0  0
 37 42  1  0  0  0  0
 38 37  2  0  0  0  0
 39 38  1  0  0  0  0
 39 40  2  0  0  0  0
 40 41  1  0  0  0  0
 41 42  2  0  0  0  0
 41 70  1  0  0  0  0
 42 71  1  0  0  0  0
 43  6  1  0  0  0  0
 47 12  1  0  0  0  0
 51 16  1  0  0  0  0
 53 19  1  0  0  0  0
 54 20  1  0  0  0  0
 55 21  1  0  0  0  0
 58 27  1  0  0  0  0
 59 28  1  0  0  0  0
 60 29  1  0  0  0  0
 62 32  1  0  0  0  0
 66 36  1  0  0  0  0
 67 38  1  0  0  0  0
 68 39  1  0  0  0  0
 69 40  1  0  0  0  0
M  END
