1,3
 OpenBabel05122313063D

 53 57  0  0  1  0  0  0  0  0999 V2000
    0.2555    1.3035   -0.2457 P   0  0  2  0  0  0  0  0  0  0  0  0
    2.7858   -0.9400    0.0827 P   0  0  1  0  0  4  0  0  0  0  0  0
    1.7193   -1.5256   -1.5371 S   0  0  0  0  0  1  0  0  0  0  0  0
    0.8512    2.0970    1.3686 C   0  0  2  0  0  0  0  0  0  0  0  0
    0.1173    2.2047    2.1872 H   0  0  0  0  0  0  0  0  0  0  0  0
    1.4186    3.4110    0.8404 C   0  0  0  0  0  0  0  0  0  0  0  0
    2.0957    3.1970   -0.3246 C   0  0  0  0  0  0  0  0  0  0  0  0
    2.0347    1.7233   -0.7077 C   0  0  1  0  0  0  0  0  0  0  0  0
    2.3338    1.4778   -1.7423 H   0  0  0  0  0  0  0  0  0  0  0  0
    2.7912    0.9073    0.3724 C   0  0  1  0  0  0  0  0  0  0  0  0
    3.8531    1.2207    0.4139 H   0  0  0  0  0  0  0  0  0  0  0  0
    2.0571    1.1461    1.7466 C   0  0  2  0  0  0  0  0  0  0  0  0
    1.6042   -0.2044    2.3162 C   0  0  0  0  0  0  0  0  0  0  0  0
    2.0169   -1.3197    1.6595 C   0  0  0  0  0  0  0  0  0  0  0  0
    1.7840   -2.3484    1.9709 H   0  0  0  0  0  0  0  0  0  0  0  0
    1.2168    4.6914    1.5833 C   0  0  0  0  0  0  0  0  0  0  0  0
    1.7113    5.5455    1.0839 H   0  0  0  0  0  0  0  0  0  0  0  0
    1.6094    4.6262    2.6205 H   0  0  0  0  0  0  0  0  0  0  0  0
    0.1358    4.9334    1.6717 H   0  0  0  0  0  0  0  0  0  0  0  0
    2.8095    4.1768   -1.1946 C   0  0  0  0  0  0  0  0  0  0  0  0
    2.7875    5.2023   -0.7811 H   0  0  0  0  0  0  0  0  0  0  0  0
    2.3467    4.2047   -2.2050 H   0  0  0  0  0  0  0  0  0  0  0  0
    3.8722    3.8884   -1.3437 H   0  0  0  0  0  0  0  0  0  0  0  0
    2.9945    1.8261    2.7641 C   0  0  0  0  0  0  0  0  0  0  0  0
    2.4669    2.0714    3.7065 H   0  0  0  0  0  0  0  0  0  0  0  0
    3.4034    2.7645    2.3438 H   0  0  0  0  0  0  0  0  0  0  0  0
    3.8442    1.1588    3.0114 H   0  0  0  0  0  0  0  0  0  0  0  0
    0.7221   -0.2444    3.5243 C   0  0  0  0  0  0  0  0  0  0  0  0
   -0.3198    0.0023    3.2218 H   0  0  0  0  0  0  0  0  0  0  0  0
    1.0228    0.4922    4.2949 H   0  0  0  0  0  0  0  0  0  0  0  0
    0.6991   -1.2507    3.9818 H   0  0  0  0  0  0  0  0  0  0  0  0
   -0.8146    2.4794   -1.1344 C   0  0  0  0  0  0  0  0  0  0  0  0
   -1.6215    3.4296   -0.4801 C   0  0  0  0  0  0  0  0  0  0  0  0
   -1.5934    3.5271    0.6146 H   0  0  0  0  0  0  0  0  0  0  0  0
   -2.4756    4.2538   -1.2276 C   0  0  0  0  0  0  0  0  0  0  0  0
   -3.1063    4.9937   -0.7127 H   0  0  0  0  0  0  0  0  0  0  0  0
   -2.5266    4.1357   -2.6253 C   0  0  0  0  0  0  0  0  0  0  0  0
   -3.1971    4.7849   -3.2078 H   0  0  0  0  0  0  0  0  0  0  0  0
   -1.7263    3.1850   -3.2798 C   0  0  0  0  0  0  0  0  0  0  0  0
   -1.7671    3.0879   -4.3750 H   0  0  0  0  0  0  0  0  0  0  0  0
   -0.8783    2.3504   -2.5383 C   0  0  0  0  0  0  0  0  0  0  0  0
   -0.2668    1.5907   -3.0513 H   0  0  0  0  0  0  0  0  0  0  0  0
    4.4939   -1.5461    0.0082 C   0  0  0  0  0  0  0  0  0  0  0  0
    5.2740   -1.5266    1.1839 C   0  0  0  0  0  0  0  0  0  0  0  0
    4.8348   -1.1910    2.1368 H   0  0  0  0  0  0  0  0  0  0  0  0
    6.6083   -1.9531    1.1354 C   0  0  0  0  0  0  0  0  0  0  0  0
    7.2183   -1.9456    2.0508 H   0  0  0  0  0  0  0  0  0  0  0  0
    7.1609   -2.3970   -0.0777 C   0  0  0  0  0  0  0  0  0  0  0  0
    8.2078   -2.7339   -0.1114 H   0  0  0  0  0  0  0  0  0  0  0  0
    6.3807   -2.4190   -1.2451 C   0  0  0  0  0  0  0  0  0  0  0  0
    6.8140   -2.7726   -2.1923 H   0  0  0  0  0  0  0  0  0  0  0  0
    5.0444   -1.9952   -1.2075 C   0  0  0  0  0  0  0  0  0  0  0  0
    4.4214   -2.0178   -2.1150 H   0  0  0  0  0  0  0  0  0  0  0  0
  1 32  1  6  0  0  0
  1  4  1  0  0  0  0
  2  3  1  6  0  0  0
  2 10  1  0  0  0  0
  2 14  1  0  0  0  0
  4 12  1  0  0  0  0
  4  5  1  1  0  0  0
  6  4  1  0  0  0  0
  6 16  1  0  0  0  0
  7  6  2  0  0  0  0
  8  9  1  6  0  0  0
  8  7  1  0  0  0  0
  8  1  1  0  0  0  0
  8 10  1  0  0  0  0
 10 11  1  1  0  0  0
 10 12  1  0  0  0  0
 12 13  1  0  0  0  0
 12 24  1  1  0  0  0
 13 28  1  0  0  0  0
 14 15  1  0  0  0  0
 14 13  2  0  0  0  0
 16 19  1  0  0  0  0
 16 18  1  0  0  0  0
 17 16  1  0  0  0  0
 20 21  1  0  0  0  0
 20  7  1  0  0  0  0
 22 20  1  0  0  0  0
 23 20  1  0  0  0  0
 24 27  1  0  0  0  0
 24 25  1  0  0  0  0
 26 24  1  0  0  0  0
 28 31  1  0  0  0  0
 28 30  1  0  0  0  0
 29 28  1  0  0  0  0
 32 33  1  0  0  0  0
 33 34  1  0  0  0  0
 35 36  1  0  0  0  0
 35 33  2  0  0  0  0
 37 35  1  0  0  0  0
 38 37  1  0  0  0  0
 39 37  2  0  0  0  0
 39 41  1  0  0  0  0
 40 39  1  0  0  0  0
 41 32  2  0  0  0  0
 42 41  1  0  0  0  0
 43  2  1  0  0  0  0
 43 44  1  0  0  0  0
 44 45  1  0  0  0  0
 46 44  2  0  0  0  0
 46 47  1  0  0  0  0
 48 46  1  0  0  0  0
 49 48  1  0  0  0  0
 50 52  1  0  0  0  0
 50 48  2  0  0  0  0
 51 50  1  0  0  0  0
 52 43  2  0  0  0  0
 53 52  1  0  0  0  0
M  END
