2
q = -1.0

  9  8  0  0  0  0  0  0  0  0999 V2000
    3.2384   -0.3829   -0.0003 As  0  0  0  0  0  0  0  0  0  0  0  0
   -0.0439   -0.8234   -0.0013 P   0  0  0  0  0  0  0  0  0  0  0  0
    1.3839    0.5070    0.0007 B   0  0  0  0  0  0  0  0  0  0  0  0
    1.3411    1.1709    1.0282 H   0  0  0  0  0  0  0  0  0  0  0  0
    1.3415    1.1739   -1.0249 H   0  0  0  0  0  0  0  0  0  0  0  0
    0.2628   -1.7328    1.0669 H   0  0  0  0  0  0  0  0  0  0  0  0
    0.2631   -1.7301   -1.0718 H   0  0  0  0  0  0  0  0  0  0  0  0
    3.3631   -1.3876   -1.1479 H   0  0  0  0  0  0  0  0  0  0  0  0
    3.3629   -1.3910    1.1445 H   0  0  0  0  0  0  0  0  0  0  0  0
  1  3  1  0  0  0  0
  1  9  1  0  0  0  0
  2  3  1  0  0  0  0
  2  6  1  0  0  0  0
  3  4  1  0  0  0  0
  5  3  1  0  0  0  0
  7  2  1  0  0  0  0
  8  1  1  0  0  0  0
M  END
