2
q = 0.0, confidence = 0.978

 49 48  0  0  0  0  0  0  0  0999 V2000
   -2.4447   -0.0879    0.1248 As  0  0  0  0  0  4  0  0  0  0  0  0
    0.7441   -0.7427    1.1261 P   0  0  0  0  0  0  0  0  0  0  0  0
   -2.0921   -0.7910   -2.1314 Si  0  0  0  0  0  0  0  0  0  0  0  0
   -3.3899   -1.9532    1.2700 Si  0  0  0  0  0  0  0  0  0  0  0  0
   -3.5988    2.8253    0.2764 N   0  3  0  0  0  0  0  0  0  0  0  0
   -3.2493   -1.5415    3.1079 C   0  0  0  0  0  0  0  0  0  0  0  0
   -2.1889   -1.4318    3.4102 H   0  0  0  0  0  0  0  0  0  0  0  0
   -3.7086   -2.3466    3.7187 H   0  0  0  0  0  0  0  0  0  0  0  0
   -3.7708   -0.5911    3.3404 H   0  0  0  0  0  0  0  0  0  0  0  0
   -2.4206   -3.5273    0.8658 C   0  0  0  0  0  0  0  0  0  0  0  0
   -2.4583   -3.7672   -0.2157 H   0  0  0  0  0  0  0  0  0  0  0  0
   -2.8536   -4.3871    1.4191 H   0  0  0  0  0  0  0  0  0  0  0  0
   -1.3567   -3.4313    1.1604 H   0  0  0  0  0  0  0  0  0  0  0  0
   -3.0922    3.0530    1.6629 C   0  0  0  0  0  0  0  0  0  0  0  0
   -2.2024    2.4201    1.8323 H   0  0  0  0  0  0  0  0  0  0  0  0
   -3.8836    2.7685    2.3787 H   0  0  0  0  0  0  0  0  0  0  0  0
   -2.8271    4.1211    1.7945 H   0  0  0  0  0  0  0  0  0  0  0  0
   -0.5292   -1.8381   -2.2660 C   0  0  0  0  0  0  0  0  0  0  0  0
    0.3677   -1.2546   -1.9812 H   0  0  0  0  0  0  0  0  0  0  0  0
   -0.3953   -2.1706   -3.3168 H   0  0  0  0  0  0  0  0  0  0  0  0
   -0.5705   -2.7407   -1.6253 H   0  0  0  0  0  0  0  0  0  0  0  0
   -2.5547    3.2379   -0.7065 C   0  0  0  0  0  0  0  0  0  0  0  0
   -2.3357    4.3181   -0.5904 H   0  0  0  0  0  0  0  0  0  0  0  0
   -2.9236    3.0368   -1.7268 H   0  0  0  0  0  0  0  0  0  0  0  0
   -1.6339    2.6545   -0.5247 H   0  0  0  0  0  0  0  0  0  0  0  0
   -4.0455    1.2723    0.0739 B   0  0  0  0  0  0  0  0  0  0  0  0
   -3.6155   -1.7911   -2.6468 C   0  0  0  0  0  0  0  0  0  0  0  0
   -3.6951   -2.7437   -2.0863 H   0  0  0  0  0  0  0  0  0  0  0  0
   -3.5476   -2.0387   -3.7271 H   0  0  0  0  0  0  0  0  0  0  0  0
   -4.5469   -1.2118   -2.4852 H   0  0  0  0  0  0  0  0  0  0  0  0
   -0.7618    0.5302    1.1883 B   0  0  0  0  0  0  0  0  0  0  0  0
   -4.8194    3.6561    0.0651 C   0  0  0  0  0  0  0  0  0  0  0  0
   -5.6039    3.3232    0.7678 H   0  0  0  0  0  0  0  0  0  0  0  0
   -5.1788    3.5116   -0.9689 H   0  0  0  0  0  0  0  0  0  0  0  0
   -4.5827    4.7252    0.2395 H   0  0  0  0  0  0  0  0  0  0  0  0
   -5.2029   -2.1508    0.7736 C   0  0  0  0  0  0  0  0  0  0  0  0
   -5.7713   -1.2230    0.9816 H   0  0  0  0  0  0  0  0  0  0  0  0
   -5.6615   -2.9787    1.3542 H   0  0  0  0  0  0  0  0  0  0  0  0
   -5.3099   -2.3848   -0.3033 H   0  0  0  0  0  0  0  0  0  0  0  0
   -1.9506    0.7285   -3.2455 C   0  0  0  0  0  0  0  0  0  0  0  0
   -2.8852    1.3238   -3.2316 H   0  0  0  0  0  0  0  0  0  0  0  0
   -1.7806    0.3903   -4.2896 H   0  0  0  0  0  0  0  0  0  0  0  0
   -1.0966    1.3702   -2.9542 H   0  0  0  0  0  0  0  0  0  0  0  0
   -4.8055    1.0092    0.9993 H   0  0  0  0  0  0  0  0  0  0  0  0
    0.8861   -1.2213    2.4702 H   0  0  0  0  0  0  0  0  0  0  0  0
    0.2659   -1.9804    0.5860 H   0  0  0  0  0  0  0  0  0  0  0  0
   -4.5798    1.1828   -1.0267 H   0  0  0  0  0  0  0  0  0  0  0  0
   -0.3731    1.5825    0.6928 H   0  0  0  0  0  0  0  0  0  0  0  0
   -1.1332    0.6733    2.3489 H   0  0  0  0  0  0  0  0  0  0  0  0
  1 31  1  0  0  0  0
  1  4  1  0  0  0  0
  2 31  1  0  0  0  0
  2 45  1  0  0  0  0
  3  1  1  0  0  0  0
  4  6  1  0  0  0  0
  5 14  1  0  0  0  0
  6  9  1  0  0  0  0
  6  7  1  0  0  0  0
  6  8  1  0  0  0  0
 10 13  1  0  0  0  0
 10  4  1  0  0  0  0
 10 12  1  0  0  0  0
 11 10  1  0  0  0  0
 14 17  1  0  0  0  0
 14 15  1  0  0  0  0
 14 16  1  0  0  0  0
 18  3  1  0  0  0  0
 18 19  1  0  0  0  0
 18 21  1  0  0  0  0
 20 18  1  0  0  0  0
 22 23  1  0  0  0  0
 22 25  1  0  0  0  0
 22  5  1  0  0  0  0
 24 22  1  0  0  0  0
 26  1  1  0  0  0  0
 26  5  1  0  0  0  0
 26 44  1  0  0  0  0
 27 30  1  0  0  0  0
 27  3  1  0  0  0  0
 27 28  1  0  0  0  0
 29 27  1  0  0  0  0
 31 49  1  0  0  0  0
 32 35  1  0  0  0  0
 32  5  1  0  0  0  0
 32 33  1  0  0  0  0
 34 32  1  0  0  0  0
 36 37  1  0  0  0  0
 36  4  1  0  0  0  0
 36 38  1  0  0  0  0
 39 36  1  0  0  0  0
 40 41  1  0  0  0  0
 40 43  1  0  0  0  0
 40  3  1  0  0  0  0
 42 40  1  0  0  0  0
 46  2  1  0  0  0  0
 47 26  1  0  0  0  0
 48 31  1  0  0  0  0
M  CHG  1   5   1
M  ZBO  1   5   0
M  END
