1
q = 0.0, confidence = 0.99

 25 24  0  0  0  0  0  0  0  0999 V2000
    0.2432   -0.8678   -0.0007 P   0  0  0  0  0  0  0  0  0  0  0  0
    3.4373   -0.4451   -0.0003 P   0  0  0  0  0  4  0  0  0  0  0  0
    6.4392    0.0992    0.0001 N   0  3  0  0  0  0  0  0  0  0  0  0
    6.6500   -0.7314   -1.2195 C   0  0  0  0  0  0  0  0  0  0  0  0
    7.6842   -1.1294   -1.2368 H   0  0  0  0  0  0  0  0  0  0  0  0
    6.4699   -0.1063   -2.1121 H   0  0  0  0  0  0  0  0  0  0  0  0
    5.9319   -1.5706   -1.2192 H   0  0  0  0  0  0  0  0  0  0  0  0
    1.7031    0.4304   -0.0002 B   0  0  0  0  0  0  0  0  0  0  0  0
    6.6497   -0.7336    1.2182 C   0  0  0  0  0  0  0  0  0  0  0  0
    5.9319   -1.5732    1.2158 H   0  0  0  0  0  0  0  0  0  0  0  0
    6.4689   -0.1104    2.1118 H   0  0  0  0  0  0  0  0  0  0  0  0
    7.6840   -1.1313    1.2351 H   0  0  0  0  0  0  0  0  0  0  0  0
    4.9589    0.7829    0.0005 B   0  0  0  0  0  0  0  0  0  0  0  0
    7.4268    1.2196    0.0012 C   0  0  0  0  0  0  0  0  0  0  0  0
    8.4589    0.8149    0.0008 H   0  0  0  0  0  0  0  0  0  0  0  0
    7.2608    1.8395    0.8998 H   0  0  0  0  0  0  0  0  0  0  0  0
    7.2608    1.8415   -0.8959 H   0  0  0  0  0  0  0  0  0  0  0  0
    0.5345   -1.7832    1.0676 H   0  0  0  0  0  0  0  0  0  0  0  0
    0.5343   -1.7822   -1.0698 H   0  0  0  0  0  0  0  0  0  0  0  0
    1.6579    1.1018    1.0234 H   0  0  0  0  0  0  0  0  0  0  0  0
    1.6581    1.1024   -1.0233 H   0  0  0  0  0  0  0  0  0  0  0  0
    4.8591    1.4500   -1.0208 H   0  0  0  0  0  0  0  0  0  0  0  0
    4.8590    1.4486    1.0226 H   0  0  0  0  0  0  0  0  0  0  0  0
    3.5424   -1.3800   -1.0820 H   0  0  0  0  0  0  0  0  0  0  0  0
    3.5422   -1.3809    1.0807 H   0  0  0  0  0  0  0  0  0  0  0  0
  1  8  1  0  0  0  0
  1 18  1  0  0  0  0
  2  8  1  0  0  0  0
  2 13  1  0  0  0  0
  2 25  1  0  0  0  0
  3 13  1  0  0  0  0
  3 14  1  0  0  0  0
  3  9  1  0  0  0  0
  4  7  1  0  0  0  0
  4  3  1  0  0  0  0
  5  4  1  0  0  0  0
  6  4  1  0  0  0  0
  8 20  1  0  0  0  0
  9 12  1  0  0  0  0
  9 11  1  0  0  0  0
 10  9  1  0  0  0  0
 13 23  1  0  0  0  0
 14 16  1  0  0  0  0
 15 14  1  0  0  0  0
 17 14  1  0  0  0  0
 19  1  1  0  0  0  0
 21  8  1  0  0  0  0
 22 13  1  0  0  0  0
 24  2  1  0  0  0  0
M  CHG  1   3   1
M  END
