1
q = 0.0, confidence = 0.998

 38 40  0  0  0  0  0  0  0  0999 V2000
    1.7469    0.1668    0.0429 P   0  0  0  0  0  0  0  0  0  0  0  0
    2.4316    0.6641   -1.4183 N   0  0  0  0  0  0  0  0  0  0  0  0
    2.3760   -0.0805   -2.6843 C   0  0  0  0  0  0  0  0  0  0  0  0
    1.4366   -0.6636   -2.7437 H   0  0  0  0  0  0  0  0  0  0  0  0
    3.1981   -0.8270   -2.7429 H   0  0  0  0  0  0  0  0  0  0  0  0
    2.5306    1.0138   -3.7753 C   0  0  0  0  0  0  0  0  0  0  0  0
    3.3514    0.7467   -4.4696 H   0  0  0  0  0  0  0  0  0  0  0  0
    1.6133    1.1123   -4.3887 H   0  0  0  0  0  0  0  0  0  0  0  0
    2.8433    2.3211   -3.0081 C   0  0  0  0  0  0  0  0  0  0  0  0
    1.9245    2.9323   -2.8934 H   0  0  0  0  0  0  0  0  0  0  0  0
    3.6082    2.9483   -3.5070 H   0  0  0  0  0  0  0  0  0  0  0  0
    3.2881    1.8318   -1.6231 C   0  0  0  0  0  0  0  0  0  0  0  0
    4.3664    1.5380   -1.6332 H   0  0  0  0  0  0  0  0  0  0  0  0
    3.1493    2.5787   -0.8190 H   0  0  0  0  0  0  0  0  0  0  0  0
    2.9820   -0.4967    1.0299 N   0  0  0  0  0  0  0  0  0  0  0  0
    4.3280   -0.7437    0.4775 C   0  0  0  0  0  0  0  0  0  0  0  0
    4.8845    0.2057    0.3237 H   0  0  0  0  0  0  0  0  0  0  0  0
    4.2627   -1.2781   -0.4965 H   0  0  0  0  0  0  0  0  0  0  0  0
    4.9829   -1.6404    1.5353 C   0  0  0  0  0  0  0  0  0  0  0  0
    5.8111   -2.2432    1.1134 H   0  0  0  0  0  0  0  0  0  0  0  0
    5.3989   -1.0213    2.3590 H   0  0  0  0  0  0  0  0  0  0  0  0
    3.8058   -2.4854    2.0391 C   0  0  0  0  0  0  0  0  0  0  0  0
    3.9930   -2.9709    3.0170 H   0  0  0  0  0  0  0  0  0  0  0  0
    3.5526   -3.2656    1.2934 H   0  0  0  0  0  0  0  0  0  0  0  0
    2.6550   -1.4736    2.0891 C   0  0  0  0  0  0  0  0  0  0  0  0
    1.6709   -1.9522    1.8915 H   0  0  0  0  0  0  0  0  0  0  0  0
    2.5961   -0.9672    3.0828 H   0  0  0  0  0  0  0  0  0  0  0  0
    1.4653    1.8032    0.8631 C   0  0  0  0  0  0  0  0  0  0  0  0
    0.6287    2.7746    0.2774 C   0  0  0  0  0  0  0  0  0  0  0  0
    0.1482    2.5730   -0.6878 H   0  0  0  0  0  0  0  0  0  0  0  0
    0.4254    4.0104    0.9073 C   0  0  0  0  0  0  0  0  0  0  0  0
   -0.2266    4.7597    0.4328 H   0  0  0  0  0  0  0  0  0  0  0  0
    1.0584    4.2926    2.1300 C   0  0  0  0  0  0  0  0  0  0  0  0
    0.8994    5.2632    2.6242 H   0  0  0  0  0  0  0  0  0  0  0  0
    1.9040    3.3355    2.7116 C   0  0  0  0  0  0  0  0  0  0  0  0
    2.4158    3.5545    3.6613 H   0  0  0  0  0  0  0  0  0  0  0  0
    2.1089    2.0970    2.0801 C   0  0  0  0  0  0  0  0  0  0  0  0
    2.7860    1.3451    2.5115 H   0  0  0  0  0  0  0  0  0  0  0  0
  1 28  1  0  0  0  0
  1 15  1  0  0  0  0
  2  1  1  0  0  0  0
  3  2  1  0  0  0  0
  4  3  1  0  0  0  0
  5  3  1  0  0  0  0
  6  9  1  0  0  0  0
  6  3  1  0  0  0  0
  7  6  1  0  0  0  0
  8  6  1  0  0  0  0
  9 10  1  0  0  0  0
  9 12  1  0  0  0  0
 11  9  1  0  0  0  0
 12  2  1  0  0  0  0
 12 14  1  0  0  0  0
 13 12  1  0  0  0  0
 15 25  1  0  0  0  0
 16 15  1  0  0  0  0
 16 19  1  0  0  0  0
 17 16  1  0  0  0  0
 18 16  1  0  0  0  0
 19 22  1  0  0  0  0
 19 21  1  0  0  0  0
 20 19  1  0  0  0  0
 22 25  1  0  0  0  0
 22 23  1  0  0  0  0
 24 22  1  0  0  0  0
 25 27  1  0  0  0  0
 26 25  1  0  0  0  0
 28 37  1  0  0  0  0
 29 28  2  0  0  0  0
 29 31  1  0  0  0  0
 30 29  1  0  0  0  0
 31 33  2  0  0  0  0
 32 31  1  0  0  0  0
 33 34  1  0  0  0  0
 33 35  1  0  0  0  0
 35 36  1  0  0  0  0
 37 38  1  0  0  0  0
 37 35  2  0  0  0  0
M  END
