1
q = 0.0, confidence = 0.998

 40 40  0  0  0  0  0  0  0  0999 V2000
   -2.3886   -0.2554   -0.1486 P   0  0  0  0  0  0  0  0  0  0  0  0
   -2.9698    1.1768    0.6144 N   0  0  0  0  0  0  0  0  0  0  0  0
   -4.1266    2.0205    0.3290 C   0  0  0  0  0  0  0  0  0  0  0  0
   -5.0345    1.6908    0.8929 H   0  0  0  0  0  0  0  0  0  0  0  0
   -4.3875    2.0150   -0.7438 H   0  0  0  0  0  0  0  0  0  0  0  0
   -3.6633    3.4043    0.8245 C   0  0  0  0  0  0  0  0  0  0  0  0
   -3.1212    3.9242    0.0098 H   0  0  0  0  0  0  0  0  0  0  0  0
   -4.5178    4.0435    1.1226 H   0  0  0  0  0  0  0  0  0  0  0  0
   -2.6956    3.0917    1.9958 C   0  0  0  0  0  0  0  0  0  0  0  0
   -3.0984    3.4194    2.9745 H   0  0  0  0  0  0  0  0  0  0  0  0
   -1.7222    3.5948    1.8449 H   0  0  0  0  0  0  0  0  0  0  0  0
   -2.5228    1.5553    1.9555 C   0  0  0  0  0  0  0  0  0  0  0  0
   -1.4842    1.2045    2.1255 H   0  0  0  0  0  0  0  0  0  0  0  0
   -3.1626    1.0811    2.7411 H   0  0  0  0  0  0  0  0  0  0  0  0
   -2.8107   -0.0529   -2.0072 C   0  0  0  0  0  0  0  0  0  0  0  0
   -2.2888    1.3262   -2.4565 C   0  0  0  0  0  0  0  0  0  0  0  0
   -1.2071    1.4257   -2.2440 H   0  0  0  0  0  0  0  0  0  0  0  0
   -2.8086    2.1742   -1.9732 H   0  0  0  0  0  0  0  0  0  0  0  0
   -2.4320    1.4196   -3.5539 H   0  0  0  0  0  0  0  0  0  0  0  0
   -1.9867   -1.1261   -2.7520 C   0  0  0  0  0  0  0  0  0  0  0  0
   -0.9050   -1.0152   -2.5332 H   0  0  0  0  0  0  0  0  0  0  0  0
   -2.1448   -1.0023   -3.8445 H   0  0  0  0  0  0  0  0  0  0  0  0
   -2.2743   -2.1573   -2.4786 H   0  0  0  0  0  0  0  0  0  0  0  0
   -4.2955   -0.2058   -2.3834 C   0  0  0  0  0  0  0  0  0  0  0  0
   -4.9530    0.5336   -1.8887 H   0  0  0  0  0  0  0  0  0  0  0  0
   -4.6834   -1.2157   -2.1541 H   0  0  0  0  0  0  0  0  0  0  0  0
   -4.4006   -0.0569   -3.4795 H   0  0  0  0  0  0  0  0  0  0  0  0
   -3.4338   -1.6770    0.6307 C   0  0  0  0  0  0  0  0  0  0  0  0
   -3.4675   -2.9528   -0.2268 C   0  0  0  0  0  0  0  0  0  0  0  0
   -4.0357   -2.8187   -1.1675 H   0  0  0  0  0  0  0  0  0  0  0  0
   -3.9797   -3.7524    0.3512 H   0  0  0  0  0  0  0  0  0  0  0  0
   -2.4456   -3.3042   -0.4630 H   0  0  0  0  0  0  0  0  0  0  0  0
   -4.8652   -1.1842    0.9050 C   0  0  0  0  0  0  0  0  0  0  0  0
   -5.3987   -0.8658   -0.0103 H   0  0  0  0  0  0  0  0  0  0  0  0
   -4.8803   -0.3444    1.6258 H   0  0  0  0  0  0  0  0  0  0  0  0
   -5.4475   -2.0166    1.3558 H   0  0  0  0  0  0  0  0  0  0  0  0
   -2.7520   -1.9967    1.9775 C   0  0  0  0  0  0  0  0  0  0  0  0
   -2.6792   -1.1050    2.6306 H   0  0  0  0  0  0  0  0  0  0  0  0
   -1.7351   -2.4028    1.8188 H   0  0  0  0  0  0  0  0  0  0  0  0
   -3.3582   -2.7564    2.5166 H   0  0  0  0  0  0  0  0  0  0  0  0
  1  2  1  0  0  0  0
  1 28  1  0  0  0  0
  2 12  1  0  0  0  0
  3  2  1  0  0  0  0
  3  6  1  0  0  0  0
  3  4  1  0  0  0  0
  5  3  1  0  0  0  0
  6  8  1  0  0  0  0
  6  9  1  0  0  0  0
  7  6  1  0  0  0  0
  9 10  1  0  0  0  0
 11  9  1  0  0  0  0
 12  9  1  0  0  0  0
 12 13  1  0  0  0  0
 12 14  1  0  0  0  0
 15  1  1  0  0  0  0
 16 17  1  0  0  0  0
 16 15  1  0  0  0  0
 16 18  1  0  0  0  0
 19 16  1  0  0  0  0
 20 21  1  0  0  0  0
 20 23  1  0  0  0  0
 20 15  1  0  0  0  0
 22 20  1  0  0  0  0
 24 26  1  0  0  0  0
 24 15  1  0  0  0  0
 24 25  1  0  0  0  0
 27 24  1  0  0  0  0
 28 33  1  0  0  0  0
 28 37  1  0  0  0  0
 29 31  1  0  0  0  0
 29 28  1  0  0  0  0
 30 29  1  0  0  0  0
 32 29  1  0  0  0  0
 33 36  1  0  0  0  0
 33 35  1  0  0  0  0
 34 33  1  0  0  0  0
 37 40  1  0  0  0  0
 37 38  1  0  0  0  0
 39 37  1  0  0  0  0
M  END
