1
q = 0.0, confidence = 0.998

 29 28  0  0  0  0  0  0  0  0999 V2000
   -2.3103    0.2609   -0.1635 P   0  0  0  0  0  0  0  0  0  0  0  0
   -3.2572   -1.1015   -0.2698 O   0  0  0  0  0  0  0  0  0  0  0  0
   -2.7858    1.0103   -1.7964 C   0  0  0  0  0  0  0  0  0  0  0  0
   -3.8854    0.8528   -1.8547 H   0  0  0  0  0  0  0  0  0  0  0  0
   -2.1083    0.2171   -2.9224 C   0  0  0  0  0  0  0  0  0  0  0  0
   -2.4955    0.5530   -3.9064 H   0  0  0  0  0  0  0  0  0  0  0  0
   -2.2894   -0.8704   -2.8240 H   0  0  0  0  0  0  0  0  0  0  0  0
   -1.0105    0.3772   -2.9083 H   0  0  0  0  0  0  0  0  0  0  0  0
   -2.4608    2.5066   -1.8584 C   0  0  0  0  0  0  0  0  0  0  0  0
   -1.3927    2.6937   -1.6268 H   0  0  0  0  0  0  0  0  0  0  0  0
   -3.0657    3.1005   -1.1450 H   0  0  0  0  0  0  0  0  0  0  0  0
   -2.6712    2.8907   -2.8777 H   0  0  0  0  0  0  0  0  0  0  0  0
   -3.1127    1.2887    1.1697 C   0  0  0  0  0  0  0  0  0  0  0  0
   -2.6458    2.2862    1.0235 H   0  0  0  0  0  0  0  0  0  0  0  0
   -2.6942    0.7836    2.5575 C   0  0  0  0  0  0  0  0  0  0  0  0
   -3.0803    1.4694    3.3396 H   0  0  0  0  0  0  0  0  0  0  0  0
   -1.5906    0.7519    2.6471 H   0  0  0  0  0  0  0  0  0  0  0  0
   -3.0985   -0.2261    2.7722 H   0  0  0  0  0  0  0  0  0  0  0  0
   -4.6312    1.3683    0.9920 C   0  0  0  0  0  0  0  0  0  0  0  0
   -5.0921    0.3605    1.0262 H   0  0  0  0  0  0  0  0  0  0  0  0
   -4.9199    1.8363    0.0298 H   0  0  0  0  0  0  0  0  0  0  0  0
   -5.0778    1.9763    1.8059 H   0  0  0  0  0  0  0  0  0  0  0  0
   -3.1211   -2.1894    0.6659 C   0  0  0  0  0  0  0  0  0  0  0  0
   -3.8415   -2.0274    1.4997 H   0  0  0  0  0  0  0  0  0  0  0  0
   -2.0916   -2.1980    1.0838 H   0  0  0  0  0  0  0  0  0  0  0  0
   -3.4102   -3.4897   -0.0565 C   0  0  0  0  0  0  0  0  0  0  0  0
   -4.4140   -3.4661   -0.5259 H   0  0  0  0  0  0  0  0  0  0  0  0
   -3.3779   -4.3378    0.6570 H   0  0  0  0  0  0  0  0  0  0  0  0
   -2.6471   -3.6590   -0.8406 H   0  0  0  0  0  0  0  0  0  0  0  0
  1 13  1  0  0  0  0
  2  1  1  0  0  0  0
  2 23  1  0  0  0  0
  3  1  1  0  0  0  0
  4  3  1  0  0  0  0
  5  8  1  0  0  0  0
  5  7  1  0  0  0  0
  5  3  1  0  0  0  0
  6  5  1  0  0  0  0
  9  3  1  0  0  0  0
  9 10  1  0  0  0  0
  9 11  1  0  0  0  0
 12  9  1  0  0  0  0
 13 15  1  0  0  0  0
 14 13  1  0  0  0  0
 15 17  1  0  0  0  0
 15 18  1  0  0  0  0
 15 16  1  0  0  0  0
 19 20  1  0  0  0  0
 19 13  1  0  0  0  0
 19 22  1  0  0  0  0
 21 19  1  0  0  0  0
 23 25  1  0  0  0  0
 23 24  1  0  0  0  0
 26 28  1  0  0  0  0
 26 23  1  0  0  0  0
 27 26  1  0  0  0  0
 29 26  1  0  0  0  0
M  END
