1
q = -1.0

 26 28  0  0  1  0  0  0  0  0999 V2000
    1.3663   -0.2109   -0.0005 P   0  0  2  0  0  0  0  0  0  0  0  0
    2.4753    1.3154   -0.0009 C   0  0  0  0  0  0  0  0  0  0  0  0
    2.2365    1.9352   -0.8889 H   0  0  0  0  0  0  0  0  0  0  0  0
    2.2357    1.9361    0.8864 H   0  0  0  0  0  0  0  0  0  0  0  0
    2.2410   -1.0884    1.4139 C   0  0  0  0  0  0  0  0  0  0  0  0
    1.9956   -0.5708    2.3638 H   0  0  0  0  0  0  0  0  0  0  0  0
    1.8201   -2.1123    1.4692 H   0  0  0  0  0  0  0  0  0  0  0  0
    2.2421   -1.0898   -1.4134 C   0  0  0  0  0  0  0  0  0  0  0  0
    1.8212   -2.1138   -1.4678 H   0  0  0  0  0  0  0  0  0  0  0  0
    1.9975   -0.5734   -2.3640 H   0  0  0  0  0  0  0  0  0  0  0  0
    4.3222    0.1337    1.2518 C   0  0  0  0  0  0  0  0  0  0  0  0
    5.4279    0.0429    1.2247 H   0  0  0  0  0  0  0  0  0  0  0  0
    4.0086    0.7280    2.1329 H   0  0  0  0  0  0  0  0  0  0  0  0
    4.0780   -1.8669    0.0014 C   0  0  0  0  0  0  0  0  0  0  0  0
    5.1777   -2.0196    0.0020 H   0  0  0  0  0  0  0  0  0  0  0  0
    3.5786   -2.8533    0.0018 H   0  0  0  0  0  0  0  0  0  0  0  0
    3.7003   -1.1355   -1.2140 N   0  0  2  0  0  0  0  0  0  0  0  0
    3.6993   -1.1342    1.2159 N   0  0  2  0  0  0  0  0  0  0  0  0
    4.7475    2.2634   -0.0005 C   0  0  0  0  0  0  0  0  0  0  0  0
    5.8296    2.0294    0.0002 H   0  0  0  0  0  0  0  0  0  0  0  0
    4.4902    2.8524    0.8999 H   0  0  0  0  0  0  0  0  0  0  0  0
    4.4911    2.8514   -0.9018 H   0  0  0  0  0  0  0  0  0  0  0  0
    4.3232    0.1324   -1.2508 C   0  0  0  0  0  0  0  0  0  0  0  0
    4.0103    0.7258   -2.1329 H   0  0  0  0  0  0  0  0  0  0  0  0
    5.4288    0.0416   -1.2228 H   0  0  0  0  0  0  0  0  0  0  0  0
    3.9615    1.0081   -0.0001 N   0  3  2  0  0  0  0  0  0  0  0  0
  1  8  1  6  0  0  0
  1  5  1  0  0  0  0
  2  1  1  0  0  0  0
  2 26  1  0  0  0  0
  2  4  1  0  0  0  0
  3  2  1  0  0  0  0
  5  7  1  0  0  0  0
  5  6  1  0  0  0  0
  9  8  1  0  0  0  0
 10  8  1  0  0  0  0
 11 13  1  0  0  0  0
 12 11  1  0  0  0  0
 14 16  1  0  0  0  0
 14 15  1  0  0  0  0
 17  8  1  1  0  0  0
 17 14  1  0  0  0  0
 18 14  1  6  0  0  0
 18 11  1  0  0  0  0
 18  5  1  0  0  0  0
 19 20  1  0  0  0  0
 19 21  1  0  0  0  0
 22 19  1  0  0  0  0
 23 25  1  0  0  0  0
 23 17  1  0  0  0  0
 23 26  1  0  0  0  0
 24 23  1  0  0  0  0
 26 19  1  6  0  0  0
 26 11  1  0  0  0  0
M  CHG  1  26   1
M  END
