1
q = 0.0, confidence = 0.996

 55 55  0  0  1  0  0  0  0  0999 V2000
    0.0258    0.4450   -0.3448 P   0  0  1  0  0  0  0  0  0  0  0  0
   -1.2092    0.3065   -2.1705 P   0  0  0  0  0  2  0  0  0  0  0  0
    0.6960    3.4013   -1.0464 Si  0  0  0  0  0  0  0  0  0  0  0  0
   -1.3466    2.7965    1.4283 Si  0  0  0  0  0  0  0  0  0  0  0  0
   -3.9411   -1.6199   -0.9518 Si  0  0  0  0  0  0  0  0  0  0  0  0
   -2.5877   -0.9253    0.0865 N   0  0  0  0  0  0  0  0  0  0  0  0
    0.0911    2.1816    0.3234 C   0  0  0  0  0  0  0  0  0  0  0  0
    0.9501    2.1265    1.0312 H   0  0  0  0  0  0  0  0  0  0  0  0
   -0.7780    4.1358   -1.9792 C   0  0  0  0  0  0  0  0  0  0  0  0
   -1.4240    4.7556   -1.3261 H   0  0  0  0  0  0  0  0  0  0  0  0
   -1.4007    3.3272   -2.4139 H   0  0  0  0  0  0  0  0  0  0  0  0
   -0.4204    4.7778   -2.8105 H   0  0  0  0  0  0  0  0  0  0  0  0
    1.8383    2.5422   -2.2863 C   0  0  0  0  0  0  0  0  0  0  0  0
    2.1962    3.2966   -3.0180 H   0  0  0  0  0  0  0  0  0  0  0  0
    1.3444    1.7309   -2.8550 H   0  0  0  0  0  0  0  0  0  0  0  0
    2.7294    2.1169   -1.7835 H   0  0  0  0  0  0  0  0  0  0  0  0
    1.7357    4.7491   -0.2172 C   0  0  0  0  0  0  0  0  0  0  0  0
    2.1736    5.4099   -0.9940 H   0  0  0  0  0  0  0  0  0  0  0  0
    2.5760    4.2869    0.3415 H   0  0  0  0  0  0  0  0  0  0  0  0
    1.1591    5.3824    0.4829 H   0  0  0  0  0  0  0  0  0  0  0  0
   -3.0393    2.5816    0.6112 C   0  0  0  0  0  0  0  0  0  0  0  0
   -3.8256    2.9784    1.2868 H   0  0  0  0  0  0  0  0  0  0  0  0
   -3.2770    1.5267    0.3828 H   0  0  0  0  0  0  0  0  0  0  0  0
   -3.0851    3.1511   -0.3382 H   0  0  0  0  0  0  0  0  0  0  0  0
   -1.2146    1.9003    3.0949 C   0  0  0  0  0  0  0  0  0  0  0  0
   -2.1022    2.0965    3.7307 H   0  0  0  0  0  0  0  0  0  0  0  0
   -0.3246    2.2826    3.6370 H   0  0  0  0  0  0  0  0  0  0  0  0
   -1.0919    0.8045    3.0054 H   0  0  0  0  0  0  0  0  0  0  0  0
   -1.1480    4.6399    1.8292 C   0  0  0  0  0  0  0  0  0  0  0  0
   -1.2385    5.2900    0.9369 H   0  0  0  0  0  0  0  0  0  0  0  0
   -0.1751    4.8517    2.3163 H   0  0  0  0  0  0  0  0  0  0  0  0
   -1.9489    4.9331    2.5403 H   0  0  0  0  0  0  0  0  0  0  0  0
   -1.6460   -0.2439   -0.5921 C   0  0  1  0  0  3  0  0  0  0  0  0
   -5.3324   -2.3437    0.0948 C   0  0  0  0  0  0  0  0  0  0  0  0
   -5.0074   -3.1440    0.7867 H   0  0  0  0  0  0  0  0  0  0  0  0
   -6.0611   -2.7939   -0.6122 H   0  0  0  0  0  0  0  0  0  0  0  0
   -5.8694   -1.5673    0.6743 H   0  0  0  0  0  0  0  0  0  0  0  0
   -4.6586   -0.2080   -1.9694 C   0  0  0  0  0  0  0  0  0  0  0  0
   -5.0039    0.6175   -1.3144 H   0  0  0  0  0  0  0  0  0  0  0  0
   -5.5342   -0.5845   -2.5382 H   0  0  0  0  0  0  0  0  0  0  0  0
   -3.9361    0.2122   -2.6962 H   0  0  0  0  0  0  0  0  0  0  0  0
   -3.1533   -2.9492   -2.0225 C   0  0  0  0  0  0  0  0  0  0  0  0
   -2.2919   -2.5420   -2.5889 H   0  0  0  0  0  0  0  0  0  0  0  0
   -3.8882   -3.3490   -2.7510 H   0  0  0  0  0  0  0  0  0  0  0  0
   -2.7802   -3.7894   -1.4039 H   0  0  0  0  0  0  0  0  0  0  0  0
   -2.3277   -1.2844    1.5086 C   0  0  0  0  0  0  0  0  0  0  0  0
   -1.3883   -0.7500    1.7546 H   0  0  0  0  0  0  0  0  0  0  0  0
   -3.4196   -0.7734    2.4519 C   0  0  0  0  0  0  0  0  0  0  0  0
   -3.6191    0.3026    2.2924 H   0  0  0  0  0  0  0  0  0  0  0  0
   -3.0905   -0.9057    3.5017 H   0  0  0  0  0  0  0  0  0  0  0  0
   -4.3680   -1.3291    2.3289 H   0  0  0  0  0  0  0  0  0  0  0  0
   -2.0607   -2.7822    1.6837 C   0  0  0  0  0  0  0  0  0  0  0  0
   -2.9707   -3.3884    1.5029 H   0  0  0  0  0  0  0  0  0  0  0  0
   -1.7246   -2.9810    2.7205 H   0  0  0  0  0  0  0  0  0  0  0  0
   -1.2702   -3.1319    0.9957 H   0  0  0  0  0  0  0  0  0  0  0  0
  1  7  1  1  0  0  0
  2 33  1  0  0  0  0
  2  1  1  0  0  0  0
  3 17  1  0  0  0  0
  3  7  1  0  0  0  0
  4 29  1  0  0  0  0
  4 25  1  0  0  0  0
  5  6  1  0  0  0  0
  5 34  1  0  0  0  0
  6 46  1  0  0  0  0
  7  8  1  0  0  0  0
  7  4  1  0  0  0  0
  9 10  1  0  0  0  0
  9  3  1  0  0  0  0
 11  9  1  0  0  0  0
 12  9  1  0  0  0  0
 13 16  1  0  0  0  0
 13  3  1  0  0  0  0
 14 13  1  0  0  0  0
 15 13  1  0  0  0  0
 17 19  1  0  0  0  0
 17 20  1  0  0  0  0
 18 17  1  0  0  0  0
 21 22  1  0  0  0  0
 21  4  1  0  0  0  0
 23 21  1  0  0  0  0
 24 21  1  0  0  0  0
 25 27  1  0  0  0  0
 25 26  1  0  0  0  0
 28 25  1  0  0  0  0
 29 31  1  0  0  0  0
 29 32  1  0  0  0  0
 30 29  1  0  0  0  0
 33  1  1  0  0  0  0
 33  6  1  6  0  0  0
 34 37  1  0  0  0  0
 34 35  1  0  0  0  0
 36 34  1  0  0  0  0
 38 39  1  0  0  0  0
 38  5  1  0  0  0  0
 40 38  1  0  0  0  0
 41 38  1  0  0  0  0
 42 45  1  0  0  0  0
 42  5  1  0  0  0  0
 43 42  1  0  0  0  0
 44 42  1  0  0  0  0
 46 52  1  0  0  0  0
 46 47  1  0  0  0  0
 46 48  1  0  0  0  0
 48 50  1  0  0  0  0
 49 48  1  0  0  0  0
 51 48  1  0  0  0  0
 52 54  1  0  0  0  0
 53 52  1  0  0  0  0
 55 52  1  0  0  0  0
M  END
