1
q = 0.0, confidence = 0.994

 28 27  0  0  0  0  0  0  0  0999 V2000
    2.1614    0.1665   -0.4702 P   0  0  0  0  0  0  0  0  0  0  0  0
    3.0355   -1.5485   -0.6412 C   0  0  0  0  0  0  0  0  0  0  0  0
    2.7698   -2.0413   -1.8892 F   0  0  0  0  0  0  0  0  0  0  0  0
    4.3869   -1.4537   -0.5201 F   0  0  0  0  0  0  0  0  0  0  0  0
    2.5262   -2.6334    0.3660 C   0  0  0  0  0  0  0  0  0  0  0  0
    1.3112   -3.0685    0.0011 F   0  0  0  0  0  0  0  0  0  0  0  0
    2.4554   -2.1504    1.6173 F   0  0  0  0  0  0  0  0  0  0  0  0
    3.3753   -3.6764    0.3577 F   0  0  0  0  0  0  0  0  0  0  0  0
    3.3532    0.9787    0.8400 C   0  0  0  0  0  0  0  0  0  0  0  0
    4.3475    1.7051    0.2475 F   0  0  0  0  0  0  0  0  0  0  0  0
    3.9410    0.0309    1.6147 F   0  0  0  0  0  0  0  0  0  0  0  0
    2.6179    1.9455    1.8220 C   0  0  0  0  0  0  0  0  0  0  0  0
    1.8826    2.8516    1.1534 F   0  0  0  0  0  0  0  0  0  0  0  0
    1.8202    1.2551    2.6524 F   0  0  0  0  0  0  0  0  0  0  0  0
    3.5298    2.6024    2.5603 F   0  0  0  0  0  0  0  0  0  0  0  0
    2.5297    1.0256   -2.1315 C   0  0  0  0  0  0  0  0  0  0  0  0
    2.2516    2.5271   -1.9241 C   0  0  0  0  0  0  0  0  0  0  0  0
    1.2300    2.6965   -1.5316 H   0  0  0  0  0  0  0  0  0  0  0  0
    2.9817    3.0071   -1.2474 H   0  0  0  0  0  0  0  0  0  0  0  0
    2.3243    3.0283   -2.9121 H   0  0  0  0  0  0  0  0  0  0  0  0
    3.9576    0.7898   -2.6493 C   0  0  0  0  0  0  0  0  0  0  0  0
    4.7279    1.1412   -1.9402 H   0  0  0  0  0  0  0  0  0  0  0  0
    4.1452   -0.2755   -2.8770 H   0  0  0  0  0  0  0  0  0  0  0  0
    4.0807    1.3589   -3.5949 H   0  0  0  0  0  0  0  0  0  0  0  0
    1.4906    0.4671   -3.1271 C   0  0  0  0  0  0  0  0  0  0  0  0
    0.4573    0.6317   -2.7631 H   0  0  0  0  0  0  0  0  0  0  0  0
    1.6156    1.0005   -4.0931 H   0  0  0  0  0  0  0  0  0  0  0  0
    1.6236   -0.6141   -3.3114 H   0  0  0  0  0  0  0  0  0  0  0  0
  1  9  1  0  0  0  0
  2  4  1  0  0  0  0
  2  1  1  0  0  0  0
  2  5  1  0  0  0  0
  3  2  1  0  0  0  0
  5  7  1  0  0  0  0
  6  5  1  0  0  0  0
  8  5  1  0  0  0  0
  9 11  1  0  0  0  0
  9 12  1  0  0  0  0
 10  9  1  0  0  0  0
 12 15  1  0  0  0  0
 12 14  1  0  0  0  0
 13 12  1  0  0  0  0
 16 17  1  0  0  0  0
 16  1  1  0  0  0  0
 17 18  1  0  0  0  0
 17 19  1  0  0  0  0
 20 17  1  0  0  0  0
 21 16  1  0  0  0  0
 21 22  1  0  0  0  0
 23 21  1  0  0  0  0
 24 21  1  0  0  0  0
 25 26  1  0  0  0  0
 25 16  1  0  0  0  0
 27 25  1  0  0  0  0
 28 25  1  0  0  0  0
M  END
