1
q = 0.0, confidence = 0.998

 36 36  0  0  0  0  0  0  0  0999 V2000
    0.4675   -0.4484    0.6747 P   0  0  1  0  0  0  0  0  0  0  0  0
    3.2040   -1.2433   -0.7036 Si  0  0  0  0  0  0  0  0  0  0  0  0
    2.5473    1.8501    0.2217 Si  0  0  0  0  0  0  0  0  0  0  0  0
    0.7026   -2.1205    1.0374 O   0  0  0  0  0  0  0  0  0  0  0  0
    0.7941   -1.9130    2.4723 C   0  0  0  0  0  0  0  0  0  0  0  0
    1.6853   -2.4355    2.8807 H   0  0  0  0  0  0  0  0  0  0  0  0
   -0.1125   -2.3099    2.9771 H   0  0  0  0  0  0  0  0  0  0  0  0
    0.8826   -0.3749    2.4972 C   0  0  0  0  0  0  0  0  0  0  0  0
    1.8979    0.0155    2.6975 H   0  0  0  0  0  0  0  0  0  0  0  0
    0.1429    0.1577    3.1230 H   0  0  0  0  0  0  0  0  0  0  0  0
    1.8878    0.1158   -0.3225 C   0  0  0  0  0  0  0  0  0  0  0  0
    1.4400    0.3231   -1.3208 H   0  0  0  0  0  0  0  0  0  0  0  0
    4.0233   -1.9349    0.8535 C   0  0  0  0  0  0  0  0  0  0  0  0
    4.4099   -1.1421    1.5230 H   0  0  0  0  0  0  0  0  0  0  0  0
    3.3139   -2.5674    1.4208 H   0  0  0  0  0  0  0  0  0  0  0  0
    4.8815   -2.5742    0.5598 H   0  0  0  0  0  0  0  0  0  0  0  0
    2.3587   -2.6280   -1.6682 C   0  0  0  0  0  0  0  0  0  0  0  0
    1.8487   -2.2398   -2.5736 H   0  0  0  0  0  0  0  0  0  0  0  0
    3.1034   -3.3829   -1.9954 H   0  0  0  0  0  0  0  0  0  0  0  0
    1.6024   -3.1314   -1.0345 H   0  0  0  0  0  0  0  0  0  0  0  0
    4.5341   -0.4705   -1.8123 C   0  0  0  0  0  0  0  0  0  0  0  0
    4.0932   -0.0363   -2.7327 H   0  0  0  0  0  0  0  0  0  0  0  0
    5.1176    0.3220   -1.3029 H   0  0  0  0  0  0  0  0  0  0  0  0
    5.2470   -1.2617   -2.1254 H   0  0  0  0  0  0  0  0  0  0  0  0
    4.0555    1.7061    1.3592 C   0  0  0  0  0  0  0  0  0  0  0  0
    4.9045    1.1874    0.8720 H   0  0  0  0  0  0  0  0  0  0  0  0
    4.3972    2.7252    1.6356 H   0  0  0  0  0  0  0  0  0  0  0  0
    3.8232    1.1690    2.3012 H   0  0  0  0  0  0  0  0  0  0  0  0
    2.9935    2.7977   -1.3500 C   0  0  0  0  0  0  0  0  0  0  0  0
    2.0946    2.9162   -1.9891 H   0  0  0  0  0  0  0  0  0  0  0  0
    3.3597    3.8122   -1.0891 H   0  0  0  0  0  0  0  0  0  0  0  0
    3.7797    2.2918   -1.9430 H   0  0  0  0  0  0  0  0  0  0  0  0
    1.2203    2.8462    1.1357 C   0  0  0  0  0  0  0  0  0  0  0  0
    0.3282    3.0177    0.5027 H   0  0  0  0  0  0  0  0  0  0  0  0
    0.8826    2.3796    2.0816 H   0  0  0  0  0  0  0  0  0  0  0  0
    1.6430    3.8403    1.3921 H   0  0  0  0  0  0  0  0  0  0  0  0
  1 11  1  6  0  0  0
  1  4  1  0  0  0  0
  1  8  1  0  0  0  0
  2 11  1  0  0  0  0
  2 13  1  0  0  0  0
  3 33  1  0  0  0  0
  3 25  1  0  0  0  0
  4  5  1  0  0  0  0
  5  8  1  0  0  0  0
  5  6  1  0  0  0  0
  5  7  1  0  0  0  0
  8  9  1  0  0  0  0
  8 10  1  0  0  0  0
 11  3  1  0  0  0  0
 12 11  1  0  0  0  0
 13 15  1  0  0  0  0
 13 14  1  0  0  0  0
 16 13  1  0  0  0  0
 17 20  1  0  0  0  0
 17  2  1  0  0  0  0
 18 17  1  0  0  0  0
 19 17  1  0  0  0  0
 21 23  1  0  0  0  0
 21  2  1  0  0  0  0
 22 21  1  0  0  0  0
 24 21  1  0  0  0  0
 25 27  1  0  0  0  0
 25 28  1  0  0  0  0
 26 25  1  0  0  0  0
 29 31  1  0  0  0  0
 29  3  1  0  0  0  0
 30 29  1  0  0  0  0
 32 29  1  0  0  0  0
 33 36  1  0  0  0  0
 33 35  1  0  0  0  0
 34 33  1  0  0  0  0
M  END
