1
q = 0.0, confidence = 0.996

 38 40  0  0  1  0  0  0  0  0999 V2000
    1.1935    0.5910    0.0914 P   0  0  2  0  0  0  0  0  0  0  0  0
    3.4198   -2.7420   -2.6996 O   0  0  0  0  0  0  0  0  0  0  0  0
    4.1513   -2.8836   -0.5609 O   0  0  0  0  0  0  0  0  0  0  0  0
    1.8605    2.3352    2.1332 C   0  0  0  0  0  0  0  0  0  0  0  0
    2.1743    3.5782    2.7004 C   0  0  0  0  0  0  0  0  0  0  0  0
    2.2409    4.7283    1.8956 C   0  0  0  0  0  0  0  0  0  0  0  0
    1.9960    4.6350    0.5166 C   0  0  0  0  0  0  0  0  0  0  0  0
    1.6957    3.3925   -0.0627 C   0  0  0  0  0  0  0  0  0  0  0  0
    1.6326    2.2381    0.7428 C   0  0  0  0  0  0  0  0  0  0  0  0
    2.7672   -0.4180   -0.0855 C   0  0  2  0  0  0  0  0  0  0  0  0
    3.5867    0.4505   -1.0243 C   0  0  0  0  0  0  0  0  0  0  0  0
    2.7867    0.9902   -1.9897 C   0  0  0  0  0  0  0  0  0  0  0  0
    1.3398    0.5596   -1.7857 C   0  0  1  0  0  0  0  0  0  0  0  0
    1.2544   -0.9837   -1.9926 C   0  0  0  0  0  0  0  0  0  0  0  0
    2.1829   -1.6141   -0.9174 C   0  0  1  0  0  0  0  0  0  0  0  0
    5.0644    0.5820   -0.8464 C   0  0  0  0  0  0  0  0  0  0  0  0
    3.1793    1.8163   -3.1719 C   0  0  0  0  0  0  0  0  0  0  0  0
    3.2913   -2.4619   -1.5225 C   0  0  0  0  0  0  0  0  0  0  0  0
    5.2363   -3.6969   -1.0218 C   0  0  0  0  0  0  0  0  0  0  0  0
    1.7803    1.4276    2.7560 H   0  0  0  0  0  0  0  0  0  0  0  0
    2.3597    3.6506    3.7829 H   0  0  0  0  0  0  0  0  0  0  0  0
    2.4790    5.7037    2.3468 H   0  0  0  0  0  0  0  0  0  0  0  0
    2.0411    5.5350   -0.1152 H   0  0  0  0  0  0  0  0  0  0  0  0
    1.5103    3.3242   -1.1445 H   0  0  0  0  0  0  0  0  0  0  0  0
    3.2352   -0.7291    0.8623 H   0  0  0  0  0  0  0  0  0  0  0  0
    0.5836    1.1219   -2.3617 H   0  0  0  0  0  0  0  0  0  0  0  0
    1.6044   -1.2592   -3.0066 H   0  0  0  0  0  0  0  0  0  0  0  0
    0.2087   -1.3296   -1.8739 H   0  0  0  0  0  0  0  0  0  0  0  0
    1.6156   -2.2618   -0.2139 H   0  0  0  0  0  0  0  0  0  0  0  0
    5.2965    1.0341    0.1423 H   0  0  0  0  0  0  0  0  0  0  0  0
    5.5320    1.2090   -1.6293 H   0  0  0  0  0  0  0  0  0  0  0  0
    5.5579   -0.4133   -0.8556 H   0  0  0  0  0  0  0  0  0  0  0  0
    2.6249    2.7799   -3.1975 H   0  0  0  0  0  0  0  0  0  0  0  0
    2.9352    1.2908   -4.1209 H   0  0  0  0  0  0  0  0  0  0  0  0
    4.2616    2.0471   -3.1818 H   0  0  0  0  0  0  0  0  0  0  0  0
    5.8171   -3.9710   -0.1233 H   0  0  0  0  0  0  0  0  0  0  0  0
    5.8721   -3.1371   -1.7378 H   0  0  0  0  0  0  0  0  0  0  0  0
    4.8601   -4.6058   -1.5331 H   0  0  0  0  0  0  0  0  0  0  0  0
  1  9  1  1  0  0  0
  2 18  2  0  0  0  0
  4  5  1  0  0  0  0
  4 20  1  0  0  0  0
  5 21  1  0  0  0  0
  6 22  1  0  0  0  0
  6  5  2  0  0  0  0
  7  6  1  0  0  0  0
  8  7  2  0  0  0  0
  8  9  1  0  0  0  0
  9  4  2  0  0  0  0
 10  1  1  0  0  0  0
 10 25  1  1  0  0  0
 11 16  1  0  0  0  0
 11 10  1  0  0  0  0
 12 13  1  0  0  0  0
 12 11  2  0  0  0  0
 13 26  1  6  0  0  0
 13  1  1  0  0  0  0
 14 28  1  0  0  0  0
 14 13  1  0  0  0  0
 14 15  1  0  0  0  0
 15 29  1  1  0  0  0
 15 10  1  0  0  0  0
 16 30  1  0  0  0  0
 17 12  1  0  0  0  0
 18 15  1  0  0  0  0
 18  3  1  0  0  0  0
 19  3  1  0  0  0  0
 19 36  1  0  0  0  0
 23  7  1  0  0  0  0
 24  8  1  0  0  0  0
 27 14  1  0  0  0  0
 31 16  1  0  0  0  0
 32 16  1  0  0  0  0
 33 17  1  0  0  0  0
 34 17  1  0  0  0  0
 35 17  1  0  0  0  0
 37 19  1  0  0  0  0
 38 19  1  0  0  0  0
M  END
