1
q = 0.0, confidence = 0.998

 52 54  0  0  0  0  0  0  0  0999 V2000
   -2.2603   -0.0304   -0.0771 P   0  0  0  0  0  0  0  0  0  0  0  0
   -3.0806   -0.2393    1.5963 C   0  0  0  0  0  0  0  0  0  0  0  0
   -3.2066   -1.3446    1.6704 H   0  0  0  0  0  0  0  0  0  0  0  0
   -4.4717    0.4069    1.7428 C   0  0  0  0  0  0  0  0  0  0  0  0
   -4.3752    1.5103    1.6478 H   0  0  0  0  0  0  0  0  0  0  0  0
   -5.1512    0.0806    0.9304 H   0  0  0  0  0  0  0  0  0  0  0  0
   -5.0876    0.0801    3.1120 C   0  0  0  0  0  0  0  0  0  0  0  0
   -6.0790    0.5710    3.2041 H   0  0  0  0  0  0  0  0  0  0  0  0
   -5.2742   -1.0158    3.1738 H   0  0  0  0  0  0  0  0  0  0  0  0
   -4.1649    0.5034    4.2611 C   0  0  0  0  0  0  0  0  0  0  0  0
   -4.6136    0.2300    5.2387 H   0  0  0  0  0  0  0  0  0  0  0  0
   -4.0688    1.6127    4.2608 H   0  0  0  0  0  0  0  0  0  0  0  0
   -2.7729   -0.1230    4.1138 C   0  0  0  0  0  0  0  0  0  0  0  0
   -2.8543   -1.2275    4.2282 H   0  0  0  0  0  0  0  0  0  0  0  0
   -2.0990    0.2246    4.9240 H   0  0  0  0  0  0  0  0  0  0  0  0
   -2.1491    0.1912    2.7480 C   0  0  0  0  0  0  0  0  0  0  0  0
   -1.1621   -0.3048    2.6413 H   0  0  0  0  0  0  0  0  0  0  0  0
   -1.9503    1.2831    2.6710 H   0  0  0  0  0  0  0  0  0  0  0  0
   -2.9161   -1.4100   -1.1497 C   0  0  0  0  0  0  0  0  0  0  0  0
   -2.4485   -1.1912   -2.1368 H   0  0  0  0  0  0  0  0  0  0  0  0
   -4.4420   -1.4538   -1.3342 C   0  0  0  0  0  0  0  0  0  0  0  0
   -4.8262   -0.4751   -1.6904 H   0  0  0  0  0  0  0  0  0  0  0  0
   -4.9235   -1.6461   -0.3503 H   0  0  0  0  0  0  0  0  0  0  0  0
   -4.8452   -2.5707   -2.3093 C   0  0  0  0  0  0  0  0  0  0  0  0
   -5.9499   -2.6010   -2.4131 H   0  0  0  0  0  0  0  0  0  0  0  0
   -4.4420   -2.3330   -3.3192 H   0  0  0  0  0  0  0  0  0  0  0  0
   -4.3066   -3.9328   -1.8548 C   0  0  0  0  0  0  0  0  0  0  0  0
   -4.7959   -4.2155   -0.8953 H   0  0  0  0  0  0  0  0  0  0  0  0
   -4.5795   -4.7209   -2.5870 H   0  0  0  0  0  0  0  0  0  0  0  0
   -2.7867   -3.8922   -1.6525 C   0  0  0  0  0  0  0  0  0  0  0  0
   -2.2892   -3.7227   -2.6335 H   0  0  0  0  0  0  0  0  0  0  0  0
   -2.4154   -4.8694   -1.2801 H   0  0  0  0  0  0  0  0  0  0  0  0
   -2.3710   -2.7746   -0.6855 C   0  0  0  0  0  0  0  0  0  0  0  0
   -1.2658   -2.7272   -0.5896 H   0  0  0  0  0  0  0  0  0  0  0  0
   -2.7664   -3.0059    0.3296 H   0  0  0  0  0  0  0  0  0  0  0  0
   -2.8953    1.5561   -0.8226 C   0  0  0  0  0  0  0  0  0  0  0  0
   -4.0047    1.5482   -0.7368 H   0  0  0  0  0  0  0  0  0  0  0  0
   -2.3414    2.7645   -0.0402 C   0  0  0  0  0  0  0  0  0  0  0  0
   -2.6514    2.7154    1.0239 H   0  0  0  0  0  0  0  0  0  0  0  0
   -1.2297    2.7048   -0.0412 H   0  0  0  0  0  0  0  0  0  0  0  0
   -2.7887    4.0948   -0.6603 C   0  0  0  0  0  0  0  0  0  0  0  0
   -3.8939    4.1916   -0.5642 H   0  0  0  0  0  0  0  0  0  0  0  0
   -2.3504    4.9391   -0.0887 H   0  0  0  0  0  0  0  0  0  0  0  0
   -2.3980    4.1817   -2.1398 C   0  0  0  0  0  0  0  0  0  0  0  0
   -1.2884    4.1908   -2.2240 H   0  0  0  0  0  0  0  0  0  0  0  0
   -2.7544    5.1354   -2.5815 H   0  0  0  0  0  0  0  0  0  0  0  0
   -2.9530    2.9880   -2.9247 C   0  0  0  0  0  0  0  0  0  0  0  0
   -2.6336    3.0344   -3.9866 H   0  0  0  0  0  0  0  0  0  0  0  0
   -4.0654    3.0377   -2.9303 H   0  0  0  0  0  0  0  0  0  0  0  0
   -2.5144    1.6496   -2.3132 C   0  0  0  0  0  0  0  0  0  0  0  0
   -2.9653    0.8127   -2.8851 H   0  0  0  0  0  0  0  0  0  0  0  0
   -1.4102    1.5379   -2.4065 H   0  0  0  0  0  0  0  0  0  0  0  0
  1  2  1  0  0  0  0
  2  3  1  0  0  0  0
  2  4  1  0  0  0  0
  2 16  1  0  0  0  0
  4  7  1  0  0  0  0
  5  4  1  0  0  0  0
  6  4  1  0  0  0  0
  7  9  1  0  0  0  0
  7  8  1  0  0  0  0
  7 10  1  0  0  0  0
 10 11  1  0  0  0  0
 12 10  1  0  0  0  0
 13 14  1  0  0  0  0
 13 10  1  0  0  0  0
 13 15  1  0  0  0  0
 16 13  1  0  0  0  0
 17 16  1  0  0  0  0
 18 16  1  0  0  0  0
 19 33  1  0  0  0  0
 19  1  1  0  0  0  0
 20 19  1  0  0  0  0
 21 19  1  0  0  0  0
 21 23  1  0  0  0  0
 22 21  1  0  0  0  0
 24 27  1  0  0  0  0
 24 21  1  0  0  0  0
 25 24  1  0  0  0  0
 26 24  1  0  0  0  0
 27 30  1  0  0  0  0
 27 28  1  0  0  0  0
 29 27  1  0  0  0  0
 30 32  1  0  0  0  0
 30 33  1  0  0  0  0
 31 30  1  0  0  0  0
 33 34  1  0  0  0  0
 33 35  1  0  0  0  0
 36 37  1  0  0  0  0
 36  1  1  0  0  0  0
 36 38  1  0  0  0  0
 38 39  1  0  0  0  0
 40 38  1  0  0  0  0
 41 42  1  0  0  0  0
 41 43  1  0  0  0  0
 41 38  1  0  0  0  0
 44 41  1  0  0  0  0
 45 44  1  0  0  0  0
 46 44  1  0  0  0  0
 47 50  1  0  0  0  0
 47 44  1  0  0  0  0
 48 47  1  0  0  0  0
 49 47  1  0  0  0  0
 50 36  1  0  0  0  0
 51 50  1  0  0  0  0
 52 50  1  0  0  0  0
M  END
