1
q = 0.0, confidence = 0.624

 26 28  0  0  1  0  0  0  0  0999 V2000
    1.4448    1.0189    0.4728 P   0  0  0  0  0  2  0  0  0  0  0  0
    3.7500    0.9093    2.5990 B   0  0  1  0  0  0  0  0  0  0  0  0
    4.4937    1.4449    1.1096 B   0  0  2  0  0  0  0  0  0  0  0  0
    3.0126    2.1312    1.6397 B   0  0  1  0  0  0  0  0  0  0  0  0
    2.9534   -0.6724    2.2171 B   0  0  0  0  0  2  0  0  0  0  0  0
    4.1449    0.1880   -0.1427 B   0  0  0  0  0  2  0  0  0  0  0  0
    3.1709    1.5554    0.0279 C   0  0  2  0  0  0  0  0  0  0  0  0
    2.0905    0.7799    2.1982 C   0  0  2  0  0  0  0  0  0  0  0  0
    0.3897    2.5232    0.4401 C   0  0  0  0  0  0  0  0  0  0  0  0
   -0.0050    3.2323    1.5908 C   0  0  0  0  0  0  0  0  0  0  0  0
    0.3518    2.9287    2.5858 H   0  0  0  0  0  0  0  0  0  0  0  0
   -0.8397    4.3528    1.4668 C   0  0  0  0  0  0  0  0  0  0  0  0
   -1.1449    4.9060    2.3678 H   0  0  0  0  0  0  0  0  0  0  0  0
   -1.2739    4.7718    0.1996 C   0  0  0  0  0  0  0  0  0  0  0  0
   -1.9234    5.6549    0.1056 H   0  0  0  0  0  0  0  0  0  0  0  0
   -0.8917    4.0569   -0.9465 C   0  0  0  0  0  0  0  0  0  0  0  0
   -1.2440    4.3721   -1.9395 H   0  0  0  0  0  0  0  0  0  0  0  0
   -0.0729    2.9254   -0.8311 C   0  0  0  0  0  0  0  0  0  0  0  0
    0.2084    2.3457   -1.7255 H   0  0  0  0  0  0  0  0  0  0  0  0
    4.0071    1.1523    3.7517 H   0  0  0  0  0  0  0  0  0  0  0  0
    5.4203    2.1894    0.9088 H   0  0  0  0  0  0  0  0  0  0  0  0
    2.7802    3.2731    1.9273 H   0  0  0  0  0  0  0  0  0  0  0  0
    3.2428    2.2814   -0.7934 H   0  0  0  0  0  0  0  0  0  0  0  0
    1.3808    0.9038    3.0281 H   0  0  0  0  0  0  0  0  0  0  0  0
    2.7623   -1.4233    3.1419 H   0  0  0  0  0  0  0  0  0  0  0  0
    4.9117    0.1486   -1.0734 H   0  0  0  0  0  0  0  0  0  0  0  0
  1  8  1  0  0  0  0
  2 20  1  1  0  0  0
  3 21  1  6  0  0  0
  3  4  1  0  0  0  0
  3  2  1  0  0  0  0
  4 22  1  1  0  0  0
  4  2  1  0  0  0  0
  5 25  1  0  0  0  0
  6  7  1  0  0  0  0
  7 23  1  6  0  0  0
  7  3  1  0  0  0  0
  7  4  1  0  0  0  0
  8  5  1  0  0  0  0
  8  2  1  0  0  0  0
  8 24  1  1  0  0  0
  9  1  1  0  0  0  0
  9 10  1  0  0  0  0
 10 11  1  0  0  0  0
 12 10  2  0  0  0  0
 12 13  1  0  0  0  0
 14 12  1  0  0  0  0
 15 14  1  0  0  0  0
 16 18  1  0  0  0  0
 16 14  2  0  0  0  0
 17 16  1  0  0  0  0
 18  9  2  0  0  0  0
 19 18  1  0  0  0  0
 26  6  1  0  0  0  0
M  END
