1
q = 0.0, confidence = 0.994

 32 34  0  0  1  0  0  0  0  0999 V2000
   -1.5473   -0.5776    0.6562 P   0  0  0  0  0  2  0  0  0  0  0  0
   -2.9010   -2.7390    2.4847 B   0  0  1  0  0  0  0  0  0  0  0  0
   -1.3079   -3.0749    3.1931 B   0  0  0  0  0  0  0  0  0  0  0  0
   -2.1835   -1.5690    3.5659 B   0  0  2  0  0  0  0  0  0  0  0  0
   -3.1082   -1.0545    2.2084 B   0  0  1  0  0  0  0  0  0  0  0  0
   -1.5852   -3.3438    1.3988 B   0  0  0  0  0  2  0  0  0  0  0  0
    0.0206   -2.9084    2.0997 B   0  0  0  0  0  0  0  0  0  0  0  0
   -0.4341   -1.4750    3.1224 B   0  0  0  0  0  0  0  0  0  0  0  0
   -1.5501   -0.3762    2.5104 C   0  0  1  0  0  0  0  0  0  0  0  0
   -2.6018   -2.0865    0.9364 C   0  0  1  0  0  0  0  0  0  0  0  0
   -2.6332    0.7255   -0.0627 C   0  0  0  0  0  0  0  0  0  0  0  0
   -2.8799    0.6661   -1.4511 C   0  0  0  0  0  0  0  0  0  0  0  0
   -2.4409   -0.1461   -2.0526 H   0  0  0  0  0  0  0  0  0  0  0  0
   -3.6863    1.6400   -2.0575 C   0  0  0  0  0  0  0  0  0  0  0  0
   -3.8853    1.5786   -3.1379 H   0  0  0  0  0  0  0  0  0  0  0  0
   -4.2306    2.6845   -1.2946 C   0  0  0  0  0  0  0  0  0  0  0  0
   -4.8588    3.4502   -1.7744 H   0  0  0  0  0  0  0  0  0  0  0  0
   -3.9673    2.7537    0.0822 C   0  0  0  0  0  0  0  0  0  0  0  0
   -4.3811    3.5756    0.6852 H   0  0  0  0  0  0  0  0  0  0  0  0
   -3.1751    1.7771    0.7009 C   0  0  0  0  0  0  0  0  0  0  0  0
   -2.9868    1.8440    1.7810 H   0  0  0  0  0  0  0  0  0  0  0  0
   -3.8859   -3.4228    2.6077 H   0  0  0  0  0  0  0  0  0  0  0  0
   -1.2022   -3.9155    4.0525 H   0  0  0  0  0  0  0  0  0  0  0  0
   -2.5049   -1.2058    4.6698 H   0  0  0  0  0  0  0  0  0  0  0  0
   -4.1269   -0.4202    2.1925 H   0  0  0  0  0  0  0  0  0  0  0  0
   -1.4783    0.6473    2.9060 H   0  0  0  0  0  0  0  0  0  0  0  0
   -3.3063   -2.3258    0.1291 H   0  0  0  0  0  0  0  0  0  0  0  0
   -1.7528   -4.4308    0.9028 H   0  0  0  0  0  0  0  0  0  0  0  0
    0.9943   -3.6046    2.2354 H   0  0  0  0  0  0  0  0  0  0  0  0
    0.3246   -1.0954    3.9816 H   0  0  0  0  0  0  0  0  0  0  0  0
   -0.3565   -2.9494    0.8482 H   0  0  0  0  0  0  0  0  0  0  0  0
    0.4034   -1.6652    2.0170 H   0  0  0  0  0  0  0  0  0  0  0  0
  1  9  1  0  0  0  0
  2 22  1  1  0  0  0
  2  4  1  0  0  0  0
  3 23  1  0  0  0  0
  4 24  1  1  0  0  0
  5 25  1  1  0  0  0
  5  2  1  0  0  0  0
  5  4  1  0  0  0  0
  7 29  1  0  0  0  0
  7  3  1  0  0  0  0
  8  3  1  0  0  0  0
  8 30  1  0  0  0  0
  9 26  1  1  0  0  0
  9  8  1  0  0  0  0
  9  4  1  0  0  0  0
 10 27  1  6  0  0  0
 10  6  1  0  0  0  0
 10  5  1  0  0  0  0
 10  2  1  0  0  0  0
 11  1  1  0  0  0  0
 11 20  1  0  0  0  0
 12 11  2  0  0  0  0
 13 12  1  0  0  0  0
 14 12  1  0  0  0  0
 14 16  2  0  0  0  0
 15 14  1  0  0  0  0
 16 18  1  0  0  0  0
 17 16  1  0  0  0  0
 18 19  1  0  0  0  0
 18 20  2  0  0  0  0
 20 21  1  0  0  0  0
 28  6  1  0  0  0  0
 31  7  1  0  0  0  0
 32  7  1  0  0  0  0
M  END
