2
q = 0.0, confidence = 0.998

 34 35  0  0  0  0  0  0  0  0999 V2000
    3.5252   -1.9926   -0.7424 Se  0  0  0  0  0  0  0  0  0  0  0  0
    2.2882    0.9644    0.0347 P   0  0  0  0  0  0  0  0  0  0  0  0
    3.9467   -2.9390    0.9242 C   0  0  0  0  0  0  0  0  0  0  0  0
    4.9615   -3.3687    0.8375 H   0  0  0  0  0  0  0  0  0  0  0  0
    3.1807   -3.7334    0.9986 H   0  0  0  0  0  0  0  0  0  0  0  0
    3.8671   -2.2528    1.7860 H   0  0  0  0  0  0  0  0  0  0  0  0
    4.6715   -0.3859   -0.4741 C   0  0  0  0  0  0  0  0  0  0  0  0
    5.6634   -0.7540   -0.1464 H   0  0  0  0  0  0  0  0  0  0  0  0
    4.7814    0.0444   -1.4895 H   0  0  0  0  0  0  0  0  0  0  0  0
    4.0638    0.6142    0.4973 C   0  0  0  0  0  0  0  0  0  0  0  0
    4.6326    1.5680    0.4977 H   0  0  0  0  0  0  0  0  0  0  0  0
    4.0600    0.2318    1.5388 H   0  0  0  0  0  0  0  0  0  0  0  0
    2.4506    1.7743   -1.5966 C   0  0  0  0  0  0  0  0  0  0  0  0
    1.9090    1.1426   -2.7358 C   0  0  0  0  0  0  0  0  0  0  0  0
    1.3602    0.1933   -2.6164 H   0  0  0  0  0  0  0  0  0  0  0  0
    2.0819    1.7122   -4.0062 C   0  0  0  0  0  0  0  0  0  0  0  0
    1.6581    1.2139   -4.8907 H   0  0  0  0  0  0  0  0  0  0  0  0
    2.7982    2.9113   -4.1461 C   0  0  0  0  0  0  0  0  0  0  0  0
    2.9327    3.3587   -5.1422 H   0  0  0  0  0  0  0  0  0  0  0  0
    3.3532    3.5365   -3.0166 C   0  0  0  0  0  0  0  0  0  0  0  0
    3.9234    4.4708   -3.1274 H   0  0  0  0  0  0  0  0  0  0  0  0
    3.1871    2.9707   -1.7444 C   0  0  0  0  0  0  0  0  0  0  0  0
    3.6320    3.4669   -0.8680 H   0  0  0  0  0  0  0  0  0  0  0  0
    1.7246    2.1889    1.2631 C   0  0  0  0  0  0  0  0  0  0  0  0
    1.6859    1.7774    2.6129 C   0  0  0  0  0  0  0  0  0  0  0  0
    1.9938    0.7589    2.8926 H   0  0  0  0  0  0  0  0  0  0  0  0
    1.2330    2.6578    3.6037 C   0  0  0  0  0  0  0  0  0  0  0  0
    1.2013    2.3274    4.6525 H   0  0  0  0  0  0  0  0  0  0  0  0
    0.8163    3.9527    3.2544 C   0  0  0  0  0  0  0  0  0  0  0  0
    0.4611    4.6448    4.0324 H   0  0  0  0  0  0  0  0  0  0  0  0
    0.8443    4.3598    1.9117 C   0  0  0  0  0  0  0  0  0  0  0  0
    0.5037    5.3677    1.6325 H   0  0  0  0  0  0  0  0  0  0  0  0
    1.2924    3.4828    0.9131 C   0  0  0  0  0  0  0  0  0  0  0  0
    1.2801    3.8009   -0.1382 H   0  0  0  0  0  0  0  0  0  0  0  0
  1  7  1  0  0  0  0
  1  3  1  0  0  0  0
  2 10  1  0  0  0  0
  2 24  1  0  0  0  0
  3  5  1  0  0  0  0
  3  6  1  0  0  0  0
  4  3  1  0  0  0  0
  7  8  1  0  0  0  0
  7 10  1  0  0  0  0
  9  7  1  0  0  0  0
 10 11  1  0  0  0  0
 10 12  1  0  0  0  0
 13  2  1  0  0  0  0
 14 15  1  0  0  0  0
 14 13  2  0  0  0  0
 16 14  1  0  0  0  0
 17 16  1  0  0  0  0
 18 16  2  0  0  0  0
 18 20  1  0  0  0  0
 19 18  1  0  0  0  0
 20 22  2  0  0  0  0
 21 20  1  0  0  0  0
 22 13  1  0  0  0  0
 22 23  1  0  0  0  0
 24 25  1  0  0  0  0
 25 26  1  0  0  0  0
 25 27  2  0  0  0  0
 27 28  1  0  0  0  0
 29 27  1  0  0  0  0
 29 30  1  0  0  0  0
 31 29  2  0  0  0  0
 32 31  1  0  0  0  0
 33 24  2  0  0  0  0
 33 31  1  0  0  0  0
 34 33  1  0  0  0  0
M  END
