1
q = 0.0, confidence = 0.996

 34 36  0  0  0  0  0  0  0  0999 V2000
    0.4711    0.0515    0.0818 P   0  0  0  0  0  0  0  0  0  0  0  0
    1.8800    0.3465    2.4950 N   0  0  0  0  0  0  0  0  0  0  0  0
    0.4120   -1.3538    2.5363 N   0  0  0  0  0  0  0  0  0  0  0  0
    0.9570   -0.3167    1.8002 C   0  0  0  0  0  0  0  0  0  0  0  0
    1.9381   -0.2724    3.7163 C   0  0  0  0  0  0  0  0  0  0  0  0
    2.6159    0.0723    4.5073 H   0  0  0  0  0  0  0  0  0  0  0  0
    1.0415   -1.3331    3.7626 C   0  0  0  0  0  0  0  0  0  0  0  0
    0.7956   -2.0607    4.5439 H   0  0  0  0  0  0  0  0  0  0  0  0
   -0.5652   -2.3339    2.0878 C   0  0  0  0  0  0  0  0  0  0  0  0
   -1.3850   -1.8267    1.5379 H   0  0  0  0  0  0  0  0  0  0  0  0
   -0.9903   -2.8525    2.9658 H   0  0  0  0  0  0  0  0  0  0  0  0
   -0.0977   -3.0792    1.4124 H   0  0  0  0  0  0  0  0  0  0  0  0
    1.3933    1.5864   -0.2879 C   0  0  0  0  0  0  0  0  0  0  0  0
    1.1221    2.7346    0.4842 C   0  0  0  0  0  0  0  0  0  0  0  0
    0.4090    2.6811    1.3199 H   0  0  0  0  0  0  0  0  0  0  0  0
    1.7699    3.9398    0.1879 C   0  0  0  0  0  0  0  0  0  0  0  0
    1.5624    4.8326    0.7966 H   0  0  0  0  0  0  0  0  0  0  0  0
    2.6782    4.0102   -0.8821 C   0  0  0  0  0  0  0  0  0  0  0  0
    3.1822    4.9605   -1.1143 H   0  0  0  0  0  0  0  0  0  0  0  0
    2.9385    2.8703   -1.6565 C   0  0  0  0  0  0  0  0  0  0  0  0
    3.6457    2.9221   -2.4980 H   0  0  0  0  0  0  0  0  0  0  0  0
    2.2985    1.6556   -1.3626 C   0  0  0  0  0  0  0  0  0  0  0  0
    2.5059    0.7633   -1.9712 H   0  0  0  0  0  0  0  0  0  0  0  0
    1.2856   -1.2833   -0.8766 C   0  0  0  0  0  0  0  0  0  0  0  0
    0.6078   -1.9017   -1.9445 C   0  0  0  0  0  0  0  0  0  0  0  0
   -0.4182   -1.5842   -2.1912 H   0  0  0  0  0  0  0  0  0  0  0  0
    1.2398   -2.9200   -2.6754 C   0  0  0  0  0  0  0  0  0  0  0  0
    0.7087   -3.4036   -3.5089 H   0  0  0  0  0  0  0  0  0  0  0  0
    2.5419   -3.3222   -2.3393 C   0  0  0  0  0  0  0  0  0  0  0  0
    3.0340   -4.1236   -2.9111 H   0  0  0  0  0  0  0  0  0  0  0  0
    3.2180   -2.7072   -1.2709 C   0  0  0  0  0  0  0  0  0  0  0  0
    4.2382   -3.0246   -1.0071 H   0  0  0  0  0  0  0  0  0  0  0  0
    2.5941   -1.6892   -0.5369 C   0  0  0  0  0  0  0  0  0  0  0  0
    3.1166   -1.2009    0.3010 H   0  0  0  0  0  0  0  0  0  0  0  0
  1  4  1  0  0  0  0
  2  5  1  0  0  0  0
  3  7  1  0  0  0  0
  4  2  2  0  0  0  0
  4  3  1  0  0  0  0
  5  7  2  0  0  0  0
  5  6  1  0  0  0  0
  7  8  1  0  0  0  0
  9  3  1  0  0  0  0
  9 11  1  0  0  0  0
 10  9  1  0  0  0  0
 12  9  1  0  0  0  0
 13  1  1  0  0  0  0
 13 14  1  0  0  0  0
 14 15  1  0  0  0  0
 16 14  2  0  0  0  0
 16 17  1  0  0  0  0
 18 16  1  0  0  0  0
 19 18  1  0  0  0  0
 20 22  1  0  0  0  0
 20 18  2  0  0  0  0
 21 20  1  0  0  0  0
 22 13  2  0  0  0  0
 23 22  1  0  0  0  0
 24 33  1  0  0  0  0
 24  1  1  0  0  0  0
 25 24  2  0  0  0  0
 26 25  1  0  0  0  0
 27 29  2  0  0  0  0
 27 25  1  0  0  0  0
 28 27  1  0  0  0  0
 29 31  1  0  0  0  0
 30 29  1  0  0  0  0
 31 32  1  0  0  0  0
 31 33  2  0  0  0  0
 33 34  1  0  0  0  0
M  END
