1
q = 0.0, confidence = 0.994

 43 45  0  0  0  0  0  0  0  0999 V2000
   -0.7361   -0.0004    0.0001 P   0  0  0  0  0  0  0  0  0  0  0  0
   -1.4761    0.3562    1.6500 C   0  0  0  0  0  0  0  0  0  0  0  0
   -1.0263   -0.3350    2.8123 C   0  0  0  0  0  0  0  0  0  0  0  0
   -1.6234    0.0006    4.0444 C   0  0  0  0  0  0  0  0  0  0  0  0
   -2.6244    0.9770    4.1439 C   0  0  0  0  0  0  0  0  0  0  0  0
   -3.0650    1.6432    2.9923 C   0  0  0  0  0  0  0  0  0  0  0  0
   -2.4926    1.3286    1.7524 C   0  0  0  0  0  0  0  0  0  0  0  0
    0.0329   -1.4033    2.7658 C   0  0  0  0  0  0  0  0  0  0  0  0
   -1.4761   -1.6075   -0.5158 C   0  0  0  0  0  0  0  0  0  0  0  0
   -1.0279   -2.2666   -1.6972 C   0  0  0  0  0  0  0  0  0  0  0  0
   -1.6244   -3.5016   -2.0230 C   0  0  0  0  0  0  0  0  0  0  0  0
   -2.6234   -4.0779   -1.2261 C   0  0  0  0  0  0  0  0  0  0  0  0
   -3.0625   -3.4155   -0.0717 C   0  0  0  0  0  0  0  0  0  0  0  0
   -2.4906   -2.1843    0.2763 C   0  0  0  0  0  0  0  0  0  0  0  0
    0.0292   -1.6901   -2.6002 C   0  0  0  0  0  0  0  0  0  0  0  0
   -1.4779    1.2500   -1.1328 C   0  0  0  0  0  0  0  0  0  0  0  0
   -1.0271    2.6018   -1.1165 C   0  0  0  0  0  0  0  0  0  0  0  0
   -1.6258    3.5014   -2.0219 C   0  0  0  0  0  0  0  0  0  0  0  0
   -2.6294    3.1000   -2.9146 C   0  0  0  0  0  0  0  0  0  0  0  0
   -3.0711    1.7699   -2.9143 C   0  0  0  0  0  0  0  0  0  0  0  0
   -2.4971    0.8531   -2.0233 C   0  0  0  0  0  0  0  0  0  0  0  0
    0.0349    3.0950   -0.1708 C   0  0  0  0  0  0  0  0  0  0  0  0
   -1.2852   -0.5264    4.9503 H   0  0  0  0  0  0  0  0  0  0  0  0
   -3.0627    1.2138    5.1252 H   0  0  0  0  0  0  0  0  0  0  0  0
   -3.8551    2.4064    3.0533 H   0  0  0  0  0  0  0  0  0  0  0  0
   -2.8407    1.8452    0.8458 H   0  0  0  0  0  0  0  0  0  0  0  0
   -1.2875   -4.0212   -2.9337 H   0  0  0  0  0  0  0  0  0  0  0  0
   -3.0614   -5.0462   -1.5120 H   0  0  0  0  0  0  0  0  0  0  0  0
   -3.8510   -3.8514    0.5597 H   0  0  0  0  0  0  0  0  0  0  0  0
   -2.8376   -1.6590    1.1783 H   0  0  0  0  0  0  0  0  0  0  0  0
   -1.2869    4.5492   -2.0193 H   0  0  0  0  0  0  0  0  0  0  0  0
   -3.0689    3.8317   -3.6093 H   0  0  0  0  0  0  0  0  0  0  0  0
   -3.8633    1.4417   -3.6036 H   0  0  0  0  0  0  0  0  0  0  0  0
   -2.8461   -0.1900   -2.0160 H   0  0  0  0  0  0  0  0  0  0  0  0
   -0.2399   -2.2244    2.0713 H   0  0  0  0  0  0  0  0  0  0  0  0
    1.0015   -0.9965    2.3992 H   0  0  0  0  0  0  0  0  0  0  0  0
    0.1997   -1.8417    3.7676 H   0  0  0  0  0  0  0  0  0  0  0  0
    0.1923   -2.3352   -3.4838 H   0  0  0  0  0  0  0  0  0  0  0  0
   -0.2433   -0.6762   -2.9589 H   0  0  0  0  0  0  0  0  0  0  0  0
    0.9997   -1.5796   -2.0672 H   0  0  0  0  0  0  0  0  0  0  0  0
    1.0037    2.5761   -0.3447 H   0  0  0  0  0  0  0  0  0  0  0  0
    0.1994    4.1823   -0.2900 H   0  0  0  0  0  0  0  0  0  0  0  0
   -0.2336    2.9008    0.8880 H   0  0  0  0  0  0  0  0  0  0  0  0
  1  2  1  0  0  0  0
  2  7  2  0  0  0  0
  2  3  1  0  0  0  0
  3  4  2  0  0  0  0
  4  5  1  0  0  0  0
  4 23  1  0  0  0  0
  5 24  1  0  0  0  0
  6 25  1  0  0  0  0
  6  5  2  0  0  0  0
  7  6  1  0  0  0  0
  8  3  1  0  0  0  0
  8 37  1  0  0  0  0
  9  1  1  0  0  0  0
  9 14  1  0  0  0  0
 10  9  2  0  0  0  0
 11 10  1  0  0  0  0
 11 12  2  0  0  0  0
 12 13  1  0  0  0  0
 13 14  2  0  0  0  0
 13 29  1  0  0  0  0
 14 30  1  0  0  0  0
 15 40  1  0  0  0  0
 15 10  1  0  0  0  0
 16 17  1  0  0  0  0
 16  1  1  0  0  0  0
 17 22  1  0  0  0  0
 18 31  1  0  0  0  0
 18 17  2  0  0  0  0
 19 20  2  0  0  0  0
 19 18  1  0  0  0  0
 20 21  1  0  0  0  0
 21 34  1  0  0  0  0
 21 16  2  0  0  0  0
 22 43  1  0  0  0  0
 26  7  1  0  0  0  0
 27 11  1  0  0  0  0
 28 12  1  0  0  0  0
 32 19  1  0  0  0  0
 33 20  1  0  0  0  0
 35  8  1  0  0  0  0
 36  8  1  0  0  0  0
 38 15  1  0  0  0  0
 39 15  1  0  0  0  0
 41 22  1  0  0  0  0
 42 22  1  0  0  0  0
M  END
