2
q = 0.0, confidence = 1.0

 34 36  0  0  0  0  0  0  0  0999 V2000
   -1.7074   -3.0724   -0.5402 Cl  0  0  0  0  0  0  0  0  0  0  0  0
   -1.6912    0.0973   -0.0045 P   0  0  0  0  0  0  0  0  0  0  0  0
   -3.1636   -0.7553   -0.7633 C   0  0  0  0  0  0  0  0  0  0  0  0
   -3.1479   -2.1425   -0.9708 C   0  0  0  0  0  0  0  0  0  0  0  0
   -4.2454   -2.8395   -1.4926 C   0  0  0  0  0  0  0  0  0  0  0  0
   -4.1849   -3.9265   -1.6425 H   0  0  0  0  0  0  0  0  0  0  0  0
   -5.4046   -2.1227   -1.8198 C   0  0  0  0  0  0  0  0  0  0  0  0
   -6.2711   -2.6569   -2.2372 H   0  0  0  0  0  0  0  0  0  0  0  0
   -5.4567   -0.7340   -1.6163 C   0  0  0  0  0  0  0  0  0  0  0  0
   -6.3664   -0.1710   -1.8719 H   0  0  0  0  0  0  0  0  0  0  0  0
   -4.3474   -0.0621   -1.0859 C   0  0  0  0  0  0  0  0  0  0  0  0
   -4.3915    1.0251   -0.9226 H   0  0  0  0  0  0  0  0  0  0  0  0
   -2.4518    0.5782    1.6205 C   0  0  0  0  0  0  0  0  0  0  0  0
   -2.3458   -0.3171    2.7041 C   0  0  0  0  0  0  0  0  0  0  0  0
   -1.7347   -1.2280    2.5965 H   0  0  0  0  0  0  0  0  0  0  0  0
   -2.9735   -0.0222    3.9241 C   0  0  0  0  0  0  0  0  0  0  0  0
   -2.8733   -0.7251    4.7655 H   0  0  0  0  0  0  0  0  0  0  0  0
   -3.7171    1.1584    4.0750 C   0  0  0  0  0  0  0  0  0  0  0  0
   -4.2044    1.3889    5.0349 H   0  0  0  0  0  0  0  0  0  0  0  0
   -3.8414    2.0433    2.9920 C   0  0  0  0  0  0  0  0  0  0  0  0
   -4.4298    2.9678    3.0968 H   0  0  0  0  0  0  0  0  0  0  0  0
   -3.2173    1.7553    1.7694 C   0  0  0  0  0  0  0  0  0  0  0  0
   -3.3262    2.4584    0.9314 H   0  0  0  0  0  0  0  0  0  0  0  0
   -1.6049    1.6975   -0.9158 C   0  0  0  0  0  0  0  0  0  0  0  0
   -1.9111    1.7571   -2.2928 C   0  0  0  0  0  0  0  0  0  0  0  0
   -2.2688    0.8576   -2.8111 H   0  0  0  0  0  0  0  0  0  0  0  0
   -1.7143    2.9502   -3.0045 C   0  0  0  0  0  0  0  0  0  0  0  0
   -1.9531    2.9850   -4.0783 H   0  0  0  0  0  0  0  0  0  0  0  0
   -1.2011    4.0870   -2.3586 C   0  0  0  0  0  0  0  0  0  0  0  0
   -1.0409    5.0181   -2.9235 H   0  0  0  0  0  0  0  0  0  0  0  0
   -0.8887    4.0298   -0.9914 C   0  0  0  0  0  0  0  0  0  0  0  0
   -0.4775    4.9104   -0.4755 H   0  0  0  0  0  0  0  0  0  0  0  0
   -1.0895    2.8428   -0.2716 C   0  0  0  0  0  0  0  0  0  0  0  0
   -0.8387    2.8111    0.7977 H   0  0  0  0  0  0  0  0  0  0  0  0
  2 13  1  0  0  0  0
  3  2  1  0  0  0  0
  4  3  1  0  0  0  0
  4  1  1  0  0  0  0
  5  4  2  0  0  0  0
  6  5  1  0  0  0  0
  7  9  2  0  0  0  0
  7  5  1  0  0  0  0
  8  7  1  0  0  0  0
  9 11  1  0  0  0  0
 10  9  1  0  0  0  0
 11 12  1  0  0  0  0
 11  3  2  0  0  0  0
 13 22  2  0  0  0  0
 13 14  1  0  0  0  0
 14 16  2  0  0  0  0
 15 14  1  0  0  0  0
 16 18  1  0  0  0  0
 16 17  1  0  0  0  0
 18 19  1  0  0  0  0
 20 21  1  0  0  0  0
 20 18  2  0  0  0  0
 22 20  1  0  0  0  0
 23 22  1  0  0  0  0
 24 33  1  0  0  0  0
 24  2  1  0  0  0  0
 25 24  2  0  0  0  0
 26 25  1  0  0  0  0
 27 29  2  0  0  0  0
 27 25  1  0  0  0  0
 28 27  1  0  0  0  0
 29 31  1  0  0  0  0
 30 29  1  0  0  0  0
 31 32  1  0  0  0  0
 31 33  2  0  0  0  0
 33 34  1  0  0  0  0
M  END
