1
q = 0.0, confidence = 1.0

 36 37  0  0  0  0  0  0  0  0999 V2000
   -2.1815   -0.1679   -0.1998 P   0  0  0  0  0  0  0  0  0  0  0  0
   -3.2799   -0.1562    1.2706 C   0  0  0  0  0  0  0  0  0  0  0  0
   -3.0492   -1.0866    2.3038 C   0  0  0  0  0  0  0  0  0  0  0  0
   -3.9363   -1.1681    3.3867 C   0  0  0  0  0  0  0  0  0  0  0  0
   -5.0502   -0.3155    3.4518 C   0  0  0  0  0  0  0  0  0  0  0  0
   -5.2776    0.6197    2.4295 C   0  0  0  0  0  0  0  0  0  0  0  0
   -4.3968    0.6995    1.3400 C   0  0  0  0  0  0  0  0  0  0  0  0
   -2.2321    1.5493   -0.8431 C   0  0  0  0  0  0  0  0  0  0  0  0
   -1.8157    2.5942    0.0126 C   0  0  0  0  0  0  0  0  0  0  0  0
   -1.7644    3.9104   -0.4608 C   0  0  0  0  0  0  0  0  0  0  0  0
   -2.1108    4.1994   -1.7917 C   0  0  0  0  0  0  0  0  0  0  0  0
   -2.5077    3.1628   -2.6491 C   0  0  0  0  0  0  0  0  0  0  0  0
   -2.5682    1.8406   -2.1798 C   0  0  0  0  0  0  0  0  0  0  0  0
   -3.1438   -1.1918   -1.4005 C   0  0  0  0  0  0  0  0  0  0  0  0
   -3.1719   -2.6651   -0.9869 C   0  0  0  0  0  0  0  0  0  0  0  0
   -3.8840   -3.5563   -2.0094 C   0  0  0  0  0  0  0  0  0  0  0  0
   -3.9123   -5.0292   -1.6009 C   0  0  0  0  0  0  0  0  0  0  0  0
   -2.1538   -1.7240    2.2635 H   0  0  0  0  0  0  0  0  0  0  0  0
   -3.7489   -1.8945    4.1921 H   0  0  0  0  0  0  0  0  0  0  0  0
   -5.7408   -0.3754    4.3068 H   0  0  0  0  0  0  0  0  0  0  0  0
   -6.1461    1.2940    2.4802 H   0  0  0  0  0  0  0  0  0  0  0  0
   -4.5733    1.4368    0.5414 H   0  0  0  0  0  0  0  0  0  0  0  0
   -1.5067    2.3582    1.0429 H   0  0  0  0  0  0  0  0  0  0  0  0
   -1.4327    4.7155    0.2117 H   0  0  0  0  0  0  0  0  0  0  0  0
   -2.0621    5.2345   -2.1630 H   0  0  0  0  0  0  0  0  0  0  0  0
   -2.7748    3.3810   -3.6945 H   0  0  0  0  0  0  0  0  0  0  0  0
   -2.8771    1.0381   -2.8645 H   0  0  0  0  0  0  0  0  0  0  0  0
   -2.6237   -1.0895   -2.3741 H   0  0  0  0  0  0  0  0  0  0  0  0
   -4.1652   -0.7630   -1.4841 H   0  0  0  0  0  0  0  0  0  0  0  0
   -3.6622   -2.7724    0.0058 H   0  0  0  0  0  0  0  0  0  0  0  0
   -2.1221   -3.0098   -0.8623 H   0  0  0  0  0  0  0  0  0  0  0  0
   -3.3776   -3.4480   -2.9939 H   0  0  0  0  0  0  0  0  0  0  0  0
   -4.9228   -3.1861   -2.1596 H   0  0  0  0  0  0  0  0  0  0  0  0
   -4.4255   -5.6560   -2.3577 H   0  0  0  0  0  0  0  0  0  0  0  0
   -2.8846   -5.4291   -1.4747 H   0  0  0  0  0  0  0  0  0  0  0  0
   -4.4413   -5.1695   -0.6350 H   0  0  0  0  0  0  0  0  0  0  0  0
  1  2  1  0  0  0  0
  2  7  2  0  0  0  0
  2  3  1  0  0  0  0
  3  4  2  0  0  0  0
  4  5  1  0  0  0  0
  4 19  1  0  0  0  0
  5 20  1  0  0  0  0
  6 21  1  0  0  0  0
  6  5  2  0  0  0  0
  7  6  1  0  0  0  0
  8  1  1  0  0  0  0
  8  9  1  0  0  0  0
  9 23  1  0  0  0  0
 10  9  2  0  0  0  0
 10 24  1  0  0  0  0
 11 10  1  0  0  0  0
 12 13  1  0  0  0  0
 12 11  2  0  0  0  0
 13  8  2  0  0  0  0
 14 15  1  0  0  0  0
 14  1  1  0  0  0  0
 15 31  1  0  0  0  0
 15 30  1  0  0  0  0
 16 17  1  0  0  0  0
 16 15  1  0  0  0  0
 17 35  1  0  0  0  0
 17 36  1  0  0  0  0
 18  3  1  0  0  0  0
 22  7  1  0  0  0  0
 25 11  1  0  0  0  0
 26 12  1  0  0  0  0
 27 13  1  0  0  0  0
 28 14  1  0  0  0  0
 29 14  1  0  0  0  0
 32 16  1  0  0  0  0
 33 16  1  0  0  0  0
 34 17  1  0  0  0  0
M  END
