1
q = -1

 22 21  0  0  0  0  0  0  0  0999 V2000
    2.3682   -0.9471    0.2043 P   0  0  0  0  0  4  0  0  0  0  0  0
    2.8575   -0.8740    1.6659 O   0  0  0  0  0  0  0  0  0  0  0  0
    2.2417   -2.7828   -0.2285 C   0  0  0  0  0  0  0  0  0  0  0  0
    3.3134   -3.0834   -0.1765 H   0  0  0  0  0  0  0  0  0  0  0  0
    3.6945   -0.3259   -0.9892 C   0  0  0  0  0  0  0  0  0  0  0  0
    4.1426   -1.2791   -1.3534 H   0  0  0  0  0  0  0  0  0  0  0  0
    3.1706    0.4582   -2.1927 C   0  0  0  0  0  0  0  0  0  0  0  0
    2.4555   -0.1217   -2.8076 H   0  0  0  0  0  0  0  0  0  0  0  0
    4.0151    0.7451   -2.8535 H   0  0  0  0  0  0  0  0  0  0  0  0
    2.6797    1.3897   -1.8508 H   0  0  0  0  0  0  0  0  0  0  0  0
    1.7056   -3.0882   -1.6274 C   0  0  0  0  0  0  0  0  0  0  0  0
    2.2213   -2.5078   -2.4190 H   0  0  0  0  0  0  0  0  0  0  0  0
    0.6206   -2.8671   -1.7028 H   0  0  0  0  0  0  0  0  0  0  0  0
    1.8330   -4.1642   -1.8695 H   0  0  0  0  0  0  0  0  0  0  0  0
    1.4908   -3.5142    0.8869 C   0  0  0  0  0  0  0  0  0  0  0  0
    1.8911   -3.2162    1.8753 H   0  0  0  0  0  0  0  0  0  0  0  0
    1.5820   -4.6148    0.7770 H   0  0  0  0  0  0  0  0  0  0  0  0
    0.4068   -3.2723    0.8695 H   0  0  0  0  0  0  0  0  0  0  0  0
    4.7576    0.4431   -0.1967 C   0  0  0  0  0  0  0  0  0  0  0  0
    5.1063   -0.1408    0.6761 H   0  0  0  0  0  0  0  0  0  0  0  0
    4.3345    1.3941    0.1781 H   0  0  0  0  0  0  0  0  0  0  0  0
    5.6253    0.6650   -0.8527 H   0  0  0  0  0  0  0  0  0  0  0  0
  1  2  2  0  0  0  0
  3  4  1  0  0  0  0
  3  1  1  0  0  0  0
  3 15  1  0  0  0  0
  5 19  1  0  0  0  0
  5  1  1  0  0  0  0
  6  5  1  0  0  0  0
  7 10  1  0  0  0  0
  7  5  1  0  0  0  0
  8  7  1  0  0  0  0
  9  7  1  0  0  0  0
 11  3  1  0  0  0  0
 12 11  1  0  0  0  0
 13 11  1  0  0  0  0
 14 11  1  0  0  0  0
 15 16  1  0  0  0  0
 17 15  1  0  0  0  0
 18 15  1  0  0  0  0
 19 21  1  0  0  0  0
 19 20  1  0  0  0  0
 22 19  1  0  0  0  0
M  END
