79
q = -1.0

 79 84  0  0  1  0  0  0  0  0999 V2000
    4.6023   -0.7220    0.3073 C   0  0  0  0  0  0  0  0  0  0  0  0
    5.7056   -1.5896    0.2836 C   0  0  0  0  0  0  0  0  0  0  0  0
    5.7210   -2.5168    0.8689 H   0  0  0  0  0  0  0  0  0  0  0  0
    6.7875   -1.2400   -0.5345 C   0  0  0  0  0  0  0  0  0  0  0  0
    7.6635   -1.9036   -0.5772 H   0  0  0  0  0  0  0  0  0  0  0  0
    6.7689   -0.0626   -1.3117 C   0  0  0  0  0  0  0  0  0  0  0  0
    7.6307    0.1778   -1.9513 H   0  0  0  0  0  0  0  0  0  0  0  0
    5.6692    0.8052   -1.2949 C   0  0  0  0  0  0  0  0  0  0  0  0
    5.6612    1.7112   -1.9124 H   0  0  0  0  0  0  0  0  0  0  0  0
    4.5823    0.4622   -0.4744 C   0  0  0  0  0  0  0  0  0  0  0  0
    2.7712    2.1751   -1.0575 C   0  0  0  0  0  0  0  0  0  0  0  0
    1.7615    2.3144   -0.6290 H   0  0  0  0  0  0  0  0  0  0  0  0
    3.5454    3.4831   -0.8771 C   0  0  0  0  0  0  0  0  0  0  0  0
    3.6381    3.7572    0.1910 H   0  0  0  0  0  0  0  0  0  0  0  0
    2.9998    4.2997   -1.3891 H   0  0  0  0  0  0  0  0  0  0  0  0
    4.5617    3.4370   -1.3148 H   0  0  0  0  0  0  0  0  0  0  0  0
    2.6060    1.7476   -2.5187 C   0  0  0  0  0  0  0  0  0  0  0  0
    3.5785    1.6527   -3.0407 H   0  0  0  0  0  0  0  0  0  0  0  0
    2.0069    2.5118   -3.0527 H   0  0  0  0  0  0  0  0  0  0  0  0
    2.0932    0.7666   -2.5783 H   0  0  0  0  0  0  0  0  0  0  0  0
    2.9726   -1.8009    1.9637 C   0  0  0  0  0  0  0  0  0  0  0  0
    1.9820   -1.4442    2.3102 H   0  0  0  0  0  0  0  0  0  0  0  0
    3.9092   -1.8357    3.1752 C   0  0  0  0  0  0  0  0  0  0  0  0
    4.9279   -2.1849    2.9179 H   0  0  0  0  0  0  0  0  0  0  0  0
    3.4983   -2.5330    3.9315 H   0  0  0  0  0  0  0  0  0  0  0  0
    3.9935   -0.8342    3.6416 H   0  0  0  0  0  0  0  0  0  0  0  0
    2.7690   -3.1537    1.2774 C   0  0  0  0  0  0  0  0  0  0  0  0
    2.1481   -3.0327    0.3677 H   0  0  0  0  0  0  0  0  0  0  0  0
    2.2668   -3.8489    1.9788 H   0  0  0  0  0  0  0  0  0  0  0  0
    3.7285   -3.6140    0.9687 H   0  0  0  0  0  0  0  0  0  0  0  0
    2.6257    0.3101    0.6352 C   0  0  0  0  0  3  0  0  0  0  0  0
    1.2678    0.5504    1.0318 C   0  0  1  0  0  3  0  0  0  0  0  0
    0.7227    1.8128    1.4645 C   0  0  0  0  0  0  0  0  0  0  0  0
    1.4156    2.9568    1.9352 C   0  0  0  0  0  0  0  0  0  0  0  0
    2.5154    2.9442    1.9819 H   0  0  0  0  0  0  0  0  0  0  0  0
    0.7076    4.0794    2.3716 C   0  0  0  0  0  0  0  0  0  0  0  0
    1.2542    4.9600    2.7417 H   0  0  0  0  0  0  0  0  0  0  0  0
   -0.7076    4.0794    2.3716 C   0  0  0  0  0  0  0  0  0  0  0  0
   -1.2542    4.9600    2.7417 H   0  0  0  0  0  0  0  0  0  0  0  0
   -1.4156    2.9568    1.9353 C   0  0  0  0  0  0  0  0  0  0  0  0
   -2.5154    2.9442    1.9820 H   0  0  0  0  0  0  0  0  0  0  0  0
   -0.7228    1.8128    1.4645 C   0  0  0  0  0  0  0  0  0  0  0  0
   -1.2678    0.5504    1.0318 C   0  0  1  0  0  3  0  0  0  0  0  0
   -2.6258    0.3101    0.6352 C   0  0  0  0  0  3  0  0  0  0  0  0
   -2.7712    2.1751   -1.0575 C   0  0  0  0  0  0  0  0  0  0  0  0
   -1.7615    2.3145   -0.6290 H   0  0  0  0  0  0  0  0  0  0  0  0
   -2.6059    1.7475   -2.5187 C   0  0  0  0  0  0  0  0  0  0  0  0
   -2.0931    0.7666   -2.5782 H   0  0  0  0  0  0  0  0  0  0  0  0
   -2.0068    2.5117   -3.0527 H   0  0  0  0  0  0  0  0  0  0  0  0
   -3.5784    1.6526   -3.0408 H   0  0  0  0  0  0  0  0  0  0  0  0
   -3.5455    3.4830   -0.8772 C   0  0  0  0  0  0  0  0  0  0  0  0
   -4.5617    3.4369   -1.3150 H   0  0  0  0  0  0  0  0  0  0  0  0
   -2.9999    4.2996   -1.3892 H   0  0  0  0  0  0  0  0  0  0  0  0
   -3.6382    3.7572    0.1908 H   0  0  0  0  0  0  0  0  0  0  0  0
   -4.5823    0.4622   -0.4744 C   0  0  0  0  0  0  0  0  0  0  0  0
   -5.6692    0.8052   -1.2950 C   0  0  0  0  0  0  0  0  0  0  0  0
   -5.6611    1.7112   -1.9125 H   0  0  0  0  0  0  0  0  0  0  0  0
   -6.7689   -0.0626   -1.3119 C   0  0  0  0  0  0  0  0  0  0  0  0
   -7.6306    0.1778   -1.9514 H   0  0  0  0  0  0  0  0  0  0  0  0
   -6.7875   -1.2400   -0.5346 C   0  0  0  0  0  0  0  0  0  0  0  0
   -7.6635   -1.9035   -0.5773 H   0  0  0  0  0  0  0  0  0  0  0  0
   -5.7056   -1.5896    0.2836 C   0  0  0  0  0  0  0  0  0  0  0  0
   -5.7210   -2.5167    0.8689 H   0  0  0  0  0  0  0  0  0  0  0  0
   -4.6023   -0.7220    0.3073 C   0  0  0  0  0  0  0  0  0  0  0  0
   -2.9727   -1.8009    1.9637 C   0  0  0  0  0  0  0  0  0  0  0  0
   -1.9821   -1.4442    2.3103 H   0  0  0  0  0  0  0  0  0  0  0  0
   -2.7690   -3.1537    1.2774 C   0  0  0  0  0  0  0  0  0  0  0  0
   -3.7286   -3.6139    0.9686 H   0  0  0  0  0  0  0  0  0  0  0  0
   -2.2670   -3.8489    1.9789 H   0  0  0  0  0  0  0  0  0  0  0  0
   -2.1480   -3.0327    0.3678 H   0  0  0  0  0  0  0  0  0  0  0  0
   -3.9094   -1.8357    3.1752 C   0  0  0  0  0  0  0  0  0  0  0  0
   -3.9938   -0.8342    3.6416 H   0  0  0  0  0  0  0  0  0  0  0  0
   -3.4985   -2.5329    3.9315 H   0  0  0  0  0  0  0  0  0  0  0  0
   -4.9281   -2.1849    2.9178 H   0  0  0  0  0  0  0  0  0  0  0  0
    3.3526    1.0779   -0.2460 N   0  0  0  0  0  0  0  0  0  0  0  0
    3.3923   -0.7683    0.9943 N   0  0  0  0  0  0  0  0  0  0  0  0
   -3.3527    1.0779   -0.2460 N   0  0  0  0  0  0  0  0  0  0  0  0
   -3.3924   -0.7683    0.9943 N   0  0  0  0  0  0  0  0  0  0  0  0
   -0.0000   -0.6630    0.7039 P   0  0  0  0  0  2  0  0  0  0  0  0
  1 76  1  0  0  0  0
  2  1  1  0  0  0  0
  2  3  1  0  0  0  0
  4  2  2  0  0  0  0
  5  4  1  0  0  0  0
  6  8  2  0  0  0  0
  6  4  1  0  0  0  0
  7  6  1  0  0  0  0
  8 10  1  0  0  0  0
  9  8  1  0  0  0  0
 10 75  1  0  0  0  0
 10  1  2  0  0  0  0
 11 13  1  0  0  0  0
 11 12  1  0  0  0  0
 11 75  1  0  0  0  0
 13 14  1  0  0  0  0
 15 13  1  0  0  0  0
 16 13  1  0  0  0  0
 17 11  1  0  0  0  0
 18 17  1  0  0  0  0
 19 17  1  0  0  0  0
 20 17  1  0  0  0  0
 21 22  1  0  0  0  0
 21 23  1  0  0  0  0
 23 26  1  0  0  0  0
 23 25  1  0  0  0  0
 24 23  1  0  0  0  0
 27 21  1  0  0  0  0
 27 29  1  0  0  0  0
 28 27  1  0  0  0  0
 30 27  1  0  0  0  0
 31 76  1  0  0  0  0
 32 31  1  6  0  0  0
 32 33  1  0  0  0  0
 33 42  2  0  0  0  0
 33 34  1  0  0  0  0
 34 35  1  0  0  0  0
 34 36  2  0  0  0  0
 36 38  1  0  0  0  0
 36 37  1  0  0  0  0
 38 39  1  0  0  0  0
 40 41  1  0  0  0  0
 40 38  2  0  0  0  0
 42 40  1  0  0  0  0
 43 44  1  6  0  0  0
 43 42  1  0  0  0  0
 44 78  1  0  0  0  0
 45 51  1  0  0  0  0
 45 46  1  0  0  0  0
 45 77  1  0  0  0  0
 47 45  1  0  0  0  0
 48 47  1  0  0  0  0
 49 47  1  0  0  0  0
 50 47  1  0  0  0  0
 51 54  1  0  0  0  0
 52 51  1  0  0  0  0
 53 51  1  0  0  0  0
 55 77  1  0  0  0  0
 55 64  1  0  0  0  0
 56 55  2  0  0  0  0
 57 56  1  0  0  0  0
 58 56  1  0  0  0  0
 58 60  2  0  0  0  0
 59 58  1  0  0  0  0
 60 62  1  0  0  0  0
 61 60  1  0  0  0  0
 62 64  2  0  0  0  0
 62 63  1  0  0  0  0
 64 78  1  0  0  0  0
 65 66  1  0  0  0  0
 65 71  1  0  0  0  0
 67 65  1  0  0  0  0
 67 69  1  0  0  0  0
 68 67  1  0  0  0  0
 70 67  1  0  0  0  0
 71 72  1  0  0  0  0
 71 73  1  0  0  0  0
 74 71  1  0  0  0  0
 75 31  1  0  0  0  0
 76 21  1  0  0  0  0
 77 44  1  0  0  0  0
 78 65  1  0  0  0  0
 79 32  1  0  0  0  0
 79 43  1  0  0  0  0
M  END
