1
q = 0.0, confidence = 0.994

 46 49  0  0  1  0  0  0  0  0999 V2000
    0.7833    0.2093   -0.1664 P   0  0  0  0  0  0  0  0  0  0  0  0
    2.0061   -0.2050   -1.5649 C   0  0  1  0  0  0  0  0  0  0  0  0
    1.3403    0.0173   -2.9256 C   0  0  0  0  0  0  0  0  0  0  0  0
    3.3445    0.4572   -1.3778 C   0  0  0  0  0  0  0  0  0  0  0  0
    3.5619    1.7568   -1.8378 C   0  0  0  0  0  0  0  0  0  0  0  0
    4.7927    2.4260   -1.6215 C   0  0  0  0  0  0  0  0  0  0  0  0
    5.8180    1.7932   -0.9370 C   0  0  0  0  0  0  0  0  0  0  0  0
    5.6494    0.4669   -0.4426 C   0  0  0  0  0  0  0  0  0  0  0  0
    6.6837   -0.1818    0.2950 C   0  0  0  0  0  0  0  0  0  0  0  0
    6.5012   -1.4548    0.8111 C   0  0  0  0  0  0  0  0  0  0  0  0
    5.2719   -2.1327    0.6007 C   0  0  0  0  0  0  0  0  0  0  0  0
    4.2481   -1.5366   -0.1209 C   0  0  0  0  0  0  0  0  0  0  0  0
    4.3989   -0.2240   -0.6648 C   0  0  0  0  0  0  0  0  0  0  0  0
    1.7162    0.1570    1.4142 C   0  0  0  0  0  0  0  0  0  0  0  0
    1.2730   -0.7760    2.3762 C   0  0  0  0  0  0  0  0  0  0  0  0
    1.9636   -0.9337    3.5861 C   0  0  0  0  0  0  0  0  0  0  0  0
    3.1071   -0.1643    3.8488 C   0  0  0  0  0  0  0  0  0  0  0  0
    3.5535    0.7692    2.9003 C   0  0  0  0  0  0  0  0  0  0  0  0
    2.8653    0.9333    1.6904 C   0  0  0  0  0  0  0  0  0  0  0  0
    0.3139    1.9620   -0.4912 C   0  0  0  0  0  0  0  0  0  0  0  0
   -0.6871    2.1798   -1.4641 C   0  0  0  0  0  0  0  0  0  0  0  0
   -1.0938    3.4795   -1.7911 C   0  0  0  0  0  0  0  0  0  0  0  0
   -0.5192    4.5823   -1.1385 C   0  0  0  0  0  0  0  0  0  0  0  0
    0.4593    4.3744   -0.1553 C   0  0  0  0  0  0  0  0  0  0  0  0
    0.8762    3.0731    0.1674 C   0  0  0  0  0  0  0  0  0  0  0  0
    2.0825   -1.3005   -1.4204 H   0  0  0  0  0  0  0  0  0  0  0  0
    0.3941   -0.5584   -2.9845 H   0  0  0  0  0  0  0  0  0  0  0  0
    2.0165   -0.3480   -3.7243 H   0  0  0  0  0  0  0  0  0  0  0  0
    1.1100    1.0802   -3.1334 H   0  0  0  0  0  0  0  0  0  0  0  0
    2.7550    2.2833   -2.3678 H   0  0  0  0  0  0  0  0  0  0  0  0
    4.9253    3.4518   -1.9977 H   0  0  0  0  0  0  0  0  0  0  0  0
    6.7761    2.3064   -0.7593 H   0  0  0  0  0  0  0  0  0  0  0  0
    7.6320    0.3561    0.4525 H   0  0  0  0  0  0  0  0  0  0  0  0
    7.3053   -1.9404    1.3847 H   0  0  0  0  0  0  0  0  0  0  0  0
    5.1236   -3.1404    1.0169 H   0  0  0  0  0  0  0  0  0  0  0  0
    3.3021   -2.0849   -0.2453 H   0  0  0  0  0  0  0  0  0  0  0  0
    0.3854   -1.3889    2.1512 H   0  0  0  0  0  0  0  0  0  0  0  0
    1.6087   -1.6699    4.3230 H   0  0  0  0  0  0  0  0  0  0  0  0
    3.6560   -0.2947    4.7939 H   0  0  0  0  0  0  0  0  0  0  0  0
    4.4570    1.3671    3.0924 H   0  0  0  0  0  0  0  0  0  0  0  0
    3.2522    1.6467    0.9514 H   0  0  0  0  0  0  0  0  0  0  0  0
   -1.1774    1.3147   -1.9346 H   0  0  0  0  0  0  0  0  0  0  0  0
   -1.8802    3.6301   -2.5460 H   0  0  0  0  0  0  0  0  0  0  0  0
   -0.8464    5.6035   -1.3862 H   0  0  0  0  0  0  0  0  0  0  0  0
    0.9022    5.2317    0.3741 H   0  0  0  0  0  0  0  0  0  0  0  0
    1.6265    2.9296    0.9555 H   0  0  0  0  0  0  0  0  0  0  0  0
  1 14  1  0  0  0  0
  2 26  1  1  0  0  0
  2  4  1  0  0  0  0
  2  1  1  0  0  0  0
  3  2  1  0  0  0  0
  4 13  1  0  0  0  0
  5  6  1  0  0  0  0
  5  4  2  0  0  0  0
  6  7  2  0  0  0  0
  7 32  1  0  0  0  0
  7  8  1  0  0  0  0
  8  9  1  0  0  0  0
  9 33  1  0  0  0  0
  9 10  2  0  0  0  0
 10 34  1  0  0  0  0
 11 10  1  0  0  0  0
 11 35  1  0  0  0  0
 12 11  2  0  0  0  0
 13  8  2  0  0  0  0
 13 12  1  0  0  0  0
 14 19  2  0  0  0  0
 14 15  1  0  0  0  0
 15 16  2  0  0  0  0
 16 17  1  0  0  0  0
 16 38  1  0  0  0  0
 17 39  1  0  0  0  0
 18 40  1  0  0  0  0
 18 17  2  0  0  0  0
 19 18  1  0  0  0  0
 20  1  1  0  0  0  0
 20 25  1  0  0  0  0
 21 20  2  0  0  0  0
 22 21  1  0  0  0  0
 22 23  2  0  0  0  0
 23 24  1  0  0  0  0
 24 25  2  0  0  0  0
 24 45  1  0  0  0  0
 25 46  1  0  0  0  0
 27  3  1  0  0  0  0
 28  3  1  0  0  0  0
 29  3  1  0  0  0  0
 30  5  1  0  0  0  0
 31  6  1  0  0  0  0
 36 12  1  0  0  0  0
 37 15  1  0  0  0  0
 41 19  1  0  0  0  0
 42 21  1  0  0  0  0
 43 22  1  0  0  0  0
 44 23  1  0  0  0  0
M  END
