1
q = 0.0, confidence = 0.976

 79 95  0  0  1  0  0  0  0  0999 V2000
   -0.0062    0.0072   -0.6137 P   0  0  2  0  0  0  0  0  0  0  0  0
   -2.8440    0.4999   -0.9939 C   0  0  2  0  0  0  0  0  0  0  0  0
   -4.0552    0.7442   -2.0842 C   0  0  1  0  0  0  0  0  0  0  0  0
   -3.7366    1.1106   -3.0688 H   0  0  0  0  0  0  0  0  0  0  0  0
   -1.4372    0.8436   -1.4704 C   0  0  0  0  0  0  0  0  0  0  0  0
   -1.2590    1.9255   -1.3240 H   0  0  0  0  0  0  0  0  0  0  0  0
   -1.3416    0.6356   -2.5556 H   0  0  0  0  0  0  0  0  0  0  0  0
   -3.6160   -0.8671   -1.7169 B   0  0  2  0  0  0  0  0  0  0  0  0
   -2.9816   -1.4733   -2.5433 H   0  0  0  0  0  0  0  0  0  0  0  0
   -3.2368   -0.8240    0.0162 B   0  0  2  0  0  0  0  0  0  0  0  0
   -2.3312   -1.5040    0.4292 H   0  0  0  0  0  0  0  0  0  0  0  0
   -3.4030    0.8584    0.5816 B   0  0  1  0  0  0  0  0  0  0  0  0
   -2.6020    1.3176    1.3545 H   0  0  0  0  0  0  0  0  0  0  0  0
   -3.9053    1.8609   -0.7949 B   0  0  2  0  0  0  0  0  0  0  0  0
   -3.4390    2.9419   -1.0437 H   0  0  0  0  0  0  0  0  0  0  0  0
   -5.3143   -0.3877   -1.9271 B   0  0  1  0  0  0  0  0  0  0  0  0
   -5.8712   -0.7504   -2.9323 H   0  0  0  0  0  0  0  0  0  0  0  0
   -4.8259   -1.3993   -0.5419 B   0  0  0  0  0  0  0  0  0  0  0  0
   -5.1206   -2.5686   -0.4832 H   0  0  0  0  0  0  0  0  0  0  0  0
   -4.6998   -0.3289    0.8922 B   0  0  1  0  0  0  0  0  0  0  0  0
   -4.9065   -0.7303    2.0108 H   0  0  0  0  0  0  0  0  0  0  0  0
   -5.1128    1.3372    0.3836 B   0  0  0  0  0  0  0  0  0  0  0  0
   -5.6185    2.1517    1.1156 H   0  0  0  0  0  0  0  0  0  0  0  0
   -5.4908    1.2913   -1.3591 B   0  0  2  0  0  0  0  0  0  0  0  0
   -6.1700    2.0687   -1.9804 H   0  0  0  0  0  0  0  0  0  0  0  0
   -5.9930   -0.0609   -0.3112 B   0  0  1  0  0  0  0  0  0  0  0  0
   -7.1611   -0.2624   -0.0836 H   0  0  0  0  0  0  0  0  0  0  0  0
    1.8463    2.2062   -0.9919 C   0  0  2  0  0  0  0  0  0  0  0  0
    2.6711    3.1337   -2.0740 C   0  0  1  0  0  0  0  0  0  0  0  0
    2.8246    2.6814   -3.0625 H   0  0  0  0  0  0  0  0  0  0  0  0
    1.4270    0.8247   -1.4806 C   0  0  0  0  0  0  0  0  0  0  0  0
    2.2715    0.1210   -1.3550 H   0  0  0  0  0  0  0  0  0  0  0  0
    1.1857    0.8587   -2.5625 H   0  0  0  0  0  0  0  0  0  0  0  0
    1.0597    3.5713   -1.7018 B   0  0  2  0  0  0  0  0  0  0  0  0
    0.2149    3.3397   -2.5297 H   0  0  0  0  0  0  0  0  0  0  0  0
    0.9049    3.2071    0.0281 B   0  0  2  0  0  0  0  0  0  0  0  0
   -0.1413    2.7688    0.4358 H   0  0  0  0  0  0  0  0  0  0  0  0
    2.4394    2.4912    0.5856 B   0  0  1  0  0  0  0  0  0  0  0  0
    2.4289    1.5612    1.3507 H   0  0  0  0  0  0  0  0  0  0  0  0
    3.5580    2.4262   -0.7915 B   0  0  2  0  0  0  0  0  0  0  0  0
    4.2517    1.4772   -1.0489 H   0  0  0  0  0  0  0  0  0  0  0  0
    2.3356    4.7916   -1.9026 B   0  0  1  0  0  0  0  0  0  0  0  0
    2.3060    5.4643   -2.9020 H   0  0  0  0  0  0  0  0  0  0  0  0
    1.2167    4.8735   -0.5157 B   0  0  0  0  0  0  0  0  0  0  0  0
    0.3596    5.7207   -0.4492 H   0  0  0  0  0  0  0  0  0  0  0  0
    2.0758    4.2082    0.9118 B   0  0  1  0  0  0  0  0  0  0  0  0
    1.8364    4.5803    2.0340 H   0  0  0  0  0  0  0  0  0  0  0  0
    3.7205    3.7221    0.3981 B   0  0  0  0  0  0  0  0  0  0  0  0
    4.6794    3.7374    1.1299 H   0  0  0  0  0  0  0  0  0  0  0  0
    3.8721    4.0860   -1.3417 B   0  0  2  0  0  0  0  0  0  0  0  0
    4.8863    4.2818   -1.9620 H   0  0  0  0  0  0  0  0  0  0  0  0
    2.9630    5.1963   -0.2836 B   0  0  1  0  0  0  0  0  0  0  0  0
    3.3833    6.3027   -0.0466 H   0  0  0  0  0  0  0  0  0  0  0  0
    1.0328   -2.6714   -1.0558 C   0  0  2  0  0  0  0  0  0  0  0  0
    0.5159   -4.2244   -0.8477 C   0  0  1  0  0  0  0  0  0  0  0  0
   -0.5623   -4.3816   -0.9827 H   0  0  0  0  0  0  0  0  0  0  0  0
   -0.0143   -1.6475   -1.4754 C   0  0  0  0  0  0  0  0  0  0  0  0
   -1.0263   -2.0524   -1.2835 H   0  0  0  0  0  0  0  0  0  0  0  0
    0.0615   -1.4638   -2.5655 H   0  0  0  0  0  0  0  0  0  0  0  0
    1.3927   -3.8585   -2.2690 B   0  0  2  0  0  0  0  0  0  0  0  0
    0.7809   -3.7708   -3.3024 H   0  0  0  0  0  0  0  0  0  0  0  0
    2.6025   -2.6769   -1.7292 B   0  0  0  0  0  0  0  0  0  0  0  0
    2.8747   -1.7761   -2.4861 H   0  0  0  0  0  0  0  0  0  0  0  0
    2.3412   -2.3542    0.0006 B   0  0  2  0  0  0  0  0  0  0  0  0
    2.4496   -1.2384    0.4421 H   0  0  0  0  0  0  0  0  0  0  0  0
    0.9523   -3.3247    0.5425 B   0  0  0  0  0  0  0  0  0  0  0  0
    0.0705   -2.9199    1.2518 H   0  0  0  0  0  0  0  0  0  0  0  0
    1.6533   -5.3698   -1.3744 B   0  0  1  0  0  0  0  0  0  0  0  0
    1.2391   -6.3853   -1.8732 H   0  0  0  0  0  0  0  0  0  0  0  0
    3.0428   -4.3940   -1.9203 B   0  0  1  0  0  0  0  0  0  0  0  0
    3.7510   -4.7580   -2.8274 H   0  0  0  0  0  0  0  0  0  0  0  0
    3.6350   -3.4620   -0.5105 B   0  0  2  0  0  0  0  0  0  0  0  0
    4.7933   -3.1422   -0.3931 H   0  0  0  0  0  0  0  0  0  0  0  0
    2.6049   -3.8623    0.9028 B   0  0  0  0  0  0  0  0  0  0  0  0
    2.9983   -3.8453    2.0424 H   0  0  0  0  0  0  0  0  0  0  0  0
    1.3841   -5.0425    0.3567 B   0  0  2  0  0  0  0  0  0  0  0  0
    0.7894   -5.8375    1.0384 H   0  0  0  0  0  0  0  0  0  0  0  0
    3.0450   -5.1308   -0.2860 B   0  0  0  0  0  0  0  0  0  0  0  0
    3.7685   -6.0537   -0.0006 H   0  0  0  0  0  0  0  0  0  0  0  0
  1 31  1  6  0  0  0
  2  5  1  6  0  0  0
  2 10  1  0  0  0  0
  2 12  1  0  0  0  0
  3  4  1  6  0  0  0
  3 16  1  0  0  0  0
  3 24  1  0  0  0  0
  3  2  1  0  0  0  0
  5  6  1  0  0  0  0
  5  1  1  0  0  0  0
  7  5  1  0  0  0  0
  8  9  1  6  0  0  0
  8 18  1  0  0  0  0
  8 10  1  0  0  0  0
 10 11  1  1  0  0  0
 10 20  1  0  0  0  0
 12 20  1  0  0  0  0
 12 13  1  1  0  0  0
 14 15  1  6  0  0  0
 14 22  1  0  0  0  0
 14 12  1  0  0  0  0
 16 17  1  6  0  0  0
 16  8  1  0  0  0  0
 16 24  1  0  0  0  0
 18 19  1  0  0  0  0
 18 26  1  0  0  0  0
 20 21  1  1  0  0  0
 22 23  1  0  0  0  0
 24 25  1  6  0  0  0
 24 14  1  0  0  0  0
 26 27  1  1  0  0  0
 26 22  1  0  0  0  0
 26 20  1  0  0  0  0
 28 31  1  6  0  0  0
 28 36  1  0  0  0  0
 28 38  1  0  0  0  0
 29 30  1  6  0  0  0
 29 42  1  0  0  0  0
 29 50  1  0  0  0  0
 29 28  1  0  0  0  0
 31 32  1  0  0  0  0
 33 31  1  0  0  0  0
 34 35  1  6  0  0  0
 34 44  1  0  0  0  0
 34 36  1  0  0  0  0
 36 37  1  1  0  0  0
 36 46  1  0  0  0  0
 38 46  1  0  0  0  0
 38 39  1  1  0  0  0
 40 41  1  6  0  0  0
 40 48  1  0  0  0  0
 40 38  1  0  0  0  0
 42 43  1  6  0  0  0
 42 34  1  0  0  0  0
 42 50  1  0  0  0  0
 44 45  1  0  0  0  0
 44 52  1  0  0  0  0
 46 47  1  1  0  0  0
 48 49  1  0  0  0  0
 50 51  1  6  0  0  0
 50 40  1  0  0  0  0
 52 53  1  1  0  0  0
 52 48  1  0  0  0  0
 52 46  1  0  0  0  0
 54 57  1  6  0  0  0
 54 55  1  0  0  0  0
 54 64  1  0  0  0  0
 55 56  1  6  0  0  0
 55 76  1  0  0  0  0
 57 58  1  0  0  0  0
 57  1  1  0  0  0  0
 59 57  1  0  0  0  0
 60 61  1  6  0  0  0
 60 70  1  0  0  0  0
 60 62  1  0  0  0  0
 60 68  1  0  0  0  0
 62 54  1  0  0  0  0
 63 62  1  0  0  0  0
 64 65  1  1  0  0  0
 64 74  1  0  0  0  0
 66 74  1  0  0  0  0
 66 67  1  0  0  0  0
 68 69  1  6  0  0  0
 68 55  1  0  0  0  0
 68 76  1  0  0  0  0
 70 71  1  6  0  0  0
 70 72  1  0  0  0  0
 70 78  1  0  0  0  0
 72 73  1  1  0  0  0
 72 78  1  0  0  0  0
 72 64  1  0  0  0  0
 74 75  1  0  0  0  0
 76 66  1  0  0  0  0
 76 77  1  1  0  0  0
 78 79  1  0  0  0  0
M  END
