1
q = -2.0, confidence = 0.53

 28 27  0  0  0  0  0  0  0  0999 V2000
    1.4567    0.0237   -0.9116 P   0  0  0  0  0  1  0  0  0  0  0  0
    3.0321    0.5493    0.5788 P   0  0  0  0  0  0  0  0  0  0  0  0
    4.4379   -0.6777   -0.0145 C   0  0  0  0  0  0  0  0  0  0  0  0
    5.7736   -0.2374    0.6035 C   0  0  0  0  0  0  0  0  0  0  0  0
    5.6752   -0.0264    1.6888 H   0  0  0  0  0  0  0  0  0  0  0  0
    6.1831    0.6653    0.1095 H   0  0  0  0  0  0  0  0  0  0  0  0
    6.5273   -1.0466    0.4824 H   0  0  0  0  0  0  0  0  0  0  0  0
    4.5868   -0.8589   -1.5312 C   0  0  0  0  0  0  0  0  0  0  0  0
    3.6107   -1.1016   -2.0008 H   0  0  0  0  0  0  0  0  0  0  0  0
    5.2944   -1.6919   -1.7399 H   0  0  0  0  0  0  0  0  0  0  0  0
    4.9799    0.0455   -2.0296 H   0  0  0  0  0  0  0  0  0  0  0  0
    4.0429   -2.0357    0.5958 C   0  0  0  0  0  0  0  0  0  0  0  0
    3.9785   -1.9833    1.7025 H   0  0  0  0  0  0  0  0  0  0  0  0
    4.8093   -2.7994    0.3394 H   0  0  0  0  0  0  0  0  0  0  0  0
    3.0672   -2.3839    0.1980 H   0  0  0  0  0  0  0  0  0  0  0  0
    3.5338    2.3416    0.0181 C   0  0  0  0  0  0  0  0  0  0  0  0
    4.5376    2.9040    1.0411 C   0  0  0  0  0  0  0  0  0  0  0  0
    4.1614    2.7855    2.0781 H   0  0  0  0  0  0  0  0  0  0  0  0
    4.6971    3.9894    0.8560 H   0  0  0  0  0  0  0  0  0  0  0  0
    5.5252    2.4104    0.9823 H   0  0  0  0  0  0  0  0  0  0  0  0
    2.2384    3.1616    0.1306 C   0  0  0  0  0  0  0  0  0  0  0  0
    1.8045    3.0877    1.1502 H   0  0  0  0  0  0  0  0  0  0  0  0
    1.4823    2.8107   -0.6020 H   0  0  0  0  0  0  0  0  0  0  0  0
    2.4473    4.2353   -0.0703 H   0  0  0  0  0  0  0  0  0  0  0  0
    4.0771    2.4682   -1.4087 C   0  0  0  0  0  0  0  0  0  0  0  0
    3.3973    1.9793   -2.1364 H   0  0  0  0  0  0  0  0  0  0  0  0
    5.0830    2.0164   -1.5107 H   0  0  0  0  0  0  0  0  0  0  0  0
    4.1714    3.5417   -1.6878 H   0  0  0  0  0  0  0  0  0  0  0  0
  1  2  1  0  0  0  0
  3  2  1  0  0  0  0
  3 12  1  0  0  0  0
  3  4  1  0  0  0  0
  4  5  1  0  0  0  0
  6  4  1  0  0  0  0
  7  4  1  0  0  0  0
  8  3  1  0  0  0  0
  9  8  1  0  0  0  0
 10  8  1  0  0  0  0
 11  8  1  0  0  0  0
 12 13  1  0  0  0  0
 14 12  1  0  0  0  0
 15 12  1  0  0  0  0
 16 21  1  0  0  0  0
 16  2  1  0  0  0  0
 16 17  1  0  0  0  0
 17 18  1  0  0  0  0
 19 17  1  0  0  0  0
 20 17  1  0  0  0  0
 21 22  1  0  0  0  0
 23 21  1  0  0  0  0
 24 21  1  0  0  0  0
 25 16  1  0  0  0  0
 26 25  1  0  0  0  0
 27 25  1  0  0  0  0
 28 25  1  0  0  0  0
M  END
