1
q = 0.0, confidence = 1.0

 54 60  0  0  0  0  0  0  0  0999 V2000
    0.3566   -0.1105    0.6319 P   0  0  0  0  0  0  0  0  0  0  0  0
   -0.0931    1.5070    0.0889 N   0  0  0  0  0  0  0  0  0  0  0  0
    1.7694   -0.4995   -0.3053 N   0  0  0  0  0  0  0  0  0  0  0  0
   -1.2456    2.1128    0.6488 C   0  0  0  0  0  0  0  0  0  0  0  0
   -1.9756    1.7546    1.7962 C   0  0  0  0  0  0  0  0  0  0  0  0
   -1.7004    0.8855    2.4096 H   0  0  0  0  0  0  0  0  0  0  0  0
   -3.0995    2.5260    2.1263 C   0  0  0  0  0  0  0  0  0  0  0  0
   -3.6861    2.2556    3.0169 H   0  0  0  0  0  0  0  0  0  0  0  0
   -3.4942    3.6290    1.3390 C   0  0  0  0  0  0  0  0  0  0  0  0
   -4.3788    4.2153    1.6288 H   0  0  0  0  0  0  0  0  0  0  0  0
   -2.7745    3.9728    0.1880 C   0  0  0  0  0  0  0  0  0  0  0  0
   -3.0874    4.8220   -0.4385 H   0  0  0  0  0  0  0  0  0  0  0  0
   -1.6502    3.2053   -0.1689 C   0  0  0  0  0  0  0  0  0  0  0  0
   -0.7550    3.2313   -1.3066 C   0  0  0  0  0  0  0  0  0  0  0  0
   -0.7040    4.0573   -2.4434 C   0  0  0  0  0  0  0  0  0  0  0  0
   -1.4161    4.8896   -2.5516 H   0  0  0  0  0  0  0  0  0  0  0  0
    0.2508    3.7967   -3.4319 C   0  0  0  0  0  0  0  0  0  0  0  0
    0.3025    4.4294   -4.3304 H   0  0  0  0  0  0  0  0  0  0  0  0
    1.1441    2.7163   -3.2812 C   0  0  0  0  0  0  0  0  0  0  0  0
    1.8851    2.5087   -4.0676 H   0  0  0  0  0  0  0  0  0  0  0  0
    1.1201    1.8857   -2.1513 C   0  0  0  0  0  0  0  0  0  0  0  0
    1.8281    1.0564   -2.0841 H   0  0  0  0  0  0  0  0  0  0  0  0
    0.1686    2.1504   -1.1500 C   0  0  0  0  0  0  0  0  0  0  0  0
    1.8827   -1.5870   -1.2164 C   0  0  0  0  0  0  0  0  0  0  0  0
    0.9128   -2.4931   -1.6699 C   0  0  0  0  0  0  0  0  0  0  0  0
   -0.1270   -2.4337   -1.3020 H   0  0  0  0  0  0  0  0  0  0  0  0
    1.3113   -3.4814   -2.5807 C   0  0  0  0  0  0  0  0  0  0  0  0
    0.5615   -4.2003   -2.9439 H   0  0  0  0  0  0  0  0  0  0  0  0
    2.6433   -3.5699   -3.0392 C   0  0  0  0  0  0  0  0  0  0  0  0
    2.9223   -4.3570   -3.7555 H   0  0  0  0  0  0  0  0  0  0  0  0
    3.6080   -2.6609   -2.5906 C   0  0  0  0  0  0  0  0  0  0  0  0
    4.6476   -2.7207   -2.9465 H   0  0  0  0  0  0  0  0  0  0  0  0
    3.2306   -1.6608   -1.6750 C   0  0  0  0  0  0  0  0  0  0  0  0
    3.9618   -0.5780   -1.0440 C   0  0  0  0  0  0  0  0  0  0  0  0
    5.2951   -0.1387   -1.1414 C   0  0  0  0  0  0  0  0  0  0  0  0
    6.0116   -0.6817   -1.7759 H   0  0  0  0  0  0  0  0  0  0  0  0
    5.6878    1.0018   -0.4315 C   0  0  0  0  0  0  0  0  0  0  0  0
    6.7263    1.3586   -0.4980 H   0  0  0  0  0  0  0  0  0  0  0  0
    4.7550    1.7112    0.3545 C   0  0  0  0  0  0  0  0  0  0  0  0
    5.0724    2.6202    0.8870 H   0  0  0  0  0  0  0  0  0  0  0  0
    3.4216    1.2929    0.4661 C   0  0  0  0  0  0  0  0  0  0  0  0
    2.7058    1.8730    1.0587 H   0  0  0  0  0  0  0  0  0  0  0  0
    3.0392    0.1286   -0.2185 C   0  0  0  0  0  0  0  0  0  0  0  0
    1.1294    0.1741    2.2735 C   0  0  0  0  0  0  0  0  0  0  0  0
    1.8484   -0.9064    2.8254 C   0  0  0  0  0  0  0  0  0  0  0  0
    1.9518   -1.8477    2.2648 H   0  0  0  0  0  0  0  0  0  0  0  0
    2.4546   -0.7787    4.0817 C   0  0  0  0  0  0  0  0  0  0  0  0
    3.0191   -1.6249    4.5008 H   0  0  0  0  0  0  0  0  0  0  0  0
    2.3448    0.4240    4.7983 C   0  0  0  0  0  0  0  0  0  0  0  0
    2.8194    0.5222    5.7862 H   0  0  0  0  0  0  0  0  0  0  0  0
    1.6365    1.5028    4.2477 C   0  0  0  0  0  0  0  0  0  0  0  0
    1.5573    2.4520    4.7986 H   0  0  0  0  0  0  0  0  0  0  0  0
    1.0318    1.3846    2.9871 C   0  0  0  0  0  0  0  0  0  0  0  0
    0.5017    2.2437    2.5538 H   0  0  0  0  0  0  0  0  0  0  0  0
  1 44  1  0  0  0  0
  2  1  1  0  0  0  0
  2  4  1  0  0  0  0
  3 43  1  0  0  0  0
  3  1  1  0  0  0  0
  4  5  1  0  0  0  0
  5  7  2  0  0  0  0
  5  6  1  0  0  0  0
  7  8  1  0  0  0  0
  9 10  1  0  0  0  0
  9  7  1  0  0  0  0
 11  9  2  0  0  0  0
 12 11  1  0  0  0  0
 13 11  1  0  0  0  0
 13  4  2  0  0  0  0
 14 23  1  0  0  0  0
 14 13  1  0  0  0  0
 15 14  2  0  0  0  0
 16 15  1  0  0  0  0
 17 19  2  0  0  0  0
 17 15  1  0  0  0  0
 18 17  1  0  0  0  0
 19 21  1  0  0  0  0
 20 19  1  0  0  0  0
 21 22  1  0  0  0  0
 21 23  2  0  0  0  0
 23  2  1  0  0  0  0
 24  3  1  0  0  0  0
 25 26  1  0  0  0  0
 25 24  1  0  0  0  0
 27 25  2  0  0  0  0
 28 27  1  0  0  0  0
 29 31  2  0  0  0  0
 29 27  1  0  0  0  0
 30 29  1  0  0  0  0
 31 33  1  0  0  0  0
 32 31  1  0  0  0  0
 33 24  2  0  0  0  0
 33 34  1  0  0  0  0
 34 43  1  0  0  0  0
 35 34  2  0  0  0  0
 35 37  1  0  0  0  0
 36 35  1  0  0  0  0
 37 39  2  0  0  0  0
 38 37  1  0  0  0  0
 39 41  1  0  0  0  0
 39 40  1  0  0  0  0
 41 42  1  0  0  0  0
 43 41  2  0  0  0  0
 44 45  2  0  0  0  0
 44 53  1  0  0  0  0
 45 47  1  0  0  0  0
 46 45  1  0  0  0  0
 47 48  1  0  0  0  0
 47 49  2  0  0  0  0
 49 50  1  0  0  0  0
 51 49  1  0  0  0  0
 51 52  1  0  0  0  0
 53 51  2  0  0  0  0
 54 53  1  0  0  0  0
M  END
