1
q = -1.0

 24 25  0  0  0  0  0  0  0  0999 V2000
    0.9194    0.0000    0.8765 P   0  0  0  0  0  4  0  0  0  0  0  0
    1.0935    0.0000    2.4136 O   0  0  0  0  0  0  0  0  0  0  0  0
    1.9383    1.4217    0.2092 C   0  0  0  0  0  0  0  0  0  0  0  0
    2.6812    2.1405    1.1641 C   0  0  0  0  0  0  0  0  0  0  0  0
    2.6070    1.8041    2.2119 H   0  0  0  0  0  0  0  0  0  0  0  0
    3.4674    3.2362    0.7741 C   0  0  0  0  0  0  0  0  0  0  0  0
    4.0453    3.7954    1.5283 H   0  0  0  0  0  0  0  0  0  0  0  0
    3.5146    3.6248   -0.5749 C   0  0  0  0  0  0  0  0  0  0  0  0
    4.1272    4.4875   -0.8828 H   0  0  0  0  0  0  0  0  0  0  0  0
    2.7665    2.9150   -1.5303 C   0  0  0  0  0  0  0  0  0  0  0  0
    2.7913    3.2215   -2.5885 H   0  0  0  0  0  0  0  0  0  0  0  0
    1.9772    1.8221   -1.1396 C   0  0  0  0  0  0  0  0  0  0  0  0
    1.3786    1.2870   -1.8921 H   0  0  0  0  0  0  0  0  0  0  0  0
    1.9386   -1.4215    0.2092 C   0  0  0  0  0  0  0  0  0  0  0  0
    2.6821   -2.1398    1.1641 C   0  0  0  0  0  0  0  0  0  0  0  0
    2.6079   -1.8033    2.2119 H   0  0  0  0  0  0  0  0  0  0  0  0
    3.4685   -3.2353    0.7742 C   0  0  0  0  0  0  0  0  0  0  0  0
    4.0469   -3.7940    1.5284 H   0  0  0  0  0  0  0  0  0  0  0  0
    3.5155   -3.6243   -0.5747 C   0  0  0  0  0  0  0  0  0  0  0  0
    4.1284   -4.4867   -0.8826 H   0  0  0  0  0  0  0  0  0  0  0  0
    2.7669   -2.9150   -1.5301 C   0  0  0  0  0  0  0  0  0  0  0  0
    2.7916   -3.2217   -2.5882 H   0  0  0  0  0  0  0  0  0  0  0  0
    1.9773   -1.8223   -1.1395 C   0  0  0  0  0  0  0  0  0  0  0  0
    1.3783   -1.2876   -1.8920 H   0  0  0  0  0  0  0  0  0  0  0  0
  1  2  2  0  0  0  0
  3  1  1  0  0  0  0
  3  4  1  0  0  0  0
  4  5  1  0  0  0  0
  6  4  2  0  0  0  0
  6  7  1  0  0  0  0
  8  6  1  0  0  0  0
  9  8  1  0  0  0  0
 10 12  1  0  0  0  0
 10  8  2  0  0  0  0
 11 10  1  0  0  0  0
 12  3  2  0  0  0  0
 13 12  1  0  0  0  0
 14  1  1  0  0  0  0
 14 15  1  0  0  0  0
 15 16  1  0  0  0  0
 17 15  2  0  0  0  0
 17 18  1  0  0  0  0
 19 17  1  0  0  0  0
 20 19  1  0  0  0  0
 21 23  1  0  0  0  0
 21 19  2  0  0  0  0
 22 21  1  0  0  0  0
 23 14  2  0  0  0  0
 24 23  1  0  0  0  0
M  END
