1
q = 0.0, confidence = 0.994

 28 29  0  0  0  0  0  0  0  0999 V2000
   -0.0435    0.8059    0.6858 P   0  0  0  0  0  0  0  0  0  0  0  0
    0.3170    0.7341    2.3039 O   0  0  0  0  0  0  0  0  0  0  0  0
   -0.0597    1.7811    3.2044 C   0  0  0  0  0  0  0  0  0  0  0  0
    1.0814    2.0852    0.0230 C   0  0  0  0  0  0  0  0  0  0  0  0
    0.9610    2.5176   -1.3162 C   0  0  0  0  0  0  0  0  0  0  0  0
    1.8949    3.4215   -1.8427 C   0  0  0  0  0  0  0  0  0  0  0  0
    2.9655    3.8747   -1.0569 C   0  0  0  0  0  0  0  0  0  0  0  0
    3.1123    3.4102    0.2603 C   0  0  0  0  0  0  0  0  0  0  0  0
    2.1777    2.5144    0.7998 C   0  0  0  0  0  0  0  0  0  0  0  0
   -1.7458    1.4829    0.6538 C   0  0  0  0  0  0  0  0  0  0  0  0
   -2.7033    0.8081    1.4467 C   0  0  0  0  0  0  0  0  0  0  0  0
   -4.0373    1.2381    1.4517 C   0  0  0  0  0  0  0  0  0  0  0  0
   -4.4320    2.3300    0.6608 C   0  0  0  0  0  0  0  0  0  0  0  0
   -3.4829    3.0032   -0.1239 C   0  0  0  0  0  0  0  0  0  0  0  0
   -2.1421    2.5878   -0.1239 C   0  0  0  0  0  0  0  0  0  0  0  0
    0.1819    2.7882    2.8022 H   0  0  0  0  0  0  0  0  0  0  0  0
    0.5130    1.6128    4.1366 H   0  0  0  0  0  0  0  0  0  0  0  0
   -1.1450    1.7414    3.4316 H   0  0  0  0  0  0  0  0  0  0  0  0
    0.1698    2.1082   -1.9628 H   0  0  0  0  0  0  0  0  0  0  0  0
    1.7953    3.7555   -2.8864 H   0  0  0  0  0  0  0  0  0  0  0  0
    3.6994    4.5785   -1.4779 H   0  0  0  0  0  0  0  0  0  0  0  0
    3.9637    3.7436    0.8730 H   0  0  0  0  0  0  0  0  0  0  0  0
    2.3089    2.1265    1.8202 H   0  0  0  0  0  0  0  0  0  0  0  0
   -2.4037   -0.0620    2.0527 H   0  0  0  0  0  0  0  0  0  0  0  0
   -4.7750    0.7097    2.0745 H   0  0  0  0  0  0  0  0  0  0  0  0
   -5.4819    2.6602    0.6605 H   0  0  0  0  0  0  0  0  0  0  0  0
   -3.7839    3.8655   -0.7377 H   0  0  0  0  0  0  0  0  0  0  0  0
   -1.4042    3.1341   -0.7272 H   0  0  0  0  0  0  0  0  0  0  0  0
  1  2  1  0  0  0  0
  2  3  1  0  0  0  0
  3 18  1  0  0  0  0
  3 17  1  0  0  0  0
  4  1  1  0  0  0  0
  4  9  1  0  0  0  0
  5  4  2  0  0  0  0
  6  5  1  0  0  0  0
  6  7  2  0  0  0  0
  7  8  1  0  0  0  0
  8  9  2  0  0  0  0
  8 22  1  0  0  0  0
  9 23  1  0  0  0  0
 10  1  1  0  0  0  0
 10 11  1  0  0  0  0
 11 12  2  0  0  0  0
 11 24  1  0  0  0  0
 12 25  1  0  0  0  0
 13 12  1  0  0  0  0
 14 15  1  0  0  0  0
 14 13  2  0  0  0  0
 15 10  2  0  0  0  0
 16  3  1  0  0  0  0
 19  5  1  0  0  0  0
 20  6  1  0  0  0  0
 21  7  1  0  0  0  0
 26 13  1  0  0  0  0
 27 14  1  0  0  0  0
 28 15  1  0  0  0  0
M  END
