1
q = 0.0, confidence = 0.998

 51 56  0  0  1  0  0  0  0  0999 V2000
   -0.5017   -0.0162    0.3632 P   0  0  2  0  0  0  0  0  0  0  0  0
   -0.5073    2.3652   -1.3108 C   0  0  0  0  0  0  0  0  0  0  0  0
    0.2951    1.2645   -0.7476 C   0  0  0  0  0  0  0  0  0  0  0  0
   -1.7160    2.1055   -1.9967 C   0  0  0  0  0  0  0  0  0  0  0  0
   -2.0490    1.0668   -2.1320 H   0  0  0  0  0  0  0  0  0  0  0  0
    0.7522    0.1433    1.7072 C   0  0  0  0  0  0  0  0  0  0  0  0
   -1.5299   -3.1941   -0.0871 C   0  0  0  0  0  0  0  0  0  0  0  0
   -1.6959   -2.7734    0.9142 H   0  0  0  0  0  0  0  0  0  0  0  0
    4.5633   -1.3356   -0.4692 C   0  0  0  0  0  0  0  0  0  0  0  0
    4.0336   -2.2718   -0.2401 H   0  0  0  0  0  0  0  0  0  0  0  0
    0.2839   -1.4925   -0.4681 C   0  0  0  0  0  0  0  0  0  0  0  0
    0.4124    0.3198    3.0533 C   0  0  0  0  0  0  0  0  0  0  0  0
   -0.6474    0.3728    3.3449 H   0  0  0  0  0  0  0  0  0  0  0  0
    3.8500   -0.1210   -0.5299 C   0  0  0  0  0  0  0  0  0  0  0  0
   -0.5316   -2.6354   -0.9180 C   0  0  0  0  0  0  0  0  0  0  0  0
    1.6245    1.0940   -0.9132 C   0  0  0  0  0  0  0  0  0  0  0  0
    2.2026    1.7590   -1.5725 H   0  0  0  0  0  0  0  0  0  0  0  0
   -1.0969   -4.2848   -2.6349 C   0  0  0  0  0  0  0  0  0  0  0  0
   -0.9320   -4.7019   -3.6401 H   0  0  0  0  0  0  0  0  0  0  0  0
    3.1134    0.1906    2.2580 C   0  0  0  0  0  0  0  0  0  0  0  0
    4.1692    0.1449    1.9556 H   0  0  0  0  0  0  0  0  0  0  0  0
   -2.0842   -4.8313   -1.7989 C   0  0  0  0  0  0  0  0  0  0  0  0
   -2.6932   -5.6804   -2.1439 H   0  0  0  0  0  0  0  0  0  0  0  0
    1.6142   -1.3558   -0.6678 C   0  0  0  0  0  0  0  0  0  0  0  0
    2.1958   -2.1477   -1.1642 H   0  0  0  0  0  0  0  0  0  0  0  0
    5.9512   -1.3725   -0.6698 C   0  0  0  0  0  0  0  0  0  0  0  0
    6.4818   -2.3355   -0.6197 H   0  0  0  0  0  0  0  0  0  0  0  0
    2.0999    0.0842    1.2962 C   0  0  0  0  0  0  0  0  0  0  0  0
   -0.0876    3.7059   -1.1594 C   0  0  0  0  0  0  0  0  0  0  0  0
    0.8379    3.9150   -0.6019 H   0  0  0  0  0  0  0  0  0  0  0  0
   -2.4786    3.1577   -2.5190 C   0  0  0  0  0  0  0  0  0  0  0  0
   -3.4148    2.9373   -3.0539 H   0  0  0  0  0  0  0  0  0  0  0  0
    2.3517   -0.0787   -0.2338 C   0  0  1  0  0  0  0  0  0  0  0  0
   -0.3298   -3.1955   -2.2012 C   0  0  0  0  0  0  0  0  0  0  0  0
    0.4219   -2.7471   -2.8684 H   0  0  0  0  0  0  0  0  0  0  0  0
   -2.2957   -4.2828   -0.5239 C   0  0  0  0  0  0  0  0  0  0  0  0
   -3.0657   -4.7060    0.1388 H   0  0  0  0  0  0  0  0  0  0  0  0
   -2.0539    4.4867   -2.3584 C   0  0  0  0  0  0  0  0  0  0  0  0
   -2.6612    5.3128   -2.7579 H   0  0  0  0  0  0  0  0  0  0  0  0
   -0.8547    4.7571   -1.6805 C   0  0  0  0  0  0  0  0  0  0  0  0
   -0.5199    5.7967   -1.5443 H   0  0  0  0  0  0  0  0  0  0  0  0
    1.4339    0.4279    4.0142 C   0  0  0  0  0  0  0  0  0  0  0  0
    1.1768    0.5657    5.0751 H   0  0  0  0  0  0  0  0  0  0  0  0
    2.7751    0.3604    3.6146 C   0  0  0  0  0  0  0  0  0  0  0  0
    3.5773    0.4438    4.3635 H   0  0  0  0  0  0  0  0  0  0  0  0
    4.5799    1.0619   -0.7640 C   0  0  0  0  0  0  0  0  0  0  0  0
    4.0650    2.0334   -0.7711 H   0  0  0  0  0  0  0  0  0  0  0  0
    6.6602   -0.1896   -0.9269 C   0  0  0  0  0  0  0  0  0  0  0  0
    7.7484   -0.2169   -1.0874 H   0  0  0  0  0  0  0  0  0  0  0  0
    5.9680    1.0297   -0.9656 C   0  0  0  0  0  0  0  0  0  0  0  0
    6.5119    1.9686   -1.1501 H   0  0  0  0  0  0  0  0  0  0  0  0
  1  3  1  6  0  0  0
  1  6  1  0  0  0  0
  2 29  1  0  0  0  0
  2  3  1  0  0  0  0
  4  2  2  0  0  0  0
  5  4  1  0  0  0  0
  6 12  1  0  0  0  0
  7  8  1  0  0  0  0
  9 10  1  0  0  0  0
 11  1  1  0  0  0  0
 12 13  1  0  0  0  0
 12 42  2  0  0  0  0
 14  9  1  0  0  0  0
 15 11  1  0  0  0  0
 15  7  2  0  0  0  0
 16  3  2  0  0  0  0
 16 33  1  0  0  0  0
 17 16  1  0  0  0  0
 18 34  2  0  0  0  0
 18 22  1  0  0  0  0
 19 18  1  0  0  0  0
 20 44  2  0  0  0  0
 21 20  1  0  0  0  0
 22 36  2  0  0  0  0
 23 22  1  0  0  0  0
 24 11  2  0  0  0  0
 24 33  1  0  0  0  0
 25 24  1  0  0  0  0
 26 27  1  0  0  0  0
 26  9  2  0  0  0  0
 28  6  2  0  0  0  0
 28 20  1  0  0  0  0
 29 30  1  0  0  0  0
 31 38  2  0  0  0  0
 31  4  1  0  0  0  0
 32 31  1  0  0  0  0
 33 14  1  6  0  0  0
 33 28  1  0  0  0  0
 34 15  1  0  0  0  0
 35 34  1  0  0  0  0
 36  7  1  0  0  0  0
 36 37  1  0  0  0  0
 38 40  1  0  0  0  0
 39 38  1  0  0  0  0
 40 41  1  0  0  0  0
 40 29  2  0  0  0  0
 42 43  1  0  0  0  0
 44 42  1  0  0  0  0
 44 45  1  0  0  0  0
 46 14  2  0  0  0  0
 47 46  1  0  0  0  0
 48 26  1  0  0  0  0
 49 48  1  0  0  0  0
 50 48  2  0  0  0  0
 50 46  1  0  0  0  0
 51 50  1  0  0  0  0
M  END
