1
q = 0.0, confidence = 0.998

 31 30  0  0  0  0  0  0  0  0999 V2000
    2.3921   -0.0439   -0.3937 P   0  0  0  0  0  0  0  0  0  0  0  0
    2.9622   -0.0312   -2.1479 C   0  0  0  0  0  0  0  0  0  0  0  0
    3.1717    1.5632    0.3088 C   0  0  0  0  0  0  0  0  0  0  0  0
    3.2461    1.5110    1.8436 C   0  0  0  0  0  0  0  0  0  0  0  0
    2.1918    2.6807   -0.1046 C   0  0  0  0  0  0  0  0  0  0  0  0
    4.5595    1.8771   -0.2751 C   0  0  0  0  0  0  0  0  0  0  0  0
    3.2350   -1.6056    0.3218 C   0  0  0  0  0  0  0  0  0  0  0  0
    2.8321   -2.7598   -0.6195 C   0  0  0  0  0  0  0  0  0  0  0  0
    2.6788   -1.9063    1.7247 C   0  0  0  0  0  0  0  0  0  0  0  0
    4.7672   -1.5023    0.3743 C   0  0  0  0  0  0  0  0  0  0  0  0
    2.4382   -0.8387   -2.6888 H   0  0  0  0  0  0  0  0  0  0  0  0
    2.6307    0.9171   -2.6081 H   0  0  0  0  0  0  0  0  0  0  0  0
    4.0585   -0.1502   -2.2396 H   0  0  0  0  0  0  0  0  0  0  0  0
    3.5401    2.5126    2.2251 H   0  0  0  0  0  0  0  0  0  0  0  0
    2.2728    1.2520    2.3031 H   0  0  0  0  0  0  0  0  0  0  0  0
    4.0067    0.7900    2.2021 H   0  0  0  0  0  0  0  0  0  0  0  0
    2.5930    3.6645    0.2209 H   0  0  0  0  0  0  0  0  0  0  0  0
    2.0308    2.7173   -1.2006 H   0  0  0  0  0  0  0  0  0  0  0  0
    1.2000    2.5329    0.3690 H   0  0  0  0  0  0  0  0  0  0  0  0
    5.3072    1.0945   -0.0487 H   0  0  0  0  0  0  0  0  0  0  0  0
    4.5276    2.0198   -1.3725 H   0  0  0  0  0  0  0  0  0  0  0  0
    4.9307    2.8268    0.1671 H   0  0  0  0  0  0  0  0  0  0  0  0
    3.1184   -3.7271   -0.1549 H   0  0  0  0  0  0  0  0  0  0  0  0
    1.7363   -2.7702   -0.7917 H   0  0  0  0  0  0  0  0  0  0  0  0
    3.3396   -2.6977   -1.6019 H   0  0  0  0  0  0  0  0  0  0  0  0
    2.8811   -1.0970    2.4499 H   0  0  0  0  0  0  0  0  0  0  0  0
    1.5842   -2.0623    1.6946 H   0  0  0  0  0  0  0  0  0  0  0  0
    3.1532   -2.8338    2.1106 H   0  0  0  0  0  0  0  0  0  0  0  0
    5.1892   -2.4852    0.6754 H   0  0  0  0  0  0  0  0  0  0  0  0
    5.2085   -1.2445   -0.6093 H   0  0  0  0  0  0  0  0  0  0  0  0
    5.1120   -0.7577    1.1176 H   0  0  0  0  0  0  0  0  0  0  0  0
  1  3  1  0  0  0  0
  1  7  1  0  0  0  0
  2  1  1  0  0  0  0
  3  4  1  0  0  0  0
  4 16  1  0  0  0  0
  4 14  1  0  0  0  0
  4 15  1  0  0  0  0
  5 17  1  0  0  0  0
  5  3  1  0  0  0  0
  5 19  1  0  0  0  0
  6 20  1  0  0  0  0
  6 22  1  0  0  0  0
  6  3  1  0  0  0  0
  7 10  1  0  0  0  0
  7  9  1  0  0  0  0
  8 23  1  0  0  0  0
  8  7  1  0  0  0  0
  9 28  1  0  0  0  0
  9 26  1  0  0  0  0
 10 29  1  0  0  0  0
 10 31  1  0  0  0  0
 11  2  1  0  0  0  0
 12  2  1  0  0  0  0
 13  2  1  0  0  0  0
 18  5  1  0  0  0  0
 21  6  1  0  0  0  0
 24  8  1  0  0  0  0
 25  8  1  0  0  0  0
 27  9  1  0  0  0  0
 30 10  1  0  0  0  0
M  END
