1
q = -1.0, confidence = 0.0

 27 28  0  0  0  0  0  0  0  0999 V2000
   -0.0536    0.7405    1.3013 P   0  0  0  0  0  0  0  0  0  0  0  0
   -1.0224    2.2881    1.0513 C   0  0  0  0  0  0  0  0  0  0  0  0
   -1.3620    2.7123   -0.2493 C   0  0  0  0  0  0  0  0  0  0  0  0
   -1.0420    2.0940   -1.1034 H   0  0  0  0  0  0  0  0  0  0  0  0
   -2.1337    3.8655   -0.4503 C   0  0  0  0  0  0  0  0  0  0  0  0
   -2.4050    4.1748   -1.4713 H   0  0  0  0  0  0  0  0  0  0  0  0
   -2.5831    4.6053    0.6553 C   0  0  0  0  0  0  0  0  0  0  0  0
   -3.1990    5.5052    0.5034 H   0  0  0  0  0  0  0  0  0  0  0  0
   -2.2572    4.1863    1.9562 C   0  0  0  0  0  0  0  0  0  0  0  0
   -2.6151    4.7611    2.8247 H   0  0  0  0  0  0  0  0  0  0  0  0
   -1.4806    3.0342    2.1558 C   0  0  0  0  0  0  0  0  0  0  0  0
   -1.2329    2.6921    3.1723 H   0  0  0  0  0  0  0  0  0  0  0  0
    1.6778    1.3509    1.3970 C   0  0  0  0  0  0  0  0  0  0  0  0
    2.6541    0.5262    2.0041 C   0  0  0  0  0  0  0  0  0  0  0  0
    2.3376   -0.4088    2.4916 H   0  0  0  0  0  0  0  0  0  0  0  0
    4.0064    0.8985    2.0032 C   0  0  0  0  0  0  0  0  0  0  0  0
    4.7500    0.2430    2.4828 H   0  0  0  0  0  0  0  0  0  0  0  0
    4.4127    2.0989    1.3981 C   0  0  0  0  0  0  0  0  0  0  0  0
    5.4743    2.3903    1.3995 H   0  0  0  0  0  0  0  0  0  0  0  0
    3.4497    2.9287    0.7999 C   0  0  0  0  0  0  0  0  0  0  0  0
    3.7549    3.8774    0.3308 H   0  0  0  0  0  0  0  0  0  0  0  0
    2.0967    2.5603    0.7976 C   0  0  0  0  0  0  0  0  0  0  0  0
    1.3505    3.2208    0.3302 H   0  0  0  0  0  0  0  0  0  0  0  0
   -0.5517   -0.1488    2.9681 B   0  0  0  0  0  0  0  0  0  0  0  0
   -0.2469    0.5705    3.9221 H   0  0  0  0  0  0  0  0  0  0  0  0
    0.0632   -1.2250    2.9676 H   0  0  0  0  0  0  0  0  0  0  0  0
   -1.7716   -0.3355    2.8807 H   0  0  0  0  0  0  0  0  0  0  0  0
  1 13  1  0  0  0  0
  1 24  1  0  0  0  0
  2  1  1  0  0  0  0
  2 11  1  0  0  0  0
  3  2  2  0  0  0  0
  4  3  1  0  0  0  0
  5  3  1  0  0  0  0
  5  7  2  0  0  0  0
  6  5  1  0  0  0  0
  7  9  1  0  0  0  0
  8  7  1  0  0  0  0
  9 11  2  0  0  0  0
  9 10  1  0  0  0  0
 11 12  1  0  0  0  0
 13 14  1  0  0  0  0
 14 15  1  0  0  0  0
 16 14  2  0  0  0  0
 16 17  1  0  0  0  0
 18 19  1  0  0  0  0
 18 16  1  0  0  0  0
 20 18  2  0  0  0  0
 21 20  1  0  0  0  0
 22 20  1  0  0  0  0
 22 13  2  0  0  0  0
 23 22  1  0  0  0  0
 24 25  1  0  0  0  0
 26 24  1  0  0  0  0
 27 24  1  0  0  0  0
M  END
