1
q = -1.0

 23 24  0  0  0  0  0  0  0  0999 V2000
    1.5512   -0.0511   -0.1463 P   0  0  0  0  0  2  0  0  0  0  0  0
    2.4210    1.5656   -0.3327 C   0  0  0  0  0  0  0  0  0  0  0  0
    1.8561    2.5515   -1.1607 C   0  0  0  0  0  0  0  0  0  0  0  0
    0.9268    2.3225   -1.7007 H   0  0  0  0  0  0  0  0  0  0  0  0
    2.4743    3.8026   -1.2981 C   0  0  0  0  0  0  0  0  0  0  0  0
    2.0222    4.5662   -1.9487 H   0  0  0  0  0  0  0  0  0  0  0  0
    3.6677    4.0740   -0.6126 C   0  0  0  0  0  0  0  0  0  0  0  0
    4.1565    5.0541   -0.7219 H   0  0  0  0  0  0  0  0  0  0  0  0
    4.2438    3.0899    0.2079 C   0  0  0  0  0  0  0  0  0  0  0  0
    5.1832    3.2960    0.7426 H   0  0  0  0  0  0  0  0  0  0  0  0
    3.6254    1.8404    0.3503 C   0  0  0  0  0  0  0  0  0  0  0  0
    4.0879    1.0719    0.9858 H   0  0  0  0  0  0  0  0  0  0  0  0
    2.9520   -1.2494   -0.0957 C   0  0  0  0  0  0  0  0  0  0  0  0
    2.8578   -2.4954    0.5580 C   0  0  0  0  0  0  0  0  0  0  0  0
    1.9795   -2.7412    1.1658 H   0  0  0  0  0  0  0  0  0  0  0  0
    3.8789   -3.4455    0.4219 C   0  0  0  0  0  0  0  0  0  0  0  0
    3.7940   -4.4072    0.9496 H   0  0  0  0  0  0  0  0  0  0  0  0
    4.9917   -3.1808   -0.3909 C   0  0  0  0  0  0  0  0  0  0  0  0
    5.7883   -3.9320   -0.5005 H   0  0  0  0  0  0  0  0  0  0  0  0
    5.0732   -1.9599   -1.0765 C   0  0  0  0  0  0  0  0  0  0  0  0
    5.9295   -1.7487   -1.7345 H   0  0  0  0  0  0  0  0  0  0  0  0
    4.0621   -0.9988   -0.9332 C   0  0  0  0  0  0  0  0  0  0  0  0
    4.1344   -0.0540   -1.4899 H   0  0  0  0  0  0  0  0  0  0  0  0
  1 13  1  0  0  0  0
  2  1  1  0  0  0  0
  2 11  1  0  0  0  0
  3  2  2  0  0  0  0
  4  3  1  0  0  0  0
  5  3  1  0  0  0  0
  5  7  2  0  0  0  0
  6  5  1  0  0  0  0
  7  9  1  0  0  0  0
  8  7  1  0  0  0  0
  9 11  2  0  0  0  0
  9 10  1  0  0  0  0
 11 12  1  0  0  0  0
 13 14  1  0  0  0  0
 14 15  1  0  0  0  0
 16 14  2  0  0  0  0
 16 17  1  0  0  0  0
 18 16  1  0  0  0  0
 19 18  1  0  0  0  0
 20 22  1  0  0  0  0
 20 18  2  0  0  0  0
 21 20  1  0  0  0  0
 22 13  2  0  0  0  0
 23 22  1  0  0  0  0
M  END
