1
q = 0.0, confidence = 0.966

 10  9  0  0  0  0  0  0  0  0999 V2000
   -1.1373    0.0091    1.6878 P   0  0  0  0  0  0  0  0  0  0  0  0
   -2.8565   -0.0471    2.0457 C   0  0  0  0  0  0  0  0  0  0  0  0
   -4.0739   -0.0898    2.1749 C   0  0  0  0  0  0  0  0  0  0  0  0
   -5.1497   -0.1269    2.3072 H   0  0  0  0  0  0  0  0  0  0  0  0
   -0.5490    1.4330    2.5505 C   0  0  0  0  0  0  0  0  0  0  0  0
   -0.1144    2.4675    3.0439 C   0  0  0  0  0  0  0  0  0  0  0  0
    0.2512    3.3718    3.5167 H   0  0  0  0  0  0  0  0  0  0  0  0
   -0.4496   -1.3399    2.5967 C   0  0  0  0  0  0  0  0  0  0  0  0
    0.0570   -2.3237    3.1239 C   0  0  0  0  0  0  0  0  0  0  0  0
    0.4851   -3.1832    3.6266 H   0  0  0  0  0  0  0  0  0  0  0  0
  1  2  1  0  0  0  0
  1  5  1  0  0  0  0
  1  8  1  0  0  0  0
  2  3  3  0  0  0  0
  3  4  1  0  0  0  0
  5  6  3  0  0  0  0
  6  7  1  0  0  0  0
  8  9  3  0  0  0  0
  9 10  1  0  0  0  0
M  END
