1
q = 0.0, confidence = 0.99

 46 48  0  0  1  0  0  0  0  0999 V2000
    1.0174   -0.1490    0.0058 P   0  0  0  0  0  0  0  0  0  0  0  0
    2.2447   -0.6987   -1.3337 C   0  0  1  0  0  0  0  0  0  0  0  0
    2.2231   -1.7925   -1.1559 H   0  0  0  0  0  0  0  0  0  0  0  0
    1.6538   -0.4484   -2.7249 C   0  0  0  0  0  0  0  0  0  0  0  0
    1.5644    0.6285   -2.9681 H   0  0  0  0  0  0  0  0  0  0  0  0
    0.6489   -0.9108   -2.8048 H   0  0  0  0  0  0  0  0  0  0  0  0
    2.3105   -0.9134   -3.4876 H   0  0  0  0  0  0  0  0  0  0  0  0
    3.6295   -0.1438   -1.1138 C   0  0  0  0  0  0  0  0  0  0  0  0
    4.6451   -0.9537   -0.5315 C   0  0  0  0  0  0  0  0  0  0  0  0
    5.8944   -0.3585   -0.2737 C   0  0  0  0  0  0  0  0  0  0  0  0
    6.6887   -0.9712    0.1813 H   0  0  0  0  0  0  0  0  0  0  0  0
    6.1464    0.9910   -0.5612 C   0  0  0  0  0  0  0  0  0  0  0  0
    7.1321    1.4244   -0.3278 H   0  0  0  0  0  0  0  0  0  0  0  0
    5.1541    1.7970   -1.1500 C   0  0  0  0  0  0  0  0  0  0  0  0
    3.9095    1.2003   -1.4274 C   0  0  0  0  0  0  0  0  0  0  0  0
    3.1195    1.8179   -1.8810 H   0  0  0  0  0  0  0  0  0  0  0  0
    5.3973    3.2472   -1.4850 C   0  0  0  0  0  0  0  0  0  0  0  0
    6.3181    3.6305   -1.0038 H   0  0  0  0  0  0  0  0  0  0  0  0
    4.5464    3.8819   -1.1617 H   0  0  0  0  0  0  0  0  0  0  0  0
    5.5078    3.3940   -2.5807 H   0  0  0  0  0  0  0  0  0  0  0  0
    4.3982   -2.3962   -0.1685 C   0  0  0  0  0  0  0  0  0  0  0  0
    5.3046   -2.8524    0.2734 H   0  0  0  0  0  0  0  0  0  0  0  0
    4.1078   -3.0025   -1.0515 H   0  0  0  0  0  0  0  0  0  0  0  0
    3.5698   -2.5051    0.5623 H   0  0  0  0  0  0  0  0  0  0  0  0
    1.8443   -0.3859    1.6288 C   0  0  0  0  0  0  0  0  0  0  0  0
    3.0941    0.1766    1.9773 C   0  0  0  0  0  0  0  0  0  0  0  0
    3.6437    0.8097    1.2689 H   0  0  0  0  0  0  0  0  0  0  0  0
    3.6605   -0.0931    3.2321 C   0  0  0  0  0  0  0  0  0  0  0  0
    4.6383    0.3434    3.4865 H   0  0  0  0  0  0  0  0  0  0  0  0
    2.9932   -0.9178    4.1512 C   0  0  0  0  0  0  0  0  0  0  0  0
    3.4447   -1.1273    5.1330 H   0  0  0  0  0  0  0  0  0  0  0  0
    1.7510   -1.4769    3.8133 C   0  0  0  0  0  0  0  0  0  0  0  0
    1.2228   -2.1277    4.5262 H   0  0  0  0  0  0  0  0  0  0  0  0
    1.1805   -1.2146    2.5598 C   0  0  0  0  0  0  0  0  0  0  0  0
    0.2134   -1.6603    2.2766 H   0  0  0  0  0  0  0  0  0  0  0  0
    0.8404    1.6666   -0.2593 C   0  0  0  0  0  0  0  0  0  0  0  0
    1.5143    2.6476    0.4946 C   0  0  0  0  0  0  0  0  0  0  0  0
    2.1650    2.3544    1.3289 H   0  0  0  0  0  0  0  0  0  0  0  0
    1.3455    4.0095    0.1982 C   0  0  0  0  0  0  0  0  0  0  0  0
    1.8730    4.7647    0.8008 H   0  0  0  0  0  0  0  0  0  0  0  0
    0.5053    4.4072   -0.8529 C   0  0  0  0  0  0  0  0  0  0  0  0
    0.3734    5.4756   -1.0818 H   0  0  0  0  0  0  0  0  0  0  0  0
   -0.1837    3.4360   -1.5975 C   0  0  0  0  0  0  0  0  0  0  0  0
   -0.8658    3.7391   -2.4061 H   0  0  0  0  0  0  0  0  0  0  0  0
   -0.0254    2.0769   -1.2970 C   0  0  0  0  0  0  0  0  0  0  0  0
   -0.6075    1.3204   -1.8439 H   0  0  0  0  0  0  0  0  0  0  0  0
  1 25  1  0  0  0  0
  2  3  1  1  0  0  0
  2  8  1  0  0  0  0
  2  1  1  0  0  0  0
  4  2  1  0  0  0  0
  5  4  1  0  0  0  0
  6  4  1  0  0  0  0
  7  4  1  0  0  0  0
  8  9  1  0  0  0  0
  9 10  2  0  0  0  0
  9 21  1  0  0  0  0
 10 11  1  0  0  0  0
 12 13  1  0  0  0  0
 12 10  1  0  0  0  0
 14 12  2  0  0  0  0
 15 14  1  0  0  0  0
 15  8  2  0  0  0  0
 16 15  1  0  0  0  0
 17 19  1  0  0  0  0
 17 14  1  0  0  0  0
 17 18  1  0  0  0  0
 20 17  1  0  0  0  0
 21 22  1  0  0  0  0
 21 24  1  0  0  0  0
 23 21  1  0  0  0  0
 25 26  2  0  0  0  0
 25 34  1  0  0  0  0
 26 28  1  0  0  0  0
 27 26  1  0  0  0  0
 28 29  1  0  0  0  0
 28 30  2  0  0  0  0
 30 31  1  0  0  0  0
 32 30  1  0  0  0  0
 32 33  1  0  0  0  0
 34 32  2  0  0  0  0
 35 34  1  0  0  0  0
 36  1  1  0  0  0  0
 36 37  1  0  0  0  0
 37 38  1  0  0  0  0
 39 37  2  0  0  0  0
 39 40  1  0  0  0  0
 41 39  1  0  0  0  0
 42 41  1  0  0  0  0
 43 45  1  0  0  0  0
 43 41  2  0  0  0  0
 44 43  1  0  0  0  0
 45 36  2  0  0  0  0
 46 45  1  0  0  0  0
M  END
