2
q = -1.0, confidence = 0.004

 13 13  0  0  0  0  0  0  0  0999 V2000
   -1.7291   -0.1322   -2.7534 Cl  0  0  0  0  0  0  0  0  0  0  0  0
   -1.4549   -0.1784   -0.7101 P   0  0  0  0  0  2  0  0  0  0  0  0
   -3.1297   -0.1559   -0.0188 C   0  0  0  0  0  0  0  0  0  0  0  0
   -4.2041    0.4861   -0.6648 C   0  0  0  0  0  0  0  0  0  0  0  0
   -5.4602    0.5096   -0.0456 C   0  0  0  0  0  0  0  0  0  0  0  0
   -5.6416   -0.1018    1.2065 C   0  0  0  0  0  0  0  0  0  0  0  0
   -4.5698   -0.7498    1.8405 C   0  0  0  0  0  0  0  0  0  0  0  0
   -3.3097   -0.7878    1.2283 C   0  0  0  0  0  0  0  0  0  0  0  0
   -4.0586    0.9545   -1.6489 H   0  0  0  0  0  0  0  0  0  0  0  0
   -6.3043    1.0063   -0.5465 H   0  0  0  0  0  0  0  0  0  0  0  0
   -6.6317   -0.0827    1.6865 H   0  0  0  0  0  0  0  0  0  0  0  0
   -4.7166   -1.2450    2.8116 H   0  0  0  0  0  0  0  0  0  0  0  0
   -2.4720   -1.3233    1.7005 H   0  0  0  0  0  0  0  0  0  0  0  0
  1  2  1  0  0  0  0
  2  3  1  0  0  0  0
  3  8  1  0  0  0  0
  4  5  1  0  0  0  0
  4  3  2  0  0  0  0
  5  6  2  0  0  0  0
  6 11  1  0  0  0  0
  6  7  1  0  0  0  0
  7 12  1  0  0  0  0
  8 13  1  0  0  0  0
  8  7  2  0  0  0  0
  9  4  1  0  0  0  0
 10  5  1  0  0  0  0
M  END
