1
q = 0, confidence = 1.0

  4  3  0  0  0  0  0  0  0  0999 V2000
   -1.4875    1.4747    0.0000 P   0  0  0  0  0  0  0  0  0  0  0  0
   -2.4387    1.8501   -1.2209 F   0  0  0  0  0  0  0  0  0  0  0  0
   -0.6124    2.8316    0.0012 F   0  0  0  0  0  0  0  0  0  0  0  0
   -2.4401    1.8489    1.2202 F   0  0  0  0  0  0  0  0  0  0  0  0
  1  3  1  0  0  0  0
  1  4  1  0  0  0  0
  2  1  1  0  0  0  0
M  END
