1
q = -1.0, confidence = 0.06

 22 22  0  0  0  0  0  0  0  0999 V2000
   -0.6511    0.7935   -0.0894 P   0  0  0  0  0  2  0  0  0  0  0  0
   -0.8109    2.4686   -0.0257 O   0  0  0  0  0  0  0  0  0  0  0  0
   -2.3539    0.5623   -0.1542 N   0  0  0  0  0  0  0  0  0  0  0  0
   -3.0736    1.8001    0.1563 C   0  0  0  0  0  0  0  0  0  0  0  0
   -2.1386    2.9129   -0.3052 C   0  0  0  0  0  0  0  0  0  0  0  0
   -3.0471   -0.7493    0.0439 C   0  0  0  0  0  0  0  0  0  0  0  0
   -4.4917   -0.6348   -0.4788 C   0  0  0  0  0  0  0  0  0  0  0  0
   -3.0567   -1.1110    1.5427 C   0  0  0  0  0  0  0  0  0  0  0  0
   -2.3335   -1.8436   -0.7634 C   0  0  0  0  0  0  0  0  0  0  0  0
   -4.0353    1.8531   -0.3896 H   0  0  0  0  0  0  0  0  0  0  0  0
   -3.2946    1.8826    1.2479 H   0  0  0  0  0  0  0  0  0  0  0  0
   -2.3152    3.8666    0.2308 H   0  0  0  0  0  0  0  0  0  0  0  0
   -2.2476    3.0913   -1.3998 H   0  0  0  0  0  0  0  0  0  0  0  0
   -4.9662   -1.6347   -0.4488 H   0  0  0  0  0  0  0  0  0  0  0  0
   -4.5070   -0.2817   -1.5297 H   0  0  0  0  0  0  0  0  0  0  0  0
   -5.1170    0.0421    0.1360 H   0  0  0  0  0  0  0  0  0  0  0  0
   -3.6097   -2.0572    1.7083 H   0  0  0  0  0  0  0  0  0  0  0  0
   -3.5531   -0.3228    2.1448 H   0  0  0  0  0  0  0  0  0  0  0  0
   -2.0258   -1.2501    1.9217 H   0  0  0  0  0  0  0  0  0  0  0  0
   -1.3170   -2.0381   -0.3815 H   0  0  0  0  0  0  0  0  0  0  0  0
   -2.2547   -1.5632   -1.8320 H   0  0  0  0  0  0  0  0  0  0  0  0
   -2.9084   -2.7872   -0.6892 H   0  0  0  0  0  0  0  0  0  0  0  0
  1  2  1  0  0  0  0
  3  1  1  0  0  0  0
  3  6  1  0  0  0  0
  3  4  1  0  0  0  0
  4 11  1  0  0  0  0
  5  2  1  0  0  0  0
  5  4  1  0  0  0  0
  5 12  1  0  0  0  0
  6  8  1  0  0  0  0
  7 14  1  0  0  0  0
  7  6  1  0  0  0  0
  7 16  1  0  0  0  0
  8 17  1  0  0  0  0
  8 19  1  0  0  0  0
  8 18  1  0  0  0  0
  9 22  1  0  0  0  0
  9 20  1  0  0  0  0
  9  6  1  0  0  0  0
 10  4  1  0  0  0  0
 13  5  1  0  0  0  0
 15  7  1  0  0  0  0
 21  9  1  0  0  0  0
M  END
