1
q = -1.0

 28 29  0  0  0  0  0  0  0  0999 V2000
   -0.1615   -0.1536    0.4111 P   0  0  0  0  0  4  0  0  0  0  0  0
    0.2696    0.3751    1.7728 O   0  0  0  0  0  0  0  0  0  0  0  0
    0.6432    0.6201   -0.8443 O   0  0  0  0  0  0  0  0  0  0  0  0
    0.3833   -1.7206    0.1993 O   0  0  0  0  0  0  0  0  0  0  0  0
    1.1070    2.8689   -0.1003 C   0  0  0  0  0  0  0  0  0  0  0  0
   -0.2365    3.0050    0.1023 O   0  0  0  0  0  0  0  0  0  0  0  0
    2.0402    3.8916    0.1363 C   0  0  0  0  0  0  0  0  0  0  0  0
    3.4065    3.6719   -0.1009 C   0  0  0  0  0  0  0  0  0  0  0  0
    3.8529    2.4293   -0.5752 C   0  0  0  0  0  0  0  0  0  0  0  0
    2.9281    1.3983   -0.8065 C   0  0  0  0  0  0  0  0  0  0  0  0
    1.5662    1.6210   -0.5800 C   0  0  0  0  0  0  0  0  0  0  0  0
    2.6889   -1.7096    1.0671 C   0  0  0  0  0  0  0  0  0  0  0  0
    2.3824   -1.1538    2.2502 O   0  0  0  0  0  0  0  0  0  0  0  0
    4.0333   -2.0811    0.8287 C   0  0  0  0  0  0  0  0  0  0  0  0
    4.4321   -2.6570   -0.3822 C   0  0  0  0  0  0  0  0  0  0  0  0
    3.4957   -2.8830   -1.4067 C   0  0  0  0  0  0  0  0  0  0  0  0
    2.1553   -2.5358   -1.1906 C   0  0  0  0  0  0  0  0  0  0  0  0
    1.7511   -1.9758    0.0290 C   0  0  0  0  0  0  0  0  0  0  0  0
   -0.3976    3.8478    0.5649 H   0  0  0  0  0  0  0  0  0  0  0  0
    1.6875    4.8666    0.5109 H   0  0  0  0  0  0  0  0  0  0  0  0
    4.1244    4.4828    0.0920 H   0  0  0  0  0  0  0  0  0  0  0  0
    4.9232    2.2528   -0.7542 H   0  0  0  0  0  0  0  0  0  0  0  0
    3.2434    0.4034   -1.1537 H   0  0  0  0  0  0  0  0  0  0  0  0
    1.5330   -0.6192    2.1924 H   0  0  0  0  0  0  0  0  0  0  0  0
    4.7542   -1.8834    1.6355 H   0  0  0  0  0  0  0  0  0  0  0  0
    5.4890   -2.9259   -0.5307 H   0  0  0  0  0  0  0  0  0  0  0  0
    3.8035   -3.3285   -2.3637 H   0  0  0  0  0  0  0  0  0  0  0  0
    1.3848   -2.7004   -1.9579 H   0  0  0  0  0  0  0  0  0  0  0  0
  1  2  2  0  0  0  0
  3 11  1  0  0  0  0
  3  1  1  0  0  0  0
  4  1  1  0  0  0  0
  5  6  1  0  0  0  0
  5  7  1  0  0  0  0
  6 19  1  0  0  0  0
  7 20  1  0  0  0  0
  8 21  1  0  0  0  0
  8  7  2  0  0  0  0
  9  8  1  0  0  0  0
 10 11  1  0  0  0  0
 10  9  2  0  0  0  0
 11  5  2  0  0  0  0
 12 13  1  0  0  0  0
 14 12  1  0  0  0  0
 14 25  1  0  0  0  0
 15 14  2  0  0  0  0
 16 17  2  0  0  0  0
 16 15  1  0  0  0  0
 17 18  1  0  0  0  0
 18  4  1  0  0  0  0
 18 12  2  0  0  0  0
 22  9  1  0  0  0  0
 23 10  1  0  0  0  0
 24 13  1  0  0  0  0
 26 15  1  0  0  0  0
 27 16  1  0  0  0  0
 28 17  1  0  0  0  0
M  END
