1
q = 0.0, confidence = 1.0

 28 29  0  0  0  0  0  0  0  0999 V2000
    2.2988   -0.0429   -0.2587 P   0  0  0  0  0  0  0  0  0  0  0  0
    3.2152    1.5285   -0.5506 C   0  0  0  0  0  0  0  0  0  0  0  0
    3.8261    1.8312   -1.7813 C   0  0  0  0  0  0  0  0  0  0  0  0
    3.8040    1.0993   -2.6026 H   0  0  0  0  0  0  0  0  0  0  0  0
    4.4725    3.0648   -1.9609 C   0  0  0  0  0  0  0  0  0  0  0  0
    4.9504    3.2931   -2.9257 H   0  0  0  0  0  0  0  0  0  0  0  0
    4.5114    4.0001   -0.9163 C   0  0  0  0  0  0  0  0  0  0  0  0
    5.0174    4.9667   -1.0598 H   0  0  0  0  0  0  0  0  0  0  0  0
    3.9015    3.7005    0.3137 C   0  0  0  0  0  0  0  0  0  0  0  0
    3.9258    4.4317    1.1356 H   0  0  0  0  0  0  0  0  0  0  0  0
    3.2547    2.4720    0.4973 C   0  0  0  0  0  0  0  0  0  0  0  0
    2.7741    2.2417    1.4612 H   0  0  0  0  0  0  0  0  0  0  0  0
    3.2392   -0.7865    1.1418 C   0  0  0  0  0  0  0  0  0  0  0  0
    4.6400   -0.6317    1.2101 C   0  0  0  0  0  0  0  0  0  0  0  0
    5.1714   -0.0662    0.4309 H   0  0  0  0  0  0  0  0  0  0  0  0
    5.3535   -1.1948    2.2768 C   0  0  0  0  0  0  0  0  0  0  0  0
    6.4464   -1.0739    2.3255 H   0  0  0  0  0  0  0  0  0  0  0  0
    4.6761   -1.9073    3.2801 C   0  0  0  0  0  0  0  0  0  0  0  0
    5.2387   -2.3445    4.1192 H   0  0  0  0  0  0  0  0  0  0  0  0
    3.2826   -2.0586    3.2129 C   0  0  0  0  0  0  0  0  0  0  0  0
    2.7476   -2.6147    3.9976 H   0  0  0  0  0  0  0  0  0  0  0  0
    2.5598   -1.5024    2.1465 C   0  0  0  0  0  0  0  0  0  0  0  0
    1.4703   -1.6309    2.0785 H   0  0  0  0  0  0  0  0  0  0  0  0
    2.8378   -1.0844   -1.6632 C   0  0  0  0  0  0  0  0  0  0  0  0
    2.0738   -1.4441   -2.7188 C   0  0  0  0  0  0  0  0  0  0  0  0
    4.1151   -1.5387   -1.6426 F   0  0  0  0  0  0  0  0  0  0  0  0
    2.5053   -2.2289   -3.6888 F   0  0  0  0  0  0  0  0  0  0  0  0
    0.8355   -1.0426   -2.9250 F   0  0  0  0  0  0  0  0  0  0  0  0
  1 13  1  0  0  0  0
  2  1  1  0  0  0  0
  2 11  1  0  0  0  0
  3  2  2  0  0  0  0
  4  3  1  0  0  0  0
  5  3  1  0  0  0  0
  5  7  2  0  0  0  0
  6  5  1  0  0  0  0
  7  9  1  0  0  0  0
  8  7  1  0  0  0  0
  9 11  2  0  0  0  0
  9 10  1  0  0  0  0
 11 12  1  0  0  0  0
 13 14  2  0  0  0  0
 13 22  1  0  0  0  0
 14 16  1  0  0  0  0
 15 14  1  0  0  0  0
 16 17  1  0  0  0  0
 16 18  2  0  0  0  0
 18 19  1  0  0  0  0
 20 18  1  0  0  0  0
 20 21  1  0  0  0  0
 22 20  2  0  0  0  0
 23 22  1  0  0  0  0
 24 26  1  0  0  0  0
 24  1  1  0  0  0  0
 25 24  2  0  0  0  0
 27 25  1  0  0  0  0
 28 25  1  0  0  0  0
M  END
