1
q = 0.0, confidence = 0.998

 26 25  0  0  0  0  0  0  0  0999 V2000
   -2.2451    0.6114   -0.0474 P   0  0  0  0  0  0  0  0  0  0  0  0
   -4.4721   -0.5094   -1.1878 F   0  0  0  0  0  0  0  0  0  0  0  0
   -4.1340   -2.9870   -0.1116 F   0  0  0  0  0  0  0  0  0  0  0  0
   -2.3519   -2.3526    0.9943 F   0  0  0  0  0  0  0  0  0  0  0  0
   -3.4221   -0.7523   -0.3594 C   0  0  0  0  0  0  0  0  0  0  0  0
   -3.3040   -1.9967    0.1521 C   0  0  0  0  0  0  0  0  0  0  0  0
   -2.5816    1.7477   -1.4911 C   0  0  0  0  0  0  0  0  0  0  0  0
   -3.6851    1.8727   -1.5203 H   0  0  0  0  0  0  0  0  0  0  0  0
   -2.1174    1.0967   -2.7989 C   0  0  0  0  0  0  0  0  0  0  0  0
   -2.3758    1.7577   -3.6517 H   0  0  0  0  0  0  0  0  0  0  0  0
   -2.5921    0.1114   -2.9664 H   0  0  0  0  0  0  0  0  0  0  0  0
   -1.0204    0.9406   -2.7949 H   0  0  0  0  0  0  0  0  0  0  0  0
   -1.9052    3.1026   -1.2471 C   0  0  0  0  0  0  0  0  0  0  0  0
   -0.8138    2.9823   -1.0922 H   0  0  0  0  0  0  0  0  0  0  0  0
   -2.3110    3.6284   -0.3606 H   0  0  0  0  0  0  0  0  0  0  0  0
   -2.0634    3.7574   -2.1284 H   0  0  0  0  0  0  0  0  0  0  0  0
   -2.9402    1.4459    1.4743 C   0  0  0  0  0  0  0  0  0  0  0  0
   -2.2649    2.3186    1.6026 H   0  0  0  0  0  0  0  0  0  0  0  0
   -4.3897    1.8990    1.2831 C   0  0  0  0  0  0  0  0  0  0  0  0
   -5.0593    1.0434    1.0568 H   0  0  0  0  0  0  0  0  0  0  0  0
   -4.4993    2.6418    0.4685 H   0  0  0  0  0  0  0  0  0  0  0  0
   -4.7594    2.3737    2.2157 H   0  0  0  0  0  0  0  0  0  0  0  0
   -2.7551    0.5292    2.6879 C   0  0  0  0  0  0  0  0  0  0  0  0
   -3.0838    1.0559    3.6072 H   0  0  0  0  0  0  0  0  0  0  0  0
   -1.6897    0.2545    2.8124 H   0  0  0  0  0  0  0  0  0  0  0  0
   -3.3595   -0.3966    2.5991 H   0  0  0  0  0  0  0  0  0  0  0  0
  1 17  1  0  0  0  0
  2  5  1  0  0  0  0
  3  6  1  0  0  0  0
  5  1  1  0  0  0  0
  5  6  2  0  0  0  0
  6  4  1  0  0  0  0
  7 13  1  0  0  0  0
  7  1  1  0  0  0  0
  8  7  1  0  0  0  0
  9 12  1  0  0  0  0
  9  7  1  0  0  0  0
 10  9  1  0  0  0  0
 11  9  1  0  0  0  0
 13 14  1  0  0  0  0
 13 15  1  0  0  0  0
 16 13  1  0  0  0  0
 17 18  1  0  0  0  0
 17 23  1  0  0  0  0
 19 17  1  0  0  0  0
 19 22  1  0  0  0  0
 20 19  1  0  0  0  0
 21 19  1  0  0  0  0
 23 25  1  0  0  0  0
 23 24  1  0  0  0  0
 26 23  1  0  0  0  0
M  END
