1
q = 0.0, confidence = 1.0

 22 22  0  0  0  0  0  0  0  0999 V2000
    2.3000   -0.2688   -0.0574 P   0  0  0  0  0  0  0  0  0  0  0  0
    2.9297   -0.9837   -1.6143 C   0  0  0  0  0  0  0  0  0  0  0  0
    2.1906   -1.7164   -2.4777 C   0  0  0  0  0  0  0  0  0  0  0  0
    3.0569   -1.3898    1.1884 C   0  0  0  0  0  0  0  0  0  0  0  0
    2.8298   -2.7214    1.1965 C   0  0  0  0  0  0  0  0  0  0  0  0
    3.2676    1.2594    0.2053 C   0  0  0  0  0  0  0  0  0  0  0  0
    2.5804    2.4727    0.4072 C   0  0  0  0  0  0  0  0  0  0  0  0
    1.4813    2.4904    0.3684 H   0  0  0  0  0  0  0  0  0  0  0  0
    3.3044    3.6509    0.6392 C   0  0  0  0  0  0  0  0  0  0  0  0
    2.7653    4.5971    0.7951 H   0  0  0  0  0  0  0  0  0  0  0  0
    4.7069    3.6224    0.6689 C   0  0  0  0  0  0  0  0  0  0  0  0
    5.2724    4.5492    0.8493 H   0  0  0  0  0  0  0  0  0  0  0  0
    5.3912    2.4115    0.4729 C   0  0  0  0  0  0  0  0  0  0  0  0
    6.4909    2.3867    0.5000 H   0  0  0  0  0  0  0  0  0  0  0  0
    4.6780    1.2273    0.2463 C   0  0  0  0  0  0  0  0  0  0  0  0
    5.2170    0.2815    0.0998 H   0  0  0  0  0  0  0  0  0  0  0  0
    4.2447   -0.8231   -1.8903 F   0  0  0  0  0  0  0  0  0  0  0  0
    2.6810   -2.2437   -3.5805 F   0  0  0  0  0  0  0  0  0  0  0  0
    0.9142   -1.9936   -2.3162 F   0  0  0  0  0  0  0  0  0  0  0  0
    3.7188   -0.8360    2.2215 F   0  0  0  0  0  0  0  0  0  0  0  0
    3.2625   -3.5528    2.1190 F   0  0  0  0  0  0  0  0  0  0  0  0
    2.1360   -3.3295    0.2480 F   0  0  0  0  0  0  0  0  0  0  0  0
  1  6  1  0  0  0  0
  1  4  1  0  0  0  0
  2  1  1  0  0  0  0
  3 19  1  0  0  0  0
  3  2  2  0  0  0  0
  4  5  2  0  0  0  0
  4 20  1  0  0  0  0
  5 21  1  0  0  0  0
  6 15  2  0  0  0  0
  6  7  1  0  0  0  0
  7  9  2  0  0  0  0
  8  7  1  0  0  0  0
  9 11  1  0  0  0  0
  9 10  1  0  0  0  0
 11 12  1  0  0  0  0
 13 14  1  0  0  0  0
 13 11  2  0  0  0  0
 15 13  1  0  0  0  0
 16 15  1  0  0  0  0
 17  2  1  0  0  0  0
 18  3  1  0  0  0  0
 22  5  1  0  0  0  0
M  END
