1
q = -1.0

 56 56  0  0  1  0  0  0  0  0999 V2000
    1.5138    0.5597    0.6338 P   0  0  0  0  0  0  0  0  0  0  0  0
    0.0356    0.9340    1.5181 N   0  0  0  0  0  0  0  0  0  0  0  0
    0.0866    1.3948    2.4340 H   0  0  0  0  0  0  0  0  0  0  0  0
   -1.9124   -0.5033    1.1113 N   0  0  0  0  0  0  0  0  0  0  0  0
   -1.9712    1.5149    0.2347 N   0  0  0  0  0  0  0  0  0  0  0  0
   -1.2191    0.6672    0.9982 C   0  0  2  0  0  3  0  0  0  0  0  0
   -3.1072   -0.4002    0.4121 C   0  0  0  0  0  0  0  0  0  0  0  0
   -3.1444    0.8733   -0.1458 C   0  0  0  0  0  0  0  0  0  0  0  0
   -4.1171   -1.4893    0.2819 C   0  0  0  0  0  0  0  0  0  0  0  0
   -3.7726   -2.2772   -0.4178 H   0  0  0  0  0  0  0  0  0  0  0  0
   -5.0635   -1.0789   -0.1128 H   0  0  0  0  0  0  0  0  0  0  0  0
   -4.3434   -1.9691    1.2527 H   0  0  0  0  0  0  0  0  0  0  0  0
   -4.2231    1.4767   -0.9808 C   0  0  0  0  0  0  0  0  0  0  0  0
   -4.8040    2.2404   -0.4250 H   0  0  0  0  0  0  0  0  0  0  0  0
   -4.9287    0.6900   -1.3014 H   0  0  0  0  0  0  0  0  0  0  0  0
   -3.8265    1.9516   -1.8979 H   0  0  0  0  0  0  0  0  0  0  0  0
   -1.4124   -1.6625    1.8969 C   0  0  0  0  0  0  0  0  0  0  0  0
   -0.3512   -1.4046    2.0548 H   0  0  0  0  0  0  0  0  0  0  0  0
   -1.4562   -2.9806    1.1215 C   0  0  0  0  0  0  0  0  0  0  0  0
   -2.4600   -3.4436    1.1214 H   0  0  0  0  0  0  0  0  0  0  0  0
   -0.7705   -3.6950    1.6175 H   0  0  0  0  0  0  0  0  0  0  0  0
   -1.1122   -2.8575    0.0747 H   0  0  0  0  0  0  0  0  0  0  0  0
   -2.0985   -1.7194    3.2640 C   0  0  0  0  0  0  0  0  0  0  0  0
   -1.9873   -0.7653    3.8166 H   0  0  0  0  0  0  0  0  0  0  0  0
   -1.6376   -2.5231    3.8707 H   0  0  0  0  0  0  0  0  0  0  0  0
   -3.1796   -1.9466    3.1787 H   0  0  0  0  0  0  0  0  0  0  0  0
   -1.4997    2.8628   -0.1697 C   0  0  0  0  0  0  0  0  0  0  0  0
   -0.5860    2.9973    0.4422 H   0  0  0  0  0  0  0  0  0  0  0  0
   -2.4792    3.9708    0.2198 C   0  0  0  0  0  0  0  0  0  0  0  0
   -1.9769    4.9496    0.0945 H   0  0  0  0  0  0  0  0  0  0  0  0
   -2.7908    3.8828    1.2790 H   0  0  0  0  0  0  0  0  0  0  0  0
   -3.3833    3.9848   -0.4163 H   0  0  0  0  0  0  0  0  0  0  0  0
   -1.0915    2.8721   -1.6463 C   0  0  0  0  0  0  0  0  0  0  0  0
   -0.4209    2.0208   -1.8815 H   0  0  0  0  0  0  0  0  0  0  0  0
   -0.5592    3.8158   -1.8761 H   0  0  0  0  0  0  0  0  0  0  0  0
   -1.9648    2.8132   -2.3236 H   0  0  0  0  0  0  0  0  0  0  0  0
    2.1686    2.2152    0.0590 C   0  0  0  0  0  0  0  0  0  0  0  0
    1.2485    2.6544   -0.3805 H   0  0  0  0  0  0  0  0  0  0  0  0
    2.6501    3.1149    1.2006 C   0  0  0  0  0  0  0  0  0  0  0  0
    1.8963    3.2218    2.0084 H   0  0  0  0  0  0  0  0  0  0  0  0
    2.8603    4.1330    0.8151 H   0  0  0  0  0  0  0  0  0  0  0  0
    3.5902    2.7402    1.6527 H   0  0  0  0  0  0  0  0  0  0  0  0
    3.1829    2.0734   -1.0849 C   0  0  0  0  0  0  0  0  0  0  0  0
    4.1629    1.6948   -0.7371 H   0  0  0  0  0  0  0  0  0  0  0  0
    3.3592    3.0668   -1.5443 H   0  0  0  0  0  0  0  0  0  0  0  0
    2.8149    1.3911   -1.8776 H   0  0  0  0  0  0  0  0  0  0  0  0
    2.6758   -0.0778    1.9424 C   0  0  0  0  0  0  0  0  0  0  0  0
    2.8204    0.7646    2.6549 H   0  0  0  0  0  0  0  0  0  0  0  0
    2.1023   -1.2809    2.6972 C   0  0  0  0  0  0  0  0  0  0  0  0
    1.2029   -1.0202    3.2876 H   0  0  0  0  0  0  0  0  0  0  0  0
    2.8615   -1.6617    3.4093 H   0  0  0  0  0  0  0  0  0  0  0  0
    1.8500   -2.1097    2.0041 H   0  0  0  0  0  0  0  0  0  0  0  0
    4.0219   -0.4166    1.2816 C   0  0  0  0  0  0  0  0  0  0  0  0
    3.8959   -1.1659    0.4730 H   0  0  0  0  0  0  0  0  0  0  0  0
    4.7033   -0.8505    2.0403 H   0  0  0  0  0  0  0  0  0  0  0  0
    4.5265    0.4702    0.8558 H   0  0  0  0  0  0  0  0  0  0  0  0
  1  2  1  0  0  0  0
  1 47  1  0  0  0  0
  2  3  1  0  0  0  0
  4 17  1  0  0  0  0
  5  6  1  0  0  0  0
  6  4  1  0  0  0  0
  6  2  1  6  0  0  0
  7  4  1  0  0  0  0
  8  5  1  0  0  0  0
  8  7  2  0  0  0  0
  9  7  1  0  0  0  0
  9 12  1  0  0  0  0
 10  9  1  0  0  0  0
 11  9  1  0  0  0  0
 13 14  1  0  0  0  0
 13  8  1  0  0  0  0
 15 13  1  0  0  0  0
 16 13  1  0  0  0  0
 17 18  1  0  0  0  0
 17 23  1  0  0  0  0
 19 21  1  0  0  0  0
 19 17  1  0  0  0  0
 20 19  1  0  0  0  0
 22 19  1  0  0  0  0
 23 24  1  0  0  0  0
 23 25  1  0  0  0  0
 26 23  1  0  0  0  0
 27 29  1  0  0  0  0
 27  5  1  0  0  0  0
 27 28  1  0  0  0  0
 29 31  1  0  0  0  0
 30 29  1  0  0  0  0
 32 29  1  0  0  0  0
 33 27  1  0  0  0  0
 34 33  1  0  0  0  0
 35 33  1  0  0  0  0
 36 33  1  0  0  0  0
 37  1  1  0  0  0  0
 37 39  1  0  0  0  0
 38 37  1  0  0  0  0
 39 42  1  0  0  0  0
 39 40  1  0  0  0  0
 41 39  1  0  0  0  0
 43 44  1  0  0  0  0
 43 37  1  0  0  0  0
 45 43  1  0  0  0  0
 46 43  1  0  0  0  0
 47 48  1  0  0  0  0
 47 49  1  0  0  0  0
 49 50  1  0  0  0  0
 49 51  1  0  0  0  0
 52 49  1  0  0  0  0
 53 47  1  0  0  0  0
 53 55  1  0  0  0  0
 54 53  1  0  0  0  0
 56 53  1  0  0  0  0
M  END
