1
q = -1.0

 28 27  0  0  0  0  0  0  0  0999 V2000
    0.2030   -0.0186   -0.0757 P   0  0  0  0  0  1  0  0  0  0  0  0
    2.7726   -1.6692   -0.1066 Si  0  0  0  0  0  0  0  0  0  0  0  0
    2.7425    1.6694   -0.1400 Si  0  0  0  0  0  0  0  0  0  0  0  0
    1.8590   -0.0085   -0.1324 C   0  0  0  0  0  3  0  0  0  0  0  0
    4.2227   -1.5688    1.1077 C   0  0  0  0  0  0  0  0  0  0  0  0
    1.5959   -3.0506    0.4274 C   0  0  0  0  0  0  0  0  0  0  0  0
    3.4264   -2.0456   -1.8444 C   0  0  0  0  0  0  0  0  0  0  0  0
    4.2046    1.6046   -1.3428 C   0  0  0  0  0  0  0  0  0  0  0  0
    3.3649    2.0471    1.6074 C   0  0  0  0  0  0  0  0  0  0  0  0
    1.5436    3.0329   -0.6730 C   0  0  0  0  0  0  0  0  0  0  0  0
    4.7578   -2.5406    1.1404 H   0  0  0  0  0  0  0  0  0  0  0  0
    4.9552   -0.7905    0.8127 H   0  0  0  0  0  0  0  0  0  0  0  0
    3.8681   -1.3372    2.1323 H   0  0  0  0  0  0  0  0  0  0  0  0
    2.1370   -4.0185    0.4726 H   0  0  0  0  0  0  0  0  0  0  0  0
    1.1598   -2.8526    1.4278 H   0  0  0  0  0  0  0  0  0  0  0  0
    0.7549   -3.1648   -0.2870 H   0  0  0  0  0  0  0  0  0  0  0  0
    3.9602   -3.0188   -1.8588 H   0  0  0  0  0  0  0  0  0  0  0  0
    2.5888   -2.1011   -2.5692 H   0  0  0  0  0  0  0  0  0  0  0  0
    4.1283   -1.2630   -2.1946 H   0  0  0  0  0  0  0  0  0  0  0  0
    4.7208    2.5868   -1.3676 H   0  0  0  0  0  0  0  0  0  0  0  0
    4.9498    0.8404   -1.0429 H   0  0  0  0  0  0  0  0  0  0  0  0
    3.8657    1.3684   -2.3718 H   0  0  0  0  0  0  0  0  0  0  0  0
    3.8813    3.0294    1.6340 H   0  0  0  0  0  0  0  0  0  0  0  0
    2.5134    2.0852    2.3169 H   0  0  0  0  0  0  0  0  0  0  0  0
    4.0738    1.2750    1.9661 H   0  0  0  0  0  0  0  0  0  0  0  0
    2.0593    4.0156   -0.6797 H   0  0  0  0  0  0  0  0  0  0  0  0
    1.1455    2.8465   -1.6913 H   0  0  0  0  0  0  0  0  0  0  0  0
    0.6815    3.1059    0.0217 H   0  0  0  0  0  0  0  0  0  0  0  0
  2  6  1  0  0  0  0
  2  5  1  0  0  0  0
  3  4  1  0  0  0  0
  3  9  1  0  0  0  0
  4  2  1  0  0  0  0
  4  1  1  0  0  0  0
  5 11  1  0  0  0  0
  5 13  1  0  0  0  0
  6 14  1  0  0  0  0
  6 15  1  0  0  0  0
  7  2  1  0  0  0  0
  8 21  1  0  0  0  0
  8  3  1  0  0  0  0
  9 23  1  0  0  0  0
  9 25  1  0  0  0  0
  9 24  1  0  0  0  0
 10  3  1  0  0  0  0
 10 28  1  0  0  0  0
 12  5  1  0  0  0  0
 16  6  1  0  0  0  0
 17  7  1  0  0  0  0
 18  7  1  0  0  0  0
 19  7  1  0  0  0  0
 20  8  1  0  0  0  0
 22  8  1  0  0  0  0
 26 10  1  0  0  0  0
 27 10  1  0  0  0  0
M  END
