1
q = 0.0, confidence = 0.992

 30 31  0  0  0  0  0  0  0  0999 V2000
    0.8031    0.7706    0.6654 P   0  0  0  0  0  0  0  0  0  0  0  0
    0.5536    1.5867    2.3241 C   0  0  0  0  0  0  0  0  0  0  0  0
    0.0256    3.0192    2.2233 C   0  0  0  0  0  0  0  0  0  0  0  0
    2.1524   -0.4362    0.9791 C   0  0  0  0  0  0  0  0  0  0  0  0
    3.0712   -0.7379   -0.0491 C   0  0  0  0  0  0  0  0  0  0  0  0
    4.0591   -1.7133    0.1496 C   0  0  0  0  0  0  0  0  0  0  0  0
    4.1348   -2.4025    1.3712 C   0  0  0  0  0  0  0  0  0  0  0  0
    3.2129   -2.1170    2.3907 C   0  0  0  0  0  0  0  0  0  0  0  0
    2.2227   -1.1420    2.1975 C   0  0  0  0  0  0  0  0  0  0  0  0
    1.6900    2.0785   -0.2830 C   0  0  0  0  0  0  0  0  0  0  0  0
    1.1313    2.6776   -1.4269 C   0  0  0  0  0  0  0  0  0  0  0  0
    1.8228    3.7095   -2.0848 C   0  0  0  0  0  0  0  0  0  0  0  0
    3.0651    4.1507   -1.6096 C   0  0  0  0  0  0  0  0  0  0  0  0
    3.6248    3.5571   -0.4648 C   0  0  0  0  0  0  0  0  0  0  0  0
    2.9433    2.5267    0.1949 C   0  0  0  0  0  0  0  0  0  0  0  0
   -0.1511    0.9332    2.8794 H   0  0  0  0  0  0  0  0  0  0  0  0
    1.5297    1.5611    2.8514 H   0  0  0  0  0  0  0  0  0  0  0  0
   -0.8827    3.0789    1.5933 H   0  0  0  0  0  0  0  0  0  0  0  0
   -0.2350    3.4007    3.2311 H   0  0  0  0  0  0  0  0  0  0  0  0
    0.7801    3.7007    1.7840 H   0  0  0  0  0  0  0  0  0  0  0  0
    3.0162   -0.1982   -1.0063 H   0  0  0  0  0  0  0  0  0  0  0  0
    4.7759   -1.9338   -0.6561 H   0  0  0  0  0  0  0  0  0  0  0  0
    4.9117   -3.1661    1.5277 H   0  0  0  0  0  0  0  0  0  0  0  0
    3.2604   -2.6601    3.3466 H   0  0  0  0  0  0  0  0  0  0  0  0
    1.4907   -0.9500    2.9948 H   0  0  0  0  0  0  0  0  0  0  0  0
    0.1575    2.3487   -1.8141 H   0  0  0  0  0  0  0  0  0  0  0  0
    1.3780    4.1681   -2.9810 H   0  0  0  0  0  0  0  0  0  0  0  0
    3.6027    4.9579   -2.1302 H   0  0  0  0  0  0  0  0  0  0  0  0
    4.6002    3.8974   -0.0846 H   0  0  0  0  0  0  0  0  0  0  0  0
    3.3933    2.0594    1.0845 H   0  0  0  0  0  0  0  0  0  0  0  0
  1  4  1  0  0  0  0
  1  2  1  0  0  0  0
  2 17  1  0  0  0  0
  2 16  1  0  0  0  0
  3  2  1  0  0  0  0
  3 19  1  0  0  0  0
  4  9  1  0  0  0  0
  5  6  1  0  0  0  0
  5  4  2  0  0  0  0
  6  7  2  0  0  0  0
  7 23  1  0  0  0  0
  7  8  1  0  0  0  0
  8 24  1  0  0  0  0
  9  8  2  0  0  0  0
  9 25  1  0  0  0  0
 10 15  1  0  0  0  0
 10  1  1  0  0  0  0
 11 10  2  0  0  0  0
 12 13  2  0  0  0  0
 12 11  1  0  0  0  0
 13 14  1  0  0  0  0
 14 29  1  0  0  0  0
 14 15  2  0  0  0  0
 15 30  1  0  0  0  0
 18  3  1  0  0  0  0
 20  3  1  0  0  0  0
 21  5  1  0  0  0  0
 22  6  1  0  0  0  0
 26 11  1  0  0  0  0
 27 12  1  0  0  0  0
 28 13  1  0  0  0  0
M  END
