24
q = 0.0, confidence = 1.0

 25 27  0  0  1  0  0  0  0  0999 V2000
    2.5952    0.0626    0.2291 C   0  0  0  0  0  0  0  0  0  0  0  0
    3.2738   -0.3223    1.3795 C   0  0  0  0  0  0  0  0  0  0  0  0
    2.8990   -0.1103    2.3907 H   0  0  0  0  0  0  0  0  0  0  0  0
    4.4847   -1.0241    1.1024 C   0  0  0  0  0  0  0  0  0  0  0  0
    5.1668   -1.4048    1.8748 H   0  0  0  0  0  0  0  0  0  0  0  0
    4.7115   -1.1782   -0.2533 C   0  0  0  0  0  0  0  0  0  0  0  0
    5.5584   -1.6675   -0.7503 H   0  0  0  0  0  0  0  0  0  0  0  0
    1.1822    2.5129    0.8313 C   0  0  1  0  0  0  0  0  0  0  0  0
    2.1587    2.5930    1.3385 H   0  0  0  0  0  0  0  0  0  0  0  0
    1.2547    2.4870   -0.6924 C   0  0  2  0  0  0  0  0  0  0  0  0
    2.2696    2.5751   -1.1148 H   0  0  0  0  0  0  0  0  0  0  0  0
    0.1329    3.1234   -1.5179 C   0  0  0  0  0  0  0  0  0  0  0  0
    0.5823    3.6229   -2.3995 H   0  0  0  0  0  0  0  0  0  0  0  0
   -0.5269    2.3302   -1.9267 H   0  0  0  0  0  0  0  0  0  0  0  0
   -0.7237    4.1177   -0.7181 C   0  0  0  0  0  0  0  0  0  0  0  0
   -1.6090    4.4043   -1.3215 H   0  0  0  0  0  0  0  0  0  0  0  0
   -0.1478    5.0530   -0.5371 H   0  0  0  0  0  0  0  0  0  0  0  0
   -1.1591    3.5289    0.6272 C   0  0  0  0  0  0  0  0  0  0  0  0
   -1.7252    2.5891    0.4542 H   0  0  0  0  0  0  0  0  0  0  0  0
   -1.8564    4.2148    1.1495 H   0  0  0  0  0  0  0  0  0  0  0  0
    0.0526    3.2579    1.5282 C   0  0  0  0  0  0  0  0  0  0  0  0
    0.4692    4.2355    1.8604 H   0  0  0  0  0  0  0  0  0  0  0  0
   -0.2496    2.7207    2.4506 H   0  0  0  0  0  0  0  0  0  0  0  0
    0.9524    0.8171    0.0932 P   0  0  1  0  0  0  0  0  0  0  0  0
    3.4495   -0.4676   -1.1976 S   0  0  0  0  0  0  0  0  0  0  0  0
  1  2  2  0  0  0  0
  2  3  1  0  0  0  0
  4  2  1  0  0  0  0
  4  5  1  0  0  0  0
  6  4  2  0  0  0  0
  7  6  1  0  0  0  0
  8  9  1  1  0  0  0
  8 21  1  0  0  0  0
 10 11  1  6  0  0  0
 10 24  1  0  0  0  0
 10  8  1  0  0  0  0
 12 15  1  0  0  0  0
 12 10  1  0  0  0  0
 13 12  1  0  0  0  0
 14 12  1  0  0  0  0
 15 17  1  0  0  0  0
 15 18  1  0  0  0  0
 16 15  1  0  0  0  0
 18 20  1  0  0  0  0
 18 21  1  0  0  0  0
 19 18  1  0  0  0  0
 21 22  1  0  0  0  0
 21 23  1  0  0  0  0
 24  1  1  1  0  0  0
 24  8  1  0  0  0  0
 25  6  1  0  0  0  0
 25  1  1  0  0  0  0
M  END
