1
q = -1.0

 17 18  0  0  1  0  0  0  0  0999 V2000
    0.9500   -0.0137    0.0106 P   0  0  0  0  0  2  0  0  0  0  0  0
    3.3351   -0.9393   -0.0091 C   0  0  1  0  0  0  0  0  0  0  0  0
    3.5077    0.5825    0.1024 C   0  0  0  0  0  0  0  0  0  0  0  0
    3.7254   -1.8340   -1.1623 C   0  0  0  0  0  2  0  0  0  0  0  0
    4.3979   -1.9551    0.1704 C   0  0  0  0  0  0  0  0  0  0  0  0
    4.4981    1.1428   -0.9101 C   0  0  0  0  0  0  0  0  0  0  0  0
    3.7970    1.0152    1.5401 C   0  0  0  0  0  0  0  0  0  0  0  0
    2.0110   -1.2853    0.3734 O   0  0  0  0  0  0  0  0  0  0  0  0
    2.1819    1.0725   -0.2620 O   0  0  0  0  0  0  0  0  0  0  0  0
    4.3288   -2.9090    0.7277 H   0  0  0  0  0  0  0  0  0  0  0  0
    5.4047   -1.4936    0.2323 H   0  0  0  0  0  0  0  0  0  0  0  0
    5.5256    0.7911   -0.6884 H   0  0  0  0  0  0  0  0  0  0  0  0
    4.4986    2.2487   -0.8647 H   0  0  0  0  0  0  0  0  0  0  0  0
    4.2222    0.8235   -1.9333 H   0  0  0  0  0  0  0  0  0  0  0  0
    4.8093    0.6895    1.8503 H   0  0  0  0  0  0  0  0  0  0  0  0
    3.0599    0.5676    2.2361 H   0  0  0  0  0  0  0  0  0  0  0  0
    3.7359    2.1179    1.6239 H   0  0  0  0  0  0  0  0  0  0  0  0
  1  8  1  0  0  0  0
  2  4  1  6  0  0  0
  2  3  1  0  0  0  0
  2  5  1  0  0  0  0
  2  8  1  0  0  0  0
  3  7  1  0  0  0  0
  4  5  1  0  0  0  0
  5 11  1  0  0  0  0
  5 10  1  0  0  0  0
  6 13  1  0  0  0  0
  6 12  1  0  0  0  0
  6  3  1  0  0  0  0
  7 17  1  0  0  0  0
  7 15  1  0  0  0  0
  7 16  1  0  0  0  0
  9  1  1  0  0  0  0
  9  3  1  0  0  0  0
 14  6  1  0  0  0  0
M  END
