1
q = 0.0, confidence = 1.0

 26 29  0  0  0  0  0  0  0  0999 V2000
   -0.3624   -0.1201   -0.0161 P   0  0  0  0  0  0  0  0  0  0  0  0
   -2.3896   -2.9831    2.3916 S   0  0  0  0  0  0  0  0  0  0  0  0
    1.6238    0.6944    1.9970 F   0  0  0  0  0  0  0  0  0  0  0  0
    5.5968   -0.8554   -0.0350 F   0  0  0  0  0  0  0  0  0  0  0  0
    4.1521   -1.8024   -2.1540 F   0  0  0  0  0  0  0  0  0  0  0  0
    1.4778   -1.5177   -2.2228 F   0  0  0  0  0  0  0  0  0  0  0  0
   -1.5593   -1.9318    3.5060 C   0  0  0  0  0  0  0  0  0  0  0  0
   -1.6679   -2.1038    4.5838 H   0  0  0  0  0  0  0  0  0  0  0  0
   -0.8304   -0.9436    2.8667 C   0  0  0  0  0  0  0  0  0  0  0  0
   -0.2472   -0.1796    3.3948 H   0  0  0  0  0  0  0  0  0  0  0  0
   -0.9408   -1.0477    1.4519 C   0  0  0  0  0  0  0  0  0  0  0  0
   -1.7592   -2.1100    1.0388 C   0  0  0  0  0  0  0  0  0  0  0  0
   -1.9144   -2.2308   -0.3934 C   0  0  0  0  0  0  0  0  0  0  0  0
   -1.2068   -1.2791   -1.1438 C   0  0  0  0  0  0  0  0  0  0  0  0
   -1.4474   -1.3791   -2.5428 C   0  0  0  0  0  0  0  0  0  0  0  0
   -1.0009   -0.7272   -3.3043 H   0  0  0  0  0  0  0  0  0  0  0  0
   -2.3124   -2.4172   -2.8367 C   0  0  0  0  0  0  0  0  0  0  0  0
   -2.6696   -2.7446   -3.8206 H   0  0  0  0  0  0  0  0  0  0  0  0
    1.4533   -0.4382   -0.0855 C   0  0  0  0  0  0  0  0  0  0  0  0
    2.2274    0.0574    0.9814 C   0  0  0  0  0  0  0  0  0  0  0  0
    3.6217   -0.0781    1.0190 C   0  0  0  0  0  0  0  0  0  0  0  0
    4.2742   -0.7163   -0.0514 C   0  0  0  0  0  0  0  0  0  0  0  0
    3.5296   -1.2052   -1.1376 C   0  0  0  0  0  0  0  0  0  0  0  0
    2.1311   -1.0562   -1.1518 C   0  0  0  0  0  0  0  0  0  0  0  0
   -2.8578   -3.2618   -1.4119 S   0  0  0  0  0  0  0  0  0  0  0  0
    4.3267    0.3927    2.0467 F   0  0  0  0  0  0  0  0  0  0  0  0
  1 11  1  0  0  0  0
  2  7  1  0  0  0  0
  5 23  1  0  0  0  0
  6 24  1  0  0  0  0
  7  8  1  0  0  0  0
  9 10  1  0  0  0  0
  9  7  2  0  0  0  0
 11  9  1  0  0  0  0
 12 11  2  0  0  0  0
 12  2  1  0  0  0  0
 13 12  1  0  0  0  0
 14 13  2  0  0  0  0
 14  1  1  0  0  0  0
 15 14  1  0  0  0  0
 16 15  1  0  0  0  0
 17 15  2  0  0  0  0
 17 25  1  0  0  0  0
 18 17  1  0  0  0  0
 19  1  1  0  0  0  0
 19 20  1  0  0  0  0
 20 21  2  0  0  0  0
 20  3  1  0  0  0  0
 21 26  1  0  0  0  0
 22  4  1  0  0  0  0
 22 21  1  0  0  0  0
 23 22  2  0  0  0  0
 24 23  1  0  0  0  0
 24 19  2  0  0  0  0
 25 13  1  0  0  0  0
M  END
