1
q = 0.0, confidence = 0.996

 40 43  0  0  0  0  0  0  0  0999 V2000
    0.8728    0.0703    0.0558 P   0  0  0  0  0  0  0  0  0  0  0  0
   -0.5770    1.2937    2.1665 N   0  0  0  0  0  0  0  0  0  0  0  0
   -0.4604    1.6722    3.4656 N   0  0  0  0  0  0  0  0  0  0  0  0
    0.7800    1.4763    3.8304 N   0  0  0  0  0  0  0  0  0  0  0  0
    0.6302    0.8361    1.6841 C   0  0  0  0  0  0  0  0  0  0  0  0
    1.4850    0.9668    2.7819 C   0  0  0  0  0  0  0  0  0  0  0  0
    2.5450    0.6990    2.8580 H   0  0  0  0  0  0  0  0  0  0  0  0
   -1.8378    1.3280    1.4988 C   0  0  0  0  0  0  0  0  0  0  0  0
   -1.9501    1.9530    0.2449 C   0  0  0  0  0  0  0  0  0  0  0  0
   -1.0842    2.4685   -0.1934 H   0  0  0  0  0  0  0  0  0  0  0  0
   -3.1769    1.9097   -0.4320 C   0  0  0  0  0  0  0  0  0  0  0  0
   -3.2662    2.3820   -1.4212 H   0  0  0  0  0  0  0  0  0  0  0  0
   -4.2788    1.2610    0.1448 C   0  0  0  0  0  0  0  0  0  0  0  0
   -5.2344    1.2135   -0.3975 H   0  0  0  0  0  0  0  0  0  0  0  0
   -4.1609    0.6650    1.4108 C   0  0  0  0  0  0  0  0  0  0  0  0
   -5.0231    0.1526    1.8619 H   0  0  0  0  0  0  0  0  0  0  0  0
   -2.9396    0.6938    2.0957 C   0  0  0  0  0  0  0  0  0  0  0  0
   -2.8169    0.2147    3.0766 H   0  0  0  0  0  0  0  0  0  0  0  0
    2.4460   -0.8397    0.3089 C   0  0  0  0  0  0  0  0  0  0  0  0
    2.3732   -2.1899    0.7075 C   0  0  0  0  0  0  0  0  0  0  0  0
    1.3890   -2.6742    0.8115 H   0  0  0  0  0  0  0  0  0  0  0  0
    3.5508   -2.9081    0.9576 C   0  0  0  0  0  0  0  0  0  0  0  0
    3.4907   -3.9618    1.2684 H   0  0  0  0  0  0  0  0  0  0  0  0
    4.8009   -2.2874    0.8014 C   0  0  0  0  0  0  0  0  0  0  0  0
    5.7243   -2.8548    0.9920 H   0  0  0  0  0  0  0  0  0  0  0  0
    4.8741   -0.9464    0.3916 C   0  0  0  0  0  0  0  0  0  0  0  0
    5.8532   -0.4617    0.2591 H   0  0  0  0  0  0  0  0  0  0  0  0
    3.7000   -0.2192    0.1436 C   0  0  0  0  0  0  0  0  0  0  0  0
    3.7602    0.8288   -0.1863 H   0  0  0  0  0  0  0  0  0  0  0  0
    1.2839    1.4569   -1.0729 C   0  0  0  0  0  0  0  0  0  0  0  0
    1.7800    2.6860   -0.5929 C   0  0  0  0  0  0  0  0  0  0  0  0
    1.9112    2.8421    0.4893 H   0  0  0  0  0  0  0  0  0  0  0  0
    2.0917    3.7135   -1.4967 C   0  0  0  0  0  0  0  0  0  0  0  0
    2.4731    4.6743   -1.1194 H   0  0  0  0  0  0  0  0  0  0  0  0
    1.9120    3.5179   -2.8754 C   0  0  0  0  0  0  0  0  0  0  0  0
    2.1531    4.3272   -3.5811 H   0  0  0  0  0  0  0  0  0  0  0  0
    1.4147    2.2944   -3.3539 C   0  0  0  0  0  0  0  0  0  0  0  0
    1.2639    2.1426   -4.4331 H   0  0  0  0  0  0  0  0  0  0  0  0
    1.0956    1.2654   -2.4567 C   0  0  0  0  0  0  0  0  0  0  0  0
    0.6827    0.3118   -2.8231 H   0  0  0  0  0  0  0  0  0  0  0  0
  1 19  1  0  0  0  0
  1  5  1  0  0  0  0
  2  3  1  0  0  0  0
  3  4  2  0  0  0  0
  5  2  1  0  0  0  0
  5  6  2  0  0  0  0
  6  7  1  0  0  0  0
  6  4  1  0  0  0  0
  8 17  1  0  0  0  0
  8  2  1  0  0  0  0
  9  8  2  0  0  0  0
 10  9  1  0  0  0  0
 11 13  2  0  0  0  0
 11  9  1  0  0  0  0
 12 11  1  0  0  0  0
 13 15  1  0  0  0  0
 14 13  1  0  0  0  0
 15 16  1  0  0  0  0
 15 17  2  0  0  0  0
 17 18  1  0  0  0  0
 19 20  1  0  0  0  0
 20 21  1  0  0  0  0
 20 22  2  0  0  0  0
 22 23  1  0  0  0  0
 24 22  1  0  0  0  0
 24 25  1  0  0  0  0
 26 24  2  0  0  0  0
 27 26  1  0  0  0  0
 28 19  2  0  0  0  0
 28 26  1  0  0  0  0
 29 28  1  0  0  0  0
 30 31  1  0  0  0  0
 30  1  1  0  0  0  0
 31 32  1  0  0  0  0
 33 34  1  0  0  0  0
 33 31  2  0  0  0  0
 35 33  1  0  0  0  0
 36 35  1  0  0  0  0
 37 35  2  0  0  0  0
 37 39  1  0  0  0  0
 38 37  1  0  0  0  0
 39 30  2  0  0  0  0
 40 39  1  0  0  0  0
M  END
