1
q = 0.0, confidence = 1.0

 34 36  0  0  0  0  0  0  0  0999 V2000
   -1.1633    0.0084    0.0188 P   0  0  0  0  0  0  0  0  0  0  0  0
   -0.2652   -2.5357   -1.5061 F   0  0  0  0  0  0  0  0  0  0  0  0
   -4.0723    0.1758   -0.7104 F   0  0  0  0  0  0  0  0  0  0  0  0
   -2.3124    1.2647   -2.6726 F   0  0  0  0  0  0  0  0  0  0  0  0
   -0.4984    2.4001    1.5602 F   0  0  0  0  0  0  0  0  0  0  0  0
   -1.1805   -2.4784    1.4692 F   0  0  0  0  0  0  0  0  0  0  0  0
   -3.2039    1.7975    1.7775 F   0  0  0  0  0  0  0  0  0  0  0  0
   -2.1143   -1.0894   -1.1023 C   0  0  0  0  0  0  0  0  0  0  0  0
   -1.5536   -2.2365   -1.7002 C   0  0  0  0  0  0  0  0  0  0  0  0
   -2.3155   -3.1081   -2.4901 C   0  0  0  0  0  0  0  0  0  0  0  0
   -1.8206   -3.9811   -2.9367 H   0  0  0  0  0  0  0  0  0  0  0  0
   -3.6788   -2.8494   -2.6766 C   0  0  0  0  0  0  0  0  0  0  0  0
   -4.2821   -3.5306   -3.2946 H   0  0  0  0  0  0  0  0  0  0  0  0
   -4.2862   -1.7357   -2.0763 C   0  0  0  0  0  0  0  0  0  0  0  0
   -5.3546   -1.5120   -2.1980 H   0  0  0  0  0  0  0  0  0  0  0  0
   -3.4960   -0.8880   -1.2992 C   0  0  0  0  0  0  0  0  0  0  0  0
   -1.4552    1.7459   -0.4999 C   0  0  0  0  0  0  0  0  0  0  0  0
   -1.8892    2.1654   -1.7727 C   0  0  0  0  0  0  0  0  0  0  0  0
   -1.8955    3.5124   -2.1550 C   0  0  0  0  0  0  0  0  0  0  0  0
   -2.2545    3.7687   -3.1610 H   0  0  0  0  0  0  0  0  0  0  0  0
   -1.4344    4.4836   -1.2588 C   0  0  0  0  0  0  0  0  0  0  0  0
   -1.4333    5.5430   -1.5541 H   0  0  0  0  0  0  0  0  0  0  0  0
   -0.9653    4.1125    0.0100 C   0  0  0  0  0  0  0  0  0  0  0  0
   -0.5861    4.8448    0.7356 H   0  0  0  0  0  0  0  0  0  0  0  0
   -0.9771    2.7611    0.3556 C   0  0  0  0  0  0  0  0  0  0  0  0
   -2.0784   -0.2952    1.5842 C   0  0  0  0  0  0  0  0  0  0  0  0
   -1.8984   -1.5738    2.1559 C   0  0  0  0  0  0  0  0  0  0  0  0
   -2.4661   -1.9509    3.3744 C   0  0  0  0  0  0  0  0  0  0  0  0
   -2.2727   -2.9596    3.7631 H   0  0  0  0  0  0  0  0  0  0  0  0
   -3.2679   -1.0238    4.0547 C   0  0  0  0  0  0  0  0  0  0  0  0
   -3.7227   -1.2983    5.0177 H   0  0  0  0  0  0  0  0  0  0  0  0
   -3.5066    0.2454    3.5114 C   0  0  0  0  0  0  0  0  0  0  0  0
   -4.1491    0.9833    4.0109 H   0  0  0  0  0  0  0  0  0  0  0  0
   -2.9215    0.5871    2.2863 C   0  0  0  0  0  0  0  0  0  0  0  0
  1 26  1  0  0  0  0
  4 18  1  0  0  0  0
  6 27  1  0  0  0  0
  7 34  1  0  0  0  0
  8  1  1  0  0  0  0
  9  2  1  0  0  0  0
  9  8  2  0  0  0  0
 10  9  1  0  0  0  0
 11 10  1  0  0  0  0
 12 10  2  0  0  0  0
 12 14  1  0  0  0  0
 13 12  1  0  0  0  0
 14 16  2  0  0  0  0
 15 14  1  0  0  0  0
 16  8  1  0  0  0  0
 16  3  1  0  0  0  0
 17  1  1  0  0  0  0
 17 25  1  0  0  0  0
 18 17  2  0  0  0  0
 19 18  1  0  0  0  0
 19 21  2  0  0  0  0
 20 19  1  0  0  0  0
 21 23  1  0  0  0  0
 22 21  1  0  0  0  0
 23 25  2  0  0  0  0
 23 24  1  0  0  0  0
 25  5  1  0  0  0  0
 26 27  2  0  0  0  0
 26 34  1  0  0  0  0
 27 28  1  0  0  0  0
 28 29  1  0  0  0  0
 28 30  2  0  0  0  0
 30 31  1  0  0  0  0
 32 33  1  0  0  0  0
 32 30  1  0  0  0  0
 34 32  2  0  0  0  0
M  END
