2
q = 0.0, confidence = 1.0

 34 35  0  0  0  0  0  0  0  0999 V2000
   -1.9200    0.3126   -1.4782 As  0  0  2  0  0  0  0  0  0  0  0  0
   -0.6240   -0.3489    0.3692 P   0  0  1  0  0  0  0  0  0  0  0  0
   -3.0496    1.5751   -0.3676 C   0  0  0  0  0  0  0  0  0  0  0  0
   -3.7710    2.0505   -1.0602 H   0  0  0  0  0  0  0  0  0  0  0  0
   -3.6122    0.9567    0.3597 H   0  0  0  0  0  0  0  0  0  0  0  0
   -2.1539    2.5871    0.2945 C   0  0  0  0  0  0  0  0  0  0  0  0
   -1.3353    2.1938    1.3174 C   0  0  0  0  0  0  0  0  0  0  0  0
   -1.3387    0.7414    1.7287 C   0  0  0  0  0  0  0  0  0  0  0  0
   -2.3633    0.3633    1.9267 H   0  0  0  0  0  0  0  0  0  0  0  0
   -0.7229    0.5659    2.6332 H   0  0  0  0  0  0  0  0  0  0  0  0
   -2.1721    3.9630   -0.3132 C   0  0  0  0  0  0  0  0  0  0  0  0
   -3.1949    4.3969   -0.2921 H   0  0  0  0  0  0  0  0  0  0  0  0
   -1.8744    3.9085   -1.3837 H   0  0  0  0  0  0  0  0  0  0  0  0
   -1.4871    4.6729    0.1832 H   0  0  0  0  0  0  0  0  0  0  0  0
   -0.3743    3.0837    2.0559 C   0  0  0  0  0  0  0  0  0  0  0  0
   -0.6041    3.0918    3.1434 H   0  0  0  0  0  0  0  0  0  0  0  0
   -0.3841    4.1288    1.6991 H   0  0  0  0  0  0  0  0  0  0  0  0
    0.6653    2.7063    1.9641 H   0  0  0  0  0  0  0  0  0  0  0  0
   -3.0689   -1.3633   -1.4251 C   0  0  0  0  0  0  0  0  0  0  0  0
   -3.8526   -1.2215   -2.1952 H   0  0  0  0  0  0  0  0  0  0  0  0
   -2.3805   -2.1481   -1.8048 H   0  0  0  0  0  0  0  0  0  0  0  0
   -3.6495   -1.6953   -0.0814 C   0  0  0  0  0  0  0  0  0  0  0  0
   -2.8242   -2.0462    0.9521 C   0  0  0  0  0  0  0  0  0  0  0  0
   -1.3342   -2.0562    0.7336 C   0  0  0  0  0  0  0  0  0  0  0  0
   -1.0167   -2.6759   -0.1326 H   0  0  0  0  0  0  0  0  0  0  0  0
   -0.7823   -2.4439    1.6137 H   0  0  0  0  0  0  0  0  0  0  0  0
   -5.1470   -1.5681    0.0194 C   0  0  0  0  0  0  0  0  0  0  0  0
   -5.4738   -0.5535   -0.2975 H   0  0  0  0  0  0  0  0  0  0  0  0
   -5.5402   -1.7459    1.0366 H   0  0  0  0  0  0  0  0  0  0  0  0
   -5.6510   -2.2809   -0.6688 H   0  0  0  0  0  0  0  0  0  0  0  0
   -3.2723   -2.3860    2.3489 C   0  0  0  0  0  0  0  0  0  0  0  0
   -2.7772   -1.7278    3.0965 H   0  0  0  0  0  0  0  0  0  0  0  0
   -2.9769   -3.4245    2.6142 H   0  0  0  0  0  0  0  0  0  0  0  0
   -4.3640   -2.3008    2.4962 H   0  0  0  0  0  0  0  0  0  0  0  0
  1 19  1  1  0  0  0
  1  3  1  0  0  0  0
  1  2  1  0  0  0  0
  2 24  1  1  0  0  0
  2  8  1  0  0  0  0
  3  6  1  0  0  0  0
  3  5  1  0  0  0  0
  4  3  1  0  0  0  0
  6  7  2  0  0  0  0
  7  8  1  0  0  0  0
  7 15  1  0  0  0  0
  8  9  1  0  0  0  0
  8 10  1  0  0  0  0
 11 12  1  0  0  0  0
 11 14  1  0  0  0  0
 11  6  1  0  0  0  0
 13 11  1  0  0  0  0
 15 16  1  0  0  0  0
 17 15  1  0  0  0  0
 18 15  1  0  0  0  0
 19 22  1  0  0  0  0
 20 19  1  0  0  0  0
 21 19  1  0  0  0  0
 22 27  1  0  0  0  0
 22 23  2  0  0  0  0
 23 31  1  0  0  0  0
 24 23  1  0  0  0  0
 24 26  1  0  0  0  0
 25 24  1  0  0  0  0
 27 29  1  0  0  0  0
 28 27  1  0  0  0  0
 30 27  1  0  0  0  0
 31 34  1  0  0  0  0
 31 33  1  0  0  0  0
 31 32  1  0  0  0  0
M  END
