1
q = 0.0, confidence = 1.0

 74 80  0  0  0  0  0  0  0  0999 V2000
    2.0733   -0.3729    0.2285 P   0  0  0  0  0  0  0  0  0  0  0  0
   -2.0794   -0.4809    0.1346 P   0  0  0  0  0  0  0  0  0  0  0  0
   -0.0227    1.6165   -0.1482 O   0  0  0  0  0  0  0  0  0  0  0  0
    2.3146    1.3347   -0.3963 C   0  0  0  0  0  0  0  0  0  0  0  0
    3.5622    1.8323   -0.8146 C   0  0  0  0  0  0  0  0  0  0  0  0
    3.6467    3.0971   -1.4136 C   0  0  0  0  0  0  0  0  0  0  0  0
    2.4930    3.8769   -1.5882 C   0  0  0  0  0  0  0  0  0  0  0  0
    1.2335    3.4220   -1.1584 C   0  0  0  0  0  0  0  0  0  0  0  0
   -0.0539    4.2491   -1.1989 C   0  0  0  0  0  0  0  0  0  0  0  0
   -1.2226    3.2830   -1.4280 C   0  0  0  0  0  0  0  0  0  0  0  0
   -2.3917    3.6063   -2.1383 C   0  0  0  0  0  0  0  0  0  0  0  0
   -3.4761    2.7172   -2.1782 C   0  0  0  0  0  0  0  0  0  0  0  0
   -3.4216    1.4992   -1.4866 C   0  0  0  0  0  0  0  0  0  0  0  0
   -2.2664    1.1292   -0.7706 C   0  0  0  0  0  0  0  0  0  0  0  0
   -1.1766    2.0245   -0.7959 C   0  0  0  0  0  0  0  0  0  0  0  0
    1.1710    2.1434   -0.5725 C   0  0  0  0  0  0  0  0  0  0  0  0
   -0.2439    4.8932    0.2039 C   0  0  0  0  0  0  0  0  0  0  0  0
    0.0028    5.3560   -2.2596 C   0  0  0  0  0  0  0  0  0  0  0  0
    1.4207   -0.1784    1.9269 C   0  0  0  0  0  0  0  0  0  0  0  0
    1.5734    1.0209    2.6504 C   0  0  0  0  0  0  0  0  0  0  0  0
    1.0769    1.1141    3.9585 C   0  0  0  0  0  0  0  0  0  0  0  0
    0.4326    0.0151    4.5476 C   0  0  0  0  0  0  0  0  0  0  0  0
    0.2808   -1.1794    3.8267 C   0  0  0  0  0  0  0  0  0  0  0  0
    0.7663   -1.2771    2.5157 C   0  0  0  0  0  0  0  0  0  0  0  0
    3.7886   -0.9942    0.4518 C   0  0  0  0  0  0  0  0  0  0  0  0
    4.5527   -0.6501    1.5855 C   0  0  0  0  0  0  0  0  0  0  0  0
    5.8719   -1.1106    1.7061 C   0  0  0  0  0  0  0  0  0  0  0  0
    6.4345   -1.9131    0.6997 C   0  0  0  0  0  0  0  0  0  0  0  0
    5.6740   -2.2606   -0.4281 C   0  0  0  0  0  0  0  0  0  0  0  0
    4.3520   -1.8075   -0.5518 C   0  0  0  0  0  0  0  0  0  0  0  0
   -2.4894    0.0269    1.8682 C   0  0  0  0  0  0  0  0  0  0  0  0
   -2.8800   -0.9849    2.7760 C   0  0  0  0  0  0  0  0  0  0  0  0
   -3.1631   -0.6781    4.1132 C   0  0  0  0  0  0  0  0  0  0  0  0
   -3.0317    0.6406    4.5798 C   0  0  0  0  0  0  0  0  0  0  0  0
   -2.6201    1.6466    3.6930 C   0  0  0  0  0  0  0  0  0  0  0  0
   -2.3562    1.3454    2.3472 C   0  0  0  0  0  0  0  0  0  0  0  0
   -3.6355   -1.3461   -0.3661 C   0  0  0  0  0  0  0  0  0  0  0  0
   -3.5288   -2.3050   -1.3961 C   0  0  0  0  0  0  0  0  0  0  0  0
   -4.6735   -2.9828   -1.8461 C   0  0  0  0  0  0  0  0  0  0  0  0
   -5.9261   -2.7204   -1.2705 C   0  0  0  0  0  0  0  0  0  0  0  0
   -6.0363   -1.7709   -0.2403 C   0  0  0  0  0  0  0  0  0  0  0  0
   -4.8988   -1.0848    0.2096 C   0  0  0  0  0  0  0  0  0  0  0  0
    4.4629    1.2147   -0.6867 H   0  0  0  0  0  0  0  0  0  0  0  0
    4.6218    3.4785   -1.7503 H   0  0  0  0  0  0  0  0  0  0  0  0
    2.5793    4.8662   -2.0590 H   0  0  0  0  0  0  0  0  0  0  0  0
   -2.4644    4.5711   -2.6592 H   0  0  0  0  0  0  0  0  0  0  0  0
   -4.3818    2.9841   -2.7428 H   0  0  0  0  0  0  0  0  0  0  0  0
   -4.2822    0.8155   -1.5061 H   0  0  0  0  0  0  0  0  0  0  0  0
   -1.1933    5.4649    0.2385 H   0  0  0  0  0  0  0  0  0  0  0  0
   -0.2787    4.1190    0.9962 H   0  0  0  0  0  0  0  0  0  0  0  0
    0.5968    5.5800    0.4308 H   0  0  0  0  0  0  0  0  0  0  0  0
   -0.9259    5.9582   -2.2478 H   0  0  0  0  0  0  0  0  0  0  0  0
    0.8336    6.0579   -2.0531 H   0  0  0  0  0  0  0  0  0  0  0  0
    0.1381    4.9402   -3.2774 H   0  0  0  0  0  0  0  0  0  0  0  0
    2.0704    1.8855    2.1840 H   0  0  0  0  0  0  0  0  0  0  0  0
    1.1853    2.0557    4.5180 H   0  0  0  0  0  0  0  0  0  0  0  0
    0.0291    0.0953    5.5676 H   0  0  0  0  0  0  0  0  0  0  0  0
   -0.2401   -2.0345    4.2809 H   0  0  0  0  0  0  0  0  0  0  0  0
    0.6217   -2.1996    1.9313 H   0  0  0  0  0  0  0  0  0  0  0  0
    4.1108   -0.0281    2.3786 H   0  0  0  0  0  0  0  0  0  0  0  0
    6.4634   -0.8444    2.5953 H   0  0  0  0  0  0  0  0  0  0  0  0
    7.4689   -2.2759    0.7995 H   0  0  0  0  0  0  0  0  0  0  0  0
    6.1077   -2.8971   -1.2141 H   0  0  0  0  0  0  0  0  0  0  0  0
    3.7403   -2.0897   -1.4242 H   0  0  0  0  0  0  0  0  0  0  0  0
   -2.9810   -2.0234    2.4225 H   0  0  0  0  0  0  0  0  0  0  0  0
   -3.4853   -1.4777    4.7984 H   0  0  0  0  0  0  0  0  0  0  0  0
   -3.2512    0.8822    5.6309 H   0  0  0  0  0  0  0  0  0  0  0  0
   -2.5134    2.6840    4.0464 H   0  0  0  0  0  0  0  0  0  0  0  0
   -2.0625    2.1525    1.6602 H   0  0  0  0  0  0  0  0  0  0  0  0
   -2.5454   -2.5259   -1.8461 H   0  0  0  0  0  0  0  0  0  0  0  0
   -4.5776   -3.7292   -2.6495 H   0  0  0  0  0  0  0  0  0  0  0  0
   -6.8202   -3.2586   -1.6214 H   0  0  0  0  0  0  0  0  0  0  0  0
   -7.0166   -1.5606    0.2149 H   0  0  0  0  0  0  0  0  0  0  0  0
   -4.9903   -0.3400    1.0146 H   0  0  0  0  0  0  0  0  0  0  0  0
  1 25  1  0  0  0  0
  1 19  1  0  0  0  0
  2 31  1  0  0  0  0
  4  1  1  0  0  0  0
  5 43  1  0  0  0  0
  5  4  2  0  0  0  0
  6  5  1  0  0  0  0
  7  6  2  0  0  0  0
  7  8  1  0  0  0  0
  8 16  2  0  0  0  0
  9  8  1  0  0  0  0
  9 17  1  0  0  0  0
 10  9  1  0  0  0  0
 10 15  1  0  0  0  0
 11 10  2  0  0  0  0
 12 11  1  0  0  0  0
 12 13  2  0  0  0  0
 13 14  1  0  0  0  0
 14  2  1  0  0  0  0
 15 14  2  0  0  0  0
 15  3  1  0  0  0  0
 16  4  1  0  0  0  0
 16  3  1  0  0  0  0
 17 49  1  0  0  0  0
 17 51  1  0  0  0  0
 17 50  1  0  0  0  0
 18 52  1  0  0  0  0
 18 53  1  0  0  0  0
 18  9  1  0  0  0  0
 19 24  2  0  0  0  0
 19 20  1  0  0  0  0
 20 21  2  0  0  0  0
 21 56  1  0  0  0  0
 21 22  1  0  0  0  0
 22 57  1  0  0  0  0
 23 58  1  0  0  0  0
 23 22  2  0  0  0  0
 24 23  1  0  0  0  0
 25 26  1  0  0  0  0
 26 27  2  0  0  0  0
 26 60  1  0  0  0  0
 27 61  1  0  0  0  0
 28 62  1  0  0  0  0
 28 27  1  0  0  0  0
 29 28  2  0  0  0  0
 30 29  1  0  0  0  0
 30 25  2  0  0  0  0
 31 36  2  0  0  0  0
 31 32  1  0  0  0  0
 32 33  2  0  0  0  0
 33 34  1  0  0  0  0
 33 66  1  0  0  0  0
 34 67  1  0  0  0  0
 35 68  1  0  0  0  0
 35 34  2  0  0  0  0
 36 35  1  0  0  0  0
 37  2  1  0  0  0  0
 37 42  1  0  0  0  0
 38 37  2  0  0  0  0
 39 38  1  0  0  0  0
 39 40  2  0  0  0  0
 40 41  1  0  0  0  0
 41 42  2  0  0  0  0
 41 73  1  0  0  0  0
 42 74  1  0  0  0  0
 44  6  1  0  0  0  0
 45  7  1  0  0  0  0
 46 11  1  0  0  0  0
 47 12  1  0  0  0  0
 48 13  1  0  0  0  0
 54 18  1  0  0  0  0
 55 20  1  0  0  0  0
 59 24  1  0  0  0  0
 63 29  1  0  0  0  0
 64 30  1  0  0  0  0
 65 32  1  0  0  0  0
 69 36  1  0  0  0  0
 70 38  1  0  0  0  0
 71 39  1  0  0  0  0
 72 40  1  0  0  0  0
M  END
