1
q = 0.0, confidence = 0.994

 44 48  0  0  0  0  0  0  0  0999 V2000
    0.8570   -1.6790    0.1179 P   0  0  0  0  0  0  0  0  0  0  0  0
    1.7479   -1.1771   -1.2132 O   0  0  0  0  0  0  0  0  0  0  0  0
    1.8192   -0.9517    1.3250 O   0  0  0  0  0  0  0  0  0  0  0  0
    1.2002   -3.3070    0.1054 N   0  0  0  0  0  0  0  0  0  0  0  0
    2.8133    2.3277   -0.6604 C   0  0  0  0  0  0  0  0  0  0  0  0
    1.8323    0.2048   -1.3376 C   0  0  0  0  0  0  0  0  0  0  0  0
    2.8031    0.8871   -0.5988 C   0  0  0  0  0  0  0  0  0  0  0  0
    5.1561    0.1940    0.1562 C   0  0  0  0  0  0  0  0  0  0  0  0
    0.9070    0.8572   -2.1909 C   0  0  0  0  0  0  0  0  0  0  0  0
    0.1648    0.2411   -2.7203 H   0  0  0  0  0  0  0  0  0  0  0  0
    1.8850    3.0013   -1.5399 C   0  0  0  0  0  0  0  0  0  0  0  0
    5.7952    0.9668   -0.8599 C   0  0  0  0  0  0  0  0  0  0  0  0
    5.1738    1.5028   -1.5902 H   0  0  0  0  0  0  0  0  0  0  0  0
    7.9961    0.3406   -0.0161 C   0  0  0  0  0  0  0  0  0  0  0  0
    9.0919    0.4104   -0.0885 H   0  0  0  0  0  0  0  0  0  0  0  0
    2.7584    5.1702   -0.8101 C   0  0  0  0  0  0  0  0  0  0  0  0
    2.7513    6.2692   -0.8649 H   0  0  0  0  0  0  0  0  0  0  0  0
    7.4091   -0.4413    0.9665 C   0  0  0  0  0  0  0  0  0  0  0  0
    8.0313   -1.0052    1.6790 H   0  0  0  0  0  0  0  0  0  0  0  0
    3.6677    3.1257    0.1586 C   0  0  0  0  0  0  0  0  0  0  0  0
    4.3484    2.6272    0.8621 H   0  0  0  0  0  0  0  0  0  0  0  0
    2.5019   -3.8421   -0.2698 C   0  0  0  0  0  0  0  0  0  0  0  0
    3.1926   -3.0267   -0.5492 H   0  0  0  0  0  0  0  0  0  0  0  0
    2.3984   -4.5193   -1.1462 H   0  0  0  0  0  0  0  0  0  0  0  0
    2.9512   -4.4184    0.5691 H   0  0  0  0  0  0  0  0  0  0  0  0
    3.7215    0.1033    0.2678 C   0  0  0  0  0  0  0  0  0  0  0  0
    4.0054   -1.5249    2.1007 C   0  0  0  0  0  0  0  0  0  0  0  0
    3.5132   -2.1864    2.8279 H   0  0  0  0  0  0  0  0  0  0  0  0
    5.3799   -1.3889    2.0477 C   0  0  0  0  0  0  0  0  0  0  0  0
    6.0218   -1.9460    2.7476 H   0  0  0  0  0  0  0  0  0  0  0  0
    7.1781    1.0389   -0.9429 C   0  0  0  0  0  0  0  0  0  0  0  0
    7.6444    1.6382   -1.7395 H   0  0  0  0  0  0  0  0  0  0  0  0
    0.9533    2.2351   -2.3017 C   0  0  0  0  0  0  0  0  0  0  0  0
    0.2465    2.7615   -2.9614 H   0  0  0  0  0  0  0  0  0  0  0  0
    1.8957    4.4261   -1.5999 C   0  0  0  0  0  0  0  0  0  0  0  0
    1.1907    4.9256   -2.2825 H   0  0  0  0  0  0  0  0  0  0  0  0
    0.1631   -4.2809    0.4137 C   0  0  0  0  0  0  0  0  0  0  0  0
   -0.7846   -3.7577    0.6463 H   0  0  0  0  0  0  0  0  0  0  0  0
    0.4594   -4.9082    1.2837 H   0  0  0  0  0  0  0  0  0  0  0  0
   -0.0283   -4.9376   -0.4619 H   0  0  0  0  0  0  0  0  0  0  0  0
    3.1827   -0.7901    1.2056 C   0  0  0  0  0  0  0  0  0  0  0  0
    3.6410    4.5110    0.0855 C   0  0  0  0  0  0  0  0  0  0  0  0
    4.3070    5.1030    0.7314 H   0  0  0  0  0  0  0  0  0  0  0  0
    5.9912   -0.5476    1.0723 C   0  0  0  0  0  0  0  0  0  0  0  0
  1  3  1  0  0  0  0
  2  1  1  0  0  0  0
  4  1  1  0  0  0  0
  4 37  1  0  0  0  0
  5  7  2  0  0  0  0
  5 20  1  0  0  0  0
  6  2  1  0  0  0  0
  6  7  1  0  0  0  0
  7 26  1  0  0  0  0
  8 26  2  0  0  0  0
  8 44  1  0  0  0  0
  9  6  2  0  0  0  0
 10  9  1  0  0  0  0
 11  5  1  0  0  0  0
 12  8  1  0  0  0  0
 13 12  1  0  0  0  0
 14 18  2  0  0  0  0
 15 14  1  0  0  0  0
 16 42  1  0  0  0  0
 17 16  1  0  0  0  0
 18 44  1  0  0  0  0
 18 19  1  0  0  0  0
 20 21  1  0  0  0  0
 22  4  1  0  0  0  0
 22 25  1  0  0  0  0
 23 22  1  0  0  0  0
 24 22  1  0  0  0  0
 26 41  1  0  0  0  0
 27 28  1  0  0  0  0
 29 27  1  0  0  0  0
 29 30  1  0  0  0  0
 31 12  2  0  0  0  0
 31 14  1  0  0  0  0
 32 31  1  0  0  0  0
 33  9  1  0  0  0  0
 33 11  2  0  0  0  0
 34 33  1  0  0  0  0
 35 11  1  0  0  0  0
 35 16  2  0  0  0  0
 36 35  1  0  0  0  0
 37 38  1  0  0  0  0
 37 39  1  0  0  0  0
 40 37  1  0  0  0  0
 41  3  1  0  0  0  0
 41 27  2  0  0  0  0
 42 20  2  0  0  0  0
 42 43  1  0  0  0  0
 44 29  2  0  0  0  0
M  END
