1
q = 0.0, confidence = 1.0

 32 33  0  0  0  0  0  0  0  0999 V2000
   -0.7880    0.3246    0.5243 P   0  0  1  0  0  0  0  0  0  0  0  0
   -1.7393   -0.4154    2.0041 C   0  0  0  0  0  0  0  0  0  0  0  0
   -2.0307   -0.9980    0.6555 C   0  0  0  0  0  0  0  0  0  0  0  0
   -2.6270   -1.9599    0.0065 C   0  0  0  0  0  0  0  0  0  0  0  0
   -3.2046   -2.9314   -0.6901 C   0  0  0  0  0  0  0  0  0  0  0  0
   -0.9215   -1.2675    2.9615 C   0  0  0  0  0  0  0  0  0  0  0  0
   -2.8178    0.4286    2.6617 C   0  0  0  0  0  0  0  0  0  0  0  0
   -4.5729   -2.7596   -1.3076 C   0  0  0  0  0  0  0  0  0  0  0  0
   -2.5131   -4.2596   -0.8982 C   0  0  0  0  0  0  0  0  0  0  0  0
   -1.6936    1.8284    0.0038 C   0  0  0  0  0  0  0  0  0  0  0  0
   -2.8137    1.7565   -0.8488 C   0  0  0  0  0  0  0  0  0  0  0  0
   -3.4606    2.9331   -1.2558 C   0  0  0  0  0  0  0  0  0  0  0  0
   -2.9962    4.1829   -0.8156 C   0  0  0  0  0  0  0  0  0  0  0  0
   -1.8788    4.2575    0.0322 C   0  0  0  0  0  0  0  0  0  0  0  0
   -1.2242    3.0860    0.4384 C   0  0  0  0  0  0  0  0  0  0  0  0
   -1.5868   -2.0013    3.4648 H   0  0  0  0  0  0  0  0  0  0  0  0
   -0.4429   -0.6404    3.7405 H   0  0  0  0  0  0  0  0  0  0  0  0
   -0.1314   -1.8365    2.4364 H   0  0  0  0  0  0  0  0  0  0  0  0
   -3.3615    1.0561    1.9310 H   0  0  0  0  0  0  0  0  0  0  0  0
   -2.3803    1.0899    3.4373 H   0  0  0  0  0  0  0  0  0  0  0  0
   -3.5557   -0.2389    3.1563 H   0  0  0  0  0  0  0  0  0  0  0  0
   -5.0038   -1.7624   -1.0988 H   0  0  0  0  0  0  0  0  0  0  0  0
   -5.2740   -3.5316   -0.9227 H   0  0  0  0  0  0  0  0  0  0  0  0
   -4.5202   -2.8978   -2.4092 H   0  0  0  0  0  0  0  0  0  0  0  0
   -1.4974   -4.2728   -0.4618 H   0  0  0  0  0  0  0  0  0  0  0  0
   -2.4315   -4.4825   -1.9840 H   0  0  0  0  0  0  0  0  0  0  0  0
   -3.1071   -5.0834   -0.4462 H   0  0  0  0  0  0  0  0  0  0  0  0
   -3.1757    0.7741   -1.1880 H   0  0  0  0  0  0  0  0  0  0  0  0
   -4.3328    2.8728   -1.9244 H   0  0  0  0  0  0  0  0  0  0  0  0
   -3.5049    5.1041   -1.1376 H   0  0  0  0  0  0  0  0  0  0  0  0
   -1.5108    5.2353    0.3777 H   0  0  0  0  0  0  0  0  0  0  0  0
   -0.3435    3.1491    1.0956 H   0  0  0  0  0  0  0  0  0  0  0  0
  1 10  1  6  0  0  0
  1  3  1  0  0  0  0
  1  2  1  0  0  0  0
  2  7  1  0  0  0  0
  2  6  1  0  0  0  0
  3  2  1  0  0  0  0
  4  3  2  0  0  0  0
  5  4  2  0  0  0  0
  6 16  1  0  0  0  0
  6 17  1  0  0  0  0
  7 21  1  0  0  0  0
  7 20  1  0  0  0  0
  8 22  1  0  0  0  0
  8 23  1  0  0  0  0
  8  5  1  0  0  0  0
  9  5  1  0  0  0  0
  9 25  1  0  0  0  0
  9 27  1  0  0  0  0
 10 15  1  0  0  0  0
 11 10  2  0  0  0  0
 12 11  1  0  0  0  0
 12 13  2  0  0  0  0
 13 14  1  0  0  0  0
 14 31  1  0  0  0  0
 14 15  2  0  0  0  0
 15 32  1  0  0  0  0
 18  6  1  0  0  0  0
 19  7  1  0  0  0  0
 24  8  1  0  0  0  0
 26  9  1  0  0  0  0
 28 11  1  0  0  0  0
 29 12  1  0  0  0  0
 30 13  1  0  0  0  0
M  END
