1
q = 0.0, confidence = 0.998

 32 33  0  0  0  0  0  0  0  0999 V2000
    0.9247    0.0431   -0.0176 P   0  0  2  0  0  0  0  0  0  0  0  0
    1.8793   -1.3145    0.7492 C   0  0  0  0  0  0  0  0  0  0  0  0
    1.9236   -1.3383   -0.6719 C   0  0  0  0  0  0  0  0  0  0  0  0
    2.1648   -1.8511    1.9622 C   0  0  0  0  0  3  0  0  0  0  0  0
    1.6643   -1.2003    3.2199 C   0  0  0  0  0  0  0  0  0  0  0  0
    2.9623   -3.1154    2.1195 C   0  0  0  0  0  0  0  0  0  0  0  0
    2.2997   -1.9173   -1.8406 C   0  0  0  0  0  3  0  0  0  0  0  0
    3.1064   -3.1848   -1.8892 C   0  0  0  0  0  0  0  0  0  0  0  0
    1.9023   -1.3119   -3.1563 C   0  0  0  0  0  0  0  0  0  0  0  0
    1.9864    1.5438   -0.0106 C   0  0  0  0  0  0  0  0  0  0  0  0
    3.3860    1.4580   -0.1645 C   0  0  0  0  0  0  0  0  0  0  0  0
    4.1644    2.6224   -0.1495 C   0  0  0  0  0  0  0  0  0  0  0  0
    3.5566    3.8795    0.0166 C   0  0  0  0  0  0  0  0  0  0  0  0
    2.1651    3.9678    0.1675 C   0  0  0  0  0  0  0  0  0  0  0  0
    1.3799    2.8037    0.1532 C   0  0  0  0  0  0  0  0  0  0  0  0
    1.0881   -0.2803    3.0050 H   0  0  0  0  0  0  0  0  0  0  0  0
    2.5064   -0.9416    3.8981 H   0  0  0  0  0  0  0  0  0  0  0  0
    1.0084   -1.8995    3.7828 H   0  0  0  0  0  0  0  0  0  0  0  0
    3.3022   -3.5256    1.1512 H   0  0  0  0  0  0  0  0  0  0  0  0
    2.3562   -3.8925    2.6345 H   0  0  0  0  0  0  0  0  0  0  0  0
    3.8540   -2.9417    2.7602 H   0  0  0  0  0  0  0  0  0  0  0  0
    3.3515   -3.5699   -0.8827 H   0  0  0  0  0  0  0  0  0  0  0  0
    4.0557   -3.0267   -2.4461 H   0  0  0  0  0  0  0  0  0  0  0  0
    2.5521   -3.9754   -2.4405 H   0  0  0  0  0  0  0  0  0  0  0  0
    1.3462   -0.3650   -3.0209 H   0  0  0  0  0  0  0  0  0  0  0  0
    1.2577   -2.0141   -3.7285 H   0  0  0  0  0  0  0  0  0  0  0  0
    2.7943   -1.1134   -3.7894 H   0  0  0  0  0  0  0  0  0  0  0  0
    3.8609    0.4741   -0.2993 H   0  0  0  0  0  0  0  0  0  0  0  0
    5.2560    2.5499   -0.2712 H   0  0  0  0  0  0  0  0  0  0  0  0
    4.1717    4.7920    0.0257 H   0  0  0  0  0  0  0  0  0  0  0  0
    1.6823    4.9482    0.2963 H   0  0  0  0  0  0  0  0  0  0  0  0
    0.2883    2.8748    0.2705 H   0  0  0  0  0  0  0  0  0  0  0  0
  1 10  1  1  0  0  0
  1  2  1  0  0  0  0
  2  4  1  0  0  0  0
  3  1  1  0  0  0  0
  3  2  2  0  0  0  0
  4  6  1  0  0  0  0
  4  5  1  0  0  0  0
  5 18  1  0  0  0  0
  5 17  1  0  0  0  0
  6 20  1  0  0  0  0
  6 21  1  0  0  0  0
  7  3  1  0  0  0  0
  8  7  1  0  0  0  0
  8 22  1  0  0  0  0
  9 25  1  0  0  0  0
  9  7  1  0  0  0  0
 10 15  1  0  0  0  0
 11 12  1  0  0  0  0
 11 10  2  0  0  0  0
 12 13  2  0  0  0  0
 13 30  1  0  0  0  0
 13 14  1  0  0  0  0
 14 31  1  0  0  0  0
 15 14  2  0  0  0  0
 15 32  1  0  0  0  0
 16  5  1  0  0  0  0
 19  6  1  0  0  0  0
 23  8  1  0  0  0  0
 24  8  1  0  0  0  0
 26  9  1  0  0  0  0
 27  9  1  0  0  0  0
 28 11  1  0  0  0  0
 29 12  1  0  0  0  0
M  END
