1
q = 0.0, confidence = 1.0

 36 38  0  0  1  0  0  0  0  0999 V2000
    0.3226    0.1982    0.1621 P   0  0  2  0  0  0  0  0  0  0  0  0
    1.5319   -0.7223    1.2822 C   0  0  1  0  0  0  0  0  0  0  0  0
    1.6958   -0.9205   -0.1956 C   0  0  0  0  0  0  0  0  0  0  0  0
    2.5184   -1.4339   -1.0688 C   0  0  0  0  0  0  0  0  0  0  0  0
    3.4793   -1.9207   -1.8361 C   0  0  0  0  0  0  0  0  0  0  0  0
    4.7952   -1.1984   -2.0627 C   0  0  0  0  0  0  0  0  0  0  0  0
    5.7799   -1.2859   -0.8720 C   0  0  0  0  0  0  0  0  0  0  0  0
    5.2711   -0.6428    0.4354 C   0  0  0  0  0  0  0  0  0  0  0  0
    4.5600   -1.6061    1.4016 C   0  0  0  0  0  0  0  0  0  0  0  0
    3.7742   -0.9248    2.5322 C   0  0  0  0  0  0  0  0  0  0  0  0
    2.6070   -0.0171    2.0946 C   0  0  0  0  0  0  0  0  0  0  0  0
    0.9752    1.8981   -0.0517 C   0  0  0  0  0  0  0  0  0  0  0  0
    0.2670    2.9560    0.5567 C   0  0  0  0  0  0  0  0  0  0  0  0
    0.7203    4.2757    0.4184 C   0  0  0  0  0  0  0  0  0  0  0  0
    1.8726    4.5503   -0.3354 C   0  0  0  0  0  0  0  0  0  0  0  0
    2.5715    3.5012   -0.9538 C   0  0  0  0  0  0  0  0  0  0  0  0
    2.1262    2.1781   -0.8160 C   0  0  0  0  0  0  0  0  0  0  0  0
    1.0139   -1.5469    1.8122 H   0  0  0  0  0  0  0  0  0  0  0  0
    3.3575   -2.9339   -2.2615 H   0  0  0  0  0  0  0  0  0  0  0  0
    4.5949   -0.1248   -2.2698 H   0  0  0  0  0  0  0  0  0  0  0  0
    5.2812   -1.6074   -2.9718 H   0  0  0  0  0  0  0  0  0  0  0  0
    6.7180   -0.7850   -1.1923 H   0  0  0  0  0  0  0  0  0  0  0  0
    6.0522   -2.3481   -0.6883 H   0  0  0  0  0  0  0  0  0  0  0  0
    6.1234   -0.1744    0.9734 H   0  0  0  0  0  0  0  0  0  0  0  0
    4.5961    0.2012    0.1737 H   0  0  0  0  0  0  0  0  0  0  0  0
    5.3208   -2.2784    1.8548 H   0  0  0  0  0  0  0  0  0  0  0  0
    3.8813   -2.2752    0.8356 H   0  0  0  0  0  0  0  0  0  0  0  0
    3.3804   -1.7099    3.2136 H   0  0  0  0  0  0  0  0  0  0  0  0
    4.4657   -0.3093    3.1494 H   0  0  0  0  0  0  0  0  0  0  0  0
    2.1299    0.4120    3.0013 H   0  0  0  0  0  0  0  0  0  0  0  0
    2.9883    0.8478    1.5138 H   0  0  0  0  0  0  0  0  0  0  0  0
   -0.6429    2.7463    1.1398 H   0  0  0  0  0  0  0  0  0  0  0  0
    0.1657    5.0949    0.9002 H   0  0  0  0  0  0  0  0  0  0  0  0
    2.2229    5.5874   -0.4480 H   0  0  0  0  0  0  0  0  0  0  0  0
    3.4686    3.7139   -1.5549 H   0  0  0  0  0  0  0  0  0  0  0  0
    2.6672    1.3551   -1.3059 H   0  0  0  0  0  0  0  0  0  0  0  0
  1 12  1  6  0  0  0
  1  2  1  0  0  0  0
  2 18  1  1  0  0  0
  2 11  1  0  0  0  0
  3  1  1  0  0  0  0
  3  2  1  0  0  0  0
  4  3  2  0  0  0  0
  5  4  2  0  0  0  0
  6  5  1  0  0  0  0
  6  7  1  0  0  0  0
  7 23  1  0  0  0  0
  7  8  1  0  0  0  0
  8 24  1  0  0  0  0
  8  9  1  0  0  0  0
  9 26  1  0  0  0  0
  9 10  1  0  0  0  0
 10 29  1  0  0  0  0
 10 28  1  0  0  0  0
 11 10  1  0  0  0  0
 11 30  1  0  0  0  0
 12 13  1  0  0  0  0
 13 32  1  0  0  0  0
 14 13  2  0  0  0  0
 14 33  1  0  0  0  0
 15 14  1  0  0  0  0
 16 17  1  0  0  0  0
 16 15  2  0  0  0  0
 17 12  2  0  0  0  0
 19  5  1  0  0  0  0
 20  6  1  0  0  0  0
 21  6  1  0  0  0  0
 22  7  1  0  0  0  0
 25  8  1  0  0  0  0
 27  9  1  0  0  0  0
 31 11  1  0  0  0  0
 34 15  1  0  0  0  0
 35 16  1  0  0  0  0
 36 17  1  0  0  0  0
M  END
