1
q = 0.0, confidence = 0.994

 40 42  0  0  0  0  0  0  0  0999 V2000
    2.3215   -0.0526   -0.0359 P   0  0  0  0  0  0  0  0  0  0  0  0
    3.1273   -1.3195   -1.1080 C   0  0  0  0  0  0  0  0  0  0  0  0
    2.7670   -2.6749   -0.9421 C   0  0  0  0  0  0  0  0  0  0  0  0
    2.0319   -2.9561   -0.1728 H   0  0  0  0  0  0  0  0  0  0  0  0
    3.3323   -3.6639   -1.7573 C   0  0  0  0  0  0  0  0  0  0  0  0
    3.0404   -4.7158   -1.6185 H   0  0  0  0  0  0  0  0  0  0  0  0
    4.2531   -3.3117   -2.7581 C   0  0  0  0  0  0  0  0  0  0  0  0
    4.6901   -4.0884   -3.4039 H   0  0  0  0  0  0  0  0  0  0  0  0
    4.6063   -1.9660   -2.9369 C   0  0  0  0  0  0  0  0  0  0  0  0
    5.3228   -1.6822   -3.7228 H   0  0  0  0  0  0  0  0  0  0  0  0
    4.0490   -0.9726   -2.1155 C   0  0  0  0  0  0  0  0  0  0  0  0
    4.3282    0.0817   -2.2608 H   0  0  0  0  0  0  0  0  0  0  0  0
    3.0163   -0.3913    1.6425 C   0  0  0  0  0  0  0  0  0  0  0  0
    2.6185    0.4379    2.7132 C   0  0  0  0  0  0  0  0  0  0  0  0
    1.9176    1.2667    2.5198 H   0  0  0  0  0  0  0  0  0  0  0  0
    3.1006    0.1931    4.0069 C   0  0  0  0  0  0  0  0  0  0  0  0
    2.7873    0.8508    4.8322 H   0  0  0  0  0  0  0  0  0  0  0  0
    3.9671   -0.8843    4.2530 C   0  0  0  0  0  0  0  0  0  0  0  0
    4.3403   -1.0752    5.2708 H   0  0  0  0  0  0  0  0  0  0  0  0
    4.3511   -1.7197    3.1930 C   0  0  0  0  0  0  0  0  0  0  0  0
    5.0283   -2.5686    3.3741 H   0  0  0  0  0  0  0  0  0  0  0  0
    3.8816   -1.4758    1.8934 C   0  0  0  0  0  0  0  0  0  0  0  0
    4.2081   -2.1274    1.0705 H   0  0  0  0  0  0  0  0  0  0  0  0
    0.8878    1.6368   -2.1561 C   0  0  0  0  0  0  0  0  0  0  0  0
    1.0114    0.6259   -2.5892 H   0  0  0  0  0  0  0  0  0  0  0  0
    0.4497    2.2779   -2.9460 H   0  0  0  0  0  0  0  0  0  0  0  0
    0.0769    1.6451   -1.3600 H   0  0  0  0  0  0  0  0  0  0  0  0
    3.0025    1.5471   -0.6874 C   0  0  0  0  0  0  0  0  0  0  0  0
    4.2714    2.0818   -0.3307 C   0  0  0  0  0  0  0  0  0  0  0  0
    4.6530    3.3250   -0.8789 C   0  0  0  0  0  0  0  0  0  0  0  0
    5.6267    3.7502   -0.5898 H   0  0  0  0  0  0  0  0  0  0  0  0
    3.8326    4.0121   -1.7773 C   0  0  0  0  0  0  0  0  0  0  0  0
    4.1510    4.9823   -2.1876 H   0  0  0  0  0  0  0  0  0  0  0  0
    2.6138    3.4472   -2.1695 C   0  0  0  0  0  0  0  0  0  0  0  0
    1.9762    3.9651   -2.9025 H   0  0  0  0  0  0  0  0  0  0  0  0
    2.1839    2.2165   -1.6431 C   0  0  0  0  0  0  0  0  0  0  0  0
    5.2503    1.3854    0.5821 C   0  0  0  0  0  0  0  0  0  0  0  0
    4.9288    1.4203    1.6422 H   0  0  0  0  0  0  0  0  0  0  0  0
    6.2447    1.8665    0.5122 H   0  0  0  0  0  0  0  0  0  0  0  0
    5.3678    0.3153    0.3251 H   0  0  0  0  0  0  0  0  0  0  0  0
  1 13  1  0  0  0  0
  2  3  1  0  0  0  0
  2  1  1  0  0  0  0
  3  4  1  0  0  0  0
  5  6  1  0  0  0  0
  5  3  2  0  0  0  0
  7  5  1  0  0  0  0
  8  7  1  0  0  0  0
  9  7  2  0  0  0  0
  9 11  1  0  0  0  0
 10  9  1  0  0  0  0
 11  2  2  0  0  0  0
 12 11  1  0  0  0  0
 13 22  2  0  0  0  0
 13 14  1  0  0  0  0
 14 16  2  0  0  0  0
 15 14  1  0  0  0  0
 16 18  1  0  0  0  0
 16 17  1  0  0  0  0
 18 19  1  0  0  0  0
 20 21  1  0  0  0  0
 20 18  2  0  0  0  0
 22 20  1  0  0  0  0
 23 22  1  0  0  0  0
 24 36  1  0  0  0  0
 24 27  1  0  0  0  0
 25 24  1  0  0  0  0
 26 24  1  0  0  0  0
 28 29  1  0  0  0  0
 28  1  1  0  0  0  0
 29 37  1  0  0  0  0
 30 31  1  0  0  0  0
 30 29  2  0  0  0  0
 32 30  1  0  0  0  0
 33 32  1  0  0  0  0
 34 32  2  0  0  0  0
 34 36  1  0  0  0  0
 35 34  1  0  0  0  0
 36 28  2  0  0  0  0
 37 38  1  0  0  0  0
 39 37  1  0  0  0  0
 40 37  1  0  0  0  0
M  END
