1
q = 0.0, confidence = 0.878

 14 14  0  0  0  0  0  0  0  0999 V2000
   -0.2425    1.0118   -2.1079 P   0  0  0  0  0  2  0  0  0  0  0  0
   -1.9695   -0.8341   -3.5546 C   0  0  0  0  0  3  0  0  0  0  0  0
   -1.1485    0.0862   -3.1689 C   0  0  0  0  0  0  0  0  0  0  0  0
    1.5110    0.6949   -2.3181 C   0  0  0  0  0  0  0  0  0  0  0  0
    2.4153    1.5360   -1.6195 C   0  0  0  0  0  0  0  0  0  0  0  0
    3.7899    1.2877   -1.6932 C   0  0  0  0  0  0  0  0  0  0  0  0
    4.2619    0.1980   -2.4469 C   0  0  0  0  0  0  0  0  0  0  0  0
    3.3660   -0.6331   -3.1484 C   0  0  0  0  0  0  0  0  0  0  0  0
    1.9917   -0.3845   -3.1002 C   0  0  0  0  0  0  0  0  0  0  0  0
    2.0366    2.3827   -1.0248 H   0  0  0  0  0  0  0  0  0  0  0  0
    4.4952    1.9351   -1.1518 H   0  0  0  0  0  0  0  0  0  0  0  0
    5.3425   -0.0046   -2.4933 H   0  0  0  0  0  0  0  0  0  0  0  0
    3.7480   -1.4803   -3.7369 H   0  0  0  0  0  0  0  0  0  0  0  0
    1.2759   -1.0228   -3.6410 H   0  0  0  0  0  0  0  0  0  0  0  0
  2  3  3  0  0  0  0
  3  1  1  0  0  0  0
  4  1  1  0  0  0  0
  4  5  1  0  0  0  0
  5 10  1  0  0  0  0
  6  5  2  0  0  0  0
  6 11  1  0  0  0  0
  7  6  1  0  0  0  0
  8  9  1  0  0  0  0
  8  7  2  0  0  0  0
  9  4  2  0  0  0  0
 12  7  1  0  0  0  0
 13  8  1  0  0  0  0
 14  9  1  0  0  0  0
M  END
