1
q = 0.0, confidence = 0.998

 37 39  0  0  0  0  0  0  0  0999 V2000
   -0.5073    0.4976    0.2151 P   0  0  0  0  0  0  0  0  0  0  0  0
   -2.1187   -0.1096    0.2123 N   0  0  0  0  0  0  0  0  0  0  0  0
   -2.2104   -1.1288    0.4319 H   0  0  0  0  0  0  0  0  0  0  0  0
   -3.2781    1.8096   -0.3477 O   0  0  0  0  0  0  0  0  0  0  0  0
   -3.2506    0.6022   -0.0966 C   0  0  0  0  0  0  0  0  0  0  0  0
   -4.5053   -0.2415   -0.1136 C   0  0  0  0  0  0  0  0  0  0  0  0
   -4.3780   -1.5475    0.1766 N   0  0  0  0  0  0  0  0  0  0  0  0
   -5.4802   -2.3067    0.1664 C   0  0  0  0  0  0  0  0  0  0  0  0
   -5.3422   -3.3747    0.4097 H   0  0  0  0  0  0  0  0  0  0  0  0
   -6.7564   -1.7980   -0.1351 C   0  0  0  0  0  0  0  0  0  0  0  0
   -7.6324   -2.4636   -0.1314 H   0  0  0  0  0  0  0  0  0  0  0  0
   -6.8819   -0.4334   -0.4373 C   0  0  0  0  0  0  0  0  0  0  0  0
   -7.8649   -0.0004   -0.6778 H   0  0  0  0  0  0  0  0  0  0  0  0
   -5.7332    0.3681   -0.4269 C   0  0  0  0  0  0  0  0  0  0  0  0
   -5.7500    1.4439   -0.6515 H   0  0  0  0  0  0  0  0  0  0  0  0
   -0.3949    1.6798    1.6086 C   0  0  0  0  0  0  0  0  0  0  0  0
    0.4825    1.3569    2.6651 C   0  0  0  0  0  0  0  0  0  0  0  0
    1.0681    0.4241    2.6049 H   0  0  0  0  0  0  0  0  0  0  0  0
    0.5938    2.2115    3.7710 C   0  0  0  0  0  0  0  0  0  0  0  0
    1.2764    1.9532    4.5947 H   0  0  0  0  0  0  0  0  0  0  0  0
   -0.1695    3.3887    3.8276 C   0  0  0  0  0  0  0  0  0  0  0  0
   -0.0811    4.0602    4.6955 H   0  0  0  0  0  0  0  0  0  0  0  0
   -1.0557    3.7039    2.7840 C   0  0  0  0  0  0  0  0  0  0  0  0
   -1.6661    4.6183    2.8367 H   0  0  0  0  0  0  0  0  0  0  0  0
   -1.1783    2.8538    1.6750 C   0  0  0  0  0  0  0  0  0  0  0  0
   -1.8978    3.0683    0.8710 H   0  0  0  0  0  0  0  0  0  0  0  0
   -0.4374    1.4365   -1.3630 C   0  0  0  0  0  0  0  0  0  0  0  0
   -0.0733    2.7905   -1.4776 C   0  0  0  0  0  0  0  0  0  0  0  0
    0.0905    3.3989   -0.5763 H   0  0  0  0  0  0  0  0  0  0  0  0
    0.0719    3.3740   -2.7467 C   0  0  0  0  0  0  0  0  0  0  0  0
    0.3581    4.4335   -2.8282 H   0  0  0  0  0  0  0  0  0  0  0  0
   -0.1574    2.6149   -3.9045 C   0  0  0  0  0  0  0  0  0  0  0  0
   -0.0429    3.0754   -4.8974 H   0  0  0  0  0  0  0  0  0  0  0  0
   -0.5391    1.2667   -3.7928 C   0  0  0  0  0  0  0  0  0  0  0  0
   -0.7246    0.6670   -4.6965 H   0  0  0  0  0  0  0  0  0  0  0  0
   -0.6730    0.6773   -2.5294 C   0  0  0  0  0  0  0  0  0  0  0  0
   -0.9510   -0.3846   -2.4373 H   0  0  0  0  0  0  0  0  0  0  0  0
  1 16  1  0  0  0  0
  2  1  1  0  0  0  0
  2  3  1  0  0  0  0
  4  5  2  0  0  0  0
  5  2  1  0  0  0  0
  6  5  1  0  0  0  0
  6  7  1  0  0  0  0
  8  7  2  0  0  0  0
  8  9  1  0  0  0  0
 10 11  1  0  0  0  0
 10  8  1  0  0  0  0
 12 14  1  0  0  0  0
 12 10  2  0  0  0  0
 13 12  1  0  0  0  0
 14  6  2  0  0  0  0
 15 14  1  0  0  0  0
 16 25  2  0  0  0  0
 16 17  1  0  0  0  0
 17 19  2  0  0  0  0
 18 17  1  0  0  0  0
 19 21  1  0  0  0  0
 19 20  1  0  0  0  0
 21 22  1  0  0  0  0
 23 24  1  0  0  0  0
 23 21  2  0  0  0  0
 25 23  1  0  0  0  0
 26 25  1  0  0  0  0
 27  1  1  0  0  0  0
 28 27  1  0  0  0  0
 28 29  1  0  0  0  0
 30 28  2  0  0  0  0
 31 30  1  0  0  0  0
 32 34  2  0  0  0  0
 32 30  1  0  0  0  0
 33 32  1  0  0  0  0
 34 36  1  0  0  0  0
 35 34  1  0  0  0  0
 36 37  1  0  0  0  0
 36 27  2  0  0  0  0
M  END
