1
q = -1.0

 25 28  0  0  0  0  0  0  0  0999 V2000
    2.0346    0.2813   -0.1310 P   0  0  0  0  0  4  0  0  0  0  0  0
    2.4773   -1.0666    0.8290 O   0  0  0  0  0  0  0  0  0  0  0  0
    3.4901    0.0079   -1.1334 O   0  0  0  0  0  0  0  0  0  0  0  0
    3.6869   -1.6224    0.4749 C   0  0  0  0  0  0  0  0  0  0  0  0
    4.3044   -2.6912    1.1192 C   0  0  0  0  0  0  0  0  0  0  0  0
    5.5486   -3.1257    0.6160 C   0  0  0  0  0  0  0  0  0  0  0  0
    6.1344   -2.4945   -0.4938 C   0  0  0  0  0  0  0  0  0  0  0  0
    5.5021   -1.4114   -1.1370 C   0  0  0  0  0  0  0  0  0  0  0  0
    4.2676   -0.9828   -0.6389 C   0  0  0  0  0  0  0  0  0  0  0  0
    0.7168    0.5643    1.0841 O   0  0  0  0  0  0  0  0  0  0  0  0
    2.7903    1.7032    0.4387 O   0  0  0  0  0  0  0  0  0  0  0  0
    1.0356    1.5498    1.9516 C   0  0  0  0  0  0  0  0  0  0  0  0
    0.3337    1.9189    3.1040 C   0  0  0  0  0  0  0  0  0  0  0  0
    0.8170    3.0190    3.8423 C   0  0  0  0  0  0  0  0  0  0  0  0
    1.9726    3.7111    3.4428 C   0  0  0  0  0  0  0  0  0  0  0  0
    2.6921    3.3188    2.2940 C   0  0  0  0  0  0  0  0  0  0  0  0
    2.2057    2.2356    1.5654 C   0  0  0  0  0  0  0  0  0  0  0  0
    3.8286   -3.1696    1.9869 H   0  0  0  0  0  0  0  0  0  0  0  0
    6.0618   -3.9685    1.1018 H   0  0  0  0  0  0  0  0  0  0  0  0
    7.1050   -2.8492   -0.8716 H   0  0  0  0  0  0  0  0  0  0  0  0
    5.9484   -0.9095   -2.0068 H   0  0  0  0  0  0  0  0  0  0  0  0
   -0.5549    1.3490    3.4120 H   0  0  0  0  0  0  0  0  0  0  0  0
    0.2808    3.3332    4.7505 H   0  0  0  0  0  0  0  0  0  0  0  0
    2.3315    4.5652    4.0358 H   0  0  0  0  0  0  0  0  0  0  0  0
    3.6067    3.8369    1.9736 H   0  0  0  0  0  0  0  0  0  0  0  0
  1 11  1  0  0  0  0
  1  2  1  0  0  0  0
  1 10  1  0  0  0  0
  3  9  1  0  0  0  0
  3  1  1  0  0  0  0
  4  2  1  0  0  0  0
  4  5  1  0  0  0  0
  5 18  1  0  0  0  0
  6 19  1  0  0  0  0
  6  5  2  0  0  0  0
  7  6  1  0  0  0  0
  8  9  1  0  0  0  0
  8  7  2  0  0  0  0
  9  4  2  0  0  0  0
 10 12  1  0  0  0  0
 11 17  1  0  0  0  0
 12 13  1  0  0  0  0
 13 22  1  0  0  0  0
 13 14  2  0  0  0  0
 14 23  1  0  0  0  0
 15 14  1  0  0  0  0
 15 24  1  0  0  0  0
 16 15  2  0  0  0  0
 17 12  2  0  0  0  0
 17 16  1  0  0  0  0
 20  7  1  0  0  0  0
 21  8  1  0  0  0  0
 25 16  1  0  0  0  0
M  END
