1
q = 0.0, confidence = 1.0

 48 52  0  0  0  0  0  0  0  0999 V2000
    1.3427    0.5256    0.1899 P   0  0  0  0  0  0  0  0  0  0  0  0
   -2.5211    1.6881   -0.5366 O   0  0  0  0  0  0  0  0  0  0  0  0
   -5.5681   -2.6849    0.5636 O   0  0  0  0  0  0  0  0  0  0  0  0
   -0.3740    0.4255    0.1226 N   0  0  0  0  0  0  0  0  0  0  0  0
   -0.9437    1.2282   -0.2448 H   0  0  0  0  0  0  0  0  0  0  0  0
   -1.1581   -0.6749    0.3934 C   0  0  0  0  0  0  0  0  0  0  0  0
   -2.5792   -0.5869    0.1984 C   0  0  0  0  0  0  0  0  0  0  0  0
   -3.1922    0.6610   -0.2839 C   0  0  0  0  0  0  0  0  0  0  0  0
   -4.6695    0.6959   -0.4735 C   0  0  0  0  0  0  0  0  0  0  0  0
   -5.2695    1.8801   -0.9445 C   0  0  0  0  0  0  0  0  0  0  0  0
   -4.6179    2.7400   -1.1567 H   0  0  0  0  0  0  0  0  0  0  0  0
   -6.6552    1.9397   -1.1323 C   0  0  0  0  0  0  0  0  0  0  0  0
   -7.1189    2.8668   -1.5019 H   0  0  0  0  0  0  0  0  0  0  0  0
   -7.4566    0.8165   -0.8506 C   0  0  0  0  0  0  0  0  0  0  0  0
   -8.5458    0.8669   -1.0001 H   0  0  0  0  0  0  0  0  0  0  0  0
   -6.8686   -0.3638   -0.3819 C   0  0  0  0  0  0  0  0  0  0  0  0
   -7.4622   -1.2609   -0.1517 H   0  0  0  0  0  0  0  0  0  0  0  0
   -5.4762   -0.4325   -0.1912 C   0  0  0  0  0  0  0  0  0  0  0  0
   -4.8722   -1.7013    0.3087 C   0  0  0  0  0  0  0  0  0  0  0  0
   -3.3855   -1.7276    0.4876 C   0  0  0  0  0  0  0  0  0  0  0  0
   -2.8094   -2.9159    0.9510 C   0  0  0  0  0  0  0  0  0  0  0  0
   -3.4744   -3.7664    1.1568 H   0  0  0  0  0  0  0  0  0  0  0  0
   -1.4187   -2.9897    1.1397 C   0  0  0  0  0  0  0  0  0  0  0  0
   -0.9601   -3.9221    1.5015 H   0  0  0  0  0  0  0  0  0  0  0  0
   -0.6032   -1.8906    0.8742 C   0  0  0  0  0  0  0  0  0  0  0  0
    0.4840   -1.9647    1.0255 H   0  0  0  0  0  0  0  0  0  0  0  0
    1.7181    0.5949    1.9851 C   0  0  0  0  0  0  0  0  0  0  0  0
    0.7235    0.9061    2.9328 C   0  0  0  0  0  0  0  0  0  0  0  0
   -0.3120    1.0786    2.6017 H   0  0  0  0  0  0  0  0  0  0  0  0
    1.0558    0.9767    4.2939 C   0  0  0  0  0  0  0  0  0  0  0  0
    0.2768    1.2131    5.0344 H   0  0  0  0  0  0  0  0  0  0  0  0
    2.3756    0.7394    4.7105 C   0  0  0  0  0  0  0  0  0  0  0  0
    2.6323    0.7924    5.7793 H   0  0  0  0  0  0  0  0  0  0  0  0
    3.3659    0.4214    3.7662 C   0  0  0  0  0  0  0  0  0  0  0  0
    4.3980    0.2236    4.0923 H   0  0  0  0  0  0  0  0  0  0  0  0
    3.0391    0.3413    2.4053 C   0  0  0  0  0  0  0  0  0  0  0  0
    3.8060    0.0695    1.6617 H   0  0  0  0  0  0  0  0  0  0  0  0
    1.5775    2.2295   -0.4300 C   0  0  0  0  0  0  0  0  0  0  0  0
    0.9826    3.3244    0.2312 C   0  0  0  0  0  0  0  0  0  0  0  0
    0.3821    3.1657    1.1398 H   0  0  0  0  0  0  0  0  0  0  0  0
    1.1631    4.6204   -0.2694 C   0  0  0  0  0  0  0  0  0  0  0  0
    0.6959    5.4739    0.2445 H   0  0  0  0  0  0  0  0  0  0  0  0
    1.9430    4.8296   -1.4196 C   0  0  0  0  0  0  0  0  0  0  0  0
    2.0860    5.8498   -1.8069 H   0  0  0  0  0  0  0  0  0  0  0  0
    2.5418    3.7417   -2.0730 C   0  0  0  0  0  0  0  0  0  0  0  0
    3.1538    3.9039   -2.9728 H   0  0  0  0  0  0  0  0  0  0  0  0
    2.3602    2.4402   -1.5814 C   0  0  0  0  0  0  0  0  0  0  0  0
    2.8235    1.5780   -2.0874 H   0  0  0  0  0  0  0  0  0  0  0  0
  1 27  1  0  0  0  0
  2  8  2  0  0  0  0
  4  1  1  0  0  0  0
  4  6  1  0  0  0  0
  5  4  1  0  0  0  0
  6 25  1  0  0  0  0
  7  6  2  0  0  0  0
  7 20  1  0  0  0  0
  8  7  1  0  0  0  0
  9  8  1  0  0  0  0
  9 18  1  0  0  0  0
 10  9  2  0  0  0  0
 11 10  1  0  0  0  0
 12 10  1  0  0  0  0
 12 14  2  0  0  0  0
 13 12  1  0  0  0  0
 14 16  1  0  0  0  0
 15 14  1  0  0  0  0
 16 18  2  0  0  0  0
 16 17  1  0  0  0  0
 18 19  1  0  0  0  0
 19 20  1  0  0  0  0
 19  3  2  0  0  0  0
 20 21  2  0  0  0  0
 21 23  1  0  0  0  0
 21 22  1  0  0  0  0
 23 24  1  0  0  0  0
 25 26  1  0  0  0  0
 25 23  2  0  0  0  0
 27 36  2  0  0  0  0
 27 28  1  0  0  0  0
 28 30  2  0  0  0  0
 29 28  1  0  0  0  0
 30 32  1  0  0  0  0
 30 31  1  0  0  0  0
 32 33  1  0  0  0  0
 34 35  1  0  0  0  0
 34 32  2  0  0  0  0
 36 34  1  0  0  0  0
 37 36  1  0  0  0  0
 38  1  1  0  0  0  0
 38 39  1  0  0  0  0
 39 40  1  0  0  0  0
 41 39  2  0  0  0  0
 41 42  1  0  0  0  0
 43 41  1  0  0  0  0
 44 43  1  0  0  0  0
 45 47  1  0  0  0  0
 45 43  2  0  0  0  0
 46 45  1  0  0  0  0
 47 38  2  0  0  0  0
 48 47  1  0  0  0  0
M  END
