1
q = 0.0, confidence = 0.9

 58 57  0  0  0  0  0  0  0  0999 V2000
   -0.6624   -0.1996   -0.0780 P   0  0  0  0  0  2  0  0  0  0  0  0
   -2.3565   -0.9119   -0.0221 C   0  0  0  0  0  0  0  0  0  0  0  0
   -3.0137   -0.0302   -0.1948 H   0  0  0  0  0  0  0  0  0  0  0  0
    0.6836   -1.7350    0.1841 P   0  0  0  0  0  2  0  0  0  0  0  0
    2.2943   -0.8234    0.0733 C   0  0  0  0  0  0  0  0  0  0  0  0
    2.0754    0.2687    0.0236 H   0  0  0  0  0  0  0  0  0  0  0  0
   -2.8448   -1.5210    1.7448 Si  0  0  0  0  0  0  0  0  0  0  0  0
   -2.4424   -3.3542    1.9611 C   0  0  0  0  0  0  0  0  0  0  0  0
   -3.0653   -3.9976    1.3079 H   0  0  0  0  0  0  0  0  0  0  0  0
   -2.6256   -3.6581    3.0124 H   0  0  0  0  0  0  0  0  0  0  0  0
   -1.3756   -3.5516    1.7287 H   0  0  0  0  0  0  0  0  0  0  0  0
   -1.9169   -0.5391    3.0695 C   0  0  0  0  0  0  0  0  0  0  0  0
   -0.8234   -0.7082    3.0177 H   0  0  0  0  0  0  0  0  0  0  0  0
   -2.2648   -0.8613    4.0732 H   0  0  0  0  0  0  0  0  0  0  0  0
   -2.1033    0.5499    2.9827 H   0  0  0  0  0  0  0  0  0  0  0  0
   -4.6964   -1.1946    1.9623 C   0  0  0  0  0  0  0  0  0  0  0  0
   -5.3161   -1.7471    1.2297 H   0  0  0  0  0  0  0  0  0  0  0  0
   -4.9085   -0.1113    1.8483 H   0  0  0  0  0  0  0  0  0  0  0  0
   -5.0193   -1.4958    2.9804 H   0  0  0  0  0  0  0  0  0  0  0  0
   -2.7558   -2.0429   -1.5302 Si  0  0  0  0  0  0  0  0  0  0  0  0
   -1.7435   -3.6360   -1.5940 C   0  0  0  0  0  0  0  0  0  0  0  0
   -1.9160   -4.2858   -0.7147 H   0  0  0  0  0  0  0  0  0  0  0  0
   -0.6565   -3.4280   -1.6537 H   0  0  0  0  0  0  0  0  0  0  0  0
   -2.0360   -4.2017   -2.5035 H   0  0  0  0  0  0  0  0  0  0  0  0
   -2.4103   -1.0461   -3.1003 C   0  0  0  0  0  0  0  0  0  0  0  0
   -3.0075   -0.1129   -3.1398 H   0  0  0  0  0  0  0  0  0  0  0  0
   -2.6585   -1.6468   -3.9997 H   0  0  0  0  0  0  0  0  0  0  0  0
   -1.3398   -0.7630   -3.1699 H   0  0  0  0  0  0  0  0  0  0  0  0
   -4.5966   -2.4860   -1.4633 C   0  0  0  0  0  0  0  0  0  0  0  0
   -4.8277   -3.1590   -0.6130 H   0  0  0  0  0  0  0  0  0  0  0  0
   -4.8875   -3.0126   -2.3959 H   0  0  0  0  0  0  0  0  0  0  0  0
   -5.2338   -1.5830   -1.3715 H   0  0  0  0  0  0  0  0  0  0  0  0
    3.1224   -1.2553   -1.6120 Si  0  0  0  0  0  0  0  0  0  0  0  0
    1.9735   -0.7019   -3.0123 C   0  0  0  0  0  0  0  0  0  0  0  0
    1.7192    0.3742   -2.9460 H   0  0  0  0  0  0  0  0  0  0  0  0
    1.0257   -1.2770   -2.9940 H   0  0  0  0  0  0  0  0  0  0  0  0
    2.4599   -0.8770   -3.9943 H   0  0  0  0  0  0  0  0  0  0  0  0
    4.7739   -0.3437   -1.7600 C   0  0  0  0  0  0  0  0  0  0  0  0
    5.5061   -0.6749   -0.9967 H   0  0  0  0  0  0  0  0  0  0  0  0
    4.6255    0.7498   -1.6516 H   0  0  0  0  0  0  0  0  0  0  0  0
    5.2194   -0.5293   -2.7592 H   0  0  0  0  0  0  0  0  0  0  0  0
    3.3661   -3.1252   -1.7799 C   0  0  0  0  0  0  0  0  0  0  0  0
    4.0927   -3.5287   -1.0488 H   0  0  0  0  0  0  0  0  0  0  0  0
    3.7374   -3.3635   -2.7982 H   0  0  0  0  0  0  0  0  0  0  0  0
    2.4047   -3.6615   -1.6392 H   0  0  0  0  0  0  0  0  0  0  0  0
    3.3721   -1.0099    1.6587 Si  0  0  0  0  0  0  0  0  0  0  0  0
    4.5092   -2.5210    1.5741 C   0  0  0  0  0  0  0  0  0  0  0  0
    3.9281   -3.4545    1.4292 H   0  0  0  0  0  0  0  0  0  0  0  0
    5.0705   -2.6175    2.5265 H   0  0  0  0  0  0  0  0  0  0  0  0
    5.2503   -2.4459    0.7533 H   0  0  0  0  0  0  0  0  0  0  0  0
    4.3907    0.5753    1.8301 C   0  0  0  0  0  0  0  0  0  0  0  0
    3.7234    1.4512    1.9635 H   0  0  0  0  0  0  0  0  0  0  0  0
    5.0266    0.7599    0.9422 H   0  0  0  0  0  0  0  0  0  0  0  0
    5.0509    0.5170    2.7201 H   0  0  0  0  0  0  0  0  0  0  0  0
    2.2596   -1.1933    3.1794 C   0  0  0  0  0  0  0  0  0  0  0  0
    1.6177   -2.0956    3.1100 H   0  0  0  0  0  0  0  0  0  0  0  0
    1.6022   -0.3103    3.3054 H   0  0  0  0  0  0  0  0  0  0  0  0
    2.8799   -1.2866    4.0952 H   0  0  0  0  0  0  0  0  0  0  0  0
  1  2  1  0  0  0  0
  1  4  1  0  0  0  0
  2  7  1  0  0  0  0
  3  2  1  0  0  0  0
  5  4  1  0  0  0  0
  5 46  1  0  0  0  0
  6  5  1  0  0  0  0
  7  8  1  0  0  0  0
  7 16  1  0  0  0  0
  7 12  1  0  0  0  0
  8 10  1  0  0  0  0
  9  8  1  0  0  0  0
 11  8  1  0  0  0  0
 12 14  1  0  0  0  0
 13 12  1  0  0  0  0
 15 12  1  0  0  0  0
 16 19  1  0  0  0  0
 17 16  1  0  0  0  0
 18 16  1  0  0  0  0
 20 29  1  0  0  0  0
 20  2  1  0  0  0  0
 21 20  1  0  0  0  0
 21 22  1  0  0  0  0
 23 21  1  0  0  0  0
 24 21  1  0  0  0  0
 25 20  1  0  0  0  0
 26 25  1  0  0  0  0
 27 25  1  0  0  0  0
 28 25  1  0  0  0  0
 29 32  1  0  0  0  0
 29 30  1  0  0  0  0
 31 29  1  0  0  0  0
 33  5  1  0  0  0  0
 34 36  1  0  0  0  0
 34 35  1  0  0  0  0
 34 33  1  0  0  0  0
 37 34  1  0  0  0  0
 38 40  1  0  0  0  0
 38 33  1  0  0  0  0
 38 39  1  0  0  0  0
 41 38  1  0  0  0  0
 42 45  1  0  0  0  0
 42 33  1  0  0  0  0
 42 43  1  0  0  0  0
 44 42  1  0  0  0  0
 46 51  1  0  0  0  0
 46 55  1  0  0  0  0
 47 46  1  0  0  0  0
 47 49  1  0  0  0  0
 48 47  1  0  0  0  0
 50 47  1  0  0  0  0
 51 52  1  0  0  0  0
 51 54  1  0  0  0  0
 53 51  1  0  0  0  0
 55 57  1  0  0  0  0
 55 58  1  0  0  0  0
 56 55  1  0  0  0  0
M  END
