1
q = 0.0, confidence = 0.976

 59 62  0  0  0  0  0  0  0  0999 V2000
    0.0989    0.6846    0.1986 P   0  0  0  0  0  0  0  0  0  0  0  0
   -6.2039   -3.6923   -0.5990 C   0  0  0  0  0  0  0  0  0  0  0  0
   -5.6463   -2.2844   -0.6565 C   0  0  0  0  0  0  0  0  0  0  0  0
   -4.2538   -2.3407   -0.3216 O   0  0  0  0  0  0  0  0  0  0  0  0
   -3.5554   -1.1942   -0.3790 C   0  0  0  0  0  0  0  0  0  0  0  0
   -2.0997   -1.2432    0.0077 C   0  0  0  0  0  0  0  0  0  0  0  0
   -1.6096    0.1861   -0.1537 C   0  0  0  0  0  0  0  0  0  0  0  0
   -2.6900    0.9195   -0.5949 C   0  0  0  0  0  0  0  0  0  0  0  0
   -3.0260    2.3344   -1.0007 C   0  0  0  0  0  0  0  0  0  0  0  0
   -4.5744    2.3648   -0.9257 C   0  0  0  0  0  0  0  0  0  0  0  0
   -5.0386    0.9212   -1.2559 C   0  0  0  0  0  0  0  0  0  0  0  0
   -3.8871    0.0892   -0.7422 C   0  0  0  0  0  0  0  0  0  0  0  0
    0.0398    1.4180    1.9335 C   0  0  0  0  0  0  0  0  0  0  0  0
   -0.8997    2.6255    2.0772 C   0  0  0  0  0  0  0  0  0  0  0  0
   -0.8748    3.1903    3.5064 C   0  0  0  0  0  0  0  0  0  0  0  0
   -1.2032    2.1148    4.5478 C   0  0  0  0  0  0  0  0  0  0  0  0
   -0.2745    0.9041    4.4007 C   0  0  0  0  0  0  0  0  0  0  0  0
   -0.3085    0.3397    2.9742 C   0  0  0  0  0  0  0  0  0  0  0  0
    0.3687    2.1744   -0.9043 C   0  0  0  0  0  0  0  0  0  0  0  0
    0.3604    1.7580   -2.3856 C   0  0  0  0  0  0  0  0  0  0  0  0
    0.5987    2.9588   -3.3098 C   0  0  0  0  0  0  0  0  0  0  0  0
    1.8985    3.6872   -2.9465 C   0  0  0  0  0  0  0  0  0  0  0  0
    1.8867    4.1288   -1.4784 C   0  0  0  0  0  0  0  0  0  0  0  0
    1.6460    2.9455   -0.5286 C   0  0  0  0  0  0  0  0  0  0  0  0
   -5.6823   -4.3509   -1.3211 H   0  0  0  0  0  0  0  0  0  0  0  0
   -7.2836   -3.6870   -0.8466 H   0  0  0  0  0  0  0  0  0  0  0  0
   -6.0796   -4.1228    0.4141 H   0  0  0  0  0  0  0  0  0  0  0  0
   -5.7644   -1.8429   -1.6715 H   0  0  0  0  0  0  0  0  0  0  0  0
   -6.1666   -1.6132    0.0635 H   0  0  0  0  0  0  0  0  0  0  0  0
   -1.5524   -1.9478   -0.6543 H   0  0  0  0  0  0  0  0  0  0  0  0
   -1.9710   -1.6439    1.0365 H   0  0  0  0  0  0  0  0  0  0  0  0
   -2.6782    2.5131   -2.0437 H   0  0  0  0  0  0  0  0  0  0  0  0
   -2.5545    3.1128   -0.3706 H   0  0  0  0  0  0  0  0  0  0  0  0
   -4.8770    2.6112    0.1139 H   0  0  0  0  0  0  0  0  0  0  0  0
   -5.0245    3.1286   -1.5897 H   0  0  0  0  0  0  0  0  0  0  0  0
   -6.0224    0.6841   -0.8065 H   0  0  0  0  0  0  0  0  0  0  0  0
   -5.1506    0.7970   -2.3570 H   0  0  0  0  0  0  0  0  0  0  0  0
    1.0870    1.7481    2.1188 H   0  0  0  0  0  0  0  0  0  0  0  0
   -0.6301    3.4255    1.3574 H   0  0  0  0  0  0  0  0  0  0  0  0
   -1.9331    2.2990    1.8254 H   0  0  0  0  0  0  0  0  0  0  0  0
    0.1375    3.6042    3.7141 H   0  0  0  0  0  0  0  0  0  0  0  0
   -1.5824    4.0424    3.5866 H   0  0  0  0  0  0  0  0  0  0  0  0
   -1.1385    2.5348    5.5733 H   0  0  0  0  0  0  0  0  0  0  0  0
   -2.2576    1.7841    4.4099 H   0  0  0  0  0  0  0  0  0  0  0  0
   -0.5481    0.1100    5.1264 H   0  0  0  0  0  0  0  0  0  0  0  0
    0.7692    1.2047    4.6438 H   0  0  0  0  0  0  0  0  0  0  0  0
   -1.3277   -0.0516    2.7576 H   0  0  0  0  0  0  0  0  0  0  0  0
    0.3854   -0.5189    2.8860 H   0  0  0  0  0  0  0  0  0  0  0  0
   -0.4980    2.8463   -0.7319 H   0  0  0  0  0  0  0  0  0  0  0  0
    1.1592    1.0057   -2.5546 H   0  0  0  0  0  0  0  0  0  0  0  0
   -0.5948    1.2491   -2.6305 H   0  0  0  0  0  0  0  0  0  0  0  0
    0.6210    2.6205   -4.3667 H   0  0  0  0  0  0  0  0  0  0  0  0
   -0.2568    3.6674   -3.2248 H   0  0  0  0  0  0  0  0  0  0  0  0
    2.7587    3.0015   -3.1139 H   0  0  0  0  0  0  0  0  0  0  0  0
    2.0556    4.5614   -3.6123 H   0  0  0  0  0  0  0  0  0  0  0  0
    1.0815    4.8841   -1.3308 H   0  0  0  0  0  0  0  0  0  0  0  0
    2.8395    4.6327   -1.2131 H   0  0  0  0  0  0  0  0  0  0  0  0
    1.5842    3.3113    0.5171 H   0  0  0  0  0  0  0  0  0  0  0  0
    2.5164    2.2576   -0.5654 H   0  0  0  0  0  0  0  0  0  0  0  0
  1 13  1  0  0  0  0
  2 27  1  0  0  0  0
  3  2  1  0  0  0  0
  3  4  1  0  0  0  0
  3 29  1  0  0  0  0
  5  4  1  0  0  0  0
  5  6  1  0  0  0  0
  6 31  1  0  0  0  0
  7  6  1  0  0  0  0
  7  1  1  0  0  0  0
  8  7  2  0  0  0  0
  9 10  1  0  0  0  0
  9  8  1  0  0  0  0
  9 33  1  0  0  0  0
 10 34  1  0  0  0  0
 11 10  1  0  0  0  0
 11 36  1  0  0  0  0
 11 12  1  0  0  0  0
 12  8  1  0  0  0  0
 12  5  2  0  0  0  0
 13 14  1  0  0  0  0
 13 38  1  0  0  0  0
 13 18  1  0  0  0  0
 14 15  1  0  0  0  0
 15 42  1  0  0  0  0
 15 41  1  0  0  0  0
 15 16  1  0  0  0  0
 16 43  1  0  0  0  0
 17 16  1  0  0  0  0
 17 46  1  0  0  0  0
 17 45  1  0  0  0  0
 18 17  1  0  0  0  0
 19 49  1  0  0  0  0
 19 24  1  0  0  0  0
 19  1  1  0  0  0  0
 20 19  1  0  0  0  0
 21 53  1  0  0  0  0
 21 22  1  0  0  0  0
 21 20  1  0  0  0  0
 22 23  1  0  0  0  0
 23 56  1  0  0  0  0
 23 57  1  0  0  0  0
 23 24  1  0  0  0  0
 24 58  1  0  0  0  0
 25  2  1  0  0  0  0
 26  2  1  0  0  0  0
 28  3  1  0  0  0  0
 30  6  1  0  0  0  0
 32  9  1  0  0  0  0
 35 10  1  0  0  0  0
 37 11  1  0  0  0  0
 39 14  1  0  0  0  0
 40 14  1  0  0  0  0
 44 16  1  0  0  0  0
 47 18  1  0  0  0  0
 48 18  1  0  0  0  0
 50 20  1  0  0  0  0
 51 20  1  0  0  0  0
 52 21  1  0  0  0  0
 54 22  1  0  0  0  0
 55 22  1  0  0  0  0
 59 24  1  0  0  0  0
M  END
