1
q = -1.0

 40 42  0  0  0  0  0  0  0  0999 V2000
   -0.5959    0.0324    0.1787 P   0  0  0  0  0  0  0  0  0  0  0  0
   -0.5805    0.4715   -2.5696 N   0  0  0  0  0  0  0  0  0  0  0  0
   -1.4649   -1.5252   -2.1710 N   0  0  0  0  0  0  0  0  0  0  0  0
   -0.9114   -0.4212   -1.6242 C   0  0  0  0  0  3  0  0  0  0  0  0
   -0.9170   -0.0414   -3.9029 C   0  0  0  0  0  0  0  0  0  0  0  0
   -0.0779    0.1295   -4.6050 H   0  0  0  0  0  0  0  0  0  0  0  0
   -1.8170    0.4867   -4.2926 H   0  0  0  0  0  0  0  0  0  0  0  0
   -1.1717   -1.5238   -3.6171 C   0  0  0  0  0  0  0  0  0  0  0  0
   -2.0145   -1.9529   -4.1914 H   0  0  0  0  0  0  0  0  0  0  0  0
   -0.2573   -2.1359   -3.7862 H   0  0  0  0  0  0  0  0  0  0  0  0
   -0.0499    1.8092   -2.3840 C   0  0  0  0  0  0  0  0  0  0  0  0
    0.6127    2.0450   -3.2382 H   0  0  0  0  0  0  0  0  0  0  0  0
    0.5639    1.8402   -1.4559 H   0  0  0  0  0  0  0  0  0  0  0  0
   -0.8625    2.5636   -2.3211 H   0  0  0  0  0  0  0  0  0  0  0  0
   -1.6410   -2.8125   -1.5155 C   0  0  0  0  0  0  0  0  0  0  0  0
   -2.2327   -2.7044   -0.5912 H   0  0  0  0  0  0  0  0  0  0  0  0
   -0.6488   -3.2475   -1.2660 H   0  0  0  0  0  0  0  0  0  0  0  0
   -2.1874   -3.4773   -2.2098 H   0  0  0  0  0  0  0  0  0  0  0  0
   -1.8329    1.3937    0.2929 C   0  0  0  0  0  0  0  0  0  0  0  0
   -3.0315    1.3505   -0.4556 C   0  0  0  0  0  0  0  0  0  0  0  0
   -3.2407    0.5019   -1.1266 H   0  0  0  0  0  0  0  0  0  0  0  0
   -3.9703    2.3857   -0.3418 C   0  0  0  0  0  0  0  0  0  0  0  0
   -4.9011    2.3471   -0.9281 H   0  0  0  0  0  0  0  0  0  0  0  0
   -3.7223    3.4662    0.5216 C   0  0  0  0  0  0  0  0  0  0  0  0
   -4.4591    4.2792    0.6095 H   0  0  0  0  0  0  0  0  0  0  0  0
   -2.5342    3.5078    1.2669 C   0  0  0  0  0  0  0  0  0  0  0  0
   -2.3331    4.3559    1.9387 H   0  0  0  0  0  0  0  0  0  0  0  0
   -1.5861    2.4780    1.1580 C   0  0  0  0  0  0  0  0  0  0  0  0
   -0.6294    2.5193    1.7066 H   0  0  0  0  0  0  0  0  0  0  0  0
   -1.3078   -1.3046    1.2216 C   0  0  0  0  0  0  0  0  0  0  0  0
   -0.4366   -2.3318    1.6445 C   0  0  0  0  0  0  0  0  0  0  0  0
    0.6131   -2.3170    1.3121 H   0  0  0  0  0  0  0  0  0  0  0  0
   -0.9224   -3.3618    2.4611 C   0  0  0  0  0  0  0  0  0  0  0  0
   -0.2410   -4.1627    2.7852 H   0  0  0  0  0  0  0  0  0  0  0  0
   -2.2651   -3.3659    2.8739 C   0  0  0  0  0  0  0  0  0  0  0  0
   -2.6401   -4.1728    3.5218 H   0  0  0  0  0  0  0  0  0  0  0  0
   -3.1251   -2.3295    2.4757 C   0  0  0  0  0  0  0  0  0  0  0  0
   -4.1721   -2.3184    2.8145 H   0  0  0  0  0  0  0  0  0  0  0  0
   -2.6502   -1.2958    1.6542 C   0  0  0  0  0  0  0  0  0  0  0  0
   -3.3243   -0.4794    1.3572 H   0  0  0  0  0  0  0  0  0  0  0  0
  1 19  1  0  0  0  0
  1 30  1  0  0  0  0
  2 11  1  0  0  0  0
  2  4  1  0  0  0  0
  3  4  1  0  0  0  0
  3 15  1  0  0  0  0
  4  1  1  0  0  0  0
  5  8  1  0  0  0  0
  5  2  1  0  0  0  0
  6  5  1  0  0  0  0
  7  5  1  0  0  0  0
  8  3  1  0  0  0  0
  9  8  1  0  0  0  0
 10  8  1  0  0  0  0
 11 14  1  0  0  0  0
 11 13  1  0  0  0  0
 12 11  1  0  0  0  0
 15 17  1  0  0  0  0
 15 16  1  0  0  0  0
 18 15  1  0  0  0  0
 19 28  1  0  0  0  0
 20 22  1  0  0  0  0
 20 19  2  0  0  0  0
 21 20  1  0  0  0  0
 22 24  2  0  0  0  0
 23 22  1  0  0  0  0
 24 25  1  0  0  0  0
 24 26  1  0  0  0  0
 26 27  1  0  0  0  0
 28 26  2  0  0  0  0
 28 29  1  0  0  0  0
 30 31  2  0  0  0  0
 30 39  1  0  0  0  0
 31 33  1  0  0  0  0
 32 31  1  0  0  0  0
 33 34  1  0  0  0  0
 33 35  2  0  0  0  0
 35 36  1  0  0  0  0
 37 38  1  0  0  0  0
 37 35  1  0  0  0  0
 39 37  2  0  0  0  0
 40 39  1  0  0  0  0
M  END
