1
q = -1.0, confidence = 0.334

 52 54  0  0  0  0  0  0  0  0999 V2000
    0.4444   -0.1943    0.2459 P   0  0  0  0  0  0  0  0  0  0  0  0
    1.3954   -1.0836   -2.3205 N   0  0  0  0  0  0  0  0  0  0  0  0
    2.8811   -1.3806   -0.7070 N   0  0  0  0  0  0  0  0  0  0  0  0
    1.6516   -0.9253   -1.0148 C   0  0  0  0  0  3  0  0  0  0  0  0
    2.5225   -1.7541   -3.0013 C   0  0  0  0  0  0  0  0  0  0  0  0
    2.8140   -1.1786   -3.9019 H   0  0  0  0  0  0  0  0  0  0  0  0
    2.1936   -2.7623   -3.3325 H   0  0  0  0  0  0  0  0  0  0  0  0
    3.6108   -1.7962   -1.9208 C   0  0  0  0  0  0  0  0  0  0  0  0
    4.0503   -2.8028   -1.7753 H   0  0  0  0  0  0  0  0  0  0  0  0
    4.4415   -1.0829   -2.1113 H   0  0  0  0  0  0  0  0  0  0  0  0
    0.1816   -0.8620   -3.0886 C   0  0  0  0  0  0  0  0  0  0  0  0
   -0.2448   -1.8361   -3.4066 H   0  0  0  0  0  0  0  0  0  0  0  0
    0.4229   -0.2641   -3.9895 H   0  0  0  0  0  0  0  0  0  0  0  0
   -0.5720   -0.3176   -2.4845 H   0  0  0  0  0  0  0  0  0  0  0  0
    3.6033   -1.3307    0.5501 C   0  0  0  0  0  0  0  0  0  0  0  0
    4.3111   -0.4743    0.5714 H   0  0  0  0  0  0  0  0  0  0  0  0
    4.1828   -2.2675    0.6656 H   0  0  0  0  0  0  0  0  0  0  0  0
    2.9096   -1.2472    1.4011 H   0  0  0  0  0  0  0  0  0  0  0  0
    0.1350   -1.7049    1.3024 C   0  0  0  0  0  0  0  0  0  0  0  0
    1.1118   -2.0905    1.6688 H   0  0  0  0  0  0  0  0  0  0  0  0
   -0.5373   -2.7863    0.4294 C   0  0  0  0  0  0  0  0  0  0  0  0
   -1.4538   -2.3514   -0.0295 H   0  0  0  0  0  0  0  0  0  0  0  0
    0.1295   -3.0827   -0.4095 H   0  0  0  0  0  0  0  0  0  0  0  0
   -0.9155   -4.0206    1.2609 C   0  0  0  0  0  0  0  0  0  0  0  0
   -1.4262   -4.7579    0.6087 H   0  0  0  0  0  0  0  0  0  0  0  0
    0.0118   -4.5150    1.6276 H   0  0  0  0  0  0  0  0  0  0  0  0
   -1.8002   -3.6415    2.4532 C   0  0  0  0  0  0  0  0  0  0  0  0
   -2.0401   -4.5411    3.0549 H   0  0  0  0  0  0  0  0  0  0  0  0
   -2.7707   -3.2455    2.0810 H   0  0  0  0  0  0  0  0  0  0  0  0
   -1.1191   -2.5832    3.3261 C   0  0  0  0  0  0  0  0  0  0  0  0
   -0.2019   -3.0147    3.7856 H   0  0  0  0  0  0  0  0  0  0  0  0
   -1.7761   -2.2827    4.1671 H   0  0  0  0  0  0  0  0  0  0  0  0
   -0.7386   -1.3332    2.5180 C   0  0  0  0  0  0  0  0  0  0  0  0
   -1.6592   -0.8222    2.1567 H   0  0  0  0  0  0  0  0  0  0  0  0
   -0.2066   -0.6116    3.1702 H   0  0  0  0  0  0  0  0  0  0  0  0
    1.4607    1.1100    1.1208 C   0  0  0  0  0  0  0  0  0  0  0  0
    2.1733    0.6070    1.8085 H   0  0  0  0  0  0  0  0  0  0  0  0
    0.5233    2.0068    1.9622 C   0  0  0  0  0  0  0  0  0  0  0  0
   -0.2439    2.4514    1.2899 H   0  0  0  0  0  0  0  0  0  0  0  0
   -0.0312    1.4079    2.7109 H   0  0  0  0  0  0  0  0  0  0  0  0
    1.3159    3.1259    2.6527 C   0  0  0  0  0  0  0  0  0  0  0  0
    0.6150    3.7575    3.2350 H   0  0  0  0  0  0  0  0  0  0  0  0
    2.0204    2.6803    3.3903 H   0  0  0  0  0  0  0  0  0  0  0  0
    2.0942    3.9705    1.6394 C   0  0  0  0  0  0  0  0  0  0  0  0
    1.3769    4.5069    0.9800 H   0  0  0  0  0  0  0  0  0  0  0  0
    2.6859    4.7517    2.1576 H   0  0  0  0  0  0  0  0  0  0  0  0
    3.0124    3.0938    0.7814 C   0  0  0  0  0  0  0  0  0  0  0  0
    3.8079    2.6511    1.4223 H   0  0  0  0  0  0  0  0  0  0  0  0
    3.5327    3.7012    0.0130 H   0  0  0  0  0  0  0  0  0  0  0  0
    2.2376    1.9598    0.0929 C   0  0  0  0  0  0  0  0  0  0  0  0
    2.9390    1.3333   -0.4986 H   0  0  0  0  0  0  0  0  0  0  0  0
    1.5093    2.3897   -0.6315 H   0  0  0  0  0  0  0  0  0  0  0  0
  1 36  1  0  0  0  0
  1 19  1  0  0  0  0
  2  4  1  0  0  0  0
  3 15  1  0  0  0  0
  4  3  1  0  0  0  0
  4  1  1  0  0  0  0
  5  2  1  0  0  0  0
  5  8  1  0  0  0  0
  6  5  1  0  0  0  0
  7  5  1  0  0  0  0
  8  9  1  0  0  0  0
  8  3  1  0  0  0  0
 10  8  1  0  0  0  0
 11 14  1  0  0  0  0
 11  2  1  0  0  0  0
 12 11  1  0  0  0  0
 13 11  1  0  0  0  0
 15 16  1  0  0  0  0
 15 17  1  0  0  0  0
 15 18  1  0  0  0  0
 19 20  1  0  0  0  0
 19 33  1  0  0  0  0
 21 24  1  0  0  0  0
 21 19  1  0  0  0  0
 22 21  1  0  0  0  0
 23 21  1  0  0  0  0
 24 26  1  0  0  0  0
 24 27  1  0  0  0  0
 25 24  1  0  0  0  0
 27 28  1  0  0  0  0
 27 30  1  0  0  0  0
 29 27  1  0  0  0  0
 30 31  1  0  0  0  0
 30 32  1  0  0  0  0
 33 35  1  0  0  0  0
 33 30  1  0  0  0  0
 34 33  1  0  0  0  0
 36 37  1  0  0  0  0
 36 38  1  0  0  0  0
 38 41  1  0  0  0  0
 38 40  1  0  0  0  0
 39 38  1  0  0  0  0
 41 42  1  0  0  0  0
 41 43  1  0  0  0  0
 44 46  1  0  0  0  0
 44 41  1  0  0  0  0
 45 44  1  0  0  0  0
 47 48  1  0  0  0  0
 47 44  1  0  0  0  0
 49 47  1  0  0  0  0
 50 47  1  0  0  0  0
 50 36  1  0  0  0  0
 51 50  1  0  0  0  0
 52 50  1  0  0  0  0
M  END
