1
q = 0.0, confidence = 0.998

 38 37  0  0  0  0  0  0  0  0999 V2000
   -2.2980   -0.3573   -0.0742 P   0  0  0  0  0  0  0  0  0  0  0  0
   -4.6721    0.8750   -0.6837 F   0  0  0  0  0  0  0  0  0  0  0  0
   -3.1452    0.9337   -2.2654 F   0  0  0  0  0  0  0  0  0  0  0  0
   -3.8280    2.9770    0.4513 F   0  0  0  0  0  0  0  0  0  0  0  0
   -3.3151    3.3623   -1.6295 F   0  0  0  0  0  0  0  0  0  0  0  0
   -1.7669    2.7721   -0.2119 F   0  0  0  0  0  0  0  0  0  0  0  0
   -3.1626   -0.5243    1.3942 N   0  0  0  0  0  0  0  0  0  0  0  0
   -2.7095   -1.6777   -1.0250 N   0  0  0  0  0  0  0  0  0  0  0  0
   -3.3395    1.0780   -0.9304 C   0  0  0  0  0  0  0  0  0  0  0  0
   -3.0475    2.5784   -0.5753 C   0  0  0  0  0  0  0  0  0  0  0  0
   -2.9830    0.5944    2.3348 C   0  0  0  0  0  0  0  0  0  0  0  0
   -2.3150    0.2567    3.1587 H   0  0  0  0  0  0  0  0  0  0  0  0
   -2.3995    1.3899    1.8233 H   0  0  0  0  0  0  0  0  0  0  0  0
   -4.2858    1.1796    2.8781 C   0  0  0  0  0  0  0  0  0  0  0  0
   -4.8013    0.4746    3.5584 H   0  0  0  0  0  0  0  0  0  0  0  0
   -4.0768    2.1048    3.4524 H   0  0  0  0  0  0  0  0  0  0  0  0
   -4.9763    1.4316    2.0516 H   0  0  0  0  0  0  0  0  0  0  0  0
   -3.3263   -1.8607    1.9865 C   0  0  0  0  0  0  0  0  0  0  0  0
   -2.9505   -2.6059    1.2598 H   0  0  0  0  0  0  0  0  0  0  0  0
   -2.6506   -1.9419    2.8663 H   0  0  0  0  0  0  0  0  0  0  0  0
   -4.7652   -2.2096    2.3724 C   0  0  0  0  0  0  0  0  0  0  0  0
   -5.4508   -2.1200    1.5066 H   0  0  0  0  0  0  0  0  0  0  0  0
   -4.8108   -3.2555    2.7392 H   0  0  0  0  0  0  0  0  0  0  0  0
   -5.1540   -1.5582    3.1783 H   0  0  0  0  0  0  0  0  0  0  0  0
   -4.0998   -2.1135   -1.2253 C   0  0  0  0  0  0  0  0  0  0  0  0
   -4.1889   -3.1756   -0.9018 H   0  0  0  0  0  0  0  0  0  0  0  0
   -4.7393   -1.5268   -0.5390 H   0  0  0  0  0  0  0  0  0  0  0  0
   -4.6039   -1.9584   -2.6603 C   0  0  0  0  0  0  0  0  0  0  0  0
   -4.0007   -2.5503   -3.3775 H   0  0  0  0  0  0  0  0  0  0  0  0
   -5.6502   -2.3181   -2.7320 H   0  0  0  0  0  0  0  0  0  0  0  0
   -4.5732   -0.9001   -2.9790 H   0  0  0  0  0  0  0  0  0  0  0  0
   -1.6449   -2.5205   -1.5977 C   0  0  0  0  0  0  0  0  0  0  0  0
   -1.9754   -2.8401   -2.6081 H   0  0  0  0  0  0  0  0  0  0  0  0
   -0.7517   -1.8815   -1.7553 H   0  0  0  0  0  0  0  0  0  0  0  0
   -1.2814   -3.7227   -0.7287 C   0  0  0  0  0  0  0  0  0  0  0  0
   -2.1569   -4.3764   -0.5356 H   0  0  0  0  0  0  0  0  0  0  0  0
   -0.5064   -4.3379   -1.2285 H   0  0  0  0  0  0  0  0  0  0  0  0
   -0.8684   -3.3838    0.2429 H   0  0  0  0  0  0  0  0  0  0  0  0
  1  7  1  0  0  0  0
  3  9  1  0  0  0  0
  5 10  1  0  0  0  0
  7 18  1  0  0  0  0
  7 11  1  0  0  0  0
  8  1  1  0  0  0  0
  9  2  1  0  0  0  0
  9 10  1  0  0  0  0
  9  1  1  0  0  0  0
 10  6  1  0  0  0  0
 10  4  1  0  0  0  0
 11 14  1  0  0  0  0
 11 12  1  0  0  0  0
 13 11  1  0  0  0  0
 14 16  1  0  0  0  0
 14 15  1  0  0  0  0
 17 14  1  0  0  0  0
 18 21  1  0  0  0  0
 18 20  1  0  0  0  0
 19 18  1  0  0  0  0
 21 23  1  0  0  0  0
 21 24  1  0  0  0  0
 22 21  1  0  0  0  0
 25  8  1  0  0  0  0
 25 26  1  0  0  0  0
 25 27  1  0  0  0  0
 28 25  1  0  0  0  0
 29 28  1  0  0  0  0
 30 28  1  0  0  0  0
 31 28  1  0  0  0  0
 32  8  1  0  0  0  0
 32 35  1  0  0  0  0
 33 32  1  0  0  0  0
 34 32  1  0  0  0  0
 35 36  1  0  0  0  0
 35 38  1  0  0  0  0
 37 35  1  0  0  0  0
M  END
