1
q = 0.0, confidence = 0.996

 18 19  0  0  0  0  0  0  0  0999 V2000
    1.0713    1.0317   -0.0003 P   0  0  0  0  0  0  0  0  0  0  0  0
    1.3372    2.6999    0.7559 C   0  0  0  0  0  0  0  0  0  0  0  0
    1.3374    2.6995   -0.7573 C   0  0  0  0  0  0  0  0  0  0  0  0
    2.7079    0.2027   -0.0001 C   0  0  0  0  0  0  0  0  0  0  0  0
    3.9326    0.9046    0.0006 C   0  0  0  0  0  0  0  0  0  0  0  0
    5.1472    0.2060    0.0007 C   0  0  0  0  0  0  0  0  0  0  0  0
    5.1572   -1.1989    0.0001 C   0  0  0  0  0  0  0  0  0  0  0  0
    3.9443   -1.9026   -0.0006 C   0  0  0  0  0  0  0  0  0  0  0  0
    2.7258   -1.2067   -0.0007 C   0  0  0  0  0  0  0  0  0  0  0  0
    2.2925    2.8596    1.2827 H   0  0  0  0  0  0  0  0  0  0  0  0
    0.4626    3.1222    1.2770 H   0  0  0  0  0  0  0  0  0  0  0  0
    0.4630    3.1217   -1.2789 H   0  0  0  0  0  0  0  0  0  0  0  0
    2.2928    2.8588   -1.2840 H   0  0  0  0  0  0  0  0  0  0  0  0
    3.9513    2.0052    0.0011 H   0  0  0  0  0  0  0  0  0  0  0  0
    6.0951    0.7652    0.0012 H   0  0  0  0  0  0  0  0  0  0  0  0
    6.1132   -1.7437    0.0001 H   0  0  0  0  0  0  0  0  0  0  0  0
    3.9409   -3.0028   -0.0011 H   0  0  0  0  0  0  0  0  0  0  0  0
    1.7773   -1.7634   -0.0013 H   0  0  0  0  0  0  0  0  0  0  0  0
  1  4  1  0  0  0  0
  1  2  1  0  0  0  0
  2 11  1  0  0  0  0
  2 10  1  0  0  0  0
  3  1  1  0  0  0  0
  3  2  1  0  0  0  0
  4  5  1  0  0  0  0
  5  6  2  0  0  0  0
  5 14  1  0  0  0  0
  6 15  1  0  0  0  0
  7 16  1  0  0  0  0
  7  6  1  0  0  0  0
  8  7  2  0  0  0  0
  9  8  1  0  0  0  0
  9  4  2  0  0  0  0
 12  3  1  0  0  0  0
 13  3  1  0  0  0  0
 17  8  1  0  0  0  0
 18  9  1  0  0  0  0
M  END
