51
q = 0.0, confidence = 0.99

 51 50  0  0  0  0  0  0  0  0999 V2000
   -2.0617    2.1663    0.1091 C   0  0  0  0  0  0  0  0  0  0  0  0
   -2.5356    2.5645   -0.8114 H   0  0  0  0  0  0  0  0  0  0  0  0
   -2.4719    2.7096    0.9829 H   0  0  0  0  0  0  0  0  0  0  0  0
    0.1377    3.4732   -1.4345 C   0  0  0  0  0  0  0  0  0  0  0  0
   -0.4840    3.0768   -2.2662 H   0  0  0  0  0  0  0  0  0  0  0  0
    1.6008    3.4480   -1.8998 C   0  0  0  0  0  0  0  0  0  0  0  0
    1.6910    3.9637   -2.8778 H   0  0  0  0  0  0  0  0  0  0  0  0
    1.9863    2.4168   -2.0194 H   0  0  0  0  0  0  0  0  0  0  0  0
    2.2631    3.9763   -1.1870 H   0  0  0  0  0  0  0  0  0  0  0  0
   -0.3559    4.8819   -1.0902 C   0  0  0  0  0  0  0  0  0  0  0  0
    0.2918    5.3670   -0.3338 H   0  0  0  0  0  0  0  0  0  0  0  0
   -1.3957    4.8882   -0.7050 H   0  0  0  0  0  0  0  0  0  0  0  0
   -0.3322    5.5204   -1.9980 H   0  0  0  0  0  0  0  0  0  0  0  0
    0.5801    2.6728    1.5069 C   0  0  0  0  0  0  0  0  0  0  0  0
    0.3654    1.7675    2.1081 H   0  0  0  0  0  0  0  0  0  0  0  0
   -0.0332    3.8821    2.2185 C   0  0  0  0  0  0  0  0  0  0  0  0
    0.3677    3.9440    3.2517 H   0  0  0  0  0  0  0  0  0  0  0  0
   -1.1366    3.8186    2.3001 H   0  0  0  0  0  0  0  0  0  0  0  0
    0.2142    4.8343    1.7111 H   0  0  0  0  0  0  0  0  0  0  0  0
    2.1079    2.7752    1.3883 C   0  0  0  0  0  0  0  0  0  0  0  0
    2.4221    3.7482    0.9618 H   0  0  0  0  0  0  0  0  0  0  0  0
    2.5392    1.9714    0.7609 H   0  0  0  0  0  0  0  0  0  0  0  0
    2.5625    2.6862    2.3957 H   0  0  0  0  0  0  0  0  0  0  0  0
   -2.6089   -0.3624    2.0466 C   0  0  0  0  0  0  0  0  0  0  0  0
   -1.6985    0.4576    2.9680 C   0  0  0  0  0  0  0  0  0  0  0  0
   -1.9077    0.1550    4.0165 H   0  0  0  0  0  0  0  0  0  0  0  0
   -1.8912    1.5467    2.9035 H   0  0  0  0  0  0  0  0  0  0  0  0
   -0.6331    0.2472    2.7707 H   0  0  0  0  0  0  0  0  0  0  0  0
   -2.2586   -1.8513    2.1821 C   0  0  0  0  0  0  0  0  0  0  0  0
   -1.1980   -2.0375    1.9286 H   0  0  0  0  0  0  0  0  0  0  0  0
   -2.8813   -2.5009    1.5398 H   0  0  0  0  0  0  0  0  0  0  0  0
   -2.4215   -2.1599    3.2375 H   0  0  0  0  0  0  0  0  0  0  0  0
   -4.0657   -0.0815    2.4358 C   0  0  0  0  0  0  0  0  0  0  0  0
   -4.1889   -0.3262    3.5130 H   0  0  0  0  0  0  0  0  0  0  0  0
   -4.7954   -0.6977    1.8797 H   0  0  0  0  0  0  0  0  0  0  0  0
   -4.3360    0.9871    2.3127 H   0  0  0  0  0  0  0  0  0  0  0  0
   -3.8945   -0.2820   -1.0189 C   0  0  0  0  0  0  0  0  0  0  0  0
   -3.5158   -0.1812   -2.4983 C   0  0  0  0  0  0  0  0  0  0  0  0
   -2.6965   -0.8772   -2.7556 H   0  0  0  0  0  0  0  0  0  0  0  0
   -3.2193    0.8435   -2.7937 H   0  0  0  0  0  0  0  0  0  0  0  0
   -4.4063   -0.4557   -3.1040 H   0  0  0  0  0  0  0  0  0  0  0  0
   -4.2905   -1.7354   -0.7201 C   0  0  0  0  0  0  0  0  0  0  0  0
   -5.1131   -2.0252   -1.4089 H   0  0  0  0  0  0  0  0  0  0  0  0
   -4.6597   -1.8843    0.3115 H   0  0  0  0  0  0  0  0  0  0  0  0
   -3.4402   -2.4255   -0.8983 H   0  0  0  0  0  0  0  0  0  0  0  0
   -5.0280    0.7052   -0.7118 C   0  0  0  0  0  0  0  0  0  0  0  0
   -4.7389    1.7525   -0.9340 H   0  0  0  0  0  0  0  0  0  0  0  0
   -5.3820    0.6580    0.3328 H   0  0  0  0  0  0  0  0  0  0  0  0
   -5.8932    0.4633   -1.3667 H   0  0  0  0  0  0  0  0  0  0  0  0
   -2.2371    0.1713    0.0997 As  0  0  0  0  0  0  0  0  0  0  0  0
   -0.1973    2.1804   -0.1243 P   0  0  0  0  0  0  0  0  0  0  0  0
  1  3  1  0  0  0  0
  2  1  1  0  0  0  0
  4 10  1  0  0  0  0
  4 51  1  0  0  0  0
  5  4  1  0  0  0  0
  6  4  1  0  0  0  0
  6  9  1  0  0  0  0
  7  6  1  0  0  0  0
  8  6  1  0  0  0  0
 10 12  1  0  0  0  0
 10 11  1  0  0  0  0
 13 10  1  0  0  0  0
 14 15  1  0  0  0  0
 14 16  1  0  0  0  0
 16 18  1  0  0  0  0
 16 17  1  0  0  0  0
 19 16  1  0  0  0  0
 20 14  1  0  0  0  0
 20 23  1  0  0  0  0
 21 20  1  0  0  0  0
 22 20  1  0  0  0  0
 24 29  1  0  0  0  0
 24 33  1  0  0  0  0
 24 25  1  0  0  0  0
 25 26  1  0  0  0  0
 27 25  1  0  0  0  0
 28 25  1  0  0  0  0
 29 32  1  0  0  0  0
 30 29  1  0  0  0  0
 31 29  1  0  0  0  0
 33 34  1  0  0  0  0
 35 33  1  0  0  0  0
 36 33  1  0  0  0  0
 37 42  1  0  0  0  0
 37 46  1  0  0  0  0
 37 50  1  0  0  0  0
 38 37  1  0  0  0  0
 39 38  1  0  0  0  0
 40 38  1  0  0  0  0
 41 38  1  0  0  0  0
 42 44  1  0  0  0  0
 43 42  1  0  0  0  0
 45 42  1  0  0  0  0
 46 48  1  0  0  0  0
 47 46  1  0  0  0  0
 49 46  1  0  0  0  0
 50  1  1  0  0  0  0
 50 24  1  0  0  0  0
 51  1  1  0  0  0  0
 51 14  1  0  0  0  0
M  END
