1
q = 0.0, confidence = 0.994

 31 32  0  0  0  0  0  0  0  0999 V2000
    1.6221    0.2649    0.0897 P   0  0  0  0  0  0  0  0  0  0  0  0
    1.3043    0.9537    1.5759 O   0  0  0  0  0  0  0  0  0  0  0  0
    2.2898    1.6905    2.3289 C   0  0  0  0  0  0  0  0  0  0  0  0
    1.7707    2.6074    2.6826 H   0  0  0  0  0  0  0  0  0  0  0  0
    3.1227    2.0170    1.6701 H   0  0  0  0  0  0  0  0  0  0  0  0
    2.8112    0.8704    3.4958 C   0  0  0  0  0  0  0  0  0  0  0  0
    3.5167    1.4733    4.1031 H   0  0  0  0  0  0  0  0  0  0  0  0
    3.3440   -0.0329    3.1392 H   0  0  0  0  0  0  0  0  0  0  0  0
    1.9776    0.5506    4.1529 H   0  0  0  0  0  0  0  0  0  0  0  0
    3.2821   -0.4888    0.3027 C   0  0  0  0  0  0  0  0  0  0  0  0
    4.4577    0.2425    0.0328 C   0  0  0  0  0  0  0  0  0  0  0  0
    4.3909    1.2565   -0.3899 H   0  0  0  0  0  0  0  0  0  0  0  0
    5.7153   -0.3266    0.2859 C   0  0  0  0  0  0  0  0  0  0  0  0
    6.6280    0.2499    0.0720 H   0  0  0  0  0  0  0  0  0  0  0  0
    5.8067   -1.6281    0.8025 C   0  0  0  0  0  0  0  0  0  0  0  0
    6.7937   -2.0754    0.9962 H   0  0  0  0  0  0  0  0  0  0  0  0
    4.6381   -2.3645    1.0592 C   0  0  0  0  0  0  0  0  0  0  0  0
    4.7073   -3.3925    1.4458 H   0  0  0  0  0  0  0  0  0  0  0  0
    3.3786   -1.8035    0.8091 C   0  0  0  0  0  0  0  0  0  0  0  0
    2.4611   -2.3818    0.9903 H   0  0  0  0  0  0  0  0  0  0  0  0
    1.8883    1.6435   -1.0725 C   0  0  0  0  0  0  0  0  0  0  0  0
    2.3338    1.3384   -2.3769 C   0  0  0  0  0  0  0  0  0  0  0  0
    2.5519    0.2933   -2.6506 H   0  0  0  0  0  0  0  0  0  0  0  0
    2.4738    2.3666   -3.3178 C   0  0  0  0  0  0  0  0  0  0  0  0
    2.8195    2.1300   -4.3354 H   0  0  0  0  0  0  0  0  0  0  0  0
    2.1628    3.6926   -2.9681 C   0  0  0  0  0  0  0  0  0  0  0  0
    2.2726    4.4968   -3.7115 H   0  0  0  0  0  0  0  0  0  0  0  0
    1.6990    3.9885   -1.6776 C   0  0  0  0  0  0  0  0  0  0  0  0
    1.4337    5.0215   -1.4060 H   0  0  0  0  0  0  0  0  0  0  0  0
    1.5543    2.9651   -0.7276 C   0  0  0  0  0  0  0  0  0  0  0  0
    1.1570    3.1919    0.2722 H   0  0  0  0  0  0  0  0  0  0  0  0
  1 10  1  0  0  0  0
  1  2  1  0  0  0  0
  2  3  1  0  0  0  0
  3  4  1  0  0  0  0
  3  6  1  0  0  0  0
  5  3  1  0  0  0  0
  6  7  1  0  0  0  0
  6  9  1  0  0  0  0
  8  6  1  0  0  0  0
 10 19  1  0  0  0  0
 11 13  1  0  0  0  0
 11 10  2  0  0  0  0
 12 11  1  0  0  0  0
 13 15  2  0  0  0  0
 14 13  1  0  0  0  0
 15 16  1  0  0  0  0
 15 17  1  0  0  0  0
 17 18  1  0  0  0  0
 19 20  1  0  0  0  0
 19 17  2  0  0  0  0
 21 30  1  0  0  0  0
 21  1  1  0  0  0  0
 22 21  2  0  0  0  0
 23 22  1  0  0  0  0
 24 26  2  0  0  0  0
 24 22  1  0  0  0  0
 25 24  1  0  0  0  0
 26 28  1  0  0  0  0
 27 26  1  0  0  0  0
 28 29  1  0  0  0  0
 28 30  2  0  0  0  0
 30 31  1  0  0  0  0
M  END
