1
q = 0.0, confidence = 0.996

 38 39  0  0  0  0  0  0  0  0999 V2000
   -1.4709    1.0971    1.0625 P   0  0  1  0  0  0  0  0  0  0  0  0
   -0.1501    2.1445    0.8012 O   0  0  0  0  0  0  0  0  0  0  0  0
   -0.1279    2.3509   -0.1805 H   0  0  0  0  0  0  0  0  0  0  0  0
   -0.3089    2.4501   -1.8561 O   0  0  0  0  0  0  0  0  0  0  0  0
   -2.9602    1.6554   -1.2871 N   0  0  0  0  0  0  0  0  0  0  0  0
   -3.7116    2.7314    0.5278 N   0  0  0  0  0  0  0  0  0  0  0  0
   -4.0966    2.3431   -1.6688 C   0  0  0  0  0  0  0  0  0  0  0  0
   -4.4602    2.3061   -2.7009 H   0  0  0  0  0  0  0  0  0  0  0  0
   -4.5377    3.0047   -0.5307 C   0  0  0  0  0  0  0  0  0  0  0  0
   -5.4117    3.6597   -0.4272 H   0  0  0  0  0  0  0  0  0  0  0  0
   -1.8284    1.5079    2.8701 C   0  0  0  0  0  0  0  0  0  0  0  0
   -2.6141   -0.3478   -2.6709 C   0  0  0  0  0  0  0  0  0  0  0  0
   -3.6290   -0.6742   -2.4076 H   0  0  0  0  0  0  0  0  0  0  0  0
   -2.7730    1.9092    0.0668 C   0  0  0  0  0  0  0  0  0  0  0  0
   -2.1362    0.8595   -2.1369 C   0  0  0  0  0  0  0  0  0  0  0  0
   -1.7652   -1.1523   -3.4414 C   0  0  0  0  0  0  0  0  0  0  0  0
   -2.1278   -2.1198   -3.8145 H   0  0  0  0  0  0  0  0  0  0  0  0
   -1.7104    3.0281    3.0809 C   0  0  0  0  0  0  0  0  0  0  0  0
   -1.8923    3.2424    4.1551 H   0  0  0  0  0  0  0  0  0  0  0  0
   -2.4693    3.5675    2.4830 H   0  0  0  0  0  0  0  0  0  0  0  0
   -0.7046    3.4042    2.8163 H   0  0  0  0  0  0  0  0  0  0  0  0
    0.0351    0.4618   -3.1733 C   0  0  0  0  0  0  0  0  0  0  0  0
    1.0725    0.7820   -3.3484 H   0  0  0  0  0  0  0  0  0  0  0  0
   -0.7574    0.7554    3.6831 C   0  0  0  0  0  0  0  0  0  0  0  0
   -0.8854    1.0074    4.7561 H   0  0  0  0  0  0  0  0  0  0  0  0
    0.2757    1.0249    3.3883 H   0  0  0  0  0  0  0  0  0  0  0  0
   -0.8740   -0.3409    3.5707 H   0  0  0  0  0  0  0  0  0  0  0  0
   -0.4423   -0.7544   -3.6812 C   0  0  0  0  0  0  0  0  0  0  0  0
    0.2387   -1.4072   -4.2443 H   0  0  0  0  0  0  0  0  0  0  0  0
   -3.2268    1.0130    3.2721 C   0  0  0  0  0  0  0  0  0  0  0  0
   -3.3603    1.2149    4.3561 H   0  0  0  0  0  0  0  0  0  0  0  0
   -3.3474   -0.0724    3.0953 H   0  0  0  0  0  0  0  0  0  0  0  0
   -4.0165    1.5480    2.7128 H   0  0  0  0  0  0  0  0  0  0  0  0
   -0.8111    1.2695   -2.4054 C   0  0  0  0  0  0  0  0  0  0  0  0
   -0.7838    3.6734   -2.4409 C   0  0  0  0  0  0  0  0  0  0  0  0
   -0.2482    4.4942   -1.9281 H   0  0  0  0  0  0  0  0  0  0  0  0
   -1.8763    3.7977   -2.2918 H   0  0  0  0  0  0  0  0  0  0  0  0
   -0.5471    3.6933   -3.5248 H   0  0  0  0  0  0  0  0  0  0  0  0
  1  2  1  6  0  0  0
  1 11  1  0  0  0  0
  3  2  1  0  0  0  0
  5 14  1  0  0  0  0
  7  5  1  0  0  0  0
  7  9  2  0  0  0  0
  8  7  1  0  0  0  0
  9 10  1  0  0  0  0
  9  6  1  0  0  0  0
 11 18  1  0  0  0  0
 11 30  1  0  0  0  0
 11 24  1  0  0  0  0
 12 13  1  0  0  0  0
 12 15  1  0  0  0  0
 14  6  2  0  0  0  0
 14  1  1  0  0  0  0
 15  5  1  0  0  0  0
 16 12  2  0  0  0  0
 17 16  1  0  0  0  0
 18 19  1  0  0  0  0
 20 18  1  0  0  0  0
 21 18  1  0  0  0  0
 22 34  1  0  0  0  0
 23 22  1  0  0  0  0
 24 25  1  0  0  0  0
 26 24  1  0  0  0  0
 27 24  1  0  0  0  0
 28 16  1  0  0  0  0
 28 22  2  0  0  0  0
 29 28  1  0  0  0  0
 30 31  1  0  0  0  0
 32 30  1  0  0  0  0
 33 30  1  0  0  0  0
 34 15  2  0  0  0  0
 34  4  1  0  0  0  0
 35 37  1  0  0  0  0
 35 36  1  0  0  0  0
 35  4  1  0  0  0  0
 38 35  1  0  0  0  0
M  END
