1
q = -1.0

 33 34  0  0  0  0  0  0  0  0999 V2000
    2.1465    1.1598   -0.1252 P   0  0  1  0  0  4  0  0  0  0  0  0
    1.1697    1.7934   -1.1290 O   0  0  0  0  0  0  0  0  0  0  0  0
    4.7582    0.6370   -1.0469 N   0  0  0  0  0  0  0  0  0  0  0  0
    3.4851    0.2580   -0.9893 C   0  0  0  0  0  0  0  0  0  0  0  0
    3.2945   -0.9558   -1.6355 N   0  0  0  0  0  0  0  0  0  0  0  0
    0.9408   -1.1148   -2.3067 C   0  0  0  0  0  0  0  0  0  0  0  0
    0.9979   -0.0819   -2.6766 H   0  0  0  0  0  0  0  0  0  0  0  0
    4.0050    1.9109    1.8956 C   0  0  0  0  0  0  0  0  0  0  0  0
    4.3821    2.7308    2.5439 H   0  0  0  0  0  0  0  0  0  0  0  0
    4.8539    1.4992    1.3180 H   0  0  0  0  0  0  0  0  0  0  0  0
    3.6040    1.1059    2.5415 H   0  0  0  0  0  0  0  0  0  0  0  0
    2.9310    2.4802    0.9636 C   0  0  0  0  0  0  0  0  0  0  0  0
   -0.3143   -3.1504   -1.8423 C   0  0  0  0  0  0  0  0  0  0  0  0
   -1.2649   -3.7027   -1.8569 H   0  0  0  0  0  0  0  0  0  0  0  0
    2.0357   -3.0139   -1.2238 C   0  0  0  0  0  0  0  0  0  0  0  0
    2.9270   -3.4326   -0.7368 H   0  0  0  0  0  0  0  0  0  0  0  0
    0.8356   -3.7340   -1.2866 C   0  0  0  0  0  0  0  0  0  0  0  0
    0.7920   -4.7518   -0.8709 H   0  0  0  0  0  0  0  0  0  0  0  0
    3.5237    3.5292    0.0012 C   0  0  0  0  0  0  0  0  0  0  0  0
    3.9167    4.3796    0.5986 H   0  0  0  0  0  0  0  0  0  0  0  0
    2.7530    3.9141   -0.6949 H   0  0  0  0  0  0  0  0  0  0  0  0
    4.3554    3.0962   -0.5873 H   0  0  0  0  0  0  0  0  0  0  0  0
    2.0814   -1.7029   -1.7307 C   0  0  0  0  0  0  0  0  0  0  0  0
   -0.2567   -1.8437   -2.3518 C   0  0  0  0  0  0  0  0  0  0  0  0
   -1.1533   -1.3870   -2.7980 H   0  0  0  0  0  0  0  0  0  0  0  0
    1.7609    3.0790    1.7662 C   0  0  0  0  0  0  0  0  0  0  0  0
    2.1217    3.9639    2.3313 H   0  0  0  0  0  0  0  0  0  0  0  0
    1.3572    2.3427    2.4917 H   0  0  0  0  0  0  0  0  0  0  0  0
    0.9344    3.3996    1.1008 H   0  0  0  0  0  0  0  0  0  0  0  0
    5.4166   -0.3475   -1.7396 C   0  0  0  0  0  0  0  0  0  0  0  0
    6.4924   -0.2880   -1.9463 H   0  0  0  0  0  0  0  0  0  0  0  0
    4.5322   -1.3518   -2.1063 C   0  0  0  0  0  0  0  0  0  0  0  0
    4.6531   -2.2814   -2.6715 H   0  0  0  0  0  0  0  0  0  0  0  0
  1  2  2  6  0  0  0
  1 12  1  0  0  0  0
  3  4  2  0  0  0  0
  4  1  1  0  0  0  0
  5  4  1  0  0  0  0
  6 23  1  0  0  0  0
  7  6  1  0  0  0  0
  8 11  1  0  0  0  0
  8  9  1  0  0  0  0
 10  8  1  0  0  0  0
 12 26  1  0  0  0  0
 12  8  1  0  0  0  0
 13 17  2  0  0  0  0
 14 13  1  0  0  0  0
 15 16  1  0  0  0  0
 17 15  1  0  0  0  0
 17 18  1  0  0  0  0
 19 20  1  0  0  0  0
 19 12  1  0  0  0  0
 21 19  1  0  0  0  0
 22 19  1  0  0  0  0
 23  5  1  0  0  0  0
 23 15  2  0  0  0  0
 24  6  2  0  0  0  0
 24 13  1  0  0  0  0
 25 24  1  0  0  0  0
 26 27  1  0  0  0  0
 26 28  1  0  0  0  0
 29 26  1  0  0  0  0
 30  3  1  0  0  0  0
 31 30  1  0  0  0  0
 32 30  2  0  0  0  0
 32  5  1  0  0  0  0
 33 32  1  0  0  0  0
M  END
