1
q = 0.0, confidence = 1.0

 26 27  0  0  0  0  0  0  0  0999 V2000
   -0.5057   -0.0531    0.7017 P   0  0  0  0  0  0  0  0  0  0  0  0
   -1.1324    0.7132    3.0256 C   0  0  0  0  0  0  0  0  0  0  0  0
   -2.2118    0.9533    2.9143 H   0  0  0  0  0  0  0  0  0  0  0  0
   -0.7344    1.2714    3.8949 H   0  0  0  0  0  0  0  0  0  0  0  0
   -0.4804   -1.2743    1.8400 O   0  0  0  0  0  0  0  0  0  0  0  0
   -0.4191    1.1521    1.8621 O   0  0  0  0  0  0  0  0  0  0  0  0
   -0.8910   -0.8136    3.1350 C   0  0  0  0  0  0  0  0  0  0  0  0
   -0.0747   -1.0530    3.8481 H   0  0  0  0  0  0  0  0  0  0  0  0
   -1.8081   -1.3568    3.4414 H   0  0  0  0  0  0  0  0  0  0  0  0
   -2.9398    1.2762   -0.0339 C   0  0  0  0  0  0  0  0  0  0  0  0
   -4.3053    1.3294   -0.3635 C   0  0  0  0  0  0  0  0  0  0  0  0
   -4.7702    2.3078   -0.5436 H   0  0  0  0  0  0  0  0  0  0  0  0
   -3.0707   -1.1547    0.0168 C   0  0  0  0  0  0  0  0  0  0  0  0
   -2.5098   -2.5670    0.1479 C   0  0  0  0  0  0  0  0  0  0  0  0
   -2.3034    0.0265    0.1988 C   0  0  0  0  0  0  0  0  0  0  0  0
   -2.2433    2.6309    0.0563 C   0  0  0  0  0  0  0  0  0  0  0  0
   -1.2376   -2.6710   -0.2799 F   0  0  0  0  0  0  0  0  0  0  0  0
   -0.9563    2.5985   -0.3438 F   0  0  0  0  0  0  0  0  0  0  0  0
   -2.2788    3.1181    1.3262 F   0  0  0  0  0  0  0  0  0  0  0  0
   -2.5648   -3.0021    1.4361 F   0  0  0  0  0  0  0  0  0  0  0  0
   -3.2427   -3.4438   -0.5789 F   0  0  0  0  0  0  0  0  0  0  0  0
   -2.8715    3.5457   -0.7187 F   0  0  0  0  0  0  0  0  0  0  0  0
   -4.4345   -1.0766   -0.3140 C   0  0  0  0  0  0  0  0  0  0  0  0
   -5.0004   -2.0068   -0.4561 H   0  0  0  0  0  0  0  0  0  0  0  0
   -5.0582    0.1602   -0.4887 C   0  0  0  0  0  0  0  0  0  0  0  0
   -6.1249    0.2123   -0.7496 H   0  0  0  0  0  0  0  0  0  0  0  0
  1  5  1  0  0  0  0
  1  6  1  0  0  0  0
  2  7  1  0  0  0  0
  2  4  1  0  0  0  0
  3  2  1  0  0  0  0
  5  7  1  0  0  0  0
  6  2  1  0  0  0  0
  7  9  1  0  0  0  0
  7  8  1  0  0  0  0
 10 16  1  0  0  0  0
 10 15  1  0  0  0  0
 11 10  2  0  0  0  0
 12 11  1  0  0  0  0
 13 14  1  0  0  0  0
 13 15  2  0  0  0  0
 14 20  1  0  0  0  0
 15  1  1  0  0  0  0
 16 19  1  0  0  0  0
 17 14  1  0  0  0  0
 18 16  1  0  0  0  0
 21 14  1  0  0  0  0
 22 16  1  0  0  0  0
 23 13  1  0  0  0  0
 24 23  1  0  0  0  0
 25 11  1  0  0  0  0
 25 23  2  0  0  0  0
 26 25  1  0  0  0  0
M  END
