1
q = 0.0, confidence = 0.998

 35 37  0  0  0  0  0  0  0  0999 V2000
    1.1854    0.5235    0.2024 P   0  0  0  0  0  0  0  0  0  0  0  0
    2.2595   -0.0603    1.4411 N   0  0  0  0  0  0  0  0  0  0  0  0
    2.3222    0.4679    2.3130 H   0  0  0  0  0  0  0  0  0  0  0  0
    2.2767    0.8753   -1.2237 C   0  0  0  0  0  0  0  0  0  0  0  0
    1.6754    1.0754   -2.4814 C   0  0  0  0  0  0  0  0  0  0  0  0
    0.5825    0.9781   -2.5861 H   0  0  0  0  0  0  0  0  0  0  0  0
    2.4716    1.3790   -3.5950 C   0  0  0  0  0  0  0  0  0  0  0  0
    2.0001    1.5338   -4.5771 H   0  0  0  0  0  0  0  0  0  0  0  0
    3.8666    1.4708   -3.4593 C   0  0  0  0  0  0  0  0  0  0  0  0
    4.4905    1.7003   -4.3364 H   0  0  0  0  0  0  0  0  0  0  0  0
    4.4669    1.2568   -2.2078 C   0  0  0  0  0  0  0  0  0  0  0  0
    5.5610    1.3158   -2.1033 H   0  0  0  0  0  0  0  0  0  0  0  0
    3.6752    0.9593   -1.0887 C   0  0  0  0  0  0  0  0  0  0  0  0
    4.1369    0.7777   -0.1062 H   0  0  0  0  0  0  0  0  0  0  0  0
    2.6695   -1.3884    1.4232 C   0  0  0  0  0  0  0  0  0  0  0  0
    3.3406   -1.9949    2.5115 C   0  0  0  0  0  0  0  0  0  0  0  0
    3.5494   -1.4304    3.4325 H   0  0  0  0  0  0  0  0  0  0  0  0
    3.7224   -3.3317    2.3745 C   0  0  0  0  0  0  0  0  0  0  0  0
    4.2446   -3.8384    3.2003 H   0  0  0  0  0  0  0  0  0  0  0  0
    3.4296   -4.0225    1.1845 C   0  0  0  0  0  0  0  0  0  0  0  0
    3.7123   -5.0756    1.0481 H   0  0  0  0  0  0  0  0  0  0  0  0
    2.7560   -3.3268    0.1714 C   0  0  0  0  0  0  0  0  0  0  0  0
    2.4938   -3.8234   -0.7787 H   0  0  0  0  0  0  0  0  0  0  0  0
    2.3887   -2.0420    0.2829 N   0  0  0  0  0  0  0  0  0  0  0  0
    0.8082    2.1694    0.9284 C   0  0  0  0  0  0  0  0  0  0  0  0
   -0.4267    2.3466    1.5870 C   0  0  0  0  0  0  0  0  0  0  0  0
   -1.1457    1.5117    1.6268 H   0  0  0  0  0  0  0  0  0  0  0  0
   -0.7379    3.5807    2.1764 C   0  0  0  0  0  0  0  0  0  0  0  0
   -1.7040    3.7130    2.6863 H   0  0  0  0  0  0  0  0  0  0  0  0
    0.1770    4.6436    2.1063 C   0  0  0  0  0  0  0  0  0  0  0  0
   -0.0711    5.6139    2.5626 H   0  0  0  0  0  0  0  0  0  0  0  0
    1.4049    4.4729    1.4456 C   0  0  0  0  0  0  0  0  0  0  0  0
    2.1183    5.3085    1.3822 H   0  0  0  0  0  0  0  0  0  0  0  0
    1.7223    3.2408    0.8550 C   0  0  0  0  0  0  0  0  0  0  0  0
    2.6764    3.1142    0.3209 H   0  0  0  0  0  0  0  0  0  0  0  0
  1 25  1  0  0  0  0
  1  2  1  0  0  0  0
  2  3  1  0  0  0  0
  4 13  1  0  0  0  0
  4  1  1  0  0  0  0
  5  4  2  0  0  0  0
  6  5  1  0  0  0  0
  7  9  2  0  0  0  0
  7  5  1  0  0  0  0
  8  7  1  0  0  0  0
  9 11  1  0  0  0  0
 10  9  1  0  0  0  0
 11 12  1  0  0  0  0
 11 13  2  0  0  0  0
 13 14  1  0  0  0  0
 15  2  1  0  0  0  0
 15 16  1  0  0  0  0
 16 17  1  0  0  0  0
 18 16  2  0  0  0  0
 18 19  1  0  0  0  0
 20 18  1  0  0  0  0
 21 20  1  0  0  0  0
 22 24  1  0  0  0  0
 22 20  2  0  0  0  0
 23 22  1  0  0  0  0
 24 15  2  0  0  0  0
 25 26  1  0  0  0  0
 26 27  1  0  0  0  0
 26 28  2  0  0  0  0
 28 29  1  0  0  0  0
 30 28  1  0  0  0  0
 30 31  1  0  0  0  0
 32 30  2  0  0  0  0
 33 32  1  0  0  0  0
 34 25  2  0  0  0  0
 34 32  1  0  0  0  0
 35 34  1  0  0  0  0
M  END
