1
q = -1.0

 49 48  0  0  0  0  0  0  0  0999 V2000
   -0.3647    0.2509    0.0019 P   0  0  0  0  0  2  0  0  0  0  0  0
    2.1777   -0.1669   -1.5532 Si  0  0  0  0  0  0  0  0  0  0  0  0
    1.8661   -1.0640    1.4809 Si  0  0  0  0  0  0  0  0  0  0  0  0
   -0.3497    1.9378    0.2348 N   0  0  0  0  0  0  0  0  0  0  0  0
    1.3004   -0.1371    0.0303 N   0  0  0  0  0  0  0  0  0  0  0  0
    3.6603    1.0042   -1.4985 C   0  0  0  0  0  0  0  0  0  0  0  0
    4.3922    0.7084   -0.7222 H   0  0  0  0  0  0  0  0  0  0  0  0
    3.3535    2.0502   -1.3015 H   0  0  0  0  0  0  0  0  0  0  0  0
    4.1816    0.9853   -2.4785 H   0  0  0  0  0  0  0  0  0  0  0  0
    0.9771    0.3902   -2.8990 C   0  0  0  0  0  0  0  0  0  0  0  0
    0.5884    1.4141   -2.7293 H   0  0  0  0  0  0  0  0  0  0  0  0
    0.1067   -0.2924   -2.9682 H   0  0  0  0  0  0  0  0  0  0  0  0
    1.5031    0.3852   -3.8762 H   0  0  0  0  0  0  0  0  0  0  0  0
    2.7614   -1.9186   -1.9333 C   0  0  0  0  0  0  0  0  0  0  0  0
    3.4743   -2.3055   -1.1783 H   0  0  0  0  0  0  0  0  0  0  0  0
    3.2781   -1.9285   -2.9154 H   0  0  0  0  0  0  0  0  0  0  0  0
    1.9000   -2.6137   -1.9891 H   0  0  0  0  0  0  0  0  0  0  0  0
    3.7339   -0.8110    1.6215 C   0  0  0  0  0  0  0  0  0  0  0  0
    3.9940    0.2639    1.6971 H   0  0  0  0  0  0  0  0  0  0  0  0
    4.2931   -1.2454    0.7692 H   0  0  0  0  0  0  0  0  0  0  0  0
    4.0934   -1.3141    2.5431 H   0  0  0  0  0  0  0  0  0  0  0  0
    1.4608   -2.8988    1.3815 C   0  0  0  0  0  0  0  0  0  0  0  0
    0.3656   -3.0522    1.4417 H   0  0  0  0  0  0  0  0  0  0  0  0
    1.9337   -3.4302    2.2337 H   0  0  0  0  0  0  0  0  0  0  0  0
    1.8164   -3.3626    0.4417 H   0  0  0  0  0  0  0  0  0  0  0  0
    1.0330   -0.3327    3.0078 C   0  0  0  0  0  0  0  0  0  0  0  0
   -0.0724   -0.3915    2.9440 H   0  0  0  0  0  0  0  0  0  0  0  0
    1.3238    0.7237    3.1720 H   0  0  0  0  0  0  0  0  0  0  0  0
    1.3433   -0.9128    3.9015 H   0  0  0  0  0  0  0  0  0  0  0  0
   -1.6250    2.7104    0.1500 C   0  0  0  0  0  0  0  0  0  0  0  0
   -1.3387    3.7505    0.4073 H   0  0  0  0  0  0  0  0  0  0  0  0
   -2.1776    2.7439   -1.2801 C   0  0  0  0  0  0  0  0  0  0  0  0
   -1.4209    3.1414   -1.9848 H   0  0  0  0  0  0  0  0  0  0  0  0
   -3.0701    3.3994   -1.3270 H   0  0  0  0  0  0  0  0  0  0  0  0
   -2.4783    1.7379   -1.6252 H   0  0  0  0  0  0  0  0  0  0  0  0
   -2.6526    2.2593    1.1937 C   0  0  0  0  0  0  0  0  0  0  0  0
   -2.2244    2.3163    2.2141 H   0  0  0  0  0  0  0  0  0  0  0  0
   -2.9710    1.2152    1.0118 H   0  0  0  0  0  0  0  0  0  0  0  0
   -3.5457    2.9142    1.1531 H   0  0  0  0  0  0  0  0  0  0  0  0
    0.8609    2.7300    0.5487 C   0  0  0  0  0  0  0  0  0  0  0  0
    1.6817    1.9877    0.5842 H   0  0  0  0  0  0  0  0  0  0  0  0
    1.1854    3.7466   -0.5531 C   0  0  0  0  0  0  0  0  0  0  0  0
    1.2771    3.2546   -1.5406 H   0  0  0  0  0  0  0  0  0  0  0  0
    2.1469    4.2511   -0.3298 H   0  0  0  0  0  0  0  0  0  0  0  0
    0.4103    4.5362   -0.6333 H   0  0  0  0  0  0  0  0  0  0  0  0
    0.7626    3.3952    1.9284 C   0  0  0  0  0  0  0  0  0  0  0  0
    0.5118    2.6535    2.7108 H   0  0  0  0  0  0  0  0  0  0  0  0
   -0.0047    4.1958    1.9559 H   0  0  0  0  0  0  0  0  0  0  0  0
    1.7337    3.8616    2.1899 H   0  0  0  0  0  0  0  0  0  0  0  0
  1  5  1  0  0  0  0
  1  4  1  0  0  0  0
  2  6  1  0  0  0  0
  2  5  1  0  0  0  0
  3 18  1  0  0  0  0
  3 26  1  0  0  0  0
  4 40  1  0  0  0  0
  5  3  1  0  0  0  0
  6  8  1  0  0  0  0
  6  7  1  0  0  0  0
  9  6  1  0  0  0  0
 10 11  1  0  0  0  0
 10  2  1  0  0  0  0
 12 10  1  0  0  0  0
 13 10  1  0  0  0  0
 14  2  1  0  0  0  0
 14 15  1  0  0  0  0
 16 14  1  0  0  0  0
 17 14  1  0  0  0  0
 18 19  1  0  0  0  0
 18 21  1  0  0  0  0
 20 18  1  0  0  0  0
 22 23  1  0  0  0  0
 22  3  1  0  0  0  0
 22 24  1  0  0  0  0
 25 22  1  0  0  0  0
 26 28  1  0  0  0  0
 26 29  1  0  0  0  0
 27 26  1  0  0  0  0
 30  4  1  0  0  0  0
 30 31  1  0  0  0  0
 30 36  1  0  0  0  0
 32 30  1  0  0  0  0
 33 32  1  0  0  0  0
 34 32  1  0  0  0  0
 35 32  1  0  0  0  0
 36 37  1  0  0  0  0
 38 36  1  0  0  0  0
 39 36  1  0  0  0  0
 40 41  1  0  0  0  0
 40 46  1  0  0  0  0
 42 44  1  0  0  0  0
 42 40  1  0  0  0  0
 43 42  1  0  0  0  0
 45 42  1  0  0  0  0
 46 48  1  0  0  0  0
 46 49  1  0  0  0  0
 46 47  1  0  0  0  0
M  END
