1
q = 0.0, confidence = 0.994

 59 64  0  0  1  0  0  0  0  0999 V2000
    0.0301   -0.0537    0.1689 P   0  0  1  0  0  0  0  0  0  0  0  0
    1.2210   -0.7924   -0.7795 O   0  0  0  0  0  0  0  0  0  0  0  0
    0.8741   -0.5237    1.7153 C   0  0  0  0  0  0  0  0  0  0  0  0
    1.9243   -1.4148    1.4093 C   0  0  0  0  0  0  0  0  0  0  0  0
    2.0009   -1.7733   -0.0716 C   0  0  2  0  0  0  0  0  0  0  0  0
    1.5018   -2.7647   -0.1958 H   0  0  0  0  0  0  0  0  0  0  0  0
    0.5979   -0.1480    3.0402 C   0  0  0  0  0  0  0  0  0  0  0  0
   -0.2313    0.5372    3.2681 H   0  0  0  0  0  0  0  0  0  0  0  0
    1.4161   -0.6492    4.0641 C   0  0  0  0  0  0  0  0  0  0  0  0
    1.2241   -0.3560    5.1070 H   0  0  0  0  0  0  0  0  0  0  0  0
    2.4818   -1.5170    3.7631 C   0  0  0  0  0  0  0  0  0  0  0  0
    3.1227   -1.8958    4.5735 H   0  0  0  0  0  0  0  0  0  0  0  0
    2.7357   -1.9104    2.4388 C   0  0  0  0  0  0  0  0  0  0  0  0
    3.5712   -2.5878    2.2078 H   0  0  0  0  0  0  0  0  0  0  0  0
    3.3940   -1.8821   -0.6534 C   0  0  0  0  0  0  0  0  0  0  0  0
    3.9719   -0.8237   -1.3740 C   0  0  0  0  0  0  0  0  0  0  0  0
    3.3852    0.0865   -1.5524 H   0  0  0  0  0  0  0  0  0  0  0  0
    5.2785   -0.9414   -1.8701 C   0  0  0  0  0  0  0  0  0  0  0  0
    5.7190   -0.1039   -2.4324 H   0  0  0  0  0  0  0  0  0  0  0  0
    6.0191   -2.1136   -1.6518 C   0  0  0  0  0  0  0  0  0  0  0  0
    7.0445   -2.2025   -2.0417 H   0  0  0  0  0  0  0  0  0  0  0  0
    5.4387   -3.1807   -0.9473 C   0  0  0  0  0  0  0  0  0  0  0  0
    6.0039   -4.1118   -0.7889 H   0  0  0  0  0  0  0  0  0  0  0  0
    4.1284   -3.0689   -0.4594 C   0  0  0  0  0  0  0  0  0  0  0  0
    3.6648   -3.9196    0.0658 H   0  0  0  0  0  0  0  0  0  0  0  0
    0.3851    1.8649   -0.1092 C   0  0  0  0  0  0  0  0  0  0  0  0
   -0.4165    2.2465   -1.3593 C   0  0  0  0  0  0  0  0  0  0  0  0
   -0.3799    1.4154   -2.5013 C   0  0  0  0  0  0  0  0  0  0  0  0
    0.2307    0.4997   -2.4913 H   0  0  0  0  0  0  0  0  0  0  0  0
   -1.0922    1.7514   -3.6602 C   0  0  0  0  0  0  0  0  0  0  0  0
   -1.0610    1.0760   -4.5284 H   0  0  0  0  0  0  0  0  0  0  0  0
   -1.8449    2.9354   -3.7054 C   0  0  0  0  0  0  0  0  0  0  0  0
   -2.4135    3.1971   -4.6104 H   0  0  0  0  0  0  0  0  0  0  0  0
   -1.8665    3.7820   -2.5875 C   0  0  0  0  0  0  0  0  0  0  0  0
   -2.4471    4.7165   -2.6138 H   0  0  0  0  0  0  0  0  0  0  0  0
   -1.1602    3.4398   -1.4237 C   0  0  0  0  0  0  0  0  0  0  0  0
   -1.1919    4.1085   -0.5519 H   0  0  0  0  0  0  0  0  0  0  0  0
   -0.1667    2.5336    1.1593 C   0  0  0  0  0  0  0  0  0  0  0  0
   -1.5218    2.3323    1.5096 C   0  0  0  0  0  0  0  0  0  0  0  0
   -2.1699    1.7567    0.8376 H   0  0  0  0  0  0  0  0  0  0  0  0
   -2.0583    2.8596    2.6918 C   0  0  0  0  0  0  0  0  0  0  0  0
   -3.1105    2.6598    2.9432 H   0  0  0  0  0  0  0  0  0  0  0  0
   -1.2571    3.6360    3.5434 C   0  0  0  0  0  0  0  0  0  0  0  0
   -1.6732    4.0529    4.4729 H   0  0  0  0  0  0  0  0  0  0  0  0
    0.0737    3.8919    3.1827 C   0  0  0  0  0  0  0  0  0  0  0  0
    0.7077    4.5243    3.8227 H   0  0  0  0  0  0  0  0  0  0  0  0
    0.6132    3.3476    2.0062 C   0  0  0  0  0  0  0  0  0  0  0  0
    1.6558    3.5692    1.7449 H   0  0  0  0  0  0  0  0  0  0  0  0
    1.8897    2.0821   -0.3091 C   0  0  0  0  0  0  0  0  0  0  0  0
    2.3929    2.6625   -1.4932 C   0  0  0  0  0  0  0  0  0  0  0  0
    1.7003    2.9474   -2.2958 H   0  0  0  0  0  0  0  0  0  0  0  0
    3.7674    2.8970   -1.6621 C   0  0  0  0  0  0  0  0  0  0  0  0
    4.1240    3.3563   -2.5965 H   0  0  0  0  0  0  0  0  0  0  0  0
    4.6766    2.5549   -0.6518 C   0  0  0  0  0  0  0  0  0  0  0  0
    5.7540    2.7347   -0.7850 H   0  0  0  0  0  0  0  0  0  0  0  0
    4.1940    1.9744    0.5311 C   0  0  0  0  0  0  0  0  0  0  0  0
    4.8908    1.6889    1.3333 H   0  0  0  0  0  0  0  0  0  0  0  0
    2.8228    1.7444    0.7007 C   0  0  0  0  0  0  0  0  0  0  0  0
    2.4764    1.2996    1.6410 H   0  0  0  0  0  0  0  0  0  0  0  0
  1 26  1  6  0  0  0
  1  3  1  0  0  0  0
  2  5  1  0  0  0  0
  2  1  1  0  0  0  0
  3  7  1  0  0  0  0
  4  3  2  0  0  0  0
  4 13  1  0  0  0  0
  5  6  1  6  0  0  0
  5  4  1  0  0  0  0
  7  8  1  0  0  0  0
  7  9  2  0  0  0  0
  9 10  1  0  0  0  0
 11  9  1  0  0  0  0
 11 12  1  0  0  0  0
 13 11  2  0  0  0  0
 14 13  1  0  0  0  0
 15 24  1  0  0  0  0
 15  5  1  0  0  0  0
 16 15  2  0  0  0  0
 17 16  1  0  0  0  0
 18 20  2  0  0  0  0
 18 16  1  0  0  0  0
 19 18  1  0  0  0  0
 20 22  1  0  0  0  0
 21 20  1  0  0  0  0
 22 23  1  0  0  0  0
 22 24  2  0  0  0  0
 24 25  1  0  0  0  0
 26 38  1  0  0  0  0
 27 26  1  0  0  0  0
 28 29  1  0  0  0  0
 28 27  2  0  0  0  0
 30 28  1  0  0  0  0
 31 30  1  0  0  0  0
 32 30  2  0  0  0  0
 32 34  1  0  0  0  0
 33 32  1  0  0  0  0
 34 36  2  0  0  0  0
 35 34  1  0  0  0  0
 36 27  1  0  0  0  0
 36 37  1  0  0  0  0
 38 39  2  0  0  0  0
 38 47  1  0  0  0  0
 39 41  1  0  0  0  0
 40 39  1  0  0  0  0
 41 42  1  0  0  0  0
 41 43  2  0  0  0  0
 43 44  1  0  0  0  0
 45 43  1  0  0  0  0
 45 46  1  0  0  0  0
 47 45  2  0  0  0  0
 48 47  1  0  0  0  0
 49 26  1  0  0  0  0
 49 58  1  0  0  0  0
 50 49  2  0  0  0  0
 51 50  1  0  0  0  0
 52 50  1  0  0  0  0
 52 54  2  0  0  0  0
 53 52  1  0  0  0  0
 54 56  1  0  0  0  0
 55 54  1  0  0  0  0
 56 58  2  0  0  0  0
 56 57  1  0  0  0  0
 58 59  1  0  0  0  0
M  END
