1
q = 0.0, confidence = 0.996

 59 62  0  0  0  0  0  0  0  0999 V2000
    2.1362   -1.1869    0.0951 P   0  0  0  0  0  0  0  0  0  0  0  0
   -4.8259   -0.9507    0.0532 P   0  0  0  0  0  0  0  0  0  0  0  0
   -5.0617   -2.4526    0.1037 O   0  0  0  0  0  0  0  0  0  0  0  0
    0.4250   -1.5801    0.6772 C   0  0  0  0  0  0  0  0  0  0  0  0
   -0.6437   -0.8930   -0.1781 C   0  0  0  0  0  0  0  0  0  0  0  0
   -3.1390   -0.4855   -0.5182 C   0  0  0  0  0  0  0  0  0  0  0  0
   -2.0618   -1.1624    0.3329 C   0  0  0  0  0  0  0  0  0  0  0  0
    2.2609   -2.0634   -1.5147 C   0  0  0  0  0  0  0  0  0  0  0  0
    2.1496   -1.3266   -2.7108 C   0  0  0  0  0  0  0  0  0  0  0  0
    2.1816   -1.9886   -3.9478 C   0  0  0  0  0  0  0  0  0  0  0  0
    2.3325   -3.3831   -3.9959 C   0  0  0  0  0  0  0  0  0  0  0  0
    2.4529   -4.1190   -2.8051 C   0  0  0  0  0  0  0  0  0  0  0  0
    2.4178   -3.4639   -1.5660 C   0  0  0  0  0  0  0  0  0  0  0  0
    3.2750   -2.0867    1.2132 C   0  0  0  0  0  0  0  0  0  0  0  0
    2.8480   -3.1194    2.0728 C   0  0  0  0  0  0  0  0  0  0  0  0
    3.7773   -3.7834    2.8894 C   0  0  0  0  0  0  0  0  0  0  0  0
    5.1334   -3.4258    2.8508 C   0  0  0  0  0  0  0  0  0  0  0  0
    5.5625   -2.3949    1.9982 C   0  0  0  0  0  0  0  0  0  0  0  0
    4.6385   -1.7233    1.1871 C   0  0  0  0  0  0  0  0  0  0  0  0
   -5.0246   -0.1630    1.6982 C   0  0  0  0  0  0  0  0  0  0  0  0
   -5.6821   -0.9360    2.6751 C   0  0  0  0  0  0  0  0  0  0  0  0
   -5.8833   -0.4172    3.9625 C   0  0  0  0  0  0  0  0  0  0  0  0
   -5.4217    0.8698    4.2828 C   0  0  0  0  0  0  0  0  0  0  0  0
   -4.7529    1.6382    3.3157 C   0  0  0  0  0  0  0  0  0  0  0  0
   -4.5527    1.1243    2.0255 C   0  0  0  0  0  0  0  0  0  0  0  0
   -5.9821   -0.1070   -1.0917 C   0  0  0  0  0  0  0  0  0  0  0  0
   -6.8536   -0.9423   -1.8165 C   0  0  0  0  0  0  0  0  0  0  0  0
   -7.7628   -0.3830   -2.7271 C   0  0  0  0  0  0  0  0  0  0  0  0
   -7.8041    1.0076   -2.9154 C   0  0  0  0  0  0  0  0  0  0  0  0
   -6.9372    1.8428   -2.1904 C   0  0  0  0  0  0  0  0  0  0  0  0
   -6.0275    1.2887   -1.2781 C   0  0  0  0  0  0  0  0  0  0  0  0
    0.2882   -2.6825    0.6634 H   0  0  0  0  0  0  0  0  0  0  0  0
    0.3656   -1.2430    1.7342 H   0  0  0  0  0  0  0  0  0  0  0  0
   -0.4493    0.2022   -0.1950 H   0  0  0  0  0  0  0  0  0  0  0  0
   -0.5539   -1.2359   -1.2320 H   0  0  0  0  0  0  0  0  0  0  0  0
   -2.2669   -2.2543    0.3529 H   0  0  0  0  0  0  0  0  0  0  0  0
   -2.1484   -0.8146    1.3857 H   0  0  0  0  0  0  0  0  0  0  0  0
   -3.0845   -0.8216   -1.5758 H   0  0  0  0  0  0  0  0  0  0  0  0
   -3.0305    0.6202   -0.5276 H   0  0  0  0  0  0  0  0  0  0  0  0
    2.0469   -0.2303   -2.6646 H   0  0  0  0  0  0  0  0  0  0  0  0
    2.0958   -1.4083   -4.8787 H   0  0  0  0  0  0  0  0  0  0  0  0
    2.3636   -3.9003   -4.9668 H   0  0  0  0  0  0  0  0  0  0  0  0
    2.5800   -5.2115   -2.8415 H   0  0  0  0  0  0  0  0  0  0  0  0
    2.5259   -4.0423   -0.6352 H   0  0  0  0  0  0  0  0  0  0  0  0
    1.7886   -3.4107    2.1168 H   0  0  0  0  0  0  0  0  0  0  0  0
    3.4358   -4.5851    3.5614 H   0  0  0  0  0  0  0  0  0  0  0  0
    5.8587   -3.9472    3.4934 H   0  0  0  0  0  0  0  0  0  0  0  0
    6.6233   -2.1039    1.9721 H   0  0  0  0  0  0  0  0  0  0  0  0
    4.9690   -0.9004    0.5333 H   0  0  0  0  0  0  0  0  0  0  0  0
   -6.0158   -1.9491    2.4011 H   0  0  0  0  0  0  0  0  0  0  0  0
   -6.3992   -1.0231    4.7231 H   0  0  0  0  0  0  0  0  0  0  0  0
   -5.5770    1.2754    5.2942 H   0  0  0  0  0  0  0  0  0  0  0  0
   -4.3800    2.6423    3.5689 H   0  0  0  0  0  0  0  0  0  0  0  0
   -4.0148    1.7326    1.2816 H   0  0  0  0  0  0  0  0  0  0  0  0
   -6.7987   -2.0285   -1.6428 H   0  0  0  0  0  0  0  0  0  0  0  0
   -8.4447   -1.0367   -3.2924 H   0  0  0  0  0  0  0  0  0  0  0  0
   -8.5180    1.4460   -3.6294 H   0  0  0  0  0  0  0  0  0  0  0  0
   -6.9727    2.9334   -2.3347 H   0  0  0  0  0  0  0  0  0  0  0  0
   -5.3610    1.9527   -0.7064 H   0  0  0  0  0  0  0  0  0  0  0  0
  1  4  1  0  0  0  0
  1 14  1  0  0  0  0
  2  3  2  0  0  0  0
  2 20  1  0  0  0  0
  4 33  1  0  0  0  0
  5  7  1  0  0  0  0
  5  4  1  0  0  0  0
  6  2  1  0  0  0  0
  6  7  1  0  0  0  0
  7 36  1  0  0  0  0
  7 37  1  0  0  0  0
  8  1  1  0  0  0  0
  9 40  1  0  0  0  0
  9  8  2  0  0  0  0
 10  9  1  0  0  0  0
 11 10  2  0  0  0  0
 11 12  1  0  0  0  0
 12 13  2  0  0  0  0
 13  8  1  0  0  0  0
 13 44  1  0  0  0  0
 14 15  1  0  0  0  0
 15 45  1  0  0  0  0
 15 16  2  0  0  0  0
 16 46  1  0  0  0  0
 17 16  1  0  0  0  0
 17 47  1  0  0  0  0
 18 17  2  0  0  0  0
 19 14  2  0  0  0  0
 19 18  1  0  0  0  0
 20 25  2  0  0  0  0
 20 21  1  0  0  0  0
 21 22  2  0  0  0  0
 22 23  1  0  0  0  0
 22 51  1  0  0  0  0
 23 52  1  0  0  0  0
 24 53  1  0  0  0  0
 24 23  2  0  0  0  0
 25 24  1  0  0  0  0
 26  2  1  0  0  0  0
 27 55  1  0  0  0  0
 27 26  2  0  0  0  0
 28 27  1  0  0  0  0
 29 28  2  0  0  0  0
 29 30  1  0  0  0  0
 30 31  2  0  0  0  0
 31 26  1  0  0  0  0
 31 59  1  0  0  0  0
 32  4  1  0  0  0  0
 34  5  1  0  0  0  0
 35  5  1  0  0  0  0
 38  6  1  0  0  0  0
 39  6  1  0  0  0  0
 41 10  1  0  0  0  0
 42 11  1  0  0  0  0
 43 12  1  0  0  0  0
 48 18  1  0  0  0  0
 49 19  1  0  0  0  0
 50 21  1  0  0  0  0
 54 25  1  0  0  0  0
 56 28  1  0  0  0  0
 57 29  1  0  0  0  0
 58 30  1  0  0  0  0
M  END
