1
q = 0.0, confidence = 0.994

 62 68  0  0  0  0  0  0  0  0999 V2000
   -0.7564    0.0354   -0.0949 P   0  0  0  0  0  0  0  0  0  0  0  0
   -1.9031    0.0853   -1.3078 O   0  0  0  0  0  0  0  0  0  0  0  0
   -1.6606    0.5300    1.2236 O   0  0  0  0  0  0  0  0  0  0  0  0
    1.5388    1.6374   -0.1814 C   0  0  0  0  0  0  0  0  0  0  0  0
    2.2111    0.5767    0.6286 C   0  0  0  0  0  0  0  0  0  0  0  0
    0.2048    1.5014   -0.5948 C   0  0  0  0  0  0  0  0  0  0  0  0
    2.0059    0.5169    2.0060 C   0  0  0  0  0  0  0  0  0  0  0  0
    1.3527    1.2609    2.4840 H   0  0  0  0  0  0  0  0  0  0  0  0
   -0.4436    2.5310   -1.3444 C   0  0  0  0  0  0  0  0  0  0  0  0
   -1.4868    2.3895   -1.6567 H   0  0  0  0  0  0  0  0  0  0  0  0
    2.6128   -0.4967    2.7917 C   0  0  0  0  0  0  0  0  0  0  0  0
    2.4210   -0.5290    3.8743 H   0  0  0  0  0  0  0  0  0  0  0  0
    0.2425    3.6839   -1.6760 C   0  0  0  0  0  0  0  0  0  0  0  0
   -0.2574    4.4779   -2.2520 H   0  0  0  0  0  0  0  0  0  0  0  0
    3.4209   -1.4500    2.1950 C   0  0  0  0  0  0  0  0  0  0  0  0
    3.8724   -2.2554    2.7935 H   0  0  0  0  0  0  0  0  0  0  0  0
    2.3281    5.0454   -1.6239 C   0  0  0  0  0  0  0  0  0  0  0  0
    1.8175    5.8329   -2.1995 H   0  0  0  0  0  0  0  0  0  0  0  0
    4.4572   -2.4201    0.1511 C   0  0  0  0  0  0  0  0  0  0  0  0
    4.8952   -3.2189    0.7684 H   0  0  0  0  0  0  0  0  0  0  0  0
    3.6507    5.1996   -1.2370 C   0  0  0  0  0  0  0  0  0  0  0  0
    4.1999    6.1150   -1.5046 H   0  0  0  0  0  0  0  0  0  0  0  0
    4.6553   -2.3996   -1.2202 C   0  0  0  0  0  0  0  0  0  0  0  0
    5.2628   -3.1805   -1.7017 H   0  0  0  0  0  0  0  0  0  0  0  0
    4.3018    4.1794   -0.4927 C   0  0  0  0  0  0  0  0  0  0  0  0
    5.3510    4.3112   -0.1886 H   0  0  0  0  0  0  0  0  0  0  0  0
    4.0612   -1.3810   -2.0117 C   0  0  0  0  0  0  0  0  0  0  0  0
    4.2173   -1.3760   -3.1011 H   0  0  0  0  0  0  0  0  0  0  0  0
    3.6230    3.0213   -0.1460 C   0  0  0  0  0  0  0  0  0  0  0  0
    4.1243    2.2323    0.4327 H   0  0  0  0  0  0  0  0  0  0  0  0
    3.2765   -0.4007   -1.4226 C   0  0  0  0  0  0  0  0  0  0  0  0
    2.8072    0.3789   -2.0405 H   0  0  0  0  0  0  0  0  0  0  0  0
    2.2625    2.8287   -0.5327 C   0  0  0  0  0  0  0  0  0  0  0  0
    3.0560   -0.3937   -0.0135 C   0  0  0  0  0  0  0  0  0  0  0  0
    1.6017    3.8662   -1.2875 C   0  0  0  0  0  0  0  0  0  0  0  0
    3.6631   -1.4256    0.7910 C   0  0  0  0  0  0  0  0  0  0  0  0
   -4.0768   -0.0007   -0.2620 C   0  0  0  0  0  0  0  0  0  0  0  0
   -3.8168    1.2949    0.4148 C   0  0  0  0  0  0  0  0  0  0  0  0
   -3.1031   -0.5972   -1.0949 C   0  0  0  0  0  0  0  0  0  0  0  0
   -2.6054    1.5476    1.1039 C   0  0  0  0  0  0  0  0  0  0  0  0
   -3.3162   -1.8082   -1.7847 C   0  0  0  0  0  0  0  0  0  0  0  0
   -2.3454    2.7710    1.7590 C   0  0  0  0  0  0  0  0  0  0  0  0
   -4.5700   -2.4273   -1.6225 C   0  0  0  0  0  0  0  0  0  0  0  0
   -4.7637   -3.3751   -2.1481 H   0  0  0  0  0  0  0  0  0  0  0  0
   -3.3475    3.7582    1.7198 C   0  0  0  0  0  0  0  0  0  0  0  0
   -3.1653    4.7179    2.2280 H   0  0  0  0  0  0  0  0  0  0  0  0
   -5.5615   -1.8608   -0.8072 C   0  0  0  0  0  0  0  0  0  0  0  0
   -6.5307   -2.3681   -0.6901 H   0  0  0  0  0  0  0  0  0  0  0  0
   -4.5602    3.5364    1.0508 C   0  0  0  0  0  0  0  0  0  0  0  0
   -5.3283    4.3237    1.0283 H   0  0  0  0  0  0  0  0  0  0  0  0
   -5.3197   -0.6572   -0.1347 C   0  0  0  0  0  0  0  0  0  0  0  0
   -6.0884   -0.2194    0.5192 H   0  0  0  0  0  0  0  0  0  0  0  0
   -4.7921    2.3158    0.4068 C   0  0  0  0  0  0  0  0  0  0  0  0
   -5.7340    2.1422   -0.1344 H   0  0  0  0  0  0  0  0  0  0  0  0
   -2.2345   -2.3905   -2.6525 C   0  0  0  0  0  0  0  0  0  0  0  0
   -1.8299   -1.6335   -3.3538 H   0  0  0  0  0  0  0  0  0  0  0  0
   -2.6103   -3.2531   -3.2336 H   0  0  0  0  0  0  0  0  0  0  0  0
   -1.3775   -2.7399   -2.0356 H   0  0  0  0  0  0  0  0  0  0  0  0
   -1.0430    2.9895    2.4804 C   0  0  0  0  0  0  0  0  0  0  0  0
   -0.8195    2.1462    3.1645 H   0  0  0  0  0  0  0  0  0  0  0  0
   -1.0674    3.9259    3.0685 H   0  0  0  0  0  0  0  0  0  0  0  0
   -0.1968    3.0580    1.7650 H   0  0  0  0  0  0  0  0  0  0  0  0
  1  3  1  0  0  0  0
  2 39  1  0  0  0  0
  2  1  1  0  0  0  0
  4  5  1  0  0  0  0
  5  7  1  0  0  0  0
  6  4  2  0  0  0  0
  6  1  1  0  0  0  0
  7  8  1  0  0  0  0
  7 11  2  0  0  0  0
  9  6  1  0  0  0  0
 10  9  1  0  0  0  0
 11 12  1  0  0  0  0
 13  9  2  0  0  0  0
 13 35  1  0  0  0  0
 14 13  1  0  0  0  0
 15 11  1  0  0  0  0
 15 16  1  0  0  0  0
 17 35  2  0  0  0  0
 17 21  1  0  0  0  0
 18 17  1  0  0  0  0
 19 20  1  0  0  0  0
 19 36  1  0  0  0  0
 21 25  2  0  0  0  0
 22 21  1  0  0  0  0
 23 19  2  0  0  0  0
 24 23  1  0  0  0  0
 25 26  1  0  0  0  0
 25 29  1  0  0  0  0
 27 31  2  0  0  0  0
 27 23  1  0  0  0  0
 28 27  1  0  0  0  0
 29 30  1  0  0  0  0
 31 34  1  0  0  0  0
 32 31  1  0  0  0  0
 33  4  1  0  0  0  0
 33 29  2  0  0  0  0
 34  5  2  0  0  0  0
 34 36  1  0  0  0  0
 35 33  1  0  0  0  0
 36 15  2  0  0  0  0
 37 51  1  0  0  0  0
 37 38  1  0  0  0  0
 38 40  1  0  0  0  0
 39 37  2  0  0  0  0
 40  3  1  0  0  0  0
 40 42  2  0  0  0  0
 41 43  2  0  0  0  0
 41 39  1  0  0  0  0
 42 59  1  0  0  0  0
 43 47  1  0  0  0  0
 44 43  1  0  0  0  0
 45 42  1  0  0  0  0
 45 46  1  0  0  0  0
 47 48  1  0  0  0  0
 47 51  2  0  0  0  0
 49 45  2  0  0  0  0
 50 49  1  0  0  0  0
 51 52  1  0  0  0  0
 53 38  2  0  0  0  0
 53 49  1  0  0  0  0
 54 53  1  0  0  0  0
 55 58  1  0  0  0  0
 55 41  1  0  0  0  0
 56 55  1  0  0  0  0
 57 55  1  0  0  0  0
 59 61  1  0  0  0  0
 59 60  1  0  0  0  0
 62 59  1  0  0  0  0
M  END
