1
q = 0.0, confidence = 0.994

 60 66  0  0  0  0  0  0  0  0999 V2000
   -0.8490   -0.0812   -0.3176 P   0  0  0  0  0  0  0  0  0  0  0  0
    0.9021    1.3047    2.4384 O   0  0  0  0  0  0  0  0  0  0  0  0
   -2.0699   -0.0023   -1.4598 O   0  0  0  0  0  0  0  0  0  0  0  0
   -1.6962    0.3696    1.0561 O   0  0  0  0  0  0  0  0  0  0  0  0
    0.0736    1.4147   -0.7921 C   0  0  0  0  0  0  0  0  0  0  0  0
   -0.5631    2.4187   -1.5826 C   0  0  0  0  0  0  0  0  0  0  0  0
   -1.5752    2.2345   -1.9668 H   0  0  0  0  0  0  0  0  0  0  0  0
    0.0956    3.6015   -1.8616 C   0  0  0  0  0  0  0  0  0  0  0  0
   -0.3930    4.3749   -2.4740 H   0  0  0  0  0  0  0  0  0  0  0  0
    1.4086    3.8442   -1.3637 C   0  0  0  0  0  0  0  0  0  0  0  0
    2.1043    5.0584   -1.6345 C   0  0  0  0  0  0  0  0  0  0  0  0
    1.6066    5.8259   -2.2474 H   0  0  0  0  0  0  0  0  0  0  0  0
    3.3814    5.2713   -1.1381 C   0  0  0  0  0  0  0  0  0  0  0  0
    3.9070    6.2136   -1.3554 H   0  0  0  0  0  0  0  0  0  0  0  0
    4.0169    4.2766   -0.3469 C   0  0  0  0  0  0  0  0  0  0  0  0
    5.0298    4.4555    0.0441 H   0  0  0  0  0  0  0  0  0  0  0  0
    3.3678    3.0846   -0.0647 C   0  0  0  0  0  0  0  0  0  0  0  0
    3.8547    2.3117    0.5474 H   0  0  0  0  0  0  0  0  0  0  0  0
    2.0545    2.8329   -0.5626 C   0  0  0  0  0  0  0  0  0  0  0  0
    1.3657    1.6047   -0.2801 C   0  0  0  0  0  0  0  0  0  0  0  0
    2.0391    0.5394    0.5206 C   0  0  0  0  0  0  0  0  0  0  0  0
    2.9512   -0.3648   -0.1196 C   0  0  0  0  0  0  0  0  0  0  0  0
    3.2550   -0.2775   -1.5119 C   0  0  0  0  0  0  0  0  0  0  0  0
    2.7991    0.5244   -2.1102 H   0  0  0  0  0  0  0  0  0  0  0  0
    4.1061   -1.1947   -2.1108 C   0  0  0  0  0  0  0  0  0  0  0  0
    4.3242   -1.1123   -3.1865 H   0  0  0  0  0  0  0  0  0  0  0  0
    4.6894   -2.2455   -1.3543 C   0  0  0  0  0  0  0  0  0  0  0  0
    5.3503   -2.9739   -1.8470 H   0  0  0  0  0  0  0  0  0  0  0  0
    4.4099   -2.3594   -0.0019 C   0  0  0  0  0  0  0  0  0  0  0  0
    4.8356   -3.1823    0.5920 H   0  0  0  0  0  0  0  0  0  0  0  0
    3.5476   -1.4306    0.6467 C   0  0  0  0  0  0  0  0  0  0  0  0
    3.2169   -1.5484    2.0245 C   0  0  0  0  0  0  0  0  0  0  0  0
    3.6499   -2.3776    2.6038 H   0  0  0  0  0  0  0  0  0  0  0  0
    2.3494   -0.6614    2.6381 C   0  0  0  0  0  0  0  0  0  0  0  0
    2.1090   -0.7865    3.7014 H   0  0  0  0  0  0  0  0  0  0  0  0
    1.7574    0.3960    1.8883 C   0  0  0  0  0  0  0  0  0  0  0  0
    0.3803    1.0442    3.7325 C   0  0  0  0  0  0  0  0  0  0  0  0
   -0.3654    1.8357    3.9317 H   0  0  0  0  0  0  0  0  0  0  0  0
    1.1690    1.0905    4.5151 H   0  0  0  0  0  0  0  0  0  0  0  0
   -0.1272    0.0568    3.7747 H   0  0  0  0  0  0  0  0  0  0  0  0
   -3.2821   -0.6226   -1.1721 C   0  0  0  0  0  0  0  0  0  0  0  0
   -3.5961   -1.8274   -1.8135 C   0  0  0  0  0  0  0  0  0  0  0  0
   -2.8459   -2.2853   -2.4736 H   0  0  0  0  0  0  0  0  0  0  0  0
   -4.8540   -2.4108   -1.6054 C   0  0  0  0  0  0  0  0  0  0  0  0
   -5.1043   -3.3584   -2.1051 H   0  0  0  0  0  0  0  0  0  0  0  0
   -5.7851   -1.7870   -0.7592 C   0  0  0  0  0  0  0  0  0  0  0  0
   -6.7714   -2.2442   -0.5914 H   0  0  0  0  0  0  0  0  0  0  0  0
   -5.4547   -0.5883   -0.1127 C   0  0  0  0  0  0  0  0  0  0  0  0
   -6.1746   -0.1125    0.5703 H   0  0  0  0  0  0  0  0  0  0  0  0
   -4.1924    0.0161   -0.2936 C   0  0  0  0  0  0  0  0  0  0  0  0
   -3.8301    1.2893    0.3750 C   0  0  0  0  0  0  0  0  0  0  0  0
   -4.7240    2.3808    0.4255 C   0  0  0  0  0  0  0  0  0  0  0  0
   -5.7138    2.2736   -0.0435 H   0  0  0  0  0  0  0  0  0  0  0  0
   -4.3571    3.5942    1.0236 C   0  0  0  0  0  0  0  0  0  0  0  0
   -5.0696    4.4322    1.0398 H   0  0  0  0  0  0  0  0  0  0  0  0
   -3.0753    3.7465    1.5775 C   0  0  0  0  0  0  0  0  0  0  0  0
   -2.7733    4.7057    2.0241 H   0  0  0  0  0  0  0  0  0  0  0  0
   -2.1714    2.6753    1.5549 C   0  0  0  0  0  0  0  0  0  0  0  0
   -1.1530    2.7598    1.9584 H   0  0  0  0  0  0  0  0  0  0  0  0
   -2.5621    1.4560    0.9842 C   0  0  0  0  0  0  0  0  0  0  0  0
  1  4  1  0  0  0  0
  2 37  1  0  0  0  0
  3 41  1  0  0  0  0
  3  1  1  0  0  0  0
  5  1  1  0  0  0  0
  5 20  1  0  0  0  0
  6  5  2  0  0  0  0
  7  6  1  0  0  0  0
  8  6  1  0  0  0  0
  8 10  2  0  0  0  0
  9  8  1  0  0  0  0
 10 19  1  0  0  0  0
 11 10  1  0  0  0  0
 11 13  2  0  0  0  0
 12 11  1  0  0  0  0
 13 15  1  0  0  0  0
 14 13  1  0  0  0  0
 15 17  2  0  0  0  0
 15 16  1  0  0  0  0
 17 18  1  0  0  0  0
 19 20  2  0  0  0  0
 19 17  1  0  0  0  0
 20 21  1  0  0  0  0
 21 36  1  0  0  0  0
 22 21  2  0  0  0  0
 22 31  1  0  0  0  0
 23 22  1  0  0  0  0
 24 23  1  0  0  0  0
 25 23  2  0  0  0  0
 25 27  1  0  0  0  0
 26 25  1  0  0  0  0
 27 29  2  0  0  0  0
 28 27  1  0  0  0  0
 29 30  1  0  0  0  0
 29 31  1  0  0  0  0
 31 32  2  0  0  0  0
 32 33  1  0  0  0  0
 32 34  1  0  0  0  0
 34 35  1  0  0  0  0
 36  2  1  0  0  0  0
 36 34  2  0  0  0  0
 37 40  1  0  0  0  0
 37 38  1  0  0  0  0
 37 39  1  0  0  0  0
 41 50  1  0  0  0  0
 42 44  1  0  0  0  0
 42 41  2  0  0  0  0
 43 42  1  0  0  0  0
 44 46  2  0  0  0  0
 45 44  1  0  0  0  0
 46 47  1  0  0  0  0
 46 48  1  0  0  0  0
 48 49  1  0  0  0  0
 50 48  2  0  0  0  0
 50 51  1  0  0  0  0
 51 52  2  0  0  0  0
 51 60  1  0  0  0  0
 52 54  1  0  0  0  0
 53 52  1  0  0  0  0
 54 55  1  0  0  0  0
 54 56  2  0  0  0  0
 56 57  1  0  0  0  0
 58 56  1  0  0  0  0
 58 59  1  0  0  0  0
 60  4  1  0  0  0  0
 60 58  2  0  0  0  0
M  END
