1
q = -1.0

 28 28  0  0  0  0  0  0  0  0999 V2000
    3.1421   -0.2631   -0.1619 P   0  0  0  0  0  0  0  0  0  0  0  0
    4.4036   -1.4056   -0.5867 C   0  0  0  0  0  3  0  0  0  0  0  0
    4.6634   -1.7168   -2.0295 C   0  0  0  0  0  0  0  0  0  0  0  0
    4.9027   -2.3727    0.4438 C   0  0  0  0  0  0  0  0  0  0  0  0
    3.5931    1.5218   -0.5377 C   0  0  0  0  0  0  0  0  0  0  0  0
    2.4491    2.4457   -0.9276 C   0  0  0  0  0  0  0  0  0  0  0  0
    4.8609    1.7793   -1.3353 C   0  0  0  0  0  0  0  0  0  0  0  0
    3.7359    1.1272    0.9536 C   0  0  0  0  0  0  0  0  0  0  0  0
    5.1360    1.0185    1.5344 C   0  0  0  0  0  0  0  0  0  0  0  0
    2.7246    1.6868    1.9427 C   0  0  0  0  0  0  0  0  0  0  0  0
    4.2796   -0.9344   -2.7139 H   0  0  0  0  0  0  0  0  0  0  0  0
    4.2040   -2.6869   -2.3457 H   0  0  0  0  0  0  0  0  0  0  0  0
    5.7568   -1.8283   -2.2215 H   0  0  0  0  0  0  0  0  0  0  0  0
    6.0057   -2.5146    0.3544 H   0  0  0  0  0  0  0  0  0  0  0  0
    4.4594   -3.3928    0.3211 H   0  0  0  0  0  0  0  0  0  0  0  0
    4.6884   -2.0451    1.4804 H   0  0  0  0  0  0  0  0  0  0  0  0
    2.6915    3.4927   -0.6425 H   0  0  0  0  0  0  0  0  0  0  0  0
    2.3008    2.4195   -2.0260 H   0  0  0  0  0  0  0  0  0  0  0  0
    1.4837    2.1771   -0.4568 H   0  0  0  0  0  0  0  0  0  0  0  0
    4.6330    1.8026   -2.4201 H   0  0  0  0  0  0  0  0  0  0  0  0
    5.6357    1.0086   -1.1697 H   0  0  0  0  0  0  0  0  0  0  0  0
    5.2880    2.7689   -1.0625 H   0  0  0  0  0  0  0  0  0  0  0  0
    5.8303    0.4629    0.8778 H   0  0  0  0  0  0  0  0  0  0  0  0
    5.1058    0.4981    2.5129 H   0  0  0  0  0  0  0  0  0  0  0  0
    5.5558    2.0332    1.7085 H   0  0  0  0  0  0  0  0  0  0  0  0
    1.6790    1.6343    1.5826 H   0  0  0  0  0  0  0  0  0  0  0  0
    2.7759    1.1219    2.8951 H   0  0  0  0  0  0  0  0  0  0  0  0
    2.9587    2.7506    2.1658 H   0  0  0  0  0  0  0  0  0  0  0  0
  1  8  1  0  0  0  0
  2  1  1  0  0  0  0
  2  4  1  0  0  0  0
  3  2  1  0  0  0  0
  4 16  1  0  0  0  0
  5  1  1  0  0  0  0
  5  8  1  0  0  0  0
  6 17  1  0  0  0  0
  6  5  1  0  0  0  0
  6 19  1  0  0  0  0
  7 21  1  0  0  0  0
  7 22  1  0  0  0  0
  7  5  1  0  0  0  0
  8  9  1  0  0  0  0
  8 10  1  0  0  0  0
  9 25  1  0  0  0  0
  9 24  1  0  0  0  0
 10 28  1  0  0  0  0
 10 27  1  0  0  0  0
 11  3  1  0  0  0  0
 12  3  1  0  0  0  0
 13  3  1  0  0  0  0
 14  4  1  0  0  0  0
 15  4  1  0  0  0  0
 18  6  1  0  0  0  0
 20  7  1  0  0  0  0
 23  9  1  0  0  0  0
 26 10  1  0  0  0  0
M  END
