1
q = 0.0, confidence = 0.986

 35 37  0  0  0  0  0  0  0  0999 V2000
    1.6747    0.0163   -0.1104 P   0  0  0  0  0  0  0  0  0  0  0  0
    1.4847   -1.1672    1.0831 N   0  0  0  0  0  0  0  0  0  0  0  0
    0.9871   -2.3468    0.8157 C   0  0  0  0  0  0  0  0  0  0  0  0
    0.4723   -3.0296   -0.7505 S   0  0  0  0  0  0  0  0  0  0  0  0
    0.0573   -4.5543    0.0090 C   0  0  0  0  0  0  0  0  0  0  0  0
   -0.3294   -5.3899   -0.5844 H   0  0  0  0  0  0  0  0  0  0  0  0
    0.2776   -4.5355    1.3566 C   0  0  0  0  0  0  0  0  0  0  0  0
    0.7850   -3.3068    1.7737 N   0  0  0  0  0  0  0  0  0  0  0  0
    1.0126   -3.0934    2.7475 H   0  0  0  0  0  0  0  0  0  0  0  0
    0.0501   -5.6235    2.3519 C   0  0  0  0  0  0  0  0  0  0  0  0
   -0.3554   -6.5223    1.8540 H   0  0  0  0  0  0  0  0  0  0  0  0
   -0.6720   -5.3032    3.1322 H   0  0  0  0  0  0  0  0  0  0  0  0
    0.9936   -5.9102    2.8618 H   0  0  0  0  0  0  0  0  0  0  0  0
    3.1158   -0.4634   -1.1355 C   0  0  0  0  0  0  0  0  0  0  0  0
    3.7452   -1.7115   -0.9698 C   0  0  0  0  0  0  0  0  0  0  0  0
    3.3537   -2.4463   -0.2534 H   0  0  0  0  0  0  0  0  0  0  0  0
    4.8963   -2.0162   -1.7129 C   0  0  0  0  0  0  0  0  0  0  0  0
    5.3855   -2.9927   -1.5807 H   0  0  0  0  0  0  0  0  0  0  0  0
    5.4232   -1.0786   -2.6129 C   0  0  0  0  0  0  0  0  0  0  0  0
    6.3256   -1.3205   -3.1941 H   0  0  0  0  0  0  0  0  0  0  0  0
    4.8038    0.1732   -2.7657 C   0  0  0  0  0  0  0  0  0  0  0  0
    5.2195    0.9144   -3.4642 H   0  0  0  0  0  0  0  0  0  0  0  0
    3.6533    0.4848   -2.0317 C   0  0  0  0  0  0  0  0  0  0  0  0
    3.1731    1.4656   -2.1550 H   0  0  0  0  0  0  0  0  0  0  0  0
    2.3133    1.4684    0.7888 C   0  0  0  0  0  0  0  0  0  0  0  0
    3.3390    1.2830    1.7379 C   0  0  0  0  0  0  0  0  0  0  0  0
    3.7062    0.2689    1.9568 H   0  0  0  0  0  0  0  0  0  0  0  0
    3.8760    2.3936    2.4006 C   0  0  0  0  0  0  0  0  0  0  0  0
    4.6758    2.2535    3.1433 H   0  0  0  0  0  0  0  0  0  0  0  0
    3.3999    3.6849    2.1131 C   0  0  0  0  0  0  0  0  0  0  0  0
    3.8259    4.5551    2.6348 H   0  0  0  0  0  0  0  0  0  0  0  0
    2.3877    3.8679    1.1583 C   0  0  0  0  0  0  0  0  0  0  0  0
    2.0168    4.8784    0.9319 H   0  0  0  0  0  0  0  0  0  0  0  0
    1.8425    2.7602    0.4917 C   0  0  0  0  0  0  0  0  0  0  0  0
    1.0420    2.8906   -0.2541 H   0  0  0  0  0  0  0  0  0  0  0  0
  1 25  1  0  0  0  0
  1  2  1  0  0  0  0
  3  2  2  0  0  0  0
  3  8  1  0  0  0  0
  4  5  1  0  0  0  0
  4  3  1  0  0  0  0
  5  7  2  0  0  0  0
  6  5  1  0  0  0  0
  7  8  1  0  0  0  0
  7 10  1  0  0  0  0
  8  9  1  0  0  0  0
 10 13  1  0  0  0  0
 10 12  1  0  0  0  0
 11 10  1  0  0  0  0
 14 15  1  0  0  0  0
 14  1  1  0  0  0  0
 15 16  1  0  0  0  0
 17 18  1  0  0  0  0
 17 15  2  0  0  0  0
 19 17  1  0  0  0  0
 20 19  1  0  0  0  0
 21 19  2  0  0  0  0
 21 23  1  0  0  0  0
 22 21  1  0  0  0  0
 23 14  2  0  0  0  0
 24 23  1  0  0  0  0
 25 26  1  0  0  0  0
 26 27  1  0  0  0  0
 26 28  2  0  0  0  0
 28 29  1  0  0  0  0
 30 28  1  0  0  0  0
 30 31  1  0  0  0  0
 32 30  2  0  0  0  0
 33 32  1  0  0  0  0
 34 25  2  0  0  0  0
 34 32  1  0  0  0  0
 35 34  1  0  0  0  0
M  END
