1
q = 0.0, confidence = 0.972

 43 45  0  0  0  0  0  0  0  0999 V2000
    0.0009   -0.0012   -1.3443 P   0  0  0  0  0  0  0  0  0  0  0  0
    0.8824   -3.4596    0.2571 Br  0  0  0  0  0  0  0  0  0  0  0  0
    2.5587    2.4936    0.2524 Br  0  0  0  0  0  0  0  0  0  0  0  0
   -3.4451    0.9683    0.2470 Br  0  0  0  0  0  0  0  0  0  0  0  0
   -0.2343   -1.6727   -2.1506 C   0  0  0  0  0  0  0  0  0  0  0  0
   -0.5185   -1.5061   -3.2100 H   0  0  0  0  0  0  0  0  0  0  0  0
    0.7548   -2.1711   -2.1196 H   0  0  0  0  0  0  0  0  0  0  0  0
   -1.2664   -2.4787   -1.4144 C   0  0  0  0  0  0  0  0  0  0  0  0
   -0.9357   -3.2702   -0.2886 C   0  0  0  0  0  0  0  0  0  0  0  0
   -1.9208   -3.9379    0.4539 C   0  0  0  0  0  0  0  0  0  0  0  0
   -1.6277   -4.5340    1.3291 H   0  0  0  0  0  0  0  0  0  0  0  0
   -3.2664   -3.8309    0.0759 C   0  0  0  0  0  0  0  0  0  0  0  0
   -4.0370   -4.3505    0.6647 H   0  0  0  0  0  0  0  0  0  0  0  0
   -3.6216   -3.0699   -1.0477 C   0  0  0  0  0  0  0  0  0  0  0  0
   -4.6744   -2.9891   -1.3555 H   0  0  0  0  0  0  0  0  0  0  0  0
   -2.6278   -2.4061   -1.7778 C   0  0  0  0  0  0  0  0  0  0  0  0
   -2.9068   -1.8104   -2.6614 H   0  0  0  0  0  0  0  0  0  0  0  0
    1.5656    0.6301   -2.1518 C   0  0  0  0  0  0  0  0  0  0  0  0
    1.5628    0.2998   -3.2110 H   0  0  0  0  0  0  0  0  0  0  0  0
    1.5024    1.7359   -2.1217 H   0  0  0  0  0  0  0  0  0  0  0  0
    2.7802    0.1397   -1.4159 C   0  0  0  0  0  0  0  0  0  0  0  0
    3.3020    0.8232   -0.2918 C   0  0  0  0  0  0  0  0  0  0  0  0
    4.3732    0.3044    0.4504 C   0  0  0  0  0  0  0  0  0  0  0  0
    4.7441    0.8575    1.3244 H   0  0  0  0  0  0  0  0  0  0  0  0
    4.9522   -0.9154    0.0738 C   0  0  0  0  0  0  0  0  0  0  0  0
    5.7878   -1.3225    0.6623 H   0  0  0  0  0  0  0  0  0  0  0  0
    4.4691   -1.6049   -1.0482 C   0  0  0  0  0  0  0  0  0  0  0  0
    4.9247   -2.5578   -1.3550 H   0  0  0  0  0  0  0  0  0  0  0  0
    3.3969   -1.0766   -1.7780 C   0  0  0  0  0  0  0  0  0  0  0  0
    3.0193   -1.6171   -2.6605 H   0  0  0  0  0  0  0  0  0  0  0  0
   -1.3278    1.0386   -2.1519 C   0  0  0  0  0  0  0  0  0  0  0  0
   -1.0395    1.2023   -3.2107 H   0  0  0  0  0  0  0  0  0  0  0  0
   -2.2541    0.4311   -2.1232 H   0  0  0  0  0  0  0  0  0  0  0  0
   -1.5101    2.3350   -1.4149 C   0  0  0  0  0  0  0  0  0  0  0  0
   -2.3655    2.4455   -0.2928 C   0  0  0  0  0  0  0  0  0  0  0  0
   -2.4514    3.6321    0.4505 C   0  0  0  0  0  0  0  0  0  0  0  0
   -3.1179    3.6771    1.3228 H   0  0  0  0  0  0  0  0  0  0  0  0
   -1.6811    4.7421    0.0772 C   0  0  0  0  0  0  0  0  0  0  0  0
   -1.7458    5.6688    0.6667 H   0  0  0  0  0  0  0  0  0  0  0  0
   -0.8397    4.6680   -1.0427 C   0  0  0  0  0  0  0  0  0  0  0  0
   -0.2394    5.5381   -1.3468 H   0  0  0  0  0  0  0  0  0  0  0  0
   -0.7621    3.4762   -1.7740 C   0  0  0  0  0  0  0  0  0  0  0  0
   -0.1031    3.4191   -2.6549 H   0  0  0  0  0  0  0  0  0  0  0  0
  5  7  1  0  0  0  0
  5  8  1  0  0  0  0
  5  1  1  0  0  0  0
  6  5  1  0  0  0  0
  8  9  1  0  0  0  0
  9  2  1  0  0  0  0
  9 10  2  0  0  0  0
 10 11  1  0  0  0  0
 12 10  1  0  0  0  0
 12 13  1  0  0  0  0
 14 12  2  0  0  0  0
 15 14  1  0  0  0  0
 16  8  2  0  0  0  0
 16 14  1  0  0  0  0
 17 16  1  0  0  0  0
 18 20  1  0  0  0  0
 18 21  1  0  0  0  0
 18  1  1  0  0  0  0
 19 18  1  0  0  0  0
 21 22  1  0  0  0  0
 22  3  1  0  0  0  0
 22 23  2  0  0  0  0
 23 24  1  0  0  0  0
 25 23  1  0  0  0  0
 25 26  1  0  0  0  0
 27 25  2  0  0  0  0
 28 27  1  0  0  0  0
 29 21  2  0  0  0  0
 29 27  1  0  0  0  0
 30 29  1  0  0  0  0
 31 33  1  0  0  0  0
 31 34  1  0  0  0  0
 31  1  1  0  0  0  0
 32 31  1  0  0  0  0
 34 35  1  0  0  0  0
 35  4  1  0  0  0  0
 35 36  2  0  0  0  0
 36 37  1  0  0  0  0
 38 36  1  0  0  0  0
 38 39  1  0  0  0  0
 40 38  2  0  0  0  0
 41 40  1  0  0  0  0
 42 34  2  0  0  0  0
 42 40  1  0  0  0  0
 43 42  1  0  0  0  0
M  END
