1
q = 0.0, confidence = 0.984

 54 57  0  0  1  0  0  0  0  0999 V2000
    0.1779   -0.6625   -0.0735 P   0  0  0  0  0  0  0  0  0  0  0  0
   -1.5794   -2.0058   -0.0138 Si  0  0  0  0  0  0  0  0  0  0  0  0
   -1.4438   -0.1471   -0.0935 C   0  0  0  0  0  0  0  0  0  0  0  0
   -2.1849    1.1496   -0.0905 C   0  0  2  0  0  0  0  0  0  0  0  0
   -3.6161    0.9882   -0.6623 C   0  0  0  0  0  0  0  0  0  0  0  0
   -3.5534    0.6203   -1.7092 H   0  0  0  0  0  0  0  0  0  0  0  0
   -4.1593    0.2126   -0.0787 H   0  0  0  0  0  0  0  0  0  0  0  0
   -4.3710    2.3300   -0.6131 C   0  0  1  0  0  0  0  0  0  0  0  0
   -5.3906    2.1900   -1.0313 H   0  0  0  0  0  0  0  0  0  0  0  0
   -4.4707    2.8095    0.8480 C   0  0  0  0  0  0  0  0  0  0  0  0
   -5.0372    2.0705    1.4552 H   0  0  0  0  0  0  0  0  0  0  0  0
   -5.0327    3.7667    0.8974 H   0  0  0  0  0  0  0  0  0  0  0  0
   -3.0549    2.9962    1.4257 C   0  0  2  0  0  0  0  0  0  0  0  0
   -3.1218    3.3336    2.4821 H   0  0  0  0  0  0  0  0  0  0  0  0
   -2.2876    4.0422    0.5941 C   0  0  0  0  0  0  0  0  0  0  0  0
   -2.8066    5.0233    0.6441 H   0  0  0  0  0  0  0  0  0  0  0  0
   -1.2699    4.1893    1.0146 H   0  0  0  0  0  0  0  0  0  0  0  0
   -2.1913    3.5660   -0.8684 C   0  0  1  0  0  0  0  0  0  0  0  0
   -1.6370    4.3170   -1.4704 H   0  0  0  0  0  0  0  0  0  0  0  0
   -1.4353    2.2267   -0.9173 C   0  0  0  0  0  0  0  0  0  0  0  0
   -0.4088    2.3492   -0.5160 H   0  0  0  0  0  0  0  0  0  0  0  0
   -1.3283    1.8728   -1.9649 H   0  0  0  0  0  0  0  0  0  0  0  0
   -2.3019    1.6542    1.3813 C   0  0  0  0  0  0  0  0  0  0  0  0
   -2.8348    0.8915    1.9891 H   0  0  0  0  0  0  0  0  0  0  0  0
   -1.2842    1.7618    1.8102 H   0  0  0  0  0  0  0  0  0  0  0  0
   -3.6070    3.3777   -1.4469 C   0  0  0  0  0  0  0  0  0  0  0  0
   -4.1555    4.3440   -1.4382 H   0  0  0  0  0  0  0  0  0  0  0  0
   -3.5454    3.0506   -2.5073 H   0  0  0  0  0  0  0  0  0  0  0  0
   -1.9804   -2.9645   -1.6421 C   0  0  0  0  0  0  0  0  0  0  0  0
   -1.0100   -4.1544   -1.7870 C   0  0  0  0  0  0  0  0  0  0  0  0
   -1.1195   -4.8945   -0.9702 H   0  0  0  0  0  0  0  0  0  0  0  0
    0.0475   -3.8183   -1.8022 H   0  0  0  0  0  0  0  0  0  0  0  0
   -1.2046   -4.6867   -2.7446 H   0  0  0  0  0  0  0  0  0  0  0  0
   -3.4398   -3.4595   -1.6260 C   0  0  0  0  0  0  0  0  0  0  0  0
   -3.6302   -4.1859   -0.8102 H   0  0  0  0  0  0  0  0  0  0  0  0
   -3.6757   -3.9749   -2.5834 H   0  0  0  0  0  0  0  0  0  0  0  0
   -4.1615   -2.6234   -1.5151 H   0  0  0  0  0  0  0  0  0  0  0  0
   -1.7753   -2.0014   -2.8249 C   0  0  0  0  0  0  0  0  0  0  0  0
   -0.7372   -1.6132   -2.8679 H   0  0  0  0  0  0  0  0  0  0  0  0
   -2.4538   -1.1257   -2.7716 H   0  0  0  0  0  0  0  0  0  0  0  0
   -1.9775   -2.5325   -3.7807 H   0  0  0  0  0  0  0  0  0  0  0  0
   -2.0736   -2.7808    1.6863 C   0  0  0  0  0  0  0  0  0  0  0  0
   -1.2495   -2.0869    2.7864 C   0  0  0  0  0  0  0  0  0  0  0  0
   -1.4111   -0.9903    2.7988 H   0  0  0  0  0  0  0  0  0  0  0  0
   -0.1604   -2.2609    2.6643 H   0  0  0  0  0  0  0  0  0  0  0  0
   -1.5445   -2.4832    3.7829 H   0  0  0  0  0  0  0  0  0  0  0  0
   -1.7985   -4.2950    1.7183 C   0  0  0  0  0  0  0  0  0  0  0  0
   -2.3994   -4.8504    0.9703 H   0  0  0  0  0  0  0  0  0  0  0  0
   -2.0618   -4.7053    2.7182 H   0  0  0  0  0  0  0  0  0  0  0  0
   -0.7287   -4.5258    1.5377 H   0  0  0  0  0  0  0  0  0  0  0  0
   -3.5746   -2.5084    1.9226 C   0  0  0  0  0  0  0  0  0  0  0  0
   -4.2189   -2.9877    1.1583 H   0  0  0  0  0  0  0  0  0  0  0  0
   -3.7994   -1.4217    1.9230 H   0  0  0  0  0  0  0  0  0  0  0  0
   -3.8820   -2.9106    2.9138 H   0  0  0  0  0  0  0  0  0  0  0  0
  1  2  1  0  0  0  0
  2 42  1  0  0  0  0
  3  1  2  0  0  0  0
  3  2  1  0  0  0  0
  4  3  1  6  0  0  0
  4 23  1  0  0  0  0
  5  8  1  0  0  0  0
  5  4  1  0  0  0  0
  5  7  1  0  0  0  0
  6  5  1  0  0  0  0
  8  9  1  6  0  0  0
  8 10  1  0  0  0  0
 10 12  1  0  0  0  0
 10 13  1  0  0  0  0
 10 11  1  0  0  0  0
 13 14  1  1  0  0  0
 15 16  1  0  0  0  0
 15 17  1  0  0  0  0
 15 13  1  0  0  0  0
 18 19  1  6  0  0  0
 18 15  1  0  0  0  0
 20 18  1  0  0  0  0
 20 21  1  0  0  0  0
 20  4  1  0  0  0  0
 22 20  1  0  0  0  0
 23 13  1  0  0  0  0
 23 25  1  0  0  0  0
 23 24  1  0  0  0  0
 26 27  1  0  0  0  0
 26 18  1  0  0  0  0
 26  8  1  0  0  0  0
 28 26  1  0  0  0  0
 29 34  1  0  0  0  0
 29  2  1  0  0  0  0
 30 29  1  0  0  0  0
 30 31  1  0  0  0  0
 32 30  1  0  0  0  0
 33 30  1  0  0  0  0
 34 37  1  0  0  0  0
 34 35  1  0  0  0  0
 36 34  1  0  0  0  0
 38 40  1  0  0  0  0
 38 29  1  0  0  0  0
 39 38  1  0  0  0  0
 41 38  1  0  0  0  0
 42 47  1  0  0  0  0
 42 51  1  0  0  0  0
 42 43  1  0  0  0  0
 43 44  1  0  0  0  0
 43 46  1  0  0  0  0
 45 43  1  0  0  0  0
 47 49  1  0  0  0  0
 48 47  1  0  0  0  0
 50 47  1  0  0  0  0
 51 53  1  0  0  0  0
 51 54  1  0  0  0  0
 52 51  1  0  0  0  0
M  END
