1
q = 0.0, confidence = 0.998

 32 34  0  0  0  0  0  0  0  0999 V2000
    1.7155   -0.0311   -0.1890 P   0  0  0  0  0  0  0  0  0  0  0  0
    0.6831    1.5799    1.6819 N   0  0  0  0  0  0  0  0  0  0  0  0
    1.3871    0.4389    1.5821 C   0  0  0  0  0  0  0  0  0  0  0  0
    1.8495   -0.2817    2.6959 C   0  0  0  0  0  0  0  0  0  0  0  0
    1.5622    0.2245    3.9713 C   0  0  0  0  0  0  0  0  0  0  0  0
    0.8408    1.4215    4.0834 C   0  0  0  0  0  0  0  0  0  0  0  0
    0.4210    2.0600    2.9050 C   0  0  0  0  0  0  0  0  0  0  0  0
    3.9500    1.4145    0.3639 N   0  0  0  0  0  0  0  0  0  0  0  0
    2.9478    1.3306   -0.5269 C   0  0  0  0  0  0  0  0  0  0  0  0
    2.7690    2.2476   -1.5777 C   0  0  0  0  0  0  0  0  0  0  0  0
    3.6913    3.2971   -1.6952 C   0  0  0  0  0  0  0  0  0  0  0  0
    4.7477    3.3847   -0.7775 C   0  0  0  0  0  0  0  0  0  0  0  0
    4.8364    2.4133    0.2319 C   0  0  0  0  0  0  0  0  0  0  0  0
    2.6370   -1.6132   -0.1292 C   0  0  0  0  0  0  0  0  0  0  0  0
    1.9982   -2.7604   -0.6424 C   0  0  0  0  0  0  0  0  0  0  0  0
    2.6422   -4.0040   -0.5808 C   0  0  0  0  0  0  0  0  0  0  0  0
    3.9242   -4.1089   -0.0162 C   0  0  0  0  0  0  0  0  0  0  0  0
    4.5643   -2.9649    0.4865 C   0  0  0  0  0  0  0  0  0  0  0  0
    3.9261   -1.7159    0.4338 C   0  0  0  0  0  0  0  0  0  0  0  0
    2.4136   -1.2147    2.5623 H   0  0  0  0  0  0  0  0  0  0  0  0
    1.9001   -0.3138    4.8701 H   0  0  0  0  0  0  0  0  0  0  0  0
    0.5987    1.8529    5.0659 H   0  0  0  0  0  0  0  0  0  0  0  0
   -0.1647    2.9944    2.9482 H   0  0  0  0  0  0  0  0  0  0  0  0
    1.9437    2.1140   -2.2903 H   0  0  0  0  0  0  0  0  0  0  0  0
    3.5840    4.0374   -2.5027 H   0  0  0  0  0  0  0  0  0  0  0  0
    5.4925    4.1923   -0.8375 H   0  0  0  0  0  0  0  0  0  0  0  0
    5.6544    2.4445    0.9731 H   0  0  0  0  0  0  0  0  0  0  0  0
    0.9941   -2.6656   -1.0804 H   0  0  0  0  0  0  0  0  0  0  0  0
    2.1420   -4.8959   -0.9878 H   0  0  0  0  0  0  0  0  0  0  0  0
    4.4296   -5.0861    0.0255 H   0  0  0  0  0  0  0  0  0  0  0  0
    5.5728   -3.0421    0.9209 H   0  0  0  0  0  0  0  0  0  0  0  0
    4.4175   -0.8087    0.8165 H   0  0  0  0  0  0  0  0  0  0  0  0
  1 14  1  0  0  0  0
  1  3  1  0  0  0  0
  2  7  1  0  0  0  0
  3  2  2  0  0  0  0
  3  4  1  0  0  0  0
  4  5  2  0  0  0  0
  5  6  1  0  0  0  0
  5 21  1  0  0  0  0
  6 22  1  0  0  0  0
  7 23  1  0  0  0  0
  7  6  2  0  0  0  0
  9  1  1  0  0  0  0
  9  8  2  0  0  0  0
 10  9  1  0  0  0  0
 11 10  2  0  0  0  0
 11 12  1  0  0  0  0
 12 13  2  0  0  0  0
 13  8  1  0  0  0  0
 13 27  1  0  0  0  0
 14 19  1  0  0  0  0
 15 16  1  0  0  0  0
 15 14  2  0  0  0  0
 16 17  2  0  0  0  0
 17 30  1  0  0  0  0
 17 18  1  0  0  0  0
 18 31  1  0  0  0  0
 19 18  2  0  0  0  0
 19 32  1  0  0  0  0
 20  4  1  0  0  0  0
 24 10  1  0  0  0  0
 25 11  1  0  0  0  0
 26 12  1  0  0  0  0
 28 15  1  0  0  0  0
 29 16  1  0  0  0  0
M  END
