1
q = -1

 12 11  0  0  0  0  0  0  0  0999 V2000
   -1.5918   -1.8197    0.0780 P   0  0  0  0  0  4  0  0  0  0  0  0
   -2.1431   -2.4481   -1.1896 O   0  0  0  0  0  0  0  0  0  0  0  0
   -2.7954   -1.3353    1.1128 O   0  0  0  0  0  0  0  0  0  0  0  0
   -4.1867   -1.4763    0.7672 C   0  0  0  0  0  0  0  0  0  0  0  0
   -0.7452   -2.8736    1.0368 O   0  0  0  0  0  0  0  0  0  0  0  0
   -1.3530   -4.1390    1.3550 C   0  0  0  0  0  0  0  0  0  0  0  0
   -4.6279   -0.4703    0.6260 H   0  0  0  0  0  0  0  0  0  0  0  0
   -4.6948   -1.9992    1.6010 H   0  0  0  0  0  0  0  0  0  0  0  0
   -4.2973   -2.0626   -0.1661 H   0  0  0  0  0  0  0  0  0  0  0  0
   -2.1312   -4.0116    2.1359 H   0  0  0  0  0  0  0  0  0  0  0  0
   -0.5500   -4.7961    1.7376 H   0  0  0  0  0  0  0  0  0  0  0  0
   -1.8046   -4.5945    0.4505 H   0  0  0  0  0  0  0  0  0  0  0  0
  1  5  1  0  0  0  0
  1  3  1  0  0  0  0
  2  1  2  0  0  0  0
  4  3  1  0  0  0  0
  4  8  1  0  0  0  0
  5  6  1  0  0  0  0
  6 11  1  0  0  0  0
  6 10  1  0  0  0  0
  7  4  1  0  0  0  0
  9  4  1  0  0  0  0
 12  6  1  0  0  0  0
M  END
