1
q = 0.0, confidence = 0.996

 45 48  0  0  1  0  0  0  0  0999 V2000
    1.5966    0.0001    1.2250 P   0  0  0  0  0  2  0  0  0  0  0  0
    0.3066    1.2888    1.2295 N   0  0  0  0  0  0  0  0  0  0  0  0
   -0.8467    1.2758    0.4954 N   0  0  1  0  0  0  0  0  0  0  0  0
    0.3067   -1.2887    1.2295 N   0  0  0  0  0  0  0  0  0  0  0  0
   -0.8466   -1.2757    0.4954 N   0  0  2  0  0  0  0  0  0  0  0  0
   -3.6107   -0.0001    0.5169 N   0  0  0  0  0  0  0  0  0  0  0  0
   -2.7636   -0.0000   -0.5534 N   0  0  0  0  0  0  0  0  0  0  0  0
   -2.6539    2.9226   -0.1432 C   0  0  0  0  0  0  0  0  0  0  0  0
   -1.3971    2.5177    0.5492 C   0  0  2  0  0  3  0  0  0  0  0  0
   -0.5659    3.3279    1.3459 C   0  0  0  0  0  0  0  0  0  0  0  0
    1.7196    2.8701    2.5550 C   0  0  0  0  0  0  0  0  0  0  0  0
    0.5059    2.5318    1.7575 C   0  0  0  0  0  0  0  0  0  0  0  0
   -1.3969   -2.5176    0.5492 C   0  0  1  0  0  3  0  0  0  0  0  0
   -2.6536   -2.9227   -0.1434 C   0  0  0  0  0  0  0  0  0  0  0  0
   -0.5657   -3.3277    1.3460 C   0  0  0  0  0  0  0  0  0  0  0  0
    1.7197   -2.8698    2.5551 C   0  0  0  0  0  0  0  0  0  0  0  0
    0.5060   -2.5317    1.7576 C   0  0  0  0  0  0  0  0  0  0  0  0
   -2.7884   -0.0000   -3.0849 C   0  0  0  0  0  0  0  0  0  0  0  0
   -3.4522   -0.0001   -1.7452 C   0  0  0  0  0  0  0  0  0  0  0  0
   -4.8071   -0.0001   -1.4178 C   0  0  0  0  0  0  0  0  0  0  0  0
   -4.8529   -0.0002    0.0068 C   0  0  0  0  0  0  0  0  0  0  0  0
   -6.0493   -0.0003    0.9078 C   0  0  0  0  0  0  0  0  0  0  0  0
   -1.2673    0.0000   -0.3303 B   0  0  1  0  0  0  0  0  0  0  0  0
   -0.6657    0.0001   -1.3941 H   0  0  0  0  0  0  0  0  0  0  0  0
   -3.5268    2.3731    0.2611 H   0  0  0  0  0  0  0  0  0  0  0  0
   -2.8127    4.0074   -0.0036 H   0  0  0  0  0  0  0  0  0  0  0  0
   -2.6054    2.7125   -1.2292 H   0  0  0  0  0  0  0  0  0  0  0  0
   -0.7295    4.3825    1.5870 H   0  0  0  0  0  0  0  0  0  0  0  0
    2.6209    2.9094    1.9072 H   0  0  0  0  0  0  0  0  0  0  0  0
    1.9146    2.1112    3.3386 H   0  0  0  0  0  0  0  0  0  0  0  0
    1.5960    3.8596    3.0322 H   0  0  0  0  0  0  0  0  0  0  0  0
   -3.5266   -2.3733    0.2608 H   0  0  0  0  0  0  0  0  0  0  0  0
   -2.8122   -4.0075   -0.0038 H   0  0  0  0  0  0  0  0  0  0  0  0
   -2.6050   -2.7125   -1.2294 H   0  0  0  0  0  0  0  0  0  0  0  0
   -0.7293   -4.3824    1.5870 H   0  0  0  0  0  0  0  0  0  0  0  0
    1.5964   -3.8596    3.0319 H   0  0  0  0  0  0  0  0  0  0  0  0
    2.6212   -2.9084    1.9075 H   0  0  0  0  0  0  0  0  0  0  0  0
    1.9142   -2.1111    3.3392 H   0  0  0  0  0  0  0  0  0  0  0  0
   -2.1390   -0.8882   -3.2276 H   0  0  0  0  0  0  0  0  0  0  0  0
   -3.5527   -0.0002   -3.8843 H   0  0  0  0  0  0  0  0  0  0  0  0
   -2.1393    0.8884   -3.2277 H   0  0  0  0  0  0  0  0  0  0  0  0
   -5.6481   -0.0001   -2.1199 H   0  0  0  0  0  0  0  0  0  0  0  0
   -6.6874   -0.8926    0.7392 H   0  0  0  0  0  0  0  0  0  0  0  0
   -5.7215    0.0003    1.9645 H   0  0  0  0  0  0  0  0  0  0  0  0
   -6.6883    0.8911    0.7384 H   0  0  0  0  0  0  0  0  0  0  0  0
  1  2  1  0  0  0  0
  1  4  1  0  0  0  0
  2 12  1  0  0  0  0
  3  9  1  0  0  0  0
  3  2  1  6  0  0  0
  4 17  1  0  0  0  0
  5 13  1  0  0  0  0
  5  4  1  6  0  0  0
  7 23  1  0  0  0  0
  7  6  1  0  0  0  0
  8 26  1  0  0  0  0
  8 25  1  0  0  0  0
  9  8  1  6  0  0  0
  9 10  1  0  0  0  0
 10 28  1  0  0  0  0
 10 12  2  0  0  0  0
 11 31  1  0  0  0  0
 11 30  1  0  0  0  0
 12 11  1  0  0  0  0
 13 14  1  6  0  0  0
 13 15  1  0  0  0  0
 14 33  1  0  0  0  0
 14 32  1  0  0  0  0
 15 35  1  0  0  0  0
 15 17  2  0  0  0  0
 16 36  1  0  0  0  0
 16 38  1  0  0  0  0
 17 16  1  0  0  0  0
 18 19  1  0  0  0  0
 19 20  2  0  0  0  0
 19  7  1  0  0  0  0
 20 21  1  0  0  0  0
 21  6  2  0  0  0  0
 21 22  1  0  0  0  0
 22 44  1  0  0  0  0
 23 24  1  6  0  0  0
 23  5  1  0  0  0  0
 23  3  1  0  0  0  0
 27  8  1  0  0  0  0
 29 11  1  0  0  0  0
 34 14  1  0  0  0  0
 37 16  1  0  0  0  0
 39 18  1  0  0  0  0
 40 18  1  0  0  0  0
 41 18  1  0  0  0  0
 42 20  1  0  0  0  0
 43 22  1  0  0  0  0
 45 22  1  0  0  0  0
M  END
