1
q = 0.0, confidence = 0.984

 19 18  0  0  0  0  0  0  0  0999 V2000
   -1.5926   -1.0137    0.3321 P   0  0  0  0  0  0  0  0  0  0  0  0
   -1.6595   -2.3097    0.9491 H   0  0  0  0  0  0  0  0  0  0  0  0
   -1.8926   -1.4354   -1.0048 H   0  0  0  0  0  0  0  0  0  0  0  0
   -3.1465   -0.0412    1.0879 B   0  0  0  0  0  0  0  0  0  0  0  0
   -3.5326   -0.6291    2.0966 H   0  0  0  0  0  0  0  0  0  0  0  0
   -2.8333    1.1227    1.2961 H   0  0  0  0  0  0  0  0  0  0  0  0
   -4.4437    0.0090    0.0760 N   0  3  0  0  0  0  0  0  0  0  0  0
   -4.8554   -1.3609   -0.3269 C   0  0  0  0  0  0  0  0  0  0  0  0
   -5.0305   -1.9619    0.5840 H   0  0  0  0  0  0  0  0  0  0  0  0
   -4.0386   -1.8230   -0.9093 H   0  0  0  0  0  0  0  0  0  0  0  0
   -5.7778   -1.3202   -0.9430 H   0  0  0  0  0  0  0  0  0  0  0  0
   -5.5544    0.6520    0.8257 C   0  0  0  0  0  0  0  0  0  0  0  0
   -5.2165    1.6476    1.1642 H   0  0  0  0  0  0  0  0  0  0  0  0
   -5.7922    0.0379    1.7126 H   0  0  0  0  0  0  0  0  0  0  0  0
   -6.4495    0.7524    0.1760 H   0  0  0  0  0  0  0  0  0  0  0  0
   -4.1388    0.8226   -1.1360 C   0  0  0  0  0  0  0  0  0  0  0  0
   -5.0183    0.8321   -1.8136 H   0  0  0  0  0  0  0  0  0  0  0  0
   -3.2407    0.4214   -1.6440 H   0  0  0  0  0  0  0  0  0  0  0  0
   -3.8802    1.8470   -0.8169 H   0  0  0  0  0  0  0  0  0  0  0  0
  1  2  1  0  0  0  0
  1  4  1  0  0  0  0
  3  1  1  0  0  0  0
  4  6  1  0  0  0  0
  4  5  1  0  0  0  0
  7 12  1  0  0  0  0
  7  4  1  0  0  0  0
  8  7  1  0  0  0  0
  8  9  1  0  0  0  0
 10  8  1  0  0  0  0
 11  8  1  0  0  0  0
 12 13  1  0  0  0  0
 12 14  1  0  0  0  0
 15 12  1  0  0  0  0
 16 19  1  0  0  0  0
 16  7  1  0  0  0  0
 17 16  1  0  0  0  0
 18 16  1  0  0  0  0
M  CHG  1   7   1
M  END
