1
q = nan, confidence = 0.0

 11 10  0  0  0  0  0  0  0  0999 V2000
    1.5366   -0.3059    0.5624 P   0  0  0  0  0  0  0  0  0  0  0  0
    3.8783    0.2500    1.8198 F   0  0  0  0  0  0  0  0  0  0  0  0
    2.5159    1.9446    1.6407 F   0  0  0  0  0  0  0  0  0  0  0  0
    3.6372    1.2538   -0.1084 F   0  0  0  0  0  0  0  0  0  0  0  0
    3.5548   -2.0863    0.1535 F   0  0  0  0  0  0  0  0  0  0  0  0
    1.6219   -2.6399   -0.7056 F   0  0  0  0  0  0  0  0  0  0  0  0
    2.8568   -1.1142   -1.6739 F   0  0  0  0  0  0  0  0  0  0  0  0
    1.2299   -1.0571    1.9234 O   0  0  0  0  0  0  0  0  0  0  0  0
    2.9916    0.8477    1.0147 C   0  0  0  0  0  0  0  0  0  0  0  0
    2.4652   -1.6152   -0.4779 C   0  0  0  0  0  0  0  0  0  0  0  0
    0.1008   -1.1092    2.0444 H   0  0  0  0  0  0  0  0  0  0  0  0
  1  9  1  0  0  0  0
  1  8  1  0  0  0  0
  4  9  1  0  0  0  0
  6 10  1  0  0  0  0
  7 10  1  0  0  0  0
  8 11  1  0  0  0  0
  9  3  1  0  0  0  0
  9  2  1  0  0  0  0
 10  5  1  0  0  0  0
 10  1  1  0  0  0  0
M  END
