1
q = nan, confidence = 0.0

  5  4  0  0  0  0  0  0  0  0999 V2000
    0.1034    2.0036    0.7408 P   0  0  0  0  0  0  0  0  0  0  0  0
   -1.0267    1.7440    1.9921 F   0  0  0  0  0  0  0  0  0  0  0  0
    1.2521    2.4967   -0.3851 F   0  0  0  0  0  0  0  0  0  0  0  0
    1.1318    2.4818    1.9025 F   0  0  0  0  0  0  0  0  0  0  0  0
   -0.8001    3.2653    0.2836 F   0  0  0  0  0  0  0  0  0  0  0  0
  1  4  1  0  0  0  0
  1  2  1  0  0  0  0
  3  1  1  0  0  0  0
  5  1  1  0  0  0  0
M  END
