1
q = 0.0, confidence = 0.988

 56 60  0  0  0  0  0  0  0  0999 V2000
   -0.0973   -0.7022    0.2223 P   0  0  1  0  0  0  0  0  0  0  0  0
   -2.7954    0.3950   -1.4231 Si  0  0  0  0  0  0  0  0  0  0  0  0
    2.4591   -0.8182   -1.9088 Si  0  0  0  0  0  0  0  0  0  0  0  0
   -1.9138   -0.7256   -0.1774 C   0  0  0  0  0  0  0  0  0  0  0  0
   -4.6110    0.4559   -0.8964 C   0  0  0  0  0  0  0  0  0  0  0  0
   -4.9619    1.0492    0.3394 C   0  0  0  0  0  0  0  0  0  0  0  0
   -4.1761    1.4727    0.9871 H   0  0  0  0  0  0  0  0  0  0  0  0
   -6.2979    1.1060    0.7629 C   0  0  0  0  0  0  0  0  0  0  0  0
   -6.5496    1.5732    1.7276 H   0  0  0  0  0  0  0  0  0  0  0  0
   -7.3136    0.5687   -0.0454 C   0  0  0  0  0  0  0  0  0  0  0  0
   -8.3629    0.6130    0.2846 H   0  0  0  0  0  0  0  0  0  0  0  0
   -6.9865   -0.0239   -1.2746 C   0  0  0  0  0  0  0  0  0  0  0  0
   -7.7792   -0.4457   -1.9117 H   0  0  0  0  0  0  0  0  0  0  0  0
   -5.6469   -0.0791   -1.6935 C   0  0  0  0  0  0  0  0  0  0  0  0
   -5.4087   -0.5481   -2.6616 H   0  0  0  0  0  0  0  0  0  0  0  0
   -2.0430    2.1230   -1.4146 C   0  0  0  0  0  0  0  0  0  0  0  0
   -0.9744    2.1022   -1.7077 H   0  0  0  0  0  0  0  0  0  0  0  0
   -2.1030    2.5871   -0.4099 H   0  0  0  0  0  0  0  0  0  0  0  0
   -2.5869    2.7725   -2.1309 H   0  0  0  0  0  0  0  0  0  0  0  0
   -2.6201   -0.3990   -3.1301 C   0  0  0  0  0  0  0  0  0  0  0  0
   -3.1271    0.2091   -3.9070 H   0  0  0  0  0  0  0  0  0  0  0  0
   -3.0504   -1.4204   -3.1463 H   0  0  0  0  0  0  0  0  0  0  0  0
   -1.5500   -0.4807   -3.4099 H   0  0  0  0  0  0  0  0  0  0  0  0
   -2.5343   -1.5386    0.7524 C   0  0  0  0  0  0  0  0  0  0  0  0
   -3.6347   -1.5746    0.8296 H   0  0  0  0  0  0  0  0  0  0  0  0
   -1.6636   -2.4057    1.5687 C   0  0  0  0  0  0  0  0  0  0  0  0
   -0.3220   -2.0760    1.3373 C   0  0  0  0  0  0  0  0  0  0  0  0
    0.7157   -3.0162    1.2951 C   0  0  0  0  0  0  0  0  0  0  0  0
    0.4762   -4.2475    1.9477 C   0  0  0  0  0  0  0  0  0  0  0  0
    1.2483   -5.0310    1.9900 H   0  0  0  0  0  0  0  0  0  0  0  0
   -0.8178   -4.5058    2.4522 C   0  0  0  0  0  0  0  0  0  0  0  0
   -1.0082   -5.4694    2.9491 H   0  0  0  0  0  0  0  0  0  0  0  0
   -1.9073   -3.6359    2.2198 C   0  0  0  0  0  0  0  0  0  0  0  0
   -2.9306   -3.9593    2.4650 H   0  0  0  0  0  0  0  0  0  0  0  0
    1.7023   -2.6177    0.2743 C   0  0  0  0  0  0  0  0  0  0  0  0
    2.6527   -3.1643    0.1424 H   0  0  0  0  0  0  0  0  0  0  0  0
    1.3616   -1.5605   -0.5472 C   0  0  0  0  0  0  0  0  0  0  0  0
    1.5503    0.6434   -2.6813 C   0  0  0  0  0  0  0  0  0  0  0  0
    2.1413    1.0654   -3.5190 H   0  0  0  0  0  0  0  0  0  0  0  0
    1.3936    1.4504   -1.9361 H   0  0  0  0  0  0  0  0  0  0  0  0
    0.5593    0.3401   -3.0776 H   0  0  0  0  0  0  0  0  0  0  0  0
    2.7614   -2.1792   -3.1848 C   0  0  0  0  0  0  0  0  0  0  0  0
    1.8029   -2.4942   -3.6444 H   0  0  0  0  0  0  0  0  0  0  0  0
    3.2238   -3.0752   -2.7233 H   0  0  0  0  0  0  0  0  0  0  0  0
    3.4324   -1.8224   -3.9928 H   0  0  0  0  0  0  0  0  0  0  0  0
    4.0862   -0.2571   -1.1293 C   0  0  0  0  0  0  0  0  0  0  0  0
    5.2992   -0.9443   -1.3602 C   0  0  0  0  0  0  0  0  0  0  0  0
    5.3197   -1.8165   -2.0335 H   0  0  0  0  0  0  0  0  0  0  0  0
    6.4927   -0.5313   -0.7456 C   0  0  0  0  0  0  0  0  0  0  0  0
    7.4281   -1.0789   -0.9397 H   0  0  0  0  0  0  0  0  0  0  0  0
    6.4929    0.5788    0.1136 C   0  0  0  0  0  0  0  0  0  0  0  0
    7.4278    0.9021    0.5971 H   0  0  0  0  0  0  0  0  0  0  0  0
    5.2972    1.2755    0.3539 C   0  0  0  0  0  0  0  0  0  0  0  0
    5.2812    2.1470    1.0262 H   0  0  0  0  0  0  0  0  0  0  0  0
    4.1084    0.8614   -0.2634 C   0  0  0  0  0  0  0  0  0  0  0  0
    3.1844    1.4254   -0.0506 H   0  0  0  0  0  0  0  0  0  0  0  0
  1 37  1  6  0  0  0
  1 27  1  0  0  0  0
  2 16  1  0  0  0  0
  2  5  1  0  0  0  0
  2  4  1  0  0  0  0
  3 46  1  0  0  0  0
  3 37  1  0  0  0  0
  4  1  1  0  0  0  0
  4 24  2  0  0  0  0
  5  6  1  0  0  0  0
  6  8  2  0  0  0  0
  6  7  1  0  0  0  0
  8  9  1  0  0  0  0
 10 11  1  0  0  0  0
 10  8  1  0  0  0  0
 12 10  2  0  0  0  0
 13 12  1  0  0  0  0
 14 12  1  0  0  0  0
 14  5  2  0  0  0  0
 15 14  1  0  0  0  0
 16 18  1  0  0  0  0
 17 16  1  0  0  0  0
 19 16  1  0  0  0  0
 20  2  1  0  0  0  0
 21 20  1  0  0  0  0
 22 20  1  0  0  0  0
 23 20  1  0  0  0  0
 24 25  1  0  0  0  0
 24 26  1  0  0  0  0
 26 33  1  0  0  0  0
 27 26  2  0  0  0  0
 28 27  1  0  0  0  0
 28 29  2  0  0  0  0
 29 30  1  0  0  0  0
 29 31  1  0  0  0  0
 31 32  1  0  0  0  0
 33 31  2  0  0  0  0
 33 34  1  0  0  0  0
 35 28  1  0  0  0  0
 36 35  1  0  0  0  0
 37 35  2  0  0  0  0
 38 40  1  0  0  0  0
 38  3  1  0  0  0  0
 39 38  1  0  0  0  0
 41 38  1  0  0  0  0
 42 44  1  0  0  0  0
 42  3  1  0  0  0  0
 43 42  1  0  0  0  0
 45 42  1  0  0  0  0
 46 55  1  0  0  0  0
 47 46  2  0  0  0  0
 47 49  1  0  0  0  0
 48 47  1  0  0  0  0
 49 51  2  0  0  0  0
 50 49  1  0  0  0  0
 51 53  1  0  0  0  0
 51 52  1  0  0  0  0
 53 54  1  0  0  0  0
 55 56  1  0  0  0  0
 55 53  2  0  0  0  0
M  END
