1
q = 0.0, confidence = 0.986

 42 42  0  0  0  0  0  0  0  0999 V2000
   -0.6325    0.0549    0.0397 P   0  0  0  0  0  0  0  0  0  0  0  0
   -0.1725    1.5948    0.4695 O   0  0  0  0  0  0  0  0  0  0  0  0
   -1.7472    0.2353   -1.1796 O   0  0  0  0  0  0  0  0  0  0  0  0
   -1.7567   -0.1707    1.2295 O   0  0  0  0  0  0  0  0  0  0  0  0
    2.4008    0.4481   -0.4583 O   0  0  0  0  0  0  0  0  0  0  0  0
    3.2242   -0.0823   -0.2498 H   0  0  0  0  0  0  0  0  0  0  0  0
    0.9448    2.3341   -0.1095 C   0  0  0  0  0  0  0  0  0  0  0  0
    2.3071    1.6729    0.3238 C   0  0  0  0  0  0  0  0  0  0  0  0
    2.3474    1.3239    1.8141 C   0  0  0  0  0  0  0  0  0  0  0  0
    1.4992    0.6692    2.0886 H   0  0  0  0  0  0  0  0  0  0  0  0
    2.3144    2.2344    2.4428 H   0  0  0  0  0  0  0  0  0  0  0  0
    3.2871    0.7830    2.0433 H   0  0  0  0  0  0  0  0  0  0  0  0
    3.5158    2.5311   -0.0667 C   0  0  0  0  0  0  0  0  0  0  0  0
    3.5120    2.7784   -1.1449 H   0  0  0  0  0  0  0  0  0  0  0  0
    4.4474    1.9706    0.1509 H   0  0  0  0  0  0  0  0  0  0  0  0
    3.5514    3.4690    0.5184 H   0  0  0  0  0  0  0  0  0  0  0  0
    0.7830    2.3828   -1.6343 C   0  0  0  0  0  0  0  0  0  0  0  0
    0.8617    1.3756   -2.0846 H   0  0  0  0  0  0  0  0  0  0  0  0
    1.5546    3.0277   -2.0964 H   0  0  0  0  0  0  0  0  0  0  0  0
   -0.2115    2.8005   -1.8806 H   0  0  0  0  0  0  0  0  0  0  0  0
    0.7872    3.7353    0.4881 C   0  0  0  0  0  0  0  0  0  0  0  0
    0.8800    3.7179    1.5905 H   0  0  0  0  0  0  0  0  0  0  0  0
   -0.2210    4.1166    0.2374 H   0  0  0  0  0  0  0  0  0  0  0  0
    1.5344    4.4369    0.0727 H   0  0  0  0  0  0  0  0  0  0  0  0
   -3.0761    0.5421   -0.6459 C   0  0  0  0  0  0  0  0  0  0  0  0
   -3.1189   -0.2759    0.7039 C   0  0  0  0  0  0  0  0  0  0  0  0
   -3.1857    2.0569   -0.4340 C   0  0  0  0  0  0  0  0  0  0  0  0
   -2.4995    2.4077    0.3586 H   0  0  0  0  0  0  0  0  0  0  0  0
   -4.2213    2.3479   -0.1711 H   0  0  0  0  0  0  0  0  0  0  0  0
   -2.9147    2.5679   -1.3785 H   0  0  0  0  0  0  0  0  0  0  0  0
   -4.0864    0.0725   -1.6872 C   0  0  0  0  0  0  0  0  0  0  0  0
   -4.0096    0.7038   -2.5935 H   0  0  0  0  0  0  0  0  0  0  0  0
   -5.1184    0.1610   -1.2928 H   0  0  0  0  0  0  0  0  0  0  0  0
   -3.9043   -0.9761   -1.9832 H   0  0  0  0  0  0  0  0  0  0  0  0
   -3.4144   -1.7625    0.4864 C   0  0  0  0  0  0  0  0  0  0  0  0
   -2.7920   -2.1869   -0.3239 H   0  0  0  0  0  0  0  0  0  0  0  0
   -4.4801   -1.9305    0.2376 H   0  0  0  0  0  0  0  0  0  0  0  0
   -3.1816   -2.3141    1.4171 H   0  0  0  0  0  0  0  0  0  0  0  0
   -4.0490    0.3157    1.7576 C   0  0  0  0  0  0  0  0  0  0  0  0
   -3.7330    1.3332    2.0503 H   0  0  0  0  0  0  0  0  0  0  0  0
   -4.0406   -0.3213    2.6630 H   0  0  0  0  0  0  0  0  0  0  0  0
   -5.0888    0.3572    1.3761 H   0  0  0  0  0  0  0  0  0  0  0  0
  1  2  1  0  0  0  0
  1  4  1  0  0  0  0
  3 25  1  0  0  0  0
  3  1  1  0  0  0  0
  5  6  1  0  0  0  0
  5  8  1  0  0  0  0
  7  8  1  0  0  0  0
  7  2  1  0  0  0  0
  7 21  1  0  0  0  0
  8  9  1  0  0  0  0
  9 12  1  0  0  0  0
  9 10  1  0  0  0  0
  9 11  1  0  0  0  0
 13 15  1  0  0  0  0
 13  8  1  0  0  0  0
 13 16  1  0  0  0  0
 14 13  1  0  0  0  0
 17  7  1  0  0  0  0
 18 17  1  0  0  0  0
 19 17  1  0  0  0  0
 20 17  1  0  0  0  0
 21 22  1  0  0  0  0
 23 21  1  0  0  0  0
 24 21  1  0  0  0  0
 25 27  1  0  0  0  0
 25 26  1  0  0  0  0
 26  4  1  0  0  0  0
 26 39  1  0  0  0  0
 27 29  1  0  0  0  0
 27 28  1  0  0  0  0
 30 27  1  0  0  0  0
 31 33  1  0  0  0  0
 31 25  1  0  0  0  0
 32 31  1  0  0  0  0
 34 31  1  0  0  0  0
 35 26  1  0  0  0  0
 35 38  1  0  0  0  0
 36 35  1  0  0  0  0
 37 35  1  0  0  0  0
 39 40  1  0  0  0  0
 39 41  1  0  0  0  0
 42 39  1  0  0  0  0
M  END
