1
q = 0.0, confidence = 0.984

 42 43  0  0  1  0  0  0  0  0999 V2000
    0.5531    0.2404   -0.4037 P   0  0  2  0  0  0  0  0  0  0  0  0
    2.8011    0.5447    1.7149 Si  0  0  0  0  0  0  0  0  0  0  0  0
    3.4588   -0.4655   -1.3854 Si  0  0  0  0  0  0  0  0  0  0  0  0
    0.6603    1.0969   -1.9095 O   0  0  0  0  0  0  0  0  0  0  0  0
   -0.4799    3.6953    0.4727 N   0  0  0  0  0  0  0  0  0  0  0  0
    0.6491    2.0130   -0.7948 C   0  0  1  0  0  0  0  0  0  0  0  0
    1.6216    2.5032   -0.5845 H   0  0  0  0  0  0  0  0  0  0  0  0
   -0.5360    2.8926   -0.6091 C   0  0  0  0  0  0  0  0  0  0  0  0
   -1.6423    2.8398   -1.4778 C   0  0  0  0  0  0  0  0  0  0  0  0
   -1.6163    2.1785   -2.3542 H   0  0  0  0  0  0  0  0  0  0  0  0
   -2.7496    3.6473   -1.1870 C   0  0  0  0  0  0  0  0  0  0  0  0
   -3.6354    3.6313   -1.8402 H   0  0  0  0  0  0  0  0  0  0  0  0
   -2.7108    4.4677   -0.0507 C   0  0  0  0  0  0  0  0  0  0  0  0
   -3.5615    5.1096    0.2211 H   0  0  0  0  0  0  0  0  0  0  0  0
   -1.5489    4.4567    0.7406 C   0  0  0  0  0  0  0  0  0  0  0  0
   -1.4807    5.0963    1.6383 H   0  0  0  0  0  0  0  0  0  0  0  0
    2.2132   -0.3172    0.0788 C   0  0  0  0  0  0  0  0  0  0  0  0
    2.0435   -1.3789    0.3710 H   0  0  0  0  0  0  0  0  0  0  0  0
    1.3498    1.3521    2.6194 C   0  0  0  0  0  0  0  0  0  0  0  0
    1.7193    1.7498    3.5881 H   0  0  0  0  0  0  0  0  0  0  0  0
    0.5407    0.6304    2.8471 H   0  0  0  0  0  0  0  0  0  0  0  0
    0.9101    2.2009    2.0540 H   0  0  0  0  0  0  0  0  0  0  0  0
    4.0887    1.8906    1.3805 C   0  0  0  0  0  0  0  0  0  0  0  0
    4.3918    2.3398    2.3491 H   0  0  0  0  0  0  0  0  0  0  0  0
    3.6780    2.7073    0.7532 H   0  0  0  0  0  0  0  0  0  0  0  0
    5.0020    1.5001    0.8898 H   0  0  0  0  0  0  0  0  0  0  0  0
    3.5443   -0.8219    2.7881 C   0  0  0  0  0  0  0  0  0  0  0  0
    3.9385   -0.4008    3.7358 H   0  0  0  0  0  0  0  0  0  0  0  0
    4.3753   -1.3450    2.2740 H   0  0  0  0  0  0  0  0  0  0  0  0
    2.7681   -1.5709    3.0476 H   0  0  0  0  0  0  0  0  0  0  0  0
    2.6553   -1.5519   -2.7057 C   0  0  0  0  0  0  0  0  0  0  0  0
    3.3679   -1.7473   -3.5336 H   0  0  0  0  0  0  0  0  0  0  0  0
    1.7676   -1.0448   -3.1355 H   0  0  0  0  0  0  0  0  0  0  0  0
    2.3306   -2.5304   -2.2975 H   0  0  0  0  0  0  0  0  0  0  0  0
    3.9198    1.2000   -2.1456 C   0  0  0  0  0  0  0  0  0  0  0  0
    3.0238    1.6741   -2.5919 H   0  0  0  0  0  0  0  0  0  0  0  0
    4.6582    1.0331   -2.9574 H   0  0  0  0  0  0  0  0  0  0  0  0
    4.3729    1.8990   -1.4171 H   0  0  0  0  0  0  0  0  0  0  0  0
    5.0022   -1.3278   -0.7063 C   0  0  0  0  0  0  0  0  0  0  0  0
    5.5260   -0.7138    0.0536 H   0  0  0  0  0  0  0  0  0  0  0  0
    5.7181   -1.5230   -1.5315 H   0  0  0  0  0  0  0  0  0  0  0  0
    4.7483   -2.3034   -0.2434 H   0  0  0  0  0  0  0  0  0  0  0  0
  1 17  1  1  0  0  0
  2 19  1  0  0  0  0
  2 27  1  0  0  0  0
  3 39  1  0  0  0  0
  3 17  1  0  0  0  0
  4  6  1  0  0  0  0
  4  1  1  0  0  0  0
  5 15  1  0  0  0  0
  6  8  1  0  0  0  0
  6  7  1  1  0  0  0
  6  1  1  0  0  0  0
  8  5  2  0  0  0  0
  9 11  2  0  0  0  0
  9  8  1  0  0  0  0
 10  9  1  0  0  0  0
 11 13  1  0  0  0  0
 12 11  1  0  0  0  0
 13 14  1  0  0  0  0
 13 15  2  0  0  0  0
 15 16  1  0  0  0  0
 17 18  1  0  0  0  0
 17  2  1  0  0  0  0
 19 21  1  0  0  0  0
 19 20  1  0  0  0  0
 22 19  1  0  0  0  0
 23  2  1  0  0  0  0
 23 24  1  0  0  0  0
 25 23  1  0  0  0  0
 26 23  1  0  0  0  0
 27 30  1  0  0  0  0
 27 28  1  0  0  0  0
 29 27  1  0  0  0  0
 31 34  1  0  0  0  0
 31  3  1  0  0  0  0
 32 31  1  0  0  0  0
 33 31  1  0  0  0  0
 35 38  1  0  0  0  0
 35  3  1  0  0  0  0
 36 35  1  0  0  0  0
 37 35  1  0  0  0  0
 39 42  1  0  0  0  0
 39 40  1  0  0  0  0
 41 39  1  0  0  0  0
M  END
