1
q = -1.0, confidence = 0.02

 22 22  0  0  0  0  0  0  0  0999 V2000
    0.8256   -1.3953   -1.0556 P   0  0  0  0  0  4  0  0  0  0  0  0
    2.4267   -1.5369   -0.6492 O   0  0  0  0  0  0  0  0  0  0  0  0
    0.2979   -2.5434    0.0411 O   0  0  0  0  0  0  0  0  0  0  0  0
    0.4235   -1.7180   -2.4688 O   0  0  0  0  0  0  0  0  0  0  0  0
    2.6696   -2.6505    0.2676 C   0  0  0  0  0  0  0  0  0  0  0  0
    1.3100   -2.8030    1.0602 C   0  0  0  0  0  0  0  0  0  0  0  0
    3.8526   -2.2538    1.1424 C   0  0  0  0  0  0  0  0  0  0  0  0
    2.9867   -3.8723   -0.6000 C   0  0  0  0  0  0  0  0  0  0  0  0
    1.1442   -1.7743    2.1830 C   0  0  0  0  0  0  0  0  0  0  0  0
    1.0543   -4.2156    1.5778 C   0  0  0  0  0  0  0  0  0  0  0  0
    3.6867   -1.2652    1.6079 H   0  0  0  0  0  0  0  0  0  0  0  0
    4.0233   -3.0137    1.9315 H   0  0  0  0  0  0  0  0  0  0  0  0
    4.7668   -2.1846    0.5219 H   0  0  0  0  0  0  0  0  0  0  0  0
    3.8136   -3.6124   -1.2881 H   0  0  0  0  0  0  0  0  0  0  0  0
    3.3027   -4.7385    0.0139 H   0  0  0  0  0  0  0  0  0  0  0  0
    2.1107   -4.1641   -1.2119 H   0  0  0  0  0  0  0  0  0  0  0  0
    0.0795   -1.7549    2.4865 H   0  0  0  0  0  0  0  0  0  0  0  0
    1.7604   -2.0428    3.0633 H   0  0  0  0  0  0  0  0  0  0  0  0
    1.4420   -0.7575    1.8563 H   0  0  0  0  0  0  0  0  0  0  0  0
    0.1030   -4.2372    2.1454 H   0  0  0  0  0  0  0  0  0  0  0  0
    0.9829   -4.9458    0.7511 H   0  0  0  0  0  0  0  0  0  0  0  0
    1.8669   -4.5278    2.2636 H   0  0  0  0  0  0  0  0  0  0  0  0
  1  2  1  0  0  0  0
  1  3  1  0  0  0  0
  2  5  1  0  0  0  0
  3  6  1  0  0  0  0
  4  1  2  0  0  0  0
  5  6  1  0  0  0  0
  5  7  1  0  0  0  0
  6 10  1  0  0  0  0
  6  9  1  0  0  0  0
  7 11  1  0  0  0  0
  7 12  1  0  0  0  0
  8 15  1  0  0  0  0
  8  5  1  0  0  0  0
  9 17  1  0  0  0  0
  9 18  1  0  0  0  0
 10 20  1  0  0  0  0
 10 22  1  0  0  0  0
 13  7  1  0  0  0  0
 14  8  1  0  0  0  0
 16  8  1  0  0  0  0
 19  9  1  0  0  0  0
 21 10  1  0  0  0  0
M  END
