1
q = 0.0, confidence = 0.996

 33 35  0  0  1  0  0  0  0  0999 V2000
   -0.0352    0.5542    0.6342 P   0  0  0  0  0  2  0  0  0  0  0  0
   -5.5629   -0.3245   -1.1711 Cl  0  0  0  0  0  0  0  0  0  0  0  0
   -4.0062   -3.0411   -0.4289 Cl  0  0  0  0  0  0  0  0  0  0  0  0
   -1.0839    1.8559    0.3270 C   0  0  2  0  0  3  0  0  0  0  0  0
   -2.5524    1.5868    0.6969 C   0  0  1  0  0  0  0  0  0  0  0  0
   -3.1681    2.4784    0.4766 H   0  0  0  0  0  0  0  0  0  0  0  0
   -3.0169    0.3969   -0.1992 C   0  0  2  0  0  0  0  0  0  0  0  0
   -2.9401    0.6649   -1.2689 H   0  0  0  0  0  0  0  0  0  0  0  0
   -4.3741   -0.2648    0.1553 C   0  0  2  0  0  0  0  0  0  0  0  0
   -4.8781    0.1842    1.0320 H   0  0  0  0  0  0  0  0  0  0  0  0
   -3.6285   -1.5870    0.5268 C   0  0  2  0  0  0  0  0  0  0  0  0
   -3.7481   -1.8494    1.5949 H   0  0  0  0  0  0  0  0  0  0  0  0
   -2.2701   -0.9084    0.1857 C   0  0  2  0  0  0  0  0  0  0  0  0
   -1.7528   -1.4114   -0.6521 H   0  0  0  0  0  0  0  0  0  0  0  0
   -1.2999   -0.6491    1.3719 C   0  0  2  0  0  0  0  0  0  0  0  0
   -0.7719   -1.5692    1.6843 H   0  0  0  0  0  0  0  0  0  0  0  0
   -2.0347    0.0398    2.4900 C   0  0  0  0  0  0  0  0  0  0  0  0
   -2.0142   -0.3667    3.5122 H   0  0  0  0  0  0  0  0  0  0  0  0
   -2.6818    1.1748    2.1498 C   0  0  0  0  0  0  0  0  0  0  0  0
   -3.2567    1.7856    2.8612 H   0  0  0  0  0  0  0  0  0  0  0  0
   -0.7292    3.2098   -0.2767 C   0  0  0  0  0  0  0  0  0  0  0  0
    0.7858    3.3954   -0.4496 C   0  0  0  0  0  0  0  0  0  0  0  0
    1.3135    3.3183    0.5213 H   0  0  0  0  0  0  0  0  0  0  0  0
    0.9978    4.3980   -0.8722 H   0  0  0  0  0  0  0  0  0  0  0  0
    1.2170    2.6458   -1.1382 H   0  0  0  0  0  0  0  0  0  0  0  0
   -1.2406    4.3346    0.6569 C   0  0  0  0  0  0  0  0  0  0  0  0
   -0.7841    4.2487    1.6633 H   0  0  0  0  0  0  0  0  0  0  0  0
   -2.3418    4.3243    0.7755 H   0  0  0  0  0  0  0  0  0  0  0  0
   -0.9633    5.3223    0.2359 H   0  0  0  0  0  0  0  0  0  0  0  0
   -1.4128    3.3263   -1.6615 C   0  0  0  0  0  0  0  0  0  0  0  0
   -1.2010    4.3207   -2.1050 H   0  0  0  0  0  0  0  0  0  0  0  0
   -2.5142    3.2190   -1.5944 H   0  0  0  0  0  0  0  0  0  0  0  0
   -1.0292    2.5506   -2.3540 H   0  0  0  0  0  0  0  0  0  0  0  0
  1 15  1  0  0  0  0
  2  9  1  0  0  0  0
  3 11  1  0  0  0  0
  4 21  1  6  0  0  0
  4  1  1  0  0  0  0
  4  5  1  0  0  0  0
  5  6  1  6  0  0  0
  5 19  1  0  0  0  0
  7  8  1  6  0  0  0
  7  9  1  0  0  0  0
  7 13  1  0  0  0  0
  7  5  1  0  0  0  0
  9 11  1  0  0  0  0
  9 10  1  1  0  0  0
 11 12  1  1  0  0  0
 13 14  1  6  0  0  0
 13 11  1  0  0  0  0
 13 15  1  0  0  0  0
 15 16  1  1  0  0  0
 15 17  1  0  0  0  0
 17 18  1  0  0  0  0
 19 17  2  0  0  0  0
 19 20  1  0  0  0  0
 21 26  1  0  0  0  0
 22 21  1  0  0  0  0
 22 23  1  0  0  0  0
 24 22  1  0  0  0  0
 25 22  1  0  0  0  0
 26 28  1  0  0  0  0
 26 27  1  0  0  0  0
 29 26  1  0  0  0  0
 30 32  1  0  0  0  0
 30 21  1  0  0  0  0
 31 30  1  0  0  0  0
 33 30  1  0  0  0  0
M  END
