1
q = -1.0

  9  8  0  0  0  0  0  0  0  0999 V2000
    1.7440   -1.5971   -0.3215 P   0  0  0  0  0  2  0  0  0  0  0  0
    1.8366   -3.0871    0.7565 C   0  0  0  0  0  0  0  0  0  0  0  0
    0.9126   -3.6769    0.6012 H   0  0  0  0  0  0  0  0  0  0  0  0
    1.8881   -2.7750    1.8159 H   0  0  0  0  0  0  0  0  0  0  0  0
    2.7153   -3.7141    0.5130 H   0  0  0  0  0  0  0  0  0  0  0  0
    1.8187   -2.3259   -2.0088 C   0  0  0  0  0  0  0  0  0  0  0  0
    2.7369   -2.9265   -2.1555 H   0  0  0  0  0  0  0  0  0  0  0  0
    1.7765   -1.5174   -2.7604 H   0  0  0  0  0  0  0  0  0  0  0  0
    0.9255   -2.9676   -2.1360 H   0  0  0  0  0  0  0  0  0  0  0  0
  1  2  1  0  0  0  0
  2  4  1  0  0  0  0
  3  2  1  0  0  0  0
  5  2  1  0  0  0  0
  6  1  1  0  0  0  0
  7  6  1  0  0  0  0
  8  6  1  0  0  0  0
  9  6  1  0  0  0  0
M  END
