1
q = 0.0, confidence = 0.982

 60 61  0  0  0  0  0  0  0  0999 V2000
   -0.9967    0.5045    1.1247 P   0  0  0  0  0  0  0  0  0  0  0  0
    0.8660   -2.3786   -0.9737 Cl  0  0  0  0  0  0  0  0  0  0  0  0
    1.2325    0.4851   -1.3165 C   0  0  0  0  0  0  0  0  0  0  0  0
    0.8117    1.7369   -0.7344 C   0  0  0  0  0  0  0  0  0  0  0  0
    0.1235    1.8587    0.5329 C   0  0  0  0  0  0  0  0  0  0  0  0
    2.8717   -0.8438    0.2245 N   0  0  0  0  0  0  0  0  0  0  0  0
    1.1079    2.9593   -1.4498 C   0  0  0  0  0  0  0  0  0  0  0  0
    0.4988    4.2904    0.5055 C   0  0  0  0  0  0  0  0  0  0  0  0
    0.4173    5.2586    1.0213 H   0  0  0  0  0  0  0  0  0  0  0  0
    0.9548    4.2186   -0.7990 C   0  0  0  0  0  0  0  0  0  0  0  0
    1.2132    5.1329   -1.3556 H   0  0  0  0  0  0  0  0  0  0  0  0
    0.0360    3.1125    1.1437 C   0  0  0  0  0  0  0  0  0  0  0  0
   -0.4674    3.2150    2.1157 H   0  0  0  0  0  0  0  0  0  0  0  0
    1.6487    0.4842   -2.6536 C   0  0  0  0  0  0  0  0  0  0  0  0
    1.9433   -0.4721   -3.1149 H   0  0  0  0  0  0  0  0  0  0  0  0
    1.5710    2.8961   -2.7978 C   0  0  0  0  0  0  0  0  0  0  0  0
    1.7601    3.8391   -3.3337 H   0  0  0  0  0  0  0  0  0  0  0  0
    1.7748    1.6743   -3.4137 C   0  0  0  0  0  0  0  0  0  0  0  0
    2.0966    1.6222   -4.4645 H   0  0  0  0  0  0  0  0  0  0  0  0
    1.6947   -0.8352   -0.5634 B   0  0  0  0  0  0  0  0  0  0  0  0
    3.5811   -2.0573    0.7219 C   0  0  0  0  0  0  0  0  0  0  0  0
    4.4880   -1.6727    1.2307 H   0  0  0  0  0  0  0  0  0  0  0  0
    4.0810   -2.9620   -0.4124 C   0  0  0  0  0  0  0  0  0  0  0  0
    3.2442   -3.4491   -0.9461 H   0  0  0  0  0  0  0  0  0  0  0  0
    4.7365   -3.7552    0.0009 H   0  0  0  0  0  0  0  0  0  0  0  0
    4.6693   -2.3796   -1.1481 H   0  0  0  0  0  0  0  0  0  0  0  0
    3.6015    0.4266    0.4774 C   0  0  0  0  0  0  0  0  0  0  0  0
    2.9550    1.2294    0.0813 H   0  0  0  0  0  0  0  0  0  0  0  0
    3.7866    0.7108    1.9730 C   0  0  0  0  0  0  0  0  0  0  0  0
    2.8147    0.7015    2.5026 H   0  0  0  0  0  0  0  0  0  0  0  0
    4.2381    1.7134    2.1103 H   0  0  0  0  0  0  0  0  0  0  0  0
    4.4577   -0.0212    2.4676 H   0  0  0  0  0  0  0  0  0  0  0  0
   -2.3661    1.3962    2.0530 C   0  0  0  0  0  0  0  0  0  0  0  0
   -1.8913    2.0169    2.8431 H   0  0  0  0  0  0  0  0  0  0  0  0
   -3.2970    0.3760    2.7232 C   0  0  0  0  0  0  0  0  0  0  0  0
   -4.1738    0.9029    3.1526 H   0  0  0  0  0  0  0  0  0  0  0  0
   -2.8053   -0.1770    3.5458 H   0  0  0  0  0  0  0  0  0  0  0  0
   -3.6728   -0.3619    1.9840 H   0  0  0  0  0  0  0  0  0  0  0  0
   -3.1522    2.2936    1.0873 C   0  0  0  0  0  0  0  0  0  0  0  0
   -3.6378    1.6795    0.3012 H   0  0  0  0  0  0  0  0  0  0  0  0
   -2.5140    3.0433    0.5817 H   0  0  0  0  0  0  0  0  0  0  0  0
   -3.9458    2.8354    1.6422 H   0  0  0  0  0  0  0  0  0  0  0  0
    2.7862   -2.8203    1.7871 C   0  0  0  0  0  0  0  0  0  0  0  0
    2.5439   -2.1633    2.6459 H   0  0  0  0  0  0  0  0  0  0  0  0
    3.3883   -3.6688    2.1700 H   0  0  0  0  0  0  0  0  0  0  0  0
    1.8428   -3.2261    1.3773 H   0  0  0  0  0  0  0  0  0  0  0  0
    4.9206    0.4937   -0.3020 C   0  0  0  0  0  0  0  0  0  0  0  0
    5.6524   -0.2675    0.0387 H   0  0  0  0  0  0  0  0  0  0  0  0
    5.3910    1.4882   -0.1661 H   0  0  0  0  0  0  0  0  0  0  0  0
    4.7407    0.3440   -1.3850 H   0  0  0  0  0  0  0  0  0  0  0  0
   -0.0253   -0.4951    2.3768 C   0  0  0  0  0  0  0  0  0  0  0  0
    0.9324   -0.6391    1.8320 H   0  0  0  0  0  0  0  0  0  0  0  0
   -0.6318   -1.8815    2.6181 C   0  0  0  0  0  0  0  0  0  0  0  0
    0.0691   -2.4973    3.2181 H   0  0  0  0  0  0  0  0  0  0  0  0
   -0.8205   -2.4052    1.6603 H   0  0  0  0  0  0  0  0  0  0  0  0
   -1.5891   -1.8316    3.1713 H   0  0  0  0  0  0  0  0  0  0  0  0
    0.2677    0.2812    3.6635 C   0  0  0  0  0  0  0  0  0  0  0  0
   -0.6448    0.4235    4.2773 H   0  0  0  0  0  0  0  0  0  0  0  0
    0.7037    1.2799    3.4581 H   0  0  0  0  0  0  0  0  0  0  0  0
    0.9962   -0.2785    4.2867 H   0  0  0  0  0  0  0  0  0  0  0  0
  1 33  1  0  0  0  0
  1 51  1  0  0  0  0
  2 20  1  0  0  0  0
  3  4  1  0  0  0  0
  3 20  1  0  0  0  0
  4  5  1  0  0  0  0
  5  1  1  0  0  0  0
  5 12  2  0  0  0  0
  6 27  1  0  0  0  0
  6 21  1  0  0  0  0
  7 10  1  0  0  0  0
  7  4  2  0  0  0  0
  8  9  1  0  0  0  0
  8 12  1  0  0  0  0
 10  8  2  0  0  0  0
 11 10  1  0  0  0  0
 12 13  1  0  0  0  0
 14  3  2  0  0  0  0
 15 14  1  0  0  0  0
 16  7  1  0  0  0  0
 17 16  1  0  0  0  0
 18 16  2  0  0  0  0
 18 14  1  0  0  0  0
 19 18  1  0  0  0  0
 20  6  1  0  0  0  0
 21 22  1  0  0  0  0
 21 43  1  0  0  0  0
 23 25  1  0  0  0  0
 23 21  1  0  0  0  0
 24 23  1  0  0  0  0
 26 23  1  0  0  0  0
 27 29  1  0  0  0  0
 28 27  1  0  0  0  0
 29 31  1  0  0  0  0
 29 32  1  0  0  0  0
 29 30  1  0  0  0  0
 33 35  1  0  0  0  0
 33 34  1  0  0  0  0
 35 36  1  0  0  0  0
 35 37  1  0  0  0  0
 38 35  1  0  0  0  0
 39 42  1  0  0  0  0
 39 33  1  0  0  0  0
 40 39  1  0  0  0  0
 41 39  1  0  0  0  0
 43 45  1  0  0  0  0
 43 44  1  0  0  0  0
 46 43  1  0  0  0  0
 47 49  1  0  0  0  0
 47 48  1  0  0  0  0
 47 27  1  0  0  0  0
 50 47  1  0  0  0  0
 51 53  1  0  0  0  0
 51 57  1  0  0  0  0
 52 51  1  0  0  0  0
 53 56  1  0  0  0  0
 53 54  1  0  0  0  0
 55 53  1  0  0  0  0
 57 58  1  0  0  0  0
 57 60  1  0  0  0  0
 59 57  1  0  0  0  0
M  END
