1
q = 0.0, confidence = 0.998

 50 52  0  0  0  0  0  0  0  0999 V2000
    0.0911   -0.2292    0.5353 P   0  0  0  0  0  0  0  0  0  0  0  0
    2.1697   -0.5955   -1.4794 O   0  0  0  0  0  0  0  0  0  0  0  0
    4.3506   -1.4123   -1.8218 O   0  0  0  0  0  0  0  0  0  0  0  0
   -2.6147   -0.8047   -0.4068 O   0  0  0  0  0  0  0  0  0  0  0  0
   -4.5591   -1.9208   -1.1508 O   0  0  0  0  0  0  0  0  0  0  0  0
   -1.3536   -0.6855    1.5839 C   0  0  0  0  0  0  0  0  0  0  0  0
   -2.6145   -0.8813    0.9583 C   0  0  0  0  0  0  0  0  0  0  0  0
   -3.7585   -1.1515    1.7322 C   0  0  0  0  0  0  0  0  0  0  0  0
   -4.7136   -1.3715    1.2379 H   0  0  0  0  0  0  0  0  0  0  0  0
   -3.6562   -1.1775    3.1314 C   0  0  0  0  0  0  0  0  0  0  0  0
   -4.5560   -1.3839    3.7305 H   0  0  0  0  0  0  0  0  0  0  0  0
   -2.4246   -0.9558    3.7637 C   0  0  0  0  0  0  0  0  0  0  0  0
   -2.3492   -0.9754    4.8607 H   0  0  0  0  0  0  0  0  0  0  0  0
   -1.2789   -0.7205    2.9884 C   0  0  0  0  0  0  0  0  0  0  0  0
   -0.3090   -0.5551    3.4797 H   0  0  0  0  0  0  0  0  0  0  0  0
    0.3351   -1.7281   -0.5257 C   0  0  0  0  0  0  0  0  0  0  0  0
    1.4255   -1.7388   -1.4327 C   0  0  0  0  0  0  0  0  0  0  0  0
    1.7078   -2.8931   -2.1903 C   0  0  0  0  0  0  0  0  0  0  0  0
    2.5855   -2.9236   -2.8476 H   0  0  0  0  0  0  0  0  0  0  0  0
    0.8949   -4.0272   -2.0597 C   0  0  0  0  0  0  0  0  0  0  0  0
    1.1256   -4.9238   -2.6548 H   0  0  0  0  0  0  0  0  0  0  0  0
   -0.1822   -4.0331   -1.1621 C   0  0  0  0  0  0  0  0  0  0  0  0
   -0.8048   -4.9318   -1.0410 H   0  0  0  0  0  0  0  0  0  0  0  0
   -0.4482   -2.8884   -0.3957 C   0  0  0  0  0  0  0  0  0  0  0  0
   -1.2703   -2.9031    0.3333 H   0  0  0  0  0  0  0  0  0  0  0  0
    1.5314   -0.4628    1.6821 C   0  0  0  0  0  0  0  0  0  0  0  0
    1.8539   -1.7566    2.1474 C   0  0  0  0  0  0  0  0  0  0  0  0
    1.2396   -2.6167    1.8416 H   0  0  0  0  0  0  0  0  0  0  0  0
    2.9587   -1.9525    2.9872 C   0  0  0  0  0  0  0  0  0  0  0  0
    3.1999   -2.9658    3.3427 H   0  0  0  0  0  0  0  0  0  0  0  0
    3.7594   -0.8615    3.3671 C   0  0  0  0  0  0  0  0  0  0  0  0
    4.6304   -1.0175    4.0216 H   0  0  0  0  0  0  0  0  0  0  0  0
    3.4457    0.4254    2.9063 C   0  0  0  0  0  0  0  0  0  0  0  0
    4.0683    1.2854    3.1957 H   0  0  0  0  0  0  0  0  0  0  0  0
    2.3362    0.6236    2.0683 C   0  0  0  0  0  0  0  0  0  0  0  0
    2.1009    1.6314    1.7020 H   0  0  0  0  0  0  0  0  0  0  0  0
   -3.8601   -0.7251   -1.1107 C   0  0  0  0  0  0  0  0  0  0  0  0
   -4.5143    0.0240   -0.6197 H   0  0  0  0  0  0  0  0  0  0  0  0
   -3.5572   -0.3797   -2.1252 H   0  0  0  0  0  0  0  0  0  0  0  0
   -3.9646   -2.9136   -1.9769 C   0  0  0  0  0  0  0  0  0  0  0  0
   -3.8745   -2.5595   -3.0303 H   0  0  0  0  0  0  0  0  0  0  0  0
   -4.6266   -3.7991   -1.9500 H   0  0  0  0  0  0  0  0  0  0  0  0
   -2.9515   -3.2004   -1.6212 H   0  0  0  0  0  0  0  0  0  0  0  0
    3.3579   -0.5621   -2.2789 C   0  0  0  0  0  0  0  0  0  0  0  0
    3.1232   -0.8632   -3.3218 H   0  0  0  0  0  0  0  0  0  0  0  0
    3.6610    0.5067   -2.2384 H   0  0  0  0  0  0  0  0  0  0  0  0
    4.8509   -1.0676   -0.5339 C   0  0  0  0  0  0  0  0  0  0  0  0
    5.1986   -0.0090   -0.5055 H   0  0  0  0  0  0  0  0  0  0  0  0
    5.7066   -1.7377   -0.3295 H   0  0  0  0  0  0  0  0  0  0  0  0
    4.0844   -1.2024    0.2593 H   0  0  0  0  0  0  0  0  0  0  0  0
  1  6  1  0  0  0  0
  1 26  1  0  0  0  0
  2 17  1  0  0  0  0
  3 47  1  0  0  0  0
  4  7  1  0  0  0  0
  5 37  1  0  0  0  0
  6 14  1  0  0  0  0
  7  6  2  0  0  0  0
  7  8  1  0  0  0  0
  8 10  2  0  0  0  0
  9  8  1  0  0  0  0
 10 11  1  0  0  0  0
 10 12  1  0  0  0  0
 12 13  1  0  0  0  0
 14 15  1  0  0  0  0
 14 12  2  0  0  0  0
 16 24  1  0  0  0  0
 16  1  1  0  0  0  0
 17 16  2  0  0  0  0
 18 20  2  0  0  0  0
 18 17  1  0  0  0  0
 19 18  1  0  0  0  0
 20 22  1  0  0  0  0
 21 20  1  0  0  0  0
 22 23  1  0  0  0  0
 22 24  2  0  0  0  0
 24 25  1  0  0  0  0
 26 35  2  0  0  0  0
 26 27  1  0  0  0  0
 27 29  2  0  0  0  0
 28 27  1  0  0  0  0
 29 30  1  0  0  0  0
 29 31  1  0  0  0  0
 31 32  1  0  0  0  0
 33 34  1  0  0  0  0
 33 31  2  0  0  0  0
 35 33  1  0  0  0  0
 36 35  1  0  0  0  0
 37 38  1  0  0  0  0
 37  4  1  0  0  0  0
 39 37  1  0  0  0  0
 40 42  1  0  0  0  0
 40 43  1  0  0  0  0
 40  5  1  0  0  0  0
 41 40  1  0  0  0  0
 44 46  1  0  0  0  0
 44  3  1  0  0  0  0
 44  2  1  0  0  0  0
 45 44  1  0  0  0  0
 47 48  1  0  0  0  0
 47 49  1  0  0  0  0
 47 50  1  0  0  0  0
M  END
