1
q = 0.0, confidence = 0.996

 47 49  0  0  0  0  0  0  0  0999 V2000
   -0.9077   -0.2604    0.0134 P   0  0  0  0  0  0  0  0  0  0  0  0
    3.4486   -0.5723   -0.0978 Si  0  0  0  0  0  0  0  0  0  0  0  0
    1.8155   -0.6456   -0.6480 O   0  0  0  0  0  0  0  0  0  0  0  0
    3.8932   -2.2872    0.5390 C   0  0  0  0  0  0  0  0  0  0  0  0
    3.8400   -3.0508   -0.2632 H   0  0  0  0  0  0  0  0  0  0  0  0
    4.9227   -2.2999    0.9527 H   0  0  0  0  0  0  0  0  0  0  0  0
    3.1922   -2.5845    1.3457 H   0  0  0  0  0  0  0  0  0  0  0  0
    3.3512    0.7066    1.2628 C   0  0  0  0  0  0  0  0  0  0  0  0
    2.9982    1.6787    0.8600 H   0  0  0  0  0  0  0  0  0  0  0  0
    2.6327    0.3814    2.0423 H   0  0  0  0  0  0  0  0  0  0  0  0
    4.3406    0.8611    1.7399 H   0  0  0  0  0  0  0  0  0  0  0  0
    4.5557   -0.0186   -1.5141 C   0  0  0  0  0  0  0  0  0  0  0  0
    4.1699    0.9238   -1.9534 H   0  0  0  0  0  0  0  0  0  0  0  0
    5.5827    0.1765   -1.1411 H   0  0  0  0  0  0  0  0  0  0  0  0
    4.6290   -0.7737   -2.3223 H   0  0  0  0  0  0  0  0  0  0  0  0
   -0.3148   -1.3293   -1.3481 C   0  0  0  0  0  0  0  0  0  0  0  0
    1.0981   -1.3860   -1.5065 C   0  0  0  0  0  0  0  0  0  0  0  0
    1.6482   -2.1890   -2.5260 C   0  0  0  0  0  0  0  0  0  0  0  0
    2.7394   -2.2343   -2.6526 H   0  0  0  0  0  0  0  0  0  0  0  0
    0.7995   -2.9107   -3.3786 C   0  0  0  0  0  0  0  0  0  0  0  0
    1.2392   -3.5317   -4.1740 H   0  0  0  0  0  0  0  0  0  0  0  0
   -0.5959   -2.8455   -3.2321 C   0  0  0  0  0  0  0  0  0  0  0  0
   -1.2528   -3.4109   -3.9088 H   0  0  0  0  0  0  0  0  0  0  0  0
   -1.1508   -2.0532   -2.2147 C   0  0  0  0  0  0  0  0  0  0  0  0
   -2.2424   -1.9967   -2.0877 H   0  0  0  0  0  0  0  0  0  0  0  0
   -2.7309   -0.4598   -0.0115 C   0  0  0  0  0  0  0  0  0  0  0  0
   -3.5057    0.5335   -0.6437 C   0  0  0  0  0  0  0  0  0  0  0  0
   -3.0069    1.4215   -1.0645 H   0  0  0  0  0  0  0  0  0  0  0  0
   -4.8992    0.3930   -0.7213 C   0  0  0  0  0  0  0  0  0  0  0  0
   -5.4993    1.1722   -1.2148 H   0  0  0  0  0  0  0  0  0  0  0  0
   -5.5253   -0.7315   -0.1602 C   0  0  0  0  0  0  0  0  0  0  0  0
   -6.6196   -0.8365   -0.2144 H   0  0  0  0  0  0  0  0  0  0  0  0
   -4.7566   -1.7180    0.4793 C   0  0  0  0  0  0  0  0  0  0  0  0
   -5.2466   -2.5959    0.9270 H   0  0  0  0  0  0  0  0  0  0  0  0
   -3.3622   -1.5862    0.5542 C   0  0  0  0  0  0  0  0  0  0  0  0
   -2.7621   -2.3569    1.0612 H   0  0  0  0  0  0  0  0  0  0  0  0
   -0.3405   -1.1218    1.5375 C   0  0  0  0  0  0  0  0  0  0  0  0
   -0.2131   -0.3752    2.7259 C   0  0  0  0  0  0  0  0  0  0  0  0
   -0.4471    0.7014    2.7171 H   0  0  0  0  0  0  0  0  0  0  0  0
    0.2349   -0.9959    3.9011 C   0  0  0  0  0  0  0  0  0  0  0  0
    0.3370   -0.4059    4.8244 H   0  0  0  0  0  0  0  0  0  0  0  0
    0.5650   -2.3613    3.8954 C   0  0  0  0  0  0  0  0  0  0  0  0
    0.9253   -2.8448    4.8161 H   0  0  0  0  0  0  0  0  0  0  0  0
    0.4416   -3.1069    2.7119 C   0  0  0  0  0  0  0  0  0  0  0  0
    0.7040   -4.1758    2.7024 H   0  0  0  0  0  0  0  0  0  0  0  0
   -0.0110   -2.4914    1.5343 C   0  0  0  0  0  0  0  0  0  0  0  0
   -0.0907   -3.0715    0.6020 H   0  0  0  0  0  0  0  0  0  0  0  0
  1 37  1  0  0  0  0
  2  4  1  0  0  0  0
  2  8  1  0  0  0  0
  3  2  1  0  0  0  0
  4  6  1  0  0  0  0
  4  7  1  0  0  0  0
  5  4  1  0  0  0  0
  8 11  1  0  0  0  0
  8 10  1  0  0  0  0
  9  8  1  0  0  0  0
 12 14  1  0  0  0  0
 12  2  1  0  0  0  0
 13 12  1  0  0  0  0
 15 12  1  0  0  0  0
 16  1  1  0  0  0  0
 17 16  1  0  0  0  0
 17  3  1  0  0  0  0
 18 17  2  0  0  0  0
 19 18  1  0  0  0  0
 20 22  2  0  0  0  0
 20 18  1  0  0  0  0
 21 20  1  0  0  0  0
 22 24  1  0  0  0  0
 23 22  1  0  0  0  0
 24 25  1  0  0  0  0
 24 16  2  0  0  0  0
 26  1  1  0  0  0  0
 26 35  1  0  0  0  0
 27 26  2  0  0  0  0
 28 27  1  0  0  0  0
 29 27  1  0  0  0  0
 29 31  2  0  0  0  0
 30 29  1  0  0  0  0
 31 33  1  0  0  0  0
 32 31  1  0  0  0  0
 33 35  2  0  0  0  0
 33 34  1  0  0  0  0
 35 36  1  0  0  0  0
 37 38  1  0  0  0  0
 38 40  2  0  0  0  0
 39 38  1  0  0  0  0
 40 41  1  0  0  0  0
 42 40  1  0  0  0  0
 42 43  1  0  0  0  0
 44 42  2  0  0  0  0
 45 44  1  0  0  0  0
 46 37  2  0  0  0  0
 46 44  1  0  0  0  0
 47 46  1  0  0  0  0
M  END
