1
q = 0.0, confidence = 0.998

 70 72  0  0  0  0  0  0  0  0999 V2000
    0.0644   -0.0055   -0.1785 P   0  0  0  0  0  0  0  0  0  0  0  0
    1.5206   -0.6553   -1.0751 C   0  0  0  0  0  0  0  0  0  0  0  0
    1.6129   -2.0727   -1.1391 C   0  0  0  0  0  0  0  0  0  0  0  0
    0.6435   -2.7311   -0.4520 O   0  0  0  0  0  0  0  0  0  0  0  0
    0.5624   -4.1405   -0.5302 C   0  0  0  0  0  0  0  0  0  0  0  0
    2.6344   -2.7238   -1.8436 C   0  0  0  0  0  0  0  0  0  0  0  0
    3.5909   -1.9485   -2.5267 C   0  0  0  0  0  0  0  0  0  0  0  0
    4.5570   -2.6519   -3.1836 O   0  0  0  0  0  0  0  0  0  0  0  0
    5.5359   -1.9361   -3.9080 C   0  0  0  0  0  0  0  0  0  0  0  0
    3.5159   -0.5447   -2.5167 C   0  0  0  0  0  0  0  0  0  0  0  0
    2.4739    0.0913   -1.8028 C   0  0  0  0  0  0  0  0  0  0  0  0
    2.3293    1.4428   -1.8008 O   0  0  0  0  0  0  0  0  0  0  0  0
    3.2713    2.2532   -2.4649 C   0  0  0  0  0  0  0  0  0  0  0  0
    0.1569   -0.5527    1.5774 C   0  0  0  0  0  0  0  0  0  0  0  0
   -1.0691   -0.4581    2.2943 C   0  0  0  0  0  0  0  0  0  0  0  0
   -2.0919    0.1314    1.6159 O   0  0  0  0  0  0  0  0  0  0  0  0
   -3.4153    0.0597    2.1257 C   0  0  0  0  0  0  0  0  0  0  0  0
   -1.2055   -0.9446    3.6017 C   0  0  0  0  0  0  0  0  0  0  0  0
   -0.0941   -1.5393    4.2278 C   0  0  0  0  0  0  0  0  0  0  0  0
   -0.3048   -1.9844    5.4991 O   0  0  0  0  0  0  0  0  0  0  0  0
    0.7666   -2.5987    6.1843 C   0  0  0  0  0  0  0  0  0  0  0  0
    1.1382   -1.6435    3.5576 C   0  0  0  0  0  0  0  0  0  0  0  0
    1.2569   -1.1398    2.2425 C   0  0  0  0  0  0  0  0  0  0  0  0
    2.4304   -1.2027    1.5576 O   0  0  0  0  0  0  0  0  0  0  0  0
    3.4781   -2.0126    2.0419 C   0  0  0  0  0  0  0  0  0  0  0  0
    0.1465    1.8164   -0.0389 C   0  0  0  0  0  0  0  0  0  0  0  0
   -0.9196    2.6036   -0.5484 C   0  0  0  0  0  0  0  0  0  0  0  0
   -1.9080    1.9363   -1.2022 O   0  0  0  0  0  0  0  0  0  0  0  0
   -3.0672    2.6287   -1.6438 C   0  0  0  0  0  0  0  0  0  0  0  0
   -0.9366    3.9980   -0.3786 C   0  0  0  0  0  0  0  0  0  0  0  0
    0.1202    4.6239    0.3086 C   0  0  0  0  0  0  0  0  0  0  0  0
    0.0218    5.9779    0.4223 O   0  0  0  0  0  0  0  0  0  0  0  0
    1.0414    6.6750    1.1086 C   0  0  0  0  0  0  0  0  0  0  0  0
    1.1923    3.8743    0.8324 C   0  0  0  0  0  0  0  0  0  0  0  0
    1.1852    2.4759    0.6547 C   0  0  0  0  0  0  0  0  0  0  0  0
    2.1679    1.6668    1.1205 O   0  0  0  0  0  0  0  0  0  0  0  0
    3.2542    2.2155    1.8294 C   0  0  0  0  0  0  0  0  0  0  0  0
    2.7167   -3.8158   -1.8905 H   0  0  0  0  0  0  0  0  0  0  0  0
    4.2430    0.0563   -3.0713 H   0  0  0  0  0  0  0  0  0  0  0  0
   -2.1457   -0.8749    4.1607 H   0  0  0  0  0  0  0  0  0  0  0  0
    2.0052   -2.0944    4.0506 H   0  0  0  0  0  0  0  0  0  0  0  0
   -1.7459    4.6274   -0.7657 H   0  0  0  0  0  0  0  0  0  0  0  0
    2.0108    4.3618    1.3717 H   0  0  0  0  0  0  0  0  0  0  0  0
    0.4524   -4.4869   -1.5811 H   0  0  0  0  0  0  0  0  0  0  0  0
    1.4557   -4.6287   -0.0798 H   0  0  0  0  0  0  0  0  0  0  0  0
   -0.3387   -4.4275    0.0420 H   0  0  0  0  0  0  0  0  0  0  0  0
    5.0867   -1.3225   -4.7216 H   0  0  0  0  0  0  0  0  0  0  0  0
    6.1358   -1.2666   -3.2502 H   0  0  0  0  0  0  0  0  0  0  0  0
    6.2078   -2.6901   -4.3587 H   0  0  0  0  0  0  0  0  0  0  0  0
    4.3003    2.1163   -2.0602 H   0  0  0  0  0  0  0  0  0  0  0  0
    3.2919    2.0613   -3.5616 H   0  0  0  0  0  0  0  0  0  0  0  0
    2.9521    3.2980   -2.2894 H   0  0  0  0  0  0  0  0  0  0  0  0
   -3.7051   -0.9892    2.3481 H   0  0  0  0  0  0  0  0  0  0  0  0
   -3.5299    0.6819    3.0399 H   0  0  0  0  0  0  0  0  0  0  0  0
   -4.0683    0.4386    1.3179 H   0  0  0  0  0  0  0  0  0  0  0  0
    1.1274   -3.5129    5.6605 H   0  0  0  0  0  0  0  0  0  0  0  0
    1.6280   -1.9056    6.3200 H   0  0  0  0  0  0  0  0  0  0  0  0
    0.3797   -2.8863    7.1797 H   0  0  0  0  0  0  0  0  0  0  0  0
    3.9257   -1.6093    2.9796 H   0  0  0  0  0  0  0  0  0  0  0  0
    3.1428   -3.0573    2.2300 H   0  0  0  0  0  0  0  0  0  0  0  0
    4.2504   -2.0207    1.2496 H   0  0  0  0  0  0  0  0  0  0  0  0
   -3.5720    3.1474   -0.8001 H   0  0  0  0  0  0  0  0  0  0  0  0
   -2.8187    3.3697   -2.4341 H   0  0  0  0  0  0  0  0  0  0  0  0
   -3.7372    1.8462   -2.0502 H   0  0  0  0  0  0  0  0  0  0  0  0
    1.1282    6.3486    2.1696 H   0  0  0  0  0  0  0  0  0  0  0  0
    2.0336    6.5524    0.6177 H   0  0  0  0  0  0  0  0  0  0  0  0
    0.7611    7.7445    1.0850 H   0  0  0  0  0  0  0  0  0  0  0  0
    3.8442    2.9233    1.2033 H   0  0  0  0  0  0  0  0  0  0  0  0
    2.9276    2.7427    2.7540 H   0  0  0  0  0  0  0  0  0  0  0  0
    3.8968    1.3606    2.1103 H   0  0  0  0  0  0  0  0  0  0  0  0
  1 26  1  0  0  0  0
  1 14  1  0  0  0  0
  2  1  1  0  0  0  0
  3  2  1  0  0  0  0
  3  4  1  0  0  0  0
  5  4  1  0  0  0  0
  5 45  1  0  0  0  0
  5 46  1  0  0  0  0
  6  3  2  0  0  0  0
  7 10  2  0  0  0  0
  7  6  1  0  0  0  0
  8  7  1  0  0  0  0
  9 48  1  0  0  0  0
  9  8  1  0  0  0  0
 10 11  1  0  0  0  0
 11 12  1  0  0  0  0
 11  2  2  0  0  0  0
 13 52  1  0  0  0  0
 13 50  1  0  0  0  0
 13 12  1  0  0  0  0
 14 23  2  0  0  0  0
 14 15  1  0  0  0  0
 15 18  2  0  0  0  0
 16 17  1  0  0  0  0
 16 15  1  0  0  0  0
 17 53  1  0  0  0  0
 17 54  1  0  0  0  0
 18 40  1  0  0  0  0
 18 19  1  0  0  0  0
 19 20  1  0  0  0  0
 20 21  1  0  0  0  0
 21 57  1  0  0  0  0
 21 58  1  0  0  0  0
 22 41  1  0  0  0  0
 22 19  2  0  0  0  0
 23 22  1  0  0  0  0
 24 25  1  0  0  0  0
 24 23  1  0  0  0  0
 25 60  1  0  0  0  0
 25 59  1  0  0  0  0
 26 35  1  0  0  0  0
 27 30  1  0  0  0  0
 27 26  2  0  0  0  0
 28 27  1  0  0  0  0
 29 28  1  0  0  0  0
 29 62  1  0  0  0  0
 30 31  2  0  0  0  0
 31 32  1  0  0  0  0
 31 34  1  0  0  0  0
 32 33  1  0  0  0  0
 33 65  1  0  0  0  0
 34 43  1  0  0  0  0
 35 34  2  0  0  0  0
 35 36  1  0  0  0  0
 36 37  1  0  0  0  0
 37 70  1  0  0  0  0
 37 69  1  0  0  0  0
 38  6  1  0  0  0  0
 39 10  1  0  0  0  0
 42 30  1  0  0  0  0
 44  5  1  0  0  0  0
 47  9  1  0  0  0  0
 49  9  1  0  0  0  0
 51 13  1  0  0  0  0
 55 17  1  0  0  0  0
 56 21  1  0  0  0  0
 61 25  1  0  0  0  0
 63 29  1  0  0  0  0
 64 29  1  0  0  0  0
 66 33  1  0  0  0  0
 67 33  1  0  0  0  0
 68 37  1  0  0  0  0
M  END
