1
q = 0.0, confidence = 0.998

 46 47  0  0  0  0  0  0  0  0999 V2000
    0.1353    0.9126    0.2142 P   0  0  0  0  0  0  0  0  0  0  0  0
    1.3104   -0.2524   -0.2066 O   0  0  0  0  0  0  0  0  0  0  0  0
    0.5038    2.3413   -0.6486 N   0  0  0  0  0  0  0  0  0  0  0  0
    0.4762    1.6699    1.6932 N   0  0  0  0  0  0  0  0  0  0  0  0
    2.7360   -0.0325    0.0224 N   0  0  0  0  0  0  0  0  0  0  0  0
    0.8618    3.4741    0.1923 C   0  0  0  0  0  0  0  0  0  0  0  0
   -0.0112    4.1624    0.3161 H   0  0  0  0  0  0  0  0  0  0  0  0
    1.6877    4.0607   -0.2688 H   0  0  0  0  0  0  0  0  0  0  0  0
    1.2853    2.8766    1.5382 C   0  0  0  0  0  0  0  0  0  0  0  0
    2.3732    2.6342    1.5426 H   0  0  0  0  0  0  0  0  0  0  0  0
    1.0798    3.5777    2.3730 H   0  0  0  0  0  0  0  0  0  0  0  0
   -0.0203    2.6255   -1.9662 C   0  0  0  0  0  0  0  0  0  0  0  0
   -0.3165    1.6866   -2.4713 H   0  0  0  0  0  0  0  0  0  0  0  0
    0.7495    3.1192   -2.5988 H   0  0  0  0  0  0  0  0  0  0  0  0
   -0.9160    3.2882   -1.9276 H   0  0  0  0  0  0  0  0  0  0  0  0
    0.0095    1.2707    3.0024 C   0  0  0  0  0  0  0  0  0  0  0  0
   -0.6612    2.0428    3.4413 H   0  0  0  0  0  0  0  0  0  0  0  0
    0.8482    1.0904    3.7095 H   0  0  0  0  0  0  0  0  0  0  0  0
   -0.5685    0.3313    2.9257 H   0  0  0  0  0  0  0  0  0  0  0  0
    3.4269   -0.0401   -1.3125 C   0  0  0  0  0  0  0  0  0  0  0  0
    4.9411    0.1031   -1.0303 C   0  0  0  0  0  0  0  0  0  0  0  0
    5.4696    0.0762   -2.0057 H   0  0  0  0  0  0  0  0  0  0  0  0
    5.1154    1.1120   -0.5972 H   0  0  0  0  0  0  0  0  0  0  0  0
    5.4856   -0.9506   -0.0733 C   0  0  0  0  0  0  0  0  0  0  0  0
    5.4188   -1.9618   -0.5278 H   0  0  0  0  0  0  0  0  0  0  0  0
    6.5633   -0.7739    0.1237 H   0  0  0  0  0  0  0  0  0  0  0  0
    4.6925   -0.8936    1.2265 C   0  0  0  0  0  0  0  0  0  0  0  0
    4.8666    0.0905    1.7135 H   0  0  0  0  0  0  0  0  0  0  0  0
    5.0298   -1.6709    1.9432 H   0  0  0  0  0  0  0  0  0  0  0  0
    3.1690   -1.0652    1.0282 C   0  0  0  0  0  0  0  0  0  0  0  0
    2.9885    1.2023   -2.0996 C   0  0  0  0  0  0  0  0  0  0  0  0
    1.9600    1.0869   -2.4815 H   0  0  0  0  0  0  0  0  0  0  0  0
    3.6590    1.3366   -2.9719 H   0  0  0  0  0  0  0  0  0  0  0  0
    3.0324    2.1090   -1.4675 H   0  0  0  0  0  0  0  0  0  0  0  0
    3.1365   -1.2730   -2.1981 C   0  0  0  0  0  0  0  0  0  0  0  0
    3.6648   -2.1850   -1.8695 H   0  0  0  0  0  0  0  0  0  0  0  0
    3.4619   -1.0620   -3.2364 H   0  0  0  0  0  0  0  0  0  0  0  0
    2.0518   -1.4870   -2.2207 H   0  0  0  0  0  0  0  0  0  0  0  0
    2.8075   -2.5234    0.6649 C   0  0  0  0  0  0  0  0  0  0  0  0
    1.7705   -2.5758    0.2847 H   0  0  0  0  0  0  0  0  0  0  0  0
    2.8675   -3.1560    1.5726 H   0  0  0  0  0  0  0  0  0  0  0  0
    3.4801   -2.9667   -0.0901 H   0  0  0  0  0  0  0  0  0  0  0  0
    2.4942   -0.7376    2.3656 C   0  0  0  0  0  0  0  0  0  0  0  0
    2.6472    0.3262    2.6264 H   0  0  0  0  0  0  0  0  0  0  0  0
    2.9359   -1.3649    3.1651 H   0  0  0  0  0  0  0  0  0  0  0  0
    1.4117   -0.9539    2.3346 H   0  0  0  0  0  0  0  0  0  0  0  0
  1  4  1  0  0  0  0
  2  5  1  0  0  0  0
  2  1  1  0  0  0  0
  3  6  1  0  0  0  0
  3  1  1  0  0  0  0
  4 16  1  0  0  0  0
  5 30  1  0  0  0  0
  6  7  1  0  0  0  0
  6  9  1  0  0  0  0
  8  6  1  0  0  0  0
  9 10  1  0  0  0  0
  9  4  1  0  0  0  0
  9 11  1  0  0  0  0
 12 15  1  0  0  0  0
 12  3  1  0  0  0  0
 13 12  1  0  0  0  0
 14 12  1  0  0  0  0
 16 17  1  0  0  0  0
 16 18  1  0  0  0  0
 19 16  1  0  0  0  0
 20 21  1  0  0  0  0
 20  5  1  0  0  0  0
 21 23  1  0  0  0  0
 21 24  1  0  0  0  0
 22 21  1  0  0  0  0
 24 26  1  0  0  0  0
 24 27  1  0  0  0  0
 25 24  1  0  0  0  0
 27 28  1  0  0  0  0
 27 29  1  0  0  0  0
 30 27  1  0  0  0  0
 30 43  1  0  0  0  0
 31 34  1  0  0  0  0
 31 20  1  0  0  0  0
 32 31  1  0  0  0  0
 33 31  1  0  0  0  0
 35 36  1  0  0  0  0
 35 20  1  0  0  0  0
 37 35  1  0  0  0  0
 38 35  1  0  0  0  0
 39 30  1  0  0  0  0
 39 41  1  0  0  0  0
 40 39  1  0  0  0  0
 42 39  1  0  0  0  0
 43 44  1  0  0  0  0
 43 45  1  0  0  0  0
 46 43  1  0  0  0  0
M  END
