1
q = 0.0, confidence = 0.988

 27 28  0  0  0  0  0  0  0  0999 V2000
   -1.6281   -0.7581   -0.1293 P   0  0  0  0  0  0  0  0  0  0  0  0
   -2.9481   -0.5631    0.9926 C   0  0  0  0  0  0  0  0  0  0  0  0
   -3.8234    0.5188    0.8337 C   0  0  0  0  0  0  0  0  0  0  0  0
   -4.6719    0.5674    1.5371 H   0  0  0  0  0  0  0  0  0  0  0  0
   -3.7408    1.5309   -0.1534 C   0  0  0  0  0  0  0  0  0  0  0  0
   -2.7097    1.5341   -1.1194 C   0  0  0  0  0  0  0  0  0  0  0  0
   -2.6943    2.3678   -1.8418 H   0  0  0  0  0  0  0  0  0  0  0  0
   -1.6798    0.5878   -1.2290 C   0  0  0  0  0  0  0  0  0  0  0  0
   -4.7611    2.6115   -0.1743 C   0  0  0  0  0  0  0  0  0  0  0  0
   -5.2699    3.1543    1.0284 C   0  0  0  0  0  0  0  0  0  0  0  0
   -4.8856    2.7889    1.9928 H   0  0  0  0  0  0  0  0  0  0  0  0
   -6.2284    4.1760    1.0088 C   0  0  0  0  0  0  0  0  0  0  0  0
   -6.6019    4.5904    1.9575 H   0  0  0  0  0  0  0  0  0  0  0  0
   -6.7030    4.6774   -0.2137 C   0  0  0  0  0  0  0  0  0  0  0  0
   -7.4571    5.4786   -0.2290 H   0  0  0  0  0  0  0  0  0  0  0  0
   -6.2093    4.1476   -1.4164 C   0  0  0  0  0  0  0  0  0  0  0  0
   -6.5834    4.5248   -2.3803 H   0  0  0  0  0  0  0  0  0  0  0  0
   -5.2492    3.1272   -1.3971 C   0  0  0  0  0  0  0  0  0  0  0  0
   -4.8933    2.6983   -2.3460 H   0  0  0  0  0  0  0  0  0  0  0  0
   -3.1258   -1.5840    2.0841 C   0  0  0  0  0  0  0  0  0  0  0  0
   -4.0895   -1.4370    2.6089 H   0  0  0  0  0  0  0  0  0  0  0  0
   -2.3067   -1.5131    2.8310 H   0  0  0  0  0  0  0  0  0  0  0  0
   -3.0771   -2.6114    1.6679 H   0  0  0  0  0  0  0  0  0  0  0  0
   -0.6089    0.7090   -2.2840 C   0  0  0  0  0  0  0  0  0  0  0  0
   -0.9961    1.2251   -3.1847 H   0  0  0  0  0  0  0  0  0  0  0  0
   -0.2218   -0.2849   -2.5838 H   0  0  0  0  0  0  0  0  0  0  0  0
    0.2572    1.2927   -1.9038 H   0  0  0  0  0  0  0  0  0  0  0  0
  1  2  2  0  0  0  0
  2 20  1  0  0  0  0
  3  2  1  0  0  0  0
  3  4  1  0  0  0  0
  5  3  2  0  0  0  0
  6  5  1  0  0  0  0
  7  6  1  0  0  0  0
  8  6  2  0  0  0  0
  8  1  1  0  0  0  0
  9  5  1  0  0  0  0
  9 10  1  0  0  0  0
 10 11  1  0  0  0  0
 12 10  2  0  0  0  0
 12 13  1  0  0  0  0
 14 12  1  0  0  0  0
 15 14  1  0  0  0  0
 16 18  1  0  0  0  0
 16 14  2  0  0  0  0
 17 16  1  0  0  0  0
 18  9  2  0  0  0  0
 19 18  1  0  0  0  0
 20 21  1  0  0  0  0
 20 22  1  0  0  0  0
 23 20  1  0  0  0  0
 24 27  1  0  0  0  0
 24  8  1  0  0  0  0
 25 24  1  0  0  0  0
 26 24  1  0  0  0  0
M  END
