1
q = 0, confidence = 1.0

 80 83  0  0  0  0  0  0  0  0999 V2000
    0.5435    0.4208    0.5010 P   0  0  1  0  0  0  0  0  0  0  0  0
    2.0177   -3.0305    0.4721 Si  0  0  0  0  0  0  0  0  0  0  0  0
    5.1045    0.4552    0.2870 Si  0  0  0  0  0  0  0  0  0  0  0  0
   -0.5585   -0.0269    1.9143 C   0  0  0  0  0  0  0  0  0  0  0  0
   -1.9476   -0.2993    1.7519 C   0  0  0  0  0  0  0  0  0  0  0  0
   -2.7013   -0.6225    2.8979 C   0  0  0  0  0  0  0  0  0  0  0  0
   -3.7712   -0.8437    2.7743 H   0  0  0  0  0  0  0  0  0  0  0  0
   -2.1265   -0.6655    4.1752 C   0  0  0  0  0  0  0  0  0  0  0  0
   -2.7485   -0.9201    5.0466 H   0  0  0  0  0  0  0  0  0  0  0  0
   -0.7649   -0.3798    4.3354 C   0  0  0  0  0  0  0  0  0  0  0  0
   -0.2977   -0.4029    5.3313 H   0  0  0  0  0  0  0  0  0  0  0  0
    0.0069   -0.0657    3.2087 C   0  0  0  0  0  0  0  0  0  0  0  0
    1.0747    0.1543    3.3482 H   0  0  0  0  0  0  0  0  0  0  0  0
    0.5492    2.2623    0.4940 C   0  0  0  0  0  0  0  0  0  0  0  0
    0.5182    2.9488   -0.7352 C   0  0  0  0  0  0  0  0  0  0  0  0
    0.4381    2.3743   -1.6716 H   0  0  0  0  0  0  0  0  0  0  0  0
    0.5644    4.3507   -0.7600 C   0  0  0  0  0  0  0  0  0  0  0  0
    0.5298    4.8776   -1.7253 H   0  0  0  0  0  0  0  0  0  0  0  0
    0.6394    5.0751    0.4387 C   0  0  0  0  0  0  0  0  0  0  0  0
    0.6700    6.1751    0.4180 H   0  0  0  0  0  0  0  0  0  0  0  0
    0.6655    4.3944    1.6675 C   0  0  0  0  0  0  0  0  0  0  0  0
    0.7155    4.9588    2.6111 H   0  0  0  0  0  0  0  0  0  0  0  0
    0.6197    2.9939    1.6976 C   0  0  0  0  0  0  0  0  0  0  0  0
    0.6171    2.4708    2.6657 H   0  0  0  0  0  0  0  0  0  0  0  0
    2.2955   -0.0081    1.0275 C   0  0  0  0  0  0  0  0  0  0  0  0
    2.4927    0.6690    1.8899 H   0  0  0  0  0  0  0  0  0  0  0  0
    2.4726   -1.4650    1.4900 C   0  0  0  0  0  0  0  0  0  0  0  0
    1.9437   -1.6237    2.4541 H   0  0  0  0  0  0  0  0  0  0  0  0
    3.5491   -1.5973    1.7375 H   0  0  0  0  0  0  0  0  0  0  0  0
    2.6716   -3.0317   -1.3003 C   0  0  0  0  0  0  0  0  0  0  0  0
    3.7614   -2.8314   -1.3283 H   0  0  0  0  0  0  0  0  0  0  0  0
    2.1553   -2.2836   -1.9364 H   0  0  0  0  0  0  0  0  0  0  0  0
    2.4960   -4.0272   -1.7586 H   0  0  0  0  0  0  0  0  0  0  0  0
    2.8757   -4.4245    1.4338 C   0  0  0  0  0  0  0  0  0  0  0  0
    2.5422   -4.4555    2.4918 H   0  0  0  0  0  0  0  0  0  0  0  0
    3.9787   -4.2991    1.4283 H   0  0  0  0  0  0  0  0  0  0  0  0
    2.6484   -5.4112    0.9802 H   0  0  0  0  0  0  0  0  0  0  0  0
    0.1507   -3.3573    0.5031 C   0  0  0  0  0  0  0  0  0  0  0  0
   -0.0550   -4.3994    0.1816 H   0  0  0  0  0  0  0  0  0  0  0  0
   -0.3855   -2.6808   -0.1943 H   0  0  0  0  0  0  0  0  0  0  0  0
   -0.2731   -3.2166    1.5184 H   0  0  0  0  0  0  0  0  0  0  0  0
    3.2343    0.4136   -0.1167 C   0  0  0  0  0  0  0  0  0  0  0  0
    2.9861    1.4492   -0.4385 H   0  0  0  0  0  0  0  0  0  0  0  0
    3.0639   -0.2242   -1.0105 H   0  0  0  0  0  0  0  0  0  0  0  0
    5.9321   -1.2379    0.0826 C   0  0  0  0  0  0  0  0  0  0  0  0
    7.0210   -1.1593    0.2822 H   0  0  0  0  0  0  0  0  0  0  0  0
    5.8079   -1.6107   -0.9549 H   0  0  0  0  0  0  0  0  0  0  0  0
    5.5188   -2.0048    0.7679 H   0  0  0  0  0  0  0  0  0  0  0  0
    5.9030    1.6639   -0.9309 C   0  0  0  0  0  0  0  0  0  0  0  0
    6.9995    1.7272   -0.7739 H   0  0  0  0  0  0  0  0  0  0  0  0
    5.4825    2.6842   -0.8161 H   0  0  0  0  0  0  0  0  0  0  0  0
    5.7297    1.3430   -1.9789 H   0  0  0  0  0  0  0  0  0  0  0  0
    5.3353    1.0841    2.0608 C   0  0  0  0  0  0  0  0  0  0  0  0
    4.9158    0.3769    2.8057 H   0  0  0  0  0  0  0  0  0  0  0  0
    4.8360    2.0652    2.2030 H   0  0  0  0  0  0  0  0  0  0  0  0
    6.4115    1.2164    2.2957 H   0  0  0  0  0  0  0  0  0  0  0  0
   -2.6304   -0.1979    0.3915 C   0  0  0  0  0  0  0  0  0  0  0  0
   -1.9556   -0.7137   -0.3335 H   0  0  0  0  0  0  0  0  0  0  0  0
   -3.9569   -0.9452    0.3265 C   0  0  0  0  0  0  0  0  0  0  0  0
   -5.1958   -0.2864    0.4378 C   0  0  0  0  0  0  0  0  0  0  0  0
   -5.2175    0.8090    0.5401 H   0  0  0  0  0  0  0  0  0  0  0  0
   -6.3965   -1.0142    0.4094 C   0  0  0  0  0  0  0  0  0  0  0  0
   -7.3574   -0.4839    0.4952 H   0  0  0  0  0  0  0  0  0  0  0  0
   -6.3742   -2.4096    0.2644 C   0  0  0  0  0  0  0  0  0  0  0  0
   -7.3157   -2.9789    0.2359 H   0  0  0  0  0  0  0  0  0  0  0  0
   -5.1424   -3.0746    0.1455 C   0  0  0  0  0  0  0  0  0  0  0  0
   -5.1146   -4.1679    0.0202 H   0  0  0  0  0  0  0  0  0  0  0  0
   -3.9448   -2.3472    0.1760 C   0  0  0  0  0  0  0  0  0  0  0  0
   -2.9795   -2.8699    0.0817 H   0  0  0  0  0  0  0  0  0  0  0  0
   -2.7293    1.2441   -0.0991 C   0  0  0  0  0  0  0  0  0  0  0  0
   -2.7853    1.4902   -1.4872 C   0  0  0  0  0  0  0  0  0  0  0  0
   -2.7431    0.6442   -2.1913 H   0  0  0  0  0  0  0  0  0  0  0  0
   -2.8843    2.7998   -1.9760 C   0  0  0  0  0  0  0  0  0  0  0  0
   -2.9162    2.9726   -3.0625 H   0  0  0  0  0  0  0  0  0  0  0  0
   -2.9322    3.8848   -1.0847 C   0  0  0  0  0  0  0  0  0  0  0  0
   -2.9997    4.9142   -1.4685 H   0  0  0  0  0  0  0  0  0  0  0  0
   -2.8842    3.6498    0.2969 C   0  0  0  0  0  0  0  0  0  0  0  0
   -2.9107    4.4937    1.0026 H   0  0  0  0  0  0  0  0  0  0  0  0
   -2.7827    2.3374    0.7855 C   0  0  0  0  0  0  0  0  0  0  0  0
   -2.7275    2.1614    1.8703 H   0  0  0  0  0  0  0  0  0  0  0  0
  1 25  1  1  0  0  0
  1  4  1  0  0  0  0
  2 38  1  0  0  0  0
  2 34  1  0  0  0  0
  2 27  1  0  0  0  0
  3 53  1  0  0  0  0
  4 12  1  0  0  0  0
  5  4  2  0  0  0  0
  5  6  1  0  0  0  0
  6  8  2  0  0  0  0
  7  6  1  0  0  0  0
  8 10  1  0  0  0  0
  8  9  1  0  0  0  0
 10 11  1  0  0  0  0
 12 13  1  0  0  0  0
 12 10  2  0  0  0  0
 14  1  1  0  0  0  0
 14 23  1  0  0  0  0
 15 14  2  0  0  0  0
 16 15  1  0  0  0  0
 17 15  1  0  0  0  0
 17 19  2  0  0  0  0
 18 17  1  0  0  0  0
 19 21  1  0  0  0  0
 20 19  1  0  0  0  0
 21 23  2  0  0  0  0
 21 22  1  0  0  0  0
 23 24  1  0  0  0  0
 25 27  1  0  0  0  0
 25 26  1  0  0  0  0
 27 29  1  0  0  0  0
 27 28  1  0  0  0  0
 30  2  1  0  0  0  0
 31 30  1  0  0  0  0
 32 30  1  0  0  0  0
 33 30  1  0  0  0  0
 34 35  1  0  0  0  0
 36 34  1  0  0  0  0
 37 34  1  0  0  0  0
 38 41  1  0  0  0  0
 39 38  1  0  0  0  0
 40 38  1  0  0  0  0
 42  3  1  0  0  0  0
 42 25  1  0  0  0  0
 43 42  1  0  0  0  0
 44 42  1  0  0  0  0
 45 46  1  0  0  0  0
 45  3  1  0  0  0  0
 45 48  1  0  0  0  0
 47 45  1  0  0  0  0
 49 51  1  0  0  0  0
 49 50  1  0  0  0  0
 49  3  1  0  0  0  0
 52 49  1  0  0  0  0
 53 55  1  0  0  0  0
 53 56  1  0  0  0  0
 53 54  1  0  0  0  0
 57  5  1  0  0  0  0
 58 57  1  0  0  0  0
 59 57  1  0  0  0  0
 59 60  1  0  0  0  0
 60 61  1  0  0  0  0
 62 60  2  0  0  0  0
 62 63  1  0  0  0  0
 64 62  1  0  0  0  0
 65 64  1  0  0  0  0
 66 68  1  0  0  0  0
 66 64  2  0  0  0  0
 67 66  1  0  0  0  0
 68 59  2  0  0  0  0
 69 68  1  0  0  0  0
 70 57  1  0  0  0  0
 70 79  1  0  0  0  0
 71 70  2  0  0  0  0
 72 71  1  0  0  0  0
 73 71  1  0  0  0  0
 73 75  2  0  0  0  0
 74 73  1  0  0  0  0
 75 77  1  0  0  0  0
 76 75  1  0  0  0  0
 77 79  2  0  0  0  0
 77 78  1  0  0  0  0
 79 80  1  0  0  0  0
M  END
