1
q = 0.0, confidence = 0.996

 52 54  0  0  0  0  0  0  0  0999 V2000
    0.1459    0.3220    0.2306 P   0  0  1  0  0  0  0  0  0  0  0  0
    1.6173    1.6796    2.7484 Si  0  0  0  0  0  0  0  0  0  0  0  0
    1.0058    3.3127    0.0352 Si  0  0  0  0  0  0  0  0  0  0  0  0
    5.4191   -2.6091   -2.1080 S   0  0  0  0  0  0  0  0  0  0  0  0
    1.5308    0.2356   -0.7969 N   0  0  0  0  0  0  0  0  0  0  0  0
    1.6721   -1.8031    0.3994 N   0  0  0  0  0  0  0  0  0  0  0  0
    0.6449   -1.3111    1.0393 C   0  0  0  0  0  0  0  0  0  0  0  0
    2.1478   -0.9004   -0.5813 C   0  0  0  0  0  0  0  0  0  0  0  0
    0.4505    1.8490    1.2126 C   0  0  0  0  0  0  0  0  0  0  0  0
   -0.5502    2.1550    1.5917 H   0  0  0  0  0  0  0  0  0  0  0  0
    0.7837    0.7387    4.1649 C   0  0  0  0  0  0  0  0  0  0  0  0
    1.3781    0.9125    5.0865 H   0  0  0  0  0  0  0  0  0  0  0  0
    0.7371   -0.3532    3.9986 H   0  0  0  0  0  0  0  0  0  0  0  0
   -0.2452    1.1035    4.3612 H   0  0  0  0  0  0  0  0  0  0  0  0
    3.2303    0.7990    2.3089 C   0  0  0  0  0  0  0  0  0  0  0  0
    3.9107    0.8472    3.1845 H   0  0  0  0  0  0  0  0  0  0  0  0
    3.7494    1.2564    1.4463 H   0  0  0  0  0  0  0  0  0  0  0  0
    3.0607   -0.2711    2.0794 H   0  0  0  0  0  0  0  0  0  0  0  0
    1.9765    3.3978    3.4698 C   0  0  0  0  0  0  0  0  0  0  0  0
    1.0415    3.8849    3.8148 H   0  0  0  0  0  0  0  0  0  0  0  0
    2.4896    4.0905    2.7768 H   0  0  0  0  0  0  0  0  0  0  0  0
    2.6276    3.2664    4.3593 H   0  0  0  0  0  0  0  0  0  0  0  0
    2.8929    3.4316   -0.0629 C   0  0  0  0  0  0  0  0  0  0  0  0
    3.1529    4.2843   -0.7240 H   0  0  0  0  0  0  0  0  0  0  0  0
    3.2904    2.5075   -0.5293 H   0  0  0  0  0  0  0  0  0  0  0  0
    3.4050    3.5868    0.9049 H   0  0  0  0  0  0  0  0  0  0  0  0
    0.4440    3.1996   -1.7641 C   0  0  0  0  0  0  0  0  0  0  0  0
   -0.6519    3.1681   -1.8985 H   0  0  0  0  0  0  0  0  0  0  0  0
    0.8956    2.3248   -2.2670 H   0  0  0  0  0  0  0  0  0  0  0  0
    0.8138    4.1184   -2.2675 H   0  0  0  0  0  0  0  0  0  0  0  0
    0.2194    4.8717    0.7672 C   0  0  0  0  0  0  0  0  0  0  0  0
    0.4876    5.0521    1.8250 H   0  0  0  0  0  0  0  0  0  0  0  0
   -0.8854    4.7948    0.6942 H   0  0  0  0  0  0  0  0  0  0  0  0
    0.5320    5.7586    0.1779 H   0  0  0  0  0  0  0  0  0  0  0  0
   -0.1075   -2.0828    2.0276 C   0  0  0  0  0  0  0  0  0  0  0  0
   -1.1781   -1.5032    2.7429 C   0  0  0  0  0  0  0  0  0  0  0  0
   -1.4383   -0.4504    2.5661 H   0  0  0  0  0  0  0  0  0  0  0  0
   -1.9080   -2.2565    3.6684 C   0  0  0  0  0  0  0  0  0  0  0  0
   -2.7493   -1.7952    4.2056 H   0  0  0  0  0  0  0  0  0  0  0  0
   -1.5712   -3.6008    3.8953 C   0  0  0  0  0  0  0  0  0  0  0  0
   -2.1476   -4.1965    4.6193 H   0  0  0  0  0  0  0  0  0  0  0  0
   -0.5026   -4.1887    3.1931 C   0  0  0  0  0  0  0  0  0  0  0  0
   -0.2432   -5.2435    3.3692 H   0  0  0  0  0  0  0  0  0  0  0  0
    0.2236   -3.4393    2.2638 C   0  0  0  0  0  0  0  0  0  0  0  0
    1.0534   -3.8783    1.6925 H   0  0  0  0  0  0  0  0  0  0  0  0
    3.3492   -1.2850   -1.3181 C   0  0  0  0  0  0  0  0  0  0  0  0
    3.9672   -0.4810   -2.3368 C   0  0  0  0  0  0  0  0  0  0  0  0
    3.5637    0.4879   -2.6580 H   0  0  0  0  0  0  0  0  0  0  0  0
    5.0984   -1.0695   -2.8538 C   0  0  0  0  0  0  0  0  0  0  0  0
    5.7673   -0.6936   -3.6374 H   0  0  0  0  0  0  0  0  0  0  0  0
    4.0354   -2.4755   -1.0942 C   0  0  0  0  0  0  0  0  0  0  0  0
    3.7676   -3.2605   -0.3783 H   0  0  0  0  0  0  0  0  0  0  0  0
  1  7  1  0  0  0  0
  1  9  1  1  0  0  0
  2 19  1  0  0  0  0
  2 11  1  0  0  0  0
  3 31  1  0  0  0  0
  3  9  1  0  0  0  0
  4 51  1  0  0  0  0
  5  8  2  0  0  0  0
  5  1  1  0  0  0  0
  6  7  2  0  0  0  0
  7 35  1  0  0  0  0
  8  6  1  0  0  0  0
  9 10  1  0  0  0  0
  9  2  1  0  0  0  0
 11 14  1  0  0  0  0
 11 12  1  0  0  0  0
 13 11  1  0  0  0  0
 15  2  1  0  0  0  0
 15 16  1  0  0  0  0
 17 15  1  0  0  0  0
 18 15  1  0  0  0  0
 19 20  1  0  0  0  0
 19 22  1  0  0  0  0
 21 19  1  0  0  0  0
 23  3  1  0  0  0  0
 23 26  1  0  0  0  0
 24 23  1  0  0  0  0
 25 23  1  0  0  0  0
 27  3  1  0  0  0  0
 28 27  1  0  0  0  0
 29 27  1  0  0  0  0
 30 27  1  0  0  0  0
 31 32  1  0  0  0  0
 33 31  1  0  0  0  0
 34 31  1  0  0  0  0
 35 44  2  0  0  0  0
 35 36  1  0  0  0  0
 36 38  2  0  0  0  0
 37 36  1  0  0  0  0
 38 40  1  0  0  0  0
 38 39  1  0  0  0  0
 40 41  1  0  0  0  0
 42 43  1  0  0  0  0
 42 40  2  0  0  0  0
 44 42  1  0  0  0  0
 45 44  1  0  0  0  0
 46 51  2  0  0  0  0
 46  8  1  0  0  0  0
 47 46  1  0  0  0  0
 48 47  1  0  0  0  0
 49 47  2  0  0  0  0
 49  4  1  0  0  0  0
 50 49  1  0  0  0  0
 51 52  1  0  0  0  0
M  END
