1
q = 0.0, confidence = 0.998

 41 41  0  0  0  0  0  0  0  0999 V2000
   -2.2537   -0.7382   -0.6386 P   0  0  0  0  0  0  0  0  0  0  0  0
   -3.5282    0.2667    0.2544 C   0  0  0  0  0  0  0  0  0  0  0  0
   -3.3027    1.5925    0.7256 C   0  0  0  0  0  0  0  0  0  0  0  0
   -1.9787    2.3449    0.6183 C   0  0  0  0  0  0  0  0  0  0  0  0
   -1.2498    1.6746    0.1091 H   0  0  0  0  0  0  0  0  0  0  0  0
   -1.4077    2.6741    2.0085 C   0  0  0  0  0  0  0  0  0  0  0  0
   -2.0693    3.3750    2.5586 H   0  0  0  0  0  0  0  0  0  0  0  0
   -0.4176    3.1634    1.9076 H   0  0  0  0  0  0  0  0  0  0  0  0
   -1.2805    1.7545    2.6093 H   0  0  0  0  0  0  0  0  0  0  0  0
   -2.1144    3.6337   -0.2122 C   0  0  0  0  0  0  0  0  0  0  0  0
   -2.5120    3.4435   -1.2266 H   0  0  0  0  0  0  0  0  0  0  0  0
   -1.1260    4.1245   -0.3205 H   0  0  0  0  0  0  0  0  0  0  0  0
   -2.7886    4.3624    0.2834 H   0  0  0  0  0  0  0  0  0  0  0  0
   -4.3817    2.2636    1.3428 C   0  0  0  0  0  0  0  0  0  0  0  0
   -4.2199    3.2859    1.7172 H   0  0  0  0  0  0  0  0  0  0  0  0
   -5.6429    1.6799    1.4982 C   0  0  0  0  0  0  0  0  0  0  0  0
   -6.4535    2.2410    1.9875 H   0  0  0  0  0  0  0  0  0  0  0  0
   -5.8621    0.3791    1.0259 C   0  0  0  0  0  0  0  0  0  0  0  0
   -6.8457   -0.1021    1.1342 H   0  0  0  0  0  0  0  0  0  0  0  0
   -4.8113   -0.3109    0.4112 C   0  0  0  0  0  0  0  0  0  0  0  0
   -5.0012   -1.3294    0.0462 H   0  0  0  0  0  0  0  0  0  0  0  0
   -2.5782   -0.3666   -2.4538 C   0  0  0  0  0  0  0  0  0  0  0  0
   -1.7830   -0.9577   -2.9555 H   0  0  0  0  0  0  0  0  0  0  0  0
   -2.3090    1.1086   -2.7515 C   0  0  0  0  0  0  0  0  0  0  0  0
   -2.3424    1.2810   -3.8470 H   0  0  0  0  0  0  0  0  0  0  0  0
   -1.3083    1.4165   -2.3940 H   0  0  0  0  0  0  0  0  0  0  0  0
   -3.0789    1.7565   -2.2865 H   0  0  0  0  0  0  0  0  0  0  0  0
   -3.9608   -0.7997   -2.9464 C   0  0  0  0  0  0  0  0  0  0  0  0
   -4.7728   -0.2756   -2.4010 H   0  0  0  0  0  0  0  0  0  0  0  0
   -4.1300   -1.8908   -2.8576 H   0  0  0  0  0  0  0  0  0  0  0  0
   -4.0645   -0.5409   -4.0209 H   0  0  0  0  0  0  0  0  0  0  0  0
   -2.7758   -2.5376   -0.4679 C   0  0  0  0  0  0  0  0  0  0  0  0
   -3.7956   -2.5943   -0.9056 H   0  0  0  0  0  0  0  0  0  0  0  0
   -1.8423   -3.4117   -1.3181 C   0  0  0  0  0  0  0  0  0  0  0  0
   -0.7991   -3.3502   -0.9480 H   0  0  0  0  0  0  0  0  0  0  0  0
   -1.8296   -3.1209   -2.3861 H   0  0  0  0  0  0  0  0  0  0  0  0
   -2.1692   -4.4702   -1.2566 H   0  0  0  0  0  0  0  0  0  0  0  0
   -2.8306   -3.0285    0.9813 C   0  0  0  0  0  0  0  0  0  0  0  0
   -3.2216   -4.0673    0.9996 H   0  0  0  0  0  0  0  0  0  0  0  0
   -3.4816   -2.4006    1.6190 H   0  0  0  0  0  0  0  0  0  0  0  0
   -1.8250   -3.0179    1.4424 H   0  0  0  0  0  0  0  0  0  0  0  0
  1 32  1  0  0  0  0
  1  2  1  0  0  0  0
  2 20  2  0  0  0  0
  2  3  1  0  0  0  0
  3 14  2  0  0  0  0
  4  3  1  0  0  0  0
  4  6  1  0  0  0  0
  5  4  1  0  0  0  0
  6  7  1  0  0  0  0
  6  9  1  0  0  0  0
  8  6  1  0  0  0  0
 10 13  1  0  0  0  0
 10  4  1  0  0  0  0
 11 10  1  0  0  0  0
 12 10  1  0  0  0  0
 14 16  1  0  0  0  0
 14 15  1  0  0  0  0
 16 17  1  0  0  0  0
 18 19  1  0  0  0  0
 18 16  2  0  0  0  0
 20 18  1  0  0  0  0
 21 20  1  0  0  0  0
 22  1  1  0  0  0  0
 23 22  1  0  0  0  0
 24 22  1  0  0  0  0
 24 26  1  0  0  0  0
 24 27  1  0  0  0  0
 25 24  1  0  0  0  0
 28 30  1  0  0  0  0
 28 22  1  0  0  0  0
 28 29  1  0  0  0  0
 31 28  1  0  0  0  0
 32 38  1  0  0  0  0
 33 32  1  0  0  0  0
 34 37  1  0  0  0  0
 34 35  1  0  0  0  0
 34 32  1  0  0  0  0
 36 34  1  0  0  0  0
 38 39  1  0  0  0  0
 38 41  1  0  0  0  0
 38 40  1  0  0  0  0
M  END
