1
q = 0.0, confidence = 0.998

 36 37  0  0  0  0  0  0  0  0999 V2000
   -2.2433   -0.1020   -0.6628 P   0  0  0  0  0  0  0  0  0  0  0  0
   -2.9314   -1.6740   -0.0010 C   0  0  0  0  0  0  0  0  0  0  0  0
   -2.5021   -2.9305   -0.5099 C   0  0  0  0  0  0  0  0  0  0  0  0
   -1.5374   -3.0611   -1.6622 C   0  0  0  0  0  0  0  0  0  0  0  0
   -2.0514   -2.9646   -2.6415 H   0  0  0  0  0  0  0  0  0  0  0  0
   -1.0443   -4.0523   -1.6479 H   0  0  0  0  0  0  0  0  0  0  0  0
   -0.7457   -2.2825   -1.6375 H   0  0  0  0  0  0  0  0  0  0  0  0
   -2.9923   -4.0962    0.1134 C   0  0  0  0  0  0  0  0  0  0  0  0
   -2.6667   -5.0748   -0.2741 H   0  0  0  0  0  0  0  0  0  0  0  0
   -3.8597   -4.0403    1.2122 C   0  0  0  0  0  0  0  0  0  0  0  0
   -4.2189   -4.9716    1.6760 H   0  0  0  0  0  0  0  0  0  0  0  0
   -4.2468   -2.7956    1.7285 C   0  0  0  0  0  0  0  0  0  0  0  0
   -4.9062   -2.7343    2.6072 H   0  0  0  0  0  0  0  0  0  0  0  0
   -3.7755   -1.6217    1.1290 C   0  0  0  0  0  0  0  0  0  0  0  0
   -4.0573   -0.6446    1.5469 H   0  0  0  0  0  0  0  0  0  0  0  0
   -3.2956    1.2641   -0.0108 C   0  0  0  0  0  0  0  0  0  0  0  0
   -4.6955    1.3704   -0.2537 C   0  0  0  0  0  0  0  0  0  0  0  0
   -5.4822    0.3769   -1.0731 C   0  0  0  0  0  0  0  0  0  0  0  0
   -6.5602    0.4354   -0.8285 H   0  0  0  0  0  0  0  0  0  0  0  0
   -5.1507   -0.6662   -0.9143 H   0  0  0  0  0  0  0  0  0  0  0  0
   -5.3831    0.5960   -2.1577 H   0  0  0  0  0  0  0  0  0  0  0  0
   -5.3712    2.4908    0.2736 C   0  0  0  0  0  0  0  0  0  0  0  0
   -6.4562    2.5767    0.1030 H   0  0  0  0  0  0  0  0  0  0  0  0
   -4.7041    3.4900    0.9950 C   0  0  0  0  0  0  0  0  0  0  0  0
   -5.2675    4.3500    1.3883 H   0  0  0  0  0  0  0  0  0  0  0  0
   -3.3236    3.3871    1.2105 C   0  0  0  0  0  0  0  0  0  0  0  0
   -2.7830    4.1627    1.7731 H   0  0  0  0  0  0  0  0  0  0  0  0
   -2.6307    2.2769    0.7116 C   0  0  0  0  0  0  0  0  0  0  0  0
   -1.5511    2.1747    0.8897 H   0  0  0  0  0  0  0  0  0  0  0  0
   -2.5281   -0.0661   -2.5014 C   0  0  0  0  0  0  0  0  0  0  0  0
   -1.6946   -0.6519   -2.9332 H   0  0  0  0  0  0  0  0  0  0  0  0
   -3.4799   -0.5876   -2.7249 H   0  0  0  0  0  0  0  0  0  0  0  0
   -2.4884    1.3533   -3.0677 C   0  0  0  0  0  0  0  0  0  0  0  0
   -3.3021    1.9918   -2.6702 H   0  0  0  0  0  0  0  0  0  0  0  0
   -2.5834    1.3208   -4.1720 H   0  0  0  0  0  0  0  0  0  0  0  0
   -1.5182    1.8328   -2.8300 H   0  0  0  0  0  0  0  0  0  0  0  0
  1 16  1  0  0  0  0
  1  2  1  0  0  0  0
  2 14  1  0  0  0  0
  3  2  2  0  0  0  0
  3  8  1  0  0  0  0
  4  6  1  0  0  0  0
  4  7  1  0  0  0  0
  4  3  1  0  0  0  0
  5  4  1  0  0  0  0
  8 10  2  0  0  0  0
  9  8  1  0  0  0  0
 10 11  1  0  0  0  0
 10 12  1  0  0  0  0
 12 13  1  0  0  0  0
 14 15  1  0  0  0  0
 14 12  2  0  0  0  0
 16 28  1  0  0  0  0
 17 16  2  0  0  0  0
 17 22  1  0  0  0  0
 18 20  1  0  0  0  0
 18 19  1  0  0  0  0
 18 17  1  0  0  0  0
 21 18  1  0  0  0  0
 22 24  2  0  0  0  0
 23 22  1  0  0  0  0
 24 26  1  0  0  0  0
 24 25  1  0  0  0  0
 26 27  1  0  0  0  0
 28 29  1  0  0  0  0
 28 26  2  0  0  0  0
 30  1  1  0  0  0  0
 31 30  1  0  0  0  0
 32 30  1  0  0  0  0
 33 36  1  0  0  0  0
 33 34  1  0  0  0  0
 33 30  1  0  0  0  0
 35 33  1  0  0  0  0
M  END
