1
q = 0.0, confidence = 0.996

 33 35  0  0  0  0  0  0  0  0999 V2000
   -0.4262    0.9906    0.2070 P   0  0  1  0  0  0  0  0  0  0  0  0
    0.3379    1.4314    1.6670 O   0  0  0  0  0  0  0  0  0  0  0  0
    2.0242    1.3357    3.1141 O   0  0  0  0  0  0  0  0  0  0  0  0
    0.6582    1.6511   -2.1943 O   0  0  0  0  0  0  0  0  0  0  0  0
   -1.5779    2.3821    0.0095 C   0  0  0  0  0  0  0  0  0  0  0  0
   -2.3744    2.4060   -1.1545 C   0  0  0  0  0  0  0  0  0  0  0  0
   -2.2987    1.5979   -1.8970 H   0  0  0  0  0  0  0  0  0  0  0  0
   -3.2612    3.4713   -1.3623 C   0  0  0  0  0  0  0  0  0  0  0  0
   -3.8779    3.4950   -2.2731 H   0  0  0  0  0  0  0  0  0  0  0  0
   -3.3680    4.4970   -0.4092 C   0  0  0  0  0  0  0  0  0  0  0  0
   -4.0734    5.3260   -0.5714 H   0  0  0  0  0  0  0  0  0  0  0  0
   -2.5803    4.4633    0.7525 C   0  0  0  0  0  0  0  0  0  0  0  0
   -2.6672    5.2641    1.5023 H   0  0  0  0  0  0  0  0  0  0  0  0
   -1.6774    3.4114    0.9657 C   0  0  0  0  0  0  0  0  0  0  0  0
   -1.0546    3.3788    1.8710 H   0  0  0  0  0  0  0  0  0  0  0  0
    1.6660    1.2270    1.9621 C   0  0  0  0  0  0  0  0  0  0  0  0
    0.9394    1.3522   -1.0436 C   0  0  0  0  0  0  0  0  0  0  0  0
    2.6039    0.9162    0.8343 C   0  0  0  0  0  0  0  0  0  0  0  0
    2.2994    1.0374   -0.5483 C   0  0  0  0  0  0  0  0  0  0  0  0
    3.3079    0.8015   -1.5025 C   0  0  0  0  0  0  0  0  0  0  0  0
    3.0360    0.9127   -2.5635 H   0  0  0  0  0  0  0  0  0  0  0  0
    4.6022    0.4112   -1.1347 C   0  0  0  0  0  0  0  0  0  0  0  0
    4.9074    0.2740    0.2515 C   0  0  0  0  0  0  0  0  0  0  0  0
    3.9096    0.5455    1.2008 C   0  0  0  0  0  0  0  0  0  0  0  0
    4.1330    0.4775    2.2759 H   0  0  0  0  0  0  0  0  0  0  0  0
    5.6461    0.1310   -2.1801 C   0  0  0  0  0  0  0  0  0  0  0  0
    5.2523    0.2912   -3.2009 H   0  0  0  0  0  0  0  0  0  0  0  0
    6.0116   -0.9154   -2.1124 H   0  0  0  0  0  0  0  0  0  0  0  0
    6.5367    0.7808   -2.0473 H   0  0  0  0  0  0  0  0  0  0  0  0
    6.2799   -0.1534    0.6910 C   0  0  0  0  0  0  0  0  0  0  0  0
    6.3579   -0.2023    1.7928 H   0  0  0  0  0  0  0  0  0  0  0  0
    7.0598    0.5441    0.3190 H   0  0  0  0  0  0  0  0  0  0  0  0
    6.5378   -1.1533    0.2823 H   0  0  0  0  0  0  0  0  0  0  0  0
  1  5  1  6  0  0  0
  1  2  1  0  0  0  0
  2 16  1  0  0  0  0
  4 17  2  0  0  0  0
  5 14  1  0  0  0  0
  6  5  2  0  0  0  0
  7  6  1  0  0  0  0
  8  6  1  0  0  0  0
  8 10  2  0  0  0  0
  9  8  1  0  0  0  0
 10 12  1  0  0  0  0
 11 10  1  0  0  0  0
 12 14  2  0  0  0  0
 12 13  1  0  0  0  0
 14 15  1  0  0  0  0
 16  3  2  0  0  0  0
 17 19  1  0  0  0  0
 17  1  1  0  0  0  0
 18 24  1  0  0  0  0
 18 16  1  0  0  0  0
 19 18  2  0  0  0  0
 20 22  2  0  0  0  0
 20 19  1  0  0  0  0
 21 20  1  0  0  0  0
 22 23  1  0  0  0  0
 23 30  1  0  0  0  0
 23 24  2  0  0  0  0
 24 25  1  0  0  0  0
 26 28  1  0  0  0  0
 26 29  1  0  0  0  0
 26 22  1  0  0  0  0
 27 26  1  0  0  0  0
 30 31  1  0  0  0  0
 32 30  1  0  0  0  0
 33 30  1  0  0  0  0
M  END
