1
q = 0.0, confidence = 0.992

 59 63  0  0  0  0  0  0  0  0999 V2000
   -2.2813    0.0576    0.1075 P   0  0  0  0  0  0  0  0  0  0  0  0
   -2.6129   -0.1799    1.8949 C   0  0  0  0  0  0  0  0  0  0  0  0
   -3.8515   -0.7351    2.2793 C   0  0  0  0  0  0  0  0  0  0  0  0
   -4.5686   -1.0530    1.5055 H   0  0  0  0  0  0  0  0  0  0  0  0
   -4.1620   -0.8908    3.6341 C   0  0  0  0  0  0  0  0  0  0  0  0
   -5.1333   -1.3254    3.9188 H   0  0  0  0  0  0  0  0  0  0  0  0
   -3.2485   -0.5118    4.6422 C   0  0  0  0  0  0  0  0  0  0  0  0
   -3.5839   -0.7141    6.0972 C   0  0  0  0  0  0  0  0  0  0  0  0
   -4.6054   -0.3517    6.3314 H   0  0  0  0  0  0  0  0  0  0  0  0
   -2.8695   -0.1892    6.7602 H   0  0  0  0  0  0  0  0  0  0  0  0
   -3.5581   -1.7923    6.3633 H   0  0  0  0  0  0  0  0  0  0  0  0
   -2.0118    0.0334    4.2440 C   0  0  0  0  0  0  0  0  0  0  0  0
   -1.2815    0.3327    5.0124 H   0  0  0  0  0  0  0  0  0  0  0  0
   -1.6913    0.2000    2.8886 C   0  0  0  0  0  0  0  0  0  0  0  0
   -0.7166    0.6244    2.6037 H   0  0  0  0  0  0  0  0  0  0  0  0
   -0.4623    0.2506   -0.0132 C   0  0  0  0  0  0  0  0  0  0  0  0
    0.1690    1.5047    0.0964 C   0  0  0  0  0  0  0  0  0  0  0  0
   -0.4360    2.4152    0.2240 H   0  0  0  0  0  0  0  0  0  0  0  0
    1.5641    1.6085    0.0355 C   0  0  0  0  0  0  0  0  0  0  0  0
    2.0416    2.5932    0.1066 H   0  0  0  0  0  0  0  0  0  0  0  0
    2.3717    0.4576   -0.1313 C   0  0  0  0  0  0  0  0  0  0  0  0
    3.8505    0.5267   -0.1579 C   0  0  0  0  0  0  0  0  0  0  0  0
    4.5143    1.7493   -0.6574 C   0  0  0  0  0  0  0  0  0  0  0  0
    5.9190    1.7180   -0.7181 O   0  0  0  0  0  0  0  0  0  0  0  0
    6.6761    0.6678   -0.3090 C   0  0  0  0  0  0  0  0  0  0  0  0
    8.0639    0.7814   -0.4103 C   0  0  0  0  0  0  0  0  0  0  0  0
    8.5201    1.6938   -0.8154 H   0  0  0  0  0  0  0  0  0  0  0  0
    8.8761   -0.2888    0.0149 C   0  0  0  0  0  0  0  0  0  0  0  0
    8.2867   -1.4681    0.5435 C   0  0  0  0  0  0  0  0  0  0  0  0
    8.9093   -2.3070    0.8785 H   0  0  0  0  0  0  0  0  0  0  0  0
    6.8990   -1.5602    0.6363 C   0  0  0  0  0  0  0  0  0  0  0  0
    6.4375   -2.4728    1.0438 H   0  0  0  0  0  0  0  0  0  0  0  0
    6.0591   -0.5036    0.2122 C   0  0  0  0  0  0  0  0  0  0  0  0
    4.6310   -0.5296    0.2680 C   0  0  0  0  0  0  0  0  0  0  0  0
    4.1480   -1.4272    0.6854 H   0  0  0  0  0  0  0  0  0  0  0  0
   10.2101   -0.1017   -0.1177 O   0  0  0  0  0  0  0  0  0  0  0  0
   11.0930   -1.1353    0.2870 C   0  0  0  0  0  0  0  0  0  0  0  0
   10.9952   -1.3602    1.3720 H   0  0  0  0  0  0  0  0  0  0  0  0
   12.1149   -0.7649    0.0870 H   0  0  0  0  0  0  0  0  0  0  0  0
   10.9268   -2.0702   -0.2923 H   0  0  0  0  0  0  0  0  0  0  0  0
    3.9842    2.7776   -1.0228 O   0  0  0  0  0  0  0  0  0  0  0  0
    1.7205   -0.7942   -0.2649 C   0  0  0  0  0  0  0  0  0  0  0  0
    2.3136   -1.7006   -0.4570 H   0  0  0  0  0  0  0  0  0  0  0  0
    0.3290   -0.9005   -0.2067 C   0  0  0  0  0  0  0  0  0  0  0  0
   -0.1570   -1.8804   -0.3378 H   0  0  0  0  0  0  0  0  0  0  0  0
   -2.9548    1.7165   -0.2828 C   0  0  0  0  0  0  0  0  0  0  0  0
   -3.2447    2.6654    0.7151 C   0  0  0  0  0  0  0  0  0  0  0  0
   -3.1034    2.4104    1.7763 H   0  0  0  0  0  0  0  0  0  0  0  0
   -3.7198    3.9363    0.3579 C   0  0  0  0  0  0  0  0  0  0  0  0
   -3.9454    4.6702    1.1476 H   0  0  0  0  0  0  0  0  0  0  0  0
   -3.9161    4.2918   -0.9909 C   0  0  0  0  0  0  0  0  0  0  0  0
   -4.4400    5.6509   -1.3765 C   0  0  0  0  0  0  0  0  0  0  0  0
   -4.5015    6.3298   -0.5045 H   0  0  0  0  0  0  0  0  0  0  0  0
   -5.4562    5.5746   -1.8178 H   0  0  0  0  0  0  0  0  0  0  0  0
   -3.7947    6.1290   -2.1416 H   0  0  0  0  0  0  0  0  0  0  0  0
   -3.6249    3.3273   -1.9810 C   0  0  0  0  0  0  0  0  0  0  0  0
   -3.7767    3.5781   -3.0428 H   0  0  0  0  0  0  0  0  0  0  0  0
   -3.1568    2.0553   -1.6374 C   0  0  0  0  0  0  0  0  0  0  0  0
   -2.9507    1.3096   -2.4220 H   0  0  0  0  0  0  0  0  0  0  0  0
  1  2  1  0  0  0  0
  2  3  2  0  0  0  0
  2 14  1  0  0  0  0
  3  5  1  0  0  0  0
  4  3  1  0  0  0  0
  5  6  1  0  0  0  0
  5  7  2  0  0  0  0
  7  8  1  0  0  0  0
  8  9  1  0  0  0  0
  8 11  1  0  0  0  0
  8 10  1  0  0  0  0
 12  7  1  0  0  0  0
 12 13  1  0  0  0  0
 14 12  2  0  0  0  0
 15 14  1  0  0  0  0
 16 17  1  0  0  0  0
 16  1  1  0  0  0  0
 17 18  1  0  0  0  0
 19 17  2  0  0  0  0
 19 20  1  0  0  0  0
 21 19  1  0  0  0  0
 22 21  1  0  0  0  0
 22 34  2  0  0  0  0
 23 22  1  0  0  0  0
 24 23  1  0  0  0  0
 24 25  1  0  0  0  0
 25 33  1  0  0  0  0
 26 25  2  0  0  0  0
 26 28  1  0  0  0  0
 27 26  1  0  0  0  0
 28 29  2  0  0  0  0
 29 31  1  0  0  0  0
 29 30  1  0  0  0  0
 31 32  1  0  0  0  0
 33 34  1  0  0  0  0
 33 31  2  0  0  0  0
 34 35  1  0  0  0  0
 36 28  1  0  0  0  0
 36 37  1  0  0  0  0
 37 38  1  0  0  0  0
 39 37  1  0  0  0  0
 40 37  1  0  0  0  0
 41 23  2  0  0  0  0
 42 44  1  0  0  0  0
 42 21  2  0  0  0  0
 43 42  1  0  0  0  0
 44 16  2  0  0  0  0
 45 44  1  0  0  0  0
 46  1  1  0  0  0  0
 46 47  1  0  0  0  0
 47 48  1  0  0  0  0
 49 47  2  0  0  0  0
 49 50  1  0  0  0  0
 51 49  1  0  0  0  0
 52 51  1  0  0  0  0
 52 53  1  0  0  0  0
 54 52  1  0  0  0  0
 55 52  1  0  0  0  0
 56 58  1  0  0  0  0
 56 51  2  0  0  0  0
 57 56  1  0  0  0  0
 58 46  2  0  0  0  0
 59 58  1  0  0  0  0
M  END
