1
q = 0.0, confidence = 0.994

 58 62  0  0  0  0  0  0  0  0999 V2000
   -0.1837    0.8424    0.3650 P   0  0  0  0  0  0  0  0  0  0  0  0
    1.3367    0.2496    0.7704 O   0  0  0  0  0  0  0  0  0  0  0  0
    2.1945   -0.6019   -0.0320 C   0  0  0  0  0  0  0  0  0  0  0  0
    3.6088   -0.3971    0.5510 C   0  0  0  0  0  0  0  0  0  0  0  0
    3.8063    0.2799    1.7672 C   0  0  0  0  0  0  0  0  0  0  0  0
    2.9398    0.7021    2.2928 H   0  0  0  0  0  0  0  0  0  0  0  0
    5.0979    0.4236    2.3007 C   0  0  0  0  0  0  0  0  0  0  0  0
    5.2337    0.9583    3.2532 H   0  0  0  0  0  0  0  0  0  0  0  0
    6.2070   -0.1067    1.6272 C   0  0  0  0  0  0  0  0  0  0  0  0
    7.2185    0.0066    2.0457 H   0  0  0  0  0  0  0  0  0  0  0  0
    6.0158   -0.7822    0.4105 C   0  0  0  0  0  0  0  0  0  0  0  0
    6.8779   -1.1987   -0.1323 H   0  0  0  0  0  0  0  0  0  0  0  0
    4.7280   -0.9266   -0.1215 C   0  0  0  0  0  0  0  0  0  0  0  0
    4.5939   -1.4471   -1.0807 H   0  0  0  0  0  0  0  0  0  0  0  0
    2.1178   -0.1521   -1.4981 C   0  0  0  0  0  0  0  0  0  0  0  0
    2.8714    0.9627   -1.9205 C   0  0  0  0  0  0  0  0  0  0  0  0
    3.5808    1.4291   -1.2226 H   0  0  0  0  0  0  0  0  0  0  0  0
    2.7118    1.4916   -3.2070 C   0  0  0  0  0  0  0  0  0  0  0  0
    3.2987    2.3713   -3.5106 H   0  0  0  0  0  0  0  0  0  0  0  0
    1.7953    0.9116   -4.0986 C   0  0  0  0  0  0  0  0  0  0  0  0
    1.6648    1.3291   -5.1085 H   0  0  0  0  0  0  0  0  0  0  0  0
    1.0444   -0.2005   -3.6934 C   0  0  0  0  0  0  0  0  0  0  0  0
    0.3160   -0.6577   -4.3789 H   0  0  0  0  0  0  0  0  0  0  0  0
    1.2034   -0.7270   -2.4017 C   0  0  0  0  0  0  0  0  0  0  0  0
    0.6068   -1.5949   -2.0959 H   0  0  0  0  0  0  0  0  0  0  0  0
    1.8290   -2.0755    0.2138 C   0  0  0  0  0  0  0  0  0  0  0  0
    2.2695   -3.0949   -0.6530 C   0  0  0  0  0  0  0  0  0  0  0  0
    2.8049   -2.8362   -1.5778 H   0  0  0  0  0  0  0  0  0  0  0  0
    2.0187   -4.4424   -0.3577 C   0  0  0  0  0  0  0  0  0  0  0  0
    2.3606   -5.2228   -1.0541 H   0  0  0  0  0  0  0  0  0  0  0  0
    1.3264   -4.7958    0.8107 C   0  0  0  0  0  0  0  0  0  0  0  0
    1.1233   -5.8533    1.0364 H   0  0  0  0  0  0  0  0  0  0  0  0
    0.8884   -3.7883    1.6820 C   0  0  0  0  0  0  0  0  0  0  0  0
    0.3367   -4.0462    2.5987 H   0  0  0  0  0  0  0  0  0  0  0  0
    1.1418   -2.4413    1.3864 C   0  0  0  0  0  0  0  0  0  0  0  0
    0.7983   -1.6591    2.0742 H   0  0  0  0  0  0  0  0  0  0  0  0
    0.2226    2.3286   -0.6466 C   0  0  0  0  0  0  0  0  0  0  0  0
   -0.4662    2.6251   -1.8328 C   0  0  0  0  0  0  0  0  0  0  0  0
   -1.2643    1.9569   -2.1813 H   0  0  0  0  0  0  0  0  0  0  0  0
   -0.1326    3.7717   -2.5732 C   0  0  0  0  0  0  0  0  0  0  0  0
   -0.6751    3.9951   -3.5040 H   0  0  0  0  0  0  0  0  0  0  0  0
    0.8896    4.6217   -2.1290 C   0  0  0  0  0  0  0  0  0  0  0  0
    1.1506    5.5197   -2.7095 H   0  0  0  0  0  0  0  0  0  0  0  0
    1.5814    4.3277   -0.9398 C   0  0  0  0  0  0  0  0  0  0  0  0
    2.3843    4.9939   -0.5889 H   0  0  0  0  0  0  0  0  0  0  0  0
    1.2518    3.1866   -0.2006 C   0  0  0  0  0  0  0  0  0  0  0  0
    1.7967    2.9472    0.7252 H   0  0  0  0  0  0  0  0  0  0  0  0
   -0.4749    1.6310    2.0084 C   0  0  0  0  0  0  0  0  0  0  0  0
    0.0094    1.0437    3.1939 C   0  0  0  0  0  0  0  0  0  0  0  0
    0.6309    0.1390    3.1432 H   0  0  0  0  0  0  0  0  0  0  0  0
   -0.2912    1.6166    4.4389 C   0  0  0  0  0  0  0  0  0  0  0  0
    0.0937    1.1498    5.3582 H   0  0  0  0  0  0  0  0  0  0  0  0
   -1.0780    2.7760    4.5122 C   0  0  0  0  0  0  0  0  0  0  0  0
   -1.3156    3.2217    5.4899 H   0  0  0  0  0  0  0  0  0  0  0  0
   -1.5569    3.3683    3.3326 C   0  0  0  0  0  0  0  0  0  0  0  0
   -2.1677    4.2824    3.3805 H   0  0  0  0  0  0  0  0  0  0  0  0
   -1.2552    2.8029    2.0857 C   0  0  0  0  0  0  0  0  0  0  0  0
   -1.6240    3.2827    1.1674 H   0  0  0  0  0  0  0  0  0  0  0  0
  1  2  1  0  0  0  0
  1 48  1  0  0  0  0
  3 26  1  0  0  0  0
  3  4  1  0  0  0  0
  3  2  1  0  0  0  0
  4  5  1  0  0  0  0
  5  6  1  0  0  0  0
  5  7  2  0  0  0  0
  7  8  1  0  0  0  0
  9 10  1  0  0  0  0
  9  7  1  0  0  0  0
 11  9  2  0  0  0  0
 12 11  1  0  0  0  0
 13 11  1  0  0  0  0
 13  4  2  0  0  0  0
 14 13  1  0  0  0  0
 15  3  1  0  0  0  0
 16 15  1  0  0  0  0
 16 17  1  0  0  0  0
 18 16  2  0  0  0  0
 19 18  1  0  0  0  0
 20 22  2  0  0  0  0
 20 18  1  0  0  0  0
 21 20  1  0  0  0  0
 22 24  1  0  0  0  0
 23 22  1  0  0  0  0
 24 25  1  0  0  0  0
 24 15  2  0  0  0  0
 26 35  1  0  0  0  0
 27 29  1  0  0  0  0
 27 26  2  0  0  0  0
 28 27  1  0  0  0  0
 29 31  2  0  0  0  0
 30 29  1  0  0  0  0
 31 32  1  0  0  0  0
 31 33  1  0  0  0  0
 33 34  1  0  0  0  0
 35 33  2  0  0  0  0
 35 36  1  0  0  0  0
 37 46  1  0  0  0  0
 37  1  1  0  0  0  0
 38 37  2  0  0  0  0
 39 38  1  0  0  0  0
 40 42  2  0  0  0  0
 40 38  1  0  0  0  0
 41 40  1  0  0  0  0
 42 44  1  0  0  0  0
 43 42  1  0  0  0  0
 44 45  1  0  0  0  0
 44 46  2  0  0  0  0
 46 47  1  0  0  0  0
 48 57  2  0  0  0  0
 48 49  1  0  0  0  0
 49 51  2  0  0  0  0
 50 49  1  0  0  0  0
 51 53  1  0  0  0  0
 51 52  1  0  0  0  0
 53 54  1  0  0  0  0
 55 56  1  0  0  0  0
 55 53  2  0  0  0  0
 57 55  1  0  0  0  0
 58 57  1  0  0  0  0
M  END
