2
q = 0.0, confidence = 0.998

 37 39  0  0  0  0  0  0  0  0999 V2000
   -0.8217   -2.6069    0.4064 I   0  0  0  0  0  0  0  0  0  0  0  0
   -0.7667    0.8329    0.0313 P   0  0  0  0  0  0  0  0  0  0  0  0
   -1.8648   -0.1191   -1.1048 C   0  0  0  0  0  0  0  0  0  0  0  0
   -1.9405   -1.5319   -1.0553 C   0  0  0  0  0  0  0  0  0  0  0  0
   -2.7497   -2.2687   -1.9535 C   0  0  0  0  0  0  0  0  0  0  0  0
   -3.4852   -1.5381   -2.9111 C   0  0  0  0  0  0  0  0  0  0  0  0
   -3.4250   -0.1419   -2.9789 C   0  0  0  0  0  0  0  0  0  0  0  0
   -2.6181    0.5662   -2.0811 C   0  0  0  0  0  0  0  0  0  0  0  0
   -2.8411   -3.7700   -1.9237 C   0  0  0  0  0  0  0  0  0  0  0  0
   -1.0294    2.5878   -0.4486 C   0  0  0  0  0  0  0  0  0  0  0  0
   -0.1467    3.1598   -1.3881 C   0  0  0  0  0  0  0  0  0  0  0  0
   -0.3260    4.4874   -1.8024 C   0  0  0  0  0  0  0  0  0  0  0  0
   -1.3764    5.2542   -1.2726 C   0  0  0  0  0  0  0  0  0  0  0  0
   -2.2487    4.6915   -0.3268 C   0  0  0  0  0  0  0  0  0  0  0  0
   -2.0794    3.3615    0.0863 C   0  0  0  0  0  0  0  0  0  0  0  0
   -1.5558    0.6858    1.6805 C   0  0  0  0  0  0  0  0  0  0  0  0
   -2.9285    0.3987    1.8205 C   0  0  0  0  0  0  0  0  0  0  0  0
   -3.5008    0.3337    3.0996 C   0  0  0  0  0  0  0  0  0  0  0  0
   -2.7097    0.5553    4.2384 C   0  0  0  0  0  0  0  0  0  0  0  0
   -1.3412    0.8393    4.0991 C   0  0  0  0  0  0  0  0  0  0  0  0
   -0.7617    0.9016    2.8240 C   0  0  0  0  0  0  0  0  0  0  0  0
   -4.1173   -2.0950   -3.6200 H   0  0  0  0  0  0  0  0  0  0  0  0
   -4.0088    0.4008   -3.7369 H   0  0  0  0  0  0  0  0  0  0  0  0
   -2.5655    1.6629   -2.1329 H   0  0  0  0  0  0  0  0  0  0  0  0
    0.6892    2.5599   -1.7830 H   0  0  0  0  0  0  0  0  0  0  0  0
    0.3672    4.9279   -2.5346 H   0  0  0  0  0  0  0  0  0  0  0  0
   -1.5103    6.2991   -1.5912 H   0  0  0  0  0  0  0  0  0  0  0  0
   -3.0662    5.2937    0.0978 H   0  0  0  0  0  0  0  0  0  0  0  0
   -2.7607    2.9256    0.8322 H   0  0  0  0  0  0  0  0  0  0  0  0
   -3.5455    0.2123    0.9281 H   0  0  0  0  0  0  0  0  0  0  0  0
   -4.5715    0.1027    3.2070 H   0  0  0  0  0  0  0  0  0  0  0  0
   -3.1607    0.4988    5.2407 H   0  0  0  0  0  0  0  0  0  0  0  0
   -0.7170    1.0045    4.9900 H   0  0  0  0  0  0  0  0  0  0  0  0
    0.3151    1.1042    2.7084 H   0  0  0  0  0  0  0  0  0  0  0  0
   -1.8457   -4.2353   -2.0802 H   0  0  0  0  0  0  0  0  0  0  0  0
   -3.2051   -4.1328   -0.9401 H   0  0  0  0  0  0  0  0  0  0  0  0
   -3.5267   -4.1398   -2.7093 H   0  0  0  0  0  0  0  0  0  0  0  0
  2 16  1  0  0  0  0
  3  4  1  0  0  0  0
  3  2  1  0  0  0  0
  4  1  1  0  0  0  0
  5  9  1  0  0  0  0
  5  4  2  0  0  0  0
  6  5  1  0  0  0  0
  7  6  2  0  0  0  0
  7  8  1  0  0  0  0
  8  3  2  0  0  0  0
  9 36  1  0  0  0  0
 10  2  1  0  0  0  0
 10 15  1  0  0  0  0
 11 10  2  0  0  0  0
 12 11  1  0  0  0  0
 12 13  2  0  0  0  0
 13 14  1  0  0  0  0
 14 15  2  0  0  0  0
 14 28  1  0  0  0  0
 15 29  1  0  0  0  0
 16 17  2  0  0  0  0
 16 21  1  0  0  0  0
 17 18  1  0  0  0  0
 18 31  1  0  0  0  0
 18 19  2  0  0  0  0
 19 32  1  0  0  0  0
 20 19  1  0  0  0  0
 20 33  1  0  0  0  0
 21 20  2  0  0  0  0
 22  6  1  0  0  0  0
 23  7  1  0  0  0  0
 24  8  1  0  0  0  0
 25 11  1  0  0  0  0
 26 12  1  0  0  0  0
 27 13  1  0  0  0  0
 30 17  1  0  0  0  0
 34 21  1  0  0  0  0
 35  9  1  0  0  0  0
 37  9  1  0  0  0  0
M  END
