1
q = 0.0, confidence = 1.0

 42 44  0  0  1  0  0  0  0  0999 V2000
   -1.6299    0.1210    0.0716 P   0  0  2  0  0  0  0  0  0  0  0  0
   -0.4576    3.2183   -3.2936 O   0  0  0  0  0  0  0  0  0  0  0  0
    1.4424    3.2701   -2.0226 N   0  0  0  0  0  0  0  0  0  0  0  0
   -0.9218    1.8082   -0.3504 C   0  0  1  0  0  0  0  0  0  0  0  0
   -0.2021    1.4245   -1.7014 C   0  0  1  0  0  0  0  0  0  0  0  0
   -1.2409    0.6062   -2.5138 C   0  0  0  0  0  0  0  0  0  0  0  0
   -2.4780    0.4189   -1.5877 C   0  0  2  0  0  0  0  0  0  0  0  0
   -3.0725    1.7978   -1.3455 C   0  0  0  0  0  0  0  0  0  0  0  0
   -2.1870    2.5897   -0.6753 C   0  0  0  0  0  0  0  0  0  0  0  0
   -2.2947    4.0441   -0.3506 C   0  0  0  0  0  0  0  0  0  0  0  0
   -4.4123    2.1527   -1.8985 C   0  0  0  0  0  0  0  0  0  0  0  0
    0.2495    2.7008   -2.4242 C   0  0  0  0  0  0  0  0  0  0  0  0
    2.3202    2.7661   -0.9845 C   0  0  0  0  0  0  0  0  0  0  0  0
    1.8421    4.5315   -2.6209 C   0  0  0  0  0  0  0  0  0  0  0  0
   -2.9282    0.2701    1.3513 C   0  0  0  0  0  0  0  0  0  0  0  0
   -3.8517   -0.7928    1.4586 C   0  0  0  0  0  0  0  0  0  0  0  0
   -4.8604   -0.7389    2.4324 C   0  0  0  0  0  0  0  0  0  0  0  0
   -4.9466    0.3571    3.3060 C   0  0  0  0  0  0  0  0  0  0  0  0
   -4.0209    1.4085    3.2052 C   0  0  0  0  0  0  0  0  0  0  0  0
   -3.0139    1.3689    2.2299 C   0  0  0  0  0  0  0  0  0  0  0  0
   -0.2513    2.2635    0.3990 H   0  0  0  0  0  0  0  0  0  0  0  0
    0.6638    0.7787   -1.4592 H   0  0  0  0  0  0  0  0  0  0  0  0
   -1.5384    1.1767   -3.4151 H   0  0  0  0  0  0  0  0  0  0  0  0
   -0.8409   -0.3778   -2.8210 H   0  0  0  0  0  0  0  0  0  0  0  0
   -3.1898   -0.3566   -1.9222 H   0  0  0  0  0  0  0  0  0  0  0  0
   -3.3086    4.4404   -0.5502 H   0  0  0  0  0  0  0  0  0  0  0  0
   -1.5790    4.6324   -0.9654 H   0  0  0  0  0  0  0  0  0  0  0  0
   -2.0491    4.2451    0.7145 H   0  0  0  0  0  0  0  0  0  0  0  0
   -5.1912    1.4597   -1.5140 H   0  0  0  0  0  0  0  0  0  0  0  0
   -4.4212    2.0570   -3.0061 H   0  0  0  0  0  0  0  0  0  0  0  0
   -4.7117    3.1876   -1.6456 H   0  0  0  0  0  0  0  0  0  0  0  0
    2.0431    1.7470   -0.6728 H   0  0  0  0  0  0  0  0  0  0  0  0
    2.3006    3.4125   -0.0778 H   0  0  0  0  0  0  0  0  0  0  0  0
    3.3698    2.7302   -1.3477 H   0  0  0  0  0  0  0  0  0  0  0  0
    2.8484    4.4443   -3.0852 H   0  0  0  0  0  0  0  0  0  0  0  0
    1.8871    5.3376   -1.8548 H   0  0  0  0  0  0  0  0  0  0  0  0
    1.0977    4.7985   -3.3921 H   0  0  0  0  0  0  0  0  0  0  0  0
   -3.7687   -1.6604    0.7837 H   0  0  0  0  0  0  0  0  0  0  0  0
   -5.5827   -1.5657    2.5092 H   0  0  0  0  0  0  0  0  0  0  0  0
   -5.7376    0.3920    4.0706 H   0  0  0  0  0  0  0  0  0  0  0  0
   -4.0857    2.2698    3.8877 H   0  0  0  0  0  0  0  0  0  0  0  0
   -2.2924    2.1952    2.1525 H   0  0  0  0  0  0  0  0  0  0  0  0
  1 15  1  1  0  0  0
  2 12  2  0  0  0  0
  3 13  1  0  0  0  0
  4  1  1  0  0  0  0
  4 21  1  1  0  0  0
  5 22  1  1  0  0  0
  5  4  1  0  0  0  0
  6  5  1  0  0  0  0
  6  7  1  0  0  0  0
  7 25  1  6  0  0  0
  7  8  1  0  0  0  0
  7  1  1  0  0  0  0
  8  9  2  0  0  0  0
  9 10  1  0  0  0  0
  9  4  1  0  0  0  0
 10 28  1  0  0  0  0
 11 31  1  0  0  0  0
 11 29  1  0  0  0  0
 11  8  1  0  0  0  0
 12  3  1  0  0  0  0
 12  5  1  0  0  0  0
 13 32  1  0  0  0  0
 13 33  1  0  0  0  0
 14  3  1  0  0  0  0
 14 36  1  0  0  0  0
 15 16  2  0  0  0  0
 15 20  1  0  0  0  0
 16 17  1  0  0  0  0
 17 39  1  0  0  0  0
 17 18  2  0  0  0  0
 18 40  1  0  0  0  0
 19 18  1  0  0  0  0
 19 41  1  0  0  0  0
 20 19  2  0  0  0  0
 23  6  1  0  0  0  0
 24  6  1  0  0  0  0
 26 10  1  0  0  0  0
 27 10  1  0  0  0  0
 30 11  1  0  0  0  0
 34 13  1  0  0  0  0
 35 14  1  0  0  0  0
 37 14  1  0  0  0  0
 38 16  1  0  0  0  0
 42 20  1  0  0  0  0
M  END
