1
q = 0.0, confidence = 0.996

 40 43  0  0  0  0  0  0  0  0999 V2000
   -0.8733   -0.4637    0.0874 P   0  0  0  0  0  0  0  0  0  0  0  0
    1.3450    0.9203    1.2175 F   0  0  0  0  0  0  0  0  0  0  0  0
    3.8684    1.7354    1.5470 F   0  0  0  0  0  0  0  0  0  0  0  0
    5.9057    0.6735    0.0983 F   0  0  0  0  0  0  0  0  0  0  0  0
    5.3949   -1.2769   -1.7518 F   0  0  0  0  0  0  0  0  0  0  0  0
    0.6320   -1.1568   -0.7427 C   0  0  0  0  0  0  0  0  0  0  0  0
    0.4490   -2.1551   -1.7000 C   0  0  0  0  0  0  0  0  0  0  0  0
   -0.5642   -2.5332   -1.8942 H   0  0  0  0  0  0  0  0  0  0  0  0
    1.5312   -2.6944   -2.4383 C   0  0  0  0  0  0  0  0  0  0  0  0
    1.3388   -3.4791   -3.1844 H   0  0  0  0  0  0  0  0  0  0  0  0
    2.8170   -2.2347   -2.2236 C   0  0  0  0  0  0  0  0  0  0  0  0
    3.6692   -2.6367   -2.7880 H   0  0  0  0  0  0  0  0  0  0  0  0
    3.0605   -1.2192   -1.2563 C   0  0  0  0  0  0  0  0  0  0  0  0
    4.3867   -0.7512   -1.0407 C   0  0  0  0  0  0  0  0  0  0  0  0
    4.6639    0.2358   -0.1058 C   0  0  0  0  0  0  0  0  0  0  0  0
    3.5987    0.7910    0.6480 C   0  0  0  0  0  0  0  0  0  0  0  0
    2.2927    0.3488    0.4592 C   0  0  0  0  0  0  0  0  0  0  0  0
    1.9636   -0.6567   -0.4944 C   0  0  0  0  0  0  0  0  0  0  0  0
   -2.2466   -1.5299   -0.5146 C   0  0  0  0  0  0  0  0  0  0  0  0
   -3.0071   -1.0843   -1.6157 C   0  0  0  0  0  0  0  0  0  0  0  0
   -2.7807   -0.1060   -2.0697 H   0  0  0  0  0  0  0  0  0  0  0  0
   -4.0504   -1.8765   -2.1162 C   0  0  0  0  0  0  0  0  0  0  0  0
   -4.6403   -1.5216   -2.9745 H   0  0  0  0  0  0  0  0  0  0  0  0
   -4.3487   -3.1096   -1.5144 C   0  0  0  0  0  0  0  0  0  0  0  0
   -5.1737   -3.7263   -1.9021 H   0  0  0  0  0  0  0  0  0  0  0  0
   -3.6019   -3.5503   -0.4097 C   0  0  0  0  0  0  0  0  0  0  0  0
   -3.8409   -4.5111    0.0708 H   0  0  0  0  0  0  0  0  0  0  0  0
   -2.5528   -2.7656    0.0914 C   0  0  0  0  0  0  0  0  0  0  0  0
   -1.9757   -3.1111    0.9620 H   0  0  0  0  0  0  0  0  0  0  0  0
   -0.7051   -0.9200    1.8553 C   0  0  0  0  0  0  0  0  0  0  0  0
    0.1087   -1.9942    2.2663 C   0  0  0  0  0  0  0  0  0  0  0  0
    0.6912   -2.5607    1.5231 H   0  0  0  0  0  0  0  0  0  0  0  0
    0.1822   -2.3342    3.6258 C   0  0  0  0  0  0  0  0  0  0  0  0
    0.8222   -3.1706    3.9456 H   0  0  0  0  0  0  0  0  0  0  0  0
   -0.5543   -1.6073    4.5747 C   0  0  0  0  0  0  0  0  0  0  0  0
   -0.4917   -1.8734    5.6407 H   0  0  0  0  0  0  0  0  0  0  0  0
   -1.3626   -0.5341    4.1650 C   0  0  0  0  0  0  0  0  0  0  0  0
   -1.9326    0.0437    4.9079 H   0  0  0  0  0  0  0  0  0  0  0  0
   -1.4366   -0.1858    2.8091 C   0  0  0  0  0  0  0  0  0  0  0  0
   -2.0513    0.6681    2.4827 H   0  0  0  0  0  0  0  0  0  0  0  0
  1 30  1  0  0  0  0
  5 14  1  0  0  0  0
  6 18  1  0  0  0  0
  6  1  1  0  0  0  0
  7  6  2  0  0  0  0
  8  7  1  0  0  0  0
  9 11  2  0  0  0  0
  9  7  1  0  0  0  0
 10  9  1  0  0  0  0
 11 13  1  0  0  0  0
 12 11  1  0  0  0  0
 13 14  2  0  0  0  0
 13 18  1  0  0  0  0
 14 15  1  0  0  0  0
 15  4  1  0  0  0  0
 15 16  2  0  0  0  0
 16  3  1  0  0  0  0
 17 16  1  0  0  0  0
 17  2  1  0  0  0  0
 18 17  2  0  0  0  0
 19  1  1  0  0  0  0
 19 28  1  0  0  0  0
 20 19  2  0  0  0  0
 21 20  1  0  0  0  0
 22 20  1  0  0  0  0
 22 24  2  0  0  0  0
 23 22  1  0  0  0  0
 24 26  1  0  0  0  0
 25 24  1  0  0  0  0
 26 27  1  0  0  0  0
 26 28  2  0  0  0  0
 28 29  1  0  0  0  0
 30 31  2  0  0  0  0
 30 39  1  0  0  0  0
 31 33  1  0  0  0  0
 32 31  1  0  0  0  0
 33 34  1  0  0  0  0
 33 35  2  0  0  0  0
 35 36  1  0  0  0  0
 37 35  1  0  0  0  0
 37 38  1  0  0  0  0
 39 37  2  0  0  0  0
 40 39  1  0  0  0  0
M  END
