1
q = 0.0, confidence = 0.992

 58 60  0  0  0  0  0  0  0  0999 V2000
   -0.0002    0.0000    0.0973 P   0  0  0  0  0  0  0  0  0  0  0  0
   -2.6256   -1.0914   -0.4478 O   0  0  0  0  0  0  0  0  0  0  0  0
   -0.6005    2.1353    2.2999 O   0  0  0  0  0  0  0  0  0  0  0  0
    2.2588   -1.7232   -0.4543 O   0  0  0  0  0  0  0  0  0  0  0  0
   -1.5486   -1.5981    2.2938 O   0  0  0  0  0  0  0  0  0  0  0  0
    0.3648    2.8193   -0.4474 O   0  0  0  0  0  0  0  0  0  0  0  0
    2.1588   -0.5488    2.2917 O   0  0  0  0  0  0  0  0  0  0  0  0
   -1.6021    0.6246    0.7763 C   0  0  0  0  0  0  0  0  0  0  0  0
   -2.7947    0.0527    0.2600 C   0  0  0  0  0  0  0  0  0  0  0  0
   -4.0547    0.6291    0.5049 C   0  0  0  0  0  0  0  0  0  0  0  0
   -4.9638    0.1937    0.0719 H   0  0  0  0  0  0  0  0  0  0  0  0
   -4.1332    1.7613    1.3254 C   0  0  0  0  0  0  0  0  0  0  0  0
   -5.1130    2.2238    1.5189 H   0  0  0  0  0  0  0  0  0  0  0  0
   -2.9890    2.2973    1.9249 C   0  0  0  0  0  0  0  0  0  0  0  0
   -3.0761    3.1575    2.6005 H   0  0  0  0  0  0  0  0  0  0  0  0
   -1.7275    1.7112    1.6785 C   0  0  0  0  0  0  0  0  0  0  0  0
   -3.6855   -1.5873   -1.2472 C   0  0  0  0  0  0  0  0  0  0  0  0
   -3.2642   -2.4395   -1.8104 H   0  0  0  0  0  0  0  0  0  0  0  0
   -4.0495   -0.8153   -1.9589 H   0  0  0  0  0  0  0  0  0  0  0  0
   -4.5361   -1.9430   -0.6245 H   0  0  0  0  0  0  0  0  0  0  0  0
   -0.5776    3.4004    2.9269 C   0  0  0  0  0  0  0  0  0  0  0  0
    0.4805    3.5926    3.1872 H   0  0  0  0  0  0  0  0  0  0  0  0
   -1.1890    3.4183    3.8571 H   0  0  0  0  0  0  0  0  0  0  0  0
   -0.9359    4.2025    2.2442 H   0  0  0  0  0  0  0  0  0  0  0  0
    0.2610   -1.7018    0.7699 C   0  0  0  0  0  0  0  0  0  0  0  0
    1.3535   -2.4455    0.2507 C   0  0  0  0  0  0  0  0  0  0  0  0
    1.4861   -3.8256    0.4906 C   0  0  0  0  0  0  0  0  0  0  0  0
    2.3184   -4.3926    0.0554 H   0  0  0  0  0  0  0  0  0  0  0  0
    0.5460   -4.4638    1.3091 C   0  0  0  0  0  0  0  0  0  0  0  0
    0.6369   -5.5440    1.4989 H   0  0  0  0  0  0  0  0  0  0  0  0
   -0.4912   -3.7444    1.9113 C   0  0  0  0  0  0  0  0  0  0  0  0
   -1.1917   -4.2533    2.5854 H   0  0  0  0  0  0  0  0  0  0  0  0
   -0.6166   -2.3582    1.6697 C   0  0  0  0  0  0  0  0  0  0  0  0
    3.2198   -2.3889   -1.2554 C   0  0  0  0  0  0  0  0  0  0  0  0
    3.7463   -1.5950   -1.8153 H   0  0  0  0  0  0  0  0  0  0  0  0
    2.7350   -3.0883   -1.9701 H   0  0  0  0  0  0  0  0  0  0  0  0
    3.9535   -2.9487   -0.6341 H   0  0  0  0  0  0  0  0  0  0  0  0
   -2.6543   -2.2150    2.9190 C   0  0  0  0  0  0  0  0  0  0  0  0
   -3.3515   -1.3971    3.1821 H   0  0  0  0  0  0  0  0  0  0  0  0
   -2.3629   -2.7558    3.8475 H   0  0  0  0  0  0  0  0  0  0  0  0
   -3.1684   -2.9253    2.2342 H   0  0  0  0  0  0  0  0  0  0  0  0
    1.3442    1.0746    0.7721 C   0  0  0  0  0  0  0  0  0  0  0  0
    1.4430    2.3936    0.2559 C   0  0  0  0  0  0  0  0  0  0  0  0
    2.5730    3.1967    0.4966 C   0  0  0  0  0  0  0  0  0  0  0  0
    2.6486    4.2019    0.0637 H   0  0  0  0  0  0  0  0  0  0  0  0
    3.5962    2.6984    1.3127 C   0  0  0  0  0  0  0  0  0  0  0  0
    4.4873    3.3158    1.5028 H   0  0  0  0  0  0  0  0  0  0  0  0
    3.4910    1.4393    1.9120 C   0  0  0  0  0  0  0  0  0  0  0  0
    4.2824    1.0845    2.5842 H   0  0  0  0  0  0  0  0  0  0  0  0
    2.3518    0.6396    1.6700 C   0  0  0  0  0  0  0  0  0  0  0  0
    0.4620    3.9855   -1.2466 C   0  0  0  0  0  0  0  0  0  0  0  0
   -0.4890    4.0469   -1.8057 H   0  0  0  0  0  0  0  0  0  0  0  0
    1.3096    3.9151   -1.9619 H   0  0  0  0  0  0  0  0  0  0  0  0
    0.5818    4.8997   -0.6239 H   0  0  0  0  0  0  0  0  0  0  0  0
    3.2464   -1.2022    2.9116 C   0  0  0  0  0  0  0  0  0  0  0  0
    2.8847   -2.2146    3.1732 H   0  0  0  0  0  0  0  0  0  0  0  0
    3.5735   -0.6827    3.8403 H   0  0  0  0  0  0  0  0  0  0  0  0
    4.1158   -1.2929    2.2234 H   0  0  0  0  0  0  0  0  0  0  0  0
  1 25  1  0  0  0  0
  1 42  1  0  0  0  0
  1  8  1  0  0  0  0
  2  9  1  0  0  0  0
  3 21  1  0  0  0  0
  4 26  1  0  0  0  0
  5 38  1  0  0  0  0
  6 43  1  0  0  0  0
  7 55  1  0  0  0  0
  8 16  1  0  0  0  0
  9 10  1  0  0  0  0
  9  8  2  0  0  0  0
 10 12  2  0  0  0  0
 11 10  1  0  0  0  0
 12 13  1  0  0  0  0
 12 14  1  0  0  0  0
 14 15  1  0  0  0  0
 16 14  2  0  0  0  0
 16  3  1  0  0  0  0
 17 20  1  0  0  0  0
 17  2  1  0  0  0  0
 18 17  1  0  0  0  0
 19 17  1  0  0  0  0
 21 22  1  0  0  0  0
 21 23  1  0  0  0  0
 24 21  1  0  0  0  0
 25 33  1  0  0  0  0
 26 27  1  0  0  0  0
 26 25  2  0  0  0  0
 27 29  2  0  0  0  0
 28 27  1  0  0  0  0
 29 30  1  0  0  0  0
 29 31  1  0  0  0  0
 31 32  1  0  0  0  0
 33 31  2  0  0  0  0
 33  5  1  0  0  0  0
 34 37  1  0  0  0  0
 34  4  1  0  0  0  0
 35 34  1  0  0  0  0
 36 34  1  0  0  0  0
 38 39  1  0  0  0  0
 38 40  1  0  0  0  0
 41 38  1  0  0  0  0
 42 50  1  0  0  0  0
 43 44  1  0  0  0  0
 43 42  2  0  0  0  0
 44 46  2  0  0  0  0
 45 44  1  0  0  0  0
 46 47  1  0  0  0  0
 46 48  1  0  0  0  0
 48 49  1  0  0  0  0
 50 48  2  0  0  0  0
 50  7  1  0  0  0  0
 51 54  1  0  0  0  0
 51  6  1  0  0  0  0
 52 51  1  0  0  0  0
 53 51  1  0  0  0  0
 55 56  1  0  0  0  0
 55 57  1  0  0  0  0
 58 55  1  0  0  0  0
M  END
