1
q = 0.0, confidence = 0.996

 44 47  0  0  0  0  0  0  0  0999 V2000
   -1.0728    0.6712    0.2877 P   0  0  0  0  0  0  0  0  0  0  0  0
   -0.7515    2.3831    0.8884 C   0  0  0  0  0  0  0  0  0  0  0  0
    0.4560    3.8282    2.4400 C   0  0  0  0  0  0  0  0  0  0  0  0
    1.1222    3.9423    3.3087 H   0  0  0  0  0  0  0  0  0  0  0  0
    0.1099    2.5445    1.9977 C   0  0  0  0  0  0  0  0  0  0  0  0
    0.5217    1.6558    2.5031 H   0  0  0  0  0  0  0  0  0  0  0  0
   -2.2817    0.8318   -1.0928 C   0  0  0  0  0  0  0  0  0  0  0  0
   -3.5391    1.4100   -0.8119 C   0  0  0  0  0  0  0  0  0  0  0  0
   -3.7599    1.7854    0.1990 H   0  0  0  0  0  0  0  0  0  0  0  0
   -0.0313    4.9618    1.7682 C   0  0  0  0  0  0  0  0  0  0  0  0
    0.2500    5.9696    2.1098 H   0  0  0  0  0  0  0  0  0  0  0  0
   -2.0231    0.3169   -2.3744 C   0  0  0  0  0  0  0  0  0  0  0  0
   -1.0526   -0.1510   -2.5863 H   0  0  0  0  0  0  0  0  0  0  0  0
   -3.0077    0.3900   -3.3706 C   0  0  0  0  0  0  0  0  0  0  0  0
   -2.7993   -0.0264   -4.3674 H   0  0  0  0  0  0  0  0  0  0  0  0
   -0.8653    4.8040    0.6517 C   0  0  0  0  0  0  0  0  0  0  0  0
   -1.2357    5.6871    0.1094 H   0  0  0  0  0  0  0  0  0  0  0  0
   -1.2263    3.5213    0.2098 C   0  0  0  0  0  0  0  0  0  0  0  0
   -1.8635    3.4081   -0.6782 H   0  0  0  0  0  0  0  0  0  0  0  0
   -4.5149    1.4910   -1.8149 C   0  0  0  0  0  0  0  0  0  0  0  0
   -5.4904    1.9488   -1.5907 H   0  0  0  0  0  0  0  0  0  0  0  0
   -4.2500    0.9808   -3.0967 C   0  0  0  0  0  0  0  0  0  0  0  0
   -5.0200    1.0373   -3.8814 H   0  0  0  0  0  0  0  0  0  0  0  0
   -2.1698   -0.1054    1.5717 C   0  0  0  0  0  0  0  0  0  0  0  0
   -2.3394    0.5084    2.8278 C   0  0  0  0  0  0  0  0  0  0  0  0
   -1.7898    1.4289    3.0649 H   0  0  0  0  0  0  0  0  0  0  0  0
   -2.9062   -1.2846    1.2641 C   0  0  0  0  0  0  0  0  0  0  0  0
   -2.8204   -1.9875   -0.0480 C   0  0  0  0  0  0  0  0  0  0  0  0
   -1.6126   -2.5563   -0.5035 C   0  0  0  0  0  0  0  0  0  0  0  0
   -0.7187   -2.4943    0.1346 H   0  0  0  0  0  0  0  0  0  0  0  0
   -3.9175   -2.7532   -2.0929 C   0  0  0  0  0  0  0  0  0  0  0  0
   -4.8221   -2.8189   -2.7162 H   0  0  0  0  0  0  0  0  0  0  0  0
   -3.9759   -2.1099   -0.8498 C   0  0  0  0  0  0  0  0  0  0  0  0
   -4.9187   -1.6599   -0.5038 H   0  0  0  0  0  0  0  0  0  0  0  0
   -3.9494   -1.1822    3.4837 C   0  0  0  0  0  0  0  0  0  0  0  0
   -4.6422   -1.6103    4.2238 H   0  0  0  0  0  0  0  0  0  0  0  0
   -3.7955   -1.7943    2.2330 C   0  0  0  0  0  0  0  0  0  0  0  0
   -4.3626   -2.7058    1.9903 H   0  0  0  0  0  0  0  0  0  0  0  0
   -3.2166   -0.0260    3.7815 C   0  0  0  0  0  0  0  0  0  0  0  0
   -3.3280    0.4714    4.7566 H   0  0  0  0  0  0  0  0  0  0  0  0
   -1.5592   -3.2076   -1.7449 C   0  0  0  0  0  0  0  0  0  0  0  0
   -0.6112   -3.6515   -2.0849 H   0  0  0  0  0  0  0  0  0  0  0  0
   -2.7066   -3.3010   -2.5471 C   0  0  0  0  0  0  0  0  0  0  0  0
   -2.6598   -3.8048   -3.5247 H   0  0  0  0  0  0  0  0  0  0  0  0
  1  2  1  0  0  0  0
  1 24  1  0  0  0  0
  2  5  1  0  0  0  0
  3  4  1  0  0  0  0
  5  3  2  0  0  0  0
  5  6  1  0  0  0  0
  7  8  1  0  0  0  0
  7  1  1  0  0  0  0
  8  9  1  0  0  0  0
 10 11  1  0  0  0  0
 10  3  1  0  0  0  0
 12  7  2  0  0  0  0
 13 12  1  0  0  0  0
 14 22  2  0  0  0  0
 14 12  1  0  0  0  0
 15 14  1  0  0  0  0
 16 10  2  0  0  0  0
 17 16  1  0  0  0  0
 18 16  1  0  0  0  0
 18  2  2  0  0  0  0
 19 18  1  0  0  0  0
 20 21  1  0  0  0  0
 20  8  2  0  0  0  0
 22 20  1  0  0  0  0
 23 22  1  0  0  0  0
 24 25  1  0  0  0  0
 25 26  1  0  0  0  0
 25 39  2  0  0  0  0
 27 24  2  0  0  0  0
 27 37  1  0  0  0  0
 28 27  1  0  0  0  0
 29 28  1  0  0  0  0
 29 30  1  0  0  0  0
 31 33  1  0  0  0  0
 32 31  1  0  0  0  0
 33 34  1  0  0  0  0
 33 28  2  0  0  0  0
 35 39  1  0  0  0  0
 35 36  1  0  0  0  0
 37 35  2  0  0  0  0
 38 37  1  0  0  0  0
 39 40  1  0  0  0  0
 41 29  2  0  0  0  0
 42 41  1  0  0  0  0
 43 31  2  0  0  0  0
 43 41  1  0  0  0  0
 44 43  1  0  0  0  0
M  END
