2
q = -1.0, confidence = 0.11

 42 45  0  0  0  0  0  0  0  0999 V2000
    2.1728    1.0546    2.4831 S   0  0  0  0  0  0  0  0  0  0  0  0
    0.8898   -0.0480   -0.1418 P   0  0  0  0  0  0  0  0  0  0  0  0
   -3.5730    1.1121    0.6786 N   0  0  0  0  0  0  0  0  0  0  0  0
   -1.5332    1.6510    1.2601 N   0  0  0  0  0  0  0  0  0  0  0  0
    2.4402   -0.9952    0.0267 C   0  0  0  0  0  0  0  0  0  0  0  0
    2.3802   -2.2713    0.6258 C   0  0  0  0  0  0  0  0  0  0  0  0
    1.4094   -2.6906    0.9350 H   0  0  0  0  0  0  0  0  0  0  0  0
    3.5599   -3.0036    0.8136 C   0  0  0  0  0  0  0  0  0  0  0  0
    3.5154   -3.9999    1.2777 H   0  0  0  0  0  0  0  0  0  0  0  0
    4.7920   -2.4721    0.3973 C   0  0  0  0  0  0  0  0  0  0  0  0
    5.7153   -3.0535    0.5385 H   0  0  0  0  0  0  0  0  0  0  0  0
    4.8481   -1.2075   -0.2105 C   0  0  0  0  0  0  0  0  0  0  0  0
    5.8122   -0.7984   -0.5470 H   0  0  0  0  0  0  0  0  0  0  0  0
    3.6744   -0.4634   -0.4000 C   0  0  0  0  0  0  0  0  0  0  0  0
    3.7190    0.5211   -0.8895 H   0  0  0  0  0  0  0  0  0  0  0  0
    1.1386    1.2124   -1.4437 C   0  0  0  0  0  0  0  0  0  0  0  0
    0.7094    0.9111   -2.7531 C   0  0  0  0  0  0  0  0  0  0  0  0
    0.2159   -0.0514   -2.9624 H   0  0  0  0  0  0  0  0  0  0  0  0
    0.9029    1.8448   -3.7813 C   0  0  0  0  0  0  0  0  0  0  0  0
    0.5695    1.6075   -4.8024 H   0  0  0  0  0  0  0  0  0  0  0  0
    1.5136    3.0796   -3.5069 C   0  0  0  0  0  0  0  0  0  0  0  0
    1.6593    3.8120   -4.3150 H   0  0  0  0  0  0  0  0  0  0  0  0
    1.9369    3.3831   -2.2021 C   0  0  0  0  0  0  0  0  0  0  0  0
    2.4169    4.3496   -1.9878 H   0  0  0  0  0  0  0  0  0  0  0  0
    1.7536    2.4523   -1.1680 C   0  0  0  0  0  0  0  0  0  0  0  0
    2.0888    2.6919   -0.1470 H   0  0  0  0  0  0  0  0  0  0  0  0
    1.2798    2.0181    3.6052 C   0  0  0  0  0  0  0  0  0  0  0  0
    1.7624    2.3708    4.5256 H   0  0  0  0  0  0  0  0  0  0  0  0
   -0.0191    2.2426    3.1878 C   0  0  0  0  0  0  0  0  0  0  0  0
   -0.7587    2.8324    3.7453 H   0  0  0  0  0  0  0  0  0  0  0  0
   -0.2713    1.6113    1.9359 C   0  0  0  0  0  0  0  0  0  0  0  0
    0.8197    0.9178    1.4073 C   0  0  0  0  0  0  0  0  0  0  0  0
   -1.8148    2.3413    0.0885 C   0  0  0  0  0  0  0  0  0  0  0  0
   -1.0796    3.0027   -0.3799 H   0  0  0  0  0  0  0  0  0  0  0  0
   -3.0972    1.9997   -0.2725 C   0  0  0  0  0  0  0  0  0  0  0  0
   -3.7067    2.3145   -1.1250 H   0  0  0  0  0  0  0  0  0  0  0  0
   -2.6074    0.8922    1.5858 C   0  0  0  0  0  3  0  0  0  0  0  0
   -2.6651    0.2097    2.4398 H   0  0  0  0  0  0  0  0  0  0  0  0
   -4.8495    0.3958    0.6168 C   0  0  0  0  0  0  0  0  0  0  0  0
   -5.2144    0.2074    1.6421 H   0  0  0  0  0  0  0  0  0  0  0  0
   -4.6781   -0.5689    0.0913 H   0  0  0  0  0  0  0  0  0  0  0  0
   -5.5831    1.0177    0.0749 H   0  0  0  0  0  0  0  0  0  0  0  0
  1 27  1  0  0  0  0
  2  5  1  0  0  0  0
  2 32  1  0  0  0  0
  3 37  1  0  0  0  0
  4 37  1  0  0  0  0
  4 31  1  0  0  0  0
  5  6  1  0  0  0  0
  6  8  2  0  0  0  0
  6  7  1  0  0  0  0
  8  9  1  0  0  0  0
 10 11  1  0  0  0  0
 10  8  1  0  0  0  0
 12 10  2  0  0  0  0
 13 12  1  0  0  0  0
 14 12  1  0  0  0  0
 14  5  2  0  0  0  0
 15 14  1  0  0  0  0
 16 25  1  0  0  0  0
 16  2  1  0  0  0  0
 17 16  2  0  0  0  0
 18 17  1  0  0  0  0
 19 21  2  0  0  0  0
 19 17  1  0  0  0  0
 20 19  1  0  0  0  0
 21 23  1  0  0  0  0
 22 21  1  0  0  0  0
 23 24  1  0  0  0  0
 23 25  2  0  0  0  0
 25 26  1  0  0  0  0
 27 28  1  0  0  0  0
 29 27  2  0  0  0  0
 29 30  1  0  0  0  0
 31 29  1  0  0  0  0
 32 31  2  0  0  0  0
 32  1  1  0  0  0  0
 33  4  1  0  0  0  0
 34 33  1  0  0  0  0
 35 33  2  0  0  0  0
 35  3  1  0  0  0  0
 36 35  1  0  0  0  0
 37 38  1  0  0  0  0
 39  3  1  0  0  0  0
 39 40  1  0  0  0  0
 41 39  1  0  0  0  0
 42 39  1  0  0  0  0
M  END
