1
q = 0.0, confidence = 0.97

 35 37  0  0  0  0  0  0  0  0999 V2000
    1.3953    0.4503   -0.2946 P   0  0  0  0  0  2  0  0  0  0  0  0
    3.0388    2.6964   -2.1376 C   0  0  0  0  0  0  0  0  0  0  0  0
    2.2991    2.0987   -2.6890 H   0  0  0  0  0  0  0  0  0  0  0  0
   -0.2689    4.2298   -0.3743 C   0  0  0  0  0  0  0  0  0  0  0  0
   -0.1299    5.1798    0.1638 H   0  0  0  0  0  0  0  0  0  0  0  0
    5.8900   -1.8091    1.3670 C   0  0  0  0  0  0  0  0  0  0  0  0
    6.6070   -2.5383    1.7733 H   0  0  0  0  0  0  0  0  0  0  0  0
    6.1460   -1.1789    0.1367 C   0  0  0  0  0  0  0  0  0  0  0  0
    7.0621   -1.4182   -0.4242 H   0  0  0  0  0  0  0  0  0  0  0  0
    3.0387    0.9580   -0.2952 C   0  0  0  0  0  3  0  0  0  0  0  0
    3.5055    3.9025   -2.6723 C   0  0  0  0  0  0  0  0  0  0  0  0
    3.1212    4.2512   -3.6429 H   0  0  0  0  0  0  0  0  0  0  0  0
    0.3697    1.9011   -0.7364 C   0  0  0  0  0  0  0  0  0  0  0  0
    4.4675    4.6589   -1.9819 C   0  0  0  0  0  0  0  0  0  0  0  0
    4.8329    5.6074   -2.4038 H   0  0  0  0  0  0  0  0  0  0  0  0
    3.8067   -0.5754    1.5550 C   0  0  0  0  0  0  0  0  0  0  0  0
    2.9050   -0.3090    2.1234 H   0  0  0  0  0  0  0  0  0  0  0  0
    5.2332   -0.2575   -0.3884 C   0  0  0  0  0  0  0  0  0  0  0  0
    5.4243    0.2209   -1.3606 H   0  0  0  0  0  0  0  0  0  0  0  0
    4.7212   -1.4973    2.0791 C   0  0  0  0  0  0  0  0  0  0  0  0
    4.5157   -1.9723    3.0501 H   0  0  0  0  0  0  0  0  0  0  0  0
    4.5111    2.9795   -0.2233 C   0  0  0  0  0  0  0  0  0  0  0  0
    4.9055    2.6123    0.7361 H   0  0  0  0  0  0  0  0  0  0  0  0
    0.5331    3.1267   -0.0518 C   0  0  0  0  0  0  0  0  0  0  0  0
    1.3034    3.2161    0.7287 H   0  0  0  0  0  0  0  0  0  0  0  0
    4.9714    4.1894   -0.7575 C   0  0  0  0  0  0  0  0  0  0  0  0
    5.7312    4.7713   -0.2138 H   0  0  0  0  0  0  0  0  0  0  0  0
    4.0344    0.0433    0.3040 C   0  0  0  0  0  0  0  0  0  0  0  0
   -0.6337    1.7925   -1.7238 C   0  0  0  0  0  0  0  0  0  0  0  0
   -0.7936    0.8395   -2.2478 H   0  0  0  0  0  0  0  0  0  0  0  0
   -1.4264    2.9030   -2.0484 C   0  0  0  0  0  0  0  0  0  0  0  0
   -2.1968    2.8098   -2.8284 H   0  0  0  0  0  0  0  0  0  0  0  0
    3.5214    2.2191   -0.8949 C   0  0  0  0  0  0  0  0  0  0  0  0
   -1.2443    4.1237   -1.3799 C   0  0  0  0  0  0  0  0  0  0  0  0
   -1.8743    4.9898   -1.6321 H   0  0  0  0  0  0  0  0  0  0  0  0
  2 33  1  0  0  0  0
  3  2  1  0  0  0  0
  4 24  1  0  0  0  0
  4  5  1  0  0  0  0
  6  7  1  0  0  0  0
  6 20  1  0  0  0  0
  8  6  2  0  0  0  0
  9  8  1  0  0  0  0
 10  1  1  0  0  0  0
 10 28  1  0  0  0  0
 11  2  2  0  0  0  0
 11 14  1  0  0  0  0
 12 11  1  0  0  0  0
 13  1  1  0  0  0  0
 13 24  2  0  0  0  0
 14 26  2  0  0  0  0
 15 14  1  0  0  0  0
 16 20  2  0  0  0  0
 16 17  1  0  0  0  0
 18  8  1  0  0  0  0
 18 28  2  0  0  0  0
 19 18  1  0  0  0  0
 20 21  1  0  0  0  0
 22 23  1  0  0  0  0
 24 25  1  0  0  0  0
 26 22  1  0  0  0  0
 26 27  1  0  0  0  0
 28 16  1  0  0  0  0
 29 13  1  0  0  0  0
 30 29  1  0  0  0  0
 31 29  2  0  0  0  0
 31 34  1  0  0  0  0
 32 31  1  0  0  0  0
 33 10  1  0  0  0  0
 33 22  2  0  0  0  0
 34  4  2  0  0  0  0
 35 34  1  0  0  0  0
M  END
