1
q = 0.0, confidence = 1.0

 64 67  0  0  0  0  0  0  0  0999 V2000
   -0.2613    0.4309   -0.0720 P   0  0  0  0  0  0  0  0  0  0  0  0
    0.5968   -0.4613   -1.4714 C   0  0  0  0  0  0  0  0  0  0  0  0
    1.6875   -0.2956   -1.3516 H   0  0  0  0  0  0  0  0  0  0  0  0
    0.2977   -1.9709   -1.3782 C   0  0  0  0  0  0  0  0  0  0  0  0
    0.5933   -2.3595   -0.3857 H   0  0  0  0  0  0  0  0  0  0  0  0
   -0.8062   -2.1038   -1.4431 H   0  0  0  0  0  0  0  0  0  0  0  0
    0.9779   -2.7521   -2.5081 C   0  0  0  0  0  0  0  0  0  0  0  0
    0.7282   -3.8310   -2.4198 H   0  0  0  0  0  0  0  0  0  0  0  0
    2.0817   -2.6723   -2.3958 H   0  0  0  0  0  0  0  0  0  0  0  0
    0.5601   -2.2115   -3.8800 C   0  0  0  0  0  0  0  0  0  0  0  0
   -0.5273   -2.3943   -4.0298 H   0  0  0  0  0  0  0  0  0  0  0  0
    1.0866   -2.7549   -4.6925 H   0  0  0  0  0  0  0  0  0  0  0  0
    0.8334   -0.7064   -3.9785 C   0  0  0  0  0  0  0  0  0  0  0  0
    1.9326   -0.5323   -3.9315 H   0  0  0  0  0  0  0  0  0  0  0  0
    0.4940   -0.3112   -4.9588 H   0  0  0  0  0  0  0  0  0  0  0  0
    0.1557    0.0806   -2.8465 C   0  0  0  0  0  0  0  0  0  0  0  0
   -0.9506    0.0095   -2.9331 H   0  0  0  0  0  0  0  0  0  0  0  0
    0.4085    1.1547   -2.9477 H   0  0  0  0  0  0  0  0  0  0  0  0
   -0.2555    2.2393   -0.5317 C   0  0  0  0  0  0  0  0  0  0  0  0
   -0.8380    2.2286   -1.4794 H   0  0  0  0  0  0  0  0  0  0  0  0
    1.1520    2.8015   -0.7741 C   0  0  0  0  0  0  0  0  0  0  0  0
    1.7298    2.7569    0.1729 H   0  0  0  0  0  0  0  0  0  0  0  0
    1.7109    2.1761   -1.5006 H   0  0  0  0  0  0  0  0  0  0  0  0
    1.0795    4.2515   -1.2765 C   0  0  0  0  0  0  0  0  0  0  0  0
    0.6001    4.2642   -2.2812 H   0  0  0  0  0  0  0  0  0  0  0  0
    2.1059    4.6539   -1.4151 H   0  0  0  0  0  0  0  0  0  0  0  0
    0.2748    5.1421   -0.3220 C   0  0  0  0  0  0  0  0  0  0  0  0
    0.1986    6.1734   -0.7262 H   0  0  0  0  0  0  0  0  0  0  0  0
    0.8210    5.2229    0.6451 H   0  0  0  0  0  0  0  0  0  0  0  0
   -1.1199    4.5596   -0.0613 C   0  0  0  0  0  0  0  0  0  0  0  0
   -1.6752    5.1897    0.6645 H   0  0  0  0  0  0  0  0  0  0  0  0
   -1.7123    4.5695   -1.0031 H   0  0  0  0  0  0  0  0  0  0  0  0
   -1.0392    3.1171    0.4576 C   0  0  0  0  0  0  0  0  0  0  0  0
   -2.0557    2.6988    0.6027 H   0  0  0  0  0  0  0  0  0  0  0  0
   -0.5286    3.1141    1.4449 H   0  0  0  0  0  0  0  0  0  0  0  0
    0.6879    0.3826    1.5186 C   0  0  0  0  0  0  0  0  0  0  0  0
    2.0567    0.0786    1.7429 C   0  0  0  0  0  0  0  0  0  0  0  0
    2.5913    0.2757    3.0350 C   0  0  0  0  0  0  0  0  0  0  0  0
    3.6518    0.0308    3.1963 H   0  0  0  0  0  0  0  0  0  0  0  0
    1.8105    0.7460    4.0962 C   0  0  0  0  0  0  0  0  0  0  0  0
    2.2603    0.8876    5.0906 H   0  0  0  0  0  0  0  0  0  0  0  0
    0.4486    1.0033    3.8870 C   0  0  0  0  0  0  0  0  0  0  0  0
   -0.1934    1.3410    4.7142 H   0  0  0  0  0  0  0  0  0  0  0  0
   -0.0997    0.8163    2.6134 C   0  0  0  0  0  0  0  0  0  0  0  0
   -1.1759    0.9909    2.4534 H   0  0  0  0  0  0  0  0  0  0  0  0
    2.9714   -0.5460    0.7410 C   0  0  0  0  0  0  0  0  0  0  0  0
    3.9116    0.2120    0.0054 C   0  0  0  0  0  0  0  0  0  0  0  0
    4.7861   -0.4163   -0.9073 C   0  0  0  0  0  0  0  0  0  0  0  0
    5.4999    0.1684   -1.5006 H   0  0  0  0  0  0  0  0  0  0  0  0
    4.7483   -1.8115   -1.0354 C   0  0  0  0  0  0  0  0  0  0  0  0
    5.4333   -2.3038   -1.7422 H   0  0  0  0  0  0  0  0  0  0  0  0
    3.8691   -2.5953   -0.2764 C   0  0  0  0  0  0  0  0  0  0  0  0
    3.8720   -3.6870   -0.3842 H   0  0  0  0  0  0  0  0  0  0  0  0
    2.9844   -1.9569    0.6171 C   0  0  0  0  0  0  0  0  0  0  0  0
    3.8973    1.5529    0.2441 O   0  0  0  0  0  0  0  0  0  0  0  0
    4.7464    2.3897   -0.5181 C   0  0  0  0  0  0  0  0  0  0  0  0
    5.8207    2.1554   -0.3485 H   0  0  0  0  0  0  0  0  0  0  0  0
    4.5453    3.4238   -0.1820 H   0  0  0  0  0  0  0  0  0  0  0  0
    4.5298    2.3162   -1.6072 H   0  0  0  0  0  0  0  0  0  0  0  0
    2.0891   -2.6106    1.4067 O   0  0  0  0  0  0  0  0  0  0  0  0
    2.0105   -4.0236    1.3395 C   0  0  0  0  0  0  0  0  0  0  0  0
    1.7546   -4.3732    0.3144 H   0  0  0  0  0  0  0  0  0  0  0  0
    1.1976   -4.3139    2.0296 H   0  0  0  0  0  0  0  0  0  0  0  0
    2.9618   -4.5040    1.6586 H   0  0  0  0  0  0  0  0  0  0  0  0
  1 36  1  0  0  0  0
  2  4  1  0  0  0  0
  2  3  1  0  0  0  0
  2  1  1  0  0  0  0
  4  5  1  0  0  0  0
  6  4  1  0  0  0  0
  7  8  1  0  0  0  0
  7  9  1  0  0  0  0
  7  4  1  0  0  0  0
 10  7  1  0  0  0  0
 11 10  1  0  0  0  0
 12 10  1  0  0  0  0
 13 14  1  0  0  0  0
 13 10  1  0  0  0  0
 13 16  1  0  0  0  0
 15 13  1  0  0  0  0
 16  2  1  0  0  0  0
 17 16  1  0  0  0  0
 18 16  1  0  0  0  0
 19  1  1  0  0  0  0
 19 33  1  0  0  0  0
 20 19  1  0  0  0  0
 21 19  1  0  0  0  0
 21 22  1  0  0  0  0
 23 21  1  0  0  0  0
 24 21  1  0  0  0  0
 24 27  1  0  0  0  0
 25 24  1  0  0  0  0
 26 24  1  0  0  0  0
 27 30  1  0  0  0  0
 27 29  1  0  0  0  0
 28 27  1  0  0  0  0
 30 33  1  0  0  0  0
 30 31  1  0  0  0  0
 32 30  1  0  0  0  0
 33 34  1  0  0  0  0
 33 35  1  0  0  0  0
 36 37  2  0  0  0  0
 36 44  1  0  0  0  0
 37 38  1  0  0  0  0
 38 39  1  0  0  0  0
 38 40  2  0  0  0  0
 40 41  1  0  0  0  0
 42 40  1  0  0  0  0
 42 43  1  0  0  0  0
 44 42  2  0  0  0  0
 45 44  1  0  0  0  0
 46 37  1  0  0  0  0
 47 55  1  0  0  0  0
 47 46  2  0  0  0  0
 48 47  1  0  0  0  0
 49 48  1  0  0  0  0
 50 48  2  0  0  0  0
 50 52  1  0  0  0  0
 51 50  1  0  0  0  0
 52 54  2  0  0  0  0
 53 52  1  0  0  0  0
 54 46  1  0  0  0  0
 54 60  1  0  0  0  0
 56 57  1  0  0  0  0
 56 58  1  0  0  0  0
 56 55  1  0  0  0  0
 59 56  1  0  0  0  0
 61 60  1  0  0  0  0
 61 64  1  0  0  0  0
 61 63  1  0  0  0  0
 62 61  1  0  0  0  0
M  END
