1
q = 0.0, confidence = 0.998

 33 34  0  0  1  0  0  0  0  0999 V2000
    0.4042    1.1468    0.0959 P   0  0  0  0  0  2  0  0  0  0  0  0
    3.5989    0.9558    0.2572 Si  0  0  0  0  0  0  0  0  0  0  0  0
    1.9714    1.9196   -0.0504 C   0  0  2  0  0  3  0  0  0  0  0  0
   -0.3646    3.7711   -0.3082 C   0  0  0  0  0  0  0  0  0  0  0  0
   -1.1569    4.5347   -0.3855 H   0  0  0  0  0  0  0  0  0  0  0  0
    2.0563    3.3030   -0.3070 C   0  0  0  0  0  0  0  0  0  0  0  0
    3.0616    3.7468   -0.3968 H   0  0  0  0  0  0  0  0  0  0  0  0
   -0.7741    2.4542   -0.0315 C   0  0  0  0  0  0  0  0  0  0  0  0
    3.9069   -0.3657   -1.0568 C   0  0  0  0  0  0  0  0  0  0  0  0
    3.1891   -1.2038   -1.0157 H   0  0  0  0  0  0  0  0  0  0  0  0
    4.9248   -0.7859   -0.9193 H   0  0  0  0  0  0  0  0  0  0  0  0
    3.8527    0.0789   -2.0711 H   0  0  0  0  0  0  0  0  0  0  0  0
    0.9676    4.1769   -0.4549 C   0  0  0  0  0  0  0  0  0  0  0  0
    1.1718    5.2378   -0.6649 H   0  0  0  0  0  0  0  0  0  0  0  0
   -2.6833    1.4831    1.2901 C   0  0  0  0  0  0  0  0  0  0  0  0
   -1.9668    1.2002    2.0742 H   0  0  0  0  0  0  0  0  0  0  0  0
    3.5238    0.2702    2.0189 C   0  0  0  0  0  0  0  0  0  0  0  0
    3.6790    1.0962    2.7429 H   0  0  0  0  0  0  0  0  0  0  0  0
    4.3080   -0.4952    2.1884 H   0  0  0  0  0  0  0  0  0  0  0  0
    2.5437   -0.1930    2.2424 H   0  0  0  0  0  0  0  0  0  0  0  0
   -4.9651    1.5851    0.4610 C   0  0  0  0  0  0  0  0  0  0  0  0
   -6.0338    1.3508    0.5784 H   0  0  0  0  0  0  0  0  0  0  0  0
   -2.2171    2.1611    0.1420 C   0  0  0  0  0  0  0  0  0  0  0  0
   -3.1547    2.5661   -0.8342 C   0  0  0  0  0  0  0  0  0  0  0  0
   -2.8011    3.0811   -1.7404 H   0  0  0  0  0  0  0  0  0  0  0  0
   -4.5165    2.2771   -0.6756 C   0  0  0  0  0  0  0  0  0  0  0  0
   -5.2324    2.5818   -1.4538 H   0  0  0  0  0  0  0  0  0  0  0  0
   -4.0453    1.1952    1.4471 C   0  0  0  0  0  0  0  0  0  0  0  0
   -4.3871    0.6622    2.3470 H   0  0  0  0  0  0  0  0  0  0  0  0
    5.0345    2.1884    0.1568 C   0  0  0  0  0  0  0  0  0  0  0  0
    5.1412    2.6303   -0.8550 H   0  0  0  0  0  0  0  0  0  0  0  0
    5.9793    1.6522    0.3842 H   0  0  0  0  0  0  0  0  0  0  0  0
    4.9355    3.0128    0.8918 H   0  0  0  0  0  0  0  0  0  0  0  0
  2 17  1  0  0  0  0
  3  1  1  0  0  0  0
  3  2  1  1  0  0  0
  4  8  2  0  0  0  0
  5  4  1  0  0  0  0
  6  3  1  0  0  0  0
  7  6  1  0  0  0  0
  8  1  1  0  0  0  0
  8 23  1  0  0  0  0
  9 10  1  0  0  0  0
  9 11  1  0  0  0  0
  9  2  1  0  0  0  0
 12  9  1  0  0  0  0
 13  4  1  0  0  0  0
 13  6  2  0  0  0  0
 14 13  1  0  0  0  0
 15 28  1  0  0  0  0
 15 16  1  0  0  0  0
 17 19  1  0  0  0  0
 17 20  1  0  0  0  0
 17 18  1  0  0  0  0
 21 22  1  0  0  0  0
 21 28  2  0  0  0  0
 23 15  2  0  0  0  0
 24 26  2  0  0  0  0
 24 23  1  0  0  0  0
 25 24  1  0  0  0  0
 26 21  1  0  0  0  0
 27 26  1  0  0  0  0
 28 29  1  0  0  0  0
 30  2  1  0  0  0  0
 30 32  1  0  0  0  0
 30 33  1  0  0  0  0
 31 30  1  0  0  0  0
M  END
