1
q = 0, confidence = 1.0

 11 10  0  0  0  0  0  0  0  0999 V2000
   -2.3623   -0.3567   -0.0002 P   0  0  0  0  0  0  0  0  0  0  0  0
   -3.2070    0.9987   -0.0006 O   0  0  0  0  0  0  0  0  0  0  0  0
   -2.9175   -1.3280   -1.4468 C   0  0  0  0  0  0  0  0  0  0  0  0
   -2.9177   -1.3276    1.4466 C   0  0  0  0  0  0  0  0  0  0  0  0
   -4.0153   -1.4721   -1.3990 H   0  0  0  0  0  0  0  0  0  0  0  0
   -2.3877   -2.3002   -1.4456 H   0  0  0  0  0  0  0  0  0  0  0  0
   -2.6612   -0.7679   -2.3662 H   0  0  0  0  0  0  0  0  0  0  0  0
   -2.6622   -0.7668    2.3658 H   0  0  0  0  0  0  0  0  0  0  0  0
   -2.3874   -2.2995    1.4463 H   0  0  0  0  0  0  0  0  0  0  0  0
   -4.0155   -1.4723    1.3984 H   0  0  0  0  0  0  0  0  0  0  0  0
   -2.5040    1.8619   -0.0000 H   0  0  0  0  0  0  0  0  0  0  0  0
  1  4  1  0  0  0  0
  2  1  1  0  0  0  0
  2 11  1  0  0  0  0
  3  6  1  0  0  0  0
  3  5  1  0  0  0  0
  3  1  1  0  0  0  0
  4  8  1  0  0  0  0
  7  3  1  0  0  0  0
  9  4  1  0  0  0  0
 10  4  1  0  0  0  0
M  END
