46
q = 0.0, confidence = 1.0

 46 48  0  0  0  0  0  0  0  0999 V2000
   -0.6983    2.2733   -0.2684 C   0  0  0  0  0  0  0  0  0  0  0  0
   -0.0439    3.4077    0.2161 C   0  0  0  0  0  0  0  0  0  0  0  0
    0.6659    3.3287    1.0544 H   0  0  0  0  0  0  0  0  0  0  0  0
   -0.2989    4.6512   -0.3915 C   0  0  0  0  0  0  0  0  0  0  0  0
    0.2047    5.5568   -0.0229 H   0  0  0  0  0  0  0  0  0  0  0  0
   -1.1903    4.7284   -1.4771 C   0  0  0  0  0  0  0  0  0  0  0  0
   -1.3784    5.7020   -1.9554 H   0  0  0  0  0  0  0  0  0  0  0  0
   -1.8428    3.5859   -1.9662 C   0  0  0  0  0  0  0  0  0  0  0  0
   -2.5353    3.6634   -2.8186 H   0  0  0  0  0  0  0  0  0  0  0  0
   -1.6108    2.3323   -1.3597 C   0  0  0  0  0  0  0  0  0  0  0  0
   -2.2130    1.0551   -1.7064 C   0  0  0  0  0  0  0  0  0  0  0  0
   -2.9368    0.9938   -2.5274 H   0  0  0  0  0  0  0  0  0  0  0  0
   -1.8200   -0.0284   -0.9360 C   0  0  0  0  0  0  0  0  0  0  0  0
   -1.8064   -2.2942    0.0522 C   0  0  0  0  0  0  0  0  0  0  0  0
   -0.9715   -1.8012    0.5894 H   0  0  0  0  0  0  0  0  0  0  0  0
   -1.2378   -3.6012   -0.5124 C   0  0  0  0  0  0  0  0  0  0  0  0
   -2.0204   -4.2364   -0.9752 H   0  0  0  0  0  0  0  0  0  0  0  0
   -0.7832   -4.1871    0.3099 H   0  0  0  0  0  0  0  0  0  0  0  0
   -0.4547   -3.4072   -1.2684 H   0  0  0  0  0  0  0  0  0  0  0  0
   -2.9260   -2.5459    1.0704 C   0  0  0  0  0  0  0  0  0  0  0  0
   -3.2915   -1.5950    1.5041 H   0  0  0  0  0  0  0  0  0  0  0  0
   -2.5504   -3.1790    1.8990 H   0  0  0  0  0  0  0  0  0  0  0  0
   -3.7833   -3.0766    0.6068 H   0  0  0  0  0  0  0  0  0  0  0  0
   -3.2051   -1.8081   -1.9863 C   0  0  0  0  0  0  0  0  0  0  0  0
   -3.3225   -2.8871   -1.7639 H   0  0  0  0  0  0  0  0  0  0  0  0
   -4.5952   -1.1798   -1.7956 C   0  0  0  0  0  0  0  0  0  0  0  0
   -4.9470   -1.3124   -0.7540 H   0  0  0  0  0  0  0  0  0  0  0  0
   -5.3228   -1.6738   -2.4702 H   0  0  0  0  0  0  0  0  0  0  0  0
   -4.6116   -0.0970   -2.0194 H   0  0  0  0  0  0  0  0  0  0  0  0
   -2.6805   -1.7203   -3.4265 C   0  0  0  0  0  0  0  0  0  0  0  0
   -2.5471   -0.6758   -3.7660 H   0  0  0  0  0  0  0  0  0  0  0  0
   -3.3939   -2.2118   -4.1177 H   0  0  0  0  0  0  0  0  0  0  0  0
   -1.6993   -2.2248   -3.5144 H   0  0  0  0  0  0  0  0  0  0  0  0
   -1.3103    0.4737    1.9102 C   0  0  0  0  0  0  0  0  0  0  0  0
   -2.5638    1.0982    2.0818 C   0  0  0  0  0  0  0  0  0  0  0  0
   -3.0280    1.6297    1.2363 H   0  0  0  0  0  0  0  0  0  0  0  0
   -3.2113    1.0358    3.3225 C   0  0  0  0  0  0  0  0  0  0  0  0
   -4.1890    1.5239    3.4535 H   0  0  0  0  0  0  0  0  0  0  0  0
   -2.6134    0.3543    4.3978 C   0  0  0  0  0  0  0  0  0  0  0  0
   -3.1246    0.3069    5.3713 H   0  0  0  0  0  0  0  0  0  0  0  0
   -1.3643   -0.2609    4.2302 C   0  0  0  0  0  0  0  0  0  0  0  0
   -0.8902   -0.7908    5.0699 H   0  0  0  0  0  0  0  0  0  0  0  0
   -0.7111   -0.2010    2.9881 C   0  0  0  0  0  0  0  0  0  0  0  0
    0.2670   -0.6851    2.8533 H   0  0  0  0  0  0  0  0  0  0  0  0
   -2.2088   -1.3384   -0.9998 N   0  0  0  0  0  0  0  0  0  0  0  0
   -0.4938    0.5420    0.2572 P   0  0  2  0  0  0  0  0  0  0  0  0
  1  2  1  0  0  0  0
  1 46  1  0  0  0  0
  2  3  1  0  0  0  0
  4  5  1  0  0  0  0
  4  2  2  0  0  0  0
  6  4  1  0  0  0  0
  7  6  1  0  0  0  0
  8  6  2  0  0  0  0
  8 10  1  0  0  0  0
  9  8  1  0  0  0  0
 10  1  2  0  0  0  0
 11 10  1  0  0  0  0
 11 13  2  0  0  0  0
 12 11  1  0  0  0  0
 13 46  1  0  0  0  0
 14 15  1  0  0  0  0
 14 20  1  0  0  0  0
 16 14  1  0  0  0  0
 16 18  1  0  0  0  0
 17 16  1  0  0  0  0
 19 16  1  0  0  0  0
 20 21  1  0  0  0  0
 20 22  1  0  0  0  0
 23 20  1  0  0  0  0
 24 26  1  0  0  0  0
 24 25  1  0  0  0  0
 24 45  1  0  0  0  0
 26 27  1  0  0  0  0
 28 26  1  0  0  0  0
 29 26  1  0  0  0  0
 30 24  1  0  0  0  0
 31 30  1  0  0  0  0
 32 30  1  0  0  0  0
 33 30  1  0  0  0  0
 34 35  2  0  0  0  0
 34 43  1  0  0  0  0
 35 37  1  0  0  0  0
 36 35  1  0  0  0  0
 37 38  1  0  0  0  0
 37 39  2  0  0  0  0
 39 40  1  0  0  0  0
 41 39  1  0  0  0  0
 41 42  1  0  0  0  0
 43 41  2  0  0  0  0
 44 43  1  0  0  0  0
 45 13  1  0  0  0  0
 45 14  1  0  0  0  0
 46 34  1  1  0  0  0
M  END
