2
q = 0.0, confidence = 1.0

 38 40  0  0  0  0  0  0  0  0999 V2000
   -6.6544   -2.1061    1.2447 Cl  0  0  0  0  0  0  0  0  0  0  0  0
   -0.3718    1.1378   -0.5603 P   0  0  0  0  0  0  0  0  0  0  0  0
   -2.2395   -0.1926   -2.1192 N   0  0  0  0  0  0  0  0  0  0  0  0
   -4.0384    0.2125   -0.6939 N   0  0  0  0  0  0  0  0  0  0  0  0
   -1.3692    0.7434    0.9353 C   0  0  0  0  0  0  0  0  0  0  0  0
   -1.5076   -0.6217    1.2604 C   0  0  0  0  0  0  0  0  0  0  0  0
   -2.3730   -1.0172    2.2888 C   0  0  0  0  0  0  0  0  0  0  0  0
   -3.0814   -0.0519    3.0218 C   0  0  0  0  0  0  0  0  0  0  0  0
   -2.9141    1.3104    2.7278 C   0  0  0  0  0  0  0  0  0  0  0  0
   -2.0669    1.7102    1.6836 C   0  0  0  0  0  0  0  0  0  0  0  0
    0.0989    2.9108   -0.4827 C   0  0  0  0  0  0  0  0  0  0  0  0
    1.4619    3.2562   -0.3669 C   0  0  0  0  0  0  0  0  0  0  0  0
    1.8507    4.6033   -0.3416 C   0  0  0  0  0  0  0  0  0  0  0  0
    0.8867    5.6187   -0.4410 C   0  0  0  0  0  0  0  0  0  0  0  0
   -0.4703    5.2838   -0.5727 C   0  0  0  0  0  0  0  0  0  0  0  0
   -0.8654    3.9379   -0.5967 C   0  0  0  0  0  0  0  0  0  0  0  0
   -1.6984    1.1150   -1.9161 C   0  0  0  0  0  0  0  0  0  0  0  0
   -3.3009   -0.6773   -1.3911 C   0  0  0  0  0  0  0  0  0  0  0  0
   -5.0405   -0.2319    0.0695 C   0  0  0  0  0  0  0  0  0  0  0  0
   -5.3744   -1.5906    0.1745 C   0  0  0  0  0  0  0  0  0  0  0  0
   -4.6451   -2.5237   -0.5870 C   0  0  0  0  0  0  0  0  0  0  0  0
   -3.6002   -2.0685   -1.3866 C   0  0  0  0  0  0  0  0  0  0  0  0
   -0.9290   -1.3708    0.6970 H   0  0  0  0  0  0  0  0  0  0  0  0
   -2.4943   -2.0859    2.5197 H   0  0  0  0  0  0  0  0  0  0  0  0
   -3.7646   -0.3638    3.8261 H   0  0  0  0  0  0  0  0  0  0  0  0
   -3.4547    2.0714    3.3110 H   0  0  0  0  0  0  0  0  0  0  0  0
   -1.9498    2.7797    1.4566 H   0  0  0  0  0  0  0  0  0  0  0  0
    2.2120    2.4534   -0.2978 H   0  0  0  0  0  0  0  0  0  0  0  0
    2.9167    4.8598   -0.2472 H   0  0  0  0  0  0  0  0  0  0  0  0
    1.1936    6.6755   -0.4236 H   0  0  0  0  0  0  0  0  0  0  0  0
   -1.2295    6.0755   -0.6621 H   0  0  0  0  0  0  0  0  0  0  0  0
   -1.9320    3.6947   -0.7117 H   0  0  0  0  0  0  0  0  0  0  0  0
   -2.5104    1.7991   -1.6036 H   0  0  0  0  0  0  0  0  0  0  0  0
   -1.2009    1.4803   -2.8352 H   0  0  0  0  0  0  0  0  0  0  0  0
   -1.5809   -0.8489   -2.5641 H   0  0  0  0  0  0  0  0  0  0  0  0
   -5.6111    0.5189    0.6433 H   0  0  0  0  0  0  0  0  0  0  0  0
   -4.8959   -3.5931   -0.5367 H   0  0  0  0  0  0  0  0  0  0  0  0
   -2.9992   -2.7686   -1.9860 H   0  0  0  0  0  0  0  0  0  0  0  0
  2 11  1  0  0  0  0
  2  5  1  0  0  0  0
  3 17  1  0  0  0  0
  3 18  1  0  0  0  0
  4 19  1  0  0  0  0
  5  6  2  0  0  0  0
  5 10  1  0  0  0  0
  6  7  1  0  0  0  0
  7 24  1  0  0  0  0
  7  8  2  0  0  0  0
  8 25  1  0  0  0  0
  9  8  1  0  0  0  0
  9 26  1  0  0  0  0
 10  9  2  0  0  0  0
 11 12  1  0  0  0  0
 12 13  2  0  0  0  0
 12 28  1  0  0  0  0
 13 29  1  0  0  0  0
 14 30  1  0  0  0  0
 14 13  1  0  0  0  0
 15 14  2  0  0  0  0
 16 15  1  0  0  0  0
 16 11  2  0  0  0  0
 17 33  1  0  0  0  0
 17  2  1  0  0  0  0
 18 22  1  0  0  0  0
 18  4  2  0  0  0  0
 19 20  2  0  0  0  0
 19 36  1  0  0  0  0
 20  1  1  0  0  0  0
 21 37  1  0  0  0  0
 21 20  1  0  0  0  0
 22 21  2  0  0  0  0
 23  6  1  0  0  0  0
 27 10  1  0  0  0  0
 31 15  1  0  0  0  0
 32 16  1  0  0  0  0
 34 17  1  0  0  0  0
 35  3  1  0  0  0  0
 38 22  1  0  0  0  0
M  END
