1
q = 0.0, confidence = 0.992

 37 39  0  0  0  0  0  0  0  0999 V2000
   -0.3598   -0.4111   -0.6133 P   0  0  0  0  0  0  0  0  0  0  0  0
   -1.5316    0.9918    0.7166 P   0  0  0  0  0  0  0  0  0  0  0  0
   -1.2987    0.6049    2.1681 O   0  0  0  0  0  0  0  0  0  0  0  0
   -1.4311   -1.8723   -0.3538 C   0  0  0  0  0  0  0  0  0  0  0  0
   -1.3254   -2.5667    0.8691 C   0  0  0  0  0  0  0  0  0  0  0  0
   -0.5694   -2.2644    1.6086 H   0  0  0  0  0  0  0  0  0  0  0  0
   -2.2037   -3.6236    1.1474 C   0  0  0  0  0  0  0  0  0  0  0  0
   -2.1219   -4.1600    2.1046 H   0  0  0  0  0  0  0  0  0  0  0  0
   -3.1806   -3.9966    0.2102 C   0  0  0  0  0  0  0  0  0  0  0  0
   -3.8654   -4.8294    0.4309 H   0  0  0  0  0  0  0  0  0  0  0  0
   -3.2834   -3.3080   -1.0094 C   0  0  0  0  0  0  0  0  0  0  0  0
   -4.0492   -3.5961   -1.7452 H   0  0  0  0  0  0  0  0  0  0  0  0
   -2.4153   -2.2441   -1.2914 C   0  0  0  0  0  0  0  0  0  0  0  0
   -2.5128   -1.6915   -2.2384 H   0  0  0  0  0  0  0  0  0  0  0  0
   -3.2637    0.7657    0.1885 C   0  0  0  0  0  0  0  0  0  0  0  0
   -4.0377   -0.0947    0.9929 C   0  0  0  0  0  0  0  0  0  0  0  0
   -3.5941   -0.4984    1.9156 H   0  0  0  0  0  0  0  0  0  0  0  0
   -5.3435   -0.4238    0.6037 C   0  0  0  0  0  0  0  0  0  0  0  0
   -5.9449   -1.1010    1.2288 H   0  0  0  0  0  0  0  0  0  0  0  0
   -5.8800    0.1066   -0.5805 C   0  0  0  0  0  0  0  0  0  0  0  0
   -6.9049   -0.1540   -0.8858 H   0  0  0  0  0  0  0  0  0  0  0  0
   -5.1133    0.9764   -1.3744 C   0  0  0  0  0  0  0  0  0  0  0  0
   -5.5397    1.4038   -2.2946 H   0  0  0  0  0  0  0  0  0  0  0  0
   -3.8043    1.3069   -0.9944 C   0  0  0  0  0  0  0  0  0  0  0  0
   -3.2129    1.9960   -1.6156 H   0  0  0  0  0  0  0  0  0  0  0  0
   -0.9443    2.6571    0.2770 C   0  0  0  0  0  0  0  0  0  0  0  0
   -0.6105    3.5005    1.3549 C   0  0  0  0  0  0  0  0  0  0  0  0
   -0.7364    3.1237    2.3815 H   0  0  0  0  0  0  0  0  0  0  0  0
   -0.1056    4.7835    1.1020 C   0  0  0  0  0  0  0  0  0  0  0  0
    0.1599    5.4417    1.9429 H   0  0  0  0  0  0  0  0  0  0  0  0
    0.0760    5.2214   -0.2193 C   0  0  0  0  0  0  0  0  0  0  0  0
    0.4832    6.2249   -0.4146 H   0  0  0  0  0  0  0  0  0  0  0  0
   -0.2425    4.3755   -1.2941 C   0  0  0  0  0  0  0  0  0  0  0  0
   -0.0814    4.7126   -2.3290 H   0  0  0  0  0  0  0  0  0  0  0  0
   -0.7485    3.0914   -1.0503 C   0  0  0  0  0  0  0  0  0  0  0  0
   -0.9634    2.4238   -1.8990 H   0  0  0  0  0  0  0  0  0  0  0  0
   -0.8120   -0.0075   -1.9144 H   0  0  0  0  0  0  0  0  0  0  0  0
  1  4  1  0  0  0  0
  1  2  1  0  0  0  0
  2  3  2  0  0  0  0
  4  5  1  0  0  0  0
  5  7  2  0  0  0  0
  5  6  1  0  0  0  0
  7  8  1  0  0  0  0
  9 10  1  0  0  0  0
  9  7  1  0  0  0  0
 11  9  2  0  0  0  0
 12 11  1  0  0  0  0
 13 11  1  0  0  0  0
 13  4  2  0  0  0  0
 14 13  1  0  0  0  0
 15  2  1  0  0  0  0
 15 16  1  0  0  0  0
 16 17  1  0  0  0  0
 18 16  2  0  0  0  0
 18 19  1  0  0  0  0
 20 18  1  0  0  0  0
 21 20  1  0  0  0  0
 22 24  1  0  0  0  0
 22 20  2  0  0  0  0
 23 22  1  0  0  0  0
 24 15  2  0  0  0  0
 25 24  1  0  0  0  0
 26  2  1  0  0  0  0
 26 27  1  0  0  0  0
 27 28  1  0  0  0  0
 29 27  2  0  0  0  0
 29 30  1  0  0  0  0
 31 29  1  0  0  0  0
 32 31  1  0  0  0  0
 33 35  1  0  0  0  0
 33 31  2  0  0  0  0
 34 33  1  0  0  0  0
 35 26  2  0  0  0  0
 36 35  1  0  0  0  0
 37  1  1  0  0  0  0
M  END
