1
q = 0.0, confidence = 0.984

 14 13  0  0  0  0  0  0  0  0999 V2000
   -2.3063    0.1545    0.1056 P   0  0  0  0  0  0  0  0  0  0  0  0
   -4.3148   -1.2066   -1.2286 O   0  0  0  0  0  0  0  0  0  0  0  0
   -4.5043   -1.8793   -0.5499 H   0  0  0  0  0  0  0  0  0  0  0  0
   -2.9161   -1.0014   -1.2414 C   0  0  0  0  0  0  0  0  0  0  0  0
   -2.6440   -0.5289   -2.2080 H   0  0  0  0  0  0  0  0  0  0  0  0
   -2.3131   -1.9313   -1.1371 H   0  0  0  0  0  0  0  0  0  0  0  0
   -3.0201   -0.6070    1.6228 C   0  0  0  0  0  0  0  0  0  0  0  0
   -2.4720   -1.5515    1.8077 H   0  0  0  0  0  0  0  0  0  0  0  0
   -4.1067   -0.7919    1.4994 H   0  0  0  0  0  0  0  0  0  0  0  0
   -2.8619    0.0700    2.4839 H   0  0  0  0  0  0  0  0  0  0  0  0
   -3.3568    1.6405   -0.1641 C   0  0  0  0  0  0  0  0  0  0  0  0
   -2.9982    2.1845   -1.0591 H   0  0  0  0  0  0  0  0  0  0  0  0
   -3.2846    2.3171    0.7090 H   0  0  0  0  0  0  0  0  0  0  0  0
   -4.4076    1.3238   -0.3176 H   0  0  0  0  0  0  0  0  0  0  0  0
  1  7  1  0  0  0  0
  2  3  1  0  0  0  0
  4  2  1  0  0  0  0
  4  6  1  0  0  0  0
  4  1  1  0  0  0  0
  5  4  1  0  0  0  0
  7  8  1  0  0  0  0
  7 10  1  0  0  0  0
  9  7  1  0  0  0  0
 11  1  1  0  0  0  0
 11 13  1  0  0  0  0
 12 11  1  0  0  0  0
 14 11  1  0  0  0  0
M  END
