1
q = 0.0, confidence = 1.0

 35 37  0  0  0  0  0  0  0  0999 V2000
   -2.3132   -0.6491   -0.0523 P   0  0  0  0  0  0  0  0  0  0  0  0
   -2.8847    0.9469   -0.3440 N   0  0  0  0  0  0  0  0  0  0  0  0
   -2.1275    1.5661   -0.6898 H   0  0  0  0  0  0  0  0  0  0  0  0
   -5.1120    0.7322    0.2075 O   0  0  0  0  0  0  0  0  0  0  0  0
   -4.1601    1.4403   -0.1285 C   0  0  0  0  0  0  0  0  0  0  0  0
   -4.2905    2.9030   -0.3134 C   0  0  0  0  0  0  0  0  0  0  0  0
   -5.8860    3.5862   -0.1585 S   0  0  0  0  0  0  0  0  0  0  0  0
   -5.2813    5.1729   -0.4618 C   0  0  0  0  0  0  0  0  0  0  0  0
   -5.9703    6.0268   -0.4710 H   0  0  0  0  0  0  0  0  0  0  0  0
   -3.9103    5.1843   -0.6699 C   0  0  0  0  0  0  0  0  0  0  0  0
   -3.3360    6.0980   -0.8754 H   0  0  0  0  0  0  0  0  0  0  0  0
   -3.3399    3.8837   -0.5838 C   0  0  0  0  0  0  0  0  0  0  0  0
   -2.2674    3.6712   -0.7089 H   0  0  0  0  0  0  0  0  0  0  0  0
   -2.9414   -1.0737    1.6096 C   0  0  0  0  0  0  0  0  0  0  0  0
   -2.8512   -0.1011    2.6264 C   0  0  0  0  0  0  0  0  0  0  0  0
   -2.4923    0.9106    2.3828 H   0  0  0  0  0  0  0  0  0  0  0  0
   -3.2225   -0.4225    3.9375 C   0  0  0  0  0  0  0  0  0  0  0  0
   -3.1607    0.3436    4.7250 H   0  0  0  0  0  0  0  0  0  0  0  0
   -3.6717   -1.7178    4.2467 C   0  0  0  0  0  0  0  0  0  0  0  0
   -3.9618   -1.9686    5.2783 H   0  0  0  0  0  0  0  0  0  0  0  0
   -3.7497   -2.6901    3.2387 C   0  0  0  0  0  0  0  0  0  0  0  0
   -4.1009   -3.7057    3.4761 H   0  0  0  0  0  0  0  0  0  0  0  0
   -3.3859   -2.3727    1.9206 C   0  0  0  0  0  0  0  0  0  0  0  0
   -3.4565   -3.1360    1.1319 H   0  0  0  0  0  0  0  0  0  0  0  0
   -3.1415   -1.7808   -1.2268 C   0  0  0  0  0  0  0  0  0  0  0  0
   -4.5385   -1.9876   -1.2029 C   0  0  0  0  0  0  0  0  0  0  0  0
   -5.1506   -1.4446   -0.4675 H   0  0  0  0  0  0  0  0  0  0  0  0
   -5.1235   -2.8524   -2.1386 C   0  0  0  0  0  0  0  0  0  0  0  0
   -6.2126   -3.0108   -2.1246 H   0  0  0  0  0  0  0  0  0  0  0  0
   -4.3290   -3.5103   -3.0932 C   0  0  0  0  0  0  0  0  0  0  0  0
   -4.7964   -4.1885   -3.8236 H   0  0  0  0  0  0  0  0  0  0  0  0
   -2.9413   -3.3008   -3.1198 C   0  0  0  0  0  0  0  0  0  0  0  0
   -2.3179   -3.8116   -3.8692 H   0  0  0  0  0  0  0  0  0  0  0  0
   -2.3467   -2.4363   -2.1890 C   0  0  0  0  0  0  0  0  0  0  0  0
   -1.2599   -2.2544   -2.1933 H   0  0  0  0  0  0  0  0  0  0  0  0
  1 14  1  0  0  0  0
  2  5  1  0  0  0  0
  2  1  1  0  0  0  0
  3  2  1  0  0  0  0
  5  4  2  0  0  0  0
  6  7  1  0  0  0  0
  6  5  1  0  0  0  0
  8  7  1  0  0  0  0
  9  8  1  0  0  0  0
 10 12  1  0  0  0  0
 10  8  2  0  0  0  0
 11 10  1  0  0  0  0
 12  6  2  0  0  0  0
 13 12  1  0  0  0  0
 14 23  2  0  0  0  0
 14 15  1  0  0  0  0
 15 17  2  0  0  0  0
 16 15  1  0  0  0  0
 17 19  1  0  0  0  0
 17 18  1  0  0  0  0
 19 20  1  0  0  0  0
 21 22  1  0  0  0  0
 21 19  2  0  0  0  0
 23 21  1  0  0  0  0
 24 23  1  0  0  0  0
 25 26  1  0  0  0  0
 25  1  1  0  0  0  0
 26 27  1  0  0  0  0
 28 29  1  0  0  0  0
 28 26  2  0  0  0  0
 30 28  1  0  0  0  0
 31 30  1  0  0  0  0
 32 30  2  0  0  0  0
 32 34  1  0  0  0  0
 33 32  1  0  0  0  0
 34 25  2  0  0  0  0
 35 34  1  0  0  0  0
M  END
