1
q = -1.0, confidence = 0.302

 33 33  0  0  0  0  0  0  0  0999 V2000
   -0.0001   -0.3686   -0.0661 P   0  0  0  0  0  2  0  0  0  0  0  0
   -2.6913   -1.3330   -0.0337 C   0  0  0  0  0  0  0  0  0  0  0  0
   -3.0379   -0.3481    1.0963 C   0  0  0  0  0  0  0  0  0  0  0  0
   -2.8225   -0.8013    2.0847 H   0  0  0  0  0  0  0  0  0  0  0  0
   -4.1143   -0.0904    1.0542 H   0  0  0  0  0  0  0  0  0  0  0  0
   -2.4480    0.5837    1.0077 H   0  0  0  0  0  0  0  0  0  0  0  0
   -3.0314   -0.7532   -1.4186 C   0  0  0  0  0  0  0  0  0  0  0  0
   -2.7746   -1.4801   -2.2149 H   0  0  0  0  0  0  0  0  0  0  0  0
   -2.4808    0.1854   -1.6107 H   0  0  0  0  0  0  0  0  0  0  0  0
   -4.1149   -0.5317   -1.4827 H   0  0  0  0  0  0  0  0  0  0  0  0
   -3.4886   -2.6287    0.1759 C   0  0  0  0  0  0  0  0  0  0  0  0
   -3.2577   -3.1067    1.1486 H   0  0  0  0  0  0  0  0  0  0  0  0
   -3.3256   -3.3625   -0.6382 H   0  0  0  0  0  0  0  0  0  0  0  0
   -4.5656   -2.3734    0.1775 H   0  0  0  0  0  0  0  0  0  0  0  0
   -0.6845   -2.8930    0.0686 C   0  0  0  0  0  0  0  0  0  0  0  0
   -1.3246   -3.7777    0.1130 H   0  0  0  0  0  0  0  0  0  0  0  0
    0.6833   -2.8933    0.0685 C   0  0  0  0  0  0  0  0  0  0  0  0
    1.3232   -3.7783    0.1129 H   0  0  0  0  0  0  0  0  0  0  0  0
    2.6908   -1.3339   -0.0337 C   0  0  0  0  0  0  0  0  0  0  0  0
    3.0310   -0.7540   -1.4186 C   0  0  0  0  0  0  0  0  0  0  0  0
    2.7739   -1.4807   -2.2150 H   0  0  0  0  0  0  0  0  0  0  0  0
    4.1146   -0.5328   -1.4826 H   0  0  0  0  0  0  0  0  0  0  0  0
    2.4807    0.1847   -1.6105 H   0  0  0  0  0  0  0  0  0  0  0  0
    3.0376   -0.3494    1.0964 C   0  0  0  0  0  0  0  0  0  0  0  0
    2.8222   -0.8027    2.0847 H   0  0  0  0  0  0  0  0  0  0  0  0
    2.4480    0.5826    1.0080 H   0  0  0  0  0  0  0  0  0  0  0  0
    4.1140   -0.0919    1.0543 H   0  0  0  0  0  0  0  0  0  0  0  0
    3.4877   -2.6299    0.1756 C   0  0  0  0  0  0  0  0  0  0  0  0
    3.3244   -3.3636   -0.6386 H   0  0  0  0  0  0  0  0  0  0  0  0
    3.2566   -3.1080    1.1482 H   0  0  0  0  0  0  0  0  0  0  0  0
    4.5647   -2.3750    0.1772 H   0  0  0  0  0  0  0  0  0  0  0  0
   -1.2126   -1.6172    0.0106 N   0  0  0  0  0  0  0  0  0  0  0  0
    1.2119   -1.6177    0.0105 N   0  0  0  0  0  0  0  0  0  0  0  0
  1 33  1  0  0  0  0
  1 32  1  0  0  0  0
  2 32  1  0  0  0  0
  2 11  1  0  0  0  0
  2  3  1  0  0  0  0
  3  4  1  0  0  0  0
  5  3  1  0  0  0  0
  6  3  1  0  0  0  0
  7  2  1  0  0  0  0
  8  7  1  0  0  0  0
  9  7  1  0  0  0  0
 10  7  1  0  0  0  0
 11 14  1  0  0  0  0
 11 12  1  0  0  0  0
 13 11  1  0  0  0  0
 15 16  1  0  0  0  0
 17 15  2  0  0  0  0
 17 18  1  0  0  0  0
 19 33  1  0  0  0  0
 19 28  1  0  0  0  0
 19 24  1  0  0  0  0
 20 19  1  0  0  0  0
 21 20  1  0  0  0  0
 22 20  1  0  0  0  0
 23 20  1  0  0  0  0
 24 25  1  0  0  0  0
 26 24  1  0  0  0  0
 27 24  1  0  0  0  0
 28 31  1  0  0  0  0
 28 30  1  0  0  0  0
 29 28  1  0  0  0  0
 32 15  1  0  0  0  0
 33 17  1  0  0  0  0
M  END
