1
q = 0.0, confidence = 0.988

 26 27  0  0  1  0  0  0  0  0999 V2000
   -0.4799    0.5619    0.2001 P   0  0  1  0  0  0  0  0  0  0  0  0
   -1.7258   -0.4938   -0.2629 N   0  0  0  0  0  0  0  0  0  0  0  0
   -2.8655   -0.0047   -1.0395 C   0  0  0  0  0  0  0  0  0  0  0  0
   -3.5245    1.2485   -0.4501 C   0  0  0  0  0  0  0  0  0  0  0  0
   -2.5934    2.4643   -0.5089 C   0  0  0  0  0  0  0  0  0  0  0  0
   -1.2254    2.2372    0.1175 C   0  0  1  0  0  0  0  0  0  0  0  0
   -1.0804    1.6780    1.5399 C   0  0  0  0  0  0  0  0  0  0  0  0
   -1.7461   -1.8499    0.3210 C   0  0  0  0  0  0  0  0  0  0  0  0
   -2.7361   -1.9586    1.4892 C   0  0  0  0  0  0  0  0  0  0  0  0
   -1.9738   -2.9298   -0.7428 C   0  0  0  0  0  0  0  0  0  0  0  0
   -3.6083   -0.8245   -1.0934 H   0  0  0  0  0  0  0  0  0  0  0  0
   -2.5574    0.2027   -2.0917 H   0  0  0  0  0  0  0  0  0  0  0  0
   -3.8353    1.0370    0.5960 H   0  0  0  0  0  0  0  0  0  0  0  0
   -4.4535    1.4735   -1.0143 H   0  0  0  0  0  0  0  0  0  0  0  0
   -3.0716    3.3380   -0.0138 H   0  0  0  0  0  0  0  0  0  0  0  0
   -2.4425    2.7486   -1.5726 H   0  0  0  0  0  0  0  0  0  0  0  0
   -0.4866    3.0184   -0.1334 H   0  0  0  0  0  0  0  0  0  0  0  0
   -0.3220    2.1406    2.1935 H   0  0  0  0  0  0  0  0  0  0  0  0
   -1.9988    1.3663    2.0639 H   0  0  0  0  0  0  0  0  0  0  0  0
   -0.7200   -2.0018    0.7229 H   0  0  0  0  0  0  0  0  0  0  0  0
   -2.5023   -1.2149    2.2767 H   0  0  0  0  0  0  0  0  0  0  0  0
   -3.7791   -1.7885    1.1485 H   0  0  0  0  0  0  0  0  0  0  0  0
   -2.6968   -2.9667    1.9491 H   0  0  0  0  0  0  0  0  0  0  0  0
   -1.8474   -3.9355   -0.2951 H   0  0  0  0  0  0  0  0  0  0  0  0
   -1.2505   -2.8225   -1.5735 H   0  0  0  0  0  0  0  0  0  0  0  0
   -3.0000   -2.8879   -1.1630 H   0  0  0  0  0  0  0  0  0  0  0  0
  1  2  1  6  0  0  0
  1  7  1  0  0  0  0
  2  8  1  0  0  0  0
  3  4  1  0  0  0  0
  3  2  1  0  0  0  0
  4 13  1  0  0  0  0
  5  4  1  0  0  0  0
  5 15  1  0  0  0  0
  5  6  1  0  0  0  0
  6 17  1  6  0  0  0
  6  1  1  0  0  0  0
  6  7  1  0  0  0  0
  7 19  1  0  0  0  0
  7 18  1  0  0  0  0
  8 20  1  0  0  0  0
  8  9  1  0  0  0  0
  9 23  1  0  0  0  0
  9 21  1  0  0  0  0
 10 24  1  0  0  0  0
 10  8  1  0  0  0  0
 11  3  1  0  0  0  0
 12  3  1  0  0  0  0
 14  4  1  0  0  0  0
 16  5  1  0  0  0  0
 22  9  1  0  0  0  0
 25 10  1  0  0  0  0
 26 10  1  0  0  0  0
M  END
