3
q = 0.0, confidence = 0.996

 73 75  0  0  1  0  0  0  0  0999 V2000
   -0.7737    0.3973    1.9695 Cl  0  0  0  0  0  0  0  0  0  0  0  0
   -0.4826   -0.5176   -0.9697 P   0  0  0  0  0  2  0  0  0  0  0  0
    1.9487    0.2308    0.5886 P   0  0  0  0  0  0  0  0  0  0  0  0
    0.1391   -0.0289    0.5431 C   0  0  1  0  0  3  0  0  0  0  0  0
   -2.3119   -0.3652   -0.6877 C   0  0  0  0  0  0  0  0  0  0  0  0
   -2.9539    0.9061   -0.8629 C   0  0  0  0  0  0  0  0  0  0  0  0
   -4.2858    1.0259   -0.4312 C   0  0  0  0  0  0  0  0  0  0  0  0
   -5.0167   -0.0342    0.1271 C   0  0  0  0  0  0  0  0  0  0  0  0
   -4.3912   -1.2856    0.1787 C   0  0  0  0  0  0  0  0  0  0  0  0
   -3.0589   -1.4961   -0.2298 C   0  0  0  0  0  0  0  0  0  0  0  0
   -2.2911    2.1591   -1.5062 C   0  0  0  0  0  0  0  0  0  0  0  0
   -1.4295    2.9151   -0.4684 C   0  0  0  0  0  0  0  0  0  0  0  0
   -1.4332    1.7828   -2.7314 C   0  0  0  0  0  0  0  0  0  0  0  0
   -3.3583    3.1512   -2.0250 C   0  0  0  0  0  0  0  0  0  0  0  0
   -6.4561    0.2012    0.6152 C   0  0  0  0  0  0  0  0  0  0  0  0
   -7.3245    0.6859   -0.5682 C   0  0  0  0  0  0  0  0  0  0  0  0
   -7.0902   -1.0757    1.1931 C   0  0  0  0  0  0  0  0  0  0  0  0
   -6.4387    1.2818    1.7204 C   0  0  0  0  0  0  0  0  0  0  0  0
   -2.4997   -2.9462   -0.1670 C   0  0  0  0  0  0  0  0  0  0  0  0
   -3.6272   -3.9836    0.0303 C   0  0  0  0  0  0  0  0  0  0  0  0
   -1.5233   -3.1107    1.0210 C   0  0  0  0  0  0  0  0  0  0  0  0
   -1.7954   -3.3184   -1.4900 C   0  0  0  0  0  0  0  0  0  0  0  0
    2.5377   -0.4527    2.1795 C   0  0  0  0  0  0  0  0  0  0  0  0
    1.9221   -1.5931    2.7326 C   0  0  0  0  0  0  0  0  0  0  0  0
    2.4356   -2.1657    3.9047 C   0  0  0  0  0  0  0  0  0  0  0  0
    3.5653   -1.6102    4.5264 C   0  0  0  0  0  0  0  0  0  0  0  0
    4.1851   -0.4790    3.9716 C   0  0  0  0  0  0  0  0  0  0  0  0
    3.6767    0.0998    2.8000 C   0  0  0  0  0  0  0  0  0  0  0  0
    2.0957    2.0540    0.7331 C   0  0  0  0  0  0  0  0  0  0  0  0
    2.4314    2.7921   -0.4197 C   0  0  0  0  0  0  0  0  0  0  0  0
    2.4367    4.1939   -0.3771 C   0  0  0  0  0  0  0  0  0  0  0  0
    2.1070    4.8619    0.8129 C   0  0  0  0  0  0  0  0  0  0  0  0
    1.7776    4.1277    1.9646 C   0  0  0  0  0  0  0  0  0  0  0  0
    1.7704    2.7261    1.9302 C   0  0  0  0  0  0  0  0  0  0  0  0
   -4.7834    1.9973   -0.5349 H   0  0  0  0  0  0  0  0  0  0  0  0
   -4.9621   -2.1394    0.5543 H   0  0  0  0  0  0  0  0  0  0  0  0
   -2.0315    3.1816    0.4228 H   0  0  0  0  0  0  0  0  0  0  0  0
   -0.5652    2.3200   -0.1267 H   0  0  0  0  0  0  0  0  0  0  0  0
   -1.0327    3.8520   -0.9114 H   0  0  0  0  0  0  0  0  0  0  0  0
   -0.5379    1.1752   -2.4684 H   0  0  0  0  0  0  0  0  0  0  0  0
   -1.0438    2.6995   -3.2192 H   0  0  0  0  0  0  0  0  0  0  0  0
   -2.0173    1.2078   -3.4776 H   0  0  0  0  0  0  0  0  0  0  0  0
   -2.8535    3.9665   -2.5802 H   0  0  0  0  0  0  0  0  0  0  0  0
   -4.0780    2.6640   -2.7133 H   0  0  0  0  0  0  0  0  0  0  0  0
   -3.9289    3.6305   -1.2053 H   0  0  0  0  0  0  0  0  0  0  0  0
   -6.9414    1.6314   -1.0008 H   0  0  0  0  0  0  0  0  0  0  0  0
   -7.3476   -0.0709   -1.3782 H   0  0  0  0  0  0  0  0  0  0  0  0
   -8.3673    0.8666   -0.2347 H   0  0  0  0  0  0  0  0  0  0  0  0
   -7.1623   -1.8813    0.4349 H   0  0  0  0  0  0  0  0  0  0  0  0
   -8.1184   -0.8580    1.5454 H   0  0  0  0  0  0  0  0  0  0  0  0
   -6.5164   -1.4657    2.0580 H   0  0  0  0  0  0  0  0  0  0  0  0
   -7.4675    1.4777    2.0873 H   0  0  0  0  0  0  0  0  0  0  0  0
   -5.8206    0.9569    2.5817 H   0  0  0  0  0  0  0  0  0  0  0  0
   -6.0243    2.2409    1.3511 H   0  0  0  0  0  0  0  0  0  0  0  0
   -4.4065   -3.9051   -0.7539 H   0  0  0  0  0  0  0  0  0  0  0  0
   -4.1173   -3.8948    1.0202 H   0  0  0  0  0  0  0  0  0  0  0  0
   -3.1935   -5.0017   -0.0255 H   0  0  0  0  0  0  0  0  0  0  0  0
   -1.9999   -2.7992    1.9715 H   0  0  0  0  0  0  0  0  0  0  0  0
   -1.2165   -4.1727    1.1156 H   0  0  0  0  0  0  0  0  0  0  0  0
   -0.6059   -2.5093    0.8840 H   0  0  0  0  0  0  0  0  0  0  0  0
   -2.4799   -3.2015   -2.3538 H   0  0  0  0  0  0  0  0  0  0  0  0
   -0.8923   -2.7026   -1.6921 H   0  0  0  0  0  0  0  0  0  0  0  0
   -1.4496   -4.3715   -1.4553 H   0  0  0  0  0  0  0  0  0  0  0  0
    1.0365   -2.0308    2.2487 H   0  0  0  0  0  0  0  0  0  0  0  0
    1.9477   -3.0533    4.3349 H   0  0  0  0  0  0  0  0  0  0  0  0
    3.9660   -2.0623    5.4462 H   0  0  0  0  0  0  0  0  0  0  0  0
    5.0739   -0.0435    4.4526 H   0  0  0  0  0  0  0  0  0  0  0  0
    4.1670    0.9842    2.3653 H   0  0  0  0  0  0  0  0  0  0  0  0
    2.6861    2.2559   -1.3482 H   0  0  0  0  0  0  0  0  0  0  0  0
    2.7034    4.7659   -1.2784 H   0  0  0  0  0  0  0  0  0  0  0  0
    2.1111    5.9621    0.8457 H   0  0  0  0  0  0  0  0  0  0  0  0
    1.5223    4.6511    2.8985 H   0  0  0  0  0  0  0  0  0  0  0  0
    1.5065    2.1521    2.8304 H   0  0  0  0  0  0  0  0  0  0  0  0
  2  5  1  0  0  0  0
  2  4  1  0  0  0  0
  3 29  1  0  0  0  0
  3 23  1  0  0  0  0
  4  3  1  0  0  0  0
  4  1  1  6  0  0  0
  5 10  1  0  0  0  0
  6  5  2  0  0  0  0
  6  7  1  0  0  0  0
  7  8  2  0  0  0  0
  8  9  1  0  0  0  0
  8 15  1  0  0  0  0
  9 36  1  0  0  0  0
 10 19  1  0  0  0  0
 10  9  2  0  0  0  0
 11  6  1  0  0  0  0
 11 12  1  0  0  0  0
 12 38  1  0  0  0  0
 12 37  1  0  0  0  0
 13 40  1  0  0  0  0
 13 11  1  0  0  0  0
 14 11  1  0  0  0  0
 14 45  1  0  0  0  0
 15 17  1  0  0  0  0
 15 18  1  0  0  0  0
 16 48  1  0  0  0  0
 16 15  1  0  0  0  0
 17 50  1  0  0  0  0
 17 51  1  0  0  0  0
 18 52  1  0  0  0  0
 18 53  1  0  0  0  0
 19 20  1  0  0  0  0
 19 21  1  0  0  0  0
 20 56  1  0  0  0  0
 21 59  1  0  0  0  0
 21 58  1  0  0  0  0
 22 63  1  0  0  0  0
 22 19  1  0  0  0  0
 23 24  2  0  0  0  0
 23 28  1  0  0  0  0
 24 25  1  0  0  0  0
 25 65  1  0  0  0  0
 25 26  2  0  0  0  0
 26 66  1  0  0  0  0
 27 67  1  0  0  0  0
 27 26  1  0  0  0  0
 28 27  2  0  0  0  0
 29 34  1  0  0  0  0
 30 31  1  0  0  0  0
 30 29  2  0  0  0  0
 31 32  2  0  0  0  0
 32 71  1  0  0  0  0
 32 33  1  0  0  0  0
 33 72  1  0  0  0  0
 34 33  2  0  0  0  0
 34 73  1  0  0  0  0
 35  7  1  0  0  0  0
 39 12  1  0  0  0  0
 41 13  1  0  0  0  0
 42 13  1  0  0  0  0
 43 14  1  0  0  0  0
 44 14  1  0  0  0  0
 46 16  1  0  0  0  0
 47 16  1  0  0  0  0
 49 17  1  0  0  0  0
 54 18  1  0  0  0  0
 55 20  1  0  0  0  0
 57 20  1  0  0  0  0
 60 21  1  0  0  0  0
 61 22  1  0  0  0  0
 62 22  1  0  0  0  0
 64 24  1  0  0  0  0
 68 28  1  0  0  0  0
 69 30  1  0  0  0  0
 70 31  1  0  0  0  0
M  END
