1
q = 0.0, confidence = 0.996

 54 57  0  0  1  0  0  0  0  0999 V2000
    0.3413    0.0451    0.0090 P   0  0  1  0  0  0  0  0  0  0  0  0
    1.3455    1.3139   -1.0738 C   0  0  2  0  0  0  0  0  0  0  0  0
    0.8932    1.1182   -2.0782 H   0  0  0  0  0  0  0  0  0  0  0  0
    2.6589    0.8015   -1.0147 O   0  0  0  0  0  0  0  0  0  0  0  0
    2.6014   -0.5975   -1.1709 C   0  0  2  0  0  0  0  0  0  0  0  0
    2.3423   -0.8381   -2.2354 H   0  0  0  0  0  0  0  0  0  0  0  0
    1.5378   -1.1056   -0.3564 O   0  0  0  0  0  0  0  0  0  0  0  0
    0.6639    0.2935    1.8620 C   0  0  2  0  0  0  0  0  0  0  0  0
    0.2961   -1.0480    2.4927 C   0  0  0  0  0  0  0  0  0  0  0  0
   -0.8188   -0.8608    3.2731 C   0  0  0  0  0  0  0  0  0  0  0  0
   -1.2478    0.5456    3.2016 C   0  0  0  0  0  0  0  0  0  0  0  0
   -0.3956    1.2508    2.3878 C   0  0  0  0  0  0  0  0  0  0  0  0
    2.1067    0.7147    2.1714 C   0  0  0  0  0  0  0  0  0  0  0  0
    2.8405    0.0249    1.7122 H   0  0  0  0  0  0  0  0  0  0  0  0
    2.2494    0.6984    3.2709 H   0  0  0  0  0  0  0  0  0  0  0  0
    2.3196    1.7365    1.8095 H   0  0  0  0  0  0  0  0  0  0  0  0
    1.0838   -2.3095    2.3241 C   0  0  0  0  0  0  0  0  0  0  0  0
    0.8565   -3.0260    3.1367 H   0  0  0  0  0  0  0  0  0  0  0  0
    2.1761   -2.1180    2.3299 H   0  0  0  0  0  0  0  0  0  0  0  0
    0.8659   -2.8162    1.3606 H   0  0  0  0  0  0  0  0  0  0  0  0
   -1.5253   -1.8739    4.1176 C   0  0  0  0  0  0  0  0  0  0  0  0
   -1.0455   -2.8688    4.0703 H   0  0  0  0  0  0  0  0  0  0  0  0
   -2.5785   -2.0010    3.7897 H   0  0  0  0  0  0  0  0  0  0  0  0
   -1.5616   -1.5555    5.1812 H   0  0  0  0  0  0  0  0  0  0  0  0
   -2.4384    1.0645    3.9444 C   0  0  0  0  0  0  0  0  0  0  0  0
   -2.5649    2.1563    3.8231 H   0  0  0  0  0  0  0  0  0  0  0  0
   -2.3682    0.8402    5.0297 H   0  0  0  0  0  0  0  0  0  0  0  0
   -3.3724    0.5845    3.5824 H   0  0  0  0  0  0  0  0  0  0  0  0
   -0.4462    2.7138    2.0837 C   0  0  0  0  0  0  0  0  0  0  0  0
   -0.9597    2.9319    1.1243 H   0  0  0  0  0  0  0  0  0  0  0  0
    0.5650    3.1598    2.0005 H   0  0  0  0  0  0  0  0  0  0  0  0
   -0.9972    3.2632    2.8716 H   0  0  0  0  0  0  0  0  0  0  0  0
    1.3108    2.7852   -0.7836 C   0  0  0  0  0  0  0  0  0  0  0  0
    2.3960    3.4263   -0.1542 C   0  0  0  0  0  0  0  0  0  0  0  0
    3.2882    2.8392    0.1033 H   0  0  0  0  0  0  0  0  0  0  0  0
    2.3445    4.8013    0.1195 C   0  0  0  0  0  0  0  0  0  0  0  0
    3.1995    5.2900    0.6109 H   0  0  0  0  0  0  0  0  0  0  0  0
    1.2132    5.5524   -0.2355 C   0  0  0  0  0  0  0  0  0  0  0  0
    1.1731    6.6302   -0.0177 H   0  0  0  0  0  0  0  0  0  0  0  0
    0.1417    4.9236   -0.8899 C   0  0  0  0  0  0  0  0  0  0  0  0
   -0.7406    5.5071   -1.1929 H   0  0  0  0  0  0  0  0  0  0  0  0
    0.1924    3.5514   -1.1702 C   0  0  0  0  0  0  0  0  0  0  0  0
   -0.6425    3.0731   -1.7013 H   0  0  0  0  0  0  0  0  0  0  0  0
    3.9176   -1.2224   -0.7745 C   0  0  0  0  0  0  0  0  0  0  0  0
    3.9503   -2.5567   -0.3290 C   0  0  0  0  0  0  0  0  0  0  0  0
    3.0106   -3.1219   -0.2518 H   0  0  0  0  0  0  0  0  0  0  0  0
    5.1715   -3.1486    0.0240 C   0  0  0  0  0  0  0  0  0  0  0  0
    5.1909   -4.1913    0.3757 H   0  0  0  0  0  0  0  0  0  0  0  0
    6.3647   -2.4139   -0.0676 C   0  0  0  0  0  0  0  0  0  0  0  0
    7.3223   -2.8796    0.2108 H   0  0  0  0  0  0  0  0  0  0  0  0
    6.3325   -1.0837   -0.5145 C   0  0  0  0  0  0  0  0  0  0  0  0
    7.2647   -0.5029   -0.5859 H   0  0  0  0  0  0  0  0  0  0  0  0
    5.1131   -0.4874   -0.8695 C   0  0  0  0  0  0  0  0  0  0  0  0
    5.0794    0.5554   -1.2159 H   0  0  0  0  0  0  0  0  0  0  0  0
  1  7  1  6  0  0  0
  1  8  1  0  0  0  0
  2  3  1  6  0  0  0
  2  4  1  0  0  0  0
  2 33  1  0  0  0  0
  2  1  1  0  0  0  0
  5  6  1  6  0  0  0
  5  4  1  0  0  0  0
  5 44  1  0  0  0  0
  5  7  1  0  0  0  0
  8 13  1  1  0  0  0
  8 12  1  0  0  0  0
  8  9  1  0  0  0  0
  9 10  2  0  0  0  0
 10 21  1  0  0  0  0
 11 10  1  0  0  0  0
 11 25  1  0  0  0  0
 12 11  2  0  0  0  0
 13 15  1  0  0  0  0
 14 13  1  0  0  0  0
 16 13  1  0  0  0  0
 17 19  1  0  0  0  0
 17  9  1  0  0  0  0
 17 18  1  0  0  0  0
 20 17  1  0  0  0  0
 21 24  1  0  0  0  0
 22 21  1  0  0  0  0
 23 21  1  0  0  0  0
 25 27  1  0  0  0  0
 26 25  1  0  0  0  0
 28 25  1  0  0  0  0
 29 12  1  0  0  0  0
 29 32  1  0  0  0  0
 30 29  1  0  0  0  0
 31 29  1  0  0  0  0
 33 34  1  0  0  0  0
 34 35  1  0  0  0  0
 34 36  2  0  0  0  0
 36 37  1  0  0  0  0
 38 39  1  0  0  0  0
 38 36  1  0  0  0  0
 40 38  2  0  0  0  0
 41 40  1  0  0  0  0
 42 40  1  0  0  0  0
 42 33  2  0  0  0  0
 43 42  1  0  0  0  0
 44 45  1  0  0  0  0
 45 46  1  0  0  0  0
 45 47  2  0  0  0  0
 47 48  1  0  0  0  0
 49 47  1  0  0  0  0
 49 50  1  0  0  0  0
 51 49  2  0  0  0  0
 52 51  1  0  0  0  0
 53 44  2  0  0  0  0
 53 51  1  0  0  0  0
 54 53  1  0  0  0  0
M  END
