1
q = -1.0

 17 17  0  0  0  0  0  0  0  0999 V2000
   -0.9261    1.9684   -0.2376 P   0  0  0  0  0  2  0  0  0  0  0  0
   -0.2382    3.3571   -0.8820 N   0  0  0  0  0  0  0  0  0  0  0  0
   -2.4862    2.5561   -0.4295 N   0  0  0  0  0  0  0  0  0  0  0  0
    1.1925    3.6075   -0.9262 C   0  0  0  0  0  0  0  0  0  0  0  0
    1.4542    4.1066   -1.8820 H   0  0  0  0  0  0  0  0  0  0  0  0
    1.7302    2.6408   -0.8795 H   0  0  0  0  0  0  0  0  0  0  0  0
    1.5227    4.2541   -0.0844 H   0  0  0  0  0  0  0  0  0  0  0  0
   -1.1771    4.4739   -1.0326 C   0  0  0  0  0  0  0  0  0  0  0  0
   -0.9273    5.0647   -1.9372 H   0  0  0  0  0  0  0  0  0  0  0  0
   -1.0976    5.1526   -0.1520 H   0  0  0  0  0  0  0  0  0  0  0  0
   -2.5704    3.8384   -1.1358 C   0  0  0  0  0  0  0  0  0  0  0  0
   -3.3469    4.4794   -0.6710 H   0  0  0  0  0  0  0  0  0  0  0  0
   -2.8683    3.6618   -2.1954 H   0  0  0  0  0  0  0  0  0  0  0  0
   -3.7023    1.8046   -0.1650 C   0  0  0  0  0  0  0  0  0  0  0  0
   -4.3180    2.3166    0.6036 H   0  0  0  0  0  0  0  0  0  0  0  0
   -3.4556    0.7879    0.1966 H   0  0  0  0  0  0  0  0  0  0  0  0
   -4.3044    1.7105   -1.0948 H   0  0  0  0  0  0  0  0  0  0  0  0
  2  1  1  0  0  0  0
  3  1  1  0  0  0  0
  3 14  1  0  0  0  0
  4  2  1  0  0  0  0
  4  6  1  0  0  0  0
  4  7  1  0  0  0  0
  5  4  1  0  0  0  0
  8  2  1  0  0  0  0
  8 10  1  0  0  0  0
  9  8  1  0  0  0  0
 11  8  1  0  0  0  0
 11 12  1  0  0  0  0
 11  3  1  0  0  0  0
 13 11  1  0  0  0  0
 14 16  1  0  0  0  0
 14 15  1  0  0  0  0
 17 14  1  0  0  0  0
M  END
