1
q = 0.0, confidence = 1.0

 27 28  0  0  0  0  0  0  0  0999 V2000
    1.4855   -1.0040   -0.4459 P   0  0  0  0  0  0  0  0  0  0  0  0
    1.7916   -2.7551    0.0731 C   0  0  0  0  0  0  0  0  0  0  0  0
    2.6389   -3.1480   -0.5296 H   0  0  0  0  0  0  0  0  0  0  0  0
    2.0884   -2.7154    1.1387 H   0  0  0  0  0  0  0  0  0  0  0  0
    0.5167   -3.5851   -0.1387 C   0  0  0  0  0  0  0  0  0  0  0  0
    0.6892   -4.6102    0.2515 H   0  0  0  0  0  0  0  0  0  0  0  0
   -0.2936   -3.1480    0.4856 H   0  0  0  0  0  0  0  0  0  0  0  0
    0.0644   -3.6599   -1.6052 C   0  0  0  0  0  0  0  0  0  0  0  0
    0.8456   -4.1846   -2.2009 H   0  0  0  0  0  0  0  0  0  0  0  0
   -0.8502   -4.2842   -1.6781 H   0  0  0  0  0  0  0  0  0  0  0  0
   -0.2084   -2.2886   -2.2430 C   0  0  0  0  0  0  0  0  0  0  0  0
   -1.0568   -1.8008   -1.7137 H   0  0  0  0  0  0  0  0  0  0  0  0
   -0.5337   -2.4216   -3.2966 H   0  0  0  0  0  0  0  0  0  0  0  0
    1.0172   -1.3628   -2.2041 C   0  0  0  0  0  0  0  0  0  0  0  0
    0.8614   -0.4150   -2.7508 H   0  0  0  0  0  0  0  0  0  0  0  0
    1.8921   -1.8600   -2.6749 H   0  0  0  0  0  0  0  0  0  0  0  0
    3.1094   -0.1586   -0.5523 C   0  0  0  0  0  0  0  0  0  0  0  0
    3.3078    1.0360    0.1695 C   0  0  0  0  0  0  0  0  0  0  0  0
    2.4937    1.4131    0.8081 H   0  0  0  0  0  0  0  0  0  0  0  0
    4.5338    1.7120    0.0869 C   0  0  0  0  0  0  0  0  0  0  0  0
    4.6818    2.6413    0.6574 H   0  0  0  0  0  0  0  0  0  0  0  0
    5.5697    1.2010   -0.7106 C   0  0  0  0  0  0  0  0  0  0  0  0
    6.5321    1.7316   -0.7718 H   0  0  0  0  0  0  0  0  0  0  0  0
    5.3800    0.0075   -1.4262 C   0  0  0  0  0  0  0  0  0  0  0  0
    6.1920   -0.3998   -2.0475 H   0  0  0  0  0  0  0  0  0  0  0  0
    4.1550   -0.6710   -1.3484 C   0  0  0  0  0  0  0  0  0  0  0  0
    4.0225   -1.6083   -1.9113 H   0  0  0  0  0  0  0  0  0  0  0  0
  1  2  1  0  0  0  0
  2  4  1  0  0  0  0
  3  2  1  0  0  0  0
  5  2  1  0  0  0  0
  5  6  1  0  0  0  0
  5  7  1  0  0  0  0
  8  5  1  0  0  0  0
  9  8  1  0  0  0  0
 10  8  1  0  0  0  0
 11 14  1  0  0  0  0
 11 12  1  0  0  0  0
 11  8  1  0  0  0  0
 13 11  1  0  0  0  0
 14  1  1  0  0  0  0
 15 14  1  0  0  0  0
 16 14  1  0  0  0  0
 17  1  1  0  0  0  0
 17 18  1  0  0  0  0
 18 19  1  0  0  0  0
 20 18  2  0  0  0  0
 20 21  1  0  0  0  0
 22 20  1  0  0  0  0
 23 22  1  0  0  0  0
 24 26  1  0  0  0  0
 24 22  2  0  0  0  0
 25 24  1  0  0  0  0
 26 17  2  0  0  0  0
 27 26  1  0  0  0  0
M  END
