1
q = 0.0, confidence = 1.0

 30 31  0  0  0  0  0  0  0  0999 V2000
   -2.1842    0.1313   -0.0234 P   0  0  0  0  0  0  0  0  0  0  0  0
   -3.6429   -1.8429    3.6738 Cl  0  0  0  0  0  0  0  0  0  0  0  0
   -2.5899    1.8571   -0.4737 C   0  0  0  0  0  0  0  0  0  0  0  0
   -3.5640    2.6169    0.2048 C   0  0  0  0  0  0  0  0  0  0  0  0
   -3.8287    3.9363   -0.1965 C   0  0  0  0  0  0  0  0  0  0  0  0
   -3.1319    4.5008   -1.2751 C   0  0  0  0  0  0  0  0  0  0  0  0
   -2.1612    3.7461   -1.9553 C   0  0  0  0  0  0  0  0  0  0  0  0
   -1.8844    2.4327   -1.5546 C   0  0  0  0  0  0  0  0  0  0  0  0
   -3.0355   -0.9352   -1.2421 C   0  0  0  0  0  0  0  0  0  0  0  0
   -2.6150   -2.2757   -1.3792 C   0  0  0  0  0  0  0  0  0  0  0  0
   -3.2962   -3.1365   -2.2511 C   0  0  0  0  0  0  0  0  0  0  0  0
   -4.3882   -2.6619   -2.9963 C   0  0  0  0  0  0  0  0  0  0  0  0
   -4.7998   -1.3256   -2.8700 C   0  0  0  0  0  0  0  0  0  0  0  0
   -4.1280   -0.4592   -1.9944 C   0  0  0  0  0  0  0  0  0  0  0  0
   -3.0842   -0.1975    1.5667 C   0  0  0  0  0  0  0  0  0  0  0  0
   -2.8601   -1.6173    2.0712 C   0  0  0  0  0  0  0  0  0  0  0  0
   -4.1254    2.1920    1.0488 H   0  0  0  0  0  0  0  0  0  0  0  0
   -4.5892    4.5240    0.3388 H   0  0  0  0  0  0  0  0  0  0  0  0
   -3.3453    5.5338   -1.5876 H   0  0  0  0  0  0  0  0  0  0  0  0
   -1.6138    4.1850   -2.8029 H   0  0  0  0  0  0  0  0  0  0  0  0
   -1.1187    1.8456   -2.0842 H   0  0  0  0  0  0  0  0  0  0  0  0
   -1.7429   -2.6365   -0.8106 H   0  0  0  0  0  0  0  0  0  0  0  0
   -2.9675   -4.1811   -2.3562 H   0  0  0  0  0  0  0  0  0  0  0  0
   -4.9176   -3.3368   -3.6853 H   0  0  0  0  0  0  0  0  0  0  0  0
   -5.6507   -0.9522   -3.4589 H   0  0  0  0  0  0  0  0  0  0  0  0
   -4.4504    0.5889   -1.9001 H   0  0  0  0  0  0  0  0  0  0  0  0
   -4.1664   -0.0139    1.4086 H   0  0  0  0  0  0  0  0  0  0  0  0
   -2.7168    0.5387    2.3122 H   0  0  0  0  0  0  0  0  0  0  0  0
   -3.2957   -2.3660    1.3823 H   0  0  0  0  0  0  0  0  0  0  0  0
   -1.7815   -1.8398    2.1940 H   0  0  0  0  0  0  0  0  0  0  0  0
  1 15  1  0  0  0  0
  3  1  1  0  0  0  0
  3  4  1  0  0  0  0
  4 17  1  0  0  0  0
  5  4  2  0  0  0  0
  5 18  1  0  0  0  0
  6  5  1  0  0  0  0
  7  8  1  0  0  0  0
  7  6  2  0  0  0  0
  8  3  2  0  0  0  0
  9  1  1  0  0  0  0
 10  9  1  0  0  0  0
 10 22  1  0  0  0  0
 11 10  2  0  0  0  0
 12 13  2  0  0  0  0
 12 11  1  0  0  0  0
 13 14  1  0  0  0  0
 14 26  1  0  0  0  0
 14  9  2  0  0  0  0
 15 16  1  0  0  0  0
 15 28  1  0  0  0  0
 16 30  1  0  0  0  0
 16  2  1  0  0  0  0
 19  6  1  0  0  0  0
 20  7  1  0  0  0  0
 21  8  1  0  0  0  0
 23 11  1  0  0  0  0
 24 12  1  0  0  0  0
 25 13  1  0  0  0  0
 27 15  1  0  0  0  0
 29 16  1  0  0  0  0
M  END
