4
q = 0.0, confidence = 0.998

 22 24  0  0  0  0  0  0  0  0999 V2000
   -0.0816   -2.1746    2.0944 S   0  0  0  0  0  0  0  0  0  0  0  0
   -0.0769    2.7296    1.2920 S   0  0  0  0  0  0  0  0  0  0  0  0
    3.2685   -0.2339   -1.4671 S   0  0  0  0  0  0  0  0  0  0  0  0
    0.4531   -0.0112   -0.0682 P   0  0  0  0  0  0  0  0  0  0  0  0
    2.3223   -1.5374    1.3435 N   0  0  0  0  0  0  0  0  0  0  0  0
    2.3251    1.8846    0.7777 N   0  0  0  0  0  0  0  0  0  0  0  0
    0.9979   -0.4586   -2.7197 N   0  0  0  0  0  0  0  0  0  0  0  0
    1.0587   -1.2598    1.1216 C   0  0  0  0  0  0  0  0  0  0  0  0
    1.2576   -2.9653    2.8412 C   0  0  0  0  0  0  0  0  0  0  0  0
    1.1090   -3.7281    3.6155 H   0  0  0  0  0  0  0  0  0  0  0  0
    2.4491   -2.4973    2.3088 C   0  0  0  0  0  0  0  0  0  0  0  0
    3.4480   -2.8461    2.6083 H   0  0  0  0  0  0  0  0  0  0  0  0
    1.0610    1.5516    0.6590 C   0  0  0  0  0  0  0  0  0  0  0  0
    1.2641    3.7164    1.7442 C   0  0  0  0  0  0  0  0  0  0  0  0
    1.1174    4.6864    2.2350 H   0  0  0  0  0  0  0  0  0  0  0  0
    2.4544    3.1023    1.3859 C   0  0  0  0  0  0  0  0  0  0  0  0
    3.4540    3.5277    1.5559 H   0  0  0  0  0  0  0  0  0  0  0  0
    1.5115   -0.2520   -1.5251 C   0  0  0  0  0  0  0  0  0  0  0  0
    3.2775   -0.5242   -3.1664 C   0  0  0  0  0  0  0  0  0  0  0  0
    4.2201   -0.6141   -3.7211 H   0  0  0  0  0  0  0  0  0  0  0  0
    1.9823   -0.6133   -3.6532 C   0  0  0  0  0  0  0  0  0  0  0  0
    1.7151   -0.7938   -4.7042 H   0  0  0  0  0  0  0  0  0  0  0  0
  1  9  1  0  0  0  0
  2 14  1  0  0  0  0
  4 13  1  0  0  0  0
  4  8  1  0  0  0  0
  5 11  1  0  0  0  0
  6 16  1  0  0  0  0
  7 18  2  0  0  0  0
  8  5  2  0  0  0  0
  8  1  1  0  0  0  0
  9 10  1  0  0  0  0
 11 12  1  0  0  0  0
 11  9  2  0  0  0  0
 13  6  2  0  0  0  0
 13  2  1  0  0  0  0
 14 15  1  0  0  0  0
 16 17  1  0  0  0  0
 16 14  2  0  0  0  0
 18  3  1  0  0  0  0
 18  4  1  0  0  0  0
 19  3  1  0  0  0  0
 20 19  1  0  0  0  0
 21 19  2  0  0  0  0
 21  7  1  0  0  0  0
 22 21  1  0  0  0  0
M  END
