1
q = 0.0, confidence = 0.994

 68 72  0  0  0  0  0  0  0  0999 V2000
    0.0987   -0.0179   -0.2120 P   0  0  0  0  0  0  0  0  0  0  0  0
    0.9092   -0.2313   -2.9531 N   0  0  0  0  0  0  0  0  0  0  0  0
   -1.1485   -0.1380   -1.5703 C   0  0  0  0  0  0  0  0  0  0  0  0
   -2.5391   -0.1425   -1.4338 C   0  0  0  0  0  0  0  0  0  0  0  0
   -2.9578   -0.0618   -0.4205 H   0  0  0  0  0  0  0  0  0  0  0  0
    1.1400   -1.4222   -0.8067 C   0  0  0  0  0  0  0  0  0  0  0  0
    1.6006    2.4442   -0.4073 C   0  0  0  0  0  0  0  0  0  0  0  0
    1.3423    2.6225    0.6483 H   0  0  0  0  0  0  0  0  0  0  0  0
    2.6953    3.0654   -2.4714 C   0  0  0  0  0  0  0  0  0  0  0  0
    3.3182    3.7519   -3.0608 H   0  0  0  0  0  0  0  0  0  0  0  0
   -1.3558   -0.3385   -3.9798 C   0  0  0  0  0  0  0  0  0  0  0  0
   -0.8799   -0.4147   -4.9684 H   0  0  0  0  0  0  0  0  0  0  0  0
    2.2084    1.9024   -3.0999 C   0  0  0  0  0  0  0  0  0  0  0  0
    2.4418    1.6806   -4.1516 H   0  0  0  0  0  0  0  0  0  0  0  0
    1.4416   -1.3529   -2.1859 C   0  0  0  0  0  0  0  0  0  0  0  0
   -0.5452   -0.2363   -2.8494 C   0  0  0  0  0  0  0  0  0  0  0  0
    1.4222    1.0068   -2.3752 C   0  0  0  0  0  0  0  0  0  0  0  0
    1.6355   -2.4593   -0.0163 C   0  0  0  0  0  0  0  0  0  0  0  0
    1.3758   -2.4747    1.0537 H   0  0  0  0  0  0  0  0  0  0  0  0
   -4.8997   -0.2524   -2.3916 C   0  0  0  0  0  0  0  0  0  0  0  0
   -2.7558   -0.3440   -3.8374 C   0  0  0  0  0  0  0  0  0  0  0  0
   -3.3700   -0.4270   -4.7442 H   0  0  0  0  0  0  0  0  0  0  0  0
   -3.3721   -0.2477   -2.5752 C   0  0  0  0  0  0  0  0  0  0  0  0
    1.1197    1.2888   -1.0237 C   0  0  0  0  0  0  0  0  0  0  0  0
    2.4109    3.3582   -1.1228 C   0  0  0  0  0  0  0  0  0  0  0  0
    2.4622   -3.4619   -0.5780 C   0  0  0  0  0  0  0  0  0  0  0  0
    1.7780    5.4218    0.1706 C   0  0  0  0  0  0  0  0  0  0  0  0
    1.1024    5.7605   -0.6409 H   0  0  0  0  0  0  0  0  0  0  0  0
    2.1559    6.3192    0.7026 H   0  0  0  0  0  0  0  0  0  0  0  0
    1.1739    4.8353    0.8907 H   0  0  0  0  0  0  0  0  0  0  0  0
    2.9570    4.6000   -0.3981 C   0  0  0  0  0  0  0  0  0  0  0  0
    2.7468   -3.3806   -1.9555 C   0  0  0  0  0  0  0  0  0  0  0  0
    3.3820   -4.1416   -2.4289 H   0  0  0  0  0  0  0  0  0  0  0  0
   -5.2948   -1.4498   -1.4975 C   0  0  0  0  0  0  0  0  0  0  0  0
   -5.0130   -2.4097   -1.9756 H   0  0  0  0  0  0  0  0  0  0  0  0
   -6.3905   -1.4590   -1.3217 H   0  0  0  0  0  0  0  0  0  0  0  0
   -4.7916   -1.4078   -0.5116 H   0  0  0  0  0  0  0  0  0  0  0  0
   -5.6500   -0.3774   -3.7286 C   0  0  0  0  0  0  0  0  0  0  0  0
   -5.4271    0.4700   -4.4081 H   0  0  0  0  0  0  0  0  0  0  0  0
   -6.7434   -0.3784   -3.5455 H   0  0  0  0  0  0  0  0  0  0  0  0
   -5.3996   -1.3200   -4.2560 H   0  0  0  0  0  0  0  0  0  0  0  0
    2.2436   -2.3392   -2.7598 C   0  0  0  0  0  0  0  0  0  0  0  0
    2.4761   -2.2827   -3.8333 H   0  0  0  0  0  0  0  0  0  0  0  0
   -5.3274    1.0691   -1.7134 C   0  0  0  0  0  0  0  0  0  0  0  0
   -4.8299    1.2043   -0.7334 H   0  0  0  0  0  0  0  0  0  0  0  0
   -6.4242    1.0820   -1.5442 H   0  0  0  0  0  0  0  0  0  0  0  0
   -5.0647    1.9406   -2.3463 H   0  0  0  0  0  0  0  0  0  0  0  0
    3.7756    5.5061   -1.3333 C   0  0  0  0  0  0  0  0  0  0  0  0
    4.6610    4.9817   -1.7460 H   0  0  0  0  0  0  0  0  0  0  0  0
    4.1443    6.3881   -0.7720 H   0  0  0  0  0  0  0  0  0  0  0  0
    3.1671    5.8800   -2.1816 H   0  0  0  0  0  0  0  0  0  0  0  0
    3.8702    4.1339    0.7602 C   0  0  0  0  0  0  0  0  0  0  0  0
    3.3295    3.4841    1.4767 H   0  0  0  0  0  0  0  0  0  0  0  0
    4.2610    5.0084    1.3207 H   0  0  0  0  0  0  0  0  0  0  0  0
    4.7344    3.5568    0.3735 H   0  0  0  0  0  0  0  0  0  0  0  0
    3.0241   -4.5653    0.3342 C   0  0  0  0  0  0  0  0  0  0  0  0
    1.8551   -5.3068    1.0216 C   0  0  0  0  0  0  0  0  0  0  0  0
    1.2387   -4.6244    1.6396 H   0  0  0  0  0  0  0  0  0  0  0  0
    2.2440   -6.1038    1.6885 H   0  0  0  0  0  0  0  0  0  0  0  0
    1.1888   -5.7790    0.2715 H   0  0  0  0  0  0  0  0  0  0  0  0
    3.9237   -3.9078    1.4071 C   0  0  0  0  0  0  0  0  0  0  0  0
    4.7807   -3.3849    0.9364 H   0  0  0  0  0  0  0  0  0  0  0  0
    4.3253   -4.6765    2.0995 H   0  0  0  0  0  0  0  0  0  0  0  0
    3.3695   -3.1617    2.0105 H   0  0  0  0  0  0  0  0  0  0  0  0
    3.8616   -5.5935   -0.4449 C   0  0  0  0  0  0  0  0  0  0  0  0
    3.2632   -6.1061   -1.2252 H   0  0  0  0  0  0  0  0  0  0  0  0
    4.2414   -6.3701    0.2491 H   0  0  0  0  0  0  0  0  0  0  0  0
    4.7406   -5.1262   -0.9329 H   0  0  0  0  0  0  0  0  0  0  0  0
  2 16  1  0  0  0  0
  2 17  1  0  0  0  0
  2 15  1  0  0  0  0
  3  4  1  0  0  0  0
  3  1  1  0  0  0  0
  4  5  1  0  0  0  0
  6  1  1  0  0  0  0
  6 18  1  0  0  0  0
  7  8  1  0  0  0  0
  9 25  1  0  0  0  0
 10  9  1  0  0  0  0
 11 21  2  0  0  0  0
 11 16  1  0  0  0  0
 12 11  1  0  0  0  0
 13  9  2  0  0  0  0
 13 17  1  0  0  0  0
 14 13  1  0  0  0  0
 15  6  2  0  0  0  0
 16  3  2  0  0  0  0
 17 24  2  0  0  0  0
 18 19  1  0  0  0  0
 20 44  1  0  0  0  0
 20 34  1  0  0  0  0
 21 23  1  0  0  0  0
 22 21  1  0  0  0  0
 23 20  1  0  0  0  0
 23  4  2  0  0  0  0
 24  7  1  0  0  0  0
 24  1  1  0  0  0  0
 25  7  2  0  0  0  0
 25 31  1  0  0  0  0
 26 18  2  0  0  0  0
 26 56  1  0  0  0  0
 27 29  1  0  0  0  0
 27 30  1  0  0  0  0
 28 27  1  0  0  0  0
 31 27  1  0  0  0  0
 31 52  1  0  0  0  0
 32 26  1  0  0  0  0
 33 32  1  0  0  0  0
 34 36  1  0  0  0  0
 34 37  1  0  0  0  0
 35 34  1  0  0  0  0
 38 40  1  0  0  0  0
 38 20  1  0  0  0  0
 39 38  1  0  0  0  0
 41 38  1  0  0  0  0
 42 15  1  0  0  0  0
 42 32  2  0  0  0  0
 43 42  1  0  0  0  0
 44 46  1  0  0  0  0
 44 45  1  0  0  0  0
 47 44  1  0  0  0  0
 48 50  1  0  0  0  0
 48 31  1  0  0  0  0
 49 48  1  0  0  0  0
 51 48  1  0  0  0  0
 52 54  1  0  0  0  0
 52 53  1  0  0  0  0
 55 52  1  0  0  0  0
 56 57  1  0  0  0  0
 56 61  1  0  0  0  0
 57 58  1  0  0  0  0
 57 59  1  0  0  0  0
 60 57  1  0  0  0  0
 61 64  1  0  0  0  0
 61 63  1  0  0  0  0
 62 61  1  0  0  0  0
 65 67  1  0  0  0  0
 65 56  1  0  0  0  0
 66 65  1  0  0  0  0
 68 65  1  0  0  0  0
M  END
