3
q = 0.0, confidence = 0.984

 19 18  0  0  0  0  0  0  0  0999 V2000
    1.6386   -1.3622    1.8099 Cl  0  0  0  0  0  0  0  0  0  0  0  0
    1.4550   -2.0401   -1.3476 Cl  0  0  0  0  0  0  0  0  0  0  0  0
    1.0424   -0.4257   -0.0290 P   0  0  0  0  0  0  0  0  0  0  0  0
    3.9261    0.7260   -0.1366 N   0  3  0  0  0  0  0  0  0  0  0  0
    4.2138    0.9355    1.3158 C   0  0  0  0  0  0  0  0  0  0  0  0
    3.6157    0.2176    1.9043 H   0  0  0  0  0  0  0  0  0  0  0  0
    3.9215    1.9639    1.5910 H   0  0  0  0  0  0  0  0  0  0  0  0
    5.2948    0.7824    1.5063 H   0  0  0  0  0  0  0  0  0  0  0  0
    4.3895   -0.6341   -0.5406 C   0  0  0  0  0  0  0  0  0  0  0  0
    5.4884   -0.7044   -0.4141 H   0  0  0  0  0  0  0  0  0  0  0  0
    4.1114   -0.8140   -1.5938 H   0  0  0  0  0  0  0  0  0  0  0  0
    3.8869   -1.3875    0.0911 H   0  0  0  0  0  0  0  0  0  0  0  0
    4.6686    1.7529   -0.9264 C   0  0  0  0  0  0  0  0  0  0  0  0
    4.2704    2.7528   -0.6767 H   0  0  0  0  0  0  0  0  0  0  0  0
    4.5123    1.5620   -2.0024 H   0  0  0  0  0  0  0  0  0  0  0  0
    5.7492    1.7028   -0.6830 H   0  0  0  0  0  0  0  0  0  0  0  0
    2.3519    0.9579   -0.4385 B   0  0  0  0  0  0  0  0  0  0  0  0
    2.1852    1.1053   -1.6441 H   0  0  0  0  0  0  0  0  0  0  0  0
    1.9828    1.9262    0.2134 H   0  0  0  0  0  0  0  0  0  0  0  0
  2  3  1  0  0  0  0
  3  1  1  0  0  0  0
  4  5  1  0  0  0  0
  5  8  1  0  0  0  0
  5  7  1  0  0  0  0
  5  6  1  0  0  0  0
  9 10  1  0  0  0  0
  9  4  1  0  0  0  0
  9 12  1  0  0  0  0
 11  9  1  0  0  0  0
 13 16  1  0  0  0  0
 13 14  1  0  0  0  0
 13  4  1  0  0  0  0
 15 13  1  0  0  0  0
 17  4  1  0  0  0  0
 17  3  1  0  0  0  0
 17 19  1  0  0  0  0
 18 17  1  0  0  0  0
M  CHG  1   4   1
M  END
