1
q = 0.0, confidence = 0.992

 48 52  0  0  0  0  0  0  0  0999 V2000
   -0.1254    0.4387    0.5101 P   0  0  2  0  0  0  0  0  0  0  0  0
   -2.8619   -0.4734    0.7009 N   0  0  0  0  0  0  0  0  0  0  0  0
    2.6282    0.7300    1.2449 N   0  0  0  0  0  0  0  0  0  0  0  0
    0.9644    1.8183   -0.0158 C   0  0  0  0  0  0  0  0  0  0  0  0
    0.2597    2.7073   -0.8094 C   0  0  0  0  0  0  0  0  0  0  0  0
    0.8592    3.8797   -1.5508 C   0  0  0  0  0  0  0  0  0  0  0  0
   -0.1770    4.8363   -2.1536 C   0  0  0  0  0  0  0  0  0  0  0  0
   -1.2876    4.0547   -2.8521 C   0  0  0  0  0  0  0  0  0  0  0  0
   -2.0683    3.2203   -1.8304 C   0  0  0  0  0  0  0  0  0  0  0  0
   -1.1785    2.4011   -0.9246 C   0  0  0  0  0  0  0  0  0  0  0  0
   -1.5854    1.3071   -0.1808 C   0  0  0  0  0  0  0  0  0  0  0  0
   -2.9010    0.7247    0.0600 C   0  0  0  0  0  0  0  0  0  0  0  0
   -4.1413    1.3283   -0.2713 C   0  0  0  0  0  0  0  0  0  0  0  0
   -5.3295    0.6605    0.0481 C   0  0  0  0  0  0  0  0  0  0  0  0
   -5.2697   -0.5853    0.6883 C   0  0  0  0  0  0  0  0  0  0  0  0
   -3.9990   -1.1034    0.9968 C   0  0  0  0  0  0  0  0  0  0  0  0
    2.3732    1.7274    0.3567 C   0  0  0  0  0  0  0  0  0  0  0  0
    3.4236    2.5415   -0.1382 C   0  0  0  0  0  0  0  0  0  0  0  0
    4.7262    2.3286    0.3287 C   0  0  0  0  0  0  0  0  0  0  0  0
    4.9671    1.3109    1.2619 C   0  0  0  0  0  0  0  0  0  0  0  0
    3.8732    0.5314    1.6788 C   0  0  0  0  0  0  0  0  0  0  0  0
   -0.3037    0.5436    2.3323 C   0  0  0  0  0  0  0  0  0  0  0  0
   -0.1365   -0.6005    3.1301 C   0  0  0  0  0  0  0  0  0  0  0  0
   -0.2840   -0.5087    4.5220 C   0  0  0  0  0  0  0  0  0  0  0  0
   -0.5976    0.7229    5.1186 C   0  0  0  0  0  0  0  0  0  0  0  0
   -0.7650    1.8667    4.3200 C   0  0  0  0  0  0  0  0  0  0  0  0
   -0.6199    1.7792    2.9283 C   0  0  0  0  0  0  0  0  0  0  0  0
    1.5430    4.4340   -0.8751 H   0  0  0  0  0  0  0  0  0  0  0  0
    1.5038    3.4765   -2.3657 H   0  0  0  0  0  0  0  0  0  0  0  0
    0.3270    5.5327   -2.8538 H   0  0  0  0  0  0  0  0  0  0  0  0
   -0.6220    5.4653   -1.3507 H   0  0  0  0  0  0  0  0  0  0  0  0
   -1.9817    4.7345   -3.3862 H   0  0  0  0  0  0  0  0  0  0  0  0
   -0.8438    3.3856   -3.6222 H   0  0  0  0  0  0  0  0  0  0  0  0
   -2.7848    2.5461   -2.3430 H   0  0  0  0  0  0  0  0  0  0  0  0
   -2.6865    3.9065   -1.2057 H   0  0  0  0  0  0  0  0  0  0  0  0
   -4.1804    2.3122   -0.7521 H   0  0  0  0  0  0  0  0  0  0  0  0
   -6.2998    1.1162   -0.2018 H   0  0  0  0  0  0  0  0  0  0  0  0
   -6.1807   -1.1425    0.9504 H   0  0  0  0  0  0  0  0  0  0  0  0
   -3.8917   -2.0792    1.5029 H   0  0  0  0  0  0  0  0  0  0  0  0
    3.2352    3.3158   -0.8893 H   0  0  0  0  0  0  0  0  0  0  0  0
    5.5524    2.9510   -0.0475 H   0  0  0  0  0  0  0  0  0  0  0  0
    5.9774    1.1099    1.6470 H   0  0  0  0  0  0  0  0  0  0  0  0
    4.0127   -0.3076    2.3830 H   0  0  0  0  0  0  0  0  0  0  0  0
    0.1106   -1.5617    2.6574 H   0  0  0  0  0  0  0  0  0  0  0  0
   -0.1526   -1.4070    5.1441 H   0  0  0  0  0  0  0  0  0  0  0  0
   -0.7127    0.7927    6.2110 H   0  0  0  0  0  0  0  0  0  0  0  0
   -1.0111    2.8337    4.7848 H   0  0  0  0  0  0  0  0  0  0  0  0
   -0.7507    2.6727    2.2976 H   0  0  0  0  0  0  0  0  0  0  0  0
  1 22  1  1  0  0  0
  2 16  1  0  0  0  0
  3 21  1  0  0  0  0
  4 17  1  0  0  0  0
  4  1  1  0  0  0  0
  5  4  2  0  0  0  0
  6 28  1  0  0  0  0
  6  5  1  0  0  0  0
  7  6  1  0  0  0  0
  7 31  1  0  0  0  0
  8  7  1  0  0  0  0
  8  9  1  0  0  0  0
  9 35  1  0  0  0  0
  9 10  1  0  0  0  0
 10  5  1  0  0  0  0
 10 11  2  0  0  0  0
 11 12  1  0  0  0  0
 11  1  1  0  0  0  0
 12  2  2  0  0  0  0
 13 14  2  0  0  0  0
 13 12  1  0  0  0  0
 14 15  1  0  0  0  0
 15 38  1  0  0  0  0
 15 16  2  0  0  0  0
 16 39  1  0  0  0  0
 17  3  2  0  0  0  0
 18 19  2  0  0  0  0
 18 17  1  0  0  0  0
 19 20  1  0  0  0  0
 20 42  1  0  0  0  0
 20 21  2  0  0  0  0
 21 43  1  0  0  0  0
 22 27  2  0  0  0  0
 22 23  1  0  0  0  0
 23 24  2  0  0  0  0
 24 25  1  0  0  0  0
 24 45  1  0  0  0  0
 25 46  1  0  0  0  0
 26 47  1  0  0  0  0
 26 25  2  0  0  0  0
 27 26  1  0  0  0  0
 29  6  1  0  0  0  0
 30  7  1  0  0  0  0
 32  8  1  0  0  0  0
 33  8  1  0  0  0  0
 34  9  1  0  0  0  0
 36 13  1  0  0  0  0
 37 14  1  0  0  0  0
 40 18  1  0  0  0  0
 41 19  1  0  0  0  0
 44 23  1  0  0  0  0
 48 27  1  0  0  0  0
M  END
