2
q = 0.0, confidence = 0.992

 57 61  0  0  1  0  0  0  0  0999 V2000
   -1.5450    0.4597   -0.3094 As  0  0  1  0  0  0  0  0  0  0  0  0
    1.5140    0.9242   -0.0087 P   0  0  0  0  0  0  0  0  0  0  0  0
   -3.3548    0.2977    0.3660 C   0  0  0  0  0  0  0  0  0  0  0  0
   -3.6526    0.7850    1.6515 C   0  0  0  0  0  0  0  0  0  0  0  0
   -2.8664    1.2463    2.2690 H   0  0  0  0  0  0  0  0  0  0  0  0
   -4.9602    0.6772    2.1505 C   0  0  0  0  0  0  0  0  0  0  0  0
   -5.1935    1.0573    3.1567 H   0  0  0  0  0  0  0  0  0  0  0  0
   -5.9642    0.0841    1.3692 C   0  0  0  0  0  0  0  0  0  0  0  0
   -6.9884   -0.0013    1.7627 H   0  0  0  0  0  0  0  0  0  0  0  0
   -5.6607   -0.4096    0.0900 C   0  0  0  0  0  0  0  0  0  0  0  0
   -6.4442   -0.8856   -0.5187 H   0  0  0  0  0  0  0  0  0  0  0  0
   -4.3549   -0.3115   -0.4139 C   0  0  0  0  0  0  0  0  0  0  0  0
   -4.1116   -0.7241   -1.4042 H   0  0  0  0  0  0  0  0  0  0  0  0
   -1.6518    1.5802   -1.9815 C   0  0  1  0  0  0  0  0  0  0  0  0
   -2.0531    1.0716   -2.8761 H   0  0  0  0  0  0  0  0  0  0  0  0
   -2.4488    2.7680   -1.4866 C   0  0  0  0  0  0  0  0  0  0  0  0
   -3.5409    3.3493   -2.3254 C   0  0  0  0  0  0  0  0  0  0  0  0
   -4.3369    2.5928   -2.5004 H   0  0  0  0  0  0  0  0  0  0  0  0
   -3.1685    3.6525   -3.3280 H   0  0  0  0  0  0  0  0  0  0  0  0
   -4.0114    4.2329   -1.8539 H   0  0  0  0  0  0  0  0  0  0  0  0
   -1.9989    3.1834   -0.2663 C   0  0  0  0  0  0  0  0  0  0  0  0
   -2.4802    4.3337    0.5591 C   0  0  0  0  0  0  0  0  0  0  0  0
   -3.2804    4.9089    0.0560 H   0  0  0  0  0  0  0  0  0  0  0  0
   -1.6518    5.0347    0.7995 H   0  0  0  0  0  0  0  0  0  0  0  0
   -2.8812    3.9764    1.5330 H   0  0  0  0  0  0  0  0  0  0  0  0
   -0.8995    2.2838    0.2580 C   0  0  2  0  0  0  0  0  0  0  0  0
   -0.6569    2.4117    1.3282 H   0  0  0  0  0  0  0  0  0  0  0  0
    0.3590    2.2764   -0.6569 C   0  0  2  0  0  0  0  0  0  0  0  0
    0.8839    3.2485   -0.5752 H   0  0  0  0  0  0  0  0  0  0  0  0
   -0.1555    2.0165   -2.1308 C   0  0  1  0  0  0  0  0  0  0  0  0
   -0.1780    3.0101   -2.6276 H   0  0  0  0  0  0  0  0  0  0  0  0
    0.6507    1.0707   -3.0269 C   0  0  0  0  0  0  0  0  0  0  0  0
    0.7175    0.0477   -2.5989 H   0  0  0  0  0  0  0  0  0  0  0  0
    1.6798    1.4372   -3.1978 H   0  0  0  0  0  0  0  0  0  0  0  0
    0.1535    0.9855   -4.0138 H   0  0  0  0  0  0  0  0  0  0  0  0
    1.8425    1.4720    1.7162 C   0  0  0  0  0  0  0  0  0  0  0  0
    2.5163    2.6793    1.9955 C   0  0  0  0  0  0  0  0  0  0  0  0
    2.9203    3.2932    1.1763 H   0  0  0  0  0  0  0  0  0  0  0  0
    2.6917    3.0932    3.3233 C   0  0  0  0  0  0  0  0  0  0  0  0
    3.2203    4.0348    3.5363 H   0  0  0  0  0  0  0  0  0  0  0  0
    2.2042    2.3038    4.3789 C   0  0  0  0  0  0  0  0  0  0  0  0
    2.3484    2.6294    5.4204 H   0  0  0  0  0  0  0  0  0  0  0  0
    1.5469    1.0947    4.1048 C   0  0  0  0  0  0  0  0  0  0  0  0
    1.1791    0.4640    4.9281 H   0  0  0  0  0  0  0  0  0  0  0  0
    1.3674    0.6752    2.7774 C   0  0  0  0  0  0  0  0  0  0  0  0
    0.8747   -0.2842    2.5495 H   0  0  0  0  0  0  0  0  0  0  0  0
    3.0994    1.2053   -0.9043 C   0  0  0  0  0  0  0  0  0  0  0  0
    3.4598    2.4862   -1.3811 C   0  0  0  0  0  0  0  0  0  0  0  0
    2.7830    3.3445   -1.2611 H   0  0  0  0  0  0  0  0  0  0  0  0
    4.6845    2.6791   -2.0365 C   0  0  0  0  0  0  0  0  0  0  0  0
    4.9518    3.6812   -2.4050 H   0  0  0  0  0  0  0  0  0  0  0  0
    5.5607    1.5986   -2.2265 C   0  0  0  0  0  0  0  0  0  0  0  0
    6.5200    1.7514   -2.7440 H   0  0  0  0  0  0  0  0  0  0  0  0
    5.2039    0.3248   -1.7594 C   0  0  0  0  0  0  0  0  0  0  0  0
    5.8802   -0.5305   -1.9088 H   0  0  0  0  0  0  0  0  0  0  0  0
    3.9804    0.1244   -1.1032 C   0  0  0  0  0  0  0  0  0  0  0  0
    3.6985   -0.8783   -0.7398 H   0  0  0  0  0  0  0  0  0  0  0  0
  1 26  1  0  0  0  0
  1  3  1  1  0  0  0
  2 36  1  0  0  0  0
  3  4  1  0  0  0  0
  4  6  2  0  0  0  0
  4  5  1  0  0  0  0
  6  7  1  0  0  0  0
  8  9  1  0  0  0  0
  8  6  1  0  0  0  0
 10  8  2  0  0  0  0
 11 10  1  0  0  0  0
 12 10  1  0  0  0  0
 12  3  2  0  0  0  0
 13 12  1  0  0  0  0
 14 15  1  6  0  0  0
 14 16  1  0  0  0  0
 14  1  1  0  0  0  0
 16 21  2  0  0  0  0
 17 20  1  0  0  0  0
 17 16  1  0  0  0  0
 18 17  1  0  0  0  0
 19 17  1  0  0  0  0
 21 26  1  0  0  0  0
 21 22  1  0  0  0  0
 22 24  1  0  0  0  0
 22 25  1  0  0  0  0
 23 22  1  0  0  0  0
 26 27  1  1  0  0  0
 28 29  1  1  0  0  0
 28  2  1  0  0  0  0
 28 26  1  0  0  0  0
 30 31  1  6  0  0  0
 30 14  1  0  0  0  0
 30 28  1  0  0  0  0
 32 33  1  0  0  0  0
 32 30  1  0  0  0  0
 34 32  1  0  0  0  0
 35 32  1  0  0  0  0
 36 37  2  0  0  0  0
 36 45  1  0  0  0  0
 37 39  1  0  0  0  0
 38 37  1  0  0  0  0
 39 40  1  0  0  0  0
 39 41  2  0  0  0  0
 41 42  1  0  0  0  0
 43 41  1  0  0  0  0
 43 44  1  0  0  0  0
 45 43  2  0  0  0  0
 46 45  1  0  0  0  0
 47  2  1  0  0  0  0
 48 49  1  0  0  0  0
 48 47  2  0  0  0  0
 50 48  1  0  0  0  0
 51 50  1  0  0  0  0
 52 50  2  0  0  0  0
 52 54  1  0  0  0  0
 53 52  1  0  0  0  0
 54 56  2  0  0  0  0
 55 54  1  0  0  0  0
 56 47  1  0  0  0  0
 56 57  1  0  0  0  0
M  END
