21
q = 0.0, confidence = 1.0

 35 37  0  0  0  0  0  0  0  0999 V2000
   -2.7833   -1.1228    0.6790 C   0  0  0  0  0  0  0  0  0  0  0  0
   -3.8948   -1.6872    1.5350 C   0  0  0  0  0  0  0  0  0  0  0  0
   -3.6161   -1.5795    2.6028 H   0  0  0  0  0  0  0  0  0  0  0  0
   -3.9811   -2.7842    1.3561 H   0  0  0  0  0  0  0  0  0  0  0  0
   -5.2724   -1.0376    1.3045 C   0  0  0  0  0  0  0  0  0  0  0  0
   -5.9355   -1.3133    2.1519 H   0  0  0  0  0  0  0  0  0  0  0  0
   -5.1625    0.0690    1.3472 H   0  0  0  0  0  0  0  0  0  0  0  0
   -5.9708   -1.4422    0.0001 C   0  0  0  0  0  0  0  0  0  0  0  0
   -6.1069   -2.5480   -0.0001 H   0  0  0  0  0  0  0  0  0  0  0  0
   -6.9962   -1.0143    0.0002 H   0  0  0  0  0  0  0  0  0  0  0  0
   -5.2727   -1.0372   -1.3044 C   0  0  0  0  0  0  0  0  0  0  0  0
   -5.1627    0.0694   -1.3468 H   0  0  0  0  0  0  0  0  0  0  0  0
   -5.9360   -1.3126   -2.1518 H   0  0  0  0  0  0  0  0  0  0  0  0
   -3.8951   -1.6868   -1.5355 C   0  0  0  0  0  0  0  0  0  0  0  0
   -3.9814   -2.7838   -1.3568 H   0  0  0  0  0  0  0  0  0  0  0  0
   -3.6167   -1.5788   -2.6033 H   0  0  0  0  0  0  0  0  0  0  0  0
   -2.7835   -1.1226   -0.6795 C   0  0  0  0  0  0  0  0  0  0  0  0
   -1.5774   -0.5182   -1.3601 C   0  0  0  0  0  0  0  0  0  0  0  0
   -1.8488    0.2816   -2.0831 H   0  0  0  0  0  0  0  0  0  0  0  0
   -1.0048   -1.2794   -1.9321 H   0  0  0  0  0  0  0  0  0  0  0  0
   -0.5068    0.2043   -0.0004 P   0  0  2  0  0  0  0  0  0  0  0  0
   -1.5771   -0.5185    1.3595 C   0  0  0  0  0  0  0  0  0  0  0  0
   -1.0043   -1.2798    1.9311 H   0  0  0  0  0  0  0  0  0  0  0  0
   -1.8483    0.2812    2.0827 H   0  0  0  0  0  0  0  0  0  0  0  0
   -1.0284    1.9776   -0.0001 C   0  0  0  0  0  0  0  0  0  0  0  0
   -0.0726    3.0102   -0.0007 C   0  0  0  0  0  0  0  0  0  0  0  0
    0.9976    2.7616   -0.0013 H   0  0  0  0  0  0  0  0  0  0  0  0
   -0.4770    4.3549   -0.0006 C   0  0  0  0  0  0  0  0  0  0  0  0
    0.2828    5.1508   -0.0010 H   0  0  0  0  0  0  0  0  0  0  0  0
   -1.8408    4.6801    0.0002 C   0  0  0  0  0  0  0  0  0  0  0  0
   -2.1577    5.7341    0.0004 H   0  0  0  0  0  0  0  0  0  0  0  0
   -2.8024    3.6553    0.0008 C   0  0  0  0  0  0  0  0  0  0  0  0
   -3.8747    3.9041    0.0014 H   0  0  0  0  0  0  0  0  0  0  0  0
   -2.4019    2.3124    0.0007 C   0  0  0  0  0  0  0  0  0  0  0  0
   -3.1621    1.5153    0.0011 H   0  0  0  0  0  0  0  0  0  0  0  0
  1 22  1  0  0  0  0
  1  2  1  0  0  0  0
  2  3  1  0  0  0  0
  4  2  1  0  0  0  0
  5  7  1  0  0  0  0
  5  2  1  0  0  0  0
  5  6  1  0  0  0  0
  8 10  1  0  0  0  0
  8  5  1  0  0  0  0
  9  8  1  0  0  0  0
 11  8  1  0  0  0  0
 12 11  1  0  0  0  0
 13 11  1  0  0  0  0
 14 15  1  0  0  0  0
 14 11  1  0  0  0  0
 14 17  1  0  0  0  0
 16 14  1  0  0  0  0
 17  1  2  0  0  0  0
 18 17  1  0  0  0  0
 18 21  1  0  0  0  0
 19 18  1  0  0  0  0
 20 18  1  0  0  0  0
 21 25  1  1  0  0  0
 21 22  1  0  0  0  0
 22 23  1  0  0  0  0
 22 24  1  0  0  0  0
 25 34  1  0  0  0  0
 26 28  1  0  0  0  0
 26 25  2  0  0  0  0
 27 26  1  0  0  0  0
 28 30  2  0  0  0  0
 29 28  1  0  0  0  0
 30 31  1  0  0  0  0
 30 32  1  0  0  0  0
 32 33  1  0  0  0  0
 34 32  2  0  0  0  0
 34 35  1  0  0  0  0
M  END
