1
q = 0.0, confidence = 1.0

 19 20  0  0  0  0  0  0  0  0999 V2000
    1.2529    0.5448   -0.9963 P   0  0  0  0  0  0  0  0  0  0  0  0
    1.0202    1.7217    0.1038 F   0  0  0  0  0  0  0  0  0  0  0  0
    1.1784    1.5079   -2.2889 F   0  0  0  0  0  0  0  0  0  0  0  0
    5.0702   -0.8639   -0.7011 C   0  0  0  0  0  0  0  0  0  0  0  0
    3.5865   -0.9753   -0.9010 C   0  0  0  0  0  0  0  0  0  0  0  0
    3.0068    0.2587   -0.7951 C   0  0  0  0  0  0  0  0  0  0  0  0
    3.9451    2.6582   -0.2686 C   0  0  0  0  0  0  0  0  0  0  0  0
    5.1228    3.3607    0.0353 C   0  0  0  0  0  0  0  0  0  0  0  0
    6.3609    2.6970    0.1173 C   0  0  0  0  0  0  0  0  0  0  0  0
    6.4484    1.3108   -0.1107 C   0  0  0  0  0  0  0  0  0  0  0  0
    5.2827    0.6022   -0.4147 C   0  0  0  0  0  0  0  0  0  0  0  0
    4.0322    1.2741   -0.4889 C   0  0  0  0  0  0  0  0  0  0  0  0
    5.6131   -1.1996   -1.6145 H   0  0  0  0  0  0  0  0  0  0  0  0
    5.4253   -1.5274    0.1180 H   0  0  0  0  0  0  0  0  0  0  0  0
    3.0503   -1.9020   -1.1454 H   0  0  0  0  0  0  0  0  0  0  0  0
    2.9779    3.1760   -0.3256 H   0  0  0  0  0  0  0  0  0  0  0  0
    5.0758    4.4459    0.2119 H   0  0  0  0  0  0  0  0  0  0  0  0
    7.2701    3.2680    0.3588 H   0  0  0  0  0  0  0  0  0  0  0  0
    7.4203    0.7968   -0.0505 H   0  0  0  0  0  0  0  0  0  0  0  0
  1  6  1  0  0  0  0
  1  2  1  0  0  0  0
  3  1  1  0  0  0  0
  4 11  1  0  0  0  0
  4 14  1  0  0  0  0
  5  6  2  0  0  0  0
  5  4  1  0  0  0  0
  6 12  1  0  0  0  0
  7  8  1  0  0  0  0
  8  9  2  0  0  0  0
  8 17  1  0  0  0  0
  9 18  1  0  0  0  0
 10 19  1  0  0  0  0
 10  9  1  0  0  0  0
 11 10  2  0  0  0  0
 12 11  1  0  0  0  0
 12  7  2  0  0  0  0
 13  4  1  0  0  0  0
 15  5  1  0  0  0  0
 16  7  1  0  0  0  0
M  END
