1
q = -1.0

 15 14  0  0  0  0  0  0  0  0999 V2000
    1.9844    0.3285   -1.6168 P   0  0  0  0  0  0  0  0  0  0  0  0
    3.5953   -0.9721    0.2527 F   0  0  0  0  0  0  0  0  0  0  0  0
    2.6931    0.9318    0.9242 F   0  0  0  0  0  0  0  0  0  0  0  0
    5.3954    0.9865    0.5697 F   0  0  0  0  0  0  0  0  0  0  0  0
    4.2757    2.3377   -0.7307 F   0  0  0  0  0  0  0  0  0  0  0  0
    5.1680    0.5199   -1.5509 F   0  0  0  0  0  0  0  0  0  0  0  0
    1.8215   -2.4264   -1.2325 F   0  0  0  0  0  0  0  0  0  0  0  0
    1.0186   -1.5897   -3.1113 F   0  0  0  0  0  0  0  0  0  0  0  0
    3.1233   -3.1322   -3.5492 F   0  0  0  0  0  0  0  0  0  0  0  0
    3.6437   -1.0448   -3.9180 F   0  0  0  0  0  0  0  0  0  0  0  0
    4.3681   -2.0565   -2.1205 F   0  0  0  0  0  0  0  0  0  0  0  0
    3.2391    0.2704   -0.1633 C   0  0  0  0  0  0  0  0  0  0  0  0
    4.5513    1.0445   -0.4777 C   0  0  0  0  0  0  0  0  0  0  0  0
    2.0430   -1.4909   -2.2085 C   0  0  0  0  0  0  0  0  0  0  0  0
    3.3280   -1.9376   -2.9634 C   0  0  0  0  0  0  0  0  0  0  0  0
  1 12  1  0  0  0  0
  5 13  1  0  0  0  0
  6 13  1  0  0  0  0
  8 14  1  0  0  0  0
  9 15  1  0  0  0  0
 10 15  1  0  0  0  0
 12  2  1  0  0  0  0
 12  3  1  0  0  0  0
 13 12  1  0  0  0  0
 13  4  1  0  0  0  0
 14  1  1  0  0  0  0
 14  7  1  0  0  0  0
 15 14  1  0  0  0  0
 15 11  1  0  0  0  0
M  END
