1
q = 0.0, confidence = 0.998

 34 36  0  0  0  0  0  0  0  0999 V2000
    0.2993    0.4680    0.1714 P   0  0  0  0  0  0  0  0  0  0  0  0
   -2.0448    1.5713   -1.7332 F   0  0  0  0  0  0  0  0  0  0  0  0
   -3.5371   -2.8077    1.1975 F   0  0  0  0  0  0  0  0  0  0  0  0
   -5.2717   -1.6550   -0.5804 F   0  0  0  0  0  0  0  0  0  0  0  0
   -1.0426   -1.7818    1.5110 F   0  0  0  0  0  0  0  0  0  0  0  0
   -4.5010    0.5337   -2.0263 F   0  0  0  0  0  0  0  0  0  0  0  0
    0.5072    2.0662   -0.7019 C   0  0  0  0  0  0  0  0  0  0  0  0
    0.0841    3.2821   -0.1301 C   0  0  0  0  0  0  0  0  0  0  0  0
   -0.3746    3.2952    0.8698 H   0  0  0  0  0  0  0  0  0  0  0  0
   -2.3619    0.5062   -0.9910 C   0  0  0  0  0  0  0  0  0  0  0  0
    0.3651    0.8906    1.9543 C   0  0  0  0  0  0  0  0  0  0  0  0
   -3.6533   -0.0256   -1.1615 C   0  0  0  0  0  0  0  0  0  0  0  0
    1.6171    0.8278    2.5977 C   0  0  0  0  0  0  0  0  0  0  0  0
    2.5001    0.4799    2.0384 H   0  0  0  0  0  0  0  0  0  0  0  0
   -0.7742    1.3060    2.6717 C   0  0  0  0  0  0  0  0  0  0  0  0
   -1.7571    1.3423    2.1771 H   0  0  0  0  0  0  0  0  0  0  0  0
    0.2602    4.4803   -0.8356 C   0  0  0  0  0  0  0  0  0  0  0  0
   -0.0676    5.4301   -0.3868 H   0  0  0  0  0  0  0  0  0  0  0  0
    1.2859    3.2596   -2.6732 C   0  0  0  0  0  0  0  0  0  0  0  0
    1.7634    3.2496   -3.6643 H   0  0  0  0  0  0  0  0  0  0  0  0
   -3.1600   -1.7414    0.4929 C   0  0  0  0  0  0  0  0  0  0  0  0
    1.1175    2.0576   -1.9717 C   0  0  0  0  0  0  0  0  0  0  0  0
    1.4663    1.1051   -2.4017 H   0  0  0  0  0  0  0  0  0  0  0  0
   -1.4513   -0.0617   -0.0785 C   0  0  0  0  0  0  0  0  0  0  0  0
   -1.8774   -1.1964    0.6450 C   0  0  0  0  0  0  0  0  0  0  0  0
    1.7279    1.1908    3.9474 C   0  0  0  0  0  0  0  0  0  0  0  0
    2.7066    1.1359    4.4470 H   0  0  0  0  0  0  0  0  0  0  0  0
    0.5928    1.6085    4.6607 C   0  0  0  0  0  0  0  0  0  0  0  0
    0.6808    1.8850    5.7222 H   0  0  0  0  0  0  0  0  0  0  0  0
    0.8562    4.4703   -2.1075 C   0  0  0  0  0  0  0  0  0  0  0  0
    0.9947    5.4139   -2.6567 H   0  0  0  0  0  0  0  0  0  0  0  0
   -0.6570    1.6631    4.0232 C   0  0  0  0  0  0  0  0  0  0  0  0
   -1.5494    1.9819    4.5827 H   0  0  0  0  0  0  0  0  0  0  0  0
   -4.0508   -1.1507   -0.4213 C   0  0  0  0  0  0  0  0  0  0  0  0
  1 11  1  0  0  0  0
  2 10  1  0  0  0  0
  4 34  1  0  0  0  0
  6 12  1  0  0  0  0
  7  8  1  0  0  0  0
  7  1  1  0  0  0  0
  8  9  1  0  0  0  0
 10 24  1  0  0  0  0
 11 13  2  0  0  0  0
 11 15  1  0  0  0  0
 12 10  2  0  0  0  0
 12 34  1  0  0  0  0
 13 26  1  0  0  0  0
 14 13  1  0  0  0  0
 15 32  2  0  0  0  0
 16 15  1  0  0  0  0
 17 18  1  0  0  0  0
 17  8  2  0  0  0  0
 19 30  2  0  0  0  0
 19 22  1  0  0  0  0
 20 19  1  0  0  0  0
 21 25  1  0  0  0  0
 21  3  1  0  0  0  0
 22  7  2  0  0  0  0
 23 22  1  0  0  0  0
 24  1  1  0  0  0  0
 24 25  2  0  0  0  0
 25  5  1  0  0  0  0
 26 27  1  0  0  0  0
 26 28  2  0  0  0  0
 28 29  1  0  0  0  0
 30 17  1  0  0  0  0
 31 30  1  0  0  0  0
 32 33  1  0  0  0  0
 32 28  1  0  0  0  0
 34 21  2  0  0  0  0
M  END
