1
q = -1.0

 74 76  0  0  1  0  0  0  0  0999 V2000
    0.9449    0.0550   -0.2841 P   0  0  0  0  0  0  0  0  0  0  0  0
   -2.5146    1.7433   -0.8107 N   0  0  0  0  0  0  0  0  0  0  0  0
   -2.4781   -2.0273   -1.0550 N   0  0  0  0  0  0  0  0  0  0  0  0
   -0.7019   -0.1032   -1.0419 C   0  0  2  0  0  3  0  0  0  0  0  0
   -1.9295    0.5677   -0.9623 C   0  0  0  0  0  0  0  0  0  0  0  0
   -1.8860   -0.8442   -1.0528 C   0  0  0  0  0  0  0  0  0  0  0  0
   -1.6537    2.9184   -0.4791 C   0  0  0  0  0  0  0  0  0  0  0  0
   -0.6206    2.5299   -0.5202 H   0  0  0  0  0  0  0  0  0  0  0  0
   -1.7846    4.0127   -1.5391 C   0  0  0  0  0  0  0  0  0  0  0  0
   -1.5735    3.6170   -2.5519 H   0  0  0  0  0  0  0  0  0  0  0  0
   -1.0490    4.8141   -1.3304 H   0  0  0  0  0  0  0  0  0  0  0  0
   -2.7918    4.4791   -1.5417 H   0  0  0  0  0  0  0  0  0  0  0  0
   -1.8982    3.4077    0.9491 C   0  0  0  0  0  0  0  0  0  0  0  0
   -2.9036    3.8610    1.0727 H   0  0  0  0  0  0  0  0  0  0  0  0
   -1.1496    4.1856    1.1973 H   0  0  0  0  0  0  0  0  0  0  0  0
   -1.7786    2.5706    1.6652 H   0  0  0  0  0  0  0  0  0  0  0  0
   -3.9869    1.9188   -0.7831 C   0  0  0  0  0  0  0  0  0  0  0  0
   -4.1255    3.0150   -0.6981 H   0  0  0  0  0  0  0  0  0  0  0  0
   -4.6300    1.2824    0.4527 C   0  0  0  0  0  0  0  0  0  0  0  0
   -4.5405    0.1808    0.4491 H   0  0  0  0  0  0  0  0  0  0  0  0
   -5.7072    1.5406    0.4911 H   0  0  0  0  0  0  0  0  0  0  0  0
   -4.1429    1.6347    1.3803 H   0  0  0  0  0  0  0  0  0  0  0  0
   -4.6128    1.4888   -2.1130 C   0  0  0  0  0  0  0  0  0  0  0  0
   -4.1761    2.0585   -2.9567 H   0  0  0  0  0  0  0  0  0  0  0  0
   -5.7061    1.6676   -2.0999 H   0  0  0  0  0  0  0  0  0  0  0  0
   -4.4526    0.4108   -2.3166 H   0  0  0  0  0  0  0  0  0  0  0  0
   -3.9500   -2.1287   -0.9284 C   0  0  0  0  0  0  0  0  0  0  0  0
   -4.3097   -1.0874   -1.0237 H   0  0  0  0  0  0  0  0  0  0  0  0
   -4.3541   -2.6365    0.4591 C   0  0  0  0  0  0  0  0  0  0  0  0
   -4.0803   -3.7013    0.6020 H   0  0  0  0  0  0  0  0  0  0  0  0
   -5.4522   -2.5558    0.5848 H   0  0  0  0  0  0  0  0  0  0  0  0
   -3.8576   -2.0401    1.2504 H   0  0  0  0  0  0  0  0  0  0  0  0
   -4.5597   -2.9341   -2.0785 C   0  0  0  0  0  0  0  0  0  0  0  0
   -4.2637   -2.5159   -3.0611 H   0  0  0  0  0  0  0  0  0  0  0  0
   -5.6652   -2.9080   -2.0084 H   0  0  0  0  0  0  0  0  0  0  0  0
   -4.2545   -3.9996   -2.0491 H   0  0  0  0  0  0  0  0  0  0  0  0
   -1.6614   -3.2731   -0.9558 C   0  0  0  0  0  0  0  0  0  0  0  0
   -2.4088   -4.0906   -1.0043 H   0  0  0  0  0  0  0  0  0  0  0  0
   -0.7390   -3.4166   -2.1671 C   0  0  0  0  0  0  0  0  0  0  0  0
   -1.3162   -3.3857   -3.1126 H   0  0  0  0  0  0  0  0  0  0  0  0
   -0.2012   -4.3833   -2.1173 H   0  0  0  0  0  0  0  0  0  0  0  0
    0.0294   -2.6214   -2.1947 H   0  0  0  0  0  0  0  0  0  0  0  0
   -0.9389   -3.3670    0.3902 C   0  0  0  0  0  0  0  0  0  0  0  0
   -0.2523   -2.5155    0.5562 H   0  0  0  0  0  0  0  0  0  0  0  0
   -0.3424   -4.2996    0.4305 H   0  0  0  0  0  0  0  0  0  0  0  0
   -1.6508   -3.3620    1.2359 H   0  0  0  0  0  0  0  0  0  0  0  0
    1.5347    1.6042   -1.0891 C   0  0  0  0  0  0  0  0  0  0  0  0
    2.3857    2.4745   -0.3770 C   0  0  0  0  0  0  0  0  0  0  0  0
    2.7123    2.1911    0.6367 H   0  0  0  0  0  0  0  0  0  0  0  0
    2.8098    3.6719   -0.9659 C   0  0  0  0  0  0  0  0  0  0  0  0
    3.4693    4.3439   -0.3939 H   0  0  0  0  0  0  0  0  0  0  0  0
    2.4081    4.0396   -2.2680 C   0  0  0  0  0  0  0  0  0  0  0  0
    1.5578    3.1610   -2.9690 C   0  0  0  0  0  0  0  0  0  0  0  0
    1.2217    3.4274   -3.9838 H   0  0  0  0  0  0  0  0  0  0  0  0
    1.1248    1.9591   -2.3917 C   0  0  0  0  0  0  0  0  0  0  0  0
    0.4338    1.3076   -2.9499 H   0  0  0  0  0  0  0  0  0  0  0  0
    2.8877    5.3267   -2.8881 C   0  0  0  0  0  0  0  0  0  0  0  0
    2.3298    5.5717   -3.8125 H   0  0  0  0  0  0  0  0  0  0  0  0
    3.9642    5.2605   -3.1541 H   0  0  0  0  0  0  0  0  0  0  0  0
    2.7855    6.1780   -2.1848 H   0  0  0  0  0  0  0  0  0  0  0  0
    1.9501   -1.2885   -1.0364 C   0  0  0  0  0  0  0  0  0  0  0  0
    2.2633   -1.2997   -2.4094 C   0  0  0  0  0  0  0  0  0  0  0  0
    1.9599   -0.4637   -3.0564 H   0  0  0  0  0  0  0  0  0  0  0  0
    2.9665   -2.3780   -2.9629 C   0  0  0  0  0  0  0  0  0  0  0  0
    3.1995   -2.3772   -4.0396 H   0  0  0  0  0  0  0  0  0  0  0  0
    3.3853   -3.4624   -2.1642 C   0  0  0  0  0  0  0  0  0  0  0  0
    3.0821   -3.4269   -0.7872 C   0  0  0  0  0  0  0  0  0  0  0  0
    3.4110   -4.2543   -0.1386 H   0  0  0  0  0  0  0  0  0  0  0  0
    2.3801   -2.3549   -0.2228 C   0  0  0  0  0  0  0  0  0  0  0  0
    2.1694   -2.3240    0.8567 H   0  0  0  0  0  0  0  0  0  0  0  0
    4.1711   -4.6051   -2.7539 C   0  0  0  0  0  0  0  0  0  0  0  0
    5.2615   -4.4494   -2.6063 H   0  0  0  0  0  0  0  0  0  0  0  0
    3.9982   -4.7042   -3.8433 H   0  0  0  0  0  0  0  0  0  0  0  0
    3.9157   -5.5686   -2.2697 H   0  0  0  0  0  0  0  0  0  0  0  0
  2 17  1  0  0  0  0
  2  7  1  0  0  0  0
  3  6  1  0  0  0  0
  3 37  1  0  0  0  0
  3 27  1  0  0  0  0
  4  5  1  0  0  0  0
  4  1  1  1  0  0  0
  5  2  1  0  0  0  0
  6  4  1  0  0  0  0
  6  5  2  0  0  0  0
  7 13  1  0  0  0  0
  8  7  1  0  0  0  0
  9 11  1  0  0  0  0
  9  7  1  0  0  0  0
 10  9  1  0  0  0  0
 12  9  1  0  0  0  0
 13 14  1  0  0  0  0
 13 15  1  0  0  0  0
 13 16  1  0  0  0  0
 17 18  1  0  0  0  0
 17 19  1  0  0  0  0
 19 21  1  0  0  0  0
 19 22  1  0  0  0  0
 20 19  1  0  0  0  0
 23 25  1  0  0  0  0
 23 17  1  0  0  0  0
 24 23  1  0  0  0  0
 26 23  1  0  0  0  0
 27 29  1  0  0  0  0
 28 27  1  0  0  0  0
 29 31  1  0  0  0  0
 29 30  1  0  0  0  0
 29 32  1  0  0  0  0
 33 36  1  0  0  0  0
 33 35  1  0  0  0  0
 33 27  1  0  0  0  0
 34 33  1  0  0  0  0
 37 43  1  0  0  0  0
 38 37  1  0  0  0  0
 39 41  1  0  0  0  0
 39 37  1  0  0  0  0
 40 39  1  0  0  0  0
 42 39  1  0  0  0  0
 43 45  1  0  0  0  0
 43 44  1  0  0  0  0
 43 46  1  0  0  0  0
 47 48  1  0  0  0  0
 47  1  1  0  0  0  0
 48 49  1  0  0  0  0
 50 51  1  0  0  0  0
 50 48  2  0  0  0  0
 52 50  1  0  0  0  0
 53 55  1  0  0  0  0
 53 52  2  0  0  0  0
 54 53  1  0  0  0  0
 55 47  2  0  0  0  0
 56 55  1  0  0  0  0
 57 52  1  0  0  0  0
 57 60  1  0  0  0  0
 58 57  1  0  0  0  0
 59 57  1  0  0  0  0
 61  1  1  0  0  0  0
 61 69  1  0  0  0  0
 62 61  2  0  0  0  0
 63 62  1  0  0  0  0
 64 62  1  0  0  0  0
 64 66  2  0  0  0  0
 65 64  1  0  0  0  0
 66 67  1  0  0  0  0
 67 69  2  0  0  0  0
 67 68  1  0  0  0  0
 69 70  1  0  0  0  0
 71 72  1  0  0  0  0
 71 74  1  0  0  0  0
 71 66  1  0  0  0  0
 73 71  1  0  0  0  0
M  END
