1
q = 0.0, confidence = 1.0

 46 48  0  0  1  0  0  0  0  0999 V2000
   -1.7185   -0.8993   -0.2175 P   0  0  1  0  0  0  0  0  0  0  0  0
    4.7251    0.9444    0.0883 O   0  0  0  0  0  0  0  0  0  0  0  0
    4.7167    1.1366   -2.1762 O   0  0  0  0  0  0  0  0  0  0  0  0
    2.4414    0.0054    1.9558 O   0  0  0  0  0  0  0  0  0  0  0  0
    4.1844   -1.4077    1.5769 O   0  0  0  0  0  0  0  0  0  0  0  0
   -3.2825   -1.6756   -0.4284 N   0  0  2  0  0  0  0  0  0  0  0  0
   -1.2608   -2.0181    1.0168 N   0  0  1  0  0  0  0  0  0  0  0  0
    1.6438   -1.9961   -0.3092 N   0  0  0  0  0  0  0  0  0  0  0  0
   -1.1957   -1.4025   -1.7966 N   0  0  1  0  0  0  0  0  0  0  0  0
   -3.4760   -2.6861    0.6204 C   0  0  0  0  0  0  0  0  0  0  0  0
   -2.0952   -3.2118    1.0453 C   0  0  0  0  0  0  0  0  0  0  0  0
    0.0374   -2.0044    1.6526 C   0  0  0  0  0  0  0  0  0  0  0  0
    1.1608   -2.7189    0.8693 C   0  0  0  0  0  0  0  0  0  0  0  0
    1.1461   -2.3206   -1.6412 C   0  0  0  0  0  0  0  0  0  0  0  0
    0.1765   -1.2665   -2.2312 C   0  0  0  0  0  0  0  0  0  0  0  0
   -2.0499   -2.4223   -2.3885 C   0  0  0  0  0  0  0  0  0  0  0  0
   -3.4402   -2.0814   -1.8298 C   0  0  0  0  0  0  0  0  0  0  0  0
    2.6546   -1.0730   -0.1959 C   0  0  0  0  0  0  0  0  0  0  0  0
    3.2493   -0.4103   -1.2441 C   0  0  0  0  0  0  0  0  0  0  0  0
    4.2820    0.5923   -1.0020 C   0  0  0  0  0  0  0  0  0  0  0  0
    5.7025    2.1594   -2.0357 C   0  0  0  0  0  0  0  0  0  0  0  0
    3.0804   -0.7254    1.2222 C   0  0  0  0  0  0  0  0  0  0  0  0
    4.7805   -0.9918    2.8151 C   0  0  0  0  0  0  0  0  0  0  0  0
   -3.9720   -2.2165    1.4971 H   0  0  0  0  0  0  0  0  0  0  0  0
   -4.1419   -3.4898    0.2492 H   0  0  0  0  0  0  0  0  0  0  0  0
   -1.7374   -4.0204    0.3588 H   0  0  0  0  0  0  0  0  0  0  0  0
   -2.1138   -3.6346    2.0737 H   0  0  0  0  0  0  0  0  0  0  0  0
    0.3519   -0.9558    1.8243 H   0  0  0  0  0  0  0  0  0  0  0  0
   -0.0485   -2.4795    2.6552 H   0  0  0  0  0  0  0  0  0  0  0  0
    0.8156   -3.7194    0.5353 H   0  0  0  0  0  0  0  0  0  0  0  0
    2.0171   -2.8999    1.5510 H   0  0  0  0  0  0  0  0  0  0  0  0
    2.0161   -2.4496   -2.3222 H   0  0  0  0  0  0  0  0  0  0  0  0
    0.6363   -3.3034   -1.5882 H   0  0  0  0  0  0  0  0  0  0  0  0
    0.2062   -1.3270   -3.3413 H   0  0  0  0  0  0  0  0  0  0  0  0
    0.5404   -0.2528   -1.9602 H   0  0  0  0  0  0  0  0  0  0  0  0
   -2.0209   -2.3435   -3.4978 H   0  0  0  0  0  0  0  0  0  0  0  0
   -1.7493   -3.4676   -2.1205 H   0  0  0  0  0  0  0  0  0  0  0  0
   -4.1496   -2.9291   -1.8998 H   0  0  0  0  0  0  0  0  0  0  0  0
   -3.8664   -1.2359   -2.4116 H   0  0  0  0  0  0  0  0  0  0  0  0
    2.9370   -0.5565   -2.2846 H   0  0  0  0  0  0  0  0  0  0  0  0
    5.9399    2.5020   -3.0591 H   0  0  0  0  0  0  0  0  0  0  0  0
    6.6156    1.7712   -1.5390 H   0  0  0  0  0  0  0  0  0  0  0  0
    5.3167    3.0029   -1.4269 H   0  0  0  0  0  0  0  0  0  0  0  0
    5.5998   -1.7040    3.0165 H   0  0  0  0  0  0  0  0  0  0  0  0
    4.0384   -0.9989    3.6377 H   0  0  0  0  0  0  0  0  0  0  0  0
    5.1779    0.0354    2.6913 H   0  0  0  0  0  0  0  0  0  0  0  0
  1  7  1  0  0  0  0
  3 21  1  0  0  0  0
  3 20  1  0  0  0  0
  5 23  1  0  0  0  0
  6  1  1  0  0  0  0
  6 10  1  0  0  0  0
  7 11  1  6  0  0  0
  7 12  1  0  0  0  0
  8 18  1  0  0  0  0
  8 13  1  0  0  0  0
  9 16  1  1  0  0  0
  9  1  1  0  0  0  0
 10 11  1  0  0  0  0
 10 24  1  0  0  0  0
 11 27  1  0  0  0  0
 12 28  1  0  0  0  0
 12 29  1  0  0  0  0
 13 31  1  0  0  0  0
 13 12  1  0  0  0  0
 14 33  1  0  0  0  0
 14  8  1  0  0  0  0
 15 35  1  0  0  0  0
 15  9  1  0  0  0  0
 15 14  1  0  0  0  0
 16 37  1  0  0  0  0
 16 17  1  0  0  0  0
 17  6  1  0  0  0  0
 18 22  1  0  0  0  0
 19 20  1  0  0  0  0
 19 18  2  0  0  0  0
 20  2  2  0  0  0  0
 21 42  1  0  0  0  0
 21 43  1  0  0  0  0
 22  5  1  0  0  0  0
 22  4  2  0  0  0  0
 23 44  1  0  0  0  0
 23 45  1  0  0  0  0
 25 10  1  0  0  0  0
 26 11  1  0  0  0  0
 30 13  1  0  0  0  0
 32 14  1  0  0  0  0
 34 15  1  0  0  0  0
 36 16  1  0  0  0  0
 38 17  1  0  0  0  0
 39 17  1  0  0  0  0
 40 19  1  0  0  0  0
 41 21  1  0  0  0  0
 46 23  1  0  0  0  0
M  END
