3
q = 0.0, confidence = 0.986

 52 58  0  0  1  0  0  0  0  0999 V2000
    3.2341   -3.1509   -0.4121 S   0  0  0  0  0  0  0  0  0  0  0  0
    3.2349    3.1502   -0.4119 S   0  0  0  0  0  0  0  0  0  0  0  0
   -0.7465    0.0001    0.3125 P   0  0  2  0  0  0  0  0  0  0  0  0
    0.4970   -1.3209    0.2317 C   0  0  1  0  0  3  0  0  0  0  0  0
    1.7431   -0.7521    0.0142 C   0  0  0  0  0  0  0  0  0  0  0  0
    2.9917   -1.4250   -0.2685 C   0  0  0  0  0  0  0  0  0  0  0  0
    4.1832   -0.7267   -0.5454 C   0  0  0  0  0  0  0  0  0  0  0  0
    5.2708   -1.6015   -0.8588 C   0  0  0  0  0  0  0  0  0  0  0  0
    6.2856   -1.2619   -1.1039 H   0  0  0  0  0  0  0  0  0  0  0  0
    4.9010   -2.9305   -0.8277 C   0  0  0  0  0  0  0  0  0  0  0  0
    5.5274   -3.8095   -1.0236 H   0  0  0  0  0  0  0  0  0  0  0  0
    0.4973    1.3208    0.2319 C   0  0  2  0  0  3  0  0  0  0  0  0
    1.7433    0.7517    0.0143 C   0  0  0  0  0  0  0  0  0  0  0  0
    2.9920    1.4243   -0.2684 C   0  0  0  0  0  0  0  0  0  0  0  0
    4.1834    0.7257   -0.5454 C   0  0  0  0  0  0  0  0  0  0  0  0
    5.2712    1.6003   -0.8587 C   0  0  0  0  0  0  0  0  0  0  0  0
    6.2859    1.2604   -1.1039 H   0  0  0  0  0  0  0  0  0  0  0  0
    4.9017    2.9293   -0.8277 C   0  0  0  0  0  0  0  0  0  0  0  0
    5.5283    3.8082   -1.0236 H   0  0  0  0  0  0  0  0  0  0  0  0
    0.1249   -2.7287    0.4256 C   0  0  0  0  0  0  0  0  0  0  0  0
   -0.8779   -3.3404   -0.3644 C   0  0  0  0  0  0  0  0  0  0  0  0
   -1.3498   -2.7636   -1.1752 H   0  0  0  0  0  0  0  0  0  0  0  0
   -1.2578   -4.6684   -0.1293 C   0  0  0  0  0  0  0  0  0  0  0  0
   -2.0344   -5.1290   -0.7584 H   0  0  0  0  0  0  0  0  0  0  0  0
   -0.6514   -5.4076    0.8989 C   0  0  0  0  0  0  0  0  0  0  0  0
   -0.9524   -6.4503    1.0817 H   0  0  0  0  0  0  0  0  0  0  0  0
    0.3341   -4.8073    1.6999 C   0  0  0  0  0  0  0  0  0  0  0  0
    0.8014   -5.3747    2.5192 H   0  0  0  0  0  0  0  0  0  0  0  0
    0.7166   -3.4801    1.4704 C   0  0  0  0  0  0  0  0  0  0  0  0
    1.4707   -3.0024    2.1137 H   0  0  0  0  0  0  0  0  0  0  0  0
    0.1257    2.7287    0.4259 C   0  0  0  0  0  0  0  0  0  0  0  0
    0.7177    3.4799    1.4708 C   0  0  0  0  0  0  0  0  0  0  0  0
    1.4716    3.0018    2.1140 H   0  0  0  0  0  0  0  0  0  0  0  0
    0.3356    4.8072    1.7005 C   0  0  0  0  0  0  0  0  0  0  0  0
    0.8030    5.3743    2.5198 H   0  0  0  0  0  0  0  0  0  0  0  0
   -0.6498    5.4078    0.8995 C   0  0  0  0  0  0  0  0  0  0  0  0
   -0.9504    6.4505    1.0824 H   0  0  0  0  0  0  0  0  0  0  0  0
   -1.2565    4.6689   -0.1288 C   0  0  0  0  0  0  0  0  0  0  0  0
   -2.0329    5.1297   -0.7577 H   0  0  0  0  0  0  0  0  0  0  0  0
   -0.8769    3.3408   -0.3639 C   0  0  0  0  0  0  0  0  0  0  0  0
   -1.3490    2.7642   -1.1748 H   0  0  0  0  0  0  0  0  0  0  0  0
   -1.3990   -0.0000    2.0205 C   0  0  0  0  0  0  0  0  0  0  0  0
   -0.4970    0.0000    3.1048 C   0  0  0  0  0  0  0  0  0  0  0  0
    0.5879    0.0002    2.9142 H   0  0  0  0  0  0  0  0  0  0  0  0
   -0.9883   -0.0002    4.4159 C   0  0  0  0  0  0  0  0  0  0  0  0
   -0.2863   -0.0002    5.2634 H   0  0  0  0  0  0  0  0  0  0  0  0
   -2.3755   -0.0004    4.6486 C   0  0  0  0  0  0  0  0  0  0  0  0
   -2.7581   -0.0006    5.6805 H   0  0  0  0  0  0  0  0  0  0  0  0
   -3.2712   -0.0005    3.5694 C   0  0  0  0  0  0  0  0  0  0  0  0
   -4.3566   -0.0006    3.7502 H   0  0  0  0  0  0  0  0  0  0  0  0
   -2.7864   -0.0002    2.2515 C   0  0  0  0  0  0  0  0  0  0  0  0
   -3.4797   -0.0003    1.3957 H   0  0  0  0  0  0  0  0  0  0  0  0
  1  6  1  0  0  0  0
  2 14  1  0  0  0  0
  3 42  1  1  0  0  0
  4  3  1  0  0  0  0
  4 20  1  1  0  0  0
  5 13  1  0  0  0  0
  5  4  1  0  0  0  0
  6  5  2  0  0  0  0
  7 15  2  0  0  0  0
  7  6  1  0  0  0  0
  8 10  2  0  0  0  0
  8  7  1  0  0  0  0
  9  8  1  0  0  0  0
 10  1  1  0  0  0  0
 11 10  1  0  0  0  0
 12  3  1  0  0  0  0
 12 31  1  1  0  0  0
 13 12  1  0  0  0  0
 14 13  2  0  0  0  0
 15 14  1  0  0  0  0
 16 18  2  0  0  0  0
 16 15  1  0  0  0  0
 17 16  1  0  0  0  0
 18  2  1  0  0  0  0
 19 18  1  0  0  0  0
 20 29  1  0  0  0  0
 21 23  1  0  0  0  0
 21 20  2  0  0  0  0
 22 21  1  0  0  0  0
 23 25  2  0  0  0  0
 24 23  1  0  0  0  0
 25 26  1  0  0  0  0
 25 27  1  0  0  0  0
 27 28  1  0  0  0  0
 29 27  2  0  0  0  0
 29 30  1  0  0  0  0
 31 32  1  0  0  0  0
 32 34  2  0  0  0  0
 32 33  1  0  0  0  0
 34 35  1  0  0  0  0
 36 37  1  0  0  0  0
 36 34  1  0  0  0  0
 38 36  2  0  0  0  0
 39 38  1  0  0  0  0
 40 38  1  0  0  0  0
 40 31  2  0  0  0  0
 41 40  1  0  0  0  0
 42 51  2  0  0  0  0
 42 43  1  0  0  0  0
 43 45  2  0  0  0  0
 44 43  1  0  0  0  0
 45 47  1  0  0  0  0
 45 46  1  0  0  0  0
 47 48  1  0  0  0  0
 49 50  1  0  0  0  0
 49 47  2  0  0  0  0
 51 49  1  0  0  0  0
 52 51  1  0  0  0  0
M  END
