1
q = 0.0, confidence = 0.996

 19 18  0  0  0  0  0  0  0  0999 V2000
    2.4521    1.6280   -0.2914 P   0  0  0  0  0  0  0  0  0  0  0  0
   -1.7915    2.8682    0.3448 Si  0  0  0  0  0  0  0  0  0  0  0  0
    0.8981    2.6219   -0.4998 C   0  0  0  0  0  0  0  0  0  0  0  0
   -0.0200    2.5010    0.7305 C   0  0  0  0  0  0  0  0  0  0  0  0
    3.3823    2.5011    1.0363 C   0  0  0  0  0  0  0  0  0  0  0  0
    3.4075    1.9860   -1.8179 C   0  0  0  0  0  0  0  0  0  0  0  0
   -2.3587    1.7761   -0.7204 F   0  0  0  0  0  0  0  0  0  0  0  0
   -1.9923    4.3247   -0.3372 F   0  0  0  0  0  0  0  0  0  0  0  0
   -2.7302    2.8101    1.6613 F   0  0  0  0  0  0  0  0  0  0  0  0
    0.4265    2.1631   -1.3950 H   0  0  0  0  0  0  0  0  0  0  0  0
    1.1352    3.6806   -0.7357 H   0  0  0  0  0  0  0  0  0  0  0  0
    0.0086    1.4501    1.1059 H   0  0  0  0  0  0  0  0  0  0  0  0
    0.3214    3.1415    1.5705 H   0  0  0  0  0  0  0  0  0  0  0  0
    2.8277    2.4215    1.9911 H   0  0  0  0  0  0  0  0  0  0  0  0
    3.5400    3.5694    0.7853 H   0  0  0  0  0  0  0  0  0  0  0  0
    4.3640    2.0072    1.1732 H   0  0  0  0  0  0  0  0  0  0  0  0
    4.4073    1.5170   -1.7374 H   0  0  0  0  0  0  0  0  0  0  0  0
    3.5186    3.0768   -1.9821 H   0  0  0  0  0  0  0  0  0  0  0  0
    2.8636    1.5176   -2.6609 H   0  0  0  0  0  0  0  0  0  0  0  0
  1  5  1  0  0  0  0
  2  4  1  0  0  0  0
  2  9  1  0  0  0  0
  3  1  1  0  0  0  0
  3  4  1  0  0  0  0
  4 12  1  0  0  0  0
  4 13  1  0  0  0  0
  5 16  1  0  0  0  0
  5 14  1  0  0  0  0
  6 17  1  0  0  0  0
  6  1  1  0  0  0  0
  7  2  1  0  0  0  0
  8  2  1  0  0  0  0
 10  3  1  0  0  0  0
 11  3  1  0  0  0  0
 15  5  1  0  0  0  0
 18  6  1  0  0  0  0
 19  6  1  0  0  0  0
M  END
