1
q = 0.0, confidence = 0.998

 33 34  0  0  1  0  0  0  0  0999 V2000
   -0.4696    1.3784   -0.0474 P   0  0  1  0  0  0  0  0  0  0  0  0
   -0.2855    2.6914   -1.1503 O   0  0  0  0  0  0  0  0  0  0  0  0
   -0.1389    3.1480    0.2201 C   0  0  2  0  0  0  0  0  0  0  0  0
   -0.9941    3.7661    0.5583 H   0  0  0  0  0  0  0  0  0  0  0  0
    1.2144    3.6858    0.5989 C   0  0  0  0  0  0  0  0  0  0  0  0
    2.0288    3.0109    0.2763 H   0  0  0  0  0  0  0  0  0  0  0  0
    1.2847    3.8251    1.6961 H   0  0  0  0  0  0  0  0  0  0  0  0
    1.3743    4.6713    0.1131 H   0  0  0  0  0  0  0  0  0  0  0  0
   -2.3399    1.1032    0.0084 C   0  0  1  0  0  0  0  0  0  0  0  0
   -2.6015    0.1703   -1.1606 C   0  0  0  0  0  0  0  0  0  0  0  0
   -2.9413   -1.0612   -0.6555 C   0  0  0  0  0  0  0  0  0  0  0  0
   -2.9332   -1.0115    0.8203 C   0  0  0  0  0  0  0  0  0  0  0  0
   -2.5760    0.2481    1.2369 C   0  0  0  0  0  0  0  0  0  0  0  0
   -3.1493    2.4028   -0.0447 C   0  0  0  0  0  0  0  0  0  0  0  0
   -2.8357    3.0318   -0.9009 H   0  0  0  0  0  0  0  0  0  0  0  0
   -3.0427    2.9922    0.8867 H   0  0  0  0  0  0  0  0  0  0  0  0
   -4.2220    2.1506   -0.1663 H   0  0  0  0  0  0  0  0  0  0  0  0
   -2.5151    0.6137   -2.5865 C   0  0  0  0  0  0  0  0  0  0  0  0
   -2.5925   -0.2425   -3.2827 H   0  0  0  0  0  0  0  0  0  0  0  0
   -1.5626    1.1416   -2.8004 H   0  0  0  0  0  0  0  0  0  0  0  0
   -3.3278    1.3296   -2.8412 H   0  0  0  0  0  0  0  0  0  0  0  0
   -3.2835   -2.3024   -1.4177 C   0  0  0  0  0  0  0  0  0  0  0  0
   -3.2342   -2.1483   -2.5114 H   0  0  0  0  0  0  0  0  0  0  0  0
   -4.3048   -2.6598   -1.1667 H   0  0  0  0  0  0  0  0  0  0  0  0
   -2.5883   -3.1308   -1.1656 H   0  0  0  0  0  0  0  0  0  0  0  0
   -3.2938   -2.1917    1.6657 C   0  0  0  0  0  0  0  0  0  0  0  0
   -3.2123   -1.9744    2.7468 H   0  0  0  0  0  0  0  0  0  0  0  0
   -2.6356   -3.0585    1.4496 H   0  0  0  0  0  0  0  0  0  0  0  0
   -4.3339   -2.5234    1.4598 H   0  0  0  0  0  0  0  0  0  0  0  0
   -2.4224    0.7703    2.6297 C   0  0  0  0  0  0  0  0  0  0  0  0
   -3.1458    1.5857    2.8523 H   0  0  0  0  0  0  0  0  0  0  0  0
   -1.4084    1.1934    2.8043 H   0  0  0  0  0  0  0  0  0  0  0  0
   -2.5769   -0.0265    3.3814 H   0  0  0  0  0  0  0  0  0  0  0  0
  1  2  1  6  0  0  0
  1  9  1  0  0  0  0
  1  3  1  0  0  0  0
  2  3  1  0  0  0  0
  3  4  1  1  0  0  0
  3  5  1  0  0  0  0
  5  7  1  0  0  0  0
  6  5  1  0  0  0  0
  8  5  1  0  0  0  0
  9 14  1  6  0  0  0
  9 13  1  0  0  0  0
 10 11  2  0  0  0  0
 10  9  1  0  0  0  0
 11 12  1  0  0  0  0
 12 13  2  0  0  0  0
 12 26  1  0  0  0  0
 13 30  1  0  0  0  0
 14 16  1  0  0  0  0
 15 14  1  0  0  0  0
 17 14  1  0  0  0  0
 18 10  1  0  0  0  0
 19 18  1  0  0  0  0
 20 18  1  0  0  0  0
 21 18  1  0  0  0  0
 22 24  1  0  0  0  0
 22 25  1  0  0  0  0
 22 11  1  0  0  0  0
 23 22  1  0  0  0  0
 26 27  1  0  0  0  0
 28 26  1  0  0  0  0
 29 26  1  0  0  0  0
 30 32  1  0  0  0  0
 30 31  1  0  0  0  0
 30 33  1  0  0  0  0
M  END
