1
q = 0.0, confidence = 0.996

 72 78  0  0  1  0  0  0  0  0999 V2000
    0.9386   -1.2173    0.4986 P   0  0  0  0  0  0  0  0  0  0  0  0
   -3.0079    2.8602   -0.4287 N   0  0  0  0  0  0  0  0  0  0  0  0
   -3.3458    3.4493    0.3318 H   0  0  0  0  0  0  0  0  0  0  0  0
    0.1231   -0.1354    1.7365 C   0  0  0  0  0  0  0  0  0  0  0  0
   -1.2845   -0.0937    1.7855 C   0  0  0  0  0  0  0  0  0  0  0  0
   -1.8788   -0.6917    1.0773 H   0  0  0  0  0  0  0  0  0  0  0  0
   -1.9277    0.7311    2.7221 C   0  0  0  0  0  0  0  0  0  0  0  0
   -3.0268    0.7564    2.7404 H   0  0  0  0  0  0  0  0  0  0  0  0
   -1.1742    1.5154    3.6085 C   0  0  0  0  0  0  0  0  0  0  0  0
   -1.6808    2.1670    4.3367 H   0  0  0  0  0  0  0  0  0  0  0  0
    0.2292    1.4773    3.5611 C   0  0  0  0  0  0  0  0  0  0  0  0
    0.8236    2.1054    4.2414 H   0  0  0  0  0  0  0  0  0  0  0  0
    0.8773    0.6582    2.6272 C   0  0  0  0  0  0  0  0  0  0  0  0
    1.9764    0.6649    2.5620 H   0  0  0  0  0  0  0  0  0  0  0  0
    1.6756   -2.6108    1.4555 C   0  0  0  0  0  0  0  0  0  0  0  0
    1.8462   -3.8422    0.7882 C   0  0  0  0  0  0  0  0  0  0  0  0
    1.4989   -3.9425   -0.2532 H   0  0  0  0  0  0  0  0  0  0  0  0
    2.4351   -4.9298    1.4497 C   0  0  0  0  0  0  0  0  0  0  0  0
    2.5632   -5.8852    0.9190 H   0  0  0  0  0  0  0  0  0  0  0  0
    2.8428   -4.8029    2.7869 C   0  0  0  0  0  0  0  0  0  0  0  0
    3.2957   -5.6592    3.3095 H   0  0  0  0  0  0  0  0  0  0  0  0
    2.6589   -3.5850    3.4610 C   0  0  0  0  0  0  0  0  0  0  0  0
    2.9641   -3.4849    4.5137 H   0  0  0  0  0  0  0  0  0  0  0  0
    2.0800   -2.4912    2.8002 C   0  0  0  0  0  0  0  0  0  0  0  0
    1.9298   -1.5467    3.3421 H   0  0  0  0  0  0  0  0  0  0  0  0
    2.4057   -0.2509   -0.0876 C   0  0  0  0  0  0  0  0  0  0  0  0
    3.6870   -0.8739   -0.1000 C   0  0  0  0  0  0  0  0  0  0  0  0
    3.7969   -1.8914    0.3015 H   0  0  0  0  0  0  0  0  0  0  0  0
    4.7928   -0.2073   -0.5985 C   0  0  0  0  0  0  0  0  0  0  0  0
    5.7811   -0.6924   -0.5895 H   0  0  0  0  0  0  0  0  0  0  0  0
    4.6741    1.1038   -1.1386 C   0  0  0  0  0  0  0  0  0  0  0  0
    5.7950    1.7981   -1.6816 C   0  0  0  0  0  0  0  0  0  0  0  0
    6.7790    1.3042   -1.6626 H   0  0  0  0  0  0  0  0  0  0  0  0
    5.6508    3.0616   -2.2326 C   0  0  0  0  0  0  0  0  0  0  0  0
    6.5232    3.5848   -2.6523 H   0  0  0  0  0  0  0  0  0  0  0  0
    4.3714    3.6786   -2.2708 C   0  0  0  0  0  0  0  0  0  0  0  0
    4.2584    4.6723   -2.7298 H   0  0  0  0  0  0  0  0  0  0  0  0
    3.2629    3.0335   -1.7443 C   0  0  0  0  0  0  0  0  0  0  0  0
    2.2742    3.5111   -1.7928 H   0  0  0  0  0  0  0  0  0  0  0  0
    3.3783    1.7393   -1.1504 C   0  0  0  0  0  0  0  0  0  0  0  0
    2.2465    1.0508   -0.5937 C   0  0  0  0  0  0  0  0  0  0  0  0
   -0.7301    3.2742    0.3731 C   0  0  0  0  0  0  0  0  0  0  0  0
    0.6256    2.8292    0.3086 C   0  0  0  0  0  0  0  0  0  0  0  0
    1.6067    3.4892    1.0980 C   0  0  0  0  0  0  0  0  0  0  0  0
    2.6476    3.1392    1.0587 H   0  0  0  0  0  0  0  0  0  0  0  0
    1.2555    4.5618    1.9087 C   0  0  0  0  0  0  0  0  0  0  0  0
    2.0240    5.0656    2.5143 H   0  0  0  0  0  0  0  0  0  0  0  0
   -0.0856    5.0117    1.9596 C   0  0  0  0  0  0  0  0  0  0  0  0
   -0.3546    5.8675    2.5967 H   0  0  0  0  0  0  0  0  0  0  0  0
   -1.0634    4.3754    1.2012 C   0  0  0  0  0  0  0  0  0  0  0  0
   -2.0980    4.7492    1.2404 H   0  0  0  0  0  0  0  0  0  0  0  0
   -1.6830    2.5400   -0.4383 C   0  0  0  0  0  0  0  0  0  0  0  0
   -1.3108    1.5438   -1.2575 N   0  0  0  0  0  0  0  0  0  0  0  0
   -0.0363    1.1416   -1.3035 N   0  0  0  0  0  0  0  0  0  0  0  0
    0.9042    1.7062   -0.5520 C   0  0  0  0  0  0  0  0  0  0  0  0
   -4.0155    2.0805   -1.1591 C   0  0  2  0  0  0  0  0  0  0  0  0
   -3.5375    1.8047   -2.1188 H   0  0  0  0  0  0  0  0  0  0  0  0
   -5.2354    2.9639   -1.4246 C   0  0  0  0  0  0  0  0  0  0  0  0
   -5.9969    2.4008   -1.9971 H   0  0  0  0  0  0  0  0  0  0  0  0
   -4.9492    3.8642   -2.0039 H   0  0  0  0  0  0  0  0  0  0  0  0
   -5.7144    3.2982   -0.4797 H   0  0  0  0  0  0  0  0  0  0  0  0
   -4.3517    0.7786   -0.4359 C   0  0  0  0  0  0  0  0  0  0  0  0
   -5.0463    0.7856    0.7912 C   0  0  0  0  0  0  0  0  0  0  0  0
   -5.3821    1.7395    1.2311 H   0  0  0  0  0  0  0  0  0  0  0  0
   -5.3157   -0.4140    1.4677 C   0  0  0  0  0  0  0  0  0  0  0  0
   -5.8609   -0.3940    2.4243 H   0  0  0  0  0  0  0  0  0  0  0  0
   -4.8928   -1.6391    0.9226 C   0  0  0  0  0  0  0  0  0  0  0  0
   -5.1012   -2.5802    1.4542 H   0  0  0  0  0  0  0  0  0  0  0  0
   -4.2074   -1.6563   -0.3020 C   0  0  0  0  0  0  0  0  0  0  0  0
   -3.8556   -2.5970   -0.7523 H   0  0  0  0  0  0  0  0  0  0  0  0
   -3.9374   -0.4533   -0.9745 C   0  0  0  0  0  0  0  0  0  0  0  0
   -3.3729   -0.4854   -1.9187 H   0  0  0  0  0  0  0  0  0  0  0  0
  1 15  1  0  0  0  0
  1  4  1  0  0  0  0
  2  3  1  0  0  0  0
  4  5  2  0  0  0  0
  4 13  1  0  0  0  0
  5  7  1  0  0  0  0
  6  5  1  0  0  0  0
  7  8  1  0  0  0  0
  7  9  2  0  0  0  0
  9 10  1  0  0  0  0
 11  9  1  0  0  0  0
 11 12  1  0  0  0  0
 13 11  2  0  0  0  0
 14 13  1  0  0  0  0
 15 24  1  0  0  0  0
 16 18  1  0  0  0  0
 16 15  2  0  0  0  0
 17 16  1  0  0  0  0
 18 20  2  0  0  0  0
 19 18  1  0  0  0  0
 20 21  1  0  0  0  0
 20 22  1  0  0  0  0
 22 23  1  0  0  0  0
 24 25  1  0  0  0  0
 24 22  2  0  0  0  0
 26  1  1  0  0  0  0
 27 26  1  0  0  0  0
 27 28  1  0  0  0  0
 29 30  1  0  0  0  0
 29 27  2  0  0  0  0
 31 29  1  0  0  0  0
 32 33  1  0  0  0  0
 32 31  2  0  0  0  0
 34 32  1  0  0  0  0
 35 34  1  0  0  0  0
 36 34  2  0  0  0  0
 36 38  1  0  0  0  0
 37 36  1  0  0  0  0
 38 40  2  0  0  0  0
 39 38  1  0  0  0  0
 40 31  1  0  0  0  0
 40 41  1  0  0  0  0
 41 55  1  0  0  0  0
 41 26  2  0  0  0  0
 42 50  2  0  0  0  0
 43 42  1  0  0  0  0
 43 44  2  0  0  0  0
 44 46  1  0  0  0  0
 45 44  1  0  0  0  0
 46 48  2  0  0  0  0
 46 47  1  0  0  0  0
 48 49  1  0  0  0  0
 50 51  1  0  0  0  0
 50 48  1  0  0  0  0
 52  2  1  0  0  0  0
 52 42  1  0  0  0  0
 53 52  2  0  0  0  0
 54 53  1  0  0  0  0
 54 55  2  0  0  0  0
 55 43  1  0  0  0  0
 56 57  1  6  0  0  0
 56 62  1  0  0  0  0
 56  2  1  0  0  0  0
 58 56  1  0  0  0  0
 58 61  1  0  0  0  0
 59 58  1  0  0  0  0
 60 58  1  0  0  0  0
 62 63  1  0  0  0  0
 63 64  1  0  0  0  0
 63 65  2  0  0  0  0
 65 66  1  0  0  0  0
 67 68  1  0  0  0  0
 67 65  1  0  0  0  0
 69 67  2  0  0  0  0
 70 69  1  0  0  0  0
 71 62  2  0  0  0  0
 71 69  1  0  0  0  0
 72 71  1  0  0  0  0
M  END
