45
q = 0.0, confidence = 1.0

 45 47  0  0  1  0  0  0  0  0999 V2000
    5.1912   -2.2143   -2.2303 C   0  0  0  0  0  0  0  0  0  0  0  0
    5.8442   -1.4073   -1.8411 H   0  0  0  0  0  0  0  0  0  0  0  0
    5.4477   -2.4475   -3.2786 H   0  0  0  0  0  0  0  0  0  0  0  0
    5.3250   -3.1089   -1.5898 H   0  0  0  0  0  0  0  0  0  0  0  0
    3.3042   -1.4540   -1.0436 C   0  0  0  0  0  0  0  0  0  0  0  0
    1.8793   -0.9559   -1.1799 C   0  0  0  0  0  0  0  0  0  0  0  0
    1.3390   -1.5011   -1.9785 H   0  0  0  0  0  0  0  0  0  0  0  0
    1.9461    0.0978   -1.5306 H   0  0  0  0  0  0  0  0  0  0  0  0
    1.1085   -1.0761    0.1413 C   0  0  2  0  0  0  0  0  0  0  0  0
    1.8247   -1.1467    0.9854 H   0  0  0  0  0  0  0  0  0  0  0  0
    0.1712   -2.2684    0.1918 C   0  0  0  0  0  0  0  0  0  0  0  0
   -0.0389   -2.9738    1.3938 C   0  0  0  0  0  0  0  0  0  0  0  0
    0.5144   -2.6952    2.3028 H   0  0  0  0  0  0  0  0  0  0  0  0
   -0.9711   -4.0194    1.4066 C   0  0  0  0  0  0  0  0  0  0  0  0
   -1.1580   -4.5859    2.3315 H   0  0  0  0  0  0  0  0  0  0  0  0
   -1.6607   -4.3263    0.2248 C   0  0  0  0  0  0  0  0  0  0  0  0
   -2.4044   -5.1359    0.1892 H   0  0  0  0  0  0  0  0  0  0  0  0
   -1.3758   -3.5710   -0.9246 C   0  0  0  0  0  0  0  0  0  0  0  0
   -1.8943   -3.7793   -1.8768 H   0  0  0  0  0  0  0  0  0  0  0  0
    1.3174    1.8138    0.6679 C   0  0  0  0  0  0  0  0  0  0  0  0
    2.6747    1.5775    0.9742 C   0  0  0  0  0  0  0  0  0  0  0  0
    3.0763    0.5545    1.0409 H   0  0  0  0  0  0  0  0  0  0  0  0
    3.5446    2.6632    1.1661 C   0  0  0  0  0  0  0  0  0  0  0  0
    4.6039    2.4725    1.3958 H   0  0  0  0  0  0  0  0  0  0  0  0
    3.0711    3.9799    1.0615 C   0  0  0  0  0  0  0  0  0  0  0  0
    3.7582    4.8262    1.2129 H   0  0  0  0  0  0  0  0  0  0  0  0
    1.7220    4.2166    0.7502 C   0  0  0  0  0  0  0  0  0  0  0  0
    1.3480    5.2470    0.6543 H   0  0  0  0  0  0  0  0  0  0  0  0
    0.8491    3.1397    0.5459 C   0  0  0  0  0  0  0  0  0  0  0  0
   -0.2044    3.3196    0.2783 H   0  0  0  0  0  0  0  0  0  0  0  0
   -0.6082    0.1763    2.1146 C   0  0  0  0  0  0  0  0  0  0  0  0
    0.1878    0.3020    3.2712 C   0  0  0  0  0  0  0  0  0  0  0  0
    1.2255    0.6615    3.1914 H   0  0  0  0  0  0  0  0  0  0  0  0
   -0.3473   -0.0218    4.5265 C   0  0  0  0  0  0  0  0  0  0  0  0
    0.2749    0.0815    5.4284 H   0  0  0  0  0  0  0  0  0  0  0  0
   -1.6750   -0.4695    4.6332 C   0  0  0  0  0  0  0  0  0  0  0  0
   -2.0926   -0.7197    5.6204 H   0  0  0  0  0  0  0  0  0  0  0  0
   -2.4712   -0.5877    3.4832 C   0  0  0  0  0  0  0  0  0  0  0  0
   -3.5135   -0.9311    3.5640 H   0  0  0  0  0  0  0  0  0  0  0  0
   -1.9422   -0.2633    2.2252 C   0  0  0  0  0  0  0  0  0  0  0  0
   -2.5587   -0.3508    1.3162 H   0  0  0  0  0  0  0  0  0  0  0  0
   -0.4855   -2.5692   -0.9425 N   0  0  0  0  0  0  0  0  0  0  0  0
    3.9365   -1.5066    0.0002 O   0  0  0  0  0  0  0  0  0  0  0  0
    3.8183   -1.7981   -2.2415 O   0  0  0  0  0  0  0  0  0  0  0  0
    0.0890    0.4699    0.4427 P   0  0  0  0  0  0  0  0  0  0  0  0
  1  2  1  0  0  0  0
  1  4  1  0  0  0  0
  3  1  1  0  0  0  0
  5 43  2  0  0  0  0
  6  5  1  0  0  0  0
  6  9  1  0  0  0  0
  7  6  1  0  0  0  0
  8  6  1  0  0  0  0
  9 11  1  0  0  0  0
  9 45  1  0  0  0  0
  9 10  1  1  0  0  0
 11 12  1  0  0  0  0
 12 14  2  0  0  0  0
 12 13  1  0  0  0  0
 14 15  1  0  0  0  0
 16 14  1  0  0  0  0
 17 16  1  0  0  0  0
 18 16  2  0  0  0  0
 19 18  1  0  0  0  0
 20 21  1  0  0  0  0
 21 22  1  0  0  0  0
 21 23  2  0  0  0  0
 23 24  1  0  0  0  0
 25 23  1  0  0  0  0
 25 26  1  0  0  0  0
 27 25  2  0  0  0  0
 28 27  1  0  0  0  0
 29 20  2  0  0  0  0
 29 27  1  0  0  0  0
 30 29  1  0  0  0  0
 31 40  2  0  0  0  0
 31 32  1  0  0  0  0
 32 34  2  0  0  0  0
 33 32  1  0  0  0  0
 34 36  1  0  0  0  0
 34 35  1  0  0  0  0
 36 37  1  0  0  0  0
 38 39  1  0  0  0  0
 38 36  2  0  0  0  0
 40 38  1  0  0  0  0
 41 40  1  0  0  0  0
 42 18  1  0  0  0  0
 42 11  2  0  0  0  0
 44  1  1  0  0  0  0
 44  5  1  0  0  0  0
 45 20  1  0  0  0  0
 45 31  1  0  0  0  0
M  END
