1
q = 0.0, confidence = 0.994

 35 36  0  0  1  0  0  0  0  0999 V2000
   -2.3123   -0.2004   -0.1795 P   0  0  1  0  0  0  0  0  0  0  0  0
   -2.8596   -1.7707   -0.6265 N   0  0  0  0  0  0  0  0  0  0  0  0
   -3.1775    0.9382   -1.3520 C   0  0  2  0  0  0  0  0  0  0  0  0
   -2.8084    2.3726   -0.9030 C   0  0  0  0  0  0  0  0  0  0  0  0
   -3.2689    3.0865   -1.6200 H   0  0  0  0  0  0  0  0  0  0  0  0
   -1.7104    2.4754   -1.0318 H   0  0  0  0  0  0  0  0  0  0  0  0
   -3.2067    2.7726    0.5332 C   0  0  0  0  0  0  0  0  0  0  0  0
   -2.6722    3.7122    0.7881 H   0  0  0  0  0  0  0  0  0  0  0  0
   -4.2822    3.0362    0.5622 H   0  0  0  0  0  0  0  0  0  0  0  0
   -2.8998    1.7335    1.6313 C   0  0  0  0  0  0  0  0  0  0  0  0
   -1.8115    1.7369    1.8555 H   0  0  0  0  0  0  0  0  0  0  0  0
   -3.4048    2.0390    2.5730 H   0  0  0  0  0  0  0  0  0  0  0  0
   -3.2884    0.2684    1.3245 C   0  0  1  0  0  0  0  0  0  0  0  0
   -2.9029   -0.3543    2.1581 H   0  0  0  0  0  0  0  0  0  0  0  0
   -4.7835   -0.0313    1.1041 C   0  0  0  0  0  0  0  0  0  0  0  0
   -5.3329    0.2224    2.0370 H   0  0  0  0  0  0  0  0  0  0  0  0
   -4.8866   -1.1277    0.9665 H   0  0  0  0  0  0  0  0  0  0  0  0
   -5.4531    0.6848   -0.0846 C   0  0  0  0  0  0  0  0  0  0  0  0
   -6.4606    0.2435   -0.2375 H   0  0  0  0  0  0  0  0  0  0  0  0
   -5.6397    1.7449    0.1755 H   0  0  0  0  0  0  0  0  0  0  0  0
   -4.6842    0.6093   -1.4181 C   0  0  0  0  0  0  0  0  0  0  0  0
   -4.8012   -0.4096   -1.8429 H   0  0  0  0  0  0  0  0  0  0  0  0
   -5.1558    1.3015   -2.1499 H   0  0  0  0  0  0  0  0  0  0  0  0
   -2.2367   -2.9384    0.0347 C   0  0  0  0  0  0  0  0  0  0  0  0
   -1.9484   -2.6027    1.0558 H   0  0  0  0  0  0  0  0  0  0  0  0
   -3.2718   -4.0600    0.1563 C   0  0  0  0  0  0  0  0  0  0  0  0
   -3.6018   -4.3992   -0.8487 H   0  0  0  0  0  0  0  0  0  0  0  0
   -2.8472   -4.9372    0.6850 H   0  0  0  0  0  0  0  0  0  0  0  0
   -4.1674   -3.7140    0.7088 H   0  0  0  0  0  0  0  0  0  0  0  0
   -0.9589   -3.3969   -0.6760 C   0  0  0  0  0  0  0  0  0  0  0  0
   -0.2319   -2.5578   -0.7228 H   0  0  0  0  0  0  0  0  0  0  0  0
   -0.4815   -4.2424   -0.1404 H   0  0  0  0  0  0  0  0  0  0  0  0
   -1.1799   -3.7293   -1.7134 H   0  0  0  0  0  0  0  0  0  0  0  0
   -2.7127    0.7786   -2.3476 H   0  0  0  0  0  0  0  0  0  0  0  0
   -2.8920   -1.8816   -1.6487 H   0  0  0  0  0  0  0  0  0  0  0  0
  1  2  1  6  0  0  0
  1 13  1  0  0  0  0
  2 24  1  0  0  0  0
  3 34  1  6  0  0  0
  3  4  1  0  0  0  0
  3  1  1  0  0  0  0
  4  7  1  0  0  0  0
  5  4  1  0  0  0  0
  6  4  1  0  0  0  0
  7  9  1  0  0  0  0
  7  8  1  0  0  0  0
  7 10  1  0  0  0  0
 10 11  1  0  0  0  0
 10 12  1  0  0  0  0
 13 10  1  0  0  0  0
 13 14  1  1  0  0  0
 15 13  1  0  0  0  0
 15 16  1  0  0  0  0
 17 15  1  0  0  0  0
 18 20  1  0  0  0  0
 18 15  1  0  0  0  0
 19 18  1  0  0  0  0
 21  3  1  0  0  0  0
 21 18  1  0  0  0  0
 22 21  1  0  0  0  0
 23 21  1  0  0  0  0
 24 26  1  0  0  0  0
 24 25  1  0  0  0  0
 26 28  1  0  0  0  0
 26 29  1  0  0  0  0
 27 26  1  0  0  0  0
 30 32  1  0  0  0  0
 30 24  1  0  0  0  0
 31 30  1  0  0  0  0
 33 30  1  0  0  0  0
 35  2  1  0  0  0  0
M  END
