1
q = 0.0, confidence = 0.99

 35 37  0  0  0  0  0  0  0  0999 V2000
    1.7478   -0.2206   -0.1284 P   0  0  1  0  0  0  0  0  0  0  0  0
    3.0934   -0.8231   -1.2326 C   0  0  0  0  0  0  0  0  0  0  0  0
    2.5689    0.2492    1.4359 C   0  0  0  0  0  0  0  0  0  0  0  0
    1.4537    1.4150   -0.8745 C   0  0  0  0  0  0  0  0  0  0  0  0
    4.4407   -0.5362   -0.9469 C   0  0  0  0  0  0  0  0  0  0  0  0
    4.7098   -0.0231   -0.0114 H   0  0  0  0  0  0  0  0  0  0  0  0
    5.1042   -1.5985   -3.0320 C   0  0  0  0  0  0  0  0  0  0  0  0
    5.8925   -1.9071   -3.7355 H   0  0  0  0  0  0  0  0  0  0  0  0
    3.7584   -1.8863   -3.3139 C   0  0  0  0  0  0  0  0  0  0  0  0
    3.4893   -2.4249   -4.2349 H   0  0  0  0  0  0  0  0  0  0  0  0
    4.1250    3.2604    0.3654 C   0  0  0  0  0  0  0  0  0  0  0  0
    4.6089    2.4551   -0.2206 H   0  0  0  0  0  0  0  0  0  0  0  0
    4.7840    3.5198    1.2176 H   0  0  0  0  0  0  0  0  0  0  0  0
    4.0327    4.1548   -0.2842 H   0  0  0  0  0  0  0  0  0  0  0  0
    5.4441   -0.9293   -1.8464 C   0  0  0  0  0  0  0  0  0  0  0  0
    6.4983   -0.7149   -1.6139 H   0  0  0  0  0  0  0  0  0  0  0  0
    2.7524   -1.5082   -2.4154 C   0  0  0  0  0  0  0  0  0  0  0  0
    1.7004   -1.7607   -2.6135 H   0  0  0  0  0  0  0  0  0  0  0  0
    1.8890    2.5800   -0.3640 C   0  0  0  0  0  0  0  0  0  0  0  0
    1.6850    3.5010   -0.9384 H   0  0  0  0  0  0  0  0  0  0  0  0
    2.9186    1.5782    1.7811 C   0  0  0  0  0  0  0  0  0  0  0  0
    2.7268    2.8058    0.8768 C   0  0  0  0  0  0  0  0  0  0  0  0
    2.0685    3.9737    1.6551 C   0  0  0  0  0  0  0  0  0  0  0  0
    2.7047    4.3166    2.4932 H   0  0  0  0  0  0  0  0  0  0  0  0
    1.0863    3.6678    2.0640 H   0  0  0  0  0  0  0  0  0  0  0  0
    1.9175    4.8410    0.9808 H   0  0  0  0  0  0  0  0  0  0  0  0
    3.5303    1.7738    3.0399 C   0  0  0  0  0  0  0  0  0  0  0  0
    3.8216    2.7894    3.3449 H   0  0  0  0  0  0  0  0  0  0  0  0
    2.8201   -0.8239    2.3207 C   0  0  0  0  0  0  0  0  0  0  0  0
    2.5309   -1.8428    2.0114 H   0  0  0  0  0  0  0  0  0  0  0  0
    3.7815    0.7137    3.9183 C   0  0  0  0  0  0  0  0  0  0  0  0
    4.2569    0.9147    4.8905 H   0  0  0  0  0  0  0  0  0  0  0  0
    3.4275   -0.5956    3.5584 C   0  0  0  0  0  0  0  0  0  0  0  0
    3.6195   -1.4376    4.2398 H   0  0  0  0  0  0  0  0  0  0  0  0
    0.5701    1.3481   -2.5635 Br  0  0  0  0  0  0  0  0  0  0  0  0
  1  2  1  6  0  0  0
  1  3  1  0  0  0  0
  2  5  1  0  0  0  0
  3 21  2  0  0  0  0
  3 29  1  0  0  0  0
  4 19  2  0  0  0  0
  4  1  1  0  0  0  0
  5  6  1  0  0  0  0
  7 15  1  0  0  0  0
  8  7  1  0  0  0  0
  9  7  2  0  0  0  0
  9 17  1  0  0  0  0
 10  9  1  0  0  0  0
 11 22  1  0  0  0  0
 11 13  1  0  0  0  0
 12 11  1  0  0  0  0
 14 11  1  0  0  0  0
 15 16  1  0  0  0  0
 15  5  2  0  0  0  0
 17  2  2  0  0  0  0
 18 17  1  0  0  0  0
 19 22  1  0  0  0  0
 20 19  1  0  0  0  0
 21 27  1  0  0  0  0
 22 23  1  0  0  0  0
 22 21  1  0  0  0  0
 23 25  1  0  0  0  0
 23 24  1  0  0  0  0
 26 23  1  0  0  0  0
 27 28  1  0  0  0  0
 27 31  2  0  0  0  0
 29 33  2  0  0  0  0
 30 29  1  0  0  0  0
 31 32  1  0  0  0  0
 33 31  1  0  0  0  0
 33 34  1  0  0  0  0
 35  4  1  0  0  0  0
M  END
