1
q = 0.0, confidence = 0.988

 35 37  0  0  0  0  0  0  0  0999 V2000
   -2.2026    0.5463    0.4534 P   0  0  2  0  0  0  0  0  0  0  0  0
   -2.5462    2.3433    0.3494 C   0  0  0  0  0  0  0  0  0  0  0  0
   -1.6038    3.2023   -0.2459 C   0  0  0  0  0  0  0  0  0  0  0  0
   -0.6542    2.7873   -0.6166 H   0  0  0  0  0  0  0  0  0  0  0  0
   -3.5156   -0.2308   -0.5494 C   0  0  0  0  0  0  0  0  0  0  0  0
   -3.8304   -2.0900    1.2205 C   0  0  0  0  0  0  0  0  0  0  0  0
   -3.3624   -1.1231    2.2986 C   0  0  0  0  0  0  0  0  0  0  0  0
   -3.5472   -1.4543    3.3363 H   0  0  0  0  0  0  0  0  0  0  0  0
   -4.2071   -1.3803   -0.0912 C   0  0  0  0  0  0  0  0  0  0  0  0
   -2.6777    0.0224    2.1097 C   0  0  0  0  0  0  0  0  0  0  0  0
   -2.2791    0.6149    2.9468 H   0  0  0  0  0  0  0  0  0  0  0  0
   -1.8794    4.5739   -0.3524 C   0  0  0  0  0  0  0  0  0  0  0  0
   -1.1404    5.2440   -0.8174 H   0  0  0  0  0  0  0  0  0  0  0  0
   -3.0882    5.0896    0.1403 C   0  0  0  0  0  0  0  0  0  0  0  0
   -3.3001    6.1669    0.0609 H   0  0  0  0  0  0  0  0  0  0  0  0
   -3.7623    2.8603    0.8395 C   0  0  0  0  0  0  0  0  0  0  0  0
   -4.4984    2.1830    1.3003 H   0  0  0  0  0  0  0  0  0  0  0  0
   -4.9980   -2.9153    1.7976 C   0  0  0  0  0  0  0  0  0  0  0  0
   -5.8932   -2.2861    1.9745 H   0  0  0  0  0  0  0  0  0  0  0  0
   -5.2837   -3.7511    1.1310 H   0  0  0  0  0  0  0  0  0  0  0  0
   -4.6943   -3.3638    2.7647 H   0  0  0  0  0  0  0  0  0  0  0  0
   -3.8066    0.3376   -1.8053 C   0  0  0  0  0  0  0  0  0  0  0  0
   -3.2447    1.2229   -2.1396 H   0  0  0  0  0  0  0  0  0  0  0  0
   -4.0289    4.2326    0.7368 C   0  0  0  0  0  0  0  0  0  0  0  0
   -4.9767    4.6366    1.1240 H   0  0  0  0  0  0  0  0  0  0  0  0
   -2.6426   -3.0484    0.9056 C   0  0  0  0  0  0  0  0  0  0  0  0
   -2.2741   -3.5331    1.8330 H   0  0  0  0  0  0  0  0  0  0  0  0
   -2.9729   -3.8370    0.1997 H   0  0  0  0  0  0  0  0  0  0  0  0
   -1.8057   -2.5034    0.4250 H   0  0  0  0  0  0  0  0  0  0  0  0
   -4.8022   -0.2096   -2.6203 C   0  0  0  0  0  0  0  0  0  0  0  0
   -5.0228    0.2392   -3.6002 H   0  0  0  0  0  0  0  0  0  0  0  0
   -5.2130   -1.9061   -0.9287 C   0  0  0  0  0  0  0  0  0  0  0  0
   -5.7792   -2.7910   -0.6083 H   0  0  0  0  0  0  0  0  0  0  0  0
   -5.5104   -1.3344   -2.1733 C   0  0  0  0  0  0  0  0  0  0  0  0
   -6.3010   -1.7765   -2.7986 H   0  0  0  0  0  0  0  0  0  0  0  0
  1  2  1  1  0  0  0
  1 10  1  0  0  0  0
  2 16  1  0  0  0  0
  3  2  2  0  0  0  0
  4  3  1  0  0  0  0
  5  9  1  0  0  0  0
  5  1  1  0  0  0  0
  6 18  1  0  0  0  0
  6  7  1  0  0  0  0
  7  8  1  0  0  0  0
  9  6  1  0  0  0  0
 10  7  2  0  0  0  0
 10 11  1  0  0  0  0
 12  3  1  0  0  0  0
 12 14  2  0  0  0  0
 13 12  1  0  0  0  0
 14 24  1  0  0  0  0
 15 14  1  0  0  0  0
 16 17  1  0  0  0  0
 18 19  1  0  0  0  0
 18 21  1  0  0  0  0
 20 18  1  0  0  0  0
 22  5  2  0  0  0  0
 23 22  1  0  0  0  0
 24 16  2  0  0  0  0
 24 25  1  0  0  0  0
 26  6  1  0  0  0  0
 26 27  1  0  0  0  0
 28 26  1  0  0  0  0
 29 26  1  0  0  0  0
 30 34  2  0  0  0  0
 30 22  1  0  0  0  0
 31 30  1  0  0  0  0
 32 33  1  0  0  0  0
 32  9  2  0  0  0  0
 34 32  1  0  0  0  0
 35 34  1  0  0  0  0
M  END
