1
q = -1.0

 16 16  0  0  0  0  0  0  0  0999 V2000
    0.6703   -0.4680   -1.7322 P   0  0  0  0  0  2  0  0  0  0  0  0
    0.4028   -2.2467   -2.2855 C   0  0  0  0  0  0  0  0  0  0  0  0
    2.4667   -0.5699   -1.3424 C   0  0  0  0  0  0  0  0  0  0  0  0
    3.1981   -1.7708   -1.1457 C   0  0  0  0  0  0  0  0  0  0  0  0
    4.5722   -1.7591   -0.8554 C   0  0  0  0  0  0  0  0  0  0  0  0
    5.2753   -0.5479   -0.7586 C   0  0  0  0  0  0  0  0  0  0  0  0
    4.5818    0.6555   -0.9885 C   0  0  0  0  0  0  0  0  0  0  0  0
    3.2146    0.6379   -1.2864 C   0  0  0  0  0  0  0  0  0  0  0  0
    1.0811   -2.4633   -3.1369 H   0  0  0  0  0  0  0  0  0  0  0  0
    0.5628   -3.0383   -1.5215 H   0  0  0  0  0  0  0  0  0  0  0  0
   -0.6364   -2.3499   -2.6582 H   0  0  0  0  0  0  0  0  0  0  0  0
    2.6840   -2.7414   -1.2095 H   0  0  0  0  0  0  0  0  0  0  0  0
    5.0997   -2.7139   -0.6986 H   0  0  0  0  0  0  0  0  0  0  0  0
    6.3513   -0.5401   -0.5284 H   0  0  0  0  0  0  0  0  0  0  0  0
    5.1186    1.6170   -0.9500 H   0  0  0  0  0  0  0  0  0  0  0  0
    2.7001    1.5880   -1.5027 H   0  0  0  0  0  0  0  0  0  0  0  0
  1  3  1  0  0  0  0
  2  1  1  0  0  0  0
  2 10  1  0  0  0  0
  3  8  2  0  0  0  0
  3  4  1  0  0  0  0
  4  5  2  0  0  0  0
  5  6  1  0  0  0  0
  5 13  1  0  0  0  0
  6 14  1  0  0  0  0
  7 15  1  0  0  0  0
  7  6  2  0  0  0  0
  8  7  1  0  0  0  0
  9  2  1  0  0  0  0
 11  2  1  0  0  0  0
 12  4  1  0  0  0  0
 16  8  1  0  0  0  0
M  END
