1
q = 0.0, confidence = 0.99

 27 28  0  0  1  0  0  0  0  0999 V2000
   -1.8374    0.7522    1.0357 P   0  0  0  0  0  2  0  0  0  0  0  0
   -3.4987    0.9307   -1.3537 N   0  0  0  0  0  0  0  0  0  0  0  0
   -2.6747    2.8286   -0.6433 N   0  0  0  0  0  0  0  0  0  0  0  0
   -2.9159   -0.6882    1.4345 C   0  0  0  0  0  0  0  0  0  0  0  0
   -2.7365    1.4880   -0.3577 C   0  0  2  0  0  3  0  0  0  0  0  0
   -2.3921   -1.9996    1.4327 C   0  0  0  0  0  0  0  0  0  0  0  0
   -1.3688   -2.1678    1.0649 H   0  0  0  0  0  0  0  0  0  0  0  0
   -3.3666    3.1009   -1.8089 C   0  0  0  0  0  0  0  0  0  0  0  0
   -3.4167    4.1070   -2.2334 H   0  0  0  0  0  0  0  0  0  0  0  0
   -5.0549   -1.5832    2.2213 C   0  0  0  0  0  0  0  0  0  0  0  0
   -6.0983   -1.4145    2.5308 H   0  0  0  0  0  0  0  0  0  0  0  0
   -4.2534   -0.4933    1.8508 C   0  0  0  0  0  0  0  0  0  0  0  0
   -4.6661    0.5279    1.8836 H   0  0  0  0  0  0  0  0  0  0  0  0
   -3.8996    1.9147   -2.2426 C   0  0  0  0  0  0  0  0  0  0  0  0
   -4.5185    1.6851   -3.1143 H   0  0  0  0  0  0  0  0  0  0  0  0
   -4.5228   -2.8841    2.2168 C   0  0  0  0  0  0  0  0  0  0  0  0
   -5.1481   -3.7387    2.5170 H   0  0  0  0  0  0  0  0  0  0  0  0
   -3.1885   -3.0848    1.8281 C   0  0  0  0  0  0  0  0  0  0  0  0
   -2.7660   -4.1016    1.8130 H   0  0  0  0  0  0  0  0  0  0  0  0
   -3.7398   -0.4953   -1.5407 C   0  0  0  0  0  0  0  0  0  0  0  0
   -2.7806   -1.0467   -1.4445 H   0  0  0  0  0  0  0  0  0  0  0  0
   -4.1384   -0.6437   -2.5603 H   0  0  0  0  0  0  0  0  0  0  0  0
   -4.4626   -0.8773   -0.7947 H   0  0  0  0  0  0  0  0  0  0  0  0
   -1.8774    3.7870    0.1036 C   0  0  0  0  0  0  0  0  0  0  0  0
   -1.8804    3.4840    1.1701 H   0  0  0  0  0  0  0  0  0  0  0  0
   -2.3158    4.7955   -0.0126 H   0  0  0  0  0  0  0  0  0  0  0  0
   -0.8339    3.7595   -0.2732 H   0  0  0  0  0  0  0  0  0  0  0  0
  1  4  1  0  0  0  0
  2  5  1  0  0  0  0
  3  5  1  0  0  0  0
  3 24  1  0  0  0  0
  4 12  1  0  0  0  0
  5  1  1  6  0  0  0
  6  4  2  0  0  0  0
  6 18  1  0  0  0  0
  7  6  1  0  0  0  0
  8  3  1  0  0  0  0
  9  8  1  0  0  0  0
 10 11  1  0  0  0  0
 12 13  1  0  0  0  0
 12 10  2  0  0  0  0
 14  8  2  0  0  0  0
 14  2  1  0  0  0  0
 15 14  1  0  0  0  0
 16 10  1  0  0  0  0
 16 17  1  0  0  0  0
 18 16  2  0  0  0  0
 19 18  1  0  0  0  0
 20 21  1  0  0  0  0
 20  2  1  0  0  0  0
 20 23  1  0  0  0  0
 22 20  1  0  0  0  0
 24 25  1  0  0  0  0
 26 24  1  0  0  0  0
 27 24  1  0  0  0  0
M  END
