1
q = 0.0, confidence = 0.982

 38 40  0  0  1  0  0  0  0  0999 V2000
    0.6101    0.0478   -0.0440 P   0  0  2  0  0  0  0  0  0  0  0  0
    5.0364   -0.3536    2.2774 N   0  0  0  0  0  0  0  0  0  0  0  0
    4.9952   -0.9087   -2.2823 N   0  0  0  0  0  0  0  0  0  0  0  0
    1.5950   -0.9431    1.3098 C   0  0  2  0  0  0  0  0  0  0  0  0
    3.0096   -0.8245    0.7326 C   0  0  0  0  0  0  0  0  0  0  0  0
    2.9985   -0.9846   -0.6320 C   0  0  0  0  0  0  0  0  0  0  0  0
    1.5689   -1.2159   -1.1493 C   0  0  1  0  0  0  0  0  0  0  0  0
    1.0314   -2.4823   -0.4368 C   0  0  0  0  0  0  0  0  0  0  0  0
    1.0680   -2.3381    0.9166 C   0  0  0  0  0  0  0  0  0  0  0  0
    1.4262   -0.5051    2.7517 C   0  0  0  0  0  0  0  0  0  0  0  0
    4.1391   -0.5702    1.5479 C   0  0  0  0  0  0  0  0  0  0  0  0
    4.1148   -0.9444   -1.5022 C   0  0  0  0  0  0  0  0  0  0  0  0
    1.3906   -1.1525   -2.6569 C   0  0  0  0  0  0  0  0  0  0  0  0
    0.5581   -3.6549   -1.2300 C   0  0  0  0  0  0  0  0  0  0  0  0
    0.7149   -3.3347    1.9708 C   0  0  0  0  0  0  0  0  0  0  0  0
    1.4362    1.6883   -0.1335 C   0  0  0  0  0  0  0  0  0  0  0  0
    2.3489    2.0606   -1.1417 C   0  0  0  0  0  0  0  0  0  0  0  0
    2.9324    3.3363   -1.1325 C   0  0  0  0  0  0  0  0  0  0  0  0
    2.6200    4.2497   -0.1146 C   0  0  0  0  0  0  0  0  0  0  0  0
    1.7110    3.8885    0.8925 C   0  0  0  0  0  0  0  0  0  0  0  0
    1.1144    2.6205    0.8793 C   0  0  0  0  0  0  0  0  0  0  0  0
    2.0105   -1.1537    3.4349 H   0  0  0  0  0  0  0  0  0  0  0  0
    0.3649   -0.5502    3.0591 H   0  0  0  0  0  0  0  0  0  0  0  0
    1.7867    0.5319    2.8949 H   0  0  0  0  0  0  0  0  0  0  0  0
    1.9874   -1.9437   -3.1532 H   0  0  0  0  0  0  0  0  0  0  0  0
    1.7265   -0.1830   -3.0703 H   0  0  0  0  0  0  0  0  0  0  0  0
    0.3342   -1.2930   -2.9437 H   0  0  0  0  0  0  0  0  0  0  0  0
    0.2280   -4.4821   -0.5750 H   0  0  0  0  0  0  0  0  0  0  0  0
    1.3515   -4.0426   -1.9034 H   0  0  0  0  0  0  0  0  0  0  0  0
   -0.3005   -3.3772   -1.8777 H   0  0  0  0  0  0  0  0  0  0  0  0
    0.3431   -4.2801    1.5352 H   0  0  0  0  0  0  0  0  0  0  0  0
   -0.0699   -2.9491    2.6533 H   0  0  0  0  0  0  0  0  0  0  0  0
    1.5990   -3.5693    2.6019 H   0  0  0  0  0  0  0  0  0  0  0  0
    2.6154    1.3608   -1.9452 H   0  0  0  0  0  0  0  0  0  0  0  0
    3.6411    3.6128   -1.9274 H   0  0  0  0  0  0  0  0  0  0  0  0
    3.0827    5.2479   -0.1080 H   0  0  0  0  0  0  0  0  0  0  0  0
    1.4573    4.6006    1.6918 H   0  0  0  0  0  0  0  0  0  0  0  0
    0.3838    2.3586    1.6597 H   0  0  0  0  0  0  0  0  0  0  0  0
  1 16  1  6  0  0  0
  1  4  1  0  0  0  0
  3 12  3  0  0  0  0
  4 10  1  1  0  0  0
  5  4  1  0  0  0  0
  5 11  1  0  0  0  0
  6  5  2  0  0  0  0
  7 13  1  6  0  0  0
  7  6  1  0  0  0  0
  7  8  1  0  0  0  0
  7  1  1  0  0  0  0
  8  9  2  0  0  0  0
  9  4  1  0  0  0  0
  9 15  1  0  0  0  0
 10 24  1  0  0  0  0
 10 23  1  0  0  0  0
 10 22  1  0  0  0  0
 11  2  3  0  0  0  0
 12  6  1  0  0  0  0
 14 28  1  0  0  0  0
 14  8  1  0  0  0  0
 15 33  1  0  0  0  0
 15 32  1  0  0  0  0
 16 21  1  0  0  0  0
 17 18  1  0  0  0  0
 17 16  2  0  0  0  0
 18 19  2  0  0  0  0
 19 36  1  0  0  0  0
 19 20  1  0  0  0  0
 20 37  1  0  0  0  0
 21 20  2  0  0  0  0
 21 38  1  0  0  0  0
 25 13  1  0  0  0  0
 26 13  1  0  0  0  0
 27 13  1  0  0  0  0
 29 14  1  0  0  0  0
 30 14  1  0  0  0  0
 31 15  1  0  0  0  0
 34 17  1  0  0  0  0
 35 18  1  0  0  0  0
M  END
