1
q = 0.0, confidence = 1.0

 33 33  0  0  0  0  0  0  0  0999 V2000
   -2.0270   -0.3313    0.3033 P   0  0  0  0  0  0  0  0  0  0  0  0
   -0.2215    2.7921    1.7030 O   0  0  0  0  0  0  0  0  0  0  0  0
   -0.8821    2.5729   -0.4677 N   0  0  0  0  0  0  0  0  0  0  0  0
   -4.8777   -0.3378    0.2239 C   0  0  0  0  0  0  0  0  0  0  0  0
   -4.9351    0.5368    0.9051 H   0  0  0  0  0  0  0  0  0  0  0  0
   -4.9348   -1.2561    0.8406 H   0  0  0  0  0  0  0  0  0  0  0  0
   -5.7861   -0.3082   -0.4126 H   0  0  0  0  0  0  0  0  0  0  0  0
   -1.0451    2.2563    0.7655 C   0  0  0  0  0  0  0  0  0  0  0  0
    0.2802    3.4676   -0.5100 C   0  0  0  0  0  0  0  0  0  0  0  0
   -0.0013    4.4448   -0.9576 H   0  0  0  0  0  0  0  0  0  0  0  0
    1.0685    3.0253   -1.1547 H   0  0  0  0  0  0  0  0  0  0  0  0
   -2.0441    1.2660    1.2859 C   0  0  0  0  0  0  0  0  0  0  0  0
   -3.0700    1.6861    1.2455 H   0  0  0  0  0  0  0  0  0  0  0  0
   -1.8136    1.0417    2.3435 H   0  0  0  0  0  0  0  0  0  0  0  0
   -2.2042   -1.6512    1.6160 C   0  0  0  0  0  0  0  0  0  0  0  0
   -3.0748   -1.3523    2.2419 H   0  0  0  0  0  0  0  0  0  0  0  0
   -3.6269   -0.2902   -0.6600 C   0  0  0  0  0  0  0  0  0  0  0  0
   -3.5788   -1.2173   -1.2707 H   0  0  0  0  0  0  0  0  0  0  0  0
   -3.6273    0.9158   -1.6086 C   0  0  0  0  0  0  0  0  0  0  0  0
   -4.4933    0.8500   -2.2986 H   0  0  0  0  0  0  0  0  0  0  0  0
   -2.6955    0.9759   -2.2021 H   0  0  0  0  0  0  0  0  0  0  0  0
   -3.7057    1.8720   -1.0534 H   0  0  0  0  0  0  0  0  0  0  0  0
   -2.4734   -3.0146    0.9696 C   0  0  0  0  0  0  0  0  0  0  0  0
   -1.6246   -3.3062    0.3177 H   0  0  0  0  0  0  0  0  0  0  0  0
   -3.3979   -3.0284    0.3587 H   0  0  0  0  0  0  0  0  0  0  0  0
   -2.5788   -3.7918    1.7540 H   0  0  0  0  0  0  0  0  0  0  0  0
    0.7510    3.5840    0.9667 C   0  0  0  0  0  0  0  0  0  0  0  0
    1.7483    3.1317    1.1309 H   0  0  0  0  0  0  0  0  0  0  0  0
    0.7322    4.6154    1.3725 H   0  0  0  0  0  0  0  0  0  0  0  0
   -0.9372   -1.6869    2.4817 C   0  0  0  0  0  0  0  0  0  0  0  0
   -1.0454   -2.4529    3.2767 H   0  0  0  0  0  0  0  0  0  0  0  0
   -0.7241   -0.7182    2.9752 H   0  0  0  0  0  0  0  0  0  0  0  0
   -0.0489   -1.9431    1.8683 H   0  0  0  0  0  0  0  0  0  0  0  0
  1 12  1  0  0  0  0
  1 15  1  0  0  0  0
  3  8  2  0  0  0  0
  4  6  1  0  0  0  0
  4  5  1  0  0  0  0
  7  4  1  0  0  0  0
  8 12  1  0  0  0  0
  8  2  1  0  0  0  0
  9  3  1  0  0  0  0
  9 27  1  0  0  0  0
 10  9  1  0  0  0  0
 11  9  1  0  0  0  0
 12 14  1  0  0  0  0
 13 12  1  0  0  0  0
 15 16  1  0  0  0  0
 15 30  1  0  0  0  0
 17  4  1  0  0  0  0
 17  1  1  0  0  0  0
 18 17  1  0  0  0  0
 19 22  1  0  0  0  0
 19 17  1  0  0  0  0
 20 19  1  0  0  0  0
 21 19  1  0  0  0  0
 23 15  1  0  0  0  0
 23 26  1  0  0  0  0
 24 23  1  0  0  0  0
 25 23  1  0  0  0  0
 27 28  1  0  0  0  0
 27 29  1  0  0  0  0
 27  2  1  0  0  0  0
 30 32  1  0  0  0  0
 30 31  1  0  0  0  0
 33 30  1  0  0  0  0
M  END
