3
q = 0.0, confidence = 0.99

 72 76  0  0  1  0  0  0  0  0999 V2000
   -0.4479    1.3946   -3.6492 N   0  0  0  0  0  0  0  0  0  0  0  0
   -1.7813    0.1397   -0.4059 P   0  0  0  0  0  4  0  0  0  0  0  0
    1.2924    0.4648   -0.4468 P   0  0  0  0  0  0  0  0  0  0  0  0
   -0.3407    0.8548   -1.1120 C   0  0  1  0  0  3  0  0  0  0  0  0
   -0.4193    1.1508   -2.4914 C   0  0  0  0  0  0  0  0  0  0  0  0
   -1.9256   -1.6549   -0.7343 C   0  0  0  0  0  0  0  0  0  0  0  0
   -1.4240   -2.6196    0.1662 C   0  0  0  0  0  0  0  0  0  0  0  0
   -1.0681   -2.3324    1.1679 H   0  0  0  0  0  0  0  0  0  0  0  0
   -1.3396   -3.9631   -0.2295 C   0  0  0  0  0  0  0  0  0  0  0  0
   -0.9433   -4.7060    0.4788 H   0  0  0  0  0  0  0  0  0  0  0  0
   -1.7418   -4.3520   -1.5165 C   0  0  0  0  0  0  0  0  0  0  0  0
   -1.6685   -5.4067   -1.8221 H   0  0  0  0  0  0  0  0  0  0  0  0
   -2.2316   -3.3918   -2.4180 C   0  0  0  0  0  0  0  0  0  0  0  0
   -2.5393   -3.6892   -3.4317 H   0  0  0  0  0  0  0  0  0  0  0  0
   -2.3204   -2.0471   -2.0341 C   0  0  0  0  0  0  0  0  0  0  0  0
   -2.6783   -1.2949   -2.7537 H   0  0  0  0  0  0  0  0  0  0  0  0
   -3.2593    0.9266   -1.1377 C   0  0  0  0  0  0  0  0  0  0  0  0
   -4.4943    0.2465   -1.1229 C   0  0  0  0  0  0  0  0  0  0  0  0
   -4.5507   -0.7904   -0.7590 H   0  0  0  0  0  0  0  0  0  0  0  0
   -5.6519    0.8921   -1.5788 C   0  0  0  0  0  0  0  0  0  0  0  0
   -6.6135    0.3572   -1.5702 H   0  0  0  0  0  0  0  0  0  0  0  0
   -5.5830    2.2146   -2.0456 C   0  0  0  0  0  0  0  0  0  0  0  0
   -6.4923    2.7181   -2.4072 H   0  0  0  0  0  0  0  0  0  0  0  0
   -4.3551    2.8947   -2.0504 C   0  0  0  0  0  0  0  0  0  0  0  0
   -4.2977    3.9303   -2.4171 H   0  0  0  0  0  0  0  0  0  0  0  0
   -3.1927    2.2581   -1.5927 C   0  0  0  0  0  0  0  0  0  0  0  0
   -2.2307    2.7897   -1.5954 H   0  0  0  0  0  0  0  0  0  0  0  0
   -1.9328    0.4232    1.3857 C   0  0  0  0  0  0  0  0  0  0  0  0
   -2.6833   -0.4501    2.1974 C   0  0  0  0  0  0  0  0  0  0  0  0
   -3.1511   -1.3482    1.7701 H   0  0  0  0  0  0  0  0  0  0  0  0
   -2.8087   -0.1857    3.5677 C   0  0  0  0  0  0  0  0  0  0  0  0
   -3.3660   -0.8864    4.2066 H   0  0  0  0  0  0  0  0  0  0  0  0
   -2.2160    0.9574    4.1245 C   0  0  0  0  0  0  0  0  0  0  0  0
   -2.3035    1.1506    5.2041 H   0  0  0  0  0  0  0  0  0  0  0  0
   -1.5142    1.8550    3.3049 C   0  0  0  0  0  0  0  0  0  0  0  0
   -1.0581    2.7589    3.7354 H   0  0  0  0  0  0  0  0  0  0  0  0
   -1.3738    1.5932    1.9368 C   0  0  0  0  0  0  0  0  0  0  0  0
   -0.8158    2.2814    1.2887 H   0  0  0  0  0  0  0  0  0  0  0  0
    2.2862    2.0443   -0.3655 C   0  0  0  0  0  0  0  0  0  0  0  0
    3.2708    1.6959    0.0235 H   0  0  0  0  0  0  0  0  0  0  0  0
    2.4994    2.7289   -1.7268 C   0  0  0  0  0  0  0  0  0  0  0  0
    1.5128    3.0058   -2.1562 H   0  0  0  0  0  0  0  0  0  0  0  0
    2.9647    2.0304   -2.4517 H   0  0  0  0  0  0  0  0  0  0  0  0
    3.3692    3.9869   -1.5809 C   0  0  0  0  0  0  0  0  0  0  0  0
    4.3925    3.6873   -1.2596 H   0  0  0  0  0  0  0  0  0  0  0  0
    3.4837    4.4796   -2.5689 H   0  0  0  0  0  0  0  0  0  0  0  0
    2.7857    4.9648   -0.5542 C   0  0  0  0  0  0  0  0  0  0  0  0
    1.8095    5.3466   -0.9300 H   0  0  0  0  0  0  0  0  0  0  0  0
    3.4456    5.8503   -0.4417 H   0  0  0  0  0  0  0  0  0  0  0  0
    2.5691    4.2802    0.8007 C   0  0  0  0  0  0  0  0  0  0  0  0
    3.5547    3.9936    1.2312 H   0  0  0  0  0  0  0  0  0  0  0  0
    2.1053    4.9824    1.5249 H   0  0  0  0  0  0  0  0  0  0  0  0
    1.6987    3.0239    0.6618 C   0  0  0  0  0  0  0  0  0  0  0  0
    0.6823    3.3210    0.3180 H   0  0  0  0  0  0  0  0  0  0  0  0
    1.5770    2.5158    1.6416 H   0  0  0  0  0  0  0  0  0  0  0  0
    2.1590   -0.5743   -1.7308 C   0  0  0  0  0  0  0  0  0  0  0  0
    2.1084    0.0066   -2.6795 H   0  0  0  0  0  0  0  0  0  0  0  0
    3.6307   -0.8223   -1.3551 C   0  0  0  0  0  0  0  0  0  0  0  0
    3.6651   -1.2945   -0.3469 H   0  0  0  0  0  0  0  0  0  0  0  0
    4.1846    0.1360   -1.2739 H   0  0  0  0  0  0  0  0  0  0  0  0
    4.3242   -1.7352   -2.3777 C   0  0  0  0  0  0  0  0  0  0  0  0
    4.3838   -1.2051   -3.3550 H   0  0  0  0  0  0  0  0  0  0  0  0
    5.3710   -1.9247   -2.0601 H   0  0  0  0  0  0  0  0  0  0  0  0
    3.5681   -3.0555   -2.5665 C   0  0  0  0  0  0  0  0  0  0  0  0
    4.0723   -3.6840   -3.3302 H   0  0  0  0  0  0  0  0  0  0  0  0
    3.5974   -3.6316   -1.6143 H   0  0  0  0  0  0  0  0  0  0  0  0
    2.1075   -2.7997   -2.9548 C   0  0  0  0  0  0  0  0  0  0  0  0
    1.5514   -3.7561   -3.0492 H   0  0  0  0  0  0  0  0  0  0  0  0
    2.0707   -2.3148   -3.9562 H   0  0  0  0  0  0  0  0  0  0  0  0
    1.4043   -1.8985   -1.9331 C   0  0  0  0  0  0  0  0  0  0  0  0
    0.3642   -1.6966   -2.2546 H   0  0  0  0  0  0  0  0  0  0  0  0
    1.3375   -2.4244   -0.9546 H   0  0  0  0  0  0  0  0  0  0  0  0
  1  5  3  0  0  0  0
  2 28  1  0  0  0  0
  3 39  1  0  0  0  0
  4  5  1  6  0  0  0
  4  3  1  0  0  0  0
  4  2  1  0  0  0  0
  6  2  1  0  0  0  0
  6  7  1  0  0  0  0
  7  8  1  0  0  0  0
  9  7  2  0  0  0  0
  9 10  1  0  0  0  0
 11  9  1  0  0  0  0
 12 11  1  0  0  0  0
 13 15  1  0  0  0  0
 13 11  2  0  0  0  0
 14 13  1  0  0  0  0
 15  6  2  0  0  0  0
 16 15  1  0  0  0  0
 17 18  1  0  0  0  0
 17  2  1  0  0  0  0
 18 19  1  0  0  0  0
 20 21  1  0  0  0  0
 20 18  2  0  0  0  0
 22 20  1  0  0  0  0
 23 22  1  0  0  0  0
 24 22  2  0  0  0  0
 24 26  1  0  0  0  0
 25 24  1  0  0  0  0
 26 17  2  0  0  0  0
 27 26  1  0  0  0  0
 28 37  2  0  0  0  0
 28 29  1  0  0  0  0
 29 31  2  0  0  0  0
 30 29  1  0  0  0  0
 31 33  1  0  0  0  0
 31 32  1  0  0  0  0
 33 34  1  0  0  0  0
 35 36  1  0  0  0  0
 35 33  2  0  0  0  0
 37 35  1  0  0  0  0
 38 37  1  0  0  0  0
 39 40  1  0  0  0  0
 39 53  1  0  0  0  0
 41 44  1  0  0  0  0
 41 39  1  0  0  0  0
 42 41  1  0  0  0  0
 43 41  1  0  0  0  0
 44 45  1  0  0  0  0
 44 47  1  0  0  0  0
 46 44  1  0  0  0  0
 47 49  1  0  0  0  0
 47 50  1  0  0  0  0
 48 47  1  0  0  0  0
 50 51  1  0  0  0  0
 50 52  1  0  0  0  0
 53 50  1  0  0  0  0
 53 55  1  0  0  0  0
 54 53  1  0  0  0  0
 56 58  1  0  0  0  0
 56  3  1  0  0  0  0
 57 56  1  0  0  0  0
 58 60  1  0  0  0  0
 58 59  1  0  0  0  0
 61 63  1  0  0  0  0
 61 58  1  0  0  0  0
 62 61  1  0  0  0  0
 64 61  1  0  0  0  0
 64 66  1  0  0  0  0
 65 64  1  0  0  0  0
 67 64  1  0  0  0  0
 67 70  1  0  0  0  0
 68 67  1  0  0  0  0
 69 67  1  0  0  0  0
 70 56  1  0  0  0  0
 70 72  1  0  0  0  0
 71 70  1  0  0  0  0
M  END
