5
q = 0.0, confidence = 0.996

 61 64  0  0  1  0  0  0  0  0999 V2000
    1.8418    1.8726    0.8186 S   0  0  0  0  0  0  0  0  0  0  0  0
    0.2316   -0.0862   -0.8109 P   0  0  0  0  0  4  0  0  0  0  0  0
    1.6824    2.6222    2.1009 O   0  0  0  0  0  0  0  0  0  0  0  0
    0.4613    0.8049    0.6796 C   0  0  2  0  0  3  0  0  0  0  0  0
   -1.0125    1.1993    1.6299 P   0  0  0  0  0  0  0  0  0  0  0  0
    2.0738    2.6609   -0.4328 O   0  0  0  0  0  0  0  0  0  0  0  0
    3.2992    0.8225    1.0065 C   0  0  0  0  0  0  0  0  0  0  0  0
    3.2811   -0.2477    1.9139 C   0  0  0  0  0  0  0  0  0  0  0  0
    2.3620   -0.4698    2.4769 H   0  0  0  0  0  0  0  0  0  0  0  0
    4.4273   -1.0352    2.0606 C   0  0  0  0  0  0  0  0  0  0  0  0
    4.4156   -1.8848    2.7620 H   0  0  0  0  0  0  0  0  0  0  0  0
    5.6014   -0.7617    1.3216 C   0  0  0  0  0  0  0  0  0  0  0  0
    5.5915    0.3315    0.4334 C   0  0  0  0  0  0  0  0  0  0  0  0
    6.4950    0.5568   -0.1548 H   0  0  0  0  0  0  0  0  0  0  0  0
    4.4486    1.1275    0.2702 C   0  0  0  0  0  0  0  0  0  0  0  0
    4.4208    1.9646   -0.4417 H   0  0  0  0  0  0  0  0  0  0  0  0
    6.8268   -1.6233    1.4901 C   0  0  0  0  0  0  0  0  0  0  0  0
    7.2336   -1.5432    2.5202 H   0  0  0  0  0  0  0  0  0  0  0  0
    7.6311   -1.3336    0.7871 H   0  0  0  0  0  0  0  0  0  0  0  0
    6.5936   -2.6953    1.3227 H   0  0  0  0  0  0  0  0  0  0  0  0
   -0.3084   -1.8068   -0.5275 C   0  0  0  0  0  0  0  0  0  0  0  0
   -0.3719   -2.3224    0.7806 C   0  0  0  0  0  0  0  0  0  0  0  0
   -0.1202   -1.6677    1.6274 H   0  0  0  0  0  0  0  0  0  0  0  0
   -0.7503   -3.6561    0.9868 C   0  0  0  0  0  0  0  0  0  0  0  0
   -0.8118   -4.0530    2.0108 H   0  0  0  0  0  0  0  0  0  0  0  0
   -1.0653   -4.4750   -0.1083 C   0  0  0  0  0  0  0  0  0  0  0  0
   -1.3792   -5.5167    0.0564 H   0  0  0  0  0  0  0  0  0  0  0  0
   -0.9732   -3.9699   -1.4152 C   0  0  0  0  0  0  0  0  0  0  0  0
   -1.2045   -4.6159   -2.2752 H   0  0  0  0  0  0  0  0  0  0  0  0
   -0.5831   -2.6410   -1.6302 C   0  0  0  0  0  0  0  0  0  0  0  0
   -0.4871   -2.2568   -2.6568 H   0  0  0  0  0  0  0  0  0  0  0  0
    1.8248   -0.3040   -1.6901 C   0  0  0  0  0  0  0  0  0  0  0  0
    2.2374    0.5504   -2.7288 C   0  0  0  0  0  0  0  0  0  0  0  0
    1.5950    1.3789   -3.0545 H   0  0  0  0  0  0  0  0  0  0  0  0
    3.4785    0.3421   -3.3480 C   0  0  0  0  0  0  0  0  0  0  0  0
    3.7969    1.0118   -4.1607 H   0  0  0  0  0  0  0  0  0  0  0  0
    4.3090   -0.7109   -2.9347 C   0  0  0  0  0  0  0  0  0  0  0  0
    5.2827   -0.8677   -3.4231 H   0  0  0  0  0  0  0  0  0  0  0  0
    3.8974   -1.5645   -1.8990 C   0  0  0  0  0  0  0  0  0  0  0  0
    4.5456   -2.3885   -1.5664 H   0  0  0  0  0  0  0  0  0  0  0  0
    2.6578   -1.3663   -1.2787 C   0  0  0  0  0  0  0  0  0  0  0  0
    2.3377   -2.0368   -0.4684 H   0  0  0  0  0  0  0  0  0  0  0  0
   -0.9490    0.7626   -1.9212 C   0  0  0  0  0  0  0  0  0  0  0  0
   -2.1178    0.1604   -2.4269 C   0  0  0  0  0  0  0  0  0  0  0  0
   -2.3687   -0.8821   -2.1872 H   0  0  0  0  0  0  0  0  0  0  0  0
   -3.0186    0.9251   -3.1833 C   0  0  0  0  0  0  0  0  0  0  0  0
   -3.9463    0.4575   -3.5444 H   0  0  0  0  0  0  0  0  0  0  0  0
   -2.7567    2.2788   -3.4418 C   0  0  0  0  0  0  0  0  0  0  0  0
   -3.4704    2.8739   -4.0316 H   0  0  0  0  0  0  0  0  0  0  0  0
   -1.5990    2.8829   -2.9226 C   0  0  0  0  0  0  0  0  0  0  0  0
   -1.4026    3.9508   -3.1024 H   0  0  0  0  0  0  0  0  0  0  0  0
   -0.6996    2.1359   -2.1491 C   0  0  0  0  0  0  0  0  0  0  0  0
    0.1789    2.6174   -1.6856 H   0  0  0  0  0  0  0  0  0  0  0  0
   -1.3718    2.9967    1.4713 C   0  0  0  0  0  0  0  0  0  0  0  0
   -2.2474    3.2469    2.1017 H   0  0  0  0  0  0  0  0  0  0  0  0
   -1.6213    3.2039    0.4131 H   0  0  0  0  0  0  0  0  0  0  0  0
   -0.4828    3.5795    1.7781 H   0  0  0  0  0  0  0  0  0  0  0  0
   -0.6088    0.9587    3.4063 C   0  0  0  0  0  0  0  0  0  0  0  0
   -1.4646    1.2973    4.0221 H   0  0  0  0  0  0  0  0  0  0  0  0
    0.3016    1.5409    3.6444 H   0  0  0  0  0  0  0  0  0  0  0  0
   -0.4399   -0.1188    3.5939 H   0  0  0  0  0  0  0  0  0  0  0  0
  1  7  1  0  0  0  0
  1  3  2  0  0  0  0
  2 21  1  0  0  0  0
  2  4  1  0  0  0  0
  4  1  1  0  0  0  0
  4  5  1  6  0  0  0
  5 58  1  0  0  0  0
  6  1  2  0  0  0  0
  7  8  1  0  0  0  0
  8 10  2  0  0  0  0
  8  9  1  0  0  0  0
 10 11  1  0  0  0  0
 12 17  1  0  0  0  0
 12 10  1  0  0  0  0
 13 12  2  0  0  0  0
 14 13  1  0  0  0  0
 15 13  1  0  0  0  0
 15  7  2  0  0  0  0
 16 15  1  0  0  0  0
 17 18  1  0  0  0  0
 19 17  1  0  0  0  0
 20 17  1  0  0  0  0
 21 22  1  0  0  0  0
 22 24  2  0  0  0  0
 22 23  1  0  0  0  0
 24 25  1  0  0  0  0
 26 27  1  0  0  0  0
 26 24  1  0  0  0  0
 28 26  2  0  0  0  0
 29 28  1  0  0  0  0
 30 28  1  0  0  0  0
 30 21  2  0  0  0  0
 31 30  1  0  0  0  0
 32 41  1  0  0  0  0
 32  2  1  0  0  0  0
 33 32  2  0  0  0  0
 34 33  1  0  0  0  0
 35 37  2  0  0  0  0
 35 33  1  0  0  0  0
 36 35  1  0  0  0  0
 37 39  1  0  0  0  0
 38 37  1  0  0  0  0
 39 40  1  0  0  0  0
 39 41  2  0  0  0  0
 41 42  1  0  0  0  0
 43  2  1  0  0  0  0
 44 45  1  0  0  0  0
 44 43  2  0  0  0  0
 46 44  1  0  0  0  0
 47 46  1  0  0  0  0
 48 46  2  0  0  0  0
 48 50  1  0  0  0  0
 49 48  1  0  0  0  0
 50 52  2  0  0  0  0
 51 50  1  0  0  0  0
 52 43  1  0  0  0  0
 52 53  1  0  0  0  0
 54  5  1  0  0  0  0
 54 57  1  0  0  0  0
 54 55  1  0  0  0  0
 56 54  1  0  0  0  0
 58 61  1  0  0  0  0
 58 60  1  0  0  0  0
 58 59  1  0  0  0  0
M  END
