1
q = 0.0, confidence = 0.998

 49 51  0  0  0  0  0  0  0  0999 V2000
    0.3863    0.4482    0.1913 P   0  0  0  0  0  0  0  0  0  0  0  0
   -1.1764   -0.2115   -0.6666 C   0  0  0  0  0  0  0  0  0  0  0  0
   -2.2144   -0.0755    0.0620 N   0  0  0  0  0  0  0  0  0  0  0  0
   -3.5266   -0.5077   -0.1194 C   0  0  0  0  0  0  0  0  0  0  0  0
   -4.5433    0.4222   -0.4371 C   0  0  0  0  0  0  0  0  0  0  0  0
   -4.2710    1.4738   -0.6101 H   0  0  0  0  0  0  0  0  0  0  0  0
   -5.8729   -0.0017   -0.5469 C   0  0  0  0  0  0  0  0  0  0  0  0
   -6.6500    0.7304   -0.8154 H   0  0  0  0  0  0  0  0  0  0  0  0
   -6.2213   -1.3422   -0.3110 C   0  0  0  0  0  0  0  0  0  0  0  0
   -7.2687   -1.6674   -0.3918 H   0  0  0  0  0  0  0  0  0  0  0  0
   -5.2179   -2.2586    0.0421 C   0  0  0  0  0  0  0  0  0  0  0  0
   -5.4762   -3.3096    0.2435 H   0  0  0  0  0  0  0  0  0  0  0  0
   -3.8804   -1.8530    0.1408 C   0  0  0  0  0  0  0  0  0  0  0  0
   -3.0949   -2.5664    0.4295 H   0  0  0  0  0  0  0  0  0  0  0  0
   -1.0235   -0.8509   -2.0598 C   0  0  0  0  0  0  0  0  0  0  0  0
    0.0771   -0.1343   -2.8718 C   0  0  0  0  0  0  0  0  0  0  0  0
   -0.1741    0.9291   -3.0538 H   0  0  0  0  0  0  0  0  0  0  0  0
    0.1837   -0.6363   -3.8541 H   0  0  0  0  0  0  0  0  0  0  0  0
    1.0687   -0.1802   -2.3761 H   0  0  0  0  0  0  0  0  0  0  0  0
   -2.3364   -0.7795   -2.8651 C   0  0  0  0  0  0  0  0  0  0  0  0
   -3.1436   -1.3902   -2.4229 H   0  0  0  0  0  0  0  0  0  0  0  0
   -2.1459   -1.1584   -3.8894 H   0  0  0  0  0  0  0  0  0  0  0  0
   -2.7034    0.2625   -2.9506 H   0  0  0  0  0  0  0  0  0  0  0  0
   -0.6202   -2.3299   -1.8412 C   0  0  0  0  0  0  0  0  0  0  0  0
   -1.4162   -2.8866   -1.3095 H   0  0  0  0  0  0  0  0  0  0  0  0
    0.3207   -2.4142   -1.2587 H   0  0  0  0  0  0  0  0  0  0  0  0
   -0.4548   -2.8151   -2.8249 H   0  0  0  0  0  0  0  0  0  0  0  0
    0.5530    2.1341   -0.5092 C   0  0  0  0  0  0  0  0  0  0  0  0
    1.8365    2.6422   -0.7910 C   0  0  0  0  0  0  0  0  0  0  0  0
    2.7210    2.0152   -0.5953 H   0  0  0  0  0  0  0  0  0  0  0  0
    1.9773    3.9295   -1.3301 C   0  0  0  0  0  0  0  0  0  0  0  0
    2.9819    4.3206   -1.5504 H   0  0  0  0  0  0  0  0  0  0  0  0
    0.8416    4.7118   -1.5933 C   0  0  0  0  0  0  0  0  0  0  0  0
    0.9546    5.7196   -2.0208 H   0  0  0  0  0  0  0  0  0  0  0  0
   -0.4397    4.2071   -1.3160 C   0  0  0  0  0  0  0  0  0  0  0  0
   -1.3312    4.8179   -1.5246 H   0  0  0  0  0  0  0  0  0  0  0  0
   -0.5879    2.9213   -0.7761 C   0  0  0  0  0  0  0  0  0  0  0  0
   -1.5914    2.5235   -0.5617 H   0  0  0  0  0  0  0  0  0  0  0  0
   -0.1690    0.6424    1.9238 C   0  0  0  0  0  0  0  0  0  0  0  0
   -0.1515   -0.5125    2.7335 C   0  0  0  0  0  0  0  0  0  0  0  0
    0.2156   -1.4648    2.3179 H   0  0  0  0  0  0  0  0  0  0  0  0
   -0.5874   -0.4437    4.0626 C   0  0  0  0  0  0  0  0  0  0  0  0
   -0.5746   -1.3486    4.6885 H   0  0  0  0  0  0  0  0  0  0  0  0
   -1.0256    0.7795    4.5968 C   0  0  0  0  0  0  0  0  0  0  0  0
   -1.3600    0.8347    5.6438 H   0  0  0  0  0  0  0  0  0  0  0  0
   -1.0253    1.9329    3.7980 C   0  0  0  0  0  0  0  0  0  0  0  0
   -1.3580    2.8947    4.2166 H   0  0  0  0  0  0  0  0  0  0  0  0
   -0.6007    1.8682    2.4619 C   0  0  0  0  0  0  0  0  0  0  0  0
   -0.6007    2.7764    1.8423 H   0  0  0  0  0  0  0  0  0  0  0  0
  1 39  1  0  0  0  0
  2  3  2  0  0  0  0
  2  1  1  0  0  0  0
  4  3  1  0  0  0  0
  4 13  1  0  0  0  0
  5  4  2  0  0  0  0
  6  5  1  0  0  0  0
  7  5  1  0  0  0  0
  7  9  2  0  0  0  0
  8  7  1  0  0  0  0
  9 11  1  0  0  0  0
 10  9  1  0  0  0  0
 11 13  2  0  0  0  0
 11 12  1  0  0  0  0
 13 14  1  0  0  0  0
 15 24  1  0  0  0  0
 15  2  1  0  0  0  0
 16 19  1  0  0  0  0
 16 15  1  0  0  0  0
 17 16  1  0  0  0  0
 18 16  1  0  0  0  0
 20 21  1  0  0  0  0
 20 15  1  0  0  0  0
 22 20  1  0  0  0  0
 23 20  1  0  0  0  0
 24 25  1  0  0  0  0
 24 26  1  0  0  0  0
 27 24  1  0  0  0  0
 28  1  1  0  0  0  0
 29 30  1  0  0  0  0
 29 28  2  0  0  0  0
 31 29  1  0  0  0  0
 32 31  1  0  0  0  0
 33 31  2  0  0  0  0
 33 35  1  0  0  0  0
 34 33  1  0  0  0  0
 35 37  2  0  0  0  0
 36 35  1  0  0  0  0
 37 38  1  0  0  0  0
 37 28  1  0  0  0  0
 39 48  2  0  0  0  0
 39 40  1  0  0  0  0
 40 42  2  0  0  0  0
 41 40  1  0  0  0  0
 42 44  1  0  0  0  0
 42 43  1  0  0  0  0
 44 45  1  0  0  0  0
 46 47  1  0  0  0  0
 46 44  2  0  0  0  0
 48 46  1  0  0  0  0
 49 48  1  0  0  0  0
M  END
