1
q = 0.0, confidence = 0.992

 39 40  0  0  0  0  0  0  0  0999 V2000
   -1.4072   -0.3771   -0.0815 P   0  0  0  0  0  0  0  0  0  0  0  0
   -3.3762    1.8260    1.4834 Si  0  0  0  0  0  0  0  0  0  0  0  0
   -2.8769   -0.3830   -1.1875 C   0  0  0  0  0  0  0  0  0  0  0  0
   -2.8524    0.4213   -2.3444 C   0  0  0  0  0  0  0  0  0  0  0  0
   -1.9237    0.9416   -2.6242 H   0  0  0  0  0  0  0  0  0  0  0  0
   -3.9924    0.5252   -3.1507 C   0  0  0  0  0  0  0  0  0  0  0  0
   -3.9651    1.1507   -4.0555 H   0  0  0  0  0  0  0  0  0  0  0  0
   -5.1604   -0.1816   -2.8161 C   0  0  0  0  0  0  0  0  0  0  0  0
   -6.0533   -0.1044   -3.4548 H   0  0  0  0  0  0  0  0  0  0  0  0
   -5.1801   -0.9996   -1.6764 C   0  0  0  0  0  0  0  0  0  0  0  0
   -6.0861   -1.5695   -1.4200 H   0  0  0  0  0  0  0  0  0  0  0  0
   -4.0404   -1.1029   -0.8619 C   0  0  0  0  0  0  0  0  0  0  0  0
   -4.0525   -1.7593    0.0209 H   0  0  0  0  0  0  0  0  0  0  0  0
   -1.6175   -1.8327    1.0185 C   0  0  0  0  0  0  0  0  0  0  0  0
   -1.4301   -3.1132    0.4498 C   0  0  0  0  0  0  0  0  0  0  0  0
   -1.5259   -4.2554    1.2557 C   0  0  0  0  0  0  0  0  0  0  0  0
   -1.3778   -5.2488    0.8056 H   0  0  0  0  0  0  0  0  0  0  0  0
   -1.7976   -4.1361    2.6296 C   0  0  0  0  0  0  0  0  0  0  0  0
   -1.9773   -2.8656    3.1968 C   0  0  0  0  0  0  0  0  0  0  0  0
   -2.1882   -2.7632    4.2724 H   0  0  0  0  0  0  0  0  0  0  0  0
   -1.8877   -1.7161    2.3951 C   0  0  0  0  0  0  0  0  0  0  0  0
   -2.0184   -0.7285    2.8551 H   0  0  0  0  0  0  0  0  0  0  0  0
   -1.6728    1.1171    0.9593 C   0  0  0  0  0  0  0  0  0  0  0  0
   -1.1787    1.9421    0.4011 H   0  0  0  0  0  0  0  0  0  0  0  0
   -1.0624    0.9919    1.8744 H   0  0  0  0  0  0  0  0  0  0  0  0
   -4.3125    2.5448    0.0110 C   0  0  0  0  0  0  0  0  0  0  0  0
   -4.7360    1.7560   -0.6402 H   0  0  0  0  0  0  0  0  0  0  0  0
   -3.6547    3.1842   -0.6121 H   0  0  0  0  0  0  0  0  0  0  0  0
   -5.1490    3.1752    0.3785 H   0  0  0  0  0  0  0  0  0  0  0  0
   -4.4732    0.5927    2.4074 C   0  0  0  0  0  0  0  0  0  0  0  0
   -4.6636   -0.3229    1.8148 H   0  0  0  0  0  0  0  0  0  0  0  0
   -5.4531    1.0704    2.6163 H   0  0  0  0  0  0  0  0  0  0  0  0
   -4.0352    0.2908    3.3797 H   0  0  0  0  0  0  0  0  0  0  0  0
   -2.9035    3.2311    2.6667 C   0  0  0  0  0  0  0  0  0  0  0  0
   -2.3240    2.8474    3.5319 H   0  0  0  0  0  0  0  0  0  0  0  0
   -3.8068    3.7432    3.0580 H   0  0  0  0  0  0  0  0  0  0  0  0
   -2.2783    3.9908    2.1534 H   0  0  0  0  0  0  0  0  0  0  0  0
   -1.1990   -3.1939   -0.6264 H   0  0  0  0  0  0  0  0  0  0  0  0
   -1.8656   -5.0360    3.2598 H   0  0  0  0  0  0  0  0  0  0  0  0
  1 23  1  0  0  0  0
  1 14  1  0  0  0  0
  2 30  1  0  0  0  0
  2 34  1  0  0  0  0
  3 12  1  0  0  0  0
  3  1  1  0  0  0  0
  4  3  2  0  0  0  0
  5  4  1  0  0  0  0
  6  8  2  0  0  0  0
  6  4  1  0  0  0  0
  7  6  1  0  0  0  0
  8 10  1  0  0  0  0
  9  8  1  0  0  0  0
 10 11  1  0  0  0  0
 10 12  2  0  0  0  0
 12 13  1  0  0  0  0
 14 21  1  0  0  0  0
 15 14  2  0  0  0  0
 15 16  1  0  0  0  0
 16 18  2  0  0  0  0
 17 16  1  0  0  0  0
 18 19  1  0  0  0  0
 18 39  1  0  0  0  0
 19 20  1  0  0  0  0
 21 22  1  0  0  0  0
 21 19  2  0  0  0  0
 23  2  1  0  0  0  0
 23 25  1  0  0  0  0
 24 23  1  0  0  0  0
 26 29  1  0  0  0  0
 26  2  1  0  0  0  0
 27 26  1  0  0  0  0
 28 26  1  0  0  0  0
 30 32  1  0  0  0  0
 30 33  1  0  0  0  0
 31 30  1  0  0  0  0
 34 36  1  0  0  0  0
 34 35  1  0  0  0  0
 37 34  1  0  0  0  0
 38 15  1  0  0  0  0
M  END
