1
q = -1

 61 61  0  0  0  0  0  0  0  0999 V2000
    0.3437    0.0257   -0.0896 P   0  0  0  0  0  2  0  0  0  0  0  0
    1.7087   -2.0428    1.8856 Si  0  0  0  0  0  0  0  0  0  0  0  0
    1.7226   -2.6227   -1.2570 Si  0  0  0  0  0  0  0  0  0  0  0  0
    0.6649    2.7191    1.5528 Si  0  0  0  0  0  0  0  0  0  0  0  0
    1.6286    2.5573   -1.5151 Si  0  0  0  0  0  0  0  0  0  0  0  0
    1.7171   -1.2207    0.1174 C   0  0  0  0  0  0  0  0  0  0  0  0
    3.0173   -0.3759   -0.0316 C   0  0  0  0  0  0  0  0  0  0  0  0
    2.7950    1.0228    0.5539 C   0  0  0  0  0  0  0  0  0  0  0  0
    1.3868    1.5547    0.1405 C   0  0  0  0  0  0  0  0  0  0  0  0
    0.0313   -2.7647    2.3434 C   0  0  0  0  0  0  0  0  0  0  0  0
    3.0704   -3.3666    1.9666 C   0  0  0  0  0  0  0  0  0  0  0  0
    2.1985   -0.8340    3.2682 C   0  0  0  0  0  0  0  0  0  0  0  0
    0.9128   -2.0725   -2.8761 C   0  0  0  0  0  0  0  0  0  0  0  0
    0.9031   -4.2650   -0.7933 C   0  0  0  0  0  0  0  0  0  0  0  0
    3.5470   -3.0051   -1.6309 C   0  0  0  0  0  0  0  0  0  0  0  0
    2.1404    3.2858    2.6086 C   0  0  0  0  0  0  0  0  0  0  0  0
   -0.2086    4.3025    0.9891 C   0  0  0  0  0  0  0  0  0  0  0  0
   -0.5731    1.8229    2.6783 C   0  0  0  0  0  0  0  0  0  0  0  0
    2.7153    4.0706   -1.1325 C   0  0  0  0  0  0  0  0  0  0  0  0
    0.0382    3.0881   -2.3733 C   0  0  0  0  0  0  0  0  0  0  0  0
    2.6242    1.5676   -2.7924 C   0  0  0  0  0  0  0  0  0  0  0  0
    3.8832   -0.8688    0.4591 H   0  0  0  0  0  0  0  0  0  0  0  0
    3.2901   -0.2854   -1.1010 H   0  0  0  0  0  0  0  0  0  0  0  0
    3.6043    1.7094    0.2271 H   0  0  0  0  0  0  0  0  0  0  0  0
    2.8799    0.9717    1.6536 H   0  0  0  0  0  0  0  0  0  0  0  0
   -0.3150   -3.5450    1.6417 H   0  0  0  0  0  0  0  0  0  0  0  0
   -0.7385   -1.9688    2.3703 H   0  0  0  0  0  0  0  0  0  0  0  0
    0.0960   -3.2128    3.3565 H   0  0  0  0  0  0  0  0  0  0  0  0
    4.0677   -2.9282    1.7585 H   0  0  0  0  0  0  0  0  0  0  0  0
    2.9224   -4.2228    1.2828 H   0  0  0  0  0  0  0  0  0  0  0  0
    3.0970   -3.7639    3.0028 H   0  0  0  0  0  0  0  0  0  0  0  0
    2.1115   -1.3814    4.2305 H   0  0  0  0  0  0  0  0  0  0  0  0
    1.5516    0.0602    3.3376 H   0  0  0  0  0  0  0  0  0  0  0  0
    3.2512   -0.4989    3.1761 H   0  0  0  0  0  0  0  0  0  0  0  0
    1.1407   -1.0271   -3.1587 H   0  0  0  0  0  0  0  0  0  0  0  0
   -0.1880   -2.1697   -2.8344 H   0  0  0  0  0  0  0  0  0  0  0  0
    1.2824   -2.7327   -3.6885 H   0  0  0  0  0  0  0  0  0  0  0  0
    1.0627   -4.9472   -1.6552 H   0  0  0  0  0  0  0  0  0  0  0  0
   -0.1872   -4.1685   -0.6446 H   0  0  0  0  0  0  0  0  0  0  0  0
    1.3380   -4.7538    0.0985 H   0  0  0  0  0  0  0  0  0  0  0  0
    4.0643   -2.1580   -2.1234 H   0  0  0  0  0  0  0  0  0  0  0  0
    3.5849   -3.8688   -2.3270 H   0  0  0  0  0  0  0  0  0  0  0  0
    4.1200   -3.2784   -0.7236 H   0  0  0  0  0  0  0  0  0  0  0  0
    2.5947    2.4666    3.2004 H   0  0  0  0  0  0  0  0  0  0  0  0
    1.7836    4.0561    3.3232 H   0  0  0  0  0  0  0  0  0  0  0  0
    2.9361    3.7440    1.9876 H   0  0  0  0  0  0  0  0  0  0  0  0
   -1.1477    4.0992    0.4447 H   0  0  0  0  0  0  0  0  0  0  0  0
    0.4216    4.9721    0.3745 H   0  0  0  0  0  0  0  0  0  0  0  0
   -0.4739    4.8553    1.9152 H   0  0  0  0  0  0  0  0  0  0  0  0
   -1.5635    1.7307    2.1932 H   0  0  0  0  0  0  0  0  0  0  0  0
   -0.6976    2.4218    3.6051 H   0  0  0  0  0  0  0  0  0  0  0  0
   -0.2566    0.8027    2.9674 H   0  0  0  0  0  0  0  0  0  0  0  0
    2.2576    4.7916   -0.4295 H   0  0  0  0  0  0  0  0  0  0  0  0
    2.9096    4.6075   -2.0844 H   0  0  0  0  0  0  0  0  0  0  0  0
    3.6995    3.7695   -0.7194 H   0  0  0  0  0  0  0  0  0  0  0  0
   -0.5228    2.2075   -2.7426 H   0  0  0  0  0  0  0  0  0  0  0  0
    0.3166    3.7038   -3.2540 H   0  0  0  0  0  0  0  0  0  0  0  0
   -0.6381    3.6842   -1.7357 H   0  0  0  0  0  0  0  0  0  0  0  0
    2.1329    0.6169   -3.0758 H   0  0  0  0  0  0  0  0  0  0  0  0
    3.6554    1.3432   -2.4546 H   0  0  0  0  0  0  0  0  0  0  0  0
    2.7037    2.1858   -3.7111 H   0  0  0  0  0  0  0  0  0  0  0  0
  1  6  1  0  0  0  0
  1  9  1  0  0  0  0
  2 11  1  0  0  0  0
  2 10  1  0  0  0  0
  2 12  1  0  0  0  0
  3 14  1  0  0  0  0
  3  6  1  0  0  0  0
  4 16  1  0  0  0  0
  4 18  1  0  0  0  0
  5 19  1  0  0  0  0
  5  9  1  0  0  0  0
  6  2  1  0  0  0  0
  7  6  1  0  0  0  0
  7 22  1  0  0  0  0
  7  8  1  0  0  0  0
  8 25  1  0  0  0  0
  9  8  1  0  0  0  0
  9  4  1  0  0  0  0
 10 27  1  0  0  0  0
 10 28  1  0  0  0  0
 11 31  1  0  0  0  0
 12 33  1  0  0  0  0
 12 32  1  0  0  0  0
 13 36  1  0  0  0  0
 13  3  1  0  0  0  0
 14 39  1  0  0  0  0
 14 40  1  0  0  0  0
 15  3  1  0  0  0  0
 15 43  1  0  0  0  0
 16 44  1  0  0  0  0
 16 45  1  0  0  0  0
 17  4  1  0  0  0  0
 17 49  1  0  0  0  0
 18 52  1  0  0  0  0
 18 51  1  0  0  0  0
 19 55  1  0  0  0  0
 19 53  1  0  0  0  0
 20 58  1  0  0  0  0
 20  5  1  0  0  0  0
 21 60  1  0  0  0  0
 21  5  1  0  0  0  0
 23  7  1  0  0  0  0
 24  8  1  0  0  0  0
 26 10  1  0  0  0  0
 29 11  1  0  0  0  0
 30 11  1  0  0  0  0
 34 12  1  0  0  0  0
 35 13  1  0  0  0  0
 37 13  1  0  0  0  0
 38 14  1  0  0  0  0
 41 15  1  0  0  0  0
 42 15  1  0  0  0  0
 46 16  1  0  0  0  0
 47 17  1  0  0  0  0
 48 17  1  0  0  0  0
 50 18  1  0  0  0  0
 54 19  1  0  0  0  0
 56 20  1  0  0  0  0
 57 20  1  0  0  0  0
 59 21  1  0  0  0  0
 61 21  1  0  0  0  0
M  END
