1
q = 0.0, confidence = 1.0

 39 40  0  0  1  0  0  0  0  0999 V2000
   -0.4647    0.5486   -0.1243 P   0  0  1  0  0  0  0  0  0  0  0  0
   -2.2918   -2.1253    0.1296 F   0  0  0  0  0  0  0  0  0  0  0  0
   -3.9913   -1.6104   -1.1235 F   0  0  0  0  0  0  0  0  0  0  0  0
   -4.1379   -1.4391    1.0542 F   0  0  0  0  0  0  0  0  0  0  0  0
   -5.1014    0.7053   -0.6037 F   0  0  0  0  0  0  0  0  0  0  0  0
   -4.3397    1.3140    1.3539 F   0  0  0  0  0  0  0  0  0  0  0  0
   -3.7501    2.3927   -0.4408 F   0  0  0  0  0  0  0  0  0  0  0  0
   -1.8517    0.4475    0.9478 O   0  0  0  0  0  0  0  0  0  0  0  0
   -1.9079    0.4311   -1.3305 C   0  0  0  0  0  0  0  0  0  0  0  0
   -2.1342    1.3703   -1.8640 H   0  0  0  0  0  0  0  0  0  0  0  0
   -1.8541   -0.4071   -2.0473 H   0  0  0  0  0  0  0  0  0  0  0  0
   -2.8057    0.1981   -0.0942 C   0  0  0  0  0  0  0  0  0  0  0  0
   -3.3243   -1.2687   -0.0017 C   0  0  0  0  0  0  0  0  0  0  0  0
   -4.0215    1.1651    0.0610 C   0  0  0  0  0  0  0  0  0  0  0  0
    0.0758    2.3507   -0.0196 C   0  0  2  0  0  0  0  0  0  0  0  0
    1.0233    2.5452   -1.1935 C   0  0  0  0  0  0  0  0  0  0  0  0
    2.2764    2.7993   -0.6907 C   0  0  0  0  0  0  0  0  0  0  0  0
    2.2400    2.7576    0.7836 C   0  0  0  0  0  0  0  0  0  0  0  0
    0.9671    2.4619    1.2054 C   0  0  0  0  0  0  0  0  0  0  0  0
   -1.0536    3.3858    0.0205 C   0  0  0  0  0  0  0  0  0  0  0  0
   -1.6425    3.4046   -0.9147 H   0  0  0  0  0  0  0  0  0  0  0  0
   -0.5961    4.3867    0.1545 H   0  0  0  0  0  0  0  0  0  0  0  0
   -1.7460    3.1993    0.8621 H   0  0  0  0  0  0  0  0  0  0  0  0
    0.5858    2.4975   -2.6236 C   0  0  0  0  0  0  0  0  0  0  0  0
    0.3619    1.4628   -2.9671 H   0  0  0  0  0  0  0  0  0  0  0  0
    1.3713    2.8888   -3.2976 H   0  0  0  0  0  0  0  0  0  0  0  0
   -0.3329    3.0987   -2.7962 H   0  0  0  0  0  0  0  0  0  0  0  0
    3.5283    3.0873   -1.4563 C   0  0  0  0  0  0  0  0  0  0  0  0
    3.3535    3.1328   -2.5472 H   0  0  0  0  0  0  0  0  0  0  0  0
    4.2911    2.3001   -1.2781 H   0  0  0  0  0  0  0  0  0  0  0  0
    3.9832    4.0481   -1.1362 H   0  0  0  0  0  0  0  0  0  0  0  0
    3.4466    3.0307    1.6247 C   0  0  0  0  0  0  0  0  0  0  0  0
    4.2722    2.3290    1.3843 H   0  0  0  0  0  0  0  0  0  0  0  0
    3.2338    2.9359    2.7053 H   0  0  0  0  0  0  0  0  0  0  0  0
    3.8360    4.0546    1.4401 H   0  0  0  0  0  0  0  0  0  0  0  0
    0.4456    2.3197    2.5998 C   0  0  0  0  0  0  0  0  0  0  0  0
   -0.3075    3.1018    2.8393 H   0  0  0  0  0  0  0  0  0  0  0  0
    1.2592    2.3956    3.3453 H   0  0  0  0  0  0  0  0  0  0  0  0
   -0.0628    1.3446    2.7564 H   0  0  0  0  0  0  0  0  0  0  0  0
  1 15  1  0  0  0  0
  1  8  1  1  0  0  0
  3 13  1  0  0  0  0
  5 14  1  0  0  0  0
  7 14  1  0  0  0  0
  9  1  1  0  0  0  0
  9 12  1  0  0  0  0
 10  9  1  0  0  0  0
 11  9  1  0  0  0  0
 12 13  1  0  0  0  0
 12 14  1  0  0  0  0
 12  8  1  0  0  0  0
 13  2  1  0  0  0  0
 13  4  1  0  0  0  0
 14  6  1  0  0  0  0
 15 20  1  1  0  0  0
 15 19  1  0  0  0  0
 16 17  2  0  0  0  0
 16 15  1  0  0  0  0
 17 18  1  0  0  0  0
 18 19  2  0  0  0  0
 18 32  1  0  0  0  0
 19 36  1  0  0  0  0
 20 22  1  0  0  0  0
 20 23  1  0  0  0  0
 21 20  1  0  0  0  0
 24 16  1  0  0  0  0
 25 24  1  0  0  0  0
 26 24  1  0  0  0  0
 27 24  1  0  0  0  0
 28 30  1  0  0  0  0
 28 31  1  0  0  0  0
 28 17  1  0  0  0  0
 29 28  1  0  0  0  0
 32 34  1  0  0  0  0
 33 32  1  0  0  0  0
 35 32  1  0  0  0  0
 36 39  1  0  0  0  0
 36 37  1  0  0  0  0
 36 38  1  0  0  0  0
M  END
