1
q = 0.0, confidence = 0.994

 46 49  0  0  0  0  0  0  0  0999 V2000
    0.7228   -0.9287   -0.0165 P   0  0  0  0  0  0  0  0  0  0  0  0
    2.7365    1.5036    0.0238 O   0  0  0  0  0  0  0  0  0  0  0  0
    4.9540    1.1454    0.0982 O   0  0  0  0  0  0  0  0  0  0  0  0
    3.7145    0.4990    0.3520 C   0  0  0  0  0  0  0  0  0  0  0  0
    3.2459    2.1812   -1.1352 C   0  0  0  0  0  0  0  0  0  0  0  0
    4.7507    2.2077   -0.8426 C   0  0  0  0  0  0  0  0  0  0  0  0
    3.6303    0.1792    1.8338 C   0  0  0  0  0  0  0  0  0  0  0  0
    2.3453   -1.4630   -0.7478 C   0  0  0  0  0  0  0  0  0  0  0  0
    3.5657   -0.7581   -0.5399 C   0  0  0  0  0  0  0  0  0  0  0  0
    4.7433   -1.2596   -1.1276 C   0  0  0  0  0  0  0  0  0  0  0  0
    4.7421   -2.4211   -1.9111 C   0  0  0  0  0  0  0  0  0  0  0  0
    3.5429   -3.1132   -2.1191 C   0  0  0  0  0  0  0  0  0  0  0  0
    2.3604   -2.6320   -1.5421 C   0  0  0  0  0  0  0  0  0  0  0  0
    0.6234   -1.8853    1.5581 C   0  0  0  0  0  0  0  0  0  0  0  0
    0.3258   -1.1995    2.7517 C   0  0  0  0  0  0  0  0  0  0  0  0
    0.2409   -1.8993    3.9655 C   0  0  0  0  0  0  0  0  0  0  0  0
    0.4529   -3.2861    3.9922 C   0  0  0  0  0  0  0  0  0  0  0  0
    0.7548   -3.9738    2.8042 C   0  0  0  0  0  0  0  0  0  0  0  0
    0.8421   -3.2779    1.5906 C   0  0  0  0  0  0  0  0  0  0  0  0
   -0.5504   -1.7022   -1.0896 C   0  0  0  0  0  0  0  0  0  0  0  0
   -0.5156   -1.4603   -2.4798 C   0  0  0  0  0  0  0  0  0  0  0  0
   -1.5688   -1.8907   -3.2966 C   0  0  0  0  0  0  0  0  0  0  0  0
   -2.6780   -2.5426   -2.7319 C   0  0  0  0  0  0  0  0  0  0  0  0
   -2.7243   -2.7668   -1.3484 C   0  0  0  0  0  0  0  0  0  0  0  0
   -1.6653   -2.3516   -0.5266 C   0  0  0  0  0  0  0  0  0  0  0  0
    2.7478    3.1685   -1.1726 H   0  0  0  0  0  0  0  0  0  0  0  0
    3.0039    1.5992   -2.0523 H   0  0  0  0  0  0  0  0  0  0  0  0
    5.3579    2.0407   -1.7585 H   0  0  0  0  0  0  0  0  0  0  0  0
    5.0696    3.1604   -0.3698 H   0  0  0  0  0  0  0  0  0  0  0  0
    3.7143    1.1216    2.4066 H   0  0  0  0  0  0  0  0  0  0  0  0
    4.4626   -0.4973    2.1038 H   0  0  0  0  0  0  0  0  0  0  0  0
    2.6788   -0.3215    2.0842 H   0  0  0  0  0  0  0  0  0  0  0  0
    5.6753   -0.7053   -0.9499 H   0  0  0  0  0  0  0  0  0  0  0  0
    5.6808   -2.7823   -2.3576 H   0  0  0  0  0  0  0  0  0  0  0  0
    3.5202   -4.0279   -2.7304 H   0  0  0  0  0  0  0  0  0  0  0  0
    1.4187   -3.1706   -1.7220 H   0  0  0  0  0  0  0  0  0  0  0  0
    0.1747   -0.1092    2.7169 H   0  0  0  0  0  0  0  0  0  0  0  0
    0.0088   -1.3558    4.8937 H   0  0  0  0  0  0  0  0  0  0  0  0
    0.3869   -3.8355    4.9436 H   0  0  0  0  0  0  0  0  0  0  0  0
    0.9268   -5.0607    2.8241 H   0  0  0  0  0  0  0  0  0  0  0  0
    1.0839   -3.8212    0.6647 H   0  0  0  0  0  0  0  0  0  0  0  0
    0.3366   -0.9213   -2.9222 H   0  0  0  0  0  0  0  0  0  0  0  0
   -1.5306   -1.7020   -4.3801 H   0  0  0  0  0  0  0  0  0  0  0  0
   -3.5120   -2.8676   -3.3721 H   0  0  0  0  0  0  0  0  0  0  0  0
   -3.5960   -3.2645   -0.8977 H   0  0  0  0  0  0  0  0  0  0  0  0
   -1.7201   -2.5116    0.5596 H   0  0  0  0  0  0  0  0  0  0  0  0
  1 14  1  0  0  0  0
  2  4  1  0  0  0  0
  3  4  1  0  0  0  0
  4  7  1  0  0  0  0
  5  6  1  0  0  0  0
  5  2  1  0  0  0  0
  6 29  1  0  0  0  0
  6  3  1  0  0  0  0
  7 32  1  0  0  0  0
  7 31  1  0  0  0  0
  7 30  1  0  0  0  0
  8  9  1  0  0  0  0
  8  1  1  0  0  0  0
  9  4  1  0  0  0  0
 10 33  1  0  0  0  0
 10  9  2  0  0  0  0
 11 10  1  0  0  0  0
 12 11  2  0  0  0  0
 12 13  1  0  0  0  0
 13  8  2  0  0  0  0
 14 19  2  0  0  0  0
 14 15  1  0  0  0  0
 15 16  2  0  0  0  0
 16 17  1  0  0  0  0
 16 38  1  0  0  0  0
 17 39  1  0  0  0  0
 18 40  1  0  0  0  0
 18 17  2  0  0  0  0
 19 18  1  0  0  0  0
 20 25  1  0  0  0  0
 20  1  1  0  0  0  0
 21 20  2  0  0  0  0
 22 23  2  0  0  0  0
 22 21  1  0  0  0  0
 23 24  1  0  0  0  0
 24 45  1  0  0  0  0
 24 25  2  0  0  0  0
 25 46  1  0  0  0  0
 26  5  1  0  0  0  0
 27  5  1  0  0  0  0
 28  6  1  0  0  0  0
 34 11  1  0  0  0  0
 35 12  1  0  0  0  0
 36 13  1  0  0  0  0
 37 15  1  0  0  0  0
 41 19  1  0  0  0  0
 42 21  1  0  0  0  0
 43 22  1  0  0  0  0
 44 23  1  0  0  0  0
M  END
