1
q = 0.0, confidence = 1.0

 36 38  0  0  0  0  0  0  0  0999 V2000
   -0.0419   -1.3323   -0.2588 P   0  0  0  0  0  0  0  0  0  0  0  0
   -1.6050   -2.0958    0.0585 C   0  0  0  0  0  0  0  0  0  0  0  0
   -2.7194   -2.5252    0.3719 C   0  0  0  0  0  0  0  0  0  0  0  0
   -4.0294   -2.9686    0.7177 C   0  0  0  0  0  0  0  0  0  0  0  0
   -4.9487   -2.0659    1.3130 C   0  0  0  0  0  0  0  0  0  0  0  0
   -4.6313   -1.0318    1.5121 H   0  0  0  0  0  0  0  0  0  0  0  0
   -6.2401   -2.4925    1.6424 C   0  0  0  0  0  0  0  0  0  0  0  0
   -6.9451   -1.7857    2.1055 H   0  0  0  0  0  0  0  0  0  0  0  0
   -6.6359   -3.8163    1.3872 C   0  0  0  0  0  0  0  0  0  0  0  0
   -7.6521   -4.1476    1.6487 H   0  0  0  0  0  0  0  0  0  0  0  0
   -5.7319   -4.7174    0.8001 C   0  0  0  0  0  0  0  0  0  0  0  0
   -6.0392   -5.7552    0.6016 H   0  0  0  0  0  0  0  0  0  0  0  0
   -4.4374   -4.3030    0.4668 C   0  0  0  0  0  0  0  0  0  0  0  0
   -3.7240   -5.0035    0.0093 H   0  0  0  0  0  0  0  0  0  0  0  0
    1.0526   -2.3110    0.8600 C   0  0  0  0  0  0  0  0  0  0  0  0
    1.3748   -1.7829    2.1248 C   0  0  0  0  0  0  0  0  0  0  0  0
    1.0099   -0.7835    2.4050 H   0  0  0  0  0  0  0  0  0  0  0  0
    2.1875   -2.5180    2.9993 C   0  0  0  0  0  0  0  0  0  0  0  0
    2.4499   -2.0973    3.9814 H   0  0  0  0  0  0  0  0  0  0  0  0
    2.6827   -3.7748    2.6148 C   0  0  0  0  0  0  0  0  0  0  0  0
    3.3309   -4.3434    3.2988 H   0  0  0  0  0  0  0  0  0  0  0  0
    2.3612   -4.3004    1.3528 C   0  0  0  0  0  0  0  0  0  0  0  0
    2.7530   -5.2822    1.0462 H   0  0  0  0  0  0  0  0  0  0  0  0
    1.5447   -3.5719    0.4738 C   0  0  0  0  0  0  0  0  0  0  0  0
    1.3009   -3.9775   -0.5198 H   0  0  0  0  0  0  0  0  0  0  0  0
    0.3862   -1.9337   -1.9453 C   0  0  0  0  0  0  0  0  0  0  0  0
   -0.4444   -2.8090   -2.6702 C   0  0  0  0  0  0  0  0  0  0  0  0
   -1.3881   -3.1602   -2.2258 H   0  0  0  0  0  0  0  0  0  0  0  0
   -0.0652   -3.2301   -3.9548 C   0  0  0  0  0  0  0  0  0  0  0  0
   -0.7187   -3.9126   -4.5195 H   0  0  0  0  0  0  0  0  0  0  0  0
    1.1421   -2.7851   -4.5149 C   0  0  0  0  0  0  0  0  0  0  0  0
    1.4378   -3.1178   -5.5216 H   0  0  0  0  0  0  0  0  0  0  0  0
    1.9703   -1.9113   -3.7905 C   0  0  0  0  0  0  0  0  0  0  0  0
    2.9164   -1.5564   -4.2264 H   0  0  0  0  0  0  0  0  0  0  0  0
    1.5957   -1.4773   -2.5115 C   0  0  0  0  0  0  0  0  0  0  0  0
    2.2357   -0.7829   -1.9440 H   0  0  0  0  0  0  0  0  0  0  0  0
  1  2  1  0  0  0  0
  1 15  1  0  0  0  0
  2  3  3  0  0  0  0
  3  4  1  0  0  0  0
  4  5  1  0  0  0  0
  5  6  1  0  0  0  0
  5  7  2  0  0  0  0
  7  8  1  0  0  0  0
  9  7  1  0  0  0  0
  9 10  1  0  0  0  0
 11  9  2  0  0  0  0
 12 11  1  0  0  0  0
 13  4  2  0  0  0  0
 13 11  1  0  0  0  0
 14 13  1  0  0  0  0
 15 16  1  0  0  0  0
 16 17  1  0  0  0  0
 16 18  2  0  0  0  0
 18 19  1  0  0  0  0
 20 18  1  0  0  0  0
 20 21  1  0  0  0  0
 22 20  2  0  0  0  0
 23 22  1  0  0  0  0
 24 15  2  0  0  0  0
 24 22  1  0  0  0  0
 25 24  1  0  0  0  0
 26  1  1  0  0  0  0
 27 28  1  0  0  0  0
 27 26  2  0  0  0  0
 29 27  1  0  0  0  0
 30 29  1  0  0  0  0
 31 29  2  0  0  0  0
 31 33  1  0  0  0  0
 32 31  1  0  0  0  0
 33 35  2  0  0  0  0
 34 33  1  0  0  0  0
 35 26  1  0  0  0  0
 35 36  1  0  0  0  0
M  END
