1
q = 0.0, confidence = 0.994

 35 35  0  0  0  0  0  0  0  0999 V2000
    0.2510    1.6115    0.3290 P   0  0  0  0  0  0  0  0  0  0  0  0
    0.2875    2.0717    1.6747 H   0  0  0  0  0  0  0  0  0  0  0  0
    0.8892    3.2523   -0.4315 C   0  0  0  0  0  0  0  0  0  0  0  0
   -0.2544    4.2708   -0.5194 C   0  0  0  0  0  0  0  0  0  0  0  0
    0.1419    5.2485   -0.8679 H   0  0  0  0  0  0  0  0  0  0  0  0
   -0.7345    4.4337    0.4671 H   0  0  0  0  0  0  0  0  0  0  0  0
   -1.0450    3.9540   -1.2276 H   0  0  0  0  0  0  0  0  0  0  0  0
    1.9676    3.7402    0.5573 C   0  0  0  0  0  0  0  0  0  0  0  0
    1.5386    3.9864    1.5496 H   0  0  0  0  0  0  0  0  0  0  0  0
    2.4412    4.6604    0.1545 H   0  0  0  0  0  0  0  0  0  0  0  0
    2.7692    2.9880    0.6985 H   0  0  0  0  0  0  0  0  0  0  0  0
    1.5516    3.0159   -1.7958 C   0  0  0  0  0  0  0  0  0  0  0  0
    0.8405    2.6736   -2.5687 H   0  0  0  0  0  0  0  0  0  0  0  0
    2.3625    2.2658   -1.7214 H   0  0  0  0  0  0  0  0  0  0  0  0
    2.0002    3.9671   -2.1520 H   0  0  0  0  0  0  0  0  0  0  0  0
   -1.5966    1.4774    0.1709 C   0  0  0  0  0  0  0  0  0  0  0  0
   -2.1967    1.2020   -1.0914 C   0  0  0  0  0  0  0  0  0  0  0  0
   -3.5736    0.9075   -1.1582 C   0  0  0  0  0  0  0  0  0  0  0  0
   -4.0191    0.6972   -2.1442 H   0  0  0  0  0  0  0  0  0  0  0  0
   -4.3852    0.8664   -0.0154 C   0  0  0  0  0  0  0  0  0  0  0  0
   -3.7753    1.1371    1.2233 C   0  0  0  0  0  0  0  0  0  0  0  0
   -4.3898    1.1089    2.1378 H   0  0  0  0  0  0  0  0  0  0  0  0
   -2.4067    1.4359    1.3489 C   0  0  0  0  0  0  0  0  0  0  0  0
   -1.4093    1.2126   -2.3770 C   0  0  0  0  0  0  0  0  0  0  0  0
   -0.3891    0.8012   -2.2444 H   0  0  0  0  0  0  0  0  0  0  0  0
   -1.2920    2.2444   -2.7691 H   0  0  0  0  0  0  0  0  0  0  0  0
   -1.9187    0.6217   -3.1622 H   0  0  0  0  0  0  0  0  0  0  0  0
   -5.8472    0.5114   -0.0961 C   0  0  0  0  0  0  0  0  0  0  0  0
   -6.0315   -0.5056    0.3120 H   0  0  0  0  0  0  0  0  0  0  0  0
   -6.2154    0.5239   -1.1399 H   0  0  0  0  0  0  0  0  0  0  0  0
   -6.4682    1.2115    0.4986 H   0  0  0  0  0  0  0  0  0  0  0  0
   -1.8669    1.6847    2.7389 C   0  0  0  0  0  0  0  0  0  0  0  0
   -2.6791    1.6108    3.4866 H   0  0  0  0  0  0  0  0  0  0  0  0
   -1.4153    2.6937    2.8340 H   0  0  0  0  0  0  0  0  0  0  0  0
   -1.0812    0.9559    3.0265 H   0  0  0  0  0  0  0  0  0  0  0  0
  1  2  1  0  0  0  0
  3  1  1  0  0  0  0
  3  8  1  0  0  0  0
  4  3  1  0  0  0  0
  4  6  1  0  0  0  0
  5  4  1  0  0  0  0
  7  4  1  0  0  0  0
  8 11  1  0  0  0  0
  8  9  1  0  0  0  0
 10  8  1  0  0  0  0
 12 14  1  0  0  0  0
 12  3  1  0  0  0  0
 13 12  1  0  0  0  0
 15 12  1  0  0  0  0
 16  1  1  0  0  0  0
 16 23  1  0  0  0  0
 17 16  2  0  0  0  0
 18 17  1  0  0  0  0
 18 20  2  0  0  0  0
 19 18  1  0  0  0  0
 20 21  1  0  0  0  0
 21 23  2  0  0  0  0
 21 22  1  0  0  0  0
 23 32  1  0  0  0  0
 24 25  1  0  0  0  0
 24 17  1  0  0  0  0
 26 24  1  0  0  0  0
 27 24  1  0  0  0  0
 28 20  1  0  0  0  0
 28 29  1  0  0  0  0
 28 31  1  0  0  0  0
 30 28  1  0  0  0  0
 32 34  1  0  0  0  0
 32 35  1  0  0  0  0
 32 33  1  0  0  0  0
M  END
