1
q = 0.0, confidence = 1.0

 57 60  0  0  1  0  0  0  0  0999 V2000
   -0.4193   -0.1334    0.1874 P   0  0  1  0  0  0  0  0  0  0  0  0
    0.9057    0.1815   -1.5902 P   0  0  2  0  0  0  0  0  0  0  0  0
    2.3850   -1.1548    0.9922 P   0  0  1  0  0  0  0  0  0  0  0  0
    3.9051    0.7487   -1.0590 P   0  0  0  0  0  2  0  0  0  0  0  0
    1.0286   -1.2267   -0.3252 C   0  0  1  0  0  0  0  0  0  0  0  0
    3.8886   -0.5065    0.0936 C   0  0  1  0  0  3  0  0  0  0  0  0
    2.1690    1.4458   -1.0124 C   0  0  1  0  0  0  0  0  0  0  0  0
    1.7301    0.3314    1.8651 C   0  0  0  0  0  0  0  0  0  0  0  0
    0.4107    0.7448    1.5516 C   0  0  0  0  0  0  0  0  0  0  0  0
   -0.1806    1.8194    2.2438 C   0  0  0  0  0  0  0  0  0  0  0  0
    0.5377    2.4825    3.2486 C   0  0  0  0  0  0  0  0  0  0  0  0
    1.8435    2.0712    3.5679 C   0  0  0  0  0  0  0  0  0  0  0  0
    2.4366    1.0002    2.8844 C   0  0  0  0  0  0  0  0  0  0  0  0
    0.7595   -2.6656   -0.8638 C   0  0  0  0  0  0  0  0  0  0  0  0
   -0.3343   -2.6797   -1.9470 C   0  0  0  0  0  0  0  0  0  0  0  0
    0.3219   -3.5671    0.3059 C   0  0  0  0  0  0  0  0  0  0  0  0
    2.0571   -3.2001   -1.4923 C   0  0  0  0  0  0  0  0  0  0  0  0
    5.2201   -1.1822    0.4890 C   0  0  0  0  0  0  0  0  0  0  0  0
    5.1622   -2.7127    0.2920 C   0  0  0  0  0  0  0  0  0  0  0  0
    6.4109   -0.6354   -0.3200 C   0  0  0  0  0  0  0  0  0  0  0  0
    5.4731   -0.8922    1.9887 C   0  0  0  0  0  0  0  0  0  0  0  0
    2.0259    2.7822   -1.8124 C   0  0  0  0  0  0  0  0  0  0  0  0
    2.3465    2.5737   -3.3031 C   0  0  0  0  0  0  0  0  0  0  0  0
    2.9958    3.8168   -1.2084 C   0  0  0  0  0  0  0  0  0  0  0  0
    0.5844    3.3044   -1.6516 C   0  0  0  0  0  0  0  0  0  0  0  0
    1.9758    1.6688    0.0583 H   0  0  0  0  0  0  0  0  0  0  0  0
   -1.1976    2.1472    1.9866 H   0  0  0  0  0  0  0  0  0  0  0  0
    0.0754    3.3250    3.7840 H   0  0  0  0  0  0  0  0  0  0  0  0
    2.4047    2.5879    4.3610 H   0  0  0  0  0  0  0  0  0  0  0  0
    3.4569    0.6826    3.1426 H   0  0  0  0  0  0  0  0  0  0  0  0
   -0.4913   -3.7190   -2.2992 H   0  0  0  0  0  0  0  0  0  0  0  0
   -1.3017   -2.3101   -1.5605 H   0  0  0  0  0  0  0  0  0  0  0  0
   -0.0562   -2.0605   -2.8230 H   0  0  0  0  0  0  0  0  0  0  0  0
    1.1044   -3.6176    1.0893 H   0  0  0  0  0  0  0  0  0  0  0  0
    0.1221   -4.5967   -0.0538 H   0  0  0  0  0  0  0  0  0  0  0  0
   -0.6074   -3.1854    0.7742 H   0  0  0  0  0  0  0  0  0  0  0  0
    2.8593   -3.3032   -0.7389 H   0  0  0  0  0  0  0  0  0  0  0  0
    1.8839   -4.2001   -1.9391 H   0  0  0  0  0  0  0  0  0  0  0  0
    2.4210   -2.5205   -2.2905 H   0  0  0  0  0  0  0  0  0  0  0  0
    6.1050   -3.1717    0.6533 H   0  0  0  0  0  0  0  0  0  0  0  0
    4.3267   -3.1639    0.8640 H   0  0  0  0  0  0  0  0  0  0  0  0
    5.0418   -2.9724   -0.7777 H   0  0  0  0  0  0  0  0  0  0  0  0
    7.3447   -1.1370    0.0061 H   0  0  0  0  0  0  0  0  0  0  0  0
    6.5406    0.4562   -0.1749 H   0  0  0  0  0  0  0  0  0  0  0  0
    6.2841   -0.8187   -1.4060 H   0  0  0  0  0  0  0  0  0  0  0  0
    4.6570   -1.3004    2.6208 H   0  0  0  0  0  0  0  0  0  0  0  0
    5.5536    0.1980    2.1736 H   0  0  0  0  0  0  0  0  0  0  0  0
    6.4204   -1.3703    2.3130 H   0  0  0  0  0  0  0  0  0  0  0  0
    2.2522    3.5282   -3.8596 H   0  0  0  0  0  0  0  0  0  0  0  0
    1.6536    1.8411   -3.7666 H   0  0  0  0  0  0  0  0  0  0  0  0
    3.3821    2.1993   -3.4438 H   0  0  0  0  0  0  0  0  0  0  0  0
    2.8988    4.7905   -1.7308 H   0  0  0  0  0  0  0  0  0  0  0  0
    2.7812    3.9818   -0.1322 H   0  0  0  0  0  0  0  0  0  0  0  0
    4.0519    3.4875   -1.2996 H   0  0  0  0  0  0  0  0  0  0  0  0
   -0.1575    2.6090   -2.0966 H   0  0  0  0  0  0  0  0  0  0  0  0
    0.4680    4.2852   -2.1561 H   0  0  0  0  0  0  0  0  0  0  0  0
    0.3203    3.4361   -0.5821 H   0  0  0  0  0  0  0  0  0  0  0  0
  1  9  1  1  0  0  0
  2  7  1  0  0  0  0
  2  5  1  0  0  0  0
  2  1  1  0  0  0  0
  3  8  1  0  0  0  0
  4  7  1  0  0  0  0
  4  6  1  0  0  0  0
  5  1  1  0  0  0  0
  5  3  1  0  0  0  0
  6 18  1  0  0  0  0
  6  3  1  0  0  0  0
  7 26  1  0  0  0  0
  8 13  1  0  0  0  0
  9  8  2  0  0  0  0
  9 10  1  0  0  0  0
 10 11  2  0  0  0  0
 11 12  1  0  0  0  0
 11 28  1  0  0  0  0
 12 29  1  0  0  0  0
 13 30  1  0  0  0  0
 13 12  2  0  0  0  0
 14  5  1  0  0  0  0
 14 16  1  0  0  0  0
 15 32  1  0  0  0  0
 15 14  1  0  0  0  0
 16 36  1  0  0  0  0
 16 34  1  0  0  0  0
 17 14  1  0  0  0  0
 17 37  1  0  0  0  0
 18 21  1  0  0  0  0
 19 18  1  0  0  0  0
 19 40  1  0  0  0  0
 19 41  1  0  0  0  0
 20 44  1  0  0  0  0
 20 43  1  0  0  0  0
 20 18  1  0  0  0  0
 21 47  1  0  0  0  0
 21 48  1  0  0  0  0
 21 46  1  0  0  0  0
 22 25  1  0  0  0  0
 22 24  1  0  0  0  0
 22  7  1  0  0  0  0
 23 22  1  0  0  0  0
 24 53  1  0  0  0  0
 25 57  1  0  0  0  0
 27 10  1  0  0  0  0
 31 15  1  0  0  0  0
 33 15  1  0  0  0  0
 35 16  1  0  0  0  0
 38 17  1  0  0  0  0
 39 17  1  0  0  0  0
 42 19  1  0  0  0  0
 45 20  1  0  0  0  0
 49 23  1  0  0  0  0
 50 23  1  0  0  0  0
 51 23  1  0  0  0  0
 52 24  1  0  0  0  0
 54 24  1  0  0  0  0
 55 25  1  0  0  0  0
 56 25  1  0  0  0  0
M  END
