1
q = 0.0, confidence = 1.0

 33 34  0  0  0  0  0  0  0  0999 V2000
    0.3386   -0.0661    0.6860 P   0  0  0  0  0  0  0  0  0  0  0  0
    0.4475   -0.1455    2.5330 C   0  0  0  0  0  0  0  0  0  0  0  0
    0.1100   -1.1590    2.8229 H   0  0  0  0  0  0  0  0  0  0  0  0
   -0.2297    0.5920    3.0020 H   0  0  0  0  0  0  0  0  0  0  0  0
    1.4813    0.0076    2.8957 H   0  0  0  0  0  0  0  0  0  0  0  0
    1.5805   -1.3737    0.2423 C   0  0  0  0  0  0  0  0  0  0  0  0
    2.9899   -1.2294    0.4069 C   0  0  0  0  0  0  0  0  0  0  0  0
    3.8040   -2.3354    0.0811 C   0  0  0  0  0  0  0  0  0  0  0  0
    4.8942   -2.2323    0.1997 H   0  0  0  0  0  0  0  0  0  0  0  0
    3.2736   -3.5490   -0.3760 C   0  0  0  0  0  0  0  0  0  0  0  0
    3.9466   -4.3856   -0.6178 H   0  0  0  0  0  0  0  0  0  0  0  0
    1.8871   -3.6895   -0.5106 C   0  0  0  0  0  0  0  0  0  0  0  0
    1.4465   -4.6365   -0.8557 H   0  0  0  0  0  0  0  0  0  0  0  0
    1.0567   -2.6045   -0.2020 C   0  0  0  0  0  0  0  0  0  0  0  0
   -0.0304   -2.7167   -0.3051 H   0  0  0  0  0  0  0  0  0  0  0  0
    3.6712    0.0295    0.8864 C   0  0  0  0  0  0  0  0  0  0  0  0
    3.1549    0.5029    1.7417 H   0  0  0  0  0  0  0  0  0  0  0  0
    3.7099    0.8033    0.0923 H   0  0  0  0  0  0  0  0  0  0  0  0
    4.7117   -0.1908    1.1923 H   0  0  0  0  0  0  0  0  0  0  0  0
    1.0827    1.5557    0.2324 C   0  0  0  0  0  0  0  0  0  0  0  0
    1.5265    1.8084   -1.0954 C   0  0  0  0  0  0  0  0  0  0  0  0
    1.9861    3.1045   -1.4036 C   0  0  0  0  0  0  0  0  0  0  0  0
    2.3310    3.3082   -2.4296 H   0  0  0  0  0  0  0  0  0  0  0  0
    2.0050    4.1311   -0.4502 C   0  0  0  0  0  0  0  0  0  0  0  0
    2.3660    5.1327   -0.7281 H   0  0  0  0  0  0  0  0  0  0  0  0
    1.5488    3.8775    0.8506 C   0  0  0  0  0  0  0  0  0  0  0  0
    1.5447    4.6751    1.6084 H   0  0  0  0  0  0  0  0  0  0  0  0
    1.0901    2.5963    1.1844 C   0  0  0  0  0  0  0  0  0  0  0  0
    0.7293    2.4126    2.2062 H   0  0  0  0  0  0  0  0  0  0  0  0
    1.5383    0.7460   -2.1638 C   0  0  0  0  0  0  0  0  0  0  0  0
    0.6244    0.1216   -2.1418 H   0  0  0  0  0  0  0  0  0  0  0  0
    2.3916    0.0473   -2.0359 H   0  0  0  0  0  0  0  0  0  0  0  0
    1.6190    1.1998   -3.1696 H   0  0  0  0  0  0  0  0  0  0  0  0
  1  2  1  0  0  0  0
  2  3  1  0  0  0  0
  2  5  1  0  0  0  0
  2  4  1  0  0  0  0
  6  7  1  0  0  0  0
  6  1  1  0  0  0  0
  7 16  1  0  0  0  0
  8  9  1  0  0  0  0
  8  7  2  0  0  0  0
 10  8  1  0  0  0  0
 11 10  1  0  0  0  0
 12 10  2  0  0  0  0
 12 14  1  0  0  0  0
 13 12  1  0  0  0  0
 14  6  2  0  0  0  0
 15 14  1  0  0  0  0
 16 19  1  0  0  0  0
 16 17  1  0  0  0  0
 18 16  1  0  0  0  0
 20  1  1  0  0  0  0
 20 28  1  0  0  0  0
 21 20  2  0  0  0  0
 22 21  1  0  0  0  0
 22 24  2  0  0  0  0
 23 22  1  0  0  0  0
 24 26  1  0  0  0  0
 25 24  1  0  0  0  0
 26 28  2  0  0  0  0
 26 27  1  0  0  0  0
 28 29  1  0  0  0  0
 30 31  1  0  0  0  0
 30 32  1  0  0  0  0
 30 21  1  0  0  0  0
 33 30  1  0  0  0  0
M  END
