4
q = 0.0, confidence = 0.972

 30 31  0  0  1  0  0  0  0  0999 V2000
   -0.9152    0.5974   -2.2484 Br  0  0  0  0  0  0  0  0  0  0  0  0
   -0.9674   -0.3795    2.6484 Br  0  0  0  0  0  0  0  0  0  0  0  0
    1.8653    3.7471    0.3660 Cl  0  0  0  0  0  0  0  0  0  0  0  0
   -0.0156    0.5308   -0.1453 P   0  0  1  0  0  0  0  0  0  0  0  0
   -1.1746   -1.8315    0.2367 O   0  0  0  0  0  0  0  0  0  0  0  0
   -2.3455   -3.4380   -0.8959 O   0  0  0  0  0  0  0  0  0  0  0  0
   -0.4832    2.2555    0.3807 C   0  0  0  0  0  0  0  0  0  0  0  0
   -1.5683    2.3524    0.1752 H   0  0  0  0  0  0  0  0  0  0  0  0
   -0.3283    2.3155    1.4776 H   0  0  0  0  0  0  0  0  0  0  0  0
    0.2476    3.3879   -0.3349 C   0  0  0  0  0  0  0  0  0  0  0  0
   -0.3406    4.3208   -0.2441 H   0  0  0  0  0  0  0  0  0  0  0  0
    0.3870    3.1727   -1.4127 H   0  0  0  0  0  0  0  0  0  0  0  0
   -1.3859   -0.5249    0.6915 C   0  0  1  0  0  0  0  0  0  0  0  0
   -2.8300   -0.2122    0.4308 C   0  0  0  0  0  0  0  0  0  0  0  0
   -3.3682   -1.2975   -0.2717 C   0  0  0  0  0  0  0  0  0  0  0  0
   -4.6994   -1.3053   -0.6993 C   0  0  0  0  0  0  0  0  0  0  0  0
   -5.0931   -2.1737   -1.2489 H   0  0  0  0  0  0  0  0  0  0  0  0
   -5.5178   -0.1988   -0.4130 C   0  0  0  0  0  0  0  0  0  0  0  0
   -4.9828    0.8976    0.3340 C   0  0  0  0  0  0  0  0  0  0  0  0
   -3.6390    0.8801    0.7588 C   0  0  0  0  0  0  0  0  0  0  0  0
   -3.2556    1.7071    1.3744 H   0  0  0  0  0  0  0  0  0  0  0  0
   -2.3371   -2.3458   -0.3979 C   0  0  0  0  0  0  0  0  0  0  0  0
   -6.9521   -0.1746   -0.8687 C   0  0  0  0  0  0  0  0  0  0  0  0
   -7.2140   -1.0911   -1.4293 H   0  0  0  0  0  0  0  0  0  0  0  0
   -7.1551    0.6977   -1.5251 H   0  0  0  0  0  0  0  0  0  0  0  0
   -7.6509   -0.0875   -0.0101 H   0  0  0  0  0  0  0  0  0  0  0  0
   -5.8613    2.0700    0.6787 C   0  0  0  0  0  0  0  0  0  0  0  0
   -6.2568    2.5611   -0.2353 H   0  0  0  0  0  0  0  0  0  0  0  0
   -5.3150    2.8311    1.2667 H   0  0  0  0  0  0  0  0  0  0  0  0
   -6.7474    1.7529    1.2678 H   0  0  0  0  0  0  0  0  0  0  0  0
  4  1  1  6  0  0  0
  4  7  1  0  0  0  0
  4 13  1  0  0  0  0
  5 13  1  0  0  0  0
  6 22  2  0  0  0  0
  7  9  1  0  0  0  0
  8  7  1  0  0  0  0
 10 11  1  0  0  0  0
 10  3  1  0  0  0  0
 10  7  1  0  0  0  0
 12 10  1  0  0  0  0
 13  2  1  1  0  0  0
 14 13  1  0  0  0  0
 14 20  1  0  0  0  0
 15 14  2  0  0  0  0
 16 18  2  0  0  0  0
 16 15  1  0  0  0  0
 17 16  1  0  0  0  0
 18 19  1  0  0  0  0
 19 27  1  0  0  0  0
 19 20  2  0  0  0  0
 20 21  1  0  0  0  0
 22 15  1  0  0  0  0
 22  5  1  0  0  0  0
 23 18  1  0  0  0  0
 23 26  1  0  0  0  0
 24 23  1  0  0  0  0
 25 23  1  0  0  0  0
 27 29  1  0  0  0  0
 27 30  1  0  0  0  0
 28 27  1  0  0  0  0
M  END
