1
q = 0.0, confidence = 1.0

 36 37  0  0  0  0  0  0  0  0999 V2000
    2.5237    0.0827   -0.7022 P   0  0  0  0  0  0  0  0  0  0  0  0
    2.6540   -0.1436   -2.1101 H   0  0  0  0  0  0  0  0  0  0  0  0
    3.0951   -2.6492   -0.3532 C   0  0  0  0  0  0  0  0  0  0  0  0
    2.0435   -2.7491   -0.0236 H   0  0  0  0  0  0  0  0  0  0  0  0
    3.0926   -2.7678   -1.4603 H   0  0  0  0  0  0  0  0  0  0  0  0
    3.9625   -3.7458    0.2782 C   0  0  0  0  0  0  0  0  0  0  0  0
    3.8685   -3.6850    1.3856 H   0  0  0  0  0  0  0  0  0  0  0  0
    3.5717   -4.7431   -0.0127 H   0  0  0  0  0  0  0  0  0  0  0  0
    5.4366   -3.6055   -0.1172 C   0  0  0  0  0  0  0  0  0  0  0  0
    5.5394   -3.7754   -1.2129 H   0  0  0  0  0  0  0  0  0  0  0  0
    6.0518   -4.3853    0.3789 H   0  0  0  0  0  0  0  0  0  0  0  0
    5.9669   -2.2090    0.2263 C   0  0  0  0  0  0  0  0  0  0  0  0
    7.0213   -2.0958   -0.1027 H   0  0  0  0  0  0  0  0  0  0  0  0
    5.9685   -2.0790    1.3319 H   0  0  0  0  0  0  0  0  0  0  0  0
    5.1070   -1.1006   -0.4010 C   0  0  0  0  0  0  0  0  0  0  0  0
    5.1848   -1.1542   -1.5107 H   0  0  0  0  0  0  0  0  0  0  0  0
    5.5041   -0.1090   -0.1033 H   0  0  0  0  0  0  0  0  0  0  0  0
    3.6285   -1.2473    0.0003 C   0  0  0  0  0  0  0  0  0  0  0  0
    3.5279   -1.1140    1.1021 H   0  0  0  0  0  0  0  0  0  0  0  0
    3.7394    1.9862    0.9788 C   0  0  0  0  0  0  0  0  0  0  0  0
    4.3528    1.1744    1.4233 H   0  0  0  0  0  0  0  0  0  0  0  0
    2.7788    1.9995    1.5362 H   0  0  0  0  0  0  0  0  0  0  0  0
    4.4535    3.3347    1.1485 C   0  0  0  0  0  0  0  0  0  0  0  0
    4.6083    3.5409    2.2282 H   0  0  0  0  0  0  0  0  0  0  0  0
    5.4680    3.2740    0.6923 H   0  0  0  0  0  0  0  0  0  0  0  0
    3.6710    4.4749    0.4858 C   0  0  0  0  0  0  0  0  0  0  0  0
    4.2119    5.4369    0.6059 H   0  0  0  0  0  0  0  0  0  0  0  0
    2.6926    4.5928    1.0025 H   0  0  0  0  0  0  0  0  0  0  0  0
    3.4210    4.1788   -0.9979 C   0  0  0  0  0  0  0  0  0  0  0  0
    4.3962    4.1447   -1.5351 H   0  0  0  0  0  0  0  0  0  0  0  0
    2.8337    4.9958   -1.4665 H   0  0  0  0  0  0  0  0  0  0  0  0
    2.6849    2.8453   -1.1826 C   0  0  0  0  0  0  0  0  0  0  0  0
    2.5368    2.6250   -2.2606 H   0  0  0  0  0  0  0  0  0  0  0  0
    1.6702    2.9168   -0.7387 H   0  0  0  0  0  0  0  0  0  0  0  0
    3.4495    1.6916   -0.5052 C   0  0  0  0  0  0  0  0  0  0  0  0
    4.4176    1.5534   -1.0382 H   0  0  0  0  0  0  0  0  0  0  0  0
  1 35  1  0  0  0  0
  1 18  1  0  0  0  0
  2  1  1  0  0  0  0
  3  4  1  0  0  0  0
  3 18  1  0  0  0  0
  3  6  1  0  0  0  0
  5  3  1  0  0  0  0
  6  7  1  0  0  0  0
  8  6  1  0  0  0  0
  9 12  1  0  0  0  0
  9  6  1  0  0  0  0
  9 11  1  0  0  0  0
 10  9  1  0  0  0  0
 12 14  1  0  0  0  0
 13 12  1  0  0  0  0
 15 17  1  0  0  0  0
 15 18  1  0  0  0  0
 15 12  1  0  0  0  0
 16 15  1  0  0  0  0
 18 19  1  0  0  0  0
 20 23  1  0  0  0  0
 20 21  1  0  0  0  0
 20 22  1  0  0  0  0
 23 24  1  0  0  0  0
 25 23  1  0  0  0  0
 26 27  1  0  0  0  0
 26 28  1  0  0  0  0
 26 23  1  0  0  0  0
 29 26  1  0  0  0  0
 30 29  1  0  0  0  0
 31 29  1  0  0  0  0
 32 29  1  0  0  0  0
 32 34  1  0  0  0  0
 32 35  1  0  0  0  0
 33 32  1  0  0  0  0
 35 20  1  0  0  0  0
 36 35  1  0  0  0  0
M  END
