1
q = 0.0, confidence = 1.0

 35 38  0  0  0  0  0  0  0  0999 V2000
    0.8875   -0.2099    0.0978 P   0  0  1  0  0  0  0  0  0  0  0  0
    1.8727   -1.7880   -0.1616 C   0  0  0  0  0  0  0  0  0  0  0  0
    1.6927   -1.4029    1.2831 C   0  0  0  0  0  0  0  0  0  0  0  0
    2.7800   -1.0364    2.3052 C   0  0  0  0  0  0  0  0  0  0  0  0
    3.2144   -0.0181    2.2665 H   0  0  0  0  0  0  0  0  0  0  0  0
    3.6122   -1.7713    2.2666 H   0  0  0  0  0  0  0  0  0  0  0  0
    1.7560   -1.3704    3.4236 C   0  0  0  0  0  0  0  0  0  0  0  0
    1.2355   -0.4617    3.7863 H   0  0  0  0  0  0  0  0  0  0  0  0
    2.1232   -1.9444    4.2960 H   0  0  0  0  0  0  0  0  0  0  0  0
    0.8935   -2.1279    2.3788 C   0  0  0  0  0  0  0  0  0  0  0  0
    1.0984   -3.2193    2.3669 H   0  0  0  0  0  0  0  0  0  0  0  0
   -0.2027   -1.9758    2.3991 H   0  0  0  0  0  0  0  0  0  0  0  0
    1.1372   -2.9622   -0.7959 C   0  0  0  0  0  0  0  0  0  0  0  0
    1.5179   -3.9009   -0.3325 H   0  0  0  0  0  0  0  0  0  0  0  0
    0.0422   -2.9413   -0.6363 H   0  0  0  0  0  0  0  0  0  0  0  0
    1.5463   -2.8680   -2.2770 C   0  0  0  0  0  0  0  0  0  0  0  0
    1.4969   -3.8479   -2.7908 H   0  0  0  0  0  0  0  0  0  0  0  0
    0.8425   -2.1942   -2.8051 H   0  0  0  0  0  0  0  0  0  0  0  0
    2.9773   -2.2541   -2.2785 C   0  0  0  0  0  0  0  0  0  0  0  0
    3.0368   -1.4035   -2.9873 H   0  0  0  0  0  0  0  0  0  0  0  0
    3.7436   -2.9842   -2.6063 H   0  0  0  0  0  0  0  0  0  0  0  0
    3.2446   -1.7853   -0.8262 C   0  0  0  0  0  0  0  0  0  0  0  0
    3.7699   -0.8137   -0.7564 H   0  0  0  0  0  0  0  0  0  0  0  0
    3.8755   -2.5254   -0.2849 H   0  0  0  0  0  0  0  0  0  0  0  0
    2.0018    1.2271   -0.0757 C   0  0  0  0  0  0  0  0  0  0  0  0
    2.6065    1.5293   -1.3136 C   0  0  0  0  0  0  0  0  0  0  0  0
    2.4664    0.8531   -2.1712 H   0  0  0  0  0  0  0  0  0  0  0  0
    3.3706    2.6969   -1.4586 C   0  0  0  0  0  0  0  0  0  0  0  0
    3.8388    2.9261   -2.4279 H   0  0  0  0  0  0  0  0  0  0  0  0
    3.5293    3.5747   -0.3744 C   0  0  0  0  0  0  0  0  0  0  0  0
    4.1256    4.4921   -0.4916 H   0  0  0  0  0  0  0  0  0  0  0  0
    2.9147    3.2887    0.8553 C   0  0  0  0  0  0  0  0  0  0  0  0
    3.0248    3.9822    1.7027 H   0  0  0  0  0  0  0  0  0  0  0  0
    2.1503    2.1224    1.0055 C   0  0  0  0  0  0  0  0  0  0  0  0
    1.6468    1.9128    1.9625 H   0  0  0  0  0  0  0  0  0  0  0  0
  1 25  1  6  0  0  0
  1  3  1  0  0  0  0
  2  1  1  0  0  0  0
  2  3  1  0  0  0  0
  3  4  1  0  0  0  0
  3 10  1  0  0  0  0
  4  7  1  0  0  0  0
  5  4  1  0  0  0  0
  6  4  1  0  0  0  0
  7  8  1  0  0  0  0
  7  9  1  0  0  0  0
 10 12  1  0  0  0  0
 10  7  1  0  0  0  0
 11 10  1  0  0  0  0
 13 15  1  0  0  0  0
 13 14  1  0  0  0  0
 13  2  1  0  0  0  0
 16 13  1  0  0  0  0
 17 16  1  0  0  0  0
 18 16  1  0  0  0  0
 19 16  1  0  0  0  0
 19 22  1  0  0  0  0
 20 19  1  0  0  0  0
 21 19  1  0  0  0  0
 22 23  1  0  0  0  0
 22 24  1  0  0  0  0
 22  2  1  0  0  0  0
 25 34  1  0  0  0  0
 26 25  2  0  0  0  0
 27 26  1  0  0  0  0
 28 26  1  0  0  0  0
 28 30  2  0  0  0  0
 29 28  1  0  0  0  0
 30 32  1  0  0  0  0
 31 30  1  0  0  0  0
 32 34  2  0  0  0  0
 32 33  1  0  0  0  0
 34 35  1  0  0  0  0
M  END
