1
q = 0.0, confidence = 0.988

 71 72  0  0  1  0  0  0  0  0999 V2000
   -0.6995    0.4928    0.2428 P   0  0  1  0  0  0  0  0  0  0  0  0
    1.4922    0.8692   -0.3027 P   0  0  2  0  0  0  0  0  0  0  0  0
    3.5612    0.5808   -2.4996 Si  0  0  0  0  0  0  0  0  0  0  0  0
    3.0399   -2.0646   -0.6929 Si  0  0  0  0  0  0  0  0  0  0  0  0
   -1.3643    3.3583    1.4876 Si  0  0  0  0  0  0  0  0  0  0  0  0
   -1.3230    2.8172   -1.7473 Si  0  0  0  0  0  0  0  0  0  0  0  0
    0.0815    0.4781    1.8390 N   0  0  0  0  0  2  0  0  0  0  0  0
    2.3262   -0.4116   -1.3910 C   0  0  0  0  0  0  0  0  0  0  0  0
    1.5127   -0.7605   -2.0692 H   0  0  0  0  0  0  0  0  0  0  0  0
    4.5936   -0.5402   -3.6255 C   0  0  0  0  0  0  0  0  0  0  0  0
    3.9523   -1.1434   -4.2993 H   0  0  0  0  0  0  0  0  0  0  0  0
    5.2553   -1.2311   -3.0677 H   0  0  0  0  0  0  0  0  0  0  0  0
    5.2372    0.1022   -4.2620 H   0  0  0  0  0  0  0  0  0  0  0  0
    2.6136    1.7659   -3.6298 C   0  0  0  0  0  0  0  0  0  0  0  0
    1.9884    2.4788   -3.0584 H   0  0  0  0  0  0  0  0  0  0  0  0
    1.9541    1.2157   -4.3310 H   0  0  0  0  0  0  0  0  0  0  0  0
    3.3348    2.3550   -4.2339 H   0  0  0  0  0  0  0  0  0  0  0  0
    4.7295    1.5980   -1.4080 C   0  0  0  0  0  0  0  0  0  0  0  0
    5.4466    2.1529   -2.0474 H   0  0  0  0  0  0  0  0  0  0  0  0
    5.3148    0.9615   -0.7154 H   0  0  0  0  0  0  0  0  0  0  0  0
    4.1674    2.3455   -0.8113 H   0  0  0  0  0  0  0  0  0  0  0  0
    1.9630   -2.8184    0.6568 C   0  0  0  0  0  0  0  0  0  0  0  0
    0.9284   -2.9683    0.2953 H   0  0  0  0  0  0  0  0  0  0  0  0
    1.9242   -2.2205    1.5854 H   0  0  0  0  0  0  0  0  0  0  0  0
    2.3740   -3.8160    0.9177 H   0  0  0  0  0  0  0  0  0  0  0  0
    4.7971   -1.8520   -0.0185 C   0  0  0  0  0  0  0  0  0  0  0  0
    4.8232   -1.1742    0.8570 H   0  0  0  0  0  0  0  0  0  0  0  0
    5.5065   -1.4705   -0.7793 H   0  0  0  0  0  0  0  0  0  0  0  0
    5.1683   -2.8430    0.3161 H   0  0  0  0  0  0  0  0  0  0  0  0
    3.0604   -3.3151   -2.1166 C   0  0  0  0  0  0  0  0  0  0  0  0
    3.4025   -4.2972   -1.7282 H   0  0  0  0  0  0  0  0  0  0  0  0
    3.7330   -3.0280   -2.9461 H   0  0  0  0  0  0  0  0  0  0  0  0
    2.0395   -3.4532   -2.5258 H   0  0  0  0  0  0  0  0  0  0  0  0
    1.3468    0.4153    1.4985 C   0  0  2  0  0  3  0  0  0  0  0  0
    2.4271    0.2594    2.4814 C   0  0  0  0  0  0  0  0  0  0  0  0
    2.1661   -0.3814    3.7146 C   0  0  0  0  0  0  0  0  0  0  0  0
    1.1551   -0.7733    3.9001 H   0  0  0  0  0  0  0  0  0  0  0  0
    3.1882   -0.5231    4.6597 C   0  0  0  0  0  0  0  0  0  0  0  0
    2.9846   -1.0327    5.6136 H   0  0  0  0  0  0  0  0  0  0  0  0
    4.4741   -0.0200    4.3919 C   0  0  0  0  0  0  0  0  0  0  0  0
    5.2754   -0.1338    5.1377 H   0  0  0  0  0  0  0  0  0  0  0  0
    4.7372    0.6259    3.1727 C   0  0  0  0  0  0  0  0  0  0  0  0
    5.7406    1.0263    2.9637 H   0  0  0  0  0  0  0  0  0  0  0  0
    3.7195    0.7610    2.2190 C   0  0  0  0  0  0  0  0  0  0  0  0
    3.9154    1.2734    1.2651 H   0  0  0  0  0  0  0  0  0  0  0  0
   -1.5616    2.1041    0.0327 C   0  0  0  0  0  0  0  0  0  0  0  0
   -2.6418    1.8339    0.0536 H   0  0  0  0  0  0  0  0  0  0  0  0
   -2.1011    2.6044    3.0532 C   0  0  0  0  0  0  0  0  0  0  0  0
   -1.5249    1.7035    3.3426 H   0  0  0  0  0  0  0  0  0  0  0  0
   -3.1596    2.3092    2.9067 H   0  0  0  0  0  0  0  0  0  0  0  0
   -2.0595    3.3370    3.8859 H   0  0  0  0  0  0  0  0  0  0  0  0
    0.4337    3.8560    1.7993 C   0  0  0  0  0  0  0  0  0  0  0  0
    0.4471    4.7191    2.4974 H   0  0  0  0  0  0  0  0  0  0  0  0
    0.9615    4.1584    0.8751 H   0  0  0  0  0  0  0  0  0  0  0  0
    1.0017    3.0325    2.2731 H   0  0  0  0  0  0  0  0  0  0  0  0
   -2.3735    4.9070    1.0566 C   0  0  0  0  0  0  0  0  0  0  0  0
   -3.4342    4.6539    0.8533 H   0  0  0  0  0  0  0  0  0  0  0  0
   -1.9770    5.4594    0.1818 H   0  0  0  0  0  0  0  0  0  0  0  0
   -2.3570    5.5985    1.9248 H   0  0  0  0  0  0  0  0  0  0  0  0
   -0.9059    1.4483   -2.9937 C   0  0  0  0  0  0  0  0  0  0  0  0
   -1.7649    0.7692   -3.1483 H   0  0  0  0  0  0  0  0  0  0  0  0
   -0.0303    0.8347   -2.7077 H   0  0  0  0  0  0  0  0  0  0  0  0
   -0.6671    1.9197   -3.9696 H   0  0  0  0  0  0  0  0  0  0  0  0
    0.0453    4.1232   -1.8018 C   0  0  0  0  0  0  0  0  0  0  0  0
    0.1980    4.4547   -2.8496 H   0  0  0  0  0  0  0  0  0  0  0  0
    1.0014    3.7068   -1.4267 H   0  0  0  0  0  0  0  0  0  0  0  0
   -0.2038    5.0165   -1.1961 H   0  0  0  0  0  0  0  0  0  0  0  0
   -2.9743    3.5659   -2.2830 C   0  0  0  0  0  0  0  0  0  0  0  0
   -3.3120    4.3748   -1.6067 H   0  0  0  0  0  0  0  0  0  0  0  0
   -3.7583    2.7816   -2.3109 H   0  0  0  0  0  0  0  0  0  0  0  0
   -2.8850    3.9890   -3.3051 H   0  0  0  0  0  0  0  0  0  0  0  0
  1 46  1  1  0  0  0
  1  7  1  0  0  0  0
  2  8  1  6  0  0  0
  2  1  1  0  0  0  0
  2 34  1  0  0  0  0
  3 18  1  0  0  0  0
  3  8  1  0  0  0  0
  4 26  1  0  0  0  0
  4 22  1  0  0  0  0
  5 52  1  0  0  0  0
  5 48  1  0  0  0  0
  6 46  1  0  0  0  0
  8  4  1  0  0  0  0
  9  8  1  0  0  0  0
 10 12  1  0  0  0  0
 10  3  1  0  0  0  0
 11 10  1  0  0  0  0
 13 10  1  0  0  0  0
 14 15  1  0  0  0  0
 14  3  1  0  0  0  0
 16 14  1  0  0  0  0
 17 14  1  0  0  0  0
 18 21  1  0  0  0  0
 18 20  1  0  0  0  0
 19 18  1  0  0  0  0
 22 25  1  0  0  0  0
 22 24  1  0  0  0  0
 23 22  1  0  0  0  0
 26 29  1  0  0  0  0
 26 27  1  0  0  0  0
 28 26  1  0  0  0  0
 30 31  1  0  0  0  0
 30  4  1  0  0  0  0
 32 30  1  0  0  0  0
 33 30  1  0  0  0  0
 34  7  1  0  0  0  0
 34 35  1  1  0  0  0
 35 36  1  0  0  0  0
 36 37  1  0  0  0  0
 36 38  2  0  0  0  0
 38 39  1  0  0  0  0
 40 38  1  0  0  0  0
 40 41  1  0  0  0  0
 42 40  2  0  0  0  0
 43 42  1  0  0  0  0
 44 35  2  0  0  0  0
 44 42  1  0  0  0  0
 45 44  1  0  0  0  0
 46 47  1  0  0  0  0
 46  5  1  0  0  0  0
 48 49  1  0  0  0  0
 48 51  1  0  0  0  0
 50 48  1  0  0  0  0
 52 55  1  0  0  0  0
 52 53  1  0  0  0  0
 54 52  1  0  0  0  0
 56  5  1  0  0  0  0
 56 59  1  0  0  0  0
 57 56  1  0  0  0  0
 58 56  1  0  0  0  0
 60 62  1  0  0  0  0
 60  6  1  0  0  0  0
 61 60  1  0  0  0  0
 63 60  1  0  0  0  0
 64  6  1  0  0  0  0
 64 66  1  0  0  0  0
 64 67  1  0  0  0  0
 65 64  1  0  0  0  0
 68  6  1  0  0  0  0
 68 69  1  0  0  0  0
 70 68  1  0  0  0  0
 71 68  1  0  0  0  0
M  END
