1
q = 0.0, confidence = 0.978

 61 63  0  0  0  0  0  0  0  0999 V2000
    0.2527    0.1365   -0.6857 P   0  0  1  0  0  4  0  0  0  0  0  0
    0.6190    0.2135   -2.1999 O   0  0  0  0  0  0  0  0  0  0  0  0
    1.7513   -1.9194   -1.3622 N   0  0  0  0  0  0  0  0  0  0  0  0
    1.4928   -1.2064   -2.1242 H   0  0  0  0  0  0  0  0  0  0  0  0
    1.4043   -1.8935    1.0153 N   0  0  0  0  0  0  0  0  0  0  0  0
    0.9585   -1.2993    1.7276 H   0  0  0  0  0  0  0  0  0  0  0  0
    1.3106   -1.4177   -0.2247 C   0  0  0  0  0  3  0  0  0  0  0  0
    2.5234   -3.1113   -1.7258 C   0  0  0  0  0  0  0  0  0  0  0  0
    2.2635   -3.9236   -1.0178 H   0  0  0  0  0  0  0  0  0  0  0  0
    2.0934   -3.5444   -3.1291 C   0  0  0  0  0  0  0  0  0  0  0  0
    1.0051   -3.7456   -3.1576 H   0  0  0  0  0  0  0  0  0  0  0  0
    2.6341   -4.4613   -3.4339 H   0  0  0  0  0  0  0  0  0  0  0  0
    2.3202   -2.7504   -3.8705 H   0  0  0  0  0  0  0  0  0  0  0  0
    4.0270   -2.8225   -1.6300 C   0  0  0  0  0  0  0  0  0  0  0  0
    4.3056   -1.9929   -2.3108 H   0  0  0  0  0  0  0  0  0  0  0  0
    4.6130   -3.7193   -1.9133 H   0  0  0  0  0  0  0  0  0  0  0  0
    4.3188   -2.5297   -0.6009 H   0  0  0  0  0  0  0  0  0  0  0  0
    1.8477   -3.2175    1.4885 C   0  0  0  0  0  0  0  0  0  0  0  0
    2.7578   -3.4877    0.9130 H   0  0  0  0  0  0  0  0  0  0  0  0
    0.7605   -4.2740    1.2517 C   0  0  0  0  0  0  0  0  0  0  0  0
   -0.1353   -4.0476    1.8628 H   0  0  0  0  0  0  0  0  0  0  0  0
    1.1326   -5.2792    1.5336 H   0  0  0  0  0  0  0  0  0  0  0  0
    0.4422   -4.3045    0.1908 H   0  0  0  0  0  0  0  0  0  0  0  0
    2.2297   -3.0972    2.9635 C   0  0  0  0  0  0  0  0  0  0  0  0
    3.0188   -2.3350    3.1143 H   0  0  0  0  0  0  0  0  0  0  0  0
    2.5950   -4.0698    3.3455 H   0  0  0  0  0  0  0  0  0  0  0  0
    1.3479   -2.8017    3.5688 H   0  0  0  0  0  0  0  0  0  0  0  0
    1.1993    1.6330    0.2325 C   0  0  0  0  0  0  0  0  0  0  0  0
    1.4746    1.2100    1.6724 C   0  0  0  0  0  0  0  0  0  0  0  0
    0.3888    0.8308    2.5000 C   0  0  0  0  0  0  0  0  0  0  0  0
   -0.6319    0.9031    2.1044 H   0  0  0  0  0  0  0  0  0  0  0  0
    0.5886    0.3809    3.8134 C   0  0  0  0  0  0  0  0  0  0  0  0
   -0.2800    0.0774    4.4169 H   0  0  0  0  0  0  0  0  0  0  0  0
    1.8850    0.3259    4.3507 C   0  0  0  0  0  0  0  0  0  0  0  0
    2.0472   -0.0219    5.3820 H   0  0  0  0  0  0  0  0  0  0  0  0
    2.9674    0.7414    3.5605 C   0  0  0  0  0  0  0  0  0  0  0  0
    3.9873    0.7341    3.9753 H   0  0  0  0  0  0  0  0  0  0  0  0
    2.7661    1.1765    2.2403 C   0  0  0  0  0  0  0  0  0  0  0  0
    3.6287    1.5062    1.6464 H   0  0  0  0  0  0  0  0  0  0  0  0
    2.4604    1.9020   -0.5901 C   0  0  0  0  0  0  0  0  0  0  0  0
    3.4567    0.9089   -0.7348 C   0  0  0  0  0  0  0  0  0  0  0  0
    3.3362   -0.0587   -0.2301 H   0  0  0  0  0  0  0  0  0  0  0  0
    4.6138    1.1360   -1.4894 C   0  0  0  0  0  0  0  0  0  0  0  0
    5.3699    0.3403   -1.5779 H   0  0  0  0  0  0  0  0  0  0  0  0
    4.8105    2.3713   -2.1274 C   0  0  0  0  0  0  0  0  0  0  0  0
    5.7170    2.5524   -2.7245 H   0  0  0  0  0  0  0  0  0  0  0  0
    3.8382    3.3704   -1.9886 C   0  0  0  0  0  0  0  0  0  0  0  0
    3.9772    4.3480   -2.4750 H   0  0  0  0  0  0  0  0  0  0  0  0
    2.6797    3.1382   -1.2304 C   0  0  0  0  0  0  0  0  0  0  0  0
    1.9328    3.9374   -1.1343 H   0  0  0  0  0  0  0  0  0  0  0  0
    0.2030    2.7969    0.1537 C   0  0  0  0  0  0  0  0  0  0  0  0
    0.0014    3.6741    1.2368 C   0  0  0  0  0  0  0  0  0  0  0  0
    0.5573    3.5215    2.1728 H   0  0  0  0  0  0  0  0  0  0  0  0
   -0.9049    4.7415    1.1384 C   0  0  0  0  0  0  0  0  0  0  0  0
   -1.0500    5.4104    2.0003 H   0  0  0  0  0  0  0  0  0  0  0  0
   -1.6297    4.9498   -0.0439 C   0  0  0  0  0  0  0  0  0  0  0  0
   -2.3523    5.7768   -0.1134 H   0  0  0  0  0  0  0  0  0  0  0  0
   -1.4230    4.0950   -1.1382 C   0  0  0  0  0  0  0  0  0  0  0  0
   -1.9784    4.2464   -2.0763 H   0  0  0  0  0  0  0  0  0  0  0  0
   -0.5104    3.0360   -1.0440 C   0  0  0  0  0  0  0  0  0  0  0  0
   -0.3295    2.3873   -1.9156 H   0  0  0  0  0  0  0  0  0  0  0  0
  1  2  2  6  0  0  0
  1  7  1  0  0  0  0
  1 28  1  0  0  0  0
  3  7  1  0  0  0  0
  4  3  1  0  0  0  0
  5 18  1  0  0  0  0
  5  6  1  0  0  0  0
  7  5  1  0  0  0  0
  8 14  1  0  0  0  0
  8  3  1  0  0  0  0
  8  9  1  0  0  0  0
 10  8  1  0  0  0  0
 11 10  1  0  0  0  0
 12 10  1  0  0  0  0
 13 10  1  0  0  0  0
 14 17  1  0  0  0  0
 15 14  1  0  0  0  0
 16 14  1  0  0  0  0
 18 24  1  0  0  0  0
 19 18  1  0  0  0  0
 20 18  1  0  0  0  0
 20 22  1  0  0  0  0
 20 21  1  0  0  0  0
 23 20  1  0  0  0  0
 24 25  1  0  0  0  0
 24 26  1  0  0  0  0
 24 27  1  0  0  0  0
 28 29  1  0  0  0  0
 29 38  2  0  0  0  0
 29 30  1  0  0  0  0
 30 32  2  0  0  0  0
 31 30  1  0  0  0  0
 32 34  1  0  0  0  0
 32 33  1  0  0  0  0
 34 35  1  0  0  0  0
 36 37  1  0  0  0  0
 36 34  2  0  0  0  0
 38 36  1  0  0  0  0
 39 38  1  0  0  0  0
 40 28  1  0  0  0  0
 41 40  1  0  0  0  0
 41 42  1  0  0  0  0
 43 41  2  0  0  0  0
 44 43  1  0  0  0  0
 45 47  2  0  0  0  0
 45 43  1  0  0  0  0
 46 45  1  0  0  0  0
 47 49  1  0  0  0  0
 48 47  1  0  0  0  0
 49 50  1  0  0  0  0
 49 40  2  0  0  0  0
 51 28  1  0  0  0  0
 51 52  1  0  0  0  0
 52 53  1  0  0  0  0
 54 52  2  0  0  0  0
 54 55  1  0  0  0  0
 56 54  1  0  0  0  0
 57 56  1  0  0  0  0
 58 60  1  0  0  0  0
 58 56  2  0  0  0  0
 59 58  1  0  0  0  0
 60 51  2  0  0  0  0
 61 60  1  0  0  0  0
M  END
