2
q = 0.0, confidence = 0.996

 35 38  0  0  0  0  0  0  0  0999 V2000
   -2.1988    2.0163   -1.3470 S   0  0  0  0  0  0  0  0  0  0  0  0
   -0.6824   -0.4158    0.2614 P   0  0  0  0  0  0  0  0  0  0  0  0
   -3.2745    2.9611   -1.7304 O   0  0  0  0  0  0  0  0  0  0  0  0
   -0.8696    2.0737   -2.0094 O   0  0  0  0  0  0  0  0  0  0  0  0
   -1.2016    1.1442    1.1025 C   0  0  0  0  0  0  0  0  0  0  0  0
   -0.8331    1.3781    2.4413 C   0  0  0  0  0  0  0  0  0  0  0  0
   -0.2718    0.6075    2.9904 H   0  0  0  0  0  0  0  0  0  0  0  0
   -1.1737    2.5828    3.0725 C   0  0  0  0  0  0  0  0  0  0  0  0
   -0.8705    2.7507    4.1167 H   0  0  0  0  0  0  0  0  0  0  0  0
   -1.8980    3.5705    2.3841 C   0  0  0  0  0  0  0  0  0  0  0  0
   -2.1696    4.5105    2.8873 H   0  0  0  0  0  0  0  0  0  0  0  0
   -2.2718    3.3597    1.0498 C   0  0  0  0  0  0  0  0  0  0  0  0
   -2.8371    4.1073    0.4737 H   0  0  0  0  0  0  0  0  0  0  0  0
   -1.9089    2.1581    0.4266 C   0  0  0  0  0  0  0  0  0  0  0  0
   -2.1120   -0.7177   -0.8698 C   0  0  0  0  0  0  0  0  0  0  0  0
   -2.5525   -2.0345   -1.1080 C   0  0  0  0  0  0  0  0  0  0  0  0
   -2.0186   -2.8720   -0.6390 H   0  0  0  0  0  0  0  0  0  0  0  0
   -3.6478   -2.2711   -1.9516 C   0  0  0  0  0  0  0  0  0  0  0  0
   -3.9732   -3.3066   -2.1318 H   0  0  0  0  0  0  0  0  0  0  0  0
   -4.3296   -1.2051   -2.5611 C   0  0  0  0  0  0  0  0  0  0  0  0
   -5.1931   -1.3994   -3.2147 H   0  0  0  0  0  0  0  0  0  0  0  0
   -3.9088    0.1123   -2.3348 C   0  0  0  0  0  0  0  0  0  0  0  0
   -4.4190    0.9770   -2.7840 H   0  0  0  0  0  0  0  0  0  0  0  0
   -2.8018    0.3341   -1.5048 C   0  0  0  0  0  0  0  0  0  0  0  0
   -0.9935   -1.6533    1.5934 C   0  0  0  0  0  0  0  0  0  0  0  0
   -0.0281   -2.6308    1.8961 C   0  0  0  0  0  0  0  0  0  0  0  0
    0.8964   -2.6697    1.3008 H   0  0  0  0  0  0  0  0  0  0  0  0
   -0.2743   -3.5652    2.9149 C   0  0  0  0  0  0  0  0  0  0  0  0
    0.4829   -4.3296    3.1458 H   0  0  0  0  0  0  0  0  0  0  0  0
   -1.4813   -3.5304    3.6288 C   0  0  0  0  0  0  0  0  0  0  0  0
   -1.6719   -4.2646    4.4263 H   0  0  0  0  0  0  0  0  0  0  0  0
   -2.4515   -2.5609    3.3209 C   0  0  0  0  0  0  0  0  0  0  0  0
   -3.4029   -2.5350    3.8736 H   0  0  0  0  0  0  0  0  0  0  0  0
   -2.2111   -1.6250    2.3065 C   0  0  0  0  0  0  0  0  0  0  0  0
   -2.9727   -0.8672    2.0664 H   0  0  0  0  0  0  0  0  0  0  0  0
  1 14  1  0  0  0  0
  2  5  1  0  0  0  0
  2 25  1  0  0  0  0
  3  1  2  0  0  0  0
  4  1  2  0  0  0  0
  5  6  1  0  0  0  0
  6  7  1  0  0  0  0
  6  8  2  0  0  0  0
  8  9  1  0  0  0  0
 10 11  1  0  0  0  0
 10  8  1  0  0  0  0
 12 10  2  0  0  0  0
 13 12  1  0  0  0  0
 14 12  1  0  0  0  0
 14  5  2  0  0  0  0
 15  2  1  0  0  0  0
 16 15  1  0  0  0  0
 16 17  1  0  0  0  0
 18 16  2  0  0  0  0
 19 18  1  0  0  0  0
 20 22  2  0  0  0  0
 20 18  1  0  0  0  0
 21 20  1  0  0  0  0
 22 24  1  0  0  0  0
 23 22  1  0  0  0  0
 24  1  1  0  0  0  0
 24 15  2  0  0  0  0
 25 26  2  0  0  0  0
 25 34  1  0  0  0  0
 26 28  1  0  0  0  0
 27 26  1  0  0  0  0
 28 29  1  0  0  0  0
 28 30  2  0  0  0  0
 30 31  1  0  0  0  0
 32 30  1  0  0  0  0
 32 33  1  0  0  0  0
 34 32  2  0  0  0  0
 35 34  1  0  0  0  0
M  END
