1
q = 0.0, confidence = 0.992

 41 43  0  0  0  0  0  0  0  0999 V2000
    1.9460    1.1025    0.4177 P   0  0  0  0  0  0  0  0  0  0  0  0
    2.8198   -3.2182   -0.1130 F   0  0  0  0  0  0  0  0  0  0  0  0
    3.6599   -3.8690   -2.0212 F   0  0  0  0  0  0  0  0  0  0  0  0
    1.7323   -2.8399   -1.9686 F   0  0  0  0  0  0  0  0  0  0  0  0
    4.9225   -1.5057   -1.1950 O   0  0  0  0  0  0  0  0  0  0  0  0
    2.9733   -0.4805   -1.8970 N   0  0  0  0  0  0  0  0  0  0  0  0
    1.9875   -0.5920   -2.2411 H   0  0  0  0  0  0  0  0  0  0  0  0
    2.9908    0.0193    1.4624 C   0  0  0  0  0  0  0  0  0  0  0  0
    3.0804    1.7430   -0.8744 C   0  0  0  0  0  0  0  0  0  0  0  0
    4.3962    0.1179    1.4714 C   0  0  0  0  0  0  0  0  0  0  0  0
    4.9029    0.8611    0.8389 H   0  0  0  0  0  0  0  0  0  0  0  0
    4.4487    3.4895   -1.8776 C   0  0  0  0  0  0  0  0  0  0  0  0
    4.8188    4.5256   -1.8745 H   0  0  0  0  0  0  0  0  0  0  0  0
    3.7428   -1.5406   -1.5165 C   0  0  0  0  0  0  0  0  0  0  0  0
    4.5111   -1.7414    3.0371 C   0  0  0  0  0  0  0  0  0  0  0  0
    5.1094   -2.4397    3.6419 H   0  0  0  0  0  0  0  0  0  0  0  0
    1.5046    2.5606    1.4360 C   0  0  0  0  0  0  0  0  0  0  0  0
    3.4877    0.8493   -1.8952 C   0  0  0  0  0  0  0  0  0  0  0  0
    3.5557    3.0673   -0.8811 C   0  0  0  0  0  0  0  0  0  0  0  0
    3.2291    3.7664   -0.0968 H   0  0  0  0  0  0  0  0  0  0  0  0
    3.1099   -1.8411    3.0292 C   0  0  0  0  0  0  0  0  0  0  0  0
    2.6023   -2.6169    3.6221 H   0  0  0  0  0  0  0  0  0  0  0  0
    2.3503   -0.9681    2.2406 C   0  0  0  0  0  0  0  0  0  0  0  0
    1.2534   -1.0640    2.1992 H   0  0  0  0  0  0  0  0  0  0  0  0
    2.9718   -2.8862   -1.4210 C   0  0  0  0  0  0  0  0  0  0  0  0
    0.6546    4.7517    2.9787 C   0  0  0  0  0  0  0  0  0  0  0  0
    0.3191    5.6042    3.5887 H   0  0  0  0  0  0  0  0  0  0  0  0
    0.3724    3.3071    1.0449 C   0  0  0  0  0  0  0  0  0  0  0  0
   -0.1909    3.0201    0.1439 H   0  0  0  0  0  0  0  0  0  0  0  0
    4.3911    1.2744   -2.8798 C   0  0  0  0  0  0  0  0  0  0  0  0
    4.7048    0.5615   -3.6552 H   0  0  0  0  0  0  0  0  0  0  0  0
    4.8725    2.5919   -2.8694 C   0  0  0  0  0  0  0  0  0  0  0  0
    5.5782    2.9205   -3.6468 H   0  0  0  0  0  0  0  0  0  0  0  0
    5.1508   -0.7657    2.2574 C   0  0  0  0  0  0  0  0  0  0  0  0
    6.2489   -0.7003    2.2444 H   0  0  0  0  0  0  0  0  0  0  0  0
    2.2101    2.9149    2.6025 C   0  0  0  0  0  0  0  0  0  0  0  0
    3.0851    2.3252    2.9160 H   0  0  0  0  0  0  0  0  0  0  0  0
   -0.0490    4.4000    1.8141 C   0  0  0  0  0  0  0  0  0  0  0  0
   -0.9423    4.9631    1.5047 H   0  0  0  0  0  0  0  0  0  0  0  0
    1.7819    4.0104    3.3695 C   0  0  0  0  0  0  0  0  0  0  0  0
    2.3308    4.2824    4.2839 H   0  0  0  0  0  0  0  0  0  0  0  0
  1 17  1  0  0  0  0
  1  8  1  0  0  0  0
  3 25  1  0  0  0  0
  4 25  1  0  0  0  0
  6 18  1  0  0  0  0
  6 14  1  0  0  0  0
  7  6  1  0  0  0  0
  8 10  2  0  0  0  0
  8 23  1  0  0  0  0
  9  1  1  0  0  0  0
 10 34  1  0  0  0  0
 11 10  1  0  0  0  0
 12 13  1  0  0  0  0
 12 19  2  0  0  0  0
 14 25  1  0  0  0  0
 14  5  2  0  0  0  0
 15 16  1  0  0  0  0
 17 36  1  0  0  0  0
 18  9  2  0  0  0  0
 19  9  1  0  0  0  0
 19 20  1  0  0  0  0
 21 15  1  0  0  0  0
 21 22  1  0  0  0  0
 23 21  2  0  0  0  0
 24 23  1  0  0  0  0
 25  2  1  0  0  0  0
 26 40  1  0  0  0  0
 26 27  1  0  0  0  0
 28 17  2  0  0  0  0
 28 38  1  0  0  0  0
 29 28  1  0  0  0  0
 30 32  2  0  0  0  0
 30 18  1  0  0  0  0
 31 30  1  0  0  0  0
 32 12  1  0  0  0  0
 33 32  1  0  0  0  0
 34 15  2  0  0  0  0
 35 34  1  0  0  0  0
 36 37  1  0  0  0  0
 36 40  2  0  0  0  0
 38 26  2  0  0  0  0
 39 38  1  0  0  0  0
 40 41  1  0  0  0  0
M  END
