1
q = 0.0, confidence = 0.998

 16 15  0  0  0  0  0  0  0  0999 V2000
    0.5832   -2.3759   -0.0454 P   0  0  0  0  0  0  0  0  0  0  0  0
    1.0772   -3.0768    1.6347 C   0  0  0  0  0  0  0  0  0  0  0  0
    0.1118   -3.2072    2.1815 H   0  0  0  0  0  0  0  0  0  0  0  0
    1.4950   -4.0979    1.4723 H   0  0  0  0  0  0  0  0  0  0  0  0
    2.0054   -2.2927    2.3191 O   0  0  0  0  0  0  0  0  0  0  0  0
    1.4805   -1.6030    2.8225 H   0  0  0  0  0  0  0  0  0  0  0  0
    2.0440   -2.9450   -1.0553 C   0  0  0  0  0  0  0  0  0  0  0  0
    2.9644   -2.6501   -0.4998 H   0  0  0  0  0  0  0  0  0  0  0  0
    2.0340   -4.0570   -1.1417 H   0  0  0  0  0  0  0  0  0  0  0  0
    1.9602   -2.3281   -2.3452 O   0  0  0  0  0  0  0  0  0  0  0  0
    2.6672   -2.6953   -2.9100 H   0  0  0  0  0  0  0  0  0  0  0  0
   -0.7353   -3.6115   -0.5986 C   0  0  0  0  0  0  0  0  0  0  0  0
   -0.5660   -3.7945   -1.6872 H   0  0  0  0  0  0  0  0  0  0  0  0
   -0.5422   -4.5737   -0.0709 H   0  0  0  0  0  0  0  0  0  0  0  0
   -2.0318   -3.1816   -0.3069 O   0  0  0  0  0  0  0  0  0  0  0  0
   -2.2752   -2.5724   -1.0495 H   0  0  0  0  0  0  0  0  0  0  0  0
  1  2  1  0  0  0  0
  2  3  1  0  0  0  0
  2  5  1  0  0  0  0
  4  2  1  0  0  0  0
  5  6  1  0  0  0  0
  7  8  1  0  0  0  0
  7  1  1  0  0  0  0
  9  7  1  0  0  0  0
 10  7  1  0  0  0  0
 11 10  1  0  0  0  0
 12 15  1  0  0  0  0
 12 14  1  0  0  0  0
 12  1  1  0  0  0  0
 13 12  1  0  0  0  0
 16 15  1  0  0  0  0
M  END
