1
q = -1.0, confidence = 0.0

 15 14  0  0  0  0  0  0  0  0999 V2000
   -1.0086    0.4563   -1.9092 P   0  0  0  0  0  0  0  0  0  0  0  0
   -0.2438    1.8225   -2.9679 C   0  0  0  0  0  0  0  0  0  0  0  0
    0.8187    1.5586   -3.1647 H   0  0  0  0  0  0  0  0  0  0  0  0
   -0.7941    1.8271   -3.9466 H   0  0  0  0  0  0  0  0  0  0  0  0
   -0.3238    3.0431   -2.2888 O   0  0  0  0  0  0  0  0  0  0  0  0
   -1.2559    3.0573   -1.8397 H   0  0  0  0  0  0  0  0  0  0  0  0
   -1.3651   -0.9202   -3.1347 C   0  0  0  0  0  0  0  0  0  0  0  0
   -1.6249   -0.4980   -4.1333 H   0  0  0  0  0  0  0  0  0  0  0  0
   -0.4587   -1.5484   -3.2473 H   0  0  0  0  0  0  0  0  0  0  0  0
   -2.4117   -1.7788   -2.6589 O   0  0  0  0  0  0  0  0  0  0  0  0
   -3.2453   -1.2711   -2.6778 H   0  0  0  0  0  0  0  0  0  0  0  0
   -2.7192    1.2952   -1.7544 C   0  0  0  0  0  0  0  0  0  0  0  0
   -3.1304    1.3174   -2.8067 H   0  0  0  0  0  0  0  0  0  0  0  0
   -3.3845    0.6036   -1.1683 H   0  0  0  0  0  0  0  0  0  0  0  0
   -2.5710    2.5293   -1.1905 O   0  0  0  0  0  1  0  0  0  0  0  0
  1 12  1  0  0  0  0
  2  5  1  0  0  0  0
  2  1  1  0  0  0  0
  3  2  1  0  0  0  0
  4  2  1  0  0  0  0
  5  6  1  0  0  0  0
  7 10  1  0  0  0  0
  7  1  1  0  0  0  0
  8  7  1  0  0  0  0
  9  7  1  0  0  0  0
 11 10  1  0  0  0  0
 12 15  1  0  0  0  0
 12 14  1  0  0  0  0
 13 12  1  0  0  0  0
M  END
