1
q = 0.0, confidence = 0.998

 28 30  0  0  1  0  0  0  0  0999 V2000
    0.6084   -0.4339   -0.0000 P   0  0  1  0  0  0  0  0  0  0  0  0
    1.5356   -1.9266   -0.7521 C   0  0  2  0  0  0  0  0  0  0  0  0
    1.5356   -1.9265    0.7523 C   0  0  1  0  0  0  0  0  0  0  0  0
    2.5671   -1.6995    1.7619 C   0  0  0  0  0  0  0  0  0  0  0  0
    3.9057   -1.4076    1.7236 C   0  0  0  0  0  0  0  0  0  0  0  0
    4.8869   -1.2113    0.6892 C   0  0  0  0  0  0  0  0  0  0  0  0
    4.8869   -1.2114   -0.6890 C   0  0  0  0  0  0  0  0  0  0  0  0
    3.9058   -1.4080   -1.7234 C   0  0  0  0  0  0  0  0  0  0  0  0
    2.5672   -1.6999   -1.7617 C   0  0  0  0  0  0  0  0  0  0  0  0
    1.7872    0.9534   -0.0001 C   0  0  0  0  0  0  0  0  0  0  0  0
    2.1993    1.5292   -1.2207 C   0  0  0  0  0  0  0  0  0  0  0  0
    3.0344    2.6548   -1.2163 C   0  0  0  0  0  0  0  0  0  0  0  0
    3.4562    3.2151   -0.0002 C   0  0  0  0  0  0  0  0  0  0  0  0
    3.0341    2.6551    1.2160 C   0  0  0  0  0  0  0  0  0  0  0  0
    2.1990    1.5295    1.2205 C   0  0  0  0  0  0  0  0  0  0  0  0
    0.7444   -2.5974    1.1347 H   0  0  0  0  0  0  0  0  0  0  0  0
    2.1397   -1.7548    2.7779 H   0  0  0  0  0  0  0  0  0  0  0  0
    4.3415   -1.2897    2.7305 H   0  0  0  0  0  0  0  0  0  0  0  0
    5.8828   -0.9984    1.1134 H   0  0  0  0  0  0  0  0  0  0  0  0
    5.8828   -0.9986   -1.1132 H   0  0  0  0  0  0  0  0  0  0  0  0
    4.3416   -1.2903   -2.7303 H   0  0  0  0  0  0  0  0  0  0  0  0
    1.8643    1.0962   -2.1742 H   0  0  0  0  0  0  0  0  0  0  0  0
    3.3561    3.0981   -2.1707 H   0  0  0  0  0  0  0  0  0  0  0  0
    4.1112    4.0996   -0.0002 H   0  0  0  0  0  0  0  0  0  0  0  0
    3.3556    3.0986    2.1704 H   0  0  0  0  0  0  0  0  0  0  0  0
    1.8638    1.0967    2.1740 H   0  0  0  0  0  0  0  0  0  0  0  0
    0.7444   -2.5975   -1.1344 H   0  0  0  0  0  0  0  0  0  0  0  0
    2.1397   -1.7553   -2.7777 H   0  0  0  0  0  0  0  0  0  0  0  0
  1 10  1  6  0  0  0
  1  3  1  0  0  0  0
  2 27  1  6  0  0  0
  2  1  1  0  0  0  0
  2  3  1  0  0  0  0
  3 16  1  1  0  0  0
  3  4  1  0  0  0  0
  4 17  1  0  0  0  0
  5  4  2  0  0  0  0
  5 18  1  0  0  0  0
  6 19  1  0  0  0  0
  6  5  1  0  0  0  0
  7  6  2  0  0  0  0
  8  7  1  0  0  0  0
  9  8  2  0  0  0  0
  9  2  1  0  0  0  0
 10 15  1  0  0  0  0
 11 12  1  0  0  0  0
 11 10  2  0  0  0  0
 12 13  2  0  0  0  0
 13 14  1  0  0  0  0
 14 15  2  0  0  0  0
 14 25  1  0  0  0  0
 15 26  1  0  0  0  0
 20  7  1  0  0  0  0
 21  8  1  0  0  0  0
 22 11  1  0  0  0  0
 23 12  1  0  0  0  0
 24 13  1  0  0  0  0
 28  9  1  0  0  0  0
M  END
