1
q = 0.0, confidence = 0.998

 41 43  0  0  1  0  0  0  0  0999 V2000
   -0.8078    0.6346   -0.1529 P   0  0  2  0  0  0  0  0  0  0  0  0
   -2.1146    0.5330   -1.2759 O   0  0  0  0  0  0  0  0  0  0  0  0
   -5.4544   -0.0602    0.2356 O   0  0  0  0  0  0  0  0  0  0  0  0
   -2.6203    0.4612    0.0972 C   0  0  0  0  0  0  0  0  0  0  0  0
   -3.6129    1.5409    0.4914 C   0  0  0  0  0  0  0  0  0  0  0  0
   -3.2908    2.5428    0.1681 H   0  0  0  0  0  0  0  0  0  0  0  0
   -3.7071    1.5479    1.5976 H   0  0  0  0  0  0  0  0  0  0  0  0
   -4.9827    1.2200   -0.1349 C   0  0  0  0  0  0  0  0  0  0  0  0
   -5.7431    1.9526    0.2024 H   0  0  0  0  0  0  0  0  0  0  0  0
   -4.8948    1.3002   -1.2474 H   0  0  0  0  0  0  0  0  0  0  0  0
   -4.5615   -1.0784   -0.1838 C   0  0  0  0  0  0  0  0  0  0  0  0
   -4.4520   -1.0728   -1.2964 H   0  0  0  0  0  0  0  0  0  0  0  0
   -5.0147   -2.0449    0.1131 H   0  0  0  0  0  0  0  0  0  0  0  0
   -3.1730   -0.9137    0.4523 C   0  0  0  0  0  0  0  0  0  0  0  0
   -2.5018   -1.7168    0.0968 H   0  0  0  0  0  0  0  0  0  0  0  0
   -3.2551   -1.0017    1.5551 H   0  0  0  0  0  0  0  0  0  0  0  0
   -0.1925    2.4279   -0.2572 C   0  0  2  0  0  0  0  0  0  0  0  0
    0.9455    2.3540   -1.2614 C   0  0  0  0  0  0  0  0  0  0  0  0
    2.1235    2.5696   -0.5899 C   0  0  0  0  0  0  0  0  0  0  0  0
    1.8445    2.7829    0.8461 C   0  0  0  0  0  0  0  0  0  0  0  0
    0.4935    2.6843    1.0717 C   0  0  0  0  0  0  0  0  0  0  0  0
   -1.2127    3.5022   -0.6567 C   0  0  0  0  0  0  0  0  0  0  0  0
   -1.8366    3.1721   -1.5097 H   0  0  0  0  0  0  0  0  0  0  0  0
   -0.6554    4.4126   -0.9565 H   0  0  0  0  0  0  0  0  0  0  0  0
   -1.8727    3.7820    0.1850 H   0  0  0  0  0  0  0  0  0  0  0  0
    0.7066    2.1598   -2.7250 C   0  0  0  0  0  0  0  0  0  0  0  0
    1.6539    2.0224   -3.2785 H   0  0  0  0  0  0  0  0  0  0  0  0
    0.1776    3.0315   -3.1696 H   0  0  0  0  0  0  0  0  0  0  0  0
    0.0687    1.2734   -2.9274 H   0  0  0  0  0  0  0  0  0  0  0  0
    3.5089    2.6056   -1.1531 C   0  0  0  0  0  0  0  0  0  0  0  0
    3.5218    2.4337   -2.2449 H   0  0  0  0  0  0  0  0  0  0  0  0
    4.1470    1.8264   -0.6841 H   0  0  0  0  0  0  0  0  0  0  0  0
    4.0021    3.5798   -0.9504 H   0  0  0  0  0  0  0  0  0  0  0  0
    2.9202    3.0915    1.8384 C   0  0  0  0  0  0  0  0  0  0  0  0
    2.5238    3.1969    2.8656 H   0  0  0  0  0  0  0  0  0  0  0  0
    3.4415    4.0365    1.5750 H   0  0  0  0  0  0  0  0  0  0  0  0
    3.6914    2.2949    1.8579 H   0  0  0  0  0  0  0  0  0  0  0  0
   -0.2623    2.8231    2.3541 C   0  0  0  0  0  0  0  0  0  0  0  0
    0.4176    2.9726    3.2140 H   0  0  0  0  0  0  0  0  0  0  0  0
   -0.8781    1.9229    2.5719 H   0  0  0  0  0  0  0  0  0  0  0  0
   -0.9659    3.6850    2.3317 H   0  0  0  0  0  0  0  0  0  0  0  0
  1  2  1  6  0  0  0
  1  4  1  0  0  0  0
  2  4  1  0  0  0  0
  4 14  1  0  0  0  0
  4  5  1  0  0  0  0
  5  7  1  0  0  0  0
  6  5  1  0  0  0  0
  8  9  1  0  0  0  0
  8  3  1  0  0  0  0
  8  5  1  0  0  0  0
 10  8  1  0  0  0  0
 11 13  1  0  0  0  0
 11  3  1  0  0  0  0
 11 14  1  0  0  0  0
 12 11  1  0  0  0  0
 14 16  1  0  0  0  0
 15 14  1  0  0  0  0
 17 22  1  6  0  0  0
 17  1  1  0  0  0  0
 17 21  1  0  0  0  0
 18 19  2  0  0  0  0
 18 17  1  0  0  0  0
 19 20  1  0  0  0  0
 20 21  2  0  0  0  0
 20 34  1  0  0  0  0
 21 38  1  0  0  0  0
 22 25  1  0  0  0  0
 23 22  1  0  0  0  0
 24 22  1  0  0  0  0
 26 18  1  0  0  0  0
 27 26  1  0  0  0  0
 28 26  1  0  0  0  0
 29 26  1  0  0  0  0
 30 33  1  0  0  0  0
 30 32  1  0  0  0  0
 30 19  1  0  0  0  0
 31 30  1  0  0  0  0
 34 37  1  0  0  0  0
 34 35  1  0  0  0  0
 36 34  1  0  0  0  0
 38 40  1  0  0  0  0
 38 39  1  0  0  0  0
 41 38  1  0  0  0  0
M  END
