1
q = 0.0, confidence = 0.988

 33 33  0  0  0  0  0  0  0  0999 V2000
   -1.3060   -0.2996   -0.9221 P   0  0  1  0  0  0  0  0  0  0  0  0
   -1.9470    1.5948    0.0770 P   0  0  2  0  0  0  0  0  0  0  0  0
   -3.4314   -0.0517   -0.2837 P   0  0  2  0  0  0  0  0  0  0  0  0
   -1.5752   -0.0407   -2.7775 C   0  0  0  0  0  0  0  0  0  0  0  0
   -2.4934    0.5828   -2.8312 H   0  0  0  0  0  0  0  0  0  0  0  0
   -1.8804   -1.3708   -3.4727 C   0  0  0  0  0  0  0  0  0  0  0  0
   -2.7271   -1.8969   -2.9895 H   0  0  0  0  0  0  0  0  0  0  0  0
   -1.0086   -2.0519   -3.4734 H   0  0  0  0  0  0  0  0  0  0  0  0
   -2.1533   -1.1806   -4.5321 H   0  0  0  0  0  0  0  0  0  0  0  0
   -0.4128    0.7309   -3.4095 C   0  0  0  0  0  0  0  0  0  0  0  0
   -0.2353    1.6984   -2.9001 H   0  0  0  0  0  0  0  0  0  0  0  0
   -0.6349    0.9374   -4.4777 H   0  0  0  0  0  0  0  0  0  0  0  0
    0.5313    0.1553   -3.3745 H   0  0  0  0  0  0  0  0  0  0  0  0
   -2.4435    2.9013   -1.2159 C   0  0  0  0  0  0  0  0  0  0  0  0
   -2.5282    2.4240   -2.2130 H   0  0  0  0  0  0  0  0  0  0  0  0
   -1.3675    3.9924   -1.2667 C   0  0  0  0  0  0  0  0  0  0  0  0
   -0.3790    3.5873   -1.5596 H   0  0  0  0  0  0  0  0  0  0  0  0
   -1.2428    4.4779   -0.2757 H   0  0  0  0  0  0  0  0  0  0  0  0
   -1.6545    4.7814   -1.9935 H   0  0  0  0  0  0  0  0  0  0  0  0
   -3.8118    3.4629   -0.8139 C   0  0  0  0  0  0  0  0  0  0  0  0
   -4.5946    2.6785   -0.8290 H   0  0  0  0  0  0  0  0  0  0  0  0
   -4.1165    4.2706   -1.5129 H   0  0  0  0  0  0  0  0  0  0  0  0
   -3.7840    3.8991    0.2072 H   0  0  0  0  0  0  0  0  0  0  0  0
   -3.5190   -0.7498    1.4759 C   0  0  0  0  0  0  0  0  0  0  0  0
   -2.5072   -0.6935    1.9225 H   0  0  0  0  0  0  0  0  0  0  0  0
   -4.4642    0.1368    2.2938 C   0  0  0  0  0  0  0  0  0  0  0  0
   -4.0932    1.1805    2.3516 H   0  0  0  0  0  0  0  0  0  0  0  0
   -4.5538   -0.2524    3.3299 H   0  0  0  0  0  0  0  0  0  0  0  0
   -5.4845    0.1586    1.8557 H   0  0  0  0  0  0  0  0  0  0  0  0
   -3.9738   -2.2110    1.4278 C   0  0  0  0  0  0  0  0  0  0  0  0
   -3.2900   -2.8425    0.8291 H   0  0  0  0  0  0  0  0  0  0  0  0
   -4.9892   -2.3007    0.9875 H   0  0  0  0  0  0  0  0  0  0  0  0
   -4.0115   -2.6329    2.4539 H   0  0  0  0  0  0  0  0  0  0  0  0
  1  4  1  6  0  0  0
  1  3  1  0  0  0  0
  1  2  1  0  0  0  0
  2 14  1  6  0  0  0
  3  2  1  0  0  0  0
  3 24  1  1  0  0  0
  5  4  1  0  0  0  0
  6  7  1  0  0  0  0
  6  4  1  0  0  0  0
  8  6  1  0  0  0  0
  9  6  1  0  0  0  0
 10 13  1  0  0  0  0
 10 11  1  0  0  0  0
 10  4  1  0  0  0  0
 12 10  1  0  0  0  0
 14 20  1  0  0  0  0
 15 14  1  0  0  0  0
 16 14  1  0  0  0  0
 16 18  1  0  0  0  0
 17 16  1  0  0  0  0
 19 16  1  0  0  0  0
 20 23  1  0  0  0  0
 21 20  1  0  0  0  0
 22 20  1  0  0  0  0
 24 25  1  0  0  0  0
 24 26  1  0  0  0  0
 26 27  1  0  0  0  0
 26 28  1  0  0  0  0
 29 26  1  0  0  0  0
 30 24  1  0  0  0  0
 30 33  1  0  0  0  0
 31 30  1  0  0  0  0
 32 30  1  0  0  0  0
M  END
