2
q = 0.0, confidence = 1.0

 51 55  0  0  0  0  0  0  0  0999 V2000
    1.5731    0.0255   -0.3777 As  0  0  0  0  0  0  0  0  0  0  0  0
   -1.6141   -0.1247   -0.4339 P   0  0  0  0  0  0  0  0  0  0  0  0
    0.6181    0.1622   -2.1124 C   0  0  0  0  0  0  0  0  0  0  0  0
    1.3989    0.3599   -3.3753 C   0  0  0  0  0  0  0  0  0  0  0  0
    2.0220    1.2780   -3.3171 H   0  0  0  0  0  0  0  0  0  0  0  0
    0.7362    0.4413   -4.2597 H   0  0  0  0  0  0  0  0  0  0  0  0
    2.1055   -0.4810   -3.5349 H   0  0  0  0  0  0  0  0  0  0  0  0
   -0.7301    0.1074   -2.0359 C   0  0  0  0  0  0  0  0  0  0  0  0
   -1.3578    0.2234   -2.9385 H   0  0  0  0  0  0  0  0  0  0  0  0
   -3.1114   -1.0709   -0.9182 C   0  0  0  0  0  0  0  0  0  0  0  0
   -3.1980   -2.4374   -1.2128 C   0  0  0  0  0  0  0  0  0  0  0  0
   -2.3022   -3.0747   -1.1839 H   0  0  0  0  0  0  0  0  0  0  0  0
   -4.4505   -2.9875   -1.5334 C   0  0  0  0  0  0  0  0  0  0  0  0
   -4.5324   -4.0597   -1.7664 H   0  0  0  0  0  0  0  0  0  0  0  0
   -5.5995   -2.1762   -1.5458 C   0  0  0  0  0  0  0  0  0  0  0  0
   -6.5771   -2.6188   -1.7899 H   0  0  0  0  0  0  0  0  0  0  0  0
   -5.5149   -0.8092   -1.2427 C   0  0  0  0  0  0  0  0  0  0  0  0
   -6.4223   -0.1866   -1.2491 H   0  0  0  0  0  0  0  0  0  0  0  0
   -4.2662   -0.2416   -0.9286 C   0  0  0  0  0  0  0  0  0  0  0  0
   -3.9838    1.1649   -0.5845 C   0  0  0  0  0  0  0  0  0  0  0  0
   -4.9025    2.2277   -0.5015 C   0  0  0  0  0  0  0  0  0  0  0  0
   -5.9705    2.0565   -0.7044 H   0  0  0  0  0  0  0  0  0  0  0  0
   -4.4507    3.5103   -0.1559 C   0  0  0  0  0  0  0  0  0  0  0  0
   -5.1709    4.3398   -0.0900 H   0  0  0  0  0  0  0  0  0  0  0  0
   -3.0901    3.7451    0.1144 C   0  0  0  0  0  0  0  0  0  0  0  0
   -2.7510    4.7541    0.3930 H   0  0  0  0  0  0  0  0  0  0  0  0
   -2.1624    2.6924    0.0435 C   0  0  0  0  0  0  0  0  0  0  0  0
   -1.1011    2.8699    0.2729 H   0  0  0  0  0  0  0  0  0  0  0  0
   -2.6126    1.4139   -0.3085 C   0  0  0  0  0  0  0  0  0  0  0  0
    2.1773    1.8775   -0.1706 C   0  0  0  0  0  0  0  0  0  0  0  0
    1.5447    2.9399   -0.8426 C   0  0  0  0  0  0  0  0  0  0  0  0
    0.7437    2.7364   -1.5702 H   0  0  0  0  0  0  0  0  0  0  0  0
    1.9242    4.2662   -0.5757 C   0  0  0  0  0  0  0  0  0  0  0  0
    1.4256    5.0926   -1.1052 H   0  0  0  0  0  0  0  0  0  0  0  0
    2.9324    4.5361    0.3620 C   0  0  0  0  0  0  0  0  0  0  0  0
    3.2270    5.5754    0.5718 H   0  0  0  0  0  0  0  0  0  0  0  0
    3.5616    3.4766    1.0369 C   0  0  0  0  0  0  0  0  0  0  0  0
    4.3479    3.6836    1.7787 H   0  0  0  0  0  0  0  0  0  0  0  0
    3.1845    2.1513    0.7757 C   0  0  0  0  0  0  0  0  0  0  0  0
    3.6736    1.3251    1.3159 H   0  0  0  0  0  0  0  0  0  0  0  0
    3.2459   -0.8704   -0.8581 C   0  0  0  0  0  0  0  0  0  0  0  0
    4.2813   -0.1990   -1.5378 C   0  0  0  0  0  0  0  0  0  0  0  0
    4.1762    0.8670   -1.7913 H   0  0  0  0  0  0  0  0  0  0  0  0
    5.4566   -0.8867   -1.8765 C   0  0  0  0  0  0  0  0  0  0  0  0
    6.2649   -0.3592   -2.4058 H   0  0  0  0  0  0  0  0  0  0  0  0
    5.6042   -2.2414   -1.5354 C   0  0  0  0  0  0  0  0  0  0  0  0
    6.5288   -2.7772   -1.7988 H   0  0  0  0  0  0  0  0  0  0  0  0
    4.5770   -2.9083   -0.8495 C   0  0  0  0  0  0  0  0  0  0  0  0
    4.6932   -3.9665   -0.5707 H   0  0  0  0  0  0  0  0  0  0  0  0
    3.3999   -2.2243   -0.5070 C   0  0  0  0  0  0  0  0  0  0  0  0
    2.6003   -2.7418    0.0443 H   0  0  0  0  0  0  0  0  0  0  0  0
  1 30  1  0  0  0  0
  2 29  1  0  0  0  0
  3  8  2  0  0  0  0
  3  1  1  0  0  0  0
  4  5  1  0  0  0  0
  4  3  1  0  0  0  0
  6  4  1  0  0  0  0
  7  4  1  0  0  0  0
  8  2  1  0  0  0  0
  9  8  1  0  0  0  0
 10  2  1  0  0  0  0
 11 12  1  0  0  0  0
 11 10  2  0  0  0  0
 13 11  1  0  0  0  0
 14 13  1  0  0  0  0
 15 13  2  0  0  0  0
 15 17  1  0  0  0  0
 16 15  1  0  0  0  0
 17 19  2  0  0  0  0
 18 17  1  0  0  0  0
 19 10  1  0  0  0  0
 19 20  1  0  0  0  0
 20 21  2  0  0  0  0
 20 29  1  0  0  0  0
 21 23  1  0  0  0  0
 22 21  1  0  0  0  0
 23 24  1  0  0  0  0
 23 25  2  0  0  0  0
 25 26  1  0  0  0  0
 27 25  1  0  0  0  0
 27 28  1  0  0  0  0
 29 27  2  0  0  0  0
 30 39  1  0  0  0  0
 31 33  1  0  0  0  0
 31 30  2  0  0  0  0
 32 31  1  0  0  0  0
 33 35  2  0  0  0  0
 34 33  1  0  0  0  0
 35 36  1  0  0  0  0
 35 37  1  0  0  0  0
 37 38  1  0  0  0  0
 39 37  2  0  0  0  0
 39 40  1  0  0  0  0
 41 50  1  0  0  0  0
 41  1  1  0  0  0  0
 42 41  2  0  0  0  0
 43 42  1  0  0  0  0
 44 42  1  0  0  0  0
 44 46  2  0  0  0  0
 45 44  1  0  0  0  0
 46 48  1  0  0  0  0
 47 46  1  0  0  0  0
 48 49  1  0  0  0  0
 48 50  2  0  0  0  0
 50 51  1  0  0  0  0
M  END
