1
q = 0.0, confidence = 0.998

 37 39  0  0  0  0  0  0  0  0999 V2000
    2.2452    0.5691   -0.0884 P   0  0  0  0  0  0  0  0  0  0  0  0
    3.1378   -0.7251   -0.7701 N   0  0  0  0  0  0  0  0  0  0  0  0
    2.5023   -1.4530   -1.1522 H   0  0  0  0  0  0  0  0  0  0  0  0
    3.1468   -4.2267   -1.3864 N   0  0  0  0  0  0  0  0  0  0  0  0
    4.4816   -1.0443   -0.6199 C   0  0  0  0  0  0  0  0  0  0  0  0
    4.9119   -2.3940   -0.8238 C   0  0  0  0  0  0  0  0  0  0  0  0
    6.2779   -2.7357   -0.6956 C   0  0  0  0  0  0  0  0  0  0  0  0
    6.5745   -3.7806   -0.8645 H   0  0  0  0  0  0  0  0  0  0  0  0
    7.2245   -1.7684   -0.3505 C   0  0  0  0  0  0  0  0  0  0  0  0
    8.2838   -2.0428   -0.2468 H   0  0  0  0  0  0  0  0  0  0  0  0
    6.8030   -0.4438   -0.1379 C   0  0  0  0  0  0  0  0  0  0  0  0
    7.5366    0.3303    0.1337 H   0  0  0  0  0  0  0  0  0  0  0  0
    5.4593   -0.0828   -0.2751 C   0  0  0  0  0  0  0  0  0  0  0  0
    5.1583    0.9608   -0.1181 H   0  0  0  0  0  0  0  0  0  0  0  0
    3.9486   -3.4034   -1.1388 C   0  0  0  0  0  0  0  0  0  0  0  0
    2.5708    2.0529   -1.1044 C   0  0  0  0  0  0  0  0  0  0  0  0
    3.4320    1.9918   -2.2175 C   0  0  0  0  0  0  0  0  0  0  0  0
    3.9336    1.0464   -2.4712 H   0  0  0  0  0  0  0  0  0  0  0  0
    3.6326    3.1344   -3.0068 C   0  0  0  0  0  0  0  0  0  0  0  0
    4.3063    3.0838   -3.8756 H   0  0  0  0  0  0  0  0  0  0  0  0
    2.9727    4.3331   -2.6941 C   0  0  0  0  0  0  0  0  0  0  0  0
    3.1315    5.2270   -3.3163 H   0  0  0  0  0  0  0  0  0  0  0  0
    2.0971    4.3873   -1.5965 C   0  0  0  0  0  0  0  0  0  0  0  0
    1.5622    5.3196   -1.3602 H   0  0  0  0  0  0  0  0  0  0  0  0
    1.8848    3.2508   -0.8039 C   0  0  0  0  0  0  0  0  0  0  0  0
    1.1717    3.2772    0.0362 H   0  0  0  0  0  0  0  0  0  0  0  0
    2.9950    0.8530    1.5550 C   0  0  0  0  0  0  0  0  0  0  0  0
    3.5574    2.0809    1.9464 C   0  0  0  0  0  0  0  0  0  0  0  0
    3.5758    2.9287    1.2458 H   0  0  0  0  0  0  0  0  0  0  0  0
    4.0969    2.2196    3.2345 C   0  0  0  0  0  0  0  0  0  0  0  0
    4.5340    3.1820    3.5407 H   0  0  0  0  0  0  0  0  0  0  0  0
    4.0795    1.1375    4.1275 C   0  0  0  0  0  0  0  0  0  0  0  0
    4.5039    1.2500    5.1367 H   0  0  0  0  0  0  0  0  0  0  0  0
    3.5146   -0.0883    3.7361 C   0  0  0  0  0  0  0  0  0  0  0  0
    3.4935   -0.9366    4.4366 H   0  0  0  0  0  0  0  0  0  0  0  0
    2.9662   -0.2311    2.4558 C   0  0  0  0  0  0  0  0  0  0  0  0
    2.5062   -1.1839    2.1497 H   0  0  0  0  0  0  0  0  0  0  0  0
  1 27  1  0  0  0  0
  2  5  1  0  0  0  0
  2  1  1  0  0  0  0
  3  2  1  0  0  0  0
  4 15  3  0  0  0  0
  5 13  1  0  0  0  0
  6  7  1  0  0  0  0
  6  5  2  0  0  0  0
  7  9  2  0  0  0  0
  8  7  1  0  0  0  0
  9 10  1  0  0  0  0
  9 11  1  0  0  0  0
 11 12  1  0  0  0  0
 13 11  2  0  0  0  0
 13 14  1  0  0  0  0
 15  6  1  0  0  0  0
 16 25  1  0  0  0  0
 16  1  1  0  0  0  0
 17 16  2  0  0  0  0
 18 17  1  0  0  0  0
 19 21  2  0  0  0  0
 19 17  1  0  0  0  0
 20 19  1  0  0  0  0
 21 23  1  0  0  0  0
 22 21  1  0  0  0  0
 23 24  1  0  0  0  0
 23 25  2  0  0  0  0
 25 26  1  0  0  0  0
 27 28  2  0  0  0  0
 27 36  1  0  0  0  0
 28 30  1  0  0  0  0
 29 28  1  0  0  0  0
 30 31  1  0  0  0  0
 30 32  2  0  0  0  0
 32 33  1  0  0  0  0
 34 32  1  0  0  0  0
 34 35  1  0  0  0  0
 36 34  2  0  0  0  0
 37 36  1  0  0  0  0
M  END
