1
q = 0.0, confidence = 1.0

 20 19  0  0  0  0  0  0  0  0999 V2000
    1.2887   -1.5894   -1.2873 P   0  0  0  0  0  0  0  0  0  0  0  0
    4.8061   -1.8485    0.8062 O   0  0  0  0  0  0  0  0  0  0  0  0
    1.4350   -1.8852   -3.1042 C   0  0  0  0  0  0  0  0  0  0  0  0
    1.9389   -1.0093   -3.5529 H   0  0  0  0  0  0  0  0  0  0  0  0
    0.4288   -1.9523   -3.5561 H   0  0  0  0  0  0  0  0  0  0  0  0
    2.0098   -2.8124   -3.3007 H   0  0  0  0  0  0  0  0  0  0  0  0
    0.6298   -3.2530   -0.7582 C   0  0  0  0  0  0  0  0  0  0  0  0
   -0.4013   -3.3890   -1.1362 H   0  0  0  0  0  0  0  0  0  0  0  0
    0.6046   -3.3635    0.3428 H   0  0  0  0  0  0  0  0  0  0  0  0
    1.2677   -4.0607   -1.1700 H   0  0  0  0  0  0  0  0  0  0  0  0
    3.0832   -1.7594   -0.8270 C   0  0  0  0  0  0  0  0  0  0  0  0
    3.4537   -2.7222   -1.2392 H   0  0  0  0  0  0  0  0  0  0  0  0
    3.5933   -0.9242   -1.3478 H   0  0  0  0  0  0  0  0  0  0  0  0
    3.4122   -1.6643    0.6525 C   0  0  0  0  0  0  0  0  0  0  0  0
    3.0993   -0.6616    1.0299 H   0  0  0  0  0  0  0  0  0  0  0  0
    2.8611   -2.4410    1.2468 H   0  0  0  0  0  0  0  0  0  0  0  0
    5.2294   -1.6447    2.1291 C   0  0  0  0  0  0  0  0  0  0  0  0
    5.0000   -0.6125    2.4920 H   0  0  0  0  0  0  0  0  0  0  0  0
    6.3265   -1.7957    2.1627 H   0  0  0  0  0  0  0  0  0  0  0  0
    4.7528   -2.3639    2.8437 H   0  0  0  0  0  0  0  0  0  0  0  0
  1 11  1  0  0  0  0
  1  7  1  0  0  0  0
  2 17  1  0  0  0  0
  3  1  1  0  0  0  0
  4  3  1  0  0  0  0
  5  3  1  0  0  0  0
  6  3  1  0  0  0  0
  7  9  1  0  0  0  0
  8  7  1  0  0  0  0
 10  7  1  0  0  0  0
 11 14  1  0  0  0  0
 12 11  1  0  0  0  0
 13 11  1  0  0  0  0
 14  2  1  0  0  0  0
 14 15  1  0  0  0  0
 14 16  1  0  0  0  0
 17 19  1  0  0  0  0
 17 18  1  0  0  0  0
 17 20  1  0  0  0  0
M  END
