1
q = 0.0, confidence = 0.988

 76 84  0  0  1  0  0  0  0  0999 V2000
   -0.0002    0.0005   -0.0946 P   0  0  0  0  0  0  0  0  0  0  0  0
   -1.3312   -1.2468   -0.7154 C   0  0  1  0  0  0  0  0  0  0  0  0
   -0.8120   -2.6951   -0.5091 C   0  0  0  0  0  0  0  0  0  0  0  0
    0.0851   -2.8786   -1.1303 H   0  0  0  0  0  0  0  0  0  0  0  0
   -0.5170   -2.8320    0.5529 H   0  0  0  0  0  0  0  0  0  0  0  0
   -1.8868   -3.7305   -0.9007 C   0  0  1  0  0  0  0  0  0  0  0  0
   -1.4609   -4.7457   -0.7523 H   0  0  0  0  0  0  0  0  0  0  0  0
   -3.1331   -3.5521   -0.0196 C   0  0  0  0  0  0  0  0  0  0  0  0
   -2.8756   -3.7190    1.0479 H   0  0  0  0  0  0  0  0  0  0  0  0
   -3.9067   -4.3025   -0.2905 H   0  0  0  0  0  0  0  0  0  0  0  0
   -3.6734   -2.1271   -0.2160 C   0  0  1  0  0  0  0  0  0  0  0  0
   -4.5612   -1.9674    0.4316 H   0  0  0  0  0  0  0  0  0  0  0  0
   -2.5921   -1.1043    0.1874 C   0  0  0  0  0  0  0  0  0  0  0  0
   -2.2961   -1.2521    1.2479 H   0  0  0  0  0  0  0  0  0  0  0  0
   -3.0175   -0.0881    0.1226 H   0  0  0  0  0  0  0  0  0  0  0  0
   -1.7405   -1.0745   -2.1985 C   0  0  0  0  0  0  0  0  0  0  0  0
   -2.1448   -0.0580   -2.3740 H   0  0  0  0  0  0  0  0  0  0  0  0
   -0.8601   -1.1874   -2.8623 H   0  0  0  0  0  0  0  0  0  0  0  0
   -2.8181   -2.1134   -2.5801 C   0  0  1  0  0  0  0  0  0  0  0  0
   -3.0905   -1.9623   -3.6465 H   0  0  0  0  0  0  0  0  0  0  0  0
   -2.2623   -3.5348   -2.3809 C   0  0  0  0  0  0  0  0  0  0  0  0
   -1.3712   -3.6911   -3.0274 H   0  0  0  0  0  0  0  0  0  0  0  0
   -3.0190   -4.2886   -2.6870 H   0  0  0  0  0  0  0  0  0  0  0  0
   -4.0602   -1.9154   -1.6919 C   0  0  0  0  0  0  0  0  0  0  0  0
   -4.8575   -2.6313   -1.9858 H   0  0  0  0  0  0  0  0  0  0  0  0
   -4.4746   -0.8940   -1.8371 H   0  0  0  0  0  0  0  0  0  0  0  0
    1.7475   -0.5223   -0.7153 C   0  0  2  0  0  0  0  0  0  0  0  0
    2.2534   -1.6943    0.1774 C   0  0  0  0  0  0  0  0  0  0  0  0
    2.2301   -1.3754    1.2413 H   0  0  0  0  0  0  0  0  0  0  0  0
    1.5879   -2.5712    0.1015 H   0  0  0  0  0  0  0  0  0  0  0  0
    3.6816   -2.1137   -0.2253 C   0  0  2  0  0  0  0  0  0  0  0  0
    3.9860   -2.9684    0.4151 H   0  0  0  0  0  0  0  0  0  0  0  0
    4.6436   -0.9342   -0.0143 C   0  0  0  0  0  0  0  0  0  0  0  0
    4.6555   -0.6380    1.0561 H   0  0  0  0  0  0  0  0  0  0  0  0
    5.6815   -1.2254   -0.2846 H   0  0  0  0  0  0  0  0  0  0  0  0
    4.1767    0.2426   -0.8855 C   0  0  2  0  0  0  0  0  0  0  0  0
    4.8413    1.1183   -0.7264 H   0  0  0  0  0  0  0  0  0  0  0  0
    2.7411    0.6502   -0.4950 C   0  0  0  0  0  0  0  0  0  0  0  0
    2.4530    1.5248   -1.1084 H   0  0  0  0  0  0  0  0  0  0  0  0
    2.7095    0.9642    0.5700 H   0  0  0  0  0  0  0  0  0  0  0  0
    1.8089   -0.9496   -2.2025 C   0  0  0  0  0  0  0  0  0  0  0  0
    1.1341   -1.8083   -2.3884 H   0  0  0  0  0  0  0  0  0  0  0  0
    1.4673   -0.1254   -2.8603 H   0  0  0  0  0  0  0  0  0  0  0  0
    3.2497   -1.3571   -2.5832 C   0  0  2  0  0  0  0  0  0  0  0  0
    3.2591   -1.6579   -3.6526 H   0  0  0  0  0  0  0  0  0  0  0  0
    3.6978   -2.5400   -1.7053 C   0  0  0  0  0  0  0  0  0  0  0  0
    4.7180   -2.8683   -1.9987 H   0  0  0  0  0  0  0  0  0  0  0  0
    3.0222   -3.4091   -1.8616 H   0  0  0  0  0  0  0  0  0  0  0  0
    4.2008   -0.1659   -2.3695 C   0  0  0  0  0  0  0  0  0  0  0  0
    3.8917    0.6899   -3.0085 H   0  0  0  0  0  0  0  0  0  0  0  0
    5.2333   -0.4403   -2.6749 H   0  0  0  0  0  0  0  0  0  0  0  0
   -0.4191    1.7813   -0.7014 C   0  0  1  0  0  0  0  0  0  0  0  0
   -1.9315    2.0544   -0.4821 C   0  0  0  0  0  0  0  0  0  0  0  0
   -2.5439    1.3723   -1.1018 H   0  0  0  0  0  0  0  0  0  0  0  0
   -2.1904    1.8628    0.5809 H   0  0  0  0  0  0  0  0  0  0  0  0
   -2.2944    3.5045   -0.8634 C   0  0  1  0  0  0  0  0  0  0  0  0
   -3.3853    3.6418   -0.7052 H   0  0  0  0  0  0  0  0  0  0  0  0
   -1.5103    4.4907    0.0164 C   0  0  0  0  0  0  0  0  0  0  0  0
   -1.7760    5.5370   -0.2474 H   0  0  0  0  0  0  0  0  0  0  0  0
   -1.7751    4.3459    1.0852 H   0  0  0  0  0  0  0  0  0  0  0  0
   -0.0077    4.2478   -0.1932 C   0  0  1  0  0  0  0  0  0  0  0  0
    0.5791    4.9343    0.4531 H   0  0  0  0  0  0  0  0  0  0  0  0
    0.3408    2.7984    0.2012 C   0  0  0  0  0  0  0  0  0  0  0  0
    0.0716    2.6123    1.2629 H   0  0  0  0  0  0  0  0  0  0  0  0
    1.4331    2.6592    0.1291 H   0  0  0  0  0  0  0  0  0  0  0  0
   -0.0768    2.0577   -2.1862 C   0  0  0  0  0  0  0  0  0  0  0  0
    1.0043    1.9008   -2.3717 H   0  0  0  0  0  0  0  0  0  0  0  0
   -0.6203    1.3550   -2.8490 H   0  0  0  0  0  0  0  0  0  0  0  0
   -0.4419    3.5121   -2.5576 C   0  0  1  0  0  0  0  0  0  0  0  0
   -0.1833    3.6780   -3.6252 H   0  0  0  0  0  0  0  0  0  0  0  0
   -1.9495    3.7401   -2.3451 C   0  0  0  0  0  0  0  0  0  0  0  0
   -2.2269    4.7738   -2.6433 H   0  0  0  0  0  0  0  0  0  0  0  0
   -2.5353    3.0496   -2.9904 H   0  0  0  0  0  0  0  0  0  0  0  0
    0.3573    4.4846   -1.6708 C   0  0  0  0  0  0  0  0  0  0  0  0
    1.4479    4.3338   -1.8255 H   0  0  0  0  0  0  0  0  0  0  0  0
    0.1335    5.5346   -1.9575 H   0  0  0  0  0  0  0  0  0  0  0  0
  2  3  1  0  0  0  0
  2  1  1  1  0  0  0
  2 13  1  0  0  0  0
  3  5  1  0  0  0  0
  4  3  1  0  0  0  0
  6  7  1  1  0  0  0
  6  3  1  0  0  0  0
  6  8  1  0  0  0  0
  8  9  1  0  0  0  0
 10  8  1  0  0  0  0
 11  8  1  0  0  0  0
 11 13  1  0  0  0  0
 11 12  1  1  0  0  0
 13 14  1  0  0  0  0
 15 13  1  0  0  0  0
 16  2  1  0  0  0  0
 17 16  1  0  0  0  0
 18 16  1  0  0  0  0
 19 20  1  6  0  0  0
 19 21  1  0  0  0  0
 19 16  1  0  0  0  0
 19 24  1  0  0  0  0
 21  6  1  0  0  0  0
 22 21  1  0  0  0  0
 23 21  1  0  0  0  0
 24 11  1  0  0  0  0
 25 24  1  0  0  0  0
 26 24  1  0  0  0  0
 27 38  1  0  0  0  0
 27  1  1  1  0  0  0
 27 28  1  0  0  0  0
 28 29  1  0  0  0  0
 30 28  1  0  0  0  0
 31 33  1  0  0  0  0
 31 28  1  0  0  0  0
 31 32  1  1  0  0  0
 33 34  1  0  0  0  0
 35 33  1  0  0  0  0
 36 37  1  1  0  0  0
 36 38  1  0  0  0  0
 36 33  1  0  0  0  0
 38 40  1  0  0  0  0
 39 38  1  0  0  0  0
 41 27  1  0  0  0  0
 42 41  1  0  0  0  0
 43 41  1  0  0  0  0
 44 45  1  6  0  0  0
 44 49  1  0  0  0  0
 44 41  1  0  0  0  0
 44 46  1  0  0  0  0
 46 31  1  0  0  0  0
 47 46  1  0  0  0  0
 48 46  1  0  0  0  0
 49 36  1  0  0  0  0
 50 49  1  0  0  0  0
 51 49  1  0  0  0  0
 52 53  1  0  0  0  0
 52  1  1  1  0  0  0
 52 63  1  0  0  0  0
 53 55  1  0  0  0  0
 54 53  1  0  0  0  0
 56 57  1  1  0  0  0
 56 53  1  0  0  0  0
 56 58  1  0  0  0  0
 58 60  1  0  0  0  0
 59 58  1  0  0  0  0
 61 58  1  0  0  0  0
 61 63  1  0  0  0  0
 61 62  1  1  0  0  0
 63 64  1  0  0  0  0
 65 63  1  0  0  0  0
 66 52  1  0  0  0  0
 67 66  1  0  0  0  0
 68 66  1  0  0  0  0
 69 70  1  6  0  0  0
 69 71  1  0  0  0  0
 69 66  1  0  0  0  0
 69 74  1  0  0  0  0
 71 56  1  0  0  0  0
 72 71  1  0  0  0  0
 73 71  1  0  0  0  0
 74 61  1  0  0  0  0
 75 74  1  0  0  0  0
 76 74  1  0  0  0  0
M  END
