1
q = -1.0

 68 70  0  0  1  0  0  0  0  0999 V2000
    0.9837   -0.0328    0.6494 P   0  0  0  0  0  0  0  0  0  0  0  0
   -2.3637    1.9302    0.4725 N   0  0  0  0  0  0  0  0  0  0  0  0
   -2.6740   -1.8338    0.5428 N   0  0  0  0  0  0  0  0  0  0  0  0
   -0.7975   -0.0695    1.0179 C   0  0  2  0  0  3  0  0  0  0  0  0
   -2.0067   -0.7069    0.7284 C   0  0  0  0  0  0  0  0  0  0  0  0
    1.6868   -1.4793    1.5486 C   0  0  0  0  0  0  0  0  0  0  0  0
   -1.9201    0.7057    0.6968 C   0  0  0  0  0  0  0  0  0  0  0  0
    2.2114   -2.5507    0.7995 C   0  0  0  0  0  0  0  0  0  0  0  0
    2.2553   -2.4669   -0.2967 H   0  0  0  0  0  0  0  0  0  0  0  0
   -1.3626    3.0364    0.3957 C   0  0  0  0  0  0  0  0  0  0  0  0
   -0.3975    2.5584    0.6408 H   0  0  0  0  0  0  0  0  0  0  0  0
   -3.7749    2.2323    0.1299 C   0  0  0  0  0  0  0  0  0  0  0  0
   -3.8058    3.3384    0.0696 H   0  0  0  0  0  0  0  0  0  0  0  0
    1.5048    1.4339    1.6420 C   0  0  0  0  0  0  0  0  0  0  0  0
   -4.0831   -1.8044    0.0876 C   0  0  0  0  0  0  0  0  0  0  0  0
   -4.3729   -0.7390    0.1485 H   0  0  0  0  0  0  0  0  0  0  0  0
   -1.9561   -3.1425    0.5710 C   0  0  0  0  0  0  0  0  0  0  0  0
   -2.7563   -3.8931    0.4112 H   0  0  0  0  0  0  0  0  0  0  0  0
    1.6754   -1.5467    2.9562 C   0  0  0  0  0  0  0  0  0  0  0  0
    1.2966   -0.7022    3.5501 H   0  0  0  0  0  0  0  0  0  0  0  0
    2.9731    3.3534    1.9188 C   0  0  0  0  0  0  0  0  0  0  0  0
    3.8132    3.9653    1.5568 H   0  0  0  0  0  0  0  0  0  0  0  0
    2.5819    2.2215    1.1874 C   0  0  0  0  0  0  0  0  0  0  0  0
    3.1084    1.9255    0.2652 H   0  0  0  0  0  0  0  0  0  0  0  0
    2.6565   -3.7697    2.8589 C   0  0  0  0  0  0  0  0  0  0  0  0
    3.0354   -4.6669    3.3718 H   0  0  0  0  0  0  0  0  0  0  0  0
    0.8296    1.7918    2.8299 C   0  0  0  0  0  0  0  0  0  0  0  0
   -0.0310    1.1973    3.1753 H   0  0  0  0  0  0  0  0  0  0  0  0
    2.6897   -3.6934    1.4576 C   0  0  0  0  0  0  0  0  0  0  0  0
    3.1016   -4.5260    0.8674 H   0  0  0  0  0  0  0  0  0  0  0  0
    1.2274    2.9251    3.5544 C   0  0  0  0  0  0  0  0  0  0  0  0
    0.6925    3.2001    4.4765 H   0  0  0  0  0  0  0  0  0  0  0  0
    2.1548   -2.6925    3.6080 C   0  0  0  0  0  0  0  0  0  0  0  0
    2.1417   -2.7412    4.7074 H   0  0  0  0  0  0  0  0  0  0  0  0
   -4.7131    1.8181    1.2671 C   0  0  0  0  0  0  0  0  0  0  0  0
   -4.6868    0.7246    1.4483 H   0  0  0  0  0  0  0  0  0  0  0  0
   -5.7586    2.0911    1.0224 H   0  0  0  0  0  0  0  0  0  0  0  0
   -4.4332    2.3223    2.2128 H   0  0  0  0  0  0  0  0  0  0  0  0
   -4.1725    1.6910   -1.2466 C   0  0  0  0  0  0  0  0  0  0  0  0
   -3.4650    2.0282   -2.0261 H   0  0  0  0  0  0  0  0  0  0  0  0
   -5.1906    2.0420   -1.5085 H   0  0  0  0  0  0  0  0  0  0  0  0
   -4.1713    0.5862   -1.2767 H   0  0  0  0  0  0  0  0  0  0  0  0
   -1.2458    3.5901   -1.0251 C   0  0  0  0  0  0  0  0  0  0  0  0
   -1.0349    2.7691   -1.7387 H   0  0  0  0  0  0  0  0  0  0  0  0
   -0.4034    4.3084   -1.0642 H   0  0  0  0  0  0  0  0  0  0  0  0
   -2.1607    4.1321   -1.3425 H   0  0  0  0  0  0  0  0  0  0  0  0
   -1.6405    4.1035    1.4550 C   0  0  0  0  0  0  0  0  0  0  0  0
   -2.5832    4.6557    1.2594 H   0  0  0  0  0  0  0  0  0  0  0  0
   -0.8167    4.8438    1.4546 H   0  0  0  0  0  0  0  0  0  0  0  0
   -1.6939    3.6588    2.4681 H   0  0  0  0  0  0  0  0  0  0  0  0
    2.3003    3.7084    3.0989 C   0  0  0  0  0  0  0  0  0  0  0  0
    2.6104    4.5998    3.6655 H   0  0  0  0  0  0  0  0  0  0  0  0
   -4.9968   -2.5857    1.0351 C   0  0  0  0  0  0  0  0  0  0  0  0
   -4.7765   -3.6723    1.0251 H   0  0  0  0  0  0  0  0  0  0  0  0
   -6.0525   -2.4627    0.7223 H   0  0  0  0  0  0  0  0  0  0  0  0
   -4.8985   -2.2218    2.0772 H   0  0  0  0  0  0  0  0  0  0  0  0
   -4.2027   -2.2372   -1.3768 C   0  0  0  0  0  0  0  0  0  0  0  0
   -3.4970   -1.6637   -2.0104 H   0  0  0  0  0  0  0  0  0  0  0  0
   -5.2349   -2.0591   -1.7386 H   0  0  0  0  0  0  0  0  0  0  0  0
   -3.9873   -3.3173   -1.5045 H   0  0  0  0  0  0  0  0  0  0  0  0
   -1.3491   -3.3996    1.9508 C   0  0  0  0  0  0  0  0  0  0  0  0
   -0.5517   -2.6715    2.1908 H   0  0  0  0  0  0  0  0  0  0  0  0
   -0.8865   -4.4053    1.9770 H   0  0  0  0  0  0  0  0  0  0  0  0
   -2.1237   -3.3502    2.7417 H   0  0  0  0  0  0  0  0  0  0  0  0
   -0.9559   -3.2607   -0.5814 C   0  0  0  0  0  0  0  0  0  0  0  0
   -1.4534   -3.1627   -1.5637 H   0  0  0  0  0  0  0  0  0  0  0  0
   -0.4463   -4.2431   -0.5352 H   0  0  0  0  0  0  0  0  0  0  0  0
   -0.1808   -2.4721   -0.5453 H   0  0  0  0  0  0  0  0  0  0  0  0
  1  6  1  0  0  0  0
  1 14  1  0  0  0  0
  2  7  1  0  0  0  0
  3 17  1  0  0  0  0
  3  5  1  0  0  0  0
  4  1  1  6  0  0  0
  5  4  1  0  0  0  0
  6 19  1  0  0  0  0
  7  5  2  0  0  0  0
  7  4  1  0  0  0  0
  8 29  1  0  0  0  0
  8  6  2  0  0  0  0
  9  8  1  0  0  0  0
 10  2  1  0  0  0  0
 10 11  1  0  0  0  0
 10 47  1  0  0  0  0
 12  2  1  0  0  0  0
 12 35  1  0  0  0  0
 13 12  1  0  0  0  0
 14 27  1  0  0  0  0
 15 16  1  0  0  0  0
 15  3  1  0  0  0  0
 15 53  1  0  0  0  0
 17 61  1  0  0  0  0
 18 17  1  0  0  0  0
 19 20  1  0  0  0  0
 19 33  2  0  0  0  0
 21 51  2  0  0  0  0
 22 21  1  0  0  0  0
 23 14  2  0  0  0  0
 23 21  1  0  0  0  0
 24 23  1  0  0  0  0
 25 26  1  0  0  0  0
 25 33  1  0  0  0  0
 27 28  1  0  0  0  0
 27 31  2  0  0  0  0
 29 25  2  0  0  0  0
 30 29  1  0  0  0  0
 31 32  1  0  0  0  0
 33 34  1  0  0  0  0
 35 36  1  0  0  0  0
 35 38  1  0  0  0  0
 37 35  1  0  0  0  0
 39 12  1  0  0  0  0
 40 39  1  0  0  0  0
 41 39  1  0  0  0  0
 42 39  1  0  0  0  0
 43 10  1  0  0  0  0
 44 43  1  0  0  0  0
 45 43  1  0  0  0  0
 46 43  1  0  0  0  0
 47 50  1  0  0  0  0
 48 47  1  0  0  0  0
 49 47  1  0  0  0  0
 51 31  1  0  0  0  0
 51 52  1  0  0  0  0
 53 56  1  0  0  0  0
 54 53  1  0  0  0  0
 55 53  1  0  0  0  0
 57 15  1  0  0  0  0
 58 57  1  0  0  0  0
 59 57  1  0  0  0  0
 60 57  1  0  0  0  0
 61 63  1  0  0  0  0
 61 62  1  0  0  0  0
 61 64  1  0  0  0  0
 65 68  1  0  0  0  0
 65 67  1  0  0  0  0
 65 17  1  0  0  0  0
 66 65  1  0  0  0  0
M  END
