1
q = 0.0, confidence = 0.998

 76 82  0  0  1  0  0  0  0  0999 V2000
    0.3138    0.1186    1.1578 P   0  0  0  0  0  0  0  0  0  0  0  0
    2.3497    1.8710   -2.4368 O   0  0  0  0  0  0  0  0  0  0  0  0
    1.6097   -0.6183    0.1244 C   0  0  0  0  0  0  0  0  0  0  0  0
    2.8141   -1.3021    0.8114 C   0  0  1  0  0  0  0  0  0  0  0  0
    2.6822   -1.4319    1.9010 H   0  0  0  0  0  0  0  0  0  0  0  0
    3.0135   -2.6303    0.0900 C   0  0  0  0  0  0  0  0  0  0  0  0
    3.0280   -3.9051    0.6629 C   0  0  0  0  0  0  0  0  0  0  0  0
    2.8990   -4.0292    1.7496 H   0  0  0  0  0  0  0  0  0  0  0  0
    3.2031   -5.0279   -0.1697 C   0  0  0  0  0  0  0  0  0  0  0  0
    3.2118   -6.0368    0.2696 H   0  0  0  0  0  0  0  0  0  0  0  0
    3.3632   -4.8661   -1.5541 C   0  0  0  0  0  0  0  0  0  0  0  0
    3.4974   -5.7490   -2.1970 H   0  0  0  0  0  0  0  0  0  0  0  0
    3.3508   -3.5801   -2.1291 C   0  0  0  0  0  0  0  0  0  0  0  0
    3.4745   -3.4519   -3.2155 H   0  0  0  0  0  0  0  0  0  0  0  0
    3.1758   -2.4668   -1.3024 C   0  0  0  0  0  0  0  0  0  0  0  0
    3.1196   -1.0030   -1.7318 C   0  0  2  0  0  0  0  0  0  0  0  0
    3.2324   -0.8675   -2.8210 H   0  0  0  0  0  0  0  0  0  0  0  0
    4.1873   -0.2708   -0.9234 C   0  0  0  0  0  0  0  0  0  0  0  0
    5.2227    0.5226   -1.4237 C   0  0  0  0  0  0  0  0  0  0  0  0
    5.3424    0.6557   -2.5098 H   0  0  0  0  0  0  0  0  0  0  0  0
    6.1000    1.1566   -0.5219 C   0  0  0  0  0  0  0  0  0  0  0  0
    6.9166    1.7864   -0.9064 H   0  0  0  0  0  0  0  0  0  0  0  0
    5.9398    0.9896    0.8623 C   0  0  0  0  0  0  0  0  0  0  0  0
    6.6301    1.4880    1.5594 H   0  0  0  0  0  0  0  0  0  0  0  0
    4.8981    0.1856    1.3653 C   0  0  0  0  0  0  0  0  0  0  0  0
    4.7707    0.0514    2.4511 H   0  0  0  0  0  0  0  0  0  0  0  0
    4.0244   -0.4359    0.4680 C   0  0  0  0  0  0  0  0  0  0  0  0
    1.7584   -0.4770   -1.2199 C   0  0  0  0  0  0  0  0  0  0  0  0
    0.8045    0.1217   -2.1736 C   0  0  0  0  0  0  0  0  0  0  0  0
   -0.4303   -0.4823   -2.4762 C   0  0  0  0  0  0  0  0  0  0  0  0
   -0.6865   -1.4348   -1.9902 H   0  0  0  0  0  0  0  0  0  0  0  0
   -1.3223    0.1130   -3.3833 C   0  0  0  0  0  0  0  0  0  0  0  0
   -2.2910   -0.3599   -3.5909 H   0  0  0  0  0  0  0  0  0  0  0  0
   -0.9816    1.3317   -3.9826 C   0  0  0  0  0  0  0  0  0  0  0  0
   -1.6826    1.8173   -4.6778 H   0  0  0  0  0  0  0  0  0  0  0  0
    0.2445    1.9572   -3.6980 C   0  0  0  0  0  0  0  0  0  0  0  0
    0.4875    2.9188   -4.1691 H   0  0  0  0  0  0  0  0  0  0  0  0
    1.1413    1.3505   -2.8010 C   0  0  0  0  0  0  0  0  0  0  0  0
    2.7422    3.1265   -2.9586 C   0  0  0  0  0  0  0  0  0  0  0  0
    3.7359    3.3423   -2.5239 H   0  0  0  0  0  0  0  0  0  0  0  0
    2.0325    3.9320   -2.6665 H   0  0  0  0  0  0  0  0  0  0  0  0
    2.8253    3.1070   -4.0682 H   0  0  0  0  0  0  0  0  0  0  0  0
    1.2940    1.3956    2.1013 C   0  0  0  0  0  0  0  0  0  0  0  0
    2.1469    0.8497    2.5657 H   0  0  0  0  0  0  0  0  0  0  0  0
    1.8519    2.4180    1.0890 C   0  0  0  0  0  0  0  0  0  0  0  0
    2.4582    1.9105    0.3132 H   0  0  0  0  0  0  0  0  0  0  0  0
    0.9919    2.8855    0.5572 H   0  0  0  0  0  0  0  0  0  0  0  0
    2.6778    3.5037    1.7882 C   0  0  0  0  0  0  0  0  0  0  0  0
    3.5860    3.0373    2.2320 H   0  0  0  0  0  0  0  0  0  0  0  0
    3.0425    4.2343    1.0360 H   0  0  0  0  0  0  0  0  0  0  0  0
    1.8688    4.2077    2.8831 C   0  0  0  0  0  0  0  0  0  0  0  0
    1.0226    4.7584    2.4146 H   0  0  0  0  0  0  0  0  0  0  0  0
    2.4892    4.9680    3.4020 H   0  0  0  0  0  0  0  0  0  0  0  0
    1.3129    3.1950    3.8903 C   0  0  0  0  0  0  0  0  0  0  0  0
    0.6914    3.7036    4.6564 H   0  0  0  0  0  0  0  0  0  0  0  0
    2.1597    2.7230    4.4382 H   0  0  0  0  0  0  0  0  0  0  0  0
    0.4858    2.0949    3.2074 C   0  0  0  0  0  0  0  0  0  0  0  0
    0.1453    1.3620    3.9652 H   0  0  0  0  0  0  0  0  0  0  0  0
   -0.4330    2.5330    2.7567 H   0  0  0  0  0  0  0  0  0  0  0  0
   -0.2439   -1.2830    2.2604 C   0  0  0  0  0  0  0  0  0  0  0  0
    0.6177   -1.5530    2.9139 H   0  0  0  0  0  0  0  0  0  0  0  0
   -1.4549   -0.8983    3.1358 C   0  0  0  0  0  0  0  0  0  0  0  0
   -1.1964   -0.0715    3.8258 H   0  0  0  0  0  0  0  0  0  0  0  0
   -2.2690   -0.5191    2.4790 H   0  0  0  0  0  0  0  0  0  0  0  0
   -1.9794   -2.1011    3.9324 C   0  0  0  0  0  0  0  0  0  0  0  0
   -1.2079   -2.4336    4.6642 H   0  0  0  0  0  0  0  0  0  0  0  0
   -2.8622   -1.7861    4.5260 H   0  0  0  0  0  0  0  0  0  0  0  0
   -2.3410   -3.2668    3.0063 C   0  0  0  0  0  0  0  0  0  0  0  0
   -3.1735   -2.9502    2.3397 H   0  0  0  0  0  0  0  0  0  0  0  0
   -2.7111   -4.1332    3.5931 H   0  0  0  0  0  0  0  0  0  0  0  0
   -1.1349   -3.6709    2.1517 C   0  0  0  0  0  0  0  0  0  0  0  0
   -0.3283   -4.0675    2.8098 H   0  0  0  0  0  0  0  0  0  0  0  0
   -1.4009   -4.4929    1.4548 H   0  0  0  0  0  0  0  0  0  0  0  0
   -0.5924   -2.4819    1.3492 C   0  0  0  0  0  0  0  0  0  0  0  0
   -1.3675   -2.1507    0.6220 H   0  0  0  0  0  0  0  0  0  0  0  0
    0.2908   -2.7908    0.7533 H   0  0  0  0  0  0  0  0  0  0  0  0
  1 43  1  0  0  0  0
  1 60  1  0  0  0  0
  3  4  1  0  0  0  0
  3  1  1  0  0  0  0
  4  5  1  1  0  0  0
  6  7  1  0  0  0  0
  6  4  1  0  0  0  0
  7  8  1  0  0  0  0
  9 10  1  0  0  0  0
  9  7  2  0  0  0  0
 11  9  1  0  0  0  0
 12 11  1  0  0  0  0
 13 11  2  0  0  0  0
 13 15  1  0  0  0  0
 14 13  1  0  0  0  0
 15  6  2  0  0  0  0
 16 17  1  6  0  0  0
 16 15  1  0  0  0  0
 16 28  1  0  0  0  0
 16 18  1  0  0  0  0
 18 27  1  0  0  0  0
 19 18  2  0  0  0  0
 19 21  1  0  0  0  0
 20 19  1  0  0  0  0
 21 23  2  0  0  0  0
 22 21  1  0  0  0  0
 23 25  1  0  0  0  0
 23 24  1  0  0  0  0
 25 26  1  0  0  0  0
 27  4  1  0  0  0  0
 27 25  2  0  0  0  0
 28  3  2  0  0  0  0
 29 28  1  0  0  0  0
 30 29  1  0  0  0  0
 30 31  1  0  0  0  0
 32 30  2  0  0  0  0
 33 32  1  0  0  0  0
 34 36  2  0  0  0  0
 34 32  1  0  0  0  0
 35 34  1  0  0  0  0
 36 38  1  0  0  0  0
 37 36  1  0  0  0  0
 38  2  1  0  0  0  0
 38 29  2  0  0  0  0
 39 41  1  0  0  0  0
 39 40  1  0  0  0  0
 39  2  1  0  0  0  0
 42 39  1  0  0  0  0
 43 44  1  0  0  0  0
 43 57  1  0  0  0  0
 45 48  1  0  0  0  0
 45 43  1  0  0  0  0
 46 45  1  0  0  0  0
 47 45  1  0  0  0  0
 48 49  1  0  0  0  0
 48 51  1  0  0  0  0
 50 48  1  0  0  0  0
 51 53  1  0  0  0  0
 51 54  1  0  0  0  0
 52 51  1  0  0  0  0
 54 56  1  0  0  0  0
 54 55  1  0  0  0  0
 57 54  1  0  0  0  0
 57 58  1  0  0  0  0
 59 57  1  0  0  0  0
 60 61  1  0  0  0  0
 60 62  1  0  0  0  0
 62 63  1  0  0  0  0
 62 65  1  0  0  0  0
 64 62  1  0  0  0  0
 65 67  1  0  0  0  0
 65 66  1  0  0  0  0
 68 70  1  0  0  0  0
 68 65  1  0  0  0  0
 69 68  1  0  0  0  0
 71 72  1  0  0  0  0
 71 68  1  0  0  0  0
 73 71  1  0  0  0  0
 74 71  1  0  0  0  0
 74 60  1  0  0  0  0
 75 74  1  0  0  0  0
 76 74  1  0  0  0  0
M  END
