1
q = 0.0, confidence = 1.0

 41 42  0  0  0  0  0  0  0  0999 V2000
   -2.0861   -0.0749    0.0947 P   0  0  0  0  0  0  0  0  0  0  0  0
   -5.0264    0.1485    0.6419 O   0  0  0  0  0  0  0  0  0  0  0  0
   -1.8778    1.1796   -2.5836 O   0  0  0  0  0  0  0  0  0  0  0  0
   -4.5488   -3.3638   -1.9771 O   0  0  0  0  0  0  0  0  0  0  0  0
   -3.0967   -4.9445   -1.2745 O   0  0  0  0  0  0  0  0  0  0  0  0
   -3.7774   -5.4828   -1.7340 H   0  0  0  0  0  0  0  0  0  0  0  0
   -2.8537   -1.2509   -1.1051 C   0  0  0  0  0  0  0  0  0  0  0  0
   -3.9399   -1.0444   -1.1426 H   0  0  0  0  0  0  0  0  0  0  0  0
   -2.4132   -1.0410   -2.0966 H   0  0  0  0  0  0  0  0  0  0  0  0
   -2.5790   -2.6979   -0.7058 C   0  0  0  0  0  0  0  0  0  0  0  0
   -1.5298   -2.9669   -0.9413 H   0  0  0  0  0  0  0  0  0  0  0  0
   -2.7072   -2.8641    0.3878 H   0  0  0  0  0  0  0  0  0  0  0  0
   -3.5196   -3.6600   -1.3971 C   0  0  0  0  0  0  0  0  0  0  0  0
   -2.9718   -0.4240    1.6618 C   0  0  0  0  0  0  0  0  0  0  0  0
   -4.3878   -0.3071    1.7511 C   0  0  0  0  0  0  0  0  0  0  0  0
   -5.0469   -0.6548    2.9470 C   0  0  0  0  0  0  0  0  0  0  0  0
   -6.1383   -0.5667    3.0280 H   0  0  0  0  0  0  0  0  0  0  0  0
   -4.3045   -1.1243    4.0423 C   0  0  0  0  0  0  0  0  0  0  0  0
   -4.8330   -1.3942    4.9696 H   0  0  0  0  0  0  0  0  0  0  0  0
   -2.9115   -1.2500    3.9633 C   0  0  0  0  0  0  0  0  0  0  0  0
   -2.3329   -1.6145    4.8242 H   0  0  0  0  0  0  0  0  0  0  0  0
   -2.2540   -0.8981    2.7743 C   0  0  0  0  0  0  0  0  0  0  0  0
   -1.1590   -0.9653    2.6970 H   0  0  0  0  0  0  0  0  0  0  0  0
   -6.4322    0.3171    0.6690 C   0  0  0  0  0  0  0  0  0  0  0  0
   -6.9586   -0.6465    0.8467 H   0  0  0  0  0  0  0  0  0  0  0  0
   -6.7144    0.7046   -0.3268 H   0  0  0  0  0  0  0  0  0  0  0  0
   -6.7413    1.0497    1.4467 H   0  0  0  0  0  0  0  0  0  0  0  0
   -2.5448    1.6393   -0.3678 C   0  0  0  0  0  0  0  0  0  0  0  0
   -2.3493    2.0959   -1.6994 C   0  0  0  0  0  0  0  0  0  0  0  0
   -2.6153    3.4403   -2.0290 C   0  0  0  0  0  0  0  0  0  0  0  0
   -2.4891    3.7925   -3.0614 H   0  0  0  0  0  0  0  0  0  0  0  0
   -3.0315    4.3353   -1.0299 C   0  0  0  0  0  0  0  0  0  0  0  0
   -3.2311    5.3842   -1.2978 H   0  0  0  0  0  0  0  0  0  0  0  0
   -3.1834    3.9039    0.2951 C   0  0  0  0  0  0  0  0  0  0  0  0
   -3.4931    4.6093    1.0800 H   0  0  0  0  0  0  0  0  0  0  0  0
   -2.9400    2.5594    0.6171 C   0  0  0  0  0  0  0  0  0  0  0  0
   -3.0422    2.2136    1.6562 H   0  0  0  0  0  0  0  0  0  0  0  0
   -1.6810    1.5368   -3.9442 C   0  0  0  0  0  0  0  0  0  0  0  0
   -2.6374    1.8369   -4.4256 H   0  0  0  0  0  0  0  0  0  0  0  0
   -1.2742    0.6295   -4.4286 H   0  0  0  0  0  0  0  0  0  0  0  0
   -0.9484    2.3684   -4.0422 H   0  0  0  0  0  0  0  0  0  0  0  0
  1 14  1  0  0  0  0
  2 24  1  0  0  0  0
  2 15  1  0  0  0  0
  3 29  1  0  0  0  0
  4 13  2  0  0  0  0
  6  5  1  0  0  0  0
  7 10  1  0  0  0  0
  7  1  1  0  0  0  0
  8  7  1  0  0  0  0
  9  7  1  0  0  0  0
 10 12  1  0  0  0  0
 11 10  1  0  0  0  0
 13  5  1  0  0  0  0
 13 10  1  0  0  0  0
 14 15  2  0  0  0  0
 14 22  1  0  0  0  0
 15 16  1  0  0  0  0
 16 17  1  0  0  0  0
 16 18  2  0  0  0  0
 18 19  1  0  0  0  0
 20 18  1  0  0  0  0
 20 21  1  0  0  0  0
 22 20  2  0  0  0  0
 23 22  1  0  0  0  0
 24 25  1  0  0  0  0
 24 27  1  0  0  0  0
 26 24  1  0  0  0  0
 28  1  1  0  0  0  0
 28 36  1  0  0  0  0
 29 28  2  0  0  0  0
 30 29  1  0  0  0  0
 30 32  2  0  0  0  0
 31 30  1  0  0  0  0
 32 34  1  0  0  0  0
 33 32  1  0  0  0  0
 34 36  2  0  0  0  0
 34 35  1  0  0  0  0
 36 37  1  0  0  0  0
 38  3  1  0  0  0  0
 39 38  1  0  0  0  0
 40 38  1  0  0  0  0
 41 38  1  0  0  0  0
M  END
