1
q = -1.0

 37 39  0  0  0  0  0  0  0  0999 V2000
   -0.9396   -0.1362   -0.1630 P   0  0  0  0  0  0  0  0  0  0  0  0
    1.5807    2.7808   -0.4911 F   0  0  0  0  0  0  0  0  0  0  0  0
    0.5826    4.0626    1.1518 F   0  0  0  0  0  0  0  0  0  0  0  0
    0.7060    1.7680    1.3998 F   0  0  0  0  0  0  0  0  0  0  0  0
   -1.6041    1.5085   -0.6884 C   0  0  0  0  0  0  0  0  0  0  0  0
   -0.9293    2.7032   -0.3124 C   0  0  0  0  0  0  0  0  0  0  0  0
   -1.5361    3.9171   -0.7102 C   0  0  0  0  0  0  0  0  0  0  0  0
   -1.0423    4.8508   -0.3995 H   0  0  0  0  0  0  0  0  0  0  0  0
   -2.7127    3.9670   -1.4691 C   0  0  0  0  0  0  0  0  0  0  0  0
   -3.1423    4.9379   -1.7629 H   0  0  0  0  0  0  0  0  0  0  0  0
   -3.3346    2.7731   -1.8620 C   0  0  0  0  0  0  0  0  0  0  0  0
   -4.2494    2.7884   -2.4744 H   0  0  0  0  0  0  0  0  0  0  0  0
   -2.7831    1.5474   -1.4672 C   0  0  0  0  0  0  0  0  0  0  0  0
   -3.2749    0.6181   -1.7854 H   0  0  0  0  0  0  0  0  0  0  0  0
   -1.9183   -1.4260   -1.0594 C   0  0  0  0  0  0  0  0  0  0  0  0
   -3.2954   -1.6108   -0.8009 C   0  0  0  0  0  0  0  0  0  0  0  0
   -3.8043   -0.9752   -0.0607 H   0  0  0  0  0  0  0  0  0  0  0  0
   -4.0151   -2.6106   -1.4700 C   0  0  0  0  0  0  0  0  0  0  0  0
   -5.0877   -2.7423   -1.2613 H   0  0  0  0  0  0  0  0  0  0  0  0
   -3.3696   -3.4446   -2.3984 C   0  0  0  0  0  0  0  0  0  0  0  0
   -3.9362   -4.2307   -2.9206 H   0  0  0  0  0  0  0  0  0  0  0  0
   -1.9994   -3.2784   -2.6491 C   0  0  0  0  0  0  0  0  0  0  0  0
   -1.4848   -3.9354   -3.3667 H   0  0  0  0  0  0  0  0  0  0  0  0
   -1.2777   -2.2761   -1.9813 C   0  0  0  0  0  0  0  0  0  0  0  0
   -0.1983   -2.1451   -2.1553 H   0  0  0  0  0  0  0  0  0  0  0  0
   -1.5721   -0.3887    1.5538 C   0  0  0  0  0  0  0  0  0  0  0  0
   -1.7847    0.7026    2.4186 C   0  0  0  0  0  0  0  0  0  0  0  0
   -1.6091    1.7249    2.0601 H   0  0  0  0  0  0  0  0  0  0  0  0
   -2.2001    0.4791    3.7400 C   0  0  0  0  0  0  0  0  0  0  0  0
   -2.3613    1.3397    4.4068 H   0  0  0  0  0  0  0  0  0  0  0  0
   -2.4066   -0.8268    4.2126 C   0  0  0  0  0  0  0  0  0  0  0  0
   -2.7302   -0.9948    5.2511 H   0  0  0  0  0  0  0  0  0  0  0  0
   -2.2079   -1.9180    3.3510 C   0  0  0  0  0  0  0  0  0  0  0  0
   -2.3795   -2.9452    3.7078 H   0  0  0  0  0  0  0  0  0  0  0  0
   -1.7940   -1.7007    2.0286 C   0  0  0  0  0  0  0  0  0  0  0  0
   -1.6564   -2.5596    1.3539 H   0  0  0  0  0  0  0  0  0  0  0  0
    0.5145    2.8472    0.4571 B   0  0  0  0  0  0  0  0  0  0  0  0
  1 26  1  0  0  0  0
  2 37  1  0  0  0  0
  5  6  1  0  0  0  0
  5  1  1  0  0  0  0
  6 37  1  0  0  0  0
  7  8  1  0  0  0  0
  7  6  2  0  0  0  0
  9  7  1  0  0  0  0
 10  9  1  0  0  0  0
 11  9  2  0  0  0  0
 11 13  1  0  0  0  0
 12 11  1  0  0  0  0
 13  5  2  0  0  0  0
 14 13  1  0  0  0  0
 15 16  1  0  0  0  0
 15  1  1  0  0  0  0
 16 17  1  0  0  0  0
 18 19  1  0  0  0  0
 18 16  2  0  0  0  0
 20 18  1  0  0  0  0
 21 20  1  0  0  0  0
 22 20  2  0  0  0  0
 22 24  1  0  0  0  0
 23 22  1  0  0  0  0
 24 15  2  0  0  0  0
 25 24  1  0  0  0  0
 26 35  2  0  0  0  0
 26 27  1  0  0  0  0
 27 29  2  0  0  0  0
 28 27  1  0  0  0  0
 29 31  1  0  0  0  0
 29 30  1  0  0  0  0
 31 32  1  0  0  0  0
 33 34  1  0  0  0  0
 33 31  2  0  0  0  0
 35 33  1  0  0  0  0
 36 35  1  0  0  0  0
 37  3  1  0  0  0  0
 37  4  1  0  0  0  0
M  END
