1
q = -1.0

 35 35  0  0  0  0  0  0  0  0999 V2000
    1.4625   -0.9091    0.1263 P   0  0  0  0  0  0  0  0  0  0  0  0
   -0.4453    1.4636   -0.8933 F   0  0  0  0  0  0  0  0  0  0  0  0
    0.0668    2.0126    1.3234 F   0  0  0  0  0  0  0  0  0  0  0  0
    0.1791    3.6224   -0.3309 F   0  0  0  0  0  0  0  0  0  0  0  0
    2.5148    0.5571   -0.2752 C   0  0  0  0  0  0  0  0  0  0  0  0
    1.9894    1.8775   -0.3068 C   0  0  0  0  0  0  0  0  0  0  0  0
    2.8895    2.9208   -0.6216 C   0  0  0  0  0  0  0  0  0  0  0  0
    2.4864    3.9443   -0.6577 H   0  0  0  0  0  0  0  0  0  0  0  0
    4.2446    2.6925   -0.8923 C   0  0  0  0  0  0  0  0  0  0  0  0
    4.9122    3.5350   -1.1322 H   0  0  0  0  0  0  0  0  0  0  0  0
    4.7451    1.3822   -0.8677 C   0  0  0  0  0  0  0  0  0  0  0  0
    5.8048    1.1799   -1.0868 H   0  0  0  0  0  0  0  0  0  0  0  0
    3.8812    0.3221   -0.5656 C   0  0  0  0  0  0  0  0  0  0  0  0
    4.2877   -0.6995   -0.5670 H   0  0  0  0  0  0  0  0  0  0  0  0
    1.9765   -2.1572   -1.1797 C   0  0  0  0  0  0  0  0  0  0  0  0
    3.0843   -2.2156   -1.1187 H   0  0  0  0  0  0  0  0  0  0  0  0
    1.5865   -1.6114   -2.5590 C   0  0  0  0  0  0  0  0  0  0  0  0
    1.9212   -2.3072   -3.3560 H   0  0  0  0  0  0  0  0  0  0  0  0
    2.0370   -0.6186   -2.7534 H   0  0  0  0  0  0  0  0  0  0  0  0
    0.4847   -1.5031   -2.6359 H   0  0  0  0  0  0  0  0  0  0  0  0
    1.4042   -3.5562   -0.9411 C   0  0  0  0  0  0  0  0  0  0  0  0
    1.8110   -4.2606   -1.6960 H   0  0  0  0  0  0  0  0  0  0  0  0
    0.3010   -3.5552   -1.0449 H   0  0  0  0  0  0  0  0  0  0  0  0
    1.6559   -3.9594    0.0602 H   0  0  0  0  0  0  0  0  0  0  0  0
    2.0661   -1.5475    1.7824 C   0  0  0  0  0  0  0  0  0  0  0  0
    1.4048   -2.4230    1.9621 H   0  0  0  0  0  0  0  0  0  0  0  0
    1.7692   -0.4831    2.8464 C   0  0  0  0  0  0  0  0  0  0  0  0
    2.0131   -0.8747    3.8555 H   0  0  0  0  0  0  0  0  0  0  0  0
    0.7064   -0.1736    2.8299 H   0  0  0  0  0  0  0  0  0  0  0  0
    2.3750    0.4295    2.6742 H   0  0  0  0  0  0  0  0  0  0  0  0
    3.5238   -2.0122    1.8248 C   0  0  0  0  0  0  0  0  0  0  0  0
    3.7387   -2.4679    2.8140 H   0  0  0  0  0  0  0  0  0  0  0  0
    4.2218   -1.1615    1.6962 H   0  0  0  0  0  0  0  0  0  0  0  0
    3.7565   -2.7737    1.0535 H   0  0  0  0  0  0  0  0  0  0  0  0
    0.4470    2.3002   -0.0169 B   0  0  0  0  0  0  0  0  0  0  0  0
  1 25  1  0  0  0  0
  2 35  1  0  0  0  0
  4 35  1  0  0  0  0
  5  1  1  0  0  0  0
  6  5  1  0  0  0  0
  6 35  1  0  0  0  0
  7  6  2  0  0  0  0
  8  7  1  0  0  0  0
  9 11  2  0  0  0  0
  9  7  1  0  0  0  0
 10  9  1  0  0  0  0
 11 13  1  0  0  0  0
 12 11  1  0  0  0  0
 13  5  2  0  0  0  0
 14 13  1  0  0  0  0
 15 16  1  0  0  0  0
 15 21  1  0  0  0  0
 15  1  1  0  0  0  0
 17 15  1  0  0  0  0
 18 17  1  0  0  0  0
 19 17  1  0  0  0  0
 20 17  1  0  0  0  0
 21 24  1  0  0  0  0
 22 21  1  0  0  0  0
 23 21  1  0  0  0  0
 25 31  1  0  0  0  0
 25 26  1  0  0  0  0
 25 27  1  0  0  0  0
 27 28  1  0  0  0  0
 29 27  1  0  0  0  0
 30 27  1  0  0  0  0
 31 32  1  0  0  0  0
 33 31  1  0  0  0  0
 34 31  1  0  0  0  0
 35  3  1  0  0  0  0
M  END
