1
q = 0.0, confidence = 0.976

 32 34  0  0  0  0  0  0  0  0999 V2000
    0.6151    0.2424   -0.2351 P   0  0  0  0  0  0  0  0  0  0  0  0
    0.1263    1.3485   -1.4278 N   0  0  0  0  0  0  0  0  0  0  0  0
   -1.5142    2.7051   -2.4248 N   0  0  0  0  0  0  0  0  0  0  0  0
   -0.8505    3.0239   -3.1326 H   0  0  0  0  0  0  0  0  0  0  0  0
   -1.0872    1.8053   -1.4723 C   0  0  0  0  0  0  0  0  0  0  0  0
   -2.8411    3.0987   -2.3635 C   0  0  0  0  0  0  0  0  0  0  0  0
   -3.2309    3.8031   -3.1078 H   0  0  0  0  0  0  0  0  0  0  0  0
   -3.5191    2.5271   -1.3326 C   0  0  0  0  0  0  0  0  0  0  0  0
   -4.5727    2.6644   -1.0677 H   0  0  0  0  0  0  0  0  0  0  0  0
    2.2640   -0.2691   -0.8276 C   0  0  0  0  0  0  0  0  0  0  0  0
    2.8704    0.3408   -1.9412 C   0  0  0  0  0  0  0  0  0  0  0  0
    2.3228    1.1280   -2.4797 H   0  0  0  0  0  0  0  0  0  0  0  0
    4.1494   -0.0708   -2.3477 C   0  0  0  0  0  0  0  0  0  0  0  0
    4.6239    0.4036   -3.2204 H   0  0  0  0  0  0  0  0  0  0  0  0
    4.8203   -1.0864   -1.6487 C   0  0  0  0  0  0  0  0  0  0  0  0
    5.8217   -1.4087   -1.9724 H   0  0  0  0  0  0  0  0  0  0  0  0
    4.2097   -1.6998   -0.5413 C   0  0  0  0  0  0  0  0  0  0  0  0
    4.7292   -2.5037    0.0015 H   0  0  0  0  0  0  0  0  0  0  0  0
    2.9315   -1.2973   -0.1321 C   0  0  0  0  0  0  0  0  0  0  0  0
    2.4408   -1.7869    0.7246 H   0  0  0  0  0  0  0  0  0  0  0  0
    0.9635    1.2828    1.2400 C   0  0  0  0  0  0  0  0  0  0  0  0
    0.1471    1.1742    2.3823 C   0  0  0  0  0  0  0  0  0  0  0  0
   -0.6574    0.4211    2.4019 H   0  0  0  0  0  0  0  0  0  0  0  0
    0.3710    2.0130    3.4855 C   0  0  0  0  0  0  0  0  0  0  0  0
   -0.2666    1.9229    4.3779 H   0  0  0  0  0  0  0  0  0  0  0  0
    1.4072    2.9582    3.4504 C   0  0  0  0  0  0  0  0  0  0  0  0
    1.5847    3.6124    4.3177 H   0  0  0  0  0  0  0  0  0  0  0  0
    2.2242    3.0673    2.3111 C   0  0  0  0  0  0  0  0  0  0  0  0
    3.0410    3.8047    2.2869 H   0  0  0  0  0  0  0  0  0  0  0  0
    2.0047    2.2338    1.2067 C   0  0  0  0  0  0  0  0  0  0  0  0
    2.6474    2.3119    0.3160 H   0  0  0  0  0  0  0  0  0  0  0  0
   -2.4883    1.4466   -0.4053 S   0  0  0  0  0  0  0  0  0  0  0  0
  1 21  1  0  0  0  0
  2  1  1  0  0  0  0
  3  6  1  0  0  0  0
  3  5  1  0  0  0  0
  4  3  1  0  0  0  0
  5  2  2  0  0  0  0
  5 32  1  0  0  0  0
  6  8  2  0  0  0  0
  7  6  1  0  0  0  0
  8  9  1  0  0  0  0
  8 32  1  0  0  0  0
 10  1  1  0  0  0  0
 10 19  1  0  0  0  0
 11 10  2  0  0  0  0
 12 11  1  0  0  0  0
 13 11  1  0  0  0  0
 13 15  2  0  0  0  0
 14 13  1  0  0  0  0
 15 17  1  0  0  0  0
 16 15  1  0  0  0  0
 17 19  2  0  0  0  0
 17 18  1  0  0  0  0
 19 20  1  0  0  0  0
 21 22  1  0  0  0  0
 22 23  1  0  0  0  0
 22 24  2  0  0  0  0
 24 25  1  0  0  0  0
 26 24  1  0  0  0  0
 26 27  1  0  0  0  0
 28 26  2  0  0  0  0
 29 28  1  0  0  0  0
 30 21  2  0  0  0  0
 30 28  1  0  0  0  0
 31 30  1  0  0  0  0
M  END
