1
q = 0.0, confidence = 0.998

 30 32  0  0  1  0  0  0  0  0999 V2000
    0.8922    0.3214   -0.4717 P   0  0  1  0  0  0  0  0  0  0  0  0
    1.5538    1.9687    1.6397 O   0  0  0  0  0  0  0  0  0  0  0  0
    1.6491    1.9287    0.2430 C   0  0  2  0  0  0  0  0  0  0  0  0
    0.8113    2.9149   -0.5608 C   0  0  0  0  0  0  0  0  0  0  0  0
    0.6791    2.4988   -1.8426 C   0  0  0  0  0  0  0  0  0  0  0  0
    1.4172    1.1939   -2.0707 C   0  0  1  0  0  0  0  0  0  0  0  0
    2.9373    1.4482   -1.8355 C   0  0  0  0  0  0  0  0  0  0  0  0
    3.0878    1.9317   -0.3670 C   0  0  0  0  0  0  0  0  0  0  0  0
    2.0447    3.1458    2.2596 C   0  0  0  0  0  0  0  0  0  0  0  0
    2.0938   -1.0233   -0.1485 C   0  0  0  0  0  0  0  0  0  0  0  0
    2.6602   -1.1591    1.1371 C   0  0  0  0  0  0  0  0  0  0  0  0
    3.5081   -2.2412    1.4158 C   0  0  0  0  0  0  0  0  0  0  0  0
    3.7898   -3.1936    0.4231 C   0  0  0  0  0  0  0  0  0  0  0  0
    3.2201   -3.0653   -0.8541 C   0  0  0  0  0  0  0  0  0  0  0  0
    2.3714   -1.9860   -1.1408 C   0  0  0  0  0  0  0  0  0  0  0  0
    0.3829    3.8307   -0.1296 H   0  0  0  0  0  0  0  0  0  0  0  0
    0.1242    3.0222   -2.6344 H   0  0  0  0  0  0  0  0  0  0  0  0
    1.1744    0.6694   -3.0116 H   0  0  0  0  0  0  0  0  0  0  0  0
    3.3038    2.2021   -2.5604 H   0  0  0  0  0  0  0  0  0  0  0  0
    3.5114    0.5165   -2.0061 H   0  0  0  0  0  0  0  0  0  0  0  0
    3.7367    1.2560    0.2242 H   0  0  0  0  0  0  0  0  0  0  0  0
    3.5184    2.9515   -0.3133 H   0  0  0  0  0  0  0  0  0  0  0  0
    1.8492    3.0391    3.3431 H   0  0  0  0  0  0  0  0  0  0  0  0
    3.1397    3.2789    2.1056 H   0  0  0  0  0  0  0  0  0  0  0  0
    1.5235    4.0608    1.8980 H   0  0  0  0  0  0  0  0  0  0  0  0
    2.4321   -0.4118    1.9125 H   0  0  0  0  0  0  0  0  0  0  0  0
    3.9477   -2.3437    2.4196 H   0  0  0  0  0  0  0  0  0  0  0  0
    4.4518   -4.0437    0.6471 H   0  0  0  0  0  0  0  0  0  0  0  0
    3.4326   -3.8143   -1.6319 H   0  0  0  0  0  0  0  0  0  0  0  0
    1.9153   -1.8997   -2.1397 H   0  0  0  0  0  0  0  0  0  0  0  0
  1 10  1  1  0  0  0
  1  3  1  0  0  0  0
  2  9  1  0  0  0  0
  3  2  1  1  0  0  0
  4 16  1  0  0  0  0
  4  3  1  0  0  0  0
  5  4  2  0  0  0  0
  6 18  1  6  0  0  0
  6  5  1  0  0  0  0
  6  7  1  0  0  0  0
  6  1  1  0  0  0  0
  7  8  1  0  0  0  0
  8 22  1  0  0  0  0
  8 21  1  0  0  0  0
  8  3  1  0  0  0  0
  9 23  1  0  0  0  0
 10 11  1  0  0  0  0
 11 12  2  0  0  0  0
 11 26  1  0  0  0  0
 12 27  1  0  0  0  0
 13 28  1  0  0  0  0
 13 12  1  0  0  0  0
 14 13  2  0  0  0  0
 15 14  1  0  0  0  0
 15 10  2  0  0  0  0
 17  5  1  0  0  0  0
 19  7  1  0  0  0  0
 20  7  1  0  0  0  0
 24  9  1  0  0  0  0
 25  9  1  0  0  0  0
 29 14  1  0  0  0  0
 30 15  1  0  0  0  0
M  END
