1
q = -1.0, confidence = 0.006

 48 49  0  0  1  0  0  0  0  0999 V2000
   -0.5274    0.0861   -0.0384 P   0  0  0  0  0  2  0  0  0  0  0  0
    1.6906    2.2383    0.4013 As  0  0  0  0  0  2  0  0  0  0  0  0
    1.1291   -0.3878   -0.3109 O   0  0  0  0  0  0  0  0  0  0  0  0
   -1.3076    2.6876    1.4611 Si  0  0  0  0  0  0  0  0  0  0  0  0
   -0.5603    2.5905   -1.7742 Si  0  0  0  0  0  0  0  0  0  0  0  0
   -0.2696    1.8842    0.0288 C   0  0  0  0  0  0  0  0  0  0  0  0
   -0.7964    1.8463    3.0734 C   0  0  0  0  0  0  0  0  0  0  0  0
    0.3024    1.8848    3.2185 H   0  0  0  0  0  0  0  0  0  0  0  0
   -1.1162    0.7857    3.0915 H   0  0  0  0  0  0  0  0  0  0  0  0
   -1.2785    2.3574    3.9323 H   0  0  0  0  0  0  0  0  0  0  0  0
   -3.1725    2.5299    1.2136 C   0  0  0  0  0  0  0  0  0  0  0  0
   -3.4672    1.5297    0.8465 H   0  0  0  0  0  0  0  0  0  0  0  0
   -3.5602    3.2854    0.5039 H   0  0  0  0  0  0  0  0  0  0  0  0
   -3.6722    2.6879    2.1916 H   0  0  0  0  0  0  0  0  0  0  0  0
   -0.8705    4.5293    1.5453 C   0  0  0  0  0  0  0  0  0  0  0  0
   -1.3579    4.9732    2.4383 H   0  0  0  0  0  0  0  0  0  0  0  0
   -1.2415    5.0790    0.6568 H   0  0  0  0  0  0  0  0  0  0  0  0
    0.2208    4.7044    1.6333 H   0  0  0  0  0  0  0  0  0  0  0  0
   -2.3907    2.8582   -2.1464 C   0  0  0  0  0  0  0  0  0  0  0  0
   -2.4868    3.1187   -3.2216 H   0  0  0  0  0  0  0  0  0  0  0  0
   -2.8053    3.7030   -1.5615 H   0  0  0  0  0  0  0  0  0  0  0  0
   -3.0135    1.9637   -1.9568 H   0  0  0  0  0  0  0  0  0  0  0  0
    0.1623    1.3655   -3.0223 C   0  0  0  0  0  0  0  0  0  0  0  0
    0.1146    1.8106   -4.0378 H   0  0  0  0  0  0  0  0  0  0  0  0
   -0.4111    0.4164   -3.0380 H   0  0  0  0  0  0  0  0  0  0  0  0
    1.2232    1.1334   -2.8008 H   0  0  0  0  0  0  0  0  0  0  0  0
    0.3239    4.2546   -1.9756 C   0  0  0  0  0  0  0  0  0  0  0  0
    1.4262    4.1465   -1.9555 H   0  0  0  0  0  0  0  0  0  0  0  0
    0.0353    4.9842   -1.1941 H   0  0  0  0  0  0  0  0  0  0  0  0
    0.0375    4.6803   -2.9605 H   0  0  0  0  0  0  0  0  0  0  0  0
    2.1177    0.4886   -0.0392 C   0  0  2  0  0  3  0  0  0  0  0  0
    3.4687   -0.0730   -0.1061 C   0  0  0  0  0  0  0  0  0  0  0  0
    4.6166    0.7511    0.0007 C   0  0  0  0  0  0  0  0  0  0  0  0
    4.4942    1.8408    0.1073 H   0  0  0  0  0  0  0  0  0  0  0  0
    5.8977    0.2014   -0.0460 C   0  0  0  0  0  0  0  0  0  0  0  0
    6.7741    0.8638    0.0365 H   0  0  0  0  0  0  0  0  0  0  0  0
    6.0944   -1.1880   -0.2169 C   0  0  0  0  0  0  0  0  0  0  0  0
    4.9518   -2.0045   -0.3342 C   0  0  0  0  0  0  0  0  0  0  0  0
    5.0788   -3.0903   -0.4734 H   0  0  0  0  0  0  0  0  0  0  0  0
    3.6623   -1.4647   -0.2812 C   0  0  0  0  0  0  0  0  0  0  0  0
    2.7810   -2.1145   -0.3737 H   0  0  0  0  0  0  0  0  0  0  0  0
    7.4841   -1.7800   -0.2190 C   0  0  0  0  0  0  0  0  0  0  0  0
    8.1860   -1.0710   -0.7071 H   0  0  0  0  0  0  0  0  0  0  0  0
    7.4906   -2.7037   -0.8351 H   0  0  0  0  0  0  0  0  0  0  0  0
    7.9888   -2.1044    1.1965 C   0  0  0  0  0  0  0  0  0  0  0  0
    8.0166   -1.1934    1.8282 H   0  0  0  0  0  0  0  0  0  0  0  0
    9.0107   -2.5340    1.1697 H   0  0  0  0  0  0  0  0  0  0  0  0
    7.3223   -2.8345    1.6988 H   0  0  0  0  0  0  0  0  0  0  0  0
  1  6  1  0  0  0  0
  3 31  1  0  0  0  0
  3  1  1  0  0  0  0
  4 15  1  0  0  0  0
  4  7  1  0  0  0  0
  5  6  1  0  0  0  0
  6  2  1  0  0  0  0
  6  4  1  0  0  0  0
  7  9  1  0  0  0  0
  7  8  1  0  0  0  0
  7 10  1  0  0  0  0
 11  4  1  0  0  0  0
 11 14  1  0  0  0  0
 12 11  1  0  0  0  0
 13 11  1  0  0  0  0
 15 18  1  0  0  0  0
 15 16  1  0  0  0  0
 17 15  1  0  0  0  0
 19 22  1  0  0  0  0
 19  5  1  0  0  0  0
 19 21  1  0  0  0  0
 20 19  1  0  0  0  0
 23 26  1  0  0  0  0
 23  5  1  0  0  0  0
 24 23  1  0  0  0  0
 25 23  1  0  0  0  0
 27 28  1  0  0  0  0
 27  5  1  0  0  0  0
 27 29  1  0  0  0  0
 30 27  1  0  0  0  0
 31 32  1  1  0  0  0
 31  2  1  0  0  0  0
 32 33  1  0  0  0  0
 33 34  1  0  0  0  0
 35 33  2  0  0  0  0
 35 36  1  0  0  0  0
 37 35  1  0  0  0  0
 38 40  1  0  0  0  0
 38 37  2  0  0  0  0
 39 38  1  0  0  0  0
 40 32  2  0  0  0  0
 41 40  1  0  0  0  0
 42 37  1  0  0  0  0
 42 45  1  0  0  0  0
 43 42  1  0  0  0  0
 44 42  1  0  0  0  0
 45 48  1  0  0  0  0
 45 46  1  0  0  0  0
 47 45  1  0  0  0  0
M  END
