1
q = 0.0, confidence = 0.988

 34 33  0  0  1  0  0  0  0  0999 V2000
    0.2792    0.8655    1.2125 P   0  0  0  0  0  0  0  0  0  0  0  0
    0.8008   -0.1029    2.6947 C   0  0  0  0  0  0  0  0  0  0  0  0
    1.8799    1.1723    0.3285 C   0  0  1  0  0  3  0  0  0  0  0  0
    3.9172   -2.2035    0.0296 C   0  0  0  0  0  3  0  0  0  0  0  0
    3.4264   -3.4706    0.6821 C   0  0  0  0  0  0  0  0  0  0  0  0
    2.6225    0.0623    0.2348 C   0  0  0  0  0  0  0  0  0  0  0  0
    3.2516   -1.0469    0.1519 C   0  0  0  0  0  0  0  0  0  0  0  0
    2.2534    2.4806   -0.3942 C   0  0  0  0  0  0  0  0  0  0  0  0
   -0.2989    2.4191    2.0307 C   0  0  0  0  0  0  0  0  0  0  0  0
    5.1903   -2.2913   -0.7731 C   0  0  0  0  0  0  0  0  0  0  0  0
    1.0665    3.0055   -1.2296 C   0  0  0  0  0  0  0  0  0  0  0  0
    2.6824    3.5432    0.6433 C   0  0  0  0  0  0  0  0  0  0  0  0
    3.4353    2.2163   -1.3462 C   0  0  0  0  0  0  0  0  0  0  0  0
    1.2539   -1.0567    2.3689 H   0  0  0  0  0  0  0  0  0  0  0  0
   -0.1019   -0.3231    3.2978 H   0  0  0  0  0  0  0  0  0  0  0  0
    1.5344    0.4662    3.2990 H   0  0  0  0  0  0  0  0  0  0  0  0
    3.3572   -4.2872   -0.0687 H   0  0  0  0  0  0  0  0  0  0  0  0
    2.4328   -3.3476    1.1499 H   0  0  0  0  0  0  0  0  0  0  0  0
    4.1487   -3.8155    1.4547 H   0  0  0  0  0  0  0  0  0  0  0  0
   -0.6090    3.1745    1.2862 H   0  0  0  0  0  0  0  0  0  0  0  0
    0.4711    2.8439    2.7030 H   0  0  0  0  0  0  0  0  0  0  0  0
   -1.1908    2.1412    2.6269 H   0  0  0  0  0  0  0  0  0  0  0  0
    6.0235   -2.6690   -0.1410 H   0  0  0  0  0  0  0  0  0  0  0  0
    5.4833   -1.3141   -1.1990 H   0  0  0  0  0  0  0  0  0  0  0  0
    5.0727   -3.0197   -1.6050 H   0  0  0  0  0  0  0  0  0  0  0  0
    1.3589    3.9441   -1.7430 H   0  0  0  0  0  0  0  0  0  0  0  0
    0.1754    3.2333   -0.6152 H   0  0  0  0  0  0  0  0  0  0  0  0
    0.7663    2.2732   -2.0030 H   0  0  0  0  0  0  0  0  0  0  0  0
    3.5273    3.1739    1.2582 H   0  0  0  0  0  0  0  0  0  0  0  0
    1.8565    3.8226    1.3238 H   0  0  0  0  0  0  0  0  0  0  0  0
    3.0121    4.4667    0.1239 H   0  0  0  0  0  0  0  0  0  0  0  0
    4.3269    1.8588   -0.7945 H   0  0  0  0  0  0  0  0  0  0  0  0
    3.7081    3.1511   -1.8764 H   0  0  0  0  0  0  0  0  0  0  0  0
    3.1710    1.4500   -2.1013 H   0  0  0  0  0  0  0  0  0  0  0  0
  1  9  1  0  0  0  0
  1  2  1  0  0  0  0
  2 15  1  0  0  0  0
  2 16  1  0  0  0  0
  3  6  1  6  0  0  0
  3  1  1  0  0  0  0
  4  7  1  0  0  0  0
  4  5  1  0  0  0  0
  5 18  1  0  0  0  0
  5 19  1  0  0  0  0
  7  6  3  0  0  0  0
  8  3  1  0  0  0  0
  8 12  1  0  0  0  0
  9 22  1  0  0  0  0
  9 21  1  0  0  0  0
 10 23  1  0  0  0  0
 10  4  1  0  0  0  0
 11 27  1  0  0  0  0
 11  8  1  0  0  0  0
 12 29  1  0  0  0  0
 12 30  1  0  0  0  0
 13 32  1  0  0  0  0
 13  8  1  0  0  0  0
 14  2  1  0  0  0  0
 17  5  1  0  0  0  0
 20  9  1  0  0  0  0
 24 10  1  0  0  0  0
 25 10  1  0  0  0  0
 26 11  1  0  0  0  0
 28 11  1  0  0  0  0
 31 12  1  0  0  0  0
 33 13  1  0  0  0  0
 34 13  1  0  0  0  0
M  END
