2
q = 0.0, confidence = 1.0

 37 38  0  0  0  0  0  0  0  0999 V2000
    1.3347   -1.0915    2.2427 S   0  0  0  0  0  0  0  0  0  0  0  0
   -1.3298    0.2235    0.3775 P   0  0  0  0  0  0  0  0  0  0  0  0
   -2.4218   -1.2438    0.4554 C   0  0  0  0  0  0  0  0  0  0  0  0
   -2.0951   -2.3625   -0.3391 C   0  0  0  0  0  0  0  0  0  0  0  0
   -1.2077   -2.3373   -0.9941 H   0  0  0  0  0  0  0  0  0  0  0  0
   -2.8916   -3.5177   -0.2811 C   0  0  0  0  0  0  0  0  0  0  0  0
   -2.6293   -4.3877   -0.9016 H   0  0  0  0  0  0  0  0  0  0  0  0
   -4.0083   -3.5642    0.5665 C   0  0  0  0  0  0  0  0  0  0  0  0
   -4.6290   -4.4721    0.6111 H   0  0  0  0  0  0  0  0  0  0  0  0
   -4.3345   -2.4531    1.3637 C   0  0  0  0  0  0  0  0  0  0  0  0
   -5.2096   -2.4891    2.0302 H   0  0  0  0  0  0  0  0  0  0  0  0
   -3.5452   -1.2962    1.3112 C   0  0  0  0  0  0  0  0  0  0  0  0
   -3.8098   -0.4265    1.9328 H   0  0  0  0  0  0  0  0  0  0  0  0
   -2.3551    1.6344   -0.1759 C   0  0  0  0  0  0  0  0  0  0  0  0
   -1.7598    2.9166   -0.1940 C   0  0  0  0  0  0  0  0  0  0  0  0
   -0.7090    3.0443    0.1151 H   0  0  0  0  0  0  0  0  0  0  0  0
   -2.4948    4.0211   -0.6456 C   0  0  0  0  0  0  0  0  0  0  0  0
   -2.0242    5.0159   -0.6560 H   0  0  0  0  0  0  0  0  0  0  0  0
   -3.8149    3.8590   -1.0976 C   0  0  0  0  0  0  0  0  0  0  0  0
   -4.3864    4.7284   -1.4563 H   0  0  0  0  0  0  0  0  0  0  0  0
   -4.3982    2.5827   -1.1035 C   0  0  0  0  0  0  0  0  0  0  0  0
   -5.4276    2.4469   -1.4687 H   0  0  0  0  0  0  0  0  0  0  0  0
   -3.6742    1.4705   -0.6468 C   0  0  0  0  0  0  0  0  0  0  0  0
   -4.1368    0.4727   -0.6597 H   0  0  0  0  0  0  0  0  0  0  0  0
   -0.9665    0.6150    2.1631 C   0  0  0  0  0  0  0  0  0  0  0  0
   -0.3208    1.5185    2.1508 H   0  0  0  0  0  0  0  0  0  0  0  0
   -1.9123    0.8900    2.6765 H   0  0  0  0  0  0  0  0  0  0  0  0
   -0.2923   -0.5485    2.8941 C   0  0  0  0  0  0  0  0  0  0  0  0
   -0.9297   -1.4556    2.8560 H   0  0  0  0  0  0  0  0  0  0  0  0
   -0.1493   -0.2975    3.9659 H   0  0  0  0  0  0  0  0  0  0  0  0
    2.4252    0.2271    2.9119 C   0  0  0  0  0  0  0  0  0  0  0  0
    2.0779    1.2068    2.5228 H   0  0  0  0  0  0  0  0  0  0  0  0
    2.3200    0.2074    4.0171 H   0  0  0  0  0  0  0  0  0  0  0  0
    3.8624   -0.0263    2.4757 C   0  0  0  0  0  0  0  0  0  0  0  0
    4.2180   -1.0296    2.7853 H   0  0  0  0  0  0  0  0  0  0  0  0
    4.5295    0.7328    2.9310 H   0  0  0  0  0  0  0  0  0  0  0  0
    3.9623    0.0640    1.3755 H   0  0  0  0  0  0  0  0  0  0  0  0
  1 28  1  0  0  0  0
  1 31  1  0  0  0  0
  2  3  1  0  0  0  0
  2 25  1  0  0  0  0
  3 12  1  0  0  0  0
  4  6  1  0  0  0  0
  4  3  2  0  0  0  0
  5  4  1  0  0  0  0
  6  8  2  0  0  0  0
  7  6  1  0  0  0  0
  8  9  1  0  0  0  0
  8 10  1  0  0  0  0
 10 11  1  0  0  0  0
 12 10  2  0  0  0  0
 12 13  1  0  0  0  0
 14  2  1  0  0  0  0
 15 14  1  0  0  0  0
 15 16  1  0  0  0  0
 17 15  2  0  0  0  0
 18 17  1  0  0  0  0
 19 17  1  0  0  0  0
 20 19  1  0  0  0  0
 21 19  2  0  0  0  0
 21 23  1  0  0  0  0
 22 21  1  0  0  0  0
 23 14  2  0  0  0  0
 24 23  1  0  0  0  0
 25 27  1  0  0  0  0
 25 28  1  0  0  0  0
 26 25  1  0  0  0  0
 28 30  1  0  0  0  0
 29 28  1  0  0  0  0
 31 33  1  0  0  0  0
 32 31  1  0  0  0  0
 34 35  1  0  0  0  0
 34 31  1  0  0  0  0
 34 36  1  0  0  0  0
 37 34  1  0  0  0  0
M  END
