2
q = 0.0, confidence = 1.0

 50 55  0  0  0  0  0  0  0  0999 V2000
   -1.2844   -0.1788   -1.1439 S   0  0  0  0  0  0  0  0  0  0  0  0
    1.3925    0.5046    0.3049 P   0  0  0  0  0  0  0  0  0  0  0  0
    0.1603    0.5086    1.4545 O   0  0  0  0  0  0  0  0  0  0  0  0
    0.9024    1.8547   -0.5822 O   0  0  0  0  0  0  0  0  0  0  0  0
    4.8042    2.9837    1.2377 O   0  0  0  0  0  0  0  0  0  0  0  0
    2.6414    1.1674    1.1887 N   0  0  0  0  0  0  0  0  0  0  0  0
    2.5161    2.4524    1.8833 C   0  0  0  0  0  0  0  0  0  0  0  0
    2.7779    2.3060    2.9552 H   0  0  0  0  0  0  0  0  0  0  0  0
    1.4681    2.8072    1.8374 H   0  0  0  0  0  0  0  0  0  0  0  0
    3.4717    3.4675    1.2500 C   0  0  0  0  0  0  0  0  0  0  0  0
    3.1222    3.6841    0.2097 H   0  0  0  0  0  0  0  0  0  0  0  0
    3.4776    4.4137    1.8280 H   0  0  0  0  0  0  0  0  0  0  0  0
    4.9110    1.7721    0.5036 C   0  0  0  0  0  0  0  0  0  0  0  0
    5.9765    1.4689    0.5363 H   0  0  0  0  0  0  0  0  0  0  0  0
    4.6200    1.9333   -0.5645 H   0  0  0  0  0  0  0  0  0  0  0  0
    4.0206    0.6808    1.0994 C   0  0  0  0  0  0  0  0  0  0  0  0
    4.0462   -0.2389    0.4777 H   0  0  0  0  0  0  0  0  0  0  0  0
    4.3767    0.4171    2.1205 H   0  0  0  0  0  0  0  0  0  0  0  0
   -0.3729    2.3614   -0.6414 C   0  0  0  0  0  0  0  0  0  0  0  0
   -1.5088    1.5657   -0.8207 C   0  0  0  0  0  0  0  0  0  0  0  0
   -2.8151    2.1656   -0.8196 C   0  0  0  0  0  0  0  0  0  0  0  0
   -4.0126    1.4071   -0.9590 C   0  0  0  0  0  0  0  0  0  0  0  0
   -3.9358    0.3166   -1.0697 H   0  0  0  0  0  0  0  0  0  0  0  0
   -5.2538    2.0275   -0.9470 C   0  0  0  0  0  0  0  0  0  0  0  0
   -6.1652    1.4196   -1.0515 H   0  0  0  0  0  0  0  0  0  0  0  0
   -5.3594    3.4353   -0.8012 C   0  0  0  0  0  0  0  0  0  0  0  0
   -6.3501    3.9140   -0.7956 H   0  0  0  0  0  0  0  0  0  0  0  0
   -4.2125    4.2026   -0.6665 C   0  0  0  0  0  0  0  0  0  0  0  0
   -4.2798    5.2959   -0.5535 H   0  0  0  0  0  0  0  0  0  0  0  0
   -2.9223    3.5978   -0.6685 C   0  0  0  0  0  0  0  0  0  0  0  0
   -1.7330    4.3720   -0.5278 C   0  0  0  0  0  0  0  0  0  0  0  0
   -1.8203    5.4645   -0.4240 H   0  0  0  0  0  0  0  0  0  0  0  0
   -0.4878    3.7731   -0.5063 C   0  0  0  0  0  0  0  0  0  0  0  0
    0.4340    4.3594   -0.3839 H   0  0  0  0  0  0  0  0  0  0  0  0
   -0.8049   -0.4675    1.5651 C   0  0  0  0  0  0  0  0  0  0  0  0
   -1.5790   -0.8856    0.4781 C   0  0  0  0  0  0  0  0  0  0  0  0
   -2.5721   -1.9066    0.6568 C   0  0  0  0  0  0  0  0  0  0  0  0
   -3.3751   -2.4009   -0.4129 C   0  0  0  0  0  0  0  0  0  0  0  0
   -3.2180   -1.9929   -1.4222 H   0  0  0  0  0  0  0  0  0  0  0  0
   -4.3274   -3.3859   -0.1940 C   0  0  0  0  0  0  0  0  0  0  0  0
   -4.9340   -3.7528   -1.0356 H   0  0  0  0  0  0  0  0  0  0  0  0
   -4.5221   -3.9274    1.1036 C   0  0  0  0  0  0  0  0  0  0  0  0
   -5.2785   -4.7103    1.2634 H   0  0  0  0  0  0  0  0  0  0  0  0
   -3.7564   -3.4700    2.1648 C   0  0  0  0  0  0  0  0  0  0  0  0
   -3.8962   -3.8846    3.1752 H   0  0  0  0  0  0  0  0  0  0  0  0
   -2.7698   -2.4588    1.9774 C   0  0  0  0  0  0  0  0  0  0  0  0
   -1.9750   -1.9801    3.0591 C   0  0  0  0  0  0  0  0  0  0  0  0
   -2.1326   -2.4038    4.0626 H   0  0  0  0  0  0  0  0  0  0  0  0
   -1.0089   -1.0109    2.8601 C   0  0  0  0  0  0  0  0  0  0  0  0
   -0.3768   -0.6419    3.6800 H   0  0  0  0  0  0  0  0  0  0  0  0
  1 20  1  0  0  0  0
  1 36  1  0  0  0  0
  2  6  1  0  0  0  0
  2  3  1  0  0  0  0
  3 35  1  0  0  0  0
  4  2  1  0  0  0  0
  5 10  1  0  0  0  0
  6  7  1  0  0  0  0
  7  8  1  0  0  0  0
  9  7  1  0  0  0  0
 10 12  1  0  0  0  0
 10  7  1  0  0  0  0
 11 10  1  0  0  0  0
 13 14  1  0  0  0  0
 13 16  1  0  0  0  0
 13  5  1  0  0  0  0
 15 13  1  0  0  0  0
 16  6  1  0  0  0  0
 16 18  1  0  0  0  0
 17 16  1  0  0  0  0
 19  4  1  0  0  0  0
 19 33  1  0  0  0  0
 20 21  1  0  0  0  0
 20 19  2  0  0  0  0
 21 30  1  0  0  0  0
 22 24  1  0  0  0  0
 22 21  2  0  0  0  0
 23 22  1  0  0  0  0
 24 26  2  0  0  0  0
 25 24  1  0  0  0  0
 26 27  1  0  0  0  0
 26 28  1  0  0  0  0
 28 29  1  0  0  0  0
 30 28  2  0  0  0  0
 30 31  1  0  0  0  0
 31 33  2  0  0  0  0
 31 32  1  0  0  0  0
 33 34  1  0  0  0  0
 35 49  1  0  0  0  0
 36 37  1  0  0  0  0
 36 35  2  0  0  0  0
 37 46  1  0  0  0  0
 38 40  1  0  0  0  0
 38 37  2  0  0  0  0
 39 38  1  0  0  0  0
 40 42  2  0  0  0  0
 41 40  1  0  0  0  0
 42 43  1  0  0  0  0
 42 44  1  0  0  0  0
 44 45  1  0  0  0  0
 46 44  2  0  0  0  0
 46 47  1  0  0  0  0
 47 48  1  0  0  0  0
 49 47  2  0  0  0  0
 49 50  1  0  0  0  0
M  END
