1
q = -1.0

 24 27  0  0  1  0  0  0  0  0999 V2000
   -1.5882    0.9183    0.6311 P   0  0  2  0  0  0  0  0  0  0  0  0
   -1.0345    2.1060    1.9579 C   0  0  2  0  0  3  0  0  0  0  0  0
   -0.5535    2.4696    0.6083 C   0  0  1  0  0  0  0  0  0  0  0  0
    0.4560    2.1904    1.7918 C   0  0  1  0  0  0  0  0  0  0  0  0
    1.1473    3.4291    2.1784 C   0  0  0  0  0  0  0  0  0  0  0  0
    0.9997    4.6061    1.4828 C   0  0  0  0  0  0  0  0  0  0  0  0
    0.2825    4.6853    0.2312 C   0  0  0  0  0  0  0  0  0  0  0  0
   -0.4210    3.6093   -0.2582 C   0  0  0  0  0  0  0  0  0  0  0  0
   -3.2478    1.5379    0.1860 C   0  0  0  0  0  0  0  0  0  0  0  0
   -3.7986    2.6520    0.8541 C   0  0  0  0  0  0  0  0  0  0  0  0
   -5.0597    3.1341    0.4799 C   0  0  0  0  0  0  0  0  0  0  0  0
   -5.7781    2.5106   -0.5543 C   0  0  0  0  0  0  0  0  0  0  0  0
   -5.2303    1.4006   -1.2160 C   0  0  0  0  0  0  0  0  0  0  0  0
   -3.9678    0.9105   -0.8502 C   0  0  0  0  0  0  0  0  0  0  0  0
    1.0597    1.2577    1.8082 H   0  0  0  0  0  0  0  0  0  0  0  0
    1.8673    3.3723    3.0111 H   0  0  0  0  0  0  0  0  0  0  0  0
    1.5475    5.4978    1.8250 H   0  0  0  0  0  0  0  0  0  0  0  0
    0.3556    5.6071   -0.3663 H   0  0  0  0  0  0  0  0  0  0  0  0
   -0.8640    3.5934   -1.2640 H   0  0  0  0  0  0  0  0  0  0  0  0
   -3.2251    3.1246    1.6673 H   0  0  0  0  0  0  0  0  0  0  0  0
   -5.4873    4.0025    1.0042 H   0  0  0  0  0  0  0  0  0  0  0  0
   -6.7698    2.8911   -0.8433 H   0  0  0  0  0  0  0  0  0  0  0  0
   -5.7890    0.9076   -2.0259 H   0  0  0  0  0  0  0  0  0  0  0  0
   -3.5452    0.0372   -1.3643 H   0  0  0  0  0  0  0  0  0  0  0  0
  1  9  1  6  0  0  0
  1  2  1  0  0  0  0
  3  1  1  0  0  0  0
  3  4  1  0  0  0  0
  3  2  1  0  0  0  0
  4 15  1  0  0  0  0
  4  2  1  0  0  0  0
  4  5  1  0  0  0  0
  5 16  1  0  0  0  0
  6 17  1  0  0  0  0
  6  5  2  0  0  0  0
  7  6  1  0  0  0  0
  8  7  2  0  0  0  0
  8  3  1  0  0  0  0
  9 10  1  0  0  0  0
 10 20  1  0  0  0  0
 11 10  2  0  0  0  0
 11 21  1  0  0  0  0
 12 11  1  0  0  0  0
 13 14  1  0  0  0  0
 13 12  2  0  0  0  0
 14  9  2  0  0  0  0
 18  7  1  0  0  0  0
 19  8  1  0  0  0  0
 22 12  1  0  0  0  0
 23 13  1  0  0  0  0
 24 14  1  0  0  0  0
M  END
