1
q = -1.0, confidence = 0.0

 27 28  0  0  0  0  0  0  0  0999 V2000
    0.7995   -0.0094    0.0005 P   0  0  0  0  0  4  0  0  0  0  0  0
    0.7440    0.2176    1.8219 O   0  0  0  0  0  0  0  0  0  0  0  0
    1.3280   -0.8221    3.7433 O   0  0  0  0  0  0  0  0  0  0  0  0
    1.6500   -1.4301    0.2385 O   0  0  0  0  0  0  0  0  0  0  0  0
    1.0406   -0.2350   -1.7860 O   0  0  0  0  0  0  0  0  0  0  0  0
    2.2740    0.5469   -3.5143 O   0  0  0  0  0  0  0  0  0  0  0  0
    1.8867    1.2588   -0.0406 O   0  0  0  0  0  0  0  0  0  0  0  0
    1.3170   -0.7562    2.5297 C   0  0  0  0  0  0  0  0  0  0  0  0
    1.9539   -1.8066    1.5976 C   0  0  0  0  0  0  0  0  0  0  0  0
    1.3451   -3.1789    1.8884 C   0  0  0  0  0  0  0  0  0  0  0  0
    3.4737   -1.7912    1.7812 C   0  0  0  0  0  0  0  0  0  0  0  0
    1.9646    0.5556   -2.3401 C   0  0  0  0  0  0  0  0  0  0  0  0
    2.5750    1.4976   -1.2847 C   0  0  0  0  0  0  0  0  0  0  0  0
    2.3573    2.9494   -1.7112 C   0  0  0  0  0  0  0  0  0  0  0  0
    4.0570    1.1592   -1.0993 C   0  0  0  0  0  0  0  0  0  0  0  0
    1.8039   -3.9533    1.2424 H   0  0  0  0  0  0  0  0  0  0  0  0
    1.5169   -3.4405    2.9497 H   0  0  0  0  0  0  0  0  0  0  0  0
    0.2514   -3.1638    1.7100 H   0  0  0  0  0  0  0  0  0  0  0  0
    3.9470   -2.5283    1.1030 H   0  0  0  0  0  0  0  0  0  0  0  0
    3.8773   -0.7857    1.5531 H   0  0  0  0  0  0  0  0  0  0  0  0
    3.7258   -2.0422    2.8293 H   0  0  0  0  0  0  0  0  0  0  0  0
    1.2767    3.1637   -1.8300 H   0  0  0  0  0  0  0  0  0  0  0  0
    2.7810    3.6416   -0.9574 H   0  0  0  0  0  0  0  0  0  0  0  0
    2.8502    3.1238   -2.6863 H   0  0  0  0  0  0  0  0  0  0  0  0
    4.5944    1.2952   -2.0573 H   0  0  0  0  0  0  0  0  0  0  0  0
    4.5049    1.8187   -0.3302 H   0  0  0  0  0  0  0  0  0  0  0  0
    4.1713    0.1060   -0.7775 H   0  0  0  0  0  0  0  0  0  0  0  0
  1  4  1  0  0  0  0
  1  2  1  0  0  0  0
  2  8  1  0  0  0  0
  4  9  1  0  0  0  0
  5  1  1  0  0  0  0
  6 12  2  0  0  0  0
  7  1  1  0  0  0  0
  8  3  2  0  0  0  0
  9 11  1  0  0  0  0
  9 10  1  0  0  0  0
  9  8  1  0  0  0  0
 10 17  1  0  0  0  0
 11 21  1  0  0  0  0
 12  5  1  0  0  0  0
 12 13  1  0  0  0  0
 13 15  1  0  0  0  0
 13  7  1  0  0  0  0
 14 13  1  0  0  0  0
 14 23  1  0  0  0  0
 15 27  1  0  0  0  0
 15 26  1  0  0  0  0
 16 10  1  0  0  0  0
 18 10  1  0  0  0  0
 19 11  1  0  0  0  0
 20 11  1  0  0  0  0
 22 14  1  0  0  0  0
 24 14  1  0  0  0  0
 25 15  1  0  0  0  0
M  END
