1
q = 0.0, confidence = 1.0

 55 57  0  0  0  0  0  0  0  0999 V2000
    0.2006    0.2300    0.2872 P   0  0  1  0  0  0  0  0  0  0  0  0
    1.3102    3.1176    0.6822 Si  0  0  0  0  0  0  0  0  0  0  0  0
    1.7805    0.9211    2.9987 Si  0  0  0  0  0  0  0  0  0  0  0  0
    1.5698    0.2410   -0.7616 N   0  0  0  0  0  0  0  0  0  0  0  0
    1.5387   -2.0009   -0.0176 N   0  0  0  0  0  0  0  0  0  0  0  0
    0.5591   -1.5700    0.7320 C   0  0  0  0  0  0  0  0  0  0  0  0
    2.0911   -0.9606   -0.8002 C   0  0  0  0  0  0  0  0  0  0  0  0
    0.6326    1.4971    1.5499 C   0  0  0  0  0  0  0  0  0  0  0  0
   -0.3386    1.8018    1.9999 H   0  0  0  0  0  0  0  0  0  0  0  0
    3.2004    3.0973    0.5779 C   0  0  0  0  0  0  0  0  0  0  0  0
    3.5201    2.2583   -0.0727 H   0  0  0  0  0  0  0  0  0  0  0  0
    3.7233    3.0099    1.5485 H   0  0  0  0  0  0  0  0  0  0  0  0
    3.5313    4.0423    0.0991 H   0  0  0  0  0  0  0  0  0  0  0  0
    0.7392    3.4186   -1.0923 C   0  0  0  0  0  0  0  0  0  0  0  0
    1.1806    4.3890   -1.4048 H   0  0  0  0  0  0  0  0  0  0  0  0
   -0.3558    3.5005   -1.2112 H   0  0  0  0  0  0  0  0  0  0  0  0
    1.1184    2.6324   -1.7706 H   0  0  0  0  0  0  0  0  0  0  0  0
    0.6591    4.5550    1.7284 C   0  0  0  0  0  0  0  0  0  0  0  0
    0.9404    4.4922    2.7963 H   0  0  0  0  0  0  0  0  0  0  0  0
   -0.4481    4.5883    1.6594 H   0  0  0  0  0  0  0  0  0  0  0  0
    1.0476    5.5139    1.3272 H   0  0  0  0  0  0  0  0  0  0  0  0
    2.2830    2.4193    4.0493 C   0  0  0  0  0  0  0  0  0  0  0  0
    1.3924    2.9043    4.4987 H   0  0  0  0  0  0  0  0  0  0  0  0
    2.8575    3.1919    3.5047 H   0  0  0  0  0  0  0  0  0  0  0  0
    2.9166    2.0542    4.8845 H   0  0  0  0  0  0  0  0  0  0  0  0
    3.3136    0.0195    2.3608 C   0  0  0  0  0  0  0  0  0  0  0  0
    3.9971   -0.1665    3.2153 H   0  0  0  0  0  0  0  0  0  0  0  0
    3.8680    0.5982    1.5989 H   0  0  0  0  0  0  0  0  0  0  0  0
    3.0551   -0.9647    1.9235 H   0  0  0  0  0  0  0  0  0  0  0  0
    0.8702   -0.2195    4.2059 C   0  0  0  0  0  0  0  0  0  0  0  0
    0.7310   -1.2456    3.8188 H   0  0  0  0  0  0  0  0  0  0  0  0
   -0.1238    0.1808    4.4920 H   0  0  0  0  0  0  0  0  0  0  0  0
    1.4778   -0.2905    5.1325 H   0  0  0  0  0  0  0  0  0  0  0  0
   -0.2579   -2.4648    1.5500 C   0  0  0  0  0  0  0  0  0  0  0  0
   -1.2734   -1.9578    2.3901 C   0  0  0  0  0  0  0  0  0  0  0  0
   -1.4394   -0.8727    2.4411 H   0  0  0  0  0  0  0  0  0  0  0  0
   -2.0675   -2.8225    3.1505 C   0  0  0  0  0  0  0  0  0  0  0  0
   -2.8650   -2.4135    3.7875 H   0  0  0  0  0  0  0  0  0  0  0  0
   -1.8512   -4.2085    3.0842 C   0  0  0  0  0  0  0  0  0  0  0  0
   -2.4786   -4.8909    3.6776 H   0  0  0  0  0  0  0  0  0  0  0  0
   -0.8389   -4.7262    2.2550 C   0  0  0  0  0  0  0  0  0  0  0  0
   -0.6744   -5.8129    2.2011 H   0  0  0  0  0  0  0  0  0  0  0  0
   -0.0484   -3.8641    1.4903 C   0  0  0  0  0  0  0  0  0  0  0  0
    0.7392   -4.2441    0.8246 H   0  0  0  0  0  0  0  0  0  0  0  0
    3.2657   -1.2779   -1.6328 C   0  0  0  0  0  0  0  0  0  0  0  0
    3.8400   -0.2793   -2.4513 C   0  0  0  0  0  0  0  0  0  0  0  0
    3.3773    0.7182   -2.4660 H   0  0  0  0  0  0  0  0  0  0  0  0
    4.9674   -0.5688   -3.2260 C   0  0  0  0  0  0  0  0  0  0  0  0
    5.4097    0.2117   -3.8634 H   0  0  0  0  0  0  0  0  0  0  0  0
    5.5339   -1.8564   -3.1944 C   0  0  0  0  0  0  0  0  0  0  0  0
    6.4206   -2.0822   -3.8063 H   0  0  0  0  0  0  0  0  0  0  0  0
    4.9651   -2.8541   -2.3867 C   0  0  0  0  0  0  0  0  0  0  0  0
    5.4049   -3.8626   -2.3648 H   0  0  0  0  0  0  0  0  0  0  0  0
    3.8337   -2.5703   -1.6104 C   0  0  0  0  0  0  0  0  0  0  0  0
    3.3693   -3.3378   -0.9760 H   0  0  0  0  0  0  0  0  0  0  0  0
  1  6  1  0  0  0  0
  1  8  1  1  0  0  0
  2  8  1  0  0  0  0
  2 18  1  0  0  0  0
  3 22  1  0  0  0  0
  3 30  1  0  0  0  0
  4  1  1  0  0  0  0
  5  6  2  0  0  0  0
  6 34  1  0  0  0  0
  7  4  2  0  0  0  0
  7  5  1  0  0  0  0
  8  9  1  0  0  0  0
  8  3  1  0  0  0  0
 10  2  1  0  0  0  0
 10 12  1  0  0  0  0
 11 10  1  0  0  0  0
 13 10  1  0  0  0  0
 14  2  1  0  0  0  0
 15 14  1  0  0  0  0
 16 14  1  0  0  0  0
 17 14  1  0  0  0  0
 18 19  1  0  0  0  0
 20 18  1  0  0  0  0
 21 18  1  0  0  0  0
 22 23  1  0  0  0  0
 22 25  1  0  0  0  0
 24 22  1  0  0  0  0
 26  3  1  0  0  0  0
 26 27  1  0  0  0  0
 28 26  1  0  0  0  0
 29 26  1  0  0  0  0
 30 32  1  0  0  0  0
 30 33  1  0  0  0  0
 31 30  1  0  0  0  0
 34 35  1  0  0  0  0
 35 36  1  0  0  0  0
 35 37  2  0  0  0  0
 37 38  1  0  0  0  0
 39 37  1  0  0  0  0
 39 40  1  0  0  0  0
 41 39  2  0  0  0  0
 42 41  1  0  0  0  0
 43 34  2  0  0  0  0
 43 41  1  0  0  0  0
 44 43  1  0  0  0  0
 45 54  1  0  0  0  0
 45  7  1  0  0  0  0
 46 45  2  0  0  0  0
 47 46  1  0  0  0  0
 48 50  2  0  0  0  0
 48 46  1  0  0  0  0
 49 48  1  0  0  0  0
 50 52  1  0  0  0  0
 51 50  1  0  0  0  0
 52 53  1  0  0  0  0
 52 54  2  0  0  0  0
 54 55  1  0  0  0  0
M  END
