2
q = 0.0, confidence = 0.996

 64 68  0  0  0  0  0  0  0  0999 V2000
   -0.2008    1.7440    0.3918 P   0  0  0  0  0  4  0  0  0  0  0  0
   -1.2768   -1.1134    0.6289 P   0  0  0  0  0  0  0  0  0  0  0  0
    2.1482    0.9382    1.7828 O   0  0  0  0  0  0  0  0  0  0  0  0
    1.2760    1.2018   -0.3886 C   0  0  0  0  0  3  0  0  0  0  0  0
    1.4560    1.5835   -1.4040 H   0  0  0  0  0  0  0  0  0  0  0  0
    2.3624    0.9749    0.5466 C   0  0  0  0  0  0  0  0  0  0  0  0
    3.7506    0.7419    0.0230 C   0  0  0  0  0  0  0  0  0  0  0  0
    4.0604    0.6717   -1.3511 C   0  0  0  0  0  0  0  0  0  0  0  0
    3.2695    0.7824   -2.1080 H   0  0  0  0  0  0  0  0  0  0  0  0
    5.3759    0.4324   -1.7701 C   0  0  0  0  0  0  0  0  0  0  0  0
    5.6048    0.3701   -2.8448 H   0  0  0  0  0  0  0  0  0  0  0  0
    6.3966    0.2606   -0.8209 C   0  0  0  0  0  0  0  0  0  0  0  0
    7.4290    0.0690   -1.1515 H   0  0  0  0  0  0  0  0  0  0  0  0
    6.0951    0.3246    0.5500 C   0  0  0  0  0  0  0  0  0  0  0  0
    6.8920    0.1820    1.2960 H   0  0  0  0  0  0  0  0  0  0  0  0
    4.7804    0.5601    0.9674 C   0  0  0  0  0  0  0  0  0  0  0  0
    4.5057    0.6016    2.0313 H   0  0  0  0  0  0  0  0  0  0  0  0
   -0.0507    3.2785    1.3792 C   0  0  0  0  0  0  0  0  0  0  0  0
   -0.3195    4.5192    0.7626 C   0  0  0  0  0  0  0  0  0  0  0  0
   -0.6742    4.5528   -0.2786 H   0  0  0  0  0  0  0  0  0  0  0  0
   -0.1413    5.7108    1.4788 C   0  0  0  0  0  0  0  0  0  0  0  0
   -0.3558    6.6751    0.9939 H   0  0  0  0  0  0  0  0  0  0  0  0
    0.3076    5.6727    2.8088 C   0  0  0  0  0  0  0  0  0  0  0  0
    0.4462    6.6093    3.3699 H   0  0  0  0  0  0  0  0  0  0  0  0
    0.5851    4.4398    3.4198 C   0  0  0  0  0  0  0  0  0  0  0  0
    0.9485    4.4073    4.4579 H   0  0  0  0  0  0  0  0  0  0  0  0
    0.4137    3.2418    2.7110 C   0  0  0  0  0  0  0  0  0  0  0  0
    0.6725    2.2820    3.1764 H   0  0  0  0  0  0  0  0  0  0  0  0
   -1.4974    2.0636   -0.8414 C   0  0  0  0  0  0  0  0  0  0  0  0
   -1.2953    1.8068   -2.2096 C   0  0  0  0  0  0  0  0  0  0  0  0
   -0.3497    1.3871   -2.5780 H   0  0  0  0  0  0  0  0  0  0  0  0
   -2.3438    2.0158   -3.1191 C   0  0  0  0  0  0  0  0  0  0  0  0
   -2.1803    1.7874   -4.1825 H   0  0  0  0  0  0  0  0  0  0  0  0
   -3.5876    2.4787   -2.6702 C   0  0  0  0  0  0  0  0  0  0  0  0
   -4.4094    2.6338   -3.3857 H   0  0  0  0  0  0  0  0  0  0  0  0
   -3.7939    2.7299   -1.3021 C   0  0  0  0  0  0  0  0  0  0  0  0
   -4.7740    3.0777   -0.9440 H   0  0  0  0  0  0  0  0  0  0  0  0
   -2.7545    2.5245   -0.3888 C   0  0  0  0  0  0  0  0  0  0  0  0
   -2.9210    2.7238    0.6809 H   0  0  0  0  0  0  0  0  0  0  0  0
   -0.8542    0.4592    1.5355 C   0  0  0  0  0  0  0  0  0  0  0  0
   -1.7093    0.8594    2.1160 H   0  0  0  0  0  0  0  0  0  0  0  0
   -0.0053    0.2380    2.2139 H   0  0  0  0  0  0  0  0  0  0  0  0
   -1.3097   -2.3275    2.0008 C   0  0  0  0  0  0  0  0  0  0  0  0
   -2.4397   -3.1182    2.2931 C   0  0  0  0  0  0  0  0  0  0  0  0
   -3.3727   -2.9821    1.7269 H   0  0  0  0  0  0  0  0  0  0  0  0
   -2.3741   -4.0851    3.3085 C   0  0  0  0  0  0  0  0  0  0  0  0
   -3.2613   -4.6965    3.5335 H   0  0  0  0  0  0  0  0  0  0  0  0
   -1.1859   -4.2733    4.0310 C   0  0  0  0  0  0  0  0  0  0  0  0
   -1.1382   -5.0326    4.8262 H   0  0  0  0  0  0  0  0  0  0  0  0
   -0.0527   -3.5018    3.7247 C   0  0  0  0  0  0  0  0  0  0  0  0
    0.8904   -3.6612    4.2688 H   0  0  0  0  0  0  0  0  0  0  0  0
   -0.1041   -2.5386    2.7084 C   0  0  0  0  0  0  0  0  0  0  0  0
    0.8082   -1.9824    2.4379 H   0  0  0  0  0  0  0  0  0  0  0  0
   -3.0108   -0.8582    0.0908 C   0  0  0  0  0  0  0  0  0  0  0  0
   -3.2935   -0.9965   -1.2836 C   0  0  0  0  0  0  0  0  0  0  0  0
   -2.4845   -1.2478   -1.9902 H   0  0  0  0  0  0  0  0  0  0  0  0
   -4.5991   -0.7768   -1.7516 C   0  0  0  0  0  0  0  0  0  0  0  0
   -4.8129   -0.8769   -2.8263 H   0  0  0  0  0  0  0  0  0  0  0  0
   -5.6215   -0.4248   -0.8581 C   0  0  0  0  0  0  0  0  0  0  0  0
   -6.6438   -0.2553   -1.2294 H   0  0  0  0  0  0  0  0  0  0  0  0
   -5.3417   -0.2837    0.5123 C   0  0  0  0  0  0  0  0  0  0  0  0
   -6.1429   -0.0070    1.2146 H   0  0  0  0  0  0  0  0  0  0  0  0
   -4.0406   -0.4968    0.9870 C   0  0  0  0  0  0  0  0  0  0  0  0
   -3.8262   -0.3899    2.0621 H   0  0  0  0  0  0  0  0  0  0  0  0
  1 18  1  0  0  0  0
  1 40  1  0  0  0  0
  2 40  1  0  0  0  0
  2 43  1  0  0  0  0
  4  1  1  0  0  0  0
  4  6  1  0  0  0  0
  5  4  1  0  0  0  0
  6  3  2  0  0  0  0
  7  6  1  0  0  0  0
  7 16  1  0  0  0  0
  8  7  2  0  0  0  0
  9  8  1  0  0  0  0
 10  8  1  0  0  0  0
 10 12  2  0  0  0  0
 11 10  1  0  0  0  0
 12 14  1  0  0  0  0
 13 12  1  0  0  0  0
 14 16  2  0  0  0  0
 14 15  1  0  0  0  0
 16 17  1  0  0  0  0
 18 27  1  0  0  0  0
 19 18  2  0  0  0  0
 19 21  1  0  0  0  0
 20 19  1  0  0  0  0
 21 23  2  0  0  0  0
 22 21  1  0  0  0  0
 23 24  1  0  0  0  0
 23 25  1  0  0  0  0
 25 26  1  0  0  0  0
 27 28  1  0  0  0  0
 27 25  2  0  0  0  0
 29 38  1  0  0  0  0
 29  1  1  0  0  0  0
 30 29  2  0  0  0  0
 31 30  1  0  0  0  0
 32 34  2  0  0  0  0
 32 30  1  0  0  0  0
 33 32  1  0  0  0  0
 34 36  1  0  0  0  0
 35 34  1  0  0  0  0
 36 37  1  0  0  0  0
 36 38  2  0  0  0  0
 38 39  1  0  0  0  0
 40 41  1  0  0  0  0
 40 42  1  0  0  0  0
 43 44  2  0  0  0  0
 43 52  1  0  0  0  0
 44 46  1  0  0  0  0
 45 44  1  0  0  0  0
 46 47  1  0  0  0  0
 46 48  2  0  0  0  0
 48 49  1  0  0  0  0
 50 48  1  0  0  0  0
 50 51  1  0  0  0  0
 52 50  2  0  0  0  0
 53 52  1  0  0  0  0
 54  2  1  0  0  0  0
 54 63  1  0  0  0  0
 55 54  2  0  0  0  0
 56 55  1  0  0  0  0
 57 55  1  0  0  0  0
 57 59  2  0  0  0  0
 58 57  1  0  0  0  0
 59 61  1  0  0  0  0
 60 59  1  0  0  0  0
 61 63  2  0  0  0  0
 61 62  1  0  0  0  0
 63 64  1  0  0  0  0
M  END
