1
q = 0.0, confidence = 0.994

 63 66  0  0  1  0  0  0  0  0999 V2000
    0.5007    0.1491    0.3804 P   0  0  0  0  0  0  0  0  0  0  0  0
   -1.0243    0.5047   -1.2102 P   0  0  2  0  0  0  0  0  0  0  0  0
   -2.3160    0.2598    1.4457 P   0  0  1  0  0  0  0  0  0  0  0  0
   -3.8913   -0.8946   -1.0485 P   0  0  2  0  0  0  0  0  0  0  0  0
   -4.2422    0.7888   -1.0749 N   0  0  0  0  0  0  0  0  0  0  0  0
   -2.1529    1.4288   -0.0142 C   0  0  2  0  0  0  0  0  0  0  0  0
   -3.4733    1.7365   -0.6396 C   0  0  0  0  0  0  0  0  0  0  0  0
   -2.6006   -1.2792    0.3408 C   0  0  1  0  0  0  0  0  0  0  0  0
   -1.9594   -1.1401   -1.0370 C   0  0  2  0  0  0  0  0  0  0  0  0
   -0.4883    0.1657    1.7777 C   0  0  0  0  0  0  0  0  0  0  0  0
   -1.3851   -2.2210   -2.0368 C   0  0  0  0  0  0  0  0  0  0  0  0
   -0.7132   -1.5132   -3.2382 C   0  0  0  0  0  0  0  0  0  0  0  0
   -0.3170   -3.0891   -1.3408 C   0  0  0  0  0  0  0  0  0  0  0  0
   -2.4689   -3.1176   -2.6781 C   0  0  0  0  0  0  0  0  0  0  0  0
   -2.8867   -2.5438    1.2284 C   0  0  0  0  0  0  0  0  0  0  0  0
   -1.6108   -2.9792    1.9786 C   0  0  0  0  0  0  0  0  0  0  0  0
   -3.4275   -3.7656    0.4610 C   0  0  0  0  0  0  0  0  0  0  0  0
   -3.9778   -2.1758    2.2620 C   0  0  0  0  0  0  0  0  0  0  0  0
    0.0082    0.3225    3.2272 C   0  0  0  0  0  0  0  0  0  0  0  0
    0.2746    1.8406    3.4182 C   0  0  0  0  0  0  0  0  0  0  0  0
   -1.0385   -0.0962    4.2833 C   0  0  0  0  0  0  0  0  0  0  0  0
    1.3034   -0.4691    3.4792 C   0  0  0  0  0  0  0  0  0  0  0  0
   -3.9139    3.1998   -0.7621 C   0  0  0  0  0  0  0  0  0  0  0  0
   -2.8763    3.9584   -1.6212 C   0  0  0  0  0  0  0  0  0  0  0  0
   -5.2950    3.2835   -1.4264 C   0  0  0  0  0  0  0  0  0  0  0  0
   -3.9802    3.8194    0.6527 C   0  0  0  0  0  0  0  0  0  0  0  0
   -1.6152    2.3303    0.3361 H   0  0  0  0  0  0  0  0  0  0  0  0
   -4.3061    4.8773    0.5843 H   0  0  0  0  0  0  0  0  0  0  0  0
   -4.7049    3.2763    1.2919 H   0  0  0  0  0  0  0  0  0  0  0  0
   -2.9968    3.8075    1.1649 H   0  0  0  0  0  0  0  0  0  0  0  0
   -5.2789    2.8306   -2.4361 H   0  0  0  0  0  0  0  0  0  0  0  0
   -6.0544    2.7349   -0.8371 H   0  0  0  0  0  0  0  0  0  0  0  0
   -5.6083    4.3433   -1.5150 H   0  0  0  0  0  0  0  0  0  0  0  0
   -4.2416   -3.0693    2.8628 H   0  0  0  0  0  0  0  0  0  0  0  0
   -3.6506   -1.3810    2.9597 H   0  0  0  0  0  0  0  0  0  0  0  0
   -4.8957   -1.8186    1.7515 H   0  0  0  0  0  0  0  0  0  0  0  0
   -2.6646   -4.2345   -0.1842 H   0  0  0  0  0  0  0  0  0  0  0  0
   -3.7451   -4.5331    1.1948 H   0  0  0  0  0  0  0  0  0  0  0  0
   -4.3112   -3.5064   -0.1555 H   0  0  0  0  0  0  0  0  0  0  0  0
   -1.2231   -2.1728    2.6252 H   0  0  0  0  0  0  0  0  0  0  0  0
   -1.8311   -3.8543    2.6242 H   0  0  0  0  0  0  0  0  0  0  0  0
   -0.7970   -3.2578    1.2857 H   0  0  0  0  0  0  0  0  0  0  0  0
   -1.9732   -3.8972   -3.2918 H   0  0  0  0  0  0  0  0  0  0  0  0
   -3.1183   -3.6271   -1.9499 H   0  0  0  0  0  0  0  0  0  0  0  0
   -3.1214   -2.5227   -3.3462 H   0  0  0  0  0  0  0  0  0  0  0  0
   -1.4134   -0.8143   -3.7381 H   0  0  0  0  0  0  0  0  0  0  0  0
    0.1891   -0.9390   -2.9532 H   0  0  0  0  0  0  0  0  0  0  0  0
   -0.3970   -2.2750   -3.9792 H   0  0  0  0  0  0  0  0  0  0  0  0
    0.4072   -2.4670   -0.7760 H   0  0  0  0  0  0  0  0  0  0  0  0
   -0.7641   -3.8110   -0.6336 H   0  0  0  0  0  0  0  0  0  0  0  0
    0.2544   -3.6680   -2.0941 H   0  0  0  0  0  0  0  0  0  0  0  0
   -1.8616    3.9379   -1.1750 H   0  0  0  0  0  0  0  0  0  0  0  0
   -2.8087    3.5249   -2.6392 H   0  0  0  0  0  0  0  0  0  0  0  0
   -3.1755    5.0219   -1.7198 H   0  0  0  0  0  0  0  0  0  0  0  0
   -0.6375    0.1213    5.2937 H   0  0  0  0  0  0  0  0  0  0  0  0
   -1.9897    0.4584    4.1644 H   0  0  0  0  0  0  0  0  0  0  0  0
   -1.2655   -1.1790    4.2454 H   0  0  0  0  0  0  0  0  0  0  0  0
    2.1269   -0.1183    2.8314 H   0  0  0  0  0  0  0  0  0  0  0  0
    1.6291   -0.3427    4.5313 H   0  0  0  0  0  0  0  0  0  0  0  0
    1.1567   -1.5507    3.2879 H   0  0  0  0  0  0  0  0  0  0  0  0
   -0.6496    2.4283    3.2416 H   0  0  0  0  0  0  0  0  0  0  0  0
    0.6133    2.0387    4.4565 H   0  0  0  0  0  0  0  0  0  0  0  0
    1.0534    2.2032    2.7211 H   0  0  0  0  0  0  0  0  0  0  0  0
  1 10  2  0  0  0  0
  2  9  1  0  0  0  0
  2  6  1  0  0  0  0
  2  1  1  1  0  0  0
  3 10  1  6  0  0  0
  4  5  1  1  0  0  0
  4  9  1  0  0  0  0
  4  8  1  0  0  0  0
  5  7  2  0  0  0  0
  6 27  1  1  0  0  0
  6  3  1  0  0  0  0
  7  6  1  0  0  0  0
  8 15  1  1  0  0  0
  8  3  1  0  0  0  0
  9 11  1  6  0  0  0
  9  8  1  0  0  0  0
 10 19  1  0  0  0  0
 11 13  1  0  0  0  0
 12 47  1  0  0  0  0
 12 11  1  0  0  0  0
 13 49  1  0  0  0  0
 13 50  1  0  0  0  0
 14 11  1  0  0  0  0
 14 44  1  0  0  0  0
 15 16  1  0  0  0  0
 15 18  1  0  0  0  0
 16 41  1  0  0  0  0
 16 40  1  0  0  0  0
 17 38  1  0  0  0  0
 17 15  1  0  0  0  0
 18 34  1  0  0  0  0
 18 35  1  0  0  0  0
 19 20  1  0  0  0  0
 19 22  1  0  0  0  0
 19 21  1  0  0  0  0
 20 62  1  0  0  0  0
 21 55  1  0  0  0  0
 22 59  1  0  0  0  0
 23  7  1  0  0  0  0
 23 26  1  0  0  0  0
 24 52  1  0  0  0  0
 24 23  1  0  0  0  0
 25 32  1  0  0  0  0
 25 23  1  0  0  0  0
 26 30  1  0  0  0  0
 26 29  1  0  0  0  0
 28 26  1  0  0  0  0
 31 25  1  0  0  0  0
 33 25  1  0  0  0  0
 36 18  1  0  0  0  0
 37 17  1  0  0  0  0
 39 17  1  0  0  0  0
 42 16  1  0  0  0  0
 43 14  1  0  0  0  0
 45 14  1  0  0  0  0
 46 12  1  0  0  0  0
 48 12  1  0  0  0  0
 51 13  1  0  0  0  0
 53 24  1  0  0  0  0
 54 24  1  0  0  0  0
 56 21  1  0  0  0  0
 57 21  1  0  0  0  0
 58 22  1  0  0  0  0
 60 22  1  0  0  0  0
 61 20  1  0  0  0  0
 63 20  1  0  0  0  0
M  END
