1
q = 0.0, confidence = 0.994

 61 61  0  0  1  0  0  0  0  0999 V2000
    0.5026   -0.0019    0.2003 P   0  0  1  0  0  0  0  0  0  0  0  0
    1.8757   -2.5530    1.5097 Si  0  0  0  0  0  0  0  0  0  0  0  0
    2.6603   -1.5711   -1.5286 Si  0  0  0  0  0  0  0  0  0  0  0  0
    3.4656    1.4810    0.7519 O   0  0  0  0  0  0  0  0  0  0  0  0
    2.8819    2.7584   -1.0174 O   0  0  0  0  0  0  0  0  0  0  0  0
   -1.4147    1.9051    2.3204 O   0  0  0  0  0  0  0  0  0  0  0  0
    0.0906    1.1497    3.8345 O   0  0  0  0  0  0  0  0  0  0  0  0
    0.1765    2.7759   -0.2667 N   0  0  0  0  0  0  0  0  0  0  0  0
    1.9506   -1.1277    0.2134 C   0  0  0  0  0  0  0  0  0  0  0  0
    2.7705   -0.5056    0.6426 H   0  0  0  0  0  0  0  0  0  0  0  0
    0.8086    1.1675    1.6276 C   0  0  1  0  0  0  0  0  0  0  0  0
    1.7430    0.9223    2.1552 H   0  0  0  0  0  0  0  0  0  0  0  0
    1.0977    1.8441    0.2762 C   0  0  1  0  0  0  0  0  0  0  0  0
    2.5939    1.9979    0.0629 C   0  0  0  0  0  0  0  0  0  0  0  0
    4.2766    2.9388   -1.3015 C   0  0  0  0  0  0  0  0  0  0  0  0
    4.3254    3.6928   -2.1066 H   0  0  0  0  0  0  0  0  0  0  0  0
    4.7295    1.9860   -1.6426 H   0  0  0  0  0  0  0  0  0  0  0  0
    4.8198    3.2871   -0.4014 H   0  0  0  0  0  0  0  0  0  0  0  0
   -0.3007    1.4821    2.5739 C   0  0  0  0  0  0  0  0  0  0  0  0
   -0.9316    1.2500    4.8353 C   0  0  0  0  0  0  0  0  0  0  0  0
   -1.3589    2.2719    4.8642 H   0  0  0  0  0  0  0  0  0  0  0  0
   -0.4421    1.0039    5.7940 H   0  0  0  0  0  0  0  0  0  0  0  0
   -1.7497    0.5318    4.6242 H   0  0  0  0  0  0  0  0  0  0  0  0
   -0.0184    4.0244    0.4782 C   0  0  0  0  0  0  0  0  0  0  0  0
   -0.0278    3.7772    1.5555 H   0  0  0  0  0  0  0  0  0  0  0  0
   -1.0440    4.3886    0.2602 H   0  0  0  0  0  0  0  0  0  0  0  0
    1.0022    5.1369    0.2104 C   0  0  0  0  0  0  0  0  0  0  0  0
    1.0335    5.4232   -0.8603 H   0  0  0  0  0  0  0  0  0  0  0  0
    2.0281    4.8402    0.5070 H   0  0  0  0  0  0  0  0  0  0  0  0
    0.7328    6.0431    0.7903 H   0  0  0  0  0  0  0  0  0  0  0  0
    0.1019    2.8628   -1.7307 C   0  0  0  0  0  0  0  0  0  0  0  0
    0.1524    1.8219   -2.1053 H   0  0  0  0  0  0  0  0  0  0  0  0
    0.9898    3.3813   -2.1590 H   0  0  0  0  0  0  0  0  0  0  0  0
   -1.1601    3.5380   -2.2592 C   0  0  0  0  0  0  0  0  0  0  0  0
   -2.0825    3.0784   -1.8607 H   0  0  0  0  0  0  0  0  0  0  0  0
   -1.1816    3.4439   -3.3628 H   0  0  0  0  0  0  0  0  0  0  0  0
   -1.1899    4.6204   -2.0217 H   0  0  0  0  0  0  0  0  0  0  0  0
    2.0008   -0.3739   -2.8360 C   0  0  0  0  0  0  0  0  0  0  0  0
    2.5043   -0.5746   -3.8045 H   0  0  0  0  0  0  0  0  0  0  0  0
    2.1924    0.6837   -2.5663 H   0  0  0  0  0  0  0  0  0  0  0  0
    0.9116   -0.4950   -2.9964 H   0  0  0  0  0  0  0  0  0  0  0  0
    4.5361   -1.3347   -1.3917 C   0  0  0  0  0  0  0  0  0  0  0  0
    5.0141   -1.4397   -2.3877 H   0  0  0  0  0  0  0  0  0  0  0  0
    4.9943   -2.0828   -0.7150 H   0  0  0  0  0  0  0  0  0  0  0  0
    4.7764   -0.3294   -0.9893 H   0  0  0  0  0  0  0  0  0  0  0  0
    2.2969   -3.3391   -2.0854 C   0  0  0  0  0  0  0  0  0  0  0  0
    1.2134   -3.5277   -2.2079 H   0  0  0  0  0  0  0  0  0  0  0  0
    2.6998   -4.0915   -1.3788 H   0  0  0  0  0  0  0  0  0  0  0  0
    2.7850   -3.5096   -3.0676 H   0  0  0  0  0  0  0  0  0  0  0  0
    3.6003   -3.3413    1.5435 C   0  0  0  0  0  0  0  0  0  0  0  0
    4.3864   -2.5840    1.7402 H   0  0  0  0  0  0  0  0  0  0  0  0
    3.8533   -3.8640    0.5997 H   0  0  0  0  0  0  0  0  0  0  0  0
    3.6410   -4.0906    2.3612 H   0  0  0  0  0  0  0  0  0  0  0  0
    0.5884   -3.8881    1.1675 C   0  0  0  0  0  0  0  0  0  0  0  0
    0.7185   -4.6947    1.9190 H   0  0  0  0  0  0  0  0  0  0  0  0
    0.6844   -4.3377    0.1617 H   0  0  0  0  0  0  0  0  0  0  0  0
   -0.4429   -3.4996    1.2723 H   0  0  0  0  0  0  0  0  0  0  0  0
    1.5388   -1.8343    3.2253 C   0  0  0  0  0  0  0  0  0  0  0  0
    0.5383   -1.3673    3.3014 H   0  0  0  0  0  0  0  0  0  0  0  0
    2.2904   -1.0729    3.5159 H   0  0  0  0  0  0  0  0  0  0  0  0
    1.5833   -2.6549    3.9717 H   0  0  0  0  0  0  0  0  0  0  0  0
  1  9  1  1  0  0  0
  1 13  1  0  0  0  0
  1 11  1  0  0  0  0
  2 50  1  0  0  0  0
  2 58  1  0  0  0  0
  3 42  1  0  0  0  0
  3  9  1  0  0  0  0
  5 14  1  0  0  0  0
  6 19  2  0  0  0  0
  7 20  1  0  0  0  0
  8 13  1  0  0  0  0
  8 24  1  0  0  0  0
  9 10  1  0  0  0  0
  9  2  1  0  0  0  0
 11 12  1  1  0  0  0
 11 19  1  0  0  0  0
 13 14  1  6  0  0  0
 13 11  1  0  0  0  0
 14  4  2  0  0  0  0
 15  5  1  0  0  0  0
 15 18  1  0  0  0  0
 16 15  1  0  0  0  0
 17 15  1  0  0  0  0
 19  7  1  0  0  0  0
 20 21  1  0  0  0  0
 20 22  1  0  0  0  0
 23 20  1  0  0  0  0
 24 25  1  0  0  0  0
 26 24  1  0  0  0  0
 27 24  1  0  0  0  0
 27 29  1  0  0  0  0
 27 30  1  0  0  0  0
 28 27  1  0  0  0  0
 31  8  1  0  0  0  0
 32 31  1  0  0  0  0
 33 31  1  0  0  0  0
 34 37  1  0  0  0  0
 34 35  1  0  0  0  0
 34 31  1  0  0  0  0
 36 34  1  0  0  0  0
 38 40  1  0  0  0  0
 38  3  1  0  0  0  0
 39 38  1  0  0  0  0
 41 38  1  0  0  0  0
 42 45  1  0  0  0  0
 42 44  1  0  0  0  0
 43 42  1  0  0  0  0
 46  3  1  0  0  0  0
 46 48  1  0  0  0  0
 47 46  1  0  0  0  0
 49 46  1  0  0  0  0
 50 51  1  0  0  0  0
 50 53  1  0  0  0  0
 52 50  1  0  0  0  0
 54 57  1  0  0  0  0
 54  2  1  0  0  0  0
 54 55  1  0  0  0  0
 56 54  1  0  0  0  0
 58 59  1  0  0  0  0
 58 60  1  0  0  0  0
 58 61  1  0  0  0  0
M  END
