1
q = 0.0, confidence = 0.95

 55 55  0  0  0  0  0  0  0  0999 V2000
   -0.2219    0.2497   -0.0832 P   0  0  1  0  0  0  0  0  0  0  0  0
   -2.9569   -2.1381   -1.2631 N   0  0  0  0  0  0  0  0  0  0  0  0
   -2.2123    2.0152    1.7152 Si  0  0  0  0  0  0  0  0  0  0  0  0
   -0.6194    3.2818   -0.8256 Si  0  0  0  0  0  0  0  0  0  0  0  0
   -0.3478   -1.6305    2.4513 O   0  0  0  0  0  0  0  0  0  0  0  0
   -2.4841   -2.3438    2.1904 O   0  0  0  0  0  0  0  0  0  0  0  0
   -1.6082    0.3221   -2.6463 O   0  0  0  0  0  0  0  0  0  0  0  0
   -0.6707    1.9191    0.5645 C   0  0  0  0  0  0  0  0  0  0  0  0
    0.1913    2.1898    1.2161 H   0  0  0  0  0  0  0  0  0  0  0  0
   -2.3468    3.5994   -1.5358 C   0  0  0  0  0  0  0  0  0  0  0  0
   -3.0957    3.9116   -0.7829 H   0  0  0  0  0  0  0  0  0  0  0  0
   -2.7213    2.6949   -2.0562 H   0  0  0  0  0  0  0  0  0  0  0  0
   -2.2720    4.4074   -2.2930 H   0  0  0  0  0  0  0  0  0  0  0  0
    0.1008    4.8402   -0.0311 C   0  0  0  0  0  0  0  0  0  0  0  0
    0.1404    5.6564   -0.7820 H   0  0  0  0  0  0  0  0  0  0  0  0
    1.1399    4.6430    0.3039 H   0  0  0  0  0  0  0  0  0  0  0  0
   -0.4843    5.2012    0.8358 H   0  0  0  0  0  0  0  0  0  0  0  0
    0.4752    2.8279   -2.2978 C   0  0  0  0  0  0  0  0  0  0  0  0
    0.4291    3.6761   -3.0136 H   0  0  0  0  0  0  0  0  0  0  0  0
    0.1058    1.9274   -2.8247 H   0  0  0  0  0  0  0  0  0  0  0  0
    1.5361    2.6802   -2.0260 H   0  0  0  0  0  0  0  0  0  0  0  0
   -2.5068    3.8249    2.2029 C   0  0  0  0  0  0  0  0  0  0  0  0
   -3.3594    3.8615    2.9130 H   0  0  0  0  0  0  0  0  0  0  0  0
   -2.7521    4.4842    1.3481 H   0  0  0  0  0  0  0  0  0  0  0  0
   -1.6229    4.2479    2.7225 H   0  0  0  0  0  0  0  0  0  0  0  0
   -3.7773    1.3250    0.8974 C   0  0  0  0  0  0  0  0  0  0  0  0
   -3.7923    0.2183    0.9331 H   0  0  0  0  0  0  0  0  0  0  0  0
   -3.8790    1.6433   -0.1585 H   0  0  0  0  0  0  0  0  0  0  0  0
   -4.6685    1.6926    1.4475 H   0  0  0  0  0  0  0  0  0  0  0  0
   -1.8729    1.0781    3.3348 C   0  0  0  0  0  0  0  0  0  0  0  0
   -2.3977    0.1030    3.3578 H   0  0  0  0  0  0  0  0  0  0  0  0
   -2.2425    1.6737    4.1944 H   0  0  0  0  0  0  0  0  0  0  0  0
   -0.7914    0.8930    3.4882 H   0  0  0  0  0  0  0  0  0  0  0  0
   -1.3969   -1.0804    0.4535 C   0  0  0  0  0  0  0  0  0  0  0  0
   -1.5001   -1.7564    1.7438 C   0  0  0  0  0  0  0  0  0  0  0  0
   -0.3414   -2.2304    3.7513 C   0  0  0  0  0  0  0  0  0  0  0  0
   -1.1307   -1.7872    4.3911 H   0  0  0  0  0  0  0  0  0  0  0  0
    0.6585   -2.0219    4.1694 H   0  0  0  0  0  0  0  0  0  0  0  0
   -0.5193   -3.3219    3.6783 H   0  0  0  0  0  0  0  0  0  0  0  0
   -2.0667   -1.2562   -0.7720 C   0  0  0  0  0  0  0  0  0  0  0  0
   -3.3877   -3.3183   -0.5008 C   0  0  0  0  0  0  0  0  0  0  0  0
   -4.3969   -3.5944   -0.8683 H   0  0  0  0  0  0  0  0  0  0  0  0
   -3.4781   -3.0368    0.5664 H   0  0  0  0  0  0  0  0  0  0  0  0
   -2.4106   -4.4847   -0.6540 C   0  0  0  0  0  0  0  0  0  0  0  0
   -2.3204   -4.8116   -1.7102 H   0  0  0  0  0  0  0  0  0  0  0  0
   -2.7584   -5.3499   -0.0553 H   0  0  0  0  0  0  0  0  0  0  0  0
   -1.3990   -4.2079   -0.2957 H   0  0  0  0  0  0  0  0  0  0  0  0
   -3.5056   -1.9870   -2.6212 C   0  0  0  0  0  0  0  0  0  0  0  0
   -3.6566   -3.0088   -3.0256 H   0  0  0  0  0  0  0  0  0  0  0  0
   -2.7576   -1.4845   -3.2601 H   0  0  0  0  0  0  0  0  0  0  0  0
   -4.8128   -1.1957   -2.6328 C   0  0  0  0  0  0  0  0  0  0  0  0
   -5.5818   -1.6633   -1.9850 H   0  0  0  0  0  0  0  0  0  0  0  0
   -5.2194   -1.1395   -3.6624 H   0  0  0  0  0  0  0  0  0  0  0  0
   -4.6420   -0.1608   -2.2751 H   0  0  0  0  0  0  0  0  0  0  0  0
   -1.4142   -0.1340   -1.5398 C   0  0  0  0  0  0  0  0  0  0  0  0
  1 34  1  0  0  0  0
  1  8  1  1  0  0  0
  2 40  1  0  0  0  0
  2 41  1  0  0  0  0
  3 22  1  0  0  0  0
  3 30  1  0  0  0  0
  4 14  1  0  0  0  0
  4  8  1  0  0  0  0
  5 36  1  0  0  0  0
  7 55  2  0  0  0  0
  8  9  1  0  0  0  0
  8  3  1  0  0  0  0
 10  4  1  0  0  0  0
 10 11  1  0  0  0  0
 12 10  1  0  0  0  0
 13 10  1  0  0  0  0
 14 16  1  0  0  0  0
 14 17  1  0  0  0  0
 15 14  1  0  0  0  0
 18 21  1  0  0  0  0
 18  4  1  0  0  0  0
 19 18  1  0  0  0  0
 20 18  1  0  0  0  0
 22 25  1  0  0  0  0
 22 23  1  0  0  0  0
 24 22  1  0  0  0  0
 26 27  1  0  0  0  0
 26 29  1  0  0  0  0
 26  3  1  0  0  0  0
 28 26  1  0  0  0  0
 30 31  1  0  0  0  0
 30 33  1  0  0  0  0
 30 32  1  0  0  0  0
 34 35  1  0  0  0  0
 35  6  2  0  0  0  0
 35  5  1  0  0  0  0
 36 38  1  0  0  0  0
 36 37  1  0  0  0  0
 39 36  1  0  0  0  0
 40 34  2  0  0  0  0
 41 43  1  0  0  0  0
 42 41  1  0  0  0  0
 44 41  1  0  0  0  0
 44 47  1  0  0  0  0
 44 46  1  0  0  0  0
 45 44  1  0  0  0  0
 48  2  1  0  0  0  0
 49 48  1  0  0  0  0
 50 48  1  0  0  0  0
 51 48  1  0  0  0  0
 51 54  1  0  0  0  0
 51 52  1  0  0  0  0
 53 51  1  0  0  0  0
 55 40  1  0  0  0  0
 55  1  1  0  0  0  0
M  END
