1
q = 0.0, confidence = 0.994

 61 62  0  0  1  0  0  0  0  0999 V2000
    0.4089    0.0992   -0.0710 P   0  0  1  0  0  0  0  0  0  0  0  0
    1.7272   -2.3560   -1.5722 Si  0  0  0  0  0  0  0  0  0  0  0  0
    1.9719   -2.0389    1.6879 Si  0  0  0  0  0  0  0  0  0  0  0  0
   -0.9787    2.8623    0.8111 O   0  0  0  0  0  0  0  0  0  0  0  0
    0.3837    2.7571    2.6184 O   0  0  0  0  0  0  0  0  0  0  0  0
   -0.6891    1.9703   -2.4872 O   0  0  0  0  0  0  0  0  0  0  0  0
    0.3158    3.7602   -1.5199 O   0  0  0  0  0  0  0  0  0  0  0  0
    1.7218   -1.1814   -0.0364 C   0  0  0  0  0  0  0  0  0  0  0  0
    2.6806   -0.6300   -0.1683 H   0  0  0  0  0  0  0  0  0  0  0  0
    3.4609   -3.1276   -1.5857 C   0  0  0  0  0  0  0  0  0  0  0  0
    3.6451   -3.7724   -0.7032 H   0  0  0  0  0  0  0  0  0  0  0  0
    4.2440   -2.3411   -1.6026 H   0  0  0  0  0  0  0  0  0  0  0  0
    3.5902   -3.7542   -2.4923 H   0  0  0  0  0  0  0  0  0  0  0  0
    0.4300   -3.7265   -1.5665 C   0  0  0  0  0  0  0  0  0  0  0  0
   -0.5953   -3.3264   -1.6744 H   0  0  0  0  0  0  0  0  0  0  0  0
    0.4590   -4.3598   -0.6621 H   0  0  0  0  0  0  0  0  0  0  0  0
    0.6269   -4.3744   -2.4465 H   0  0  0  0  0  0  0  0  0  0  0  0
    1.5082   -1.3842   -3.1868 C   0  0  0  0  0  0  0  0  0  0  0  0
    1.2151   -2.0905   -3.9906 H   0  0  0  0  0  0  0  0  0  0  0  0
    2.4537   -0.8987   -3.5026 H   0  0  0  0  0  0  0  0  0  0  0  0
    0.7169   -0.6101   -3.1290 H   0  0  0  0  0  0  0  0  0  0  0  0
    1.6224   -3.8970    1.7335 C   0  0  0  0  0  0  0  0  0  0  0  0
    1.9063   -4.2595    2.7440 H   0  0  0  0  0  0  0  0  0  0  0  0
    2.2271   -4.4635    0.9981 H   0  0  0  0  0  0  0  0  0  0  0  0
    0.5545   -4.1374    1.5785 H   0  0  0  0  0  0  0  0  0  0  0  0
    3.8125   -1.8487    2.0980 C   0  0  0  0  0  0  0  0  0  0  0  0
    4.1178   -0.7901    2.1953 H   0  0  0  0  0  0  0  0  0  0  0  0
    4.4394   -2.3075    1.3061 H   0  0  0  0  0  0  0  0  0  0  0  0
    4.0448   -2.3622    3.0537 H   0  0  0  0  0  0  0  0  0  0  0  0
    0.9064   -1.2223    3.0235 C   0  0  0  0  0  0  0  0  0  0  0  0
    1.2555   -1.5564    4.0225 H   0  0  0  0  0  0  0  0  0  0  0  0
   -0.1527   -1.5294    2.9202 H   0  0  0  0  0  0  0  0  0  0  0  0
    0.9322   -0.1147    3.0054 H   0  0  0  0  0  0  0  0  0  0  0  0
    1.1622    1.7423    0.6381 C   0  0  1  0  0  0  0  0  0  0  0  0
    2.5210    1.7729    1.3268 C   0  0  0  0  0  0  0  0  0  0  0  0
    2.6097    2.7551    1.8409 H   0  0  0  0  0  0  0  0  0  0  0  0
    2.5342    1.0426    2.1657 H   0  0  0  0  0  0  0  0  0  0  0  0
    3.7589    1.5722    0.4888 C   0  0  0  0  0  0  0  0  0  0  0  0
    3.7136    1.4511   -0.8618 C   0  0  0  0  0  0  0  0  0  0  0  0
    2.4335    1.6150   -1.6424 C   0  0  0  0  0  0  0  0  0  0  0  0
    2.3793    0.8650   -2.4555 H   0  0  0  0  0  0  0  0  0  0  0  0
    2.5127    2.5958   -2.1658 H   0  0  0  0  0  0  0  0  0  0  0  0
    1.1017    1.6229   -0.8852 C   0  0  1  0  0  0  0  0  0  0  0  0
    0.0772    2.5177    1.3190 C   0  0  0  0  0  0  0  0  0  0  0  0
   -0.6210    3.4440    3.3806 C   0  0  0  0  0  0  0  0  0  0  0  0
   -0.9642    4.3519    2.8473 H   0  0  0  0  0  0  0  0  0  0  0  0
   -0.1432    3.7096    4.3402 H   0  0  0  0  0  0  0  0  0  0  0  0
   -1.4892    2.7791    3.5552 H   0  0  0  0  0  0  0  0  0  0  0  0
    0.1044    2.4390   -1.6928 C   0  0  0  0  0  0  0  0  0  0  0  0
   -0.6092    4.6198   -2.2030 C   0  0  0  0  0  0  0  0  0  0  0  0
   -0.5952    4.4284   -3.2943 H   0  0  0  0  0  0  0  0  0  0  0  0
   -0.2853    5.6524   -1.9834 H   0  0  0  0  0  0  0  0  0  0  0  0
   -1.6351    4.4446   -1.8228 H   0  0  0  0  0  0  0  0  0  0  0  0
    4.9122    1.2498   -1.7510 C   0  0  0  0  0  0  0  0  0  0  0  0
    5.0179    2.0916   -2.4698 H   0  0  0  0  0  0  0  0  0  0  0  0
    4.7867    0.3335   -2.3689 H   0  0  0  0  0  0  0  0  0  0  0  0
    5.8640    1.1597   -1.1985 H   0  0  0  0  0  0  0  0  0  0  0  0
    5.0321    1.6175    1.2953 C   0  0  0  0  0  0  0  0  0  0  0  0
    5.9070    1.1993    0.7660 H   0  0  0  0  0  0  0  0  0  0  0  0
    4.9244    1.0710    2.2550 H   0  0  0  0  0  0  0  0  0  0  0  0
    5.2761    2.6683    1.5675 H   0  0  0  0  0  0  0  0  0  0  0  0
  1  8  1  6  0  0  0
  1 34  1  0  0  0  0
  2 14  1  0  0  0  0
  2  8  1  0  0  0  0
  3 22  1  0  0  0  0
  3 26  1  0  0  0  0
  3 30  1  0  0  0  0
  4 44  2  0  0  0  0
  5 45  1  0  0  0  0
  6 49  2  0  0  0  0
  8  3  1  0  0  0  0
  9  8  1  0  0  0  0
 10  2  1  0  0  0  0
 10 11  1  0  0  0  0
 12 10  1  0  0  0  0
 13 10  1  0  0  0  0
 14 16  1  0  0  0  0
 15 14  1  0  0  0  0
 17 14  1  0  0  0  0
 18 21  1  0  0  0  0
 18  2  1  0  0  0  0
 19 18  1  0  0  0  0
 20 18  1  0  0  0  0
 22 23  1  0  0  0  0
 24 22  1  0  0  0  0
 25 22  1  0  0  0  0
 26 27  1  0  0  0  0
 26 29  1  0  0  0  0
 28 26  1  0  0  0  0
 30 31  1  0  0  0  0
 32 30  1  0  0  0  0
 33 30  1  0  0  0  0
 34 44  1  1  0  0  0
 34 35  1  0  0  0  0
 35 36  1  0  0  0  0
 35 37  1  0  0  0  0
 38 58  1  0  0  0  0
 38 35  1  0  0  0  0
 39 38  2  0  0  0  0
 40 43  1  0  0  0  0
 40 39  1  0  0  0  0
 41 40  1  0  0  0  0
 42 40  1  0  0  0  0
 43 49  1  6  0  0  0
 43  1  1  0  0  0  0
 43 34  1  0  0  0  0
 44  5  1  0  0  0  0
 45 48  1  0  0  0  0
 45 47  1  0  0  0  0
 46 45  1  0  0  0  0
 49  7  1  0  0  0  0
 50 52  1  0  0  0  0
 50 53  1  0  0  0  0
 50  7  1  0  0  0  0
 51 50  1  0  0  0  0
 54 57  1  0  0  0  0
 54 39  1  0  0  0  0
 55 54  1  0  0  0  0
 56 54  1  0  0  0  0
 58 61  1  0  0  0  0
 58 60  1  0  0  0  0
 59 58  1  0  0  0  0
M  END
