1
q = -1.0, confidence = 0.284

 56 58  0  0  1  0  0  0  0  0999 V2000
    0.0230    0.6538    0.2829 P   0  0  0  0  0  0  0  0  0  0  0  0
    0.1094   -2.1491    0.4728 N   0  0  0  0  0  0  0  0  0  0  0  0
    1.9388   -1.4552   -0.5249 N   0  0  0  0  0  0  0  0  0  0  0  0
    0.7824   -1.0383    0.0567 C   0  0  1  0  0  3  0  0  0  0  0  0
    0.8528   -3.2830    0.1574 C   0  0  0  0  0  0  0  0  0  0  0  0
    2.0092   -2.8470   -0.4695 C   0  0  0  0  0  0  0  0  0  0  0  0
   -1.2784   -2.1274    1.0307 C   0  0  0  0  0  0  0  0  0  0  0  0
   -1.5282   -1.0533    1.1456 H   0  0  0  0  0  0  0  0  0  0  0  0
   -1.3636   -2.7531    2.4210 C   0  0  0  0  0  0  0  0  0  0  0  0
   -0.5883   -2.3435    3.0972 H   0  0  0  0  0  0  0  0  0  0  0  0
   -1.2904   -3.8577    2.4083 H   0  0  0  0  0  0  0  0  0  0  0  0
   -2.3508   -2.4904    2.8483 H   0  0  0  0  0  0  0  0  0  0  0  0
   -2.2876   -2.6736    0.0194 C   0  0  0  0  0  0  0  0  0  0  0  0
   -2.2679   -3.7786   -0.0615 H   0  0  0  0  0  0  0  0  0  0  0  0
   -2.1255   -2.2212   -0.9789 H   0  0  0  0  0  0  0  0  0  0  0  0
   -3.2987   -2.3617    0.3449 H   0  0  0  0  0  0  0  0  0  0  0  0
    0.4502   -4.6841    0.4733 C   0  0  0  0  0  0  0  0  0  0  0  0
    1.1439   -5.3918   -0.0154 H   0  0  0  0  0  0  0  0  0  0  0  0
   -0.5693   -4.9124    0.1097 H   0  0  0  0  0  0  0  0  0  0  0  0
    0.4708   -4.8873    1.5629 H   0  0  0  0  0  0  0  0  0  0  0  0
    3.1285   -3.6742   -1.0084 C   0  0  0  0  0  0  0  0  0  0  0  0
    4.1202   -3.2541   -0.7552 H   0  0  0  0  0  0  0  0  0  0  0  0
    3.0776   -3.7752   -2.1114 H   0  0  0  0  0  0  0  0  0  0  0  0
    3.0798   -4.6910   -0.5774 H   0  0  0  0  0  0  0  0  0  0  0  0
    2.9122   -0.5441   -1.1821 C   0  0  0  0  0  0  0  0  0  0  0  0
    2.3752    0.4177   -1.2196 H   0  0  0  0  0  0  0  0  0  0  0  0
    3.1836   -0.9315   -2.6360 C   0  0  0  0  0  0  0  0  0  0  0  0
    2.2276   -1.1292   -3.1578 H   0  0  0  0  0  0  0  0  0  0  0  0
    3.8630   -1.7979   -2.7414 H   0  0  0  0  0  0  0  0  0  0  0  0
    3.6650   -0.0693   -3.1375 H   0  0  0  0  0  0  0  0  0  0  0  0
    4.1661   -0.3660   -0.3261 C   0  0  0  0  0  0  0  0  0  0  0  0
    4.7783   -1.2886   -0.2712 H   0  0  0  0  0  0  0  0  0  0  0  0
    3.9046   -0.0557    0.7041 H   0  0  0  0  0  0  0  0  0  0  0  0
    4.7959    0.4315   -0.7662 H   0  0  0  0  0  0  0  0  0  0  0  0
    0.0181    0.7265    2.1276 C   0  0  0  0  0  0  0  0  0  0  0  0
   -0.8662    1.6343    2.7458 C   0  0  0  0  0  0  0  0  0  0  0  0
   -1.5907    2.1888    2.1318 H   0  0  0  0  0  0  0  0  0  0  0  0
   -0.8492    1.7811    4.1412 C   0  0  0  0  0  0  0  0  0  0  0  0
   -1.5481    2.4845    4.6182 H   0  0  0  0  0  0  0  0  0  0  0  0
    0.0401    1.0306    4.9260 C   0  0  0  0  0  0  0  0  0  0  0  0
    0.0444    1.1474    6.0204 H   0  0  0  0  0  0  0  0  0  0  0  0
    0.9241    0.1280    4.3133 C   0  0  0  0  0  0  0  0  0  0  0  0
    1.6268   -0.4606    4.9227 H   0  0  0  0  0  0  0  0  0  0  0  0
    0.9150   -0.0234    2.9180 C   0  0  0  0  0  0  0  0  0  0  0  0
    1.6168   -0.7296    2.4471 H   0  0  0  0  0  0  0  0  0  0  0  0
    1.2683    1.9686   -0.1019 C   0  0  0  0  0  0  0  0  0  0  0  0
    2.2709    2.3310    0.8240 C   0  0  0  0  0  0  0  0  0  0  0  0
    2.3602    1.7991    1.7822 H   0  0  0  0  0  0  0  0  0  0  0  0
    3.1480    3.3857    0.5325 C   0  0  0  0  0  0  0  0  0  0  0  0
    3.9287    3.6596    1.2582 H   0  0  0  0  0  0  0  0  0  0  0  0
    3.0189    4.0987   -0.6702 C   0  0  0  0  0  0  0  0  0  0  0  0
    3.7036    4.9312   -0.8931 H   0  0  0  0  0  0  0  0  0  0  0  0
    2.0028    3.7599   -1.5782 C   0  0  0  0  0  0  0  0  0  0  0  0
    1.8842    4.3266   -2.5139 H   0  0  0  0  0  0  0  0  0  0  0  0
    1.1236    2.7038   -1.2991 C   0  0  0  0  0  0  0  0  0  0  0  0
    0.3397    2.4166   -2.0160 H   0  0  0  0  0  0  0  0  0  0  0  0
  1 35  1  0  0  0  0
  2  7  1  0  0  0  0
  3  6  1  0  0  0  0
  3  4  1  0  0  0  0
  4  1  1  6  0  0  0
  4  2  1  0  0  0  0
  5  2  1  0  0  0  0
  5 17  1  0  0  0  0
  6  5  2  0  0  0  0
  7  8  1  0  0  0  0
  7  9  1  0  0  0  0
  9 12  1  0  0  0  0
  9 10  1  0  0  0  0
 11  9  1  0  0  0  0
 13 16  1  0  0  0  0
 13  7  1  0  0  0  0
 14 13  1  0  0  0  0
 15 13  1  0  0  0  0
 17 20  1  0  0  0  0
 18 17  1  0  0  0  0
 19 17  1  0  0  0  0
 21 22  1  0  0  0  0
 21 24  1  0  0  0  0
 21  6  1  0  0  0  0
 23 21  1  0  0  0  0
 25  3  1  0  0  0  0
 25 31  1  0  0  0  0
 26 25  1  0  0  0  0
 27 25  1  0  0  0  0
 28 27  1  0  0  0  0
 29 27  1  0  0  0  0
 30 27  1  0  0  0  0
 31 32  1  0  0  0  0
 31 33  1  0  0  0  0
 34 31  1  0  0  0  0
 35 36  2  0  0  0  0
 35 44  1  0  0  0  0
 36 38  1  0  0  0  0
 37 36  1  0  0  0  0
 38 39  1  0  0  0  0
 38 40  2  0  0  0  0
 40 41  1  0  0  0  0
 42 43  1  0  0  0  0
 42 40  1  0  0  0  0
 44 42  2  0  0  0  0
 45 44  1  0  0  0  0
 46  1  1  0  0  0  0
 46 47  1  0  0  0  0
 47 48  1  0  0  0  0
 49 47  2  0  0  0  0
 49 50  1  0  0  0  0
 51 49  1  0  0  0  0
 52 51  1  0  0  0  0
 53 55  1  0  0  0  0
 53 51  2  0  0  0  0
 54 53  1  0  0  0  0
 55 46  2  0  0  0  0
 56 55  1  0  0  0  0
M  END
