75
q = 0.0, confidence = 1.0

 75 76  0  0  0  0  0  0  0  0999 V2000
    3.1459   -1.3009    1.0606 C   0  0  0  0  0  0  0  0  0  0  0  0
    2.7210   -0.8866    2.4794 C   0  0  0  0  0  0  0  0  0  0  0  0
    1.6389   -1.0480    2.6387 H   0  0  0  0  0  0  0  0  0  0  0  0
    2.9543    0.1726    2.7009 H   0  0  0  0  0  0  0  0  0  0  0  0
    3.2633   -1.5179    3.2147 H   0  0  0  0  0  0  0  0  0  0  0  0
    2.8110   -2.7963    0.8752 C   0  0  0  0  0  0  0  0  0  0  0  0
    3.0866   -3.1729   -0.1274 H   0  0  0  0  0  0  0  0  0  0  0  0
    1.7295   -2.9909    1.0204 H   0  0  0  0  0  0  0  0  0  0  0  0
    3.3782   -3.3864    1.6262 H   0  0  0  0  0  0  0  0  0  0  0  0
    4.6632   -1.1122    0.9037 C   0  0  0  0  0  0  0  0  0  0  0  0
    5.1745   -1.7339    1.6694 H   0  0  0  0  0  0  0  0  0  0  0  0
    4.9920   -0.0689    1.0697 H   0  0  0  0  0  0  0  0  0  0  0  0
    5.0332   -1.4461   -0.0841 H   0  0  0  0  0  0  0  0  0  0  0  0
    2.8696   -0.1957   -1.8966 C   0  0  0  0  0  0  0  0  0  0  0  0
    1.8054    0.4402   -2.8067 C   0  0  0  0  0  0  0  0  0  0  0  0
    1.5666    1.4723   -2.4877 H   0  0  0  0  0  0  0  0  0  0  0  0
    0.8660   -0.1488   -2.8046 H   0  0  0  0  0  0  0  0  0  0  0  0
    2.1903    0.4875   -3.8474 H   0  0  0  0  0  0  0  0  0  0  0  0
    4.1396    0.6647   -1.9659 C   0  0  0  0  0  0  0  0  0  0  0  0
    4.9561    0.2945   -1.3197 H   0  0  0  0  0  0  0  0  0  0  0  0
    3.9344    1.7211   -1.7072 H   0  0  0  0  0  0  0  0  0  0  0  0
    4.5157    0.6514   -3.0112 H   0  0  0  0  0  0  0  0  0  0  0  0
    3.1553   -1.6256   -2.3892 C   0  0  0  0  0  0  0  0  0  0  0  0
    3.4461   -1.5866   -3.4603 H   0  0  0  0  0  0  0  0  0  0  0  0
    2.2546   -2.2674   -2.3018 H   0  0  0  0  0  0  0  0  0  0  0  0
    3.9865   -2.1076   -1.8389 H   0  0  0  0  0  0  0  0  0  0  0  0
    1.9364    1.4171    0.4634 C   0  0  0  0  0  0  0  0  0  0  0  0
    3.1465    2.0816    0.7777 C   0  0  0  0  0  0  0  0  0  0  0  0
    4.1021    1.5714    0.6058 H   0  0  0  0  0  0  0  0  0  0  0  0
    3.1715    3.3739    1.3143 C   0  0  0  0  0  0  0  0  0  0  0  0
    4.1344    3.8534    1.5462 H   0  0  0  0  0  0  0  0  0  0  0  0
    1.9625    4.0391    1.5572 C   0  0  0  0  0  0  0  0  0  0  0  0
    1.9567    5.0521    1.9872 H   0  0  0  0  0  0  0  0  0  0  0  0
    0.7559    3.3999    1.2530 C   0  0  0  0  0  0  0  0  0  0  0  0
   -0.1977    3.9111    1.4522 H   0  0  0  0  0  0  0  0  0  0  0  0
    0.7025    2.0976    0.7013 C   0  0  0  0  0  0  0  0  0  0  0  0
   -0.6744    1.5509    0.4417 C   0  0  0  0  0  0  0  0  0  0  0  0
   -1.3683    1.8815   -0.7529 C   0  0  0  0  0  0  0  0  0  0  0  0
   -2.6711    1.3814   -0.9461 C   0  0  0  0  0  0  0  0  0  0  0  0
   -3.1883    1.6160   -1.8867 H   0  0  0  0  0  0  0  0  0  0  0  0
   -3.3211    0.5937    0.0153 C   0  0  0  0  0  0  0  0  0  0  0  0
   -2.6400    0.3383    1.2176 C   0  0  0  0  0  0  0  0  0  0  0  0
   -3.1357   -0.2763    1.9830 H   0  0  0  0  0  0  0  0  0  0  0  0
   -1.3357    0.7975    1.4535 C   0  0  0  0  0  0  0  0  0  0  0  0
   -0.6836    0.5379    2.8063 C   0  0  0  0  0  0  0  0  0  0  0  0
    0.4059    0.7007    2.6826 H   0  0  0  0  0  0  0  0  0  0  0  0
   -0.8867   -0.8984    3.3097 C   0  0  0  0  0  0  0  0  0  0  0  0
   -0.2738   -1.0826    4.2158 H   0  0  0  0  0  0  0  0  0  0  0  0
   -0.6155   -1.6421    2.5334 H   0  0  0  0  0  0  0  0  0  0  0  0
   -1.9426   -1.0946    3.5849 H   0  0  0  0  0  0  0  0  0  0  0  0
   -1.1766    1.5642    3.8429 C   0  0  0  0  0  0  0  0  0  0  0  0
   -2.2734    1.4772    3.9886 H   0  0  0  0  0  0  0  0  0  0  0  0
   -0.9621    2.6026    3.5205 H   0  0  0  0  0  0  0  0  0  0  0  0
   -0.6865    1.4018    4.8254 H   0  0  0  0  0  0  0  0  0  0  0  0
   -0.7703    2.8172   -1.7999 C   0  0  0  0  0  0  0  0  0  0  0  0
    0.3306    2.8166   -1.6548 H   0  0  0  0  0  0  0  0  0  0  0  0
   -1.0596    2.3835   -3.2456 C   0  0  0  0  0  0  0  0  0  0  0  0
   -2.1249    2.5402   -3.5122 H   0  0  0  0  0  0  0  0  0  0  0  0
   -0.8283    1.3137   -3.4091 H   0  0  0  0  0  0  0  0  0  0  0  0
   -0.4576    2.9833   -3.9583 H   0  0  0  0  0  0  0  0  0  0  0  0
   -1.2556    4.2624   -1.5754 C   0  0  0  0  0  0  0  0  0  0  0  0
   -2.3602    4.3194   -1.6661 H   0  0  0  0  0  0  0  0  0  0  0  0
   -0.8142    4.9496   -2.3269 H   0  0  0  0  0  0  0  0  0  0  0  0
   -0.9826    4.6361   -0.5698 H   0  0  0  0  0  0  0  0  0  0  0  0
   -4.7188    0.0193   -0.1796 C   0  0  0  0  0  0  0  0  0  0  0  0
   -4.6628   -1.0299    0.1891 H   0  0  0  0  0  0  0  0  0  0  0  0
   -5.7412    0.7710    0.6932 C   0  0  0  0  0  0  0  0  0  0  0  0
   -5.8289    1.8292    0.3685 H   0  0  0  0  0  0  0  0  0  0  0  0
   -5.4423    0.7727    1.7603 H   0  0  0  0  0  0  0  0  0  0  0  0
   -6.7457    0.3054    0.6200 H   0  0  0  0  0  0  0  0  0  0  0  0
   -5.1790   -0.0258   -1.6400 C   0  0  0  0  0  0  0  0  0  0  0  0
   -6.1501   -0.5538   -1.7223 H   0  0  0  0  0  0  0  0  0  0  0  0
   -4.4489   -0.5560   -2.2843 H   0  0  0  0  0  0  0  0  0  0  0  0
   -5.3251    0.9927   -2.0576 H   0  0  0  0  0  0  0  0  0  0  0  0
    2.0278   -0.3265   -0.1768 P   0  0  0  0  0  0  0  0  0  0  0  0
  1  2  1  0  0  0  0
  2  3  1  0  0  0  0
  2  4  1  0  0  0  0
  2  5  1  0  0  0  0
  6  8  1  0  0  0  0
  6  1  1  0  0  0  0
  6  9  1  0  0  0  0
  7  6  1  0  0  0  0
 10  1  1  0  0  0  0
 10 12  1  0  0  0  0
 10 11  1  0  0  0  0
 13 10  1  0  0  0  0
 14 75  1  0  0  0  0
 15 17  1  0  0  0  0
 15 16  1  0  0  0  0
 15 14  1  0  0  0  0
 18 15  1  0  0  0  0
 19 14  1  0  0  0  0
 19 21  1  0  0  0  0
 19 20  1  0  0  0  0
 22 19  1  0  0  0  0
 23 25  1  0  0  0  0
 23 14  1  0  0  0  0
 23 26  1  0  0  0  0
 24 23  1  0  0  0  0
 27 36  2  0  0  0  0
 27 28  1  0  0  0  0
 28 30  2  0  0  0  0
 29 28  1  0  0  0  0
 30 31  1  0  0  0  0
 30 32  1  0  0  0  0
 32 33  1  0  0  0  0
 34 35  1  0  0  0  0
 34 32  2  0  0  0  0
 36 34  1  0  0  0  0
 37 36  1  0  0  0  0
 37 44  1  0  0  0  0
 38 37  2  0  0  0  0
 39 38  1  0  0  0  0
 39 41  2  0  0  0  0
 40 39  1  0  0  0  0
 41 42  1  0  0  0  0
 42 44  2  0  0  0  0
 42 43  1  0  0  0  0
 44 45  1  0  0  0  0
 45 47  1  0  0  0  0
 45 51  1  0  0  0  0
 46 45  1  0  0  0  0
 47 50  1  0  0  0  0
 47 48  1  0  0  0  0
 49 47  1  0  0  0  0
 51 52  1  0  0  0  0
 51 54  1  0  0  0  0
 53 51  1  0  0  0  0
 55 56  1  0  0  0  0
 55 61  1  0  0  0  0
 55 38  1  0  0  0  0
 57 55  1  0  0  0  0
 58 57  1  0  0  0  0
 59 57  1  0  0  0  0
 60 57  1  0  0  0  0
 61 64  1  0  0  0  0
 62 61  1  0  0  0  0
 63 61  1  0  0  0  0
 65 41  1  0  0  0  0
 65 66  1  0  0  0  0
 65 67  1  0  0  0  0
 67 69  1  0  0  0  0
 68 67  1  0  0  0  0
 70 67  1  0  0  0  0
 71 65  1  0  0  0  0
 72 71  1  0  0  0  0
 73 71  1  0  0  0  0
 74 71  1  0  0  0  0
 75 27  1  0  0  0  0
 75  1  1  0  0  0  0
M  END
