2
q = 0.0, confidence = 0.978

 24 26  0  0  0  0  0  0  0  0999 V2000
    6.4735   -0.7361   -0.0000 Br  0  0  0  0  0  0  0  0  0  0  0  0
   -0.7558    1.0064    0.0000 P   0  0  0  0  0  0  0  0  0  0  0  0
    0.7753    3.1087    0.0001 O   0  0  0  0  0  0  0  0  0  0  0  0
    2.3310   -0.2523    0.0002 C   0  0  0  0  0  0  0  0  0  0  0  0
    1.4536   -0.9134    0.0004 H   0  0  0  0  0  0  0  0  0  0  0  0
    3.6075   -0.8167    0.0002 C   0  0  0  0  0  0  0  0  0  0  0  0
    3.7317   -1.9084    0.0003 H   0  0  0  0  0  0  0  0  0  0  0  0
    4.7348    0.0245    0.0000 C   0  0  0  0  0  0  0  0  0  0  0  0
    4.5861    1.4219   -0.0002 C   0  0  0  0  0  0  0  0  0  0  0  0
    5.4739    2.0697   -0.0003 H   0  0  0  0  0  0  0  0  0  0  0  0
    3.3041    1.9789   -0.0001 C   0  0  0  0  0  0  0  0  0  0  0  0
    3.1843    3.0708   -0.0003 H   0  0  0  0  0  0  0  0  0  0  0  0
    2.1518    1.1533    0.0001 C   0  0  0  0  0  0  0  0  0  0  0  0
    0.8216    1.7384    0.0001 C   0  0  0  0  0  0  0  0  0  0  0  0
   -0.4991    3.6008    0.0000 C   0  0  0  0  0  0  0  0  0  0  0  0
   -0.7776    4.9738    0.0000 C   0  0  0  0  0  0  0  0  0  0  0  0
    0.0403    5.7078    0.0001 H   0  0  0  0  0  0  0  0  0  0  0  0
   -2.1242    5.3559   -0.0000 C   0  0  0  0  0  0  0  0  0  0  0  0
   -2.3794    6.4259   -0.0000 H   0  0  0  0  0  0  0  0  0  0  0  0
   -3.1597    4.3918   -0.0000 C   0  0  0  0  0  0  0  0  0  0  0  0
   -4.2082    4.7240   -0.0001 H   0  0  0  0  0  0  0  0  0  0  0  0
   -2.8686    3.0248   -0.0000 C   0  0  0  0  0  0  0  0  0  0  0  0
   -3.6730    2.2745   -0.0001 H   0  0  0  0  0  0  0  0  0  0  0  0
   -1.5168    2.6173    0.0000 C   0  0  0  0  0  0  0  0  0  0  0  0
  1  8  1  0  0  0  0
  2 14  2  0  0  0  0
  4  5  1  0  0  0  0
  6  4  1  0  0  0  0
  6  7  1  0  0  0  0
  8  6  2  0  0  0  0
  9 11  2  0  0  0  0
  9  8  1  0  0  0  0
 10  9  1  0  0  0  0
 11 13  1  0  0  0  0
 12 11  1  0  0  0  0
 13 14  1  0  0  0  0
 13  4  2  0  0  0  0
 14  3  1  0  0  0  0
 15  3  1  0  0  0  0
 16 15  1  0  0  0  0
 16 17  1  0  0  0  0
 18 16  2  0  0  0  0
 19 18  1  0  0  0  0
 20 22  2  0  0  0  0
 20 18  1  0  0  0  0
 21 20  1  0  0  0  0
 22 24  1  0  0  0  0
 23 22  1  0  0  0  0
 24  2  1  0  0  0  0
 24 15  2  0  0  0  0
M  END
