1
q = -1.0

 21 22  0  0  0  0  0  0  0  0999 V2000
   -1.8531    1.4153   -0.6137 P   0  0  0  0  0  0  0  0  0  0  0  0
   -2.3475    2.2366    0.7579 N   0  0  0  0  0  2  0  0  0  0  0  0
   -3.5458    1.6296    1.6156 P   0  0  0  0  0  4  0  0  0  0  0  0
   -4.5935    0.5849    0.9499 N   0  0  0  0  0  2  0  0  0  0  0  0
   -4.4317    0.2745   -0.6354 P   0  0  0  0  0  4  0  0  0  0  0  0
   -3.0907    0.6248   -1.4139 N   0  0  0  0  0  2  0  0  0  0  0  0
   -4.6058    3.2190    2.3970 Cl  0  0  0  0  0  0  0  0  0  0  0  0
   -2.8889    0.7447    3.3630 Cl  0  0  0  0  0  0  0  0  0  0  0  0
   -6.0441    1.1364   -1.6264 Cl  0  0  0  0  0  0  0  0  0  0  0  0
   -4.9208   -1.7122   -0.8861 Cl  0  0  0  0  0  0  0  0  0  0  0  0
   -1.2904    2.6987   -1.7709 C   0  0  0  0  0  0  0  0  0  0  0  0
   -1.1213    2.3597   -3.1266 C   0  0  0  0  0  0  0  0  0  0  0  0
   -1.4075    1.3549   -3.4732 H   0  0  0  0  0  0  0  0  0  0  0  0
   -0.5703    3.2987   -4.0084 C   0  0  0  0  0  0  0  0  0  0  0  0
   -0.4294    3.0361   -5.0681 H   0  0  0  0  0  0  0  0  0  0  0  0
   -0.1823    4.5645   -3.5380 C   0  0  0  0  0  0  0  0  0  0  0  0
    0.2696    5.2927   -4.2291 H   0  0  0  0  0  0  0  0  0  0  0  0
   -0.3609    4.9005   -2.1865 C   0  0  0  0  0  0  0  0  0  0  0  0
   -0.0512    5.8903   -1.8179 H   0  0  0  0  0  0  0  0  0  0  0  0
   -0.9212    3.9707   -1.2981 C   0  0  0  0  0  0  0  0  0  0  0  0
   -1.0637    4.2083   -0.2331 H   0  0  0  0  0  0  0  0  0  0  0  0
  1  2  1  0  0  0  0
  2  3  1  0  0  0  0
  3  7  1  0  0  0  0
  3  8  1  0  0  0  0
  4  3  1  0  0  0  0
  5  4  1  0  0  0  0
  6  5  1  0  0  0  0
  6  1  1  0  0  0  0
  9  5  1  0  0  0  0
 10  5  1  0  0  0  0
 11 20  1  0  0  0  0
 11  1  1  0  0  0  0
 12 11  2  0  0  0  0
 13 12  1  0  0  0  0
 14 16  2  0  0  0  0
 14 12  1  0  0  0  0
 15 14  1  0  0  0  0
 16 18  1  0  0  0  0
 17 16  1  0  0  0  0
 18 19  1  0  0  0  0
 18 20  2  0  0  0  0
 20 21  1  0  0  0  0
M  END
