1
q = 0.0, confidence = 0.992

 62 65  0  0  1  0  0  0  0  0999 V2000
    0.3131    0.5655    0.4241 P   0  0  1  0  0  0  0  0  0  0  0  0
   -0.8232   -0.2860    1.4278 N   0  0  0  0  0  0  0  0  0  0  0  0
   -0.8611    1.4009   -0.5402 N   0  0  0  0  0  0  0  0  0  0  0  0
   -3.1074   -0.8348    1.3106 N   0  0  0  0  0  0  0  0  0  0  0  0
   -3.1905    1.3917   -0.8251 N   0  0  0  0  0  0  0  0  0  0  0  0
   -2.0423    0.9517   -0.2055 C   0  0  0  0  0  0  0  0  0  0  0  0
   -2.0079   -0.1090    0.9031 C   0  0  0  0  0  0  0  0  0  0  0  0
    1.0308    1.9333    1.5286 C   0  0  2  0  0  0  0  0  0  0  0  0
    1.9508    2.7409    0.6315 C   0  0  0  0  0  0  0  0  0  0  0  0
    3.2465    2.4679    0.9971 C   0  0  0  0  0  0  0  0  0  0  0  0
    3.2552    1.5079    2.1170 C   0  0  0  0  0  0  0  0  0  0  0  0
    1.9651    1.1960    2.4721 C   0  0  0  0  0  0  0  0  0  0  0  0
   -0.0894    2.7301    2.2025 C   0  0  0  0  0  0  0  0  0  0  0  0
    1.4562    3.6896   -0.4135 C   0  0  0  0  0  0  0  0  0  0  0  0
    4.5018    3.0467    0.4236 C   0  0  0  0  0  0  0  0  0  0  0  0
    4.5225    0.9984    2.7286 C   0  0  0  0  0  0  0  0  0  0  0  0
    1.4905    0.3300    3.5955 C   0  0  0  0  0  0  0  0  0  0  0  0
   -4.3762    1.7230   -0.0186 C   0  0  0  0  0  0  0  0  0  0  0  0
   -5.6539    1.6537   -0.8546 C   0  0  0  0  0  0  0  0  0  0  0  0
   -5.5371    2.5388   -2.1005 C   0  0  0  0  0  0  0  0  0  0  0  0
   -4.2735    2.1804   -2.8905 C   0  0  0  0  0  0  0  0  0  0  0  0
   -3.0210    2.2363   -2.0132 C   0  0  0  0  0  0  0  0  0  0  0  0
   -2.9222   -1.6808    2.4970 C   0  0  0  0  0  0  0  0  0  0  0  0
   -4.2768   -2.0516    3.1039 C   0  0  0  0  0  0  0  0  0  0  0  0
   -5.1977   -2.7133    2.0726 C   0  0  0  0  0  0  0  0  0  0  0  0
   -5.3264   -1.8271    0.8284 C   0  0  0  0  0  0  0  0  0  0  0  0
   -3.9481   -1.4703    0.2757 C   0  0  0  0  0  0  0  0  0  0  0  0
    0.3603    3.4997    2.8622 H   0  0  0  0  0  0  0  0  0  0  0  0
   -0.7332    2.0741    2.8208 H   0  0  0  0  0  0  0  0  0  0  0  0
   -0.7266    3.2397    1.4540 H   0  0  0  0  0  0  0  0  0  0  0  0
    2.2843    4.0596   -1.0476 H   0  0  0  0  0  0  0  0  0  0  0  0
    0.9643    4.5779    0.0433 H   0  0  0  0  0  0  0  0  0  0  0  0
    0.6963    3.2138   -1.0661 H   0  0  0  0  0  0  0  0  0  0  0  0
    4.2994    3.7168   -0.4325 H   0  0  0  0  0  0  0  0  0  0  0  0
    5.1888    2.2512    0.0687 H   0  0  0  0  0  0  0  0  0  0  0  0
    5.0570    3.6299    1.1897 H   0  0  0  0  0  0  0  0  0  0  0  0
    5.1510    1.8304    3.1116 H   0  0  0  0  0  0  0  0  0  0  0  0
    5.1370    0.4604    1.9756 H   0  0  0  0  0  0  0  0  0  0  0  0
    4.3331    0.2982    3.5630 H   0  0  0  0  0  0  0  0  0  0  0  0
    2.3329   -0.1977    4.0810 H   0  0  0  0  0  0  0  0  0  0  0  0
    0.7581   -0.4272    3.2481 H   0  0  0  0  0  0  0  0  0  0  0  0
    0.9742    0.9304    4.3779 H   0  0  0  0  0  0  0  0  0  0  0  0
   -4.2533    2.7617    0.3781 H   0  0  0  0  0  0  0  0  0  0  0  0
   -4.4152    1.0497    0.8570 H   0  0  0  0  0  0  0  0  0  0  0  0
   -6.5146    1.9610   -0.2251 H   0  0  0  0  0  0  0  0  0  0  0  0
   -5.8376    0.5998   -1.1578 H   0  0  0  0  0  0  0  0  0  0  0  0
   -6.4402    2.4423   -2.7376 H   0  0  0  0  0  0  0  0  0  0  0  0
   -5.4846    3.6054   -1.7859 H   0  0  0  0  0  0  0  0  0  0  0  0
   -4.1377    2.8638   -3.7536 H   0  0  0  0  0  0  0  0  0  0  0  0
   -4.3716    1.1541   -3.3065 H   0  0  0  0  0  0  0  0  0  0  0  0
   -2.1254    1.8788   -2.5547 H   0  0  0  0  0  0  0  0  0  0  0  0
   -2.8066    3.2879   -1.7017 H   0  0  0  0  0  0  0  0  0  0  0  0
   -2.2905   -1.1260    3.2153 H   0  0  0  0  0  0  0  0  0  0  0  0
   -2.3472   -2.5953    2.2147 H   0  0  0  0  0  0  0  0  0  0  0  0
   -4.7586   -1.1290    3.4958 H   0  0  0  0  0  0  0  0  0  0  0  0
   -4.1101   -2.7211    3.9726 H   0  0  0  0  0  0  0  0  0  0  0  0
   -4.7684   -3.6959    1.7748 H   0  0  0  0  0  0  0  0  0  0  0  0
   -6.1943   -2.9235    2.5124 H   0  0  0  0  0  0  0  0  0  0  0  0
   -5.9125   -2.3363    0.0355 H   0  0  0  0  0  0  0  0  0  0  0  0
   -5.8741   -0.8935    1.0845 H   0  0  0  0  0  0  0  0  0  0  0  0
   -3.4305   -2.3983   -0.0687 H   0  0  0  0  0  0  0  0  0  0  0  0
   -4.0128   -0.7991   -0.5995 H   0  0  0  0  0  0  0  0  0  0  0  0
  1  3  1  6  0  0  0
  1  2  1  0  0  0  0
  1  8  1  0  0  0  0
  3  6  2  0  0  0  0
  4 23  1  0  0  0  0
  5  6  1  0  0  0  0
  5 18  1  0  0  0  0
  6  7  1  0  0  0  0
  7  4  1  0  0  0  0
  7  2  2  0  0  0  0
  8 13  1  1  0  0  0
  8 12  1  0  0  0  0
  9 10  2  0  0  0  0
  9  8  1  0  0  0  0
 10 11  1  0  0  0  0
 11 12  2  0  0  0  0
 11 16  1  0  0  0  0
 12 17  1  0  0  0  0
 13 29  1  0  0  0  0
 13 28  1  0  0  0  0
 14 32  1  0  0  0  0
 14  9  1  0  0  0  0
 15 10  1  0  0  0  0
 15 36  1  0  0  0  0
 16 37  1  0  0  0  0
 16 39  1  0  0  0  0
 17 40  1  0  0  0  0
 17 42  1  0  0  0  0
 18 43  1  0  0  0  0
 18 44  1  0  0  0  0
 19 45  1  0  0  0  0
 19 18  1  0  0  0  0
 20 48  1  0  0  0  0
 20 19  1  0  0  0  0
 21 20  1  0  0  0  0
 21 22  1  0  0  0  0
 22 52  1  0  0  0  0
 22  5  1  0  0  0  0
 23 24  1  0  0  0  0
 23 53  1  0  0  0  0
 24 55  1  0  0  0  0
 24 56  1  0  0  0  0
 25 58  1  0  0  0  0
 25 24  1  0  0  0  0
 26 60  1  0  0  0  0
 26 25  1  0  0  0  0
 27 26  1  0  0  0  0
 27  4  1  0  0  0  0
 30 13  1  0  0  0  0
 31 14  1  0  0  0  0
 33 14  1  0  0  0  0
 34 15  1  0  0  0  0
 35 15  1  0  0  0  0
 38 16  1  0  0  0  0
 41 17  1  0  0  0  0
 46 19  1  0  0  0  0
 47 20  1  0  0  0  0
 49 21  1  0  0  0  0
 50 21  1  0  0  0  0
 51 22  1  0  0  0  0
 54 23  1  0  0  0  0
 57 25  1  0  0  0  0
 59 26  1  0  0  0  0
 61 27  1  0  0  0  0
 62 27  1  0  0  0  0
M  END
