1
q = 0.0, confidence = 0.988

 29 29  0  0  1  0  0  0  0  0999 V2000
   -2.3763   -0.0039   -0.0453 P   0  0  1  0  0  0  0  0  0  0  0  0
   -3.1118   -0.9792   -1.4784 C   0  0  0  0  0  0  0  0  0  0  0  0
   -4.1053   -0.5081   -1.6538 H   0  0  0  0  0  0  0  0  0  0  0  0
   -2.2235   -0.7716   -2.7136 C   0  0  0  0  0  0  0  0  0  0  0  0
   -1.2360   -1.2486   -2.5492 H   0  0  0  0  0  0  0  0  0  0  0  0
   -2.0471    0.2990   -2.9349 H   0  0  0  0  0  0  0  0  0  0  0  0
   -2.6928   -1.2354   -3.6062 H   0  0  0  0  0  0  0  0  0  0  0  0
   -3.3150   -2.4698   -1.1863 C   0  0  0  0  0  0  0  0  0  0  0  0
   -3.7308   -2.9661   -2.0880 H   0  0  0  0  0  0  0  0  0  0  0  0
   -4.0263   -2.6510   -0.3564 H   0  0  0  0  0  0  0  0  0  0  0  0
   -2.3516   -2.9530   -0.9321 H   0  0  0  0  0  0  0  0  0  0  0  0
   -3.2534    1.6558   -0.0878 C   0  0  2  0  0  0  0  0  0  0  0  0
   -2.5523    2.3029    0.4832 H   0  0  0  0  0  0  0  0  0  0  0  0
   -4.5166    1.4272    0.7562 C   0  0  0  0  0  0  0  0  0  0  0  0
   -4.9931    2.3944    1.0235 H   0  0  0  0  0  0  0  0  0  0  0  0
   -5.2707    0.8503    0.1735 H   0  0  0  0  0  0  0  0  0  0  0  0
   -4.0780    0.6367    1.9921 C   0  0  0  0  0  0  0  0  0  0  0  0
   -4.9339    0.3110    2.6191 H   0  0  0  0  0  0  0  0  0  0  0  0
   -3.4397    1.2863    2.6301 H   0  0  0  0  0  0  0  0  0  0  0  0
   -3.2478   -0.5810    1.5291 C   0  0  2  0  0  0  0  0  0  0  0  0
   -3.9459   -1.3783    1.1978 H   0  0  0  0  0  0  0  0  0  0  0  0
   -3.4598    2.2916   -1.4578 C   0  0  0  0  0  0  0  0  0  0  0  0
   -4.0879    1.6686   -2.1272 H   0  0  0  0  0  0  0  0  0  0  0  0
   -2.4871    2.4808   -1.9522 H   0  0  0  0  0  0  0  0  0  0  0  0
   -3.9715    3.2699   -1.3437 H   0  0  0  0  0  0  0  0  0  0  0  0
   -2.3043   -1.1445    2.5901 C   0  0  0  0  0  0  0  0  0  0  0  0
   -1.5604   -0.3800    2.8973 H   0  0  0  0  0  0  0  0  0  0  0  0
   -1.7397   -2.0173    2.2090 H   0  0  0  0  0  0  0  0  0  0  0  0
   -2.8757   -1.4497    3.4916 H   0  0  0  0  0  0  0  0  0  0  0  0
  1  2  1  6  0  0  0
  1 20  1  0  0  0  0
  2  8  1  0  0  0  0
  3  2  1  0  0  0  0
  4  5  1  0  0  0  0
  4  2  1  0  0  0  0
  6  4  1  0  0  0  0
  7  4  1  0  0  0  0
  8 11  1  0  0  0  0
  8 10  1  0  0  0  0
  9  8  1  0  0  0  0
 12  1  1  0  0  0  0
 12 13  1  1  0  0  0
 12 14  1  0  0  0  0
 14 15  1  0  0  0  0
 14 17  1  0  0  0  0
 16 14  1  0  0  0  0
 17 18  1  0  0  0  0
 17 19  1  0  0  0  0
 20 21  1  6  0  0  0
 20 17  1  0  0  0  0
 20 26  1  0  0  0  0
 22 25  1  0  0  0  0
 22 12  1  0  0  0  0
 23 22  1  0  0  0  0
 24 22  1  0  0  0  0
 26 27  1  0  0  0  0
 26 29  1  0  0  0  0
 28 26  1  0  0  0  0
M  END
