2
q = -1.0

 68 72  0  0  0  0  0  0  0  0999 V2000
    0.3129   -0.8053    1.8152 P   0  0  0  0  0  4  0  0  0  0  0  0
   -0.0277    0.8869   -0.5908 P   0  0  0  0  0  0  0  0  0  0  0  0
   -0.7467    0.0597    0.8100 N   0  0  0  0  0  0  0  0  0  0  0  0
    0.3760    2.5550    0.0251 C   0  0  0  0  0  0  0  0  0  0  0  0
    1.5759    3.1446   -0.4208 C   0  0  0  0  0  0  0  0  0  0  0  0
    2.2265    2.5969   -1.1216 H   0  0  0  0  0  0  0  0  0  0  0  0
    1.9485    4.4132    0.0480 C   0  0  0  0  0  0  0  0  0  0  0  0
    2.8873    4.8681   -0.3007 H   0  0  0  0  0  0  0  0  0  0  0  0
    1.1309    5.0933    0.9637 C   0  0  0  0  0  0  0  0  0  0  0  0
    1.4257    6.0874    1.3318 H   0  0  0  0  0  0  0  0  0  0  0  0
   -0.0643    4.5059    1.4139 C   0  0  0  0  0  0  0  0  0  0  0  0
   -0.7049    5.0393    2.1321 H   0  0  0  0  0  0  0  0  0  0  0  0
   -0.4433    3.2390    0.9498 C   0  0  0  0  0  0  0  0  0  0  0  0
   -1.3724    2.7824    1.3226 H   0  0  0  0  0  0  0  0  0  0  0  0
   -1.4292    1.0353   -1.7478 C   0  0  0  0  0  0  0  0  0  0  0  0
   -1.6793   -0.0522   -2.6147 C   0  0  0  0  0  0  0  0  0  0  0  0
   -1.0098   -0.9274   -2.6016 H   0  0  0  0  0  0  0  0  0  0  0  0
   -2.7544    0.0008   -3.5113 C   0  0  0  0  0  0  0  0  0  0  0  0
   -2.9451   -0.8460   -4.1868 H   0  0  0  0  0  0  0  0  0  0  0  0
   -3.5724    1.1426   -3.5606 C   0  0  0  0  0  0  0  0  0  0  0  0
   -4.4102    1.1866   -4.2724 H   0  0  0  0  0  0  0  0  0  0  0  0
   -3.3092    2.2359   -2.7197 C   0  0  0  0  0  0  0  0  0  0  0  0
   -3.9365    3.1379   -2.7731 H   0  0  0  0  0  0  0  0  0  0  0  0
   -2.2385    2.1887   -1.8140 C   0  0  0  0  0  0  0  0  0  0  0  0
   -2.0269    3.0552   -1.1705 H   0  0  0  0  0  0  0  0  0  0  0  0
    1.7900    0.1897    2.1299 C   0  0  0  0  0  0  0  0  0  0  0  0
    1.6289    1.3966    2.8477 C   0  0  0  0  0  0  0  0  0  0  0  0
    0.6468    1.6905    3.2464 H   0  0  0  0  0  0  0  0  0  0  0  0
    2.7254    2.2466    3.0306 C   0  0  0  0  0  0  0  0  0  0  0  0
    2.5970    3.1897    3.5811 H   0  0  0  0  0  0  0  0  0  0  0  0
    3.9792    1.8995    2.4989 C   0  0  0  0  0  0  0  0  0  0  0  0
    4.8376    2.5736    2.6376 H   0  0  0  0  0  0  0  0  0  0  0  0
    4.1407    0.6993    1.7894 C   0  0  0  0  0  0  0  0  0  0  0  0
    5.1184    0.4289    1.3650 H   0  0  0  0  0  0  0  0  0  0  0  0
    3.0506   -0.1617    1.5990 C   0  0  0  0  0  0  0  0  0  0  0  0
    3.1857   -1.0858    1.0181 H   0  0  0  0  0  0  0  0  0  0  0  0
    0.7561   -2.4241    1.1506 C   0  0  0  0  0  0  0  0  0  0  0  0
    1.7291   -3.1978    1.8210 C   0  0  0  0  0  0  0  0  0  0  0  0
    2.2191   -2.8250    2.7339 H   0  0  0  0  0  0  0  0  0  0  0  0
    2.0898   -4.4483    1.3026 C   0  0  0  0  0  0  0  0  0  0  0  0
    2.8556   -5.0494    1.8143 H   0  0  0  0  0  0  0  0  0  0  0  0
    1.4828   -4.9278    0.1301 C   0  0  0  0  0  0  0  0  0  0  0  0
    1.7796   -5.9047   -0.2789 H   0  0  0  0  0  0  0  0  0  0  0  0
    0.5023   -4.1654   -0.5231 C   0  0  0  0  0  0  0  0  0  0  0  0
    0.0296   -4.5420   -1.4416 H   0  0  0  0  0  0  0  0  0  0  0  0
    0.1354   -2.9120   -0.0172 C   0  0  0  0  0  0  0  0  0  0  0  0
   -0.6213   -2.3046   -0.5321 H   0  0  0  0  0  0  0  0  0  0  0  0
   -0.5416   -1.0665    3.3970 C   0  0  0  0  0  0  0  0  0  0  0  0
   -0.7946   -0.1029    3.8777 H   0  0  0  0  0  0  0  0  0  0  0  0
    0.1564   -1.6261    4.0494 H   0  0  0  0  0  0  0  0  0  0  0  0
   -1.4548   -1.6716    3.2456 H   0  0  0  0  0  0  0  0  0  0  0  0
   -2.2057    0.1054    1.0737 C   0  0  0  0  0  0  0  0  0  0  0  0
   -2.6090    0.9788    0.5269 H   0  0  0  0  0  0  0  0  0  0  0  0
   -2.3889    0.3169    2.1472 H   0  0  0  0  0  0  0  0  0  0  0  0
   -2.9806   -1.1448    0.6333 C   0  0  0  0  0  0  0  0  0  0  0  0
   -2.7619   -1.3301   -0.4384 H   0  0  0  0  0  0  0  0  0  0  0  0
   -2.6259   -2.0352    1.1947 H   0  0  0  0  0  0  0  0  0  0  0  0
   -4.4648   -0.9468    0.8344 C   0  0  0  0  0  0  0  0  0  0  0  0
   -5.1155   -1.4290    1.9865 C   0  0  0  0  0  0  0  0  0  0  0  0
   -4.5472   -2.0120    2.7300 H   0  0  0  0  0  0  0  0  0  0  0  0
   -6.4836   -1.1907    2.1885 C   0  0  0  0  0  0  0  0  0  0  0  0
   -6.9811   -1.5818    3.0886 H   0  0  0  0  0  0  0  0  0  0  0  0
   -7.2172   -0.4617    1.2397 C   0  0  0  0  0  0  0  0  0  0  0  0
   -8.2908   -0.2782    1.3948 H   0  0  0  0  0  0  0  0  0  0  0  0
   -6.5779    0.0251    0.0879 C   0  0  0  0  0  0  0  0  0  0  0  0
   -7.1508    0.5899   -0.6630 H   0  0  0  0  0  0  0  0  0  0  0  0
   -5.2110   -0.2144   -0.1126 C   0  0  0  0  0  0  0  0  0  0  0  0
   -4.7149    0.1624   -1.0219 H   0  0  0  0  0  0  0  0  0  0  0  0
  1 26  1  0  0  0  0
  1 48  1  0  0  0  0
  2  4  1  0  0  0  0
  2  3  1  0  0  0  0
  3 52  1  0  0  0  0
  3  1  1  0  0  0  0
  4 13  1  0  0  0  0
  5  4  2  0  0  0  0
  5  7  1  0  0  0  0
  6  5  1  0  0  0  0
  7  9  2  0  0  0  0
  8  7  1  0  0  0  0
  9 10  1  0  0  0  0
  9 11  1  0  0  0  0
 11 12  1  0  0  0  0
 13 14  1  0  0  0  0
 13 11  2  0  0  0  0
 15  2  1  0  0  0  0
 16 17  1  0  0  0  0
 16 15  2  0  0  0  0
 18 16  1  0  0  0  0
 19 18  1  0  0  0  0
 20 18  2  0  0  0  0
 20 22  1  0  0  0  0
 21 20  1  0  0  0  0
 22 24  2  0  0  0  0
 23 22  1  0  0  0  0
 24 15  1  0  0  0  0
 24 25  1  0  0  0  0
 26 27  1  0  0  0  0
 27 29  2  0  0  0  0
 27 28  1  0  0  0  0
 29 30  1  0  0  0  0
 31 32  1  0  0  0  0
 31 29  1  0  0  0  0
 33 31  2  0  0  0  0
 34 33  1  0  0  0  0
 35 33  1  0  0  0  0
 35 26  2  0  0  0  0
 36 35  1  0  0  0  0
 37  1  1  0  0  0  0
 37 38  1  0  0  0  0
 38 39  1  0  0  0  0
 40 41  1  0  0  0  0
 40 38  2  0  0  0  0
 42 40  1  0  0  0  0
 43 42  1  0  0  0  0
 44 46  1  0  0  0  0
 44 42  2  0  0  0  0
 45 44  1  0  0  0  0
 46 37  2  0  0  0  0
 47 46  1  0  0  0  0
 48 49  1  0  0  0  0
 48 50  1  0  0  0  0
 51 48  1  0  0  0  0
 52 54  1  0  0  0  0
 53 52  1  0  0  0  0
 55 58  1  0  0  0  0
 55 52  1  0  0  0  0
 55 57  1  0  0  0  0
 56 55  1  0  0  0  0
 58 59  1  0  0  0  0
 59 61  2  0  0  0  0
 59 60  1  0  0  0  0
 61 62  1  0  0  0  0
 63 64  1  0  0  0  0
 63 61  1  0  0  0  0
 65 63  2  0  0  0  0
 66 65  1  0  0  0  0
 67 65  1  0  0  0  0
 67 58  2  0  0  0  0
 68 67  1  0  0  0  0
M  END
