1
q = 0.0, confidence = 0.996

 60 60  0  0  1  0  0  0  0  0999 V2000
    0.6120   -0.3393    0.1047 P   0  0  0  0  0  0  0  0  0  0  0  0
   -1.1443   -0.9728    0.2678 C   0  0  1  0  0  3  0  0  0  0  0  0
   -1.3314   -2.2025   -0.1247 N   0  0  0  0  0  2  0  0  0  0  0  0
   -1.3458   -3.2906   -0.5031 N   0  0  0  0  0  1  0  0  0  0  0  0
   -2.2081   -0.1753    0.9015 C   0  0  0  0  0  0  0  0  0  0  0  0
   -3.5458   -0.0878    0.4206 C   0  0  0  0  0  0  0  0  0  0  0  0
   -4.4721    0.7437    1.0695 C   0  0  0  0  0  0  0  0  0  0  0  0
   -5.4962    0.8014    0.6768 H   0  0  0  0  0  0  0  0  0  0  0  0
   -4.1002    1.5179    2.1772 C   0  0  0  0  0  0  0  0  0  0  0  0
   -4.8398    2.1703    2.6637 H   0  0  0  0  0  0  0  0  0  0  0  0
   -2.7809    1.4611    2.6437 C   0  0  0  0  0  0  0  0  0  0  0  0
   -2.4660    2.0687    3.5052 H   0  0  0  0  0  0  0  0  0  0  0  0
   -1.8538    0.6212    2.0162 C   0  0  0  0  0  0  0  0  0  0  0  0
   -0.8233    0.5697    2.3908 H   0  0  0  0  0  0  0  0  0  0  0  0
   -3.9980   -0.8309   -0.8176 C   0  0  0  0  0  0  0  0  0  0  0  0
   -3.1398   -0.6487   -1.8591 F   0  0  0  0  0  0  0  0  0  0  0  0
   -4.0804   -2.1714   -0.6059 F   0  0  0  0  0  0  0  0  0  0  0  0
   -5.2158   -0.4260   -1.2382 F   0  0  0  0  0  0  0  0  0  0  0  0
    1.1747   -1.3414   -1.1816 N   0  0  0  0  0  0  0  0  0  0  0  0
    0.4537   -1.1229   -2.4680 C   0  0  0  0  0  0  0  0  0  0  0  0
   -0.5824   -0.8560   -2.1658 H   0  0  0  0  0  0  0  0  0  0  0  0
    0.9609    0.0612   -3.3096 C   0  0  0  0  0  0  0  0  0  0  0  0
    1.0680    0.9741   -2.6846 H   0  0  0  0  0  0  0  0  0  0  0  0
    0.2271    0.2821   -4.1111 H   0  0  0  0  0  0  0  0  0  0  0  0
    1.9369   -0.1412   -3.7870 H   0  0  0  0  0  0  0  0  0  0  0  0
    0.3357   -2.3964   -3.3139 C   0  0  0  0  0  0  0  0  0  0  0  0
    1.3075   -2.6886   -3.7586 H   0  0  0  0  0  0  0  0  0  0  0  0
   -0.3640   -2.2076   -4.1521 H   0  0  0  0  0  0  0  0  0  0  0  0
   -0.0580   -3.2449   -2.7237 H   0  0  0  0  0  0  0  0  0  0  0  0
    2.5140   -1.9711   -1.1057 C   0  0  0  0  0  0  0  0  0  0  0  0
    2.8857   -1.6844   -0.1018 H   0  0  0  0  0  0  0  0  0  0  0  0
    3.5459   -1.4426   -2.1098 C   0  0  0  0  0  0  0  0  0  0  0  0
    3.3123   -1.7481   -3.1489 H   0  0  0  0  0  0  0  0  0  0  0  0
    4.5395   -1.8681   -1.8612 H   0  0  0  0  0  0  0  0  0  0  0  0
    3.6193   -0.3407   -2.0566 H   0  0  0  0  0  0  0  0  0  0  0  0
    2.4523   -3.5102   -1.1391 C   0  0  0  0  0  0  0  0  0  0  0  0
    1.6543   -3.9047   -0.4807 H   0  0  0  0  0  0  0  0  0  0  0  0
    3.4200   -3.9304   -0.7961 H   0  0  0  0  0  0  0  0  0  0  0  0
    2.2685   -3.8989   -2.1584 H   0  0  0  0  0  0  0  0  0  0  0  0
    1.3896   -0.8394    1.5375 N   0  0  0  0  0  0  0  0  0  0  0  0
    1.1674   -2.2436    1.9791 C   0  0  0  0  0  0  0  0  0  0  0  0
    0.8297   -2.7728    1.0652 H   0  0  0  0  0  0  0  0  0  0  0  0
    0.0500   -2.4131    3.0238 C   0  0  0  0  0  0  0  0  0  0  0  0
    0.3651   -2.0821    4.0309 H   0  0  0  0  0  0  0  0  0  0  0  0
   -0.2229   -3.4854    3.0962 H   0  0  0  0  0  0  0  0  0  0  0  0
   -0.8611   -1.8522    2.7456 H   0  0  0  0  0  0  0  0  0  0  0  0
    2.4421   -2.9661    2.4325 C   0  0  0  0  0  0  0  0  0  0  0  0
    3.2571   -2.8805    1.6901 H   0  0  0  0  0  0  0  0  0  0  0  0
    2.2154   -4.0423    2.5692 H   0  0  0  0  0  0  0  0  0  0  0  0
    2.8124   -2.5824    3.4029 H   0  0  0  0  0  0  0  0  0  0  0  0
    2.1475    0.1574    2.3392 C   0  0  0  0  0  0  0  0  0  0  0  0
    1.9219    1.1251    1.8381 H   0  0  0  0  0  0  0  0  0  0  0  0
    1.6718    0.2830    3.7917 C   0  0  0  0  0  0  0  0  0  0  0  0
    0.5772    0.4319    3.8667 H   0  0  0  0  0  0  0  0  0  0  0  0
    2.1649    1.1596    4.2572 H   0  0  0  0  0  0  0  0  0  0  0  0
    1.9404   -0.6027    4.4012 H   0  0  0  0  0  0  0  0  0  0  0  0
    3.6727   -0.0105    2.2716 C   0  0  0  0  0  0  0  0  0  0  0  0
    4.0353   -0.8591    2.8820 H   0  0  0  0  0  0  0  0  0  0  0  0
    4.1557    0.9104    2.6555 H   0  0  0  0  0  0  0  0  0  0  0  0
    4.0055   -0.1355    1.2251 H   0  0  0  0  0  0  0  0  0  0  0  0
  1  2  1  0  0  0  0
  1 40  1  0  0  0  0
  2  3  1  1  0  0  0
  2  5  1  0  0  0  0
  4  3  1  0  0  0  0
  5 13  1  0  0  0  0
  6  5  2  0  0  0  0
  6  7  1  0  0  0  0
  7  9  2  0  0  0  0
  8  7  1  0  0  0  0
  9 11  1  0  0  0  0
  9 10  1  0  0  0  0
 11 12  1  0  0  0  0
 13 14  1  0  0  0  0
 13 11  2  0  0  0  0
 15 17  1  0  0  0  0
 15  6  1  0  0  0  0
 16 15  1  0  0  0  0
 18 15  1  0  0  0  0
 19 30  1  0  0  0  0
 19  1  1  0  0  0  0
 20 21  1  0  0  0  0
 20 19  1  0  0  0  0
 22 23  1  0  0  0  0
 22 20  1  0  0  0  0
 24 22  1  0  0  0  0
 25 22  1  0  0  0  0
 26 29  1  0  0  0  0
 26 20  1  0  0  0  0
 27 26  1  0  0  0  0
 28 26  1  0  0  0  0
 30 31  1  0  0  0  0
 32 35  1  0  0  0  0
 32 34  1  0  0  0  0
 32 30  1  0  0  0  0
 33 32  1  0  0  0  0
 36 30  1  0  0  0  0
 36 38  1  0  0  0  0
 36 37  1  0  0  0  0
 39 36  1  0  0  0  0
 40 41  1  0  0  0  0
 40 51  1  0  0  0  0
 41 47  1  0  0  0  0
 41 43  1  0  0  0  0
 42 41  1  0  0  0  0
 43 45  1  0  0  0  0
 43 44  1  0  0  0  0
 46 43  1  0  0  0  0
 47 49  1  0  0  0  0
 47 50  1  0  0  0  0
 48 47  1  0  0  0  0
 51 53  1  0  0  0  0
 52 51  1  0  0  0  0
 53 54  1  0  0  0  0
 53 55  1  0  0  0  0
 53 56  1  0  0  0  0
 57 51  1  0  0  0  0
 57 59  1  0  0  0  0
 57 58  1  0  0  0  0
 60 57  1  0  0  0  0
M  END
