3
q = -1.0

 71 70  0  0  0  0  0  0  0  0999 V2000
   -2.7895    0.2828    0.1765 P   0  0  0  0  0  4  0  0  0  0  0  0
   -1.6120   -0.3078   -0.3918 H   0  0  0  0  0  0  0  0  0  0  0  0
    2.3445    0.3102    0.0704 P   0  0  0  0  0  0  0  0  0  0  0  0
   -2.3069    1.8180    0.7128 N   0  0  0  0  0  0  0  0  0  0  0  0
    1.4665    1.7538    0.4600 N   0  0  0  0  0  0  0  0  0  0  0  0
   -4.0213    0.3767   -1.2474 C   0  0  0  0  0  0  0  0  0  0  0  0
   -3.4932    1.5135   -2.1468 C   0  0  0  0  0  0  0  0  0  0  0  0
   -4.1307    1.5651   -3.0537 H   0  0  0  0  0  0  0  0  0  0  0  0
   -2.4514    1.3129   -2.4698 H   0  0  0  0  0  0  0  0  0  0  0  0
   -3.5321    2.5022   -1.6497 H   0  0  0  0  0  0  0  0  0  0  0  0
   -3.9551   -0.9508   -2.0307 C   0  0  0  0  0  0  0  0  0  0  0  0
   -4.4963   -0.8107   -2.9898 H   0  0  0  0  0  0  0  0  0  0  0  0
   -4.4400   -1.7838   -1.4900 H   0  0  0  0  0  0  0  0  0  0  0  0
   -2.9104   -1.2518   -2.2489 H   0  0  0  0  0  0  0  0  0  0  0  0
   -5.4548    0.6706   -0.7776 C   0  0  0  0  0  0  0  0  0  0  0  0
   -6.1135    0.7320   -1.6692 H   0  0  0  0  0  0  0  0  0  0  0  0
   -5.5405    1.6359   -0.2407 H   0  0  0  0  0  0  0  0  0  0  0  0
   -5.8568   -0.1316   -0.1281 H   0  0  0  0  0  0  0  0  0  0  0  0
   -3.2481   -0.7942    1.6493 C   0  0  0  0  0  0  0  0  0  0  0  0
   -4.2176   -0.0836    2.6074 C   0  0  0  0  0  0  0  0  0  0  0  0
   -4.4445   -0.7724    3.4476 H   0  0  0  0  0  0  0  0  0  0  0  0
   -5.1813    0.1796    2.1276 H   0  0  0  0  0  0  0  0  0  0  0  0
   -3.7706    0.8299    3.0450 H   0  0  0  0  0  0  0  0  0  0  0  0
   -3.8471   -2.1199    1.1465 C   0  0  0  0  0  0  0  0  0  0  0  0
   -3.9852   -2.7875    2.0223 H   0  0  0  0  0  0  0  0  0  0  0  0
   -3.1596   -2.6246    0.4383 H   0  0  0  0  0  0  0  0  0  0  0  0
   -4.8393   -1.9837    0.6740 H   0  0  0  0  0  0  0  0  0  0  0  0
   -1.9076   -1.0761    2.3606 C   0  0  0  0  0  0  0  0  0  0  0  0
   -2.1013   -1.7461    3.2237 H   0  0  0  0  0  0  0  0  0  0  0  0
   -1.4485   -0.1467    2.7497 H   0  0  0  0  0  0  0  0  0  0  0  0
   -1.1910   -1.5856    1.6829 H   0  0  0  0  0  0  0  0  0  0  0  0
    3.6395    0.7598   -1.2727 C   0  0  0  0  0  0  0  0  0  0  0  0
    3.9413   -0.5951   -1.9507 C   0  0  0  0  0  0  0  0  0  0  0  0
    4.6795   -0.4367   -2.7654 H   0  0  0  0  0  0  0  0  0  0  0  0
    3.0192   -1.0280   -2.3855 H   0  0  0  0  0  0  0  0  0  0  0  0
    4.3521   -1.3441   -1.2471 H   0  0  0  0  0  0  0  0  0  0  0  0
    4.9530    1.3957   -0.7839 C   0  0  0  0  0  0  0  0  0  0  0  0
    5.6081    1.5507   -1.6678 H   0  0  0  0  0  0  0  0  0  0  0  0
    5.5108    0.7613   -0.0724 H   0  0  0  0  0  0  0  0  0  0  0  0
    4.8047    2.3910   -0.3203 H   0  0  0  0  0  0  0  0  0  0  0  0
    3.0035    1.7009   -2.3131 C   0  0  0  0  0  0  0  0  0  0  0  0
    3.7003    1.7807   -3.1747 H   0  0  0  0  0  0  0  0  0  0  0  0
    2.8471    2.7229   -1.9192 H   0  0  0  0  0  0  0  0  0  0  0  0
    2.0325    1.3171   -2.6759 H   0  0  0  0  0  0  0  0  0  0  0  0
    3.2379   -0.1012    1.7398 C   0  0  0  0  0  0  0  0  0  0  0  0
    4.3773   -1.1249    1.5907 C   0  0  0  0  0  0  0  0  0  0  0  0
    4.7540   -1.3793    2.6050 H   0  0  0  0  0  0  0  0  0  0  0  0
    5.2366   -0.7323    1.0154 H   0  0  0  0  0  0  0  0  0  0  0  0
    4.0121   -2.0519    1.1125 H   0  0  0  0  0  0  0  0  0  0  0  0
    2.1573   -0.6890    2.6713 C   0  0  0  0  0  0  0  0  0  0  0  0
    2.6210   -0.9121    3.6564 H   0  0  0  0  0  0  0  0  0  0  0  0
    1.7413   -1.6266    2.2575 H   0  0  0  0  0  0  0  0  0  0  0  0
    1.3325    0.0275    2.8536 H   0  0  0  0  0  0  0  0  0  0  0  0
    3.7746    1.1849    2.3946 C   0  0  0  0  0  0  0  0  0  0  0  0
    4.2716    0.9063    3.3485 H   0  0  0  0  0  0  0  0  0  0  0  0
    2.9613    1.8913    2.6470 H   0  0  0  0  0  0  0  0  0  0  0  0
    4.5248    1.7145    1.7796 H   0  0  0  0  0  0  0  0  0  0  0  0
   -3.2718    2.8235    1.1410 C   0  0  0  0  0  0  0  0  0  0  0  0
   -2.8820    3.3790    2.0207 H   0  0  0  0  0  0  0  0  0  0  0  0
   -4.2253    2.3546    1.4447 H   0  0  0  0  0  0  0  0  0  0  0  0
   -3.4997    3.5655    0.3407 H   0  0  0  0  0  0  0  0  0  0  0  0
   -0.9784    2.3204    0.2998 C   0  0  0  0  0  0  0  0  0  0  0  0
   -0.8167    2.2304   -0.7953 H   0  0  0  0  0  0  0  0  0  0  0  0
   -0.9531    3.3970    0.5643 H   0  0  0  0  0  0  0  0  0  0  0  0
    0.1427    1.5515    1.0108 C   0  0  0  0  0  0  0  0  0  0  0  0
   -0.0702    0.4640    0.9068 H   0  0  0  0  0  0  0  0  0  0  0  0
    0.1071    1.7843    2.1063 H   0  0  0  0  0  0  0  0  0  0  0  0
    1.9835    3.1045    0.5329 C   0  0  0  0  0  0  0  0  0  0  0  0
    1.8710    3.5318    1.5587 H   0  0  0  0  0  0  0  0  0  0  0  0
    1.4650    3.7895   -0.1771 H   0  0  0  0  0  0  0  0  0  0  0  0
    3.0589    3.1330    0.2881 H   0  0  0  0  0  0  0  0  0  0  0  0
  1  4  1  0  0  0  0
  1 19  1  0  0  0  0
  2  1  1  0  0  0  0
  3  5  1  0  0  0  0
  3 45  1  0  0  0  0
  4 58  1  0  0  0  0
  5 68  1  0  0  0  0
  5 65  1  0  0  0  0
  6 15  1  0  0  0  0
  6  1  1  0  0  0  0
  7 10  1  0  0  0  0
  7  6  1  0  0  0  0
  8  7  1  0  0  0  0
  9  7  1  0  0  0  0
 11 13  1  0  0  0  0
 11  6  1  0  0  0  0
 12 11  1  0  0  0  0
 14 11  1  0  0  0  0
 15 17  1  0  0  0  0
 15 18  1  0  0  0  0
 16 15  1  0  0  0  0
 19 28  1  0  0  0  0
 19 20  1  0  0  0  0
 20 23  1  0  0  0  0
 20 21  1  0  0  0  0
 22 20  1  0  0  0  0
 24 19  1  0  0  0  0
 24 25  1  0  0  0  0
 26 24  1  0  0  0  0
 27 24  1  0  0  0  0
 28 30  1  0  0  0  0
 28 29  1  0  0  0  0
 31 28  1  0  0  0  0
 32 37  1  0  0  0  0
 32  3  1  0  0  0  0
 33 32  1  0  0  0  0
 33 36  1  0  0  0  0
 34 33  1  0  0  0  0
 35 33  1  0  0  0  0
 37 40  1  0  0  0  0
 37 39  1  0  0  0  0
 38 37  1  0  0  0  0
 41 43  1  0  0  0  0
 41 32  1  0  0  0  0
 42 41  1  0  0  0  0
 44 41  1  0  0  0  0
 45 54  1  0  0  0  0
 45 50  1  0  0  0  0
 46 45  1  0  0  0  0
 46 47  1  0  0  0  0
 48 46  1  0  0  0  0
 49 46  1  0  0  0  0
 50 53  1  0  0  0  0
 50 51  1  0  0  0  0
 52 50  1  0  0  0  0
 54 56  1  0  0  0  0
 54 55  1  0  0  0  0
 57 54  1  0  0  0  0
 58 60  1  0  0  0  0
 58 59  1  0  0  0  0
 61 58  1  0  0  0  0
 62 64  1  0  0  0  0
 62  4  1  0  0  0  0
 62 65  1  0  0  0  0
 63 62  1  0  0  0  0
 65 67  1  0  0  0  0
 66 65  1  0  0  0  0
 68 69  1  0  0  0  0
 70 68  1  0  0  0  0
 71 68  1  0  0  0  0
M  END
