1
q = 0.0, confidence = 0.998

 46 50  0  0  0  0  0  0  0  0999 V2000
   -0.5729    0.4864    0.2629 P   0  0  0  0  0  0  0  0  0  0  0  0
    2.0742    1.0412   -0.4316 C   0  0  0  0  0  0  0  0  0  0  0  0
    3.4634    0.7666   -0.6594 C   0  0  0  0  0  0  0  0  0  0  0  0
    4.3315    1.7911   -1.1253 C   0  0  0  0  0  0  0  0  0  0  0  0
    5.6804    1.5380   -1.3426 C   0  0  0  0  0  0  0  0  0  0  0  0
    6.1943    0.2439   -1.0963 C   0  0  0  0  0  0  0  0  0  0  0  0
    5.3602   -0.7736   -0.6396 C   0  0  0  0  0  0  0  0  0  0  0  0
    3.9777   -0.5481   -0.4084 C   0  0  0  0  0  0  0  0  0  0  0  0
    3.0665   -1.5846    0.0670 C   0  0  0  0  0  0  0  0  0  0  0  0
    3.5084   -2.9075    0.3347 C   0  0  0  0  0  0  0  0  0  0  0  0
    2.6346   -3.8939    0.7808 C   0  0  0  0  0  0  0  0  0  0  0  0
    1.2698   -3.5920    0.9767 C   0  0  0  0  0  0  0  0  0  0  0  0
    0.8051   -2.3055    0.7295 C   0  0  0  0  0  0  0  0  0  0  0  0
    1.6758   -1.2780    0.2734 C   0  0  0  0  0  0  0  0  0  0  0  0
    1.2036    0.0728    0.0195 C   0  0  0  0  0  0  0  0  0  0  0  0
   -0.6873    2.2812   -0.1062 C   0  0  0  0  0  0  0  0  0  0  0  0
   -0.3722    3.2581    0.8598 C   0  0  0  0  0  0  0  0  0  0  0  0
   -0.4415    4.6188    0.5260 C   0  0  0  0  0  0  0  0  0  0  0  0
   -0.8223    5.0100   -0.7680 C   0  0  0  0  0  0  0  0  0  0  0  0
   -1.1415    4.0383   -1.7302 C   0  0  0  0  0  0  0  0  0  0  0  0
   -1.0805    2.6764   -1.4011 C   0  0  0  0  0  0  0  0  0  0  0  0
   -0.8346    0.3619    2.0760 C   0  0  0  0  0  0  0  0  0  0  0  0
   -2.1481    0.1874    2.5566 C   0  0  0  0  0  0  0  0  0  0  0  0
   -2.3860    0.1279    3.9371 C   0  0  0  0  0  0  0  0  0  0  0  0
   -1.3164    0.2331    4.8413 C   0  0  0  0  0  0  0  0  0  0  0  0
   -0.0060    0.3972    4.3643 C   0  0  0  0  0  0  0  0  0  0  0  0
    0.2385    0.4622    2.9842 C   0  0  0  0  0  0  0  0  0  0  0  0
    1.7151    2.0622   -0.6289 H   0  0  0  0  0  0  0  0  0  0  0  0
    3.9118    2.7919   -1.3118 H   0  0  0  0  0  0  0  0  0  0  0  0
    6.3449    2.3366   -1.7046 H   0  0  0  0  0  0  0  0  0  0  0  0
    7.2613    0.0363   -1.2673 H   0  0  0  0  0  0  0  0  0  0  0  0
    5.7906   -1.7682   -0.4598 H   0  0  0  0  0  0  0  0  0  0  0  0
    4.5654   -3.1660    0.1848 H   0  0  0  0  0  0  0  0  0  0  0  0
    3.0092   -4.9100    0.9755 H   0  0  0  0  0  0  0  0  0  0  0  0
    0.5715   -4.3696    1.3195 H   0  0  0  0  0  0  0  0  0  0  0  0
   -0.2631   -2.0863    0.8743 H   0  0  0  0  0  0  0  0  0  0  0  0
   -0.0787    2.9538    1.8757 H   0  0  0  0  0  0  0  0  0  0  0  0
   -0.2001    5.3789    1.2844 H   0  0  0  0  0  0  0  0  0  0  0  0
   -0.8790    6.0786   -1.0251 H   0  0  0  0  0  0  0  0  0  0  0  0
   -1.4506    4.3411   -2.7419 H   0  0  0  0  0  0  0  0  0  0  0  0
   -1.3479    1.9086   -2.1447 H   0  0  0  0  0  0  0  0  0  0  0  0
   -2.9792    0.0858    1.8402 H   0  0  0  0  0  0  0  0  0  0  0  0
   -3.4126   -0.0108    4.3079 H   0  0  0  0  0  0  0  0  0  0  0  0
   -1.5043    0.1781    5.9244 H   0  0  0  0  0  0  0  0  0  0  0  0
    0.8345    0.4695    5.0711 H   0  0  0  0  0  0  0  0  0  0  0  0
    1.2667    0.5798    2.6089 H   0  0  0  0  0  0  0  0  0  0  0  0
  1 22  1  0  0  0  0
  2 15  1  0  0  0  0
  3  2  2  0  0  0  0
  3  8  1  0  0  0  0
  4  3  1  0  0  0  0
  5  4  2  0  0  0  0
  5  6  1  0  0  0  0
  6  7  2  0  0  0  0
  7 32  1  0  0  0  0
  7  8  1  0  0  0  0
  8  9  2  0  0  0  0
  9 14  1  0  0  0  0
  9 10  1  0  0  0  0
 10 11  2  0  0  0  0
 11 34  1  0  0  0  0
 11 12  1  0  0  0  0
 12 35  1  0  0  0  0
 13 36  1  0  0  0  0
 13 12  2  0  0  0  0
 14 13  1  0  0  0  0
 15  1  1  0  0  0  0
 15 14  2  0  0  0  0
 16  1  1  0  0  0  0
 16 17  1  0  0  0  0
 17 37  1  0  0  0  0
 18 17  2  0  0  0  0
 18 38  1  0  0  0  0
 19 18  1  0  0  0  0
 20 21  1  0  0  0  0
 20 19  2  0  0  0  0
 21 16  2  0  0  0  0
 22 23  2  0  0  0  0
 22 27  1  0  0  0  0
 23 24  1  0  0  0  0
 24 43  1  0  0  0  0
 24 25  2  0  0  0  0
 25 44  1  0  0  0  0
 26 25  1  0  0  0  0
 26 45  1  0  0  0  0
 27 26  2  0  0  0  0
 28  2  1  0  0  0  0
 29  4  1  0  0  0  0
 30  5  1  0  0  0  0
 31  6  1  0  0  0  0
 33 10  1  0  0  0  0
 39 19  1  0  0  0  0
 40 20  1  0  0  0  0
 41 21  1  0  0  0  0
 42 23  1  0  0  0  0
 46 27  1  0  0  0  0
M  END
