2
q = 0.0, confidence = 1.0

 68 71  0  0  0  0  0  0  0  0999 V2000
   -2.0162   -2.4217   -0.8628 S   0  0  0  0  0  0  0  0  0  0  0  0
   -0.0121    1.1010    0.4439 P   0  0  0  0  0  0  0  0  0  0  0  0
   -5.0637   -1.5694   -1.2146 Si  0  0  0  0  0  0  0  0  0  0  0  0
   -3.2552   -1.1753   -0.8296 C   0  0  0  0  0  0  0  0  0  0  0  0
    1.7731   -2.7299   -0.0802 S   0  0  0  0  0  0  0  0  0  0  0  0
    4.8456   -2.3348    0.6523 Si  0  0  0  0  0  0  0  0  0  0  0  0
   -2.7081    0.0411   -0.4186 C   0  0  0  0  0  0  0  0  0  0  0  0
   -3.3010    0.9627   -0.3354 H   0  0  0  0  0  0  0  0  0  0  0  0
   -1.3221   -0.0413   -0.1264 C   0  0  0  0  0  0  0  0  0  0  0  0
   -0.7923   -1.3282   -0.3188 C   0  0  0  0  0  0  0  0  0  0  0  0
    0.6187   -1.4442   -0.0224 C   0  0  0  0  0  0  0  0  0  0  0  0
    1.2184   -0.2539    0.4218 C   0  0  0  0  0  0  0  0  0  0  0  0
    2.6013   -0.3982    0.7055 C   0  0  0  0  0  0  0  0  0  0  0  0
    3.2460    0.4194    1.0572 H   0  0  0  0  0  0  0  0  0  0  0  0
    3.0735   -1.6938    0.4896 C   0  0  0  0  0  0  0  0  0  0  0  0
   -0.3838    1.4209    2.2127 C   0  0  0  0  0  0  0  0  0  0  0  0
   -0.3119    2.7333    2.7145 C   0  0  0  0  0  0  0  0  0  0  0  0
   -0.0348    3.5585    2.0392 H   0  0  0  0  0  0  0  0  0  0  0  0
   -0.5970    2.9780    4.0678 C   0  0  0  0  0  0  0  0  0  0  0  0
   -0.5411    4.0049    4.4591 H   0  0  0  0  0  0  0  0  0  0  0  0
   -0.9532    1.9178    4.9141 C   0  0  0  0  0  0  0  0  0  0  0  0
   -1.1781    2.1118    5.9739 H   0  0  0  0  0  0  0  0  0  0  0  0
   -1.0255    0.6063    4.4109 C   0  0  0  0  0  0  0  0  0  0  0  0
   -1.3062   -0.2252    5.0750 H   0  0  0  0  0  0  0  0  0  0  0  0
   -0.7418    0.3542    3.0629 C   0  0  0  0  0  0  0  0  0  0  0  0
   -0.7987   -0.6710    2.6644 H   0  0  0  0  0  0  0  0  0  0  0  0
   -5.8740    0.0342   -1.7995 C   0  0  0  0  0  0  0  0  0  0  0  0
   -6.9290   -0.1430   -2.0913 H   0  0  0  0  0  0  0  0  0  0  0  0
   -5.3389    0.4399   -2.6816 H   0  0  0  0  0  0  0  0  0  0  0  0
   -5.8693    0.8121   -1.0096 H   0  0  0  0  0  0  0  0  0  0  0  0
   -5.1134   -2.8816   -2.5747 C   0  0  0  0  0  0  0  0  0  0  0  0
   -4.5475   -3.7916   -2.2892 H   0  0  0  0  0  0  0  0  0  0  0  0
   -4.6687   -2.4859   -3.5100 H   0  0  0  0  0  0  0  0  0  0  0  0
   -6.1565   -3.1875   -2.7947 H   0  0  0  0  0  0  0  0  0  0  0  0
   -5.9018   -2.2182    0.3994 C   0  0  0  0  0  0  0  0  0  0  0  0
   -7.4039   -2.4313    0.1321 C   0  0  0  0  0  0  0  0  0  0  0  0
   -7.9085   -2.8195    1.0448 H   0  0  0  0  0  0  0  0  0  0  0  0
   -7.5837   -3.1680   -0.6785 H   0  0  0  0  0  0  0  0  0  0  0  0
   -7.9153   -1.4874   -0.1484 H   0  0  0  0  0  0  0  0  0  0  0  0
   -5.7129   -1.1813    1.5213 C   0  0  0  0  0  0  0  0  0  0  0  0
   -6.1883   -1.5373    2.4623 H   0  0  0  0  0  0  0  0  0  0  0  0
   -6.1776   -0.2053    1.2696 H   0  0  0  0  0  0  0  0  0  0  0  0
   -4.6399   -0.9977    1.7363 H   0  0  0  0  0  0  0  0  0  0  0  0
   -5.2531   -3.5512    0.8134 C   0  0  0  0  0  0  0  0  0  0  0  0
   -5.7059   -3.9258    1.7583 H   0  0  0  0  0  0  0  0  0  0  0  0
   -4.1623   -3.4445    0.9887 H   0  0  0  0  0  0  0  0  0  0  0  0
   -5.3963   -4.3398    0.0460 H   0  0  0  0  0  0  0  0  0  0  0  0
    5.7127   -1.2461    1.9315 C   0  0  0  0  0  0  0  0  0  0  0  0
    6.7490   -1.5987    2.1087 H   0  0  0  0  0  0  0  0  0  0  0  0
    5.1715   -1.2760    2.8986 H   0  0  0  0  0  0  0  0  0  0  0  0
    5.7689   -0.1889    1.6026 H   0  0  0  0  0  0  0  0  0  0  0  0
    4.7721   -4.1296    1.2445 C   0  0  0  0  0  0  0  0  0  0  0  0
    5.7890   -4.5656    1.3197 H   0  0  0  0  0  0  0  0  0  0  0  0
    4.1822   -4.7661    0.5541 H   0  0  0  0  0  0  0  0  0  0  0  0
    4.3002   -4.1884    2.2462 H   0  0  0  0  0  0  0  0  0  0  0  0
    5.7125   -2.2092   -1.0660 C   0  0  0  0  0  0  0  0  0  0  0  0
    7.1853   -2.6352   -0.9149 C   0  0  0  0  0  0  0  0  0  0  0  0
    7.7056   -2.5810   -1.8971 H   0  0  0  0  0  0  0  0  0  0  0  0
    7.2839   -3.6790   -0.5503 H   0  0  0  0  0  0  0  0  0  0  0  0
    7.7400   -1.9771   -0.2146 H   0  0  0  0  0  0  0  0  0  0  0  0
    5.0025   -3.1381   -2.0673 C   0  0  0  0  0  0  0  0  0  0  0  0
    5.4754   -3.0581   -3.0712 H   0  0  0  0  0  0  0  0  0  0  0  0
    3.9304   -2.8773   -2.1864 H   0  0  0  0  0  0  0  0  0  0  0  0
    5.0606   -4.2032   -1.7611 H   0  0  0  0  0  0  0  0  0  0  0  0
    5.6365   -0.7550   -1.5656 C   0  0  0  0  0  0  0  0  0  0  0  0
    6.1280   -0.6606   -2.5591 H   0  0  0  0  0  0  0  0  0  0  0  0
    6.1506   -0.0505   -0.8792 H   0  0  0  0  0  0  0  0  0  0  0  0
    4.5878   -0.4114   -1.6785 H   0  0  0  0  0  0  0  0  0  0  0  0
  1  4  1  0  0  0  0
  1 10  1  0  0  0  0
  2 16  1  0  0  0  0
  3  4  1  0  0  0  0
  3 35  1  0  0  0  0
  4  7  2  0  0  0  0
  5 11  1  0  0  0  0
  5 15  1  0  0  0  0
  6 52  1  0  0  0  0
  6 48  1  0  0  0  0
  7  8  1  0  0  0  0
  7  9  1  0  0  0  0
  9  2  1  0  0  0  0
 10  9  2  0  0  0  0
 10 11  1  0  0  0  0
 11 12  2  0  0  0  0
 12  2  1  0  0  0  0
 12 13  1  0  0  0  0
 13 14  1  0  0  0  0
 15  6  1  0  0  0  0
 15 13  2  0  0  0  0
 16 17  2  0  0  0  0
 16 25  1  0  0  0  0
 17 19  1  0  0  0  0
 18 17  1  0  0  0  0
 19 20  1  0  0  0  0
 19 21  2  0  0  0  0
 21 22  1  0  0  0  0
 23 21  1  0  0  0  0
 23 24  1  0  0  0  0
 25 23  2  0  0  0  0
 26 25  1  0  0  0  0
 27  3  1  0  0  0  0
 27 30  1  0  0  0  0
 28 27  1  0  0  0  0
 29 27  1  0  0  0  0
 31 32  1  0  0  0  0
 31  3  1  0  0  0  0
 33 31  1  0  0  0  0
 34 31  1  0  0  0  0
 35 44  1  0  0  0  0
 35 40  1  0  0  0  0
 36 35  1  0  0  0  0
 36 37  1  0  0  0  0
 38 36  1  0  0  0  0
 39 36  1  0  0  0  0
 40 43  1  0  0  0  0
 40 41  1  0  0  0  0
 42 40  1  0  0  0  0
 44 46  1  0  0  0  0
 44 45  1  0  0  0  0
 47 44  1  0  0  0  0
 48 49  1  0  0  0  0
 48 50  1  0  0  0  0
 51 48  1  0  0  0  0
 52 53  1  0  0  0  0
 52 55  1  0  0  0  0
 54 52  1  0  0  0  0
 56 57  1  0  0  0  0
 56  6  1  0  0  0  0
 57 59  1  0  0  0  0
 57 60  1  0  0  0  0
 58 57  1  0  0  0  0
 61 64  1  0  0  0  0
 61 56  1  0  0  0  0
 62 61  1  0  0  0  0
 63 61  1  0  0  0  0
 65 56  1  0  0  0  0
 65 67  1  0  0  0  0
 66 65  1  0  0  0  0
 68 65  1  0  0  0  0
M  END
