1
q = 0.0, confidence = 0.99

 45 47  0  0  0  0  0  0  0  0999 V2000
    0.3110   -0.5537   -0.8989 P   0  0  0  0  0  0  0  0  0  0  0  0
    0.7234   -0.0401   -2.1725 H   0  0  0  0  0  0  0  0  0  0  0  0
    0.5939   -2.2041   -1.2322 N   0  0  0  0  0  0  0  0  0  0  0  0
   -0.1052   -3.2843   -0.5561 C   0  0  0  0  0  0  0  0  0  0  0  0
    0.5993   -3.9447   -0.0013 H   0  0  0  0  0  0  0  0  0  0  0  0
   -0.6573   -3.9117   -1.2912 H   0  0  0  0  0  0  0  0  0  0  0  0
   -0.8299   -2.8843    0.1736 H   0  0  0  0  0  0  0  0  0  0  0  0
    1.6216   -2.6526   -2.1595 C   0  0  0  0  0  0  0  0  0  0  0  0
    1.9478   -1.8257   -2.8164 H   0  0  0  0  0  0  0  0  0  0  0  0
    1.2107   -3.4659   -2.7980 H   0  0  0  0  0  0  0  0  0  0  0  0
    2.5283   -3.0425   -1.6420 H   0  0  0  0  0  0  0  0  0  0  0  0
    1.7978    0.1405    0.1824 C   0  0  0  0  0  0  0  0  0  0  0  0
    1.4582   -0.3972    1.5750 C   0  0  0  0  0  0  0  0  0  0  0  0
    1.5221   -1.7849    1.8434 C   0  0  0  0  0  0  0  0  0  0  0  0
    1.8876   -2.4706    1.0687 H   0  0  0  0  0  0  0  0  0  0  0  0
    1.1289   -2.3066    3.0835 C   0  0  0  0  0  0  0  0  0  0  0  0
    1.1914   -3.3914    3.2590 H   0  0  0  0  0  0  0  0  0  0  0  0
    0.6511   -1.4549    4.0902 C   0  0  0  0  0  0  0  0  0  0  0  0
    0.3361   -1.8632    5.0620 H   0  0  0  0  0  0  0  0  0  0  0  0
    0.5647   -0.0793    3.8355 C   0  0  0  0  0  0  0  0  0  0  0  0
    0.1774    0.6033    4.6069 H   0  0  0  0  0  0  0  0  0  0  0  0
    0.9586    0.4419    2.5939 C   0  0  0  0  0  0  0  0  0  0  0  0
    0.8706    1.5211    2.4159 H   0  0  0  0  0  0  0  0  0  0  0  0
    3.1317   -0.3501   -0.4126 C   0  0  0  0  0  0  0  0  0  0  0  0
    4.0650   -1.1283    0.3013 C   0  0  0  0  0  0  0  0  0  0  0  0
    3.8535   -1.4246    1.3369 H   0  0  0  0  0  0  0  0  0  0  0  0
    5.2813   -1.5188   -0.2841 C   0  0  0  0  0  0  0  0  0  0  0  0
    5.9895   -2.1264    0.2999 H   0  0  0  0  0  0  0  0  0  0  0  0
    5.5982   -1.1329   -1.5933 C   0  0  0  0  0  0  0  0  0  0  0  0
    6.5488   -1.4436   -2.0522 H   0  0  0  0  0  0  0  0  0  0  0  0
    4.6986   -0.3191   -2.3017 C   0  0  0  0  0  0  0  0  0  0  0  0
    4.9443    0.0231   -3.3186 H   0  0  0  0  0  0  0  0  0  0  0  0
    3.4911    0.0739   -1.7134 C   0  0  0  0  0  0  0  0  0  0  0  0
    2.8176    0.7430   -2.2697 H   0  0  0  0  0  0  0  0  0  0  0  0
    1.8567    1.6758    0.1303 C   0  0  0  0  0  0  0  0  0  0  0  0
    2.8217    2.3210    0.9372 C   0  0  0  0  0  0  0  0  0  0  0  0
    3.4683    1.7131    1.5882 H   0  0  0  0  0  0  0  0  0  0  0  0
    2.9679    3.7124    0.9175 C   0  0  0  0  0  0  0  0  0  0  0  0
    3.7230    4.1895    1.5606 H   0  0  0  0  0  0  0  0  0  0  0  0
    2.1593    4.4968    0.0767 C   0  0  0  0  0  0  0  0  0  0  0  0
    2.2717    5.5913    0.0604 H   0  0  0  0  0  0  0  0  0  0  0  0
    1.2149    3.8703   -0.7450 C   0  0  0  0  0  0  0  0  0  0  0  0
    0.5768    4.4658   -1.4151 H   0  0  0  0  0  0  0  0  0  0  0  0
    1.0696    2.4725   -0.7202 C   0  0  0  0  0  0  0  0  0  0  0  0
    0.3140    2.0204   -1.3749 H   0  0  0  0  0  0  0  0  0  0  0  0
  1 12  1  0  0  0  0
  2  1  1  0  0  0  0
  3  1  1  0  0  0  0
  3  4  1  0  0  0  0
  4  5  1  0  0  0  0
  4  7  1  0  0  0  0
  6  4  1  0  0  0  0
  8 11  1  0  0  0  0
  8  3  1  0  0  0  0
  9  8  1  0  0  0  0
 10  8  1  0  0  0  0
 12 13  1  0  0  0  0
 13 14  2  0  0  0  0
 13 22  1  0  0  0  0
 14 16  1  0  0  0  0
 15 14  1  0  0  0  0
 16 17  1  0  0  0  0
 16 18  2  0  0  0  0
 18 19  1  0  0  0  0
 20 18  1  0  0  0  0
 20 21  1  0  0  0  0
 22 20  2  0  0  0  0
 23 22  1  0  0  0  0
 24 12  1  0  0  0  0
 24 25  1  0  0  0  0
 25 26  1  0  0  0  0
 27 28  1  0  0  0  0
 27 25  2  0  0  0  0
 29 27  1  0  0  0  0
 30 29  1  0  0  0  0
 31 33  1  0  0  0  0
 31 29  2  0  0  0  0
 32 31  1  0  0  0  0
 33 24  2  0  0  0  0
 34 33  1  0  0  0  0
 35 12  1  0  0  0  0
 35 36  1  0  0  0  0
 36 37  1  0  0  0  0
 38 36  2  0  0  0  0
 38 39  1  0  0  0  0
 40 38  1  0  0  0  0
 41 40  1  0  0  0  0
 42 44  1  0  0  0  0
 42 40  2  0  0  0  0
 43 42  1  0  0  0  0
 44 35  2  0  0  0  0
 45 44  1  0  0  0  0
M  END
