1
q = 0.0, confidence = 0.988

 39 41  0  0  0  0  0  0  0  0999 V2000
    0.3202   -0.1513   -1.0896 P   0  0  0  0  0  0  0  0  0  0  0  0
    0.6951    0.8511   -2.0410 H   0  0  0  0  0  0  0  0  0  0  0  0
    0.5228   -1.5648   -2.0235 N   0  0  0  0  0  0  0  0  0  0  0  0
    1.4768   -1.8196   -2.3067 H   0  0  0  0  0  0  0  0  0  0  0  0
   -0.0253   -2.3680   -1.7055 H   0  0  0  0  0  0  0  0  0  0  0  0
    1.9029    0.0603    0.0652 C   0  0  0  0  0  0  0  0  0  0  0  0
    1.5730   -0.5646    1.4227 C   0  0  0  0  0  0  0  0  0  0  0  0
    0.9723   -1.8415    1.4834 C   0  0  0  0  0  0  0  0  0  0  0  0
    0.7610   -2.3839    0.5510 H   0  0  0  0  0  0  0  0  0  0  0  0
    0.6530   -2.4367    2.7102 C   0  0  0  0  0  0  0  0  0  0  0  0
    0.1649   -3.4228    2.7233 H   0  0  0  0  0  0  0  0  0  0  0  0
    0.9470   -1.7706    3.9107 C   0  0  0  0  0  0  0  0  0  0  0  0
    0.6915   -2.2303    4.8771 H   0  0  0  0  0  0  0  0  0  0  0  0
    1.5684   -0.5146    3.8665 C   0  0  0  0  0  0  0  0  0  0  0  0
    1.8082    0.0154    4.8006 H   0  0  0  0  0  0  0  0  0  0  0  0
    1.8766    0.0843    2.6345 C   0  0  0  0  0  0  0  0  0  0  0  0
    2.3527    1.0746    2.6155 H   0  0  0  0  0  0  0  0  0  0  0  0
    2.1403    1.5720    0.1680 C   0  0  0  0  0  0  0  0  0  0  0  0
    1.0797    2.4184    0.5603 C   0  0  0  0  0  0  0  0  0  0  0  0
    0.1052    1.9781    0.8104 H   0  0  0  0  0  0  0  0  0  0  0  0
    1.2503    3.8056    0.6537 C   0  0  0  0  0  0  0  0  0  0  0  0
    0.3965    4.4367    0.9428 H   0  0  0  0  0  0  0  0  0  0  0  0
    2.5019    4.3803    0.3827 C   0  0  0  0  0  0  0  0  0  0  0  0
    2.6418    5.4692    0.4571 H   0  0  0  0  0  0  0  0  0  0  0  0
    3.5745    3.5503    0.0260 C   0  0  0  0  0  0  0  0  0  0  0  0
    4.5666    3.9843   -0.1713 H   0  0  0  0  0  0  0  0  0  0  0  0
    3.3961    2.1617   -0.0839 C   0  0  0  0  0  0  0  0  0  0  0  0
    4.2511    1.5300   -0.3609 H   0  0  0  0  0  0  0  0  0  0  0  0
    3.0563   -0.6634   -0.6401 C   0  0  0  0  0  0  0  0  0  0  0  0
    3.7991   -1.6802   -0.0072 C   0  0  0  0  0  0  0  0  0  0  0  0
    3.5591   -1.9612    1.0272 H   0  0  0  0  0  0  0  0  0  0  0  0
    4.8479   -2.3340   -0.6751 C   0  0  0  0  0  0  0  0  0  0  0  0
    5.4126   -3.1211   -0.1524 H   0  0  0  0  0  0  0  0  0  0  0  0
    5.1770   -1.9901   -1.9931 C   0  0  0  0  0  0  0  0  0  0  0  0
    5.9956   -2.5064   -2.5166 H   0  0  0  0  0  0  0  0  0  0  0  0
    4.4525   -0.9734   -2.6372 C   0  0  0  0  0  0  0  0  0  0  0  0
    4.7022   -0.6833   -3.6691 H   0  0  0  0  0  0  0  0  0  0  0  0
    3.4110   -0.3172   -1.9677 C   0  0  0  0  0  0  0  0  0  0  0  0
    2.8679    0.4894   -2.4832 H   0  0  0  0  0  0  0  0  0  0  0  0
  1  6  1  0  0  0  0
  2  1  1  0  0  0  0
  3  5  1  0  0  0  0
  3  1  1  0  0  0  0
  4  3  1  0  0  0  0
  6 18  1  0  0  0  0
  6  7  1  0  0  0  0
  7  8  2  0  0  0  0
  7 16  1  0  0  0  0
  8 10  1  0  0  0  0
  9  8  1  0  0  0  0
 10 11  1  0  0  0  0
 10 12  2  0  0  0  0
 12 13  1  0  0  0  0
 14 12  1  0  0  0  0
 14 15  1  0  0  0  0
 16 14  2  0  0  0  0
 17 16  1  0  0  0  0
 18 19  1  0  0  0  0
 19 21  2  0  0  0  0
 19 20  1  0  0  0  0
 21 22  1  0  0  0  0
 23 24  1  0  0  0  0
 23 21  1  0  0  0  0
 25 23  2  0  0  0  0
 26 25  1  0  0  0  0
 27 25  1  0  0  0  0
 27 18  2  0  0  0  0
 28 27  1  0  0  0  0
 29 30  1  0  0  0  0
 29  6  1  0  0  0  0
 30 31  1  0  0  0  0
 32 33  1  0  0  0  0
 32 30  2  0  0  0  0
 34 32  1  0  0  0  0
 35 34  1  0  0  0  0
 36 34  2  0  0  0  0
 36 38  1  0  0  0  0
 37 36  1  0  0  0  0
 38 29  2  0  0  0  0
 39 38  1  0  0  0  0
M  END
