1
q = 0.0, confidence = 0.974

 49 52  0  0  0  0  0  0  0  0999 V2000
    0.3359   -0.5170   -0.5607 P   0  0  0  0  0  0  0  0  0  0  0  0
    0.6254   -0.4227   -1.9571 H   0  0  0  0  0  0  0  0  0  0  0  0
    0.8411   -2.1353   -0.3619 N   0  0  0  0  0  0  0  0  0  0  0  0
    0.5268   -2.8986    0.8570 C   0  0  0  0  0  0  0  0  0  0  0  0
   -0.5704   -2.9082    1.0574 H   0  0  0  0  0  0  0  0  0  0  0  0
    1.0213   -2.4607    1.7477 H   0  0  0  0  0  0  0  0  0  0  0  0
    1.0286   -4.3075    0.5249 C   0  0  0  0  0  0  0  0  0  0  0  0
    2.1235   -4.3727    0.7010 H   0  0  0  0  0  0  0  0  0  0  0  0
    0.5397   -5.0860    1.1420 H   0  0  0  0  0  0  0  0  0  0  0  0
    0.7192   -4.4257   -0.9735 C   0  0  0  0  0  0  0  0  0  0  0  0
    1.2813   -5.2339   -1.4807 H   0  0  0  0  0  0  0  0  0  0  0  0
   -0.3636   -4.6157   -1.1212 H   0  0  0  0  0  0  0  0  0  0  0  0
    1.0805   -3.0343   -1.5127 C   0  0  0  0  0  0  0  0  0  0  0  0
    2.1445   -2.9819   -1.8371 H   0  0  0  0  0  0  0  0  0  0  0  0
    0.4549   -2.7524   -2.3861 H   0  0  0  0  0  0  0  0  0  0  0  0
    1.8244    0.6320    0.0450 C   0  0  0  0  0  0  0  0  0  0  0  0
    2.0883    0.3303    1.5273 C   0  0  0  0  0  0  0  0  0  0  0  0
    1.0105    0.2341    2.4321 C   0  0  0  0  0  0  0  0  0  0  0  0
   -0.0136    0.3609    2.0577 H   0  0  0  0  0  0  0  0  0  0  0  0
    1.2188   -0.0114    3.7955 C   0  0  0  0  0  0  0  0  0  0  0  0
    0.3510   -0.1028    4.4659 H   0  0  0  0  0  0  0  0  0  0  0  0
    2.5248   -0.1374    4.2948 C   0  0  0  0  0  0  0  0  0  0  0  0
    2.6959   -0.3300    5.3647 H   0  0  0  0  0  0  0  0  0  0  0  0
    3.6097   -0.0008    3.4162 C   0  0  0  0  0  0  0  0  0  0  0  0
    4.6402   -0.0741    3.7960 H   0  0  0  0  0  0  0  0  0  0  0  0
    3.3949    0.2303    2.0476 C   0  0  0  0  0  0  0  0  0  0  0  0
    4.2587    0.3393    1.3776 H   0  0  0  0  0  0  0  0  0  0  0  0
    3.0131    0.2745   -0.8516 C   0  0  0  0  0  0  0  0  0  0  0  0
    3.6298   -0.9945   -0.7310 C   0  0  0  0  0  0  0  0  0  0  0  0
    3.2676   -1.6936    0.0338 H   0  0  0  0  0  0  0  0  0  0  0  0
    4.6894   -1.3676   -1.5679 C   0  0  0  0  0  0  0  0  0  0  0  0
    5.1480   -2.3616   -1.4510 H   0  0  0  0  0  0  0  0  0  0  0  0
    5.1721   -0.4785   -2.5421 C   0  0  0  0  0  0  0  0  0  0  0  0
    6.0059   -0.7701   -3.1984 H   0  0  0  0  0  0  0  0  0  0  0  0
    4.5887    0.7908   -2.6562 C   0  0  0  0  0  0  0  0  0  0  0  0
    4.9671    1.5085   -3.3999 H   0  0  0  0  0  0  0  0  0  0  0  0
    3.5236    1.1634   -1.8204 C   0  0  0  0  0  0  0  0  0  0  0  0
    3.0917    2.1683   -1.9192 H   0  0  0  0  0  0  0  0  0  0  0  0
    1.3341    2.0709   -0.1458 C   0  0  0  0  0  0  0  0  0  0  0  0
    1.5241    3.0504    0.8499 C   0  0  0  0  0  0  0  0  0  0  0  0
    2.0296    2.7792    1.7869 H   0  0  0  0  0  0  0  0  0  0  0  0
    1.0715    4.3651    0.6647 C   0  0  0  0  0  0  0  0  0  0  0  0
    1.2320    5.1090    1.4597 H   0  0  0  0  0  0  0  0  0  0  0  0
    0.4052    4.7288   -0.5146 C   0  0  0  0  0  0  0  0  0  0  0  0
    0.0344    5.7558   -0.6499 H   0  0  0  0  0  0  0  0  0  0  0  0
    0.2129    3.7685   -1.5189 C   0  0  0  0  0  0  0  0  0  0  0  0
   -0.3098    4.0314   -2.4509 H   0  0  0  0  0  0  0  0  0  0  0  0
    0.6797    2.4594   -1.3380 C   0  0  0  0  0  0  0  0  0  0  0  0
    0.5392    1.7364   -2.1540 H   0  0  0  0  0  0  0  0  0  0  0  0
  1  3  1  0  0  0  0
  1 16  1  0  0  0  0
  2  1  1  0  0  0  0
  3  4  1  0  0  0  0
  4  5  1  0  0  0  0
  4  6  1  0  0  0  0
  7  8  1  0  0  0  0
  7  4  1  0  0  0  0
  7  9  1  0  0  0  0
 10  7  1  0  0  0  0
 11 10  1  0  0  0  0
 12 10  1  0  0  0  0
 13 10  1  0  0  0  0
 13  3  1  0  0  0  0
 14 13  1  0  0  0  0
 15 13  1  0  0  0  0
 16 17  1  0  0  0  0
 17 26  2  0  0  0  0
 17 18  1  0  0  0  0
 18 20  2  0  0  0  0
 19 18  1  0  0  0  0
 20 22  1  0  0  0  0
 20 21  1  0  0  0  0
 22 23  1  0  0  0  0
 24 25  1  0  0  0  0
 24 22  2  0  0  0  0
 26 24  1  0  0  0  0
 27 26  1  0  0  0  0
 28 29  1  0  0  0  0
 28 16  1  0  0  0  0
 29 30  1  0  0  0  0
 31 32  1  0  0  0  0
 31 29  2  0  0  0  0
 33 31  1  0  0  0  0
 34 33  1  0  0  0  0
 35 33  2  0  0  0  0
 35 37  1  0  0  0  0
 36 35  1  0  0  0  0
 37 28  2  0  0  0  0
 38 37  1  0  0  0  0
 39 16  1  0  0  0  0
 39 40  1  0  0  0  0
 40 41  1  0  0  0  0
 42 40  2  0  0  0  0
 42 43  1  0  0  0  0
 44 42  1  0  0  0  0
 45 44  1  0  0  0  0
 46 48  1  0  0  0  0
 46 44  2  0  0  0  0
 47 46  1  0  0  0  0
 48 39  2  0  0  0  0
 49 48  1  0  0  0  0
M  END
