2
q = 0.0, confidence = 0.988

 67 71  0  0  1  0  0  0  0  0999 V2000
    0.9033   -1.4319   -0.6447 P   0  0  1  0  0  0  0  0  0  0  0  0
   -0.3768    0.0614    0.2814 P   0  0  0  0  0  2  0  0  0  0  0  0
    2.3976   -0.4346   -0.5360 C   0  0  0  0  0  0  0  0  0  0  0  0
    2.1918    0.9088   -0.1854 C   0  0  0  0  0  0  0  0  0  0  0  0
    0.8554    1.3120    0.1835 C   0  0  1  0  0  3  0  0  0  0  0  0
    1.2525   -2.9801    0.4096 C   0  0  2  0  0  0  0  0  0  0  0  0
    1.8790   -3.5606   -0.3001 H   0  0  0  0  0  0  0  0  0  0  0  0
   -0.0390   -3.7802    0.7063 C   0  0  1  0  0  0  0  0  0  0  0  0
    0.3256   -4.7761    1.0592 H   0  0  0  0  0  0  0  0  0  0  0  0
   -0.8158   -3.1378    1.8705 C   0  0  0  0  0  0  0  0  0  0  0  0
   -1.6837   -3.7712    2.1371 H   0  0  0  0  0  0  0  0  0  0  0  0
   -1.2425   -2.1724    1.5222 H   0  0  0  0  0  0  0  0  0  0  0  0
    0.0384   -2.8815    3.1158 C   0  0  0  0  0  0  0  0  0  0  0  0
   -0.5748   -2.3782    3.8934 H   0  0  0  0  0  0  0  0  0  0  0  0
    0.3606   -3.8537    3.5556 H   0  0  0  0  0  0  0  0  0  0  0  0
    1.2894   -2.0483    2.8056 C   0  0  2  0  0  0  0  0  0  0  0  0
    0.9505   -1.0562    2.4240 H   0  0  0  0  0  0  0  0  0  0  0  0
    2.0747   -2.7304    1.6819 C   0  0  0  0  0  0  0  0  0  0  0  0
    2.4111   -3.7298    2.0458 H   0  0  0  0  0  0  0  0  0  0  0  0
    2.9987   -2.1684    1.4444 H   0  0  0  0  0  0  0  0  0  0  0  0
   -0.9208   -4.0452   -0.5417 C   0  0  0  0  0  0  0  0  0  0  0  0
   -1.3418   -3.0625   -0.8619 H   0  0  0  0  0  0  0  0  0  0  0  0
   -0.1143   -4.6078   -1.7198 C   0  0  0  0  0  0  0  0  0  0  0  0
    0.6460   -3.8930   -2.0940 H   0  0  0  0  0  0  0  0  0  0  0  0
   -0.7830   -4.8374   -2.5731 H   0  0  0  0  0  0  0  0  0  0  0  0
    0.4047   -5.5484   -1.4356 H   0  0  0  0  0  0  0  0  0  0  0  0
   -2.1027   -4.9722   -0.2243 C   0  0  0  0  0  0  0  0  0  0  0  0
   -2.6928   -5.1739   -1.1407 H   0  0  0  0  0  0  0  0  0  0  0  0
   -2.7960   -4.5386    0.5201 H   0  0  0  0  0  0  0  0  0  0  0  0
   -1.7440   -5.9498    0.1637 H   0  0  0  0  0  0  0  0  0  0  0  0
    2.1597   -1.8135    4.0404 C   0  0  0  0  0  0  0  0  0  0  0  0
    2.5329   -2.7750    4.4537 H   0  0  0  0  0  0  0  0  0  0  0  0
    1.5906   -1.3032    4.8440 H   0  0  0  0  0  0  0  0  0  0  0  0
    3.0433   -1.1873    3.7992 H   0  0  0  0  0  0  0  0  0  0  0  0
    3.6918   -1.0833   -0.8081 C   0  0  0  0  0  0  0  0  0  0  0  0
    3.8012   -2.0540   -1.8346 C   0  0  0  0  0  0  0  0  0  0  0  0
    2.9266   -2.2544   -2.4741 H   0  0  0  0  0  0  0  0  0  0  0  0
    5.0077   -2.7289   -2.0644 C   0  0  0  0  0  0  0  0  0  0  0  0
    5.0700   -3.4727   -2.8732 H   0  0  0  0  0  0  0  0  0  0  0  0
    6.1338   -2.4486   -1.2750 C   0  0  0  0  0  0  0  0  0  0  0  0
    7.0827   -2.9755   -1.4562 H   0  0  0  0  0  0  0  0  0  0  0  0
    6.0413   -1.4894   -0.2517 C   0  0  0  0  0  0  0  0  0  0  0  0
    6.9171   -1.2686    0.3771 H   0  0  0  0  0  0  0  0  0  0  0  0
    4.8384   -0.8139   -0.0181 C   0  0  0  0  0  0  0  0  0  0  0  0
    4.7718   -0.0772    0.7948 H   0  0  0  0  0  0  0  0  0  0  0  0
    3.3064    1.8981   -0.1956 C   0  0  0  0  0  0  0  0  0  0  0  0
    4.1017    2.0710   -1.3488 C   0  0  0  0  0  0  0  0  0  0  0  0
    3.8835    1.4724   -2.2456 H   0  0  0  0  0  0  0  0  0  0  0  0
    5.1545    2.9960   -1.3555 C   0  0  0  0  0  0  0  0  0  0  0  0
    5.7627    3.1235   -2.2639 H   0  0  0  0  0  0  0  0  0  0  0  0
    5.4320    3.7582   -0.2092 C   0  0  0  0  0  0  0  0  0  0  0  0
    6.2596    4.4836   -0.2147 H   0  0  0  0  0  0  0  0  0  0  0  0
    4.6464    3.5933    0.9430 C   0  0  0  0  0  0  0  0  0  0  0  0
    4.8570    4.1882    1.8447 H   0  0  0  0  0  0  0  0  0  0  0  0
    3.5882    2.6743    0.9493 C   0  0  0  0  0  0  0  0  0  0  0  0
    2.9697    2.5492    1.8503 H   0  0  0  0  0  0  0  0  0  0  0  0
    0.4626    2.7134    0.4374 C   0  0  0  0  0  0  0  0  0  0  0  0
    0.8297    3.7534   -0.4494 C   0  0  0  0  0  0  0  0  0  0  0  0
    1.4463    3.5221   -1.3291 H   0  0  0  0  0  0  0  0  0  0  0  0
    0.3844    5.0624   -0.2329 C   0  0  0  0  0  0  0  0  0  0  0  0
    0.6673    5.8552   -0.9417 H   0  0  0  0  0  0  0  0  0  0  0  0
   -0.4303    5.3635    0.8713 C   0  0  0  0  0  0  0  0  0  0  0  0
   -0.7817    6.3934    1.0347 H   0  0  0  0  0  0  0  0  0  0  0  0
   -0.7937    4.3438    1.7650 C   0  0  0  0  0  0  0  0  0  0  0  0
   -1.4306    4.5653    2.6344 H   0  0  0  0  0  0  0  0  0  0  0  0
   -0.3473    3.0333    1.5519 C   0  0  0  0  0  0  0  0  0  0  0  0
   -0.6153    2.2377    2.2630 H   0  0  0  0  0  0  0  0  0  0  0  0
  1  3  1  1  0  0  0
  1  2  1  0  0  0  0
  1  6  1  0  0  0  0
  3  4  2  0  0  0  0
  4  5  1  0  0  0  0
  5  2  1  0  0  0  0
  5 57  1  6  0  0  0
  6  7  1  6  0  0  0
  6  8  1  0  0  0  0
  6 18  1  0  0  0  0
  8  9  1  1  0  0  0
  8 10  1  0  0  0  0
 10 11  1  0  0  0  0
 10 13  1  0  0  0  0
 12 10  1  0  0  0  0
 13 15  1  0  0  0  0
 13 14  1  0  0  0  0
 16 17  1  6  0  0  0
 16 13  1  0  0  0  0
 16 31  1  0  0  0  0
 18 19  1  0  0  0  0
 18 16  1  0  0  0  0
 20 18  1  0  0  0  0
 21 27  1  0  0  0  0
 21  8  1  0  0  0  0
 22 21  1  0  0  0  0
 23 26  1  0  0  0  0
 23 21  1  0  0  0  0
 24 23  1  0  0  0  0
 25 23  1  0  0  0  0
 27 30  1  0  0  0  0
 27 29  1  0  0  0  0
 28 27  1  0  0  0  0
 31 32  1  0  0  0  0
 31 33  1  0  0  0  0
 34 31  1  0  0  0  0
 35  3  1  0  0  0  0
 35 44  1  0  0  0  0
 36 35  2  0  0  0  0
 37 36  1  0  0  0  0
 38 36  1  0  0  0  0
 38 40  2  0  0  0  0
 39 38  1  0  0  0  0
 40 42  1  0  0  0  0
 41 40  1  0  0  0  0
 42 44  2  0  0  0  0
 42 43  1  0  0  0  0
 44 45  1  0  0  0  0
 46  4  1  0  0  0  0
 46 55  1  0  0  0  0
 47 46  2  0  0  0  0
 48 47  1  0  0  0  0
 49 47  1  0  0  0  0
 49 51  2  0  0  0  0
 50 49  1  0  0  0  0
 51 53  1  0  0  0  0
 52 51  1  0  0  0  0
 53 55  2  0  0  0  0
 53 54  1  0  0  0  0
 55 56  1  0  0  0  0
 57 66  1  0  0  0  0
 58 60  1  0  0  0  0
 58 57  2  0  0  0  0
 59 58  1  0  0  0  0
 60 62  2  0  0  0  0
 61 60  1  0  0  0  0
 62 63  1  0  0  0  0
 62 64  1  0  0  0  0
 64 65  1  0  0  0  0
 66 64  2  0  0  0  0
 66 67  1  0  0  0  0
M  END
