1
q = 0.0, confidence = 0.99

 62 63  0  0  1  0  0  0  0  0999 V2000
    0.4861    0.4971    0.1909 P   0  0  2  0  0  0  0  0  0  0  0  0
    1.5663    3.3485   -0.7370 Si  0  0  0  0  0  0  0  0  0  0  0  0
    3.1432    1.5872    1.5204 Si  0  0  0  0  0  0  0  0  0  0  0  0
   -0.8286    1.1935   -0.6748 N   0  0  0  0  0  2  0  0  0  0  0  0
   -3.0559    1.8424   -0.4616 N   0  0  0  0  0  0  0  0  0  0  0  0
   -2.1048   -1.1551    1.8351 O   0  0  0  0  0  0  0  0  0  0  0  0
   -3.7805    0.2040    2.5381 O   0  0  0  0  0  0  0  0  0  0  0  0
   -1.8748    1.4260    0.0713 C   0  0  1  0  0  3  0  0  0  0  0  0
   -1.7496    1.1807    1.6021 C   0  0  2  0  0  0  0  0  0  0  0  0
   -2.0956    2.0816    2.1457 H   0  0  0  0  0  0  0  0  0  0  0  0
   -0.2602    0.9051    1.8739 C   0  0  0  0  0  0  0  0  0  0  0  0
   -0.1091    0.0861    2.5982 H   0  0  0  0  0  0  0  0  0  0  0  0
    0.2377    1.8157    2.2565 H   0  0  0  0  0  0  0  0  0  0  0  0
    1.9464    1.6121    0.0039 C   0  0  0  0  0  0  0  0  0  0  0  0
    2.5501    1.1159   -0.7894 H   0  0  0  0  0  0  0  0  0  0  0  0
    0.9733    3.1603   -2.5202 C   0  0  0  0  0  0  0  0  0  0  0  0
    0.0210    2.5985   -2.5541 H   0  0  0  0  0  0  0  0  0  0  0  0
    1.7177    2.6039   -3.1261 H   0  0  0  0  0  0  0  0  0  0  0  0
    0.8288    4.1570   -2.9867 H   0  0  0  0  0  0  0  0  0  0  0  0
    3.1684    4.3662   -0.8092 C   0  0  0  0  0  0  0  0  0  0  0  0
    2.9478    5.3389   -1.2967 H   0  0  0  0  0  0  0  0  0  0  0  0
    3.9368    3.8555   -1.4250 H   0  0  0  0  0  0  0  0  0  0  0  0
    3.6111    4.5819    0.1827 H   0  0  0  0  0  0  0  0  0  0  0  0
    0.2926    4.2993    0.2965 C   0  0  0  0  0  0  0  0  0  0  0  0
    0.2172    5.3402   -0.0813 H   0  0  0  0  0  0  0  0  0  0  0  0
    0.5785    4.3533    1.3656 H   0  0  0  0  0  0  0  0  0  0  0  0
   -0.7134    3.8426    0.2210 H   0  0  0  0  0  0  0  0  0  0  0  0
    4.9069    1.6527    0.8437 C   0  0  0  0  0  0  0  0  0  0  0  0
    5.0914    2.5482    0.2198 H   0  0  0  0  0  0  0  0  0  0  0  0
    5.1080    0.7505    0.2304 H   0  0  0  0  0  0  0  0  0  0  0  0
    5.6351    1.6614    1.6809 H   0  0  0  0  0  0  0  0  0  0  0  0
    3.0027    0.0112    2.5656 C   0  0  0  0  0  0  0  0  0  0  0  0
    3.7877    0.0556    3.3497 H   0  0  0  0  0  0  0  0  0  0  0  0
    3.1770   -0.9060    1.9724 H   0  0  0  0  0  0  0  0  0  0  0  0
    2.0295   -0.0953    3.0820 H   0  0  0  0  0  0  0  0  0  0  0  0
    2.8409    3.0451    2.6991 C   0  0  0  0  0  0  0  0  0  0  0  0
    3.5825    2.9950    3.5235 H   0  0  0  0  0  0  0  0  0  0  0  0
    1.8341    3.0089    3.1631 H   0  0  0  0  0  0  0  0  0  0  0  0
    2.9528    4.0305    2.2066 H   0  0  0  0  0  0  0  0  0  0  0  0
   -3.2211    1.8884   -1.9181 C   0  0  0  0  0  0  0  0  0  0  0  0
   -2.2755    1.5392   -2.3700 H   0  0  0  0  0  0  0  0  0  0  0  0
   -3.3807    2.9481   -2.2255 H   0  0  0  0  0  0  0  0  0  0  0  0
   -4.4137    1.0245   -2.3429 C   0  0  0  0  0  0  0  0  0  0  0  0
   -4.1728   -0.0364   -2.1156 H   0  0  0  0  0  0  0  0  0  0  0  0
   -4.5447    1.1002   -3.4423 H   0  0  0  0  0  0  0  0  0  0  0  0
   -5.6909    1.4447   -1.6057 C   0  0  0  0  0  0  0  0  0  0  0  0
   -5.9826    2.4684   -1.9333 H   0  0  0  0  0  0  0  0  0  0  0  0
   -6.5361    0.7776   -1.8735 H   0  0  0  0  0  0  0  0  0  0  0  0
   -5.4655    1.4440   -0.0891 C   0  0  0  0  0  0  0  0  0  0  0  0
   -6.3500    1.8454    0.4474 H   0  0  0  0  0  0  0  0  0  0  0  0
   -5.3128    0.4072    0.2780 H   0  0  0  0  0  0  0  0  0  0  0  0
   -4.2339    2.2749    0.2914 C   0  0  0  0  0  0  0  0  0  0  0  0
   -4.4184    3.3494    0.0536 H   0  0  0  0  0  0  0  0  0  0  0  0
   -4.0475    2.1917    1.3752 H   0  0  0  0  0  0  0  0  0  0  0  0
   -2.6720    0.0440    2.0564 C   0  0  0  0  0  0  0  0  0  0  0  0
   -2.8664   -2.3336    2.2042 C   0  0  0  0  0  0  0  0  0  0  0  0
   -2.4878   -3.1224    1.5272 H   0  0  0  0  0  0  0  0  0  0  0  0
   -3.9353   -2.1416    1.9837 H   0  0  0  0  0  0  0  0  0  0  0  0
   -2.6492   -2.6888    3.6638 C   0  0  0  0  0  0  0  0  0  0  0  0
   -1.5726   -2.8424    3.8723 H   0  0  0  0  0  0  0  0  0  0  0  0
   -3.1861   -3.6288    3.9030 H   0  0  0  0  0  0  0  0  0  0  0  0
   -3.0422   -1.8927    4.3258 H   0  0  0  0  0  0  0  0  0  0  0  0
  1 14  1  6  0  0  0
  1 11  1  0  0  0  0
  2 14  1  0  0  0  0
  2 24  1  0  0  0  0
  3 32  1  0  0  0  0
  3 36  1  0  0  0  0
  4  8  1  0  0  0  0
  4  1  1  0  0  0  0
  5 52  1  0  0  0  0
  6 55  1  0  0  0  0
  6 56  1  0  0  0  0
  8  5  1  6  0  0  0
  8  9  1  0  0  0  0
  9 11  1  0  0  0  0
  9 55  1  0  0  0  0
  9 10  1  1  0  0  0
 11 13  1  0  0  0  0
 11 12  1  0  0  0  0
 14  3  1  0  0  0  0
 15 14  1  0  0  0  0
 16  2  1  0  0  0  0
 17 16  1  0  0  0  0
 18 16  1  0  0  0  0
 19 16  1  0  0  0  0
 20  2  1  0  0  0  0
 20 23  1  0  0  0  0
 21 20  1  0  0  0  0
 22 20  1  0  0  0  0
 24 26  1  0  0  0  0
 25 24  1  0  0  0  0
 27 24  1  0  0  0  0
 28  3  1  0  0  0  0
 28 31  1  0  0  0  0
 29 28  1  0  0  0  0
 30 28  1  0  0  0  0
 32 35  1  0  0  0  0
 32 33  1  0  0  0  0
 34 32  1  0  0  0  0
 36 38  1  0  0  0  0
 36 37  1  0  0  0  0
 39 36  1  0  0  0  0
 40  5  1  0  0  0  0
 41 40  1  0  0  0  0
 42 40  1  0  0  0  0
 43 44  1  0  0  0  0
 43 40  1  0  0  0  0
 43 46  1  0  0  0  0
 45 43  1  0  0  0  0
 46 49  1  0  0  0  0
 47 46  1  0  0  0  0
 48 46  1  0  0  0  0
 49 51  1  0  0  0  0
 49 52  1  0  0  0  0
 49 50  1  0  0  0  0
 52 54  1  0  0  0  0
 53 52  1  0  0  0  0
 55  7  2  0  0  0  0
 56 59  1  0  0  0  0
 57 56  1  0  0  0  0
 58 56  1  0  0  0  0
 59 60  1  0  0  0  0
 59 61  1  0  0  0  0
 59 62  1  0  0  0  0
M  END
