1
q = 0.0, confidence = 1.0

 25 27  0  0  0  0  0  0  0  0999 V2000
    0.4818   -0.0069    0.8678 P   0  0  0  0  0  0  0  0  0  0  0  0
    0.5178   -0.0061    2.7182 C   0  0  0  0  0  0  0  0  0  0  0  0
   -0.0152   -0.9059    3.0825 H   0  0  0  0  0  0  0  0  0  0  0  0
   -0.0205    0.8914    3.0806 H   0  0  0  0  0  0  0  0  0  0  0  0
    1.5592   -0.0026    3.0917 H   0  0  0  0  0  0  0  0  0  0  0  0
    1.6756    1.3022    0.4009 C   0  0  0  0  0  0  0  0  0  0  0  0
    1.4859    2.6882    0.4551 C   0  0  0  0  0  0  0  0  0  0  0  0
    0.5368    3.1087    0.8225 H   0  0  0  0  0  0  0  0  0  0  0  0
    2.5200    3.5356    0.0229 C   0  0  0  0  0  0  0  0  0  0  0  0
    2.3856    4.6269    0.0607 H   0  0  0  0  0  0  0  0  0  0  0  0
    3.7206    2.9920   -0.4689 C   0  0  0  0  0  0  0  0  0  0  0  0
    4.5217    3.6635   -0.8127 H   0  0  0  0  0  0  0  0  0  0  0  0
    3.9063    1.6029   -0.5350 C   0  0  0  0  0  0  0  0  0  0  0  0
    4.8477    1.1920   -0.9302 H   0  0  0  0  0  0  0  0  0  0  0  0
    2.8830    0.7416   -0.0977 C   0  0  0  0  0  0  0  0  0  0  0  0
    2.8892   -0.7344   -0.0982 C   0  0  0  0  0  0  0  0  0  0  0  0
    3.9198   -1.5867   -0.5357 C   0  0  0  0  0  0  0  0  0  0  0  0
    4.8577   -1.1677   -0.9305 H   0  0  0  0  0  0  0  0  0  0  0  0
    3.7460   -2.9775   -0.4700 C   0  0  0  0  0  0  0  0  0  0  0  0
    4.5528   -3.6419   -0.8141 H   0  0  0  0  0  0  0  0  0  0  0  0
    2.5501   -3.5315    0.0217 C   0  0  0  0  0  0  0  0  0  0  0  0
    2.4252   -4.6239    0.0591 H   0  0  0  0  0  0  0  0  0  0  0  0
    1.5090   -2.6930    0.4541 C   0  0  0  0  0  0  0  0  0  0  0  0
    0.5635   -3.1217    0.8215 H   0  0  0  0  0  0  0  0  0  0  0  0
    1.6865   -1.3054    0.4001 C   0  0  0  0  0  0  0  0  0  0  0  0
  1  2  1  0  0  0  0
  2  4  1  0  0  0  0
  2  3  1  0  0  0  0
  2  5  1  0  0  0  0
  6  7  1  0  0  0  0
  6  1  1  0  0  0  0
  7  8  1  0  0  0  0
  9 10  1  0  0  0  0
  9  7  2  0  0  0  0
 11  9  1  0  0  0  0
 12 11  1  0  0  0  0
 13 11  2  0  0  0  0
 13 15  1  0  0  0  0
 14 13  1  0  0  0  0
 15  6  2  0  0  0  0
 16 15  1  0  0  0  0
 16 25  1  0  0  0  0
 17 19  1  0  0  0  0
 17 16  2  0  0  0  0
 18 17  1  0  0  0  0
 19 21  2  0  0  0  0
 20 19  1  0  0  0  0
 21 22  1  0  0  0  0
 21 23  1  0  0  0  0
 23 24  1  0  0  0  0
 25 23  2  0  0  0  0
 25  1  1  0  0  0  0
M  END
