1
q = 0.0, confidence = 0.996

 17 17  0  0  0  0  0  0  0  0999 V2000
    1.1122    1.2110   -0.1999 P   0  0  0  0  0  0  0  0  0  0  0  0
    1.4386    2.4936    1.0833 C   0  0  0  0  0  0  0  0  0  0  0  0
    2.5472    0.0771   -0.1153 C   0  0  0  0  0  0  0  0  0  0  0  0
    2.3774   -1.2169    0.4155 C   0  0  0  0  0  0  0  0  0  0  0  0
    3.4784   -2.0804    0.5209 C   0  0  0  0  0  0  0  0  0  0  0  0
    4.7467   -1.6599    0.0918 C   0  0  0  0  0  0  0  0  0  0  0  0
    4.9180   -0.3727   -0.4448 C   0  0  0  0  0  0  0  0  0  0  0  0
    3.8229    0.4962   -0.5481 C   0  0  0  0  0  0  0  0  0  0  0  0
    1.3896    1.9357   -1.4020 H   0  0  0  0  0  0  0  0  0  0  0  0
    1.3759   -1.5461    0.7357 H   0  0  0  0  0  0  0  0  0  0  0  0
    3.3407   -3.0906    0.9346 H   0  0  0  0  0  0  0  0  0  0  0  0
    5.6076   -2.3409    0.1696 H   0  0  0  0  0  0  0  0  0  0  0  0
    5.9105   -0.0451   -0.7892 H   0  0  0  0  0  0  0  0  0  0  0  0
    3.9625    1.5026   -0.9743 H   0  0  0  0  0  0  0  0  0  0  0  0
    2.4510    2.9263    0.9661 H   0  0  0  0  0  0  0  0  0  0  0  0
    0.6730    3.2893    1.0005 H   0  0  0  0  0  0  0  0  0  0  0  0
    1.3510    2.0189    2.0791 H   0  0  0  0  0  0  0  0  0  0  0  0
  1  3  1  0  0  0  0
  1  2  1  0  0  0  0
  2 17  1  0  0  0  0
  3  4  1  0  0  0  0
  4  5  2  0  0  0  0
  4 10  1  0  0  0  0
  5 11  1  0  0  0  0
  6 12  1  0  0  0  0
  6  5  1  0  0  0  0
  7  6  2  0  0  0  0
  8  7  1  0  0  0  0
  8  3  2  0  0  0  0
  9  1  1  0  0  0  0
 13  7  1  0  0  0  0
 14  8  1  0  0  0  0
 15  2  1  0  0  0  0
 16  2  1  0  0  0  0
M  END
