1
q = 0.0, confidence = 1.0

 34 36  0  0  0  0  0  0  0  0999 V2000
    0.6774   -0.0943    0.7059 P   0  0  2  0  0  0  0  0  0  0  0  0
    0.8915   -0.3991    2.3684 N   0  0  0  0  0  0  0  0  0  0  0  0
    2.2299   -0.4251    2.9393 C   0  0  0  0  0  0  0  0  0  0  0  0
    2.4137    0.4602    3.5900 H   0  0  0  0  0  0  0  0  0  0  0  0
    2.9965   -0.4336    2.1421 H   0  0  0  0  0  0  0  0  0  0  0  0
    2.3709   -1.3386    3.5579 H   0  0  0  0  0  0  0  0  0  0  0  0
   -0.1908   -0.4344    3.3350 C   0  0  0  0  0  0  0  0  0  0  0  0
   -0.1382   -1.3609    3.9481 H   0  0  0  0  0  0  0  0  0  0  0  0
   -1.1661   -0.4237    2.8178 H   0  0  0  0  0  0  0  0  0  0  0  0
   -0.1561    0.4393    4.0250 H   0  0  0  0  0  0  0  0  0  0  0  0
    1.8094   -1.1590   -0.0609 N   0  0  0  0  0  0  0  0  0  0  0  0
    1.6494   -2.6107   -0.0819 C   0  0  0  0  0  0  0  0  0  0  0  0
    1.0172   -2.9192   -0.9427 H   0  0  0  0  0  0  0  0  0  0  0  0
    1.1222   -2.9244    0.8443 H   0  0  0  0  0  0  0  0  0  0  0  0
    3.0324   -3.2580   -0.1844 C   0  0  0  0  0  0  0  0  0  0  0  0
    2.9254   -4.3496   -0.3435 H   0  0  0  0  0  0  0  0  0  0  0  0
    3.5775   -3.1164    0.7735 H   0  0  0  0  0  0  0  0  0  0  0  0
    3.8343   -2.6076   -1.3216 C   0  0  0  0  0  0  0  0  0  0  0  0
    4.8693   -3.0106   -1.3416 H   0  0  0  0  0  0  0  0  0  0  0  0
    3.3891   -2.8848   -2.3062 H   0  0  0  0  0  0  0  0  0  0  0  0
    3.9075   -1.1570   -1.2385 N   0  0  0  0  0  0  0  0  0  0  0  0
    2.9452   -0.5606   -0.6339 C   0  0  0  0  0  0  0  0  0  0  0  0
    2.8816    0.9253   -0.4176 C   0  0  0  0  0  0  0  0  0  0  0  0
    3.7722    1.7494   -0.8348 N   0  0  0  0  0  0  0  0  0  0  0  0
    3.5586    3.1615   -0.5581 C   0  0  0  0  0  0  0  0  0  0  0  0
    3.9822    3.7491   -1.4006 H   0  0  0  0  0  0  0  0  0  0  0  0
    4.1748    3.4396    0.3297 H   0  0  0  0  0  0  0  0  0  0  0  0
    2.0918    3.5541   -0.3279 C   0  0  0  0  0  0  0  0  0  0  0  0
    1.5323    3.4785   -1.2830 H   0  0  0  0  0  0  0  0  0  0  0  0
    2.0109    4.6037    0.0192 H   0  0  0  0  0  0  0  0  0  0  0  0
    1.4480    2.6156    0.6953 C   0  0  0  0  0  0  0  0  0  0  0  0
    1.8531    2.8116    1.7151 H   0  0  0  0  0  0  0  0  0  0  0  0
    0.3491    2.7661    0.7498 H   0  0  0  0  0  0  0  0  0  0  0  0
    1.7184    1.2351    0.3085 N   0  0  0  0  0  0  0  0  0  0  0  0
  1  2  1  1  0  0  0
  2  3  1  0  0  0  0
  2  7  1  0  0  0  0
  3  6  1  0  0  0  0
  3  4  1  0  0  0  0
  5  3  1  0  0  0  0
  7  8  1  0  0  0  0
  7 10  1  0  0  0  0
  9  7  1  0  0  0  0
 11  1  1  0  0  0  0
 12 11  1  0  0  0  0
 12 14  1  0  0  0  0
 13 12  1  0  0  0  0
 15 12  1  0  0  0  0
 15 17  1  0  0  0  0
 16 15  1  0  0  0  0
 18 21  1  0  0  0  0
 18 15  1  0  0  0  0
 19 18  1  0  0  0  0
 20 18  1  0  0  0  0
 21 22  2  0  0  0  0
 22 23  1  0  0  0  0
 22 11  1  0  0  0  0
 23 34  1  0  0  0  0
 24 25  1  0  0  0  0
 24 23  2  0  0  0  0
 25 28  1  0  0  0  0
 25 27  1  0  0  0  0
 26 25  1  0  0  0  0
 28 30  1  0  0  0  0
 28 31  1  0  0  0  0
 29 28  1  0  0  0  0
 31 33  1  0  0  0  0
 31 32  1  0  0  0  0
 34 31  1  0  0  0  0
 34  1  1  0  0  0  0
M  END
