1
q = 0.0, confidence = 0.992

 58 59  0  0  0  0  0  0  0  0999 V2000
   -0.1790    0.4830    0.1574 P   0  0  2  0  0  0  0  0  0  0  0  0
    1.0597    0.4995   -1.0555 N   0  0  0  0  0  0  0  0  0  0  0  0
    0.8331    2.9463    1.9252 Si  0  0  0  0  0  0  0  0  0  0  0  0
   -0.4275    3.3692   -1.0351 Si  0  0  0  0  0  0  0  0  0  0  0  0
    1.3852   -1.4375    3.4616 O   0  0  0  0  0  0  0  0  0  0  0  0
   -0.7238   -0.7232    3.0250 O   0  0  0  0  0  0  0  0  0  0  0  0
    4.1375   -1.1016    1.8007 O   0  0  0  0  0  0  0  0  0  0  0  0
    2.8193   -2.8956    1.3295 O   0  0  0  0  0  0  0  0  0  0  0  0
   -0.3739    2.2582    0.5753 C   0  0  0  0  0  0  0  0  0  0  0  0
   -1.3972    2.3314    1.0068 H   0  0  0  0  0  0  0  0  0  0  0  0
    0.5238    4.8080    2.1180 C   0  0  0  0  0  0  0  0  0  0  0  0
    1.1891    5.1878    2.9214 H   0  0  0  0  0  0  0  0  0  0  0  0
   -0.5216    5.0085    2.4302 H   0  0  0  0  0  0  0  0  0  0  0  0
    0.7294    5.3978    1.2046 H   0  0  0  0  0  0  0  0  0  0  0  0
    0.4509    2.1973    3.6283 C   0  0  0  0  0  0  0  0  0  0  0  0
    0.7262    2.9402    4.4055 H   0  0  0  0  0  0  0  0  0  0  0  0
    1.0427    1.2841    3.8318 H   0  0  0  0  0  0  0  0  0  0  0  0
   -0.6239    1.9595    3.7524 H   0  0  0  0  0  0  0  0  0  0  0  0
    2.6520    2.6294    1.5162 C   0  0  0  0  0  0  0  0  0  0  0  0
    2.9081    2.8735    0.4684 H   0  0  0  0  0  0  0  0  0  0  0  0
    2.9462    1.5792    1.7096 H   0  0  0  0  0  0  0  0  0  0  0  0
    3.2748    3.2707    2.1746 H   0  0  0  0  0  0  0  0  0  0  0  0
   -1.6954    4.7256   -0.6659 C   0  0  0  0  0  0  0  0  0  0  0  0
   -2.7018    4.2708   -0.5558 H   0  0  0  0  0  0  0  0  0  0  0  0
   -1.7415    5.4347   -1.5183 H   0  0  0  0  0  0  0  0  0  0  0  0
   -1.4725    5.3055    0.2495 H   0  0  0  0  0  0  0  0  0  0  0  0
    1.2845    4.0739   -1.4264 C   0  0  0  0  0  0  0  0  0  0  0  0
    1.9760    3.2439   -1.6765 H   0  0  0  0  0  0  0  0  0  0  0  0
    1.7359    4.6796   -0.6182 H   0  0  0  0  0  0  0  0  0  0  0  0
    1.1968    4.7198   -2.3246 H   0  0  0  0  0  0  0  0  0  0  0  0
   -0.9717    2.5136   -2.6289 C   0  0  0  0  0  0  0  0  0  0  0  0
   -1.9891    2.0855   -2.5928 H   0  0  0  0  0  0  0  0  0  0  0  0
   -0.2552    1.7232   -2.9182 H   0  0  0  0  0  0  0  0  0  0  0  0
   -0.9682    3.2929   -3.4206 H   0  0  0  0  0  0  0  0  0  0  0  0
    0.8874   -0.4368    1.3439 C   0  0  0  0  0  0  0  0  0  0  0  0
    2.0457   -0.7705    0.6888 C   0  0  0  0  0  0  0  0  0  0  0  0
    2.1061   -0.1966   -0.6863 C   0  0  0  0  0  0  0  0  0  0  0  0
    0.5720   -0.9289    2.7043 C   0  0  0  0  0  0  0  0  0  0  0  0
   -1.1095   -1.1347    4.3445 C   0  0  0  0  0  0  0  0  0  0  0  0
   -0.8023   -2.1823    4.5304 H   0  0  0  0  0  0  0  0  0  0  0  0
   -2.2073   -1.0347    4.3799 H   0  0  0  0  0  0  0  0  0  0  0  0
   -0.6280   -0.4839    5.1020 H   0  0  0  0  0  0  0  0  0  0  0  0
    3.1207   -1.5917    1.3394 C   0  0  0  0  0  0  0  0  0  0  0  0
    3.7156   -3.7437    2.0652 C   0  0  0  0  0  0  0  0  0  0  0  0
    4.7620   -3.5919    1.7352 H   0  0  0  0  0  0  0  0  0  0  0  0
    3.3859   -4.7781    1.8669 H   0  0  0  0  0  0  0  0  0  0  0  0
    3.6391   -3.5103    3.1459 H   0  0  0  0  0  0  0  0  0  0  0  0
    3.2076   -0.4196   -1.6505 C   0  0  0  0  0  0  0  0  0  0  0  0
    2.8769   -0.5323   -3.0219 C   0  0  0  0  0  0  0  0  0  0  0  0
    1.8181   -0.4912   -3.3158 H   0  0  0  0  0  0  0  0  0  0  0  0
    3.8813   -0.7125   -3.9785 C   0  0  0  0  0  0  0  0  0  0  0  0
    3.6118   -0.8134   -5.0407 H   0  0  0  0  0  0  0  0  0  0  0  0
    5.2292   -0.7682   -3.5837 C   0  0  0  0  0  0  0  0  0  0  0  0
    6.0192   -0.9088   -4.3371 H   0  0  0  0  0  0  0  0  0  0  0  0
    5.5656   -0.6432   -2.2269 C   0  0  0  0  0  0  0  0  0  0  0  0
    6.6205   -0.6720   -1.9150 H   0  0  0  0  0  0  0  0  0  0  0  0
    4.5647   -0.4747   -1.2594 C   0  0  0  0  0  0  0  0  0  0  0  0
    4.8390   -0.3576   -0.2024 H   0  0  0  0  0  0  0  0  0  0  0  0
  1  9  1  1  0  0  0
  1 35  1  0  0  0  0
  2 37  2  0  0  0  0
  2  1  1  0  0  0  0
  3 11  1  0  0  0  0
  3 15  1  0  0  0  0
  4 23  1  0  0  0  0
  4  9  1  0  0  0  0
  6 39  1  0  0  0  0
  8 43  1  0  0  0  0
  8 44  1  0  0  0  0
  9 10  1  0  0  0  0
  9  3  1  0  0  0  0
 11 13  1  0  0  0  0
 11 12  1  0  0  0  0
 14 11  1  0  0  0  0
 15 18  1  0  0  0  0
 15 17  1  0  0  0  0
 15 16  1  0  0  0  0
 19 21  1  0  0  0  0
 19  3  1  0  0  0  0
 19 22  1  0  0  0  0
 20 19  1  0  0  0  0
 23 24  1  0  0  0  0
 23 26  1  0  0  0  0
 25 23  1  0  0  0  0
 27  4  1  0  0  0  0
 27 29  1  0  0  0  0
 28 27  1  0  0  0  0
 30 27  1  0  0  0  0
 31 32  1  0  0  0  0
 31  4  1  0  0  0  0
 33 31  1  0  0  0  0
 34 31  1  0  0  0  0
 35 38  1  0  0  0  0
 36 43  1  0  0  0  0
 36 35  2  0  0  0  0
 37 36  1  0  0  0  0
 38  6  1  0  0  0  0
 38  5  2  0  0  0  0
 39 41  1  0  0  0  0
 39 40  1  0  0  0  0
 39 42  1  0  0  0  0
 43  7  2  0  0  0  0
 44 47  1  0  0  0  0
 45 44  1  0  0  0  0
 46 44  1  0  0  0  0
 48 57  1  0  0  0  0
 48 37  1  0  0  0  0
 49 48  2  0  0  0  0
 50 49  1  0  0  0  0
 51 53  2  0  0  0  0
 51 49  1  0  0  0  0
 52 51  1  0  0  0  0
 53 55  1  0  0  0  0
 54 53  1  0  0  0  0
 55 56  1  0  0  0  0
 55 57  2  0  0  0  0
 57 58  1  0  0  0  0
M  END
