1
q = 0.0, confidence = 0.994

 30 32  0  0  0  0  0  0  0  0999 V2000
   -2.3646    0.0905    0.0012 P   0  0  0  0  0  0  0  0  0  0  0  0
   -3.2509   -0.8638   -1.2925 C   0  0  0  0  0  0  0  0  0  0  0  0
   -2.9086    1.8197   -0.2301 C   0  0  0  0  0  0  0  0  0  0  0  0
   -3.1576   -0.4964    1.5516 C   0  0  0  0  0  0  0  0  0  0  0  0
   -4.6634   -0.8596   -1.2758 C   0  0  0  0  0  0  0  0  0  0  0  0
   -5.2011   -0.2843   -0.5064 H   0  0  0  0  0  0  0  0  0  0  0  0
   -3.2917   -1.8895    1.7362 C   0  0  0  0  0  0  0  0  0  0  0  0
   -3.0291   -2.5954    0.9330 H   0  0  0  0  0  0  0  0  0  0  0  0
   -2.5674   -1.6113   -2.2680 C   0  0  0  0  0  0  0  0  0  0  0  0
   -1.4709   -1.6294   -2.2669 H   0  0  0  0  0  0  0  0  0  0  0  0
   -3.3872    2.3097   -1.5179 C   0  0  0  0  0  0  0  0  0  0  0  0
   -3.5822    1.5498   -2.2936 H   0  0  0  0  0  0  0  0  0  0  0  0
   -3.9569   -0.1238    3.8207 C   0  0  0  0  0  0  0  0  0  0  0  0
   -4.2205    0.5713    4.6325 H   0  0  0  0  0  0  0  0  0  0  0  0
   -3.2896   -2.3487   -3.2190 C   0  0  0  0  0  0  0  0  0  0  0  0
   -2.7468   -2.9439   -3.9681 H   0  0  0  0  0  0  0  0  0  0  0  0
   -2.6429    2.8007    0.7177 C   0  0  0  0  0  3  0  0  0  0  0  0
   -3.7536   -2.3874    2.9623 C   0  0  0  0  0  0  0  0  0  0  0  0
   -3.8467   -3.4756    3.0977 H   0  0  0  0  0  0  0  0  0  0  0  0
   -4.0880   -1.5090    4.0057 C   0  0  0  0  0  0  0  0  0  0  0  0
   -4.4516   -1.9050    4.9662 H   0  0  0  0  0  0  0  0  0  0  0  0
   -4.6916   -2.3368   -3.2057 C   0  0  0  0  0  0  0  0  0  0  0  0
   -5.2550   -2.9188   -3.9509 H   0  0  0  0  0  0  0  0  0  0  0  0
   -3.4896    0.3827    2.5989 C   0  0  0  0  0  0  0  0  0  0  0  0
   -3.3803    1.4714    2.4569 H   0  0  0  0  0  0  0  0  0  0  0  0
   -5.3786   -1.5889   -2.2339 C   0  0  0  0  0  0  0  0  0  0  0  0
   -6.4789   -1.5798   -2.2175 H   0  0  0  0  0  0  0  0  0  0  0  0
   -2.7882    4.1009    0.5886 C   0  0  0  0  0  3  0  0  0  0  0  0
   -3.5508    3.6963   -1.7086 C   0  0  0  0  0  3  0  0  0  0  0  0
   -3.2532    4.3643   -0.6357 C   0  0  0  0  0  3  0  0  0  0  0  0
  1  4  1  0  0  0  0
  2  5  1  0  0  0  0
  2  1  1  0  0  0  0
  3  1  1  0  0  0  0
  3 17  1  0  0  0  0
  4  7  2  0  0  0  0
  4 24  1  0  0  0  0
  5  6  1  0  0  0  0
  7 18  1  0  0  0  0
  8  7  1  0  0  0  0
  9 10  1  0  0  0  0
  9  2  2  0  0  0  0
 11  3  2  0  0  0  0
 12 11  1  0  0  0  0
 13 20  1  0  0  0  0
 13 14  1  0  0  0  0
 15 22  2  0  0  0  0
 15  9  1  0  0  0  0
 16 15  1  0  0  0  0
 18 19  1  0  0  0  0
 18 20  2  0  0  0  0
 20 21  1  0  0  0  0
 22 26  1  0  0  0  0
 23 22  1  0  0  0  0
 24 13  2  0  0  0  0
 25 24  1  0  0  0  0
 26 27  1  0  0  0  0
 26  5  2  0  0  0  0
 28 17  2  0  0  0  0
 29 11  1  0  0  0  0
 29 30  2  0  0  0  0
 30 28  1  0  0  0  0
M  END
