1
q = 0.0, confidence = 0.996

 19 18  0  0  0  0  0  0  0  0999 V2000
   -2.3009   -0.0938    0.0779 P   0  0  2  0  0  0  0  0  0  0  0  0
   -3.1305   -0.3609    1.9592 Cl  0  0  0  0  0  0  0  0  0  0  0  0
   -3.1623    1.4616   -0.5633 C   0  0  0  0  0  0  0  0  0  0  0  0
   -2.7650    1.6252   -2.0421 C   0  0  0  0  0  0  0  0  0  0  0  0
   -1.6667    1.6171   -2.1824 H   0  0  0  0  0  0  0  0  0  0  0  0
   -3.1922    0.8284   -2.6829 H   0  0  0  0  0  0  0  0  0  0  0  0
   -3.1610    2.5970   -2.4041 H   0  0  0  0  0  0  0  0  0  0  0  0
   -2.5956    2.6244    0.2725 C   0  0  0  0  0  0  0  0  0  0  0  0
   -1.4955    2.7047    0.1635 H   0  0  0  0  0  0  0  0  0  0  0  0
   -3.0538    3.5732   -0.0762 H   0  0  0  0  0  0  0  0  0  0  0  0
   -2.8204    2.5033    1.3501 H   0  0  0  0  0  0  0  0  0  0  0  0
   -4.6864    1.3631   -0.4112 C   0  0  0  0  0  0  0  0  0  0  0  0
   -5.1181    0.5544   -1.0347 H   0  0  0  0  0  0  0  0  0  0  0  0
   -4.9844    1.1947    0.6415 H   0  0  0  0  0  0  0  0  0  0  0  0
   -5.1423    2.3171   -0.7490 H   0  0  0  0  0  0  0  0  0  0  0  0
   -3.0306   -1.5418   -0.8229 C   0  0  0  0  0  0  0  0  0  0  0  0
   -2.4323   -3.0700   -0.1153 Cl  0  0  0  0  0  0  0  0  0  0  0  0
   -2.6653   -1.4758   -1.8663 H   0  0  0  0  0  0  0  0  0  0  0  0
   -4.1356   -1.5292   -0.7686 H   0  0  0  0  0  0  0  0  0  0  0  0
  1  2  1  1  0  0  0
  3 12  1  0  0  0  0
  3  1  1  0  0  0  0
  3  8  1  0  0  0  0
  4  3  1  0  0  0  0
  5  4  1  0  0  0  0
  6  4  1  0  0  0  0
  7  4  1  0  0  0  0
  8 11  1  0  0  0  0
  9  8  1  0  0  0  0
 10  8  1  0  0  0  0
 12 14  1  0  0  0  0
 13 12  1  0  0  0  0
 15 12  1  0  0  0  0
 16 19  1  0  0  0  0
 16 17  1  0  0  0  0
 16  1  1  0  0  0  0
 18 16  1  0  0  0  0
M  END
