1
q = 0.0, confidence = 0.994

 35 37  0  0  0  0  0  0  0  0999 V2000
    1.5476   -0.1090   -0.1002 P   0  0  0  0  0  0  0  0  0  0  0  0
    1.8966    1.1758   -1.1626 O   0  0  0  0  0  0  0  0  0  0  0  0
    2.5248   -1.3911   -0.9447 C   0  0  0  0  0  0  0  0  0  0  0  0
    2.3279   -1.5859   -2.3277 C   0  0  0  0  0  0  0  0  0  0  0  0
    3.0286   -2.6013   -2.9903 C   0  0  0  0  0  0  0  0  0  0  0  0
    3.9091   -3.4339   -2.2792 C   0  0  0  0  0  0  0  0  0  0  0  0
    4.0938   -3.2477   -0.9006 C   0  0  0  0  0  0  0  0  0  0  0  0
    3.4050   -2.2258   -0.2301 C   0  0  0  0  0  0  0  0  0  0  0  0
    0.9898    2.1805   -1.3777 C   0  0  0  0  0  0  0  0  0  0  0  0
   -0.0379    2.0437   -2.3288 C   0  0  0  0  0  0  0  0  0  0  0  0
   -0.9572    3.0668   -2.5755 C   0  0  0  0  0  0  0  0  0  0  0  0
   -0.8459    4.2653   -1.8539 C   0  0  0  0  0  0  0  0  0  0  0  0
    0.1678    4.4375   -0.8999 C   0  0  0  0  0  0  0  0  0  0  0  0
    1.0675    3.3937   -0.6673 C   0  0  0  0  0  0  0  0  0  0  0  0
    2.5082    0.3061    1.3912 C   0  0  0  0  0  0  0  0  0  0  0  0
    2.0437   -0.1289    2.6470 C   0  0  0  0  0  0  0  0  0  0  0  0
    2.8053    0.1296    3.7962 C   0  0  0  0  0  0  0  0  0  0  0  0
    4.0140    0.8364    3.6937 C   0  0  0  0  0  0  0  0  0  0  0  0
    4.4665    1.2853    2.4409 C   0  0  0  0  0  0  0  0  0  0  0  0
    3.7188    1.0191    1.2864 C   0  0  0  0  0  0  0  0  0  0  0  0
   -0.1339    0.8790   -3.0028 F   0  0  0  0  0  0  0  0  0  0  0  0
    2.0327    3.5272    0.2533 F   0  0  0  0  0  0  0  0  0  0  0  0
    1.6295   -0.9372   -2.8747 H   0  0  0  0  0  0  0  0  0  0  0  0
    2.8799   -2.7495   -4.0706 H   0  0  0  0  0  0  0  0  0  0  0  0
    4.4534   -4.2342   -2.8036 H   0  0  0  0  0  0  0  0  0  0  0  0
    4.7839   -3.8978   -0.3418 H   0  0  0  0  0  0  0  0  0  0  0  0
    3.5564   -2.0728    0.8489 H   0  0  0  0  0  0  0  0  0  0  0  0
   -1.7419    2.9092   -3.3282 H   0  0  0  0  0  0  0  0  0  0  0  0
   -1.5625    5.0787   -2.0383 H   0  0  0  0  0  0  0  0  0  0  0  0
    0.2671    5.3620   -0.3147 H   0  0  0  0  0  0  0  0  0  0  0  0
    1.0796   -0.6562    2.7127 H   0  0  0  0  0  0  0  0  0  0  0  0
    2.4450   -0.2103    4.7789 H   0  0  0  0  0  0  0  0  0  0  0  0
    4.6053    1.0472    4.5980 H   0  0  0  0  0  0  0  0  0  0  0  0
    5.4086    1.8493    2.3644 H   0  0  0  0  0  0  0  0  0  0  0  0
    4.0572    1.3755    0.3026 H   0  0  0  0  0  0  0  0  0  0  0  0
  1 15  1  0  0  0  0
  2  1  1  0  0  0  0
  3  8  1  0  0  0  0
  3  1  1  0  0  0  0
  4  3  2  0  0  0  0
  5  4  1  0  0  0  0
  5  6  2  0  0  0  0
  6  7  1  0  0  0  0
  7 26  1  0  0  0  0
  7  8  2  0  0  0  0
  8 27  1  0  0  0  0
  9  2  1  0  0  0  0
  9 14  1  0  0  0  0
 10  9  2  0  0  0  0
 11 10  1  0  0  0  0
 11 12  2  0  0  0  0
 12 13  1  0  0  0  0
 13 14  2  0  0  0  0
 13 30  1  0  0  0  0
 14 22  1  0  0  0  0
 15 16  1  0  0  0  0
 16 31  1  0  0  0  0
 16 17  2  0  0  0  0
 17 32  1  0  0  0  0
 18 17  1  0  0  0  0
 18 33  1  0  0  0  0
 19 18  2  0  0  0  0
 20 15  2  0  0  0  0
 20 19  1  0  0  0  0
 21 10  1  0  0  0  0
 23  4  1  0  0  0  0
 24  5  1  0  0  0  0
 25  6  1  0  0  0  0
 28 11  1  0  0  0  0
 29 12  1  0  0  0  0
 34 19  1  0  0  0  0
 35 20  1  0  0  0  0
M  END
