1
q = 0.0, confidence = 0.996

 36 38  0  0  0  0  0  0  0  0999 V2000
    0.9666   -0.2123    0.1313 P   0  0  0  0  0  0  0  0  0  0  0  0
    1.6706    1.2082    0.6517 O   0  0  0  0  0  0  0  0  0  0  0  0
    1.7106   -0.4779   -1.3487 O   0  0  0  0  0  0  0  0  0  0  0  0
    0.3110    2.0945   -1.6731 F   0  0  0  0  0  0  0  0  0  0  0  0
    2.0754    2.9500    2.6248 F   0  0  0  0  0  0  0  0  0  0  0  0
    2.9598   -2.9288   -1.3559 F   0  0  0  0  0  0  0  0  0  0  0  0
    3.2939    1.7811   -1.6396 F   0  0  0  0  0  0  0  0  0  0  0  0
    1.2095    2.4848    0.4822 C   0  0  0  0  0  0  0  0  0  0  0  0
    0.5571    2.9581   -0.6702 C   0  0  0  0  0  0  0  0  0  0  0  0
    0.1360    4.2861   -0.7773 C   0  0  0  0  0  0  0  0  0  0  0  0
    0.3845    5.1728    0.2802 C   0  0  0  0  0  0  0  0  0  0  0  0
    1.0462    4.7344    1.4379 C   0  0  0  0  0  0  0  0  0  0  0  0
    1.4490    3.4003    1.5254 C   0  0  0  0  0  0  0  0  0  0  0  0
    3.0768   -0.5707   -1.4549 C   0  0  0  0  0  0  0  0  0  0  0  0
    3.7150   -1.8285   -1.4694 C   0  0  0  0  0  0  0  0  0  0  0  0
    5.1014   -1.9462   -1.6134 C   0  0  0  0  0  0  0  0  0  0  0  0
    5.8755   -0.7848   -1.7522 C   0  0  0  0  0  0  0  0  0  0  0  0
    5.2711    0.4811   -1.7587 C   0  0  0  0  0  0  0  0  0  0  0  0
    3.8830    0.5758   -1.6132 C   0  0  0  0  0  0  0  0  0  0  0  0
    1.8151   -1.3395    1.2735 C   0  0  0  0  0  0  0  0  0  0  0  0
    1.4607   -2.7035    1.1911 C   0  0  0  0  0  0  0  0  0  0  0  0
    2.0740   -3.6255    2.0491 C   0  0  0  0  0  0  0  0  0  0  0  0
    3.0232   -3.1914    2.9893 C   0  0  0  0  0  0  0  0  0  0  0  0
    3.3594   -1.8307    3.0787 C   0  0  0  0  0  0  0  0  0  0  0  0
    2.7562   -0.8969    2.2243 C   0  0  0  0  0  0  0  0  0  0  0  0
   -0.3804    4.6009   -1.6946 H   0  0  0  0  0  0  0  0  0  0  0  0
    0.0573    6.2195    0.2025 H   0  0  0  0  0  0  0  0  0  0  0  0
    1.2517    5.4055    2.2831 H   0  0  0  0  0  0  0  0  0  0  0  0
    5.5480   -2.9501   -1.6159 H   0  0  0  0  0  0  0  0  0  0  0  0
    6.9661   -0.8674   -1.8647 H   0  0  0  0  0  0  0  0  0  0  0  0
    5.8529    1.4055   -1.8784 H   0  0  0  0  0  0  0  0  0  0  0  0
    0.7155   -3.0291    0.4469 H   0  0  0  0  0  0  0  0  0  0  0  0
    1.8061   -4.6908    1.9848 H   0  0  0  0  0  0  0  0  0  0  0  0
    3.4995   -3.9191    3.6642 H   0  0  0  0  0  0  0  0  0  0  0  0
    4.0949   -1.4911    3.8236 H   0  0  0  0  0  0  0  0  0  0  0  0
    2.9929    0.1738    2.2967 H   0  0  0  0  0  0  0  0  0  0  0  0
  1  2  1  0  0  0  0
  1 20  1  0  0  0  0
  3  1  1  0  0  0  0
  4  9  1  0  0  0  0
  7 19  1  0  0  0  0
  8  2  1  0  0  0  0
  8 13  1  0  0  0  0
  9  8  2  0  0  0  0
 10  9  1  0  0  0  0
 10 11  2  0  0  0  0
 11 12  1  0  0  0  0
 12 13  2  0  0  0  0
 12 28  1  0  0  0  0
 13  5  1  0  0  0  0
 14  3  1  0  0  0  0
 15 14  1  0  0  0  0
 15  6  1  0  0  0  0
 16 15  2  0  0  0  0
 17 16  1  0  0  0  0
 18 17  2  0  0  0  0
 18 19  1  0  0  0  0
 19 14  2  0  0  0  0
 20 25  1  0  0  0  0
 21 20  2  0  0  0  0
 21 22  1  0  0  0  0
 22 23  2  0  0  0  0
 23 24  1  0  0  0  0
 23 34  1  0  0  0  0
 24 35  1  0  0  0  0
 25 36  1  0  0  0  0
 25 24  2  0  0  0  0
 26 10  1  0  0  0  0
 27 11  1  0  0  0  0
 29 16  1  0  0  0  0
 30 17  1  0  0  0  0
 31 18  1  0  0  0  0
 32 21  1  0  0  0  0
 33 22  1  0  0  0  0
M  END
