34
q = 0.0, confidence = 0.998

 34 36  0  0  0  0  0  0  0  0999 V2000
    1.5584   -0.7835   -0.1179 C   0  0  0  0  0  0  0  0  0  0  0  0
    1.6517   -1.7937    0.9505 C   0  0  0  0  0  0  0  0  0  0  0  0
    3.5985   -2.8100   -0.2952 C   0  0  0  0  0  0  0  0  0  0  0  0
    2.4377   -0.8303   -1.1674 C   0  0  0  0  0  0  0  0  0  0  0  0
    2.4034   -0.1038   -1.9938 H   0  0  0  0  0  0  0  0  0  0  0  0
    0.5222    1.3839    1.5011 C   0  0  0  0  0  0  0  0  0  0  0  0
    1.8305    1.5375    2.0004 C   0  0  0  0  0  0  0  0  0  0  0  0
    2.6706    1.0199    1.5119 H   0  0  0  0  0  0  0  0  0  0  0  0
    2.0588    2.3390    3.1286 C   0  0  0  0  0  0  0  0  0  0  0  0
    3.0807    2.4512    3.5215 H   0  0  0  0  0  0  0  0  0  0  0  0
    0.9856    2.9884    3.7596 C   0  0  0  0  0  0  0  0  0  0  0  0
    1.1667    3.6128    4.6475 H   0  0  0  0  0  0  0  0  0  0  0  0
   -0.3196    2.8308    3.2664 C   0  0  0  0  0  0  0  0  0  0  0  0
   -1.1640    3.3279    3.7668 H   0  0  0  0  0  0  0  0  0  0  0  0
   -0.5549    2.0263    2.1424 C   0  0  0  0  0  0  0  0  0  0  0  0
   -1.5791    1.8789    1.7642 H   0  0  0  0  0  0  0  0  0  0  0  0
    0.4715    1.5117   -1.4185 C   0  0  0  0  0  0  0  0  0  0  0  0
    1.3793    2.5874   -1.3371 C   0  0  0  0  0  0  0  0  0  0  0  0
    1.8926    2.8043   -0.3881 H   0  0  0  0  0  0  0  0  0  0  0  0
    1.6143    3.3916   -2.4627 C   0  0  0  0  0  0  0  0  0  0  0  0
    2.3167    4.2359   -2.3923 H   0  0  0  0  0  0  0  0  0  0  0  0
    0.9495    3.1269   -3.6713 C   0  0  0  0  0  0  0  0  0  0  0  0
    1.1325    3.7630   -4.5505 H   0  0  0  0  0  0  0  0  0  0  0  0
    0.0412    2.0590   -3.7537 C   0  0  0  0  0  0  0  0  0  0  0  0
   -0.4915    1.8563   -4.6950 H   0  0  0  0  0  0  0  0  0  0  0  0
   -0.2036    1.2556   -2.6300 C   0  0  0  0  0  0  0  0  0  0  0  0
   -0.9322    0.4301   -2.6790 H   0  0  0  0  0  0  0  0  0  0  0  0
    2.6915   -2.7292    0.7559 N   0  0  0  0  0  0  0  0  0  0  0  0
    2.7845   -3.4532    1.4757 H   0  0  0  0  0  0  0  0  0  0  0  0
    3.4058   -1.7937   -1.2502 N   0  0  0  0  0  0  0  0  0  0  0  0
    4.0513   -1.8259   -2.0419 H   0  0  0  0  0  0  0  0  0  0  0  0
    0.9248   -1.8486    1.9334 O   0  0  0  0  0  0  0  0  0  0  0  0
    4.4720   -3.6522   -0.3988 O   0  0  0  0  0  0  0  0  0  0  0  0
    0.1671    0.3880    0.0065 P   0  0  0  0  0  0  0  0  0  0  0  0
  1 34  1  0  0  0  0
  1  2  1  0  0  0  0
  2 32  2  0  0  0  0
  3 28  1  0  0  0  0
  4  1  2  0  0  0  0
  5  4  1  0  0  0  0
  6  7  2  0  0  0  0
  6 15  1  0  0  0  0
  7  9  1  0  0  0  0
  8  7  1  0  0  0  0
  9 10  1  0  0  0  0
  9 11  2  0  0  0  0
 11 12  1  0  0  0  0
 13 11  1  0  0  0  0
 13 14  1  0  0  0  0
 15 13  2  0  0  0  0
 16 15  1  0  0  0  0
 17 18  1  0  0  0  0
 17 34  1  0  0  0  0
 18 19  1  0  0  0  0
 20 21  1  0  0  0  0
 20 18  2  0  0  0  0
 22 20  1  0  0  0  0
 23 22  1  0  0  0  0
 24 22  2  0  0  0  0
 24 26  1  0  0  0  0
 25 24  1  0  0  0  0
 26 17  2  0  0  0  0
 27 26  1  0  0  0  0
 28  2  1  0  0  0  0
 28 29  1  0  0  0  0
 30  4  1  0  0  0  0
 30  3  1  0  0  0  0
 31 30  1  0  0  0  0
 33  3  2  0  0  0  0
 34  6  1  0  0  0  0
M  END
