1
q = -1.0

 26 26  0  0  0  0  0  0  0  0999 V2000
   -1.9048   -1.0439   -0.7398 P   0  0  2  0  0  4  0  0  0  0  0  0
   -1.8093   -2.6255   -0.7838 O   0  0  0  0  0  0  0  0  0  0  0  0
   -3.1515   -0.6649    0.5622 C   0  0  0  0  0  0  0  0  0  0  0  0
   -3.9347   -1.7282    1.0558 C   0  0  0  0  0  0  0  0  0  0  0  0
   -3.7661   -2.7371    0.6495 H   0  0  0  0  0  0  0  0  0  0  0  0
   -4.8900   -1.4929    2.0559 C   0  0  0  0  0  0  0  0  0  0  0  0
   -5.4981   -2.3273    2.4384 H   0  0  0  0  0  0  0  0  0  0  0  0
   -5.0668   -0.1991    2.5726 C   0  0  0  0  0  0  0  0  0  0  0  0
   -5.8143   -0.0167    3.3600 H   0  0  0  0  0  0  0  0  0  0  0  0
   -4.2802    0.8602    2.0905 C   0  0  0  0  0  0  0  0  0  0  0  0
   -4.4073    1.8735    2.5018 H   0  0  0  0  0  0  0  0  0  0  0  0
   -3.3213    0.6305    1.0923 C   0  0  0  0  0  0  0  0  0  0  0  0
   -2.6877    1.4582    0.7360 H   0  0  0  0  0  0  0  0  0  0  0  0
   -2.7254   -0.5901   -2.3943 C   0  0  0  0  0  0  0  0  0  0  0  0
   -3.8508   -1.6128   -2.6251 C   0  0  0  0  0  0  0  0  0  0  0  0
   -4.3083   -1.4340   -3.6215 H   0  0  0  0  0  0  0  0  0  0  0  0
   -4.6506   -1.5154   -1.8627 H   0  0  0  0  0  0  0  0  0  0  0  0
   -3.4621   -2.6478   -2.5887 H   0  0  0  0  0  0  0  0  0  0  0  0
   -3.3006    0.8300   -2.3985 C   0  0  0  0  0  0  0  0  0  0  0  0
   -3.8022    1.0143   -3.3728 H   0  0  0  0  0  0  0  0  0  0  0  0
   -2.5158    1.6025   -2.2855 H   0  0  0  0  0  0  0  0  0  0  0  0
   -4.0571    0.9732   -1.6013 H   0  0  0  0  0  0  0  0  0  0  0  0
   -1.6246   -0.7456   -3.4570 C   0  0  0  0  0  0  0  0  0  0  0  0
   -2.0502   -0.5855   -4.4704 H   0  0  0  0  0  0  0  0  0  0  0  0
   -1.1840   -1.7624   -3.4252 H   0  0  0  0  0  0  0  0  0  0  0  0
   -0.8087   -0.0099   -3.3007 H   0  0  0  0  0  0  0  0  0  0  0  0
  1  2  2  6  0  0  0
  1  3  1  0  0  0  0
  3  4  2  0  0  0  0
  3 12  1  0  0  0  0
  4  6  1  0  0  0  0
  5  4  1  0  0  0  0
  6  7  1  0  0  0  0
  6  8  2  0  0  0  0
  8  9  1  0  0  0  0
 10 11  1  0  0  0  0
 10  8  1  0  0  0  0
 12 10  2  0  0  0  0
 13 12  1  0  0  0  0
 14  1  1  0  0  0  0
 15 18  1  0  0  0  0
 15 14  1  0  0  0  0
 15 17  1  0  0  0  0
 16 15  1  0  0  0  0
 19 14  1  0  0  0  0
 19 21  1  0  0  0  0
 19 22  1  0  0  0  0
 20 19  1  0  0  0  0
 23 25  1  0  0  0  0
 23 26  1  0  0  0  0
 23 14  1  0  0  0  0
 24 23  1  0  0  0  0
M  END
