1
q = -1.0

 44 47  0  0  1  0  0  0  0  0999 V2000
    0.0280    0.8804   -0.1981 P   0  0  0  0  0  0  0  0  0  0  0  0
   -0.1138    1.3183    2.8531 S   0  0  0  0  0  0  0  0  0  0  0  0
    0.7720    0.6980    1.4996 C   0  0  1  0  0  3  0  0  0  0  0  0
    0.8576    0.2818    4.0320 C   0  0  0  0  0  0  0  0  0  0  0  0
    2.0276   -0.2598    3.2466 C   0  0  0  0  0  0  0  0  0  0  0  0
    3.1273   -0.8575    3.7410 C   0  0  0  0  0  0  0  0  0  0  0  0
    2.7187   -0.6657    0.8823 C   0  0  0  0  0  0  0  0  0  0  0  0
    2.5261   -2.0065    0.5193 C   0  0  0  0  0  0  0  0  0  0  0  0
    3.4048   -2.5884   -0.4059 C   0  0  0  0  0  0  0  0  0  0  0  0
    4.4662   -1.8383   -0.9358 C   0  0  0  0  0  0  0  0  0  0  0  0
    4.6610   -0.5043   -0.5401 C   0  0  0  0  0  0  0  0  0  0  0  0
    3.7871    0.0918    0.3783 C   0  0  0  0  0  0  0  0  0  0  0  0
    1.3952    1.1017   -1.4078 C   0  0  0  0  0  0  0  0  0  0  0  0
    1.6390    0.0776   -2.3425 C   0  0  0  0  0  0  0  0  0  0  0  0
    2.6416    0.2342   -3.3105 C   0  0  0  0  0  0  0  0  0  0  0  0
    3.3983    1.4143   -3.3549 C   0  0  0  0  0  0  0  0  0  0  0  0
    3.1465    2.4448   -2.4329 C   0  0  0  0  0  0  0  0  0  0  0  0
    2.1451    2.2967   -1.4650 C   0  0  0  0  0  0  0  0  0  0  0  0
   -0.7196    2.5563   -0.0605 C   0  0  0  0  0  0  0  0  0  0  0  0
   -1.9064    2.8067   -0.7803 C   0  0  0  0  0  0  0  0  0  0  0  0
   -2.4780    4.0866   -0.7767 C   0  0  0  0  0  0  0  0  0  0  0  0
   -1.8763    5.1260   -0.0511 C   0  0  0  0  0  0  0  0  0  0  0  0
   -0.6920    4.8867    0.6635 C   0  0  0  0  0  0  0  0  0  0  0  0
   -0.1083    3.6119    0.6547 C   0  0  0  0  0  0  0  0  0  0  0  0
    1.8166   -0.0664    1.8413 N   0  0  0  0  0  0  0  0  0  0  0  0
    0.1956   -0.5315    4.3940 H   0  0  0  0  0  0  0  0  0  0  0  0
    1.1688    0.9091    4.8886 H   0  0  0  0  0  0  0  0  0  0  0  0
    3.9103   -1.2568    3.0818 H   0  0  0  0  0  0  0  0  0  0  0  0
    3.2486   -0.9683    4.8267 H   0  0  0  0  0  0  0  0  0  0  0  0
    1.7027   -2.5837    0.9604 H   0  0  0  0  0  0  0  0  0  0  0  0
    3.2527   -3.6330   -0.7130 H   0  0  0  0  0  0  0  0  0  0  0  0
    5.1535   -2.2995   -1.6602 H   0  0  0  0  0  0  0  0  0  0  0  0
    5.4964    0.0800   -0.9517 H   0  0  0  0  0  0  0  0  0  0  0  0
    3.9233    1.1342    0.6976 H   0  0  0  0  0  0  0  0  0  0  0  0
    1.0438   -0.8436   -2.3130 H   0  0  0  0  0  0  0  0  0  0  0  0
    2.8239   -0.5708   -4.0374 H   0  0  0  0  0  0  0  0  0  0  0  0
    4.1792    1.5398   -4.1197 H   0  0  0  0  0  0  0  0  0  0  0  0
    3.7260    3.3790   -2.4764 H   0  0  0  0  0  0  0  0  0  0  0  0
    1.9414    3.1218   -0.7688 H   0  0  0  0  0  0  0  0  0  0  0  0
   -2.3900    2.0000   -1.3480 H   0  0  0  0  0  0  0  0  0  0  0  0
   -3.4044    4.2682   -1.3410 H   0  0  0  0  0  0  0  0  0  0  0  0
   -2.3315    6.1274   -0.0421 H   0  0  0  0  0  0  0  0  0  0  0  0
   -0.2147    5.6988    1.2316 H   0  0  0  0  0  0  0  0  0  0  0  0
    0.8218    3.4493    1.2187 H   0  0  0  0  0  0  0  0  0  0  0  0
  1 19  1  0  0  0  0
  2  4  1  0  0  0  0
  3  1  1  6  0  0  0
  3 25  1  0  0  0  0
  3  2  1  0  0  0  0
  4 26  1  0  0  0  0
  4 27  1  0  0  0  0
  5  6  2  0  0  0  0
  5  4  1  0  0  0  0
  6 29  1  0  0  0  0
  7 25  1  0  0  0  0
  8  7  1  0  0  0  0
  8 30  1  0  0  0  0
  9  8  2  0  0  0  0
 10 11  2  0  0  0  0
 10  9  1  0  0  0  0
 11 12  1  0  0  0  0
 12 34  1  0  0  0  0
 12  7  2  0  0  0  0
 13  1  1  0  0  0  0
 14 35  1  0  0  0  0
 14 13  2  0  0  0  0
 15 14  1  0  0  0  0
 16 15  2  0  0  0  0
 16 17  1  0  0  0  0
 17 18  2  0  0  0  0
 18 13  1  0  0  0  0
 18 39  1  0  0  0  0
 19 24  1  0  0  0  0
 20 21  1  0  0  0  0
 20 19  2  0  0  0  0
 21 22  2  0  0  0  0
 22 42  1  0  0  0  0
 22 23  1  0  0  0  0
 23 43  1  0  0  0  0
 24 23  2  0  0  0  0
 24 44  1  0  0  0  0
 25  5  1  0  0  0  0
 28  6  1  0  0  0  0
 31  9  1  0  0  0  0
 32 10  1  0  0  0  0
 33 11  1  0  0  0  0
 36 15  1  0  0  0  0
 37 16  1  0  0  0  0
 38 17  1  0  0  0  0
 40 20  1  0  0  0  0
 41 21  1  0  0  0  0
M  END
