1
q = 0.0, confidence = 0.976

 26 27  0  0  0  0  0  0  0  0999 V2000
    0.3421    0.7352    1.1760 P   0  0  2  0  0  0  0  0  0  0  0  0
    2.6190   -0.8409    0.7308 C   0  0  0  0  0  0  0  0  0  0  0  0
    1.6881   -0.4049    1.6280 C   0  0  0  0  0  0  0  0  0  0  0  0
    1.7020   -0.7606    2.6726 H   0  0  0  0  0  0  0  0  0  0  0  0
    1.0269    2.2869    0.4750 C   0  0  0  0  0  0  0  0  0  0  0  0
    0.2703    3.0735    0.6609 H   0  0  0  0  0  0  0  0  0  0  0  0
    2.1259    2.7119   -0.2241 C   0  0  0  0  0  0  0  0  0  0  0  0
    2.0997    3.7940   -0.4483 H   0  0  0  0  0  0  0  0  0  0  0  0
    3.3599    2.0867   -0.6645 C   0  0  0  0  0  0  0  0  0  0  0  0
    4.1775    2.7994   -0.8717 H   0  0  0  0  0  0  0  0  0  0  0  0
    3.6596    0.7537   -0.8068 C   0  0  0  0  0  0  0  0  0  0  0  0
    5.0185    0.2919   -1.0144 C   0  0  0  0  0  0  0  0  0  0  0  0
    5.7176    0.9719   -1.5300 H   0  0  0  0  0  0  0  0  0  0  0  0
    5.5102   -0.9016   -0.5397 C   0  0  0  0  0  0  0  0  0  0  0  0
    6.5579   -1.1318   -0.7936 H   0  0  0  0  0  0  0  0  0  0  0  0
    4.9128   -1.8195    0.4193 C   0  0  0  0  0  0  0  0  0  0  0  0
    5.5968   -2.6123    0.7650 H   0  0  0  0  0  0  0  0  0  0  0  0
    3.7023   -1.7514    1.0668 C   0  0  0  0  0  0  0  0  0  0  0  0
    3.5364   -2.4309    1.9191 H   0  0  0  0  0  0  0  0  0  0  0  0
    2.6030   -0.3118   -0.6802 C   0  0  0  0  0  0  0  0  0  0  0  0
    1.6107    0.0987   -0.9445 H   0  0  0  0  0  0  0  0  0  0  0  0
    2.8223   -1.1364   -1.3872 H   0  0  0  0  0  0  0  0  0  0  0  0
   -0.1961    1.3277    2.8415 C   0  0  0  0  0  0  0  0  0  0  0  0
    0.6563    1.7461    3.4111 H   0  0  0  0  0  0  0  0  0  0  0  0
   -0.6362    0.4728    3.3908 H   0  0  0  0  0  0  0  0  0  0  0  0
   -0.9805    2.0983    2.7164 H   0  0  0  0  0  0  0  0  0  0  0  0
  1  3  1  0  0  0  0
  1 23  1  1  0  0  0
  2 18  1  0  0  0  0
  2  3  2  0  0  0  0
  3  4  1  0  0  0  0
  5  6  1  0  0  0  0
  5  1  1  0  0  0  0
  7  5  2  0  0  0  0
  8  7  1  0  0  0  0
  9  7  1  0  0  0  0
 10  9  1  0  0  0  0
 11 20  1  0  0  0  0
 11  9  2  0  0  0  0
 12 11  1  0  0  0  0
 12 14  2  0  0  0  0
 13 12  1  0  0  0  0
 14 16  1  0  0  0  0
 15 14  1  0  0  0  0
 16 17  1  0  0  0  0
 16 18  2  0  0  0  0
 18 19  1  0  0  0  0
 20  2  1  0  0  0  0
 21 20  1  0  0  0  0
 22 20  1  0  0  0  0
 23 25  1  0  0  0  0
 23 24  1  0  0  0  0
 26 23  1  0  0  0  0
M  END
