1
q = 0.0, confidence = 0.994

 33 34  0  0  0  0  0  0  0  0999 V2000
   -0.0001   -1.5672   -0.2575 P   0  0  0  0  0  0  0  0  0  0  0  0
    1.4524   -2.5779    0.3144 C   0  0  0  0  0  0  0  0  0  0  0  0
   -1.4527   -2.5777    0.3145 C   0  0  0  0  0  0  0  0  0  0  0  0
   -0.0002   -1.7536   -2.0836 C   0  0  0  0  0  0  0  0  0  0  0  0
    2.7700   -1.9071    0.0263 C   0  0  0  0  0  0  0  0  0  0  0  0
    3.3049   -0.9783    0.9455 C   0  0  0  0  0  0  0  0  0  0  0  0
    4.5229   -0.3373    0.6782 C   0  0  0  0  0  0  0  0  0  0  0  0
    5.2177   -0.6004   -0.5141 C   0  0  0  0  0  0  0  0  0  0  0  0
    4.6873   -1.5128   -1.4394 C   0  0  0  0  0  0  0  0  0  0  0  0
    3.4724   -2.1624   -1.1690 C   0  0  0  0  0  0  0  0  0  0  0  0
   -2.7703   -1.9069    0.0264 C   0  0  0  0  0  0  0  0  0  0  0  0
   -3.4728   -2.1623   -1.1688 C   0  0  0  0  0  0  0  0  0  0  0  0
   -4.6877   -1.5127   -1.4392 C   0  0  0  0  0  0  0  0  0  0  0  0
   -5.2179   -0.6000   -0.5140 C   0  0  0  0  0  0  0  0  0  0  0  0
   -4.5230   -0.3368    0.6782 C   0  0  0  0  0  0  0  0  0  0  0  0
   -3.3051   -0.9779    0.9455 C   0  0  0  0  0  0  0  0  0  0  0  0
    1.3794   -3.5783   -0.1610 H   0  0  0  0  0  0  0  0  0  0  0  0
    1.2904   -2.6827    1.4059 H   0  0  0  0  0  0  0  0  0  0  0  0
   -1.2906   -2.6825    1.4060 H   0  0  0  0  0  0  0  0  0  0  0  0
   -1.3797   -3.5782   -0.1608 H   0  0  0  0  0  0  0  0  0  0  0  0
   -0.8987   -1.2604   -2.5013 H   0  0  0  0  0  0  0  0  0  0  0  0
   -0.0000   -2.8269   -2.3589 H   0  0  0  0  0  0  0  0  0  0  0  0
    0.8979   -1.2599   -2.5015 H   0  0  0  0  0  0  0  0  0  0  0  0
    2.7481   -0.7580    1.8696 H   0  0  0  0  0  0  0  0  0  0  0  0
    4.9288    0.3799    1.4076 H   0  0  0  0  0  0  0  0  0  0  0  0
    6.1733   -0.0954   -0.7215 H   0  0  0  0  0  0  0  0  0  0  0  0
    5.2269   -1.7290   -2.3742 H   0  0  0  0  0  0  0  0  0  0  0  0
    3.0693   -2.8910   -1.8909 H   0  0  0  0  0  0  0  0  0  0  0  0
   -3.0699   -2.8911   -1.8906 H   0  0  0  0  0  0  0  0  0  0  0  0
   -5.2273   -1.7290   -2.3739 H   0  0  0  0  0  0  0  0  0  0  0  0
   -6.1735   -0.0950   -0.7214 H   0  0  0  0  0  0  0  0  0  0  0  0
   -4.9288    0.3805    1.4075 H   0  0  0  0  0  0  0  0  0  0  0  0
   -2.7482   -0.7576    1.8696 H   0  0  0  0  0  0  0  0  0  0  0  0
  1  2  1  0  0  0  0
  1  3  1  0  0  0  0
  2 18  1  0  0  0  0
  3 19  1  0  0  0  0
  4  1  1  0  0  0  0
  5  2  1  0  0  0  0
  5  6  1  0  0  0  0
  6 24  1  0  0  0  0
  7  6  2  0  0  0  0
  7 25  1  0  0  0  0
  8  7  1  0  0  0  0
  9 10  1  0  0  0  0
  9  8  2  0  0  0  0
 10  5  2  0  0  0  0
 11  3  1  0  0  0  0
 11 16  1  0  0  0  0
 12 11  2  0  0  0  0
 13 12  1  0  0  0  0
 13 14  2  0  0  0  0
 14 15  1  0  0  0  0
 15 16  2  0  0  0  0
 15 32  1  0  0  0  0
 16 33  1  0  0  0  0
 17  2  1  0  0  0  0
 20  3  1  0  0  0  0
 21  4  1  0  0  0  0
 22  4  1  0  0  0  0
 23  4  1  0  0  0  0
 26  8  1  0  0  0  0
 27  9  1  0  0  0  0
 28 10  1  0  0  0  0
 29 12  1  0  0  0  0
 30 13  1  0  0  0  0
 31 14  1  0  0  0  0
M  END
