1
q = 0.0, confidence = 1.0

 45 47  0  0  1  0  0  0  0  0999 V2000
   -0.3613   -0.5460   -0.1385 P   0  0  2  0  0  0  0  0  0  0  0  0
   -0.2211   -2.0934    2.1539 N   0  0  0  0  0  0  0  0  0  0  0  0
   -1.6783   -0.6659   -1.4874 C   0  0  1  0  0  0  0  0  0  0  0  0
   -1.3600    0.1117   -2.2145 H   0  0  0  0  0  0  0  0  0  0  0  0
   -1.4321   -2.0488   -2.1111 C   0  0  0  0  0  0  0  0  0  0  0  0
   -1.8477   -2.8458   -1.4573 H   0  0  0  0  0  0  0  0  0  0  0  0
   -1.9433   -2.1391   -3.0917 H   0  0  0  0  0  0  0  0  0  0  0  0
    0.0867   -2.2285   -2.2217 C   0  0  0  0  0  0  0  0  0  0  0  0
    0.4957   -1.5152   -2.9683 H   0  0  0  0  0  0  0  0  0  0  0  0
    0.3681   -3.2451   -2.5632 H   0  0  0  0  0  0  0  0  0  0  0  0
    0.7000   -1.9415   -0.8322 C   0  0  1  0  0  0  0  0  0  0  0  0
    0.4758   -2.7816   -0.1405 H   0  0  0  0  0  0  0  0  0  0  0  0
    2.1826   -1.6670   -0.7813 C   0  0  0  0  0  0  0  0  0  0  0  0
    3.0092   -2.4194    0.0761 C   0  0  0  0  0  0  0  0  0  0  0  0
    2.5576   -3.2125    0.6929 H   0  0  0  0  0  0  0  0  0  0  0  0
    4.3858   -2.1595    0.1584 C   0  0  0  0  0  0  0  0  0  0  0  0
    5.0159   -2.7576    0.8343 H   0  0  0  0  0  0  0  0  0  0  0  0
    4.9555   -1.1366   -0.6145 C   0  0  0  0  0  0  0  0  0  0  0  0
    6.0334   -0.9256   -0.5465 H   0  0  0  0  0  0  0  0  0  0  0  0
    4.1407   -0.3759   -1.4689 C   0  0  0  0  0  0  0  0  0  0  0  0
    4.5755    0.4382   -2.0677 H   0  0  0  0  0  0  0  0  0  0  0  0
    2.7666   -0.6389   -1.5509 C   0  0  0  0  0  0  0  0  0  0  0  0
    2.1371   -0.0201   -2.2098 H   0  0  0  0  0  0  0  0  0  0  0  0
   -3.0572   -0.3164   -0.9776 C   0  0  0  0  0  0  0  0  0  0  0  0
   -3.3340    1.0192   -0.6072 C   0  0  0  0  0  0  0  0  0  0  0  0
   -2.5488    1.7844   -0.7219 H   0  0  0  0  0  0  0  0  0  0  0  0
   -4.5838    1.3749   -0.0851 C   0  0  0  0  0  0  0  0  0  0  0  0
   -4.7763    2.4202    0.2003 H   0  0  0  0  0  0  0  0  0  0  0  0
   -5.5869    0.4033    0.0720 C   0  0  0  0  0  0  0  0  0  0  0  0
   -6.5700    0.6824    0.4800 H   0  0  0  0  0  0  0  0  0  0  0  0
   -5.3272   -0.9232   -0.3000 C   0  0  0  0  0  0  0  0  0  0  0  0
   -6.1085   -1.6907   -0.1898 H   0  0  0  0  0  0  0  0  0  0  0  0
   -1.1658   -1.3398    1.3577 C   0  0  0  0  0  0  0  0  0  0  0  0
   -1.6936   -0.5205    1.9121 H   0  0  0  0  0  0  0  0  0  0  0  0
   -1.9511   -2.0245    0.9734 H   0  0  0  0  0  0  0  0  0  0  0  0
   -0.8803   -2.9958    3.0842 C   0  0  0  0  0  0  0  0  0  0  0  0
   -1.4718   -2.4651    3.8756 H   0  0  0  0  0  0  0  0  0  0  0  0
   -0.1219   -3.6239    3.5941 H   0  0  0  0  0  0  0  0  0  0  0  0
   -1.5717   -3.6691    2.5375 H   0  0  0  0  0  0  0  0  0  0  0  0
    0.7875   -1.2633    2.7974 C   0  0  0  0  0  0  0  0  0  0  0  0
    0.3549   -0.5401    3.5360 H   0  0  0  0  0  0  0  0  0  0  0  0
    1.3460   -0.6727    2.0417 H   0  0  0  0  0  0  0  0  0  0  0  0
    1.5173   -1.9072    3.3270 H   0  0  0  0  0  0  0  0  0  0  0  0
   -4.0718   -1.2812   -0.8193 C   0  0  0  0  0  0  0  0  0  0  0  0
   -3.8909   -2.3258   -1.1128 H   0  0  0  0  0  0  0  0  0  0  0  0
  1 33  1  1  0  0  0
  2 40  1  0  0  0  0
  2 36  1  0  0  0  0
  3  4  1  6  0  0  0
  3 24  1  0  0  0  0
  3  1  1  0  0  0  0
  5  3  1  0  0  0  0
  5  6  1  0  0  0  0
  7  5  1  0  0  0  0
  8  5  1  0  0  0  0
  8 11  1  0  0  0  0
  9  8  1  0  0  0  0
 10  8  1  0  0  0  0
 11 13  1  0  0  0  0
 11 12  1  1  0  0  0
 11  1  1  0  0  0  0
 13 14  1  0  0  0  0
 14 16  2  0  0  0  0
 14 15  1  0  0  0  0
 16 17  1  0  0  0  0
 18 19  1  0  0  0  0
 18 16  1  0  0  0  0
 20 18  2  0  0  0  0
 21 20  1  0  0  0  0
 22 20  1  0  0  0  0
 22 13  2  0  0  0  0
 23 22  1  0  0  0  0
 24 44  2  0  0  0  0
 24 25  1  0  0  0  0
 25 27  2  0  0  0  0
 26 25  1  0  0  0  0
 27 29  1  0  0  0  0
 27 28  1  0  0  0  0
 29 30  1  0  0  0  0
 31 32  1  0  0  0  0
 31 29  2  0  0  0  0
 33 34  1  0  0  0  0
 33  2  1  0  0  0  0
 35 33  1  0  0  0  0
 36 38  1  0  0  0  0
 36 37  1  0  0  0  0
 39 36  1  0  0  0  0
 40 43  1  0  0  0  0
 40 41  1  0  0  0  0
 42 40  1  0  0  0  0
 44 31  1  0  0  0  0
 45 44  1  0  0  0  0
M  END
