1
q = 0.0, confidence = 0.992

 31 33  0  0  0  0  0  0  0  0999 V2000
   -1.7022   -0.0167   -0.0528 P   0  0  0  0  0  0  0  0  0  0  0  0
   -2.9991   -2.3525   -0.4081 N   0  0  0  0  0  0  0  0  0  0  0  0
   -0.2125   -1.4923    1.6617 N   0  0  0  0  0  0  0  0  0  0  0  0
   -3.3891    1.7075    1.2714 N   0  0  0  0  0  0  0  0  0  0  0  0
   -3.1432   -1.0379   -0.6302 C   0  0  0  0  0  0  0  0  0  0  0  0
   -4.2618   -0.4753   -1.2735 C   0  0  0  0  0  0  0  0  0  0  0  0
   -4.3191    0.6063   -1.4523 H   0  0  0  0  0  0  0  0  0  0  0  0
   -5.2815   -1.3401   -1.6893 C   0  0  0  0  0  0  0  0  0  0  0  0
   -6.1742   -0.9427   -2.1959 H   0  0  0  0  0  0  0  0  0  0  0  0
   -5.1391   -2.7179   -1.4640 C   0  0  0  0  0  0  0  0  0  0  0  0
   -5.9141   -3.4309   -1.7826 H   0  0  0  0  0  0  0  0  0  0  0  0
   -3.9765   -3.1731   -0.8228 C   0  0  0  0  0  0  0  0  0  0  0  0
   -3.8250   -4.2505   -0.6330 H   0  0  0  0  0  0  0  0  0  0  0  0
   -1.3987   -0.8788    1.5650 C   0  0  0  0  0  0  0  0  0  0  0  0
   -2.3720   -0.9281    2.5808 C   0  0  0  0  0  0  0  0  0  0  0  0
   -3.3194   -0.3869    2.4496 H   0  0  0  0  0  0  0  0  0  0  0  0
   -2.0694   -1.6475    3.7444 C   0  0  0  0  0  0  0  0  0  0  0  0
   -2.7998   -1.7043    4.5662 H   0  0  0  0  0  0  0  0  0  0  0  0
   -0.8290   -2.2962    3.8459 C   0  0  0  0  0  0  0  0  0  0  0  0
   -0.5571   -2.8744    4.7415 H   0  0  0  0  0  0  0  0  0  0  0  0
    0.0689   -2.1862    2.7734 C   0  0  0  0  0  0  0  0  0  0  0  0
    1.0643   -2.6626    2.8107 H   0  0  0  0  0  0  0  0  0  0  0  0
   -2.4795    1.6310    0.2864 C   0  0  0  0  0  0  0  0  0  0  0  0
   -2.1144    2.7249   -0.5215 C   0  0  0  0  0  0  0  0  0  0  0  0
   -1.3812    2.5850   -1.3298 H   0  0  0  0  0  0  0  0  0  0  0  0
   -2.7266    3.9593   -0.2710 C   0  0  0  0  0  0  0  0  0  0  0  0
   -2.4706    4.8389   -0.8809 H   0  0  0  0  0  0  0  0  0  0  0  0
   -3.6675    4.0538    0.7666 C   0  0  0  0  0  0  0  0  0  0  0  0
   -4.1703    5.0048    0.9971 H   0  0  0  0  0  0  0  0  0  0  0  0
   -3.9642    2.8991    1.5073 C   0  0  0  0  0  0  0  0  0  0  0  0
   -4.7042    2.9319    2.3263 H   0  0  0  0  0  0  0  0  0  0  0  0
  1 23  1  0  0  0  0
  1 14  1  0  0  0  0
  3 21  1  0  0  0  0
  4 30  1  0  0  0  0
  5  2  1  0  0  0  0
  5  1  1  0  0  0  0
  6  5  2  0  0  0  0
  7  6  1  0  0  0  0
  8 10  2  0  0  0  0
  8  6  1  0  0  0  0
  9  8  1  0  0  0  0
 10 12  1  0  0  0  0
 11 10  1  0  0  0  0
 12 13  1  0  0  0  0
 12  2  2  0  0  0  0
 14  3  2  0  0  0  0
 14 15  1  0  0  0  0
 15 17  2  0  0  0  0
 16 15  1  0  0  0  0
 17 19  1  0  0  0  0
 17 18  1  0  0  0  0
 19 20  1  0  0  0  0
 21 22  1  0  0  0  0
 21 19  2  0  0  0  0
 23  4  2  0  0  0  0
 24 26  2  0  0  0  0
 24 23  1  0  0  0  0
 25 24  1  0  0  0  0
 26 28  1  0  0  0  0
 27 26  1  0  0  0  0
 28 29  1  0  0  0  0
 28 30  2  0  0  0  0
 30 31  1  0  0  0  0
M  END
