2
q = 0.0, confidence = 0.976

 31 33  0  0  0  0  0  0  0  0999 V2000
   -3.0166   -0.0070    1.2783 P   0  0  2  0  0  0  0  0  0  0  0  0
    0.3151   -0.0655   -0.1580 P   0  0  1  0  0  0  0  0  0  0  0  0
   -0.9463   -1.1150   -1.6659 P   0  0  2  0  0  0  0  0  0  0  0  0
   -0.8892    1.1438   -1.5846 P   0  0  1  0  0  0  0  0  0  0  0  0
   -0.8370   -0.3220    1.8186 Si  0  0  0  0  0  0  0  0  0  0  0  0
   -2.8918   -1.4728   -0.4666 Si  0  0  0  0  0  0  0  0  0  0  0  0
   -2.5261    1.7649   -0.0707 Si  0  0  0  0  0  0  0  0  0  0  0  0
   -0.2294    0.8946    3.1264 C   0  0  0  0  0  0  0  0  0  0  0  0
   -0.4462   -2.0765    2.4099 C   0  0  0  0  0  0  0  0  0  0  0  0
   -3.0284   -3.2634    0.1278 C   0  0  0  0  0  0  0  0  0  0  0  0
   -4.2832   -1.1951   -1.7225 C   0  0  0  0  0  0  0  0  0  0  0  0
   -4.0894    2.3829   -0.9381 C   0  0  0  0  0  0  0  0  0  0  0  0
   -1.7750    3.2445    0.8468 C   0  0  0  0  0  0  0  0  0  0  0  0
   -0.7463    0.6711    4.0825 H   0  0  0  0  0  0  0  0  0  0  0  0
   -0.4176    1.9513    2.8664 H   0  0  0  0  0  0  0  0  0  0  0  0
    0.8583    0.7539    3.2860 H   0  0  0  0  0  0  0  0  0  0  0  0
    0.5422   -2.0734    2.9109 H   0  0  0  0  0  0  0  0  0  0  0  0
   -0.4066   -2.8011    1.5747 H   0  0  0  0  0  0  0  0  0  0  0  0
   -1.2086   -2.4154    3.1405 H   0  0  0  0  0  0  0  0  0  0  0  0
   -4.0509   -3.4387    0.5210 H   0  0  0  0  0  0  0  0  0  0  0  0
   -2.3036   -3.5212    0.9210 H   0  0  0  0  0  0  0  0  0  0  0  0
   -2.8681   -3.9487   -0.7300 H   0  0  0  0  0  0  0  0  0  0  0  0
   -4.3066   -2.0533   -2.4253 H   0  0  0  0  0  0  0  0  0  0  0  0
   -4.1367   -0.2733   -2.3166 H   0  0  0  0  0  0  0  0  0  0  0  0
   -5.2665   -1.1396   -1.2122 H   0  0  0  0  0  0  0  0  0  0  0  0
   -4.7519    2.8601   -0.1868 H   0  0  0  0  0  0  0  0  0  0  0  0
   -4.6602    1.5812   -1.4411 H   0  0  0  0  0  0  0  0  0  0  0  0
   -3.8179    3.1496   -1.6929 H   0  0  0  0  0  0  0  0  0  0  0  0
   -1.8466    4.1349    0.1885 H   0  0  0  0  0  0  0  0  0  0  0  0
   -0.7064    3.0964    1.0937 H   0  0  0  0  0  0  0  0  0  0  0  0
   -2.3354    3.4621    1.7786 H   0  0  0  0  0  0  0  0  0  0  0  0
  1  6  1  6  0  0  0
  1  5  1  0  0  0  0
  2  5  1  1  0  0  0
  3  4  1  0  0  0  0
  3  6  1  1  0  0  0
  3  2  1  0  0  0  0
  4  2  1  0  0  0  0
  4  7  1  1  0  0  0
  5  9  1  0  0  0  0
  5  8  1  0  0  0  0
  6 10  1  0  0  0  0
  7 13  1  0  0  0  0
  7  1  1  0  0  0  0
  8 16  1  0  0  0  0
  8 14  1  0  0  0  0
  9 17  1  0  0  0  0
  9 19  1  0  0  0  0
 10 20  1  0  0  0  0
 10 21  1  0  0  0  0
 11 25  1  0  0  0  0
 11  6  1  0  0  0  0
 12 26  1  0  0  0  0
 12  7  1  0  0  0  0
 13 30  1  0  0  0  0
 13 31  1  0  0  0  0
 15  8  1  0  0  0  0
 18  9  1  0  0  0  0
 22 10  1  0  0  0  0
 23 11  1  0  0  0  0
 24 11  1  0  0  0  0
 27 12  1  0  0  0  0
 28 12  1  0  0  0  0
 29 13  1  0  0  0  0
M  END
