1
q = 0.0, confidence = 1.0

 32 33  0  0  1  0  0  0  0  0999 V2000
    1.7117   -0.2531   -0.5188 P   0  0  2  0  0  0  0  0  0  0  0  0
    2.2348   -0.8948    1.1546 C   0  0  0  0  0  0  0  0  0  0  0  0
    1.6466   -1.8115    1.3414 H   0  0  0  0  0  0  0  0  0  0  0  0
    2.0163   -0.1915    1.9789 H   0  0  0  0  0  0  0  0  0  0  0  0
    3.7209   -1.2618    1.0129 C   0  0  1  0  0  0  0  0  0  0  0  0
    4.0327   -1.9765    1.8130 H   0  0  0  0  0  0  0  0  0  0  0  0
    3.8421   -1.9341   -0.3666 C   0  0  2  0  0  0  0  0  0  0  0  0
    4.9136   -2.1481   -0.6006 H   0  0  0  0  0  0  0  0  0  0  0  0
    3.2455   -0.9337   -1.3716 C   0  0  0  0  0  0  0  0  0  0  0  0
    3.9632   -0.1105   -1.5487 H   0  0  0  0  0  0  0  0  0  0  0  0
    2.9766   -1.3985   -2.3377 H   0  0  0  0  0  0  0  0  0  0  0  0
    4.5807   -0.1358    0.9824 O   0  0  0  0  0  0  0  0  0  0  0  0
    4.7646    0.4948    2.2272 C   0  0  0  0  0  0  0  0  0  0  0  0
    5.4953    1.3128    2.0773 H   0  0  0  0  0  0  0  0  0  0  0  0
    5.1654   -0.2107    2.9950 H   0  0  0  0  0  0  0  0  0  0  0  0
    3.8255    0.9427    2.6290 H   0  0  0  0  0  0  0  0  0  0  0  0
    3.0947   -3.1332   -0.2666 O   0  0  0  0  0  0  0  0  0  0  0  0
    3.1719   -3.9887   -1.3844 C   0  0  0  0  0  0  0  0  0  0  0  0
    2.5653   -4.8831   -1.1485 H   0  0  0  0  0  0  0  0  0  0  0  0
    4.2236   -4.3001   -1.5950 H   0  0  0  0  0  0  0  0  0  0  0  0
    2.7505   -3.5294   -2.3082 H   0  0  0  0  0  0  0  0  0  0  0  0
    2.0462    1.5566   -0.4664 C   0  0  0  0  0  0  0  0  0  0  0  0
    2.2930    2.2233   -1.6874 C   0  0  0  0  0  0  0  0  0  0  0  0
    2.3618    1.6455   -2.6229 H   0  0  0  0  0  0  0  0  0  0  0  0
    2.4268    3.6181   -1.7265 C   0  0  0  0  0  0  0  0  0  0  0  0
    2.6245    4.1196   -2.6864 H   0  0  0  0  0  0  0  0  0  0  0  0
    2.3003    4.3739   -0.5486 C   0  0  0  0  0  0  0  0  0  0  0  0
    2.3987    5.4695   -0.5796 H   0  0  0  0  0  0  0  0  0  0  0  0
    2.0411    3.7214    0.6662 C   0  0  0  0  0  0  0  0  0  0  0  0
    1.9318    4.3048    1.5933 H   0  0  0  0  0  0  0  0  0  0  0  0
    1.9130    2.3245    0.7077 C   0  0  0  0  0  0  0  0  0  0  0  0
    1.6922    1.8340    1.6665 H   0  0  0  0  0  0  0  0  0  0  0  0
  1 22  1  1  0  0  0
  1  2  1  0  0  0  0
  2  3  1  0  0  0  0
  2  4  1  0  0  0  0
  5  2  1  0  0  0  0
  5  6  1  1  0  0  0
  7  8  1  6  0  0  0
  7 17  1  0  0  0  0
  7  5  1  0  0  0  0
  9  1  1  0  0  0  0
  9  7  1  0  0  0  0
 10  9  1  0  0  0  0
 11  9  1  0  0  0  0
 12  5  1  0  0  0  0
 12 13  1  0  0  0  0
 13 16  1  0  0  0  0
 13 15  1  0  0  0  0
 14 13  1  0  0  0  0
 18 19  1  0  0  0  0
 18 17  1  0  0  0  0
 20 18  1  0  0  0  0
 21 18  1  0  0  0  0
 22 31  1  0  0  0  0
 23 22  2  0  0  0  0
 24 23  1  0  0  0  0
 25 23  1  0  0  0  0
 25 27  2  0  0  0  0
 26 25  1  0  0  0  0
 27 29  1  0  0  0  0
 28 27  1  0  0  0  0
 29 31  2  0  0  0  0
 29 30  1  0  0  0  0
 31 32  1  0  0  0  0
M  END
