1
q = 0.0, confidence = 0.994

 14 14  0  0  0  0  0  0  0  0999 V2000
    0.6015   -0.7820    0.0000 P   0  0  0  0  0  0  0  0  0  0  0  0
    0.9696   -2.0371    1.6072 Cl  0  0  0  0  0  0  0  0  0  0  0  0
    0.9696   -2.0375   -1.6068 Cl  0  0  0  0  0  0  0  0  0  0  0  0
    2.0479    0.3157   -0.0001 C   0  0  0  0  0  0  0  0  0  0  0  0
    3.3620   -0.1960   -0.0003 C   0  0  0  0  0  0  0  0  0  0  0  0
    3.5314   -1.2834   -0.0006 H   0  0  0  0  0  0  0  0  0  0  0  0
    4.4425    0.6925   -0.0003 C   0  0  0  0  0  0  0  0  0  0  0  0
    5.4708    0.3012   -0.0005 H   0  0  0  0  0  0  0  0  0  0  0  0
    4.2157    2.0813   -0.0000 C   0  0  0  0  0  0  0  0  0  0  0  0
    5.0704    2.7746   -0.0000 H   0  0  0  0  0  0  0  0  0  0  0  0
    2.9070    2.5860    0.0002 C   0  0  0  0  0  0  0  0  0  0  0  0
    2.7300    3.6717    0.0004 H   0  0  0  0  0  0  0  0  0  0  0  0
    1.8148    1.7047    0.0002 C   0  0  0  0  0  0  0  0  0  0  0  0
    0.7822    2.0898    0.0004 H   0  0  0  0  0  0  0  0  0  0  0  0
  1  2  1  0  0  0  0
  3  1  1  0  0  0  0
  4  1  1  0  0  0  0
  4 13  1  0  0  0  0
  5  7  1  0  0  0  0
  5  4  2  0  0  0  0
  6  5  1  0  0  0  0
  7  9  2  0  0  0  0
  8  7  1  0  0  0  0
  9 10  1  0  0  0  0
  9 11  1  0  0  0  0
 11 12  1  0  0  0  0
 13 11  2  0  0  0  0
 13 14  1  0  0  0  0
M  END
