1
q = 0.0, confidence = 0.99

 11 10  0  0  0  0  0  0  0  0999 V2000
   -1.8576   -0.2284   -1.0229 P   0  0  0  0  0  0  0  0  0  0  0  0
   -3.5918   -0.4399   -0.4148 C   0  0  0  0  0  0  0  0  0  0  0  0
   -3.8381   -0.4736    0.9092 C   0  0  0  0  0  0  0  0  0  0  0  0
   -4.6594   -0.5660   -1.4687 C   0  0  0  0  0  0  0  0  0  0  0  0
   -2.1203    0.8075   -1.9986 H   0  0  0  0  0  0  0  0  0  0  0  0
   -1.8631   -1.2980   -1.9977 H   0  0  0  0  0  0  0  0  0  0  0  0
   -4.8686   -0.5995    1.2824 H   0  0  0  0  0  0  0  0  0  0  0  0
   -3.0393   -0.3790    1.6578 H   0  0  0  0  0  0  0  0  0  0  0  0
   -4.4698   -1.4365   -2.1329 H   0  0  0  0  0  0  0  0  0  0  0  0
   -4.6859    0.3303   -2.1251 H   0  0  0  0  0  0  0  0  0  0  0  0
   -5.6620   -0.6907   -1.0133 H   0  0  0  0  0  0  0  0  0  0  0  0
  1  2  1  0  0  0  0
  2  3  2  0  0  0  0
  3  7  1  0  0  0  0
  3  8  1  0  0  0  0
  4 11  1  0  0  0  0
  4  2  1  0  0  0  0
  5  1  1  0  0  0  0
  6  1  1  0  0  0  0
  9  4  1  0  0  0  0
 10  4  1  0  0  0  0
M  END
