1
q = 0.0, confidence = 1.0

 49 53  0  0  1  0  0  0  0  0999 V2000
    0.0897    0.3342    0.3045 P   0  0  1  0  0  0  0  0  0  0  0  0
   -1.3083   -0.8003    0.6645 C   0  0  0  0  0  0  0  0  0  0  0  0
   -1.9809   -0.4896   -0.5020 C   0  0  0  0  0  0  0  0  0  0  0  0
   -1.2147    0.7001   -1.0638 C   0  0  1  0  0  0  0  0  0  0  0  0
   -0.7875    0.5163   -2.0714 H   0  0  0  0  0  0  0  0  0  0  0  0
    0.0330    1.7377    1.4770 C   0  0  0  0  0  0  0  0  0  0  0  0
   -0.7855    1.7149    2.6242 C   0  0  0  0  0  0  0  0  0  0  0  0
   -1.3787    0.8194    2.8604 H   0  0  0  0  0  0  0  0  0  0  0  0
   -0.8453    2.8376    3.4631 C   0  0  0  0  0  0  0  0  0  0  0  0
   -1.4784    2.8115    4.3630 H   0  0  0  0  0  0  0  0  0  0  0  0
   -0.1108    3.9924    3.1513 C   0  0  0  0  0  0  0  0  0  0  0  0
   -0.1674    4.8749    3.8064 H   0  0  0  0  0  0  0  0  0  0  0  0
    0.6978    4.0210    2.0034 C   0  0  0  0  0  0  0  0  0  0  0  0
    1.2724    4.9254    1.7535 H   0  0  0  0  0  0  0  0  0  0  0  0
    0.7801    2.8947    1.1738 C   0  0  0  0  0  0  0  0  0  0  0  0
    1.4193    2.9178    0.2778 H   0  0  0  0  0  0  0  0  0  0  0  0
   -1.5154   -1.6988    1.7957 C   0  0  0  0  0  0  0  0  0  0  0  0
   -0.4439   -1.9492    2.6872 C   0  0  0  0  0  0  0  0  0  0  0  0
    0.5330   -1.4821    2.4950 H   0  0  0  0  0  0  0  0  0  0  0  0
   -0.6118   -2.7759    3.8045 C   0  0  0  0  0  0  0  0  0  0  0  0
    0.2414   -2.9664    4.4725 H   0  0  0  0  0  0  0  0  0  0  0  0
   -1.8631   -3.3535    4.0702 C   0  0  0  0  0  0  0  0  0  0  0  0
   -1.9988   -4.0018    4.9489 H   0  0  0  0  0  0  0  0  0  0  0  0
   -2.9465   -3.0870    3.2141 C   0  0  0  0  0  0  0  0  0  0  0  0
   -3.9360   -3.5190    3.4281 H   0  0  0  0  0  0  0  0  0  0  0  0
   -2.7793   -2.2708    2.0902 C   0  0  0  0  0  0  0  0  0  0  0  0
   -3.6369   -2.0584    1.4366 H   0  0  0  0  0  0  0  0  0  0  0  0
   -3.0790   -1.1531   -1.2159 C   0  0  0  0  0  0  0  0  0  0  0  0
   -3.2410   -2.5592   -1.1604 C   0  0  0  0  0  0  0  0  0  0  0  0
   -2.5392   -3.1585   -0.5626 H   0  0  0  0  0  0  0  0  0  0  0  0
   -4.2563   -3.1887   -1.8884 C   0  0  0  0  0  0  0  0  0  0  0  0
   -4.3601   -4.2835   -1.8438 H   0  0  0  0  0  0  0  0  0  0  0  0
   -5.1305   -2.4301   -2.6865 C   0  0  0  0  0  0  0  0  0  0  0  0
   -5.9296   -2.9276   -3.2568 H   0  0  0  0  0  0  0  0  0  0  0  0
   -4.9689   -1.0380   -2.7656 C   0  0  0  0  0  0  0  0  0  0  0  0
   -5.6419   -0.4393   -3.3978 H   0  0  0  0  0  0  0  0  0  0  0  0
   -3.9471   -0.4039   -2.0462 C   0  0  0  0  0  0  0  0  0  0  0  0
   -3.8220    0.6866   -2.1140 H   0  0  0  0  0  0  0  0  0  0  0  0
   -1.8184    2.0736   -0.9881 C   0  0  0  0  0  0  0  0  0  0  0  0
   -2.8146    2.3954   -0.0426 C   0  0  0  0  0  0  0  0  0  0  0  0
   -3.2100    1.6062    0.6146 H   0  0  0  0  0  0  0  0  0  0  0  0
   -3.2967    3.7070    0.0669 C   0  0  0  0  0  0  0  0  0  0  0  0
   -4.0729    3.9412    0.8113 H   0  0  0  0  0  0  0  0  0  0  0  0
   -2.7914    4.7188   -0.7651 C   0  0  0  0  0  0  0  0  0  0  0  0
   -3.1698    5.7484   -0.6770 H   0  0  0  0  0  0  0  0  0  0  0  0
   -1.8022    4.4078   -1.7118 C   0  0  0  0  0  0  0  0  0  0  0  0
   -1.4009    5.1934   -2.3701 H   0  0  0  0  0  0  0  0  0  0  0  0
   -1.3199    3.0962   -1.8226 C   0  0  0  0  0  0  0  0  0  0  0  0
   -0.5322    2.8593   -2.5552 H   0  0  0  0  0  0  0  0  0  0  0  0
  1  2  1  0  0  0  0
  1  6  1  1  0  0  0
  2 17  1  0  0  0  0
  3  2  2  0  0  0  0
  4  5  1  6  0  0  0
  4 39  1  0  0  0  0
  4  3  1  0  0  0  0
  4  1  1  0  0  0  0
  6  7  1  0  0  0  0
  7  8  1  0  0  0  0
  7  9  2  0  0  0  0
  9 10  1  0  0  0  0
 11  9  1  0  0  0  0
 11 12  1  0  0  0  0
 13 11  2  0  0  0  0
 14 13  1  0  0  0  0
 15  6  2  0  0  0  0
 15 13  1  0  0  0  0
 16 15  1  0  0  0  0
 17 26  2  0  0  0  0
 17 18  1  0  0  0  0
 18 20  2  0  0  0  0
 19 18  1  0  0  0  0
 20 22  1  0  0  0  0
 20 21  1  0  0  0  0
 22 23  1  0  0  0  0
 24 25  1  0  0  0  0
 24 22  2  0  0  0  0
 26 24  1  0  0  0  0
 27 26  1  0  0  0  0
 28 29  1  0  0  0  0
 28  3  1  0  0  0  0
 29 30  1  0  0  0  0
 31 32  1  0  0  0  0
 31 29  2  0  0  0  0
 33 31  1  0  0  0  0
 34 33  1  0  0  0  0
 35 33  2  0  0  0  0
 35 37  1  0  0  0  0
 36 35  1  0  0  0  0
 37 28  2  0  0  0  0
 38 37  1  0  0  0  0
 39 40  1  0  0  0  0
 40 42  2  0  0  0  0
 40 41  1  0  0  0  0
 42 43  1  0  0  0  0
 44 45  1  0  0  0  0
 44 42  1  0  0  0  0
 46 44  2  0  0  0  0
 47 46  1  0  0  0  0
 48 46  1  0  0  0  0
 48 39  2  0  0  0  0
 49 48  1  0  0  0  0
M  END
