1
q = 0.0, confidence = 0.996

 37 39  0  0  0  0  0  0  0  0999 V2000
    0.6322   -0.3058   -0.1620 P   0  0  0  0  0  0  0  0  0  0  0  0
    0.2984   -3.8921   -0.2688 F   0  0  0  0  0  0  0  0  0  0  0  0
    3.5832   -1.1280    1.7129 F   0  0  0  0  0  0  0  0  0  0  0  0
    1.7615    1.0221    2.3406 F   0  0  0  0  0  0  0  0  0  0  0  0
    3.4013    2.1083   -1.9466 F   0  0  0  0  0  0  0  0  0  0  0  0
    1.4397    0.5280   -3.5329 F   0  0  0  0  0  0  0  0  0  0  0  0
   -1.8283   -2.3437   -1.7091 F   0  0  0  0  0  0  0  0  0  0  0  0
    0.9509   -1.5146    0.9319 O   0  0  0  0  0  0  0  0  0  0  0  0
    2.1441    0.3423   -0.3376 O   0  0  0  0  0  0  0  0  0  0  0  0
    0.6616   -1.2195   -1.5491 O   0  0  0  0  0  0  0  0  0  0  0  0
    1.9158   -2.4749    0.7103 C   0  0  0  0  0  0  0  0  0  0  0  0
    1.5712   -3.7014    0.1093 C   0  0  0  0  0  0  0  0  0  0  0  0
    2.5193   -4.7111   -0.0802 C   0  0  0  0  0  0  0  0  0  0  0  0
    2.2053   -5.6515   -0.5538 H   0  0  0  0  0  0  0  0  0  0  0  0
    3.8410   -4.4906    0.3368 C   0  0  0  0  0  0  0  0  0  0  0  0
    4.5949   -5.2772    0.1891 H   0  0  0  0  0  0  0  0  0  0  0  0
    4.2122   -3.2812    0.9427 C   0  0  0  0  0  0  0  0  0  0  0  0
    5.2401   -3.0894    1.2801 H   0  0  0  0  0  0  0  0  0  0  0  0
    3.2484   -2.2834    1.1250 C   0  0  0  0  0  0  0  0  0  0  0  0
    2.5796    1.5340    0.1866 C   0  0  0  0  0  0  0  0  0  0  0  0
    2.4205    1.8838    1.5371 C   0  0  0  0  0  0  0  0  0  0  0  0
    2.9045    3.0909    2.0462 C   0  0  0  0  0  0  0  0  0  0  0  0
    2.7448    3.3231    3.1079 H   0  0  0  0  0  0  0  0  0  0  0  0
    3.5759    3.9680    1.1818 C   0  0  0  0  0  0  0  0  0  0  0  0
    3.9605    4.9228    1.5681 H   0  0  0  0  0  0  0  0  0  0  0  0
    3.7568    3.6436   -0.1716 C   0  0  0  0  0  0  0  0  0  0  0  0
    4.2698    4.3202   -0.8688 H   0  0  0  0  0  0  0  0  0  0  0  0
    3.2541    2.4347   -0.6603 C   0  0  0  0  0  0  0  0  0  0  0  0
   -0.1767   -0.9093   -2.5993 C   0  0  0  0  0  0  0  0  0  0  0  0
    0.2249   -0.0157   -3.6106 C   0  0  0  0  0  0  0  0  0  0  0  0
   -0.6273    0.2883   -4.6773 C   0  0  0  0  0  0  0  0  0  0  0  0
   -0.2825    0.9989   -5.4407 H   0  0  0  0  0  0  0  0  0  0  0  0
   -1.8976   -0.3036   -4.7318 C   0  0  0  0  0  0  0  0  0  0  0  0
   -2.5730   -0.0601   -5.5645 H   0  0  0  0  0  0  0  0  0  0  0  0
   -2.3214   -1.2014   -3.7392 C   0  0  0  0  0  0  0  0  0  0  0  0
   -3.3117   -1.6761   -3.7646 H   0  0  0  0  0  0  0  0  0  0  0  0
   -1.4531   -1.4909   -2.6839 C   0  0  0  0  0  0  0  0  0  0  0  0
  1  8  1  0  0  0  0
  2 12  1  0  0  0  0
  5 28  1  0  0  0  0
  9  1  1  0  0  0  0
  9 20  1  0  0  0  0
 10  1  1  0  0  0  0
 11  8  1  0  0  0  0
 11 19  1  0  0  0  0
 12 11  2  0  0  0  0
 13 12  1  0  0  0  0
 13 15  2  0  0  0  0
 14 13  1  0  0  0  0
 15 17  1  0  0  0  0
 16 15  1  0  0  0  0
 17 19  2  0  0  0  0
 17 18  1  0  0  0  0
 19  3  1  0  0  0  0
 20 21  1  0  0  0  0
 21 22  2  0  0  0  0
 21  4  1  0  0  0  0
 22 23  1  0  0  0  0
 24 25  1  0  0  0  0
 24 22  1  0  0  0  0
 26 24  2  0  0  0  0
 27 26  1  0  0  0  0
 28 26  1  0  0  0  0
 28 20  2  0  0  0  0
 29 10  1  0  0  0  0
 30  6  1  0  0  0  0
 30 29  2  0  0  0  0
 31 30  1  0  0  0  0
 32 31  1  0  0  0  0
 33 31  2  0  0  0  0
 33 35  1  0  0  0  0
 34 33  1  0  0  0  0
 35 37  2  0  0  0  0
 36 35  1  0  0  0  0
 37 29  1  0  0  0  0
 37  7  1  0  0  0  0
M  END
