1
q = -1.0, confidence = 0.172

 50 53  0  0  0  0  0  0  0  0999 V2000
   -0.9307    0.4839    0.4602 P   0  0  0  0  0  0  0  0  0  0  0  0
    1.9083   -0.5695   -0.0032 P   0  0  0  0  0  4  0  0  0  0  0  0
   -1.9086    0.9963    1.9318 C   0  0  0  0  0  0  0  0  0  0  0  0
   -3.2084    1.4834    1.6715 C   0  0  0  0  0  0  0  0  0  0  0  0
   -4.0276    1.8946    2.7298 C   0  0  0  0  0  0  0  0  0  0  0  0
   -3.5689    1.8139    4.0554 C   0  0  0  0  0  0  0  0  0  0  0  0
   -2.2854    1.3149    4.3186 C   0  0  0  0  0  0  0  0  0  0  0  0
   -1.4558    0.9060    3.2614 C   0  0  0  0  0  0  0  0  0  0  0  0
   -0.4294    2.1280   -0.2301 C   0  0  0  0  0  0  0  0  0  0  0  0
    0.2519    3.0629    0.5781 C   0  0  0  0  0  0  0  0  0  0  0  0
    0.6340    4.3047    0.0549 C   0  0  0  0  0  0  0  0  0  0  0  0
    0.3193    4.6325   -1.2750 C   0  0  0  0  0  0  0  0  0  0  0  0
   -0.3778    3.7150   -2.0743 C   0  0  0  0  0  0  0  0  0  0  0  0
   -0.7507    2.4625   -1.5597 C   0  0  0  0  0  0  0  0  0  0  0  0
    0.6609   -0.1055    1.2507 C   0  0  0  0  0  0  0  0  0  0  0  0
    2.8088    0.9482   -0.4303 C   0  0  0  0  0  0  0  0  0  0  0  0
    3.6624    1.5759    0.5015 C   0  0  0  0  0  0  0  0  0  0  0  0
    4.2825    2.7864    0.1667 C   0  0  0  0  0  0  0  0  0  0  0  0
    4.0470    3.3725   -1.0887 C   0  0  0  0  0  0  0  0  0  0  0  0
    3.1944    2.7490   -2.0120 C   0  0  0  0  0  0  0  0  0  0  0  0
    2.5724    1.5338   -1.6902 C   0  0  0  0  0  0  0  0  0  0  0  0
    3.0939   -1.7619    0.6848 C   0  0  0  0  0  0  0  0  0  0  0  0
    4.4498   -1.6791    0.3001 C   0  0  0  0  0  0  0  0  0  0  0  0
    5.3691   -2.6214    0.7818 C   0  0  0  0  0  0  0  0  0  0  0  0
    4.9438   -3.6447    1.6433 C   0  0  0  0  0  0  0  0  0  0  0  0
    3.5934   -3.7322    2.0174 C   0  0  0  0  0  0  0  0  0  0  0  0
    2.6634   -2.7996    1.5383 C   0  0  0  0  0  0  0  0  0  0  0  0
   -3.5794    1.5152    0.6351 H   0  0  0  0  0  0  0  0  0  0  0  0
   -5.0399    2.2700    2.5169 H   0  0  0  0  0  0  0  0  0  0  0  0
   -4.2177    2.1323    4.8853 H   0  0  0  0  0  0  0  0  0  0  0  0
   -1.9231    1.2380    5.3551 H   0  0  0  0  0  0  0  0  0  0  0  0
   -0.4568    0.5095    3.4942 H   0  0  0  0  0  0  0  0  0  0  0  0
    0.4753    2.8283    1.6309 H   0  0  0  0  0  0  0  0  0  0  0  0
    1.1725    5.0237    0.6907 H   0  0  0  0  0  0  0  0  0  0  0  0
    0.6137    5.6111   -1.6844 H   0  0  0  0  0  0  0  0  0  0  0  0
   -0.6370    3.9706   -3.1130 H   0  0  0  0  0  0  0  0  0  0  0  0
   -1.2894    1.7377   -2.1857 H   0  0  0  0  0  0  0  0  0  0  0  0
    1.1222    0.6482    1.9212 H   0  0  0  0  0  0  0  0  0  0  0  0
    0.3910   -1.0178    1.8172 H   0  0  0  0  0  0  0  0  0  0  0  0
    1.2349   -0.9790   -1.2203 H   0  0  0  0  0  0  0  0  0  0  0  0
    3.8483    1.1152    1.4845 H   0  0  0  0  0  0  0  0  0  0  0  0
    4.9510    3.2772    0.8897 H   0  0  0  0  0  0  0  0  0  0  0  0
    4.5303    4.3270   -1.3461 H   0  0  0  0  0  0  0  0  0  0  0  0
    3.0000    3.2143   -2.9893 H   0  0  0  0  0  0  0  0  0  0  0  0
    1.8816    1.0531   -2.4002 H   0  0  0  0  0  0  0  0  0  0  0  0
    4.7880   -0.8772   -0.3727 H   0  0  0  0  0  0  0  0  0  0  0  0
    6.4248   -2.5538    0.4795 H   0  0  0  0  0  0  0  0  0  0  0  0
    5.6681   -4.3822    2.0207 H   0  0  0  0  0  0  0  0  0  0  0  0
    3.2539   -4.5408    2.6815 H   0  0  0  0  0  0  0  0  0  0  0  0
    1.5995   -2.9013    1.7972 H   0  0  0  0  0  0  0  0  0  0  0  0
  1 15  1  0  0  0  0
  1  3  1  0  0  0  0
  2 22  1  0  0  0  0
  2 15  1  0  0  0  0
  3  8  1  0  0  0  0
  4  3  2  0  0  0  0
  4  5  1  0  0  0  0
  5  6  2  0  0  0  0
  6  7  1  0  0  0  0
  6 30  1  0  0  0  0
  7 31  1  0  0  0  0
  8 32  1  0  0  0  0
  8  7  2  0  0  0  0
  9  1  1  0  0  0  0
  9 10  1  0  0  0  0
 10 33  1  0  0  0  0
 11 10  2  0  0  0  0
 11 34  1  0  0  0  0
 12 11  1  0  0  0  0
 13 14  1  0  0  0  0
 13 12  2  0  0  0  0
 14  9  2  0  0  0  0
 15 39  1  0  0  0  0
 15 38  1  0  0  0  0
 16  2  1  0  0  0  0
 16 17  1  0  0  0  0
 17 41  1  0  0  0  0
 18 17  2  0  0  0  0
 18 42  1  0  0  0  0
 19 18  1  0  0  0  0
 20 21  1  0  0  0  0
 20 19  2  0  0  0  0
 21 16  2  0  0  0  0
 22 27  1  0  0  0  0
 23 22  2  0  0  0  0
 23 24  1  0  0  0  0
 24 25  2  0  0  0  0
 25 26  1  0  0  0  0
 25 48  1  0  0  0  0
 26 49  1  0  0  0  0
 27 50  1  0  0  0  0
 27 26  2  0  0  0  0
 28  4  1  0  0  0  0
 29  5  1  0  0  0  0
 35 12  1  0  0  0  0
 36 13  1  0  0  0  0
 37 14  1  0  0  0  0
 40  2  1  0  0  0  0
 43 19  1  0  0  0  0
 44 20  1  0  0  0  0
 45 21  1  0  0  0  0
 46 23  1  0  0  0  0
 47 24  1  0  0  0  0
M  END
