3
q = 0.0, confidence = 0.998

 41 42  0  0  0  0  0  0  0  0999 V2000
    0.1608    2.2082   -0.2621 O   0  0  0  0  0  0  0  0  0  0  0  0
    1.1123    2.4561   -0.1867 H   0  0  0  0  0  0  0  0  0  0  0  0
   -0.2496    0.9398    0.7283 P   0  0  1  0  0  0  0  0  0  0  0  0
    1.2329   -0.0708    1.0048 C   0  0  0  0  0  3  0  0  0  0  0  0
    1.0043   -0.9207    1.6708 H   0  0  0  0  0  0  0  0  0  0  0  0
    2.4348   -0.0839    0.3577 C   0  0  0  0  0  3  0  0  0  0  0  0
    2.8872    1.0527   -0.4999 C   0  0  0  0  0  0  0  0  0  0  0  0
    3.0450    0.8880   -1.8927 C   0  0  0  0  0  0  0  0  0  0  0  0
    2.8185   -0.0874   -2.3467 H   0  0  0  0  0  0  0  0  0  0  0  0
    3.4432    1.9670   -2.6926 C   0  0  0  0  0  0  0  0  0  0  0  0
    3.5391    1.8304   -3.7803 H   0  0  0  0  0  0  0  0  0  0  0  0
    3.7094    3.2210   -2.1164 C   0  0  0  0  0  0  0  0  0  0  0  0
    4.0206    4.0652   -2.7498 H   0  0  0  0  0  0  0  0  0  0  0  0
    3.5815    3.3908   -0.7303 C   0  0  0  0  0  0  0  0  0  0  0  0
    3.8027    4.3648   -0.2682 H   0  0  0  0  0  0  0  0  0  0  0  0
    3.1740    2.3123    0.0759 C   0  0  0  0  0  0  0  0  0  0  0  0
    3.0985    2.4318    1.1671 H   0  0  0  0  0  0  0  0  0  0  0  0
    3.3622   -1.2379    0.4781 C   0  0  0  0  0  0  0  0  0  0  0  0
    4.7564   -1.0521    0.3222 C   0  0  0  0  0  0  0  0  0  0  0  0
    5.1452   -0.0456    0.1077 H   0  0  0  0  0  0  0  0  0  0  0  0
    5.6434   -2.1285    0.4545 C   0  0  0  0  0  0  0  0  0  0  0  0
    6.7250   -1.9606    0.3391 H   0  0  0  0  0  0  0  0  0  0  0  0
    5.1562   -3.4153    0.7322 C   0  0  0  0  0  0  0  0  0  0  0  0
    5.8522   -4.2623    0.8286 H   0  0  0  0  0  0  0  0  0  0  0  0
    3.7729   -3.6179    0.8719 C   0  0  0  0  0  0  0  0  0  0  0  0
    3.3794   -4.6268    1.0679 H   0  0  0  0  0  0  0  0  0  0  0  0
    2.8841   -2.5440    0.7430 C   0  0  0  0  0  0  0  0  0  0  0  0
    1.8019   -2.7262    0.8187 H   0  0  0  0  0  0  0  0  0  0  0  0
   -0.5935    1.7598    2.4010 C   0  0  0  0  0  0  0  0  0  0  0  0
   -0.9112    0.6604    3.4253 C   0  0  0  0  0  0  0  0  0  0  0  0
   -0.0277    0.0261    3.6396 H   0  0  0  0  0  0  0  0  0  0  0  0
   -1.7372    0.0047    3.0862 H   0  0  0  0  0  0  0  0  0  0  0  0
   -1.2264    1.1256    4.3830 H   0  0  0  0  0  0  0  0  0  0  0  0
    0.6319    2.5738    2.8390 C   0  0  0  0  0  0  0  0  0  0  0  0
    1.5215    1.9277    2.9841 H   0  0  0  0  0  0  0  0  0  0  0  0
    0.4191    3.0804    3.8039 H   0  0  0  0  0  0  0  0  0  0  0  0
    0.8814    3.3616    2.1000 H   0  0  0  0  0  0  0  0  0  0  0  0
   -1.8015    2.6873    2.1887 C   0  0  0  0  0  0  0  0  0  0  0  0
   -2.0274    3.2281    3.1315 H   0  0  0  0  0  0  0  0  0  0  0  0
   -2.7074    2.1216    1.8976 H   0  0  0  0  0  0  0  0  0  0  0  0
   -1.5964    3.4375    1.3995 H   0  0  0  0  0  0  0  0  0  0  0  0
  1  2  1  0  0  0  0
  3  1  1  6  0  0  0
  3  4  1  0  0  0  0
  3 29  1  0  0  0  0
  4  5  1  0  0  0  0
  6 18  1  0  0  0  0
  6  4  1  0  0  0  0
  7 16  1  0  0  0  0
  7  6  1  0  0  0  0
  8  7  2  0  0  0  0
  9  8  1  0  0  0  0
 10 12  2  0  0  0  0
 10  8  1  0  0  0  0
 11 10  1  0  0  0  0
 12 14  1  0  0  0  0
 13 12  1  0  0  0  0
 14 15  1  0  0  0  0
 14 16  2  0  0  0  0
 16 17  1  0  0  0  0
 18 27  1  0  0  0  0
 19 21  1  0  0  0  0
 19 18  2  0  0  0  0
 20 19  1  0  0  0  0
 21 23  2  0  0  0  0
 22 21  1  0  0  0  0
 23 24  1  0  0  0  0
 23 25  1  0  0  0  0
 25 26  1  0  0  0  0
 27 28  1  0  0  0  0
 27 25  2  0  0  0  0
 29 34  1  0  0  0  0
 29 30  1  0  0  0  0
 30 31  1  0  0  0  0
 30 33  1  0  0  0  0
 32 30  1  0  0  0  0
 34 35  1  0  0  0  0
 34 36  1  0  0  0  0
 37 34  1  0  0  0  0
 38 29  1  0  0  0  0
 38 39  1  0  0  0  0
 40 38  1  0  0  0  0
 41 38  1  0  0  0  0
M  END
