1
q = 0.0, confidence = 0.994

 42 44  0  0  0  0  0  0  0  0999 V2000
   -0.3544    0.8300   -0.4616 P   0  0  0  0  0  0  0  0  0  0  0  0
   -5.7069   -2.0160   -0.5758 N   0  0  0  0  0  0  0  0  0  0  0  0
   -1.9428   -0.0615   -0.5723 C   0  0  0  0  0  0  0  0  0  0  0  0
   -2.6643   -0.2442    0.6280 C   0  0  0  0  0  0  0  0  0  0  0  0
   -2.2404    0.1416    1.5731 H   0  0  0  0  0  0  0  0  0  0  0  0
   -3.9068   -0.8810    0.6312 C   0  0  0  0  0  0  0  0  0  0  0  0
   -4.4351   -0.9912    1.5869 H   0  0  0  0  0  0  0  0  0  0  0  0
   -4.4821   -1.3765   -0.5744 C   0  0  0  0  0  0  0  0  0  0  0  0
   -6.4456   -2.1661    0.6614 C   0  0  0  0  0  0  0  0  0  0  0  0
   -6.7016   -1.1851    1.1231 H   0  0  0  0  0  0  0  0  0  0  0  0
   -5.8767   -2.7507    1.4192 H   0  0  0  0  0  0  0  0  0  0  0  0
   -7.3901   -2.7034    0.4613 H   0  0  0  0  0  0  0  0  0  0  0  0
   -6.2811   -2.4805   -1.8212 C   0  0  0  0  0  0  0  0  0  0  0  0
   -5.6284   -3.2249   -2.3312 H   0  0  0  0  0  0  0  0  0  0  0  0
   -6.4623   -1.6492   -2.5409 H   0  0  0  0  0  0  0  0  0  0  0  0
   -7.2514   -2.9685   -1.6180 H   0  0  0  0  0  0  0  0  0  0  0  0
   -3.7455   -1.1874   -1.7806 C   0  0  0  0  0  0  0  0  0  0  0  0
   -4.1450   -1.5472   -2.7374 H   0  0  0  0  0  0  0  0  0  0  0  0
   -2.5085   -0.5392   -1.7726 C   0  0  0  0  0  0  0  0  0  0  0  0
   -1.9682   -0.4130   -2.7238 H   0  0  0  0  0  0  0  0  0  0  0  0
    0.7015    0.1513   -1.7913 C   0  0  0  0  0  0  0  0  0  0  0  0
    0.7558   -1.2479   -1.9966 C   0  0  0  0  0  0  0  0  0  0  0  0
    0.0388   -1.9019   -1.4766 H   0  0  0  0  0  0  0  0  0  0  0  0
    1.7143   -1.8063   -2.8533 C   0  0  0  0  0  0  0  0  0  0  0  0
    1.7396   -2.8967   -3.0014 H   0  0  0  0  0  0  0  0  0  0  0  0
    2.6461   -0.9839   -3.5079 C   0  0  0  0  0  0  0  0  0  0  0  0
    3.4015   -1.4251   -4.1757 H   0  0  0  0  0  0  0  0  0  0  0  0
    2.6082    0.4046   -3.3009 C   0  0  0  0  0  0  0  0  0  0  0  0
    3.3364    1.0576   -3.8061 H   0  0  0  0  0  0  0  0  0  0  0  0
    1.6479    0.9698   -2.4501 C   0  0  0  0  0  0  0  0  0  0  0  0
    1.6301    2.0585   -2.2917 H   0  0  0  0  0  0  0  0  0  0  0  0
   -0.7161    2.5604   -0.9699 C   0  0  0  0  0  0  0  0  0  0  0  0
   -1.0825    2.9094   -2.2866 C   0  0  0  0  0  0  0  0  0  0  0  0
   -1.1330    2.1348   -3.0676 H   0  0  0  0  0  0  0  0  0  0  0  0
   -1.3753    4.2435   -2.6021 C   0  0  0  0  0  0  0  0  0  0  0  0
   -1.6574    4.5140   -3.6314 H   0  0  0  0  0  0  0  0  0  0  0  0
   -1.3134    5.2330   -1.6049 C   0  0  0  0  0  0  0  0  0  0  0  0
   -1.5467    6.2795   -1.8551 H   0  0  0  0  0  0  0  0  0  0  0  0
   -0.9591    4.8856   -0.2922 C   0  0  0  0  0  0  0  0  0  0  0  0
   -0.9178    5.6563    0.4926 H   0  0  0  0  0  0  0  0  0  0  0  0
   -0.6569    3.5523    0.0295 C   0  0  0  0  0  0  0  0  0  0  0  0
   -0.3959    3.2598    1.0627 H   0  0  0  0  0  0  0  0  0  0  0  0
  2  8  1  0  0  0  0
  2  9  1  0  0  0  0
  3  1  1  0  0  0  0
  3  4  1  0  0  0  0
  4  6  2  0  0  0  0
  4  5  1  0  0  0  0
  6  7  1  0  0  0  0
  8  6  1  0  0  0  0
  9 10  1  0  0  0  0
  9 11  1  0  0  0  0
 12  9  1  0  0  0  0
 13 16  1  0  0  0  0
 13  2  1  0  0  0  0
 14 13  1  0  0  0  0
 15 13  1  0  0  0  0
 17 19  1  0  0  0  0
 17  8  2  0  0  0  0
 18 17  1  0  0  0  0
 19  3  2  0  0  0  0
 20 19  1  0  0  0  0
 21  1  1  0  0  0  0
 22 21  1  0  0  0  0
 22 23  1  0  0  0  0
 24 22  2  0  0  0  0
 25 24  1  0  0  0  0
 26 28  2  0  0  0  0
 26 24  1  0  0  0  0
 27 26  1  0  0  0  0
 28 30  1  0  0  0  0
 29 28  1  0  0  0  0
 30 31  1  0  0  0  0
 30 21  2  0  0  0  0
 32  1  1  0  0  0  0
 32 41  1  0  0  0  0
 33 32  2  0  0  0  0
 34 33  1  0  0  0  0
 35 33  1  0  0  0  0
 35 37  2  0  0  0  0
 36 35  1  0  0  0  0
 37 39  1  0  0  0  0
 38 37  1  0  0  0  0
 39 41  2  0  0  0  0
 39 40  1  0  0  0  0
 41 42  1  0  0  0  0
M  END
