1
q = 0.0, confidence = 0.988

 60 61  0  0  0  0  0  0  0  0999 V2000
    0.7527   -0.0104   -0.6582 P   0  0  0  0  0  0  0  0  0  0  0  0
    0.5597   -0.6976   -1.8874 H   0  0  0  0  0  0  0  0  0  0  0  0
    0.5353    1.7026   -1.2995 C   0  0  0  0  0  0  0  0  0  0  0  0
    1.6115    2.6082   -1.2555 C   0  0  0  0  0  0  0  0  0  0  0  0
    2.5676    2.2928   -0.8065 H   0  0  0  0  0  0  0  0  0  0  0  0
    1.4604    3.9028   -1.7773 C   0  0  0  0  0  0  0  0  0  0  0  0
    2.3028    4.6094   -1.7344 H   0  0  0  0  0  0  0  0  0  0  0  0
    0.2391    4.2928   -2.3479 C   0  0  0  0  0  0  0  0  0  0  0  0
    0.1203    5.3092   -2.7528 H   0  0  0  0  0  0  0  0  0  0  0  0
   -0.8327    3.3852   -2.4034 C   0  0  0  0  0  0  0  0  0  0  0  0
   -1.7902    3.6886   -2.8534 H   0  0  0  0  0  0  0  0  0  0  0  0
   -0.6892    2.0928   -1.8804 C   0  0  0  0  0  0  0  0  0  0  0  0
   -1.5359    1.3895   -1.9070 H   0  0  0  0  0  0  0  0  0  0  0  0
   -0.8946   -0.3849    0.1179 C   0  0  0  0  0  0  0  0  0  0  0  0
   -1.5116    0.5622    0.9945 C   0  0  0  0  0  0  0  0  0  0  0  0
   -2.9221    0.5800    1.0476 C   0  0  0  0  0  0  0  0  0  0  0  0
   -3.3994    1.3463    1.6696 H   0  0  0  0  0  0  0  0  0  0  0  0
   -3.7314   -0.3235    0.3535 C   0  0  0  0  0  0  0  0  0  0  0  0
   -3.0751   -1.3697   -0.3172 C   0  0  0  0  0  0  0  0  0  0  0  0
   -3.6861   -2.1566   -0.7761 H   0  0  0  0  0  0  0  0  0  0  0  0
   -1.6788   -1.4560   -0.4373 C   0  0  0  0  0  0  0  0  0  0  0  0
   -0.8172    1.5524    1.9746 C   0  0  0  0  0  0  0  0  0  0  0  0
    0.7009    1.3732    2.1218 C   0  0  0  0  0  0  0  0  0  0  0  0
    1.2696    1.7182    1.2400 H   0  0  0  0  0  0  0  0  0  0  0  0
    0.9802    0.3224    2.3333 H   0  0  0  0  0  0  0  0  0  0  0  0
    1.0583    1.9889    2.9714 H   0  0  0  0  0  0  0  0  0  0  0  0
   -1.1127    3.0175    1.5802 C   0  0  0  0  0  0  0  0  0  0  0  0
   -2.2013    3.2170    1.5229 H   0  0  0  0  0  0  0  0  0  0  0  0
   -0.6687    3.2700    0.5988 H   0  0  0  0  0  0  0  0  0  0  0  0
   -0.6836    3.7050    2.3376 H   0  0  0  0  0  0  0  0  0  0  0  0
   -1.4034    1.2799    3.3878 C   0  0  0  0  0  0  0  0  0  0  0  0
   -2.4908    1.4747    3.4508 H   0  0  0  0  0  0  0  0  0  0  0  0
   -0.9046    1.9396    4.1263 H   0  0  0  0  0  0  0  0  0  0  0  0
   -1.2268    0.2288    3.6922 H   0  0  0  0  0  0  0  0  0  0  0  0
   -5.2663   -0.2479    0.3504 C   0  0  0  0  0  0  0  0  0  0  0  0
   -5.7879    0.9687    1.1340 C   0  0  0  0  0  0  0  0  0  0  0  0
   -5.4066    1.9222    0.7157 H   0  0  0  0  0  0  0  0  0  0  0  0
   -5.5053    0.9236    2.2050 H   0  0  0  0  0  0  0  0  0  0  0  0
   -6.8947    1.0008    1.0847 H   0  0  0  0  0  0  0  0  0  0  0  0
   -5.8439   -1.5301    0.9921 C   0  0  0  0  0  0  0  0  0  0  0  0
   -5.5387   -2.4418    0.4413 H   0  0  0  0  0  0  0  0  0  0  0  0
   -6.9528   -1.4945    0.9948 H   0  0  0  0  0  0  0  0  0  0  0  0
   -5.4999   -1.6377    2.0406 H   0  0  0  0  0  0  0  0  0  0  0  0
   -5.7546   -0.1355   -1.1120 C   0  0  0  0  0  0  0  0  0  0  0  0
   -5.4344   -1.0044   -1.7206 H   0  0  0  0  0  0  0  0  0  0  0  0
   -5.3554    0.7802   -1.5936 H   0  0  0  0  0  0  0  0  0  0  0  0
   -6.8625   -0.0885   -1.1478 H   0  0  0  0  0  0  0  0  0  0  0  0
   -1.1115   -2.7406   -1.1148 C   0  0  0  0  0  0  0  0  0  0  0  0
   -1.0578   -2.5862   -2.6535 C   0  0  0  0  0  0  0  0  0  0  0  0
   -0.3664   -1.7872   -2.9868 H   0  0  0  0  0  0  0  0  0  0  0  0
   -2.0620   -2.3440   -3.0561 H   0  0  0  0  0  0  0  0  0  0  0  0
   -0.7180   -3.5328   -3.1218 H   0  0  0  0  0  0  0  0  0  0  0  0
   -2.0453   -3.9435   -0.8167 C   0  0  0  0  0  0  0  0  0  0  0  0
   -3.0232   -3.8739   -1.3312 H   0  0  0  0  0  0  0  0  0  0  0  0
   -2.2312   -4.0535    0.2702 H   0  0  0  0  0  0  0  0  0  0  0  0
   -1.5622   -4.8729   -1.1778 H   0  0  0  0  0  0  0  0  0  0  0  0
    0.2643   -3.1493   -0.5432 C   0  0  0  0  0  0  0  0  0  0  0  0
    1.0995   -2.4738   -0.8062 H   0  0  0  0  0  0  0  0  0  0  0  0
    0.5463   -4.1472   -0.9346 H   0  0  0  0  0  0  0  0  0  0  0  0
    0.2313   -3.2145    0.5627 H   0  0  0  0  0  0  0  0  0  0  0  0
  1 14  1  0  0  0  0
  2  1  1  0  0  0  0
  3  4  1  0  0  0  0
  3  1  1  0  0  0  0
  4  5  1  0  0  0  0
  6  7  1  0  0  0  0
  6  4  2  0  0  0  0
  8  6  1  0  0  0  0
  9  8  1  0  0  0  0
 10  8  2  0  0  0  0
 10 12  1  0  0  0  0
 11 10  1  0  0  0  0
 12  3  2  0  0  0  0
 13 12  1  0  0  0  0
 14 15  1  0  0  0  0
 15 16  2  0  0  0  0
 15 22  1  0  0  0  0
 16 17  1  0  0  0  0
 18 16  1  0  0  0  0
 19 18  2  0  0  0  0
 20 19  1  0  0  0  0
 21 19  1  0  0  0  0
 21 14  2  0  0  0  0
 22 23  1  0  0  0  0
 22 31  1  0  0  0  0
 23 25  1  0  0  0  0
 23 26  1  0  0  0  0
 24 23  1  0  0  0  0
 27 22  1  0  0  0  0
 27 30  1  0  0  0  0
 28 27  1  0  0  0  0
 29 27  1  0  0  0  0
 31 32  1  0  0  0  0
 31 34  1  0  0  0  0
 31 33  1  0  0  0  0
 35 18  1  0  0  0  0
 35 40  1  0  0  0  0
 35 36  1  0  0  0  0
 36 38  1  0  0  0  0
 37 36  1  0  0  0  0
 39 36  1  0  0  0  0
 40 42  1  0  0  0  0
 40 43  1  0  0  0  0
 41 40  1  0  0  0  0
 44 35  1  0  0  0  0
 45 44  1  0  0  0  0
 46 44  1  0  0  0  0
 47 44  1  0  0  0  0
 48 53  1  0  0  0  0
 48 57  1  0  0  0  0
 48 21  1  0  0  0  0
 49 48  1  0  0  0  0
 50 49  1  0  0  0  0
 51 49  1  0  0  0  0
 52 49  1  0  0  0  0
 53 55  1  0  0  0  0
 54 53  1  0  0  0  0
 56 53  1  0  0  0  0
 57 60  1  0  0  0  0
 58 57  1  0  0  0  0
 59 57  1  0  0  0  0
M  END
