1
q = -1.0

 34 36  0  0  0  0  0  0  0  0999 V2000
    1.1877    0.0759    0.2811 P   0  0  0  0  0  0  0  0  0  0  0  0
    2.6114    0.2104   -0.8826 C   0  0  0  0  0  0  0  0  0  0  0  0
    2.4471   -0.1285   -2.2412 C   0  0  0  0  0  0  0  0  0  0  0  0
    3.5193   -0.0252   -3.1407 C   0  0  0  0  0  0  0  0  0  0  0  0
    4.7714    0.4232   -2.6900 C   0  0  0  0  0  0  0  0  0  0  0  0
    4.9440    0.7711   -1.3402 C   0  0  0  0  0  0  0  0  0  0  0  0
    3.8714    0.6684   -0.4404 C   0  0  0  0  0  0  0  0  0  0  0  0
    1.6268   -1.3993    1.3141 C   0  0  0  0  0  0  0  0  0  0  0  0
    0.6289   -1.9061    2.1764 C   0  0  0  0  0  0  0  0  0  0  0  0
    0.8714   -3.0356    2.9698 C   0  0  0  0  0  0  0  0  0  0  0  0
    2.1179   -3.6833    2.9138 C   0  0  0  0  0  0  0  0  0  0  0  0
    3.1185   -3.1805    2.0681 C   0  0  0  0  0  0  0  0  0  0  0  0
    2.8784   -2.0449    1.2767 C   0  0  0  0  0  0  0  0  0  0  0  0
    0.1189    1.6211    2.5953 C   0  0  0  0  0  0  0  0  0  0  0  0
   -0.0520    2.8052    3.3315 C   0  0  0  0  0  0  0  0  0  0  0  0
    0.6869    3.9752    3.0506 C   0  0  0  0  0  0  0  0  0  0  0  0
    1.6473    4.0037    2.0187 C   0  0  0  0  0  0  0  0  0  0  0  0
    1.9061    2.8858    1.2030 C   0  0  0  0  0  0  0  0  0  0  0  0
    1.1273    1.6174    1.4644 B   0  0  0  0  0  0  0  0  0  0  0  0
    1.4518   -0.4555   -2.5850 H   0  0  0  0  0  0  0  0  0  0  0  0
    3.3763   -0.2913   -4.1995 H   0  0  0  0  0  0  0  0  0  0  0  0
    5.6136    0.5081   -3.3938 H   0  0  0  0  0  0  0  0  0  0  0  0
    5.9215    1.1321   -0.9849 H   0  0  0  0  0  0  0  0  0  0  0  0
    4.0012    0.9554    0.6143 H   0  0  0  0  0  0  0  0  0  0  0  0
   -0.3543   -1.4120    2.1971 H   0  0  0  0  0  0  0  0  0  0  0  0
    0.0816   -3.4140    3.6376 H   0  0  0  0  0  0  0  0  0  0  0  0
    2.3086   -4.5748    3.5305 H   0  0  0  0  0  0  0  0  0  0  0  0
    4.0988   -3.6794    2.0169 H   0  0  0  0  0  0  0  0  0  0  0  0
    3.6682   -1.6737    0.6075 H   0  0  0  0  0  0  0  0  0  0  0  0
   -0.4973    0.7537    2.8914 H   0  0  0  0  0  0  0  0  0  0  0  0
   -0.7807    2.8418    4.1628 H   0  0  0  0  0  0  0  0  0  0  0  0
    0.5178    4.8799    3.6566 H   0  0  0  0  0  0  0  0  0  0  0  0
    2.2039    4.9453    1.8573 H   0  0  0  0  0  0  0  0  0  0  0  0
    2.6728    3.0095    0.4173 H   0  0  0  0  0  0  0  0  0  0  0  0
  1  8  1  0  0  0  0
  1 19  1  0  0  0  0
  2  7  1  0  0  0  0
  2  1  1  0  0  0  0
  3  2  2  0  0  0  0
  4  5  2  0  0  0  0
  4  3  1  0  0  0  0
  5  6  1  0  0  0  0
  6 23  1  0  0  0  0
  6  7  2  0  0  0  0
  7 24  1  0  0  0  0
  8  9  1  0  0  0  0
  9 25  1  0  0  0  0
  9 10  2  0  0  0  0
 10 26  1  0  0  0  0
 11 10  1  0  0  0  0
 11 27  1  0  0  0  0
 12 11  2  0  0  0  0
 13  8  2  0  0  0  0
 13 12  1  0  0  0  0
 14 30  1  0  0  0  0
 14 15  1  0  0  0  0
 15 31  1  0  0  0  0
 16 15  2  0  0  0  0
 16 32  1  0  0  0  0
 17 16  1  0  0  0  0
 18 19  1  0  0  0  0
 18 17  2  0  0  0  0
 19 14  2  0  0  0  0
 20  3  1  0  0  0  0
 21  4  1  0  0  0  0
 22  5  1  0  0  0  0
 28 12  1  0  0  0  0
 29 13  1  0  0  0  0
 33 17  1  0  0  0  0
 34 18  1  0  0  0  0
M  END
