1
q = 0.0, confidence = 1.0

 53 55  0  0  1  0  0  0  0  0999 V2000
    0.1435    0.2966    0.0092 P   0  0  2  0  0  0  0  0  0  0  0  0
    1.5277   -2.4866   -0.6415 Si  0  0  0  0  0  0  0  0  0  0  0  0
    0.7974   -1.7764    2.4383 Si  0  0  0  0  0  0  0  0  0  0  0  0
    1.0404    0.8037   -1.3436 O   0  0  0  0  0  0  0  0  0  0  0  0
    2.0096    1.8468   -1.0850 C   0  0  1  0  0  0  0  0  0  0  0  0
    1.9006    2.5639   -1.9283 H   0  0  0  0  0  0  0  0  0  0  0  0
    1.6090    2.5186    0.2093 C   0  0  0  0  0  0  0  0  0  0  0  0
    0.6200    1.8214    0.9291 C   0  0  0  0  0  0  0  0  0  0  0  0
    0.0683    2.3786    2.0939 C   0  0  0  0  0  0  0  0  0  0  0  0
   -0.7478    1.8728    2.6260 H   0  0  0  0  0  0  0  0  0  0  0  0
    0.5538    3.6082    2.5628 C   0  0  0  0  0  0  0  0  0  0  0  0
    0.1238    4.0513    3.4734 H   0  0  0  0  0  0  0  0  0  0  0  0
    1.5731    4.2831    1.8671 C   0  0  0  0  0  0  0  0  0  0  0  0
    1.9434    5.2500    2.2398 H   0  0  0  0  0  0  0  0  0  0  0  0
    2.0987    3.7456    0.6825 C   0  0  0  0  0  0  0  0  0  0  0  0
    2.8767    4.2847    0.1201 H   0  0  0  0  0  0  0  0  0  0  0  0
    1.1551   -1.0866    0.6739 C   0  0  0  0  0  0  0  0  0  0  0  0
    2.1603   -0.6220    0.8057 H   0  0  0  0  0  0  0  0  0  0  0  0
    3.4138   -2.5998   -0.7154 C   0  0  0  0  0  0  0  0  0  0  0  0
    3.7181   -3.4105   -1.4094 H   0  0  0  0  0  0  0  0  0  0  0  0
    3.8537   -2.8187    0.2781 H   0  0  0  0  0  0  0  0  0  0  0  0
    3.8537   -1.6523   -1.0836 H   0  0  0  0  0  0  0  0  0  0  0  0
    0.8632   -2.1127   -2.3702 C   0  0  0  0  0  0  0  0  0  0  0  0
    1.2133   -1.1374   -2.7543 H   0  0  0  0  0  0  0  0  0  0  0  0
   -0.2438   -2.1148   -2.3942 H   0  0  0  0  0  0  0  0  0  0  0  0
    1.2118   -2.9177   -3.0506 H   0  0  0  0  0  0  0  0  0  0  0  0
    0.8391   -4.1935   -0.1884 C   0  0  0  0  0  0  0  0  0  0  0  0
   -0.2669   -4.2146   -0.2253 H   0  0  0  0  0  0  0  0  0  0  0  0
    1.1685   -4.5725    0.7978 H   0  0  0  0  0  0  0  0  0  0  0  0
    1.2102   -4.9031   -0.9578 H   0  0  0  0  0  0  0  0  0  0  0  0
    0.6769   -0.4107    3.7455 C   0  0  0  0  0  0  0  0  0  0  0  0
   -0.3232    0.0638    3.7546 H   0  0  0  0  0  0  0  0  0  0  0  0
    1.4409    0.3820    3.6220 H   0  0  0  0  0  0  0  0  0  0  0  0
    0.8260   -0.8774    4.7419 H   0  0  0  0  0  0  0  0  0  0  0  0
   -0.7736   -2.8133    2.5779 C   0  0  0  0  0  0  0  0  0  0  0  0
   -0.8571   -3.1786    3.6227 H   0  0  0  0  0  0  0  0  0  0  0  0
   -0.7840   -3.6901    1.9060 H   0  0  0  0  0  0  0  0  0  0  0  0
   -1.6764   -2.2087    2.3678 H   0  0  0  0  0  0  0  0  0  0  0  0
    2.3254   -2.8038    2.9009 C   0  0  0  0  0  0  0  0  0  0  0  0
    3.2374   -2.1714    2.8896 H   0  0  0  0  0  0  0  0  0  0  0  0
    2.5014   -3.6649    2.2280 H   0  0  0  0  0  0  0  0  0  0  0  0
    2.2042   -3.1991    3.9307 H   0  0  0  0  0  0  0  0  0  0  0  0
    3.4296    1.2931   -1.1137 C   0  0  0  0  0  0  0  0  0  0  0  0
    3.9836    0.9190   -2.3541 C   0  0  0  0  0  0  0  0  0  0  0  0
    3.3918    1.0588   -3.2724 H   0  0  0  0  0  0  0  0  0  0  0  0
    5.2706    0.3680   -2.4249 C   0  0  0  0  0  0  0  0  0  0  0  0
    5.6903    0.0791   -3.4003 H   0  0  0  0  0  0  0  0  0  0  0  0
    6.0237    0.1867   -1.2525 C   0  0  0  0  0  0  0  0  0  0  0  0
    7.0346   -0.2445   -1.3066 H   0  0  0  0  0  0  0  0  0  0  0  0
    5.4809    0.5575   -0.0130 C   0  0  0  0  0  0  0  0  0  0  0  0
    6.0655    0.4188    0.9090 H   0  0  0  0  0  0  0  0  0  0  0  0
    4.1911    1.1077    0.0560 C   0  0  0  0  0  0  0  0  0  0  0  0
    3.7740    1.4070    1.0296 H   0  0  0  0  0  0  0  0  0  0  0  0
  1 17  1  1  0  0  0
  1  8  1  0  0  0  0
  2 27  1  0  0  0  0
  2 17  1  0  0  0  0
  3 35  1  0  0  0  0
  3 39  1  0  0  0  0
  3 31  1  0  0  0  0
  4  5  1  0  0  0  0
  4  1  1  0  0  0  0
  5  6  1  6  0  0  0
  5  7  1  0  0  0  0
  7 15  2  0  0  0  0
  7  8  1  0  0  0  0
  8  9  2  0  0  0  0
  9 11  1  0  0  0  0
  9 10  1  0  0  0  0
 11 12  1  0  0  0  0
 13 14  1  0  0  0  0
 13 11  2  0  0  0  0
 15 13  1  0  0  0  0
 16 15  1  0  0  0  0
 17 18  1  0  0  0  0
 17  3  1  0  0  0  0
 19  2  1  0  0  0  0
 19 21  1  0  0  0  0
 20 19  1  0  0  0  0
 22 19  1  0  0  0  0
 23  2  1  0  0  0  0
 24 23  1  0  0  0  0
 25 23  1  0  0  0  0
 26 23  1  0  0  0  0
 27 29  1  0  0  0  0
 28 27  1  0  0  0  0
 30 27  1  0  0  0  0
 31 32  1  0  0  0  0
 31 34  1  0  0  0  0
 33 31  1  0  0  0  0
 35 36  1  0  0  0  0
 37 35  1  0  0  0  0
 38 35  1  0  0  0  0
 39 42  1  0  0  0  0
 40 39  1  0  0  0  0
 41 39  1  0  0  0  0
 43  5  1  0  0  0  0
 43 52  1  0  0  0  0
 44 43  2  0  0  0  0
 45 44  1  0  0  0  0
 46 44  1  0  0  0  0
 46 48  2  0  0  0  0
 47 46  1  0  0  0  0
 48 50  1  0  0  0  0
 49 48  1  0  0  0  0
 50 52  2  0  0  0  0
 50 51  1  0  0  0  0
 52 53  1  0  0  0  0
M  END
