1
q = 0.0, confidence = 0.996

 46 46  0  0  0  0  0  0  0  0999 V2000
    0.0394   -0.5869   -0.7142 P   0  0  0  0  0  0  0  0  0  0  0  0
   -0.0916   -0.9825   -2.0929 H   0  0  0  0  0  0  0  0  0  0  0  0
    0.9193   -3.5111   -1.1835 Si  0  0  0  0  0  0  0  0  0  0  0  0
    1.7987   -1.9190    1.5602 Si  0  0  0  0  0  0  0  0  0  0  0  0
    1.5494    0.1913   -0.7944 O   0  0  0  0  0  0  0  0  0  0  0  0
    1.7024    1.4140   -1.4247 C   0  0  0  0  0  0  0  0  0  0  0  0
    0.9821    1.7653   -2.5153 C   0  0  0  0  0  0  0  0  0  0  0  0
    0.2263    1.1025   -2.9559 H   0  0  0  0  0  0  0  0  0  0  0  0
    1.1528    2.7303   -3.0076 H   0  0  0  0  0  0  0  0  0  0  0  0
    2.7404    2.2572   -0.7848 C   0  0  0  0  0  0  0  0  0  0  0  0
    2.7185    3.6635   -0.9203 C   0  0  0  0  0  0  0  0  0  0  0  0
    1.9002    4.1439   -1.4760 H   0  0  0  0  0  0  0  0  0  0  0  0
    3.7057    4.4537   -0.3202 C   0  0  0  0  0  0  0  0  0  0  0  0
    3.6650    5.5482   -0.4275 H   0  0  0  0  0  0  0  0  0  0  0  0
    4.7317    3.8574    0.4317 C   0  0  0  0  0  0  0  0  0  0  0  0
    5.5035    4.4810    0.9075 H   0  0  0  0  0  0  0  0  0  0  0  0
    4.7575    2.4626    0.5813 C   0  0  0  0  0  0  0  0  0  0  0  0
    5.5542    1.9846    1.1714 H   0  0  0  0  0  0  0  0  0  0  0  0
    3.7694    1.6692   -0.0174 C   0  0  0  0  0  0  0  0  0  0  0  0
    3.7913    0.5787    0.1028 H   0  0  0  0  0  0  0  0  0  0  0  0
    0.5365   -2.1383    0.1083 C   0  0  0  0  0  0  0  0  0  0  0  0
   -0.3951   -2.4600    0.6260 H   0  0  0  0  0  0  0  0  0  0  0  0
   -0.6836   -3.8649   -2.1304 C   0  0  0  0  0  0  0  0  0  0  0  0
   -1.4966   -4.1704   -1.4400 H   0  0  0  0  0  0  0  0  0  0  0  0
   -0.5262   -4.6905   -2.8551 H   0  0  0  0  0  0  0  0  0  0  0  0
   -1.0467   -2.9872   -2.7025 H   0  0  0  0  0  0  0  0  0  0  0  0
    1.4526   -5.1146   -0.3325 C   0  0  0  0  0  0  0  0  0  0  0  0
    0.6746   -5.4750    0.3707 H   0  0  0  0  0  0  0  0  0  0  0  0
    2.4011   -5.0052    0.2291 H   0  0  0  0  0  0  0  0  0  0  0  0
    1.6036   -5.9035   -1.0983 H   0  0  0  0  0  0  0  0  0  0  0  0
    2.2618   -2.9212   -2.3765 C   0  0  0  0  0  0  0  0  0  0  0  0
    2.0250   -1.9287   -2.8101 H   0  0  0  0  0  0  0  0  0  0  0  0
    2.3638   -3.6402   -3.2154 H   0  0  0  0  0  0  0  0  0  0  0  0
    3.2453   -2.8421   -1.8739 H   0  0  0  0  0  0  0  0  0  0  0  0
    1.6583   -0.2477    2.4308 C   0  0  0  0  0  0  0  0  0  0  0  0
    0.6631   -0.1109    2.8952 H   0  0  0  0  0  0  0  0  0  0  0  0
    1.8532    0.6079    1.7579 H   0  0  0  0  0  0  0  0  0  0  0  0
    2.4111   -0.2174    3.2465 H   0  0  0  0  0  0  0  0  0  0  0  0
    3.5699   -2.1528    0.9338 C   0  0  0  0  0  0  0  0  0  0  0  0
    3.7736   -1.4976    0.0642 H   0  0  0  0  0  0  0  0  0  0  0  0
    3.7700   -3.1982    0.6257 H   0  0  0  0  0  0  0  0  0  0  0  0
    4.2905   -1.8950    1.7370 H   0  0  0  0  0  0  0  0  0  0  0  0
    1.3648   -3.2556    2.8271 C   0  0  0  0  0  0  0  0  0  0  0  0
    0.3385   -3.0911    3.2159 H   0  0  0  0  0  0  0  0  0  0  0  0
    2.0621   -3.2015    3.6887 H   0  0  0  0  0  0  0  0  0  0  0  0
    1.4194   -4.2794    2.4089 H   0  0  0  0  0  0  0  0  0  0  0  0
  1 21  1  0  0  0  0
  2  1  1  0  0  0  0
  3 27  1  0  0  0  0
  3 21  1  0  0  0  0
  4 35  1  0  0  0  0
  4 43  1  0  0  0  0
  5  1  1  0  0  0  0
  6  5  1  0  0  0  0
  6 10  1  0  0  0  0
  7  6  2  0  0  0  0
  8  7  1  0  0  0  0
  9  7  1  0  0  0  0
 10 19  1  0  0  0  0
 11 10  2  0  0  0  0
 11 13  1  0  0  0  0
 12 11  1  0  0  0  0
 13 15  2  0  0  0  0
 14 13  1  0  0  0  0
 15 17  1  0  0  0  0
 15 16  1  0  0  0  0
 17 18  1  0  0  0  0
 19 20  1  0  0  0  0
 19 17  2  0  0  0  0
 21 22  1  0  0  0  0
 21  4  1  0  0  0  0
 23 24  1  0  0  0  0
 23  3  1  0  0  0  0
 25 23  1  0  0  0  0
 26 23  1  0  0  0  0
 27 29  1  0  0  0  0
 27 28  1  0  0  0  0
 30 27  1  0  0  0  0
 31 34  1  0  0  0  0
 31  3  1  0  0  0  0
 32 31  1  0  0  0  0
 33 31  1  0  0  0  0
 35 36  1  0  0  0  0
 35 38  1  0  0  0  0
 37 35  1  0  0  0  0
 39  4  1  0  0  0  0
 39 42  1  0  0  0  0
 40 39  1  0  0  0  0
 41 39  1  0  0  0  0
 43 44  1  0  0  0  0
 43 45  1  0  0  0  0
 46 43  1  0  0  0  0
M  END
