1
q = 0.0, confidence = 0.998

 30 31  0  0  1  0  0  0  0  0999 V2000
    2.2464   -0.6193    0.1228 P   0  0  2  0  0  0  0  0  0  0  0  0
    3.7724    0.4882    2.2978 C   0  0  0  0  0  0  0  0  0  0  0  0
    4.5012    0.9715    1.6159 H   0  0  0  0  0  0  0  0  0  0  0  0
    4.2805    0.2998    3.2662 H   0  0  0  0  0  0  0  0  0  0  0  0
    2.9495    1.2072    2.4837 H   0  0  0  0  0  0  0  0  0  0  0  0
    3.2419   -0.8147    1.7121 C   0  0  2  0  0  0  0  0  0  0  0  0
    2.4959   -1.2497    2.4132 H   0  0  0  0  0  0  0  0  0  0  0  0
    4.2842   -1.8933    1.3868 C   0  0  0  0  0  0  0  0  0  0  0  0
    5.1126   -1.4482    0.7929 H   0  0  0  0  0  0  0  0  0  0  0  0
    4.7436   -2.2994    2.3133 H   0  0  0  0  0  0  0  0  0  0  0  0
    3.5616   -2.9795    0.5813 C   0  0  0  0  0  0  0  0  0  0  0  0
    2.8601   -3.5202    1.2540 H   0  0  0  0  0  0  0  0  0  0  0  0
    4.2590   -3.7403    0.1724 H   0  0  0  0  0  0  0  0  0  0  0  0
    2.7432   -2.3183   -0.5530 C   0  0  1  0  0  0  0  0  0  0  0  0
    3.4108   -2.1157   -1.4164 H   0  0  0  0  0  0  0  0  0  0  0  0
    1.5566   -3.1567   -1.0268 C   0  0  0  0  0  0  0  0  0  0  0  0
    0.8080   -3.2725   -0.2162 H   0  0  0  0  0  0  0  0  0  0  0  0
    1.8979   -4.1672   -1.3360 H   0  0  0  0  0  0  0  0  0  0  0  0
    1.0404   -2.6857   -1.8841 H   0  0  0  0  0  0  0  0  0  0  0  0
    3.2272    0.6123   -0.8428 C   0  0  0  0  0  0  0  0  0  0  0  0
    4.4818    0.3474   -1.4299 C   0  0  0  0  0  0  0  0  0  0  0  0
    4.9206   -0.6606   -1.3841 H   0  0  0  0  0  0  0  0  0  0  0  0
    5.1878    1.3663   -2.0891 C   0  0  0  0  0  0  0  0  0  0  0  0
    6.1644    1.1449   -2.5464 H   0  0  0  0  0  0  0  0  0  0  0  0
    4.6509    2.6610   -2.1675 C   0  0  0  0  0  0  0  0  0  0  0  0
    5.2058    3.4572   -2.6869 H   0  0  0  0  0  0  0  0  0  0  0  0
    3.4011    2.9331   -1.5881 C   0  0  0  0  0  0  0  0  0  0  0  0
    2.9697    3.9437   -1.6531 H   0  0  0  0  0  0  0  0  0  0  0  0
    2.6933    1.9157   -0.9328 C   0  0  0  0  0  0  0  0  0  0  0  0
    1.6996    2.1010   -0.4892 H   0  0  0  0  0  0  0  0  0  0  0  0
  1 20  1  6  0  0  0
  1  6  1  0  0  0  0
  2  5  1  0  0  0  0
  2  4  1  0  0  0  0
  3  2  1  0  0  0  0
  6  2  1  0  0  0  0
  6  7  1  1  0  0  0
  8  6  1  0  0  0  0
  8 10  1  0  0  0  0
  9  8  1  0  0  0  0
 11 12  1  0  0  0  0
 11  8  1  0  0  0  0
 13 11  1  0  0  0  0
 14 15  1  6  0  0  0
 14  1  1  0  0  0  0
 14 11  1  0  0  0  0
 16 14  1  0  0  0  0
 16 17  1  0  0  0  0
 18 16  1  0  0  0  0
 19 16  1  0  0  0  0
 21 22  1  0  0  0  0
 21 20  2  0  0  0  0
 23 21  1  0  0  0  0
 24 23  1  0  0  0  0
 25 23  2  0  0  0  0
 25 27  1  0  0  0  0
 26 25  1  0  0  0  0
 27 29  2  0  0  0  0
 28 27  1  0  0  0  0
 29 20  1  0  0  0  0
 29 30  1  0  0  0  0
M  END
