3
q = 0.0, confidence = 0.932

 63 68  0  0  0  0  0  0  0  0999 V2000
    6.4445    3.5468    1.5471 Cl  0  0  0  0  0  0  0  0  0  0  0  0
    8.6869   -1.5682   -0.9180 Cl  0  0  0  0  0  0  0  0  0  0  0  0
   -4.2278   -0.1310   -0.2860 P   0  0  0  0  0  0  0  0  0  0  0  0
    7.2564    1.3600   -0.6820 F   0  0  0  0  0  0  0  0  0  0  0  0
    7.3894    0.3572    1.3934 F   0  0  0  0  0  0  0  0  0  0  0  0
   -2.1678   -3.1053    0.7634 O   0  0  0  0  0  0  0  0  0  0  0  0
    5.2571    1.2936    0.6927 N   0  0  0  0  0  0  0  0  0  0  0  0
    6.1727   -0.7927   -0.3644 N   0  0  0  0  0  0  0  0  0  0  0  0
   -2.3237   -2.4707   -1.4333 N   0  0  0  0  0  0  0  0  0  0  0  0
   -1.8900   -1.8919   -2.1551 H   0  0  0  0  0  0  0  0  0  0  0  0
    5.1120    2.5378    1.2000 C   0  0  0  0  0  0  0  0  0  0  0  0
    3.7398    2.8613    1.3867 C   0  0  0  0  0  0  0  0  0  0  0  0
    3.3616    3.8146    1.7684 H   0  0  0  0  0  0  0  0  0  0  0  0
    3.0183    1.7457    0.9658 C   0  0  0  0  0  0  0  0  0  0  0  0
    1.9280    1.6398    0.9003 H   0  0  0  0  0  0  0  0  0  0  0  0
    3.9708    0.7652    0.5432 C   0  0  0  0  0  0  0  0  0  0  0  0
    3.7679   -0.5192    0.0019 C   0  0  0  0  0  3  0  0  0  0  0  0
    4.8686   -1.2863   -0.4431 C   0  0  0  0  0  0  0  0  0  0  0  0
    4.9148   -2.6078   -0.9809 C   0  0  0  0  0  0  0  0  0  0  0  0
    4.0465   -3.2559   -1.1396 H   0  0  0  0  0  0  0  0  0  0  0  0
    6.2540   -2.9035   -1.2419 C   0  0  0  0  0  0  0  0  0  0  0  0
    6.6857   -3.8187   -1.6584 H   0  0  0  0  0  0  0  0  0  0  0  0
    6.9912   -1.7577   -0.8420 C   0  0  0  0  0  0  0  0  0  0  0  0
    2.3969   -1.0742   -0.0861 C   0  0  0  0  0  0  0  0  0  0  0  0
    1.6003   -1.1913    1.0751 C   0  0  0  0  0  0  0  0  0  0  0  0
    2.0136   -0.8727    2.0430 H   0  0  0  0  0  0  0  0  0  0  0  0
    0.3143   -1.7294    1.0001 C   0  0  0  0  0  0  0  0  0  0  0  0
   -0.3108   -1.8467    1.8970 H   0  0  0  0  0  0  0  0  0  0  0  0
   -0.2239   -2.1259   -0.2393 C   0  0  0  0  0  0  0  0  0  0  0  0
    0.5694   -2.0160   -1.3981 C   0  0  0  0  0  0  0  0  0  0  0  0
    0.1820   -2.3457   -2.3744 H   0  0  0  0  0  0  0  0  0  0  0  0
    1.8689   -1.5045   -1.3224 C   0  0  0  0  0  0  0  0  0  0  0  0
    2.4789   -1.4077   -2.2319 H   0  0  0  0  0  0  0  0  0  0  0  0
   -1.6399   -2.6250   -0.2405 C   0  0  0  0  0  0  0  0  0  0  0  0
   -3.7515   -2.6956   -1.4996 C   0  0  0  0  0  0  0  0  0  0  0  0
   -4.0075   -3.2548   -0.5771 H   0  0  0  0  0  0  0  0  0  0  0  0
   -4.0035   -3.3421   -2.3685 H   0  0  0  0  0  0  0  0  0  0  0  0
   -4.5889   -1.4089   -1.5932 C   0  0  0  0  0  0  0  0  0  0  0  0
   -5.6710   -1.6537   -1.5554 H   0  0  0  0  0  0  0  0  0  0  0  0
   -4.4204   -0.8810   -2.5562 H   0  0  0  0  0  0  0  0  0  0  0  0
   -5.5874    1.0781   -0.5434 C   0  0  0  0  0  0  0  0  0  0  0  0
   -6.7441    1.1038    0.2596 C   0  0  0  0  0  0  0  0  0  0  0  0
   -6.8490    0.4037    1.1014 H   0  0  0  0  0  0  0  0  0  0  0  0
   -7.7585    2.0376   -0.0048 C   0  0  0  0  0  0  0  0  0  0  0  0
   -8.6565    2.0583    0.6309 H   0  0  0  0  0  0  0  0  0  0  0  0
   -7.6271    2.9441   -1.0678 C   0  0  0  0  0  0  0  0  0  0  0  0
   -8.4237    3.6759   -1.2697 H   0  0  0  0  0  0  0  0  0  0  0  0
   -6.4701    2.9267   -1.8643 C   0  0  0  0  0  0  0  0  0  0  0  0
   -6.3544    3.6461   -2.6887 H   0  0  0  0  0  0  0  0  0  0  0  0
   -5.4488    2.0044   -1.5992 C   0  0  0  0  0  0  0  0  0  0  0  0
   -4.5256    2.0138   -2.2013 H   0  0  0  0  0  0  0  0  0  0  0  0
   -4.5340   -0.9589    1.3117 C   0  0  0  0  0  0  0  0  0  0  0  0
   -5.5881   -1.8822    1.4763 C   0  0  0  0  0  0  0  0  0  0  0  0
   -6.2623   -2.1183    0.6387 H   0  0  0  0  0  0  0  0  0  0  0  0
   -5.7789   -2.5149    2.7126 C   0  0  0  0  0  0  0  0  0  0  0  0
   -6.5976   -3.2398    2.8347 H   0  0  0  0  0  0  0  0  0  0  0  0
   -4.9228   -2.2301    3.7886 C   0  0  0  0  0  0  0  0  0  0  0  0
   -5.0705   -2.7340    4.7556 H   0  0  0  0  0  0  0  0  0  0  0  0
   -3.8736   -1.3124    3.6281 C   0  0  0  0  0  0  0  0  0  0  0  0
   -3.1956   -1.0952    4.4668 H   0  0  0  0  0  0  0  0  0  0  0  0
   -3.6756   -0.6804    2.3930 C   0  0  0  0  0  0  0  0  0  0  0  0
   -2.8381    0.0208    2.2501 H   0  0  0  0  0  0  0  0  0  0  0  0
    6.6140    0.5923    0.2717 B   0  0  0  0  0  0  0  0  0  0  0  0
  2 23  1  0  0  0  0
  3 52  1  0  0  0  0
  4 63  1  0  0  0  0
  7 11  1  0  0  0  0
  8 63  1  0  0  0  0
  9 34  1  0  0  0  0
 10  9  1  0  0  0  0
 11 12  2  0  0  0  0
 11  1  1  0  0  0  0
 12 13  1  0  0  0  0
 14 12  1  0  0  0  0
 15 14  1  0  0  0  0
 16  7  1  0  0  0  0
 16 14  2  0  0  0  0
 17 16  1  0  0  0  0
 18  8  1  0  0  0  0
 18 17  1  0  0  0  0
 19 18  2  0  0  0  0
 20 19  1  0  0  0  0
 21 19  1  0  0  0  0
 21 23  2  0  0  0  0
 22 21  1  0  0  0  0
 23  8  1  0  0  0  0
 24 17  1  0  0  0  0
 24 25  1  0  0  0  0
 25 26  1  0  0  0  0
 27 25  2  0  0  0  0
 27 28  1  0  0  0  0
 29 27  1  0  0  0  0
 30 32  1  0  0  0  0
 30 29  2  0  0  0  0
 31 30  1  0  0  0  0
 32 24  2  0  0  0  0
 33 32  1  0  0  0  0
 34 29  1  0  0  0  0
 34  6  2  0  0  0  0
 35  9  1  0  0  0  0
 35 36  1  0  0  0  0
 37 35  1  0  0  0  0
 38 39  1  0  0  0  0
 38 35  1  0  0  0  0
 38  3  1  0  0  0  0
 40 38  1  0  0  0  0
 41  3  1  0  0  0  0
 41 42  1  0  0  0  0
 42 43  1  0  0  0  0
 44 42  2  0  0  0  0
 44 45  1  0  0  0  0
 46 44  1  0  0  0  0
 47 46  1  0  0  0  0
 48 50  1  0  0  0  0
 48 46  2  0  0  0  0
 49 48  1  0  0  0  0
 50 41  2  0  0  0  0
 51 50  1  0  0  0  0
 52 53  2  0  0  0  0
 52 61  1  0  0  0  0
 53 55  1  0  0  0  0
 54 53  1  0  0  0  0
 55 56  1  0  0  0  0
 55 57  2  0  0  0  0
 57 58  1  0  0  0  0
 59 57  1  0  0  0  0
 59 60  1  0  0  0  0
 61 59  2  0  0  0  0
 62 61  1  0  0  0  0
 63  7  1  0  0  0  0
 63  5  1  0  0  0  0
M  END
