2
q = 0.0, confidence = 0.996

 47 50  0  0  0  0  0  0  0  0999 V2000
   -0.4105   -0.0908   -3.1831 S   0  0  0  0  0  1  0  0  0  0  0  0
    0.1684    0.5647    0.2487 P   0  0  0  0  0  0  0  0  0  0  0  0
   -0.9405   -0.6534   -1.3702 P   0  0  0  0  0  4  0  0  0  0  0  0
   -0.7056    0.0349    1.7904 C   0  0  0  0  0  0  0  0  0  0  0  0
   -2.0867    0.2919    1.9580 C   0  0  0  0  0  0  0  0  0  0  0  0
   -2.6357    0.8743    1.2059 H   0  0  0  0  0  0  0  0  0  0  0  0
   -2.7672   -0.1926    3.0829 C   0  0  0  0  0  0  0  0  0  0  0  0
   -3.8437    0.0086    3.1907 H   0  0  0  0  0  0  0  0  0  0  0  0
   -2.0812   -0.9292    4.0630 C   0  0  0  0  0  0  0  0  0  0  0  0
   -2.6180   -1.3096    4.9452 H   0  0  0  0  0  0  0  0  0  0  0  0
   -0.7060   -1.1661    3.9177 C   0  0  0  0  0  0  0  0  0  0  0  0
   -0.1551   -1.7278    4.6868 H   0  0  0  0  0  0  0  0  0  0  0  0
   -0.0223   -0.6876    2.7899 C   0  0  0  0  0  0  0  0  0  0  0  0
    1.0510   -0.8868    2.6865 H   0  0  0  0  0  0  0  0  0  0  0  0
   -0.4515    2.2886    0.0225 C   0  0  0  0  0  0  0  0  0  0  0  0
   -0.4572    2.8815   -1.2585 C   0  0  0  0  0  0  0  0  0  0  0  0
   -0.1790    2.2830   -2.1394 H   0  0  0  0  0  0  0  0  0  0  0  0
   -0.8290    4.2248   -1.4095 C   0  0  0  0  0  0  0  0  0  0  0  0
   -0.8399    4.6713   -2.4153 H   0  0  0  0  0  0  0  0  0  0  0  0
   -1.1680    4.9992   -0.2888 C   0  0  0  0  0  0  0  0  0  0  0  0
   -1.4497    6.0560   -0.4106 H   0  0  0  0  0  0  0  0  0  0  0  0
   -1.1283    4.4233    0.9903 C   0  0  0  0  0  0  0  0  0  0  0  0
   -1.3737    5.0266    1.8775 H   0  0  0  0  0  0  0  0  0  0  0  0
   -0.7733    3.0755    1.1494 C   0  0  0  0  0  0  0  0  0  0  0  0
   -0.7401    2.6386    2.1578 H   0  0  0  0  0  0  0  0  0  0  0  0
   -2.7433   -0.4888   -1.0700 C   0  0  0  0  0  0  0  0  0  0  0  0
   -3.3326    0.7542   -1.3907 C   0  0  0  0  0  0  0  0  0  0  0  0
   -2.7168    1.5513   -1.8318 H   0  0  0  0  0  0  0  0  0  0  0  0
   -4.6963    0.9658   -1.1519 C   0  0  0  0  0  0  0  0  0  0  0  0
   -5.1452    1.9410   -1.3941 H   0  0  0  0  0  0  0  0  0  0  0  0
   -5.4887   -0.0646   -0.6169 C   0  0  0  0  0  0  0  0  0  0  0  0
   -6.5611    0.1025   -0.4340 H   0  0  0  0  0  0  0  0  0  0  0  0
   -4.9132   -1.3127   -0.3357 C   0  0  0  0  0  0  0  0  0  0  0  0
   -5.5334   -2.1315    0.0594 H   0  0  0  0  0  0  0  0  0  0  0  0
   -3.5441   -1.5281   -0.5580 C   0  0  0  0  0  0  0  0  0  0  0  0
   -3.1061   -2.5113   -0.3392 H   0  0  0  0  0  0  0  0  0  0  0  0
   -0.4212   -2.3517   -0.9086 C   0  0  0  0  0  0  0  0  0  0  0  0
   -0.7266   -2.9273    0.3452 C   0  0  0  0  0  0  0  0  0  0  0  0
   -1.3292   -2.3826    1.0835 H   0  0  0  0  0  0  0  0  0  0  0  0
   -0.2418   -4.2038    0.6609 C   0  0  0  0  0  0  0  0  0  0  0  0
   -0.4750   -4.6435    1.6422 H   0  0  0  0  0  0  0  0  0  0  0  0
    0.5487   -4.9088   -0.2604 C   0  0  0  0  0  0  0  0  0  0  0  0
    0.9363   -5.9058   -0.0023 H   0  0  0  0  0  0  0  0  0  0  0  0
    0.8505   -4.3379   -1.5064 C   0  0  0  0  0  0  0  0  0  0  0  0
    1.4730   -4.8850   -2.2302 H   0  0  0  0  0  0  0  0  0  0  0  0
    0.3677   -3.0629   -1.8331 C   0  0  0  0  0  0  0  0  0  0  0  0
    0.6019   -2.5931   -2.8014 H   0  0  0  0  0  0  0  0  0  0  0  0
  1  3  1  0  0  0  0
  2  4  1  0  0  0  0
  3 26  1  0  0  0  0
  3 37  1  0  0  0  0
  3  2  1  0  0  0  0
  4  5  2  0  0  0  0
  4 13  1  0  0  0  0
  5  7  1  0  0  0  0
  6  5  1  0  0  0  0
  7  8  1  0  0  0  0
  7  9  2  0  0  0  0
  9 10  1  0  0  0  0
 11  9  1  0  0  0  0
 11 12  1  0  0  0  0
 13 11  2  0  0  0  0
 14 13  1  0  0  0  0
 15  2  1  0  0  0  0
 15 24  1  0  0  0  0
 16 15  2  0  0  0  0
 17 16  1  0  0  0  0
 18 16  1  0  0  0  0
 18 20  2  0  0  0  0
 19 18  1  0  0  0  0
 20 22  1  0  0  0  0
 21 20  1  0  0  0  0
 22 24  2  0  0  0  0
 22 23  1  0  0  0  0
 24 25  1  0  0  0  0
 26 35  1  0  0  0  0
 27 29  1  0  0  0  0
 27 26  2  0  0  0  0
 28 27  1  0  0  0  0
 29 31  2  0  0  0  0
 30 29  1  0  0  0  0
 31 32  1  0  0  0  0
 31 33  1  0  0  0  0
 33 34  1  0  0  0  0
 35 36  1  0  0  0  0
 35 33  2  0  0  0  0
 37 38  1  0  0  0  0
 38 40  2  0  0  0  0
 38 39  1  0  0  0  0
 40 41  1  0  0  0  0
 42 43  1  0  0  0  0
 42 40  1  0  0  0  0
 44 42  2  0  0  0  0
 45 44  1  0  0  0  0
 46 44  1  0  0  0  0
 46 37  2  0  0  0  0
 47 46  1  0  0  0  0
M  END
