1
q = 0.0, confidence = 0.992

 38 42  0  0  1  0  0  0  0  0999 V2000
   -1.6431   -0.8532   -0.4373 P   0  0  2  0  0  0  0  0  0  0  0  0
   -1.7641    0.3534    0.7784 N   0  0  0  0  0  0  0  0  0  0  0  0
   -2.9021    1.2978    0.6810 C   0  0  1  0  0  0  0  0  0  0  0  0
   -2.8461    1.9683    1.5594 H   0  0  0  0  0  0  0  0  0  0  0  0
   -2.7595    2.1488   -0.5657 C   0  0  0  0  0  0  0  0  0  0  0  0
   -2.5527    1.4987   -1.8093 C   0  0  0  0  0  0  0  0  0  0  0  0
   -2.4339    0.0240   -1.8613 C   0  0  2  0  0  0  0  0  0  0  0  0
   -2.1338   -0.3742   -2.8446 H   0  0  0  0  0  0  0  0  0  0  0  0
   -3.3853   -0.9505   -1.0943 C   0  0  2  0  0  0  0  0  0  0  0  0
   -3.6241   -1.8599   -1.6701 H   0  0  0  0  0  0  0  0  0  0  0  0
   -4.4729   -0.4782   -0.2084 C   0  0  0  0  0  0  0  0  0  0  0  0
   -4.2538    0.6001    0.6895 C   0  0  0  0  0  0  0  0  0  0  0  0
   -2.8420    3.5487   -0.5153 C   0  0  0  0  0  0  0  0  0  0  0  0
   -3.0031    4.0413    0.4565 H   0  0  0  0  0  0  0  0  0  0  0  0
   -2.7002    4.3193   -1.6793 C   0  0  0  0  0  0  0  0  0  0  0  0
   -2.7637    5.4165   -1.6259 H   0  0  0  0  0  0  0  0  0  0  0  0
   -2.4632    3.6823   -2.9084 C   0  0  0  0  0  0  0  0  0  0  0  0
   -2.3391    4.2777   -3.8256 H   0  0  0  0  0  0  0  0  0  0  0  0
   -2.3894    2.2831   -2.9700 C   0  0  0  0  0  0  0  0  0  0  0  0
   -2.2091    1.7820   -3.9341 H   0  0  0  0  0  0  0  0  0  0  0  0
   -5.7203   -1.1364   -0.1890 C   0  0  0  0  0  0  0  0  0  0  0  0
   -5.8867   -1.9836   -0.8727 H   0  0  0  0  0  0  0  0  0  0  0  0
   -6.7383   -0.7268    0.6821 C   0  0  0  0  0  0  0  0  0  0  0  0
   -7.7058   -1.2514    0.6775 H   0  0  0  0  0  0  0  0  0  0  0  0
   -6.5226    0.3496    1.5582 C   0  0  0  0  0  0  0  0  0  0  0  0
   -7.3198    0.6784    2.2418 H   0  0  0  0  0  0  0  0  0  0  0  0
   -5.2809    1.0010    1.5593 C   0  0  0  0  0  0  0  0  0  0  0  0
   -5.0988    1.8393    2.2515 H   0  0  0  0  0  0  0  0  0  0  0  0
   -1.2589   -0.0144    2.1218 C   0  0  0  0  0  0  0  0  0  0  0  0
   -0.3852   -0.6705    1.9119 H   0  0  0  0  0  0  0  0  0  0  0  0
   -2.2627   -0.8206    2.9561 C   0  0  0  0  0  0  0  0  0  0  0  0
   -2.6130   -1.7124    2.3976 H   0  0  0  0  0  0  0  0  0  0  0  0
   -3.1539   -0.2166    3.2214 H   0  0  0  0  0  0  0  0  0  0  0  0
   -1.7928   -1.1688    3.8985 H   0  0  0  0  0  0  0  0  0  0  0  0
   -0.7289    1.2166    2.8599 C   0  0  0  0  0  0  0  0  0  0  0  0
   -0.0128    1.7755    2.2291 H   0  0  0  0  0  0  0  0  0  0  0  0
   -0.2084    0.9046    3.7871 H   0  0  0  0  0  0  0  0  0  0  0  0
   -1.5442    1.9043    3.1674 H   0  0  0  0  0  0  0  0  0  0  0  0
  1  2  1  1  0  0  0
  2 29  1  0  0  0  0
  3 12  1  0  0  0  0
  3  2  1  0  0  0  0
  3  4  1  1  0  0  0
  5 13  1  0  0  0  0
  5  3  1  0  0  0  0
  6  5  2  0  0  0  0
  7  8  1  6  0  0  0
  7  6  1  0  0  0  0
  7  9  1  0  0  0  0
  7  1  1  0  0  0  0
  9 10  1  6  0  0  0
  9  1  1  0  0  0  0
  9 11  1  0  0  0  0
 11 21  2  0  0  0  0
 11 12  1  0  0  0  0
 12 27  2  0  0  0  0
 13 14  1  0  0  0  0
 15 16  1  0  0  0  0
 15 13  2  0  0  0  0
 17 15  1  0  0  0  0
 18 17  1  0  0  0  0
 19 17  2  0  0  0  0
 19  6  1  0  0  0  0
 20 19  1  0  0  0  0
 21 23  1  0  0  0  0
 22 21  1  0  0  0  0
 23 25  2  0  0  0  0
 24 23  1  0  0  0  0
 25 27  1  0  0  0  0
 25 26  1  0  0  0  0
 27 28  1  0  0  0  0
 29 35  1  0  0  0  0
 29 31  1  0  0  0  0
 30 29  1  0  0  0  0
 31 33  1  0  0  0  0
 31 34  1  0  0  0  0
 32 31  1  0  0  0  0
 35 38  1  0  0  0  0
 35 37  1  0  0  0  0
 36 35  1  0  0  0  0
M  END
