1
q = 0.0, confidence = 1.0

 30 31  0  0  0  0  0  0  0  0999 V2000
    1.8769    0.5501   -1.2354 P   0  0  0  0  0  0  0  0  0  0  0  0
    1.5305    1.6782   -2.6682 C   0  0  0  0  0  0  0  0  0  0  0  0
    2.7080   -0.8148   -2.1637 C   0  0  0  0  0  0  0  0  0  0  0  0
    3.1984    1.5051   -0.3429 C   0  0  0  0  0  0  0  0  0  0  0  0
    2.9496    2.8861   -0.1710 C   0  0  0  0  0  0  0  0  0  0  0  0
    3.8666    3.7210    0.4783 C   0  0  0  0  0  0  0  0  0  0  0  0
    5.0657    3.1863    0.9714 C   0  0  0  0  0  0  0  0  0  0  0  0
    5.3126    1.8153    0.8374 C   0  0  0  0  0  0  0  0  0  0  0  0
    4.3860    0.9535    0.2090 C   0  0  0  0  0  0  0  0  0  0  0  0
    4.6987   -0.5043    0.1856 C   0  0  0  0  0  0  0  0  0  0  0  0
    3.9099   -1.4160    0.9175 C   0  0  0  0  0  0  0  0  0  0  0  0
    4.1903   -2.7897    0.8823 C   0  0  0  0  0  0  0  0  0  0  0  0
    5.2713   -3.2698    0.1261 C   0  0  0  0  0  0  0  0  0  0  0  0
    6.0812   -2.3667   -0.5818 C   0  0  0  0  0  0  0  0  0  0  0  0
    5.7998   -0.9930   -0.5481 C   0  0  0  0  0  0  0  0  0  0  0  0
    2.4633    1.9559   -3.1973 H   0  0  0  0  0  0  0  0  0  0  0  0
    1.0051    2.5922   -2.3367 H   0  0  0  0  0  0  0  0  0  0  0  0
    0.8567    1.1347   -3.3594 H   0  0  0  0  0  0  0  0  0  0  0  0
    3.6280   -0.4648   -2.6703 H   0  0  0  0  0  0  0  0  0  0  0  0
    1.9738   -1.1558   -2.9209 H   0  0  0  0  0  0  0  0  0  0  0  0
    2.9496   -1.6648   -1.5032 H   0  0  0  0  0  0  0  0  0  0  0  0
    2.0144    3.3239   -0.5497 H   0  0  0  0  0  0  0  0  0  0  0  0
    3.6422    4.7920    0.5948 H   0  0  0  0  0  0  0  0  0  0  0  0
    5.8002    3.8322    1.4758 H   0  0  0  0  0  0  0  0  0  0  0  0
    6.2341    1.3766    1.2498 H   0  0  0  0  0  0  0  0  0  0  0  0
    3.0713   -1.0395    1.5185 H   0  0  0  0  0  0  0  0  0  0  0  0
    3.5502   -3.4878    1.4417 H   0  0  0  0  0  0  0  0  0  0  0  0
    5.4864   -4.3486    0.0921 H   0  0  0  0  0  0  0  0  0  0  0  0
    6.9346   -2.7358   -1.1711 H   0  0  0  0  0  0  0  0  0  0  0  0
    6.4233   -0.2849   -1.1157 H   0  0  0  0  0  0  0  0  0  0  0  0
  1  4  1  0  0  0  0
  2 17  1  0  0  0  0
  2  1  1  0  0  0  0
  3 21  1  0  0  0  0
  3  1  1  0  0  0  0
  4  5  2  0  0  0  0
  4  9  1  0  0  0  0
  5  6  1  0  0  0  0
  6 23  1  0  0  0  0
  6  7  2  0  0  0  0
  7 24  1  0  0  0  0
  8  7  1  0  0  0  0
  8 25  1  0  0  0  0
  9  8  2  0  0  0  0
 10  9  1  0  0  0  0
 10 11  1  0  0  0  0
 11 26  1  0  0  0  0
 12 11  2  0  0  0  0
 12 27  1  0  0  0  0
 13 12  1  0  0  0  0
 14 15  1  0  0  0  0
 14 13  2  0  0  0  0
 15 10  2  0  0  0  0
 16  2  1  0  0  0  0
 18  2  1  0  0  0  0
 19  3  1  0  0  0  0
 20  3  1  0  0  0  0
 22  5  1  0  0  0  0
 28 13  1  0  0  0  0
 29 14  1  0  0  0  0
 30 15  1  0  0  0  0
M  END
