14
q = 0.0, confidence = 0.992

 14 15  0  0  1  0  0  0  0  0999 V2000
    2.5258   -0.4712   -1.1562 C   0  0  1  0  0  0  0  0  0  0  0  0
    2.0594   -0.6058   -2.1474 H   0  0  0  0  0  0  0  0  0  0  0  0
    3.8897    0.1482   -1.0338 C   0  0  0  0  0  0  0  0  0  0  0  0
    4.2969    0.9222   -1.6956 H   0  0  0  0  0  0  0  0  0  0  0  0
    4.4243   -0.3516    0.1007 C   0  0  0  0  0  0  0  0  0  0  0  0
    5.3745   -0.0796    0.5783 H   0  0  0  0  0  0  0  0  0  0  0  0
    3.3653   -1.2499    0.7106 C   0  0  1  0  0  0  0  0  0  0  0  0
    3.7119   -2.1295    1.2841 H   0  0  0  0  0  0  0  0  0  0  0  0
    2.3418   -0.3636    1.4965 C   0  0  0  0  0  0  0  0  0  0  0  0
    2.8018    0.4073    2.1420 H   0  0  0  0  0  0  0  0  0  0  0  0
    1.6558   -0.9902    2.0979 H   0  0  0  0  0  0  0  0  0  0  0  0
    1.9406    2.4230    0.1439 Cl  0  0  0  0  0  0  0  0  0  0  0  0
    2.6203   -1.6961   -0.4445 O   0  0  0  0  0  0  0  0  0  0  0  0
    1.3402    0.4106    0.1107 P   0  0  1  0  0  0  0  0  0  0  0  0
  1  2  1  6  0  0  0
  1  3  1  0  0  0  0
  1 13  1  0  0  0  0
  1 14  1  0  0  0  0
  3  5  2  0  0  0  0
  4  3  1  0  0  0  0
  5  6  1  0  0  0  0
  5  7  1  0  0  0  0
  7  8  1  1  0  0  0
  7  9  1  0  0  0  0
  9 11  1  0  0  0  0
  9 10  1  0  0  0  0
 13  7  1  0  0  0  0
 14 12  1  1  0  0  0
 14  9  1  0  0  0  0
M  END
