50
q = 0.0, confidence = 0.996

 50 52  0  0  1  0  0  0  0  0999 V2000
   -0.7307    1.2262    0.6511 C   0  0  2  0  0  0  0  0  0  0  0  0
   -1.2627    1.1572    1.6195 H   0  0  0  0  0  0  0  0  0  0  0  0
   -1.7047    1.8432   -0.3575 C   0  0  0  0  0  0  0  0  0  0  0  0
   -1.4288    1.6452   -1.4117 H   0  0  0  0  0  0  0  0  0  0  0  0
   -1.8186    3.3959   -0.2616 C   0  0  0  0  0  0  0  0  0  0  0  0
   -1.8718    3.9953    1.1226 C   0  0  0  0  0  0  0  0  0  0  0  0
   -0.8644    3.9540    1.5856 H   0  0  0  0  0  0  0  0  0  0  0  0
   -2.5497    3.4093    1.7759 H   0  0  0  0  0  0  0  0  0  0  0  0
   -2.2007    5.0478    1.0565 H   0  0  0  0  0  0  0  0  0  0  0  0
   -3.1467    1.3393   -0.1190 C   0  0  0  0  0  0  0  0  0  0  0  0
   -4.0665    1.3925   -1.3079 C   0  0  0  0  0  0  0  0  0  0  0  0
   -5.1187    1.3010   -0.9845 H   0  0  0  0  0  0  0  0  0  0  0  0
   -3.8191    0.5428   -1.9793 H   0  0  0  0  0  0  0  0  0  0  0  0
   -3.9013    2.3204   -1.8916 H   0  0  0  0  0  0  0  0  0  0  0  0
    0.5873    1.9409    0.8527 C   0  0  0  0  0  0  0  0  0  0  0  0
    1.2670    2.5576   -0.2186 C   0  0  0  0  0  0  0  0  0  0  0  0
    0.8219    2.5658   -1.2247 H   0  0  0  0  0  0  0  0  0  0  0  0
    2.5194    3.1543   -0.0168 C   0  0  0  0  0  0  0  0  0  0  0  0
    3.0393    3.6250   -0.8641 H   0  0  0  0  0  0  0  0  0  0  0  0
    3.1162    3.1327    1.2535 C   0  0  0  0  0  0  0  0  0  0  0  0
    4.1040    3.5920    1.4070 H   0  0  0  0  0  0  0  0  0  0  0  0
    2.4506    2.5167    2.3244 C   0  0  0  0  0  0  0  0  0  0  0  0
    2.9127    2.4936    3.3229 H   0  0  0  0  0  0  0  0  0  0  0  0
    1.1942    1.9254    2.1249 C   0  0  0  0  0  0  0  0  0  0  0  0
    0.6749    1.4362    2.9643 H   0  0  0  0  0  0  0  0  0  0  0  0
   -1.6517   -1.2605   -0.8285 C   0  0  0  0  0  0  0  0  0  0  0  0
   -1.5040   -1.1436   -2.2287 C   0  0  0  0  0  0  0  0  0  0  0  0
   -0.5891   -0.6867   -2.6400 H   0  0  0  0  0  0  0  0  0  0  0  0
   -2.4984   -1.6313   -3.0888 C   0  0  0  0  0  0  0  0  0  0  0  0
   -2.3719   -1.5364   -4.1777 H   0  0  0  0  0  0  0  0  0  0  0  0
   -3.6407   -2.2541   -2.5594 C   0  0  0  0  0  0  0  0  0  0  0  0
   -4.4180   -2.6450   -3.2333 H   0  0  0  0  0  0  0  0  0  0  0  0
   -3.7828   -2.3897   -1.1686 C   0  0  0  0  0  0  0  0  0  0  0  0
   -4.6709   -2.8867   -0.7501 H   0  0  0  0  0  0  0  0  0  0  0  0
   -2.7947   -1.8969   -0.3038 C   0  0  0  0  0  0  0  0  0  0  0  0
   -2.9167   -2.0087    0.7824 H   0  0  0  0  0  0  0  0  0  0  0  0
   -0.3930   -1.4396    1.8254 C   0  0  0  0  0  0  0  0  0  0  0  0
   -1.4464   -1.1880    2.7333 C   0  0  0  0  0  0  0  0  0  0  0  0
   -2.2346   -0.4586    2.4843 H   0  0  0  0  0  0  0  0  0  0  0  0
   -1.4915   -1.8740    3.9560 C   0  0  0  0  0  0  0  0  0  0  0  0
   -2.3138   -1.6760    4.6601 H   0  0  0  0  0  0  0  0  0  0  0  0
   -0.4920   -2.8058    4.2819 C   0  0  0  0  0  0  0  0  0  0  0  0
   -0.5289   -3.3374    5.2449 H   0  0  0  0  0  0  0  0  0  0  0  0
    0.5568   -3.0541    3.3828 C   0  0  0  0  0  0  0  0  0  0  0  0
    1.3454   -3.7778    3.6376 H   0  0  0  0  0  0  0  0  0  0  0  0
    0.6092   -2.3733    2.1573 C   0  0  0  0  0  0  0  0  0  0  0  0
    1.4357   -2.5518    1.4509 H   0  0  0  0  0  0  0  0  0  0  0  0
   -3.5071    0.9760    0.9942 O   0  0  0  0  0  0  0  0  0  0  0  0
   -1.9293    4.0527   -1.2820 O   0  0  0  0  0  0  0  0  0  0  0  0
   -0.2907   -0.5806    0.2096 P   0  0  0  0  0  0  0  0  0  0  0  0
  1 15  1  0  0  0  0
  1  2  1  1  0  0  0
  3  5  1  0  0  0  0
  3 10  1  0  0  0  0
  3  1  1  0  0  0  0
  4  3  1  0  0  0  0
  5  6  1  0  0  0  0
  6  7  1  0  0  0  0
  6  8  1  0  0  0  0
  9  6  1  0  0  0  0
 10 48  2  0  0  0  0
 11 12  1  0  0  0  0
 11 10  1  0  0  0  0
 13 11  1  0  0  0  0
 14 11  1  0  0  0  0
 15 24  1  0  0  0  0
 16 18  1  0  0  0  0
 16 15  2  0  0  0  0
 17 16  1  0  0  0  0
 18 20  2  0  0  0  0
 19 18  1  0  0  0  0
 20 21  1  0  0  0  0
 20 22  1  0  0  0  0
 22 23  1  0  0  0  0
 24 22  2  0  0  0  0
 24 25  1  0  0  0  0
 26 35  1  0  0  0  0
 26 50  1  0  0  0  0
 27 26  2  0  0  0  0
 28 27  1  0  0  0  0
 29 31  2  0  0  0  0
 29 27  1  0  0  0  0
 30 29  1  0  0  0  0
 31 33  1  0  0  0  0
 32 31  1  0  0  0  0
 33 34  1  0  0  0  0
 33 35  2  0  0  0  0
 35 36  1  0  0  0  0
 37 46  2  0  0  0  0
 37 38  1  0  0  0  0
 38 40  2  0  0  0  0
 39 38  1  0  0  0  0
 40 42  1  0  0  0  0
 40 41  1  0  0  0  0
 42 43  1  0  0  0  0
 44 45  1  0  0  0  0
 44 42  2  0  0  0  0
 46 44  1  0  0  0  0
 47 46  1  0  0  0  0
 49  5  2  0  0  0  0
 50  1  1  0  0  0  0
 50 37  1  0  0  0  0
M  END
