1
q = 0.0, confidence = 0.998

 65 71  0  0  1  0  0  0  0  0999 V2000
   -0.1826    0.0919    0.3859 P   0  0  2  0  0  0  0  0  0  0  0  0
    0.5943    1.7343   -0.1409 C   0  0  1  0  0  0  0  0  0  0  0  0
    2.1264    1.5564    0.0442 C   0  0  0  0  0  0  0  0  0  0  0  0
    2.3696    1.3736    1.1082 H   0  0  0  0  0  0  0  0  0  0  0  0
    2.4681    0.6599   -0.5172 H   0  0  0  0  0  0  0  0  0  0  0  0
    2.8746    2.8155   -0.4329 C   0  0  1  0  0  0  0  0  0  0  0  0
    3.9629    2.6569   -0.2799 H   0  0  0  0  0  0  0  0  0  0  0  0
    2.5853    3.0592   -1.9239 C   0  0  0  0  0  0  0  0  0  0  0  0
    3.1350    3.9565   -2.2809 H   0  0  0  0  0  0  0  0  0  0  0  0
    2.9409    2.1975   -2.5275 H   0  0  0  0  0  0  0  0  0  0  0  0
    1.0711    3.2509   -2.1171 C   0  0  1  0  0  0  0  0  0  0  0  0
    0.8466    3.4139   -3.1923 H   0  0  0  0  0  0  0  0  0  0  0  0
    0.3240    1.9861   -1.6481 C   0  0  0  0  0  0  0  0  0  0  0  0
    0.6495    1.1001   -2.2347 H   0  0  0  0  0  0  0  0  0  0  0  0
   -0.7598    2.1112   -1.8360 H   0  0  0  0  0  0  0  0  0  0  0  0
    0.1267    2.9633    0.6683 C   0  0  0  0  0  0  0  0  0  0  0  0
    0.2956    2.8048    1.7553 H   0  0  0  0  0  0  0  0  0  0  0  0
   -0.9619    3.1239    0.5259 H   0  0  0  0  0  0  0  0  0  0  0  0
    0.8882    4.2223    0.1968 C   0  0  1  0  0  0  0  0  0  0  0  0
    0.5403    5.0920    0.7939 H   0  0  0  0  0  0  0  0  0  0  0  0
    2.4022    4.0246    0.3963 C   0  0  0  0  0  0  0  0  0  0  0  0
    2.9488    4.9409    0.0866 H   0  0  0  0  0  0  0  0  0  0  0  0
    2.6289    3.8617    1.4724 H   0  0  0  0  0  0  0  0  0  0  0  0
    0.5930    4.4638   -1.2960 C   0  0  0  0  0  0  0  0  0  0  0  0
   -0.4962    4.6252   -1.4490 H   0  0  0  0  0  0  0  0  0  0  0  0
    1.1070    5.3864   -1.6408 H   0  0  0  0  0  0  0  0  0  0  0  0
   -2.0658    0.1596    0.6036 C   0  0  1  0  0  0  0  0  0  0  0  0
   -2.5476    0.9970    1.8134 C   0  0  0  0  0  0  0  0  0  0  0  0
   -2.1004    0.6158    2.7546 H   0  0  0  0  0  0  0  0  0  0  0  0
   -2.2308    2.0535    1.7084 H   0  0  0  0  0  0  0  0  0  0  0  0
   -4.0877    0.9279    1.9206 C   0  0  1  0  0  0  0  0  0  0  0  0
   -4.4094    1.5433    2.7876 H   0  0  0  0  0  0  0  0  0  0  0  0
   -4.7227    1.4767    0.6290 C   0  0  0  0  0  0  0  0  0  0  0  0
   -5.8304    1.4567    0.7116 H   0  0  0  0  0  0  0  0  0  0  0  0
   -4.4297    2.5386    0.4794 H   0  0  0  0  0  0  0  0  0  0  0  0
   -4.2636    0.6257   -0.5701 C   0  0  1  0  0  0  0  0  0  0  0  0
   -4.7093    1.0239   -1.5061 H   0  0  0  0  0  0  0  0  0  0  0  0
   -2.7279    0.7037   -0.6847 C   0  0  0  0  0  0  0  0  0  0  0  0
   -2.4340    1.7614   -0.8435 H   0  0  0  0  0  0  0  0  0  0  0  0
   -2.3680    0.1255   -1.5630 H   0  0  0  0  0  0  0  0  0  0  0  0
   -2.5300   -1.3107    0.8039 C   0  0  0  0  0  0  0  0  0  0  0  0
   -2.1831   -1.9289   -0.0515 H   0  0  0  0  0  0  0  0  0  0  0  0
   -2.0655   -1.7438    1.7160 H   0  0  0  0  0  0  0  0  0  0  0  0
   -4.0645   -1.3786    0.9267 C   0  0  1  0  0  0  0  0  0  0  0  0
   -4.3606   -2.4385    1.0750 H   0  0  0  0  0  0  0  0  0  0  0  0
   -4.5249   -0.5334    2.1284 C   0  0  0  0  0  0  0  0  0  0  0  0
   -4.0878   -0.9339    3.0687 H   0  0  0  0  0  0  0  0  0  0  0  0
   -5.6291   -0.5900    2.2365 H   0  0  0  0  0  0  0  0  0  0  0  0
   -4.6993   -0.8361   -0.3665 C   0  0  0  0  0  0  0  0  0  0  0  0
   -4.3846   -1.4538   -1.2342 H   0  0  0  0  0  0  0  0  0  0  0  0
   -5.8068   -0.8999   -0.3062 H   0  0  0  0  0  0  0  0  0  0  0  0
    0.3942   -0.2216    2.1413 C   0  0  0  0  0  0  0  0  0  0  0  0
    0.3342    0.7381    2.6940 H   0  0  0  0  0  0  0  0  0  0  0  0
   -0.3928   -0.8795    2.5649 H   0  0  0  0  0  0  0  0  0  0  0  0
    1.7470   -0.8648    2.3358 C   0  0  0  0  0  0  0  0  0  0  0  0
    2.0278   -2.1450    1.8163 C   0  0  0  0  0  0  0  0  0  0  0  0
    1.2569   -2.6805    1.2395 H   0  0  0  0  0  0  0  0  0  0  0  0
    3.2836   -2.7372    2.0107 C   0  0  0  0  0  0  0  0  0  0  0  0
    3.4838   -3.7322    1.5856 H   0  0  0  0  0  0  0  0  0  0  0  0
    4.2791   -2.0646    2.7372 C   0  0  0  0  0  0  0  0  0  0  0  0
    5.2657   -2.5288    2.8859 H   0  0  0  0  0  0  0  0  0  0  0  0
    4.0058   -0.7980    3.2760 C   0  0  0  0  0  0  0  0  0  0  0  0
    4.7748   -0.2648    3.8554 H   0  0  0  0  0  0  0  0  0  0  0  0
    2.7495   -0.2060    3.0765 C   0  0  0  0  0  0  0  0  0  0  0  0
    2.5403    0.7876    3.5053 H   0  0  0  0  0  0  0  0  0  0  0  0
  1 52  1  1  0  0  0
  2  3  1  0  0  0  0
  2  1  1  1  0  0  0
  2 16  1  0  0  0  0
  3  4  1  0  0  0  0
  5  3  1  0  0  0  0
  6  7  1  1  0  0  0
  6  3  1  0  0  0  0
  6 21  1  0  0  0  0
  8  6  1  0  0  0  0
  9  8  1  0  0  0  0
 10  8  1  0  0  0  0
 11 12  1  6  0  0  0
 11  8  1  0  0  0  0
 11 13  1  0  0  0  0
 11 24  1  0  0  0  0
 13  2  1  0  0  0  0
 14 13  1  0  0  0  0
 15 13  1  0  0  0  0
 16 17  1  0  0  0  0
 18 16  1  0  0  0  0
 19 21  1  0  0  0  0
 19 16  1  0  0  0  0
 19 20  1  1  0  0  0
 21 23  1  0  0  0  0
 22 21  1  0  0  0  0
 24 19  1  0  0  0  0
 25 24  1  0  0  0  0
 26 24  1  0  0  0  0
 27  1  1  6  0  0  0
 27 41  1  0  0  0  0
 27 28  1  0  0  0  0
 28 31  1  0  0  0  0
 28 29  1  0  0  0  0
 30 28  1  0  0  0  0
 31 46  1  0  0  0  0
 31 32  1  1  0  0  0
 33 34  1  0  0  0  0
 33 31  1  0  0  0  0
 35 33  1  0  0  0  0
 36 37  1  6  0  0  0
 36 49  1  0  0  0  0
 36 33  1  0  0  0  0
 38 36  1  0  0  0  0
 38 27  1  0  0  0  0
 39 38  1  0  0  0  0
 40 38  1  0  0  0  0
 41 44  1  0  0  0  0
 41 43  1  0  0  0  0
 42 41  1  0  0  0  0
 44 45  1  1  0  0  0
 44 46  1  0  0  0  0
 46 48  1  0  0  0  0
 46 47  1  0  0  0  0
 49 51  1  0  0  0  0
 49 44  1  0  0  0  0
 50 49  1  0  0  0  0
 52 55  1  0  0  0  0
 52 54  1  0  0  0  0
 52 53  1  0  0  0  0
 55 64  1  0  0  0  0
 56 58  1  0  0  0  0
 56 55  2  0  0  0  0
 57 56  1  0  0  0  0
 58 60  2  0  0  0  0
 59 58  1  0  0  0  0
 60 61  1  0  0  0  0
 60 62  1  0  0  0  0
 62 63  1  0  0  0  0
 64 62  2  0  0  0  0
 64 65  1  0  0  0  0
M  END
