1
q = 0.0, confidence = 0.99

 76 79  0  0  0  0  0  0  0  0999 V2000
   -0.3742    1.2054    0.0740 P   0  0  0  0  0  0  0  0  0  0  0  0
   -1.2122   -2.1779    1.5656 O   0  0  0  0  0  0  0  0  0  0  0  0
    3.2273   -0.9809    0.6401 O   0  0  0  0  0  0  0  0  0  0  0  0
    0.7951    2.4919   -0.6122 C   0  0  0  0  0  0  0  0  0  0  0  0
    0.2925    2.7844   -1.5628 H   0  0  0  0  0  0  0  0  0  0  0  0
    0.9986    3.7492    0.2464 C   0  0  0  0  0  0  0  0  0  0  0  0
    1.4467    3.4551    1.2197 H   0  0  0  0  0  0  0  0  0  0  0  0
    0.0263    4.2359    0.4726 H   0  0  0  0  0  0  0  0  0  0  0  0
    1.9374    4.7460   -0.4507 C   0  0  0  0  0  0  0  0  0  0  0  0
    1.4542    5.1137   -1.3837 H   0  0  0  0  0  0  0  0  0  0  0  0
    2.0879    5.6361    0.1957 H   0  0  0  0  0  0  0  0  0  0  0  0
    3.2818    4.0962   -0.7990 C   0  0  0  0  0  0  0  0  0  0  0  0
    3.9391    4.8214   -1.3228 H   0  0  0  0  0  0  0  0  0  0  0  0
    3.8067    3.8190    0.1433 H   0  0  0  0  0  0  0  0  0  0  0  0
    3.0807    2.8376   -1.6512 C   0  0  0  0  0  0  0  0  0  0  0  0
    4.0571    2.3543   -1.8669 H   0  0  0  0  0  0  0  0  0  0  0  0
    2.6548    3.1266   -2.6382 H   0  0  0  0  0  0  0  0  0  0  0  0
    2.1395    1.8346   -0.9718 C   0  0  0  0  0  0  0  0  0  0  0  0
    1.9609    0.9557   -1.6262 H   0  0  0  0  0  0  0  0  0  0  0  0
    2.6093    1.4332   -0.0476 H   0  0  0  0  0  0  0  0  0  0  0  0
   -1.9779    2.0872    0.4270 C   0  0  0  0  0  0  0  0  0  0  0  0
   -1.7593    2.9263    1.1247 H   0  0  0  0  0  0  0  0  0  0  0  0
   -2.5804    2.6713   -0.8634 C   0  0  0  0  0  0  0  0  0  0  0  0
   -1.8910    3.4146   -1.3156 H   0  0  0  0  0  0  0  0  0  0  0  0
   -2.6883    1.8494   -1.6067 H   0  0  0  0  0  0  0  0  0  0  0  0
   -3.9474    3.3184   -0.5975 C   0  0  0  0  0  0  0  0  0  0  0  0
   -3.8097    4.2082    0.0581 H   0  0  0  0  0  0  0  0  0  0  0  0
   -4.3730    3.6964   -1.5504 H   0  0  0  0  0  0  0  0  0  0  0  0
   -4.9174    2.3407    0.0768 C   0  0  0  0  0  0  0  0  0  0  0  0
   -5.1359    1.5039   -0.6238 H   0  0  0  0  0  0  0  0  0  0  0  0
   -5.8877    2.8388    0.2836 H   0  0  0  0  0  0  0  0  0  0  0  0
   -4.3180    1.7702    1.3677 C   0  0  0  0  0  0  0  0  0  0  0  0
   -4.1977    2.5894    2.1125 H   0  0  0  0  0  0  0  0  0  0  0  0
   -5.0077    1.0310    1.8268 H   0  0  0  0  0  0  0  0  0  0  0  0
   -2.9565    1.1143    1.1094 C   0  0  0  0  0  0  0  0  0  0  0  0
   -3.0864    0.2334    0.4430 H   0  0  0  0  0  0  0  0  0  0  0  0
   -2.5176    0.7242    2.0505 H   0  0  0  0  0  0  0  0  0  0  0  0
    0.2783    0.7670    1.7417 C   0  0  0  0  0  0  0  0  0  0  0  0
    0.1741    1.7262    2.7766 C   0  0  0  0  0  0  0  0  0  0  0  0
   -0.3285    2.6848    2.5864 H   0  0  0  0  0  0  0  0  0  0  0  0
    0.6911    1.4811    4.0538 C   0  0  0  0  0  0  0  0  0  0  0  0
    0.5944    2.2445    4.8404 H   0  0  0  0  0  0  0  0  0  0  0  0
    1.3282    0.2596    4.3177 C   0  0  0  0  0  0  0  0  0  0  0  0
    1.7433    0.0525    5.3159 H   0  0  0  0  0  0  0  0  0  0  0  0
    1.4198   -0.7038    3.3078 C   0  0  0  0  0  0  0  0  0  0  0  0
    1.8993   -1.6731    3.5098 H   0  0  0  0  0  0  0  0  0  0  0  0
    0.8955   -0.4812    2.0151 C   0  0  0  0  0  0  0  0  0  0  0  0
    1.0042   -1.6120    1.0459 C   0  0  0  0  0  0  0  0  0  0  0  0
   -0.0759   -2.5217    0.8998 C   0  0  0  0  0  0  0  0  0  0  0  0
    0.0742   -3.6827    0.1154 C   0  0  0  0  0  0  0  0  0  0  0  0
   -0.7612   -4.3743   -0.0399 H   0  0  0  0  0  0  0  0  0  0  0  0
    1.2967   -3.9216   -0.5206 C   0  0  0  0  0  0  0  0  0  0  0  0
    1.4013   -4.8117   -1.1585 H   0  0  0  0  0  0  0  0  0  0  0  0
    2.3815   -3.0461   -0.3889 C   0  0  0  0  0  0  0  0  0  0  0  0
    3.3198   -3.2627   -0.9129 H   0  0  0  0  0  0  0  0  0  0  0  0
    2.2364   -1.8916    0.4076 C   0  0  0  0  0  0  0  0  0  0  0  0
   -2.3694   -3.0387    1.5207 C   0  0  0  0  0  0  0  0  0  0  0  0
   -2.0211   -4.0925    1.6194 H   0  0  0  0  0  0  0  0  0  0  0  0
   -3.1943   -2.6764    2.7498 C   0  0  0  0  0  0  0  0  0  0  0  0
   -2.5979   -2.8009    3.6744 H   0  0  0  0  0  0  0  0  0  0  0  0
   -4.0929   -3.3206    2.8162 H   0  0  0  0  0  0  0  0  0  0  0  0
   -3.5266   -1.6201    2.6906 H   0  0  0  0  0  0  0  0  0  0  0  0
   -3.1448   -2.8713    0.2152 C   0  0  0  0  0  0  0  0  0  0  0  0
   -2.5134   -3.0287   -0.6810 H   0  0  0  0  0  0  0  0  0  0  0  0
   -3.5628   -1.8471    0.1464 H   0  0  0  0  0  0  0  0  0  0  0  0
   -3.9887   -3.5898    0.1814 H   0  0  0  0  0  0  0  0  0  0  0  0
    4.5627   -1.2242    0.1606 C   0  0  0  0  0  0  0  0  0  0  0  0
    4.7865   -2.3083    0.2881 H   0  0  0  0  0  0  0  0  0  0  0  0
    4.7031   -0.8400   -1.3122 C   0  0  0  0  0  0  0  0  0  0  0  0
    3.9476   -1.3475   -1.9421 H   0  0  0  0  0  0  0  0  0  0  0  0
    5.7088   -1.1168   -1.6874 H   0  0  0  0  0  0  0  0  0  0  0  0
    4.5763    0.2529   -1.4406 H   0  0  0  0  0  0  0  0  0  0  0  0
    5.4818   -0.4170    1.0692 C   0  0  0  0  0  0  0  0  0  0  0  0
    5.3528   -0.7202    2.1262 H   0  0  0  0  0  0  0  0  0  0  0  0
    5.2484    0.6643    0.9886 H   0  0  0  0  0  0  0  0  0  0  0  0
    6.5414   -0.5670    0.7829 H   0  0  0  0  0  0  0  0  0  0  0  0
  1 21  1  0  0  0  0
  1 38  1  0  0  0  0
  4  1  1  0  0  0  0
  4  6  1  0  0  0  0
  5  4  1  0  0  0  0
  6  8  1  0  0  0  0
  6  7  1  0  0  0  0
  9 11  1  0  0  0  0
  9  6  1  0  0  0  0
 10  9  1  0  0  0  0
 12  9  1  0  0  0  0
 12 14  1  0  0  0  0
 13 12  1  0  0  0  0
 15 18  1  0  0  0  0
 15 12  1  0  0  0  0
 16 15  1  0  0  0  0
 17 15  1  0  0  0  0
 18  4  1  0  0  0  0
 18 20  1  0  0  0  0
 19 18  1  0  0  0  0
 21 35  1  0  0  0  0
 21 22  1  0  0  0  0
 23 26  1  0  0  0  0
 23 21  1  0  0  0  0
 24 23  1  0  0  0  0
 25 23  1  0  0  0  0
 26 27  1  0  0  0  0
 26 29  1  0  0  0  0
 28 26  1  0  0  0  0
 29 31  1  0  0  0  0
 29 32  1  0  0  0  0
 30 29  1  0  0  0  0
 32 34  1  0  0  0  0
 32 33  1  0  0  0  0
 35 32  1  0  0  0  0
 35 37  1  0  0  0  0
 36 35  1  0  0  0  0
 38 47  2  0  0  0  0
 38 39  1  0  0  0  0
 39 41  2  0  0  0  0
 40 39  1  0  0  0  0
 41 43  1  0  0  0  0
 41 42  1  0  0  0  0
 43 44  1  0  0  0  0
 45 46  1  0  0  0  0
 45 43  2  0  0  0  0
 47 45  1  0  0  0  0
 48 47  1  0  0  0  0
 49 48  1  0  0  0  0
 49  2  1  0  0  0  0
 50 49  2  0  0  0  0
 51 50  1  0  0  0  0
 52 54  2  0  0  0  0
 52 50  1  0  0  0  0
 53 52  1  0  0  0  0
 54 56  1  0  0  0  0
 55 54  1  0  0  0  0
 56  3  1  0  0  0  0
 56 48  2  0  0  0  0
 57  2  1  0  0  0  0
 57 58  1  0  0  0  0
 57 59  1  0  0  0  0
 59 61  1  0  0  0  0
 59 60  1  0  0  0  0
 62 59  1  0  0  0  0
 63 57  1  0  0  0  0
 64 63  1  0  0  0  0
 65 63  1  0  0  0  0
 66 63  1  0  0  0  0
 67 68  1  0  0  0  0
 67  3  1  0  0  0  0
 67 73  1  0  0  0  0
 69 67  1  0  0  0  0
 70 69  1  0  0  0  0
 71 69  1  0  0  0  0
 72 69  1  0  0  0  0
 73 74  1  0  0  0  0
 75 73  1  0  0  0  0
 76 73  1  0  0  0  0
M  END
