1
q = 0.0, confidence = 0.958

 63 69  0  0  0  0  0  0  0  0999 V2000
    0.0001   -0.4486    0.3388 P   0  0  1  0  0  0  0  0  0  0  0  0
   -3.7598    1.2930   -0.1825 N   0  0  0  0  0  0  0  0  0  0  0  0
   -3.6332    2.2104   -0.6050 H   0  0  0  0  0  0  0  0  0  0  0  0
    3.7600    1.2929   -0.1826 N   0  0  0  0  0  0  0  0  0  0  0  0
    3.6334    2.2105   -0.6047 H   0  0  0  0  0  0  0  0  0  0  0  0
   -4.9851    0.6827   -0.0061 C   0  0  0  0  0  0  0  0  0  0  0  0
   -4.7227   -0.6291    0.4379 C   0  0  0  0  0  0  0  0  0  0  0  0
   -5.4816   -1.3730    0.7011 H   0  0  0  0  0  0  0  0  0  0  0  0
   -3.3241   -0.7938    0.5128 C   0  0  0  0  0  0  0  0  0  0  0  0
   -2.7780   -1.6923    0.8212 H   0  0  0  0  0  0  0  0  0  0  0  0
   -2.7224    0.4209    0.1134 C   0  0  0  0  0  0  0  0  0  0  0  0
   -1.3392    0.7734    0.0139 C   0  0  0  0  0  0  0  0  0  0  0  0
   -0.7270    1.9667   -0.3244 C   0  0  0  0  0  0  0  0  0  0  0  0
    0.7272    1.9667   -0.3244 C   0  0  0  0  0  0  0  0  0  0  0  0
    1.3394    0.7734    0.0138 C   0  0  0  0  0  0  0  0  0  0  0  0
    2.7226    0.4207    0.1132 C   0  0  0  0  0  0  0  0  0  0  0  0
    3.3242   -0.7940    0.5123 C   0  0  0  0  0  0  0  0  0  0  0  0
    2.7781   -1.6926    0.8205 H   0  0  0  0  0  0  0  0  0  0  0  0
    4.7228   -0.6293    0.4376 C   0  0  0  0  0  0  0  0  0  0  0  0
    5.4817   -1.3733    0.7007 H   0  0  0  0  0  0  0  0  0  0  0  0
    4.9853    0.6825   -0.0063 C   0  0  0  0  0  0  0  0  0  0  0  0
   -1.2367    3.3318   -0.7194 C   0  0  0  0  0  0  0  0  0  0  0  0
   -2.1028    3.6710   -0.1125 H   0  0  0  0  0  0  0  0  0  0  0  0
   -1.5680    3.3258   -1.7838 H   0  0  0  0  0  0  0  0  0  0  0  0
    0.0001    4.2482   -0.5262 C   0  0  0  0  0  0  0  0  0  0  0  0
    0.0001    4.6381    0.5125 H   0  0  0  0  0  0  0  0  0  0  0  0
    0.0001    5.1229   -1.2047 H   0  0  0  0  0  0  0  0  0  0  0  0
    1.2369    3.3317   -0.7195 C   0  0  0  0  0  0  0  0  0  0  0  0
    1.5682    3.3258   -1.7838 H   0  0  0  0  0  0  0  0  0  0  0  0
    2.1030    3.6710   -0.1126 H   0  0  0  0  0  0  0  0  0  0  0  0
    0.0002   -0.7075    2.1558 C   0  0  0  0  0  0  0  0  0  0  0  0
    0.0003   -2.0137    2.6796 C   0  0  0  0  0  0  0  0  0  0  0  0
    0.0003   -2.8732    1.9898 H   0  0  0  0  0  0  0  0  0  0  0  0
    0.0004   -2.2079    4.0703 C   0  0  0  0  0  0  0  0  0  0  0  0
    0.0005   -3.2300    4.4778 H   0  0  0  0  0  0  0  0  0  0  0  0
    0.0003   -1.1026    4.9339 C   0  0  0  0  0  0  0  0  0  0  0  0
    0.0004   -1.2562    6.0237 H   0  0  0  0  0  0  0  0  0  0  0  0
    0.0002    0.2024    4.4098 C   0  0  0  0  0  0  0  0  0  0  0  0
    0.0002    1.0689    5.0883 H   0  0  0  0  0  0  0  0  0  0  0  0
    0.0001    0.4031    3.0238 C   0  0  0  0  0  0  0  0  0  0  0  0
    0.0001    1.4223    2.6068 H   0  0  0  0  0  0  0  0  0  0  0  0
   -6.2471    1.3713   -0.2522 C   0  0  0  0  0  0  0  0  0  0  0  0
   -7.4517    0.6369   -0.3866 C   0  0  0  0  0  0  0  0  0  0  0  0
   -7.4232   -0.4607   -0.3239 H   0  0  0  0  0  0  0  0  0  0  0  0
   -8.6673    1.2874   -0.6220 C   0  0  0  0  0  0  0  0  0  0  0  0
   -9.5882    0.6938   -0.7268 H   0  0  0  0  0  0  0  0  0  0  0  0
   -8.7167    2.6875   -0.7368 C   0  0  0  0  0  0  0  0  0  0  0  0
   -9.6734    3.1964   -0.9267 H   0  0  0  0  0  0  0  0  0  0  0  0
   -7.5326    3.4302   -0.6051 C   0  0  0  0  0  0  0  0  0  0  0  0
   -7.5584    4.5279   -0.6826 H   0  0  0  0  0  0  0  0  0  0  0  0
   -6.3151    2.7829   -0.3611 C   0  0  0  0  0  0  0  0  0  0  0  0
   -5.4074    3.3918   -0.2243 H   0  0  0  0  0  0  0  0  0  0  0  0
    6.2473    1.3711   -0.2524 C   0  0  0  0  0  0  0  0  0  0  0  0
    6.3154    2.7827   -0.3613 C   0  0  0  0  0  0  0  0  0  0  0  0
    5.4077    3.3916   -0.2245 H   0  0  0  0  0  0  0  0  0  0  0  0
    7.5329    3.4299   -0.6052 C   0  0  0  0  0  0  0  0  0  0  0  0
    7.5587    4.5276   -0.6827 H   0  0  0  0  0  0  0  0  0  0  0  0
    8.7170    2.6871   -0.7369 C   0  0  0  0  0  0  0  0  0  0  0  0
    9.6737    3.1961   -0.9267 H   0  0  0  0  0  0  0  0  0  0  0  0
    8.6675    1.2871   -0.6220 C   0  0  0  0  0  0  0  0  0  0  0  0
    9.5884    0.6934   -0.7268 H   0  0  0  0  0  0  0  0  0  0  0  0
    7.4519    0.6366   -0.3868 C   0  0  0  0  0  0  0  0  0  0  0  0
    7.4234   -0.4609   -0.3241 H   0  0  0  0  0  0  0  0  0  0  0  0
  1 31  1  1  0  0  0
  2  6  1  0  0  0  0
  2 11  1  0  0  0  0
  3  2  1  0  0  0  0
  4 21  1  0  0  0  0
  4 16  1  0  0  0  0
  5  4  1  0  0  0  0
  6  7  2  0  0  0  0
  7  9  1  0  0  0  0
  7  8  1  0  0  0  0
  9 10  1  0  0  0  0
 11  9  2  0  0  0  0
 12 11  1  0  0  0  0
 12  1  1  0  0  0  0
 13 12  2  0  0  0  0
 14 13  1  0  0  0  0
 14 15  2  0  0  0  0
 15 16  1  0  0  0  0
 15  1  1  0  0  0  0
 16 17  2  0  0  0  0
 17 18  1  0  0  0  0
 19 17  1  0  0  0  0
 19 20  1  0  0  0  0
 21 19  2  0  0  0  0
 22 25  1  0  0  0  0
 22 13  1  0  0  0  0
 22 23  1  0  0  0  0
 24 22  1  0  0  0  0
 25 26  1  0  0  0  0
 27 25  1  0  0  0  0
 28 25  1  0  0  0  0
 28 14  1  0  0  0  0
 28 30  1  0  0  0  0
 29 28  1  0  0  0  0
 31 32  2  0  0  0  0
 31 40  1  0  0  0  0
 32 34  1  0  0  0  0
 33 32  1  0  0  0  0
 34 35  1  0  0  0  0
 34 36  2  0  0  0  0
 36 37  1  0  0  0  0
 38 36  1  0  0  0  0
 38 39  1  0  0  0  0
 40 38  2  0  0  0  0
 41 40  1  0  0  0  0
 42  6  1  0  0  0  0
 43 44  1  0  0  0  0
 43 42  2  0  0  0  0
 45 43  1  0  0  0  0
 46 45  1  0  0  0  0
 47 45  2  0  0  0  0
 47 49  1  0  0  0  0
 48 47  1  0  0  0  0
 49 51  2  0  0  0  0
 50 49  1  0  0  0  0
 51 42  1  0  0  0  0
 51 52  1  0  0  0  0
 53 21  1  0  0  0  0
 54 53  1  0  0  0  0
 54 55  1  0  0  0  0
 56 54  2  0  0  0  0
 57 56  1  0  0  0  0
 58 60  2  0  0  0  0
 58 56  1  0  0  0  0
 59 58  1  0  0  0  0
 60 62  1  0  0  0  0
 61 60  1  0  0  0  0
 62 63  1  0  0  0  0
 62 53  2  0  0  0  0
M  END
