1
q = 0.0, confidence = 1.0

 40 42  0  0  1  0  0  0  0  0999 V2000
   -1.2234    0.0704   -0.0411 P   0  0  2  0  0  0  0  0  0  0  0  0
   -0.2043    4.2840   -1.9785 O   0  0  0  0  0  0  0  0  0  0  0  0
   -0.9803    1.9231    0.1704 C   0  0  2  0  0  0  0  0  0  0  0  0
   -0.6423    2.2754    1.1597 H   0  0  0  0  0  0  0  0  0  0  0  0
   -2.3172    2.4661   -0.3099 C   0  0  0  0  0  0  0  0  0  0  0  0
   -2.7673    1.7400   -1.3734 C   0  0  0  0  0  0  0  0  0  0  0  0
   -1.7576    0.6661   -1.7476 C   0  0  1  0  0  0  0  0  0  0  0  0
   -2.1130   -0.1232   -2.4328 H   0  0  0  0  0  0  0  0  0  0  0  0
   -0.4644    1.4005   -2.2118 C   0  0  0  0  0  0  0  0  0  0  0  0
    0.2692    0.6853   -2.6322 H   0  0  0  0  0  0  0  0  0  0  0  0
   -0.7179    2.1476   -2.9908 H   0  0  0  0  0  0  0  0  0  0  0  0
    0.1048    2.1205   -0.9624 C   0  0  1  0  0  0  0  0  0  0  0  0
    1.0347    1.6319   -0.6044 H   0  0  0  0  0  0  0  0  0  0  0  0
   -2.9225    3.6788    0.3190 C   0  0  0  0  0  0  0  0  0  0  0  0
   -2.2657    4.5649    0.1780 H   0  0  0  0  0  0  0  0  0  0  0  0
   -3.0530    3.5452    1.4148 H   0  0  0  0  0  0  0  0  0  0  0  0
   -3.9110    3.9234   -0.1141 H   0  0  0  0  0  0  0  0  0  0  0  0
   -4.0077    1.9335   -2.1807 C   0  0  0  0  0  0  0  0  0  0  0  0
   -4.6318    2.7653   -1.8023 H   0  0  0  0  0  0  0  0  0  0  0  0
   -4.6234    1.0081   -2.1763 H   0  0  0  0  0  0  0  0  0  0  0  0
   -3.7633    2.1465   -3.2441 H   0  0  0  0  0  0  0  0  0  0  0  0
    0.3765    3.6107   -1.1387 C   0  0  0  0  0  0  0  0  0  0  0  0
    1.4022    4.2034   -0.1835 C   0  0  0  0  0  0  0  0  0  0  0  0
    1.2575    3.7561    0.8249 H   0  0  0  0  0  0  0  0  0  0  0  0
    2.3881    3.7947   -0.5074 H   0  0  0  0  0  0  0  0  0  0  0  0
    1.4138    5.7259   -0.1530 C   0  0  0  0  0  0  0  0  0  0  0  0
    1.5359    6.1362   -1.1741 H   0  0  0  0  0  0  0  0  0  0  0  0
    2.2327    6.1107    0.4854 H   0  0  0  0  0  0  0  0  0  0  0  0
    0.4555    6.1224    0.2394 H   0  0  0  0  0  0  0  0  0  0  0  0
   -2.7548   -0.4530    0.8126 C   0  0  0  0  0  0  0  0  0  0  0  0
   -3.4069   -1.6142    0.3433 C   0  0  0  0  0  0  0  0  0  0  0  0
   -3.0110   -2.1645   -0.5243 H   0  0  0  0  0  0  0  0  0  0  0  0
   -4.5666   -2.0695    0.9878 C   0  0  0  0  0  0  0  0  0  0  0  0
   -5.0675   -2.9760    0.6161 H   0  0  0  0  0  0  0  0  0  0  0  0
   -5.0774   -1.3818    2.1001 C   0  0  0  0  0  0  0  0  0  0  0  0
   -5.9851   -1.7460    2.6050 H   0  0  0  0  0  0  0  0  0  0  0  0
   -4.4260   -0.2303    2.5706 C   0  0  0  0  0  0  0  0  0  0  0  0
   -4.8225    0.3127    3.4420 H   0  0  0  0  0  0  0  0  0  0  0  0
   -3.2676    0.2340    1.9310 C   0  0  0  0  0  0  0  0  0  0  0  0
   -2.7623    1.1365    2.3051 H   0  0  0  0  0  0  0  0  0  0  0  0
  1  3  1  0  0  0  0
  1 30  1  1  0  0  0
  2 22  2  0  0  0  0
  3  4  1  1  0  0  0
  5  3  1  0  0  0  0
  5 14  1  0  0  0  0
  6  5  2  0  0  0  0
  7  8  1  6  0  0  0
  7  6  1  0  0  0  0
  7  1  1  0  0  0  0
  9  7  1  0  0  0  0
  9 12  1  0  0  0  0
 10  9  1  0  0  0  0
 11  9  1  0  0  0  0
 12 13  1  1  0  0  0
 12  3  1  0  0  0  0
 14 16  1  0  0  0  0
 15 14  1  0  0  0  0
 17 14  1  0  0  0  0
 18 20  1  0  0  0  0
 18 19  1  0  0  0  0
 18  6  1  0  0  0  0
 21 18  1  0  0  0  0
 22 12  1  0  0  0  0
 22 23  1  0  0  0  0
 23 26  1  0  0  0  0
 23 24  1  0  0  0  0
 25 23  1  0  0  0  0
 26 29  1  0  0  0  0
 26 28  1  0  0  0  0
 27 26  1  0  0  0  0
 30 39  1  0  0  0  0
 31 30  2  0  0  0  0
 31 33  1  0  0  0  0
 32 31  1  0  0  0  0
 33 35  2  0  0  0  0
 34 33  1  0  0  0  0
 35 37  1  0  0  0  0
 35 36  1  0  0  0  0
 37 38  1  0  0  0  0
 39 40  1  0  0  0  0
 39 37  2  0  0  0  0
M  END
