1
q = 0.0, confidence = 0.998

 56 58  0  0  0  0  0  0  0  0999 V2000
   -1.2516   -0.0540   -0.0537 P   0  0  0  0  0  0  0  0  0  0  0  0
    1.5705    0.2069   -1.7243 O   0  0  0  0  0  0  0  0  0  0  0  0
    2.6088   -1.2977   -0.3368 N   0  0  0  0  0  0  0  0  0  0  0  0
   -0.8866   -1.5820   -1.0296 C   0  0  0  0  0  0  0  0  0  0  0  0
   -1.9195   -2.4587   -1.4159 C   0  0  0  0  0  0  0  0  0  0  0  0
   -2.9526   -2.2478   -1.1026 H   0  0  0  0  0  0  0  0  0  0  0  0
   -1.6501   -3.5888   -2.2030 C   0  0  0  0  0  0  0  0  0  0  0  0
   -2.4726   -4.2580   -2.4969 H   0  0  0  0  0  0  0  0  0  0  0  0
   -0.3377   -3.8523   -2.6182 C   0  0  0  0  0  0  0  0  0  0  0  0
   -0.1181   -4.7257   -3.2505 H   0  0  0  0  0  0  0  0  0  0  0  0
    0.7000   -2.9946   -2.2261 C   0  0  0  0  0  0  0  0  0  0  0  0
    1.7306   -3.1942   -2.5564 H   0  0  0  0  0  0  0  0  0  0  0  0
    0.4490   -1.8637   -1.4248 C   0  0  0  0  0  0  0  0  0  0  0  0
    1.5888   -0.8956   -1.1520 C   0  0  0  0  0  0  0  0  0  0  0  0
    2.5786   -2.5630    0.4258 C   0  0  0  0  0  0  0  0  0  0  0  0
    1.5660   -2.9821    0.2652 H   0  0  0  0  0  0  0  0  0  0  0  0
    3.6065   -3.5696   -0.1065 C   0  0  0  0  0  0  0  0  0  0  0  0
    3.4491   -3.7804   -1.1822 H   0  0  0  0  0  0  0  0  0  0  0  0
    3.5301   -4.5266    0.4474 H   0  0  0  0  0  0  0  0  0  0  0  0
    4.6428   -3.1943    0.0196 H   0  0  0  0  0  0  0  0  0  0  0  0
    2.7367   -2.3295    1.9329 C   0  0  0  0  0  0  0  0  0  0  0  0
    2.0063   -1.5869    2.3007 H   0  0  0  0  0  0  0  0  0  0  0  0
    3.7553   -1.9790    2.1956 H   0  0  0  0  0  0  0  0  0  0  0  0
    2.5634   -3.2794    2.4763 H   0  0  0  0  0  0  0  0  0  0  0  0
    3.7911   -0.4118   -0.1562 C   0  0  0  0  0  0  0  0  0  0  0  0
    4.4990   -1.0197    0.4438 H   0  0  0  0  0  0  0  0  0  0  0  0
    4.4912   -0.1029   -1.4852 C   0  0  0  0  0  0  0  0  0  0  0  0
    4.7255   -1.0372   -2.0345 H   0  0  0  0  0  0  0  0  0  0  0  0
    5.4444    0.4260   -1.2855 H   0  0  0  0  0  0  0  0  0  0  0  0
    3.8590    0.5365   -2.1276 H   0  0  0  0  0  0  0  0  0  0  0  0
    3.4509    0.8421    0.6570 C   0  0  0  0  0  0  0  0  0  0  0  0
    3.0539    0.5765    1.6558 H   0  0  0  0  0  0  0  0  0  0  0  0
    2.6950    1.4768    0.1592 H   0  0  0  0  0  0  0  0  0  0  0  0
    4.3638    1.4527    0.8070 H   0  0  0  0  0  0  0  0  0  0  0  0
   -0.6730   -0.4794    1.6382 C   0  0  0  0  0  0  0  0  0  0  0  0
   -0.0155    0.5145    2.3936 C   0  0  0  0  0  0  0  0  0  0  0  0
    0.2161    1.4973    1.9432 H   0  0  0  0  0  0  0  0  0  0  0  0
    0.3747    0.2341    3.7141 C   0  0  0  0  0  0  0  0  0  0  0  0
    0.8907    1.0105    4.2988 H   0  0  0  0  0  0  0  0  0  0  0  0
    0.1162   -1.0243    4.2799 C   0  0  0  0  0  0  0  0  0  0  0  0
    0.4228   -1.2366    5.3155 H   0  0  0  0  0  0  0  0  0  0  0  0
   -0.5171   -2.0221    3.5183 C   0  0  0  0  0  0  0  0  0  0  0  0
   -0.7035   -3.0156    3.9541 H   0  0  0  0  0  0  0  0  0  0  0  0
   -0.9051   -1.7551    2.1976 C   0  0  0  0  0  0  0  0  0  0  0  0
   -1.3905   -2.5391    1.5952 H   0  0  0  0  0  0  0  0  0  0  0  0
   -3.0868   -0.0237    0.0443 C   0  0  0  0  0  0  0  0  0  0  0  0
   -3.8172   -0.4144    1.1832 C   0  0  0  0  0  0  0  0  0  0  0  0
   -3.2910   -0.7709    2.0805 H   0  0  0  0  0  0  0  0  0  0  0  0
   -5.2196   -0.3377    1.1788 C   0  0  0  0  0  0  0  0  0  0  0  0
   -5.7824   -0.6371    2.0760 H   0  0  0  0  0  0  0  0  0  0  0  0
   -5.9007    0.1201    0.0410 C   0  0  0  0  0  0  0  0  0  0  0  0
   -6.9997    0.1789    0.0419 H   0  0  0  0  0  0  0  0  0  0  0  0
   -5.1754    0.5174   -1.0954 C   0  0  0  0  0  0  0  0  0  0  0  0
   -5.7027    0.8905   -1.9863 H   0  0  0  0  0  0  0  0  0  0  0  0
   -3.7759    0.4586   -1.0905 C   0  0  0  0  0  0  0  0  0  0  0  0
   -3.2045    0.7969   -1.9701 H   0  0  0  0  0  0  0  0  0  0  0  0
  1 46  1  0  0  0  0
  1 35  1  0  0  0  0
  2 14  2  0  0  0  0
  3 25  1  0  0  0  0
  3 15  1  0  0  0  0
  4  1  1  0  0  0  0
  5  6  1  0  0  0  0
  5  4  1  0  0  0  0
  7  5  2  0  0  0  0
  8  7  1  0  0  0  0
  9 11  2  0  0  0  0
  9  7  1  0  0  0  0
 10  9  1  0  0  0  0
 11 13  1  0  0  0  0
 12 11  1  0  0  0  0
 13 14  1  0  0  0  0
 13  4  2  0  0  0  0
 14  3  1  0  0  0  0
 15 21  1  0  0  0  0
 16 15  1  0  0  0  0
 17 20  1  0  0  0  0
 17 15  1  0  0  0  0
 17 19  1  0  0  0  0
 18 17  1  0  0  0  0
 21 23  1  0  0  0  0
 21 22  1  0  0  0  0
 21 24  1  0  0  0  0
 25 26  1  0  0  0  0
 25 31  1  0  0  0  0
 27 29  1  0  0  0  0
 27 25  1  0  0  0  0
 28 27  1  0  0  0  0
 30 27  1  0  0  0  0
 31 34  1  0  0  0  0
 31 32  1  0  0  0  0
 33 31  1  0  0  0  0
 35 44  2  0  0  0  0
 35 36  1  0  0  0  0
 36 38  2  0  0  0  0
 37 36  1  0  0  0  0
 38 40  1  0  0  0  0
 38 39  1  0  0  0  0
 40 41  1  0  0  0  0
 42 43  1  0  0  0  0
 42 40  2  0  0  0  0
 44 42  1  0  0  0  0
 45 44  1  0  0  0  0
 46 47  1  0  0  0  0
 47 48  1  0  0  0  0
 49 47  2  0  0  0  0
 49 50  1  0  0  0  0
 51 52  1  0  0  0  0
 51 49  1  0  0  0  0
 53 55  1  0  0  0  0
 53 51  2  0  0  0  0
 54 53  1  0  0  0  0
 55 46  2  0  0  0  0
 56 55  1  0  0  0  0
M  END
