1
q = 0.0, confidence = 0.994

 44 43  0  0  0  0  0  0  0  0999 V2000
    0.4169   -0.1894   -0.6913 P   0  0  0  0  0  0  0  0  0  0  0  0
    2.7975   -2.1175   -1.0363 Si  0  0  0  0  0  0  0  0  0  0  0  0
    2.5360   -0.2099    1.6283 Si  0  0  0  0  0  0  0  0  0  0  0  0
    1.2624    1.2506   -0.8529 O   0  0  0  0  0  0  0  0  0  0  0  0
    0.6843    2.2861   -1.6589 C   0  0  0  0  0  0  0  0  0  0  0  0
    1.5552    3.5291   -1.5684 C   0  0  0  0  0  0  0  0  0  0  0  0
    1.6638    4.1161   -0.1576 C   0  0  0  0  0  0  0  0  0  0  0  0
    2.4866    5.4030   -0.1059 C   0  0  0  0  0  0  0  0  0  0  0  0
    1.6618   -1.1814    0.2013 C   0  0  0  0  0  0  0  0  0  0  0  0
    3.5378   -0.9027   -2.2818 C   0  0  0  0  0  0  0  0  0  0  0  0
    4.1837   -3.0394   -0.1365 C   0  0  0  0  0  0  0  0  0  0  0  0
    1.7276   -3.4015   -1.9283 C   0  0  0  0  0  0  0  0  0  0  0  0
    1.3912    1.0388    2.4657 C   0  0  0  0  0  0  0  0  0  0  0  0
    4.0579    0.7057    0.9808 C   0  0  0  0  0  0  0  0  0  0  0  0
    3.0132   -1.4971    2.9309 C   0  0  0  0  0  0  0  0  0  0  0  0
    0.6022    1.9375   -2.7153 H   0  0  0  0  0  0  0  0  0  0  0  0
   -0.3474    2.5082   -1.3015 H   0  0  0  0  0  0  0  0  0  0  0  0
    2.5684    3.2890   -1.9604 H   0  0  0  0  0  0  0  0  0  0  0  0
    1.1259    4.2855   -2.2620 H   0  0  0  0  0  0  0  0  0  0  0  0
    2.1154    3.3557    0.5133 H   0  0  0  0  0  0  0  0  0  0  0  0
    0.6414    4.2986    0.2412 H   0  0  0  0  0  0  0  0  0  0  0  0
    3.5224    5.2338   -0.4679 H   0  0  0  0  0  0  0  0  0  0  0  0
    2.5552    5.8019    0.9259 H   0  0  0  0  0  0  0  0  0  0  0  0
    2.0412    6.1964   -0.7421 H   0  0  0  0  0  0  0  0  0  0  0  0
    1.0667   -1.9587    0.7309 H   0  0  0  0  0  0  0  0  0  0  0  0
    2.7544   -0.3290   -2.8158 H   0  0  0  0  0  0  0  0  0  0  0  0
    4.1292   -1.4556   -3.0406 H   0  0  0  0  0  0  0  0  0  0  0  0
    4.2085   -0.1745   -1.7859 H   0  0  0  0  0  0  0  0  0  0  0  0
    4.8796   -2.3548    0.3876 H   0  0  0  0  0  0  0  0  0  0  0  0
    4.7750   -3.6211   -0.8738 H   0  0  0  0  0  0  0  0  0  0  0  0
    3.7775   -3.7549    0.6069 H   0  0  0  0  0  0  0  0  0  0  0  0
    1.2993   -4.1280   -1.2070 H   0  0  0  0  0  0  0  0  0  0  0  0
    0.8821   -2.9431   -2.4801 H   0  0  0  0  0  0  0  0  0  0  0  0
    2.3352   -3.9714   -2.6614 H   0  0  0  0  0  0  0  0  0  0  0  0
    1.9600    1.5552    3.2672 H   0  0  0  0  0  0  0  0  0  0  0  0
    0.5178    0.5506    2.9393 H   0  0  0  0  0  0  0  0  0  0  0  0
    1.0246    1.8069    1.7599 H   0  0  0  0  0  0  0  0  0  0  0  0
    3.7603    1.3984    0.1689 H   0  0  0  0  0  0  0  0  0  0  0  0
    4.5153    1.3009    1.7979 H   0  0  0  0  0  0  0  0  0  0  0  0
    4.8347    0.0195    0.5888 H   0  0  0  0  0  0  0  0  0  0  0  0
    3.7081   -2.2681    2.5461 H   0  0  0  0  0  0  0  0  0  0  0  0
    3.5028   -0.9962    3.7918 H   0  0  0  0  0  0  0  0  0  0  0  0
    2.1046   -2.0069    3.3135 H   0  0  0  0  0  0  0  0  0  0  0  0
    0.5121   -0.6649   -2.0521 H   0  0  0  0  0  0  0  0  0  0  0  0
  1  9  1  0  0  0  0
  2 11  1  0  0  0  0
  2  9  1  0  0  0  0
  3 13  1  0  0  0  0
  3 15  1  0  0  0  0
  4  1  1  0  0  0  0
  5  6  1  0  0  0  0
  5 17  1  0  0  0  0
  5  4  1  0  0  0  0
  6  7  1  0  0  0  0
  7  8  1  0  0  0  0
  7 21  1  0  0  0  0
  7 20  1  0  0  0  0
  8 23  1  0  0  0  0
  9 25  1  0  0  0  0
  9  3  1  0  0  0  0
 10 28  1  0  0  0  0
 10  2  1  0  0  0  0
 11 29  1  0  0  0  0
 11 31  1  0  0  0  0
 12 32  1  0  0  0  0
 12  2  1  0  0  0  0
 13 36  1  0  0  0  0
 13 35  1  0  0  0  0
 14  3  1  0  0  0  0
 14 39  1  0  0  0  0
 15 43  1  0  0  0  0
 15 42  1  0  0  0  0
 16  5  1  0  0  0  0
 18  6  1  0  0  0  0
 19  6  1  0  0  0  0
 22  8  1  0  0  0  0
 24  8  1  0  0  0  0
 26 10  1  0  0  0  0
 27 10  1  0  0  0  0
 30 11  1  0  0  0  0
 33 12  1  0  0  0  0
 34 12  1  0  0  0  0
 37 13  1  0  0  0  0
 38 14  1  0  0  0  0
 40 14  1  0  0  0  0
 41 15  1  0  0  0  0
 44  1  1  0  0  0  0
M  END
