1
q = 0.0, confidence = 0.998

 55 58  0  0  1  0  0  0  0  0999 V2000
   -1.3312    1.2464    0.0469 P   0  0  2  0  0  0  0  0  0  0  0  0
    2.3826    4.2820   -0.3794 O   0  0  0  0  0  0  0  0  0  0  0  0
    2.2699    2.0463   -0.6787 O   0  0  0  0  0  0  0  0  0  0  0  0
    2.3453    0.0697    0.5705 O   0  0  0  0  0  0  0  0  0  0  0  0
    0.4217    1.4631    0.7263 C   0  0  2  0  0  0  0  0  0  0  0  0
    0.4826    0.9741    1.7160 H   0  0  0  0  0  0  0  0  0  0  0  0
    0.6433    2.9777    0.7670 C   0  0  2  0  0  0  0  0  0  0  0  0
    0.8626    3.3587    1.7847 H   0  0  0  0  0  0  0  0  0  0  0  0
   -0.6656    3.7148    0.2387 C   0  0  1  0  0  0  0  0  0  0  0  0
   -0.7493    3.4282   -1.2737 C   0  0  0  0  0  0  0  0  0  0  0  0
   -1.0826    2.1357   -1.5306 C   0  0  0  0  0  0  0  0  0  0  0  0
   -1.1279    1.6710   -2.5258 H   0  0  0  0  0  0  0  0  0  0  0  0
   -1.8016    2.8577    0.8527 C   0  0  0  0  0  0  0  0  0  0  0  0
   -2.8075    3.1842    0.5229 H   0  0  0  0  0  0  0  0  0  0  0  0
   -1.7650    2.8038    1.9597 H   0  0  0  0  0  0  0  0  0  0  0  0
    1.8573    3.2212   -0.1249 C   0  0  0  0  0  0  0  0  0  0  0  0
    1.5293    0.8909   -0.1718 C   0  0  1  0  0  0  0  0  0  0  0  0
    1.1495    0.3810   -1.0869 H   0  0  0  0  0  0  0  0  0  0  0  0
   -0.6788    5.1892    0.6287 C   0  0  0  0  0  0  0  0  0  0  0  0
   -0.6869    5.2948    1.7321 H   0  0  0  0  0  0  0  0  0  0  0  0
   -1.5756    5.7034    0.2299 H   0  0  0  0  0  0  0  0  0  0  0  0
    0.2269    5.7004    0.2483 H   0  0  0  0  0  0  0  0  0  0  0  0
   -0.3903    4.4634   -2.2903 C   0  0  0  0  0  0  0  0  0  0  0  0
    0.6441    4.8304   -2.1218 H   0  0  0  0  0  0  0  0  0  0  0  0
   -1.0549    5.3488   -2.2080 H   0  0  0  0  0  0  0  0  0  0  0  0
   -0.4633    4.0627   -3.3186 H   0  0  0  0  0  0  0  0  0  0  0  0
    3.2161   -0.7979   -0.1979 C   0  0  1  0  0  0  0  0  0  0  0  0
    3.4966   -0.2747   -1.1401 H   0  0  0  0  0  0  0  0  0  0  0  0
    4.4890   -1.0486    0.6198 C   0  0  1  0  0  0  0  0  0  0  0  0
    4.1555   -1.5544    1.5562 H   0  0  0  0  0  0  0  0  0  0  0  0
    5.3826   -2.0412   -0.1478 C   0  0  0  0  0  0  0  0  0  0  0  0
    5.7367   -1.5662   -1.0894 H   0  0  0  0  0  0  0  0  0  0  0  0
    6.2920   -2.2609    0.4474 H   0  0  0  0  0  0  0  0  0  0  0  0
    4.6519   -3.3450   -0.4889 C   0  0  0  0  0  0  0  0  0  0  0  0
    4.3853   -3.8782    0.4521 H   0  0  0  0  0  0  0  0  0  0  0  0
    5.3239   -4.0256   -1.0536 H   0  0  0  0  0  0  0  0  0  0  0  0
    3.3656   -3.0928   -1.2903 C   0  0  2  0  0  0  0  0  0  0  0  0
    3.6610   -2.6152   -2.2542 H   0  0  0  0  0  0  0  0  0  0  0  0
    2.4789   -2.0953   -0.5306 C   0  0  0  0  0  0  0  0  0  0  0  0
    1.5676   -1.8725   -1.1242 H   0  0  0  0  0  0  0  0  0  0  0  0
    2.1336   -2.5495    0.4239 H   0  0  0  0  0  0  0  0  0  0  0  0
    5.1974    0.2624    1.0531 C   0  0  0  0  0  0  0  0  0  0  0  0
    4.4163    0.8530    1.5783 H   0  0  0  0  0  0  0  0  0  0  0  0
    6.3205   -0.0126    2.0611 C   0  0  0  0  0  0  0  0  0  0  0  0
    6.7146    0.9353    2.4805 H   0  0  0  0  0  0  0  0  0  0  0  0
    7.1771   -0.5411    1.5925 H   0  0  0  0  0  0  0  0  0  0  0  0
    5.9653   -0.6347    2.9088 H   0  0  0  0  0  0  0  0  0  0  0  0
    5.7011    1.1170   -0.1181 C   0  0  0  0  0  0  0  0  0  0  0  0
    4.8796    1.4229   -0.7957 H   0  0  0  0  0  0  0  0  0  0  0  0
    6.4710    0.5867   -0.7167 H   0  0  0  0  0  0  0  0  0  0  0  0
    6.1680    2.0493    0.2596 H   0  0  0  0  0  0  0  0  0  0  0  0
    2.6071   -4.3826   -1.6096 C   0  0  0  0  0  0  0  0  0  0  0  0
    3.2362   -5.0914   -2.1856 H   0  0  0  0  0  0  0  0  0  0  0  0
    1.6928   -4.1763   -2.2028 H   0  0  0  0  0  0  0  0  0  0  0  0
    2.2915   -4.8949   -0.6760 H   0  0  0  0  0  0  0  0  0  0  0  0
  1 11  1  6  0  0  0
  1  5  1  0  0  0  0
  1 13  1  0  0  0  0
  2 16  2  0  0  0  0
  3 17  1  0  0  0  0
  3 16  1  0  0  0  0
  5  7  1  0  0  0  0
  5  6  1  1  0  0  0
  7  8  1  1  0  0  0
  9 19  1  1  0  0  0
  9  7  1  0  0  0  0
  9 13  1  0  0  0  0
 10  9  1  0  0  0  0
 11 10  2  0  0  0  0
 12 11  1  0  0  0  0
 13 15  1  0  0  0  0
 14 13  1  0  0  0  0
 16  7  1  0  0  0  0
 17 18  1  6  0  0  0
 17  4  1  0  0  0  0
 17  5  1  0  0  0  0
 19 20  1  0  0  0  0
 21 19  1  0  0  0  0
 22 19  1  0  0  0  0
 23 25  1  0  0  0  0
 23 24  1  0  0  0  0
 23 10  1  0  0  0  0
 26 23  1  0  0  0  0
 27 28  1  6  0  0  0
 27  4  1  0  0  0  0
 27 29  1  0  0  0  0
 29 42  1  0  0  0  0
 29 30  1  1  0  0  0
 31 33  1  0  0  0  0
 31 29  1  0  0  0  0
 32 31  1  0  0  0  0
 34 31  1  0  0  0  0
 34 35  1  0  0  0  0
 36 34  1  0  0  0  0
 37 38  1  6  0  0  0
 37 39  1  0  0  0  0
 37 34  1  0  0  0  0
 39 27  1  0  0  0  0
 39 41  1  0  0  0  0
 40 39  1  0  0  0  0
 42 43  1  0  0  0  0
 42 44  1  0  0  0  0
 44 45  1  0  0  0  0
 44 47  1  0  0  0  0
 46 44  1  0  0  0  0
 48 51  1  0  0  0  0
 48 42  1  0  0  0  0
 49 48  1  0  0  0  0
 50 48  1  0  0  0  0
 52 37  1  0  0  0  0
 52 55  1  0  0  0  0
 53 52  1  0  0  0  0
 54 52  1  0  0  0  0
M  END
