1
q = 0.0, confidence = 0.974

 28 30  0  0  0  0  0  0  0  0999 V2000
    0.4023   -0.7882   -0.3432 P   0  0  1  0  0  0  0  0  0  0  0  0
   -1.1846    1.7974    0.3961 P   0  0  2  0  0  0  0  0  0  0  0  0
   -2.7906   -1.1784   -0.8460 P   0  0  1  0  0  0  0  0  0  0  0  0
   -1.2534    0.3569   -1.3008 P   0  0  2  0  0  0  0  0  0  0  0  0
   -0.4680   -1.3632    1.6853 P   0  0  1  0  0  0  0  0  0  0  0  0
   -1.6279    0.4925    2.1554 P   0  0  2  0  0  0  0  0  0  0  0  0
   -2.6925   -1.3375    1.3743 P   0  0  1  0  0  0  0  0  0  0  0  0
    0.3560   -2.4092   -1.2763 C   0  0  0  0  0  0  0  0  0  0  0  0
    1.2416   -3.4985   -0.6744 C   0  0  0  0  0  0  0  0  0  0  0  0
   -2.8074    2.7446    0.2744 C   0  0  0  0  0  0  0  0  0  0  0  0
   -2.9583    3.4523   -1.0729 C   0  0  0  0  0  0  0  0  0  0  0  0
   -4.4303   -0.2917   -1.1164 C   0  0  0  0  0  0  0  0  0  0  0  0
   -5.6103   -1.2130   -0.7991 C   0  0  0  0  0  0  0  0  0  0  0  0
    0.6766   -2.1587   -2.3096 H   0  0  0  0  0  0  0  0  0  0  0  0
   -0.7040   -2.7339   -1.3304 H   0  0  0  0  0  0  0  0  0  0  0  0
    1.1144   -4.4402   -1.2456 H   0  0  0  0  0  0  0  0  0  0  0  0
    0.9785   -3.7089    0.3821 H   0  0  0  0  0  0  0  0  0  0  0  0
    2.3144   -3.2306   -0.7093 H   0  0  0  0  0  0  0  0  0  0  0  0
   -2.7488    3.4849    1.1008 H   0  0  0  0  0  0  0  0  0  0  0  0
   -3.6737    2.0898    0.4958 H   0  0  0  0  0  0  0  0  0  0  0  0
   -3.8411    4.1234   -1.0657 H   0  0  0  0  0  0  0  0  0  0  0  0
   -3.0912    2.7248   -1.8997 H   0  0  0  0  0  0  0  0  0  0  0  0
   -2.0658    4.0652   -1.3129 H   0  0  0  0  0  0  0  0  0  0  0  0
   -4.4275   -0.0095   -2.1909 H   0  0  0  0  0  0  0  0  0  0  0  0
   -4.4847    0.6463   -0.5314 H   0  0  0  0  0  0  0  0  0  0  0  0
   -6.5704   -0.7114   -1.0369 H   0  0  0  0  0  0  0  0  0  0  0  0
   -5.6327   -1.4880    0.2753 H   0  0  0  0  0  0  0  0  0  0  0  0
   -5.5615   -2.1530   -1.3851 H   0  0  0  0  0  0  0  0  0  0  0  0
  1  8  1  6  0  0  0
  1  5  1  0  0  0  0
  2 10  1  6  0  0  0
  2  6  1  0  0  0  0
  3 12  1  1  0  0  0
  3  7  1  0  0  0  0
  4  3  1  0  0  0  0
  4  1  1  0  0  0  0
  4  2  1  0  0  0  0
  5  6  1  0  0  0  0
  7  5  1  0  0  0  0
  7  6  1  0  0  0  0
  8  9  1  0  0  0  0
  9 17  1  0  0  0  0
 10 20  1  0  0  0  0
 10 19  1  0  0  0  0
 11 21  1  0  0  0  0
 11 10  1  0  0  0  0
 12 13  1  0  0  0  0
 12 25  1  0  0  0  0
 13 27  1  0  0  0  0
 14  8  1  0  0  0  0
 15  8  1  0  0  0  0
 16  9  1  0  0  0  0
 18  9  1  0  0  0  0
 22 11  1  0  0  0  0
 23 11  1  0  0  0  0
 24 12  1  0  0  0  0
 26 13  1  0  0  0  0
 28 13  1  0  0  0  0
M  END
