1
q = 0.0, confidence = 1.0

 56 58  0  0  0  0  0  0  0  0999 V2000
    0.3601    0.5607    0.0881 P   0  0  0  0  0  0  0  0  0  0  0  0
   -3.6131   -0.1496    0.0072 N   0  0  0  0  0  0  0  0  0  0  0  0
   -4.6044    0.0854   -0.0237 H   0  0  0  0  0  0  0  0  0  0  0  0
   -2.6182    0.8036    0.0168 C   0  0  0  0  0  0  0  0  0  0  0  0
   -1.3970    0.0786    0.0589 C   0  0  0  0  0  0  0  0  0  0  0  0
   -1.7427   -1.3195    0.0793 C   0  0  0  0  0  0  0  0  0  0  0  0
   -1.0343   -2.1477    0.1149 H   0  0  0  0  0  0  0  0  0  0  0  0
   -3.1218   -1.4394    0.0459 C   0  0  0  0  0  0  0  0  0  0  0  0
   -3.0194    2.2748   -0.0982 C   0  0  0  0  0  0  0  0  0  0  0  0
   -2.8694    2.7415   -1.5665 C   0  0  0  0  0  0  0  0  0  0  0  0
   -3.2157    3.7906   -1.6724 H   0  0  0  0  0  0  0  0  0  0  0  0
   -3.4758    2.1073   -2.2446 H   0  0  0  0  0  0  0  0  0  0  0  0
   -1.8192    2.6909   -1.9037 H   0  0  0  0  0  0  0  0  0  0  0  0
   -2.1716    3.1670    0.8255 C   0  0  0  0  0  0  0  0  0  0  0  0
   -2.3095    2.8961    1.8902 H   0  0  0  0  0  0  0  0  0  0  0  0
   -2.4655    4.2284    0.6943 H   0  0  0  0  0  0  0  0  0  0  0  0
   -1.0954    3.0894    0.5981 H   0  0  0  0  0  0  0  0  0  0  0  0
   -4.4985    2.4590    0.3129 C   0  0  0  0  0  0  0  0  0  0  0  0
   -4.6913    2.0922    1.3418 H   0  0  0  0  0  0  0  0  0  0  0  0
   -5.2006    1.9559   -0.3861 H   0  0  0  0  0  0  0  0  0  0  0  0
   -4.7564    3.5359    0.2858 H   0  0  0  0  0  0  0  0  0  0  0  0
   -4.0262   -2.6536    0.0523 C   0  0  0  0  0  0  0  0  0  0  0  0
   -4.9140   -2.6493   -1.2131 C   0  0  0  0  0  0  0  0  0  0  0  0
   -5.5645   -1.7507   -1.2586 H   0  0  0  0  0  0  0  0  0  0  0  0
   -5.5785   -3.5375   -1.2267 H   0  0  0  0  0  0  0  0  0  0  0  0
   -4.2931   -2.6644   -2.1309 H   0  0  0  0  0  0  0  0  0  0  0  0
   -4.9205   -2.6316    1.3131 C   0  0  0  0  0  0  0  0  0  0  0  0
   -4.3039   -2.6403    2.2339 H   0  0  0  0  0  0  0  0  0  0  0  0
   -5.5899   -3.5161    1.3337 H   0  0  0  0  0  0  0  0  0  0  0  0
   -5.5644   -1.7278    1.3452 H   0  0  0  0  0  0  0  0  0  0  0  0
   -3.1592   -3.9244    0.0615 C   0  0  0  0  0  0  0  0  0  0  0  0
   -2.5060   -3.9692   -0.8328 H   0  0  0  0  0  0  0  0  0  0  0  0
   -3.8019   -4.8274    0.0636 H   0  0  0  0  0  0  0  0  0  0  0  0
   -2.5116   -3.9628    0.9603 H   0  0  0  0  0  0  0  0  0  0  0  0
    0.5332    1.8282   -1.2477 C   0  0  0  0  0  0  0  0  0  0  0  0
    0.3327    1.3584   -2.5646 C   0  0  0  0  0  0  0  0  0  0  0  0
    0.0766    0.3010   -2.7327 H   0  0  0  0  0  0  0  0  0  0  0  0
    0.4475    2.2284   -3.6555 C   0  0  0  0  0  0  0  0  0  0  0  0
    0.2844    1.8475   -4.6749 H   0  0  0  0  0  0  0  0  0  0  0  0
    0.7729    3.5800   -3.4491 C   0  0  0  0  0  0  0  0  0  0  0  0
    0.8678    4.2633   -4.3064 H   0  0  0  0  0  0  0  0  0  0  0  0
    0.9807    4.0512   -2.1452 C   0  0  0  0  0  0  0  0  0  0  0  0
    1.2359    5.1080   -1.9734 H   0  0  0  0  0  0  0  0  0  0  0  0
    0.8621    3.1818   -1.0478 C   0  0  0  0  0  0  0  0  0  0  0  0
    1.0162    3.5728   -0.0322 H   0  0  0  0  0  0  0  0  0  0  0  0
    0.6304    1.4109    1.6999 C   0  0  0  0  0  0  0  0  0  0  0  0
   -0.2516    1.1763    2.7736 C   0  0  0  0  0  0  0  0  0  0  0  0
   -1.1541    0.5690    2.6068 H   0  0  0  0  0  0  0  0  0  0  0  0
    0.0199    1.7114    4.0415 C   0  0  0  0  0  0  0  0  0  0  0  0
   -0.6744    1.5177    4.8735 H   0  0  0  0  0  0  0  0  0  0  0  0
    1.1698    2.4887    4.2508 C   0  0  0  0  0  0  0  0  0  0  0  0
    1.3796    2.9099    5.2455 H   0  0  0  0  0  0  0  0  0  0  0  0
    2.0603    2.7126    3.1887 C   0  0  0  0  0  0  0  0  0  0  0  0
    2.9749    3.3034    3.3483 H   0  0  0  0  0  0  0  0  0  0  0  0
    1.8010    2.1667    1.9235 C   0  0  0  0  0  0  0  0  0  0  0  0
    2.5293    2.3114    1.1116 H   0  0  0  0  0  0  0  0  0  0  0  0
  1 46  1  0  0  0  0
  2  4  1  0  0  0  0
  2  8  1  0  0  0  0
  3  2  1  0  0  0  0
  4  5  2  0  0  0  0
  5  6  1  0  0  0  0
  5  1  1  0  0  0  0
  6  7  1  0  0  0  0
  8 22  1  0  0  0  0
  8  6  2  0  0  0  0
  9  4  1  0  0  0  0
  9 18  1  0  0  0  0
  9 14  1  0  0  0  0
 10  9  1  0  0  0  0
 11 10  1  0  0  0  0
 12 10  1  0  0  0  0
 13 10  1  0  0  0  0
 14 15  1  0  0  0  0
 16 14  1  0  0  0  0
 17 14  1  0  0  0  0
 18 19  1  0  0  0  0
 20 18  1  0  0  0  0
 21 18  1  0  0  0  0
 22 31  1  0  0  0  0
 22 27  1  0  0  0  0
 23 22  1  0  0  0  0
 24 23  1  0  0  0  0
 25 23  1  0  0  0  0
 26 23  1  0  0  0  0
 27 29  1  0  0  0  0
 27 30  1  0  0  0  0
 27 28  1  0  0  0  0
 31 33  1  0  0  0  0
 31 34  1  0  0  0  0
 32 31  1  0  0  0  0
 35 44  1  0  0  0  0
 35  1  1  0  0  0  0
 36 35  2  0  0  0  0
 37 36  1  0  0  0  0
 38 40  2  0  0  0  0
 38 36  1  0  0  0  0
 39 38  1  0  0  0  0
 40 42  1  0  0  0  0
 41 40  1  0  0  0  0
 42 43  1  0  0  0  0
 42 44  2  0  0  0  0
 44 45  1  0  0  0  0
 46 55  2  0  0  0  0
 46 47  1  0  0  0  0
 47 49  2  0  0  0  0
 48 47  1  0  0  0  0
 49 51  1  0  0  0  0
 49 50  1  0  0  0  0
 51 52  1  0  0  0  0
 53 54  1  0  0  0  0
 53 51  2  0  0  0  0
 55 53  1  0  0  0  0
 56 55  1  0  0  0  0
M  END
