1
q = 0.0, confidence = 0.996

 28 27  0  0  0  0  0  0  0  0999 V2000
    0.6933   -0.0006   -0.5446 P   0  0  0  0  0  0  0  0  0  0  0  0
    2.0416   -1.7947   -0.0236 Si  0  0  0  0  0  0  0  0  0  0  0  0
    1.8320    1.9263   -0.0359 Si  0  0  0  0  0  0  0  0  0  0  0  0
    1.0198   -3.3763   -0.1168 C   0  0  0  0  0  0  0  0  0  0  0  0
    1.6880   -4.2425    0.0742 H   0  0  0  0  0  0  0  0  0  0  0  0
    0.5549   -3.5132   -1.1125 H   0  0  0  0  0  0  0  0  0  0  0  0
    0.2170   -3.3909    0.6453 H   0  0  0  0  0  0  0  0  0  0  0  0
    3.4392   -1.8705   -1.2949 C   0  0  0  0  0  0  0  0  0  0  0  0
    4.0953   -2.7383   -1.0723 H   0  0  0  0  0  0  0  0  0  0  0  0
    4.0651   -0.9576   -1.2915 H   0  0  0  0  0  0  0  0  0  0  0  0
    3.0326   -2.0081   -2.3174 H   0  0  0  0  0  0  0  0  0  0  0  0
    2.7036   -1.5467    1.7278 C   0  0  0  0  0  0  0  0  0  0  0  0
    3.2792   -2.4452    2.0340 H   0  0  0  0  0  0  0  0  0  0  0  0
    1.8734   -1.4140    2.4500 H   0  0  0  0  0  0  0  0  0  0  0  0
    3.3794   -0.6714    1.7979 H   0  0  0  0  0  0  0  0  0  0  0  0
    1.8273    2.1603    1.8363 C   0  0  0  0  0  0  0  0  0  0  0  0
    2.4364    3.0541    2.0877 H   0  0  0  0  0  0  0  0  0  0  0  0
    2.2648    1.2919    2.3659 H   0  0  0  0  0  0  0  0  0  0  0  0
    0.8043    2.3291    2.2224 H   0  0  0  0  0  0  0  0  0  0  0  0
    3.6089    1.8248   -0.6796 C   0  0  0  0  0  0  0  0  0  0  0  0
    4.1065    2.8071   -0.5359 H   0  0  0  0  0  0  0  0  0  0  0  0
    3.6418    1.5826   -1.7608 H   0  0  0  0  0  0  0  0  0  0  0  0
    4.2019    1.0650   -0.1324 H   0  0  0  0  0  0  0  0  0  0  0  0
    0.8991    3.3190   -0.9032 C   0  0  0  0  0  0  0  0  0  0  0  0
    1.4499    4.2741   -0.7724 H   0  0  0  0  0  0  0  0  0  0  0  0
   -0.1144    3.4493   -0.4769 H   0  0  0  0  0  0  0  0  0  0  0  0
    0.7941    3.1275   -1.9898 H   0  0  0  0  0  0  0  0  0  0  0  0
    0.9175    0.0087   -1.9655 H   0  0  0  0  0  0  0  0  0  0  0  0
  1  3  1  0  0  0  0
  1  2  1  0  0  0  0
  2 12  1  0  0  0  0
  3 16  1  0  0  0  0
  4  2  1  0  0  0  0
  4  5  1  0  0  0  0
  4  7  1  0  0  0  0
  6  4  1  0  0  0  0
  8 10  1  0  0  0  0
  8  9  1  0  0  0  0
  8  2  1  0  0  0  0
 11  8  1  0  0  0  0
 12 15  1  0  0  0  0
 12 13  1  0  0  0  0
 12 14  1  0  0  0  0
 16 17  1  0  0  0  0
 16 19  1  0  0  0  0
 16 18  1  0  0  0  0
 20 21  1  0  0  0  0
 20 23  1  0  0  0  0
 20  3  1  0  0  0  0
 22 20  1  0  0  0  0
 24 25  1  0  0  0  0
 24 26  1  0  0  0  0
 24  3  1  0  0  0  0
 27 24  1  0  0  0  0
 28  1  1  0  0  0  0
M  END
