1
q = 0.0, confidence = 0.996

 43 43  0  0  0  0  0  0  0  0999 V2000
    0.8116    1.2639   -0.0553 P   0  0  0  0  0  0  0  0  0  0  0  0
   -0.7928    1.9404    0.0395 N   0  0  0  0  0  0  0  0  0  0  0  0
   -2.0039    1.1936   -0.0203 C   0  0  0  0  0  0  0  0  0  0  0  0
   -2.5500    0.8141   -1.2735 C   0  0  0  0  0  0  0  0  0  0  0  0
   -1.8499    1.1417   -2.5648 C   0  0  0  0  0  0  0  0  0  0  0  0
   -3.7713    0.1199   -1.2942 C   0  0  0  0  0  0  0  0  0  0  0  0
   -4.4662   -0.2149   -0.1194 C   0  0  0  0  0  0  0  0  0  0  0  0
   -5.7369   -1.0231   -0.1734 C   0  0  0  0  0  0  0  0  0  0  0  0
   -3.9148    0.1922    1.1087 C   0  0  0  0  0  0  0  0  0  0  0  0
   -2.6973    0.8878    1.1816 C   0  0  0  0  0  0  0  0  0  0  0  0
   -2.1323    1.3045    2.5148 C   0  0  0  0  0  0  0  0  0  0  0  0
    1.4990    2.0044   -1.6557 C   0  0  0  0  0  0  0  0  0  0  0  0
    1.2331    3.5016   -1.8283 C   0  0  0  0  0  0  0  0  0  0  0  0
    2.9748    1.6563   -1.8719 C   0  0  0  0  0  0  0  0  0  0  0  0
    1.7461    2.2752    1.2602 C   0  0  0  0  0  0  0  0  0  0  0  0
    1.0926    3.6214    1.6082 C   0  0  0  0  0  0  0  0  0  0  0  0
    2.0522    1.4973    2.5429 C   0  0  0  0  0  0  0  0  0  0  0  0
   -0.8381    2.7030    0.7212 H   0  0  0  0  0  0  0  0  0  0  0  0
   -1.4014    2.1537   -2.5331 H   0  0  0  0  0  0  0  0  0  0  0  0
   -1.0274    0.4251   -2.7745 H   0  0  0  0  0  0  0  0  0  0  0  0
   -2.5501    1.0886   -3.4201 H   0  0  0  0  0  0  0  0  0  0  0  0
   -4.1918   -0.1759   -2.2691 H   0  0  0  0  0  0  0  0  0  0  0  0
   -5.5048   -2.1101   -0.1804 H   0  0  0  0  0  0  0  0  0  0  0  0
   -6.3851   -0.8314    0.7042 H   0  0  0  0  0  0  0  0  0  0  0  0
   -6.3205   -0.8092   -1.0907 H   0  0  0  0  0  0  0  0  0  0  0  0
   -4.4429   -0.0510    2.0450 H   0  0  0  0  0  0  0  0  0  0  0  0
   -2.7308    0.8915    3.3484 H   0  0  0  0  0  0  0  0  0  0  0  0
   -2.1201    2.4100    2.6396 H   0  0  0  0  0  0  0  0  0  0  0  0
   -1.0877    0.9540    2.6413 H   0  0  0  0  0  0  0  0  0  0  0  0
    0.9046    1.4586   -2.4175 H   0  0  0  0  0  0  0  0  0  0  0  0
    1.4235    3.8005   -2.8800 H   0  0  0  0  0  0  0  0  0  0  0  0
    0.1829    3.7600   -1.5872 H   0  0  0  0  0  0  0  0  0  0  0  0
    1.9047    4.1145   -1.1929 H   0  0  0  0  0  0  0  0  0  0  0  0
    3.3021    2.0160   -2.8691 H   0  0  0  0  0  0  0  0  0  0  0  0
    3.1637    0.5674   -1.8332 H   0  0  0  0  0  0  0  0  0  0  0  0
    3.6323    2.1417   -1.1206 H   0  0  0  0  0  0  0  0  0  0  0  0
    2.7104    2.4786    0.7457 H   0  0  0  0  0  0  0  0  0  0  0  0
    0.1776    3.4757    2.2210 H   0  0  0  0  0  0  0  0  0  0  0  0
    0.8317    4.2336    0.7256 H   0  0  0  0  0  0  0  0  0  0  0  0
    1.7877    4.2186    2.2334 H   0  0  0  0  0  0  0  0  0  0  0  0
    1.1270    1.2328    3.0923 H   0  0  0  0  0  0  0  0  0  0  0  0
    2.6098    0.5639    2.3486 H   0  0  0  0  0  0  0  0  0  0  0  0
    2.6689    2.1247    3.2198 H   0  0  0  0  0  0  0  0  0  0  0  0
  1  2  1  0  0  0  0
  1 15  1  0  0  0  0
  2 18  1  0  0  0  0
  3  2  1  0  0  0  0
  3 10  1  0  0  0  0
  4  3  2  0  0  0  0
  5 19  1  0  0  0  0
  5  4  1  0  0  0  0
  6  4  1  0  0  0  0
  6  7  2  0  0  0  0
  7  9  1  0  0  0  0
  8  7  1  0  0  0  0
  8 24  1  0  0  0  0
  9 10  2  0  0  0  0
  9 26  1  0  0  0  0
 10 11  1  0  0  0  0
 11 28  1  0  0  0  0
 11 29  1  0  0  0  0
 11 27  1  0  0  0  0
 12  1  1  0  0  0  0
 13 12  1  0  0  0  0
 13 32  1  0  0  0  0
 13 33  1  0  0  0  0
 14 35  1  0  0  0  0
 14 12  1  0  0  0  0
 14 36  1  0  0  0  0
 15 16  1  0  0  0  0
 15 17  1  0  0  0  0
 16 38  1  0  0  0  0
 16 40  1  0  0  0  0
 17 41  1  0  0  0  0
 17 43  1  0  0  0  0
 20  5  1  0  0  0  0
 21  5  1  0  0  0  0
 22  6  1  0  0  0  0
 23  8  1  0  0  0  0
 25  8  1  0  0  0  0
 30 12  1  0  0  0  0
 31 13  1  0  0  0  0
 34 14  1  0  0  0  0
 37 15  1  0  0  0  0
 39 16  1  0  0  0  0
 42 17  1  0  0  0  0
M  END
