46
q = 0.0, confidence = 0.996

 46 48  0  0  1  0  0  0  0  0999 V2000
   -5.4767    0.0892   -2.6171 C   0  0  0  0  0  0  0  0  0  0  0  0
   -5.8818   -0.8735   -2.2460 H   0  0  0  0  0  0  0  0  0  0  0  0
   -5.7199    0.2260   -3.6852 H   0  0  0  0  0  0  0  0  0  0  0  0
   -5.9133    0.9079   -2.0109 H   0  0  0  0  0  0  0  0  0  0  0  0
   -3.5333   -0.0559   -1.2951 C   0  0  0  0  0  0  0  0  0  0  0  0
   -2.0159   -0.0968   -1.3169 C   0  0  0  0  0  0  0  0  0  0  0  0
   -1.7386   -1.1702   -1.4150 H   0  0  0  0  0  0  0  0  0  0  0  0
   -1.6302    0.3993   -2.2263 H   0  0  0  0  0  0  0  0  0  0  0  0
   -1.4315    0.5088   -0.0296 C   0  0  2  0  0  0  0  0  0  0  0  0
   -2.1653    0.3519    0.7878 H   0  0  0  0  0  0  0  0  0  0  0  0
   -1.1113    1.9876   -0.0938 C   0  0  0  0  0  0  0  0  0  0  0  0
   -0.3123    2.5232   -1.1257 C   0  0  0  0  0  0  0  0  0  0  0  0
    0.0627    1.8682   -1.9281 H   0  0  0  0  0  0  0  0  0  0  0  0
    0.0384    3.8812   -1.1246 C   0  0  0  0  0  0  0  0  0  0  0  0
    0.6679    4.2795   -1.9345 H   0  0  0  0  0  0  0  0  0  0  0  0
   -0.4029    4.7240   -0.0921 C   0  0  0  0  0  0  0  0  0  0  0  0
   -0.1250    5.7889   -0.0908 H   0  0  0  0  0  0  0  0  0  0  0  0
   -1.1980    4.2008    0.9395 C   0  0  0  0  0  0  0  0  0  0  0  0
   -1.5473    4.8530    1.7542 H   0  0  0  0  0  0  0  0  0  0  0  0
   -1.5469    2.8426    0.9379 C   0  0  0  0  0  0  0  0  0  0  0  0
   -2.1591    2.4306    1.7552 H   0  0  0  0  0  0  0  0  0  0  0  0
    0.5678    0.4321    2.0544 C   0  0  0  0  0  0  0  0  0  0  0  0
   -0.0850    0.1447    3.2696 C   0  0  0  0  0  0  0  0  0  0  0  0
   -0.8260   -0.6680    3.3196 H   0  0  0  0  0  0  0  0  0  0  0  0
    0.2177    0.8921    4.4173 C   0  0  0  0  0  0  0  0  0  0  0  0
   -0.2892    0.6632    5.3670 H   0  0  0  0  0  0  0  0  0  0  0  0
    1.1663    1.9262    4.3556 C   0  0  0  0  0  0  0  0  0  0  0  0
    1.4011    2.5107    5.2582 H   0  0  0  0  0  0  0  0  0  0  0  0
    1.8202    2.2096    3.1460 C   0  0  0  0  0  0  0  0  0  0  0  0
    2.5663    3.0166    3.0953 H   0  0  0  0  0  0  0  0  0  0  0  0
    1.5276    1.4623    1.9965 C   0  0  0  0  0  0  0  0  0  0  0  0
    2.0352    1.6779    1.0432 H   0  0  0  0  0  0  0  0  0  0  0  0
   -0.4866   -2.0828    1.0154 C   0  0  0  0  0  0  0  0  0  0  0  0
   -1.8439   -2.3775    1.2659 C   0  0  0  0  0  0  0  0  0  0  0  0
   -2.6311   -1.6221    1.1176 H   0  0  0  0  0  0  0  0  0  0  0  0
   -2.2117   -3.6669    1.6841 C   0  0  0  0  0  0  0  0  0  0  0  0
   -3.2728   -3.8924    1.8693 H   0  0  0  0  0  0  0  0  0  0  0  0
   -1.2376   -4.6609    1.8614 C   0  0  0  0  0  0  0  0  0  0  0  0
   -1.5324   -5.6690    2.1899 H   0  0  0  0  0  0  0  0  0  0  0  0
    0.1133   -4.3712    1.6072 C   0  0  0  0  0  0  0  0  0  0  0  0
    0.8803   -5.1500    1.7333 H   0  0  0  0  0  0  0  0  0  0  0  0
    0.4878   -3.0912    1.1780 C   0  0  0  0  0  0  0  0  0  0  0  0
    1.5434   -2.8666    0.9559 H   0  0  0  0  0  0  0  0  0  0  0  0
   -4.2160   -0.1900   -0.2924 O   0  0  0  0  0  0  0  0  0  0  0  0
   -4.0437    0.1049   -2.5317 O   0  0  0  0  0  0  0  0  0  0  0  0
    0.1050   -0.4234    0.5021 P   0  0  0  0  0  0  0  0  0  0  0  0
  1 45  1  0  0  0  0
  1  2  1  0  0  0  0
  1  4  1  0  0  0  0
  3  1  1  0  0  0  0
  5 44  2  0  0  0  0
  6  5  1  0  0  0  0
  6  9  1  0  0  0  0
  7  6  1  0  0  0  0
  8  6  1  0  0  0  0
  9 46  1  0  0  0  0
  9 10  1  1  0  0  0
 11  9  1  0  0  0  0
 11 20  1  0  0  0  0
 12 14  1  0  0  0  0
 12 11  2  0  0  0  0
 13 12  1  0  0  0  0
 14 16  2  0  0  0  0
 15 14  1  0  0  0  0
 16 17  1  0  0  0  0
 16 18  1  0  0  0  0
 18 19  1  0  0  0  0
 20 18  2  0  0  0  0
 20 21  1  0  0  0  0
 22 23  1  0  0  0  0
 23 24  1  0  0  0  0
 23 25  2  0  0  0  0
 25 26  1  0  0  0  0
 27 25  1  0  0  0  0
 27 28  1  0  0  0  0
 29 27  2  0  0  0  0
 30 29  1  0  0  0  0
 31 22  2  0  0  0  0
 31 29  1  0  0  0  0
 32 31  1  0  0  0  0
 33 42  2  0  0  0  0
 33 34  1  0  0  0  0
 34 36  2  0  0  0  0
 35 34  1  0  0  0  0
 36 38  1  0  0  0  0
 36 37  1  0  0  0  0
 38 39  1  0  0  0  0
 40 41  1  0  0  0  0
 40 38  2  0  0  0  0
 42 40  1  0  0  0  0
 43 42  1  0  0  0  0
 45  5  1  0  0  0  0
 46 33  1  0  0  0  0
 46 22  1  0  0  0  0
M  END
