1
q = nan, confidence = 0.0

  7  6  0  0  0  0  0  0  0  0999 V2000
    1.8845   -0.0039   -0.0214 P   0  0  0  0  0  0  0  0  0  0  0  0
    2.7765   -0.0989    1.3662 O   0  0  0  0  0  0  0  0  0  0  0  0
    2.5952    0.6618    1.9527 H   0  0  0  0  0  0  0  0  0  0  0  0
    2.6037    1.3433   -0.6720 O   0  0  0  0  0  0  0  0  0  0  0  0
    1.9702    1.7756   -1.2787 H   0  0  0  0  0  0  0  0  0  0  0  0
    2.5697   -1.2713   -0.7971 O   0  0  0  0  0  0  0  0  0  0  0  0
    3.5400   -1.2908   -0.6525 H   0  0  0  0  0  0  0  0  0  0  0  0
  1  2  1  0  0  0  0
  2  3  1  0  0  0  0
  4  1  1  0  0  0  0
  5  4  1  0  0  0  0
  6  7  1  0  0  0  0
  6  1  1  0  0  0  0
M  END
