1
q = 0.0, confidence = 0.988

 53 54  0  0  1  0  0  0  0  0999 V2000
    0.1187    0.0002    0.0002 P   0  0  2  0  0  0  0  0  0  0  0  0
    0.8249    1.5109    0.4500 N   0  0  0  0  0  0  0  0  0  0  0  0
    3.4262   -0.0006    0.0012 N   0  0  1  0  0  0  0  0  0  0  0  0
    0.8241   -1.1449    1.0838 N   0  0  0  0  0  0  0  0  0  0  0  0
    0.8252   -0.3660   -1.5328 N   0  0  0  0  0  0  0  0  0  0  0  0
    0.0653    2.3983    1.3514 C   0  0  0  0  0  0  0  0  0  0  0  0
   -0.8268    1.8087    1.6484 H   0  0  0  0  0  0  0  0  0  0  0  0
   -0.4492    3.6629    0.6468 C   0  0  0  0  0  0  0  0  0  0  0  0
    0.3752    4.3595    0.3887 H   0  0  0  0  0  0  0  0  0  0  0  0
   -1.1465    4.2148    1.3089 H   0  0  0  0  0  0  0  0  0  0  0  0
   -0.9891    3.4074   -0.2840 H   0  0  0  0  0  0  0  0  0  0  0  0
    0.8417    2.7508    2.6276 C   0  0  0  0  0  0  0  0  0  0  0  0
    1.1228    1.8426    3.1962 H   0  0  0  0  0  0  0  0  0  0  0  0
    0.2270    3.3914    3.2918 H   0  0  0  0  0  0  0  0  0  0  0  0
    1.7706    3.3126    2.3943 H   0  0  0  0  0  0  0  0  0  0  0  0
    2.0041    2.0536   -0.2134 C   0  0  0  0  0  0  0  0  0  0  0  0
    2.0455    3.1465   -0.0264 H   0  0  0  0  0  0  0  0  0  0  0  0
    1.9045    1.9369   -1.3137 H   0  0  0  0  0  0  0  0  0  0  0  0
    3.3425    1.4234    0.2113 C   0  0  0  0  0  0  0  0  0  0  0  0
    4.1541    1.9553   -0.3479 H   0  0  0  0  0  0  0  0  0  0  0  0
    3.5242    1.6255    1.2877 H   0  0  0  0  0  0  0  0  0  0  0  0
    3.3418   -0.8947    1.1292 C   0  0  0  0  0  0  0  0  0  0  0  0
    4.1528   -0.6762    1.8701 H   0  0  0  0  0  0  0  0  0  0  0  0
    3.5241   -1.9278    0.7660 H   0  0  0  0  0  0  0  0  0  0  0  0
    2.0029   -0.8422    1.8863 C   0  0  0  0  0  0  0  0  0  0  0  0
    2.0437   -1.5509    2.7392 H   0  0  0  0  0  0  0  0  0  0  0  0
    1.9031    0.1690    2.3356 H   0  0  0  0  0  0  0  0  0  0  0  0
    0.0642   -2.3694    1.4003 C   0  0  0  0  0  0  0  0  0  0  0  0
   -0.8276   -2.3312    0.7408 H   0  0  0  0  0  0  0  0  0  0  0  0
   -0.4513   -2.3934    2.8475 C   0  0  0  0  0  0  0  0  0  0  0  0
    0.3728   -2.5182    3.5802 H   0  0  0  0  0  0  0  0  0  0  0  0
   -1.1477   -3.2436    2.9930 H   0  0  0  0  0  0  0  0  0  0  0  0
   -0.9925   -1.4605    3.0926 H   0  0  0  0  0  0  0  0  0  0  0  0
    0.8406   -3.6505    1.0666 C   0  0  0  0  0  0  0  0  0  0  0  0
    1.1222   -3.6878   -0.0042 H   0  0  0  0  0  0  0  0  0  0  0  0
    0.2259   -4.5463    1.2881 H   0  0  0  0  0  0  0  0  0  0  0  0
    1.7693   -3.7300    1.6700 H   0  0  0  0  0  0  0  0  0  0  0  0
    3.3424   -0.5307   -1.3371 C   0  0  0  0  0  0  0  0  0  0  0  0
    4.1537   -1.2812   -1.5180 H   0  0  0  0  0  0  0  0  0  0  0  0
    3.5245    0.3004   -2.0503 H   0  0  0  0  0  0  0  0  0  0  0  0
    2.0037   -1.2129   -1.6703 C   0  0  0  0  0  0  0  0  0  0  0  0
    2.0449   -1.5984   -2.7099 H   0  0  0  0  0  0  0  0  0  0  0  0
    1.9033   -2.1068   -1.0182 H   0  0  0  0  0  0  0  0  0  0  0  0
    0.0667   -0.0281   -2.7523 C   0  0  0  0  0  0  0  0  0  0  0  0
   -0.8249    0.5250   -2.3908 H   0  0  0  0  0  0  0  0  0  0  0  0
   -0.4489   -1.2699   -3.4958 C   0  0  0  0  0  0  0  0  0  0  0  0
    0.3750   -1.8428   -3.9694 H   0  0  0  0  0  0  0  0  0  0  0  0
   -1.1452   -0.9715   -4.3052 H   0  0  0  0  0  0  0  0  0  0  0  0
   -0.9902   -1.9476   -2.8095 H   0  0  0  0  0  0  0  0  0  0  0  0
    0.8447    0.9000   -3.6952 C   0  0  0  0  0  0  0  0  0  0  0  0
    1.1272    1.8458   -3.1923 H   0  0  0  0  0  0  0  0  0  0  0  0
    0.2307    1.1563   -4.5821 H   0  0  0  0  0  0  0  0  0  0  0  0
    1.7730    0.4158   -4.0650 H   0  0  0  0  0  0  0  0  0  0  0  0
  1  5  1  6  0  0  0
  1  2  1  0  0  0  0
  1  4  1  0  0  0  0
  2  6  1  0  0  0  0
  3 38  1  6  0  0  0
  3 19  1  0  0  0  0
  3 22  1  0  0  0  0
  4 28  1  0  0  0  0
  4 25  1  0  0  0  0
  6  7  1  0  0  0  0
  6 12  1  0  0  0  0
  8 10  1  0  0  0  0
  8  6  1  0  0  0  0
  9  8  1  0  0  0  0
 11  8  1  0  0  0  0
 12 13  1  0  0  0  0
 12 14  1  0  0  0  0
 15 12  1  0  0  0  0
 16 17  1  0  0  0  0
 16 19  1  0  0  0  0
 16  2  1  0  0  0  0
 18 16  1  0  0  0  0
 19 21  1  0  0  0  0
 20 19  1  0  0  0  0
 22 23  1  0  0  0  0
 22 25  1  0  0  0  0
 24 22  1  0  0  0  0
 25 27  1  0  0  0  0
 25 26  1  0  0  0  0
 28 30  1  0  0  0  0
 29 28  1  0  0  0  0
 30 32  1  0  0  0  0
 30 33  1  0  0  0  0
 30 31  1  0  0  0  0
 34 36  1  0  0  0  0
 34 28  1  0  0  0  0
 34 37  1  0  0  0  0
 35 34  1  0  0  0  0
 39 38  1  0  0  0  0
 40 38  1  0  0  0  0
 41  5  1  0  0  0  0
 41 38  1  0  0  0  0
 41 43  1  0  0  0  0
 42 41  1  0  0  0  0
 44 45  1  0  0  0  0
 44  5  1  0  0  0  0
 46 49  1  0  0  0  0
 46 44  1  0  0  0  0
 47 46  1  0  0  0  0
 48 46  1  0  0  0  0
 50 51  1  0  0  0  0
 50 44  1  0  0  0  0
 52 50  1  0  0  0  0
 53 50  1  0  0  0  0
M  END
