2
q = 0.0, confidence = 0.996

 33 33  0  0  0  0  0  0  0  0999 V2000
   -6.4030   -0.3522    0.6791 I   0  0  0  0  0  0  0  0  0  0  0  0
   -1.9185   -1.1931   -0.5393 P   0  0  0  0  0  0  0  0  0  0  0  0
   -3.4030   -0.4744   -0.1966 O   0  0  0  0  0  0  0  0  0  0  0  0
   -3.8066    0.8037   -0.4746 C   0  0  0  0  0  0  0  0  0  0  0  0
   -3.4789    3.0732   -1.2951 C   0  0  0  0  0  0  0  0  0  0  0  0
   -2.8122    3.8316   -1.7321 H   0  0  0  0  0  0  0  0  0  0  0  0
   -2.1222   -1.7736   -2.2939 C   0  0  0  0  0  0  0  0  0  0  0  0
   -1.2145   -2.4025   -2.4275 H   0  0  0  0  0  0  0  0  0  0  0  0
   -2.9786    1.7904   -1.0411 C   0  0  0  0  0  0  0  0  0  0  0  0
   -1.9268    1.5452   -1.2546 H   0  0  0  0  0  0  0  0  0  0  0  0
   -2.1235   -2.6863    0.5406 C   0  0  0  0  0  0  0  0  0  0  0  0
   -3.1385   -3.0704    0.3007 H   0  0  0  0  0  0  0  0  0  0  0  0
   -2.0788   -2.2846    2.0194 C   0  0  0  0  0  0  0  0  0  0  0  0
   -2.8096   -1.4873    2.2524 H   0  0  0  0  0  0  0  0  0  0  0  0
   -2.3080   -3.1689    2.6486 H   0  0  0  0  0  0  0  0  0  0  0  0
   -1.0738   -1.9072    2.2947 H   0  0  0  0  0  0  0  0  0  0  0  0
   -5.1463    1.1296   -0.1686 C   0  0  0  0  0  0  0  0  0  0  0  0
   -4.8109    3.3909   -0.9890 C   0  0  0  0  0  0  0  0  0  0  0  0
   -5.2069    4.3977   -1.1875 H   0  0  0  0  0  0  0  0  0  0  0  0
   -1.0600   -3.7346    0.1858 C   0  0  0  0  0  0  0  0  0  0  0  0
   -1.1817   -4.1369   -0.8391 H   0  0  0  0  0  0  0  0  0  0  0  0
   -0.0368   -3.3116    0.2585 H   0  0  0  0  0  0  0  0  0  0  0  0
   -1.1319   -4.5869    0.8918 H   0  0  0  0  0  0  0  0  0  0  0  0
   -5.6461    2.4150   -0.4239 C   0  0  0  0  0  0  0  0  0  0  0  0
   -6.6923    2.6479   -0.1794 H   0  0  0  0  0  0  0  0  0  0  0  0
   -2.0259   -0.6078   -3.2871 C   0  0  0  0  0  0  0  0  0  0  0  0
   -1.0955   -0.0280   -3.1311 H   0  0  0  0  0  0  0  0  0  0  0  0
   -2.0036   -1.0096   -4.3208 H   0  0  0  0  0  0  0  0  0  0  0  0
   -2.8967    0.0728   -3.2090 H   0  0  0  0  0  0  0  0  0  0  0  0
   -3.3960   -2.6038   -2.4843 C   0  0  0  0  0  0  0  0  0  0  0  0
   -3.4015   -3.5261   -1.8711 H   0  0  0  0  0  0  0  0  0  0  0  0
   -4.3014   -2.0175   -2.2275 H   0  0  0  0  0  0  0  0  0  0  0  0
   -3.4814   -2.9120   -3.5465 H   0  0  0  0  0  0  0  0  0  0  0  0
  2  3  1  0  0  0  0
  2 11  1  0  0  0  0
  4  3  1  0  0  0  0
  4 17  1  0  0  0  0
  5  9  1  0  0  0  0
  5 18  2  0  0  0  0
  6  5  1  0  0  0  0
  7  2  1  0  0  0  0
  8  7  1  0  0  0  0
  9  4  2  0  0  0  0
 10  9  1  0  0  0  0
 11 13  1  0  0  0  0
 12 11  1  0  0  0  0
 13 14  1  0  0  0  0
 13 16  1  0  0  0  0
 13 15  1  0  0  0  0
 17  1  1  0  0  0  0
 18 24  1  0  0  0  0
 19 18  1  0  0  0  0
 20 22  1  0  0  0  0
 20 11  1  0  0  0  0
 20 23  1  0  0  0  0
 21 20  1  0  0  0  0
 24 25  1  0  0  0  0
 24 17  2  0  0  0  0
 26 29  1  0  0  0  0
 26 27  1  0  0  0  0
 26  7  1  0  0  0  0
 28 26  1  0  0  0  0
 30  7  1  0  0  0  0
 30 32  1  0  0  0  0
 30 31  1  0  0  0  0
 33 30  1  0  0  0  0
M  END
