1
q = -1.0

 33 35  0  0  0  0  0  0  0  0999 V2000
   -0.5674   -1.7976    0.0978 P   0  0  0  0  0  0  0  0  0  0  0  0
    0.5286   -2.4327    1.4306 C   0  0  0  0  0  0  0  0  0  0  0  0
    0.1295   -3.5560    2.1874 C   0  0  0  0  0  0  0  0  0  0  0  0
    0.9611   -4.0503    3.2026 C   0  0  0  0  0  0  0  0  0  0  0  0
    2.1922   -3.4294    3.4742 C   0  0  0  0  0  0  0  0  0  0  0  0
    2.5926   -2.3104    2.7269 C   0  0  0  0  0  0  0  0  0  0  0  0
    1.7638   -1.8127    1.7101 C   0  0  0  0  0  0  0  0  0  0  0  0
   -0.5873   -3.0829   -1.2009 C   0  0  0  0  0  0  0  0  0  0  0  0
   -1.4814   -2.8753   -2.2765 C   0  0  0  0  0  0  0  0  0  0  0  0
   -1.5830   -3.8411   -3.2913 C   0  0  0  0  0  0  0  0  0  0  0  0
   -0.8030   -5.0053   -3.2377 C   0  0  0  0  0  0  0  0  0  0  0  0
    0.0906   -5.2067   -2.1717 C   0  0  0  0  0  0  0  0  0  0  0  0
    0.1999   -4.2489   -1.1530 C   0  0  0  0  0  0  0  0  0  0  0  0
   -2.2838   -1.9194    0.7958 C   0  0  0  0  0  0  0  0  0  0  0  0
   -2.5277   -1.5377    2.1387 C   0  0  0  0  0  0  0  0  0  0  0  0
   -3.8267   -1.6627    2.6515 C   0  0  0  0  0  0  0  0  0  0  0  0
   -4.8648   -2.1577    1.8413 C   0  0  0  0  0  0  0  0  0  0  0  0
   -4.6064   -2.5173    0.5017 C   0  0  0  0  0  0  0  0  0  0  0  0
   -3.3130   -2.3837   -0.0060 C   0  0  0  0  0  3  0  0  0  0  0  0
   -0.8375   -4.0385    1.9793 H   0  0  0  0  0  0  0  0  0  0  0  0
    0.6445   -4.9275    3.7872 H   0  0  0  0  0  0  0  0  0  0  0  0
    2.8419   -3.8211    4.2718 H   0  0  0  0  0  0  0  0  0  0  0  0
    3.5586   -1.8218    2.9258 H   0  0  0  0  0  0  0  0  0  0  0  0
    2.0807   -0.9401    1.1184 H   0  0  0  0  0  0  0  0  0  0  0  0
   -2.0729   -1.9509   -2.3284 H   0  0  0  0  0  0  0  0  0  0  0  0
   -2.2751   -3.6768   -4.1310 H   0  0  0  0  0  0  0  0  0  0  0  0
   -0.8820   -5.7576   -4.0375 H   0  0  0  0  0  0  0  0  0  0  0  0
    0.7129   -6.1136   -2.1352 H   0  0  0  0  0  0  0  0  0  0  0  0
    0.9017   -4.4048   -0.3210 H   0  0  0  0  0  0  0  0  0  0  0  0
   -1.7153   -1.1696    2.7847 H   0  0  0  0  0  0  0  0  0  0  0  0
   -4.0269   -1.3802    3.6967 H   0  0  0  0  0  0  0  0  0  0  0  0
   -5.8828   -2.2595    2.2544 H   0  0  0  0  0  0  0  0  0  0  0  0
   -5.4376   -2.8904   -0.1238 H   0  0  0  0  0  0  0  0  0  0  0  0
  1 14  1  0  0  0  0
  1  2  1  0  0  0  0
  2  7  2  0  0  0  0
  2  3  1  0  0  0  0
  3  4  2  0  0  0  0
  4  5  1  0  0  0  0
  4 21  1  0  0  0  0
  5 22  1  0  0  0  0
  6 23  1  0  0  0  0
  6  5  2  0  0  0  0
  7  6  1  0  0  0  0
  8 13  1  0  0  0  0
  8  1  1  0  0  0  0
  9  8  2  0  0  0  0
 10 11  2  0  0  0  0
 10  9  1  0  0  0  0
 11 12  1  0  0  0  0
 12 28  1  0  0  0  0
 12 13  2  0  0  0  0
 13 29  1  0  0  0  0
 14 15  1  0  0  0  0
 15 16  2  0  0  0  0
 15 30  1  0  0  0  0
 16 31  1  0  0  0  0
 17 32  1  0  0  0  0
 17 16  1  0  0  0  0
 18 17  2  0  0  0  0
 19 18  1  0  0  0  0
 19 14  2  0  0  0  0
 20  3  1  0  0  0  0
 24  7  1  0  0  0  0
 25  9  1  0  0  0  0
 26 10  1  0  0  0  0
 27 11  1  0  0  0  0
 33 18  1  0  0  0  0
M  END
