1
q = 0.0, confidence = 1.0

 31 32  0  0  0  0  0  0  0  0999 V2000
    1.6187    0.7064    0.2667 P   0  0  0  0  0  0  0  0  0  0  0  0
    3.1458    0.7777   -0.5064 N   0  0  0  0  0  0  0  0  0  0  0  0
    4.1052   -0.3402   -0.3348 C   0  0  0  0  0  0  0  0  0  0  0  0
    4.8061   -0.1046    0.4999 H   0  0  0  0  0  0  0  0  0  0  0  0
    3.5871   -1.2942   -0.1086 H   0  0  0  0  0  0  0  0  0  0  0  0
    4.8403   -0.4325   -1.6807 C   0  0  0  0  0  0  0  0  0  0  0  0
    5.8936   -0.7562   -1.5678 H   0  0  0  0  0  0  0  0  0  0  0  0
    4.3095   -1.1639   -2.3217 H   0  0  0  0  0  0  0  0  0  0  0  0
    4.6902    0.9747   -2.2719 C   0  0  0  0  0  0  0  0  0  0  0  0
    4.8347    1.0093   -3.3695 H   0  0  0  0  0  0  0  0  0  0  0  0
    5.4156    1.6771   -1.8082 H   0  0  0  0  0  0  0  0  0  0  0  0
    3.2630    1.3502   -1.8624 C   0  0  0  0  0  0  0  0  0  0  0  0
    3.1024    2.4485   -1.8475 H   0  0  0  0  0  0  0  0  0  0  0  0
    2.5257    0.8868   -2.5589 H   0  0  0  0  0  0  0  0  0  0  0  0
    1.9903    0.3096    1.8782 N   0  0  0  0  0  0  0  0  0  0  0  0
    1.8654   -1.0764    2.3799 C   0  0  0  0  0  0  0  0  0  0  0  0
    1.7177   -1.7898    1.5447 H   0  0  0  0  0  0  0  0  0  0  0  0
    0.9784   -1.1692    3.0485 H   0  0  0  0  0  0  0  0  0  0  0  0
    3.1585   -1.2942    3.1712 C   0  0  0  0  0  0  0  0  0  0  0  0
    3.0668   -2.0952    3.9306 H   0  0  0  0  0  0  0  0  0  0  0  0
    3.9825   -1.5707    2.4813 H   0  0  0  0  0  0  0  0  0  0  0  0
    3.4114    0.0941    3.7764 C   0  0  0  0  0  0  0  0  0  0  0  0
    4.4563    0.2526    4.1079 H   0  0  0  0  0  0  0  0  0  0  0  0
    2.7548    0.2467    4.6586 H   0  0  0  0  0  0  0  0  0  0  0  0
    3.0069    1.0577    2.6461 C   0  0  0  0  0  0  0  0  0  0  0  0
    2.5955    2.0108    3.0440 H   0  0  0  0  0  0  0  0  0  0  0  0
    3.8738    1.3170    1.9978 H   0  0  0  0  0  0  0  0  0  0  0  0
    1.2118    2.4963    0.3243 C   0  0  0  0  0  0  0  0  0  0  0  0
    1.1535    2.8807   -0.7114 H   0  0  0  0  0  0  0  0  0  0  0  0
    1.9999    3.0501    0.8685 H   0  0  0  0  0  0  0  0  0  0  0  0
    0.2201    2.6368    0.7923 H   0  0  0  0  0  0  0  0  0  0  0  0
  1 28  1  0  0  0  0
  1 15  1  0  0  0  0
  2  3  1  0  0  0  0
  2  1  1  0  0  0  0
  3  5  1  0  0  0  0
  3  4  1  0  0  0  0
  6  7  1  0  0  0  0
  6  3  1  0  0  0  0
  8  6  1  0  0  0  0
  9 12  1  0  0  0  0
  9 11  1  0  0  0  0
  9  6  1  0  0  0  0
 10  9  1  0  0  0  0
 12 13  1  0  0  0  0
 12  2  1  0  0  0  0
 14 12  1  0  0  0  0
 15 16  1  0  0  0  0
 15 25  1  0  0  0  0
 16 18  1  0  0  0  0
 16 19  1  0  0  0  0
 17 16  1  0  0  0  0
 19 22  1  0  0  0  0
 19 20  1  0  0  0  0
 21 19  1  0  0  0  0
 22 23  1  0  0  0  0
 22 24  1  0  0  0  0
 25 26  1  0  0  0  0
 25 22  1  0  0  0  0
 27 25  1  0  0  0  0
 28 31  1  0  0  0  0
 28 30  1  0  0  0  0
 29 28  1  0  0  0  0
M  END
