1
q = 0.0, confidence = 0.998

 38 40  0  0  0  0  0  0  0  0999 V2000
    0.4909    0.1330   -0.0283 P   0  0  0  0  0  0  0  0  0  0  0  0
   -2.2114    1.8862    0.5602 S   0  0  0  0  0  0  0  0  0  0  0  0
   -3.9853    2.0460    0.1941 C   0  0  0  0  0  0  0  0  0  0  0  0
   -0.2435    1.2649   -1.2913 C   0  0  0  0  0  0  0  0  0  0  0  0
   -1.4786    1.9383   -1.0614 C   0  0  0  0  0  0  0  0  0  0  0  0
   -2.0894    2.6367   -2.1242 C   0  0  0  0  0  0  0  0  0  0  0  0
   -1.5090    2.6594   -3.3980 C   0  0  0  0  0  0  0  0  0  0  0  0
   -0.2976    1.9927   -3.6318 C   0  0  0  0  0  0  0  0  0  0  0  0
    0.3257    1.3068   -2.5815 C   0  0  0  0  0  0  0  0  0  0  0  0
    0.7528    1.1881    1.4676 C   0  0  0  0  0  0  0  0  0  0  0  0
    1.0192    0.5568    2.6986 C   0  0  0  0  0  0  0  0  0  0  0  0
    1.2932    1.3215    3.8410 C   0  0  0  0  0  0  0  0  0  0  0  0
    1.2978    2.7236    3.7675 C   0  0  0  0  0  0  0  0  0  0  0  0
    1.0343    3.3583    2.5443 C   0  0  0  0  0  0  0  0  0  0  0  0
    0.7654    2.5967    1.3974 C   0  0  0  0  0  0  0  0  0  0  0  0
    2.2582   -0.0030   -0.5937 C   0  0  0  0  0  0  0  0  0  0  0  0
    2.8485   -1.2471   -0.8805 C   0  0  0  0  0  0  0  0  0  0  0  0
    4.1930   -1.3240   -1.2803 C   0  0  0  0  0  0  0  0  0  0  0  0
    4.9616   -0.1586   -1.3993 C   0  0  0  0  0  0  0  0  0  0  0  0
    4.3816    1.0890   -1.1122 C   0  0  0  0  0  0  0  0  0  0  0  0
    3.0434    1.1664   -0.7078 C   0  0  0  0  0  0  0  0  0  0  0  0
   -4.4966    1.8073    1.1464 H   0  0  0  0  0  0  0  0  0  0  0  0
   -4.2868    1.3120   -0.5777 H   0  0  0  0  0  0  0  0  0  0  0  0
   -4.2636    3.0744   -0.1077 H   0  0  0  0  0  0  0  0  0  0  0  0
   -3.0333    3.1723   -1.9543 H   0  0  0  0  0  0  0  0  0  0  0  0
   -2.0101    3.2055   -4.2115 H   0  0  0  0  0  0  0  0  0  0  0  0
    0.1624    1.9998   -4.6308 H   0  0  0  0  0  0  0  0  0  0  0  0
    1.2682    0.7722   -2.7688 H   0  0  0  0  0  0  0  0  0  0  0  0
    1.0205   -0.5406    2.7662 H   0  0  0  0  0  0  0  0  0  0  0  0
    1.5003    0.8163    4.7963 H   0  0  0  0  0  0  0  0  0  0  0  0
    1.5053    3.3228    4.6671 H   0  0  0  0  0  0  0  0  0  0  0  0
    1.0325    4.4570    2.4796 H   0  0  0  0  0  0  0  0  0  0  0  0
    0.5537    3.1038    0.4439 H   0  0  0  0  0  0  0  0  0  0  0  0
    2.2618   -2.1693   -0.7912 H   0  0  0  0  0  0  0  0  0  0  0  0
    4.6372   -2.3068   -1.4980 H   0  0  0  0  0  0  0  0  0  0  0  0
    6.0150   -0.2195   -1.7125 H   0  0  0  0  0  0  0  0  0  0  0  0
    4.9781    2.0099   -1.1984 H   0  0  0  0  0  0  0  0  0  0  0  0
    2.6052    2.1481   -0.4770 H   0  0  0  0  0  0  0  0  0  0  0  0
  1 10  1  0  0  0  0
  3  2  1  0  0  0  0
  3 22  1  0  0  0  0
  4  5  1  0  0  0  0
  4  1  1  0  0  0  0
  5  2  1  0  0  0  0
  6 25  1  0  0  0  0
  6  5  2  0  0  0  0
  7  6  1  0  0  0  0
  8  7  2  0  0  0  0
  8  9  1  0  0  0  0
  9  4  2  0  0  0  0
 10 11  1  0  0  0  0
 11 29  1  0  0  0  0
 11 12  2  0  0  0  0
 12 30  1  0  0  0  0
 13 12  1  0  0  0  0
 13 31  1  0  0  0  0
 14 13  2  0  0  0  0
 15 10  2  0  0  0  0
 15 14  1  0  0  0  0
 16  1  1  0  0  0  0
 17 34  1  0  0  0  0
 17 16  2  0  0  0  0
 18 17  1  0  0  0  0
 19 18  2  0  0  0  0
 19 20  1  0  0  0  0
 20 21  2  0  0  0  0
 21 16  1  0  0  0  0
 21 38  1  0  0  0  0
 23  3  1  0  0  0  0
 24  3  1  0  0  0  0
 26  7  1  0  0  0  0
 27  8  1  0  0  0  0
 28  9  1  0  0  0  0
 32 14  1  0  0  0  0
 33 15  1  0  0  0  0
 35 18  1  0  0  0  0
 36 19  1  0  0  0  0
 37 20  1  0  0  0  0
M  END
