3
q = 0.0, confidence = 0.976

 73 73  0  0  1  0  0  0  0  0999 V2000
    2.0604    0.8217    0.9917 P   0  0  2  0  0  0  0  0  0  0  0  0
    2.4572   -0.9808   -0.2841 P   0  0  2  0  0  0  0  0  0  0  0  0
   -0.4575   -0.8719    0.4501 P   0  0  0  0  0  2  0  0  0  0  0  0
    1.2059    3.7793    0.5052 Si  0  0  0  0  0  0  0  0  0  0  0  0
    2.5625    2.1477   -1.8850 Si  0  0  0  0  0  0  0  0  0  0  0  0
    0.4004    0.2380    1.6890 C   0  0  1  0  0  0  0  0  0  0  0  0
   -0.2173    1.1573    1.7319 H   0  0  0  0  0  0  0  0  0  0  0  0
    0.8066   -1.7414   -0.3127 C   0  0  1  0  0  3  0  0  0  0  0  0
    0.4301   -0.3734    3.1374 C   0  0  0  0  0  0  0  0  0  0  0  0
    1.3667   -1.5870    3.2254 C   0  0  0  0  0  0  0  0  0  0  0  0
    1.1080   -2.3588    2.4731 H   0  0  0  0  0  0  0  0  0  0  0  0
    1.2948   -2.0498    4.2306 H   0  0  0  0  0  0  0  0  0  0  0  0
    2.4226   -1.2902    3.0720 H   0  0  0  0  0  0  0  0  0  0  0  0
   -0.9917   -0.8112    3.5405 C   0  0  0  0  0  0  0  0  0  0  0  0
   -1.7212    0.0173    3.4376 H   0  0  0  0  0  0  0  0  0  0  0  0
   -1.0006   -1.1435    4.5986 H   0  0  0  0  0  0  0  0  0  0  0  0
   -1.3487   -1.6612    2.9247 H   0  0  0  0  0  0  0  0  0  0  0  0
    0.9118    0.6989    4.1318 C   0  0  0  0  0  0  0  0  0  0  0  0
    0.2018    1.5470    4.1866 H   0  0  0  0  0  0  0  0  0  0  0  0
    1.9075    1.0946    3.8457 H   0  0  0  0  0  0  0  0  0  0  0  0
    0.9964    0.2609    5.1473 H   0  0  0  0  0  0  0  0  0  0  0  0
    0.5463   -2.9512   -1.2328 C   0  0  0  0  0  0  0  0  0  0  0  0
    0.0352   -2.4358   -2.5993 C   0  0  0  0  0  0  0  0  0  0  0  0
   -0.2054   -3.2884   -3.2671 H   0  0  0  0  0  0  0  0  0  0  0  0
    0.8043   -1.8109   -3.0931 H   0  0  0  0  0  0  0  0  0  0  0  0
   -0.8731   -1.8172   -2.4822 H   0  0  0  0  0  0  0  0  0  0  0  0
   -0.4844   -3.8983   -0.5823 C   0  0  0  0  0  0  0  0  0  0  0  0
   -0.0916   -4.3011    0.3732 H   0  0  0  0  0  0  0  0  0  0  0  0
   -0.7054   -4.7510   -1.2562 H   0  0  0  0  0  0  0  0  0  0  0  0
   -1.4359   -3.3816   -0.3591 H   0  0  0  0  0  0  0  0  0  0  0  0
    1.8363   -3.7577   -1.4839 C   0  0  0  0  0  0  0  0  0  0  0  0
    2.2383   -4.1980   -0.5501 H   0  0  0  0  0  0  0  0  0  0  0  0
    2.6255   -3.1292   -1.9459 H   0  0  0  0  0  0  0  0  0  0  0  0
    1.6214   -4.5914   -2.1824 H   0  0  0  0  0  0  0  0  0  0  0  0
    1.4511    2.0466   -0.3049 C   0  0  0  0  0  0  0  0  0  0  0  0
    0.4521    1.7202   -0.6739 H   0  0  0  0  0  0  0  0  0  0  0  0
    2.0466    0.8717   -3.1869 C   0  0  0  0  0  0  0  0  0  0  0  0
    0.9508    0.9027   -3.3524 H   0  0  0  0  0  0  0  0  0  0  0  0
    2.3303   -0.1558   -2.8927 H   0  0  0  0  0  0  0  0  0  0  0  0
    2.5436    1.1159   -4.1491 H   0  0  0  0  0  0  0  0  0  0  0  0
    2.3809    3.8031   -2.8015 C   0  0  0  0  0  0  0  0  0  0  0  0
    2.6137    4.7039   -2.2034 H   0  0  0  0  0  0  0  0  0  0  0  0
    1.3587    3.9140   -3.2166 H   0  0  0  0  0  0  0  0  0  0  0  0
    3.0830    3.7806   -3.6615 H   0  0  0  0  0  0  0  0  0  0  0  0
    4.3831    1.9308   -1.4036 C   0  0  0  0  0  0  0  0  0  0  0  0
    4.7092    2.7087   -0.6850 H   0  0  0  0  0  0  0  0  0  0  0  0
    5.0224    2.0063   -2.3076 H   0  0  0  0  0  0  0  0  0  0  0  0
    4.5693    0.9389   -0.9439 H   0  0  0  0  0  0  0  0  0  0  0  0
    0.4763    3.7196    2.2529 C   0  0  0  0  0  0  0  0  0  0  0  0
   -0.5353    3.2702    2.2936 H   0  0  0  0  0  0  0  0  0  0  0  0
    0.3829    4.7680    2.6067 H   0  0  0  0  0  0  0  0  0  0  0  0
    1.1353    3.1879    2.9647 H   0  0  0  0  0  0  0  0  0  0  0  0
    2.8795    4.6472    0.7088 C   0  0  0  0  0  0  0  0  0  0  0  0
    3.3993    4.8579   -0.2450 H   0  0  0  0  0  0  0  0  0  0  0  0
    3.5483    4.0150    1.3294 H   0  0  0  0  0  0  0  0  0  0  0  0
    2.7408    5.6107    1.2410 H   0  0  0  0  0  0  0  0  0  0  0  0
   -0.0349    4.7673   -0.5293 C   0  0  0  0  0  0  0  0  0  0  0  0
   -0.9968    4.2149   -0.5795 H   0  0  0  0  0  0  0  0  0  0  0  0
    0.2992    4.9663   -1.5638 H   0  0  0  0  0  0  0  0  0  0  0  0
   -0.2370    5.7419   -0.0386 H   0  0  0  0  0  0  0  0  0  0  0  0
    3.6537   -2.0249    0.7395 C   0  0  0  0  0  0  0  0  0  0  0  0
    3.8939   -1.4357    1.6485 H   0  0  0  0  0  0  0  0  0  0  0  0
    3.1374   -2.9426    1.0844 H   0  0  0  0  0  0  0  0  0  0  0  0
    4.9390   -2.3544   -0.0241 C   0  0  0  0  0  0  0  0  0  0  0  0
    4.6942   -2.9174   -0.9514 H   0  0  0  0  0  0  0  0  0  0  0  0
    5.4172   -1.4097   -0.3672 H   0  0  0  0  0  0  0  0  0  0  0  0
    5.9401   -3.1603    0.8110 C   0  0  0  0  0  0  0  0  0  0  0  0
    6.1783   -2.5947    1.7393 H   0  0  0  0  0  0  0  0  0  0  0  0
    5.4531   -4.1014    1.1516 H   0  0  0  0  0  0  0  0  0  0  0  0
    7.2293   -3.4872    0.0571 C   0  0  0  0  0  0  0  0  0  0  0  0
    7.9340   -4.0706    0.6831 H   0  0  0  0  0  0  0  0  0  0  0  0
    7.7531   -2.5629   -0.2643 H   0  0  0  0  0  0  0  0  0  0  0  0
    7.0219   -4.0823   -0.8568 H   0  0  0  0  0  0  0  0  0  0  0  0
  1 35  1  6  0  0  0
  1  6  1  0  0  0  0
  2 61  1  1  0  0  0
  2  1  1  0  0  0  0
  3  6  1  0  0  0  0
  4 53  1  0  0  0  0
  4 49  1  0  0  0  0
  5 45  1  0  0  0  0
  5 35  1  0  0  0  0
  6  7  1  1  0  0  0
  6  9  1  0  0  0  0
  8 22  1  6  0  0  0
  8  2  1  0  0  0  0
  8  3  1  0  0  0  0
  9 10  1  0  0  0  0
  9 14  1  0  0  0  0
  9 18  1  0  0  0  0
 10 12  1  0  0  0  0
 11 10  1  0  0  0  0
 13 10  1  0  0  0  0
 14 16  1  0  0  0  0
 15 14  1  0  0  0  0
 17 14  1  0  0  0  0
 18 19  1  0  0  0  0
 18 21  1  0  0  0  0
 20 18  1  0  0  0  0
 22 27  1  0  0  0  0
 23 26  1  0  0  0  0
 23 22  1  0  0  0  0
 24 23  1  0  0  0  0
 25 23  1  0  0  0  0
 27 30  1  0  0  0  0
 27 28  1  0  0  0  0
 29 27  1  0  0  0  0
 31 22  1  0  0  0  0
 31 32  1  0  0  0  0
 33 31  1  0  0  0  0
 34 31  1  0  0  0  0
 35  4  1  0  0  0  0
 36 35  1  0  0  0  0
 37 39  1  0  0  0  0
 37  5  1  0  0  0  0
 38 37  1  0  0  0  0
 40 37  1  0  0  0  0
 41 42  1  0  0  0  0
 41  5  1  0  0  0  0
 43 41  1  0  0  0  0
 44 41  1  0  0  0  0
 45 48  1  0  0  0  0
 45 46  1  0  0  0  0
 47 45  1  0  0  0  0
 49 50  1  0  0  0  0
 49 51  1  0  0  0  0
 49 52  1  0  0  0  0
 53 56  1  0  0  0  0
 53 55  1  0  0  0  0
 54 53  1  0  0  0  0
 57 60  1  0  0  0  0
 57  4  1  0  0  0  0
 58 57  1  0  0  0  0
 59 57  1  0  0  0  0
 61 63  1  0  0  0  0
 61 62  1  0  0  0  0
 64 61  1  0  0  0  0
 64 67  1  0  0  0  0
 65 64  1  0  0  0  0
 66 64  1  0  0  0  0
 67 69  1  0  0  0  0
 67 68  1  0  0  0  0
 70 71  1  0  0  0  0
 70 67  1  0  0  0  0
 72 70  1  0  0  0  0
 73 70  1  0  0  0  0
M  END
