1
q = 0.0, confidence = 0.996

 58 65  0  0  1  0  0  0  0  0999 V2000
   -0.9626    0.0635    0.2878 P   0  0  1  0  0  0  0  0  0  0  0  0
    0.3056    1.3576   -0.0235 C   0  0  2  0  0  3  0  0  0  0  0  0
    1.5309    0.7340   -0.0803 C   0  0  0  0  0  0  0  0  0  0  0  0
    1.5095   -0.7596    0.1613 C   0  0  0  0  0  0  0  0  0  0  0  0
    0.2634   -1.2995    0.3981 C   0  0  2  0  0  3  0  0  0  0  0  0
   -1.5461    0.4343    1.9885 C   0  0  0  0  0  0  0  0  0  0  0  0
   -0.6196    0.4874    3.0502 C   0  0  0  0  0  0  0  0  0  0  0  0
    0.4455    0.2827    2.8586 H   0  0  0  0  0  0  0  0  0  0  0  0
   -1.0619    0.7955    4.3427 C   0  0  0  0  0  0  0  0  0  0  0  0
   -0.3403    0.8338    5.1727 H   0  0  0  0  0  0  0  0  0  0  0  0
   -2.4237    1.0554    4.5794 C   0  0  0  0  0  0  0  0  0  0  0  0
   -2.7674    1.2969    5.5967 H   0  0  0  0  0  0  0  0  0  0  0  0
   -3.3441    1.0065    3.5218 C   0  0  0  0  0  0  0  0  0  0  0  0
   -4.4098    1.2102    3.7048 H   0  0  0  0  0  0  0  0  0  0  0  0
   -2.9090    0.6950    2.2237 C   0  0  0  0  0  0  0  0  0  0  0  0
   -3.6218    0.6494    1.3849 H   0  0  0  0  0  0  0  0  0  0  0  0
    2.9265    1.1305   -0.3417 C   0  0  0  0  0  0  0  0  0  0  0  0
    3.6615    2.2808   -0.6767 C   0  0  0  0  0  0  0  0  0  0  0  0
    3.1578    3.2482   -0.8144 H   0  0  0  0  0  0  0  0  0  0  0  0
    5.0858    2.2261   -0.8539 C   0  0  0  0  0  0  0  0  0  0  0  0
    5.6096    3.1577   -1.1188 H   0  0  0  0  0  0  0  0  0  0  0  0
    5.7901    1.0282   -0.6878 C   0  0  0  0  0  0  0  0  0  0  0  0
    7.2448    0.5887   -0.7700 C   0  0  0  0  0  0  0  0  0  0  0  0
    7.8799    1.1515   -0.0539 H   0  0  0  0  0  0  0  0  0  0  0  0
    7.6711    0.7863   -1.7760 H   0  0  0  0  0  0  0  0  0  0  0  0
    7.2357   -0.9569   -0.4418 C   0  0  0  0  0  0  0  0  0  0  0  0
    7.6602   -1.5512   -1.2781 H   0  0  0  0  0  0  0  0  0  0  0  0
    7.8634   -1.1869    0.4448 H   0  0  0  0  0  0  0  0  0  0  0  0
    5.7760   -1.3096   -0.1956 C   0  0  0  0  0  0  0  0  0  0  0  0
    5.0384   -0.1191   -0.3596 C   0  0  0  0  0  0  0  0  0  0  0  0
    3.6606   -0.0790   -0.2071 C   0  0  0  0  0  0  0  0  0  0  0  0
    2.9027   -1.2430    0.0983 C   0  0  0  0  0  0  0  0  0  0  0  0
    3.6283   -2.4342    0.2772 C   0  0  0  0  0  0  0  0  0  0  0  0
    3.1157   -3.3713    0.5363 H   0  0  0  0  0  0  0  0  0  0  0  0
    5.0571   -2.4640    0.1345 C   0  0  0  0  0  0  0  0  0  0  0  0
    5.5710   -3.4258    0.2866 H   0  0  0  0  0  0  0  0  0  0  0  0
   -0.0396    2.7797   -0.0559 C   0  0  0  0  0  0  0  0  0  0  0  0
    0.8108    3.7406    0.5457 C   0  0  0  0  0  0  0  0  0  0  0  0
    1.7301    3.4034    1.0458 H   0  0  0  0  0  0  0  0  0  0  0  0
    0.4698    5.0981    0.5469 C   0  0  0  0  0  0  0  0  0  0  0  0
    1.1402    5.8275    1.0267 H   0  0  0  0  0  0  0  0  0  0  0  0
   -0.7302    5.5277   -0.0453 C   0  0  0  0  0  0  0  0  0  0  0  0
   -0.9966    6.5954   -0.0441 H   0  0  0  0  0  0  0  0  0  0  0  0
   -1.5919    4.5848   -0.6282 C   0  0  0  0  0  0  0  0  0  0  0  0
   -2.5365    4.9095   -1.0900 H   0  0  0  0  0  0  0  0  0  0  0  0
   -1.2555    3.2255   -0.6307 C   0  0  0  0  0  0  0  0  0  0  0  0
   -1.9312    2.4924   -1.0999 H   0  0  0  0  0  0  0  0  0  0  0  0
   -0.1551   -2.6943    0.5626 C   0  0  0  0  0  0  0  0  0  0  0  0
   -1.2734   -3.0225    1.3685 C   0  0  0  0  0  0  0  0  0  0  0  0
   -1.8152   -2.2240    1.8968 H   0  0  0  0  0  0  0  0  0  0  0  0
   -1.6876   -4.3521    1.5116 C   0  0  0  0  0  0  0  0  0  0  0  0
   -2.5557   -4.5849    2.1465 H   0  0  0  0  0  0  0  0  0  0  0  0
   -1.0052   -5.3828    0.8454 C   0  0  0  0  0  0  0  0  0  0  0  0
   -1.3357   -6.4267    0.9546 H   0  0  0  0  0  0  0  0  0  0  0  0
    0.0892   -5.0700    0.0221 C   0  0  0  0  0  0  0  0  0  0  0  0
    0.6108   -5.8675   -0.5287 H   0  0  0  0  0  0  0  0  0  0  0  0
    0.5083   -3.7419   -0.1212 C   0  0  0  0  0  0  0  0  0  0  0  0
    1.3317   -3.4973   -0.8066 H   0  0  0  0  0  0  0  0  0  0  0  0
  1  5  1  0  0  0  0
  1  6  1  1  0  0  0
  2 37  1  1  0  0  0
  2  1  1  0  0  0  0
  3  2  1  0  0  0  0
  3  4  2  0  0  0  0
  4  5  1  0  0  0  0
  5 48  1  6  0  0  0
  6 15  2  0  0  0  0
  6  7  1  0  0  0  0
  7  9  2  0  0  0  0
  8  7  1  0  0  0  0
  9 11  1  0  0  0  0
  9 10  1  0  0  0  0
 11 12  1  0  0  0  0
 13 14  1  0  0  0  0
 13 11  2  0  0  0  0
 15 13  1  0  0  0  0
 16 15  1  0  0  0  0
 17 31  1  0  0  0  0
 17  3  1  0  0  0  0
 18 17  2  0  0  0  0
 19 18  1  0  0  0  0
 20 22  2  0  0  0  0
 20 18  1  0  0  0  0
 21 20  1  0  0  0  0
 22 30  1  0  0  0  0
 23 22  1  0  0  0  0
 23 26  1  0  0  0  0
 23 24  1  0  0  0  0
 25 23  1  0  0  0  0
 26 29  1  0  0  0  0
 26 28  1  0  0  0  0
 27 26  1  0  0  0  0
 29 35  1  0  0  0  0
 30 31  1  0  0  0  0
 30 29  2  0  0  0  0
 31 32  2  0  0  0  0
 32  4  1  0  0  0  0
 32 33  1  0  0  0  0
 33 34  1  0  0  0  0
 35 33  2  0  0  0  0
 35 36  1  0  0  0  0
 37 38  1  0  0  0  0
 38 40  2  0  0  0  0
 38 39  1  0  0  0  0
 40 41  1  0  0  0  0
 42 43  1  0  0  0  0
 42 40  1  0  0  0  0
 44 42  2  0  0  0  0
 45 44  1  0  0  0  0
 46 44  1  0  0  0  0
 46 37  2  0  0  0  0
 47 46  1  0  0  0  0
 48 49  1  0  0  0  0
 49 51  2  0  0  0  0
 49 50  1  0  0  0  0
 51 52  1  0  0  0  0
 53 54  1  0  0  0  0
 53 51  1  0  0  0  0
 55 53  2  0  0  0  0
 56 55  1  0  0  0  0
 57 55  1  0  0  0  0
 57 48  2  0  0  0  0
 58 57  1  0  0  0  0
M  END
