1
q = -1.0

 23 22  0  0  0  0  0  0  0  0999 V2000
    2.7531    0.9528   -0.7779 P   0  0  0  0  0  2  0  0  0  0  0  0
    3.2121    2.6194    0.6182 Cl  0  0  0  0  0  0  0  0  0  0  0  0
    3.6242   -0.3790   -0.1547 N   0  0  0  0  0  0  0  0  0  0  0  0
    3.3322   -1.0894    1.1060 C   0  0  0  0  0  0  0  0  0  0  0  0
    2.2794   -0.8323    1.3315 H   0  0  0  0  0  0  0  0  0  0  0  0
    4.1946   -0.5970    2.2755 C   0  0  0  0  0  0  0  0  0  0  0  0
    4.0973    0.5001    2.3855 H   0  0  0  0  0  0  0  0  0  0  0  0
    5.2665   -0.8427    2.1230 H   0  0  0  0  0  0  0  0  0  0  0  0
    3.8738   -1.0773    3.2224 H   0  0  0  0  0  0  0  0  0  0  0  0
    3.3805   -2.6139    0.9349 C   0  0  0  0  0  0  0  0  0  0  0  0
    2.7397   -2.9398    0.0925 H   0  0  0  0  0  0  0  0  0  0  0  0
    3.0202   -3.1070    1.8609 H   0  0  0  0  0  0  0  0  0  0  0  0
    4.4094   -2.9862    0.7503 H   0  0  0  0  0  0  0  0  0  0  0  0
    4.9643   -0.6106   -0.7666 C   0  0  0  0  0  0  0  0  0  0  0  0
    5.4179   -1.4326   -0.1745 H   0  0  0  0  0  0  0  0  0  0  0  0
    4.8201   -1.1040   -2.2113 C   0  0  0  0  0  0  0  0  0  0  0  0
    4.1642   -1.9952   -2.2592 H   0  0  0  0  0  0  0  0  0  0  0  0
    5.8082   -1.3650   -2.6423 H   0  0  0  0  0  0  0  0  0  0  0  0
    4.3668   -0.3132   -2.8440 H   0  0  0  0  0  0  0  0  0  0  0  0
    5.8979    0.6025   -0.6574 C   0  0  0  0  0  0  0  0  0  0  0  0
    5.9969    0.9413    0.3914 H   0  0  0  0  0  0  0  0  0  0  0  0
    5.5077    1.4583   -1.2454 H   0  0  0  0  0  0  0  0  0  0  0  0
    6.9055    0.3496   -1.0463 H   0  0  0  0  0  0  0  0  0  0  0  0
  1  3  1  0  0  0  0
  1  2  1  0  0  0  0
  3  4  1  0  0  0  0
  4  5  1  0  0  0  0
  4  6  1  0  0  0  0
  6  7  1  0  0  0  0
  6  9  1  0  0  0  0
  8  6  1  0  0  0  0
 10  4  1  0  0  0  0
 10 12  1  0  0  0  0
 11 10  1  0  0  0  0
 13 10  1  0  0  0  0
 14 20  1  0  0  0  0
 14 15  1  0  0  0  0
 14  3  1  0  0  0  0
 16 14  1  0  0  0  0
 17 16  1  0  0  0  0
 18 16  1  0  0  0  0
 19 16  1  0  0  0  0
 20 21  1  0  0  0  0
 22 20  1  0  0  0  0
 23 20  1  0  0  0  0
M  END
