1
q = 0.0, confidence = 0.998

 30 29  0  0  0  0  0  0  0  0999 V2000
    2.0593    1.0835   -0.1056 P   0  0  0  0  0  0  0  0  0  0  0  0
    3.4474    0.0965    0.1639 N   0  0  0  0  0  0  0  0  0  0  0  0
    4.3873    0.5527    0.4225 H   0  0  0  0  0  0  0  0  0  0  0  0
    5.9498    0.3896    0.5616 O   0  0  0  0  0  0  0  0  0  0  0  0
    7.4765   -1.4402    0.4160 C   0  0  0  0  0  0  0  0  0  0  0  0
    8.1758   -0.8107   -0.1694 H   0  0  0  0  0  0  0  0  0  0  0  0
    7.5254   -2.4858    0.0593 H   0  0  0  0  0  0  0  0  0  0  0  0
    7.8249   -1.4051    1.4694 H   0  0  0  0  0  0  0  0  0  0  0  0
    6.0840   -0.8472    0.3374 C   0  0  0  0  0  0  0  0  0  0  0  0
    4.9735   -1.7062    0.0172 C   0  0  0  0  0  0  0  0  0  0  0  0
    5.1530   -2.7733   -0.1668 H   0  0  0  0  0  0  0  0  0  0  0  0
    3.6677   -1.2235   -0.0966 C   0  0  0  0  0  0  0  0  0  0  0  0
    2.5323   -2.1170   -0.4932 C   0  0  0  0  0  0  0  0  0  0  0  0
    1.7404   -2.1035    0.2872 H   0  0  0  0  0  0  0  0  0  0  0  0
    2.8823   -3.1548   -0.6383 H   0  0  0  0  0  0  0  0  0  0  0  0
    2.0465   -1.7590   -1.4256 H   0  0  0  0  0  0  0  0  0  0  0  0
    2.3153    2.3649    1.1931 C   0  0  0  0  0  0  0  0  0  0  0  0
    2.2064    1.8190    2.1518 H   0  0  0  0  0  0  0  0  0  0  0  0
    3.3619    2.7275    1.1150 H   0  0  0  0  0  0  0  0  0  0  0  0
    1.3007    3.5039    1.1009 C   0  0  0  0  0  0  0  0  0  0  0  0
    1.3718    4.0573    0.1424 H   0  0  0  0  0  0  0  0  0  0  0  0
    1.4640    4.2328    1.9193 H   0  0  0  0  0  0  0  0  0  0  0  0
    0.2690    3.1124    1.2011 H   0  0  0  0  0  0  0  0  0  0  0  0
    2.4357    1.9298   -1.7065 C   0  0  0  0  0  0  0  0  0  0  0  0
    2.3361    1.1341   -2.4726 H   0  0  0  0  0  0  0  0  0  0  0  0
    1.5831    2.6167   -1.8940 H   0  0  0  0  0  0  0  0  0  0  0  0
    3.7868    2.6409   -1.7629 C   0  0  0  0  0  0  0  0  0  0  0  0
    3.8203    3.5252   -1.0950 H   0  0  0  0  0  0  0  0  0  0  0  0
    3.9910    2.9980   -2.7923 H   0  0  0  0  0  0  0  0  0  0  0  0
    4.6181    1.9678   -1.4696 H   0  0  0  0  0  0  0  0  0  0  0  0
  1  2  1  0  0  0  0
  1 17  1  0  0  0  0
  2  3  1  0  0  0  0
  5  8  1  0  0  0  0
  6  5  1  0  0  0  0
  7  5  1  0  0  0  0
  9  5  1  0  0  0  0
  9  4  2  0  0  0  0
 10  9  1  0  0  0  0
 11 10  1  0  0  0  0
 12 10  2  0  0  0  0
 12  2  1  0  0  0  0
 13 12  1  0  0  0  0
 13 14  1  0  0  0  0
 15 13  1  0  0  0  0
 16 13  1  0  0  0  0
 17 18  1  0  0  0  0
 19 17  1  0  0  0  0
 20 17  1  0  0  0  0
 20 23  1  0  0  0  0
 20 22  1  0  0  0  0
 21 20  1  0  0  0  0
 24  1  1  0  0  0  0
 25 24  1  0  0  0  0
 26 24  1  0  0  0  0
 27 24  1  0  0  0  0
 27 30  1  0  0  0  0
 27 28  1  0  0  0  0
 29 27  1  0  0  0  0
M  END
