1
q = 0.0, confidence = 1.0

 38 39  0  0  0  0  0  0  0  0999 V2000
    1.8012    1.4680   -0.0578 P   0  0  0  0  0  0  0  0  0  0  0  0
    7.7119   -1.7151   -0.4283 F   0  0  0  0  0  0  0  0  0  0  0  0
    6.7802   -2.6395    1.3186 F   0  0  0  0  0  0  0  0  0  0  0  0
    6.3554   -3.4082   -0.6798 F   0  0  0  0  0  0  0  0  0  0  0  0
    4.2382   -1.8426    0.2103 O   0  0  0  0  0  0  0  0  0  0  0  0
    3.2760    0.5792   -0.2060 N   0  0  0  0  0  0  0  0  0  0  0  0
    3.2005   -0.4632   -0.0726 H   0  0  0  0  0  0  0  0  0  0  0  0
    6.5698   -2.2860    0.0313 C   0  0  0  0  0  0  0  0  0  0  0  0
    5.3442   -1.3393   -0.0630 C   0  0  0  0  0  0  0  0  0  0  0  0
    5.5842    0.0299   -0.4172 C   0  0  0  0  0  0  0  0  0  0  0  0
    6.6065    0.3549   -0.6422 H   0  0  0  0  0  0  0  0  0  0  0  0
    4.5583    0.9739   -0.4621 C   0  0  0  0  0  0  0  0  0  0  0  0
    4.8516    2.4062   -0.7945 C   0  0  0  0  0  0  0  0  0  0  0  0
    4.3909    2.6830   -1.7645 H   0  0  0  0  0  0  0  0  0  0  0  0
    5.9415    2.5724   -0.8575 H   0  0  0  0  0  0  0  0  0  0  0  0
    4.4282    3.0903   -0.0320 H   0  0  0  0  0  0  0  0  0  0  0  0
    1.6782    2.5560   -1.5331 C   0  0  0  0  0  0  0  0  0  0  0  0
    1.3444    1.9292   -2.7539 C   0  0  0  0  0  0  0  0  0  0  0  0
    1.1652    0.8413   -2.7742 H   0  0  0  0  0  0  0  0  0  0  0  0
    1.2488    2.6932   -3.9252 C   0  0  0  0  0  0  0  0  0  0  0  0
    0.9917    2.1994   -4.8744 H   0  0  0  0  0  0  0  0  0  0  0  0
    1.4666    4.0801   -3.8866 C   0  0  0  0  0  0  0  0  0  0  0  0
    1.3802    4.6781   -4.8066 H   0  0  0  0  0  0  0  0  0  0  0  0
    1.7906    4.7046   -2.6717 C   0  0  0  0  0  0  0  0  0  0  0  0
    1.9623    5.7910   -2.6364 H   0  0  0  0  0  0  0  0  0  0  0  0
    1.9011    3.9474   -1.4963 C   0  0  0  0  0  0  0  0  0  0  0  0
    2.1715    4.4419   -0.5522 H   0  0  0  0  0  0  0  0  0  0  0  0
    2.0590    2.5453    1.3955 C   0  0  0  0  0  0  0  0  0  0  0  0
    1.1601    3.6029    1.6601 C   0  0  0  0  0  0  0  0  0  0  0  0
    0.3270    3.8068    0.9737 H   0  0  0  0  0  0  0  0  0  0  0  0
    1.3197    4.3811    2.8152 C   0  0  0  0  0  0  0  0  0  0  0  0
    0.6186    5.2057    3.0128 H   0  0  0  0  0  0  0  0  0  0  0  0
    2.3541    4.1009    3.7221 C   0  0  0  0  0  0  0  0  0  0  0  0
    2.4719    4.7125    4.6294 H   0  0  0  0  0  0  0  0  0  0  0  0
    3.2298    3.0319    3.4763 C   0  0  0  0  0  0  0  0  0  0  0  0
    4.0339    2.7981    4.1902 H   0  0  0  0  0  0  0  0  0  0  0  0
    3.0822    2.2515    2.3203 C   0  0  0  0  0  0  0  0  0  0  0  0
    3.7611    1.4052    2.1394 H   0  0  0  0  0  0  0  0  0  0  0  0
  1 28  1  0  0  0  0
  2  8  1  0  0  0  0
  4  8  1  0  0  0  0
  6  7  1  0  0  0  0
  6  1  1  0  0  0  0
  8  3  1  0  0  0  0
  9  8  1  0  0  0  0
  9  5  2  0  0  0  0
 10  9  1  0  0  0  0
 11 10  1  0  0  0  0
 12 10  2  0  0  0  0
 12  6  1  0  0  0  0
 13 12  1  0  0  0  0
 13 16  1  0  0  0  0
 14 13  1  0  0  0  0
 15 13  1  0  0  0  0
 17 26  1  0  0  0  0
 17  1  1  0  0  0  0
 18 17  2  0  0  0  0
 19 18  1  0  0  0  0
 20 22  2  0  0  0  0
 20 18  1  0  0  0  0
 21 20  1  0  0  0  0
 22 24  1  0  0  0  0
 23 22  1  0  0  0  0
 24 25  1  0  0  0  0
 24 26  2  0  0  0  0
 26 27  1  0  0  0  0
 28 29  2  0  0  0  0
 28 37  1  0  0  0  0
 29 31  1  0  0  0  0
 30 29  1  0  0  0  0
 31 32  1  0  0  0  0
 31 33  2  0  0  0  0
 33 34  1  0  0  0  0
 35 33  1  0  0  0  0
 35 36  1  0  0  0  0
 37 35  2  0  0  0  0
 38 37  1  0  0  0  0
M  END
