1
q = -1.0

 26 26  0  0  0  0  0  0  0  0999 V2000
   -1.8105   -1.1607   -0.8955 P   0  0  2  0  0  4  0  0  0  0  0  0
   -2.0326   -0.9890   -2.4191 O   0  0  0  0  0  0  0  0  0  0  0  0
   -2.0723   -2.9247   -0.4206 C   0  0  0  0  0  0  0  0  0  0  0  0
   -2.4047   -3.8425   -1.4321 C   0  0  0  0  0  0  0  0  0  0  0  0
   -2.4906   -3.4664   -2.4641 H   0  0  0  0  0  0  0  0  0  0  0  0
   -2.6157   -5.1941   -1.1135 C   0  0  0  0  0  0  0  0  0  0  0  0
   -2.8748   -5.9119   -1.9076 H   0  0  0  0  0  0  0  0  0  0  0  0
   -2.4954   -5.6317    0.2150 C   0  0  0  0  0  0  0  0  0  0  0  0
   -2.6606   -6.6913    0.4644 H   0  0  0  0  0  0  0  0  0  0  0  0
   -2.1586   -4.7160    1.2280 C   0  0  0  0  0  0  0  0  0  0  0  0
   -2.0599   -5.0594    2.2697 H   0  0  0  0  0  0  0  0  0  0  0  0
   -1.9432   -3.3673    0.9102 C   0  0  0  0  0  0  0  0  0  0  0  0
   -1.6590   -2.6509    1.6992 H   0  0  0  0  0  0  0  0  0  0  0  0
   -3.1499   -0.3377    0.1002 C   0  0  0  0  0  0  0  0  0  0  0  0
   -2.8857   -0.4866    1.1694 H   0  0  0  0  0  0  0  0  0  0  0  0
   -3.0588    0.7526   -0.0902 H   0  0  0  0  0  0  0  0  0  0  0  0
   -4.5910   -0.7933   -0.1875 C   0  0  0  0  0  0  0  0  0  0  0  0
   -4.6086   -1.9064   -0.1547 H   0  0  0  0  0  0  0  0  0  0  0  0
   -5.0503   -0.3478   -1.5823 C   0  0  0  0  0  0  0  0  0  0  0  0
   -6.0642   -0.7351   -1.8130 H   0  0  0  0  0  0  0  0  0  0  0  0
   -4.3363   -0.6919   -2.3561 H   0  0  0  0  0  0  0  0  0  0  0  0
   -5.0923    0.7621   -1.6380 H   0  0  0  0  0  0  0  0  0  0  0  0
   -5.5337   -0.2762    0.9082 C   0  0  0  0  0  0  0  0  0  0  0  0
   -5.2355   -0.6437    1.9119 H   0  0  0  0  0  0  0  0  0  0  0  0
   -6.5803   -0.5962    0.7227 H   0  0  0  0  0  0  0  0  0  0  0  0
   -5.5229    0.8346    0.9448 H   0  0  0  0  0  0  0  0  0  0  0  0
  1  2  2  6  0  0  0
  1  3  1  0  0  0  0
  1 14  1  0  0  0  0
  3 12  1  0  0  0  0
  4  6  1  0  0  0  0
  4  3  2  0  0  0  0
  5  4  1  0  0  0  0
  6  8  2  0  0  0  0
  7  6  1  0  0  0  0
  8  9  1  0  0  0  0
  8 10  1  0  0  0  0
 10 11  1  0  0  0  0
 12 10  2  0  0  0  0
 12 13  1  0  0  0  0
 14 15  1  0  0  0  0
 16 14  1  0  0  0  0
 17 18  1  0  0  0  0
 17 14  1  0  0  0  0
 17 23  1  0  0  0  0
 19 17  1  0  0  0  0
 20 19  1  0  0  0  0
 21 19  1  0  0  0  0
 22 19  1  0  0  0  0
 23 26  1  0  0  0  0
 23 24  1  0  0  0  0
 25 23  1  0  0  0  0
M  END
