1
q = 0.0, confidence = 0.996

 42 42  0  0  0  0  0  0  0  0999 V2000
   -1.6652   -2.4778    0.0209 P   0  0  0  0  0  0  0  0  0  0  0  0
    4.3569   -2.5788   -0.3492 O   0  0  0  0  0  0  0  0  0  0  0  0
    0.1585   -2.7620   -0.0859 C   0  0  0  0  0  0  0  0  0  0  0  0
    0.7973   -2.7864   -1.3458 C   0  0  0  0  0  0  0  0  0  0  0  0
    0.2097   -2.7797   -2.2698 H   0  0  0  0  0  0  0  0  0  0  0  0
    2.1915   -2.7632   -1.4816 C   0  0  0  0  0  0  0  0  0  0  0  0
    2.6240   -2.7512   -2.4899 H   0  0  0  0  0  0  0  0  0  0  0  0
    3.0075   -2.6940   -0.3350 C   0  0  0  0  0  0  0  0  0  0  0  0
    2.3946   -2.7268    0.9350 C   0  0  0  0  0  0  0  0  0  0  0  0
    3.0342   -2.6881    1.8263 H   0  0  0  0  0  0  0  0  0  0  0  0
    1.0059   -2.7485    1.0508 C   0  0  0  0  0  0  0  0  0  0  0  0
    0.5903   -2.7364    2.0635 H   0  0  0  0  0  0  0  0  0  0  0  0
    5.0097   -2.4077   -1.6000 C   0  0  0  0  0  0  0  0  0  0  0  0
    4.9004   -3.3057   -2.2471 H   0  0  0  0  0  0  0  0  0  0  0  0
    6.0804   -2.2571   -1.3706 H   0  0  0  0  0  0  0  0  0  0  0  0
    4.6196   -1.5172   -2.1374 H   0  0  0  0  0  0  0  0  0  0  0  0
   -2.2452   -3.0028    1.7734 C   0  0  0  0  0  0  0  0  0  0  0  0
   -1.7759   -1.8910    2.7437 C   0  0  0  0  0  0  0  0  0  0  0  0
   -2.3569   -0.9615    2.5815 H   0  0  0  0  0  0  0  0  0  0  0  0
   -0.7101   -1.6162    2.6738 H   0  0  0  0  0  0  0  0  0  0  0  0
   -1.9714   -2.2300    3.7823 H   0  0  0  0  0  0  0  0  0  0  0  0
   -1.6936   -4.3909    2.1434 C   0  0  0  0  0  0  0  0  0  0  0  0
   -0.5913   -4.4597    2.1065 H   0  0  0  0  0  0  0  0  0  0  0  0
   -2.1045   -5.1739    1.4757 H   0  0  0  0  0  0  0  0  0  0  0  0
   -2.0159   -4.6385    3.1768 H   0  0  0  0  0  0  0  0  0  0  0  0
   -3.7837   -3.0274    1.8865 C   0  0  0  0  0  0  0  0  0  0  0  0
   -4.0358   -3.0317    2.9674 H   0  0  0  0  0  0  0  0  0  0  0  0
   -4.2305   -3.9333    1.4441 H   0  0  0  0  0  0  0  0  0  0  0  0
   -4.2545   -2.1349    1.4300 H   0  0  0  0  0  0  0  0  0  0  0  0
   -2.4498   -3.4866   -1.4174 C   0  0  0  0  0  0  0  0  0  0  0  0
   -1.6978   -4.8127   -1.6373 C   0  0  0  0  0  0  0  0  0  0  0  0
   -1.7099   -5.4438   -0.7269 H   0  0  0  0  0  0  0  0  0  0  0  0
   -0.6449   -4.6855   -1.9429 H   0  0  0  0  0  0  0  0  0  0  0  0
   -2.2180   -5.3765   -2.4399 H   0  0  0  0  0  0  0  0  0  0  0  0
   -3.9302   -3.8153   -1.1495 C   0  0  0  0  0  0  0  0  0  0  0  0
   -4.5096   -2.9193   -0.8612 H   0  0  0  0  0  0  0  0  0  0  0  0
   -4.0519   -4.6057   -0.3865 H   0  0  0  0  0  0  0  0  0  0  0  0
   -4.3575   -4.2073   -2.0964 H   0  0  0  0  0  0  0  0  0  0  0  0
   -2.4084   -2.5734   -2.6648 C   0  0  0  0  0  0  0  0  0  0  0  0
   -2.7274   -3.1655   -3.5479 H   0  0  0  0  0  0  0  0  0  0  0  0
   -1.4147   -2.1422   -2.8849 H   0  0  0  0  0  0  0  0  0  0  0  0
   -3.1145   -1.7288   -2.5418 H   0  0  0  0  0  0  0  0  0  0  0  0
  1 17  1  0  0  0  0
  2  8  1  0  0  0  0
  3  1  1  0  0  0  0
  3 11  1  0  0  0  0
  4  3  2  0  0  0  0
  5  4  1  0  0  0  0
  6  4  1  0  0  0  0
  6  8  2  0  0  0  0
  7  6  1  0  0  0  0
  8  9  1  0  0  0  0
  9 11  2  0  0  0  0
  9 10  1  0  0  0  0
 11 12  1  0  0  0  0
 13 15  1  0  0  0  0
 13  2  1  0  0  0  0
 14 13  1  0  0  0  0
 16 13  1  0  0  0  0
 17 26  1  0  0  0  0
 17 22  1  0  0  0  0
 17 18  1  0  0  0  0
 18 21  1  0  0  0  0
 19 18  1  0  0  0  0
 20 18  1  0  0  0  0
 22 25  1  0  0  0  0
 23 22  1  0  0  0  0
 24 22  1  0  0  0  0
 26 27  1  0  0  0  0
 28 26  1  0  0  0  0
 29 26  1  0  0  0  0
 30 35  1  0  0  0  0
 30  1  1  0  0  0  0
 31 30  1  0  0  0  0
 31 32  1  0  0  0  0
 33 31  1  0  0  0  0
 34 31  1  0  0  0  0
 35 36  1  0  0  0  0
 35 37  1  0  0  0  0
 38 35  1  0  0  0  0
 39 42  1  0  0  0  0
 39 30  1  0  0  0  0
 40 39  1  0  0  0  0
 41 39  1  0  0  0  0
M  END
