1
q = 0.0, confidence = 0.97

 21 22  0  0  1  0  0  0  0  0999 V2000
   -1.0096    0.0003    0.1915 P   0  0  1  0  0  0  0  0  0  0  0  0
   -2.2535   -0.7535   -1.0323 C   0  0  1  0  0  0  0  0  0  0  0  0
   -1.6528   -1.1410   -1.8762 H   0  0  0  0  0  0  0  0  0  0  0  0
   -3.1873   -1.7621   -0.5354 C   0  0  0  0  0  0  0  0  0  0  0  0
   -2.7510   -2.7731   -0.6113 H   0  0  0  0  0  0  0  0  0  0  0  0
   -4.4500   -1.7234   -0.0022 C   0  0  0  0  0  0  0  0  0  0  0  0
   -4.8347   -2.7261    0.2512 H   0  0  0  0  0  0  0  0  0  0  0  0
   -5.4084   -0.6898    0.2916 C   0  0  0  0  0  0  0  0  0  0  0  0
   -6.3694   -1.1144    0.6287 H   0  0  0  0  0  0  0  0  0  0  0  0
   -5.4085    0.6898    0.2913 C   0  0  0  0  0  0  0  0  0  0  0  0
   -6.3695    1.1144    0.6282 H   0  0  0  0  0  0  0  0  0  0  0  0
   -4.4502    1.7234   -0.0029 C   0  0  0  0  0  0  0  0  0  0  0  0
   -4.8351    2.7261    0.2501 H   0  0  0  0  0  0  0  0  0  0  0  0
   -3.1875    1.7621   -0.5361 C   0  0  0  0  0  0  0  0  0  0  0  0
   -2.7514    2.7731   -0.6124 H   0  0  0  0  0  0  0  0  0  0  0  0
   -2.2536    0.7534   -1.0326 C   0  0  1  0  0  0  0  0  0  0  0  0
   -1.6530    1.1406   -1.8767 H   0  0  0  0  0  0  0  0  0  0  0  0
   -1.8658    0.0007    1.8145 C   0  0  0  0  0  0  0  0  0  0  0  0
   -2.9663   -0.0001    1.7094 H   0  0  0  0  0  0  0  0  0  0  0  0
   -1.5423    0.9005    2.3739 H   0  0  0  0  0  0  0  0  0  0  0  0
   -1.5411   -0.8981    2.3749 H   0  0  0  0  0  0  0  0  0  0  0  0
  1 18  1  1  0  0  0
  2  3  1  6  0  0  0
  2  4  1  0  0  0  0
  2  1  1  0  0  0  0
  4  6  2  0  0  0  0
  5  4  1  0  0  0  0
  6  7  1  0  0  0  0
  6  8  1  0  0  0  0
  8  9  1  0  0  0  0
 10  8  2  0  0  0  0
 10 11  1  0  0  0  0
 12 13  1  0  0  0  0
 12 10  1  0  0  0  0
 14 12  2  0  0  0  0
 15 14  1  0  0  0  0
 16 17  1  6  0  0  0
 16  2  1  0  0  0  0
 16 14  1  0  0  0  0
 16  1  1  0  0  0  0
 18 20  1  0  0  0  0
 18 21  1  0  0  0  0
 19 18  1  0  0  0  0
M  END
