1
q = -1.0

 33 35  0  0  1  0  0  0  0  0999 V2000
   -0.6380   -0.5555    0.2126 P   0  0  0  0  0  0  0  0  0  0  0  0
   -1.7908    0.9921   -2.2075 S   0  0  0  0  0  0  0  0  0  0  0  0
   -2.0404    2.2759    0.3548 S   0  0  0  0  0  0  0  0  0  0  0  0
   -1.5585    0.8882   -0.5149 C   0  0  2  0  0  3  0  0  0  0  0  0
   -2.3747    2.6220   -2.2276 C   0  0  0  0  0  0  0  0  0  0  0  0
   -2.5048    3.2625   -1.0234 C   0  0  0  0  0  0  0  0  0  0  0  0
   -2.9750    4.6619   -0.7834 C   0  0  0  0  0  0  0  0  0  0  0  0
   -1.3952   -1.8899   -0.7922 C   0  0  0  0  0  0  0  0  0  0  0  0
   -0.5767   -2.7745   -1.5206 C   0  0  0  0  0  0  0  0  0  0  0  0
   -1.1589   -3.7841   -2.3028 C   0  0  0  0  0  0  0  0  0  0  0  0
   -2.5544   -3.9090   -2.3651 C   0  0  0  0  0  0  0  0  0  0  0  0
   -3.3762   -3.0231   -1.6452 C   0  0  0  0  0  0  0  0  0  0  0  0
   -2.8035   -2.0152   -0.8608 C   0  0  0  0  0  0  0  0  0  0  0  0
   -1.3535   -0.6744    1.8994 C   0  0  0  0  0  0  0  0  0  0  0  0
   -1.0921    0.3722    2.8117 C   0  0  0  0  0  0  0  0  0  0  0  0
   -1.5850    0.2993    4.1212 C   0  0  0  0  0  0  0  0  0  0  0  0
   -2.3111   -0.8288    4.5372 C   0  0  0  0  0  0  0  0  0  0  0  0
   -2.5431   -1.8835    3.6415 C   0  0  0  0  0  0  0  0  0  0  0  0
   -2.0713   -1.8112    2.3214 C   0  0  0  0  0  0  0  0  0  0  0  0
   -2.6261    3.0659   -3.2023 H   0  0  0  0  0  0  0  0  0  0  0  0
   -3.8318    4.6891   -0.0802 H   0  0  0  0  0  0  0  0  0  0  0  0
   -2.1619    5.2811   -0.3517 H   0  0  0  0  0  0  0  0  0  0  0  0
   -3.2935    5.1235   -1.7362 H   0  0  0  0  0  0  0  0  0  0  0  0
    0.5160   -2.6723   -1.4853 H   0  0  0  0  0  0  0  0  0  0  0  0
   -0.5146   -4.4727   -2.8686 H   0  0  0  0  0  0  0  0  0  0  0  0
   -3.0083   -4.6999   -2.9807 H   0  0  0  0  0  0  0  0  0  0  0  0
   -4.4708   -3.1206   -1.6954 H   0  0  0  0  0  0  0  0  0  0  0  0
   -3.4517   -1.3256   -0.2979 H   0  0  0  0  0  0  0  0  0  0  0  0
   -0.4788    1.2365    2.5125 H   0  0  0  0  0  0  0  0  0  0  0  0
   -1.3815    1.1187    4.8262 H   0  0  0  0  0  0  0  0  0  0  0  0
   -2.6851   -0.8913    5.5698 H   0  0  0  0  0  0  0  0  0  0  0  0
   -3.0955   -2.7763    3.9702 H   0  0  0  0  0  0  0  0  0  0  0  0
   -2.2548   -2.6458    1.6301 H   0  0  0  0  0  0  0  0  0  0  0  0
  1 14  1  0  0  0  0
  2  4  1  0  0  0  0
  4  1  1  6  0  0  0
  4  3  1  0  0  0  0
  5  2  1  0  0  0  0
  5  6  2  0  0  0  0
  6  7  1  0  0  0  0
  6  3  1  0  0  0  0
  7 22  1  0  0  0  0
  7 21  1  0  0  0  0
  8  1  1  0  0  0  0
  9 24  1  0  0  0  0
  9  8  2  0  0  0  0
 10  9  1  0  0  0  0
 11 10  2  0  0  0  0
 11 12  1  0  0  0  0
 12 13  2  0  0  0  0
 13  8  1  0  0  0  0
 13 28  1  0  0  0  0
 14 19  2  0  0  0  0
 14 15  1  0  0  0  0
 15 16  2  0  0  0  0
 16 17  1  0  0  0  0
 16 30  1  0  0  0  0
 17 31  1  0  0  0  0
 18 32  1  0  0  0  0
 18 17  2  0  0  0  0
 19 18  1  0  0  0  0
 20  5  1  0  0  0  0
 23  7  1  0  0  0  0
 25 10  1  0  0  0  0
 26 11  1  0  0  0  0
 27 12  1  0  0  0  0
 29 15  1  0  0  0  0
 33 19  1  0  0  0  0
M  END
