1
q = -1.0

 47 49  0  0  0  0  0  0  0  0999 V2000
   -0.0001   -0.3359   -0.0011 P   0  0  0  0  0  2  0  0  0  0  0  0
   -1.2016   -1.5780   -0.0016 N   0  0  0  0  0  0  0  0  0  0  0  0
    1.2013   -1.5782   -0.0014 N   0  0  0  0  0  0  0  0  0  0  0  0
   -0.6835   -2.8727   -0.0019 C   0  0  0  0  0  0  0  0  0  0  0  0
   -1.3622   -3.7331   -0.0024 H   0  0  0  0  0  0  0  0  0  0  0  0
    0.6830   -2.8728   -0.0019 C   0  0  0  0  0  0  0  0  0  0  0  0
    1.3616   -3.7333   -0.0023 H   0  0  0  0  0  0  0  0  0  0  0  0
   -2.6009   -1.2676   -0.0009 C   0  0  0  0  0  0  0  0  0  0  0  0
   -3.2616   -1.0887   -1.2376 C   0  0  0  0  0  0  0  0  0  0  0  0
   -4.6236   -0.7472   -1.2096 C   0  0  0  0  0  0  0  0  0  0  0  0
   -5.1527   -0.5994   -2.1647 H   0  0  0  0  0  0  0  0  0  0  0  0
   -5.3206   -0.5694    0.0004 C   0  0  0  0  0  0  0  0  0  0  0  0
   -4.6235   -0.7504    1.2093 C   0  0  0  0  0  0  0  0  0  0  0  0
   -5.1525   -0.6052    2.1648 H   0  0  0  0  0  0  0  0  0  0  0  0
   -3.2610   -1.0919    1.2361 C   0  0  0  0  0  0  0  0  0  0  0  0
    2.6007   -1.2679   -0.0009 C   0  0  0  0  0  0  0  0  0  0  0  0
    3.2608   -1.0917    1.2361 C   0  0  0  0  0  0  0  0  0  0  0  0
    4.6231   -0.7502    1.2092 C   0  0  0  0  0  0  0  0  0  0  0  0
    5.1521   -0.6046    2.1646 H   0  0  0  0  0  0  0  0  0  0  0  0
    5.3203   -0.5697    0.0001 C   0  0  0  0  0  0  0  0  0  0  0  0
    4.6233   -0.7481   -1.2098 C   0  0  0  0  0  0  0  0  0  0  0  0
    5.1525   -0.6008   -2.1649 H   0  0  0  0  0  0  0  0  0  0  0  0
    3.2613   -1.0896   -1.2377 C   0  0  0  0  0  0  0  0  0  0  0  0
   -2.5023   -1.2099   -2.5329 C   0  0  0  0  0  0  0  0  0  0  0  0
   -1.7314   -0.4127   -2.6066 H   0  0  0  0  0  0  0  0  0  0  0  0
   -3.1779   -1.1133   -3.4034 H   0  0  0  0  0  0  0  0  0  0  0  0
   -1.9659   -2.1776   -2.6116 H   0  0  0  0  0  0  0  0  0  0  0  0
   -6.7663   -0.1431   -0.0008 C   0  0  0  0  0  0  0  0  0  0  0  0
   -6.8436    0.9641   -0.0564 H   0  0  0  0  0  0  0  0  0  0  0  0
   -7.2896   -0.4623    0.9217 H   0  0  0  0  0  0  0  0  0  0  0  0
   -7.3141   -0.5521   -0.8725 H   0  0  0  0  0  0  0  0  0  0  0  0
   -2.5017   -1.2162    2.5311 C   0  0  0  0  0  0  0  0  0  0  0  0
   -3.1773   -1.1218    3.4018 H   0  0  0  0  0  0  0  0  0  0  0  0
   -1.7309   -0.4191    2.6068 H   0  0  0  0  0  0  0  0  0  0  0  0
   -1.9652   -2.1841    2.6075 H   0  0  0  0  0  0  0  0  0  0  0  0
    2.5014   -1.2154    2.5311 C   0  0  0  0  0  0  0  0  0  0  0  0
    1.7308   -0.4181    2.6065 H   0  0  0  0  0  0  0  0  0  0  0  0
    3.1769   -1.1210    3.4018 H   0  0  0  0  0  0  0  0  0  0  0  0
    1.9647   -2.1832    2.6077 H   0  0  0  0  0  0  0  0  0  0  0  0
    6.7659   -0.1431   -0.0004 C   0  0  0  0  0  0  0  0  0  0  0  0
    7.2948   -0.4826    0.9115 H   0  0  0  0  0  0  0  0  0  0  0  0
    6.8425    0.9652   -0.0311 H   0  0  0  0  0  0  0  0  0  0  0  0
    7.3085   -0.5321   -0.8844 H   0  0  0  0  0  0  0  0  0  0  0  0
    2.5021   -1.2113   -2.5329 C   0  0  0  0  0  0  0  0  0  0  0  0
    3.1777   -1.1149   -3.4034 H   0  0  0  0  0  0  0  0  0  0  0  0
    1.7310   -0.4143   -2.6070 H   0  0  0  0  0  0  0  0  0  0  0  0
    1.9659   -2.1792   -2.6114 H   0  0  0  0  0  0  0  0  0  0  0  0
  2  1  1  0  0  0  0
  2  8  1  0  0  0  0
  3  1  1  0  0  0  0
  3 16  1  0  0  0  0
  4  6  2  0  0  0  0
  4  2  1  0  0  0  0
  5  4  1  0  0  0  0
  6  3  1  0  0  0  0
  7  6  1  0  0  0  0
  8 15  1  0  0  0  0
  9 10  1  0  0  0  0
  9  8  2  0  0  0  0
 10 12  2  0  0  0  0
 11 10  1  0  0  0  0
 12 13  1  0  0  0  0
 13 15  2  0  0  0  0
 13 14  1  0  0  0  0
 15 32  1  0  0  0  0
 16 17  1  0  0  0  0
 17 36  1  0  0  0  0
 18 17  2  0  0  0  0
 18 19  1  0  0  0  0
 20 18  1  0  0  0  0
 21 20  2  0  0  0  0
 22 21  1  0  0  0  0
 23 21  1  0  0  0  0
 23 16  2  0  0  0  0
 24  9  1  0  0  0  0
 25 24  1  0  0  0  0
 26 24  1  0  0  0  0
 27 24  1  0  0  0  0
 28 12  1  0  0  0  0
 28 30  1  0  0  0  0
 29 28  1  0  0  0  0
 31 28  1  0  0  0  0
 32 34  1  0  0  0  0
 32 35  1  0  0  0  0
 32 33  1  0  0  0  0
 36 37  1  0  0  0  0
 36 39  1  0  0  0  0
 36 38  1  0  0  0  0
 40 20  1  0  0  0  0
 40 41  1  0  0  0  0
 42 40  1  0  0  0  0
 43 40  1  0  0  0  0
 44 23  1  0  0  0  0
 45 44  1  0  0  0  0
 46 44  1  0  0  0  0
 47 44  1  0  0  0  0
M  END
