1
q = 0.0, confidence = 0.944

 15 16  0  0  1  0  0  0  0  0999 V2000
   -3.1129    0.0279    0.0538 P   0  0  1  0  0  0  0  0  0  0  0  0
   -3.6080    1.2874   -1.0871 O   0  0  0  0  0  0  0  0  0  0  0  0
   -4.5257    0.3968    1.0996 O   0  0  0  0  0  0  0  0  0  0  0  0
   -4.0404   -1.1993   -0.8171 O   0  0  0  0  0  0  0  0  0  0  0  0
   -4.8398    1.3857   -1.4811 C   0  0  0  0  0  2  0  0  0  0  0  0
   -5.6989    0.5429    0.5768 C   0  0  0  0  0  2  0  0  0  0  0  0
   -5.2451   -0.9572   -1.2220 C   0  0  0  0  0  2  0  0  0  0  0  0
   -5.8512    0.4029   -0.9231 C   0  0  2  0  0  0  0  0  0  0  0  0
   -7.2760    0.5903   -1.4453 C   0  0  0  0  0  0  0  0  0  0  0  0
   -7.9145   -0.1506   -0.9243 H   0  0  0  0  0  0  0  0  0  0  0  0
   -7.6135    1.5944   -1.1195 H   0  0  0  0  0  0  0  0  0  0  0  0
   -7.3856    0.4392   -2.9609 C   0  0  0  0  0  0  0  0  0  0  0  0
   -8.4326    0.5822   -3.2931 H   0  0  0  0  0  0  0  0  0  0  0  0
   -6.7560    1.1885   -3.4808 H   0  0  0  0  0  0  0  0  0  0  0  0
   -7.0593   -0.5697   -3.2831 H   0  0  0  0  0  0  0  0  0  0  0  0
  1  2  1  6  0  0  0
  1  3  1  0  0  0  0
  4  1  1  0  0  0  0
  5  2  1  0  0  0  0
  5  8  1  0  0  0  0
  6  3  1  0  0  0  0
  7  8  1  0  0  0  0
  7  4  1  0  0  0  0
  8  9  1  6  0  0  0
  8  6  1  0  0  0  0
  9 11  1  0  0  0  0
  9 10  1  0  0  0  0
 12  9  1  0  0  0  0
 13 12  1  0  0  0  0
 14 12  1  0  0  0  0
 15 12  1  0  0  0  0
M  END
