1
q = 0.0, confidence = 0.998

 52 54  0  0  0  0  0  0  0  0999 V2000
    0.3724   -0.5924   -0.0257 P   0  0  0  0  0  0  0  0  0  0  0  0
    1.4045   -1.5010    1.5286 Cl  0  0  0  0  0  0  0  0  0  0  0  0
    1.3112   -1.3745   -1.7069 Cl  0  0  0  0  0  0  0  0  0  0  0  0
   -3.7410    1.4718    1.1646 C   0  0  0  0  0  0  0  0  0  0  0  0
   -2.3025    1.7039   -1.2443 C   0  0  0  0  0  0  0  0  0  0  0  0
   -2.3547    1.6920    1.2209 C   0  0  0  0  0  0  0  0  0  0  0  0
    2.2476    1.6142    0.0425 C   0  0  0  0  0  0  0  0  0  0  0  0
   -0.1747    2.1333    0.0365 C   0  0  0  0  0  0  0  0  0  0  0  0
   -3.6902    1.4829   -1.2477 C   0  0  0  0  0  0  0  0  0  0  0  0
   -4.4278    1.3536   -0.0572 C   0  0  0  0  0  0  0  0  0  0  0  0
    5.1698   -0.4714   -1.2108 C   0  0  0  0  0  0  0  0  0  0  0  0
    0.1480    3.5064    0.0796 C   0  0  0  0  0  0  0  0  0  0  0  0
    0.8852    1.1786    0.0221 C   0  0  0  0  0  0  0  0  0  0  0  0
    4.0404    0.3666   -1.2175 C   0  0  0  0  0  0  0  0  0  0  0  0
   -1.6337    1.7510    2.5446 C   0  0  0  0  0  0  0  0  0  0  0  0
    2.5092    2.9964    0.0850 C   0  0  0  0  0  0  0  0  0  0  0  0
    3.4426    0.7126    0.0202 C   0  0  0  0  0  0  0  0  0  0  0  0
   -1.6338    1.8012    0.0034 C   0  0  0  0  0  0  0  0  0  0  0  0
    5.1817   -0.5071    1.1991 C   0  0  0  0  0  0  0  0  0  0  0  0
    5.7432   -0.9400   -0.0160 C   0  0  0  0  0  0  0  0  0  0  0  0
    4.0525    0.3279    1.2419 C   0  0  0  0  0  0  0  0  0  0  0  0
    3.5375    0.9444   -2.5179 C   0  0  0  0  0  0  0  0  0  0  0  0
   -5.8941    1.0155   -0.0889 C   0  0  0  0  0  0  0  0  0  0  0  0
    1.4752    3.9398    0.1048 C   0  0  0  0  0  0  0  0  0  0  0  0
    6.9179   -1.8847   -0.0347 C   0  0  0  0  0  0  0  0  0  0  0  0
    3.5442    0.8514    2.5627 C   0  0  0  0  0  0  0  0  0  0  0  0
    2.4394    0.8310    2.6258 H   0  0  0  0  0  0  0  0  0  0  0  0
    3.8517    1.9093    2.7081 H   0  0  0  0  0  0  0  0  0  0  0  0
    3.9497    0.2660    3.4101 H   0  0  0  0  0  0  0  0  0  0  0  0
   -1.5294    1.7845   -2.5373 C   0  0  0  0  0  0  0  0  0  0  0  0
   -4.2985    1.3603    2.1081 H   0  0  0  0  0  0  0  0  0  0  0  0
   -1.0360    2.6792    2.6525 H   0  0  0  0  0  0  0  0  0  0  0  0
   -4.2083    1.3842   -2.2149 H   0  0  0  0  0  0  0  0  0  0  0  0
   -6.0090   -0.0894   -0.0826 H   0  0  0  0  0  0  0  0  0  0  0  0
   -0.6807    4.2302    0.0905 H   0  0  0  0  0  0  0  0  0  0  0  0
    3.5605    3.3215    0.1001 H   0  0  0  0  0  0  0  0  0  0  0  0
    1.7073    5.0152    0.1372 H   0  0  0  0  0  0  0  0  0  0  0  0
    5.6207   -0.7591   -2.1745 H   0  0  0  0  0  0  0  0  0  0  0  0
    5.6416   -0.8244    2.1492 H   0  0  0  0  0  0  0  0  0  0  0  0
    6.5750   -2.9418   -0.0168 H   0  0  0  0  0  0  0  0  0  0  0  0
    7.5320   -1.7571   -0.9479 H   0  0  0  0  0  0  0  0  0  0  0  0
   -6.3875    1.4003   -1.0029 H   0  0  0  0  0  0  0  0  0  0  0  0
   -0.9137    2.7053   -2.5966 H   0  0  0  0  0  0  0  0  0  0  0  0
   -0.9211    0.9039    2.6460 H   0  0  0  0  0  0  0  0  0  0  0  0
   -2.3432    1.6930    3.3914 H   0  0  0  0  0  0  0  0  0  0  0  0
   -6.4291    1.4133    0.7957 H   0  0  0  0  0  0  0  0  0  0  0  0
    2.4361    1.0423   -2.5411 H   0  0  0  0  0  0  0  0  0  0  0  0
    3.9534    1.9635   -2.6732 H   0  0  0  0  0  0  0  0  0  0  0  0
   -2.2066    1.7614   -3.4118 H   0  0  0  0  0  0  0  0  0  0  0  0
    3.8481    0.3246   -3.3811 H   0  0  0  0  0  0  0  0  0  0  0  0
    7.5728   -1.7414    0.8475 H   0  0  0  0  0  0  0  0  0  0  0  0
   -0.8272    0.9286   -2.6364 H   0  0  0  0  0  0  0  0  0  0  0  0
  1 13  1  0  0  0  0
  1  2  1  0  0  0  0
  3  1  1  0  0  0  0
  4  6  1  0  0  0  0
  4 31  1  0  0  0  0
  5 18  1  0  0  0  0
  6 15  1  0  0  0  0
  7 16  1  0  0  0  0
  8 12  2  0  0  0  0
  9  5  2  0  0  0  0
  9 10  1  0  0  0  0
 10  4  2  0  0  0  0
 11 20  1  0  0  0  0
 12 35  1  0  0  0  0
 12 24  1  0  0  0  0
 13  8  1  0  0  0  0
 13  7  2  0  0  0  0
 14 11  2  0  0  0  0
 14 17  1  0  0  0  0
 15 44  1  0  0  0  0
 15 32  1  0  0  0  0
 15 45  1  0  0  0  0
 16 36  1  0  0  0  0
 16 24  2  0  0  0  0
 17  7  1  0  0  0  0
 17 21  2  0  0  0  0
 18  8  1  0  0  0  0
 18  6  2  0  0  0  0
 19 21  1  0  0  0  0
 19 39  1  0  0  0  0
 20 19  2  0  0  0  0
 21 26  1  0  0  0  0
 22 14  1  0  0  0  0
 23 34  1  0  0  0  0
 23 10  1  0  0  0  0
 23 46  1  0  0  0  0
 24 37  1  0  0  0  0
 25 40  1  0  0  0  0
 25 20  1  0  0  0  0
 25 51  1  0  0  0  0
 26 27  1  0  0  0  0
 26 28  1  0  0  0  0
 26 29  1  0  0  0  0
 30  5  1  0  0  0  0
 33  9  1  0  0  0  0
 38 11  1  0  0  0  0
 41 25  1  0  0  0  0
 42 23  1  0  0  0  0
 43 30  1  0  0  0  0
 47 22  1  0  0  0  0
 48 22  1  0  0  0  0
 49 30  1  0  0  0  0
 50 22  1  0  0  0  0
 52 30  1  0  0  0  0
M  END
