1
q = 0.0, confidence = 0.994

 26 27  0  0  0  0  0  0  0  0999 V2000
   -0.5066    0.0169    0.6082 P   0  0  0  0  0  0  0  0  0  0  0  0
   -0.7998    0.0438    2.3507 C   0  0  0  0  0  0  0  0  0  0  0  0
   -0.9332    0.0944    3.5688 C   0  0  0  0  0  0  0  0  0  0  0  0
   -1.0431    0.1389    4.6448 H   0  0  0  0  0  0  0  0  0  0  0  0
   -1.3655    1.5272    0.0064 C   0  0  0  0  0  0  0  0  0  0  0  0
   -0.6043    2.5802   -0.5345 C   0  0  0  0  0  0  0  0  0  0  0  0
    0.4913    2.4823   -0.5990 H   0  0  0  0  0  0  0  0  0  0  0  0
   -1.2482    3.7403   -0.9924 C   0  0  0  0  0  0  0  0  0  0  0  0
   -0.6524    4.5623   -1.4169 H   0  0  0  0  0  0  0  0  0  0  0  0
   -2.6449    3.8474   -0.9127 C   0  0  0  0  0  0  0  0  0  0  0  0
   -3.1481    4.7566   -1.2752 H   0  0  0  0  0  0  0  0  0  0  0  0
   -3.4042    2.7933   -0.3755 C   0  0  0  0  0  0  0  0  0  0  0  0
   -4.5000    2.8758   -0.3174 H   0  0  0  0  0  0  0  0  0  0  0  0
   -2.7689    1.6322    0.0839 C   0  0  0  0  0  0  0  0  0  0  0  0
   -3.3638    0.8029    0.4965 H   0  0  0  0  0  0  0  0  0  0  0  0
   -1.5318   -1.3781    0.0020 C   0  0  0  0  0  0  0  0  0  0  0  0
   -1.3155   -1.8081   -1.3234 C   0  0  0  0  0  0  0  0  0  0  0  0
   -0.5250   -1.3380   -1.9301 H   0  0  0  0  0  0  0  0  0  0  0  0
   -2.0981   -2.8407   -1.8569 C   0  0  0  0  0  0  0  0  0  0  0  0
   -1.9263   -3.1759   -2.8907 H   0  0  0  0  0  0  0  0  0  0  0  0
   -3.0878   -3.4536   -1.0703 C   0  0  0  0  0  0  0  0  0  0  0  0
   -3.6956   -4.2698   -1.4892 H   0  0  0  0  0  0  0  0  0  0  0  0
   -3.2940   -3.0334    0.2529 C   0  0  0  0  0  0  0  0  0  0  0  0
   -4.0618   -3.5195    0.8737 H   0  0  0  0  0  0  0  0  0  0  0  0
   -2.5189   -1.9954    0.7931 C   0  0  0  0  0  0  0  0  0  0  0  0
   -2.6708   -1.6703    1.8335 H   0  0  0  0  0  0  0  0  0  0  0  0
  1  2  1  0  0  0  0
  2  3  3  0  0  0  0
  3  4  1  0  0  0  0
  5 14  1  0  0  0  0
  5  1  1  0  0  0  0
  6  5  2  0  0  0  0
  7  6  1  0  0  0  0
  8 10  2  0  0  0  0
  8  6  1  0  0  0  0
  9  8  1  0  0  0  0
 10 12  1  0  0  0  0
 11 10  1  0  0  0  0
 12 13  1  0  0  0  0
 12 14  2  0  0  0  0
 14 15  1  0  0  0  0
 16  1  1  0  0  0  0
 16 25  1  0  0  0  0
 17 16  2  0  0  0  0
 18 17  1  0  0  0  0
 19 17  1  0  0  0  0
 19 21  2  0  0  0  0
 20 19  1  0  0  0  0
 21 23  1  0  0  0  0
 22 21  1  0  0  0  0
 23 25  2  0  0  0  0
 23 24  1  0  0  0  0
 25 26  1  0  0  0  0
M  END
