2
q = 0.0, confidence = 0.994

 27 27  0  0  0  0  0  0  0  0999 V2000
   -4.0318   -1.0179   -0.6859 S   0  0  0  0  0  0  0  0  0  0  0  0
   -2.0030    1.1324    0.3775 P   0  0  1  0  0  0  0  0  0  0  0  0
   -1.9865    1.8758    1.8501 O   0  0  0  0  0  0  0  0  0  0  0  0
   -1.0601    1.7474    2.2065 H   0  0  0  0  0  0  0  0  0  0  0  0
   -6.4389   -2.4307   -0.2782 C   0  0  0  0  0  0  0  0  0  0  0  0
   -7.2662   -2.5533    0.4470 H   0  0  0  0  0  0  0  0  0  0  0  0
   -5.9649   -3.4235   -0.4251 H   0  0  0  0  0  0  0  0  0  0  0  0
   -6.8811   -2.1319   -1.2515 H   0  0  0  0  0  0  0  0  0  0  0  0
   -5.4632   -1.4142    0.2294 C   0  0  0  0  0  0  0  0  0  0  0  0
   -5.5075   -0.6870    1.4095 C   0  0  0  0  0  0  0  0  0  0  0  0
   -6.3203   -0.7958    2.1418 H   0  0  0  0  0  0  0  0  0  0  0  0
   -4.4031    0.1970    1.5717 C   0  0  0  0  0  0  0  0  0  0  0  0
   -4.2390    0.8554    2.4348 H   0  0  0  0  0  0  0  0  0  0  0  0
   -3.5096    0.1449    0.5074 C   0  0  0  0  0  0  0  0  0  0  0  0
   -2.3501    2.5571   -0.8007 C   0  0  0  0  0  0  0  0  0  0  0  0
   -3.5320    3.3683   -0.2491 C   0  0  0  0  0  0  0  0  0  0  0  0
   -3.7189    4.2390   -0.9124 H   0  0  0  0  0  0  0  0  0  0  0  0
   -3.3223    3.7460    0.7703 H   0  0  0  0  0  0  0  0  0  0  0  0
   -4.4592    2.7615   -0.2130 H   0  0  0  0  0  0  0  0  0  0  0  0
   -1.0583    3.3948   -0.8126 C   0  0  0  0  0  0  0  0  0  0  0  0
   -1.2102    4.3042   -1.4307 H   0  0  0  0  0  0  0  0  0  0  0  0
   -0.2117    2.8180   -1.2374 H   0  0  0  0  0  0  0  0  0  0  0  0
   -0.7730    3.7136    0.2099 H   0  0  0  0  0  0  0  0  0  0  0  0
   -2.6609    2.0133   -2.2015 C   0  0  0  0  0  0  0  0  0  0  0  0
   -2.8009    2.8682   -2.8963 H   0  0  0  0  0  0  0  0  0  0  0  0
   -3.5939    1.4146   -2.2119 H   0  0  0  0  0  0  0  0  0  0  0  0
   -1.8424    1.3765   -2.5907 H   0  0  0  0  0  0  0  0  0  0  0  0
  1  9  1  0  0  0  0
  1 14  1  0  0  0  0
  2 14  1  0  0  0  0
  2  3  1  1  0  0  0
  3  4  1  0  0  0  0
  5  9  1  0  0  0  0
  5  6  1  0  0  0  0
  7  5  1  0  0  0  0
  8  5  1  0  0  0  0
  9 10  2  0  0  0  0
 10 12  1  0  0  0  0
 10 11  1  0  0  0  0
 12 13  1  0  0  0  0
 14 12  2  0  0  0  0
 15 16  1  0  0  0  0
 15  2  1  0  0  0  0
 16 19  1  0  0  0  0
 16 18  1  0  0  0  0
 17 16  1  0  0  0  0
 20 15  1  0  0  0  0
 20 23  1  0  0  0  0
 21 20  1  0  0  0  0
 22 20  1  0  0  0  0
 24 15  1  0  0  0  0
 25 24  1  0  0  0  0
 26 24  1  0  0  0  0
 27 24  1  0  0  0  0
M  END
