37
q = 0.0, confidence = 0.984

 37 40  0  0  0  0  0  0  0  0999 V2000
   -1.5598   -0.8134   -0.0332 C   0  0  0  0  0  0  0  0  0  0  0  0
   -1.6052   -1.9129   -0.0815 H   0  0  0  0  0  0  0  0  0  0  0  0
   -2.7507   -0.0998    0.0070 C   0  0  0  0  0  0  0  0  0  0  0  0
   -2.7920    1.3450    0.0595 C   0  0  0  0  0  0  0  0  0  0  0  0
   -4.0479    2.0108    0.1940 C   0  0  0  0  0  0  0  0  0  0  0  0
   -4.9542    1.3994    0.2970 H   0  0  0  0  0  0  0  0  0  0  0  0
   -4.1514    3.3937    0.2077 C   0  0  0  0  0  0  0  0  0  0  0  0
   -5.1371    3.8698    0.3183 H   0  0  0  0  0  0  0  0  0  0  0  0
   -2.9863    4.1869    0.0746 C   0  0  0  0  0  0  0  0  0  0  0  0
   -3.0631    5.2846    0.0560 H   0  0  0  0  0  0  0  0  0  0  0  0
   -1.7438    3.5818   -0.0223 C   0  0  0  0  0  0  0  0  0  0  0  0
   -0.8414    4.2009   -0.1154 H   0  0  0  0  0  0  0  0  0  0  0  0
   -1.5893    2.1575   -0.0019 C   0  0  0  0  0  0  0  0  0  0  0  0
   -0.2619    1.6049   -0.0450 C   0  0  0  0  0  0  0  0  0  0  0  0
   -4.0119   -0.9007   -0.0155 C   0  0  0  0  0  0  0  0  0  0  0  0
   -4.9500   -0.7569   -1.0621 C   0  0  0  0  0  0  0  0  0  0  0  0
   -4.7607   -0.0217   -1.8589 H   0  0  0  0  0  0  0  0  0  0  0  0
   -6.1011   -1.5559   -1.1017 C   0  0  0  0  0  0  0  0  0  0  0  0
   -6.8170   -1.4389   -1.9294 H   0  0  0  0  0  0  0  0  0  0  0  0
   -6.3368   -2.5071   -0.0957 C   0  0  0  0  0  0  0  0  0  0  0  0
   -7.2424   -3.1316   -0.1270 H   0  0  0  0  0  0  0  0  0  0  0  0
   -5.4100   -2.6601    0.9469 C   0  0  0  0  0  0  0  0  0  0  0  0
   -5.5875   -3.4027    1.7395 H   0  0  0  0  0  0  0  0  0  0  0  0
   -4.2539   -1.8668    0.9843 C   0  0  0  0  0  0  0  0  0  0  0  0
   -3.5289   -1.9830    1.8043 H   0  0  0  0  0  0  0  0  0  0  0  0
    0.9448    2.4794   -0.0553 C   0  0  0  0  0  0  0  0  0  0  0  0
    1.2951    3.2357    1.0858 C   0  0  0  0  0  0  0  0  0  0  0  0
    0.6515    3.1912    1.9775 H   0  0  0  0  0  0  0  0  0  0  0  0
    2.4591    4.0156    1.0925 C   0  0  0  0  0  0  0  0  0  0  0  0
    2.7262    4.5884    1.9934 H   0  0  0  0  0  0  0  0  0  0  0  0
    3.2915    4.0531   -0.0382 C   0  0  0  0  0  0  0  0  0  0  0  0
    4.2100    4.6590   -0.0272 H   0  0  0  0  0  0  0  0  0  0  0  0
    2.9510    3.3098   -1.1782 C   0  0  0  0  0  0  0  0  0  0  0  0
    3.5976    3.3315   -2.0683 H   0  0  0  0  0  0  0  0  0  0  0  0
    1.7867    2.5278   -1.1872 C   0  0  0  0  0  0  0  0  0  0  0  0
    1.5172    1.9487   -2.0824 H   0  0  0  0  0  0  0  0  0  0  0  0
    0.0350   -0.0993   -0.0459 P   0  0  0  0  0  0  0  0  0  0  0  0
  1  3  1  0  0  0  0
  2  1  1  0  0  0  0
  3  4  2  0  0  0  0
  4  5  1  0  0  0  0
  5  7  2  0  0  0  0
  5  6  1  0  0  0  0
  7  8  1  0  0  0  0
  9  7  1  0  0  0  0
 10  9  1  0  0  0  0
 11 13  1  0  0  0  0
 11  9  2  0  0  0  0
 12 11  1  0  0  0  0
 13  4  1  0  0  0  0
 14 13  2  0  0  0  0
 15  3  1  0  0  0  0
 15 24  1  0  0  0  0
 16 15  2  0  0  0  0
 17 16  1  0  0  0  0
 18 16  1  0  0  0  0
 18 20  2  0  0  0  0
 19 18  1  0  0  0  0
 20 22  1  0  0  0  0
 21 20  1  0  0  0  0
 22 24  2  0  0  0  0
 22 23  1  0  0  0  0
 24 25  1  0  0  0  0
 26 14  1  0  0  0  0
 26 27  1  0  0  0  0
 27 29  2  0  0  0  0
 27 28  1  0  0  0  0
 29 30  1  0  0  0  0
 31 32  1  0  0  0  0
 31 29  1  0  0  0  0
 33 31  2  0  0  0  0
 34 33  1  0  0  0  0
 35 33  1  0  0  0  0
 35 26  2  0  0  0  0
 36 35  1  0  0  0  0
 37 14  1  0  0  0  0
 37  1  2  0  0  0  0
M  END
