1
q = 0.0, confidence = 0.992

 61 61  0  0  0  0  0  0  0  0999 V2000
   -0.0037    0.5313    0.1480 P   0  0  1  0  0  0  0  0  0  0  0  0
   -1.8343    1.6422   -2.1007 Si  0  0  0  0  0  0  0  0  0  0  0  0
   -0.2331    3.6998   -0.1489 Si  0  0  0  0  0  0  0  0  0  0  0  0
   -1.5610    0.2164    0.7413 N   0  0  0  0  0  0  0  0  0  0  0  0
   -3.0037   -1.3416    1.7188 N   0  0  0  0  0  0  0  0  0  0  0  0
   -0.2927    1.9467   -0.9616 C   0  0  0  0  0  0  0  0  0  0  0  0
    0.5741    1.9380   -1.6592 H   0  0  0  0  0  0  0  0  0  0  0  0
   -3.4098    2.3691   -1.3445 C   0  0  0  0  0  0  0  0  0  0  0  0
   -3.3764    3.4702   -1.2352 H   0  0  0  0  0  0  0  0  0  0  0  0
   -3.5749    1.9243   -0.3439 H   0  0  0  0  0  0  0  0  0  0  0  0
   -4.2787    2.1176   -1.9873 H   0  0  0  0  0  0  0  0  0  0  0  0
   -1.4405    2.4462   -3.7693 C   0  0  0  0  0  0  0  0  0  0  0  0
   -0.5547    1.9555   -4.2226 H   0  0  0  0  0  0  0  0  0  0  0  0
   -1.2382    3.5313   -3.6952 H   0  0  0  0  0  0  0  0  0  0  0  0
   -2.2948    2.3041   -4.4633 H   0  0  0  0  0  0  0  0  0  0  0  0
   -2.1946   -0.1808   -2.4767 C   0  0  0  0  0  0  0  0  0  0  0  0
   -3.0573   -0.2109   -3.1757 H   0  0  0  0  0  0  0  0  0  0  0  0
   -2.4641   -0.7591   -1.5740 H   0  0  0  0  0  0  0  0  0  0  0  0
   -1.3482   -0.6891   -2.9756 H   0  0  0  0  0  0  0  0  0  0  0  0
   -1.3745    3.8149    1.3534 C   0  0  0  0  0  0  0  0  0  0  0  0
   -1.2572    4.8056    1.8396 H   0  0  0  0  0  0  0  0  0  0  0  0
   -1.1430    3.0285    2.0961 H   0  0  0  0  0  0  0  0  0  0  0  0
   -2.4360    3.7019    1.0586 H   0  0  0  0  0  0  0  0  0  0  0  0
    1.5575    4.1311    0.2915 C   0  0  0  0  0  0  0  0  0  0  0  0
    2.2196    3.9937   -0.5885 H   0  0  0  0  0  0  0  0  0  0  0  0
    1.9467    3.4973    1.1088 H   0  0  0  0  0  0  0  0  0  0  0  0
    1.6262    5.1952    0.5997 H   0  0  0  0  0  0  0  0  0  0  0  0
   -0.7588    5.0158   -1.4134 C   0  0  0  0  0  0  0  0  0  0  0  0
   -1.8019    4.9081   -1.7682 H   0  0  0  0  0  0  0  0  0  0  0  0
   -0.0904    5.0165   -2.2983 H   0  0  0  0  0  0  0  0  0  0  0  0
   -0.6700    6.0121   -0.9313 H   0  0  0  0  0  0  0  0  0  0  0  0
    0.9289    0.7789    2.6905 C   0  0  0  0  0  0  0  0  0  0  0  0
   -1.7923   -0.9548    1.2755 C   0  0  0  0  0  0  0  0  0  0  0  0
   -1.0041   -1.7262    1.4093 H   0  0  0  0  0  0  0  0  0  0  0  0
   -4.1902   -0.5042    1.5506 C   0  0  0  0  0  0  0  0  0  0  0  0
   -3.8441    0.5123    1.2865 H   0  0  0  0  0  0  0  0  0  0  0  0
   -4.7185   -0.4530    2.5287 H   0  0  0  0  0  0  0  0  0  0  0  0
   -5.1106   -1.1020    0.4785 C   0  0  0  0  0  0  0  0  0  0  0  0
   -4.5990   -1.0282   -0.5055 H   0  0  0  0  0  0  0  0  0  0  0  0
   -6.0367   -0.4952    0.4059 H   0  0  0  0  0  0  0  0  0  0  0  0
   -5.4378   -2.5698    0.7915 C   0  0  0  0  0  0  0  0  0  0  0  0
   -6.0662   -2.6158    1.7097 H   0  0  0  0  0  0  0  0  0  0  0  0
   -6.0446   -3.0142   -0.0238 H   0  0  0  0  0  0  0  0  0  0  0  0
   -4.1594   -3.3912    1.0150 C   0  0  0  0  0  0  0  0  0  0  0  0
   -3.5791   -3.4635    0.0697 H   0  0  0  0  0  0  0  0  0  0  0  0
   -4.4040   -4.4276    1.3267 H   0  0  0  0  0  0  0  0  0  0  0  0
   -3.2665   -2.7336    2.0764 C   0  0  0  0  0  0  0  0  0  0  0  0
   -3.7669   -2.7557    3.0706 H   0  0  0  0  0  0  0  0  0  0  0  0
   -2.2972   -3.2601    2.1776 H   0  0  0  0  0  0  0  0  0  0  0  0
    1.7690    1.6400    3.6256 C   0  0  0  0  0  0  0  0  0  0  0  0
    1.4666    2.6952    3.4513 H   0  0  0  0  0  0  0  0  0  0  0  0
    1.5197    1.2530    5.0839 C   0  0  0  0  0  0  0  0  0  0  0  0
    0.4581    1.3953    5.3673 H   0  0  0  0  0  0  0  0  0  0  0  0
    2.1458    1.8675    5.7605 H   0  0  0  0  0  0  0  0  0  0  0  0
    1.7666    0.1853    5.2463 H   0  0  0  0  0  0  0  0  0  0  0  0
    3.2522    1.4938    3.2297 C   0  0  0  0  0  0  0  0  0  0  0  0
    3.8876    2.1070    3.8993 H   0  0  0  0  0  0  0  0  0  0  0  0
    3.4356    1.8158    2.1869 H   0  0  0  0  0  0  0  0  0  0  0  0
    3.5761    0.4368    3.3240 H   0  0  0  0  0  0  0  0  0  0  0  0
    0.7581    1.3756    1.4820 O   0  0  0  0  0  0  0  0  0  0  0  0
    0.4890   -0.3233    2.9671 O   0  0  0  0  0  0  0  0  0  0  0  0
  1  4  1  1  0  0  0
  1 60  1  0  0  0  0
  2  8  1  0  0  0  0
  2  6  1  0  0  0  0
  3 24  1  0  0  0  0
  3 20  1  0  0  0  0
  4 33  2  0  0  0  0
  5 47  1  0  0  0  0
  6  3  1  0  0  0  0
  6  1  1  0  0  0  0
  7  6  1  0  0  0  0
  8  9  1  0  0  0  0
  8 10  1  0  0  0  0
 11  8  1  0  0  0  0
 12 14  1  0  0  0  0
 12  2  1  0  0  0  0
 13 12  1  0  0  0  0
 15 12  1  0  0  0  0
 16  2  1  0  0  0  0
 16 18  1  0  0  0  0
 17 16  1  0  0  0  0
 19 16  1  0  0  0  0
 20 21  1  0  0  0  0
 20 22  1  0  0  0  0
 23 20  1  0  0  0  0
 24 27  1  0  0  0  0
 24 26  1  0  0  0  0
 25 24  1  0  0  0  0
 28 31  1  0  0  0  0
 28  3  1  0  0  0  0
 29 28  1  0  0  0  0
 30 28  1  0  0  0  0
 32 61  2  0  0  0  0
 32 50  1  0  0  0  0
 33 34  1  0  0  0  0
 33  5  1  0  0  0  0
 35  5  1  0  0  0  0
 35 37  1  0  0  0  0
 36 35  1  0  0  0  0
 38 41  1  0  0  0  0
 38 35  1  0  0  0  0
 39 38  1  0  0  0  0
 40 38  1  0  0  0  0
 41 44  1  0  0  0  0
 41 42  1  0  0  0  0
 43 41  1  0  0  0  0
 44 46  1  0  0  0  0
 44 47  1  0  0  0  0
 45 44  1  0  0  0  0
 47 49  1  0  0  0  0
 47 48  1  0  0  0  0
 50 52  1  0  0  0  0
 51 50  1  0  0  0  0
 52 55  1  0  0  0  0
 52 53  1  0  0  0  0
 52 54  1  0  0  0  0
 56 59  1  0  0  0  0
 56 50  1  0  0  0  0
 56 57  1  0  0  0  0
 58 56  1  0  0  0  0
 60 32  1  0  0  0  0
M  END
