3
q = 0.0, confidence = 0.998

 61 62  0  0  0  0  0  0  0  0999 V2000
    0.3878    3.1299    1.5324 Si  0  0  0  0  0  0  0  0  0  0  0  0
   -1.1874    0.7914    3.1603 Si  0  0  0  0  0  0  0  0  0  0  0  0
    0.1055    0.2631    0.3097 P   0  0  1  0  0  0  0  0  0  0  0  0
   -0.8803    1.2286   -0.6949 N   0  0  0  0  0  0  0  0  0  0  0  0
   -2.5161    1.4960   -2.3420 N   0  0  0  0  0  0  0  0  0  0  0  0
    0.1747    1.2338    1.8713 C   0  0  0  0  0  0  0  0  0  0  0  0
    1.1356    0.9250    2.3408 H   0  0  0  0  0  0  0  0  0  0  0  0
   -0.7745   -0.8897    3.9303 C   0  0  0  0  0  0  0  0  0  0  0  0
   -1.5906   -1.2095    4.6117 H   0  0  0  0  0  0  0  0  0  0  0  0
    0.1531   -0.8107    4.5349 H   0  0  0  0  0  0  0  0  0  0  0  0
   -0.6210   -1.6825    3.1742 H   0  0  0  0  0  0  0  0  0  0  0  0
   -2.9031    0.7935    2.3594 C   0  0  0  0  0  0  0  0  0  0  0  0
   -2.9796    0.0356    1.5561 H   0  0  0  0  0  0  0  0  0  0  0  0
   -3.1422    1.7849    1.9269 H   0  0  0  0  0  0  0  0  0  0  0  0
   -3.6704    0.5600    3.1267 H   0  0  0  0  0  0  0  0  0  0  0  0
   -1.2003    2.0182    4.6083 C   0  0  0  0  0  0  0  0  0  0  0  0
   -1.4539    3.0548    4.3132 H   0  0  0  0  0  0  0  0  0  0  0  0
   -0.2231    2.0366    5.1318 H   0  0  0  0  0  0  0  0  0  0  0  0
   -1.9628    1.6811    5.3416 H   0  0  0  0  0  0  0  0  0  0  0  0
   -1.2984    3.9850    1.4065 C   0  0  0  0  0  0  0  0  0  0  0  0
   -1.1541    5.0587    1.1666 H   0  0  0  0  0  0  0  0  0  0  0  0
   -1.8915    3.9239    2.3395 H   0  0  0  0  0  0  0  0  0  0  0  0
   -1.8856    3.5228    0.5887 H   0  0  0  0  0  0  0  0  0  0  0  0
    1.3551    3.5616   -0.0343 C   0  0  0  0  0  0  0  0  0  0  0  0
    0.8478    3.2014   -0.9479 H   0  0  0  0  0  0  0  0  0  0  0  0
    2.3848    3.1570   -0.0221 H   0  0  0  0  0  0  0  0  0  0  0  0
    1.4338    4.6683   -0.0872 H   0  0  0  0  0  0  0  0  0  0  0  0
    1.3982    3.8173    2.9802 C   0  0  0  0  0  0  0  0  0  0  0  0
    2.3965    3.3327    3.0006 H   0  0  0  0  0  0  0  0  0  0  0  0
    0.9185    3.6681    3.9657 H   0  0  0  0  0  0  0  0  0  0  0  0
    1.5590    4.9064    2.8394 H   0  0  0  0  0  0  0  0  0  0  0  0
   -0.8512   -1.2098    0.5974 C   0  0  0  0  0  0  0  0  0  0  0  0
   -1.4445   -2.2927    0.5439 C   0  0  0  0  0  0  0  0  0  0  0  0
   -2.1250   -3.5439    0.5178 C   0  0  0  0  0  0  0  0  0  0  0  0
   -2.9632   -3.9309    1.5945 C   0  0  0  0  0  0  0  0  0  0  0  0
   -3.0805   -3.2518    2.4517 H   0  0  0  0  0  0  0  0  0  0  0  0
   -3.6236   -5.1641    1.5619 C   0  0  0  0  0  0  0  0  0  0  0  0
   -4.2689   -5.4587    2.4032 H   0  0  0  0  0  0  0  0  0  0  0  0
   -3.4656   -6.0236    0.4615 C   0  0  0  0  0  0  0  0  0  0  0  0
   -3.9877   -6.9921    0.4402 H   0  0  0  0  0  0  0  0  0  0  0  0
   -2.6380   -5.6468   -0.6097 C   0  0  0  0  0  0  0  0  0  0  0  0
   -2.5099   -6.3202   -1.4706 H   0  0  0  0  0  0  0  0  0  0  0  0
   -1.9670   -4.4189   -0.5878 C   0  0  0  0  0  0  0  0  0  0  0  0
   -1.3105   -4.1174   -1.4169 H   0  0  0  0  0  0  0  0  0  0  0  0
   -1.8270    0.7505   -1.4425 C   0  0  0  0  0  0  0  0  0  0  0  0
   -2.1560   -0.3142   -1.4051 H   0  0  0  0  0  0  0  0  0  0  0  0
   -2.2574    2.9222   -2.5222 C   0  0  0  0  0  0  0  0  0  0  0  0
   -1.9956    3.0992   -3.5906 H   0  0  0  0  0  0  0  0  0  0  0  0
   -1.3756    3.1806   -1.9067 H   0  0  0  0  0  0  0  0  0  0  0  0
   -3.4931    3.7465   -2.1405 C   0  0  0  0  0  0  0  0  0  0  0  0
   -3.3016    4.8184   -2.3540 H   0  0  0  0  0  0  0  0  0  0  0  0
   -3.6533    3.6614   -1.0435 H   0  0  0  0  0  0  0  0  0  0  0  0
   -4.7387    3.2515   -2.8889 C   0  0  0  0  0  0  0  0  0  0  0  0
   -5.6383    3.8141   -2.5651 H   0  0  0  0  0  0  0  0  0  0  0  0
   -4.6168    3.4550   -3.9769 H   0  0  0  0  0  0  0  0  0  0  0  0
   -4.9433    1.7445   -2.6792 C   0  0  0  0  0  0  0  0  0  0  0  0
   -5.1837    1.5425   -1.6125 H   0  0  0  0  0  0  0  0  0  0  0  0
   -5.7971    1.3715   -3.2821 H   0  0  0  0  0  0  0  0  0  0  0  0
   -3.6735    0.9672   -3.0522 C   0  0  0  0  0  0  0  0  0  0  0  0
   -3.7710   -0.1109   -2.8147 H   0  0  0  0  0  0  0  0  0  0  0  0
   -3.4920    1.0507   -4.1492 H   0  0  0  0  0  0  0  0  0  0  0  0
  1  6  1  0  0  0  0
  1 28  1  0  0  0  0
  2  8  1  0  0  0  0
  2 16  1  0  0  0  0
  3 32  1  1  0  0  0
  3  6  1  0  0  0  0
  4  3  1  0  0  0  0
  5 45  1  0  0  0  0
  6  7  1  0  0  0  0
  6  2  1  0  0  0  0
  8 10  1  0  0  0  0
  8  9  1  0  0  0  0
 11  8  1  0  0  0  0
 12 15  1  0  0  0  0
 12  2  1  0  0  0  0
 13 12  1  0  0  0  0
 14 12  1  0  0  0  0
 16 18  1  0  0  0  0
 16 19  1  0  0  0  0
 17 16  1  0  0  0  0
 20  1  1  0  0  0  0
 20 22  1  0  0  0  0
 21 20  1  0  0  0  0
 23 20  1  0  0  0  0
 24 26  1  0  0  0  0
 24  1  1  0  0  0  0
 25 24  1  0  0  0  0
 27 24  1  0  0  0  0
 28 29  1  0  0  0  0
 28 30  1  0  0  0  0
 31 28  1  0  0  0  0
 33 32  3  0  0  0  0
 34 33  1  0  0  0  0
 34 35  1  0  0  0  0
 35 36  1  0  0  0  0
 37 35  2  0  0  0  0
 37 38  1  0  0  0  0
 39 37  1  0  0  0  0
 40 39  1  0  0  0  0
 41 43  1  0  0  0  0
 41 39  2  0  0  0  0
 42 41  1  0  0  0  0
 43 34  2  0  0  0  0
 44 43  1  0  0  0  0
 45 46  1  0  0  0  0
 45  4  2  0  0  0  0
 47  5  1  0  0  0  0
 47 50  1  0  0  0  0
 47 49  1  0  0  0  0
 48 47  1  0  0  0  0
 50 52  1  0  0  0  0
 51 50  1  0  0  0  0
 53 56  1  0  0  0  0
 53 54  1  0  0  0  0
 53 50  1  0  0  0  0
 55 53  1  0  0  0  0
 56 57  1  0  0  0  0
 58 56  1  0  0  0  0
 59 60  1  0  0  0  0
 59 56  1  0  0  0  0
 59  5  1  0  0  0  0
 61 59  1  0  0  0  0
M  END
