1
q = 0.0, confidence = 0.998

 49 52  0  0  0  0  0  0  0  0999 V2000
   -0.5285    0.4273    0.7090 P   0  0  0  0  0  0  0  0  0  0  0  0
    2.0664   -0.8965   -0.5775 P   0  0  0  0  0  0  0  0  0  0  0  0
    1.0960   -0.5306    1.0431 C   0  0  0  0  0  0  0  0  0  0  0  0
    0.7262   -1.7703    1.5353 F   0  0  0  0  0  0  0  0  0  0  0  0
    1.8270    0.0659    2.0433 F   0  0  0  0  0  0  0  0  0  0  0  0
   -1.3107    0.5776    2.3726 C   0  0  0  0  0  0  0  0  0  0  0  0
   -0.9672   -0.2029    3.4933 C   0  0  0  0  0  0  0  0  0  0  0  0
   -0.1467   -0.9282    3.4394 H   0  0  0  0  0  0  0  0  0  0  0  0
   -1.6832   -0.0548    4.6927 C   0  0  0  0  0  0  0  0  0  0  0  0
   -1.4069   -0.6680    5.5639 H   0  0  0  0  0  0  0  0  0  0  0  0
   -2.7419    0.8597    4.7833 C   0  0  0  0  0  0  0  0  0  0  0  0
   -3.3011    0.9667    5.7250 H   0  0  0  0  0  0  0  0  0  0  0  0
   -3.0893    1.6357    3.6651 C   0  0  0  0  0  0  0  0  0  0  0  0
   -3.9212    2.3535    3.7245 H   0  0  0  0  0  0  0  0  0  0  0  0
   -2.3803    1.4961    2.4657 C   0  0  0  0  0  0  0  0  0  0  0  0
   -2.6618    2.1043    1.5918 H   0  0  0  0  0  0  0  0  0  0  0  0
    0.0895    2.1395    0.4341 C   0  0  0  0  0  0  0  0  0  0  0  0
    0.5615    2.9028    1.5234 C   0  0  0  0  0  0  0  0  0  0  0  0
    0.5470    2.4782    2.5375 H   0  0  0  0  0  0  0  0  0  0  0  0
    1.0420    4.2015    1.3116 C   0  0  0  0  0  0  0  0  0  0  0  0
    1.4049    4.7942    2.1651 H   0  0  0  0  0  0  0  0  0  0  0  0
    1.0594    4.7450    0.0166 C   0  0  0  0  0  0  0  0  0  0  0  0
    1.4380    5.7654   -0.1471 H   0  0  0  0  0  0  0  0  0  0  0  0
    0.5935    3.9875   -1.0683 C   0  0  0  0  0  0  0  0  0  0  0  0
    0.6089    4.4064   -2.0852 H   0  0  0  0  0  0  0  0  0  0  0  0
    0.1040    2.6899   -0.8611 C   0  0  0  0  0  0  0  0  0  0  0  0
   -0.2644    2.0986   -1.7105 H   0  0  0  0  0  0  0  0  0  0  0  0
    3.4387   -1.8633    0.1972 C   0  0  0  0  0  0  0  0  0  0  0  0
    3.1499   -3.2096    0.5189 C   0  0  0  0  0  0  0  0  0  0  0  0
    2.1453   -3.6144    0.3230 H   0  0  0  0  0  0  0  0  0  0  0  0
    4.1380   -4.0293    1.0812 C   0  0  0  0  0  0  0  0  0  0  0  0
    3.8990   -5.0730    1.3360 H   0  0  0  0  0  0  0  0  0  0  0  0
    5.4310   -3.5271    1.3017 C   0  0  0  0  0  0  0  0  0  0  0  0
    6.2092   -4.1751    1.7328 H   0  0  0  0  0  0  0  0  0  0  0  0
    5.7305   -2.1999    0.9578 C   0  0  0  0  0  0  0  0  0  0  0  0
    6.7453   -1.8039    1.1170 H   0  0  0  0  0  0  0  0  0  0  0  0
    4.7408   -1.3688    0.4104 C   0  0  0  0  0  0  0  0  0  0  0  0
    4.9870   -0.3312    0.1424 H   0  0  0  0  0  0  0  0  0  0  0  0
    2.8336    0.7286   -0.9900 C   0  0  0  0  0  0  0  0  0  0  0  0
    3.3745    1.6482   -0.0636 C   0  0  0  0  0  0  0  0  0  0  0  0
    3.3375    1.4309    1.0118 H   0  0  0  0  0  0  0  0  0  0  0  0
    3.9456    2.8465   -0.5131 C   0  0  0  0  0  0  0  0  0  0  0  0
    4.3509    3.5621    0.2182 H   0  0  0  0  0  0  0  0  0  0  0  0
    3.9971    3.1383   -1.8863 C   0  0  0  0  0  0  0  0  0  0  0  0
    4.4479    4.0810   -2.2324 H   0  0  0  0  0  0  0  0  0  0  0  0
    3.4660    2.2300   -2.8134 C   0  0  0  0  0  0  0  0  0  0  0  0
    3.4977    2.4539   -3.8905 H   0  0  0  0  0  0  0  0  0  0  0  0
    2.8822    1.0343   -2.3677 C   0  0  0  0  0  0  0  0  0  0  0  0
    2.4421    0.3333   -3.0931 H   0  0  0  0  0  0  0  0  0  0  0  0
  1  3  1  0  0  0  0
  1  6  1  0  0  0  0
  2 28  1  0  0  0  0
  2  3  1  0  0  0  0
  3  4  1  0  0  0  0
  3  5  1  0  0  0  0
  6 15  2  0  0  0  0
  6  7  1  0  0  0  0
  7  9  2  0  0  0  0
  8  7  1  0  0  0  0
  9 11  1  0  0  0  0
  9 10  1  0  0  0  0
 11 12  1  0  0  0  0
 13 14  1  0  0  0  0
 13 11  2  0  0  0  0
 15 13  1  0  0  0  0
 16 15  1  0  0  0  0
 17  1  1  0  0  0  0
 17 18  1  0  0  0  0
 18 19  1  0  0  0  0
 20 18  2  0  0  0  0
 20 21  1  0  0  0  0
 22 20  1  0  0  0  0
 23 22  1  0  0  0  0
 24 26  1  0  0  0  0
 24 22  2  0  0  0  0
 25 24  1  0  0  0  0
 26 17  2  0  0  0  0
 27 26  1  0  0  0  0
 28 37  2  0  0  0  0
 28 29  1  0  0  0  0
 29 31  2  0  0  0  0
 30 29  1  0  0  0  0
 31 33  1  0  0  0  0
 31 32  1  0  0  0  0
 33 34  1  0  0  0  0
 35 36  1  0  0  0  0
 35 33  2  0  0  0  0
 37 35  1  0  0  0  0
 38 37  1  0  0  0  0
 39  2  1  0  0  0  0
 39 40  1  0  0  0  0
 40 41  1  0  0  0  0
 42 40  2  0  0  0  0
 42 43  1  0  0  0  0
 44 42  1  0  0  0  0
 45 44  1  0  0  0  0
 46 48  1  0  0  0  0
 46 44  2  0  0  0  0
 47 46  1  0  0  0  0
 48 39  2  0  0  0  0
 49 48  1  0  0  0  0
M  END
