1
q = 0.0, confidence = 0.992

 55 59  0  0  0  0  0  0  0  0999 V2000
    1.3213   -1.2361    0.3377 P   0  0  0  0  0  0  0  0  0  0  0  0
    0.2181    1.6855    0.2347 N   0  0  0  0  0  2  0  0  0  0  0  0
    2.2235    0.3237    0.3997 C   0  0  0  0  0  0  0  0  0  0  0  0
    3.5704    0.5467    0.3131 C   0  0  0  0  0  0  0  0  0  0  0  0
    3.8173    1.9879    0.1452 C   0  0  0  0  0  0  0  0  0  0  0  0
    5.0127    2.7036    0.0316 C   0  0  0  0  0  3  0  0  0  0  0  0
    4.9450    4.1038   -0.1321 C   0  0  0  0  0  0  0  0  0  0  0  0
    3.7085    4.7655   -0.1788 C   0  0  0  0  0  0  0  0  0  0  0  0
    2.4966    4.0480   -0.0644 C   0  0  0  0  0  0  0  0  0  0  0  0
    2.5621    2.6623    0.0951 C   0  0  0  0  0  0  0  0  0  0  0  0
    1.5045    1.6206    0.2445 C   0  0  0  0  0  0  0  0  0  0  0  0
   -0.4872    2.8824    0.0239 C   0  0  0  0  0  0  0  0  0  0  0  0
   -0.8874    3.6537    1.1476 C   0  0  0  0  0  0  0  0  0  0  0  0
   -1.6652    4.8037    0.9232 C   0  0  0  0  0  0  0  0  0  0  0  0
   -2.0375    5.1831   -0.3736 C   0  0  0  0  0  0  0  0  0  0  0  0
   -1.6327    4.4050   -1.4676 C   0  0  0  0  0  0  0  0  0  0  0  0
   -0.8579    3.2423   -1.3011 C   0  0  0  0  0  0  0  0  0  0  0  0
   -0.4594    3.2410    2.5316 C   0  0  0  0  0  0  0  0  0  0  0  0
   -0.4413    2.3966   -2.4740 C   0  0  0  0  0  0  0  0  0  0  0  0
    2.5798   -2.5539    0.5706 C   0  0  0  0  0  0  0  0  0  0  0  0
    2.8922   -3.4515   -0.4682 C   0  0  0  0  0  0  0  0  0  0  0  0
    3.8496   -4.4550   -0.2527 C   0  0  0  0  0  0  0  0  0  0  0  0
    4.4975   -4.5642    0.9872 C   0  0  0  0  0  0  0  0  0  0  0  0
    4.1857   -3.6686    2.0238 C   0  0  0  0  0  0  0  0  0  0  0  0
    3.2242   -2.6687    1.8215 C   0  0  0  0  0  0  0  0  0  0  0  0
    0.3650   -1.3150    1.9077 C   0  0  0  0  0  0  0  0  0  0  0  0
   -0.5664   -2.3608    2.0688 C   0  0  0  0  0  0  0  0  0  0  0  0
   -1.3028   -2.4719    3.2561 C   0  0  0  0  0  0  0  0  0  0  0  0
   -1.1174   -1.5383    4.2901 C   0  0  0  0  0  0  0  0  0  0  0  0
   -0.1867   -0.4994    4.1351 C   0  0  0  0  0  0  0  0  0  0  0  0
    0.5564   -0.3876    2.9488 C   0  0  0  0  0  0  0  0  0  0  0  0
    4.3499   -0.2271    0.3319 H   0  0  0  0  0  0  0  0  0  0  0  0
    5.9847    2.1884    0.0627 H   0  0  0  0  0  0  0  0  0  0  0  0
    5.8753    4.6837   -0.2282 H   0  0  0  0  0  0  0  0  0  0  0  0
    3.6794    5.8571   -0.3126 H   0  0  0  0  0  0  0  0  0  0  0  0
    1.5293    4.5674   -0.1096 H   0  0  0  0  0  0  0  0  0  0  0  0
   -1.9784    5.4082    1.7893 H   0  0  0  0  0  0  0  0  0  0  0  0
   -2.6467    6.0854   -0.5325 H   0  0  0  0  0  0  0  0  0  0  0  0
   -1.9228    4.6977   -2.4890 H   0  0  0  0  0  0  0  0  0  0  0  0
   -0.7273    2.1838    2.7369 H   0  0  0  0  0  0  0  0  0  0  0  0
   -0.9297    3.8800    3.3033 H   0  0  0  0  0  0  0  0  0  0  0  0
    0.6427    3.3150    2.6572 H   0  0  0  0  0  0  0  0  0  0  0  0
   -0.9725    1.4202   -2.4952 H   0  0  0  0  0  0  0  0  0  0  0  0
    0.6388    2.1459   -2.4589 H   0  0  0  0  0  0  0  0  0  0  0  0
   -0.6598    2.9102   -3.4291 H   0  0  0  0  0  0  0  0  0  0  0  0
    2.4063   -3.3351   -1.4482 H   0  0  0  0  0  0  0  0  0  0  0  0
    4.0914   -5.1547   -1.0669 H   0  0  0  0  0  0  0  0  0  0  0  0
    5.2483   -5.3527    1.1497 H   0  0  0  0  0  0  0  0  0  0  0  0
    4.6884   -3.7529    2.9992 H   0  0  0  0  0  0  0  0  0  0  0  0
    2.9676   -1.9807    2.6416 H   0  0  0  0  0  0  0  0  0  0  0  0
   -0.7187   -3.0871    1.2551 H   0  0  0  0  0  0  0  0  0  0  0  0
   -2.0313   -3.2883    3.3722 H   0  0  0  0  0  0  0  0  0  0  0  0
   -1.7023   -1.6210    5.2185 H   0  0  0  0  0  0  0  0  0  0  0  0
   -0.0379    0.2348    4.9414 H   0  0  0  0  0  0  0  0  0  0  0  0
    1.2843    0.4282    2.8296 H   0  0  0  0  0  0  0  0  0  0  0  0
  1  3  1  0  0  0  0
  1 20  1  0  0  0  0
  1 26  1  0  0  0  0
  2 11  1  0  0  0  0
  4 32  1  0  0  0  0
  4  3  1  0  0  0  0
  5  4  2  0  0  0  0
  6 33  1  0  0  0  0
  6  5  1  0  0  0  0
  7  6  1  0  0  0  0
  8  7  2  0  0  0  0
  8  9  1  0  0  0  0
  9 10  2  0  0  0  0
 10  5  1  0  0  0  0
 10 11  1  0  0  0  0
 11  3  2  0  0  0  0
 12  2  1  0  0  0  0
 12 13  1  0  0  0  0
 13 18  1  0  0  0  0
 14 13  2  0  0  0  0
 14 37  1  0  0  0  0
 15 14  1  0  0  0  0
 16 17  1  0  0  0  0
 16 15  2  0  0  0  0
 17 12  2  0  0  0  0
 18 42  1  0  0  0  0
 18 40  1  0  0  0  0
 18 41  1  0  0  0  0
 19 44  1  0  0  0  0
 19 17  1  0  0  0  0
 20 25  1  0  0  0  0
 21 22  1  0  0  0  0
 21 20  2  0  0  0  0
 22 23  2  0  0  0  0
 23 48  1  0  0  0  0
 23 24  1  0  0  0  0
 24 49  1  0  0  0  0
 25 24  2  0  0  0  0
 25 50  1  0  0  0  0
 26 27  2  0  0  0  0
 26 31  1  0  0  0  0
 27 28  1  0  0  0  0
 28 52  1  0  0  0  0
 28 29  2  0  0  0  0
 29 53  1  0  0  0  0
 30 29  1  0  0  0  0
 30 54  1  0  0  0  0
 31 30  2  0  0  0  0
 34  7  1  0  0  0  0
 35  8  1  0  0  0  0
 36  9  1  0  0  0  0
 38 15  1  0  0  0  0
 39 16  1  0  0  0  0
 43 19  1  0  0  0  0
 45 19  1  0  0  0  0
 46 21  1  0  0  0  0
 47 22  1  0  0  0  0
 51 27  1  0  0  0  0
 55 31  1  0  0  0  0
M  END
