1
q = 0.0, confidence = 1.0

 33 34  0  0  0  0  0  0  0  0999 V2000
    2.3076   -0.2203   -0.2270 P   0  0  0  0  0  0  0  0  0  0  0  0
    2.7357   -0.1535    2.4343 F   0  0  0  0  0  0  0  0  0  0  0  0
    4.4233    2.3615    0.6396 F   0  0  0  0  0  0  0  0  0  0  0  0
    2.2751    2.4538    0.9669 F   0  0  0  0  0  0  0  0  0  0  0  0
    3.6099    2.2735    2.6704 F   0  0  0  0  0  0  0  0  0  0  0  0
    5.5203    0.3889    2.3664 F   0  0  0  0  0  0  0  0  0  0  0  0
    4.7882   -1.5516    1.7344 F   0  0  0  0  0  0  0  0  0  0  0  0
    5.5002   -0.1258    0.2492 F   0  0  0  0  0  0  0  0  0  0  0  0
    2.9958    0.7373   -1.6273 C   0  0  0  0  0  0  0  0  0  0  0  0
    2.2414    1.8476   -2.0642 C   0  0  0  0  0  0  0  0  0  0  0  0
    1.2784    2.0674   -1.5791 H   0  0  0  0  0  0  0  0  0  0  0  0
    2.7104    2.6449   -3.1149 C   0  0  0  0  0  0  0  0  0  0  0  0
    2.1162    3.5087   -3.4482 H   0  0  0  0  0  0  0  0  0  0  0  0
    3.9248    2.3351   -3.7477 C   0  0  0  0  0  0  0  0  0  0  0  0
    4.2888    2.9586   -4.5784 H   0  0  0  0  0  0  0  0  0  0  0  0
    4.6718    1.2258   -3.3231 C   0  0  0  0  0  0  0  0  0  0  0  0
    5.6222    0.9761   -3.8183 H   0  0  0  0  0  0  0  0  0  0  0  0
    4.2157    0.4289   -2.2632 C   0  0  0  0  0  0  0  0  0  0  0  0
    4.8145   -0.4303   -1.9370 H   0  0  0  0  0  0  0  0  0  0  0  0
    2.6769   -2.0003   -0.4148 C   0  0  0  0  0  0  0  0  0  0  0  0
    2.9864   -2.5687   -1.6653 C   0  0  0  0  0  0  0  0  0  0  0  0
    3.1011   -1.9298   -2.5509 H   0  0  0  0  0  0  0  0  0  0  0  0
    3.1076   -3.9613   -1.7856 C   0  0  0  0  0  0  0  0  0  0  0  0
    3.3490   -4.4004   -2.7652 H   0  0  0  0  0  0  0  0  0  0  0  0
    2.9051   -4.7894   -0.6719 C   0  0  0  0  0  0  0  0  0  0  0  0
    2.9972   -5.8814   -0.7729 H   0  0  0  0  0  0  0  0  0  0  0  0
    2.5657   -4.2240    0.5684 C   0  0  0  0  0  0  0  0  0  0  0  0
    2.3879   -4.8696    1.4415 H   0  0  0  0  0  0  0  0  0  0  0  0
    2.4399   -2.8357    0.6989 C   0  0  0  0  0  0  0  0  0  0  0  0
    2.1553   -2.3966    1.6658 H   0  0  0  0  0  0  0  0  0  0  0  0
    3.3719    0.3260    1.3115 C   0  0  0  0  0  0  0  0  0  0  0  0
    3.4131    1.8884    1.4031 C   0  0  0  0  0  0  0  0  0  0  0  0
    4.8222   -0.2509    1.4054 C   0  0  0  0  0  0  0  0  0  0  0  0
  1 31  1  0  0  0  0
  3 32  1  0  0  0  0
  4 32  1  0  0  0  0
  8 33  1  0  0  0  0
  9  1  1  0  0  0  0
 10  9  1  0  0  0  0
 10 11  1  0  0  0  0
 12 10  2  0  0  0  0
 13 12  1  0  0  0  0
 14 16  2  0  0  0  0
 14 12  1  0  0  0  0
 15 14  1  0  0  0  0
 16 18  1  0  0  0  0
 17 16  1  0  0  0  0
 18 19  1  0  0  0  0
 18  9  2  0  0  0  0
 20  1  1  0  0  0  0
 20 29  1  0  0  0  0
 21 20  2  0  0  0  0
 22 21  1  0  0  0  0
 23 21  1  0  0  0  0
 23 25  2  0  0  0  0
 24 23  1  0  0  0  0
 25 27  1  0  0  0  0
 26 25  1  0  0  0  0
 27 29  2  0  0  0  0
 27 28  1  0  0  0  0
 29 30  1  0  0  0  0
 31 32  1  0  0  0  0
 31 33  1  0  0  0  0
 31  2  1  0  0  0  0
 32  5  1  0  0  0  0
 33  7  1  0  0  0  0
 33  6  1  0  0  0  0
M  END
