1
q = 0.0, confidence = 0.998

 32 33  0  0  0  0  0  0  0  0999 V2000
   -2.0846   -0.0395   -0.6666 P   0  0  0  0  0  0  0  0  0  0  0  0
   -0.6907   -2.1752   -2.4339 O   0  0  0  0  0  0  0  0  0  0  0  0
   -2.1821   -0.2950   -2.5177 C   0  0  0  0  0  0  0  0  0  0  0  0
   -1.0143   -1.1464   -3.0171 C   0  0  0  0  0  0  0  0  0  0  0  0
   -0.2773   -0.6423   -4.2293 C   0  0  0  0  0  0  0  0  0  0  0  0
   -2.9462    1.5536   -0.3852 C   0  0  0  0  0  0  0  0  0  0  0  0
   -4.2368    1.7950   -0.9003 C   0  0  0  0  0  0  0  0  0  0  0  0
   -4.8783    3.0150   -0.6436 C   0  0  0  0  0  0  0  0  0  0  0  0
   -4.2392    3.9945    0.1355 C   0  0  0  0  0  0  0  0  0  0  0  0
   -2.9572    3.7538    0.6533 C   0  0  0  0  0  0  0  0  0  0  0  0
   -2.3052    2.5391    0.3918 C   0  0  0  0  0  0  0  0  0  0  0  0
   -3.2258   -1.2863    0.0451 C   0  0  0  0  0  0  0  0  0  0  0  0
   -3.1428   -2.6272   -0.3841 C   0  0  0  0  0  0  0  0  0  0  0  0
   -3.9650   -3.6005    0.1997 C   0  0  0  0  0  0  0  0  0  0  0  0
   -4.8584   -3.2519    1.2257 C   0  0  0  0  0  0  0  0  0  0  0  0
   -4.9224   -1.9231    1.6726 C   0  0  0  0  0  0  0  0  0  0  0  0
   -4.1067   -0.9418    1.0895 C   0  0  0  0  0  0  0  0  0  0  0  0
   -2.1886    0.7066   -2.9859 H   0  0  0  0  0  0  0  0  0  0  0  0
   -3.1318   -0.8171   -2.7609 H   0  0  0  0  0  0  0  0  0  0  0  0
   -4.7487    1.0222   -1.4948 H   0  0  0  0  0  0  0  0  0  0  0  0
   -5.8841    3.2009   -1.0501 H   0  0  0  0  0  0  0  0  0  0  0  0
   -4.7454    4.9508    0.3384 H   0  0  0  0  0  0  0  0  0  0  0  0
   -2.4517    4.5177    1.2631 H   0  0  0  0  0  0  0  0  0  0  0  0
   -1.2905    2.3589    0.7785 H   0  0  0  0  0  0  0  0  0  0  0  0
   -2.4087   -2.9000   -1.1584 H   0  0  0  0  0  0  0  0  0  0  0  0
   -3.8981   -4.6445   -0.1431 H   0  0  0  0  0  0  0  0  0  0  0  0
   -5.5010   -4.0194    1.6836 H   0  0  0  0  0  0  0  0  0  0  0  0
   -5.6128   -1.6449    2.4835 H   0  0  0  0  0  0  0  0  0  0  0  0
   -4.1590    0.0974    1.4463 H   0  0  0  0  0  0  0  0  0  0  0  0
    0.2878    0.2558   -3.8939 H   0  0  0  0  0  0  0  0  0  0  0  0
   -0.9726   -0.3161   -5.0291 H   0  0  0  0  0  0  0  0  0  0  0  0
    0.4237   -1.4113   -4.6006 H   0  0  0  0  0  0  0  0  0  0  0  0
  1  6  1  0  0  0  0
  1 12  1  0  0  0  0
  3  1  1  0  0  0  0
  4  3  1  0  0  0  0
  4  2  2  0  0  0  0
  5 30  1  0  0  0  0
  5  4  1  0  0  0  0
  6 11  1  0  0  0  0
  7  8  1  0  0  0  0
  7  6  2  0  0  0  0
  8  9  2  0  0  0  0
  9 22  1  0  0  0  0
  9 10  1  0  0  0  0
 10 23  1  0  0  0  0
 11 10  2  0  0  0  0
 11 24  1  0  0  0  0
 12 17  1  0  0  0  0
 13 12  2  0  0  0  0
 13 14  1  0  0  0  0
 14 15  2  0  0  0  0
 15 16  1  0  0  0  0
 15 27  1  0  0  0  0
 16 28  1  0  0  0  0
 17 29  1  0  0  0  0
 17 16  2  0  0  0  0
 18  3  1  0  0  0  0
 19  3  1  0  0  0  0
 20  7  1  0  0  0  0
 21  8  1  0  0  0  0
 25 13  1  0  0  0  0
 26 14  1  0  0  0  0
 31  5  1  0  0  0  0
 32  5  1  0  0  0  0
M  END
