1
q = 0.0, confidence = 1.0

 36 39  0  0  0  0  0  0  0  0999 V2000
   -1.0355    0.5381   -0.0000 P   0  0  0  0  0  0  0  0  0  0  0  0
    0.7621    0.1590   -0.0003 C   0  0  0  0  0  0  0  0  0  0  0  0
    1.2447   -1.5478   -0.0005 S   0  0  0  0  0  0  0  0  0  0  0  0
    1.7333    1.0342   -0.0001 N   0  0  0  0  0  0  0  0  0  0  0  0
    2.9063   -1.0170   -0.0003 C   0  0  0  0  0  0  0  0  0  0  0  0
    2.9594    0.4132   -0.0001 C   0  0  0  0  0  0  0  0  0  0  0  0
    4.2137    1.0659   -0.0000 C   0  0  0  0  0  0  0  0  0  0  0  0
    5.3792    0.2921   -0.0001 C   0  0  0  0  0  0  0  0  0  0  0  0
    5.3125   -1.1247   -0.0003 C   0  0  0  0  0  0  0  0  0  0  0  0
    4.0777   -1.7878   -0.0004 C   0  0  0  0  0  0  0  0  0  0  0  0
    4.2937    2.3965    0.0001 F   0  0  0  0  0  0  0  0  0  0  0  0
    6.5775    0.8778   -0.0000 F   0  0  0  0  0  0  0  0  0  0  0  0
    6.4486   -1.8215   -0.0004 F   0  0  0  0  0  0  0  0  0  0  0  0
    4.0370   -3.1228   -0.0006 F   0  0  0  0  0  0  0  0  0  0  0  0
   -1.2882    1.6117   -1.4657 C   0  0  0  0  0  0  0  0  0  0  0  0
   -2.4747    1.4362   -2.2064 C   0  0  0  0  0  0  0  0  0  0  0  0
   -2.7439    2.2710   -3.3011 C   0  0  0  0  0  0  0  0  0  0  0  0
   -1.8309    3.2737   -3.6617 C   0  0  0  0  0  0  0  0  0  0  0  0
   -0.6448    3.4424   -2.9279 C   0  0  0  0  0  0  0  0  0  0  0  0
   -0.3686    2.6178   -1.8283 C   0  0  0  0  0  0  0  0  0  0  0  0
   -1.2876    1.6107    1.4665 C   0  0  0  0  0  0  0  0  0  0  0  0
   -2.4712    1.4315    2.2110 C   0  0  0  0  0  0  0  0  0  0  0  0
   -2.7395    2.2653    3.3066 C   0  0  0  0  0  0  0  0  0  0  0  0
   -1.8284    3.2708    3.6644 C   0  0  0  0  0  0  0  0  0  0  0  0
   -0.6452    3.4433    2.9267 C   0  0  0  0  0  0  0  0  0  0  0  0
   -0.3700    2.6197    1.8262 C   0  0  0  0  0  0  0  0  0  0  0  0
   -3.1813    0.6392   -1.9246 H   0  0  0  0  0  0  0  0  0  0  0  0
   -3.6703    2.1301   -3.8777 H   0  0  0  0  0  0  0  0  0  0  0  0
   -2.0412    3.9249   -4.5237 H   0  0  0  0  0  0  0  0  0  0  0  0
    0.0760    4.2226   -3.2155 H   0  0  0  0  0  0  0  0  0  0  0  0
    0.5693    2.7373   -1.2663 H   0  0  0  0  0  0  0  0  0  0  0  0
   -3.1762    0.6324    1.9313 H   0  0  0  0  0  0  0  0  0  0  0  0
   -3.6636    2.1215    3.8862 H   0  0  0  0  0  0  0  0  0  0  0  0
   -2.0380    3.9213    4.5271 H   0  0  0  0  0  0  0  0  0  0  0  0
    0.0740    4.2258    3.2121 H   0  0  0  0  0  0  0  0  0  0  0  0
    0.5657    2.7422    1.2612 H   0  0  0  0  0  0  0  0  0  0  0  0
  1 21  1  0  0  0  0
  2  4  2  0  0  0  0
  2  1  1  0  0  0  0
  3  5  1  0  0  0  0
  3  2  1  0  0  0  0
  5  6  1  0  0  0  0
  6  4  1  0  0  0  0
  6  7  2  0  0  0  0
  7 11  1  0  0  0  0
  8  7  1  0  0  0  0
  8 12  1  0  0  0  0
  9  8  2  0  0  0  0
 10  5  2  0  0  0  0
 10  9  1  0  0  0  0
 13  9  1  0  0  0  0
 14 10  1  0  0  0  0
 15  1  1  0  0  0  0
 16 27  1  0  0  0  0
 16 15  2  0  0  0  0
 17 16  1  0  0  0  0
 18 17  2  0  0  0  0
 18 19  1  0  0  0  0
 19 20  2  0  0  0  0
 20 15  1  0  0  0  0
 20 31  1  0  0  0  0
 21 26  2  0  0  0  0
 21 22  1  0  0  0  0
 22 23  2  0  0  0  0
 23 24  1  0  0  0  0
 23 33  1  0  0  0  0
 24 34  1  0  0  0  0
 25 35  1  0  0  0  0
 25 24  2  0  0  0  0
 26 25  1  0  0  0  0
 28 17  1  0  0  0  0
 29 18  1  0  0  0  0
 30 19  1  0  0  0  0
 32 22  1  0  0  0  0
 36 26  1  0  0  0  0
M  END
