1
q = 0.0, confidence = 1.0

 20 21  0  0  0  0  0  0  0  0999 V2000
    1.7245   -0.4149   -0.1216 P   0  0  1  0  0  0  0  0  0  0  0  0
    1.3538   -1.6653   -1.0864 F   0  0  0  0  0  0  0  0  0  0  0  0
    2.4933   -1.2013    1.0770 O   0  0  0  0  0  0  0  0  0  0  0  0
    4.1248   -2.5018    1.9025 O   0  0  0  0  0  0  0  0  0  0  0  0
    2.9790    0.3430   -0.9731 N   0  0  0  0  0  0  0  0  0  0  0  0
    3.8181   -1.7073    1.0528 C   0  0  0  0  0  0  0  0  0  0  0  0
    4.6906   -1.1580   -0.0027 C   0  0  0  0  0  0  0  0  0  0  0  0
    6.0193   -1.6373   -0.0182 C   0  0  0  0  0  0  0  0  0  0  0  0
    6.2821   -2.4037    0.7252 H   0  0  0  0  0  0  0  0  0  0  0  0
    6.9583   -1.1484   -0.9248 C   0  0  0  0  0  0  0  0  0  0  0  0
    7.9885   -1.5315   -0.9224 H   0  0  0  0  0  0  0  0  0  0  0  0
    6.5661   -0.1501   -1.8334 C   0  0  0  0  0  0  0  0  0  0  0  0
    7.2918    0.2569   -2.5539 H   0  0  0  0  0  0  0  0  0  0  0  0
    5.2570    0.3401   -1.8442 C   0  0  0  0  0  0  0  0  0  0  0  0
    4.9823    1.1148   -2.5699 H   0  0  0  0  0  0  0  0  0  0  0  0
    4.2883   -0.1571   -0.9401 C   0  0  0  0  0  0  0  0  0  0  0  0
    2.6420    1.4860   -1.8206 C   0  0  0  0  0  0  0  0  0  0  0  0
    1.5864    1.7611   -1.6375 H   0  0  0  0  0  0  0  0  0  0  0  0
    2.7694    1.2428   -2.8959 H   0  0  0  0  0  0  0  0  0  0  0  0
    3.2641    2.3616   -1.5498 H   0  0  0  0  0  0  0  0  0  0  0  0
  1  2  1  6  0  0  0
  1  3  1  0  0  0  0
  5 16  1  0  0  0  0
  5  1  1  0  0  0  0
  6  3  1  0  0  0  0
  6  4  2  0  0  0  0
  7  6  1  0  0  0  0
  8  7  1  0  0  0  0
  8  9  1  0  0  0  0
 10 11  1  0  0  0  0
 10  8  2  0  0  0  0
 12 10  1  0  0  0  0
 13 12  1  0  0  0  0
 14 12  2  0  0  0  0
 14 16  1  0  0  0  0
 15 14  1  0  0  0  0
 16  7  2  0  0  0  0
 17 18  1  0  0  0  0
 17 20  1  0  0  0  0
 17  5  1  0  0  0  0
 19 17  1  0  0  0  0
M  END
