1
q = 0.0, confidence = 0.992

 71 74  0  0  0  0  0  0  0  0999 V2000
   -1.2705    0.4431    0.5995 P   0  0  2  0  0  0  0  0  0  0  0  0
    4.4936    1.6998   -0.9482 O   0  0  0  0  0  0  0  0  0  0  0  0
    0.6571    4.0824   -0.9887 O   0  0  0  0  0  0  0  0  0  0  0  0
    1.4000   -1.0206   -2.1034 C   0  0  0  0  0  0  0  0  0  0  0  0
    1.4405    0.0538   -2.3682 H   0  0  0  0  0  0  0  0  0  0  0  0
    1.2986   -1.6021   -3.0387 H   0  0  0  0  0  0  0  0  0  0  0  0
    0.4643   -1.1741   -1.5229 H   0  0  0  0  0  0  0  0  0  0  0  0
    0.6524    1.8215   -0.5237 N   0  0  0  0  0  0  0  0  0  0  0  0
    2.0520   -0.8460    2.8391 C   0  0  0  0  0  0  0  0  0  0  0  0
    2.9316   -0.9638    2.1871 H   0  0  0  0  0  0  0  0  0  0  0  0
    2.0767    0.1643    3.2967 H   0  0  0  0  0  0  0  0  0  0  0  0
    2.1425   -1.5914    3.6547 H   0  0  0  0  0  0  0  0  0  0  0  0
    2.6619    0.6387   -0.0417 N   0  0  0  0  0  0  0  0  0  0  0  0
    2.6751    3.3186    1.4326 C   0  0  0  0  0  0  0  0  0  0  0  0
    2.1848    4.2839    1.6663 H   0  0  0  0  0  0  0  0  0  0  0  0
    2.1247    2.5109    1.9553 H   0  0  0  0  0  0  0  0  0  0  0  0
    3.7101    3.3444    1.8269 H   0  0  0  0  0  0  0  0  0  0  0  0
    3.1856   -2.7207   -1.6022 C   0  0  0  0  0  0  0  0  0  0  0  0
    2.7121   -3.3560   -2.3677 H   0  0  0  0  0  0  0  0  0  0  0  0
    0.7376   -1.0802    2.0723 C   0  0  0  0  0  0  0  0  0  0  0  0
   -3.2462    2.1762    1.0879 C   0  0  0  0  0  0  0  0  0  0  0  0
   -3.8697    2.8387    1.7198 H   0  0  0  0  0  0  0  0  0  0  0  0
    2.6197   -1.4624   -1.3370 C   0  0  0  0  0  0  0  0  0  0  0  0
    3.3940    1.7821   -0.4266 C   0  0  0  0  0  0  0  0  0  0  0  0
    4.3328   -3.1852   -0.9329 C   0  0  0  0  0  0  0  0  0  0  0  0
    0.7713   -2.4522    1.3587 C   0  0  0  0  0  0  0  0  0  0  0  0
   -0.1785   -2.6372    0.8153 H   0  0  0  0  0  0  0  0  0  0  0  0
    1.6074   -2.5243    0.6410 H   0  0  0  0  0  0  0  0  0  0  0  0
    0.8940   -3.2572    2.1118 H   0  0  0  0  0  0  0  0  0  0  0  0
   -3.0164    1.9779   -1.4252 C   0  0  0  0  0  0  0  0  0  0  0  0
   -3.6052    1.9862   -2.3594 H   0  0  0  0  0  0  0  0  0  0  0  0
    2.7085    3.1165   -0.1072 C   0  0  0  0  0  0  0  0  0  0  0  0
   -0.4019   -1.1247    3.1153 C   0  0  0  0  0  0  0  0  0  0  0  0
   -1.3987   -1.2547    2.6421 H   0  0  0  0  0  0  0  0  0  0  0  0
   -0.2501   -1.9926    3.7869 H   0  0  0  0  0  0  0  0  0  0  0  0
   -0.4151   -0.2138    3.7427 H   0  0  0  0  0  0  0  0  0  0  0  0
    4.9379   -2.3321    0.0045 C   0  0  0  0  0  0  0  0  0  0  0  0
    5.8556   -2.6610    0.5179 H   0  0  0  0  0  0  0  0  0  0  0  0
   -3.7667    1.9578   -0.2575 C   0  0  0  0  0  0  0  0  0  0  0  0
   -1.5904    2.1374   -1.6070 C   0  0  0  0  0  0  0  0  0  0  0  0
   -1.1070    2.8141   -2.8633 C   0  0  0  0  0  0  0  0  0  0  0  0
   -1.8021    2.5936   -3.6985 H   0  0  0  0  0  0  0  0  0  0  0  0
   -1.0501    3.9132   -2.7339 H   0  0  0  0  0  0  0  0  0  0  0  0
   -0.0932    2.4700   -3.1454 H   0  0  0  0  0  0  0  0  0  0  0  0
    3.4631    4.2639   -0.7823 C   0  0  0  0  0  0  0  0  0  0  0  0
    2.9377    5.2169   -0.5893 H   0  0  0  0  0  0  0  0  0  0  0  0
    4.4967    4.3163   -0.3938 H   0  0  0  0  0  0  0  0  0  0  0  0
    3.5201    4.1116   -1.8765 H   0  0  0  0  0  0  0  0  0  0  0  0
    1.2549    3.0906   -0.6067 C   0  0  0  0  0  0  0  0  0  0  0  0
   -0.7335    1.6176   -0.6652 C   0  0  0  0  0  0  0  0  0  0  0  0
    4.8877   -4.5571   -1.2193 C   0  0  0  0  0  0  0  0  0  0  0  0
    4.9389   -4.7536   -2.3093 H   0  0  0  0  0  0  0  0  0  0  0  0
    5.9030   -4.6852   -0.7972 H   0  0  0  0  0  0  0  0  0  0  0  0
    4.2406   -5.3467   -0.7814 H   0  0  0  0  0  0  0  0  0  0  0  0
   -1.5863    2.1258    2.9971 C   0  0  0  0  0  0  0  0  0  0  0  0
   -0.4930    2.3124    2.9483 H   0  0  0  0  0  0  0  0  0  0  0  0
   -2.0817    3.0626    3.3183 H   0  0  0  0  0  0  0  0  0  0  0  0
   -1.7450    1.3622    3.7862 H   0  0  0  0  0  0  0  0  0  0  0  0
    4.4200   -1.0596    0.3090 C   0  0  0  0  0  0  0  0  0  0  0  0
   -2.1140    1.6726    1.6682 C   0  0  0  0  0  0  0  0  0  0  0  0
    1.2906    0.7818    0.2522 C   0  0  0  0  0  0  0  0  0  0  0  0
    3.2300   -0.6546   -0.3424 C   0  0  0  0  0  0  0  0  0  0  0  0
    0.4615    0.0537    1.0751 C   0  0  0  0  0  0  0  0  0  0  0  0
   -5.2704    1.8558   -0.3555 C   0  0  0  0  0  0  0  0  0  0  0  0
   -5.6137    0.8826    0.0557 H   0  0  0  0  0  0  0  0  0  0  0  0
   -5.7689    2.6495    0.2402 H   0  0  0  0  0  0  0  0  0  0  0  0
   -5.6229    1.9241   -1.4022 H   0  0  0  0  0  0  0  0  0  0  0  0
    5.1623   -0.1656    1.2672 C   0  0  0  0  0  0  0  0  0  0  0  0
    4.4829    0.5005    1.8331 H   0  0  0  0  0  0  0  0  0  0  0  0
    5.7534   -0.7597    1.9902 H   0  0  0  0  0  0  0  0  0  0  0  0
    5.8529    0.4935    0.7020 H   0  0  0  0  0  0  0  0  0  0  0  0
  1 50  1  6  0  0  0
  1 63  1  0  0  0  0
  1 60  1  0  0  0  0
  2 24  2  0  0  0  0
  3 49  2  0  0  0  0
  4  7  1  0  0  0  0
  4 23  1  0  0  0  0
  5  4  1  0  0  0  0
  6  4  1  0  0  0  0
  8 61  1  0  0  0  0
  9 11  1  0  0  0  0
  9 12  1  0  0  0  0
 10  9  1  0  0  0  0
 13 61  1  0  0  0  0
 14 15  1  0  0  0  0
 14 17  1  0  0  0  0
 14 16  1  0  0  0  0
 18 23  2  0  0  0  0
 18 25  1  0  0  0  0
 19 18  1  0  0  0  0
 20  9  1  0  0  0  0
 20 33  1  0  0  0  0
 21 60  2  0  0  0  0
 21 22  1  0  0  0  0
 23 62  1  0  0  0  0
 24 32  1  0  0  0  0
 24 13  1  0  0  0  0
 25 37  2  0  0  0  0
 26 20  1  0  0  0  0
 26 29  1  0  0  0  0
 27 26  1  0  0  0  0
 28 26  1  0  0  0  0
 30 39  2  0  0  0  0
 31 30  1  0  0  0  0
 32 14  1  0  0  0  0
 33 36  1  0  0  0  0
 33 35  1  0  0  0  0
 34 33  1  0  0  0  0
 37 59  1  0  0  0  0
 37 38  1  0  0  0  0
 39 21  1  0  0  0  0
 40 30  1  0  0  0  0
 40 50  2  0  0  0  0
 41 43  1  0  0  0  0
 41 40  1  0  0  0  0
 42 41  1  0  0  0  0
 44 41  1  0  0  0  0
 45 46  1  0  0  0  0
 45 47  1  0  0  0  0
 45 32  1  0  0  0  0
 48 45  1  0  0  0  0
 49  8  1  0  0  0  0
 49 32  1  0  0  0  0
 50  8  1  0  0  0  0
 51 25  1  0  0  0  0
 51 53  1  0  0  0  0
 51 54  1  0  0  0  0
 52 51  1  0  0  0  0
 55 57  1  0  0  0  0
 55 58  1  0  0  0  0
 56 55  1  0  0  0  0
 59 68  1  0  0  0  0
 60 55  1  0  0  0  0
 61 63  2  0  0  0  0
 62 13  1  0  0  0  0
 62 59  2  0  0  0  0
 63 20  1  0  0  0  0
 64 39  1  0  0  0  0
 64 65  1  0  0  0  0
 64 66  1  0  0  0  0
 67 64  1  0  0  0  0
 68 69  1  0  0  0  0
 68 70  1  0  0  0  0
 71 68  1  0  0  0  0
M  END
