1
q = 0.0, confidence = 0.99

 43 44  0  0  1  0  0  0  0  0999 V2000
   -0.5435    0.2789   -0.3869 P   0  0  1  0  0  0  0  0  0  0  0  0
   -3.4534   -0.3284   -1.4283 Si  0  0  0  0  0  0  0  0  0  0  0  0
   -2.8158    0.4846    1.7261 Si  0  0  0  0  0  0  0  0  0  0  0  0
   -0.6392    1.1847   -1.8586 O   0  0  0  0  0  0  0  0  0  0  0  0
   -0.6035    2.0731   -0.7183 C   0  0  2  0  0  0  0  0  0  0  0  0
   -1.5797    2.5567   -0.5044 H   0  0  0  0  0  0  0  0  0  0  0  0
    0.5902    2.9375   -0.5403 C   0  0  0  0  0  0  0  0  0  0  0  0
    1.7238    2.7860   -1.3621 C   0  0  0  0  0  0  0  0  0  0  0  0
    1.6850    2.0702   -2.1940 H   0  0  0  0  0  0  0  0  0  0  0  0
    2.8742    3.5514   -1.1237 C   0  0  0  0  0  0  0  0  0  0  0  0
    3.7556    3.4225   -1.7700 H   0  0  0  0  0  0  0  0  0  0  0  0
    2.9039    4.4735   -0.0659 C   0  0  0  0  0  0  0  0  0  0  0  0
    3.8109    5.0660    0.1262 H   0  0  0  0  0  0  0  0  0  0  0  0
    1.7668    4.6451    0.7417 C   0  0  0  0  0  0  0  0  0  0  0  0
    1.7800    5.3756    1.5646 H   0  0  0  0  0  0  0  0  0  0  0  0
    0.6133    3.8876    0.5023 C   0  0  0  0  0  0  0  0  0  0  0  0
   -0.2782    4.0272    1.1344 H   0  0  0  0  0  0  0  0  0  0  0  0
   -2.2198   -0.2817    0.0539 C   0  0  0  0  0  0  0  0  0  0  0  0
   -2.0672   -1.3606    0.2866 H   0  0  0  0  0  0  0  0  0  0  0  0
   -3.8773    1.3818   -2.1080 C   0  0  0  0  0  0  0  0  0  0  0  0
   -4.3234    2.0536   -1.3502 H   0  0  0  0  0  0  0  0  0  0  0  0
   -4.6138    1.2670   -2.9306 H   0  0  0  0  0  0  0  0  0  0  0  0
   -2.9708    1.8605   -2.5273 H   0  0  0  0  0  0  0  0  0  0  0  0
   -5.0259   -1.1862   -0.8120 C   0  0  0  0  0  0  0  0  0  0  0  0
   -5.5516   -0.5927   -0.0369 H   0  0  0  0  0  0  0  0  0  0  0  0
   -4.8027   -2.1860   -0.3866 H   0  0  0  0  0  0  0  0  0  0  0  0
   -5.7300   -1.3299   -1.6577 H   0  0  0  0  0  0  0  0  0  0  0  0
   -2.6590   -1.3634   -2.7939 C   0  0  0  0  0  0  0  0  0  0  0  0
   -2.3546   -2.3661   -2.4317 H   0  0  0  0  0  0  0  0  0  0  0  0
   -1.7593   -0.8514   -3.1915 H   0  0  0  0  0  0  0  0  0  0  0  0
   -3.3686   -1.5051   -3.6352 H   0  0  0  0  0  0  0  0  0  0  0  0
   -3.6535   -0.9019    2.6977 C   0  0  0  0  0  0  0  0  0  0  0  0
   -2.9232   -1.7078    2.9167 H   0  0  0  0  0  0  0  0  0  0  0  0
   -4.5043   -1.3442    2.1425 H   0  0  0  0  0  0  0  0  0  0  0  0
   -4.0371   -0.5207    3.6665 H   0  0  0  0  0  0  0  0  0  0  0  0
   -1.3524    1.1392    2.7357 C   0  0  0  0  0  0  0  0  0  0  0  0
   -0.7663    1.9127    2.2006 H   0  0  0  0  0  0  0  0  0  0  0  0
   -0.6556    0.3298    3.0275 H   0  0  0  0  0  0  0  0  0  0  0  0
   -1.7387    1.5983    3.6697 H   0  0  0  0  0  0  0  0  0  0  0  0
   -4.0185    1.9209    1.4549 C   0  0  0  0  0  0  0  0  0  0  0  0
   -3.5566    2.7486    0.8794 H   0  0  0  0  0  0  0  0  0  0  0  0
   -4.3201    2.3295    2.4417 H   0  0  0  0  0  0  0  0  0  0  0  0
   -4.9398    1.6073    0.9251 H   0  0  0  0  0  0  0  0  0  0  0  0
  1 18  1  1  0  0  0
  2 24  1  0  0  0  0
  2 18  1  0  0  0  0
  3 32  1  0  0  0  0
  3 36  1  0  0  0  0
  4  5  1  0  0  0  0
  4  1  1  0  0  0  0
  5  7  1  0  0  0  0
  5  6  1  1  0  0  0
  5  1  1  0  0  0  0
  7 16  1  0  0  0  0
  8 10  1  0  0  0  0
  8  7  2  0  0  0  0
  9  8  1  0  0  0  0
 10 12  2  0  0  0  0
 11 10  1  0  0  0  0
 12 13  1  0  0  0  0
 12 14  1  0  0  0  0
 14 15  1  0  0  0  0
 16 14  2  0  0  0  0
 16 17  1  0  0  0  0
 18 19  1  0  0  0  0
 18  3  1  0  0  0  0
 20  2  1  0  0  0  0
 20 21  1  0  0  0  0
 22 20  1  0  0  0  0
 23 20  1  0  0  0  0
 24 26  1  0  0  0  0
 24 25  1  0  0  0  0
 27 24  1  0  0  0  0
 28 29  1  0  0  0  0
 28  2  1  0  0  0  0
 30 28  1  0  0  0  0
 31 28  1  0  0  0  0
 32 33  1  0  0  0  0
 32 35  1  0  0  0  0
 34 32  1  0  0  0  0
 36 38  1  0  0  0  0
 36 39  1  0  0  0  0
 37 36  1  0  0  0  0
 40  3  1  0  0  0  0
 40 42  1  0  0  0  0
 41 40  1  0  0  0  0
 43 40  1  0  0  0  0
M  END
