1
q = 0.0, confidence = 0.996

 80 88  0  0  0  0  0  0  0  0999 V2000
    2.1954    0.8802    0.0841 P   0  0  2  0  0  0  0  0  0  0  0  0
   -1.3477   -3.0424    0.3117 C   0  0  0  0  0  0  0  0  0  0  0  0
   -2.4147   -2.4537   -0.4787 C   0  0  0  0  0  0  0  0  0  0  0  0
   -2.5632   -4.5768   -1.7501 C   0  0  0  0  0  0  0  0  0  0  0  0
   -3.1009   -5.1978   -2.4829 H   0  0  0  0  0  0  0  0  0  0  0  0
   -4.6527    0.6297   -0.5673 C   0  0  0  0  0  0  0  0  0  0  0  0
   -0.4866   -0.1637   -0.1469 C   0  0  0  0  0  0  0  0  0  0  0  0
   -0.0742   -1.1326   -0.4556 H   0  0  0  0  0  0  0  0  0  0  0  0
    2.2423    2.6578    0.5202 C   0  0  0  0  0  0  0  0  0  0  0  0
   -4.3007    4.0075   -0.7252 C   0  0  0  0  0  0  0  0  0  0  0  0
   -3.2498    4.0911   -1.0756 H   0  0  0  0  0  0  0  0  0  0  0  0
   -4.8711    3.6374   -1.6042 H   0  0  0  0  0  0  0  0  0  0  0  0
   -2.8143   -1.0579   -0.4386 C   0  0  0  0  0  0  0  0  0  0  0  0
   -0.1318    2.1763    0.4890 C   0  0  0  0  0  0  0  0  0  0  0  0
   -2.4165    1.3368    0.1506 C   0  0  0  0  0  0  0  0  0  0  0  0
    0.7776    4.5263    1.0687 C   0  0  0  0  0  0  0  0  0  0  0  0
   -0.2271    4.9480    1.2235 H   0  0  0  0  0  0  0  0  0  0  0  0
    0.9311    3.1724    0.7149 C   0  0  0  0  0  0  0  0  0  0  0  0
   -1.8982    0.0200   -0.1153 C   0  0  0  0  0  0  0  0  0  0  0  0
    0.4639   -4.7333    0.4413 C   0  0  0  0  0  0  0  0  0  0  0  0
    0.9539   -5.6118   -0.0061 H   0  0  0  0  0  0  0  0  0  0  0  0
   -3.8354    1.5957    0.0149 C   0  0  0  0  0  0  0  0  0  0  0  0
   -1.5071    2.3837    0.4811 C   0  0  0  0  0  0  0  0  0  0  0  0
   -1.8953    3.3906    0.6836 H   0  0  0  0  0  0  0  0  0  0  0  0
   -1.2354   -1.1505    3.6124 C   0  0  0  0  0  0  0  0  0  0  0  0
   -1.8530   -0.4364    4.1777 H   0  0  0  0  0  0  0  0  0  0  0  0
    0.3692    0.8794    0.1560 C   0  0  0  0  0  0  0  0  0  0  0  0
    0.9919   -4.1266    1.5542 C   0  0  0  0  0  0  0  0  0  0  0  0
    1.9299   -4.4875    2.0032 H   0  0  0  0  0  0  0  0  0  0  0  0
   -4.3787    2.9561    0.3997 C   0  0  0  0  0  0  0  0  0  0  0  0
   -3.8335    3.3362    1.2888 H   0  0  0  0  0  0  0  0  0  0  0  0
   -5.4324    2.8626    0.7319 H   0  0  0  0  0  0  0  0  0  0  0  0
   -4.1361   -0.6976   -0.8478 C   0  0  0  0  0  0  0  0  0  0  0  0
   -1.3509   -4.9776   -1.2357 C   0  0  0  0  0  0  0  0  0  0  0  0
   -0.8702   -5.9059   -1.5801 H   0  0  0  0  0  0  0  0  0  0  0  0
   -0.7385   -4.2439   -0.1715 C   0  0  0  0  0  0  0  0  0  0  0  0
   -6.1139    0.9154   -0.8447 C   0  0  0  0  0  0  0  0  0  0  0  0
   -6.4046    0.4873   -1.8265 H   0  0  0  0  0  0  0  0  0  0  0  0
   -6.2802    2.0046   -0.9517 H   0  0  0  0  0  0  0  0  0  0  0  0
   -0.0073   -1.6045    4.1480 C   0  0  0  0  0  0  0  0  0  0  0  0
    0.3506   -1.2237    5.1163 H   0  0  0  0  0  0  0  0  0  0  0  0
   -3.1244   -3.3154   -1.3801 C   0  0  0  0  0  0  0  0  0  0  0  0
   -4.8249    5.3772   -0.2966 C   0  0  0  0  0  0  0  0  0  0  0  0
   -5.8853    5.3208    0.0271 H   0  0  0  0  0  0  0  0  0  0  0  0
   -4.7653    6.1147   -1.1218 H   0  0  0  0  0  0  0  0  0  0  0  0
   -4.2434    5.7832    0.5579 H   0  0  0  0  0  0  0  0  0  0  0  0
   -4.3848   -2.8916   -1.8990 C   0  0  0  0  0  0  0  0  0  0  0  0
   -4.9430   -3.5805   -2.5515 H   0  0  0  0  0  0  0  0  0  0  0  0
   -8.5313    0.6541   -0.0494 C   0  0  0  0  0  0  0  0  0  0  0  0
   -8.7235    1.7443   -0.1333 H   0  0  0  0  0  0  0  0  0  0  0  0
   -9.1906    0.2582    0.7488 H   0  0  0  0  0  0  0  0  0  0  0  0
   -8.8493    0.1906   -1.0068 H   0  0  0  0  0  0  0  0  0  0  0  0
   -4.9167   -1.6674   -1.5585 C   0  0  0  0  0  0  0  0  0  0  0  0
   -5.9249   -1.4063   -1.9047 H   0  0  0  0  0  0  0  0  0  0  0  0
   -7.0588    0.3694    0.2429 C   0  0  0  0  0  0  0  0  0  0  0  0
   -6.7696    0.8118    1.2211 H   0  0  0  0  0  0  0  0  0  0  0  0
   -6.8938   -0.7240    0.3525 H   0  0  0  0  0  0  0  0  0  0  0  0
    0.2838   -3.0625    2.2048 C   0  0  0  0  0  0  0  0  0  0  0  0
    0.7263   -2.5596    3.4584 C   0  0  0  0  0  0  0  0  0  0  0  0
    1.6619   -2.9556    3.8797 H   0  0  0  0  0  0  0  0  0  0  0  0
   -0.9201   -2.5421    1.6134 C   0  0  0  0  0  0  0  0  0  0  0  0
   -1.6782   -1.6114    2.3780 C   0  0  0  0  0  0  0  0  0  0  0  0
   -2.6469   -1.2666    1.9958 H   0  0  0  0  0  0  0  0  0  0  0  0
    2.8408    0.0227    1.5776 C   0  0  0  0  0  0  0  0  0  0  0  0
    2.6439    0.5671    2.8629 C   0  0  0  0  0  0  0  0  0  0  0  0
    2.0586    1.4910    2.9861 H   0  0  0  0  0  0  0  0  0  0  0  0
    3.2101   -0.0608    3.9801 C   0  0  0  0  0  0  0  0  0  0  0  0
    3.0640    0.3721    4.9814 H   0  0  0  0  0  0  0  0  0  0  0  0
    3.9658   -1.2350    3.8230 C   0  0  0  0  0  0  0  0  0  0  0  0
    4.4176   -1.7196    4.7021 H   0  0  0  0  0  0  0  0  0  0  0  0
    4.1454   -1.7891    2.5461 C   0  0  0  0  0  0  0  0  0  0  0  0
    4.7355   -2.7092    2.4186 H   0  0  0  0  0  0  0  0  0  0  0  0
    3.5872   -1.1613    1.4220 C   0  0  0  0  0  0  0  0  0  0  0  0
    3.7432   -1.5750    0.4129 H   0  0  0  0  0  0  0  0  0  0  0  0
    1.9116    5.3370    1.2235 C   0  0  0  0  0  0  0  0  0  0  0  0
    1.7881    6.3951    1.4999 H   0  0  0  0  0  0  0  0  0  0  0  0
    3.2039    4.8159    1.0247 C   0  0  0  0  0  0  0  0  0  0  0  0
    4.0830    5.4668    1.1426 H   0  0  0  0  0  0  0  0  0  0  0  0
    3.3742    3.4682    0.6678 C   0  0  0  0  0  0  0  0  0  0  0  0
    4.3801    3.0536    0.5019 H   0  0  0  0  0  0  0  0  0  0  0  0
  1 27  1  0  0  0  0
  1  9  1  0  0  0  0
  1 64  1  1  0  0  0
  2 61  1  0  0  0  0
  3 13  1  0  0  0  0
  3  2  2  0  0  0  0
  4 42  2  0  0  0  0
  4 34  1  0  0  0  0
  5  4  1  0  0  0  0
  6 22  1  0  0  0  0
  7 19  1  0  0  0  0
  7 27  2  0  0  0  0
  8  7  1  0  0  0  0
  9 79  2  0  0  0  0
  9 18  1  0  0  0  0
 10 43  1  0  0  0  0
 10 30  1  0  0  0  0
 11 10  1  0  0  0  0
 12 10  1  0  0  0  0
 13 19  2  0  0  0  0
 14 18  1  0  0  0  0
 15 23  1  0  0  0  0
 16 17  1  0  0  0  0
 16 75  1  0  0  0  0
 18 16  2  0  0  0  0
 19 15  1  0  0  0  0
 20 28  2  0  0  0  0
 21 20  1  0  0  0  0
 22 15  2  0  0  0  0
 22 30  1  0  0  0  0
 23 14  2  0  0  0  0
 23 24  1  0  0  0  0
 25 40  1  0  0  0  0
 25 26  1  0  0  0  0
 27 14  1  0  0  0  0
 28 29  1  0  0  0  0
 28 58  1  0  0  0  0
 30 32  1  0  0  0  0
 30 31  1  0  0  0  0
 33  6  2  0  0  0  0
 33 13  1  0  0  0  0
 34 36  2  0  0  0  0
 35 34  1  0  0  0  0
 36  2  1  0  0  0  0
 36 20  1  0  0  0  0
 37  6  1  0  0  0  0
 37 55  1  0  0  0  0
 38 37  1  0  0  0  0
 39 37  1  0  0  0  0
 40 41  1  0  0  0  0
 42  3  1  0  0  0  0
 43 44  1  0  0  0  0
 43 46  1  0  0  0  0
 45 43  1  0  0  0  0
 47 53  2  0  0  0  0
 47 42  1  0  0  0  0
 48 47  1  0  0  0  0
 49 55  1  0  0  0  0
 49 51  1  0  0  0  0
 50 49  1  0  0  0  0
 52 49  1  0  0  0  0
 53 33  1  0  0  0  0
 54 53  1  0  0  0  0
 55 57  1  0  0  0  0
 55 56  1  0  0  0  0
 58 59  1  0  0  0  0
 59 60  1  0  0  0  0
 59 40  2  0  0  0  0
 61 58  2  0  0  0  0
 61 62  1  0  0  0  0
 62 25  2  0  0  0  0
 63 62  1  0  0  0  0
 64 65  1  0  0  0  0
 65 66  1  0  0  0  0
 65 67  2  0  0  0  0
 67 68  1  0  0  0  0
 69 67  1  0  0  0  0
 69 70  1  0  0  0  0
 71 69  2  0  0  0  0
 72 71  1  0  0  0  0
 73 64  2  0  0  0  0
 73 71  1  0  0  0  0
 74 73  1  0  0  0  0
 75 76  1  0  0  0  0
 77 78  1  0  0  0  0
 77 75  2  0  0  0  0
 79 77  1  0  0  0  0
 80 79  1  0  0  0  0
M  END
