1
q = 0.0, confidence = 0.996

 46 47  0  0  1  0  0  0  0  0999 V2000
   -0.5247    0.0183   -0.6239 P   0  0  1  0  0  0  0  0  0  0  0  0
   -2.4992    0.6284    1.7342 Si  0  0  0  0  0  0  0  0  0  0  0  0
   -3.5130   -1.0136   -0.9377 Si  0  0  0  0  0  0  0  0  0  0  0  0
   -0.7677   -0.2194   -2.3168 O   0  0  0  0  0  0  0  0  0  0  0  0
   -0.6220    1.1791   -2.6595 C   0  0  0  0  0  0  0  0  0  0  0  0
   -1.4173    1.4925   -3.3691 H   0  0  0  0  0  0  0  0  0  0  0  0
    0.3645    1.3635   -3.1360 H   0  0  0  0  0  0  0  0  0  0  0  0
   -0.7403    1.8108   -1.2554 C   0  0  2  0  0  0  0  0  0  0  0  0
   -1.7928    2.0854   -1.0473 H   0  0  0  0  0  0  0  0  0  0  0  0
    0.1777    2.9166   -0.8382 C   0  0  0  0  0  0  0  0  0  0  0  0
    1.5416    2.9301   -1.2009 C   0  0  0  0  0  0  0  0  0  0  0  0
    1.9530    2.1311   -1.8323 H   0  0  0  0  0  0  0  0  0  0  0  0
    2.3919    3.9528   -0.7582 C   0  0  0  0  0  0  0  0  0  0  0  0
    3.4540    3.9372   -1.0455 H   0  0  0  0  0  0  0  0  0  0  0  0
    1.8966    4.9854    0.0523 C   0  0  0  0  0  0  0  0  0  0  0  0
    2.5669    5.7840    0.4039 H   0  0  0  0  0  0  0  0  0  0  0  0
    0.5385    4.9955    0.4067 C   0  0  0  0  0  0  0  0  0  0  0  0
    0.1361    5.8060    1.0330 H   0  0  0  0  0  0  0  0  0  0  0  0
   -0.3106    3.9732   -0.0385 C   0  0  0  0  0  0  0  0  0  0  0  0
   -1.3758    3.9886    0.2411 H   0  0  0  0  0  0  0  0  0  0  0  0
   -2.0604   -0.4986    0.2236 C   0  0  0  0  0  0  0  0  0  0  0  0
   -1.7735   -1.4563    0.7151 H   0  0  0  0  0  0  0  0  0  0  0  0
   -3.2076   -0.4833    3.0877 C   0  0  0  0  0  0  0  0  0  0  0  0
   -4.1368   -0.9995    2.7801 H   0  0  0  0  0  0  0  0  0  0  0  0
   -3.4344    0.1248    3.9879 H   0  0  0  0  0  0  0  0  0  0  0  0
   -2.4599   -1.2491    3.3787 H   0  0  0  0  0  0  0  0  0  0  0  0
   -0.9646    1.4738    2.4485 C   0  0  0  0  0  0  0  0  0  0  0  0
   -0.2700    0.7341    2.8908 H   0  0  0  0  0  0  0  0  0  0  0  0
   -1.2877    2.1556    3.2633 H   0  0  0  0  0  0  0  0  0  0  0  0
   -0.3960    2.0813    1.7185 H   0  0  0  0  0  0  0  0  0  0  0  0
   -3.7618    1.9615    1.2622 C   0  0  0  0  0  0  0  0  0  0  0  0
   -3.3932    2.6349    0.4623 H   0  0  0  0  0  0  0  0  0  0  0  0
   -3.9743    2.5894    2.1523 H   0  0  0  0  0  0  0  0  0  0  0  0
   -4.7219    1.5256    0.9219 H   0  0  0  0  0  0  0  0  0  0  0  0
   -2.9632   -2.5034   -1.9574 C   0  0  0  0  0  0  0  0  0  0  0  0
   -2.1362   -2.2215   -2.6377 H   0  0  0  0  0  0  0  0  0  0  0  0
   -3.8078   -2.8899   -2.5647 H   0  0  0  0  0  0  0  0  0  0  0  0
   -2.6080   -3.3286   -1.3066 H   0  0  0  0  0  0  0  0  0  0  0  0
   -4.9788   -1.5509    0.1390 C   0  0  0  0  0  0  0  0  0  0  0  0
   -4.6943   -2.3632    0.8382 H   0  0  0  0  0  0  0  0  0  0  0  0
   -5.7799   -1.9447   -0.5210 H   0  0  0  0  0  0  0  0  0  0  0  0
   -5.4127   -0.7212    0.7317 H   0  0  0  0  0  0  0  0  0  0  0  0
   -4.0828    0.3901   -2.0707 C   0  0  0  0  0  0  0  0  0  0  0  0
   -4.3276    1.3153   -1.5132 H   0  0  0  0  0  0  0  0  0  0  0  0
   -5.0000    0.0708   -2.6077 H   0  0  0  0  0  0  0  0  0  0  0  0
   -3.3175    0.6258   -2.8347 H   0  0  0  0  0  0  0  0  0  0  0  0
  1 21  1  1  0  0  0
  2 27  1  0  0  0  0
  2 23  1  0  0  0  0
  3 39  1  0  0  0  0
  3 21  1  0  0  0  0
  4  1  1  0  0  0  0
  5  4  1  0  0  0  0
  5  8  1  0  0  0  0
  6  5  1  0  0  0  0
  7  5  1  0  0  0  0
  8  9  1  1  0  0  0
  8 10  1  0  0  0  0
  8  1  1  0  0  0  0
 10 19  1  0  0  0  0
 11 10  2  0  0  0  0
 11 13  1  0  0  0  0
 12 11  1  0  0  0  0
 13 15  2  0  0  0  0
 14 13  1  0  0  0  0
 15 16  1  0  0  0  0
 15 17  1  0  0  0  0
 17 18  1  0  0  0  0
 19 20  1  0  0  0  0
 19 17  2  0  0  0  0
 21 22  1  0  0  0  0
 21  2  1  0  0  0  0
 23 26  1  0  0  0  0
 23 25  1  0  0  0  0
 24 23  1  0  0  0  0
 27 28  1  0  0  0  0
 27 29  1  0  0  0  0
 30 27  1  0  0  0  0
 31  2  1  0  0  0  0
 31 33  1  0  0  0  0
 32 31  1  0  0  0  0
 34 31  1  0  0  0  0
 35 38  1  0  0  0  0
 35  3  1  0  0  0  0
 36 35  1  0  0  0  0
 37 35  1  0  0  0  0
 39 42  1  0  0  0  0
 39 40  1  0  0  0  0
 41 39  1  0  0  0  0
 43 44  1  0  0  0  0
 43  3  1  0  0  0  0
 45 43  1  0  0  0  0
 46 43  1  0  0  0  0
M  END
