2
q = 0.0, confidence = 0.95

 59 58  0  0  0  0  0  0  0  0999 V2000
   -1.8416    1.4526   -1.7091 S   0  0  0  0  0  0  0  0  0  0  0  0
    0.6522    0.7264   -0.2427 P   0  0  0  0  0  0  0  0  0  0  0  0
   -0.2901    1.3726   -1.5452 N   0  0  0  0  0  2  0  0  0  0  0  0
   -2.6656    0.9785   -0.4431 N   0  0  0  0  0  2  0  0  0  0  0  0
    2.1937    1.1370   -0.9045 N   0  0  0  0  0  0  0  0  0  0  0  0
    0.4880    1.8269    1.0723 N   0  0  0  0  0  0  0  0  0  0  0  0
    2.5142    1.3333   -2.3401 C   0  0  0  0  0  0  0  0  0  0  0  0
    3.6218    1.2598   -2.3772 H   0  0  0  0  0  0  0  0  0  0  0  0
    1.9974    0.2302   -3.2747 C   0  0  0  0  0  0  0  0  0  0  0  0
    2.3830   -0.7605   -2.9724 H   0  0  0  0  0  0  0  0  0  0  0  0
    0.8921    0.1912   -3.2873 H   0  0  0  0  0  0  0  0  0  0  0  0
    2.3427    0.4260   -4.3101 H   0  0  0  0  0  0  0  0  0  0  0  0
    2.1561    2.7410   -2.8403 C   0  0  0  0  0  0  0  0  0  0  0  0
    2.6090    3.5161   -2.1907 H   0  0  0  0  0  0  0  0  0  0  0  0
    2.5387    2.8939   -3.8707 H   0  0  0  0  0  0  0  0  0  0  0  0
    1.0596    2.8842   -2.8477 H   0  0  0  0  0  0  0  0  0  0  0  0
    3.3389    0.9826    0.0174 C   0  0  0  0  0  0  0  0  0  0  0  0
    2.8918    0.9255    1.0331 H   0  0  0  0  0  0  0  0  0  0  0  0
    4.1511   -0.3006   -0.2061 C   0  0  0  0  0  0  0  0  0  0  0  0
    3.5231   -1.2002   -0.0833 H   0  0  0  0  0  0  0  0  0  0  0  0
    4.5960   -0.3294   -1.2221 H   0  0  0  0  0  0  0  0  0  0  0  0
    4.9828   -0.3637    0.5242 H   0  0  0  0  0  0  0  0  0  0  0  0
    4.2548    2.2170    0.0024 C   0  0  0  0  0  0  0  0  0  0  0  0
    3.6800    3.1512    0.1418 H   0  0  0  0  0  0  0  0  0  0  0  0
    5.0067    2.1451    0.8138 H   0  0  0  0  0  0  0  0  0  0  0  0
    4.8128    2.2985   -0.9529 H   0  0  0  0  0  0  0  0  0  0  0  0
    0.0886    1.3301    2.4028 C   0  0  0  0  0  0  0  0  0  0  0  0
   -0.0870    0.2503    2.2283 H   0  0  0  0  0  0  0  0  0  0  0  0
    1.1923    1.3990    3.4727 C   0  0  0  0  0  0  0  0  0  0  0  0
    2.1566    1.0176    3.0840 H   0  0  0  0  0  0  0  0  0  0  0  0
    1.3538    2.4219    3.8612 H   0  0  0  0  0  0  0  0  0  0  0  0
    0.9071    0.7601    4.3330 H   0  0  0  0  0  0  0  0  0  0  0  0
   -1.2375    1.9014    2.9156 C   0  0  0  0  0  0  0  0  0  0  0  0
   -2.0140    1.8406    2.1309 H   0  0  0  0  0  0  0  0  0  0  0  0
   -1.5827    1.3137    3.7900 H   0  0  0  0  0  0  0  0  0  0  0  0
   -1.1398    2.9551    3.2459 H   0  0  0  0  0  0  0  0  0  0  0  0
    0.6268    3.2686    0.7591 C   0  0  0  0  0  0  0  0  0  0  0  0
    1.1327    3.2727   -0.2293 H   0  0  0  0  0  0  0  0  0  0  0  0
   -0.7044    4.0250    0.5880 C   0  0  0  0  0  0  0  0  0  0  0  0
   -1.4520    3.4257    0.0393 H   0  0  0  0  0  0  0  0  0  0  0  0
   -1.1527    4.3053    1.5605 H   0  0  0  0  0  0  0  0  0  0  0  0
   -0.5301    4.9619    0.0206 H   0  0  0  0  0  0  0  0  0  0  0  0
    1.5402    4.0310    1.7278 C   0  0  0  0  0  0  0  0  0  0  0  0
    2.4952    3.5025    1.9031 H   0  0  0  0  0  0  0  0  0  0  0  0
    1.7716    5.0291    1.3032 H   0  0  0  0  0  0  0  0  0  0  0  0
    1.0518    4.2002    2.7078 H   0  0  0  0  0  0  0  0  0  0  0  0
   -4.1453    0.9907   -0.5197 C   0  0  0  0  0  0  0  0  0  0  0  0
   -4.7266    1.8650   -1.6466 C   0  0  0  0  0  0  0  0  0  0  0  0
   -4.3884    2.9177   -1.5527 H   0  0  0  0  0  0  0  0  0  0  0  0
   -4.4363    1.4946   -2.6511 H   0  0  0  0  0  0  0  0  0  0  0  0
   -5.8332    1.8570   -1.5973 H   0  0  0  0  0  0  0  0  0  0  0  0
   -4.5905   -0.4755   -0.7147 C   0  0  0  0  0  0  0  0  0  0  0  0
   -4.2322   -0.8657   -1.6873 H   0  0  0  0  0  0  0  0  0  0  0  0
   -4.1843   -1.1175    0.0891 H   0  0  0  0  0  0  0  0  0  0  0  0
   -5.6971   -0.5387   -0.6918 H   0  0  0  0  0  0  0  0  0  0  0  0
   -4.6277    1.5046    0.8496 C   0  0  0  0  0  0  0  0  0  0  0  0
   -4.2932    2.5480    1.0160 H   0  0  0  0  0  0  0  0  0  0  0  0
   -5.7350    1.4800    0.8996 H   0  0  0  0  0  0  0  0  0  0  0  0
   -4.2196    0.8720    1.6604 H   0  0  0  0  0  0  0  0  0  0  0  0
  1  3  1  0  0  0  0
  1  4  1  0  0  0  0
  2  6  1  0  0  0  0
  3  2  1  0  0  0  0
  5  2  1  0  0  0  0
  5 17  1  0  0  0  0
  6 27  1  0  0  0  0
  7  5  1  0  0  0  0
  8  7  1  0  0  0  0
  9 10  1  0  0  0  0
  9  7  1  0  0  0  0
 11  9  1  0  0  0  0
 12  9  1  0  0  0  0
 13  7  1  0  0  0  0
 13 14  1  0  0  0  0
 15 13  1  0  0  0  0
 16 13  1  0  0  0  0
 17 18  1  0  0  0  0
 19 20  1  0  0  0  0
 19 17  1  0  0  0  0
 19 22  1  0  0  0  0
 21 19  1  0  0  0  0
 23 17  1  0  0  0  0
 23 24  1  0  0  0  0
 23 25  1  0  0  0  0
 26 23  1  0  0  0  0
 27 33  1  0  0  0  0
 27 29  1  0  0  0  0
 28 27  1  0  0  0  0
 29 31  1  0  0  0  0
 29 32  1  0  0  0  0
 30 29  1  0  0  0  0
 33 36  1  0  0  0  0
 33 35  1  0  0  0  0
 34 33  1  0  0  0  0
 37  6  1  0  0  0  0
 37 43  1  0  0  0  0
 38 37  1  0  0  0  0
 39 37  1  0  0  0  0
 39 41  1  0  0  0  0
 40 39  1  0  0  0  0
 42 39  1  0  0  0  0
 43 44  1  0  0  0  0
 43 46  1  0  0  0  0
 45 43  1  0  0  0  0
 47  4  1  0  0  0  0
 47 56  1  0  0  0  0
 48 51  1  0  0  0  0
 48 49  1  0  0  0  0
 48 47  1  0  0  0  0
 50 48  1  0  0  0  0
 52 55  1  0  0  0  0
 52 47  1  0  0  0  0
 52 54  1  0  0  0  0
 53 52  1  0  0  0  0
 56 58  1  0  0  0  0
 56 57  1  0  0  0  0
 56 59  1  0  0  0  0
M  END
