1
q = nan, confidence = 0.0

 11 10  0  0  0  0  0  0  0  0999 V2000
    2.4827   -0.6046   -0.9200 P   0  0  1  0  0  4  0  0  0  0  0  0
    3.2803    0.6578    1.2968 F   0  0  0  0  0  0  0  0  0  0  0  0
    4.7630   -0.7898    0.5163 F   0  0  0  0  0  0  0  0  0  0  0  0
    1.7026   -1.4083    2.1597 F   0  0  0  0  0  0  0  0  0  0  0  0
    3.7453   -1.5025    2.9248 F   0  0  0  0  0  0  0  0  0  0  0  0
    3.1118   -2.8689    1.3446 F   0  0  0  0  0  0  0  0  0  0  0  0
    3.1496    0.5627   -1.7042 O   0  0  0  0  0  0  0  0  0  0  0  0
    2.9936   -2.0434   -1.5219 O   0  0  0  0  0  0  0  0  0  0  0  0
    2.2192   -2.6636   -1.4244 H   0  0  0  0  0  0  0  0  0  0  0  0
    3.4316   -0.5843    0.7454 C   0  0  0  0  0  0  0  0  0  0  0  0
    2.9854   -1.6124    1.8106 C   0  0  0  0  0  0  0  0  0  0  0  0
  1  7  2  6  0  0  0
  1 10  1  0  0  0  0
  3 10  1  0  0  0  0
  6 11  1  0  0  0  0
  8  9  1  0  0  0  0
  8  1  1  0  0  0  0
 10  2  1  0  0  0  0
 10 11  1  0  0  0  0
 11  4  1  0  0  0  0
 11  5  1  0  0  0  0
M  END
