1
q = 0.0, confidence = 0.896

 12 11  0  0  0  0  0  0  0  0999 V2000
    0.0882    1.6278   -1.1098 P   0  0  0  0  0  0  0  0  0  0  0  0
    0.6738    1.9330    1.5085 F   0  0  0  0  0  0  0  0  0  0  0  0
   -1.3915    2.4892    0.9418 F   0  0  0  0  0  0  0  0  0  0  0  0
   -0.2586    4.6962   -0.4739 F   0  0  0  0  0  0  0  0  0  0  0  0
   -0.0567    4.6429    1.6988 F   0  0  0  0  0  0  0  0  0  0  0  0
    1.6596    4.1743    0.4384 F   0  0  0  0  0  0  0  0  0  0  0  0
    1.3845    2.2504   -1.7648 O   0  0  0  0  0  0  0  0  0  0  0  0
    2.2416    1.5153   -1.7927 H   0  0  0  0  0  0  0  0  0  0  0  0
   -1.1827    2.1414   -1.9179 O   0  0  0  0  0  0  0  0  0  0  0  0
   -2.0210    1.4618   -1.7897 H   0  0  0  0  0  0  0  0  0  0  0  0
   -0.0838    2.5511    0.5554 C   0  0  0  0  0  0  0  0  0  0  0  0
    0.3285    4.0454    0.5460 C   0  0  0  0  0  0  0  0  0  0  0  0
  1 11  1  0  0  0  0
  4 12  1  0  0  0  0
  6 12  1  0  0  0  0
  7  1  1  0  0  0  0
  8  7  1  0  0  0  0
  9 10  1  0  0  0  0
  9  1  1  0  0  0  0
 11  3  1  0  0  0  0
 11  2  1  0  0  0  0
 12 11  1  0  0  0  0
 12  5  1  0  0  0  0
M  END
