1
q = 0.0, confidence = 0.998

 38 39  0  0  0  0  0  0  0  0999 V2000
    0.1669   -0.3603    0.2743 P   0  0  1  0  0  0  0  0  0  0  0  0
    2.0487    3.1444   -0.6982 Cl  0  0  0  0  0  0  0  0  0  0  0  0
   -2.9611    3.7068    0.4088 Cl  0  0  0  0  0  0  0  0  0  0  0  0
    2.8781   -2.4081    2.2322 O   0  0  0  0  0  0  0  0  0  0  0  0
    1.2633   -0.3222   -1.0450 N   0  0  0  0  0  0  0  0  0  0  0  0
    1.0151   -1.4039    1.3486 N   0  0  0  0  0  0  0  0  0  0  0  0
    0.1493    1.1580    1.0477 N   0  0  0  0  0  0  0  0  0  0  0  0
    2.3889   -1.7201    1.3398 C   0  0  0  0  0  0  0  0  0  0  0  0
    3.1983   -1.1603    0.2265 C   0  0  0  0  0  0  0  0  0  0  0  0
    4.5943   -1.3465    0.3150 C   0  0  0  0  0  0  0  0  0  0  0  0
    4.9656   -1.8747    1.2052 H   0  0  0  0  0  0  0  0  0  0  0  0
    5.4549   -0.8938   -0.6852 C   0  0  0  0  0  0  0  0  0  0  0  0
    6.5402   -1.0465   -0.5991 H   0  0  0  0  0  0  0  0  0  0  0  0
    4.9093   -0.2440   -1.8059 C   0  0  0  0  0  0  0  0  0  0  0  0
    5.5680    0.1251   -2.6067 H   0  0  0  0  0  0  0  0  0  0  0  0
    3.5301   -0.0474   -1.9204 C   0  0  0  0  0  0  0  0  0  0  0  0
    3.1358    0.4785   -2.7978 H   0  0  0  0  0  0  0  0  0  0  0  0
    2.6475   -0.5004   -0.9099 C   0  0  0  0  0  0  0  0  0  0  0  0
    0.7205    0.1760   -2.3084 C   0  0  0  0  0  0  0  0  0  0  0  0
   -0.3833    0.0835   -2.2825 H   0  0  0  0  0  0  0  0  0  0  0  0
    1.0934   -0.4425   -3.1489 H   0  0  0  0  0  0  0  0  0  0  0  0
    0.9820    1.2404   -2.4830 H   0  0  0  0  0  0  0  0  0  0  0  0
    0.2064   -1.8962    2.4712 C   0  0  0  0  0  0  0  0  0  0  0  0
   -0.6272   -2.5294    2.1059 H   0  0  0  0  0  0  0  0  0  0  0  0
   -0.2155   -1.0524    3.0555 H   0  0  0  0  0  0  0  0  0  0  0  0
    0.8789   -2.4907    3.1159 H   0  0  0  0  0  0  0  0  0  0  0  0
    1.3716    1.7338    1.5978 C   0  0  0  0  0  0  0  0  0  0  0  0
    2.2152    1.0416    1.4081 H   0  0  0  0  0  0  0  0  0  0  0  0
    1.2798    1.8238    2.7075 H   0  0  0  0  0  0  0  0  0  0  0  0
    1.7426    3.1187    1.0796 C   0  0  0  0  0  0  0  0  0  0  0  0
    2.6718    3.4628    1.5729 H   0  0  0  0  0  0  0  0  0  0  0  0
    0.9476    3.8635    1.2784 H   0  0  0  0  0  0  0  0  0  0  0  0
   -1.1081    1.8834    1.2459 C   0  0  0  0  0  0  0  0  0  0  0  0
   -0.9921    2.5542    2.1231 H   0  0  0  0  0  0  0  0  0  0  0  0
   -1.9247    1.1731    1.4960 H   0  0  0  0  0  0  0  0  0  0  0  0
   -1.5243    2.6993    0.0200 C   0  0  0  0  0  0  0  0  0  0  0  0
   -1.8059    2.0212   -0.8108 H   0  0  0  0  0  0  0  0  0  0  0  0
   -0.7147    3.3665   -0.3315 H   0  0  0  0  0  0  0  0  0  0  0  0
  1  7  1  1  0  0  0
  1  6  1  0  0  0  0
  2 30  1  0  0  0  0
  5 18  1  0  0  0  0
  5  1  1  0  0  0  0
  6 23  1  0  0  0  0
  7 33  1  0  0  0  0
  7 27  1  0  0  0  0
  8  6  1  0  0  0  0
  8  4  2  0  0  0  0
  9 10  1  0  0  0  0
  9  8  1  0  0  0  0
 10 11  1  0  0  0  0
 12 13  1  0  0  0  0
 12 10  2  0  0  0  0
 14 12  1  0  0  0  0
 15 14  1  0  0  0  0
 16 14  2  0  0  0  0
 16 18  1  0  0  0  0
 17 16  1  0  0  0  0
 18  9  2  0  0  0  0
 19 20  1  0  0  0  0
 19  5  1  0  0  0  0
 21 19  1  0  0  0  0
 22 19  1  0  0  0  0
 23 25  1  0  0  0  0
 23 26  1  0  0  0  0
 24 23  1  0  0  0  0
 27 29  1  0  0  0  0
 28 27  1  0  0  0  0
 30 32  1  0  0  0  0
 30 31  1  0  0  0  0
 30 27  1  0  0  0  0
 33 35  1  0  0  0  0
 33 34  1  0  0  0  0
 36  3  1  0  0  0  0
 36 33  1  0  0  0  0
 37 36  1  0  0  0  0
 38 36  1  0  0  0  0
M  END
