1
q = 0.0, confidence = 0.994

 58 61  0  0  0  0  0  0  0  0999 V2000
    0.0679    0.1825   -0.1296 P   0  0  1  0  0  0  0  0  0  0  0  0
    1.8677   -0.9104   -2.2760 Si  0  0  0  0  0  0  0  0  0  0  0  0
    4.2247   -0.3127    1.8187 F   0  0  0  0  0  0  0  0  0  0  0  0
    4.2334    0.1520   -0.3078 F   0  0  0  0  0  0  0  0  0  0  0  0
    4.9044   -1.8031    0.3755 F   0  0  0  0  0  0  0  0  0  0  0  0
    3.0320   -3.6649    0.8431 F   0  0  0  0  0  0  0  0  0  0  0  0
    1.0404   -2.9728    1.3713 F   0  0  0  0  0  0  0  0  0  0  0  0
    2.7436   -2.3776    2.5847 F   0  0  0  0  0  0  0  0  0  0  0  0
    0.7162    0.1832   -1.6602 O   0  0  0  0  0  0  0  0  0  0  0  0
    2.3746   -1.7729   -0.8959 O   0  0  0  0  0  0  0  0  0  0  0  0
    2.5312   -1.3491    0.4274 C   0  0  0  0  0  0  0  0  0  0  0  0
    1.5755   -0.2205    0.9106 C   0  0  0  0  0  0  0  0  0  0  0  0
    2.1466    0.7221    0.9498 H   0  0  0  0  0  0  0  0  0  0  0  0
    1.2314   -0.4215    1.9419 H   0  0  0  0  0  0  0  0  0  0  0  0
    3.1918    0.0989   -3.1126 C   0  0  0  0  0  0  0  0  0  0  0  0
    2.8082    0.4464   -4.0939 H   0  0  0  0  0  0  0  0  0  0  0  0
    4.0965   -0.5153   -3.2951 H   0  0  0  0  0  0  0  0  0  0  0  0
    3.4722    0.9860   -2.5154 H   0  0  0  0  0  0  0  0  0  0  0  0
    1.0920   -2.1554   -3.4212 C   0  0  0  0  0  0  0  0  0  0  0  0
    0.3874   -1.6387   -4.1045 H   0  0  0  0  0  0  0  0  0  0  0  0
    0.5382   -2.9364   -2.8695 H   0  0  0  0  0  0  0  0  0  0  0  0
    1.8706   -2.6482   -4.0378 H   0  0  0  0  0  0  0  0  0  0  0  0
    4.0032   -0.8339    0.5942 C   0  0  0  0  0  0  0  0  0  0  0  0
    2.3423   -2.6211    1.3159 C   0  0  0  0  0  0  0  0  0  0  0  0
   -0.0273    2.1509    0.1419 C   0  0  0  0  0  0  0  0  0  0  0  0
   -1.3560    2.6179   -0.4828 C   0  0  0  0  0  0  0  0  0  0  0  0
   -1.7881    2.1205   -1.7335 C   0  0  0  0  0  0  0  0  0  0  0  0
   -1.1671    1.3954   -2.2752 H   0  0  0  0  0  0  0  0  0  0  0  0
   -2.9974    2.5402   -2.3053 C   0  0  0  0  0  0  0  0  0  0  0  0
   -3.3114    2.1154   -3.2706 H   0  0  0  0  0  0  0  0  0  0  0  0
   -3.8006    3.4819   -1.6456 C   0  0  0  0  0  0  0  0  0  0  0  0
   -4.7533    3.8087   -2.0886 H   0  0  0  0  0  0  0  0  0  0  0  0
   -3.3783    3.9958   -0.4115 C   0  0  0  0  0  0  0  0  0  0  0  0
   -3.9990    4.7309    0.1225 H   0  0  0  0  0  0  0  0  0  0  0  0
   -2.1746    3.5646    0.1657 C   0  0  0  0  0  0  0  0  0  0  0  0
   -1.8794    3.9635    1.1451 H   0  0  0  0  0  0  0  0  0  0  0  0
   -0.0318    2.4409    1.6504 C   0  0  0  0  0  0  0  0  0  0  0  0
   -0.6367    1.5553    2.5631 C   0  0  0  0  0  0  0  0  0  0  0  0
   -1.0897    0.6254    2.1941 H   0  0  0  0  0  0  0  0  0  0  0  0
   -0.7029    1.8434    3.9337 C   0  0  0  0  0  0  0  0  0  0  0  0
   -1.1691    1.1157    4.6150 H   0  0  0  0  0  0  0  0  0  0  0  0
   -0.1856    3.0515    4.4227 C   0  0  0  0  0  0  0  0  0  0  0  0
   -0.2354    3.2848    5.4968 H   0  0  0  0  0  0  0  0  0  0  0  0
    0.3850    3.9655    3.5232 C   0  0  0  0  0  0  0  0  0  0  0  0
    0.7761    4.9277    3.8875 H   0  0  0  0  0  0  0  0  0  0  0  0
    0.4606    3.6651    2.1549 C   0  0  0  0  0  0  0  0  0  0  0  0
    0.9000    4.3999    1.4657 H   0  0  0  0  0  0  0  0  0  0  0  0
    1.1959    2.7580   -0.5689 C   0  0  0  0  0  0  0  0  0  0  0  0
    1.1233    3.2414   -1.8937 C   0  0  0  0  0  0  0  0  0  0  0  0
    0.1617    3.2372   -2.4213 H   0  0  0  0  0  0  0  0  0  0  0  0
    2.2531    3.7454   -2.5526 C   0  0  0  0  0  0  0  0  0  0  0  0
    2.1534    4.1162   -3.5840 H   0  0  0  0  0  0  0  0  0  0  0  0
    3.4987    3.7806   -1.9084 C   0  0  0  0  0  0  0  0  0  0  0  0
    4.3862    4.1731   -2.4271 H   0  0  0  0  0  0  0  0  0  0  0  0
    3.5915    3.3231   -0.5865 C   0  0  0  0  0  0  0  0  0  0  0  0
    4.5534    3.3518   -0.0531 H   0  0  0  0  0  0  0  0  0  0  0  0
    2.4567    2.8284    0.0719 C   0  0  0  0  0  0  0  0  0  0  0  0
    2.5599    2.5296    1.1243 H   0  0  0  0  0  0  0  0  0  0  0  0
  1 25  1  1  0  0  0
  1 12  1  0  0  0  0
  2  9  1  0  0  0  0
  2 10  1  0  0  0  0
  4 23  1  0  0  0  0
  5 23  1  0  0  0  0
  6 24  1  0  0  0  0
  9  1  1  0  0  0  0
 10 11  1  0  0  0  0
 11 23  1  0  0  0  0
 11 12  1  0  0  0  0
 11 24  1  0  0  0  0
 12 13  1  0  0  0  0
 12 14  1  0  0  0  0
 15 18  1  0  0  0  0
 15  2  1  0  0  0  0
 16 15  1  0  0  0  0
 17 15  1  0  0  0  0
 19 21  1  0  0  0  0
 19  2  1  0  0  0  0
 20 19  1  0  0  0  0
 22 19  1  0  0  0  0
 23  3  1  0  0  0  0
 24  7  1  0  0  0  0
 24  8  1  0  0  0  0
 25 37  1  0  0  0  0
 26 25  1  0  0  0  0
 26 35  1  0  0  0  0
 27 26  2  0  0  0  0
 28 27  1  0  0  0  0
 29 27  1  0  0  0  0
 29 31  2  0  0  0  0
 30 29  1  0  0  0  0
 31 33  1  0  0  0  0
 32 31  1  0  0  0  0
 33 34  1  0  0  0  0
 33 35  2  0  0  0  0
 35 36  1  0  0  0  0
 37 46  2  0  0  0  0
 37 38  1  0  0  0  0
 38 40  2  0  0  0  0
 39 38  1  0  0  0  0
 40 42  1  0  0  0  0
 40 41  1  0  0  0  0
 42 43  1  0  0  0  0
 44 45  1  0  0  0  0
 44 42  2  0  0  0  0
 46 44  1  0  0  0  0
 47 46  1  0  0  0  0
 48 57  1  0  0  0  0
 48 25  1  0  0  0  0
 49 48  2  0  0  0  0
 50 49  1  0  0  0  0
 51 53  2  0  0  0  0
 51 49  1  0  0  0  0
 52 51  1  0  0  0  0
 53 55  1  0  0  0  0
 54 53  1  0  0  0  0
 55 56  1  0  0  0  0
 55 57  2  0  0  0  0
 57 58  1  0  0  0  0
M  END
