3
q = 0.0, confidence = 0.94

 59 59  0  0  0  0  0  0  0  0999 V2000
    2.9051    0.0372   -0.9363 P   0  0  2  0  0  0  0  0  0  0  0  0
    2.6052    2.1045   -0.4404 P   0  0  0  0  0  0  0  0  0  0  0  0
    0.0585    0.4472   -0.5722 P   0  0  0  0  0  0  0  0  0  0  0  0
    5.9195   -0.4579   -0.7761 Si  0  0  0  0  0  0  0  0  0  0  0  0
    4.1101   -0.2964    1.9915 Si  0  0  0  0  0  0  0  0  0  0  0  0
    1.3075   -0.7205   -0.7719 C   0  0  0  0  0  0  0  0  0  0  0  0
    0.8635    2.0197   -0.4082 C   0  0  0  0  0  0  0  0  0  0  0  0
    1.0728   -2.2284   -0.9765 C   0  0  0  0  0  0  0  0  0  0  0  0
   -0.3160   -2.5129   -1.5826 C   0  0  0  0  0  0  0  0  0  0  0  0
    1.1656   -2.9372    0.3964 C   0  0  0  0  0  0  0  0  0  0  0  0
    2.1272   -2.8100   -1.9445 C   0  0  0  0  0  0  0  0  0  0  0  0
    0.0242    3.3076   -0.3044 C   0  0  0  0  0  0  0  0  0  0  0  0
   -0.7008    3.5467   -1.6495 C   0  0  0  0  0  0  0  0  0  0  0  0
   -1.0101    3.1679    0.8345 C   0  0  0  0  0  0  0  0  0  0  0  0
    0.9197    4.5239   -0.0001 C   0  0  0  0  0  0  0  0  0  0  0  0
    4.2351   -0.7261    0.1156 C   0  0  0  0  0  0  0  0  0  0  0  0
    7.3373   -1.1211    0.2890 C   0  0  0  0  0  0  0  0  0  0  0  0
    6.1915    1.3738   -1.1525 C   0  0  0  0  0  0  0  0  0  0  0  0
    5.8699   -1.4303   -2.3997 C   0  0  0  0  0  0  0  0  0  0  0  0
    5.0587    1.2997    2.3619 C   0  0  0  0  0  0  0  0  0  0  0  0
    4.8827   -1.7451    2.9416 C   0  0  0  0  0  0  0  0  0  0  0  0
    2.3269   -0.0814    2.5649 C   0  0  0  0  0  0  0  0  0  0  0  0
   -0.4324   -3.6033   -1.7501 H   0  0  0  0  0  0  0  0  0  0  0  0
   -0.4554   -1.9885   -2.5487 H   0  0  0  0  0  0  0  0  0  0  0  0
   -1.1309   -2.1790   -0.9052 H   0  0  0  0  0  0  0  0  0  0  0  0
    2.1623   -2.8018    0.8617 H   0  0  0  0  0  0  0  0  0  0  0  0
    0.9937   -4.0263    0.2701 H   0  0  0  0  0  0  0  0  0  0  0  0
    0.3994   -2.5354    1.0893 H   0  0  0  0  0  0  0  0  0  0  0  0
    3.1624   -2.7023   -1.5654 H   0  0  0  0  0  0  0  0  0  0  0  0
    2.0751   -2.3114   -2.9328 H   0  0  0  0  0  0  0  0  0  0  0  0
    1.9410   -3.8932   -2.0922 H   0  0  0  0  0  0  0  0  0  0  0  0
   -1.3040    4.4770   -1.5931 H   0  0  0  0  0  0  0  0  0  0  0  0
   -1.3807    2.7097   -1.9083 H   0  0  0  0  0  0  0  0  0  0  0  0
    0.0351    3.6606   -2.4710 H   0  0  0  0  0  0  0  0  0  0  0  0
   -1.5963    4.1051    0.9273 H   0  0  0  0  0  0  0  0  0  0  0  0
   -0.5153    2.9607    1.8045 H   0  0  0  0  0  0  0  0  0  0  0  0
   -1.7203    2.3356    0.6369 H   0  0  0  0  0  0  0  0  0  0  0  0
    0.2938    5.4354    0.0805 H   0  0  0  0  0  0  0  0  0  0  0  0
    1.6656    4.6957   -0.8029 H   0  0  0  0  0  0  0  0  0  0  0  0
    1.4664    4.3993    0.9576 H   0  0  0  0  0  0  0  0  0  0  0  0
    4.0585   -1.8219    0.0379 H   0  0  0  0  0  0  0  0  0  0  0  0
    7.4457   -0.5638    1.2406 H   0  0  0  0  0  0  0  0  0  0  0  0
    8.2931   -1.0269   -0.2671 H   0  0  0  0  0  0  0  0  0  0  0  0
    7.1940   -2.1936    0.5326 H   0  0  0  0  0  0  0  0  0  0  0  0
    6.2479    1.9839   -0.2298 H   0  0  0  0  0  0  0  0  0  0  0  0
    5.3730    1.7827   -1.7799 H   0  0  0  0  0  0  0  0  0  0  0  0
    7.1417    1.5055   -1.7104 H   0  0  0  0  0  0  0  0  0  0  0  0
    5.7704   -2.5201   -2.2164 H   0  0  0  0  0  0  0  0  0  0  0  0
    6.8007   -1.2686   -2.9818 H   0  0  0  0  0  0  0  0  0  0  0  0
    5.0145   -1.1087   -3.0283 H   0  0  0  0  0  0  0  0  0  0  0  0
    4.6552    2.1471    1.7706 H   0  0  0  0  0  0  0  0  0  0  0  0
    6.1426    1.2108    2.1483 H   0  0  0  0  0  0  0  0  0  0  0  0
    4.9447    1.5556    3.4356 H   0  0  0  0  0  0  0  0  0  0  0  0
    4.3269   -2.6850    2.7424 H   0  0  0  0  0  0  0  0  0  0  0  0
    4.8293   -1.5532    4.0335 H   0  0  0  0  0  0  0  0  0  0  0  0
    5.9451   -1.9114    2.6770 H   0  0  0  0  0  0  0  0  0  0  0  0
    1.8188    0.7504    2.0377 H   0  0  0  0  0  0  0  0  0  0  0  0
    2.3289    0.1597    3.6488 H   0  0  0  0  0  0  0  0  0  0  0  0
    1.7083   -0.9868    2.4219 H   0  0  0  0  0  0  0  0  0  0  0  0
  1  6  1  0  0  0  0
  1  2  1  0  0  0  0
  1 16  1  1  0  0  0
  2  7  2  0  0  0  0
  3  7  1  0  0  0  0
  4 16  1  0  0  0  0
  4 17  1  0  0  0  0
  5 20  1  0  0  0  0
  5 22  1  0  0  0  0
  5 21  1  0  0  0  0
  6  3  2  0  0  0  0
  7 12  1  0  0  0  0
  8  6  1  0  0  0  0
  8 10  1  0  0  0  0
  9  8  1  0  0  0  0
  9 25  1  0  0  0  0
 10 26  1  0  0  0  0
 10 28  1  0  0  0  0
 11 29  1  0  0  0  0
 11  8  1  0  0  0  0
 12 15  1  0  0  0  0
 12 14  1  0  0  0  0
 13 32  1  0  0  0  0
 13 12  1  0  0  0  0
 14 35  1  0  0  0  0
 14 36  1  0  0  0  0
 15 38  1  0  0  0  0
 15 40  1  0  0  0  0
 16  5  1  0  0  0  0
 17 44  1  0  0  0  0
 17 42  1  0  0  0  0
 18  4  1  0  0  0  0
 18 45  1  0  0  0  0
 19 48  1  0  0  0  0
 19  4  1  0  0  0  0
 20 53  1  0  0  0  0
 21 55  1  0  0  0  0
 22 58  1  0  0  0  0
 23  9  1  0  0  0  0
 24  9  1  0  0  0  0
 27 10  1  0  0  0  0
 30 11  1  0  0  0  0
 31 11  1  0  0  0  0
 33 13  1  0  0  0  0
 34 13  1  0  0  0  0
 37 14  1  0  0  0  0
 39 15  1  0  0  0  0
 41 16  1  0  0  0  0
 43 17  1  0  0  0  0
 46 18  1  0  0  0  0
 47 18  1  0  0  0  0
 49 19  1  0  0  0  0
 50 19  1  0  0  0  0
 51 20  1  0  0  0  0
 52 20  1  0  0  0  0
 54 21  1  0  0  0  0
 56 21  1  0  0  0  0
 57 22  1  0  0  0  0
 59 22  1  0  0  0  0
M  END
