1
q = 0.0, confidence = 0.998

 70 76  0  0  0  0  0  0  0  0999 V2000
   -2.1227    0.4919    0.0090 P   0  0  0  0  0  0  0  0  0  0  0  0
   -0.8111    2.9557   -0.1108 N   0  0  0  0  0  0  0  0  0  0  0  0
    0.3490    3.5157   -0.2732 N   0  0  0  0  0  0  0  0  0  0  0  0
    1.2721    2.5147   -0.4244 N   0  0  0  0  0  0  0  0  0  0  0  0
   -0.6781    1.5912   -0.1451 C   0  0  0  0  0  0  0  0  0  0  0  0
    0.6803    1.2694   -0.3362 C   0  0  0  0  0  0  0  0  0  0  0  0
    1.3345   -0.0451   -0.4111 C   0  0  0  0  0  0  0  0  0  0  0  0
    1.0511   -1.0389    0.5766 C   0  0  0  0  0  0  0  0  0  0  0  0
    1.4519   -2.3560    0.2845 C   0  0  0  0  0  0  0  0  0  0  0  0
    1.1473   -3.1670    0.9626 H   0  0  0  0  0  0  0  0  0  0  0  0
    2.3567   -2.6320   -0.7409 C   0  0  0  0  0  0  0  0  0  0  0  0
    2.7413   -3.6566   -0.8589 H   0  0  0  0  0  0  0  0  0  0  0  0
    2.9030   -1.5886   -1.5134 C   0  0  0  0  0  0  0  0  0  0  0  0
    2.2644   -0.3390   -1.4336 C   0  0  0  0  0  0  0  0  0  0  0  0
    2.5612    0.4532   -2.1322 H   0  0  0  0  0  0  0  0  0  0  0  0
    0.6435   -0.7069    1.9998 C   0  0  0  0  0  0  0  0  0  0  0  0
   -0.2464   -1.2951    2.3052 H   0  0  0  0  0  0  0  0  0  0  0  0
    0.3438    0.3559    2.0674 H   0  0  0  0  0  0  0  0  0  0  0  0
    1.8104   -0.9817    3.0489 C   0  0  0  0  0  0  0  0  0  0  0  0
    1.7438   -0.1993    3.8337 H   0  0  0  0  0  0  0  0  0  0  0  0
    1.6270   -1.9513    3.5537 H   0  0  0  0  0  0  0  0  0  0  0  0
    3.1781   -1.0110    2.3987 C   0  0  0  0  0  0  0  0  0  0  0  0
    3.8639   -2.2213    2.1702 C   0  0  0  0  0  0  0  0  0  0  0  0
    3.5686   -3.1233    2.7303 H   0  0  0  0  0  0  0  0  0  0  0  0
    4.7810   -2.3415    1.1133 C   0  0  0  0  0  0  0  0  0  0  0  0
    5.1924   -3.3342    0.8688 H   0  0  0  0  0  0  0  0  0  0  0  0
    5.0274   -1.2539    0.2510 C   0  0  0  0  0  0  0  0  0  0  0  0
    4.5645    0.0119    0.6683 C   0  0  0  0  0  0  0  0  0  0  0  0
    4.8077    0.9026    0.0682 H   0  0  0  0  0  0  0  0  0  0  0  0
    3.6613    0.1306    1.7290 C   0  0  0  0  0  0  0  0  0  0  0  0
    3.2101    1.1122    1.9395 H   0  0  0  0  0  0  0  0  0  0  0  0
    5.4718   -1.4467   -1.1818 C   0  0  0  0  0  0  0  0  0  0  0  0
    6.2075   -2.2723   -1.2617 H   0  0  0  0  0  0  0  0  0  0  0  0
    5.9776   -0.5264   -1.5373 H   0  0  0  0  0  0  0  0  0  0  0  0
    4.2513   -1.7628   -2.1733 C   0  0  0  0  0  0  0  0  0  0  0  0
    4.3428   -1.1061   -3.0619 H   0  0  0  0  0  0  0  0  0  0  0  0
    4.3537   -2.8063   -2.5324 H   0  0  0  0  0  0  0  0  0  0  0  0
    2.6459    2.8932   -0.5633 C   0  0  0  0  0  0  0  0  0  0  0  0
    3.2816    2.8328   -1.8137 C   0  0  0  0  0  0  0  0  0  0  0  0
    2.7150    2.5035   -2.6959 H   0  0  0  0  0  0  0  0  0  0  0  0
    4.6248    3.2208   -1.9241 C   0  0  0  0  0  0  0  0  0  0  0  0
    5.1273    3.1685   -2.9013 H   0  0  0  0  0  0  0  0  0  0  0  0
    5.3194    3.6868   -0.7963 C   0  0  0  0  0  0  0  0  0  0  0  0
    6.3739    3.9873   -0.8852 H   0  0  0  0  0  0  0  0  0  0  0  0
    4.6637    3.7852    0.4418 C   0  0  0  0  0  0  0  0  0  0  0  0
    5.2000    4.1661    1.3234 H   0  0  0  0  0  0  0  0  0  0  0  0
    3.3230    3.3944    0.5604 C   0  0  0  0  0  0  0  0  0  0  0  0
    2.7878    3.4754    1.5170 H   0  0  0  0  0  0  0  0  0  0  0  0
   -2.6150    0.6424    1.7763 C   0  0  0  0  0  0  0  0  0  0  0  0
   -2.3166    1.7873    2.5433 C   0  0  0  0  0  0  0  0  0  0  0  0
   -1.7642    2.6243    2.0896 H   0  0  0  0  0  0  0  0  0  0  0  0
   -2.7224    1.8533    3.8850 C   0  0  0  0  0  0  0  0  0  0  0  0
   -2.4854    2.7476    4.4812 H   0  0  0  0  0  0  0  0  0  0  0  0
   -3.4248    0.7853    4.4660 C   0  0  0  0  0  0  0  0  0  0  0  0
   -3.7377    0.8401    5.5197 H   0  0  0  0  0  0  0  0  0  0  0  0
   -3.7227   -0.3553    3.7029 C   0  0  0  0  0  0  0  0  0  0  0  0
   -4.2676   -1.1976    4.1552 H   0  0  0  0  0  0  0  0  0  0  0  0
   -3.3166   -0.4306    2.3627 C   0  0  0  0  0  0  0  0  0  0  0  0
   -3.5286   -1.3311    1.7640 H   0  0  0  0  0  0  0  0  0  0  0  0
   -3.4455    1.3502   -0.9325 C   0  0  0  0  0  0  0  0  0  0  0  0
   -3.9891    0.7074   -2.0622 C   0  0  0  0  0  0  0  0  0  0  0  0
   -3.6156   -0.2887   -2.3503 H   0  0  0  0  0  0  0  0  0  0  0  0
   -5.0023    1.3323   -2.8051 C   0  0  0  0  0  0  0  0  0  0  0  0
   -5.4244    0.8244   -3.6853 H   0  0  0  0  0  0  0  0  0  0  0  0
   -5.4762    2.5959   -2.4215 C   0  0  0  0  0  0  0  0  0  0  0  0
   -6.2731    3.0848   -3.0024 H   0  0  0  0  0  0  0  0  0  0  0  0
   -4.9366    3.2363   -1.2931 C   0  0  0  0  0  0  0  0  0  0  0  0
   -5.3074    4.2275   -0.9910 H   0  0  0  0  0  0  0  0  0  0  0  0
   -3.9244    2.6190   -0.5461 C   0  0  0  0  0  0  0  0  0  0  0  0
   -3.4997    3.1279    0.3296 H   0  0  0  0  0  0  0  0  0  0  0  0
  1 49  1  0  0  0  0
  3  2  2  0  0  0  0
  4  6  1  0  0  0  0
  4  3  1  0  0  0  0
  5  2  1  0  0  0  0
  5  1  1  0  0  0  0
  6  5  2  0  0  0  0
  7  6  1  0  0  0  0
  7  8  1  0  0  0  0
  8 16  1  0  0  0  0
  9  8  2  0  0  0  0
  9 10  1  0  0  0  0
 11  9  1  0  0  0  0
 12 11  1  0  0  0  0
 13 14  1  0  0  0  0
 13 11  2  0  0  0  0
 14  7  2  0  0  0  0
 15 14  1  0  0  0  0
 16 18  1  0  0  0  0
 16 17  1  0  0  0  0
 16 19  1  0  0  0  0
 19 21  1  0  0  0  0
 19 20  1  0  0  0  0
 22 19  1  0  0  0  0
 23 22  1  0  0  0  0
 23 24  1  0  0  0  0
 25 23  2  0  0  0  0
 26 25  1  0  0  0  0
 27 28  2  0  0  0  0
 27 25  1  0  0  0  0
 28 30  1  0  0  0  0
 29 28  1  0  0  0  0
 30 31  1  0  0  0  0
 30 22  2  0  0  0  0
 32 27  1  0  0  0  0
 33 32  1  0  0  0  0
 34 32  1  0  0  0  0
 35 13  1  0  0  0  0
 35 32  1  0  0  0  0
 36 35  1  0  0  0  0
 37 35  1  0  0  0  0
 38  4  1  0  0  0  0
 38 47  1  0  0  0  0
 39 38  2  0  0  0  0
 40 39  1  0  0  0  0
 41 39  1  0  0  0  0
 41 43  2  0  0  0  0
 42 41  1  0  0  0  0
 43 45  1  0  0  0  0
 44 43  1  0  0  0  0
 45 47  2  0  0  0  0
 45 46  1  0  0  0  0
 47 48  1  0  0  0  0
 49 58  2  0  0  0  0
 49 50  1  0  0  0  0
 50 52  2  0  0  0  0
 51 50  1  0  0  0  0
 52 54  1  0  0  0  0
 52 53  1  0  0  0  0
 54 55  1  0  0  0  0
 56 57  1  0  0  0  0
 56 54  2  0  0  0  0
 58 56  1  0  0  0  0
 59 58  1  0  0  0  0
 60 69  1  0  0  0  0
 60  1  1  0  0  0  0
 61 60  2  0  0  0  0
 62 61  1  0  0  0  0
 63 65  2  0  0  0  0
 63 61  1  0  0  0  0
 64 63  1  0  0  0  0
 65 67  1  0  0  0  0
 66 65  1  0  0  0  0
 67 68  1  0  0  0  0
 67 69  2  0  0  0  0
 69 70  1  0  0  0  0
M  END
