1
q = 0.0, confidence = 0.998

 48 51  0  0  0  0  0  0  0  0999 V2000
   -0.3391   -0.5584    0.5049 P   0  0  0  0  0  0  0  0  0  0  0  0
    2.0113    0.8549   -0.6266 P   0  0  0  0  0  0  0  0  0  0  0  0
    1.0463    0.4194    0.6650 O   0  0  0  0  0  0  0  0  0  0  0  0
    1.2788    0.9894   -1.9386 O   0  0  0  0  0  0  0  0  0  0  0  0
   -0.5706   -0.9123    2.2903 C   0  0  0  0  0  0  0  0  0  0  0  0
   -1.5675   -1.8434    2.6490 C   0  0  0  0  0  0  0  0  0  0  0  0
   -2.1551   -2.3527    1.8688 H   0  0  0  0  0  0  0  0  0  0  0  0
   -1.8149   -2.1183    3.9999 C   0  0  0  0  0  0  0  0  0  0  0  0
   -2.5931   -2.8463    4.2742 H   0  0  0  0  0  0  0  0  0  0  0  0
   -1.0762   -1.4632    5.0000 C   0  0  0  0  0  0  0  0  0  0  0  0
   -1.2767   -1.6759    6.0610 H   0  0  0  0  0  0  0  0  0  0  0  0
   -0.0867   -0.5350    4.6437 C   0  0  0  0  0  0  0  0  0  0  0  0
    0.4924   -0.0187    5.4244 H   0  0  0  0  0  0  0  0  0  0  0  0
    0.1704   -0.2574    3.2910 C   0  0  0  0  0  0  0  0  0  0  0  0
    0.9470    0.4658    3.0047 H   0  0  0  0  0  0  0  0  0  0  0  0
    0.3891   -2.1335   -0.1060 C   0  0  0  0  0  0  0  0  0  0  0  0
    0.0262   -2.6436   -1.3654 C   0  0  0  0  0  0  0  0  0  0  0  0
   -0.7270   -2.1192   -1.9690 H   0  0  0  0  0  0  0  0  0  0  0  0
    0.6295   -3.8145   -1.8500 C   0  0  0  0  0  0  0  0  0  0  0  0
    0.3389   -4.2098   -2.8349 H   0  0  0  0  0  0  0  0  0  0  0  0
    1.6001   -4.4735   -1.0814 C   0  0  0  0  0  0  0  0  0  0  0  0
    2.0761   -5.3894   -1.4636 H   0  0  0  0  0  0  0  0  0  0  0  0
    1.9673   -3.9654    0.1769 C   0  0  0  0  0  0  0  0  0  0  0  0
    2.7338   -4.4775    0.7775 H   0  0  0  0  0  0  0  0  0  0  0  0
    1.3628   -2.8023    0.6672 C   0  0  0  0  0  0  0  0  0  0  0  0
    1.6481   -2.4045    1.6527 H   0  0  0  0  0  0  0  0  0  0  0  0
    3.2936   -0.4336   -0.6743 C   0  0  0  0  0  0  0  0  0  0  0  0
    3.3858   -1.2236   -1.8348 C   0  0  0  0  0  0  0  0  0  0  0  0
    2.7070   -1.0111   -2.6746 H   0  0  0  0  0  0  0  0  0  0  0  0
    4.3231   -2.2653   -1.8915 C   0  0  0  0  0  0  0  0  0  0  0  0
    4.3925   -2.8903   -2.7946 H   0  0  0  0  0  0  0  0  0  0  0  0
    5.1668   -2.5127   -0.7969 C   0  0  0  0  0  0  0  0  0  0  0  0
    5.9028   -3.3299   -0.8446 H   0  0  0  0  0  0  0  0  0  0  0  0
    5.0767   -1.7197    0.3605 C   0  0  0  0  0  0  0  0  0  0  0  0
    5.7413   -1.9148    1.2159 H   0  0  0  0  0  0  0  0  0  0  0  0
    4.1392   -0.6800    0.4256 C   0  0  0  0  0  0  0  0  0  0  0  0
    4.0612   -0.0573    1.3306 H   0  0  0  0  0  0  0  0  0  0  0  0
    2.7752    2.3509    0.0640 C   0  0  0  0  0  0  0  0  0  0  0  0
    2.1471    3.1097    1.0713 C   0  0  0  0  0  0  0  0  0  0  0  0
    1.1954    2.7643    1.4988 H   0  0  0  0  0  0  0  0  0  0  0  0
    2.7372    4.3013    1.5163 C   0  0  0  0  0  0  0  0  0  0  0  0
    2.2445    4.8932    2.3024 H   0  0  0  0  0  0  0  0  0  0  0  0
    3.9495    4.7395    0.9599 C   0  0  0  0  0  0  0  0  0  0  0  0
    4.4094    5.6755    1.3117 H   0  0  0  0  0  0  0  0  0  0  0  0
    4.5762    3.9856   -0.0460 C   0  0  0  0  0  0  0  0  0  0  0  0
    5.5260    4.3284   -0.4833 H   0  0  0  0  0  0  0  0  0  0  0  0
    3.9919    2.7933   -0.4953 C   0  0  0  0  0  0  0  0  0  0  0  0
    4.4837    2.2004   -1.2824 H   0  0  0  0  0  0  0  0  0  0  0  0
  1  3  1  0  0  0  0
  1  5  1  0  0  0  0
  2 38  1  0  0  0  0
  2  3  1  0  0  0  0
  4  2  2  0  0  0  0
  5  6  2  0  0  0  0
  5 14  1  0  0  0  0
  6  8  1  0  0  0  0
  7  6  1  0  0  0  0
  8  9  1  0  0  0  0
  8 10  2  0  0  0  0
 10 11  1  0  0  0  0
 12 10  1  0  0  0  0
 12 13  1  0  0  0  0
 14 12  2  0  0  0  0
 15 14  1  0  0  0  0
 16  1  1  0  0  0  0
 16 25  1  0  0  0  0
 17 16  2  0  0  0  0
 18 17  1  0  0  0  0
 19 17  1  0  0  0  0
 19 21  2  0  0  0  0
 20 19  1  0  0  0  0
 21 23  1  0  0  0  0
 22 21  1  0  0  0  0
 23 25  2  0  0  0  0
 23 24  1  0  0  0  0
 25 26  1  0  0  0  0
 27  2  1  0  0  0  0
 27 36  1  0  0  0  0
 28 27  2  0  0  0  0
 29 28  1  0  0  0  0
 30 28  1  0  0  0  0
 30 32  2  0  0  0  0
 31 30  1  0  0  0  0
 32 34  1  0  0  0  0
 33 32  1  0  0  0  0
 34 36  2  0  0  0  0
 34 35  1  0  0  0  0
 36 37  1  0  0  0  0
 38 39  1  0  0  0  0
 39 40  1  0  0  0  0
 39 41  2  0  0  0  0
 41 42  1  0  0  0  0
 43 44  1  0  0  0  0
 43 41  1  0  0  0  0
 45 43  2  0  0  0  0
 46 45  1  0  0  0  0
 47 45  1  0  0  0  0
 47 38  2  0  0  0  0
 48 47  1  0  0  0  0
M  END
