2
q = 0.0, confidence = 0.998

 57 61  0  0  0  0  0  0  0  0999 V2000
   -2.1288   -0.4209   -0.2295 P   0  0  0  0  0  4  0  0  0  0  0  0
    1.2968   -0.8725    0.1067 P   0  0  0  0  0  0  0  0  0  0  0  0
   -1.3771   -0.6234   -2.0414 S   0  0  0  0  0  1  0  0  0  0  0  0
   -1.3744   -1.5510    1.0330 C   0  0  0  0  0  0  0  0  0  0  0  0
    0.0316   -1.7233    1.1747 C   0  0  0  0  0  0  0  0  0  0  0  0
    0.5072   -2.6027    2.1706 C   0  0  0  0  0  0  0  0  0  0  0  0
    1.5908   -2.7366    2.2963 H   0  0  0  0  0  0  0  0  0  0  0  0
   -0.3700   -3.3131    3.0030 C   0  0  0  0  0  0  0  0  0  0  0  0
    0.0357   -3.9952    3.7652 H   0  0  0  0  0  0  0  0  0  0  0  0
   -1.7516   -3.1505    2.8544 C   0  0  0  0  0  0  0  0  0  0  0  0
   -2.4541   -3.7014    3.4975 H   0  0  0  0  0  0  0  0  0  0  0  0
   -2.2432   -2.2739    1.8763 C   0  0  0  0  0  0  0  0  0  0  0  0
   -3.3292   -2.1474    1.7641 H   0  0  0  0  0  0  0  0  0  0  0  0
   -2.0228    1.2530    0.5063 C   0  0  0  0  0  0  0  0  0  0  0  0
   -2.3030    2.3491   -0.3324 C   0  0  0  0  0  0  0  0  0  0  0  0
   -2.5085    2.1741   -1.3997 H   0  0  0  0  0  0  0  0  0  0  0  0
   -2.2587    3.6481    0.1867 C   0  0  0  0  0  0  0  0  0  0  0  0
   -2.4465    4.5058   -0.4750 H   0  0  0  0  0  0  0  0  0  0  0  0
   -1.9381    3.8567    1.5379 C   0  0  0  0  0  0  0  0  0  0  0  0
   -1.8826    4.8808    1.9362 H   0  0  0  0  0  0  0  0  0  0  0  0
   -1.6627    2.7645    2.3743 C   0  0  0  0  0  0  0  0  0  0  0  0
   -1.3979    2.9295    3.4296 H   0  0  0  0  0  0  0  0  0  0  0  0
   -1.7050    1.4581    1.8638 C   0  0  0  0  0  0  0  0  0  0  0  0
   -1.4769    0.6014    2.5154 H   0  0  0  0  0  0  0  0  0  0  0  0
   -3.9292   -0.8111   -0.1836 C   0  0  0  0  0  0  0  0  0  0  0  0
   -4.4255   -1.7729   -1.0841 C   0  0  0  0  0  0  0  0  0  0  0  0
   -3.7297   -2.2359   -1.8020 H   0  0  0  0  0  0  0  0  0  0  0  0
   -5.7882   -2.1015   -1.0745 C   0  0  0  0  0  0  0  0  0  0  0  0
   -6.1743   -2.8525   -1.7804 H   0  0  0  0  0  0  0  0  0  0  0  0
   -6.6606   -1.4651   -0.1754 C   0  0  0  0  0  0  0  0  0  0  0  0
   -7.7317   -1.7187   -0.1748 H   0  0  0  0  0  0  0  0  0  0  0  0
   -6.1690   -0.4958    0.7135 C   0  0  0  0  0  0  0  0  0  0  0  0
   -6.8531    0.0142    1.4087 H   0  0  0  0  0  0  0  0  0  0  0  0
   -4.8046   -0.1660    0.7127 C   0  0  0  0  0  0  0  0  0  0  0  0
   -4.4199    0.5999    1.4033 H   0  0  0  0  0  0  0  0  0  0  0  0
    1.5209   -1.9793   -1.3378 C   0  0  0  0  0  0  0  0  0  0  0  0
    2.1962   -1.4611   -2.4605 C   0  0  0  0  0  0  0  0  0  0  0  0
    2.5103   -0.4052   -2.4665 H   0  0  0  0  0  0  0  0  0  0  0  0
    2.4387   -2.2827   -3.5694 C   0  0  0  0  0  0  0  0  0  0  0  0
    2.9600   -1.8721   -4.4472 H   0  0  0  0  0  0  0  0  0  0  0  0
    2.0064   -3.6193   -3.5655 C   0  0  0  0  0  0  0  0  0  0  0  0
    2.1903   -4.2602   -4.4412 H   0  0  0  0  0  0  0  0  0  0  0  0
    1.3320   -4.1344   -2.4474 C   0  0  0  0  0  0  0  0  0  0  0  0
    0.9846   -5.1788   -2.4444 H   0  0  0  0  0  0  0  0  0  0  0  0
    1.0887   -3.3187   -1.3321 C   0  0  0  0  0  0  0  0  0  0  0  0
    0.5482   -3.7212   -0.4627 H   0  0  0  0  0  0  0  0  0  0  0  0
    2.8554   -1.1152    1.0686 C   0  0  0  0  0  0  0  0  0  0  0  0
    3.1486   -0.1917    2.0942 C   0  0  0  0  0  0  0  0  0  0  0  0
    2.4624    0.6507    2.2780 H   0  0  0  0  0  0  0  0  0  0  0  0
    4.3146   -0.3339    2.8582 C   0  0  0  0  0  0  0  0  0  0  0  0
    4.5362    0.3919    3.6551 H   0  0  0  0  0  0  0  0  0  0  0  0
    5.2061   -1.3875    2.5941 C   0  0  0  0  0  0  0  0  0  0  0  0
    6.1277   -1.4912    3.1869 H   0  0  0  0  0  0  0  0  0  0  0  0
    4.9265   -2.2986    1.5643 C   0  0  0  0  0  0  0  0  0  0  0  0
    5.6277   -3.1185    1.3464 H   0  0  0  0  0  0  0  0  0  0  0  0
    3.7538   -2.1677    0.8029 C   0  0  0  0  0  0  0  0  0  0  0  0
    3.5381   -2.8832   -0.0044 H   0  0  0  0  0  0  0  0  0  0  0  0
  1 25  1  0  0  0  0
  1 14  1  0  0  0  0
  1  4  1  0  0  0  0
  2 47  1  0  0  0  0
  2  5  1  0  0  0  0
  3  1  1  0  0  0  0
  4  5  2  0  0  0  0
  4 12  1  0  0  0  0
  5  6  1  0  0  0  0
  6  7  1  0  0  0  0
  6  8  2  0  0  0  0
  8  9  1  0  0  0  0
 10  8  1  0  0  0  0
 10 11  1  0  0  0  0
 12 10  2  0  0  0  0
 13 12  1  0  0  0  0
 14 23  1  0  0  0  0
 15 17  1  0  0  0  0
 15 14  2  0  0  0  0
 16 15  1  0  0  0  0
 17 19  2  0  0  0  0
 18 17  1  0  0  0  0
 19 20  1  0  0  0  0
 19 21  1  0  0  0  0
 21 22  1  0  0  0  0
 23 21  2  0  0  0  0
 23 24  1  0  0  0  0
 25 34  1  0  0  0  0
 26 28  1  0  0  0  0
 26 25  2  0  0  0  0
 27 26  1  0  0  0  0
 28 30  2  0  0  0  0
 29 28  1  0  0  0  0
 30 31  1  0  0  0  0
 30 32  1  0  0  0  0
 32 33  1  0  0  0  0
 34 32  2  0  0  0  0
 34 35  1  0  0  0  0
 36 45  1  0  0  0  0
 36  2  1  0  0  0  0
 37 36  2  0  0  0  0
 38 37  1  0  0  0  0
 39 41  2  0  0  0  0
 39 37  1  0  0  0  0
 40 39  1  0  0  0  0
 41 43  1  0  0  0  0
 42 41  1  0  0  0  0
 43 44  1  0  0  0  0
 43 45  2  0  0  0  0
 45 46  1  0  0  0  0
 47 48  1  0  0  0  0
 48 49  1  0  0  0  0
 48 50  2  0  0  0  0
 50 51  1  0  0  0  0
 52 50  1  0  0  0  0
 52 53  1  0  0  0  0
 54 52  2  0  0  0  0
 55 54  1  0  0  0  0
 56 47  2  0  0  0  0
 56 54  1  0  0  0  0
 57 56  1  0  0  0  0
M  END
