1
q = 0.0, confidence = 0.998

 60 66  0  0  1  0  0  0  0  0999 V2000
   -0.1605    0.8778    0.5674 P   0  0  0  0  0  0  0  0  0  0  0  0
   -1.6594    0.0135   -0.0247 C   0  0  0  0  0  0  0  0  0  0  0  0
   -1.9486   -0.3107   -1.3240 C   0  0  0  0  0  0  0  0  0  0  0  0
   -3.2288   -1.1683   -1.4498 C   0  0  1  0  0  0  0  0  0  0  0  0
   -3.4579   -1.4268   -2.4979 H   0  0  0  0  0  0  0  0  0  0  0  0
   -3.0073   -2.3930   -0.5650 C   0  0  0  0  0  0  0  0  0  0  0  0
   -3.0492   -3.7342   -0.9559 C   0  0  0  0  0  0  0  0  0  0  0  0
   -3.2890   -4.0047   -1.9963 H   0  0  0  0  0  0  0  0  0  0  0  0
   -2.7770   -4.7348   -0.0009 C   0  0  0  0  0  0  0  0  0  0  0  0
   -2.8048   -5.7941   -0.2983 H   0  0  0  0  0  0  0  0  0  0  0  0
   -2.4639   -4.3873    1.3220 C   0  0  0  0  0  0  0  0  0  0  0  0
   -2.2415   -5.1752    2.0574 H   0  0  0  0  0  0  0  0  0  0  0  0
   -2.4256   -3.0351    1.7155 C   0  0  0  0  0  0  0  0  0  0  0  0
   -2.1672   -2.7561    2.7486 H   0  0  0  0  0  0  0  0  0  0  0  0
   -2.7038   -2.0459    0.7687 C   0  0  0  0  0  0  0  0  0  0  0  0
   -2.6882   -0.5350    0.9868 C   0  0  2  0  0  0  0  0  0  0  0  0
   -2.4545   -0.2641    2.0293 H   0  0  0  0  0  0  0  0  0  0  0  0
   -4.0472   -0.0135    0.5377 C   0  0  0  0  0  0  0  0  0  0  0  0
   -4.9455    0.7472    1.2919 C   0  0  0  0  0  0  0  0  0  0  0  0
   -4.7075    1.0161    2.3327 H   0  0  0  0  0  0  0  0  0  0  0  0
   -6.1500    1.1717    0.6975 C   0  0  0  0  0  0  0  0  0  0  0  0
   -6.8631    1.7745    1.2800 H   0  0  0  0  0  0  0  0  0  0  0  0
   -6.4438    0.8327   -0.6322 C   0  0  0  0  0  0  0  0  0  0  0  0
   -7.3865    1.1704   -1.0887 H   0  0  0  0  0  0  0  0  0  0  0  0
   -5.5378    0.0644   -1.3899 C   0  0  0  0  0  0  0  0  0  0  0  0
   -5.7651   -0.2000   -2.4342 H   0  0  0  0  0  0  0  0  0  0  0  0
   -4.3424   -0.3536   -0.7986 C   0  0  0  0  0  0  0  0  0  0  0  0
   -1.1565   -0.0133   -2.5250 C   0  0  0  0  0  0  0  0  0  0  0  0
   -0.4835    1.2199   -2.6853 C   0  0  0  0  0  0  0  0  0  0  0  0
   -0.6270    2.0301   -1.9574 H   0  0  0  0  0  0  0  0  0  0  0  0
    0.3326    1.4511   -3.8039 C   0  0  0  0  0  0  0  0  0  0  0  0
    0.8594    2.4130   -3.8799 H   0  0  0  0  0  0  0  0  0  0  0  0
    0.4950    0.4551   -4.7764 C   0  0  0  0  0  0  0  0  0  0  0  0
    1.1368    0.6359   -5.6525 H   0  0  0  0  0  0  0  0  0  0  0  0
   -0.1702   -0.7763   -4.6325 C   0  0  0  0  0  0  0  0  0  0  0  0
   -0.0417   -1.5662   -5.3882 H   0  0  0  0  0  0  0  0  0  0  0  0
   -0.9928   -1.0054   -3.5244 C   0  0  0  0  0  0  0  0  0  0  0  0
   -1.4820   -1.9839   -3.4070 H   0  0  0  0  0  0  0  0  0  0  0  0
   -0.7218    2.6247    0.7236 C   0  0  0  0  0  0  0  0  0  0  0  0
    0.1723    3.5777    1.2562 C   0  0  0  0  0  0  0  0  0  0  0  0
    1.1945    3.2777    1.5271 H   0  0  0  0  0  0  0  0  0  0  0  0
   -0.2399    4.9060    1.4211 C   0  0  0  0  0  0  0  0  0  0  0  0
    0.4629    5.6449    1.8346 H   0  0  0  0  0  0  0  0  0  0  0  0
   -1.5346    5.2991    1.0406 C   0  0  0  0  0  0  0  0  0  0  0  0
   -1.8509    6.3461    1.1645 H   0  0  0  0  0  0  0  0  0  0  0  0
   -2.4199    4.3571    0.4965 C   0  0  0  0  0  0  0  0  0  0  0  0
   -3.4349    4.6561    0.1939 H   0  0  0  0  0  0  0  0  0  0  0  0
   -2.0170    3.0208    0.3386 C   0  0  0  0  0  0  0  0  0  0  0  0
   -2.7181    2.2849   -0.0820 H   0  0  0  0  0  0  0  0  0  0  0  0
   -0.0544    0.3381    2.3365 C   0  0  0  0  0  0  0  0  0  0  0  0
    0.5745   -0.8849    2.6486 C   0  0  0  0  0  0  0  0  0  0  0  0
    1.0438   -1.4753    1.8504 H   0  0  0  0  0  0  0  0  0  0  0  0
    0.6006   -1.3476    3.9726 C   0  0  0  0  0  0  0  0  0  0  0  0
    1.0939   -2.3050    4.1993 H   0  0  0  0  0  0  0  0  0  0  0  0
    0.0121   -0.5931    4.9998 C   0  0  0  0  0  0  0  0  0  0  0  0
    0.0395   -0.9553    6.0389 H   0  0  0  0  0  0  0  0  0  0  0  0
   -0.6050    0.6309    4.6965 C   0  0  0  0  0  0  0  0  0  0  0  0
   -1.0634    1.2326    5.4962 H   0  0  0  0  0  0  0  0  0  0  0  0
   -0.6419    1.0953    3.3728 C   0  0  0  0  0  0  0  0  0  0  0  0
   -1.1324    2.0525    3.1434 H   0  0  0  0  0  0  0  0  0  0  0  0
  1 39  1  0  0  0  0
  1 50  1  0  0  0  0
  2  1  1  0  0  0  0
  2 16  1  0  0  0  0
  3  2  2  0  0  0  0
  4  5  1  6  0  0  0
  4  3  1  0  0  0  0
  4 27  1  0  0  0  0
  4  6  1  0  0  0  0
  6 15  1  0  0  0  0
  7  6  2  0  0  0  0
  7  9  1  0  0  0  0
  8  7  1  0  0  0  0
  9 11  2  0  0  0  0
 10  9  1  0  0  0  0
 11 13  1  0  0  0  0
 11 12  1  0  0  0  0
 13 14  1  0  0  0  0
 15 16  1  0  0  0  0
 15 13  2  0  0  0  0
 16 17  1  1  0  0  0
 18 16  1  0  0  0  0
 18 19  1  0  0  0  0
 19 20  1  0  0  0  0
 21 22  1  0  0  0  0
 21 19  2  0  0  0  0
 23 21  1  0  0  0  0
 24 23  1  0  0  0  0
 25 27  1  0  0  0  0
 25 23  2  0  0  0  0
 26 25  1  0  0  0  0
 27 18  2  0  0  0  0
 28  3  1  0  0  0  0
 29 28  1  0  0  0  0
 29 30  1  0  0  0  0
 31 29  2  0  0  0  0
 32 31  1  0  0  0  0
 33 35  2  0  0  0  0
 33 31  1  0  0  0  0
 34 33  1  0  0  0  0
 35 37  1  0  0  0  0
 36 35  1  0  0  0  0
 37 38  1  0  0  0  0
 37 28  2  0  0  0  0
 39 40  1  0  0  0  0
 40 42  2  0  0  0  0
 40 41  1  0  0  0  0
 42 43  1  0  0  0  0
 44 45  1  0  0  0  0
 44 42  1  0  0  0  0
 46 44  2  0  0  0  0
 47 46  1  0  0  0  0
 48 46  1  0  0  0  0
 48 39  2  0  0  0  0
 49 48  1  0  0  0  0
 50 51  2  0  0  0  0
 50 59  1  0  0  0  0
 51 53  1  0  0  0  0
 52 51  1  0  0  0  0
 53 54  1  0  0  0  0
 53 55  2  0  0  0  0
 55 56  1  0  0  0  0
 57 55  1  0  0  0  0
 57 58  1  0  0  0  0
 59 57  2  0  0  0  0
 60 59  1  0  0  0  0
M  END
