2,3,20,21,30,31
q = -3.0, confidence = 0.396

 49 51  0  0  0  0  0  0  0  0999 V2000
   -3.3749    0.0002   -0.0004 N   0  0  0  0  0  0  0  0  0  0  0  0
   -0.8746   -0.7972   -1.4855 N   0  0  0  0  0  2  0  0  0  0  0  0
    1.1972    0.7192   -1.4130 N   0  0  0  0  0  0  0  0  0  0  0  0
    2.5956    1.6389   -2.9218 N   0  0  0  0  0  0  0  0  0  0  0  0
   -3.3441   -0.9228   -1.1045 C   0  0  0  0  0  0  0  0  0  0  0  0
   -2.0138   -1.6761   -1.3475 C   0  0  0  0  0  0  0  0  0  0  0  0
   -0.3482   -0.5416   -2.6633 C   0  0  0  0  0  3  0  0  0  0  0  0
    0.7832    0.3147   -2.6777 C   0  0  0  0  0  0  0  0  0  0  0  0
    1.6798    0.9050   -3.5970 C   0  0  0  0  0  0  0  0  0  0  0  0
    2.2740    1.5000   -1.6096 C   0  0  0  0  0  3  0  0  0  0  0  0
   -4.1353   -1.7042   -0.9879 H   0  0  0  0  0  0  0  0  0  0  0  0
   -3.6001   -0.3585   -2.0270 H   0  0  0  0  0  0  0  0  0  0  0  0
   -2.1321   -2.3051   -2.2587 H   0  0  0  0  0  0  0  0  0  0  0  0
   -1.8192   -2.3675   -0.5017 H   0  0  0  0  0  0  0  0  0  0  0  0
   -0.7696   -0.9875   -3.5838 H   0  0  0  0  0  0  0  0  0  0  0  0
    1.6872    0.8229   -4.6926 H   0  0  0  0  0  0  0  0  0  0  0  0
    2.8295    1.9653   -0.7845 H   0  0  0  0  0  0  0  0  0  0  0  0
   -3.3445   -0.4947    1.3510 C   0  0  0  0  0  0  0  0  0  0  0  0
   -2.0144   -0.3292    2.1252 C   0  0  0  0  0  0  0  0  0  0  0  0
   -0.8751   -0.8880    1.4330 N   0  0  0  0  0  2  0  0  0  0  0  0
   -0.8749    1.6850    0.0521 N   0  0  0  0  0  2  0  0  0  0  0  0
   -2.0138    2.0049   -0.7784 C   0  0  0  0  0  0  0  0  0  0  0  0
   -3.3441    1.4179   -0.2475 C   0  0  0  0  0  0  0  0  0  0  0  0
   -4.1354    1.7078   -0.9824 H   0  0  0  0  0  0  0  0  0  0  0  0
   -3.5999    1.9344    0.7026 H   0  0  0  0  0  0  0  0  0  0  0  0
   -2.1321    3.1085   -0.8676 H   0  0  0  0  0  0  0  0  0  0  0  0
   -1.8191    1.6180   -1.8000 H   0  0  0  0  0  0  0  0  0  0  0  0
   -0.3488    2.5772    0.8626 C   0  0  0  0  0  3  0  0  0  0  0  0
    0.7825    2.1618    1.6115 C   0  0  0  0  0  0  0  0  0  0  0  0
    1.1970    0.8644    1.3294 N   0  0  0  0  0  0  0  0  0  0  0  0
    1.1972   -1.5834    0.0840 N   0  0  0  0  0  0  0  0  0  0  0  0
    0.7827   -2.4766    1.0663 C   0  0  0  0  0  3  0  0  0  0  0  0
   -0.3489   -2.0360    1.8003 C   0  0  0  0  0  3  0  0  0  0  0  0
   -0.7706   -2.6104    2.6465 H   0  0  0  0  0  0  0  0  0  0  0  0
    1.6791   -3.5680    1.0149 C   0  0  0  0  0  0  0  0  0  0  0  0
    2.5952   -3.3502    0.0420 N   0  0  0  0  0  0  0  0  0  0  0  0
    2.2741   -2.1442   -0.4936 C   0  0  0  0  0  0  0  0  0  0  0  0
    2.8299   -1.6623   -1.3089 H   0  0  0  0  0  0  0  0  0  0  0  0
    1.6861   -4.4759    1.6336 H   0  0  0  0  0  0  0  0  0  0  0  0
    2.2737    0.6445    2.1042 C   0  0  0  0  0  0  0  0  0  0  0  0
    2.5948    1.7114    2.8807 N   0  0  0  0  0  0  0  0  0  0  0  0
    1.6787    2.6629    2.5827 C   0  0  0  0  0  3  0  0  0  0  0  0
    1.6857    3.6526    3.0596 H   0  0  0  0  0  0  0  0  0  0  0  0
    2.8295   -0.3025    2.0945 H   0  0  0  0  0  0  0  0  0  0  0  0
   -0.7704    3.5973    0.9366 H   0  0  0  0  0  0  0  0  0  0  0  0
   -2.1330   -0.8045    3.1251 H   0  0  0  0  0  0  0  0  0  0  0  0
   -1.8195    0.7488    2.3020 H   0  0  0  0  0  0  0  0  0  0  0  0
   -4.1357   -0.0029    1.9693 H   0  0  0  0  0  0  0  0  0  0  0  0
   -3.6010   -1.5756    1.3232 H   0  0  0  0  0  0  0  0  0  0  0  0
  1 18  1  0  0  0  0
  2  6  1  0  0  0  0
  4 10  1  0  0  0  0
  5 11  1  0  0  0  0
  5  1  1  0  0  0  0
  6  5  1  0  0  0  0
  6 14  1  0  0  0  0
  7  2  1  0  0  0  0
  8  7  1  0  0  0  0
  8  3  2  0  0  0  0
  9  4  2  0  0  0  0
  9  8  1  0  0  0  0
 10  3  1  0  0  0  0
 10 17  1  0  0  0  0
 12  5  1  0  0  0  0
 13  6  1  0  0  0  0
 15  7  1  0  0  0  0
 16  9  1  0  0  0  0
 18 48  1  0  0  0  0
 18 19  1  0  0  0  0
 19 47  1  0  0  0  0
 19 46  1  0  0  0  0
 20 33  1  0  0  0  0
 20 19  1  0  0  0  0
 21 28  1  0  0  0  0
 22 23  1  0  0  0  0
 22 21  1  0  0  0  0
 23  1  1  0  0  0  0
 23 25  1  0  0  0  0
 24 23  1  0  0  0  0
 26 22  1  0  0  0  0
 27 22  1  0  0  0  0
 28 45  1  0  0  0  0
 28 29  1  0  0  0  0
 29 42  1  0  0  0  0
 30 29  2  0  0  0  0
 30 40  1  0  0  0  0
 31 32  1  0  0  0  0
 32 33  1  0  0  0  0
 33 34  1  0  0  0  0
 35 32  1  0  0  0  0
 35 39  1  0  0  0  0
 36 35  2  0  0  0  0
 37 36  1  0  0  0  0
 37 31  2  0  0  0  0
 38 37  1  0  0  0  0
 40 41  2  0  0  0  0
 42 41  1  0  0  0  0
 42 43  1  0  0  0  0
 44 40  1  0  0  0  0
 49 18  1  0  0  0  0
M  END
