5,6,7,8,9,10
q = -1.0

 63 66  0  0  0  0  0  0  0  0999 V2000
    2.3814   -0.0014   -0.0321 B   0  0  1  0  0  0  0  0  0  0  0  0
    1.8555    0.1562    1.3920 O   0  0  0  0  0  0  0  0  0  0  0  0
    1.8413   -1.3040   -0.5924 O   0  0  0  0  0  0  0  0  0  0  0  0
    1.8392    1.1472   -0.8611 O   0  0  0  0  0  0  0  0  0  0  0  0
    0.5587   -0.1614    1.4883 N   0  0  0  0  0  2  0  0  0  0  0  0
   -1.6780   -1.2066    1.1164 N   0  0  0  0  0  2  0  0  0  0  0  0
    0.5426   -1.2171   -0.9009 N   0  0  0  0  0  2  0  0  0  0  0  0
   -1.6978   -0.3581   -1.5929 N   0  0  0  0  0  2  0  0  0  0  0  0
    0.5425    1.3777   -0.6188 N   0  0  0  0  0  2  0  0  0  0  0  0
   -1.6807    1.5643    0.4965 N   0  0  0  0  0  2  0  0  0  0  0  0
    0.9547   -0.9116    3.8232 C   0  0  0  0  0  0  0  0  0  0  0  0
    0.4787   -0.4296    4.7021 H   0  0  0  0  0  0  0  0  0  0  0  0
    1.9531   -0.4663    3.6712 H   0  0  0  0  0  0  0  0  0  0  0  0
    1.0791   -1.9881    4.0620 H   0  0  0  0  0  0  0  0  0  0  0  0
    0.1215   -0.7277    2.5991 C   0  0  0  0  0  0  0  0  0  0  0  0
   -1.2033   -1.2921    2.4095 C   0  0  0  0  0  0  0  0  0  0  0  0
   -1.9275   -1.9670    3.4122 C   0  0  0  0  0  0  0  0  0  0  0  0
   -1.5260   -2.0049    4.4342 H   0  0  0  0  0  0  0  0  0  0  0  0
   -3.1371   -2.5875    3.0888 C   0  0  0  0  0  0  0  0  0  0  0  0
   -3.7129   -3.1218    3.8584 H   0  0  0  0  0  0  0  0  0  0  0  0
   -3.5963   -2.5241    1.7617 C   0  0  0  0  0  0  0  0  0  0  0  0
   -4.5317   -3.0118    1.4544 H   0  0  0  0  0  0  0  0  0  0  0  0
   -2.8423   -1.8240    0.8150 C   0  0  0  0  0  0  0  0  0  0  0  0
   -3.1826   -1.7486   -0.2269 H   0  0  0  0  0  0  0  0  0  0  0  0
    0.9116   -2.8535   -2.7343 C   0  0  0  0  0  0  0  0  0  0  0  0
    0.4807   -3.8752   -2.6807 H   0  0  0  0  0  0  0  0  0  0  0  0
    1.9418   -2.8845   -2.3392 H   0  0  0  0  0  0  0  0  0  0  0  0
    0.9489   -2.5644   -3.8043 H   0  0  0  0  0  0  0  0  0  0  0  0
    0.0916   -1.8871   -1.9469 C   0  0  0  0  0  0  0  0  0  0  0  0
   -1.2370   -1.4355   -2.3217 C   0  0  0  0  0  0  0  0  0  0  0  0
   -1.9786   -1.9632   -3.3974 C   0  0  0  0  0  0  0  0  0  0  0  0
   -1.5888   -2.8311   -3.9467 H   0  0  0  0  0  0  0  0  0  0  0  0
   -3.1910   -1.3679   -3.7557 C   0  0  0  0  0  0  0  0  0  0  0  0
   -3.7803   -1.7644   -4.5951 H   0  0  0  0  0  0  0  0  0  0  0  0
   -3.6356   -0.2489   -3.0301 C   0  0  0  0  0  0  0  0  0  0  0  0
   -4.5725    0.2651   -3.2855 H   0  0  0  0  0  0  0  0  0  0  0  0
   -2.8651    0.2166   -1.9603 C   0  0  0  0  0  0  0  0  0  0  0  0
   -3.1942    1.0817   -1.3684 H   0  0  0  0  0  0  0  0  0  0  0  0
    0.9170    3.7733   -1.1532 C   0  0  0  0  0  0  0  0  0  0  0  0
    1.1697    4.4495   -0.3095 H   0  0  0  0  0  0  0  0  0  0  0  0
    0.3659    4.3729   -1.9056 H   0  0  0  0  0  0  0  0  0  0  0  0
    1.8575    3.4121   -1.6041 H   0  0  0  0  0  0  0  0  0  0  0  0
    0.0953    2.6186   -0.6862 C   0  0  0  0  0  0  0  0  0  0  0  0
   -1.2213    2.7301   -0.0824 C   0  0  0  0  0  0  0  0  0  0  0  0
   -1.9493    3.9324    0.0151 C   0  0  0  0  0  0  0  0  0  0  0  0
   -1.5593    4.8398   -0.4659 H   0  0  0  0  0  0  0  0  0  0  0  0
   -3.1477    3.9558    0.7336 C   0  0  0  0  0  0  0  0  0  0  0  0
   -3.7259    4.8869    0.8232 H   0  0  0  0  0  0  0  0  0  0  0  0
   -3.5920    2.7714    1.3464 C   0  0  0  0  0  0  0  0  0  0  0  0
   -4.5182    2.7437    1.9370 H   0  0  0  0  0  0  0  0  0  0  0  0
   -2.8347    1.6053    1.1998 C   0  0  0  0  0  0  0  0  0  0  0  0
   -3.1633    0.6630    1.6591 H   0  0  0  0  0  0  0  0  0  0  0  0
    3.9625   -0.0033   -0.0361 C   0  0  0  0  0  0  0  0  0  0  0  0
    4.6890   -1.2140   -0.0076 C   0  0  0  0  0  0  0  0  0  0  0  0
    4.1462   -2.1725   -0.0139 H   0  0  0  0  0  0  0  0  0  0  0  0
    6.0915   -1.2160    0.0239 C   0  0  0  0  0  0  0  0  0  0  0  0
    6.6410   -2.1696    0.0439 H   0  0  0  0  0  0  0  0  0  0  0  0
    6.7947   -0.0005    0.0276 C   0  0  0  0  0  0  0  0  0  0  0  0
    7.8951    0.0006    0.0508 H   0  0  0  0  0  0  0  0  0  0  0  0
    6.0897    1.2136   -0.0000 C   0  0  0  0  0  0  0  0  0  0  0  0
    6.6378    2.1683    0.0015 H   0  0  0  0  0  0  0  0  0  0  0  0
    4.6872    1.2087   -0.0310 C   0  0  0  0  0  0  0  0  0  0  0  0
    4.1428    2.1659   -0.0548 H   0  0  0  0  0  0  0  0  0  0  0  0
  1  4  1  6  0  0  0
  1  2  1  0  0  0  0
  2  5  1  0  0  0  0
  3  1  1  0  0  0  0
  4  9  1  0  0  0  0
  5 15  1  0  0  0  0
  6 16  1  0  0  0  0
  7  3  1  0  0  0  0
 10 51  1  0  0  0  0
 11 14  1  0  0  0  0
 11 12  1  0  0  0  0
 13 11  1  0  0  0  0
 15 11  1  0  0  0  0
 16 15  2  0  0  0  0
 16 17  1  0  0  0  0
 17 18  1  0  0  0  0
 19 17  2  0  0  0  0
 19 20  1  0  0  0  0
 21 19  1  0  0  0  0
 22 21  1  0  0  0  0
 23  6  1  0  0  0  0
 23 21  2  0  0  0  0
 24 23  1  0  0  0  0
 25 26  1  0  0  0  0
 25 27  1  0  0  0  0
 25 29  1  0  0  0  0
 28 25  1  0  0  0  0
 29  7  1  0  0  0  0
 30 29  2  0  0  0  0
 30  8  1  0  0  0  0
 31 30  1  0  0  0  0
 32 31  1  0  0  0  0
 33 31  2  0  0  0  0
 33 35  1  0  0  0  0
 34 33  1  0  0  0  0
 35 37  2  0  0  0  0
 36 35  1  0  0  0  0
 37  8  1  0  0  0  0
 37 38  1  0  0  0  0
 39 43  1  0  0  0  0
 39 40  1  0  0  0  0
 41 39  1  0  0  0  0
 42 39  1  0  0  0  0
 43  9  1  0  0  0  0
 43 44  2  0  0  0  0
 44 45  1  0  0  0  0
 44 10  1  0  0  0  0
 45 47  2  0  0  0  0
 46 45  1  0  0  0  0
 47 48  1  0  0  0  0
 47 49  1  0  0  0  0
 49 50  1  0  0  0  0
 51 49  2  0  0  0  0
 51 52  1  0  0  0  0
 53  1  1  0  0  0  0
 53 62  2  0  0  0  0
 53 54  1  0  0  0  0
 54 56  2  0  0  0  0
 55 54  1  0  0  0  0
 56 58  1  0  0  0  0
 56 57  1  0  0  0  0
 58 59  1  0  0  0  0
 60 61  1  0  0  0  0
 60 58  2  0  0  0  0
 62 60  1  0  0  0  0
 63 62  1  0  0  0  0
M  END
