9,10,11,12,13,14
q = -2.0, confidence = 0.748

 74 80  0  0  1  0  0  0  0  0999 V2000
    0.1052    4.5836    1.8142 S   0  0  0  0  0  0  0  0  0  0  0  0
   -0.1052    4.5836   -1.8140 S   0  0  0  0  0  0  0  0  0  0  0  0
   -1.4488    0.2576    2.4648 O   0  0  0  0  0  0  0  0  0  0  0  0
   -0.8612   -0.5195   -2.5346 O   0  0  0  0  0  0  0  0  0  0  0  0
    0.8612   -0.5196    2.5346 O   0  0  0  0  0  0  0  0  0  0  0  0
    1.4488    0.2576   -2.4648 O   0  0  0  0  0  0  0  0  0  0  0  0
    0.3816    1.8789    2.5249 O   0  0  0  0  0  0  0  0  0  0  0  0
   -0.3816    1.8790   -2.5249 O   0  0  0  0  0  0  0  0  0  0  0  0
   -1.4731    0.0568    1.1371 N   0  0  0  0  0  2  0  0  0  0  0  0
   -1.0876   -0.4975   -1.2107 N   0  0  0  0  0  2  0  0  0  0  0  0
    1.0875   -0.4976    1.2106 N   0  0  0  0  0  2  0  0  0  0  0  0
    1.4731    0.0568   -1.1371 N   0  0  0  0  0  2  0  0  0  0  0  0
    0.2860    1.9887    1.1873 N   0  0  0  0  0  2  0  0  0  0  0  0
   -0.2860    1.9888   -1.1872 N   0  0  0  0  0  2  0  0  0  0  0  0
   -0.0837    0.5376    3.0107 B   0  0  1  0  0  0  0  0  0  0  0  0
    0.0837    0.5377   -3.0107 B   0  0  2  0  0  0  0  0  0  0  0  0
   -0.1266    0.5344    4.3622 F   0  0  0  0  0  0  0  0  0  0  0  0
    0.1266    0.5346   -4.3622 F   0  0  0  0  0  0  0  0  0  0  0  0
   -2.4355   -0.7286    0.6456 C   0  0  1  0  0  3  0  0  0  0  0  0
   -2.2648   -0.9549   -0.7759 C   0  0  1  0  0  3  0  0  0  0  0  0
    2.2648   -0.9549    0.7758 C   0  0  1  0  0  3  0  0  0  0  0  0
    2.4355   -0.7286   -0.6456 C   0  0  1  0  0  3  0  0  0  0  0  0
    0.1104    3.2156    0.7123 C   0  0  0  0  0  0  0  0  0  0  0  0
   -0.1103    3.2157   -0.7122 C   0  0  0  0  0  0  0  0  0  0  0  0
   -3.4813   -1.3653    1.4706 C   0  0  0  0  0  0  0  0  0  0  0  0
   -3.8315   -2.7148    1.2318 C   0  0  0  0  0  0  0  0  0  0  0  0
   -3.3111   -3.2792    0.4449 H   0  0  0  0  0  0  0  0  0  0  0  0
   -4.8274   -3.3369    1.9939 C   0  0  0  0  0  0  0  0  0  0  0  0
   -5.0826   -4.3895    1.7997 H   0  0  0  0  0  0  0  0  0  0  0  0
   -5.4956   -2.6219    3.0007 C   0  0  0  0  0  0  0  0  0  0  0  0
   -6.2808   -3.1105    3.5975 H   0  0  0  0  0  0  0  0  0  0  0  0
   -5.1538   -1.2824    3.2463 C   0  0  0  0  0  0  0  0  0  0  0  0
   -5.6705   -0.7172    4.0366 H   0  0  0  0  0  0  0  0  0  0  0  0
   -4.1515   -0.6570    2.4941 C   0  0  0  0  0  0  0  0  0  0  0  0
   -3.8819    0.3876    2.6963 H   0  0  0  0  0  0  0  0  0  0  0  0
   -3.3026   -1.5215   -1.6602 C   0  0  0  0  0  0  0  0  0  0  0  0
   -4.6565   -1.1598   -1.4698 C   0  0  0  0  0  0  0  0  0  0  0  0
   -4.9213   -0.4471   -0.6757 H   0  0  0  0  0  0  0  0  0  0  0  0
   -5.6574   -1.6950   -2.2892 C   0  0  0  0  0  0  0  0  0  0  0  0
   -6.7052   -1.3975   -2.1327 H   0  0  0  0  0  0  0  0  0  0  0  0
   -5.3257   -2.6049   -3.3058 C   0  0  0  0  0  0  0  0  0  0  0  0
   -6.1134   -3.0278   -3.9477 H   0  0  0  0  0  0  0  0  0  0  0  0
   -3.9839   -2.9687   -3.5035 C   0  0  0  0  0  0  0  0  0  0  0  0
   -3.7163   -3.6779   -4.3012 H   0  0  0  0  0  0  0  0  0  0  0  0
   -2.9767   -2.4290   -2.6937 C   0  0  0  0  0  0  0  0  0  0  0  0
   -1.9282   -2.7095   -2.8584 H   0  0  0  0  0  0  0  0  0  0  0  0
    3.3025   -1.5215    1.6601 C   0  0  0  0  0  0  0  0  0  0  0  0
    2.9767   -2.4291    2.6937 C   0  0  0  0  0  0  0  0  0  0  0  0
    1.9281   -2.7096    2.8583 H   0  0  0  0  0  0  0  0  0  0  0  0
    3.9838   -2.9688    3.5035 C   0  0  0  0  0  0  0  0  0  0  0  0
    3.7161   -3.6780    4.3011 H   0  0  0  0  0  0  0  0  0  0  0  0
    5.3256   -2.6050    3.3058 C   0  0  0  0  0  0  0  0  0  0  0  0
    6.1132   -3.0279    3.9477 H   0  0  0  0  0  0  0  0  0  0  0  0
    5.6574   -1.6951    2.2892 C   0  0  0  0  0  0  0  0  0  0  0  0
    6.7051   -1.3976    2.1327 H   0  0  0  0  0  0  0  0  0  0  0  0
    4.6565   -1.1599    1.4698 C   0  0  0  0  0  0  0  0  0  0  0  0
    4.9213   -0.4472    0.6757 H   0  0  0  0  0  0  0  0  0  0  0  0
    3.4813   -1.3652   -1.4706 C   0  0  0  0  0  0  0  0  0  0  0  0
    3.8315   -2.7148   -1.2319 C   0  0  0  0  0  0  0  0  0  0  0  0
    3.3110   -3.2792   -0.4451 H   0  0  0  0  0  0  0  0  0  0  0  0
    4.8274   -3.3369   -1.9940 C   0  0  0  0  0  0  0  0  0  0  0  0
    5.0825   -4.3895   -1.7999 H   0  0  0  0  0  0  0  0  0  0  0  0
    5.4957   -2.6219   -3.0008 C   0  0  0  0  0  0  0  0  0  0  0  0
    6.2808   -3.1104   -3.5975 H   0  0  0  0  0  0  0  0  0  0  0  0
    5.1539   -1.2823   -3.2463 C   0  0  0  0  0  0  0  0  0  0  0  0
    5.6707   -0.7171   -4.0365 H   0  0  0  0  0  0  0  0  0  0  0  0
    4.1515   -0.6570   -2.4941 C   0  0  0  0  0  0  0  0  0  0  0  0
    3.8820    0.3877   -2.6962 H   0  0  0  0  0  0  0  0  0  0  0  0
   -0.3960    5.9077    0.6502 C   0  0  0  0  0  0  0  0  0  0  0  0
   -1.4857    5.8459    0.4529 H   0  0  0  0  0  0  0  0  0  0  0  0
   -0.2009    6.8380    1.2219 H   0  0  0  0  0  0  0  0  0  0  0  0
    0.3960    5.9077   -0.6500 C   0  0  0  0  0  0  0  0  0  0  0  0
    1.4857    5.8459   -0.4527 H   0  0  0  0  0  0  0  0  0  0  0  0
    0.2009    6.8380   -1.2217 H   0  0  0  0  0  0  0  0  0  0  0  0
  2 24  1  0  0  0  0
  2 72  1  0  0  0  0
  3 15  1  0  0  0  0
  4 10  1  0  0  0  0
  5 15  1  0  0  0  0
  6 12  1  0  0  0  0
  7 15  1  0  0  0  0
  8 14  1  0  0  0  0
  9  3  1  0  0  0  0
 10 20  1  0  0  0  0
 11  5  1  0  0  0  0
 12 22  1  0  0  0  0
 13  7  1  0  0  0  0
 14 24  1  0  0  0  0
 15 17  1  1  0  0  0
 16 18  1  6  0  0  0
 16  4  1  0  0  0  0
 16  8  1  0  0  0  0
 16  6  1  0  0  0  0
 19  9  1  0  0  0  0
 19 25  1  1  0  0  0
 20 36  1  6  0  0  0
 20 19  1  0  0  0  0
 21 11  1  0  0  0  0
 21 47  1  1  0  0  0
 22 58  1  6  0  0  0
 22 21  1  0  0  0  0
 23 13  1  0  0  0  0
 23  1  1  0  0  0  0
 24 23  2  0  0  0  0
 25 34  1  0  0  0  0
 26 25  2  0  0  0  0
 26 28  1  0  0  0  0
 27 26  1  0  0  0  0
 28 30  2  0  0  0  0
 29 28  1  0  0  0  0
 30 32  1  0  0  0  0
 30 31  1  0  0  0  0
 32 33  1  0  0  0  0
 34 35  1  0  0  0  0
 34 32  2  0  0  0  0
 36 37  1  0  0  0  0
 37 38  1  0  0  0  0
 39 40  1  0  0  0  0
 39 37  2  0  0  0  0
 41 39  1  0  0  0  0
 42 41  1  0  0  0  0
 43 41  2  0  0  0  0
 43 45  1  0  0  0  0
 44 43  1  0  0  0  0
 45 36  2  0  0  0  0
 46 45  1  0  0  0  0
 47 48  1  0  0  0  0
 48 49  1  0  0  0  0
 48 50  2  0  0  0  0
 50 51  1  0  0  0  0
 52 50  1  0  0  0  0
 52 53  1  0  0  0  0
 54 52  2  0  0  0  0
 55 54  1  0  0  0  0
 56 47  2  0  0  0  0
 56 54  1  0  0  0  0
 57 56  1  0  0  0  0
 58 59  1  0  0  0  0
 59 60  1  0  0  0  0
 61 62  1  0  0  0  0
 61 59  2  0  0  0  0
 63 61  1  0  0  0  0
 64 63  1  0  0  0  0
 65 63  2  0  0  0  0
 65 67  1  0  0  0  0
 66 65  1  0  0  0  0
 67 58  2  0  0  0  0
 68 67  1  0  0  0  0
 69 71  1  0  0  0  0
 69  1  1  0  0  0  0
 70 69  1  0  0  0  0
 72 73  1  0  0  0  0
 72 69  1  0  0  0  0
 74 72  1  0  0  0  0
M  END
