1,2,4,5,6,7
q = -3.0

 52 54  0  0  0  0  0  0  0  0999 V2000
   -1.2184   -1.2107   -1.2409 N   0  0  0  0  0  0  0  0  0  0  0  0
    1.0761   -2.0755   -0.1420 N   0  0  0  0  0  2  0  0  0  0  0  0
    2.9834   -0.0016    0.0015 N   0  0  0  0  0  0  0  0  0  0  0  0
    1.0785    1.1608   -1.7250 N   0  0  0  0  0  2  0  0  0  0  0  0
   -1.2171    1.6803   -0.4291 N   0  0  0  0  0  0  0  0  0  0  0  0
    1.0755    0.9144    1.8683 N   0  0  0  0  0  2  0  0  0  0  0  0
   -1.2191   -0.4691    1.6673 N   0  0  0  0  0  0  0  0  0  0  0  0
   -2.4242   -1.0577   -1.8330 C   0  0  0  0  0  0  0  0  0  0  0  0
   -2.9008   -0.0685   -1.8809 H   0  0  0  0  0  0  0  0  0  0  0  0
   -2.9051   -2.2980   -2.3322 C   0  0  0  0  0  0  0  0  0  0  0  0
   -3.8511   -2.4606   -2.8629 H   0  0  0  0  0  0  0  0  0  0  0  0
   -1.9281   -3.2608   -2.0204 C   0  0  0  0  0  0  0  0  0  0  0  0
   -1.9491   -4.3343   -2.2462 H   0  0  0  0  0  0  0  0  0  0  0  0
   -0.8949   -2.5608   -1.3410 C   0  0  0  0  0  3  0  0  0  0  0  0
    0.3384   -2.9669   -0.7721 C   0  0  0  0  0  3  0  0  0  0  0  0
    0.6759   -4.0209   -0.8706 H   0  0  0  0  0  0  0  0  0  0  0  0
    2.3964   -2.3885    0.3489 C   0  0  0  0  0  0  0  0  0  0  0  0
    2.7124   -3.4284    0.0997 H   0  0  0  0  0  0  0  0  0  0  0  0
    2.4168   -2.3056    1.4604 H   0  0  0  0  0  0  0  0  0  0  0  0
    3.3894   -1.3913   -0.2617 C   0  0  0  0  0  0  0  0  0  0  0  0
    4.4289   -1.5901    0.0985 H   0  0  0  0  0  0  0  0  0  0  0  0
    3.3924   -1.5465   -1.3594 H   0  0  0  0  0  0  0  0  0  0  0  0
    3.3909    0.9215   -1.0696 C   0  0  0  0  0  0  0  0  0  0  0  0
    4.4309    0.7090   -1.4206 H   0  0  0  0  0  0  0  0  0  0  0  0
    3.3935    1.9496   -0.6549 H   0  0  0  0  0  0  0  0  0  0  0  0
    2.3994    0.8917   -2.2399 C   0  0  0  0  0  0  0  0  0  0  0  0
    2.7167    1.6275   -3.0153 H   0  0  0  0  0  0  0  0  0  0  0  0
    2.4201   -0.1123   -2.7238 H   0  0  0  0  0  0  0  0  0  0  0  0
    0.3421    2.1531   -2.1820 C   0  0  0  0  0  3  0  0  0  0  0  0
    0.6811    2.7660   -3.0445 H   0  0  0  0  0  0  0  0  0  0  0  0
   -0.8917    2.4431   -1.5470 C   0  0  0  0  0  0  0  0  0  0  0  0
   -1.9236    3.3829   -1.8133 C   0  0  0  0  0  0  0  0  0  0  0  0
   -1.9430    4.1163   -2.6292 H   0  0  0  0  0  0  0  0  0  0  0  0
   -2.9018    3.1713   -0.8248 C   0  0  0  0  0  0  0  0  0  0  0  0
   -3.8474    3.7130   -0.7006 H   0  0  0  0  0  0  0  0  0  0  0  0
   -2.4229    2.1173   -0.0011 C   0  0  0  0  0  3  0  0  0  0  0  0
   -2.9009    1.6634    0.8783 H   0  0  0  0  0  0  0  0  0  0  0  0
    3.3882    0.4647    1.3373 C   0  0  0  0  0  0  0  0  0  0  0  0
    4.4287    0.8739    1.3311 H   0  0  0  0  0  0  0  0  0  0  0  0
    3.3880   -0.4083    2.0207 H   0  0  0  0  0  0  0  0  0  0  0  0
    2.3965    1.4941    1.8943 C   0  0  0  0  0  0  0  0  0  0  0  0
    2.7125    1.7983    2.9195 H   0  0  0  0  0  0  0  0  0  0  0  0
    2.4186    2.4149    1.2663 H   0  0  0  0  0  0  0  0  0  0  0  0
    0.3369    0.8150    2.9547 C   0  0  0  0  0  3  0  0  0  0  0  0
    0.6739    1.2567    3.9169 H   0  0  0  0  0  0  0  0  0  0  0  0
   -0.8965    0.1197    2.8867 C   0  0  0  0  0  3  0  0  0  0  0  0
   -1.9304   -0.1184    3.8318 C   0  0  0  0  0  0  0  0  0  0  0  0
   -1.9521    0.2230    4.8743 H   0  0  0  0  0  0  0  0  0  0  0  0
   -2.9069   -0.8701    3.1534 C   0  0  0  0  0  0  0  0  0  0  0  0
   -3.8532   -1.2482    3.5590 H   0  0  0  0  0  0  0  0  0  0  0  0
   -2.4251   -1.0582    1.8301 C   0  0  0  0  0  0  0  0  0  0  0  0
   -2.9013   -1.5944    0.9972 H   0  0  0  0  0  0  0  0  0  0  0  0
  2 17  1  0  0  0  0
  3 38  1  0  0  0  0
  5 36  1  0  0  0  0
  6 41  1  0  0  0  0
  6 44  1  0  0  0  0
  7 51  2  0  0  0  0
  7 46  1  0  0  0  0
  8  1  2  0  0  0  0
  9  8  1  0  0  0  0
 10 12  2  0  0  0  0
 10  8  1  0  0  0  0
 11 10  1  0  0  0  0
 12 14  1  0  0  0  0
 13 12  1  0  0  0  0
 14  1  1  0  0  0  0
 14 15  1  0  0  0  0
 15  2  1  0  0  0  0
 16 15  1  0  0  0  0
 17 19  1  0  0  0  0
 18 17  1  0  0  0  0
 20  3  1  0  0  0  0
 20 21  1  0  0  0  0
 20 17  1  0  0  0  0
 22 20  1  0  0  0  0
 23 25  1  0  0  0  0
 23  3  1  0  0  0  0
 24 23  1  0  0  0  0
 26  4  1  0  0  0  0
 26 23  1  0  0  0  0
 27 26  1  0  0  0  0
 28 26  1  0  0  0  0
 29  4  1  0  0  0  0
 29 31  1  0  0  0  0
 30 29  1  0  0  0  0
 31  5  2  0  0  0  0
 32 31  1  0  0  0  0
 32 34  2  0  0  0  0
 33 32  1  0  0  0  0
 34 35  1  0  0  0  0
 34 36  1  0  0  0  0
 36 37  1  0  0  0  0
 38 41  1  0  0  0  0
 38 40  1  0  0  0  0
 39 38  1  0  0  0  0
 41 42  1  0  0  0  0
 43 41  1  0  0  0  0
 44 45  1  0  0  0  0
 46 44  1  0  0  0  0
 46 47  1  0  0  0  0
 47 48  1  0  0  0  0
 49 50  1  0  0  0  0
 49 47  2  0  0  0  0
 51 49  1  0  0  0  0
 52 51  1  0  0  0  0
M  END
