5,6,7,37,38,39
q = -2.0, confidence = 0.802

 64 67  0  0  0  0  0  0  0  0999 V2000
   -3.0324    0.0309   -0.0065 B   0  0  1  0  0  0  0  0  0  0  0  0
   -2.5121    1.3838   -0.3720 O   0  0  0  0  0  0  0  0  0  0  0  0
   -2.5317   -0.9788   -0.9987 O   0  0  0  0  0  0  0  0  0  0  0  0
   -2.5267   -0.3439    1.3576 O   0  0  0  0  0  0  0  0  0  0  0  0
   -1.1739    1.4189   -0.5245 N   0  0  0  0  0  2  0  0  0  0  0  0
   -1.1946   -1.1440   -0.9650 N   0  0  0  0  0  2  0  0  0  0  0  0
   -1.1873   -0.2472    1.4742 N   0  0  0  0  0  2  0  0  0  0  0  0
   -7.4765   -0.0254    0.0304 N   0  0  0  0  0  0  0  0  0  0  0  0
   -1.5875    3.4653   -1.8297 C   0  0  0  0  0  0  0  0  0  0  0  0
   -2.0984    4.0250   -1.0194 H   0  0  0  0  0  0  0  0  0  0  0  0
   -2.3890    2.9944   -2.4354 H   0  0  0  0  0  0  0  0  0  0  0  0
   -1.0312    4.1799   -2.4614 H   0  0  0  0  0  0  0  0  0  0  0  0
   -0.6893    2.4137   -1.2655 C   0  0  0  0  0  0  0  0  0  0  0  0
   -1.6450   -3.2867   -2.0879 C   0  0  0  0  0  0  0  0  0  0  0  0
   -2.4348   -3.5808   -1.3660 H   0  0  0  0  0  0  0  0  0  0  0  0
   -1.1019   -4.1903   -2.4160 H   0  0  0  0  0  0  0  0  0  0  0  0
   -2.1732   -2.8465   -2.9583 H   0  0  0  0  0  0  0  0  0  0  0  0
   -0.7277   -2.2872   -1.4632 C   0  0  0  0  0  0  0  0  0  0  0  0
   -1.6188   -0.1362    3.8944 C   0  0  0  0  0  0  0  0  0  0  0  0
   -2.4063    0.6377    3.7854 H   0  0  0  0  0  0  0  0  0  0  0  0
   -1.0677    0.0378    4.8352 H   0  0  0  0  0  0  0  0  0  0  0  0
   -2.1499   -1.1077    3.9618 H   0  0  0  0  0  0  0  0  0  0  0  0
   -0.7099   -0.1090    2.7095 C   0  0  0  0  0  0  0  0  0  0  0  0
   -6.7499   -1.1212    0.3073 C   0  0  0  0  0  0  0  0  0  0  0  0
   -7.3205   -2.0381    0.5458 H   0  0  0  0  0  0  0  0  0  0  0  0
   -5.3467   -1.1461    0.3053 C   0  0  0  0  0  0  0  0  0  0  0  0
   -4.8147   -2.0812    0.5430 H   0  0  0  0  0  0  0  0  0  0  0  0
   -4.6276    0.0275   -0.0002 C   0  0  0  0  0  0  0  0  0  0  0  0
   -5.3946    1.1728   -0.2896 C   0  0  0  0  0  0  0  0  0  0  0  0
   -4.8987    2.1243   -0.5369 H   0  0  0  0  0  0  0  0  0  0  0  0
   -6.7965    1.0955   -0.2611 C   0  0  0  0  0  0  0  0  0  0  0  0
   -7.4051    1.9909   -0.4874 H   0  0  0  0  0  0  0  0  0  0  0  0
    3.0324   -0.0308   -0.0065 B   0  0  1  0  0  0  0  0  0  0  0  0
    2.5121   -1.3835   -0.3730 O   0  0  0  0  0  0  0  0  0  0  0  0
    2.5317    0.9795   -0.9980 O   0  0  0  0  0  0  0  0  0  0  0  0
    2.5267    0.3430    1.3578 O   0  0  0  0  0  0  0  0  0  0  0  0
    1.1739   -1.4185   -0.5255 N   0  0  0  0  0  2  0  0  0  0  0  0
    1.1946    1.1447   -0.9642 N   0  0  0  0  0  2  0  0  0  0  0  0
    1.1873    0.2461    1.4744 N   0  0  0  0  0  2  0  0  0  0  0  0
    7.4765    0.0253    0.0304 N   0  0  0  0  0  0  0  0  0  0  0  0
    1.5875   -3.4640   -1.8321 C   0  0  0  0  0  0  0  0  0  0  0  0
    2.0983   -4.0244   -1.0223 H   0  0  0  0  0  0  0  0  0  0  0  0
    2.3891   -2.9926   -2.4375 H   0  0  0  0  0  0  0  0  0  0  0  0
    1.0312   -4.1781   -2.4644 H   0  0  0  0  0  0  0  0  0  0  0  0
    0.6893   -2.4127   -1.2672 C   0  0  0  0  0  0  0  0  0  0  0  0
    1.6450    3.2882   -2.0856 C   0  0  0  0  0  0  0  0  0  0  0  0
    2.4348    3.5818   -1.3635 H   0  0  0  0  0  0  0  0  0  0  0  0
    1.1018    4.1920   -2.4130 H   0  0  0  0  0  0  0  0  0  0  0  0
    2.1732    2.8486   -2.9562 H   0  0  0  0  0  0  0  0  0  0  0  0
    0.7277    2.2883   -1.4616 C   0  0  0  0  0  0  0  0  0  0  0  0
    1.6188    0.1334    3.8945 C   0  0  0  0  0  0  0  0  0  0  0  0
    2.4064   -0.6404    3.7849 H   0  0  0  0  0  0  0  0  0  0  0  0
    1.0678   -0.0414    4.8351 H   0  0  0  0  0  0  0  0  0  0  0  0
    2.1499    1.1049    3.9626 H   0  0  0  0  0  0  0  0  0  0  0  0
    0.7100    0.1071    2.7096 C   0  0  0  0  0  0  0  0  0  0  0  0
    6.7499    1.1212    0.3074 C   0  0  0  0  0  0  0  0  0  0  0  0
    7.3205    2.0380    0.5460 H   0  0  0  0  0  0  0  0  0  0  0  0
    5.3467    1.1461    0.3053 C   0  0  0  0  0  0  0  0  0  0  0  0
    4.8148    2.0812    0.5431 H   0  0  0  0  0  0  0  0  0  0  0  0
    4.6276   -0.0275   -0.0003 C   0  0  0  0  0  0  0  0  0  0  0  0
    5.3946   -1.1728   -0.2897 C   0  0  0  0  0  0  0  0  0  0  0  0
    4.8987   -2.1243   -0.5371 H   0  0  0  0  0  0  0  0  0  0  0  0
    6.7965   -1.0956   -0.2612 C   0  0  0  0  0  0  0  0  0  0  0  0
    7.4050   -1.9909   -0.4875 H   0  0  0  0  0  0  0  0  0  0  0  0
  1 28  1  6  0  0  0
  1  4  1  0  0  0  0
  2  1  1  0  0  0  0
  3  6  1  0  0  0  0
  3  1  1  0  0  0  0
  4  7  1  0  0  0  0
  5  2  1  0  0  0  0
  7 23  1  0  0  0  0
  8 24  1  0  0  0  0
  9 13  1  0  0  0  0
  9 10  1  0  0  0  0
 11  9  1  0  0  0  0
 12  9  1  0  0  0  0
 13  5  1  0  0  0  0
 14 18  1  0  0  0  0
 14 15  1  0  0  0  0
 16 14  1  0  0  0  0
 17 14  1  0  0  0  0
 18 45  2  0  0  0  0
 18  6  1  0  0  0  0
 19 22  1  0  0  0  0
 19 21  1  0  0  0  0
 20 19  1  0  0  0  0
 23 55  2  0  0  0  0
 23 19  1  0  0  0  0
 24 25  1  0  0  0  0
 26 24  2  0  0  0  0
 26 27  1  0  0  0  0
 28 26  1  0  0  0  0
 29 31  1  0  0  0  0
 29 28  2  0  0  0  0
 30 29  1  0  0  0  0
 31  8  2  0  0  0  0
 32 31  1  0  0  0  0
 33 60  1  6  0  0  0
 33 36  1  0  0  0  0
 34 33  1  0  0  0  0
 35 38  1  0  0  0  0
 35 33  1  0  0  0  0
 36 39  1  0  0  0  0
 37 34  1  0  0  0  0
 39 55  1  0  0  0  0
 40 56  1  0  0  0  0
 41 45  1  0  0  0  0
 41 42  1  0  0  0  0
 43 41  1  0  0  0  0
 44 41  1  0  0  0  0
 45 37  1  0  0  0  0
 46 50  1  0  0  0  0
 46 47  1  0  0  0  0
 48 46  1  0  0  0  0
 49 46  1  0  0  0  0
 50 13  2  0  0  0  0
 50 38  1  0  0  0  0
 51 54  1  0  0  0  0
 51 53  1  0  0  0  0
 52 51  1  0  0  0  0
 55 51  1  0  0  0  0
 56 57  1  0  0  0  0
 58 56  2  0  0  0  0
 58 59  1  0  0  0  0
 60 58  1  0  0  0  0
 61 63  1  0  0  0  0
 61 60  2  0  0  0  0
 62 61  1  0  0  0  0
 63 40  2  0  0  0  0
 64 63  1  0  0  0  0
M  END
