4,5,6,7,8,9
q = -3.0

 41 40  0  0  0  0  0  0  0  0999 V2000
   -2.1842    1.9481   -1.4619 O   0  0  0  0  0  0  0  0  0  0  0  0
   -2.1847    0.2925    2.4174 O   0  0  0  0  0  0  0  0  0  0  0  0
   -2.1846   -2.2397   -0.9561 O   0  0  0  0  0  0  0  0  0  0  0  0
    2.0491    0.3730   -1.6922 N   0  0  0  0  0  0  0  0  0  0  0  0
   -0.1233    1.4517   -0.5592 N   0  0  0  0  0  2  0  0  0  0  0  0
    2.0490    1.2785    1.1693 N   0  0  0  0  0  0  0  0  0  0  0  0
   -0.1237   -0.2415    1.5370 N   0  0  0  0  0  2  0  0  0  0  0  0
    2.0483   -1.6525    0.5232 N   0  0  0  0  0  0  0  0  0  0  0  0
   -0.1234   -1.2104   -0.9777 N   0  0  0  0  0  2  0  0  0  0  0  0
    1.2352    1.3126   -2.5203 C   0  0  0  0  0  0  0  0  0  0  0  0
    0.5400    2.2693   -1.5577 C   0  0  0  0  0  0  0  0  0  0  0  0
   -1.4675    1.2409   -0.7460 C   0  0  0  0  0  0  0  0  0  0  0  0
    1.2346    1.5269    2.3965 C   0  0  0  0  0  0  0  0  0  0  0  0
    0.5392    0.2151    2.7443 C   0  0  0  0  0  0  0  0  0  0  0  0
   -1.4678    0.0258    1.4473 C   0  0  0  0  0  0  0  0  0  0  0  0
    1.2341   -2.8394    0.1241 C   0  0  0  0  0  0  0  0  0  0  0  0
    0.5392   -2.4843   -1.1859 C   0  0  0  0  0  0  0  0  0  0  0  0
   -1.4676   -1.2663   -0.7018 C   0  0  0  0  0  0  0  0  0  0  0  0
   -2.0248    0.0002   -0.0003 C   0  0  0  0  0  0  0  0  0  0  0  0
   -3.5458    0.0002   -0.0003 C   0  0  0  0  0  0  0  0  0  0  0  0
    2.2273   -0.4903   -2.2254 H   0  0  0  0  0  0  0  0  0  0  0  0
    2.9745    0.7910   -1.5124 H   0  0  0  0  0  0  0  0  0  0  0  0
    2.2282    2.1715    0.6878 H   0  0  0  0  0  0  0  0  0  0  0  0
    2.9740    0.9130    1.4418 H   0  0  0  0  0  0  0  0  0  0  0  0
    2.2267   -1.6822    1.5375 H   0  0  0  0  0  0  0  0  0  0  0  0
    2.9737   -1.7063    0.0714 H   0  0  0  0  0  0  0  0  0  0  0  0
    0.4611    0.7040   -3.0267 H   0  0  0  0  0  0  0  0  0  0  0  0
    1.8550    1.8236   -3.2896 H   0  0  0  0  0  0  0  0  0  0  0  0
    1.2872    2.9649   -1.0988 H   0  0  0  0  0  0  0  0  0  0  0  0
   -0.2125    2.8917   -2.0862 H   0  0  0  0  0  0  0  0  0  0  0  0
    0.4608    2.2694    2.1213 H   0  0  0  0  0  0  0  0  0  0  0  0
    1.8539    1.9383    3.2236 H   0  0  0  0  0  0  0  0  0  0  0  0
    1.2861   -0.5298    3.1182 H   0  0  0  0  0  0  0  0  0  0  0  0
   -0.2137    0.3623    3.5471 H   0  0  0  0  0  0  0  0  0  0  0  0
    0.4600   -2.9731    0.9044 H   0  0  0  0  0  0  0  0  0  0  0  0
    1.8537   -3.7613    0.0667 H   0  0  0  0  0  0  0  0  0  0  0  0
    1.2866   -2.4356   -2.0177 H   0  0  0  0  0  0  0  0  0  0  0  0
   -0.2137   -3.2529   -1.4604 H   0  0  0  0  0  0  0  0  0  0  0  0
   -3.9207   -0.9610    0.3950 H   0  0  0  0  0  0  0  0  0  0  0  0
   -3.9206    0.1384   -1.0304 H   0  0  0  0  0  0  0  0  0  0  0  0
   -3.9208    0.8231    0.6343 H   0  0  0  0  0  0  0  0  0  0  0  0
  1 12  2  0  0  0  0
  3 18  2  0  0  0  0
  4 22  1  0  0  0  0
  6 24  1  0  0  0  0
  6 13  1  0  0  0  0
  7 14  1  0  0  0  0
  8 25  1  0  0  0  0
  9 18  1  0  0  0  0
 10  4  1  0  0  0  0
 10 11  1  0  0  0  0
 11 29  1  0  0  0  0
 11  5  1  0  0  0  0
 12  5  1  0  0  0  0
 12 19  1  0  0  0  0
 13 14  1  0  0  0  0
 13 32  1  0  0  0  0
 14 33  1  0  0  0  0
 14 34  1  0  0  0  0
 15  7  1  0  0  0  0
 15  2  2  0  0  0  0
 16  8  1  0  0  0  0
 16 35  1  0  0  0  0
 17  9  1  0  0  0  0
 17 16  1  0  0  0  0
 18 19  1  0  0  0  0
 19 15  1  0  0  0  0
 20 19  1  0  0  0  0
 20 39  1  0  0  0  0
 20 41  1  0  0  0  0
 21  4  1  0  0  0  0
 23  6  1  0  0  0  0
 26  8  1  0  0  0  0
 27 10  1  0  0  0  0
 28 10  1  0  0  0  0
 30 11  1  0  0  0  0
 31 13  1  0  0  0  0
 36 16  1  0  0  0  0
 37 17  1  0  0  0  0
 38 17  1  0  0  0  0
 40 20  1  0  0  0  0
M  END
