1,4,5,7,8,10
q = -2.0, confidence = 0.962

 59 61  0  0  1  0  0  0  0  0999 V2000
   -0.8438   -0.6141   -1.3791 N   0  0  0  0  0  2  0  0  0  0  0  0
   -2.0259   -0.2109   -1.8309 N   0  0  0  0  0  0  0  0  0  0  0  0
   -2.4127    0.6729   -1.4799 H   0  0  0  0  0  0  0  0  0  0  0  0
    1.1619   -1.7520   -0.3649 N   0  0  0  0  0  2  0  0  0  0  0  0
   -0.7807   -0.8090    1.2684 N   0  0  0  0  0  0  0  0  0  0  0  0
   -1.8914   -1.4915    1.1760 N   0  0  0  0  0  0  0  0  0  0  0  0
    1.3735    0.5023    1.5417 N   0  0  0  0  0  2  0  0  0  0  0  0
   -0.6136    1.6470    0.0910 N   0  0  0  0  0  0  0  0  0  0  0  0
   -1.6965    2.0098    0.7396 N   0  0  0  0  0  2  0  0  0  0  0  0
    1.4090    1.0308   -1.3395 N   0  0  0  0  0  2  0  0  0  0  0  0
    3.7887   -0.2679   -0.0766 N   0  0  0  0  0  0  0  0  0  0  0  0
   -3.9674   -0.9678   -3.2257 C   0  0  0  0  0  0  0  0  0  0  0  0
   -4.7316   -0.7111   -2.4640 H   0  0  0  0  0  0  0  0  0  0  0  0
   -4.2915   -1.8922   -3.7359 H   0  0  0  0  0  0  0  0  0  0  0  0
   -3.9484   -0.1516   -3.9769 H   0  0  0  0  0  0  0  0  0  0  0  0
   -2.6299   -1.1724   -2.6014 C   0  0  1  0  0  3  0  0  0  0  0  0
   -1.7469   -2.2592   -2.6339 C   0  0  0  0  0  0  0  0  0  0  0  0
   -1.9054   -3.2088   -3.1538 H   0  0  0  0  0  0  0  0  0  0  0  0
   -0.6426   -1.8720   -1.8344 C   0  0  0  0  0  0  0  0  0  0  0  0
    0.5219   -2.4843   -1.2347 C   0  0  0  0  0  3  0  0  0  0  0  0
    0.8160   -3.5271   -1.4511 H   0  0  0  0  0  0  0  0  0  0  0  0
    2.2925   -2.2778    0.3719 C   0  0  0  0  0  0  0  0  0  0  0  0
    2.3340   -3.3849    0.2796 H   0  0  0  0  0  0  0  0  0  0  0  0
    2.1267   -2.0385    1.4420 H   0  0  0  0  0  0  0  0  0  0  0  0
    3.6595   -1.6967   -0.0802 C   0  0  0  0  0  0  0  0  0  0  0  0
    4.4200   -2.1732    0.5841 H   0  0  0  0  0  0  0  0  0  0  0  0
    3.8744   -2.0642   -1.1058 H   0  0  0  0  0  0  0  0  0  0  0  0
   -3.5387   -2.5505    2.7220 C   0  0  0  0  0  0  0  0  0  0  0  0
   -3.5357   -3.5136    2.1727 H   0  0  0  0  0  0  0  0  0  0  0  0
   -4.4336   -1.9865    2.3870 H   0  0  0  0  0  0  0  0  0  0  0  0
   -3.6553   -2.7660    3.8002 H   0  0  0  0  0  0  0  0  0  0  0  0
   -2.2853   -1.7767    2.4650 C   0  0  0  0  0  0  0  0  0  0  0  0
   -1.3682   -1.2374    3.3861 C   0  0  0  0  0  0  0  0  0  0  0  0
   -1.4027   -1.2910    4.4792 H   0  0  0  0  0  0  0  0  0  0  0  0
   -0.3940   -0.6094    2.5740 C   0  0  0  0  0  3  0  0  0  0  0  0
    0.8046    0.1443    2.6742 C   0  0  0  0  0  3  0  0  0  0  0  0
    1.2521    0.4332    3.6424 H   0  0  0  0  0  0  0  0  0  0  0  0
    2.5935    1.2851    1.5285 C   0  0  0  0  0  0  0  0  0  0  0  0
    2.7529    1.7548    2.5237 H   0  0  0  0  0  0  0  0  0  0  0  0
    2.4712    2.1137    0.8013 H   0  0  0  0  0  0  0  0  0  0  0  0
    3.8469    0.4541    1.1698 C   0  0  0  0  0  0  0  0  0  0  0  0
    4.7144    1.1568    1.1829 H   0  0  0  0  0  0  0  0  0  0  0  0
    4.0317   -0.2774    1.9846 H   0  0  0  0  0  0  0  0  0  0  0  0
   -3.1134    4.0462    0.9826 C   0  0  0  0  0  0  0  0  0  0  0  0
   -3.9656    3.3610    1.1547 H   0  0  0  0  0  0  0  0  0  0  0  0
   -3.4459    4.8761    0.3308 H   0  0  0  0  0  0  0  0  0  0  0  0
   -2.8419    4.4817    1.9673 H   0  0  0  0  0  0  0  0  0  0  0  0
   -1.9584    3.3119    0.3799 C   0  0  0  0  0  0  0  0  0  0  0  0
   -0.9972    3.7652   -0.5465 C   0  0  0  0  0  0  0  0  0  0  0  0
   -0.9342    4.7480   -1.0259 H   0  0  0  0  0  0  0  0  0  0  0  0
   -0.1344    2.6581   -0.7167 C   0  0  0  0  0  0  0  0  0  0  0  0
    0.9776    2.2586   -1.5117 C   0  0  0  0  0  3  0  0  0  0  0  0
    1.4473    2.9287   -2.2557 H   0  0  0  0  0  0  0  0  0  0  0  0
    2.5137    0.5100   -2.1193 C   0  0  0  0  0  0  0  0  0  0  0  0
    2.6732    1.1304   -3.0288 H   0  0  0  0  0  0  0  0  0  0  0  0
    2.2444   -0.5089   -2.4677 H   0  0  0  0  0  0  0  0  0  0  0  0
    3.8389    0.4485   -1.3238 C   0  0  0  0  0  0  0  0  0  0  0  0
    4.6041    0.0106   -2.0091 H   0  0  0  0  0  0  0  0  0  0  0  0
    4.1717    1.4865   -1.1135 H   0  0  0  0  0  0  0  0  0  0  0  0
  2  3  1  0  0  0  0
  2  1  1  0  0  0  0
  4 22  1  0  0  0  0
  5 35  1  0  0  0  0
  6  5  2  0  0  0  0
  6 32  1  0  0  0  0
  7 36  1  0  0  0  0
  8  9  1  0  0  0  0
 11 41  1  0  0  0  0
 12 13  1  0  0  0  0
 14 12  1  0  0  0  0
 15 12  1  0  0  0  0
 16 12  1  6  0  0  0
 16  2  1  0  0  0  0
 17 16  1  0  0  0  0
 17 19  2  0  0  0  0
 18 17  1  0  0  0  0
 19  1  1  0  0  0  0
 19 20  1  0  0  0  0
 20  4  1  0  0  0  0
 21 20  1  0  0  0  0
 22 24  1  0  0  0  0
 23 22  1  0  0  0  0
 25 11  1  0  0  0  0
 25 22  1  0  0  0  0
 25 26  1  0  0  0  0
 27 25  1  0  0  0  0
 28 31  1  0  0  0  0
 29 28  1  0  0  0  0
 30 28  1  0  0  0  0
 32 28  1  0  0  0  0
 32 33  2  0  0  0  0
 33 34  1  0  0  0  0
 35 36  1  0  0  0  0
 35 33  1  0  0  0  0
 36 37  1  0  0  0  0
 38  7  1  0  0  0  0
 38 39  1  0  0  0  0
 40 38  1  0  0  0  0
 41 42  1  0  0  0  0
 41 38  1  0  0  0  0
 41 43  1  0  0  0  0
 44 45  1  0  0  0  0
 44 47  1  0  0  0  0
 46 44  1  0  0  0  0
 48  9  1  0  0  0  0
 48 44  1  0  0  0  0
 49 48  2  0  0  0  0
 50 49  1  0  0  0  0
 51 49  1  0  0  0  0
 51  8  2  0  0  0  0
 52 10  1  0  0  0  0
 52 51  1  0  0  0  0
 53 52  1  0  0  0  0
 54 10  1  0  0  0  0
 54 57  1  0  0  0  0
 55 54  1  0  0  0  0
 56 54  1  0  0  0  0
 57 59  1  0  0  0  0
 57 11  1  0  0  0  0
 58 57  1  0  0  0  0
M  END
