9,10,11,12,13,14
q = -2.0, confidence = 0.864

 82 90  0  0  1  0  0  0  0  0999 V2000
    3.5378   -0.1461    1.8120 S   0  0  0  0  0  0  0  0  0  0  0  0
    3.5378    0.1433   -1.8122 S   0  0  0  0  0  0  0  0  0  0  0  0
    0.8423   -0.3988    2.5193 O   0  0  0  0  0  0  0  0  0  0  0  0
    0.8425    0.3973   -2.5194 O   0  0  0  0  0  0  0  0  0  0  0  0
   -1.5577   -0.8775    2.5297 O   0  0  0  0  0  0  0  0  0  0  0  0
   -0.7787   -1.4324   -2.4734 O   0  0  0  0  0  0  0  0  0  0  0  0
   -0.7772    1.4324    2.4733 O   0  0  0  0  0  0  0  0  0  0  0  0
   -1.5572    0.8781   -2.5296 O   0  0  0  0  0  0  0  0  0  0  0  0
    0.9504   -0.2982    1.1842 N   0  0  0  0  0  2  0  0  0  0  0  0
    0.9506    0.2968   -1.1844 N   0  0  0  0  0  2  0  0  0  0  0  0
   -1.5356   -1.0948    1.2041 N   0  0  0  0  0  2  0  0  0  0  0  0
   -0.9828   -1.4655   -1.1464 N   0  0  0  0  0  2  0  0  0  0  0  0
   -0.9814    1.4656    1.1464 N   0  0  0  0  0  2  0  0  0  0  0  0
   -1.5348    1.0955   -1.2041 N   0  0  0  0  0  2  0  0  0  0  0  0
    6.0757    0.0890   -1.3960 N   0  0  0  0  0  0  0  0  0  0  0  0
   -0.5023    0.0637    3.0114 B   0  0  2  0  0  0  0  0  0  0  0  0
   -0.5026   -0.0641   -3.0114 B   0  0  1  0  0  0  0  0  0  0  0  0
   -0.5000    0.0979    4.3620 F   0  0  0  0  0  0  0  0  0  0  0  0
   -0.5004   -0.0982   -4.3620 F   0  0  0  0  0  0  0  0  0  0  0  0
    2.1773   -0.1367    0.7042 C   0  0  0  0  0  0  0  0  0  0  0  0
    2.1774    0.1347   -0.7044 C   0  0  0  0  0  0  0  0  0  0  0  0
   -1.9969   -2.2670    0.7612 C   0  0  1  0  0  3  0  0  0  0  0  0
   -1.7710   -2.4284   -0.6620 C   0  0  1  0  0  3  0  0  0  0  0  0
   -1.7687    2.4293    0.6620 C   0  0  1  0  0  3  0  0  0  0  0  0
   -1.9949    2.2681   -0.7611 C   0  0  1  0  0  3  0  0  0  0  0  0
    4.9444   -0.0532    0.7225 C   0  0  0  0  0  0  0  0  0  0  0  0
    7.2567   -0.0448    0.7188 C   0  0  0  0  0  0  0  0  0  0  0  0
    8.4927   -0.0849    1.4196 C   0  0  0  0  0  0  0  0  0  0  0  0
    8.4640   -0.1504    2.5167 H   0  0  0  0  0  0  0  0  0  0  0  0
    9.6860   -0.0432    0.7099 C   0  0  0  0  0  0  0  0  0  0  0  0
   10.6447   -0.0749    1.2492 H   0  0  0  0  0  0  0  0  0  0  0  0
    9.6860    0.0393   -0.7100 C   0  0  0  0  0  0  0  0  0  0  0  0
   10.6447    0.0707   -1.2493 H   0  0  0  0  0  0  0  0  0  0  0  0
    8.4928    0.0812   -1.4197 C   0  0  0  0  0  0  0  0  0  0  0  0
    8.4641    0.1467   -2.5168 H   0  0  0  0  0  0  0  0  0  0  0  0
    7.2567    0.0414   -0.7189 C   0  0  0  0  0  0  0  0  0  0  0  0
    4.9444    0.0502   -0.7227 C   0  0  0  0  0  0  0  0  0  0  0  0
   -2.5677   -3.3089    1.6376 C   0  0  0  0  0  0  0  0  0  0  0  0
   -3.4775   -2.9872    2.6704 C   0  0  0  0  0  0  0  0  0  0  0  0
   -3.7571   -1.9393    2.8404 H   0  0  0  0  0  0  0  0  0  0  0  0
   -4.0208   -3.9982    3.4728 C   0  0  0  0  0  0  0  0  0  0  0  0
   -4.7319   -3.7343    4.2701 H   0  0  0  0  0  0  0  0  0  0  0  0
   -3.6581   -5.3393    3.2683 C   0  0  0  0  0  0  0  0  0  0  0  0
   -4.0836   -6.1300    3.9047 H   0  0  0  0  0  0  0  0  0  0  0  0
   -2.7460   -5.6668    2.2524 C   0  0  0  0  0  0  0  0  0  0  0  0
   -2.4493   -6.7140    2.0910 H   0  0  0  0  0  0  0  0  0  0  0  0
   -2.2074   -4.6622    1.4397 C   0  0  0  0  0  0  0  0  0  0  0  0
   -1.4930   -4.9236    0.6461 H   0  0  0  0  0  0  0  0  0  0  0  0
   -2.4085   -3.4682   -1.4937 C   0  0  0  0  0  0  0  0  0  0  0  0
   -3.7592   -3.8161   -1.2589 C   0  0  0  0  0  0  0  0  0  0  0  0
   -4.3239   -3.2990   -0.4700 H   0  0  0  0  0  0  0  0  0  0  0  0
   -4.3823   -4.8059   -2.0281 C   0  0  0  0  0  0  0  0  0  0  0  0
   -5.4359   -5.0596   -1.8377 H   0  0  0  0  0  0  0  0  0  0  0  0
   -3.6667   -5.4703   -3.0370 C   0  0  0  0  0  0  0  0  0  0  0  0
   -4.1559   -6.2510   -3.6390 H   0  0  0  0  0  0  0  0  0  0  0  0
   -2.3256   -5.1311   -3.2780 C   0  0  0  0  0  0  0  0  0  0  0  0
   -1.7599   -5.6453   -4.0694 H   0  0  0  0  0  0  0  0  0  0  0  0
   -1.6993   -4.1343   -2.5192 C   0  0  0  0  0  0  0  0  0  0  0  0
   -0.6532   -3.8672   -2.7174 H   0  0  0  0  0  0  0  0  0  0  0  0
   -2.4051    3.4697    1.4938 C   0  0  0  0  0  0  0  0  0  0  0  0
   -1.6952    4.1352    2.5192 C   0  0  0  0  0  0  0  0  0  0  0  0
   -0.6493    3.8670    2.7173 H   0  0  0  0  0  0  0  0  0  0  0  0
   -2.3204    5.1325    3.2780 C   0  0  0  0  0  0  0  0  0  0  0  0
   -1.7542    5.6462    4.0695 H   0  0  0  0  0  0  0  0  0  0  0  0
   -3.6612    5.4730    3.0372 C   0  0  0  0  0  0  0  0  0  0  0  0
   -4.1497    6.2542    3.6392 H   0  0  0  0  0  0  0  0  0  0  0  0
   -4.3776    4.8093    2.0283 C   0  0  0  0  0  0  0  0  0  0  0  0
   -5.4310    5.0641    1.8380 H   0  0  0  0  0  0  0  0  0  0  0  0
   -3.7555    3.8190    1.2591 C   0  0  0  0  0  0  0  0  0  0  0  0
   -4.3207    3.3024    0.4702 H   0  0  0  0  0  0  0  0  0  0  0  0
   -2.5647    3.3106   -1.6375 C   0  0  0  0  0  0  0  0  0  0  0  0
   -2.2031    4.6635   -1.4397 C   0  0  0  0  0  0  0  0  0  0  0  0
   -1.4883    4.9242   -0.6462 H   0  0  0  0  0  0  0  0  0  0  0  0
   -2.7407    5.6686   -2.2523 C   0  0  0  0  0  0  0  0  0  0  0  0
   -2.4429    6.7155   -2.0910 H   0  0  0  0  0  0  0  0  0  0  0  0
   -3.6532    5.3420   -3.2682 C   0  0  0  0  0  0  0  0  0  0  0  0
   -4.0780    6.1331   -3.9046 H   0  0  0  0  0  0  0  0  0  0  0  0
   -4.0173    4.0013   -3.4727 C   0  0  0  0  0  0  0  0  0  0  0  0
   -4.7286    3.7380   -4.2698 H   0  0  0  0  0  0  0  0  0  0  0  0
   -3.4749    2.9897   -2.6703 C   0  0  0  0  0  0  0  0  0  0  0  0
   -3.7555    1.9421   -2.8402 H   0  0  0  0  0  0  0  0  0  0  0  0
    6.0757   -0.0922    1.3959 N   0  0  0  0  0  0  0  0  0  0  0  0
  2 37  1  0  0  0  0
  2 21  1  0  0  0  0
  3 16  1  0  0  0  0
  4 10  1  0  0  0  0
  5 16  1  0  0  0  0
  6 12  1  0  0  0  0
  7 16  1  0  0  0  0
  8 14  1  0  0  0  0
  9  3  1  0  0  0  0
 10 21  1  0  0  0  0
 11  5  1  0  0  0  0
 12 23  1  0  0  0  0
 13  7  1  0  0  0  0
 14 25  1  0  0  0  0
 15 37  2  0  0  0  0
 15 36  1  0  0  0  0
 16 18  1  1  0  0  0
 17 19  1  6  0  0  0
 17  8  1  0  0  0  0
 17  4  1  0  0  0  0
 17  6  1  0  0  0  0
 20  9  1  0  0  0  0
 20  1  1  0  0  0  0
 21 20  2  0  0  0  0
 22 11  1  0  0  0  0
 22 38  1  1  0  0  0
 23 49  1  6  0  0  0
 23 22  1  0  0  0  0
 24 13  1  0  0  0  0
 24 60  1  1  0  0  0
 25 71  1  6  0  0  0
 25 24  1  0  0  0  0
 26 82  2  0  0  0  0
 26  1  1  0  0  0  0
 27 82  1  0  0  0  0
 27 28  1  0  0  0  0
 28 29  1  0  0  0  0
 30 31  1  0  0  0  0
 30 28  2  0  0  0  0
 32 30  1  0  0  0  0
 33 32  1  0  0  0  0
 34 36  1  0  0  0  0
 34 32  2  0  0  0  0
 35 34  1  0  0  0  0
 36 27  2  0  0  0  0
 37 26  1  0  0  0  0
 38 39  1  0  0  0  0
 39 40  1  0  0  0  0
 39 41  2  0  0  0  0
 41 42  1  0  0  0  0
 43 41  1  0  0  0  0
 43 44  1  0  0  0  0
 45 43  2  0  0  0  0
 46 45  1  0  0  0  0
 47 38  2  0  0  0  0
 47 45  1  0  0  0  0
 48 47  1  0  0  0  0
 49 50  1  0  0  0  0
 50 51  1  0  0  0  0
 52 53  1  0  0  0  0
 52 50  2  0  0  0  0
 54 52  1  0  0  0  0
 55 54  1  0  0  0  0
 56 54  2  0  0  0  0
 56 58  1  0  0  0  0
 57 56  1  0  0  0  0
 58 49  2  0  0  0  0
 59 58  1  0  0  0  0
 60 61  1  0  0  0  0
 61 62  1  0  0  0  0
 61 63  2  0  0  0  0
 63 64  1  0  0  0  0
 65 63  1  0  0  0  0
 65 66  1  0  0  0  0
 67 65  2  0  0  0  0
 68 67  1  0  0  0  0
 69 60  2  0  0  0  0
 69 67  1  0  0  0  0
 70 69  1  0  0  0  0
 71 72  1  0  0  0  0
 72 73  1  0  0  0  0
 74 75  1  0  0  0  0
 74 72  2  0  0  0  0
 76 74  1  0  0  0  0
 77 76  1  0  0  0  0
 78 76  2  0  0  0  0
 78 80  1  0  0  0  0
 79 78  1  0  0  0  0
 80 71  2  0  0  0  0
 81 80  1  0  0  0  0
M  END
