7,8,9,10,11,12
q = -2.0, confidence = 0.742

 78 83  0  0  1  0  0  0  0  0999 V2000
   -1.4262   -2.3212   -0.8243 O   0  0  0  0  0  0  0  0  0  0  0  0
    0.8589   -1.8934   -1.5697 O   0  0  0  0  0  0  0  0  0  0  0  0
    0.4626   -3.1613    0.4860 O   0  0  0  0  0  0  0  0  0  0  0  0
   -0.9219    2.3701    1.0918 O   0  0  0  0  0  0  0  0  0  0  0  0
   -0.4392    1.1318    3.1465 O   0  0  0  0  0  0  0  0  0  0  0  0
    1.3932    1.9415    1.7352 O   0  0  0  0  0  0  0  0  0  0  0  0
   -1.4804   -1.0854   -0.2953 N   0  0  0  0  0  2  0  0  0  0  0  0
    1.0677   -0.7723   -0.8568 N   0  0  0  0  0  2  0  0  0  0  0  0
    0.3693   -2.0853    1.2957 N   0  0  0  0  0  2  0  0  0  0  0  0
   -1.1379    1.2202    0.4290 N   0  0  0  0  0  2  0  0  0  0  0  0
   -0.3157   -0.0785    2.5333 N   0  0  0  0  0  2  0  0  0  0  0  0
    1.4358    0.9210    0.8605 N   0  0  0  0  0  2  0  0  0  0  0  0
   -0.0415   -2.8801   -0.8947 B   0  0  1  0  0  0  0  0  0  0  0  0
   -0.0579   -4.0355   -1.6035 F   0  0  0  0  0  0  0  0  0  0  0  0
    0.0161    2.2378    2.2520 B   0  0  1  0  0  0  0  0  0  0  0  0
    0.0430    3.4019    2.9467 F   0  0  0  0  0  0  0  0  0  0  0  0
   -2.4743   -0.2851   -0.6945 C   0  0  2  0  0  3  0  0  0  0  0  0
   -3.5244   -0.6871   -1.6510 C   0  0  0  0  0  0  0  0  0  0  0  0
   -4.1556   -1.9497   -1.5726 C   0  0  0  0  0  0  0  0  0  0  0  0
   -3.8502   -2.6596   -0.7931 H   0  0  0  0  0  0  0  0  0  0  0  0
   -5.1637   -2.2947   -2.4816 C   0  0  0  0  0  0  0  0  0  0  0  0
   -5.6490   -3.2795   -2.4048 H   0  0  0  0  0  0  0  0  0  0  0  0
   -5.5517   -1.3957   -3.4880 C   0  0  0  0  0  0  0  0  0  0  0  0
   -6.3416   -1.6726   -4.2027 H   0  0  0  0  0  0  0  0  0  0  0  0
   -4.9230   -0.1437   -3.5812 C   0  0  0  0  0  0  0  0  0  0  0  0
   -5.2141    0.5645   -4.3715 H   0  0  0  0  0  0  0  0  0  0  0  0
   -3.9208    0.2103   -2.6702 C   0  0  0  0  0  0  0  0  0  0  0  0
   -3.4309    1.1914   -2.7487 H   0  0  0  0  0  0  0  0  0  0  0  0
   -2.3275    1.0528   -0.1557 C   0  0  1  0  0  3  0  0  0  0  0  0
   -3.3950    2.0725   -0.1536 C   0  0  0  0  0  0  0  0  0  0  0  0
   -4.7343    1.6824    0.0807 C   0  0  0  0  0  0  0  0  0  0  0  0
   -4.9647    0.6252    0.2753 H   0  0  0  0  0  0  0  0  0  0  0  0
   -5.7635    2.6314    0.0750 C   0  0  0  0  0  0  0  0  0  0  0  0
   -6.7990    2.3116    0.2660 H   0  0  0  0  0  0  0  0  0  0  0  0
   -5.4757    3.9834   -0.1713 C   0  0  0  0  0  0  0  0  0  0  0  0
   -6.2856    4.7287   -0.1787 H   0  0  0  0  0  0  0  0  0  0  0  0
   -4.1490    4.3809   -0.4028 C   0  0  0  0  0  0  0  0  0  0  0  0
   -3.9152    5.4394   -0.5923 H   0  0  0  0  0  0  0  0  0  0  0  0
   -3.1137    3.4377   -0.3891 C   0  0  0  0  0  0  0  0  0  0  0  0
   -2.0770    3.7549   -0.5616 H   0  0  0  0  0  0  0  0  0  0  0  0
    2.2348   -0.1417   -1.0205 C   0  0  2  0  0  3  0  0  0  0  0  0
    3.2775   -0.5774   -1.9704 C   0  0  0  0  0  0  0  0  0  0  0  0
    2.9547   -0.9987   -3.2808 C   0  0  0  0  0  0  0  0  0  0  0  0
    1.9045   -1.0198   -3.5996 H   0  0  0  0  0  0  0  0  0  0  0  0
    3.9663   -1.3867   -4.1683 C   0  0  0  0  0  0  0  0  0  0  0  0
    3.6999   -1.7075   -5.1867 H   0  0  0  0  0  0  0  0  0  0  0  0
    5.3110   -1.3726   -3.7639 C   0  0  0  0  0  0  0  0  0  0  0  0
    6.1022   -1.6821   -4.4636 H   0  0  0  0  0  0  0  0  0  0  0  0
    5.6406   -0.9663   -2.4610 C   0  0  0  0  0  0  0  0  0  0  0  0
    6.6908   -0.9591   -2.1323 H   0  0  0  0  0  0  0  0  0  0  0  0
    4.6348   -0.5687   -1.5721 C   0  0  0  0  0  0  0  0  0  0  0  0
    4.8985   -0.2515   -0.5530 H   0  0  0  0  0  0  0  0  0  0  0  0
    2.3905    0.9463   -0.0752 C   0  0  1  0  0  3  0  0  0  0  0  0
    3.4073    2.0103   -0.1907 C   0  0  0  0  0  0  0  0  0  0  0  0
    3.7364    2.5246   -1.4668 C   0  0  0  0  0  0  0  0  0  0  0  0
    3.2196    2.1375   -2.3566 H   0  0  0  0  0  0  0  0  0  0  0  0
    4.7053    3.5257   -1.6034 C   0  0  0  0  0  0  0  0  0  0  0  0
    4.9436    3.9187   -2.6033 H   0  0  0  0  0  0  0  0  0  0  0  0
    5.3675    4.0267   -0.4712 C   0  0  0  0  0  0  0  0  0  0  0  0
    6.1311    4.8119   -0.5793 H   0  0  0  0  0  0  0  0  0  0  0  0
    5.0462    3.5249    0.8003 C   0  0  0  0  0  0  0  0  0  0  0  0
    5.5575    3.9162    1.6928 H   0  0  0  0  0  0  0  0  0  0  0  0
    4.0712    2.5296    0.9442 C   0  0  0  0  0  0  0  0  0  0  0  0
    3.8169    2.1478    1.9413 H   0  0  0  0  0  0  0  0  0  0  0  0
    0.0066   -1.0837    3.3301 C   0  0  0  0  0  0  0  0  0  0  0  0
    0.0672   -0.9739    4.6931 N   0  0  0  0  0  0  0  0  0  0  0  0
    0.0834   -0.0035    5.0231 H   0  0  0  0  0  0  0  0  0  0  0  0
    0.7144   -1.6198    5.1498 H   0  0  0  0  0  0  0  0  0  0  0  0
    0.3033   -2.3078    2.6057 C   0  0  0  0  0  0  0  0  0  0  0  0
    0.5268   -3.5071    3.2637 N   0  0  0  0  0  0  0  0  0  0  0  0
    1.4537   -4.4833    2.7054 C   0  0  0  0  0  0  0  0  0  0  0  0
    2.2741   -3.9640    2.1784 H   0  0  0  0  0  0  0  0  0  0  0  0
    0.9740   -5.1791    1.9834 H   0  0  0  0  0  0  0  0  0  0  0  0
    1.8861   -5.0733    3.5411 H   0  0  0  0  0  0  0  0  0  0  0  0
   -0.5635   -4.0613    4.0626 C   0  0  0  0  0  0  0  0  0  0  0  0
   -1.1356   -3.2471    4.5469 H   0  0  0  0  0  0  0  0  0  0  0  0
   -0.1484   -4.7167    4.8560 H   0  0  0  0  0  0  0  0  0  0  0  0
   -1.2669   -4.6673    3.4451 H   0  0  0  0  0  0  0  0  0  0  0  0
  1  7  1  0  0  0  0
  2 13  1  0  0  0  0
  2  8  1  0  0  0  0
  3  9  1  0  0  0  0
  4 15  1  0  0  0  0
  6 15  1  0  0  0  0
  9 69  1  0  0  0  0
 10  4  1  0  0  0  0
 11  5  1  0  0  0  0
 11 65  1  0  0  0  0
 12  6  1  0  0  0  0
 13 14  1  6  0  0  0
 13  1  1  0  0  0  0
 13  3  1  0  0  0  0
 15 16  1  1  0  0  0
 15  5  1  0  0  0  0
 17 18  1  6  0  0  0
 17  7  1  0  0  0  0
 17 29  1  0  0  0  0
 18 19  1  0  0  0  0
 19 20  1  0  0  0  0
 21 22  1  0  0  0  0
 21 19  2  0  0  0  0
 23 21  1  0  0  0  0
 24 23  1  0  0  0  0
 25 23  2  0  0  0  0
 25 27  1  0  0  0  0
 26 25  1  0  0  0  0
 27 18  2  0  0  0  0
 28 27  1  0  0  0  0
 29 30  1  1  0  0  0
 29 10  1  0  0  0  0
 30 31  1  0  0  0  0
 31 32  1  0  0  0  0
 33 31  2  0  0  0  0
 33 34  1  0  0  0  0
 35 33  1  0  0  0  0
 36 35  1  0  0  0  0
 37 39  1  0  0  0  0
 37 35  2  0  0  0  0
 38 37  1  0  0  0  0
 39 30  2  0  0  0  0
 40 39  1  0  0  0  0
 41 42  1  1  0  0  0
 41  8  1  0  0  0  0
 41 53  1  0  0  0  0
 42 51  1  0  0  0  0
 43 42  2  0  0  0  0
 44 43  1  0  0  0  0
 45 47  2  0  0  0  0
 45 43  1  0  0  0  0
 46 45  1  0  0  0  0
 47 49  1  0  0  0  0
 48 47  1  0  0  0  0
 49 50  1  0  0  0  0
 49 51  2  0  0  0  0
 51 52  1  0  0  0  0
 53 54  1  6  0  0  0
 53 12  1  0  0  0  0
 54 63  1  0  0  0  0
 55 54  2  0  0  0  0
 56 55  1  0  0  0  0
 57 55  1  0  0  0  0
 57 59  2  0  0  0  0
 58 57  1  0  0  0  0
 59 61  1  0  0  0  0
 60 59  1  0  0  0  0
 61 63  2  0  0  0  0
 61 62  1  0  0  0  0
 63 64  1  0  0  0  0
 65 66  1  0  0  0  0
 66 67  1  0  0  0  0
 66 68  1  0  0  0  0
 69 70  1  0  0  0  0
 69 65  2  0  0  0  0
 70 75  1  0  0  0  0
 71 70  1  0  0  0  0
 71 74  1  0  0  0  0
 72 71  1  0  0  0  0
 73 71  1  0  0  0  0
 75 76  1  0  0  0  0
 75 77  1  0  0  0  0
 78 75  1  0  0  0  0
M  END
