13,14,15,16,17,18
q = -2.0, confidence = 0.81

 81 86  0  0  1  0  0  0  0  0999 V2000
    0.8322    4.0636   -2.5871 Cl  0  0  0  0  0  0  0  0  0  0  0  0
    0.1074    1.3386    4.1320 F   0  0  0  0  0  0  0  0  0  0  0  0
   -0.5320   -0.2898   -4.4161 F   0  0  0  0  0  0  0  0  0  0  0  0
   -1.1752    0.2110    2.5452 O   0  0  0  0  0  0  0  0  0  0  0  0
   -1.7936    0.1632   -2.5094 O   0  0  0  0  0  0  0  0  0  0  0  0
    1.2518    0.4043    2.3308 O   0  0  0  0  0  0  0  0  0  0  0  0
    0.2392   -1.1810   -2.4078 O   0  0  0  0  0  0  0  0  0  0  0  0
   -0.1534    2.3779    2.0637 O   0  0  0  0  0  0  0  0  0  0  0  0
    0.3825    1.2133   -2.8873 O   0  0  0  0  0  0  0  0  0  0  0  0
    2.2293    4.7111    0.4462 O   0  0  0  0  0  0  0  0  0  0  0  0
    3.5918    2.5973   -0.9864 O   0  0  0  0  0  0  0  0  0  0  0  0
    4.1848    0.5754   -0.1136 O   0  0  0  0  0  0  0  0  0  0  0  0
   -1.4545    0.0513    1.2413 N   0  0  0  0  0  2  0  0  0  0  0  0
   -1.8075    0.2284   -1.1687 N   0  0  0  0  0  2  0  0  0  0  0  0
    1.1469   -0.0704    1.0740 N   0  0  0  0  0  2  0  0  0  0  0  0
    0.5215   -0.9528   -1.1150 N   0  0  0  0  0  2  0  0  0  0  0  0
   -0.0815    2.2259    0.7321 N   0  0  0  0  0  2  0  0  0  0  0  0
    0.3597    1.6215   -1.6123 N   0  0  0  0  0  2  0  0  0  0  0  0
    0.0090    1.0812    2.8072 B   0  0  2  0  0  0  0  0  0  0  0  0
   -0.4287   -0.0334   -3.0933 B   0  0  1  0  0  0  0  0  0  0  0  0
   -2.7233   -0.1914    0.9041 C   0  0  2  0  0  3  0  0  0  0  0  0
   -2.9016   -0.1999   -0.5352 C   0  0  2  0  0  3  0  0  0  0  0  0
    1.8255   -1.1757    0.7710 C   0  0  2  0  0  3  0  0  0  0  0  0
    1.5392   -1.6261   -0.5767 C   0  0  2  0  0  3  0  0  0  0  0  0
    0.3453    3.2660    0.0208 C   0  0  2  0  0  3  0  0  0  0  0  0
    0.5150    2.9113   -1.3596 C   0  0  2  0  0  3  0  0  0  0  0  0
   -3.8211   -0.3311    1.8810 C   0  0  0  0  0  0  0  0  0  0  0  0
   -5.0630    0.2973    1.6298 C   0  0  0  0  0  0  0  0  0  0  0  0
   -5.1934    0.8971    0.7177 H   0  0  0  0  0  0  0  0  0  0  0  0
   -6.1210    0.1679    2.5372 C   0  0  0  0  0  0  0  0  0  0  0  0
   -7.0785    0.6694    2.3312 H   0  0  0  0  0  0  0  0  0  0  0  0
   -5.9604   -0.5965    3.7039 C   0  0  0  0  0  0  0  0  0  0  0  0
   -6.7938   -0.7007    4.4152 H   0  0  0  0  0  0  0  0  0  0  0  0
   -4.7307   -1.2233    3.9622 C   0  0  0  0  0  0  0  0  0  0  0  0
   -4.5970   -1.8207    4.8765 H   0  0  0  0  0  0  0  0  0  0  0  0
   -3.6647   -1.0891    3.0638 C   0  0  0  0  0  0  0  0  0  0  0  0
   -2.7025   -1.5739    3.2747 H   0  0  0  0  0  0  0  0  0  0  0  0
   -4.1026   -0.7139   -1.2226 C   0  0  0  0  0  0  0  0  0  0  0  0
   -4.6363   -0.0692   -2.3617 C   0  0  0  0  0  0  0  0  0  0  0  0
   -4.1432    0.8277   -2.7585 H   0  0  0  0  0  0  0  0  0  0  0  0
   -5.7882   -0.5699   -2.9812 C   0  0  0  0  0  0  0  0  0  0  0  0
   -6.1961   -0.0551   -3.8640 H   0  0  0  0  0  0  0  0  0  0  0  0
   -6.4169   -1.7236   -2.4857 C   0  0  0  0  0  0  0  0  0  0  0  0
   -7.3191   -2.1161   -2.9788 H   0  0  0  0  0  0  0  0  0  0  0  0
   -5.8869   -2.3773   -1.3618 C   0  0  0  0  0  0  0  0  0  0  0  0
   -6.3683   -3.2867   -0.9719 H   0  0  0  0  0  0  0  0  0  0  0  0
   -4.7422   -1.8759   -0.7312 C   0  0  0  0  0  0  0  0  0  0  0  0
   -4.3310   -2.3914    0.1484 H   0  0  0  0  0  0  0  0  0  0  0  0
    2.6935   -1.9011    1.7176 C   0  0  0  0  0  0  0  0  0  0  0  0
    2.6059   -3.3099    1.7950 C   0  0  0  0  0  0  0  0  0  0  0  0
    1.8899   -3.8457    1.1551 H   0  0  0  0  0  0  0  0  0  0  0  0
    3.4182   -4.0230    2.6848 C   0  0  0  0  0  0  0  0  0  0  0  0
    3.3346   -5.1188    2.7399 H   0  0  0  0  0  0  0  0  0  0  0  0
    4.3354   -3.3418    3.5008 C   0  0  0  0  0  0  0  0  0  0  0  0
    4.9771   -3.9027    4.1972 H   0  0  0  0  0  0  0  0  0  0  0  0
    4.4320   -1.9429    3.4247 C   0  0  0  0  0  0  0  0  0  0  0  0
    5.1534   -1.4051    4.0582 H   0  0  0  0  0  0  0  0  0  0  0  0
    3.6158   -1.2227    2.5442 C   0  0  0  0  0  0  0  0  0  0  0  0
    3.7036   -0.1322    2.4701 H   0  0  0  0  0  0  0  0  0  0  0  0
    2.3450   -2.6253   -1.3051 C   0  0  0  0  0  0  0  0  0  0  0  0
    1.7393   -3.6211   -2.1041 C   0  0  0  0  0  0  0  0  0  0  0  0
    0.6461   -3.6464   -2.2059 H   0  0  0  0  0  0  0  0  0  0  0  0
    2.5298   -4.5726   -2.7604 C   0  0  0  0  0  0  0  0  0  0  0  0
    2.0484   -5.3481   -3.3750 H   0  0  0  0  0  0  0  0  0  0  0  0
    3.9289   -4.5354   -2.6414 C   0  0  0  0  0  0  0  0  0  0  0  0
    4.5464   -5.2827   -3.1626 H   0  0  0  0  0  0  0  0  0  0  0  0
    4.5370   -3.5380   -1.8623 C   0  0  0  0  0  0  0  0  0  0  0  0
    5.6333   -3.4955   -1.7757 H   0  0  0  0  0  0  0  0  0  0  0  0
    3.7546   -2.5891   -1.1927 C   0  0  0  0  0  0  0  0  0  0  0  0
    4.2256   -1.7929   -0.5978 H   0  0  0  0  0  0  0  0  0  0  0  0
    0.8298    4.5631    0.6157 C   0  0  0  0  0  0  0  0  0  0  0  0
    0.3743    5.4152    0.0728 H   0  0  0  0  0  0  0  0  0  0  0  0
    0.5185    4.6086    1.6813 H   0  0  0  0  0  0  0  0  0  0  0  0
    3.0353    3.7356    1.0952 C   0  0  0  0  0  0  0  0  0  0  0  0
    2.4467    2.8463    1.4113 H   0  0  0  0  0  0  0  0  0  0  0  0
    3.4962    4.1671    2.0154 H   0  0  0  0  0  0  0  0  0  0  0  0
    4.1416    3.3022    0.1511 C   0  0  0  0  0  0  0  0  0  0  0  0
    4.6520    4.1908   -0.2681 H   0  0  0  0  0  0  0  0  0  0  0  0
    4.8700    2.6521    0.6751 H   0  0  0  0  0  0  0  0  0  0  0  0
    3.6658    1.2550   -0.9776 C   0  0  0  0  0  0  0  0  0  0  0  0
    3.1694    0.8592   -1.8976 H   0  0  0  0  0  0  0  0  0  0  0  0
  4 19  1  0  0  0  0
  5 14  1  0  0  0  0
  6 19  1  0  0  0  0
  7 16  1  0  0  0  0
  8 19  1  0  0  0  0
  9 18  1  0  0  0  0
 10 71  1  0  0  0  0
 10 74  1  0  0  0  0
 11 80  1  0  0  0  0
 11 77  1  0  0  0  0
 13  4  1  0  0  0  0
 14 22  1  0  0  0  0
 15  6  1  0  0  0  0
 16 24  1  0  0  0  0
 17  8  1  0  0  0  0
 18 26  1  0  0  0  0
 19  2  1  1  0  0  0
 20  3  1  6  0  0  0
 20  9  1  0  0  0  0
 20  5  1  0  0  0  0
 20  7  1  0  0  0  0
 21 13  1  0  0  0  0
 21 27  1  1  0  0  0
 22 38  1  6  0  0  0
 22 21  1  0  0  0  0
 23 15  1  0  0  0  0
 23 49  1  1  0  0  0
 24 60  1  6  0  0  0
 24 23  1  0  0  0  0
 25 71  1  1  0  0  0
 25 17  1  0  0  0  0
 26  1  1  6  0  0  0
 26 25  1  0  0  0  0
 27 36  1  0  0  0  0
 28 27  2  0  0  0  0
 28 30  1  0  0  0  0
 29 28  1  0  0  0  0
 30 32  2  0  0  0  0
 31 30  1  0  0  0  0
 32 34  1  0  0  0  0
 32 33  1  0  0  0  0
 34 35  1  0  0  0  0
 36 37  1  0  0  0  0
 36 34  2  0  0  0  0
 38 47  1  0  0  0  0
 39 38  2  0  0  0  0
 40 39  1  0  0  0  0
 41 43  2  0  0  0  0
 41 39  1  0  0  0  0
 42 41  1  0  0  0  0
 43 45  1  0  0  0  0
 44 43  1  0  0  0  0
 45 46  1  0  0  0  0
 45 47  2  0  0  0  0
 47 48  1  0  0  0  0
 49 50  2  0  0  0  0
 49 58  1  0  0  0  0
 50 52  1  0  0  0  0
 51 50  1  0  0  0  0
 52 53  1  0  0  0  0
 52 54  2  0  0  0  0
 54 55  1  0  0  0  0
 56 54  1  0  0  0  0
 56 57  1  0  0  0  0
 58 56  2  0  0  0  0
 59 58  1  0  0  0  0
 60 69  1  0  0  0  0
 61 60  2  0  0  0  0
 62 61  1  0  0  0  0
 63 65  2  0  0  0  0
 63 61  1  0  0  0  0
 64 63  1  0  0  0  0
 65 67  1  0  0  0  0
 66 65  1  0  0  0  0
 67 68  1  0  0  0  0
 67 69  2  0  0  0  0
 69 70  1  0  0  0  0
 71 73  1  0  0  0  0
 72 71  1  0  0  0  0
 74 75  1  0  0  0  0
 74 76  1  0  0  0  0
 77 79  1  0  0  0  0
 77 74  1  0  0  0  0
 78 77  1  0  0  0  0
 80 12  2  0  0  0  0
 81 80  1  0  0  0  0
M  END
