13,14,15,16,17,18
q = -2.0, confidence = 0.784

 74 80  0  0  1  0  0  0  0  0999 V2000
    4.1604   -0.1373    1.8128 S   0  0  0  0  0  0  0  0  0  0  0  0
    4.1608    0.1268   -1.8127 S   0  0  0  0  0  0  0  0  0  0  0  0
    0.1254    0.1044    4.3615 F   0  0  0  0  0  0  0  0  0  0  0  0
    0.1252   -0.1048   -4.3615 F   0  0  0  0  0  0  0  0  0  0  0  0
    0.1162    0.0701    3.0129 B   0  0  2  0  0  0  0  0  0  0  0  0
    0.1161   -0.0704   -3.0129 B   0  0  1  0  0  0  0  0  0  0  0  0
    1.4679   -0.3968    2.5185 O   0  0  0  0  0  0  0  0  0  0  0  0
    1.4690    0.3929   -2.5185 O   0  0  0  0  0  0  0  0  0  0  0  0
   -0.1480    1.4373    2.4712 O   0  0  0  0  0  0  0  0  0  0  0  0
   -0.9324    0.8740   -2.5308 O   0  0  0  0  0  0  0  0  0  0  0  0
   -0.9347   -0.8716    2.5308 O   0  0  0  0  0  0  0  0  0  0  0  0
   -0.1517   -1.4370   -2.4712 O   0  0  0  0  0  0  0  0  0  0  0  0
    1.5728   -0.3007    1.1865 N   0  0  0  0  0  2  0  0  0  0  0  0
    1.5736    0.2966   -1.1866 N   0  0  0  0  0  2  0  0  0  0  0  0
   -0.3571    1.4685    1.1444 N   0  0  0  0  0  2  0  0  0  0  0  0
   -0.9126    1.0923   -1.2052 N   0  0  0  0  0  2  0  0  0  0  0  0
   -0.9154   -1.0900    1.2052 N   0  0  0  0  0  2  0  0  0  0  0  0
   -0.3609   -1.4676   -1.1445 N   0  0  0  0  0  2  0  0  0  0  0  0
    7.7572   -0.1338    2.0253 N   0  0  0  0  0  0  0  0  0  0  0  0
    7.7575    0.1150   -2.0252 N   0  0  0  0  0  0  0  0  0  0  0  0
    2.7976   -0.1415    0.7020 C   0  0  0  0  0  0  0  0  0  0  0  0
    2.7980    0.1344   -0.7020 C   0  0  0  0  0  0  0  0  0  0  0  0
   -1.1502    2.4265    0.6606 C   0  0  1  0  0  3  0  0  0  0  0  0
   -1.3762    2.2633   -0.7637 C   0  0  1  0  0  3  0  0  0  0  0  0
   -1.3821   -2.2598    0.7636 C   0  0  1  0  0  3  0  0  0  0  0  0
   -1.1564   -2.4236   -0.6606 C   0  0  1  0  0  3  0  0  0  0  0  0
    5.5260   -0.0542    0.6905 C   0  0  0  0  0  0  0  0  0  0  0  0
    6.7635   -0.0966    1.3986 C   0  0  0  0  0  0  0  0  0  0  0  0
    5.5261    0.0405   -0.6904 C   0  0  0  0  0  0  0  0  0  0  0  0
    6.7638    0.0800   -1.3984 C   0  0  0  0  0  0  0  0  0  0  0  0
   -1.7901    3.4656    1.4906 C   0  0  0  0  0  0  0  0  0  0  0  0
   -3.1426    3.8072    1.2556 C   0  0  0  0  0  0  0  0  0  0  0  0
   -3.7058    3.2867    0.4679 H   0  0  0  0  0  0  0  0  0  0  0  0
   -3.7690    4.7951    2.0242 C   0  0  0  0  0  0  0  0  0  0  0  0
   -4.8239    5.0439    1.8349 H   0  0  0  0  0  0  0  0  0  0  0  0
   -3.0546    5.4644    3.0308 C   0  0  0  0  0  0  0  0  0  0  0  0
   -3.5464    6.2442    3.6316 H   0  0  0  0  0  0  0  0  0  0  0  0
   -1.7116    5.1321    3.2709 C   0  0  0  0  0  0  0  0  0  0  0  0
   -1.1473    5.6511    4.0601 H   0  0  0  0  0  0  0  0  0  0  0  0
   -1.0820    4.1364    2.5138 C   0  0  0  0  0  0  0  0  0  0  0  0
   -0.0343    3.8751    2.7112 H   0  0  0  0  0  0  0  0  0  0  0  0
   -1.9500    3.3031   -1.6401 C   0  0  0  0  0  0  0  0  0  0  0  0
   -1.5906    4.6569   -1.4439 C   0  0  0  0  0  0  0  0  0  0  0  0
   -0.8759    4.9207   -0.6513 H   0  0  0  0  0  0  0  0  0  0  0  0
   -2.1307    5.6594   -2.2579 C   0  0  0  0  0  0  0  0  0  0  0  0
   -1.8346    6.7071   -2.0991 H   0  0  0  0  0  0  0  0  0  0  0  0
   -3.0438    5.3290   -3.2720 C   0  0  0  0  0  0  0  0  0  0  0  0
   -3.4708    6.1183   -3.9091 H   0  0  0  0  0  0  0  0  0  0  0  0
   -3.4063    3.9875   -3.4740 C   0  0  0  0  0  0  0  0  0  0  0  0
   -4.1186    3.7220   -4.2695 H   0  0  0  0  0  0  0  0  0  0  0  0
   -2.8608    2.9782   -2.6711 C   0  0  0  0  0  0  0  0  0  0  0  0
   -3.1404    1.9299   -2.8390 H   0  0  0  0  0  0  0  0  0  0  0  0
   -1.9584   -3.2982    1.6401 C   0  0  0  0  0  0  0  0  0  0  0  0
   -2.8684   -2.9710    2.6711 C   0  0  0  0  0  0  0  0  0  0  0  0
   -3.1453   -1.9220    2.8391 H   0  0  0  0  0  0  0  0  0  0  0  0
   -3.4164   -3.9789    3.4739 C   0  0  0  0  0  0  0  0  0  0  0  0
   -4.1280   -3.7117    4.2695 H   0  0  0  0  0  0  0  0  0  0  0  0
   -3.0574   -5.3214    3.2719 C   0  0  0  0  0  0  0  0  0  0  0  0
   -3.4864   -6.1095    3.9090 H   0  0  0  0  0  0  0  0  0  0  0  0
   -2.1452   -5.6540    2.2578 C   0  0  0  0  0  0  0  0  0  0  0  0
   -1.8518   -6.7025    2.0989 H   0  0  0  0  0  0  0  0  0  0  0  0
   -1.6026   -4.6529    1.4437 C   0  0  0  0  0  0  0  0  0  0  0  0
   -0.8886   -4.9185    0.6511 H   0  0  0  0  0  0  0  0  0  0  0  0
   -1.7989   -3.4611   -1.4906 C   0  0  0  0  0  0  0  0  0  0  0  0
   -3.1522   -3.7993   -1.2555 C   0  0  0  0  0  0  0  0  0  0  0  0
   -3.7142   -3.2775   -0.4678 H   0  0  0  0  0  0  0  0  0  0  0  0
   -3.7811   -4.7857   -2.0240 C   0  0  0  0  0  0  0  0  0  0  0  0
   -4.8366   -5.0320   -1.8348 H   0  0  0  0  0  0  0  0  0  0  0  0
   -3.0683   -5.4569   -3.0306 C   0  0  0  0  0  0  0  0  0  0  0  0
   -3.5621   -6.2355   -3.6314 H   0  0  0  0  0  0  0  0  0  0  0  0
   -1.7246   -5.1279   -3.2708 C   0  0  0  0  0  0  0  0  0  0  0  0
   -1.1615   -5.6483   -4.0600 H   0  0  0  0  0  0  0  0  0  0  0  0
   -1.0925   -4.1337   -2.5137 C   0  0  0  0  0  0  0  0  0  0  0  0
   -0.0442   -3.8749   -2.7112 H   0  0  0  0  0  0  0  0  0  0  0  0
  2 22  1  0  0  0  0
  2 29  1  0  0  0  0
  5  3  1  1  0  0  0
  6  4  1  6  0  0  0
  6 10  1  0  0  0  0
  6  8  1  0  0  0  0
  6 12  1  0  0  0  0
  7  5  1  0  0  0  0
  8 14  1  0  0  0  0
  9  5  1  0  0  0  0
 10 16  1  0  0  0  0
 11  5  1  0  0  0  0
 12 18  1  0  0  0  0
 13  7  1  0  0  0  0
 14 22  1  0  0  0  0
 15  9  1  0  0  0  0
 16 24  1  0  0  0  0
 17 11  1  0  0  0  0
 18 26  1  0  0  0  0
 20 30  3  0  0  0  0
 21 13  1  0  0  0  0
 21  1  1  0  0  0  0
 22 21  2  0  0  0  0
 23 15  1  0  0  0  0
 23 31  1  1  0  0  0
 24 42  1  6  0  0  0
 24 23  1  0  0  0  0
 25 17  1  0  0  0  0
 25 53  1  1  0  0  0
 26 64  1  6  0  0  0
 26 25  1  0  0  0  0
 27 28  1  0  0  0  0
 27  1  1  0  0  0  0
 28 19  3  0  0  0  0
 29 27  2  0  0  0  0
 30 29  1  0  0  0  0
 31 40  1  0  0  0  0
 32 31  2  0  0  0  0
 32 34  1  0  0  0  0
 33 32  1  0  0  0  0
 34 36  2  0  0  0  0
 35 34  1  0  0  0  0
 36 38  1  0  0  0  0
 36 37  1  0  0  0  0
 38 39  1  0  0  0  0
 40 41  1  0  0  0  0
 40 38  2  0  0  0  0
 42 43  1  0  0  0  0
 43 44  1  0  0  0  0
 45 46  1  0  0  0  0
 45 43  2  0  0  0  0
 47 45  1  0  0  0  0
 48 47  1  0  0  0  0
 49 47  2  0  0  0  0
 49 51  1  0  0  0  0
 50 49  1  0  0  0  0
 51 42  2  0  0  0  0
 52 51  1  0  0  0  0
 53 54  1  0  0  0  0
 54 55  1  0  0  0  0
 54 56  2  0  0  0  0
 56 57  1  0  0  0  0
 58 56  1  0  0  0  0
 58 59  1  0  0  0  0
 60 58  2  0  0  0  0
 61 60  1  0  0  0  0
 62 53  2  0  0  0  0
 62 60  1  0  0  0  0
 63 62  1  0  0  0  0
 64 65  1  0  0  0  0
 65 66  1  0  0  0  0
 67 68  1  0  0  0  0
 67 65  2  0  0  0  0
 69 67  1  0  0  0  0
 70 69  1  0  0  0  0
 71 69  2  0  0  0  0
 71 73  1  0  0  0  0
 72 71  1  0  0  0  0
 73 64  2  0  0  0  0
 74 73  1  0  0  0  0
M  END
