6,7,8,36,37,38
q = -2.0, confidence = 0.808

 60 63  0  0  0  0  0  0  0  0999 V2000
   -1.6881   -3.4810   -2.1692 Cl  0  0  0  0  0  0  0  0  0  0  0  0
   -1.6573   -0.1719    4.0887 Cl  0  0  0  0  0  0  0  0  0  0  0  0
   -1.6276    3.6887   -1.8554 Cl  0  0  0  0  0  0  0  0  0  0  0  0
   -8.7602    2.4402    0.2265 F   0  0  0  0  0  0  0  0  0  0  0  0
   -2.5166    1.4008   -0.2974 O   0  0  0  0  0  0  0  0  0  0  0  0
   -1.2037   -1.1155   -1.0175 N   0  0  0  0  0  2  0  0  0  0  0  0
   -1.1914    1.4426   -0.4685 N   0  0  0  0  0  2  0  0  0  0  0  0
   -1.2013   -0.3099    1.4563 N   0  0  0  0  0  2  0  0  0  0  0  0
   -2.5257   -0.9234   -1.0735 O   0  0  0  0  0  0  0  0  0  0  0  0
   -2.5272   -0.4320    1.3229 O   0  0  0  0  0  0  0  0  0  0  0  0
   -4.6262    0.0200   -0.0282 C   0  0  0  0  0  0  0  0  0  0  0  0
   -0.7064   -0.1416    2.6729 C   0  0  0  0  0  0  0  0  0  0  0  0
   -3.0374    0.0192   -0.0229 B   0  0  1  0  0  0  0  0  0  0  0  0
   -0.6879    2.4225   -1.2043 C   0  0  0  0  0  0  0  0  0  0  0  0
   -7.6418    2.4674    2.0980 F   0  0  0  0  0  0  0  0  0  0  0  0
   -0.7214   -2.2680   -1.4570 C   0  0  0  0  0  0  0  0  0  0  0  0
   -6.7451   -1.1634   -0.3317 C   0  0  0  0  0  0  0  0  0  0  0  0
   -6.8729    3.5367    0.3616 F   0  0  0  0  0  0  0  0  0  0  0  0
   -7.6901   -2.4447   -2.0866 F   0  0  0  0  0  0  0  0  0  0  0  0
   -6.7567    1.1671    0.3260 C   0  0  0  0  0  0  0  0  0  0  0  0
   -6.8080   -3.5344   -0.4178 F   0  0  0  0  0  0  0  0  0  0  0  0
   -7.4595   -0.0050    0.0089 C   0  0  0  0  0  0  0  0  0  0  0  0
   -8.5579   -0.0145    0.0240 H   0  0  0  0  0  0  0  0  0  0  0  0
   -5.3524    1.1798    0.3014 C   0  0  0  0  0  0  0  0  0  0  0  0
   -4.8173    2.1132    0.5304 H   0  0  0  0  0  0  0  0  0  0  0  0
   -5.3408   -1.1512   -0.3452 C   0  0  0  0  0  0  0  0  0  0  0  0
   -4.7946   -2.0674   -0.6136 H   0  0  0  0  0  0  0  0  0  0  0  0
   -8.7102   -2.4864   -0.1603 F   0  0  0  0  0  0  0  0  0  0  0  0
   -7.5114    2.4061    0.7486 C   0  0  0  0  0  0  0  0  0  0  0  0
   -7.4910   -2.4109   -0.7447 C   0  0  0  0  0  0  0  0  0  0  0  0
    1.6881    3.4810   -2.1691 Cl  0  0  0  0  0  0  0  0  0  0  0  0
    1.6573    0.1718    4.0887 Cl  0  0  0  0  0  0  0  0  0  0  0  0
    1.6276   -3.6887   -1.8554 Cl  0  0  0  0  0  0  0  0  0  0  0  0
    8.7602   -2.4402    0.2265 F   0  0  0  0  0  0  0  0  0  0  0  0
    2.5166   -1.4008   -0.2975 O   0  0  0  0  0  0  0  0  0  0  0  0
    1.2037    1.1155   -1.0175 N   0  0  0  0  0  2  0  0  0  0  0  0
    1.1914   -1.4426   -0.4685 N   0  0  0  0  0  2  0  0  0  0  0  0
    1.2013    0.3099    1.4563 N   0  0  0  0  0  2  0  0  0  0  0  0
    2.5257    0.9234   -1.0735 O   0  0  0  0  0  0  0  0  0  0  0  0
    2.5272    0.4320    1.3229 O   0  0  0  0  0  0  0  0  0  0  0  0
    4.6262   -0.0200   -0.0282 C   0  0  0  0  0  0  0  0  0  0  0  0
    0.7064    0.1415    2.6729 C   0  0  0  0  0  0  0  0  0  0  0  0
    3.0374   -0.0192   -0.0229 B   0  0  1  0  0  0  0  0  0  0  0  0
    0.6879   -2.4225   -1.2043 C   0  0  0  0  0  0  0  0  0  0  0  0
    7.6418   -2.4674    2.0980 F   0  0  0  0  0  0  0  0  0  0  0  0
    0.7214    2.2680   -1.4570 C   0  0  0  0  0  0  0  0  0  0  0  0
    6.7451    1.1634   -0.3317 C   0  0  0  0  0  0  0  0  0  0  0  0
    6.8729   -3.5367    0.3616 F   0  0  0  0  0  0  0  0  0  0  0  0
    7.6901    2.4447   -2.0866 F   0  0  0  0  0  0  0  0  0  0  0  0
    6.7567   -1.1671    0.3260 C   0  0  0  0  0  0  0  0  0  0  0  0
    6.8080    3.5343   -0.4178 F   0  0  0  0  0  0  0  0  0  0  0  0
    7.4595    0.0050    0.0089 C   0  0  0  0  0  0  0  0  0  0  0  0
    8.5579    0.0145    0.0240 H   0  0  0  0  0  0  0  0  0  0  0  0
    5.3524   -1.1798    0.3014 C   0  0  0  0  0  0  0  0  0  0  0  0
    4.8173   -2.1132    0.5304 H   0  0  0  0  0  0  0  0  0  0  0  0
    5.3408    1.1512   -0.3452 C   0  0  0  0  0  0  0  0  0  0  0  0
    4.7946    2.0674   -0.6136 H   0  0  0  0  0  0  0  0  0  0  0  0
    8.7102    2.4864   -0.1602 F   0  0  0  0  0  0  0  0  0  0  0  0
    7.5114   -2.4061    0.7486 C   0  0  0  0  0  0  0  0  0  0  0  0
    7.4910    2.4109   -0.7447 C   0  0  0  0  0  0  0  0  0  0  0  0
  1 16  1  0  0  0  0
  3 14  1  0  0  0  0
  4 29  1  0  0  0  0
  5 13  1  0  0  0  0
  7  5  1  0  0  0  0
  8 12  1  0  0  0  0
  9  6  1  0  0  0  0
  9 13  1  0  0  0  0
 10  8  1  0  0  0  0
 11 24  1  0  0  0  0
 12 42  2  0  0  0  0
 12  2  1  0  0  0  0
 13 11  1  6  0  0  0
 13 10  1  0  0  0  0
 14  7  1  0  0  0  0
 16 44  2  0  0  0  0
 16  6  1  0  0  0  0
 17 22  2  0  0  0  0
 18 29  1  0  0  0  0
 19 30  1  0  0  0  0
 20 29  1  0  0  0  0
 22 23  1  0  0  0  0
 22 20  1  0  0  0  0
 24 20  2  0  0  0  0
 24 25  1  0  0  0  0
 26 17  1  0  0  0  0
 26 11  2  0  0  0  0
 27 26  1  0  0  0  0
 29 15  1  0  0  0  0
 30 21  1  0  0  0  0
 30 17  1  0  0  0  0
 30 28  1  0  0  0  0
 31 46  1  0  0  0  0
 33 44  1  0  0  0  0
 34 59  1  0  0  0  0
 35 43  1  0  0  0  0
 37 35  1  0  0  0  0
 38 42  1  0  0  0  0
 39 36  1  0  0  0  0
 39 43  1  0  0  0  0
 40 38  1  0  0  0  0
 41 54  1  0  0  0  0
 42 32  1  0  0  0  0
 43 41  1  6  0  0  0
 43 40  1  0  0  0  0
 44 37  1  0  0  0  0
 46 14  2  0  0  0  0
 46 36  1  0  0  0  0
 47 52  2  0  0  0  0
 48 59  1  0  0  0  0
 49 60  1  0  0  0  0
 50 59  1  0  0  0  0
 52 53  1  0  0  0  0
 52 50  1  0  0  0  0
 54 50  2  0  0  0  0
 54 55  1  0  0  0  0
 56 47  1  0  0  0  0
 56 41  2  0  0  0  0
 57 56  1  0  0  0  0
 59 45  1  0  0  0  0
 60 51  1  0  0  0  0
 60 47  1  0  0  0  0
 60 58  1  0  0  0  0
M  END
