1,2,5,6,9,10
q = -1.0, confidence = 0.012

 57 60  0  0  0  0  0  0  0  0999 V2000
   -0.4506   -0.2040    1.6068 N   0  0  0  0  0  2  0  0  0  0  0  0
    2.1303    0.2563    1.8496 N   0  0  0  0  0  2  0  0  0  0  0  0
    3.3762    0.5335    2.2763 N   0  0  0  0  0  0  0  0  0  0  0  0
    4.0704    0.8838    1.6152 H   0  0  0  0  0  0  0  0  0  0  0  0
   -0.4228    1.5048   -0.6314 N   0  0  0  0  0  2  0  0  0  0  0  0
    2.1506    1.4641   -1.1361 N   0  0  0  0  0  2  0  0  0  0  0  0
    3.4023    1.6749   -1.5818 N   0  0  0  0  0  0  0  0  0  0  0  0
    4.0874    0.9195   -1.5395 H   0  0  0  0  0  0  0  0  0  0  0  0
   -0.4399   -1.2832   -0.9973 N   0  0  0  0  0  2  0  0  0  0  0  0
    2.1354   -1.7214   -0.6844 N   0  0  0  0  0  2  0  0  0  0  0  0
    3.3790   -2.2328   -0.6328 N   0  0  0  0  0  0  0  0  0  0  0  0
    4.0622   -1.8352    0.0128 H   0  0  0  0  0  0  0  0  0  0  0  0
   -1.7602   -0.3423    1.3684 O   0  0  0  0  0  0  0  0  0  0  0  0
   -1.7366    1.4019   -0.4021 O   0  0  0  0  0  0  0  0  0  0  0  0
   -1.7480   -1.0045   -1.0238 O   0  0  0  0  0  0  0  0  0  0  0  0
   -0.8980   -0.5140    4.0320 C   0  0  0  0  0  0  0  0  0  0  0  0
   -1.9420   -0.6751    3.7109 H   0  0  0  0  0  0  0  0  0  0  0  0
   -0.8656    0.3532    4.7241 H   0  0  0  0  0  0  0  0  0  0  0  0
   -0.5504   -1.4008    4.6011 H   0  0  0  0  0  0  0  0  0  0  0  0
   -0.0298   -0.2736    2.8410 C   0  0  0  0  0  0  0  0  0  0  0  0
    1.4094   -0.0086    2.9649 C   0  0  0  0  0  0  0  0  0  0  0  0
    2.2324    0.1045    4.1179 C   0  0  0  0  0  0  0  0  0  0  0  0
    1.9463   -0.0453    5.1632 H   0  0  0  0  0  0  0  0  0  0  0  0
    3.4864    0.4668    3.6332 C   0  0  0  0  0  0  0  0  0  0  0  0
    4.4302    0.6838    4.1457 H   0  0  0  0  0  0  0  0  0  0  0  0
   -0.8969    3.7281   -1.5800 C   0  0  0  0  0  0  0  0  0  0  0  0
   -1.3055    4.2188   -0.6719 H   0  0  0  0  0  0  0  0  0  0  0  0
   -1.7722    3.3329   -2.1344 H   0  0  0  0  0  0  0  0  0  0  0  0
   -0.3834    4.4886   -2.1935 H   0  0  0  0  0  0  0  0  0  0  0  0
    0.0048    2.6009   -1.1979 C   0  0  0  0  0  0  0  0  0  0  0  0
    1.4446    2.5682   -1.4816 C   0  0  0  0  0  0  0  0  0  0  0  0
    2.2863    3.4928   -2.1578 C   0  0  0  0  0  0  0  0  0  0  0  0
    2.0217    4.4737   -2.5633 H   0  0  0  0  0  0  0  0  0  0  0  0
    3.5330    2.8757   -2.2127 C   0  0  0  0  0  0  0  0  0  0  0  0
    4.4844    3.1957   -2.6517 H   0  0  0  0  0  0  0  0  0  0  0  0
   -0.8634   -3.2129   -2.5044 C   0  0  0  0  0  0  0  0  0  0  0  0
   -1.8840   -2.7985   -2.5816 H   0  0  0  0  0  0  0  0  0  0  0  0
   -0.9253   -4.2231   -2.0474 H   0  0  0  0  0  0  0  0  0  0  0  0
   -0.4393   -3.3380   -3.5213 H   0  0  0  0  0  0  0  0  0  0  0  0
   -0.0079   -2.3103   -1.6776 C   0  0  0  0  0  0  0  0  0  0  0  0
    1.4275   -2.5538   -1.4843 C   0  0  0  0  0  0  0  0  0  0  0  0
    2.2568   -3.6114   -1.9458 C   0  0  0  0  0  0  0  0  0  0  0  0
    1.9812   -4.4423   -2.6020 H   0  0  0  0  0  0  0  0  0  0  0  0
    3.5005   -3.3755   -1.3657 C   0  0  0  0  0  0  0  0  0  0  0  0
    4.4440   -3.9302   -1.4154 H   0  0  0  0  0  0  0  0  0  0  0  0
   -3.8225    0.0214   -0.0299 C   0  0  0  0  0  0  0  0  0  0  0  0
   -4.5287   -1.2019   -0.0286 C   0  0  0  0  0  0  0  0  0  0  0  0
   -3.9677   -2.1500   -0.0548 H   0  0  0  0  0  0  0  0  0  0  0  0
   -5.9309   -1.2335   -0.0002 C   0  0  0  0  0  0  0  0  0  0  0  0
   -6.4614   -2.1983   -0.0010 H   0  0  0  0  0  0  0  0  0  0  0  0
   -6.6585   -0.0326    0.0277 C   0  0  0  0  0  0  0  0  0  0  0  0
   -7.7590   -0.0533    0.0487 H   0  0  0  0  0  0  0  0  0  0  0  0
   -5.9758    1.1940    0.0270 C   0  0  0  0  0  0  0  0  0  0  0  0
   -6.5418    2.1382    0.0475 H   0  0  0  0  0  0  0  0  0  0  0  0
   -4.5727    1.2166   -0.0014 C   0  0  0  0  0  0  0  0  0  0  0  0
   -4.0466    2.1839   -0.0044 H   0  0  0  0  0  0  0  0  0  0  0  0
   -2.2311    0.0258   -0.0270 B   0  0  1  0  0  0  0  0  0  0  0  0
  1 20  1  0  0  0  0
  2  3  1  0  0  0  0
  2 21  1  0  0  0  0
  3 24  1  0  0  0  0
  4  3  1  0  0  0  0
  5 14  1  0  0  0  0
  7  8  1  0  0  0  0
  7  6  1  0  0  0  0
 10 11  1  0  0  0  0
 11 12  1  0  0  0  0
 13  1  1  0  0  0  0
 14 57  1  0  0  0  0
 15  9  1  0  0  0  0
 16 19  1  0  0  0  0
 16 18  1  0  0  0  0
 17 16  1  0  0  0  0
 20 21  2  0  0  0  0
 20 16  1  0  0  0  0
 21 22  1  0  0  0  0
 22 23  1  0  0  0  0
 24 22  2  0  0  0  0
 24 25  1  0  0  0  0
 26 30  1  0  0  0  0
 26 27  1  0  0  0  0
 28 26  1  0  0  0  0
 29 26  1  0  0  0  0
 30  5  1  0  0  0  0
 31 30  2  0  0  0  0
 31  6  1  0  0  0  0
 32 31  1  0  0  0  0
 33 32  1  0  0  0  0
 34 32  2  0  0  0  0
 34  7  1  0  0  0  0
 35 34  1  0  0  0  0
 36 38  1  0  0  0  0
 36 40  1  0  0  0  0
 37 36  1  0  0  0  0
 39 36  1  0  0  0  0
 40 41  2  0  0  0  0
 40  9  1  0  0  0  0
 41 10  1  0  0  0  0
 42 41  1  0  0  0  0
 42 44  2  0  0  0  0
 43 42  1  0  0  0  0
 44 11  1  0  0  0  0
 45 44  1  0  0  0  0
 46 47  2  0  0  0  0
 46 57  1  0  0  0  0
 46 55  1  0  0  0  0
 47 49  1  0  0  0  0
 48 47  1  0  0  0  0
 49 51  2  0  0  0  0
 50 49  1  0  0  0  0
 51 52  1  0  0  0  0
 53 51  1  0  0  0  0
 53 54  1  0  0  0  0
 55 53  2  0  0  0  0
 56 55  1  0  0  0  0
 57 15  1  6  0  0  0
 57 13  1  0  0  0  0
M  END
