1,2,3,4,5,6
q = -2.0, confidence = 0.688

 82 88  0  0  0  0  0  0  0  0999 V2000
   -1.1826    0.6616    1.3155 N   0  0  0  0  0  2  0  0  0  0  0  0
    1.1982    0.1216    1.4566 N   0  0  0  0  0  2  0  0  0  0  0  0
   -1.1670    0.8855   -1.2672 N   0  0  0  0  0  2  0  0  0  0  0  0
    1.2391    1.1551   -0.9194 N   0  0  0  0  0  2  0  0  0  0  0  0
   -1.2436   -1.4650   -0.1649 N   0  0  0  0  0  2  0  0  0  0  0  0
    1.1573   -1.4228   -0.6279 N   0  0  0  0  0  2  0  0  0  0  0  0
   -2.5176    0.7819    1.1702 O   0  0  0  0  0  0  0  0  0  0  0  0
   -2.5097    0.7672   -1.2730 O   0  0  0  0  0  0  0  0  0  0  0  0
   -2.5789   -1.3424   -0.0368 O   0  0  0  0  0  0  0  0  0  0  0  0
    2.5318   -0.0601    1.3840 O   0  0  0  0  0  0  0  0  0  0  0  0
    2.5764    1.1142   -0.7563 O   0  0  0  0  0  0  0  0  0  0  0  0
    2.4994   -1.3299   -0.7058 O   0  0  0  0  0  0  0  0  0  0  0  0
   -9.6728   -0.5634    0.5972 O   0  0  0  0  0  0  0  0  0  0  0  0
    9.6527    0.6986    0.5999 O   0  0  0  0  0  0  0  0  0  0  0  0
   -3.0463    0.0830   -0.0526 B   0  0  1  0  0  0  0  0  0  0  0  0
    3.0462   -0.1143   -0.0264 B   0  0  2  0  0  0  0  0  0  0  0  0
   -0.6903    0.8483    2.5343 C   0  0  0  0  0  0  0  0  0  0  0  0
    0.7169    0.6008    2.5974 C   0  0  0  0  0  0  0  0  0  0  0  0
    1.5385    0.8665    3.8221 C   0  0  0  0  0  0  0  0  0  0  0  0
    2.4779    1.3788    3.5264 H   0  0  0  0  0  0  0  0  0  0  0  0
    1.8633   -0.1087    4.2507 H   0  0  0  0  0  0  0  0  0  0  0  0
    0.7361    1.6707    4.8577 C   0  0  0  0  0  0  0  0  0  0  0  0
    1.2716    1.6628    5.8279 H   0  0  0  0  0  0  0  0  0  0  0  0
    0.6796    2.7347    4.5384 H   0  0  0  0  0  0  0  0  0  0  0  0
   -0.6869    1.1180    5.0205 C   0  0  0  0  0  0  0  0  0  0  0  0
   -1.2138    1.6339    5.8479 H   0  0  0  0  0  0  0  0  0  0  0  0
   -0.6306    0.0442    5.3052 H   0  0  0  0  0  0  0  0  0  0  0  0
   -1.5007    1.2631    3.7244 C   0  0  0  0  0  0  0  0  0  0  0  0
   -2.4403    0.6724    3.7478 H   0  0  0  0  0  0  0  0  0  0  0  0
   -1.8255    2.3188    3.5829 H   0  0  0  0  0  0  0  0  0  0  0  0
   -0.6418    1.8226   -2.0480 C   0  0  0  0  0  0  0  0  0  0  0  0
    0.7761    1.9276   -1.8954 C   0  0  0  0  0  0  0  0  0  0  0  0
    1.6278    2.8075   -2.7588 C   0  0  0  0  0  0  0  0  0  0  0  0
    2.5326    2.2445   -3.0693 H   0  0  0  0  0  0  0  0  0  0  0  0
    2.0091    3.6520   -2.1410 H   0  0  0  0  0  0  0  0  0  0  0  0
    0.8278    3.3367   -3.9599 C   0  0  0  0  0  0  0  0  0  0  0  0
    1.3972    4.1480   -4.4557 H   0  0  0  0  0  0  0  0  0  0  0  0
    0.7118    2.5274   -4.7141 H   0  0  0  0  0  0  0  0  0  0  0  0
   -0.5616    3.8329   -3.5357 C   0  0  0  0  0  0  0  0  0  0  0  0
   -1.0819    4.3138   -4.3879 H   0  0  0  0  0  0  0  0  0  0  0  0
   -0.4455    4.6171   -2.7554 H   0  0  0  0  0  0  0  0  0  0  0  0
   -1.4276    2.6875   -2.9861 C   0  0  0  0  0  0  0  0  0  0  0  0
   -1.8121    2.0535   -3.8169 H   0  0  0  0  0  0  0  0  0  0  0  0
   -2.3331    3.0623   -2.4641 H   0  0  0  0  0  0  0  0  0  0  0  0
   -0.7873   -2.6363   -0.5941 C   0  0  0  0  0  0  0  0  0  0  0  0
    0.6282   -2.6296   -0.7940 C   0  0  0  0  0  0  0  0  0  0  0  0
    1.4088   -3.8607   -1.1420 C   0  0  0  0  0  0  0  0  0  0  0  0
    2.3220   -3.9018   -0.5118 H   0  0  0  0  0  0  0  0  0  0  0  0
    1.7790   -3.7637   -2.1879 H   0  0  0  0  0  0  0  0  0  0  0  0
    0.5424   -5.1219   -0.9922 C   0  0  0  0  0  0  0  0  0  0  0  0
    1.0567   -5.9824   -1.4648 H   0  0  0  0  0  0  0  0  0  0  0  0
    0.4366   -5.3729    0.0862 H   0  0  0  0  0  0  0  0  0  0  0  0
   -0.8524   -4.9236   -1.6018 C   0  0  0  0  0  0  0  0  0  0  0  0
   -1.4233   -5.8734   -1.5875 H   0  0  0  0  0  0  0  0  0  0  0  0
   -0.7462   -4.6368   -2.6712 H   0  0  0  0  0  0  0  0  0  0  0  0
   -1.6440   -3.8374   -0.8558 C   0  0  0  0  0  0  0  0  0  0  0  0
   -2.5524   -3.5216   -1.4102 H   0  0  0  0  0  0  0  0  0  0  0  0
   -2.0181   -4.2273    0.1181 H   0  0  0  0  0  0  0  0  0  0  0  0
   -4.6416    0.1259   -0.0468 C   0  0  0  0  0  0  0  0  0  0  0  0
   -5.3475    1.1798   -0.6659 C   0  0  0  0  0  0  0  0  0  0  0  0
   -4.7839    1.9708   -1.1845 H   0  0  0  0  0  0  0  0  0  0  0  0
   -6.7469    1.2270   -0.6340 C   0  0  0  0  0  0  0  0  0  0  0  0
   -7.2929    2.0527   -1.1203 H   0  0  0  0  0  0  0  0  0  0  0  0
   -7.4742    0.2140    0.0225 C   0  0  0  0  0  0  0  0  0  0  0  0
   -6.7819   -0.8478    0.6443 C   0  0  0  0  0  0  0  0  0  0  0  0
   -7.3744   -1.6274    1.1477 H   0  0  0  0  0  0  0  0  0  0  0  0
   -5.3861   -0.8856    0.6062 C   0  0  0  0  0  0  0  0  0  0  0  0
   -4.8482   -1.7186    1.0854 H   0  0  0  0  0  0  0  0  0  0  0  0
   -8.9550    0.2633    0.0572 C   0  0  0  0  0  0  0  0  0  0  0  0
   -9.3972    1.1616   -0.4758 H   0  0  0  0  0  0  0  0  0  0  0  0
    4.6414   -0.1448   -0.0132 C   0  0  0  0  0  0  0  0  0  0  0  0
    5.3751   -1.1577   -0.6666 C   0  0  0  0  0  0  0  0  0  0  0  0
    4.8320   -1.9561   -1.1951 H   0  0  0  0  0  0  0  0  0  0  0  0
    6.7758   -1.1573   -0.6493 C   0  0  0  0  0  0  0  0  0  0  0  0
    7.3443   -1.9518   -1.1614 H   0  0  0  0  0  0  0  0  0  0  0  0
    7.4756   -0.1376    0.0261 C   0  0  0  0  0  0  0  0  0  0  0  0
    6.7548    0.8826    0.6843 C   0  0  0  0  0  0  0  0  0  0  0  0
    7.3261    1.6669    1.2045 H   0  0  0  0  0  0  0  0  0  0  0  0
    5.3584    0.8730    0.6611 C   0  0  0  0  0  0  0  0  0  0  0  0
    4.7999    1.6706    1.1763 H   0  0  0  0  0  0  0  0  0  0  0  0
    8.9575   -0.1373    0.0448 C   0  0  0  0  0  0  0  0  0  0  0  0
    9.4240   -1.0053   -0.5168 H   0  0  0  0  0  0  0  0  0  0  0  0
  1 17  1  0  0  0  0
  2 18  1  0  0  0  0
  4 11  1  0  0  0  0
  5  9  1  0  0  0  0
  7  1  1  0  0  0  0
  8  3  1  0  0  0  0
  8 15  1  0  0  0  0
 10  2  1  0  0  0  0
 11 16  1  0  0  0  0
 12  6  1  0  0  0  0
 12 16  1  0  0  0  0
 15 59  1  6  0  0  0
 15  9  1  0  0  0  0
 15  7  1  0  0  0  0
 16 71  1  1  0  0  0
 16 10  1  0  0  0  0
 17 18  2  0  0  0  0
 17 28  1  0  0  0  0
 18 19  1  0  0  0  0
 19 21  1  0  0  0  0
 19 22  1  0  0  0  0
 20 19  1  0  0  0  0
 22 25  1  0  0  0  0
 22 23  1  0  0  0  0
 24 22  1  0  0  0  0
 25 27  1  0  0  0  0
 25 26  1  0  0  0  0
 28 29  1  0  0  0  0
 28 25  1  0  0  0  0
 30 28  1  0  0  0  0
 31 32  2  0  0  0  0
 31  3  1  0  0  0  0
 32  4  1  0  0  0  0
 33 35  1  0  0  0  0
 33 32  1  0  0  0  0
 34 33  1  0  0  0  0
 36 39  1  0  0  0  0
 36 33  1  0  0  0  0
 37 36  1  0  0  0  0
 38 36  1  0  0  0  0
 39 42  1  0  0  0  0
 39 41  1  0  0  0  0
 40 39  1  0  0  0  0
 42 44  1  0  0  0  0
 42 31  1  0  0  0  0
 43 42  1  0  0  0  0
 45  5  1  0  0  0  0
 46  6  1  0  0  0  0
 46 45  2  0  0  0  0
 47 50  1  0  0  0  0
 47 46  1  0  0  0  0
 47 48  1  0  0  0  0
 49 47  1  0  0  0  0
 50 52  1  0  0  0  0
 51 50  1  0  0  0  0
 53 54  1  0  0  0  0
 53 50  1  0  0  0  0
 53 56  1  0  0  0  0
 55 53  1  0  0  0  0
 56 45  1  0  0  0  0
 56 58  1  0  0  0  0
 57 56  1  0  0  0  0
 59 67  1  0  0  0  0
 60 62  1  0  0  0  0
 60 59  2  0  0  0  0
 61 60  1  0  0  0  0
 62 64  2  0  0  0  0
 63 62  1  0  0  0  0
 64 69  1  0  0  0  0
 64 65  1  0  0  0  0
 65 66  1  0  0  0  0
 67 65  2  0  0  0  0
 67 68  1  0  0  0  0
 69 13  2  0  0  0  0
 70 69  1  0  0  0  0
 71 79  1  0  0  0  0
 72 74  1  0  0  0  0
 72 71  2  0  0  0  0
 73 72  1  0  0  0  0
 74 76  2  0  0  0  0
 75 74  1  0  0  0  0
 76 81  1  0  0  0  0
 76 77  1  0  0  0  0
 77 78  1  0  0  0  0
 79 77  2  0  0  0  0
 79 80  1  0  0  0  0
 81 14  2  0  0  0  0
 82 81  1  0  0  0  0
M  END
