7,13,14,16,22,27
q = -2.0, confidence = 0.834

 79 85  0  0  1  0  0  0  0  0999 V2000
   -0.0187    1.3241    4.1075 F   0  0  0  0  0  0  0  0  0  0  0  0
   -0.3613    3.9700   -2.6991 Cl  0  0  0  0  0  0  0  0  0  0  0  0
    0.0264   -0.5541   -4.4110 F   0  0  0  0  0  0  0  0  0  0  0  0
    1.3954    0.8401    2.3211 O   0  0  0  0  0  0  0  0  0  0  0  0
   -0.6383    2.1587    2.0209 O   0  0  0  0  0  0  0  0  0  0  0  0
   -2.0694   -1.1925    0.9130 C   0  0  1  0  0  3  0  0  0  0  0  0
    1.4891    0.3670    1.0671 N   0  0  0  0  0  2  0  0  0  0  0  0
    1.0810   -1.0556   -2.3964 O   0  0  0  0  0  0  0  0  0  0  0  0
   -0.7885   -0.2218    2.5443 O   0  0  0  0  0  0  0  0  0  0  0  0
   -1.3125   -0.5998   -2.5067 O   0  0  0  0  0  0  0  0  0  0  0  0
    0.2840    1.2018   -2.9017 O   0  0  0  0  0  0  0  0  0  0  0  0
    2.4681   -0.9132   -0.5799 C   0  0  1  0  0  3  0  0  0  0  0  0
   -1.3550   -0.5110   -1.1683 N   0  0  0  0  0  2  0  0  0  0  0  0
   -0.9782   -0.4970    1.2433 N   0  0  0  0  0  2  0  0  0  0  0  0
    3.6538   -0.6650    1.7064 C   0  0  0  0  0  0  0  0  0  0  0  0
    1.2583   -0.7172   -1.1096 N   0  0  0  0  0  2  0  0  0  0  0  0
   -3.0475   -1.7021    1.8946 C   0  0  0  0  0  0  0  0  0  0  0  0
   -3.1510   -2.2244   -1.1987 C   0  0  0  0  0  0  0  0  0  0  0  0
   -0.6092    4.4845    0.6706 C   0  0  2  0  0  0  0  0  0  0  0  0
   -0.0099    4.3955    1.6041 H   0  0  0  0  0  0  0  0  0  0  0  0
    3.5983   -1.5172   -1.3131 C   0  0  0  0  0  0  0  0  0  0  0  0
    0.1383    1.5911   -1.6323 N   0  0  0  0  0  2  0  0  0  0  0  0
   -2.2231   -1.2951   -0.5239 C   0  0  1  0  0  3  0  0  0  0  0  0
   -0.4718    3.1406   -0.0208 C   0  0  2  0  0  3  0  0  0  0  0  0
    4.1966    0.3334    2.5468 C   0  0  0  0  0  0  0  0  0  0  0  0
    3.7904    1.3526    2.5106 H   0  0  0  0  0  0  0  0  0  0  0  0
   -0.5002    2.0177    0.6894 N   0  0  0  0  0  2  0  0  0  0  0  0
    5.2482    0.0267    3.4194 C   0  0  0  0  0  0  0  0  0  0  0  0
    5.6653    0.8152    4.0639 H   0  0  0  0  0  0  0  0  0  0  0  0
    3.4251   -2.6640   -2.1210 C   0  0  0  0  0  0  0  0  0  0  0  0
    2.4272   -3.1099   -2.2235 H   0  0  0  0  0  0  0  0  0  0  0  0
    2.5603   -0.3681    0.7600 C   0  0  2  0  0  3  0  0  0  0  0  0
   -2.6343   -2.3264    3.0936 C   0  0  0  0  0  0  0  0  0  0  0  0
   -1.5632   -2.4226    3.3140 H   0  0  0  0  0  0  0  0  0  0  0  0
    4.8874   -0.9463   -1.2023 C   0  0  0  0  0  0  0  0  0  0  0  0
    5.0324   -0.0480   -0.5854 H   0  0  0  0  0  0  0  0  0  0  0  0
    0.0224   -0.2618   -3.0915 B   0  0  2  0  0  0  0  0  0  0  0  0
   -4.4313   -1.5749    1.6314 C   0  0  0  0  0  0  0  0  0  0  0  0
   -4.7650   -1.0833    0.7064 H   0  0  0  0  0  0  0  0  0  0  0  0
   -3.5843   -2.8214    3.9958 C   0  0  0  0  0  0  0  0  0  0  0  0
   -3.2485   -3.3100    4.9228 H   0  0  0  0  0  0  0  0  0  0  0  0
   -0.0123    1.0292    2.7875 B   0  0  2  0  0  0  0  0  0  0  0  0
   -4.9561   -2.6916    3.7253 C   0  0  0  0  0  0  0  0  0  0  0  0
   -5.6992   -3.0780    4.4393 H   0  0  0  0  0  0  0  0  0  0  0  0
   -0.1869    2.8581   -1.4011 C   0  0  2  0  0  3  0  0  0  0  0  0
   -3.8768   -1.8398   -2.3492 C   0  0  0  0  0  0  0  0  0  0  0  0
   -3.7400   -0.8334   -2.7656 H   0  0  0  0  0  0  0  0  0  0  0  0
    5.7656   -1.2773    3.4778 C   0  0  0  0  0  0  0  0  0  0  0  0
    6.5890   -1.5148    4.1682 H   0  0  0  0  0  0  0  0  0  0  0  0
    5.9749   -1.5107   -1.8794 C   0  0  0  0  0  0  0  0  0  0  0  0
    6.9699   -1.0497   -1.7896 H   0  0  0  0  0  0  0  0  0  0  0  0
    5.7959   -2.6571   -2.6701 C   0  0  0  0  0  0  0  0  0  0  0  0
    6.6520   -3.1021   -3.1996 H   0  0  0  0  0  0  0  0  0  0  0  0
   -4.7660   -2.7359   -2.9556 C   0  0  0  0  0  0  0  0  0  0  0  0
   -5.3282   -2.4214   -3.8477 H   0  0  0  0  0  0  0  0  0  0  0  0
    4.1810   -1.9758    1.7725 C   0  0  0  0  0  0  0  0  0  0  0  0
    3.7615   -2.7627    1.1295 H   0  0  0  0  0  0  0  0  0  0  0  0
   -5.3759   -2.0624    2.5423 C   0  0  0  0  0  0  0  0  0  0  0  0
   -6.4488   -1.9492    2.3261 H   0  0  0  0  0  0  0  0  0  0  0  0
   -3.3287   -3.5293   -0.6828 C   0  0  0  0  0  0  0  0  0  0  0  0
   -2.7628   -3.8435    0.2057 H   0  0  0  0  0  0  0  0  0  0  0  0
   -4.9368   -4.0289   -2.4354 C   0  0  0  0  0  0  0  0  0  0  0  0
   -5.6331   -4.7313   -2.9180 H   0  0  0  0  0  0  0  0  0  0  0  0
    5.2250   -2.2782    2.6547 C   0  0  0  0  0  0  0  0  0  0  0  0
    5.6191   -3.3046    2.6993 H   0  0  0  0  0  0  0  0  0  0  0  0
   -2.0747    4.8521    0.9993 C   0  0  0  0  0  0  0  0  0  0  0  0
   -2.7086    3.9633    1.1764 H   0  0  0  0  0  0  0  0  0  0  0  0
   -2.0961    5.4733    1.9177 H   0  0  0  0  0  0  0  0  0  0  0  0
    4.5193   -3.2299   -2.7872 C   0  0  0  0  0  0  0  0  0  0  0  0
    4.3713   -4.1258   -3.4089 H   0  0  0  0  0  0  0  0  0  0  0  0
   -0.0980    5.5414   -0.1245 O   0  0  0  0  0  0  0  0  0  0  0  0
   -4.2114   -4.4236   -1.2998 C   0  0  0  0  0  0  0  0  0  0  0  0
   -4.3325   -5.4377   -0.8903 H   0  0  0  0  0  0  0  0  0  0  0  0
   -2.4615    5.6801   -0.2317 C   0  0  0  0  0  0  0  0  0  0  0  0
   -2.7170    5.0144   -1.0819 H   0  0  0  0  0  0  0  0  0  0  0  0
   -3.3189    6.3582   -0.0552 H   0  0  0  0  0  0  0  0  0  0  0  0
   -1.1562    6.4251   -0.5205 C   0  0  0  0  0  0  0  0  0  0  0  0
   -1.0887    7.3703    0.0679 H   0  0  0  0  0  0  0  0  0  0  0  0
   -1.0222    6.6748   -1.5937 H   0  0  0  0  0  0  0  0  0  0  0  0
  4 42  1  0  0  0  0
  5 42  1  0  0  0  0
  6 14  1  0  0  0  0
  6 17  1  6  0  0  0
  7  4  1  0  0  0  0
  8 16  1  0  0  0  0
  9 42  1  0  0  0  0
 10 13  1  0  0  0  0
 11 22  1  0  0  0  0
 12 21  1  6  0  0  0
 12 32  1  0  0  0  0
 13 23  1  0  0  0  0
 14  9  1  0  0  0  0
 15 56  2  0  0  0  0
 15 25  1  0  0  0  0
 16 12  1  0  0  0  0
 17 33  1  0  0  0  0
 18 60  1  0  0  0  0
 19 66  1  0  0  0  0
 19 20  1  1  0  0  0
 21 35  1  0  0  0  0
 22 45  1  0  0  0  0
 23 18  1  6  0  0  0
 23  6  1  0  0  0  0
 24 19  1  0  0  0  0
 24 27  1  1  0  0  0
 25 28  2  0  0  0  0
 26 25  1  0  0  0  0
 27  5  1  0  0  0  0
 28 48  1  0  0  0  0
 28 29  1  0  0  0  0
 30 21  2  0  0  0  0
 31 30  1  0  0  0  0
 32  7  1  0  0  0  0
 32 15  1  1  0  0  0
 33 34  1  0  0  0  0
 33 40  2  0  0  0  0
 35 36  1  0  0  0  0
 37  3  1  6  0  0  0
 37 11  1  0  0  0  0
 37 10  1  0  0  0  0
 37  8  1  0  0  0  0
 38 17  2  0  0  0  0
 38 58  1  0  0  0  0
 39 38  1  0  0  0  0
 40 41  1  0  0  0  0
 42  1  1  1  0  0  0
 43 40  1  0  0  0  0
 43 44  1  0  0  0  0
 45  2  1  6  0  0  0
 45 24  1  0  0  0  0
 46 18  2  0  0  0  0
 47 46  1  0  0  0  0
 48 49  1  0  0  0  0
 50 51  1  0  0  0  0
 50 35  2  0  0  0  0
 52 50  1  0  0  0  0
 53 52  1  0  0  0  0
 54 62  2  0  0  0  0
 54 46  1  0  0  0  0
 55 54  1  0  0  0  0
 56 64  1  0  0  0  0
 57 56  1  0  0  0  0
 58 43  2  0  0  0  0
 59 58  1  0  0  0  0
 60 61  1  0  0  0  0
 62 72  1  0  0  0  0
 63 62  1  0  0  0  0
 64 65  1  0  0  0  0
 64 48  2  0  0  0  0
 66 67  1  0  0  0  0
 66 68  1  0  0  0  0
 69 52  2  0  0  0  0
 69 30  1  0  0  0  0
 70 69  1  0  0  0  0
 71 19  1  0  0  0  0
 72 73  1  0  0  0  0
 72 60  2  0  0  0  0
 74 76  1  0  0  0  0
 74 66  1  0  0  0  0
 75 74  1  0  0  0  0
 77 74  1  0  0  0  0
 77 71  1  0  0  0  0
 77 78  1  0  0  0  0
 79 77  1  0  0  0  0
M  END
