10,11,12,13,14,15
q = -2.0, confidence = 0.816

 82 87  0  0  1  0  0  0  0  0999 V2000
    7.1334   -0.8460   -0.9050 Si  0  0  0  0  0  0  0  0  0  0  0  0
    2.1655   -0.5140    3.2771 F   0  0  0  0  0  0  0  0  0  0  0  0
   -2.1710    0.4598   -4.2420 F   0  0  0  0  0  0  0  0  0  0  0  0
    2.4598   -0.0491    1.0113 O   0  0  0  0  0  0  0  0  0  0  0  0
   -0.1760   -0.3492   -3.3479 O   0  0  0  0  0  0  0  0  0  0  0  0
    0.7676   -1.6252    1.7814 O   0  0  0  0  0  0  0  0  0  0  0  0
   -2.2938   -0.5465   -2.1448 O   0  0  0  0  0  0  0  0  0  0  0  0
    0.5081    0.7537    2.2428 O   0  0  0  0  0  0  0  0  0  0  0  0
   -1.2674    1.6414   -2.4493 O   0  0  0  0  0  0  0  0  0  0  0  0
    1.8844   -0.0476   -0.1922 N   0  0  0  0  0  2  0  0  0  0  0  0
    0.6103   -0.3703   -2.2638 N   0  0  0  0  0  2  0  0  0  0  0  0
   -0.0649   -1.5142    0.7360 N   0  0  0  0  0  2  0  0  0  0  0  0
   -1.6397   -0.8802   -1.0216 N   0  0  0  0  0  2  0  0  0  0  0  0
   -0.0979    1.0778    1.0908 N   0  0  0  0  0  2  0  0  0  0  0  0
   -0.7670    1.5784   -1.2061 N   0  0  0  0  0  2  0  0  0  0  0  0
    2.6755   -0.3063   -1.2499 C   0  0  0  0  0  0  0  0  0  0  0  0
    1.9141   -0.4191   -2.4582 C   0  0  0  0  0  0  0  0  0  0  0  0
    2.3386   -0.5006   -3.4683 H   0  0  0  0  0  0  0  0  0  0  0  0
   -1.1258   -2.3237    0.7003 C   0  0  2  0  0  3  0  0  0  0  0  0
   -1.9991   -2.0130   -0.4129 C   0  0  2  0  0  3  0  0  0  0  0  0
   -0.5483    2.3280    0.9623 C   0  0  2  0  0  3  0  0  0  0  0  0
   -1.0486    2.5831   -0.3730 C   0  0  2  0  0  3  0  0  0  0  0  0
    4.0755   -0.4795   -1.1558 C   0  0  0  0  0  0  0  0  0  0  0  0
    5.3001   -0.6301   -1.0868 C   0  0  0  0  0  0  0  0  0  0  0  0
    7.4440   -1.7665    0.7130 C   0  0  0  0  0  0  0  0  0  0  0  0
    8.5329   -1.8999    0.8805 H   0  0  0  0  0  0  0  0  0  0  0  0
    6.9699   -2.7683    0.6967 H   0  0  0  0  0  0  0  0  0  0  0  0
    7.0258   -1.2042    1.5719 H   0  0  0  0  0  0  0  0  0  0  0  0
    7.7597   -1.8400   -2.3842 C   0  0  0  0  0  0  0  0  0  0  0  0
    7.5494   -1.3131   -3.3367 H   0  0  0  0  0  0  0  0  0  0  0  0
    7.2763   -2.8367   -2.4279 H   0  0  0  0  0  0  0  0  0  0  0  0
    8.8565   -1.9920   -2.3101 H   0  0  0  0  0  0  0  0  0  0  0  0
    7.9232    0.8695   -0.8681 C   0  0  0  0  0  0  0  0  0  0  0  0
    7.7156    1.4246   -1.8049 H   0  0  0  0  0  0  0  0  0  0  0  0
    9.0239    0.7850   -0.7529 H   0  0  0  0  0  0  0  0  0  0  0  0
    7.5313    1.4662   -0.0200 H   0  0  0  0  0  0  0  0  0  0  0  0
   -1.4163   -3.3437    1.7276 C   0  0  0  0  0  0  0  0  0  0  0  0
   -2.7379   -3.4909    2.2093 C   0  0  0  0  0  0  0  0  0  0  0  0
   -3.5318   -2.8339    1.8259 H   0  0  0  0  0  0  0  0  0  0  0  0
   -3.0391   -4.4593    3.1742 C   0  0  0  0  0  0  0  0  0  0  0  0
   -4.0710   -4.5560    3.5440 H   0  0  0  0  0  0  0  0  0  0  0  0
   -2.0298   -5.3017    3.6675 C   0  0  0  0  0  0  0  0  0  0  0  0
   -2.2679   -6.0656    4.4232 H   0  0  0  0  0  0  0  0  0  0  0  0
   -0.7145   -5.1621    3.1961 C   0  0  0  0  0  0  0  0  0  0  0  0
    0.0821   -5.8164    3.5811 H   0  0  0  0  0  0  0  0  0  0  0  0
   -0.4044   -4.1879    2.2388 C   0  0  0  0  0  0  0  0  0  0  0  0
    0.6272   -4.0770    1.8801 H   0  0  0  0  0  0  0  0  0  0  0  0
   -3.0902   -2.8889   -0.8852 C   0  0  0  0  0  0  0  0  0  0  0  0
   -2.8988   -4.2899   -0.9112 C   0  0  0  0  0  0  0  0  0  0  0  0
   -1.9337   -4.7120   -0.5964 H   0  0  0  0  0  0  0  0  0  0  0  0
   -3.9245   -5.1394   -1.3425 C   0  0  0  0  0  0  0  0  0  0  0  0
   -3.7570   -6.2267   -1.3643 H   0  0  0  0  0  0  0  0  0  0  0  0
   -5.1591   -4.6065   -1.7465 C   0  0  0  0  0  0  0  0  0  0  0  0
   -5.9661   -5.2752   -2.0825 H   0  0  0  0  0  0  0  0  0  0  0  0
   -5.3577   -3.2165   -1.7259 C   0  0  0  0  0  0  0  0  0  0  0  0
   -6.3214   -2.7920   -2.0453 H   0  0  0  0  0  0  0  0  0  0  0  0
   -4.3320   -2.3605   -1.3056 C   0  0  0  0  0  0  0  0  0  0  0  0
   -4.4891   -1.2740   -1.3003 H   0  0  0  0  0  0  0  0  0  0  0  0
   -0.4483    3.3494    2.0240 C   0  0  0  0  0  0  0  0  0  0  0  0
   -0.7608    3.0485    3.3692 C   0  0  0  0  0  0  0  0  0  0  0  0
   -1.0684    2.0300    3.6400 H   0  0  0  0  0  0  0  0  0  0  0  0
   -0.6793    4.0427    4.3522 C   0  0  0  0  0  0  0  0  0  0  0  0
   -0.9306    3.7961    5.3948 H   0  0  0  0  0  0  0  0  0  0  0  0
   -0.2741    5.3441    4.0143 C   0  0  0  0  0  0  0  0  0  0  0  0
   -0.2066    6.1211    4.7909 H   0  0  0  0  0  0  0  0  0  0  0  0
    0.0501    5.6487    2.6825 C   0  0  0  0  0  0  0  0  0  0  0  0
    0.3772    6.6635    2.4104 H   0  0  0  0  0  0  0  0  0  0  0  0
   -0.0397    4.6622    1.6933 C   0  0  0  0  0  0  0  0  0  0  0  0
    0.2154    4.9053    0.6519 H   0  0  0  0  0  0  0  0  0  0  0  0
   -1.8546    3.7619   -0.7487 C   0  0  0  0  0  0  0  0  0  0  0  0
   -1.6631    4.4276   -1.9810 C   0  0  0  0  0  0  0  0  0  0  0  0
   -0.9095    4.0557   -2.6871 H   0  0  0  0  0  0  0  0  0  0  0  0
   -2.4286    5.5562   -2.3003 C   0  0  0  0  0  0  0  0  0  0  0  0
   -2.2651    6.0680   -3.2607 H   0  0  0  0  0  0  0  0  0  0  0  0
   -3.4025    6.0302   -1.4067 C   0  0  0  0  0  0  0  0  0  0  0  0
   -4.0050    6.9145   -1.6640 H   0  0  0  0  0  0  0  0  0  0  0  0
   -3.6076    5.3684   -0.1854 C   0  0  0  0  0  0  0  0  0  0  0  0
   -4.3741    5.7280    0.5174 H   0  0  0  0  0  0  0  0  0  0  0  0
   -2.8383    4.2464    0.1447 C   0  0  0  0  0  0  0  0  0  0  0  0
   -3.0026    3.7319    1.1023 H   0  0  0  0  0  0  0  0  0  0  0  0
    1.4956   -0.3602    2.1134 B   0  0  1  0  0  0  0  0  0  0  0  0
   -1.4966    0.3027   -3.0809 B   0  0  2  0  0  0  0  0  0  0  0  0
  1 33  1  0  0  0  0
  1 25  1  0  0  0  0
  4 81  1  0  0  0  0
  5 82  1  0  0  0  0
  5 11  1  0  0  0  0
  6 81  1  0  0  0  0
  7 13  1  0  0  0  0
  9 15  1  0  0  0  0
 10  4  1  0  0  0  0
 12  6  1  0  0  0  0
 13 20  1  0  0  0  0
 14  8  1  0  0  0  0
 15 22  1  0  0  0  0
 16 23  1  0  0  0  0
 16 10  1  0  0  0  0
 17 11  1  0  0  0  0
 17 16  2  0  0  0  0
 18 17  1  0  0  0  0
 19 12  1  0  0  0  0
 19 37  1  1  0  0  0
 20 48  1  6  0  0  0
 20 19  1  0  0  0  0
 21 14  1  0  0  0  0
 21 59  1  6  0  0  0
 22 70  1  1  0  0  0
 22 21  1  0  0  0  0
 23 24  3  0  0  0  0
 24  1  1  0  0  0  0
 25 26  1  0  0  0  0
 25 28  1  0  0  0  0
 27 25  1  0  0  0  0
 29 32  1  0  0  0  0
 29  1  1  0  0  0  0
 30 29  1  0  0  0  0
 31 29  1  0  0  0  0
 33 35  1  0  0  0  0
 33 36  1  0  0  0  0
 34 33  1  0  0  0  0
 37 38  2  0  0  0  0
 37 46  1  0  0  0  0
 38 40  1  0  0  0  0
 39 38  1  0  0  0  0
 40 41  1  0  0  0  0
 40 42  2  0  0  0  0
 42 43  1  0  0  0  0
 44 45  1  0  0  0  0
 44 42  1  0  0  0  0
 46 44  2  0  0  0  0
 47 46  1  0  0  0  0
 49 48  1  0  0  0  0
 49 50  1  0  0  0  0
 51 49  2  0  0  0  0
 52 51  1  0  0  0  0
 53 55  2  0  0  0  0
 53 51  1  0  0  0  0
 54 53  1  0  0  0  0
 55 57  1  0  0  0  0
 56 55  1  0  0  0  0
 57 58  1  0  0  0  0
 57 48  2  0  0  0  0
 59 60  1  0  0  0  0
 60 61  1  0  0  0  0
 60 62  2  0  0  0  0
 62 63  1  0  0  0  0
 64 62  1  0  0  0  0
 64 65  1  0  0  0  0
 66 64  2  0  0  0  0
 67 66  1  0  0  0  0
 68 59  2  0  0  0  0
 68 66  1  0  0  0  0
 69 68  1  0  0  0  0
 70 79  1  0  0  0  0
 71 70  2  0  0  0  0
 72 71  1  0  0  0  0
 73 71  1  0  0  0  0
 73 75  2  0  0  0  0
 74 73  1  0  0  0  0
 75 77  1  0  0  0  0
 76 75  1  0  0  0  0
 77 79  2  0  0  0  0
 77 78  1  0  0  0  0
 79 80  1  0  0  0  0
 81  8  1  0  0  0  0
 81  2  1  1  0  0  0
 82  3  1  6  0  0  0
 82  9  1  0  0  0  0
 82  7  1  0  0  0  0
M  END
