5,6,30,31,55,56
q = -1.0

 76 78  0  0  1  0  0  0  0  0999 V2000
    2.3125    3.7785    0.7367 O   0  0  0  0  0  0  0  0  0  0  0  0
   -3.2961    3.3690   -3.5359 O   0  0  0  0  0  0  0  0  0  0  0  0
   -3.2172    1.1085   -3.3217 O   0  0  0  0  0  0  0  0  0  0  0  0
    4.7470    0.0032    0.0021 N   0  0  0  0  0  0  0  0  0  0  0  0
    2.1454    1.4506    0.7542 N   0  0  0  0  0  2  0  0  0  0  0  0
    0.0957    1.4475   -0.8051 N   0  0  0  0  0  2  0  0  0  0  0  0
    4.6373    1.1252    0.8980 C   0  0  0  0  0  0  0  0  0  0  0  0
    4.8507    2.0513    0.3252 H   0  0  0  0  0  0  0  0  0  0  0  0
    5.4170    1.0586    1.6952 H   0  0  0  0  0  0  0  0  0  0  0  0
    3.2819    1.3150    1.6330 C   0  0  0  0  0  0  0  0  0  0  0  0
    3.1227    0.4627    2.3221 H   0  0  0  0  0  0  0  0  0  0  0  0
    3.3668    2.2411    2.2420 H   0  0  0  0  0  0  0  0  0  0  0  0
    1.7751    2.7084    0.4021 C   0  0  0  0  0  0  0  0  0  0  0  0
    0.5816    2.6788   -0.5019 C   0  0  1  0  0  3  0  0  0  0  0  0
    0.0007    3.8486   -1.0121 C   0  0  0  0  0  0  0  0  0  0  0  0
    0.4578    4.8039   -0.7164 H   0  0  0  0  0  0  0  0  0  0  0  0
   -1.1080    3.7454   -1.8540 C   0  0  0  0  0  0  0  0  0  0  0  0
   -1.5997    4.6344   -2.2726 H   0  0  0  0  0  0  0  0  0  0  0  0
   -1.6005    2.4619   -2.1720 C   0  0  0  0  0  0  0  0  0  0  0  0
   -0.9603    1.3357   -1.6263 C   0  0  0  0  0  0  0  0  0  0  0  0
   -1.3338    0.3315   -1.8704 H   0  0  0  0  0  0  0  0  0  0  0  0
   -2.7755    2.2143   -3.0576 C   0  0  0  0  0  0  0  0  0  0  0  0
   -4.4311    3.2177   -4.3976 C   0  0  0  0  0  0  0  0  0  0  0  0
   -4.7157    4.2375   -4.7107 H   0  0  0  0  0  0  0  0  0  0  0  0
   -5.2686    2.7286   -3.8606 H   0  0  0  0  0  0  0  0  0  0  0  0
   -4.1745    2.5968   -5.2792 H   0  0  0  0  0  0  0  0  0  0  0  0
    2.3155   -2.5234    2.9038 O   0  0  0  0  0  0  0  0  0  0  0  0
   -3.2978    1.3755    4.6842 O   0  0  0  0  0  0  0  0  0  0  0  0
   -3.2208    2.3186    2.6187 O   0  0  0  0  0  0  0  0  0  0  0  0
    2.1472   -1.3751    0.8789 N   0  0  0  0  0  2  0  0  0  0  0  0
    0.0955   -0.0261    1.6552 N   0  0  0  0  0  2  0  0  0  0  0  0
    4.6389   -1.3339    0.5257 C   0  0  0  0  0  0  0  0  0  0  0  0
    4.8522   -1.3007    1.6142 H   0  0  0  0  0  0  0  0  0  0  0  0
    5.4195   -1.9900    0.0695 H   0  0  0  0  0  0  0  0  0  0  0  0
    3.2845   -2.0670    0.3223 C   0  0  0  0  0  0  0  0  0  0  0  0
    3.1258   -2.2379   -0.7603 H   0  0  0  0  0  0  0  0  0  0  0  0
    3.3706   -3.0573    0.8199 H   0  0  0  0  0  0  0  0  0  0  0  0
    1.7773   -1.6993    2.1443 C   0  0  0  0  0  0  0  0  0  0  0  0
    0.5826   -0.9033    2.5704 C   0  0  1  0  0  3  0  0  0  0  0  0
    0.0019   -1.0465    3.8387 C   0  0  0  0  0  0  0  0  0  0  0  0
    0.4601   -1.7792    4.5185 H   0  0  0  0  0  0  0  0  0  0  0  0
   -1.1081   -0.2674    4.1697 C   0  0  0  0  0  0  0  0  0  0  0  0
   -1.5996   -0.3495    5.1490 H   0  0  0  0  0  0  0  0  0  0  0  0
   -1.6020    0.6485    3.2167 C   0  0  0  0  0  0  0  0  0  0  0  0
   -0.9618    0.7394    1.9686 C   0  0  0  0  0  0  0  0  0  0  0  0
   -1.3364    1.4520    1.2206 H   0  0  0  0  0  0  0  0  0  0  0  0
   -2.7783    1.5376    3.4445 C   0  0  0  0  0  0  0  0  0  0  0  0
   -4.4331    2.1971    4.9841 C   0  0  0  0  0  0  0  0  0  0  0  0
   -4.7166    1.9594    6.0243 H   0  0  0  0  0  0  0  0  0  0  0  0
   -5.2710    1.9751    4.2930 H   0  0  0  0  0  0  0  0  0  0  0  0
   -4.1773    3.2711    4.8856 H   0  0  0  0  0  0  0  0  0  0  0  0
    2.3184   -1.2491   -3.6376 O   0  0  0  0  0  0  0  0  0  0  0  0
   -3.2874   -4.7526   -1.1512 O   0  0  0  0  0  0  0  0  0  0  0  0
   -3.2134   -3.4350    0.6982 O   0  0  0  0  0  0  0  0  0  0  0  0
    2.1476   -0.0700   -1.6307 N   0  0  0  0  0  2  0  0  0  0  0  0
    0.0981   -1.4206   -0.8509 N   0  0  0  0  0  2  0  0  0  0  0  0
    4.6389    0.2181   -1.4178 C   0  0  0  0  0  0  0  0  0  0  0  0
    4.8531   -0.7410   -1.9331 H   0  0  0  0  0  0  0  0  0  0  0  0
    5.4189    0.9420   -1.7577 H   0  0  0  0  0  0  0  0  0  0  0  0
    3.2841    0.7595   -1.9511 C   0  0  0  0  0  0  0  0  0  0  0  0
    3.1244    1.7823   -1.5575 H   0  0  0  0  0  0  0  0  0  0  0  0
    3.3703    0.8241   -3.0575 H   0  0  0  0  0  0  0  0  0  0  0  0
    1.7793   -1.0041   -2.5444 C   0  0  0  0  0  0  0  0  0  0  0  0
    0.5861   -1.7735   -2.0682 C   0  0  1  0  0  3  0  0  0  0  0  0
    0.0075   -2.8014   -2.8264 C   0  0  0  0  0  0  0  0  0  0  0  0
    0.4661   -3.0226   -3.8009 H   0  0  0  0  0  0  0  0  0  0  0  0
   -1.1008   -3.4804   -2.3170 C   0  0  0  0  0  0  0  0  0  0  0  0
   -1.5904   -4.2886   -2.8777 H   0  0  0  0  0  0  0  0  0  0  0  0
   -1.5952   -3.1143   -1.0471 C   0  0  0  0  0  0  0  0  0  0  0  0
   -0.9575   -2.0773   -0.3445 C   0  0  0  0  0  0  0  0  0  0  0  0
   -1.3326   -1.7869    0.6468 H   0  0  0  0  0  0  0  0  0  0  0  0
   -2.7695   -3.7595   -0.3906 C   0  0  0  0  0  0  0  0  0  0  0  0
   -4.4215   -5.4252   -0.5899 C   0  0  0  0  0  0  0  0  0  0  0  0
   -4.7037   -6.2074   -1.3162 H   0  0  0  0  0  0  0  0  0  0  0  0
   -5.2607   -4.7172   -0.4363 H   0  0  0  0  0  0  0  0  0  0  0  0
   -4.1649   -5.8769    0.3892 H   0  0  0  0  0  0  0  0  0  0  0  0
  2 22  1  0  0  0  0
  3 22  2  0  0  0  0
  4 32  1  0  0  0  0
  4  7  1  0  0  0  0
  5 10  1  0  0  0  0
  6 14  1  0  0  0  0
  7 10  1  0  0  0  0
  7  9  1  0  0  0  0
  8  7  1  0  0  0  0
 10 12  1  0  0  0  0
 10 11  1  0  0  0  0
 13  1  2  0  0  0  0
 13  5  1  0  0  0  0
 14 13  1  6  0  0  0
 15 16  1  0  0  0  0
 15 14  1  0  0  0  0
 17 15  2  0  0  0  0
 18 17  1  0  0  0  0
 19 17  1  0  0  0  0
 19 20  2  0  0  0  0
 20  6  1  0  0  0  0
 21 20  1  0  0  0  0
 22 19  1  0  0  0  0
 23 25  1  0  0  0  0
 23  2  1  0  0  0  0
 24 23  1  0  0  0  0
 26 23  1  0  0  0  0
 28 48  1  0  0  0  0
 29 47  2  0  0  0  0
 30 38  1  0  0  0  0
 31 45  1  0  0  0  0
 31 39  1  0  0  0  0
 32 33  1  0  0  0  0
 34 32  1  0  0  0  0
 35 32  1  0  0  0  0
 35 37  1  0  0  0  0
 35 30  1  0  0  0  0
 36 35  1  0  0  0  0
 38 27  2  0  0  0  0
 39 38  1  1  0  0  0
 39 40  1  0  0  0  0
 40 42  2  0  0  0  0
 40 41  1  0  0  0  0
 42 43  1  0  0  0  0
 44 47  1  0  0  0  0
 44 42  1  0  0  0  0
 45 44  2  0  0  0  0
 46 45  1  0  0  0  0
 47 28  1  0  0  0  0
 48 49  1  0  0  0  0
 50 48  1  0  0  0  0
 51 48  1  0  0  0  0
 52 63  2  0  0  0  0
 53 73  1  0  0  0  0
 53 72  1  0  0  0  0
 56 70  1  0  0  0  0
 57  4  1  0  0  0  0
 58 57  1  0  0  0  0
 59 57  1  0  0  0  0
 60 55  1  0  0  0  0
 60 61  1  0  0  0  0
 60 57  1  0  0  0  0
 62 60  1  0  0  0  0
 63 55  1  0  0  0  0
 64 63  1  1  0  0  0
 64 56  1  0  0  0  0
 65 67  2  0  0  0  0
 65 64  1  0  0  0  0
 66 65  1  0  0  0  0
 67 69  1  0  0  0  0
 68 67  1  0  0  0  0
 69 72  1  0  0  0  0
 69 70  2  0  0  0  0
 70 71  1  0  0  0  0
 72 54  2  0  0  0  0
 73 75  1  0  0  0  0
 73 76  1  0  0  0  0
 74 73  1  0  0  0  0
M  END
