1,4,8,22
 OpenBabel05122313063D

 24 25  0  0  0  0  0  0  0  0999 V2000
    1.3765    1.2532    0.0007 C   0  0  0  0  0  3  0  0  0  0  0  0
    0.7870    1.6622    1.2561 C   0  0  0  0  0  3  0  0  0  0  0  0
    1.2299    1.3318    2.2059 H   0  0  0  0  0  0  0  0  0  0  0  0
   -0.4961    2.2892    1.2333 C   0  0  0  0  0  3  0  0  0  0  0  0
   -1.0370    2.4231    2.1827 H   0  0  0  0  0  0  0  0  0  0  0  0
   -1.1523    2.6161    0.0003 C   0  0  0  0  0  3  0  0  0  0  0  0
   -2.1647    3.0425    0.0001 H   0  0  0  0  0  0  0  0  0  0  0  0
   -0.4952    2.2903   -1.2325 C   0  0  0  0  0  3  0  0  0  0  0  0
   -1.0354    2.4250   -2.1822 H   0  0  0  0  0  0  0  0  0  0  0  0
    0.7878    1.6632   -1.2549 C   0  0  0  0  0  3  0  0  0  0  0  0
    1.2314    1.3336   -2.2047 H   0  0  0  0  0  0  0  0  0  0  0  0
    2.4160    0.1735    0.0005 C   0  0  0  0  0  0  0  0  0  0  0  0
    3.8007    0.4075    0.0006 C   0  0  0  0  0  0  0  0  0  0  0  0
    4.1725    1.4429    0.0011 H   0  0  0  0  0  0  0  0  0  0  0  0
    4.6973   -0.6724   -0.0001 C   0  0  0  0  0  0  0  0  0  0  0  0
    5.7810   -0.4835   -0.0001 H   0  0  0  0  0  0  0  0  0  0  0  0
    4.2147   -1.9905   -0.0010 C   0  0  0  0  0  0  0  0  0  0  0  0
    4.9179   -2.8364   -0.0016 H   0  0  0  0  0  0  0  0  0  0  0  0
    2.8329   -2.2371   -0.0010 C   0  0  0  0  0  0  0  0  0  0  0  0
    2.4482   -3.2684   -0.0016 H   0  0  0  0  0  0  0  0  0  0  0  0
    1.9387   -1.1574   -0.0002 C   0  0  0  0  0  0  0  0  0  0  0  0
    0.4908   -1.3558   -0.0002 N   0  0  0  0  0  0  0  0  0  0  0  0
    0.1653   -1.8778    0.8311 H   0  0  0  0  0  0  0  0  0  0  0  0
    0.1656   -1.8802   -0.8300 H   0  0  0  0  0  0  0  0  0  0  0  0
  1  2  1  0  0  0  0
  2  3  1  0  0  0  0
  4  2  1  0  0  0  0
  4  5  1  0  0  0  0
  6  4  1  0  0  0  0
  7  6  1  0  0  0  0
  8  6  1  0  0  0  0
  9  8  1  0  0  0  0
 10  8  1  0  0  0  0
 10  1  1  0  0  0  0
 11 10  1  0  0  0  0
 12 13  1  0  0  0  0
 12  1  1  0  0  0  0
 13 14  1  0  0  0  0
 15 16  1  0  0  0  0
 15 13  2  0  0  0  0
 17 15  1  0  0  0  0
 18 17  1  0  0  0  0
 19 17  2  0  0  0  0
 19 21  1  0  0  0  0
 20 19  1  0  0  0  0
 21 22  1  0  0  0  0
 21 12  2  0  0  0  0
 22 23  1  0  0  0  0
 24 22  1  0  0  0  0
M  END
