1,17,34,51
q = 0.0, confidence = 0.976

 52 54  0  0  0  0  0  0  0  0999 V2000
   -0.0021   -0.0044    2.1894 N   0  0  0  0  0  0  0  0  0  0  0  0
    0.2819    1.3700    2.6648 C   0  0  0  0  0  0  0  0  0  0  0  0
    1.3722    1.5414    2.5706 H   0  0  0  0  0  0  0  0  0  0  0  0
    0.0452    1.4441    3.7530 H   0  0  0  0  0  0  0  0  0  0  0  0
   -0.4492    2.4930    1.9061 C   0  0  0  0  0  0  0  0  0  0  0  0
   -1.5471    2.3409    1.9472 H   0  0  0  0  0  0  0  0  0  0  0  0
   -0.2509    3.4338    2.4595 H   0  0  0  0  0  0  0  0  0  0  0  0
   -0.0046    2.6505    0.4692 C   0  0  0  0  0  0  0  0  0  0  0  0
    1.2575    3.2020    0.1593 C   0  0  0  0  0  0  0  0  0  0  0  0
    1.9050    3.5616    0.9748 H   0  0  0  0  0  0  0  0  0  0  0  0
    1.6902    3.3184   -1.1709 C   0  0  0  0  0  3  0  0  0  0  0  0
    2.6700    3.7700   -1.3874 H   0  0  0  0  0  0  0  0  0  0  0  0
    0.8760    2.8720   -2.2265 C   0  0  0  0  0  0  0  0  0  0  0  0
    1.2167    2.9687   -3.2678 H   0  0  0  0  0  0  0  0  0  0  0  0
   -0.3887    2.3320   -1.9466 C   0  0  0  0  0  0  0  0  0  0  0  0
   -1.0556    2.0165   -2.7629 H   0  0  0  0  0  0  0  0  0  0  0  0
   -0.8350    2.2244   -0.6061 C   0  0  0  0  0  3  0  0  0  0  0  0
   -1.8756    1.9175   -0.4048 H   0  0  0  0  0  0  0  0  0  0  0  0
   -1.3354   -0.4468    2.6615 C   0  0  0  0  0  0  0  0  0  0  0  0
   -2.0288    0.4122    2.5691 H   0  0  0  0  0  0  0  0  0  0  0  0
   -1.2828   -0.6920    3.7490 H   0  0  0  0  0  0  0  0  0  0  0  0
   -1.9415   -1.6391    1.8985 C   0  0  0  0  0  0  0  0  0  0  0  0
   -1.2622   -2.5149    1.9402 H   0  0  0  0  0  0  0  0  0  0  0  0
   -2.8576   -1.9376    2.4486 H   0  0  0  0  0  0  0  0  0  0  0  0
   -2.2955   -1.3298    0.4611 C   0  0  0  0  0  0  0  0  0  0  0  0
   -3.4022   -0.5109    0.1489 C   0  0  0  0  0  0  0  0  0  0  0  0
   -4.0396   -0.1305    0.9630 H   0  0  0  0  0  0  0  0  0  0  0  0
   -3.7148   -0.1920   -1.1818 C   0  0  0  0  0  0  0  0  0  0  0  0
   -4.5944    0.4320   -1.4002 H   0  0  0  0  0  0  0  0  0  0  0  0
   -2.9182   -0.6731   -2.2356 C   0  0  0  0  0  0  0  0  0  0  0  0
   -3.1686   -0.4245   -3.2774 H   0  0  0  0  0  0  0  0  0  0  0  0
   -1.8199   -1.4999   -1.9535 C   0  0  0  0  0  3  0  0  0  0  0  0
   -1.2110   -1.9190   -2.7685 H   0  0  0  0  0  0  0  0  0  0  0  0
   -1.5082   -1.8350   -0.6125 C   0  0  0  0  0  3  0  0  0  0  0  0
   -0.7235   -2.5837   -0.4095 H   0  0  0  0  0  0  0  0  0  0  0  0
    1.0464   -0.9390    2.6619 C   0  0  0  0  0  0  0  0  0  0  0  0
    0.6498   -1.9687    2.5645 H   0  0  0  0  0  0  0  0  0  0  0  0
    1.2288   -0.7744    3.7506 H   0  0  0  0  0  0  0  0  0  0  0  0
    2.3845   -0.8648    1.9036 C   0  0  0  0  0  0  0  0  0  0  0  0
    2.8021    0.1618    1.9490 H   0  0  0  0  0  0  0  0  0  0  0  0
    3.0997   -1.5094    2.4546 H   0  0  0  0  0  0  0  0  0  0  0  0
    2.2986   -1.3228    0.4648 C   0  0  0  0  0  0  0  0  0  0  0  0
    2.1456   -2.6902    0.1494 C   0  0  0  0  0  0  0  0  0  0  0  0
    2.1337   -3.4341    0.9618 H   0  0  0  0  0  0  0  0  0  0  0  0
    2.0297   -3.1176   -1.1826 C   0  0  0  0  0  3  0  0  0  0  0  0
    1.9312   -4.1911   -1.4035 H   0  0  0  0  0  0  0  0  0  0  0  0
    2.0495   -2.1850   -2.2343 C   0  0  0  0  0  0  0  0  0  0  0  0
    1.9626   -2.5240   -3.2771 H   0  0  0  0  0  0  0  0  0  0  0  0
    2.2140   -0.8208   -1.9489 C   0  0  0  0  0  0  0  0  0  0  0  0
    2.2737   -0.0821   -2.7621 H   0  0  0  0  0  0  0  0  0  0  0  0
    2.3442   -0.3861   -0.6066 C   0  0  0  0  0  3  0  0  0  0  0  0
    2.5984    0.6678   -0.4009 H   0  0  0  0  0  0  0  0  0  0  0  0
  1 19  1  0  0  0  0
  1 36  1  0  0  0  0
  1  2  1  0  0  0  0
  2  4  1  0  0  0  0
  3  2  1  0  0  0  0
  5  6  1  0  0  0  0
  5  7  1  0  0  0  0
  5  2  1  0  0  0  0
  8  5  1  0  0  0  0
  9  8  2  0  0  0  0
  9 10  1  0  0  0  0
 11  9  1  0  0  0  0
 12 11  1  0  0  0  0
 13 15  2  0  0  0  0
 13 11  1  0  0  0  0
 14 13  1  0  0  0  0
 15 17  1  0  0  0  0
 16 15  1  0  0  0  0
 17 18  1  0  0  0  0
 17  8  1  0  0  0  0
 19 21  1  0  0  0  0
 20 19  1  0  0  0  0
 22 23  1  0  0  0  0
 22 24  1  0  0  0  0
 22 19  1  0  0  0  0
 25 22  1  0  0  0  0
 26 25  2  0  0  0  0
 26 27  1  0  0  0  0
 28 26  1  0  0  0  0
 29 28  1  0  0  0  0
 30 32  1  0  0  0  0
 30 28  2  0  0  0  0
 31 30  1  0  0  0  0
 32 34  1  0  0  0  0
 33 32  1  0  0  0  0
 34 35  1  0  0  0  0
 34 25  1  0  0  0  0
 36 38  1  0  0  0  0
 37 36  1  0  0  0  0
 39 40  1  0  0  0  0
 39 41  1  0  0  0  0
 39 36  1  0  0  0  0
 42 39  1  0  0  0  0
 43 42  2  0  0  0  0
 43 44  1  0  0  0  0
 45 43  1  0  0  0  0
 46 45  1  0  0  0  0
 47 49  2  0  0  0  0
 47 45  1  0  0  0  0
 48 47  1  0  0  0  0
 49 51  1  0  0  0  0
 50 49  1  0  0  0  0
 51 52  1  0  0  0  0
 51 42  1  0  0  0  0
M  END
