1,2
q = 0.0, confidence = 1.0

 50 53  0  0  0  0  0  0  0  0999 V2000
   -1.4873   -1.9329   -0.8179 Se  0  0  0  0  0  1  0  0  0  0  0  0
   -0.3150    0.9717    0.6962 P   0  0  0  0  0  0  0  0  0  0  0  0
   -2.8788   -0.5975    0.2100 P   0  0  0  0  0  4  0  0  0  0  0  0
   -1.9133    0.3583    1.4453 C   0  0  0  0  0  0  0  0  0  0  0  0
    0.5284    1.6404    2.1798 C   0  0  0  0  0  0  0  0  0  0  0  0
    1.2160    0.7191    2.9975 C   0  0  0  0  0  0  0  0  0  0  0  0
    1.8770    1.1651    4.1489 C   0  0  0  0  0  0  0  0  0  0  0  0
    1.8668    2.5302    4.4814 C   0  0  0  0  0  0  0  0  0  0  0  0
    1.1943    3.4489    3.6611 C   0  0  0  0  0  0  0  0  0  0  0  0
    0.5229    3.0094    2.5093 C   0  0  0  0  0  0  0  0  0  0  0  0
   -0.7904    2.3832   -0.3664 C   0  0  0  0  0  0  0  0  0  0  0  0
   -1.7885    3.3086    0.0063 C   0  0  0  0  0  0  0  0  0  0  0  0
   -2.1172    4.3676   -0.8509 C   0  0  0  0  0  0  0  0  0  0  0  0
   -1.4506    4.5150   -2.0785 C   0  0  0  0  0  0  0  0  0  0  0  0
   -0.4582    3.5967   -2.4536 C   0  0  0  0  0  0  0  0  0  0  0  0
   -0.1310    2.5295   -1.6048 C   0  0  0  0  0  0  0  0  0  0  0  0
   -3.7004    0.6331   -0.8538 C   0  0  0  0  0  0  0  0  0  0  0  0
   -4.7364    1.4291   -0.3178 C   0  0  0  0  0  0  0  0  0  0  0  0
   -5.3195    2.4262   -1.1105 C   0  0  0  0  0  0  0  0  0  0  0  0
   -4.8676    2.6348   -2.4248 C   0  0  0  0  0  0  0  0  0  0  0  0
   -3.8358    1.8431   -2.9522 C   0  0  0  0  0  0  0  0  0  0  0  0
   -3.2514    0.8358   -2.1706 C   0  0  0  0  0  0  0  0  0  0  0  0
   -4.1734   -1.5336    1.0758 C   0  0  0  0  0  0  0  0  0  0  0  0
   -3.8907   -2.1546    2.3109 C   0  0  0  0  0  0  0  0  0  0  0  0
   -4.8685   -2.9409    2.9335 C   0  0  0  0  0  0  0  0  0  0  0  0
   -6.1204   -3.1242    2.3227 C   0  0  0  0  0  0  0  0  0  0  0  0
   -6.3953   -2.5221    1.0850 C   0  0  0  0  0  0  0  0  0  0  0  0
   -5.4261   -1.7274    0.4562 C   0  0  0  0  0  0  0  0  0  0  0  0
   -1.6174   -0.3273    2.2643 H   0  0  0  0  0  0  0  0  0  0  0  0
   -2.5210    1.1809    1.8738 H   0  0  0  0  0  0  0  0  0  0  0  0
    1.2581   -0.3428    2.7064 H   0  0  0  0  0  0  0  0  0  0  0  0
    2.4180    0.4461    4.7817 H   0  0  0  0  0  0  0  0  0  0  0  0
    2.3960    2.8807    5.3801 H   0  0  0  0  0  0  0  0  0  0  0  0
    1.1966    4.5197    3.9135 H   0  0  0  0  0  0  0  0  0  0  0  0
    0.0147    3.7376    1.8605 H   0  0  0  0  0  0  0  0  0  0  0  0
   -2.3240    3.2074    0.9622 H   0  0  0  0  0  0  0  0  0  0  0  0
   -2.9021    5.0809   -0.5589 H   0  0  0  0  0  0  0  0  0  0  0  0
   -1.7108    5.3492   -2.7472 H   0  0  0  0  0  0  0  0  0  0  0  0
    0.0629    3.7072   -3.4161 H   0  0  0  0  0  0  0  0  0  0  0  0
    0.6317    1.7906   -1.8971 H   0  0  0  0  0  0  0  0  0  0  0  0
   -5.0956    1.2657    0.7103 H   0  0  0  0  0  0  0  0  0  0  0  0
   -6.1333    3.0429   -0.7008 H   0  0  0  0  0  0  0  0  0  0  0  0
   -5.3274    3.4202   -3.0431 H   0  0  0  0  0  0  0  0  0  0  0  0
   -3.4828    2.0080   -3.9807 H   0  0  0  0  0  0  0  0  0  0  0  0
   -2.4430    0.2026   -2.5688 H   0  0  0  0  0  0  0  0  0  0  0  0
   -2.9065   -2.0372    2.7887 H   0  0  0  0  0  0  0  0  0  0  0  0
   -4.6499   -3.4175    3.9004 H   0  0  0  0  0  0  0  0  0  0  0  0
   -6.8847   -3.7447    2.8138 H   0  0  0  0  0  0  0  0  0  0  0  0
   -7.3720   -2.6718    0.6017 H   0  0  0  0  0  0  0  0  0  0  0  0
   -5.6449   -1.2585   -0.5144 H   0  0  0  0  0  0  0  0  0  0  0  0
  1  3  1  0  0  0  0
  2  4  1  0  0  0  0
  2  5  1  0  0  0  0
  3 23  1  0  0  0  0
  3  4  1  0  0  0  0
  4 30  1  0  0  0  0
  4 29  1  0  0  0  0
  5 10  2  0  0  0  0
  5  6  1  0  0  0  0
  6  7  2  0  0  0  0
  7  8  1  0  0  0  0
  7 32  1  0  0  0  0
  8 33  1  0  0  0  0
  9 34  1  0  0  0  0
  9  8  2  0  0  0  0
 10  9  1  0  0  0  0
 11 12  1  0  0  0  0
 11  2  1  0  0  0  0
 12 36  1  0  0  0  0
 13 37  1  0  0  0  0
 13 12  2  0  0  0  0
 14 13  1  0  0  0  0
 15 14  2  0  0  0  0
 15 16  1  0  0  0  0
 16 11  2  0  0  0  0
 17 18  1  0  0  0  0
 17  3  1  0  0  0  0
 18 41  1  0  0  0  0
 19 42  1  0  0  0  0
 19 18  2  0  0  0  0
 20 19  1  0  0  0  0
 21 20  2  0  0  0  0
 21 22  1  0  0  0  0
 22 17  2  0  0  0  0
 23 24  1  0  0  0  0
 24 46  1  0  0  0  0
 24 25  2  0  0  0  0
 25 47  1  0  0  0  0
 26 48  1  0  0  0  0
 26 25  1  0  0  0  0
 27 26  2  0  0  0  0
 28 23  2  0  0  0  0
 28 27  1  0  0  0  0
 31  6  1  0  0  0  0
 35 10  1  0  0  0  0
 38 14  1  0  0  0  0
 39 15  1  0  0  0  0
 40 16  1  0  0  0  0
 43 20  1  0  0  0  0
 44 21  1  0  0  0  0
 45 22  1  0  0  0  0
 49 27  1  0  0  0  0
 50 28  1  0  0  0  0
M  END
