1,2
q = -1.0

 36 37  0  0  0  0  0  0  0  0999 V2000
   -0.7477   -0.4101   -2.1789 Se  0  0  0  0  0  1  0  0  0  0  0  0
    0.3138   -0.0321   -0.2897 P   0  0  0  0  0  0  0  0  0  0  0  0
    2.2899   -1.1943    1.3550 C   0  0  0  0  0  0  0  0  0  0  0  0
    2.7263   -0.1916    1.5626 H   0  0  0  0  0  0  0  0  0  0  0  0
    1.4723   -1.3441    2.0911 H   0  0  0  0  0  0  0  0  0  0  0  0
    3.3815   -2.2605    1.5305 C   0  0  0  0  0  0  0  0  0  0  0  0
    2.9194   -3.2678    1.4303 H   0  0  0  0  0  0  0  0  0  0  0  0
    3.7985   -2.2077    2.5577 H   0  0  0  0  0  0  0  0  0  0  0  0
    4.4937   -2.1036    0.4856 C   0  0  0  0  0  0  0  0  0  0  0  0
    5.2548   -2.9019    0.6089 H   0  0  0  0  0  0  0  0  0  0  0  0
    5.0227   -1.1389    0.6582 H   0  0  0  0  0  0  0  0  0  0  0  0
    3.9286   -2.1196   -0.9407 C   0  0  0  0  0  0  0  0  0  0  0  0
    3.4948   -3.1221   -1.1533 H   0  0  0  0  0  0  0  0  0  0  0  0
    4.7383   -1.9657   -1.6842 H   0  0  0  0  0  0  0  0  0  0  0  0
    2.8378   -1.0547   -1.1305 C   0  0  0  0  0  0  0  0  0  0  0  0
    2.3984   -1.1154   -2.1477 H   0  0  0  0  0  0  0  0  0  0  0  0
    3.2969   -0.0449   -1.0364 H   0  0  0  0  0  0  0  0  0  0  0  0
    1.7291   -1.2228   -0.0788 C   0  0  0  0  0  0  0  0  0  0  0  0
    1.2488   -2.2102   -0.2492 H   0  0  0  0  0  0  0  0  0  0  0  0
    0.6365    2.6796   -1.1526 C   0  0  0  0  0  0  0  0  0  0  0  0
    0.8805    2.2812   -2.1580 H   0  0  0  0  0  0  0  0  0  0  0  0
   -0.4665    2.8020   -1.1336 H   0  0  0  0  0  0  0  0  0  0  0  0
    1.3114    4.0394   -0.9217 C   0  0  0  0  0  0  0  0  0  0  0  0
    0.9655    4.7620   -1.6897 H   0  0  0  0  0  0  0  0  0  0  0  0
    2.4103    3.9315   -1.0665 H   0  0  0  0  0  0  0  0  0  0  0  0
    1.0386    4.5782    0.4884 C   0  0  0  0  0  0  0  0  0  0  0  0
   -0.0499    4.7841    0.5957 H   0  0  0  0  0  0  0  0  0  0  0  0
    1.5581    5.5472    0.6406 H   0  0  0  0  0  0  0  0  0  0  0  0
    1.4652    3.5681    1.5605 C   0  0  0  0  0  0  0  0  0  0  0  0
    1.2284    3.9493    2.5757 H   0  0  0  0  0  0  0  0  0  0  0  0
    2.5703    3.4361    1.5251 H   0  0  0  0  0  0  0  0  0  0  0  0
    0.7852    2.2082    1.3479 C   0  0  0  0  0  0  0  0  0  0  0  0
   -0.3104    2.3213    1.4882 H   0  0  0  0  0  0  0  0  0  0  0  0
    1.1183    1.4786    2.1148 H   0  0  0  0  0  0  0  0  0  0  0  0
    1.0596    1.6721   -0.0720 C   0  0  0  0  0  0  0  0  0  0  0  0
    2.1558    1.5013   -0.1709 H   0  0  0  0  0  0  0  0  0  0  0  0
  1  2  1  0  0  0  0
  2 18  1  0  0  0  0
  2 35  1  0  0  0  0
  3  6  1  0  0  0  0
  3  4  1  0  0  0  0
  3  5  1  0  0  0  0
  6  8  1  0  0  0  0
  7  6  1  0  0  0  0
  9 10  1  0  0  0  0
  9 11  1  0  0  0  0
  9  6  1  0  0  0  0
 12  9  1  0  0  0  0
 13 12  1  0  0  0  0
 14 12  1  0  0  0  0
 15 17  1  0  0  0  0
 15 12  1  0  0  0  0
 15 18  1  0  0  0  0
 16 15  1  0  0  0  0
 18  3  1  0  0  0  0
 19 18  1  0  0  0  0
 20 22  1  0  0  0  0
 20 23  1  0  0  0  0
 20 35  1  0  0  0  0
 21 20  1  0  0  0  0
 23 26  1  0  0  0  0
 24 23  1  0  0  0  0
 25 23  1  0  0  0  0
 26 27  1  0  0  0  0
 26 28  1  0  0  0  0
 26 29  1  0  0  0  0
 29 30  1  0  0  0  0
 31 29  1  0  0  0  0
 32 33  1  0  0  0  0
 32 29  1  0  0  0  0
 32 34  1  0  0  0  0
 35 32  1  0  0  0  0
 36 35  1  0  0  0  0
M  END
