1,3
q = 0.0, confidence = 0.99

 63 68  0  0  0  0  0  0  0  0999 V2000
   -1.0540   -1.1454   -1.8091 Se  0  0  0  0  0  1  0  0  0  0  0  0
   -2.0520   -0.1114   -0.1746 P   0  0  0  0  0  4  0  0  0  0  0  0
    1.4579    0.4881    0.1180 P   0  0  0  0  0  0  0  0  0  0  0  0
   -1.5438   -0.5043    1.5497 C   0  0  0  0  0  0  0  0  0  0  0  0
   -2.4087   -1.3889    2.2018 C   0  0  0  0  0  0  0  0  0  0  0  0
   -3.1781   -1.9163    1.6212 H   0  0  0  0  0  0  0  0  0  0  0  0
   -2.3640   -1.5881    3.5990 C   0  0  0  0  0  0  0  0  0  0  0  0
   -3.0399   -2.3158    4.0703 H   0  0  0  0  0  0  0  0  0  0  0  0
   -1.5315   -0.7882    4.3575 C   0  0  0  0  0  0  0  0  0  0  0  0
   -1.5533   -0.8338    5.4572 H   0  0  0  0  0  0  0  0  0  0  0  0
    0.1775    0.9628    4.5625 C   0  0  0  0  0  0  0  0  0  0  0  0
    0.0404    0.9116    5.6536 H   0  0  0  0  0  0  0  0  0  0  0  0
    1.1039    1.8195    3.9996 C   0  0  0  0  0  0  0  0  0  0  0  0
    1.7019    2.4992    4.6243 H   0  0  0  0  0  0  0  0  0  0  0  0
    1.3594    1.7311    2.6115 C   0  0  0  0  0  0  0  0  0  0  0  0
    2.2221    2.2810    2.2091 H   0  0  0  0  0  0  0  0  0  0  0  0
    0.6317    0.8954    1.7558 C   0  0  0  0  0  0  0  0  0  0  0  0
   -0.5009    0.1728    2.2921 C   0  0  0  0  0  0  0  0  0  0  0  0
   -0.6204    0.1166    3.7392 C   0  0  0  0  0  0  0  0  0  0  0  0
    3.2331    0.8366    0.5373 C   0  0  0  0  0  0  0  0  0  0  0  0
    4.0277    1.7121   -0.2271 C   0  0  0  0  0  0  0  0  0  0  0  0
    3.5814    2.2889   -1.0494 H   0  0  0  0  0  0  0  0  0  0  0  0
    5.3982    1.8472    0.0540 C   0  0  0  0  0  0  0  0  0  0  0  0
    6.0107    2.5296   -0.5550 H   0  0  0  0  0  0  0  0  0  0  0  0
    5.9826    1.1202    1.1002 C   0  0  0  0  0  0  0  0  0  0  0  0
    7.0564    1.2267    1.3162 H   0  0  0  0  0  0  0  0  0  0  0  0
    5.1921    0.2453    1.8658 C   0  0  0  0  0  0  0  0  0  0  0  0
    5.6438   -0.3410    2.6801 H   0  0  0  0  0  0  0  0  0  0  0  0
    3.8299    0.0983    1.5829 C   0  0  0  0  0  0  0  0  0  0  0  0
    3.2210   -0.6048    2.1713 H   0  0  0  0  0  0  0  0  0  0  0  0
    1.0888    1.9343   -0.9825 C   0  0  0  0  0  0  0  0  0  0  0  0
    0.9419    3.2375   -0.4658 C   0  0  0  0  0  0  0  0  0  0  0  0
    0.9087    3.4006    0.6207 H   0  0  0  0  0  0  0  0  0  0  0  0
    0.8297    4.3338   -1.3319 C   0  0  0  0  0  0  0  0  0  0  0  0
    0.7139    5.3459   -0.9156 H   0  0  0  0  0  0  0  0  0  0  0  0
    0.8595    4.1419   -2.7232 C   0  0  0  0  0  0  0  0  0  0  0  0
    0.7772    5.0050   -3.4015 H   0  0  0  0  0  0  0  0  0  0  0  0
    0.9846    2.8452   -3.2433 C   0  0  0  0  0  0  0  0  0  0  0  0
    0.9998    2.6821   -4.3316 H   0  0  0  0  0  0  0  0  0  0  0  0
    1.0944    1.7455   -2.3775 C   0  0  0  0  0  0  0  0  0  0  0  0
    1.1868    0.7298   -2.7837 H   0  0  0  0  0  0  0  0  0  0  0  0
   -3.8514   -0.5361   -0.2537 C   0  0  0  0  0  0  0  0  0  0  0  0
   -4.2557   -1.7216   -0.8963 C   0  0  0  0  0  0  0  0  0  0  0  0
   -3.4925   -2.3624   -1.3663 H   0  0  0  0  0  0  0  0  0  0  0  0
   -5.6154   -2.0665   -0.9386 C   0  0  0  0  0  0  0  0  0  0  0  0
   -5.9250   -2.9936   -1.4442 H   0  0  0  0  0  0  0  0  0  0  0  0
   -6.5737   -1.2324   -0.3428 C   0  0  0  0  0  0  0  0  0  0  0  0
   -7.6398   -1.5032   -0.3792 H   0  0  0  0  0  0  0  0  0  0  0  0
   -6.1714   -0.0467    0.2945 C   0  0  0  0  0  0  0  0  0  0  0  0
   -6.9204    0.6147    0.7557 H   0  0  0  0  0  0  0  0  0  0  0  0
   -4.8154    0.3050    0.3397 C   0  0  0  0  0  0  0  0  0  0  0  0
   -4.5092    1.2405    0.8304 H   0  0  0  0  0  0  0  0  0  0  0  0
   -2.1022    1.7205   -0.2947 C   0  0  0  0  0  0  0  0  0  0  0  0
   -2.1819    2.2810   -1.5838 C   0  0  0  0  0  0  0  0  0  0  0  0
   -2.0587    1.6298   -2.4633 H   0  0  0  0  0  0  0  0  0  0  0  0
   -2.3949    3.6568   -1.7325 C   0  0  0  0  0  0  0  0  0  0  0  0
   -2.4479    4.0925   -2.7410 H   0  0  0  0  0  0  0  0  0  0  0  0
   -2.5247    4.4778   -0.6001 C   0  0  0  0  0  0  0  0  0  0  0  0
   -2.6879    5.5595   -0.7206 H   0  0  0  0  0  0  0  0  0  0  0  0
   -2.4323    3.9215    0.6844 C   0  0  0  0  0  0  0  0  0  0  0  0
   -2.5236    4.5628    1.5740 H   0  0  0  0  0  0  0  0  0  0  0  0
   -2.2236    2.5425    0.8434 C   0  0  0  0  0  0  0  0  0  0  0  0
   -2.1582    2.1115    1.8524 H   0  0  0  0  0  0  0  0  0  0  0  0
  1  2  1  0  0  0  0
  2  4  1  0  0  0  0
  3 20  1  0  0  0  0
  3 17  1  0  0  0  0
  4  5  2  0  0  0  0
  4 18  1  0  0  0  0
  5  7  1  0  0  0  0
  6  5  1  0  0  0  0
  7  8  1  0  0  0  0
  7  9  2  0  0  0  0
  9 10  1  0  0  0  0
 11 12  1  0  0  0  0
 13 11  1  0  0  0  0
 13 14  1  0  0  0  0
 15 13  2  0  0  0  0
 16 15  1  0  0  0  0
 17 18  2  0  0  0  0
 17 15  1  0  0  0  0
 18 19  1  0  0  0  0
 19  9  1  0  0  0  0
 19 11  2  0  0  0  0
 20 29  1  0  0  0  0
 21 23  1  0  0  0  0
 21 20  2  0  0  0  0
 22 21  1  0  0  0  0
 23 25  2  0  0  0  0
 24 23  1  0  0  0  0
 25 26  1  0  0  0  0
 25 27  1  0  0  0  0
 27 28  1  0  0  0  0
 29 27  2  0  0  0  0
 29 30  1  0  0  0  0
 31 32  1  0  0  0  0
 31  3  1  0  0  0  0
 32 33  1  0  0  0  0
 34 35  1  0  0  0  0
 34 32  2  0  0  0  0
 36 34  1  0  0  0  0
 37 36  1  0  0  0  0
 38 36  2  0  0  0  0
 38 40  1  0  0  0  0
 39 38  1  0  0  0  0
 40 31  2  0  0  0  0
 41 40  1  0  0  0  0
 42  2  1  0  0  0  0
 42 51  1  0  0  0  0
 43 42  2  0  0  0  0
 44 43  1  0  0  0  0
 45 43  1  0  0  0  0
 45 47  2  0  0  0  0
 46 45  1  0  0  0  0
 47 49  1  0  0  0  0
 48 47  1  0  0  0  0
 49 51  2  0  0  0  0
 49 50  1  0  0  0  0
 51 52  1  0  0  0  0
 53  2  1  0  0  0  0
 53 62  1  0  0  0  0
 54 53  2  0  0  0  0
 55 54  1  0  0  0  0
 56 54  1  0  0  0  0
 56 58  2  0  0  0  0
 57 56  1  0  0  0  0
 58 60  1  0  0  0  0
 59 58  1  0  0  0  0
 60 62  2  0  0  0  0
 60 61  1  0  0  0  0
 62 63  1  0  0  0  0
M  END
