1,3,4,5,6
q = 0.0, confidence = 0.882

 66 68  0  0  1  0  0  0  0  0999 V2000
    0.5646    1.3847   -0.6436 O   0  0  0  0  0  1  0  0  0  0  0  0
    4.7653   -1.3310    0.3617 O   0  0  0  0  0  0  0  0  0  0  0  0
   -2.0035   -1.8488   -0.2063 N   0  0  0  0  0  0  0  0  0  0  0  0
   -0.6713   -0.2826    1.5797 N   0  0  0  0  0  2  0  0  0  0  0  0
   -2.2967    0.8696   -0.3622 N   0  0  0  0  0  2  0  0  0  0  0  0
    0.6671   -1.9073   -0.6021 N   0  0  0  0  0  2  0  0  0  0  0  0
   -1.1561    2.9424   -0.5540 N   0  0  0  0  0  0  0  0  0  0  0  0
    2.6089   -0.7052   -0.1940 N   0  0  0  0  0  0  0  0  0  0  0  0
   -2.0085   -2.2754    1.2325 C   0  0  0  0  0  0  0  0  0  0  0  0
   -1.5059   -1.1992    2.1570 C   0  0  1  0  0  3  0  0  0  0  0  0
   -1.7774   -1.1854    3.5300 C   0  0  0  0  0  0  0  0  0  0  0  0
   -1.1564   -0.2306    4.3482 C   0  0  0  0  0  0  0  0  0  0  0  0
   -0.2754    0.6879    3.7545 C   0  0  0  0  0  0  0  0  0  0  0  0
   -0.0638    0.6351    2.3763 C   0  0  0  0  0  0  0  0  0  0  0  0
   -3.3212   -1.3017   -0.6518 C   0  0  0  0  0  0  0  0  0  0  0  0
   -3.4691    0.1587   -0.2997 C   0  0  2  0  0  3  0  0  0  0  0  0
   -4.6938    0.7886   -0.0798 C   0  0  0  0  0  0  0  0  0  0  0  0
   -4.7275    2.1919    0.0273 C   0  0  0  0  0  0  0  0  0  0  0  0
   -3.5441    2.9173   -0.1192 C   0  0  0  0  0  0  0  0  0  0  0  0
   -2.3367    2.2197   -0.3297 C   0  0  0  0  0  0  0  0  0  0  0  0
   -1.4801   -2.9414   -1.0840 C   0  0  0  0  0  0  0  0  0  0  0  0
    0.0046   -3.0790   -0.8507 C   0  0  1  0  0  3  0  0  0  0  0  0
    0.6604   -4.3077   -0.9073 C   0  0  0  0  0  0  0  0  0  0  0  0
    2.0545   -4.3348   -0.7215 C   0  0  0  0  0  0  0  0  0  0  0  0
    2.7435   -3.1500   -0.4787 C   0  0  0  0  0  0  0  0  0  0  0  0
    2.0161   -1.9360   -0.4252 C   0  0  0  0  0  0  0  0  0  0  0  0
    0.1487    2.5667   -0.7410 C   0  0  1  0  0  3  0  0  0  0  0  0
    1.1198    3.7050   -1.0137 C   0  0  0  0  0  0  0  0  0  0  0  0
    2.1170    3.3161   -2.1123 C   0  0  0  0  0  0  0  0  0  0  0  0
    1.8061    4.1316    0.3002 C   0  0  0  0  0  0  0  0  0  0  0  0
    3.9267   -0.4549    0.1994 C   0  0  0  0  0  0  0  0  0  0  0  0
    4.2156    1.0223    0.4723 C   0  0  0  0  0  0  0  0  0  0  0  0
    5.5871    1.4079   -0.0880 C   0  0  0  0  0  0  0  0  0  0  0  0
    4.1225    1.2658    1.9901 C   0  0  0  0  0  0  0  0  0  0  0  0
   -3.0135   -2.6387    1.5310 H   0  0  0  0  0  0  0  0  0  0  0  0
   -1.3154   -3.1387    1.3193 H   0  0  0  0  0  0  0  0  0  0  0  0
   -2.4652   -1.9311    3.9548 H   0  0  0  0  0  0  0  0  0  0  0  0
   -1.3531   -0.2069    5.4295 H   0  0  0  0  0  0  0  0  0  0  0  0
    0.2463    1.4484    4.3525 H   0  0  0  0  0  0  0  0  0  0  0  0
    0.6084    1.3392    1.8654 H   0  0  0  0  0  0  0  0  0  0  0  0
   -4.1714   -1.9094   -0.2765 H   0  0  0  0  0  0  0  0  0  0  0  0
   -3.3083   -1.3505   -1.7619 H   0  0  0  0  0  0  0  0  0  0  0  0
   -5.6148    0.1926   -0.0177 H   0  0  0  0  0  0  0  0  0  0  0  0
   -5.6776    2.7160    0.2019 H   0  0  0  0  0  0  0  0  0  0  0  0
   -3.5441    4.0165   -0.0779 H   0  0  0  0  0  0  0  0  0  0  0  0
   -2.0139   -3.9018   -0.9176 H   0  0  0  0  0  0  0  0  0  0  0  0
   -1.6370   -2.5991   -2.1290 H   0  0  0  0  0  0  0  0  0  0  0  0
    0.0893   -5.2268   -1.0987 H   0  0  0  0  0  0  0  0  0  0  0  0
    2.6035   -5.2867   -0.7668 H   0  0  0  0  0  0  0  0  0  0  0  0
    3.8270   -3.1117   -0.3190 H   0  0  0  0  0  0  0  0  0  0  0  0
   -1.3091    3.9494   -0.6439 H   0  0  0  0  0  0  0  0  0  0  0  0
    1.9915    0.1061   -0.3382 H   0  0  0  0  0  0  0  0  0  0  0  0
    0.5201    4.5671   -1.3808 H   0  0  0  0  0  0  0  0  0  0  0  0
    1.5970    3.0284   -3.0462 H   0  0  0  0  0  0  0  0  0  0  0  0
    2.7896    4.1680   -2.3307 H   0  0  0  0  0  0  0  0  0  0  0  0
    2.7411    2.4572   -1.7992 H   0  0  0  0  0  0  0  0  0  0  0  0
    1.0700    4.4511    1.0652 H   0  0  0  0  0  0  0  0  0  0  0  0
    2.4913    4.9811    0.1118 H   0  0  0  0  0  0  0  0  0  0  0  0
    2.4051    3.3014    0.7232 H   0  0  0  0  0  0  0  0  0  0  0  0
    3.4298    1.6257   -0.0297 H   0  0  0  0  0  0  0  0  0  0  0  0
    5.6213    1.2982   -1.1902 H   0  0  0  0  0  0  0  0  0  0  0  0
    5.8313    2.4587    0.1641 H   0  0  0  0  0  0  0  0  0  0  0  0
    6.3687    0.7508    0.3406 H   0  0  0  0  0  0  0  0  0  0  0  0
    4.3201    2.3307    2.2272 H   0  0  0  0  0  0  0  0  0  0  0  0
    4.8750    0.6508    2.5228 H   0  0  0  0  0  0  0  0  0  0  0  0
    3.1226    0.9997    2.3913 H   0  0  0  0  0  0  0  0  0  0  0  0
  3  9  1  0  0  0  0
  4 10  1  0  0  0  0
  4 14  1  0  0  0  0
  5 20  1  0  0  0  0
  5 16  1  0  0  0  0
  6 26  1  0  0  0  0
  7 20  1  0  0  0  0
  8 31  1  0  0  0  0
  9 36  1  0  0  0  0
  9 35  1  0  0  0  0
 10  9  1  1  0  0  0
 10 11  1  0  0  0  0
 11 37  1  0  0  0  0
 11 12  2  0  0  0  0
 12 38  1  0  0  0  0
 13 12  1  0  0  0  0
 13 39  1  0  0  0  0
 14 13  2  0  0  0  0
 15 41  1  0  0  0  0
 15  3  1  0  0  0  0
 16 15  1  6  0  0  0
 16 17  1  0  0  0  0
 17 43  1  0  0  0  0
 17 18  2  0  0  0  0
 18 44  1  0  0  0  0
 19 45  1  0  0  0  0
 19 18  1  0  0  0  0
 20 19  2  0  0  0  0
 21 46  1  0  0  0  0
 21  3  1  0  0  0  0
 22 21  1  6  0  0  0
 22  6  1  0  0  0  0
 23 22  1  0  0  0  0
 23 24  2  0  0  0  0
 24 25  1  0  0  0  0
 25 26  2  0  0  0  0
 25 50  1  0  0  0  0
 26  8  1  0  0  0  0
 27  1  1  1  0  0  0
 27  7  1  0  0  0  0
 28 27  1  0  0  0  0
 28 30  1  0  0  0  0
 29 56  1  0  0  0  0
 29 28  1  0  0  0  0
 30 59  1  0  0  0  0
 30 57  1  0  0  0  0
 31  2  2  0  0  0  0
 31 32  1  0  0  0  0
 32 34  1  0  0  0  0
 33 62  1  0  0  0  0
 33 63  1  0  0  0  0
 33 32  1  0  0  0  0
 34 64  1  0  0  0  0
 34 66  1  0  0  0  0
 34 65  1  0  0  0  0
 40 14  1  0  0  0  0
 42 15  1  0  0  0  0
 47 21  1  0  0  0  0
 48 23  1  0  0  0  0
 49 24  1  0  0  0  0
 51  7  1  0  0  0  0
 52  8  1  0  0  0  0
 53 28  1  0  0  0  0
 54 29  1  0  0  0  0
 55 29  1  0  0  0  0
 58 30  1  0  0  0  0
 60 32  1  0  0  0  0
 61 33  1  0  0  0  0
M  END
