4,9,11,12,14
q = -1.0

 69 71  0  0  0  0  0  0  0  0999 V2000
    3.4326    5.6728   -0.1971 Br  0  0  0  0  0  0  0  0  0  0  0  0
    7.4823   -2.0642   -0.4147 Br  0  0  0  0  0  0  0  0  0  0  0  0
   -7.4055   -0.0157   -2.8560 Br  0  0  0  0  0  0  0  0  0  0  0  0
   -0.5135    1.0707   -0.6565 O   0  5  0  0  0  0  0  0  0  0  0  0
    1.7735   -2.9976   -2.2588 O   0  0  0  0  0  0  0  0  0  0  0  0
    1.7267   -3.6879   -2.9472 H   0  0  0  0  0  0  0  0  0  0  0  0
   -5.0746   -0.7028    2.7120 O   0  0  0  0  0  0  0  0  0  0  0  0
   -5.7780   -0.9222    3.3518 H   0  0  0  0  0  0  0  0  0  0  0  0
    0.1249    0.9403    2.3052 N   0  0  0  0  0  0  0  0  0  0  0  0
    1.1490    0.9172    2.4254 H   0  0  0  0  0  0  0  0  0  0  0  0
   -0.6615   -1.8152    2.4611 N   0  0  0  0  0  0  0  0  0  0  0  0
    1.0997   -1.6404    0.1564 N   0  0  0  0  0  0  0  0  0  0  0  0
    0.7584   -2.3078   -0.5567 H   0  0  0  0  0  0  0  0  0  0  0  0
   -2.4239   -0.9917    0.3334 N   0  0  0  0  0  0  0  0  0  0  0  0
   -2.5150   -1.1624   -0.6778 H   0  0  0  0  0  0  0  0  0  0  0  0
    0.3314    2.0942   -0.5455 C   0  0  0  0  0  0  0  0  0  0  0  0
    1.0504    2.5652   -1.6757 C   0  0  0  0  0  0  0  0  0  0  0  0
    0.8676    2.0729   -2.6430 H   0  0  0  0  0  0  0  0  0  0  0  0
    1.9622    3.6210   -1.5804 C   0  0  0  0  0  0  0  0  0  0  0  0
    2.5094    3.9636   -2.4705 H   0  0  0  0  0  0  0  0  0  0  0  0
    2.1825    4.2460   -0.3399 C   0  0  0  0  0  0  0  0  0  0  0  0
    1.4744    3.8228    0.7930 C   0  0  0  0  0  0  0  0  0  0  0  0
    1.6321    4.3324    1.7562 H   0  0  0  0  0  0  0  0  0  0  0  0
    0.5502    2.7652    0.7027 C   0  0  0  0  0  0  0  0  0  0  0  0
   -0.2364    2.3355    1.9099 C   0  0  0  0  0  0  0  0  0  0  0  0
   -0.0695    3.0337    2.7587 H   0  0  0  0  0  0  0  0  0  0  0  0
   -1.3257    2.3300    1.6872 H   0  0  0  0  0  0  0  0  0  0  0  0
   -0.5191    0.4269    3.5244 C   0  0  0  0  0  0  0  0  0  0  0  0
   -1.6106    0.6128    3.4348 H   0  0  0  0  0  0  0  0  0  0  0  0
   -0.1828    0.9627    4.4400 H   0  0  0  0  0  0  0  0  0  0  0  0
   -0.2401   -1.0724    3.6638 C   0  0  0  0  0  0  0  0  0  0  0  0
    0.8512   -1.2206    3.8013 H   0  0  0  0  0  0  0  0  0  0  0  0
   -0.7242   -1.4710    4.5839 H   0  0  0  0  0  0  0  0  0  0  0  0
    0.2511   -2.9140    2.0921 C   0  0  0  0  0  0  0  0  0  0  0  0
   -0.2982   -3.6085    1.4235 H   0  0  0  0  0  0  0  0  0  0  0  0
    0.5556   -3.5144    2.9802 H   0  0  0  0  0  0  0  0  0  0  0  0
    1.4930   -2.4033    1.3576 C   0  0  0  0  0  0  0  0  0  0  0  0
    2.0841   -1.7262    2.0107 H   0  0  0  0  0  0  0  0  0  0  0  0
    2.1633   -3.2541    1.1093 H   0  0  0  0  0  0  0  0  0  0  0  0
    2.2095   -0.8915   -0.5023 C   0  0  0  0  0  0  0  0  0  0  0  0
    2.5787   -0.1202    0.2032 H   0  0  0  0  0  0  0  0  0  0  0  0
    1.7505   -0.3445   -1.3512 H   0  0  0  0  0  0  0  0  0  0  0  0
    3.3442   -1.7689   -0.9684 C   0  0  0  0  0  0  0  0  0  0  0  0
    4.6644   -1.5607   -0.5374 C   0  0  0  0  0  0  0  0  0  0  0  0
    4.8834   -0.7447    0.1672 H   0  0  0  0  0  0  0  0  0  0  0  0
    5.7088   -2.3721   -1.0110 C   0  0  0  0  0  0  0  0  0  0  0  0
    5.4436   -3.4062   -1.9226 C   0  0  0  0  0  0  0  0  0  0  0  0
    6.2608   -4.0394   -2.2948 H   0  0  0  0  0  0  0  0  0  0  0  0
    4.1279   -3.6281   -2.3532 C   0  0  0  0  0  0  0  0  0  0  0  0
    3.9165   -4.4410   -3.0668 H   0  0  0  0  0  0  0  0  0  0  0  0
    3.0835   -2.8177   -1.8823 C   0  0  0  0  0  0  0  0  0  0  0  0
   -2.0858   -2.1946    2.4721 C   0  0  0  0  0  0  0  0  0  0  0  0
   -2.6495   -1.4393    3.0544 H   0  0  0  0  0  0  0  0  0  0  0  0
   -2.2497   -3.1705    2.9851 H   0  0  0  0  0  0  0  0  0  0  0  0
   -2.6716   -2.2533    1.0589 C   0  0  0  0  0  0  0  0  0  0  0  0
   -2.1975   -3.0689    0.4749 H   0  0  0  0  0  0  0  0  0  0  0  0
   -3.7549   -2.4915    1.1204 H   0  0  0  0  0  0  0  0  0  0  0  0
   -3.3326    0.1516    0.6641 C   0  0  0  0  0  0  0  0  0  0  0  0
   -2.9686    0.9974    0.0480 H   0  0  0  0  0  0  0  0  0  0  0  0
   -3.1751    0.4202    1.7268 H   0  0  0  0  0  0  0  0  0  0  0  0
   -4.7939   -0.1217    0.4182 C   0  0  0  0  0  0  0  0  0  0  0  0
   -5.3408    0.0364   -0.8688 C   0  0  0  0  0  0  0  0  0  0  0  0
   -4.7009    0.3934   -1.6904 H   0  0  0  0  0  0  0  0  0  0  0  0
   -6.6954   -0.2350   -1.1114 C   0  0  0  0  0  0  0  0  0  0  0  0
   -7.5286   -0.6567   -0.0613 C   0  0  0  0  0  0  0  0  0  0  0  0
   -8.5924   -0.8604   -0.2470 H   0  0  0  0  0  0  0  0  0  0  0  0
   -6.9966   -0.8110    1.2247 C   0  0  0  0  0  0  0  0  0  0  0  0
   -7.6512   -1.1394    2.0483 H   0  0  0  0  0  0  0  0  0  0  0  0
   -5.6364   -0.5516    1.4711 C   0  0  0  0  0  0  0  0  0  0  0  0
  3 64  1  0  0  0  0
  4 16  1  0  0  0  0
  5 51  1  0  0  0  0
  6  5  1  0  0  0  0
  7  8  1  0  0  0  0
  9 10  1  0  0  0  0
  9 28  1  0  0  0  0
 11 52  1  0  0  0  0
 11 31  1  0  0  0  0
 12 37  1  0  0  0  0
 13 12  1  0  0  0  0
 14 58  1  0  0  0  0
 14 55  1  0  0  0  0
 15 14  1  0  0  0  0
 16 24  1  0  0  0  0
 17 19  1  0  0  0  0
 17 16  2  0  0  0  0
 18 17  1  0  0  0  0
 19 21  2  0  0  0  0
 20 19  1  0  0  0  0
 21  1  1  0  0  0  0
 21 22  1  0  0  0  0
 22 23  1  0  0  0  0
 24 22  2  0  0  0  0
 24 25  1  0  0  0  0
 25  9  1  0  0  0  0
 25 26  1  0  0  0  0
 27 25  1  0  0  0  0
 28 31  1  0  0  0  0
 28 30  1  0  0  0  0
 29 28  1  0  0  0  0
 31 32  1  0  0  0  0
 31 33  1  0  0  0  0
 34 11  1  0  0  0  0
 34 36  1  0  0  0  0
 35 34  1  0  0  0  0
 37 38  1  0  0  0  0
 37 34  1  0  0  0  0
 39 37  1  0  0  0  0
 40 12  1  0  0  0  0
 40 41  1  0  0  0  0
 42 40  1  0  0  0  0
 43 44  1  0  0  0  0
 43 40  1  0  0  0  0
 44 45  1  0  0  0  0
 46 44  2  0  0  0  0
 46  2  1  0  0  0  0
 47 46  1  0  0  0  0
 48 47  1  0  0  0  0
 49 47  2  0  0  0  0
 49 51  1  0  0  0  0
 50 49  1  0  0  0  0
 51 43  2  0  0  0  0
 52 54  1  0  0  0  0
 52 53  1  0  0  0  0
 55 57  1  0  0  0  0
 55 52  1  0  0  0  0
 56 55  1  0  0  0  0
 58 60  1  0  0  0  0
 59 58  1  0  0  0  0
 61 58  1  0  0  0  0
 61 69  1  0  0  0  0
 62 61  2  0  0  0  0
 63 62  1  0  0  0  0
 64 62  1  0  0  0  0
 64 65  2  0  0  0  0
 65 67  1  0  0  0  0
 66 65  1  0  0  0  0
 67 69  2  0  0  0  0
 67 68  1  0  0  0  0
 69  7  1  0  0  0  0
M  CHG  1   4  -1
M  END
