1,2,3,4,8
q = -3.0, confidence = 0.312

 51 52  0  0  0  0  0  0  0  0999 V2000
    1.0439    1.6484    0.1618 N   0  0  0  0  0  2  0  0  0  0  0  0
   -1.0196    1.0481    1.5363 N   0  0  0  0  0  0  0  0  0  0  0  0
    1.0026   -0.7836    1.6822 N   0  0  0  0  0  0  0  0  0  0  0  0
   -0.9721   -1.6124    0.2367 N   0  0  0  0  0  2  0  0  0  0  0  0
    1.0882   -0.6492   -1.2882 O   0  0  0  0  0  0  0  0  0  0  0  0
    0.7213   -1.5021   -1.6055 H   0  0  0  0  0  0  0  0  0  0  0  0
    3.0053    2.8246    0.0167 O   0  0  0  0  0  0  0  0  0  0  0  0
   -1.1461    0.7343   -1.1686 O   0  5  0  0  0  0  0  0  0  0  0  0
   -2.8964   -2.8341    0.4123 O   0  0  0  0  0  0  0  0  0  0  0  0
    2.4682   -0.6153   -1.2152 C   0  0  0  0  0  0  0  0  0  0  0  0
    3.2262   -1.6895   -1.7074 C   0  0  0  0  0  0  0  0  0  0  0  0
    2.7144   -2.5618   -2.1458 H   0  0  0  0  0  0  0  0  0  0  0  0
    4.6264   -1.6336   -1.6507 C   0  0  0  0  0  0  0  0  0  0  0  0
    5.2186   -2.4761   -2.0381 H   0  0  0  0  0  0  0  0  0  0  0  0
    5.2582   -0.5023   -1.1103 C   0  0  0  0  0  0  0  0  0  0  0  0
    6.3561   -0.4479   -1.0719 H   0  0  0  0  0  0  0  0  0  0  0  0
    4.4842    0.5626   -0.6324 C   0  0  0  0  0  0  0  0  0  0  0  0
    4.9367    1.4827   -0.2323 H   0  0  0  0  0  0  0  0  0  0  0  0
    3.0752    0.5322   -0.6555 C   0  0  0  0  0  0  0  0  0  0  0  0
    2.3568    1.7704   -0.1384 C   0  0  0  0  0  0  0  0  0  0  0  0
    0.3865    2.8490    0.6571 C   0  0  0  0  0  0  0  0  0  0  0  0
    0.3513    3.6481   -0.1160 H   0  0  0  0  0  0  0  0  0  0  0  0
    0.9734    3.2940    1.4957 H   0  0  0  0  0  0  0  0  0  0  0  0
   -1.0377    2.4691    1.0789 C   0  0  0  0  0  0  0  0  0  0  0  0
   -1.4228    3.1225    1.8919 H   0  0  0  0  0  0  0  0  0  0  0  0
   -1.7365    2.5204    0.2263 H   0  0  0  0  0  0  0  0  0  0  0  0
   -0.3329    0.8894    2.8438 C   0  0  0  0  0  0  0  0  0  0  0  0
   -1.0229    1.1012    3.6878 H   0  0  0  0  0  0  0  0  0  0  0  0
    0.4820    1.6385    2.8809 H   0  0  0  0  0  0  0  0  0  0  0  0
    0.2420   -0.5104    2.9261 C   0  0  0  0  0  0  0  0  0  0  0  0
    0.8744   -0.6392    3.8308 H   0  0  0  0  0  0  0  0  0  0  0  0
   -0.5773   -1.2530    2.9850 H   0  0  0  0  0  0  0  0  0  0  0  0
    1.0814   -2.2324    1.3745 C   0  0  0  0  0  0  0  0  0  0  0  0
    1.4623   -2.8075    2.2477 H   0  0  0  0  0  0  0  0  0  0  0  0
    1.8222   -2.3516    0.5605 H   0  0  0  0  0  0  0  0  0  0  0  0
   -0.3163   -2.6992    0.9613 C   0  0  0  0  0  0  0  0  0  0  0  0
   -0.2432   -3.6281    0.3513 H   0  0  0  0  0  0  0  0  0  0  0  0
   -0.9321   -3.0084    1.8391 H   0  0  0  0  0  0  0  0  0  0  0  0
   -2.3213   -1.7843    0.0640 C   0  0  0  0  0  0  0  0  0  0  0  0
   -3.0741   -0.6502   -0.5626 C   0  0  0  0  0  0  0  0  0  0  0  0
   -4.4786   -0.7822   -0.6259 C   0  0  0  0  0  0  0  0  0  0  0  0
   -4.9003   -1.6940   -0.1754 H   0  0  0  0  0  0  0  0  0  0  0  0
   -5.2854    0.1754   -1.2444 C   0  0  0  0  0  0  0  0  0  0  0  0
   -6.3776    0.0491   -1.2780 H   0  0  0  0  0  0  0  0  0  0  0  0
   -4.6752    1.3004   -1.8354 C   0  0  0  0  0  0  0  0  0  0  0  0
   -5.2911    2.0648   -2.3356 H   0  0  0  0  0  0  0  0  0  0  0  0
   -3.2901    1.4618   -1.7882 C   0  0  0  0  0  0  0  0  0  0  0  0
   -2.7974    2.3297   -2.2524 H   0  0  0  0  0  0  0  0  0  0  0  0
   -2.4483    0.4974   -1.1546 C   0  0  0  0  0  0  0  0  0  0  0  0
    1.9418   -0.3593    1.7308 H   0  0  0  0  0  0  0  0  0  0  0  0
   -1.9809    0.6671    1.5674 H   0  0  0  0  0  0  0  0  0  0  0  0
  1 21  1  0  0  0  0
  2 51  1  0  0  0  0
  2 27  1  0  0  0  0
  3 50  1  0  0  0  0
  3 30  1  0  0  0  0
  4 36  1  0  0  0  0
  5 10  1  0  0  0  0
  6  5  1  0  0  0  0
  8 49  1  0  0  0  0
 10 19  1  0  0  0  0
 11 13  1  0  0  0  0
 11 10  2  0  0  0  0
 12 11  1  0  0  0  0
 13 15  2  0  0  0  0
 14 13  1  0  0  0  0
 15 16  1  0  0  0  0
 15 17  1  0  0  0  0
 17 18  1  0  0  0  0
 19 17  2  0  0  0  0
 19 20  1  0  0  0  0
 20  7  2  0  0  0  0
 20  1  1  0  0  0  0
 21 24  1  0  0  0  0
 21 23  1  0  0  0  0
 22 21  1  0  0  0  0
 24  2  1  0  0  0  0
 24 25  1  0  0  0  0
 26 24  1  0  0  0  0
 27 29  1  0  0  0  0
 27 30  1  0  0  0  0
 27 28  1  0  0  0  0
 30 32  1  0  0  0  0
 30 31  1  0  0  0  0
 33  3  1  0  0  0  0
 33 34  1  0  0  0  0
 35 33  1  0  0  0  0
 36 33  1  0  0  0  0
 36 38  1  0  0  0  0
 37 36  1  0  0  0  0
 39  4  1  0  0  0  0
 39  9  2  0  0  0  0
 40 39  1  0  0  0  0
 41 40  1  0  0  0  0
 41 42  1  0  0  0  0
 43 41  2  0  0  0  0
 44 43  1  0  0  0  0
 45 47  2  0  0  0  0
 45 43  1  0  0  0  0
 46 45  1  0  0  0  0
 47 49  1  0  0  0  0
 48 47  1  0  0  0  0
 49 40  2  0  0  0  0
M  CHG  1   8  -1
M  END
