2,6,7,8,9
q = -1.0

 61 63  0  0  1  0  0  0  0  0999 V2000
    5.0386   -0.0128   -0.5903 S   0  0  0  0  0  0  0  0  0  0  0  0
   -0.6504   -1.8892   -0.4304 O   0  5  0  0  0  0  0  0  0  0  0  0
    5.7813   -1.0870   -1.2721 O   0  0  0  0  0  0  0  0  0  0  0  0
    5.1598    1.4049   -0.9926 O   0  0  0  0  0  0  0  0  0  0  0  0
   -2.5214    2.0146    0.3300 N   0  0  0  0  0  0  0  0  0  0  0  0
   -2.4256   -0.3939    1.9967 N   0  0  0  0  0  0  0  0  0  0  0  0
   -3.3347   -2.1309   -0.0576 N   0  0  0  0  0  0  0  0  0  0  0  0
   -3.3747    0.1441   -1.7642 N   0  0  0  0  0  0  0  0  0  0  0  0
   -0.1951    0.7284   -0.2722 N   0  0  0  0  0  2  0  0  0  0  0  0
    5.5067   -0.0810    1.0462 N   0  0  0  0  0  0  0  0  0  0  0  0
   -2.7065    2.0452    1.7885 C   0  0  0  0  0  0  0  0  0  0  0  0
   -3.2902    0.7454    2.3424 C   0  0  0  0  0  0  0  0  0  0  0  0
   -2.9641   -1.7305    2.3215 C   0  0  0  0  0  0  0  0  0  0  0  0
   -3.9641   -2.1986    1.2588 C   0  0  0  0  0  0  0  0  0  0  0  0
   -4.1999   -2.1228   -1.2363 C   0  0  0  0  0  0  0  0  0  0  0  0
   -4.5861   -0.6848   -1.5937 C   0  0  0  0  0  0  0  0  0  0  0  0
   -3.6375    1.5964   -1.8406 C   0  0  0  0  0  0  0  0  0  0  0  0
   -3.7432    2.2312   -0.4498 C   0  0  0  0  0  0  0  0  0  0  0  0
   -1.3836    2.8357   -0.1099 C   0  0  0  0  0  0  0  0  0  0  0  0
   -0.0848    2.0498   -0.1740 C   0  0  0  0  0  0  0  0  0  0  0  0
    1.1906    2.6656   -0.2129 C   0  0  0  0  0  0  0  0  0  0  0  0
    2.3274    1.8797   -0.3635 C   0  0  0  0  0  0  0  0  0  0  0  0
    2.2243    0.4569   -0.4540 C   0  0  0  0  0  0  0  0  0  0  0  0
    3.2966   -0.4743   -0.6248 C   0  0  2  0  0  3  0  0  0  0  0  0
    3.0081   -1.8409   -0.7483 C   0  0  0  0  0  0  0  0  0  0  0  0
    1.6996   -2.3546   -0.6897 C   0  0  0  0  0  0  0  0  0  0  0  0
    0.5910   -1.5015   -0.5031 C   0  0  0  0  0  0  0  0  0  0  0  0
    0.8916   -0.0778   -0.4041 C   0  0  0  0  0  0  0  0  0  0  0  0
    5.6037   -1.4122    1.6272 C   0  0  0  0  0  0  0  0  0  0  0  0
    4.9957    0.9669    1.9135 C   0  0  0  0  0  0  0  0  0  0  0  0
   -3.3382    2.9057    2.1127 H   0  0  0  0  0  0  0  0  0  0  0  0
   -1.7078    2.2032    2.2468 H   0  0  0  0  0  0  0  0  0  0  0  0
   -3.4314    0.8450    3.4425 H   0  0  0  0  0  0  0  0  0  0  0  0
   -4.2979    0.5585    1.9164 H   0  0  0  0  0  0  0  0  0  0  0  0
   -1.5148   -0.2776    2.4610 H   0  0  0  0  0  0  0  0  0  0  0  0
   -3.4358   -1.7564    3.3285 H   0  0  0  0  0  0  0  0  0  0  0  0
   -2.1039   -2.4302    2.3377 H   0  0  0  0  0  0  0  0  0  0  0  0
   -4.3257   -3.2191    1.5206 H   0  0  0  0  0  0  0  0  0  0  0  0
   -4.8616   -1.5437    1.2571 H   0  0  0  0  0  0  0  0  0  0  0  0
   -2.5660   -2.8109   -0.1482 H   0  0  0  0  0  0  0  0  0  0  0  0
   -5.1188   -2.7371   -1.1073 H   0  0  0  0  0  0  0  0  0  0  0  0
   -3.6345   -2.5730   -2.0783 H   0  0  0  0  0  0  0  0  0  0  0  0
   -5.2285   -0.6681   -2.5017 H   0  0  0  0  0  0  0  0  0  0  0  0
   -5.1875   -0.2424   -0.7718 H   0  0  0  0  0  0  0  0  0  0  0  0
   -2.8970   -0.1519   -2.6271 H   0  0  0  0  0  0  0  0  0  0  0  0
   -4.5627    1.8149   -2.4181 H   0  0  0  0  0  0  0  0  0  0  0  0
   -2.8005    2.0590   -2.4009 H   0  0  0  0  0  0  0  0  0  0  0  0
   -3.9952    3.3131   -0.5596 H   0  0  0  0  0  0  0  0  0  0  0  0
   -4.5915    1.7748    0.1007 H   0  0  0  0  0  0  0  0  0  0  0  0
   -1.5934    3.2295   -1.1273 H   0  0  0  0  0  0  0  0  0  0  0  0
   -1.2563    3.7397    0.5288 H   0  0  0  0  0  0  0  0  0  0  0  0
    1.2764    3.7602   -0.1427 H   0  0  0  0  0  0  0  0  0  0  0  0
    3.3245    2.3359   -0.4396 H   0  0  0  0  0  0  0  0  0  0  0  0
    3.8510   -2.5268   -0.9206 H   0  0  0  0  0  0  0  0  0  0  0  0
    1.5219   -3.4342   -0.7986 H   0  0  0  0  0  0  0  0  0  0  0  0
    6.0772   -2.0940    0.8982 H   0  0  0  0  0  0  0  0  0  0  0  0
    4.6136   -1.8283    1.9367 H   0  0  0  0  0  0  0  0  0  0  0  0
    6.2544   -1.3594    2.5233 H   0  0  0  0  0  0  0  0  0  0  0  0
    3.9389    0.7959    2.2379 H   0  0  0  0  0  0  0  0  0  0  0  0
    5.0711    1.9413    1.3978 H   0  0  0  0  0  0  0  0  0  0  0  0
    5.6293    1.0130    2.8222 H   0  0  0  0  0  0  0  0  0  0  0  0
  1 10  1  0  0  0  0
  3  1  2  0  0  0  0
  4  1  2  0  0  0  0
  5 11  1  0  0  0  0
  6 13  1  0  0  0  0
  6 12  1  0  0  0  0
  6 35  1  0  0  0  0
  7 14  1  0  0  0  0
  8 16  1  0  0  0  0
  9 20  1  0  0  0  0
 10 29  1  0  0  0  0
 10 30  1  0  0  0  0
 11 31  1  0  0  0  0
 11 32  1  0  0  0  0
 11 12  1  0  0  0  0
 12 33  1  0  0  0  0
 13 37  1  0  0  0  0
 13 36  1  0  0  0  0
 14 38  1  0  0  0  0
 14 13  1  0  0  0  0
 15 41  1  0  0  0  0
 15  7  1  0  0  0  0
 16 15  1  0  0  0  0
 16 44  1  0  0  0  0
 17  8  1  0  0  0  0
 17 18  1  0  0  0  0
 18 49  1  0  0  0  0
 18  5  1  0  0  0  0
 19  5  1  0  0  0  0
 19 51  1  0  0  0  0
 20 19  1  0  0  0  0
 21 20  2  0  0  0  0
 21 52  1  0  0  0  0
 22 21  1  0  0  0  0
 23 28  1  0  0  0  0
 23 22  2  0  0  0  0
 24  1  1  1  0  0  0
 24 23  1  0  0  0  0
 25 26  2  0  0  0  0
 25 24  1  0  0  0  0
 26 27  1  0  0  0  0
 27  2  1  0  0  0  0
 27 28  2  0  0  0  0
 28  9  1  0  0  0  0
 29 57  1  0  0  0  0
 29 58  1  0  0  0  0
 30 59  1  0  0  0  0
 30 61  1  0  0  0  0
 34 12  1  0  0  0  0
 39 14  1  0  0  0  0
 40  7  1  0  0  0  0
 42 15  1  0  0  0  0
 43 16  1  0  0  0  0
 45  8  1  0  0  0  0
 46 17  1  0  0  0  0
 47 17  1  0  0  0  0
 48 18  1  0  0  0  0
 50 19  1  0  0  0  0
 53 22  1  0  0  0  0
 54 25  1  0  0  0  0
 55 26  1  0  0  0  0
 56 29  1  0  0  0  0
 60 30  1  0  0  0  0
M  CHG  1   2  -1
M  END
