1,3,4,5,6
q = -1.0

 43 43  0  0  0  0  0  0  0  0999 V2000
   -0.2456   -1.5621    0.7962 O   0  5  0  0  0  0  0  0  0  0  0  0
    0.7671   -3.5668    0.7299 O   0  0  0  0  0  0  0  0  0  0  0  0
   -1.8505    0.6702    0.9679 N   0  0  0  0  0  0  0  0  0  0  0  0
   -1.0969   -0.5928   -1.5416 N   0  0  0  0  0  0  0  0  0  0  0  0
    1.5942   -0.3780   -0.7686 N   0  0  0  0  0  0  0  0  0  0  0  0
   -0.0539    2.1063   -0.5444 N   0  0  0  0  0  0  0  0  0  0  0  0
   -2.9343   -0.3408    0.9639 C   0  0  0  0  0  0  0  0  0  0  0  0
   -3.8021    0.0606    1.5315 H   0  0  0  0  0  0  0  0  0  0  0  0
   -2.5440   -1.2242    1.5035 H   0  0  0  0  0  0  0  0  0  0  0  0
   -3.3705   -0.7403   -0.4432 C   0  0  0  0  0  0  0  0  0  0  0  0
   -4.2191   -1.4470   -0.3438 H   0  0  0  0  0  0  0  0  0  0  0  0
   -3.7859    0.1251   -1.0052 H   0  0  0  0  0  0  0  0  0  0  0  0
   -2.2873   -1.4438   -1.2482 C   0  0  0  0  0  0  0  0  0  0  0  0
   -1.9114   -2.3151   -0.6788 H   0  0  0  0  0  0  0  0  0  0  0  0
   -2.7036   -1.8154   -2.2100 H   0  0  0  0  0  0  0  0  0  0  0  0
   -0.0769   -1.3861   -2.2793 C   0  0  0  0  0  0  0  0  0  0  0  0
   -0.3712   -1.5437   -3.3389 H   0  0  0  0  0  0  0  0  0  0  0  0
   -0.0271   -2.3885   -1.8118 H   0  0  0  0  0  0  0  0  0  0  0  0
    1.2555   -0.6759   -2.1902 C   0  0  0  0  0  0  0  0  0  0  0  0
    2.0622   -1.2804   -2.6591 H   0  0  0  0  0  0  0  0  0  0  0  0
    1.2068    0.2824   -2.7427 H   0  0  0  0  0  0  0  0  0  0  0  0
    2.6978    0.6257   -0.6990 C   0  0  0  0  0  0  0  0  0  0  0  0
    3.5785    0.2040   -1.2324 H   0  0  0  0  0  0  0  0  0  0  0  0
    2.9691    0.7231    0.3688 H   0  0  0  0  0  0  0  0  0  0  0  0
    2.3612    2.0052   -1.2577 C   0  0  0  0  0  0  0  0  0  0  0  0
    3.2894    2.6093   -1.1980 H   0  0  0  0  0  0  0  0  0  0  0  0
    2.1209    1.9710   -2.3426 H   0  0  0  0  0  0  0  0  0  0  0  0
    1.2859    2.7506   -0.4811 C   0  0  0  0  0  0  0  0  0  0  0  0
    1.5560    2.7805    0.5921 H   0  0  0  0  0  0  0  0  0  0  0  0
    1.2011    3.7968   -0.8478 H   0  0  0  0  0  0  0  0  0  0  0  0
   -1.0244    2.8524    0.3027 C   0  0  0  0  0  0  0  0  0  0  0  0
   -0.5303    3.0088    1.2816 H   0  0  0  0  0  0  0  0  0  0  0  0
   -1.2619    3.8479   -0.1285 H   0  0  0  0  0  0  0  0  0  0  0  0
   -2.2660    2.0045    0.4795 C   0  0  0  0  0  0  0  0  0  0  0  0
   -2.9840    2.4843    1.1789 H   0  0  0  0  0  0  0  0  0  0  0  0
   -2.7967    1.8797   -0.4866 H   0  0  0  0  0  0  0  0  0  0  0  0
    1.9896   -1.6244   -0.0436 C   0  0  0  0  0  0  0  0  0  0  0  0
    2.6258   -1.3433    0.8193 H   0  0  0  0  0  0  0  0  0  0  0  0
    2.5883   -2.2965   -0.6918 H   0  0  0  0  0  0  0  0  0  0  0  0
    0.7712   -2.3676    0.5285 C   0  0  0  0  0  0  0  0  0  0  0  0
   -1.4835    0.7756    1.9296 H   0  0  0  0  0  0  0  0  0  0  0  0
   -1.4074    0.1774   -2.1559 H   0  0  0  0  0  0  0  0  0  0  0  0
   -0.3802    2.1562   -1.5234 H   0  0  0  0  0  0  0  0  0  0  0  0
  3 41  1  0  0  0  0
  4 13  1  0  0  0  0
  5 22  1  0  0  0  0
  5 37  1  0  0  0  0
  6 28  1  0  0  0  0
  6 31  1  0  0  0  0
  7  3  1  0  0  0  0
  7  9  1  0  0  0  0
  7  8  1  0  0  0  0
 10 11  1  0  0  0  0
 10  7  1  0  0  0  0
 12 10  1  0  0  0  0
 13 14  1  0  0  0  0
 13 10  1  0  0  0  0
 15 13  1  0  0  0  0
 16 19  1  0  0  0  0
 16 18  1  0  0  0  0
 16  4  1  0  0  0  0
 17 16  1  0  0  0  0
 19  5  1  0  0  0  0
 20 19  1  0  0  0  0
 21 19  1  0  0  0  0
 22 24  1  0  0  0  0
 23 22  1  0  0  0  0
 25 26  1  0  0  0  0
 25 22  1  0  0  0  0
 25 28  1  0  0  0  0
 27 25  1  0  0  0  0
 28 29  1  0  0  0  0
 30 28  1  0  0  0  0
 31 34  1  0  0  0  0
 31 32  1  0  0  0  0
 33 31  1  0  0  0  0
 34  3  1  0  0  0  0
 34 35  1  0  0  0  0
 36 34  1  0  0  0  0
 37 40  1  0  0  0  0
 37 38  1  0  0  0  0
 39 37  1  0  0  0  0
 40  2  2  0  0  0  0
 40  1  1  0  0  0  0
 42  4  1  0  0  0  0
 43  6  1  0  0  0  0
M  CHG  1   1  -1
M  END
