1,3,4,5,6
q = -1.0, confidence = 0.052

 42 44  0  0  1  0  0  0  0  0999 V2000
    0.0002    0.9142   -1.9410 O   0  5  0  0  0  0  0  0  0  0  0  0
    0.0006    3.1337   -2.3813 O   0  0  0  0  0  0  0  0  0  0  0  0
   -0.0002    1.2216    0.5667 N   0  0  0  0  0  2  0  0  0  0  0  0
   -1.9148   -0.4513   -0.3790 N   0  0  0  0  0  2  0  0  0  0  0  0
    1.9151   -0.4509   -0.3785 N   0  0  0  0  0  2  0  0  0  0  0  0
   -0.0000   -1.2944    1.2777 N   0  0  0  0  0  0  0  0  0  0  0  0
   -0.0005   -0.2966    2.4122 C   0  0  0  0  0  0  0  0  0  0  0  0
   -0.0007    1.1259    1.9065 C   0  0  1  0  0  3  0  0  0  0  0  0
   -0.0012    2.2993    2.6754 C   0  0  0  0  0  0  0  0  0  0  0  0
   -0.0012    3.5419    2.0142 C   0  0  0  0  0  0  0  0  0  0  0  0
   -0.0006    3.5985    0.6093 C   0  0  0  0  0  0  0  0  0  0  0  0
   -0.0002    2.3923   -0.0951 C   0  0  0  0  0  0  0  0  0  0  0  0
    0.0002    2.1963   -1.6012 C   0  0  0  0  0  0  0  0  0  0  0  0
   -1.2494   -2.1059    1.2372 C   0  0  0  0  0  0  0  0  0  0  0  0
   -2.3464   -1.3022    0.5905 C   0  0  2  0  0  3  0  0  0  0  0  0
   -3.7117   -1.4780    0.8369 C   0  0  0  0  0  0  0  0  0  0  0  0
   -4.6401   -0.7855    0.0438 C   0  0  0  0  0  0  0  0  0  0  0  0
   -4.1744    0.0557   -0.9758 C   0  0  0  0  0  0  0  0  0  0  0  0
   -2.7946    0.2055   -1.1584 C   0  0  0  0  0  0  0  0  0  0  0  0
    1.2497   -2.1054    1.2379 C   0  0  0  0  0  0  0  0  0  0  0  0
    2.3466   -1.3015    0.5912 C   0  0  1  0  0  3  0  0  0  0  0  0
    3.7119   -1.4771    0.8379 C   0  0  0  0  0  0  0  0  0  0  0  0
    4.6403   -0.7847    0.0447 C   0  0  0  0  0  0  0  0  0  0  0  0
    4.1746    0.0561   -0.9753 C   0  0  0  0  0  0  0  0  0  0  0  0
    2.7949    0.2056   -1.1582 C   0  0  0  0  0  0  0  0  0  0  0  0
    0.8877   -0.4741    3.0529 H   0  0  0  0  0  0  0  0  0  0  0  0
   -0.8890   -0.4745    3.0525 H   0  0  0  0  0  0  0  0  0  0  0  0
   -0.0016    2.2456    3.7738 H   0  0  0  0  0  0  0  0  0  0  0  0
   -0.0016    4.4704    2.6042 H   0  0  0  0  0  0  0  0  0  0  0  0
   -0.0006    4.5434    0.0465 H   0  0  0  0  0  0  0  0  0  0  0  0
   -1.5305   -2.4937    2.2387 H   0  0  0  0  0  0  0  0  0  0  0  0
   -1.0448   -2.9575    0.5526 H   0  0  0  0  0  0  0  0  0  0  0  0
   -4.0413   -2.1642    1.6303 H   0  0  0  0  0  0  0  0  0  0  0  0
   -5.7191   -0.9125    0.2155 H   0  0  0  0  0  0  0  0  0  0  0  0
   -4.8682    0.5982   -1.6331 H   0  0  0  0  0  0  0  0  0  0  0  0
   -2.3623    0.8360   -1.9492 H   0  0  0  0  0  0  0  0  0  0  0  0
    1.0456   -2.9572    0.5534 H   0  0  0  0  0  0  0  0  0  0  0  0
    1.5305   -2.4928    2.2395 H   0  0  0  0  0  0  0  0  0  0  0  0
    4.0415   -2.1630    1.6316 H   0  0  0  0  0  0  0  0  0  0  0  0
    5.7193   -0.9115    0.2166 H   0  0  0  0  0  0  0  0  0  0  0  0
    4.8685    0.5984   -1.6327 H   0  0  0  0  0  0  0  0  0  0  0  0
    2.3626    0.8359   -1.9492 H   0  0  0  0  0  0  0  0  0  0  0  0
  1 13  1  0  0  0  0
  2 13  2  0  0  0  0
  3  8  1  0  0  0  0
  4 15  1  0  0  0  0
  5 21  1  0  0  0  0
  6  7  1  0  0  0  0
  7 27  1  0  0  0  0
  7 26  1  0  0  0  0
  8  7  1  1  0  0  0
  8  9  1  0  0  0  0
  9 28  1  0  0  0  0
 10 29  1  0  0  0  0
 10  9  2  0  0  0  0
 11 10  1  0  0  0  0
 12  3  1  0  0  0  0
 12 11  2  0  0  0  0
 13 12  1  0  0  0  0
 14  6  1  0  0  0  0
 14 31  1  0  0  0  0
 15 16  1  0  0  0  0
 15 14  1  6  0  0  0
 16 33  1  0  0  0  0
 17 34  1  0  0  0  0
 17 16  2  0  0  0  0
 18 17  1  0  0  0  0
 19 18  2  0  0  0  0
 19  4  1  0  0  0  0
 20  6  1  0  0  0  0
 20 38  1  0  0  0  0
 21 22  1  0  0  0  0
 21 20  1  6  0  0  0
 22 39  1  0  0  0  0
 23 40  1  0  0  0  0
 23 22  2  0  0  0  0
 24 23  1  0  0  0  0
 25 24  2  0  0  0  0
 25  5  1  0  0  0  0
 30 11  1  0  0  0  0
 32 14  1  0  0  0  0
 35 18  1  0  0  0  0
 36 19  1  0  0  0  0
 37 20  1  0  0  0  0
 41 24  1  0  0  0  0
 42 25  1  0  0  0  0
M  CHG  1   1  -1
M  END
