1,2,3,4,7
q = -1.0

 41 40  0  0  1  0  0  0  0  0999 V2000
   -1.3749   -1.3176   -0.2344 O   0  0  0  0  0  1  0  0  0  0  0  0
   -0.6223    1.0960   -0.0360 N   0  0  0  0  0  2  0  0  0  0  0  0
    1.9885    0.6490    0.0379 N   0  0  0  0  0  0  0  0  0  0  0  0
    0.4452   -0.5430    1.9722 N   0  0  0  0  0  0  0  0  0  0  0  0
   -0.0168    0.2179    2.4963 H   0  0  0  0  0  0  0  0  0  0  0  0
    0.0296   -1.4204    2.3216 H   0  0  0  0  0  0  0  0  0  0  0  0
    0.6603   -0.5889   -1.9871 N   0  0  0  0  0  0  0  0  0  0  0  0
    0.4550   -1.5611   -2.2619 H   0  0  0  0  0  0  0  0  0  0  0  0
    0.0050   -0.0233   -2.5487 H   0  0  0  0  0  0  0  0  0  0  0  0
   -3.4365   -0.6409   -1.2585 C   0  0  0  0  0  0  0  0  0  0  0  0
   -4.3555   -0.0265   -1.1784 H   0  0  0  0  0  0  0  0  0  0  0  0
   -3.7374   -1.7065   -1.2806 H   0  0  0  0  0  0  0  0  0  0  0  0
   -2.9341   -0.4068   -2.2184 H   0  0  0  0  0  0  0  0  0  0  0  0
   -3.1890   -0.7074    1.2592 C   0  0  0  0  0  0  0  0  0  0  0  0
   -4.0770   -0.0613    1.4114 H   0  0  0  0  0  0  0  0  0  0  0  0
   -2.4974   -0.5556    2.1129 H   0  0  0  0  0  0  0  0  0  0  0  0
   -3.5225   -1.7638    1.2709 H   0  0  0  0  0  0  0  0  0  0  0  0
   -2.4623   -0.4328   -0.0808 C   0  0  0  0  0  0  0  0  0  0  0  0
   -1.9366    1.0155   -0.0542 C   0  0  1  0  0  3  0  0  0  0  0  0
   -2.8547    2.1914    0.0651 C   0  0  0  0  0  0  0  0  0  0  0  0
   -3.7782    2.0357   -0.5257 H   0  0  0  0  0  0  0  0  0  0  0  0
   -2.3856    3.1355   -0.2730 H   0  0  0  0  0  0  0  0  0  0  0  0
   -3.1772    2.3444    1.1195 H   0  0  0  0  0  0  0  0  0  0  0  0
    0.1618    2.3195    0.1518 C   0  0  0  0  0  0  0  0  0  0  0  0
    0.1791    2.5782    1.2352 H   0  0  0  0  0  0  0  0  0  0  0  0
   -0.2661    3.2025   -0.3689 H   0  0  0  0  0  0  0  0  0  0  0  0
    1.5704    2.0292   -0.3707 C   0  0  0  0  0  0  0  0  0  0  0  0
    1.5572    2.0741   -1.4752 H   0  0  0  0  0  0  0  0  0  0  0  0
    2.3041    2.7916   -0.0287 H   0  0  0  0  0  0  0  0  0  0  0  0
    2.5227    0.6226    1.4329 C   0  0  0  0  0  0  0  0  0  0  0  0
    2.2425    1.5780    1.9224 H   0  0  0  0  0  0  0  0  0  0  0  0
    3.6330    0.5779    1.4464 H   0  0  0  0  0  0  0  0  0  0  0  0
    1.9106   -0.5416    2.2094 C   0  0  0  0  0  0  0  0  0  0  0  0
    2.2942   -1.5123    1.8399 H   0  0  0  0  0  0  0  0  0  0  0  0
    2.1770   -0.4662    3.2872 H   0  0  0  0  0  0  0  0  0  0  0  0
    2.8578   -0.0064   -0.9678 C   0  0  0  0  0  0  0  0  0  0  0  0
    3.1637   -0.9817   -0.5398 H   0  0  0  0  0  0  0  0  0  0  0  0
    3.7905    0.5742   -1.1696 H   0  0  0  0  0  0  0  0  0  0  0  0
    2.0778   -0.2154   -2.2802 C   0  0  0  0  0  0  0  0  0  0  0  0
    2.0894    0.7080   -2.8914 H   0  0  0  0  0  0  0  0  0  0  0  0
    2.5860   -0.9874   -2.8923 H   0  0  0  0  0  0  0  0  0  0  0  0
  1 18  1  0  0  0  0
  2 24  1  0  0  0  0
  3 30  1  0  0  0  0
  4 33  1  0  0  0  0
  4  6  1  0  0  0  0
  4  5  1  0  0  0  0
  8  7  1  0  0  0  0
  9  7  1  0  0  0  0
 10 11  1  0  0  0  0
 10 18  1  0  0  0  0
 12 10  1  0  0  0  0
 13 10  1  0  0  0  0
 14 17  1  0  0  0  0
 14 15  1  0  0  0  0
 14 16  1  0  0  0  0
 18 19  1  0  0  0  0
 18 14  1  0  0  0  0
 19  2  1  1  0  0  0
 19 20  1  0  0  0  0
 20 23  1  0  0  0  0
 21 20  1  0  0  0  0
 22 20  1  0  0  0  0
 24 25  1  0  0  0  0
 26 24  1  0  0  0  0
 27 29  1  0  0  0  0
 27  3  1  0  0  0  0
 27 24  1  0  0  0  0
 28 27  1  0  0  0  0
 30 32  1  0  0  0  0
 30 31  1  0  0  0  0
 30 33  1  0  0  0  0
 33 35  1  0  0  0  0
 34 33  1  0  0  0  0
 36 37  1  0  0  0  0
 36  3  1  0  0  0  0
 38 36  1  0  0  0  0
 39  7  1  0  0  0  0
 39 36  1  0  0  0  0
 40 39  1  0  0  0  0
 41 39  1  0  0  0  0
M  END
