1,2,3,4,5
q = -1.0

 39 38  0  0  1  0  0  0  0  0999 V2000
    1.2840   -1.5273    0.3908 O   0  5  0  0  0  0  0  0  0  0  0  0
   -1.8733    0.6327   -0.0823 N   0  0  0  0  0  0  0  0  0  0  0  0
   -1.3581   -2.0540    0.0751 N   0  0  0  0  0  0  0  0  0  0  0  0
   -0.2822   -0.0743    2.0176 N   0  0  0  0  0  0  0  0  0  0  0  0
    0.7165    1.2108   -0.1889 N   0  0  0  0  0  2  0  0  0  0  0  0
   -2.8870   -0.3028   -0.6585 C   0  0  0  0  0  0  0  0  0  0  0  0
   -2.7832   -1.6481    0.0581 C   0  0  0  0  0  0  0  0  0  0  0  0
   -2.2753    1.1010    1.2857 C   0  0  0  0  0  0  0  0  0  0  0  0
   -1.0783    1.1551    2.2302 C   0  0  0  0  0  0  0  0  0  0  0  0
   -1.5135    1.7518   -1.0007 C   0  0  0  0  0  0  0  0  0  0  0  0
   -0.1479    2.3164   -0.6109 C   0  0  0  0  0  0  0  0  0  0  0  0
    2.0376    1.3332   -0.1261 C   0  0  1  0  0  3  0  0  0  0  0  0
    2.8939    0.2414    0.1921 C   0  0  0  0  0  0  0  0  0  0  0  0
    2.5064   -1.0924    0.3795 C   0  0  0  0  0  0  0  0  0  0  0  0
    2.6692    2.6716   -0.4244 C   0  0  0  0  0  0  0  0  0  0  0  0
    3.5418   -2.1694    0.5768 C   0  0  0  0  0  0  0  0  0  0  0  0
   -2.6220   -0.4351   -1.7252 H   0  0  0  0  0  0  0  0  0  0  0  0
   -3.9128    0.1202   -0.5912 H   0  0  0  0  0  0  0  0  0  0  0  0
   -3.4301   -2.3979   -0.4438 H   0  0  0  0  0  0  0  0  0  0  0  0
   -3.1409   -1.5774    1.1060 H   0  0  0  0  0  0  0  0  0  0  0  0
   -1.0685   -2.4200   -0.8521 H   0  0  0  0  0  0  0  0  0  0  0  0
   -1.1586   -2.7861    0.7717 H   0  0  0  0  0  0  0  0  0  0  0  0
   -3.0223    0.3876    1.6852 H   0  0  0  0  0  0  0  0  0  0  0  0
   -2.7823    2.0863    1.2212 H   0  0  0  0  0  0  0  0  0  0  0  0
   -1.4181    1.2626    3.2817 H   0  0  0  0  0  0  0  0  0  0  0  0
   -0.4247    2.0162    2.0067 H   0  0  0  0  0  0  0  0  0  0  0  0
   -0.6704   -0.8754    2.5379 H   0  0  0  0  0  0  0  0  0  0  0  0
    0.6877    0.0400    2.3490 H   0  0  0  0  0  0  0  0  0  0  0  0
   -2.3016    2.5352   -0.9982 H   0  0  0  0  0  0  0  0  0  0  0  0
   -1.4387    1.3066   -2.0097 H   0  0  0  0  0  0  0  0  0  0  0  0
   -0.2405    3.0799    0.1971 H   0  0  0  0  0  0  0  0  0  0  0  0
    0.2713    2.8527   -1.4881 H   0  0  0  0  0  0  0  0  0  0  0  0
    2.2049    3.4897    0.1626 H   0  0  0  0  0  0  0  0  0  0  0  0
    2.5404    2.9279   -1.4975 H   0  0  0  0  0  0  0  0  0  0  0  0
    3.7516    2.6567   -0.2090 H   0  0  0  0  0  0  0  0  0  0  0  0
    3.9693    0.4548    0.2254 H   0  0  0  0  0  0  0  0  0  0  0  0
    4.5500   -1.7525    0.7493 H   0  0  0  0  0  0  0  0  0  0  0  0
    3.2594   -2.8249    1.4243 H   0  0  0  0  0  0  0  0  0  0  0  0
    3.5716   -2.8092   -0.3299 H   0  0  0  0  0  0  0  0  0  0  0  0
  2  8  1  0  0  0  0
  3 22  1  0  0  0  0
  4  9  1  0  0  0  0
  4 28  1  0  0  0  0
  4 27  1  0  0  0  0
  6 18  1  0  0  0  0
  6  2  1  0  0  0  0
  6  7  1  0  0  0  0
  7  3  1  0  0  0  0
  7 20  1  0  0  0  0
  8 23  1  0  0  0  0
  8  9  1  0  0  0  0
  9 25  1  0  0  0  0
 10 29  1  0  0  0  0
 10 11  1  0  0  0  0
 10  2  1  0  0  0  0
 11  5  1  0  0  0  0
 11 31  1  0  0  0  0
 12  5  1  6  0  0  0
 12 13  1  0  0  0  0
 13 36  1  0  0  0  0
 13 14  2  0  0  0  0
 14  1  1  0  0  0  0
 14 16  1  0  0  0  0
 15 35  1  0  0  0  0
 15 12  1  0  0  0  0
 15 33  1  0  0  0  0
 16 37  1  0  0  0  0
 16 38  1  0  0  0  0
 17  6  1  0  0  0  0
 19  7  1  0  0  0  0
 21  3  1  0  0  0  0
 24  8  1  0  0  0  0
 26  9  1  0  0  0  0
 30 10  1  0  0  0  0
 32 11  1  0  0  0  0
 34 15  1  0  0  0  0
 39 16  1  0  0  0  0
M  CHG  1   1  -1
M  END
