1,2,3,4
q = 0.0, confidence = 0.994

 50 53  0  0  1  0  0  0  0  0999 V2000
   -0.0496    1.8786   -0.2430 N   0  0  0  0  0  2  0  0  0  0  0  0
    2.0616    0.0536   -0.5769 N   0  0  0  0  0  0  0  0  0  0  0  0
    0.0091   -0.7216    1.3377 N   0  0  0  0  0  0  0  0  0  0  0  0
   -2.1908   -0.5093   -0.3104 N   0  0  0  0  0  2  0  0  0  0  0  0
   -1.0902    2.6441    0.1529 C   0  0  0  0  0  3  0  0  0  0  0  0
   -2.0882    2.1867    0.0685 H   0  0  0  0  0  0  0  0  0  0  0  0
   -0.9211    3.9409    0.6486 C   0  0  0  0  0  0  0  0  0  0  0  0
   -1.7980    4.5300    0.9517 H   0  0  0  0  0  0  0  0  0  0  0  0
    0.3788    4.4575    0.7535 C   0  0  0  0  0  0  0  0  0  0  0  0
    0.5506    5.4692    1.1498 H   0  0  0  0  0  0  0  0  0  0  0  0
    1.4593    3.6641    0.3414 C   0  0  0  0  0  0  0  0  0  0  0  0
    2.4913    4.0388    0.4027 H   0  0  0  0  0  0  0  0  0  0  0  0
    1.2114    2.3809   -0.1682 C   0  0  0  0  0  0  0  0  0  0  0  0
    2.3027    1.5140   -0.7410 C   0  0  0  0  0  0  0  0  0  0  0  0
    2.3308    1.7073   -1.8348 H   0  0  0  0  0  0  0  0  0  0  0  0
    3.2964    1.8100   -0.3357 H   0  0  0  0  0  0  0  0  0  0  0  0
    2.9439   -0.7036   -1.5562 C   0  0  0  0  0  0  0  0  0  0  0  0
    3.7718   -0.0345   -1.8759 H   0  0  0  0  0  0  0  0  0  0  0  0
    2.3550   -0.9827   -2.4478 H   0  0  0  0  0  0  0  0  0  0  0  0
    3.5133   -1.8771   -0.7730 C   0  0  0  0  0  0  0  0  0  0  0  0
    4.4424   -2.2670   -1.2299 H   0  0  0  0  0  0  0  0  0  0  0  0
    2.7884   -2.7151   -0.7323 H   0  0  0  0  0  0  0  0  0  0  0  0
    3.7349   -1.2532    0.6095 C   0  0  0  0  0  0  0  0  0  0  0  0
    3.9069   -1.9940    1.4139 H   0  0  0  0  0  0  0  0  0  0  0  0
    4.6166   -0.5804    0.5899 H   0  0  0  0  0  0  0  0  0  0  0  0
    2.4467   -0.4409    0.8235 C   0  0  2  0  0  0  0  0  0  0  0  0
    2.6216    0.4541    1.4550 H   0  0  0  0  0  0  0  0  0  0  0  0
    1.3670   -1.3226    1.5031 C   0  0  1  0  0  0  0  0  0  0  0  0
    1.3612   -2.3187    1.0193 H   0  0  0  0  0  0  0  0  0  0  0  0
    1.5890   -1.4066    3.0344 C   0  0  0  0  0  0  0  0  0  0  0  0
    2.6518   -1.2484    3.3008 H   0  0  0  0  0  0  0  0  0  0  0  0
    1.3211   -2.4145    3.4042 H   0  0  0  0  0  0  0  0  0  0  0  0
    0.6542   -0.3209    3.6325 C   0  0  0  0  0  0  0  0  0  0  0  0
   -0.0822   -0.7723    4.3254 H   0  0  0  0  0  0  0  0  0  0  0  0
    1.2036    0.4423    4.2155 H   0  0  0  0  0  0  0  0  0  0  0  0
   -0.0392    0.3181    2.4116 C   0  0  0  0  0  0  0  0  0  0  0  0
   -1.0875    0.6284    2.5824 H   0  0  0  0  0  0  0  0  0  0  0  0
    0.5147    1.2100    2.0691 H   0  0  0  0  0  0  0  0  0  0  0  0
   -1.1196   -1.6837    1.5256 C   0  0  0  0  0  0  0  0  0  0  0  0
   -1.2841   -1.9346    2.5950 H   0  0  0  0  0  0  0  0  0  0  0  0
   -0.8536   -2.6222    0.9931 H   0  0  0  0  0  0  0  0  0  0  0  0
   -2.3738   -1.1197    0.9079 C   0  0  2  0  0  3  0  0  0  0  0  0
   -3.6419   -1.2555    1.4796 C   0  0  0  0  0  0  0  0  0  0  0  0
   -3.7400   -1.7396    2.4624 H   0  0  0  0  0  0  0  0  0  0  0  0
   -4.7725   -0.7945    0.7860 C   0  0  0  0  0  0  0  0  0  0  0  0
   -5.7781   -0.9032    1.2162 H   0  0  0  0  0  0  0  0  0  0  0  0
   -4.5839   -0.2000   -0.4716 C   0  0  0  0  0  0  0  0  0  0  0  0
   -5.4346    0.1660   -1.0640 H   0  0  0  0  0  0  0  0  0  0  0  0
   -3.2910   -0.0677   -0.9821 C   0  0  0  0  0  0  0  0  0  0  0  0
   -3.1008    0.3919   -1.9634 H   0  0  0  0  0  0  0  0  0  0  0  0
  1 13  1  0  0  0  0
  1  5  1  0  0  0  0
  2 26  1  0  0  0  0
  3 28  1  0  0  0  0
  3 39  1  0  0  0  0
  3 36  1  0  0  0  0
  4 42  1  0  0  0  0
  5  7  1  0  0  0  0
  6  5  1  0  0  0  0
  7  9  2  0  0  0  0
  7  8  1  0  0  0  0
  9 10  1  0  0  0  0
 11 12  1  0  0  0  0
 11  9  1  0  0  0  0
 13 11  2  0  0  0  0
 14  2  1  0  0  0  0
 14 16  1  0  0  0  0
 14 13  1  0  0  0  0
 15 14  1  0  0  0  0
 17 20  1  0  0  0  0
 17  2  1  0  0  0  0
 18 17  1  0  0  0  0
 19 17  1  0  0  0  0
 20 22  1  0  0  0  0
 20 23  1  0  0  0  0
 21 20  1  0  0  0  0
 23 26  1  0  0  0  0
 23 24  1  0  0  0  0
 25 23  1  0  0  0  0
 26 27  1  1  0  0  0
 26 28  1  0  0  0  0
 28 29  1  6  0  0  0
 28 30  1  0  0  0  0
 30 31  1  0  0  0  0
 30 32  1  0  0  0  0
 30 33  1  0  0  0  0
 33 35  1  0  0  0  0
 33 34  1  0  0  0  0
 36 37  1  0  0  0  0
 36 33  1  0  0  0  0
 38 36  1  0  0  0  0
 39 40  1  0  0  0  0
 41 39  1  0  0  0  0
 42 43  1  0  0  0  0
 42 39  1  6  0  0  0
 43 44  1  0  0  0  0
 45 46  1  0  0  0  0
 45 43  2  0  0  0  0
 47 45  1  0  0  0  0
 48 47  1  0  0  0  0
 49 47  2  0  0  0  0
 49  4  1  0  0  0  0
 50 49  1  0  0  0  0
M  END
