27,28,29,30
q = -1.0, confidence = 0.364

 79 86  0  0  1  0  0  0  0  0999 V2000
    1.7951   -6.2307    0.0003 Br  0  0  0  0  0  0  0  0  0  0  0  0
    4.7160   -4.3623    0.0009 Br  0  0  0  0  0  0  0  0  0  0  0  0
    5.3824    1.9340   -0.0013 Br  0  0  0  0  0  0  0  0  0  0  0  0
    3.1128    4.4341   -0.0008 Br  0  0  0  0  0  0  0  0  0  0  0  0
   -3.1131    4.4339    0.0008 Br  0  0  0  0  0  0  0  0  0  0  0  0
   -5.3826    1.9335    0.0003 Br  0  0  0  0  0  0  0  0  0  0  0  0
   -4.7156   -4.3627   -0.0003 Br  0  0  0  0  0  0  0  0  0  0  0  0
   -1.7947   -6.2309   -0.0007 Br  0  0  0  0  0  0  0  0  0  0  0  0
    9.4519   -1.7515    0.0007 S   0  0  0  0  0  0  0  0  0  0  0  0
   -0.0003    8.7845    0.0001 S   0  0  0  0  0  0  0  0  0  0  0  0
   -9.4518   -1.7518    0.0004 S   0  0  0  0  0  0  0  0  0  0  0  0
    9.3566   -2.9086    1.1605 F   0  0  0  0  0  0  0  0  0  0  0  0
    9.3567   -2.9097   -1.1581 F   0  0  0  0  0  0  0  0  0  0  0  0
   11.0702   -1.9652    0.0009 F   0  0  0  0  0  0  0  0  0  0  0  0
    9.6605   -0.6094   -1.1593 F   0  0  0  0  0  0  0  0  0  0  0  0
    9.6603   -0.6083    1.1596 F   0  0  0  0  0  0  0  0  0  0  0  0
    1.1602    8.8416    1.1592 F   0  0  0  0  0  0  0  0  0  0  0  0
    1.1596    8.8417   -1.1596 F   0  0  0  0  0  0  0  0  0  0  0  0
   -0.0004   10.4168    0.0002 F   0  0  0  0  0  0  0  0  0  0  0  0
   -1.1609    8.8416   -1.1589 F   0  0  0  0  0  0  0  0  0  0  0  0
   -1.1602    8.8415    1.1599 F   0  0  0  0  0  0  0  0  0  0  0  0
   -9.6604   -0.6091   -1.1588 F   0  0  0  0  0  0  0  0  0  0  0  0
   -9.6602   -0.6094    1.1600 F   0  0  0  0  0  0  0  0  0  0  0  0
  -11.0701   -1.9655    0.0006 F   0  0  0  0  0  0  0  0  0  0  0  0
   -9.3567   -2.9093   -1.1591 F   0  0  0  0  0  0  0  0  0  0  0  0
   -9.3564   -2.9097    1.1596 F   0  0  0  0  0  0  0  0  0  0  0  0
    1.2653   -2.1946   -0.0006 N   0  0  0  0  0  2  0  0  0  0  0  0
    1.4791    0.6636   -0.0001 N   0  0  0  0  0  2  0  0  0  0  0  0
   -1.4791    0.6635   -0.0002 N   0  0  0  0  0  0  0  0  0  0  0  0
   -1.2651   -2.1947   -0.0006 N   0  0  0  0  0  2  0  0  0  0  0  0
    0.7158   -3.4647   -0.0005 C   0  0  0  0  0  0  0  0  0  0  0  0
    1.8309   -4.3651   -0.0000 C   0  0  2  0  0  3  0  0  0  0  0  0
    3.0089   -3.5954    0.0002 C   0  0  0  0  0  0  0  0  0  0  0  0
    2.6364   -2.1906   -0.0002 C   0  0  0  0  0  0  0  0  0  0  0  0
    3.3901   -0.9840   -0.0002 C   0  0  0  0  0  0  0  0  0  0  0  0
    2.8351    0.3281   -0.0003 C   0  0  0  0  0  0  0  0  0  0  0  0
    3.5391    1.6016   -0.0006 C   0  0  0  0  0  0  0  0  0  0  0  0
    2.6013    2.6308   -0.0005 C   0  0  0  0  0  0  0  0  0  0  0  0
    1.2726    2.0341   -0.0002 C   0  0  0  0  0  0  0  0  0  0  0  0
   -0.0001    2.6731   -0.0000 C   0  0  0  0  0  0  0  0  0  0  0  0
   -1.2727    2.0340    0.0000 C   0  0  0  0  0  3  0  0  0  0  0  0
   -2.6015    2.6306    0.0003 C   0  0  0  0  0  0  0  0  0  0  0  0
   -3.5392    1.6013    0.0002 C   0  0  0  0  0  0  0  0  0  0  0  0
   -2.8351    0.3279   -0.0001 C   0  0  0  0  0  0  0  0  0  0  0  0
   -3.3901   -0.9842   -0.0002 C   0  0  0  0  0  0  0  0  0  0  0  0
   -2.6363   -2.1908   -0.0004 C   0  0  0  0  0  0  0  0  0  0  0  0
   -3.0086   -3.5957   -0.0004 C   0  0  0  0  0  0  0  0  0  0  0  0
   -1.8306   -4.3653   -0.0006 C   0  0  0  0  0  0  0  0  0  0  0  0
   -0.7155   -3.4647   -0.0006 C   0  0  0  0  0  0  0  0  0  0  0  0
    4.8771   -1.1429    0.0000 C   0  0  0  0  0  0  0  0  0  0  0  0
    5.5796   -1.2428   -1.2153 C   0  0  0  0  0  0  0  0  0  0  0  0
    5.0324   -1.1743   -2.1666 H   0  0  0  0  0  0  0  0  0  0  0  0
    6.9666   -1.4255   -1.2243 C   0  0  0  0  0  0  0  0  0  0  0  0
    7.5149   -1.5012   -2.1714 H   0  0  0  0  0  0  0  0  0  0  0  0
    7.6398   -1.5118    0.0004 C   0  0  0  0  0  0  0  0  0  0  0  0
    6.9664   -1.4242    1.2250 C   0  0  0  0  0  0  0  0  0  0  0  0
    7.5146   -1.4989    2.1722 H   0  0  0  0  0  0  0  0  0  0  0  0
    5.5794   -1.2415    1.2155 C   0  0  0  0  0  0  0  0  0  0  0  0
    5.0321   -1.1719    2.1667 H   0  0  0  0  0  0  0  0  0  0  0  0
   -0.0001    4.1701    0.0000 C   0  0  0  0  0  0  0  0  0  0  0  0
    0.0002    4.8793    1.2154 C   0  0  0  0  0  0  0  0  0  0  0  0
    0.0005    4.3273    2.1664 H   0  0  0  0  0  0  0  0  0  0  0  0
    0.0001    6.2781    1.2250 C   0  0  0  0  0  0  0  0  0  0  0  0
    0.0004    6.8320    2.1718 H   0  0  0  0  0  0  0  0  0  0  0  0
   -0.0003    6.9566    0.0001 C   0  0  0  0  0  0  0  0  0  0  0  0
   -0.0006    6.2781   -1.2249 C   0  0  0  0  0  0  0  0  0  0  0  0
   -0.0009    6.8321   -2.1717 H   0  0  0  0  0  0  0  0  0  0  0  0
   -0.0005    4.8794   -1.2153 C   0  0  0  0  0  0  0  0  0  0  0  0
   -0.0008    4.3275   -2.1664 H   0  0  0  0  0  0  0  0  0  0  0  0
   -4.8771   -1.1432   -0.0001 C   0  0  0  0  0  0  0  0  0  0  0  0
   -5.5796   -1.2423   -1.2154 C   0  0  0  0  0  0  0  0  0  0  0  0
   -5.0324   -1.1731   -2.1667 H   0  0  0  0  0  0  0  0  0  0  0  0
   -6.9665   -1.4250   -1.2245 C   0  0  0  0  0  0  0  0  0  0  0  0
   -7.5149   -1.5001   -2.1716 H   0  0  0  0  0  0  0  0  0  0  0  0
   -7.6397   -1.5121    0.0002 C   0  0  0  0  0  0  0  0  0  0  0  0
   -6.9662   -1.4253    1.2248 C   0  0  0  0  0  0  0  0  0  0  0  0
   -7.5144   -1.5007    2.1720 H   0  0  0  0  0  0  0  0  0  0  0  0
   -5.5793   -1.2426    1.2154 C   0  0  0  0  0  0  0  0  0  0  0  0
   -5.0319   -1.1737    2.1666 H   0  0  0  0  0  0  0  0  0  0  0  0
  3 37  1  0  0  0  0
  4 38  1  0  0  0  0
  8 48  1  0  0  0  0
  9 14  1  0  0  0  0
  9 16  1  0  0  0  0
  9 12  1  0  0  0  0
 10 19  1  0  0  0  0
 10 17  1  0  0  0  0
 10 21  1  0  0  0  0
 11 24  1  0  0  0  0
 11 26  1  0  0  0  0
 11 23  1  0  0  0  0
 13  9  1  0  0  0  0
 15  9  1  0  0  0  0
 18 10  1  0  0  0  0
 20 10  1  0  0  0  0
 22 11  1  0  0  0  0
 25 11  1  0  0  0  0
 27 31  1  0  0  0  0
 27 34  1  0  0  0  0
 29 44  2  0  0  0  0
 29 41  1  0  0  0  0
 30 46  1  0  0  0  0
 31 32  1  0  0  0  0
 32 33  1  0  0  0  0
 32  1  1  6  0  0  0
 33  2  1  0  0  0  0
 34 35  1  0  0  0  0
 34 33  2  0  0  0  0
 35 50  1  0  0  0  0
 36 35  2  0  0  0  0
 36 28  1  0  0  0  0
 37 38  2  0  0  0  0
 37 36  1  0  0  0  0
 38 39  1  0  0  0  0
 39 28  1  0  0  0  0
 39 40  2  0  0  0  0
 40 60  1  0  0  0  0
 40 41  1  0  0  0  0
 41 42  1  0  0  0  0
 42  5  1  0  0  0  0
 43 42  2  0  0  0  0
 43  6  1  0  0  0  0
 44 43  1  0  0  0  0
 45 44  1  0  0  0  0
 45 70  1  0  0  0  0
 46 45  2  0  0  0  0
 47 46  1  0  0  0  0
 47  7  1  0  0  0  0
 48 47  2  0  0  0  0
 49 30  1  0  0  0  0
 49 48  1  0  0  0  0
 49 31  2  0  0  0  0
 50 58  1  0  0  0  0
 51 50  2  0  0  0  0
 52 51  1  0  0  0  0
 53 51  1  0  0  0  0
 53 55  2  0  0  0  0
 54 53  1  0  0  0  0
 55  9  1  0  0  0  0
 55 56  1  0  0  0  0
 56 57  1  0  0  0  0
 58 56  2  0  0  0  0
 58 59  1  0  0  0  0
 60 61  1  0  0  0  0
 61 63  2  0  0  0  0
 61 62  1  0  0  0  0
 63 64  1  0  0  0  0
 65 10  1  0  0  0  0
 65 63  1  0  0  0  0
 66 68  1  0  0  0  0
 66 65  2  0  0  0  0
 67 66  1  0  0  0  0
 68 60  2  0  0  0  0
 69 68  1  0  0  0  0
 70 78  1  0  0  0  0
 71 70  2  0  0  0  0
 72 71  1  0  0  0  0
 73 71  1  0  0  0  0
 73 75  2  0  0  0  0
 74 73  1  0  0  0  0
 75 11  1  0  0  0  0
 75 76  1  0  0  0  0
 76 77  1  0  0  0  0
 78 76  2  0  0  0  0
 78 79  1  0  0  0  0
M  END
