5,6,7,8
q = -2.0, confidence = 0.822

 56 60  0  0  0  0  0  0  0  0999 V2000
    0.1781   -3.7401    0.4297 O   0  0  0  0  0  0  0  0  0  0  0  0
   -4.2545   -1.9145    1.6368 O   0  0  0  0  0  0  0  0  0  0  0  0
   -4.4033    0.6018    2.2430 O   0  0  0  0  0  0  0  0  0  0  0  0
   -0.2062    3.2956    1.9121 O   0  0  0  0  0  0  0  0  0  0  0  0
    3.1513   -1.7425    0.1698 N   0  0  0  0  0  2  0  0  0  0  0  0
    0.6048   -1.5071    0.9865 N   0  0  0  0  0  2  0  0  0  0  0  0
    0.3960    1.1083    1.3383 N   0  0  0  0  0  2  0  0  0  0  0  0
    2.6553    1.9377    0.2234 N   0  0  0  0  0  2  0  0  0  0  0  0
    4.5077   -1.8685   -0.0141 C   0  0  0  0  0  0  0  0  0  0  0  0
    5.3853   -0.8023    0.3252 C   0  0  0  0  0  0  0  0  0  0  0  0
    4.9570    0.1158    0.7474 H   0  0  0  0  0  0  0  0  0  0  0  0
    6.7537   -0.9331    0.1374 C   0  0  0  0  0  0  0  0  0  0  0  0
    7.4188   -0.1004    0.4109 H   0  0  0  0  0  0  0  0  0  0  0  0
    7.3028   -2.1254   -0.4030 C   0  0  0  0  0  0  0  0  0  0  0  0
    8.3892   -2.2077   -0.5542 H   0  0  0  0  0  0  0  0  0  0  0  0
    6.4713   -3.1899   -0.7209 C   0  0  0  0  0  3  0  0  0  0  0  0
    6.8861   -4.1292   -1.1176 H   0  0  0  0  0  0  0  0  0  0  0  0
    5.0654   -3.0990   -0.5199 C   0  0  0  0  0  0  0  0  0  0  0  0
    4.1776   -4.1866   -0.7654 C   0  0  0  0  0  0  0  0  0  0  0  0
    4.5809   -5.1293   -1.1670 H   0  0  0  0  0  0  0  0  0  0  0  0
    2.8384   -4.0595   -0.4540 C   0  0  0  0  0  0  0  0  0  0  0  0
    2.1061   -4.8735   -0.5503 H   0  0  0  0  0  0  0  0  0  0  0  0
    2.3541   -2.8206    0.0395 C   0  0  0  0  0  0  0  0  0  0  0  0
    0.9153   -2.7456    0.4933 C   0  0  0  0  0  0  0  0  0  0  0  0
   -0.6638   -1.0404    1.3668 C   0  0  0  0  0  0  0  0  0  0  0  0
   -1.8300   -1.8361    1.3928 C   0  0  0  0  0  0  0  0  0  0  0  0
   -1.7282   -2.8975    1.1453 H   0  0  0  0  0  0  0  0  0  0  0  0
   -3.0735   -1.2531    1.6651 C   0  0  0  0  0  0  0  0  0  0  0  0
   -3.1574    0.1423    1.9837 C   0  0  0  0  0  0  0  0  0  0  0  0
   -2.0036    0.9360    1.9655 C   0  0  0  0  0  0  0  0  0  0  0  0
   -2.0368    2.0150    2.1489 H   0  0  0  0  0  0  0  0  0  0  0  0
   -0.7603    0.3660    1.6153 C   0  0  0  0  0  0  0  0  0  0  0  0
    0.5848    2.4558    1.4555 C   0  0  0  0  0  0  0  0  0  0  0  0
    1.8954    2.8720    0.8309 C   0  0  0  0  0  0  0  0  0  0  0  0
    2.2225    4.2514    0.7841 C   0  0  0  0  0  0  0  0  0  0  0  0
    1.5583    4.9375    1.3286 H   0  0  0  0  0  0  0  0  0  0  0  0
    3.3242    4.6595    0.0574 C   0  0  0  0  0  0  0  0  0  0  0  0
    3.6241    5.7186    0.0265 H   0  0  0  0  0  0  0  0  0  0  0  0
    4.0502    3.7079   -0.7171 C   0  0  0  0  0  0  0  0  0  0  0  0
    5.1146    4.0708   -1.5894 C   0  0  0  0  0  3  0  0  0  0  0  0
    5.4287    5.1252   -1.6266 H   0  0  0  0  0  0  0  0  0  0  0  0
    5.7219    3.1197   -2.3973 C   0  0  0  0  0  0  0  0  0  0  0  0
    6.5366    3.4110   -3.0767 H   0  0  0  0  0  0  0  0  0  0  0  0
    5.2681    1.7745   -2.3748 C   0  0  0  0  0  0  0  0  0  0  0  0
    5.7187    1.0354   -3.0541 H   0  0  0  0  0  0  0  0  0  0  0  0
    4.2530    1.3788   -1.5153 C   0  0  0  0  0  0  0  0  0  0  0  0
    3.8590    0.3557   -1.5232 H   0  0  0  0  0  0  0  0  0  0  0  0
    3.6490    2.3243   -0.6436 C   0  0  0  0  0  0  0  0  0  0  0  0
   -4.2523   -3.2576    1.1797 C   0  0  0  0  0  0  0  0  0  0  0  0
   -5.3075   -3.5865    1.1931 H   0  0  0  0  0  0  0  0  0  0  0  0
   -3.6527   -3.9187    1.8439 H   0  0  0  0  0  0  0  0  0  0  0  0
   -3.8607   -3.3256    0.1410 H   0  0  0  0  0  0  0  0  0  0  0  0
   -4.5666    1.9857    2.4956 C   0  0  0  0  0  0  0  0  0  0  0  0
   -5.6492    2.1455    2.6516 H   0  0  0  0  0  0  0  0  0  0  0  0
   -4.2240    2.5986    1.6323 H   0  0  0  0  0  0  0  0  0  0  0  0
   -4.0093    2.3070    3.4035 H   0  0  0  0  0  0  0  0  0  0  0  0
  1 24  2  0  0  0  0
  2 28  1  0  0  0  0
  3 53  1  0  0  0  0
  6 25  1  0  0  0  0
  7 33  1  0  0  0  0
  7 32  1  0  0  0  0
  8 34  1  0  0  0  0
  9  5  1  0  0  0  0
  9 10  2  0  0  0  0
 10 11  1  0  0  0  0
 12 10  1  0  0  0  0
 12 13  1  0  0  0  0
 14 12  2  0  0  0  0
 15 14  1  0  0  0  0
 16 18  1  0  0  0  0
 16 14  1  0  0  0  0
 17 16  1  0  0  0  0
 18  9  1  0  0  0  0
 19 18  2  0  0  0  0
 19 21  1  0  0  0  0
 20 19  1  0  0  0  0
 21 23  2  0  0  0  0
 22 21  1  0  0  0  0
 23  5  1  0  0  0  0
 23 24  1  0  0  0  0
 24  6  1  0  0  0  0
 25 26  2  0  0  0  0
 25 32  1  0  0  0  0
 26 28  1  0  0  0  0
 27 26  1  0  0  0  0
 28 29  2  0  0  0  0
 29  3  1  0  0  0  0
 30 29  1  0  0  0  0
 30 31  1  0  0  0  0
 32 30  2  0  0  0  0
 33  4  2  0  0  0  0
 34 33  1  0  0  0  0
 35 34  2  0  0  0  0
 35 36  1  0  0  0  0
 37 35  1  0  0  0  0
 38 37  1  0  0  0  0
 39 48  1  0  0  0  0
 39 37  2  0  0  0  0
 40 39  1  0  0  0  0
 41 40  1  0  0  0  0
 42 44  2  0  0  0  0
 42 40  1  0  0  0  0
 43 42  1  0  0  0  0
 44 46  1  0  0  0  0
 45 44  1  0  0  0  0
 46 48  2  0  0  0  0
 47 46  1  0  0  0  0
 48  8  1  0  0  0  0
 49 50  1  0  0  0  0
 49  2  1  0  0  0  0
 49 51  1  0  0  0  0
 52 49  1  0  0  0  0
 53 54  1  0  0  0  0
 53 56  1  0  0  0  0
 55 53  1  0  0  0  0
M  END
