1,2,3,4
q = -1.0

 59 60  0  0  0  0  0  0  0  0999 V2000
    2.5884   -1.3718    0.1832 N   0  0  0  0  0  2  0  0  0  0  0  0
    2.5908    1.3858    0.0281 N   0  0  0  0  0  2  0  0  0  0  0  0
    0.0781    1.5751   -0.0152 N   0  0  0  0  0  2  0  0  0  0  0  0
    0.0782   -1.5653    0.1079 N   0  0  0  0  0  2  0  0  0  0  0  0
    3.8922    1.2456    0.1498 O   0  0  0  0  0  0  0  0  0  0  0  0
   -5.5070    1.7834    0.2067 O   0  0  0  0  0  0  0  0  0  0  0  0
    3.8875   -1.2153    0.3117 O   0  0  0  0  0  0  0  0  0  0  0  0
   -5.4890   -1.7980   -0.3834 O   0  0  0  0  0  0  0  0  0  0  0  0
    2.1584   -2.6171    0.2807 C   0  0  0  0  0  0  0  0  0  0  0  0
    0.7139   -2.7105    0.2288 C   0  0  0  0  0  0  0  0  0  0  0  0
    2.1612    2.6354    0.0081 C   0  0  0  0  0  0  0  0  0  0  0  0
    0.7169    2.7256   -0.0358 C   0  0  0  0  0  0  0  0  0  0  0  0
   -4.1504    1.7248    0.0810 C   0  0  0  0  0  0  0  0  0  0  0  0
   -1.3408    1.5832    0.0260 C   0  0  0  0  0  0  0  0  0  0  0  0
   -4.1399   -1.7329   -0.1937 C   0  0  0  0  0  0  0  0  0  0  0  0
   -1.3374   -1.5786   -0.0070 C   0  0  0  0  0  0  0  0  0  0  0  0
    3.1252    3.7735    0.0592 C   0  0  0  0  0  0  0  0  0  0  0  0
    3.7016    3.7389    1.0070 H   0  0  0  0  0  0  0  0  0  0  0  0
    2.6191    4.7508   -0.0187 H   0  0  0  0  0  0  0  0  0  0  0  0
    3.8707    3.6760   -0.7560 H   0  0  0  0  0  0  0  0  0  0  0  0
    3.1170   -3.7489    0.4460 C   0  0  0  0  0  0  0  0  0  0  0  0
    3.6100   -3.6949    1.4397 H   0  0  0  0  0  0  0  0  0  0  0  0
    3.9278   -3.6636   -0.3045 H   0  0  0  0  0  0  0  0  0  0  0  0
    2.6216   -4.7297    0.3444 H   0  0  0  0  0  0  0  0  0  0  0  0
    0.0438   -4.0495    0.3198 C   0  0  0  0  0  0  0  0  0  0  0  0
   -1.0494   -3.9529    0.4305 H   0  0  0  0  0  0  0  0  0  0  0  0
    0.4473   -4.6190    1.1806 H   0  0  0  0  0  0  0  0  0  0  0  0
    0.2511   -4.6469   -0.5928 H   0  0  0  0  0  0  0  0  0  0  0  0
    0.0463    4.0658   -0.1091 C   0  0  0  0  0  0  0  0  0  0  0  0
    0.1264    4.5943    0.8641 H   0  0  0  0  0  0  0  0  0  0  0  0
   -1.0234    3.9714   -0.3622 H   0  0  0  0  0  0  0  0  0  0  0  0
    0.5453    4.7004   -0.8679 H   0  0  0  0  0  0  0  0  0  0  0  0
   -6.3319   -1.5720    0.7365 C   0  0  0  0  0  0  0  0  0  0  0  0
   -6.2076   -0.5437    1.1419 H   0  0  0  0  0  0  0  0  0  0  0  0
   -6.1409   -2.3095    1.5473 H   0  0  0  0  0  0  0  0  0  0  0  0
   -7.3692   -1.6975    0.3745 H   0  0  0  0  0  0  0  0  0  0  0  0
   -6.2954    1.5511   -0.9513 C   0  0  0  0  0  0  0  0  0  0  0  0
   -6.1466    0.5228   -1.3482 H   0  0  0  0  0  0  0  0  0  0  0  0
   -6.0705    2.2883   -1.7535 H   0  0  0  0  0  0  0  0  0  0  0  0
   -7.3491    1.6715   -0.6383 H   0  0  0  0  0  0  0  0  0  0  0  0
   -2.1338   -1.3061    1.1163 C   0  0  0  0  0  0  0  0  0  0  0  0
   -1.6388   -1.0264    2.0575 H   0  0  0  0  0  0  0  0  0  0  0  0
   -2.0825    1.3061   -1.1332 C   0  0  0  0  0  0  0  0  0  0  0  0
   -1.5410    1.0279   -2.0489 H   0  0  0  0  0  0  0  0  0  0  0  0
   -1.9462   -1.9287   -1.2311 C   0  0  0  0  0  0  0  0  0  0  0  0
   -1.3065   -2.1138   -2.1058 H   0  0  0  0  0  0  0  0  0  0  0  0
   -3.5292   -1.3874    1.0291 C   0  0  0  0  0  0  0  0  0  0  0  0
   -4.1308   -1.1570    1.9174 H   0  0  0  0  0  0  0  0  0  0  0  0
   -3.4023    2.0060    1.2450 C   0  0  0  0  0  0  0  0  0  0  0  0
   -3.9428    2.2658    2.1666 H   0  0  0  0  0  0  0  0  0  0  0  0
   -3.3362   -2.0109   -1.3207 C   0  0  0  0  0  0  0  0  0  0  0  0
   -3.8314   -2.2752   -2.2662 H   0  0  0  0  0  0  0  0  0  0  0  0
   -3.4806    1.3822   -1.1114 C   0  0  0  0  0  0  0  0  0  0  0  0
   -4.0385    1.1501   -2.0273 H   0  0  0  0  0  0  0  0  0  0  0  0
   -2.0095    1.9311    1.2198 C   0  0  0  0  0  0  0  0  0  0  0  0
   -1.4139    2.1185    2.1248 H   0  0  0  0  0  0  0  0  0  0  0  0
    4.5723   -0.0237   -0.3433 B   0  0  0  0  0  0  0  0  0  0  0  0
    4.4723   -0.1144   -1.7057 F   0  0  0  0  0  0  0  0  0  0  0  0
    5.8391    0.0077    0.1589 F   0  0  0  0  0  0  0  0  0  0  0  0
  1  9  1  0  0  0  0
  1  7  1  0  0  0  0
  2  5  1  0  0  0  0
  3 14  1  0  0  0  0
  4 10  1  0  0  0  0
  8 15  1  0  0  0  0
  8 33  1  0  0  0  0
  9 21  1  0  0  0  0
 10  9  2  0  0  0  0
 10 25  1  0  0  0  0
 11  2  1  0  0  0  0
 11 17  1  0  0  0  0
 12  3  1  0  0  0  0
 12 11  2  0  0  0  0
 13  6  1  0  0  0  0
 13 49  1  0  0  0  0
 14 55  1  0  0  0  0
 15 47  1  0  0  0  0
 16  4  1  0  0  0  0
 16 41  1  0  0  0  0
 17 18  1  0  0  0  0
 19 17  1  0  0  0  0
 20 17  1  0  0  0  0
 21 22  1  0  0  0  0
 23 21  1  0  0  0  0
 24 21  1  0  0  0  0
 25 26  1  0  0  0  0
 25 27  1  0  0  0  0
 28 25  1  0  0  0  0
 29 12  1  0  0  0  0
 29 30  1  0  0  0  0
 31 29  1  0  0  0  0
 32 29  1  0  0  0  0
 33 34  1  0  0  0  0
 33 35  1  0  0  0  0
 36 33  1  0  0  0  0
 37 40  1  0  0  0  0
 37  6  1  0  0  0  0
 38 37  1  0  0  0  0
 39 37  1  0  0  0  0
 41 42  1  0  0  0  0
 43 53  1  0  0  0  0
 43 14  2  0  0  0  0
 44 43  1  0  0  0  0
 45 16  2  0  0  0  0
 46 45  1  0  0  0  0
 47 41  2  0  0  0  0
 47 48  1  0  0  0  0
 49 50  1  0  0  0  0
 51 45  1  0  0  0  0
 51 15  2  0  0  0  0
 52 51  1  0  0  0  0
 53 13  2  0  0  0  0
 54 53  1  0  0  0  0
 55 49  2  0  0  0  0
 55 56  1  0  0  0  0
 57  5  1  0  0  0  0
 57 59  1  0  0  0  0
 57  7  1  0  0  0  0
 58 57  1  0  0  0  0
M  END
