1,2,3,6
q = 0.0, confidence = 0.97

 80 88  0  0  0  0  0  0  0  0999 V2000
   -2.1980   -0.9776   -0.8290 N   0  0  0  0  0  2  0  0  0  0  0  0
   -1.7917    1.6540   -0.2842 N   0  0  0  0  0  2  0  0  0  0  0  0
    0.4948   -1.3251   -1.2234 N   0  0  0  0  0  2  0  0  0  0  0  0
    1.7656   -1.2926   -0.9067 N   0  0  0  0  0  2  0  0  0  0  0  0
    2.2006   -2.5574   -0.9017 N   0  0  0  0  0  0  0  0  0  0  0  0
    0.8145    1.7528   -1.4731 N   0  0  0  0  0  2  0  0  0  0  0  0
    2.0361    1.4441   -1.8358 N   0  0  0  0  0  2  0  0  0  0  0  0
    2.8175    2.4577   -1.4595 N   0  0  0  0  0  0  0  0  0  0  0  0
   -2.8143   -0.4821    0.1945 C   0  0  0  0  0  0  0  0  0  0  0  0
   -3.7183   -1.0180    1.2242 C   0  0  0  0  0  0  0  0  0  0  0  0
   -4.2902   -2.2631    1.4840 C   0  0  0  0  0  0  0  0  0  0  0  0
   -4.1616   -3.1084    0.7944 H   0  0  0  0  0  0  0  0  0  0  0  0
   -5.0528   -2.4289    2.6731 C   0  0  0  0  0  0  0  0  0  0  0  0
   -5.5082   -3.4098    2.8740 H   0  0  0  0  0  0  0  0  0  0  0  0
   -5.2373   -1.3937    3.5902 C   0  0  0  0  0  0  0  0  0  0  0  0
   -5.8315   -1.5638    4.5009 H   0  0  0  0  0  0  0  0  0  0  0  0
   -4.6519   -0.1119    3.3622 C   0  0  0  0  0  0  0  0  0  0  0  0
   -3.9124    0.0425    2.1608 C   0  0  0  0  0  0  0  0  0  0  0  0
   -4.7122    1.0241    4.2228 C   0  0  0  0  0  0  0  0  0  0  0  0
   -5.2785    0.9628    5.1646 H   0  0  0  0  0  0  0  0  0  0  0  0
   -4.0489    2.2038    3.8814 C   0  0  0  0  0  0  0  0  0  0  0  0
   -4.0972    3.0627    4.5668 H   0  0  0  0  0  0  0  0  0  0  0  0
   -3.3146    2.3409    2.6724 C   0  0  0  0  0  0  0  0  0  0  0  0
   -2.8139    3.2922    2.4489 H   0  0  0  0  0  0  0  0  0  0  0  0
   -3.2502    1.2567    1.7945 C   0  0  0  0  0  0  0  0  0  0  0  0
   -2.5473    0.9707    0.5300 C   0  0  0  0  0  0  0  0  0  0  0  0
   -2.4145   -2.2215   -1.4222 C   0  0  0  0  0  0  0  0  0  0  0  0
   -3.7150   -2.6468   -1.7685 C   0  0  0  0  0  0  0  0  0  0  0  0
   -4.5640   -1.9852   -1.5444 H   0  0  0  0  0  0  0  0  0  0  0  0
   -3.9128   -3.8589   -2.4364 C   0  0  0  0  0  0  0  0  0  0  0  0
   -4.9299   -4.1652   -2.7218 H   0  0  0  0  0  0  0  0  0  0  0  0
   -2.8114   -4.6693   -2.7588 C   0  0  0  0  0  0  0  0  0  0  0  0
   -2.9593   -5.6209   -3.2892 H   0  0  0  0  0  0  0  0  0  0  0  0
   -1.5172   -4.2489   -2.4297 C   0  0  0  0  0  0  0  0  0  0  0  0
   -0.6574   -4.8733   -2.7136 H   0  0  0  0  0  0  0  0  0  0  0  0
   -1.2886   -3.0203   -1.7780 C   0  0  0  0  0  0  0  0  0  0  0  0
    0.0786   -2.6242   -1.4211 C   0  0  0  0  0  0  0  0  0  0  0  0
    1.1988   -3.4290   -1.2034 C   0  0  0  0  0  0  0  0  0  0  0  0
    1.3461   -4.5123   -1.2260 H   0  0  0  0  0  0  0  0  0  0  0  0
    3.5759   -2.8391   -0.5095 C   0  0  0  0  0  0  0  0  0  0  0  0
    4.1936   -2.0211   -0.9334 H   0  0  0  0  0  0  0  0  0  0  0  0
    3.8807   -3.7782   -1.0117 H   0  0  0  0  0  0  0  0  0  0  0  0
    3.7852   -2.9288    0.9915 C   0  0  0  0  0  0  0  0  0  0  0  0
    5.0391   -3.3625    1.4649 C   0  0  0  0  0  0  0  0  0  0  0  0
    5.8212   -3.6632    0.7497 H   0  0  0  0  0  0  0  0  0  0  0  0
    5.3025   -3.4039    2.8405 C   0  0  0  0  0  0  0  0  0  0  0  0
    6.2865   -3.7427    3.1973 H   0  0  0  0  0  0  0  0  0  0  0  0
    4.3135   -3.0163    3.7600 C   0  0  0  0  0  0  0  0  0  0  0  0
    4.5195   -3.0504    4.8401 H   0  0  0  0  0  0  0  0  0  0  0  0
    3.0611   -2.5908    3.2934 C   0  0  0  0  0  0  0  0  0  0  0  0
    2.2802   -2.2880    4.0069 H   0  0  0  0  0  0  0  0  0  0  0  0
    2.7967   -2.5446    1.9146 C   0  0  0  0  0  0  0  0  0  0  0  0
    1.8157   -2.1931    1.5632 H   0  0  0  0  0  0  0  0  0  0  0  0
   -1.6919    3.0535   -0.2566 C   0  0  0  0  0  0  0  0  0  0  0  0
   -2.8555    3.8392   -0.0736 C   0  0  0  0  0  0  0  0  0  0  0  0
   -3.8235    3.3285    0.0262 H   0  0  0  0  0  0  0  0  0  0  0  0
   -2.7950    5.2332   -0.0534 C   0  0  0  0  0  0  0  0  0  0  0  0
   -3.7173    5.8188    0.0740 H   0  0  0  0  0  0  0  0  0  0  0  0
   -1.5571    5.8785   -0.2157 C   0  0  0  0  0  0  0  0  0  0  0  0
   -1.4933    6.9760   -0.1981 H   0  0  0  0  0  0  0  0  0  0  0  0
   -0.4094    5.1173   -0.4539 C   0  0  0  0  0  0  0  0  0  0  0  0
    0.5423    5.6321   -0.6484 H   0  0  0  0  0  0  0  0  0  0  0  0
   -0.4476    3.7053   -0.5100 C   0  0  0  0  0  0  0  0  0  0  0  0
    0.7811    2.9921   -0.8752 C   0  0  0  0  0  0  0  0  0  0  0  0
    2.1032    3.4431   -0.8497 C   0  0  0  0  0  0  0  0  0  0  0  0
    2.5714    4.3477   -0.4526 H   0  0  0  0  0  0  0  0  0  0  0  0
    4.2687    2.3368   -1.6102 C   0  0  0  0  0  0  0  0  0  0  0  0
    4.6630    3.3110   -1.9572 H   0  0  0  0  0  0  0  0  0  0  0  0
    4.4124    1.6008   -2.4263 H   0  0  0  0  0  0  0  0  0  0  0  0
    4.9505    1.8940   -0.3295 C   0  0  0  0  0  0  0  0  0  0  0  0
    4.4305    0.8227    0.4264 C   0  0  0  0  0  0  0  0  0  0  0  0
    3.5053    0.3183    0.1026 H   0  0  0  0  0  0  0  0  0  0  0  0
    5.0880    0.4009    1.5916 C   0  0  0  0  0  0  0  0  0  0  0  0
    4.6749   -0.4325    2.1787 H   0  0  0  0  0  0  0  0  0  0  0  0
    6.2697    1.0377    2.0061 C   0  0  0  0  0  0  0  0  0  0  0  0
    6.7839    0.7027    2.9194 H   0  0  0  0  0  0  0  0  0  0  0  0
    6.7899    2.1033    1.2567 C   0  0  0  0  0  0  0  0  0  0  0  0
    7.7123    2.6091    1.5790 H   0  0  0  0  0  0  0  0  0  0  0  0
    6.1288    2.5338    0.0953 C   0  0  0  0  0  0  0  0  0  0  0  0
    6.5378    3.3742   -0.4881 H   0  0  0  0  0  0  0  0  0  0  0  0
  1  9  1  0  0  0  0
  2 54  1  0  0  0  0
  2 26  1  0  0  0  0
  3  4  1  0  0  0  0
  4  5  1  0  0  0  0
  5 40  1  0  0  0  0
  6 64  1  0  0  0  0
  7  6  1  0  0  0  0
  7  8  1  0  0  0  0
  8 65  1  0  0  0  0
  9 26  2  0  0  0  0
  9 10  1  0  0  0  0
 10 11  2  0  0  0  0
 10 18  1  0  0  0  0
 11 13  1  0  0  0  0
 12 11  1  0  0  0  0
 13 14  1  0  0  0  0
 13 15  2  0  0  0  0
 15 16  1  0  0  0  0
 17 15  1  0  0  0  0
 17 19  1  0  0  0  0
 18 17  2  0  0  0  0
 19 20  1  0  0  0  0
 21 19  2  0  0  0  0
 21 22  1  0  0  0  0
 23 21  1  0  0  0  0
 24 23  1  0  0  0  0
 25 18  1  0  0  0  0
 25 23  2  0  0  0  0
 26 25  1  0  0  0  0
 27  1  1  0  0  0  0
 28 29  1  0  0  0  0
 28 27  1  0  0  0  0
 30 28  2  0  0  0  0
 31 30  1  0  0  0  0
 32 30  1  0  0  0  0
 32 34  2  0  0  0  0
 33 32  1  0  0  0  0
 34 36  1  0  0  0  0
 35 34  1  0  0  0  0
 36 27  2  0  0  0  0
 36 37  1  0  0  0  0
 37  3  1  0  0  0  0
 37 38  2  0  0  0  0
 38  5  1  0  0  0  0
 39 38  1  0  0  0  0
 40 43  1  0  0  0  0
 41 40  1  0  0  0  0
 42 40  1  0  0  0  0
 43 44  2  0  0  0  0
 43 52  1  0  0  0  0
 44 46  1  0  0  0  0
 45 44  1  0  0  0  0
 46 47  1  0  0  0  0
 46 48  2  0  0  0  0
 48 49  1  0  0  0  0
 50 48  1  0  0  0  0
 50 51  1  0  0  0  0
 52 50  2  0  0  0  0
 53 52  1  0  0  0  0
 54 55  1  0  0  0  0
 55 57  2  0  0  0  0
 55 56  1  0  0  0  0
 57 58  1  0  0  0  0
 59 60  1  0  0  0  0
 59 57  1  0  0  0  0
 61 59  2  0  0  0  0
 62 61  1  0  0  0  0
 63 61  1  0  0  0  0
 63 54  2  0  0  0  0
 64 65  2  0  0  0  0
 64 63  1  0  0  0  0
 65 66  1  0  0  0  0
 67  8  1  0  0  0  0
 67 70  1  0  0  0  0
 68 67  1  0  0  0  0
 69 67  1  0  0  0  0
 70 79  2  0  0  0  0
 70 71  1  0  0  0  0
 71 73  2  0  0  0  0
 72 71  1  0  0  0  0
 73 75  1  0  0  0  0
 73 74  1  0  0  0  0
 75 76  1  0  0  0  0
 77 78  1  0  0  0  0
 77 75  2  0  0  0  0
 79 77  1  0  0  0  0
 80 79  1  0  0  0  0
M  END
