1,2,4,18
q = -1.0, confidence = 0.002

 31 31  0  0  0  0  0  0  0  0999 V2000
   -0.0000    1.6772   -0.2491 N   0  0  0  0  0  2  0  0  0  0  0  0
    2.0633    0.0586   -0.0387 N   0  0  0  0  0  0  0  0  0  0  0  0
    2.6093   -0.5546   -0.6652 H   0  0  0  0  0  0  0  0  0  0  0  0
    0.0000   -0.4692    1.7649 N   0  0  0  0  0  0  0  0  0  0  0  0
    0.0000   -1.5088    1.7617 H   0  0  0  0  0  0  0  0  0  0  0  0
    1.2401    2.4036    0.0099 C   0  0  0  0  0  0  0  0  0  0  0  0
    1.3004    2.7372    1.0741 H   0  0  0  0  0  0  0  0  0  0  0  0
    1.2914    3.3330   -0.6015 H   0  0  0  0  0  0  0  0  0  0  0  0
    2.4046    1.4896   -0.3687 C   0  0  0  0  0  0  0  0  0  0  0  0
    3.3518    1.7869    0.1263 H   0  0  0  0  0  0  0  0  0  0  0  0
    2.5611    1.5182   -1.4644 H   0  0  0  0  0  0  0  0  0  0  0  0
    2.3719   -0.3864    1.3616 C   0  0  0  0  0  0  0  0  0  0  0  0
    3.3574    0.0141    1.6756 H   0  0  0  0  0  0  0  0  0  0  0  0
    2.4357   -1.4924    1.3263 H   0  0  0  0  0  0  0  0  0  0  0  0
    1.2637    0.0273    2.3254 C   0  0  0  0  0  0  0  0  0  0  0  0
    1.4743   -0.3851    3.3365 H   0  0  0  0  0  0  0  0  0  0  0  0
    1.2035    1.1286    2.4317 H   0  0  0  0  0  0  0  0  0  0  0  0
   -2.0633    0.0586   -0.0387 N   0  0  0  0  0  0  0  0  0  0  0  0
   -2.6093   -0.5546   -0.6652 H   0  0  0  0  0  0  0  0  0  0  0  0
   -2.4046    1.4896   -0.3687 C   0  0  0  0  0  0  0  0  0  0  0  0
   -1.2401    2.4036    0.0099 C   0  0  0  0  0  0  0  0  0  0  0  0
   -1.3004    2.7372    1.0741 H   0  0  0  0  0  0  0  0  0  0  0  0
   -1.2914    3.3330   -0.6015 H   0  0  0  0  0  0  0  0  0  0  0  0
   -3.3518    1.7868    0.1263 H   0  0  0  0  0  0  0  0  0  0  0  0
   -2.5611    1.5182   -1.4644 H   0  0  0  0  0  0  0  0  0  0  0  0
   -2.3719   -0.3864    1.3616 C   0  0  0  0  0  0  0  0  0  0  0  0
   -3.3574    0.0141    1.6756 H   0  0  0  0  0  0  0  0  0  0  0  0
   -2.4357   -1.4924    1.3263 H   0  0  0  0  0  0  0  0  0  0  0  0
   -1.2637    0.0273    2.3254 C   0  0  0  0  0  0  0  0  0  0  0  0
   -1.4743   -0.3851    3.3365 H   0  0  0  0  0  0  0  0  0  0  0  0
   -1.2035    1.1286    2.4317 H   0  0  0  0  0  0  0  0  0  0  0  0
  1  6  1  0  0  0  0
  1 21  1  0  0  0  0
  2 12  1  0  0  0  0
  3  2  1  0  0  0  0
  4 29  1  0  0  0  0
  4 15  1  0  0  0  0
  5  4  1  0  0  0  0
  6  7  1  0  0  0  0
  8  6  1  0  0  0  0
  9  2  1  0  0  0  0
  9  6  1  0  0  0  0
  9 10  1  0  0  0  0
 11  9  1  0  0  0  0
 12 13  1  0  0  0  0
 12 15  1  0  0  0  0
 14 12  1  0  0  0  0
 15 17  1  0  0  0  0
 15 16  1  0  0  0  0
 18 26  1  0  0  0  0
 19 18  1  0  0  0  0
 20 18  1  0  0  0  0
 20 21  1  0  0  0  0
 20 24  1  0  0  0  0
 21 22  1  0  0  0  0
 23 21  1  0  0  0  0
 25 20  1  0  0  0  0
 26 27  1  0  0  0  0
 26 29  1  0  0  0  0
 28 26  1  0  0  0  0
 29 31  1  0  0  0  0
 29 30  1  0  0  0  0
M  END
