5,6,9,12
q = -1.0, confidence = 0.0

 33 32  0  0  0  0  0  0  0  0999 V2000
    1.2143   -2.8113   -0.0005 O   0  0  0  0  0  1  0  0  0  0  0  0
   -0.0039    4.2182    0.0001 O   0  0  0  0  0  0  0  0  0  0  0  0
   -1.2360   -2.8296   -0.0007 O   0  0  0  0  0  0  0  0  0  0  0  0
   -0.1341   -2.9428   -0.0006 H   0  0  0  0  0  0  0  0  0  0  0  0
   -1.4107   -1.5302   -0.0003 N   0  0  0  0  0  2  0  0  0  0  0  0
    1.4111   -1.5457   -0.0003 N   0  0  0  0  0  2  0  0  0  0  0  0
    1.2059    2.3018   -0.0004 N   0  0  0  0  0  0  0  0  0  0  0  0
    2.0143    2.9314   -0.0007 H   0  0  0  0  0  0  0  0  0  0  0  0
    1.4071    0.9655    0.0003 N   0  0  0  0  0  2  0  0  0  0  0  0
   -1.2113    2.3017    0.0010 N   0  0  0  0  0  0  0  0  0  0  0  0
   -2.0159    2.9370    0.0012 H   0  0  0  0  0  0  0  0  0  0  0  0
   -1.4112    0.9712    0.0005 N   0  0  0  0  0  2  0  0  0  0  0  0
   -2.6261   -1.0110   -0.0001 C   0  0  0  0  0  0  0  0  0  0  0  0
   -3.8632   -1.8510   -0.0004 C   0  0  0  0  0  0  0  0  0  0  0  0
   -3.5799   -2.9180    0.0034 H   0  0  0  0  0  0  0  0  0  0  0  0
   -4.4844   -1.6561   -0.8992 H   0  0  0  0  0  0  0  0  0  0  0  0
   -4.4885   -1.6506    0.8943 H   0  0  0  0  0  0  0  0  0  0  0  0
   -2.6191    0.4457    0.0001 C   0  0  0  0  0  0  0  0  0  0  0  0
   -3.8610    1.2826    0.0001 C   0  0  0  0  0  0  0  0  0  0  0  0
   -3.9059    1.9342    0.9000 H   0  0  0  0  0  0  0  0  0  0  0  0
   -4.7697    0.6565   -0.0026 H   0  0  0  0  0  0  0  0  0  0  0  0
   -3.9033    1.9381   -0.8970 H   0  0  0  0  0  0  0  0  0  0  0  0
    0.0015    2.9912    0.0002 C   0  0  0  0  0  0  0  0  0  0  0  0
    2.6165    0.4392    0.0002 C   0  0  0  0  0  0  0  0  0  0  0  0
    3.8557    1.2810   -0.0002 C   0  0  0  0  0  0  0  0  0  0  0  0
    3.8983    1.9321   -0.9004 H   0  0  0  0  0  0  0  0  0  0  0  0
    4.7651    0.6560    0.0020 H   0  0  0  0  0  0  0  0  0  0  0  0
    3.8964    1.9359    0.8972 H   0  0  0  0  0  0  0  0  0  0  0  0
    2.6317   -1.0095    0.0001 C   0  0  0  0  0  0  0  0  0  0  0  0
    3.8646   -1.8561    0.0002 C   0  0  0  0  0  0  0  0  0  0  0  0
    4.4907   -1.6709   -0.8975 H   0  0  0  0  0  0  0  0  0  0  0  0
    3.5626   -2.9187    0.0011 H   0  0  0  0  0  0  0  0  0  0  0  0
    4.4913   -1.6695    0.8972 H   0  0  0  0  0  0  0  0  0  0  0  0
  1  6  1  0  0  0  0
  2 23  2  0  0  0  0
  3  4  1  0  0  0  0
  3  5  1  0  0  0  0
  5 13  1  0  0  0  0
  6 29  1  0  0  0  0
  7 23  1  0  0  0  0
  7  9  1  0  0  0  0
  8  7  1  0  0  0  0
 10 11  1  0  0  0  0
 12 10  1  0  0  0  0
 13 18  2  0  0  0  0
 14 13  1  0  0  0  0
 14 15  1  0  0  0  0
 14 17  1  0  0  0  0
 16 14  1  0  0  0  0
 18 19  1  0  0  0  0
 18 12  1  0  0  0  0
 19 20  1  0  0  0  0
 21 19  1  0  0  0  0
 22 19  1  0  0  0  0
 23 10  1  0  0  0  0
 24  9  1  0  0  0  0
 25 24  1  0  0  0  0
 25 27  1  0  0  0  0
 25 28  1  0  0  0  0
 26 25  1  0  0  0  0
 29 24  2  0  0  0  0
 29 30  1  0  0  0  0
 30 32  1  0  0  0  0
 30 33  1  0  0  0  0
 31 30  1  0  0  0  0
M  END
