80,81,82,83
q = -2.0, confidence = 0.948

 84 89  0  0  0  0  0  0  0  0999 V2000
    8.8030    0.0005   -1.0838 C   0  0  0  0  0  0  0  0  0  0  0  0
    8.5897   -0.8963   -1.7099 H   0  0  0  0  0  0  0  0  0  0  0  0
    9.8834   -0.0004   -0.8520 H   0  0  0  0  0  0  0  0  0  0  0  0
    8.5909    0.8984   -1.7087 H   0  0  0  0  0  0  0  0  0  0  0  0
    8.7340   -0.0007    1.4232 C   0  0  0  0  0  0  0  0  0  0  0  0
    8.4872    0.8963    2.0366 H   0  0  0  0  0  0  0  0  0  0  0  0
    9.8256   -0.0005    1.2511 H   0  0  0  0  0  0  0  0  0  0  0  0
    8.4873   -0.8984    2.0356 H   0  0  0  0  0  0  0  0  0  0  0  0
    6.6634    0.0001    0.1119 C   0  0  0  0  0  0  0  0  0  0  0  0
    5.8881   -0.0007    1.3063 C   0  0  0  0  0  0  0  0  0  0  0  0
    6.3801   -0.0013    2.2874 H   0  0  0  0  0  0  0  0  0  0  0  0
    4.4904   -0.0007    1.2550 C   0  0  0  0  0  0  0  0  0  0  0  0
    3.9184   -0.0014    2.1959 H   0  0  0  0  0  0  0  0  0  0  0  0
    3.7923    0.0001    0.0328 C   0  0  0  0  0  0  0  0  0  0  0  0
    4.5567    0.0010   -1.1492 C   0  0  0  0  0  0  0  0  0  0  0  0
    4.0371    0.0017   -2.1200 H   0  0  0  0  0  0  0  0  0  0  0  0
    5.9550    0.0010   -1.1235 C   0  0  0  0  0  0  0  0  0  0  0  0
    6.5002    0.0018   -2.0760 H   0  0  0  0  0  0  0  0  0  0  0  0
    2.2961    0.0001   -0.0095 C   0  0  0  0  0  0  0  0  0  0  0  0
    1.6480   -1.2670   -0.0282 C   0  0  0  0  0  0  0  0  0  0  0  0
    2.3069   -2.5904   -0.0052 C   0  0  0  0  0  0  0  0  0  0  0  0
    3.7648   -2.9379    0.0390 C   0  0  0  0  0  0  0  0  0  0  0  0
    3.8958   -4.0372    0.0418 H   0  0  0  0  0  0  0  0  0  0  0  0
    4.2702   -2.5352    0.9379 H   0  0  0  0  0  0  0  0  0  0  0  0
    4.3245   -2.5330   -0.8261 H   0  0  0  0  0  0  0  0  0  0  0  0
    1.2883   -3.5291   -0.0326 C   0  0  0  0  0  0  0  0  0  0  0  0
    1.3859   -5.0226   -0.0253 C   0  0  0  0  0  0  0  0  0  0  0  0
    2.4362   -5.3688    0.0060 H   0  0  0  0  0  0  0  0  0  0  0  0
    0.9181   -5.4679   -0.9289 H   0  0  0  0  0  0  0  0  0  0  0  0
    0.8669   -5.4625    0.8527 H   0  0  0  0  0  0  0  0  0  0  0  0
    0.0374   -2.7946   -0.0727 C   0  0  0  0  0  0  0  0  0  0  0  0
   -1.2204   -3.4166   -0.1091 C   0  0  0  0  0  0  0  0  0  0  0  0
   -1.2155   -4.5158   -0.1031 H   0  0  0  0  0  0  0  0  0  0  0  0
   -2.4772   -2.8034   -0.1525 C   0  0  0  0  0  0  0  0  0  0  0  0
   -3.7531   -3.5107   -0.1876 C   0  0  0  0  0  0  0  0  0  0  0  0
   -3.9140   -4.9978   -0.1674 C   0  0  0  0  0  0  0  0  0  0  0  0
   -3.5410   -5.4384    0.7818 H   0  0  0  0  0  0  0  0  0  0  0  0
   -3.3473   -5.4844   -0.9890 H   0  0  0  0  0  0  0  0  0  0  0  0
   -4.9758   -5.2933   -0.2733 H   0  0  0  0  0  0  0  0  0  0  0  0
   -4.7359   -2.5365   -0.2350 C   0  0  0  0  0  0  0  0  0  0  0  0
   -6.2260   -2.7154   -0.2309 C   0  0  0  0  0  0  0  0  0  0  0  0
   -6.4763   -3.7209   -0.6301 H   0  0  0  0  0  0  0  0  0  0  0  0
   -6.6917   -1.9910   -0.9336 H   0  0  0  0  0  0  0  0  0  0  0  0
   -6.8553   -2.5503    1.1633 C   0  0  0  0  0  0  0  0  0  0  0  0
   -6.4391   -3.2916    1.8749 H   0  0  0  0  0  0  0  0  0  0  0  0
   -7.9556   -2.6859    1.1284 H   0  0  0  0  0  0  0  0  0  0  0  0
   -6.6468   -1.5434    1.5791 H   0  0  0  0  0  0  0  0  0  0  0  0
   -4.0413   -1.2516   -0.2195 C   0  0  0  0  0  0  0  0  0  0  0  0
   -4.6716   -0.0001   -0.2534 C   0  0  0  0  0  0  0  0  0  0  0  0
   -5.7693   -0.0001   -0.3073 H   0  0  0  0  0  0  0  0  0  0  0  0
   -4.0413    1.2514   -0.2199 C   0  0  0  0  0  0  0  0  0  0  0  0
   -4.7360    2.5363   -0.2359 C   0  0  0  0  0  0  0  0  0  0  0  0
   -6.2261    2.7151   -0.2319 C   0  0  0  0  0  0  0  0  0  0  0  0
   -6.6917    1.9904   -0.9344 H   0  0  0  0  0  0  0  0  0  0  0  0
   -6.4764    3.7204   -0.6315 H   0  0  0  0  0  0  0  0  0  0  0  0
   -6.8555    2.5505    1.1623 C   0  0  0  0  0  0  0  0  0  0  0  0
   -6.6470    1.5439    1.5785 H   0  0  0  0  0  0  0  0  0  0  0  0
   -7.9558    2.6861    1.1273 H   0  0  0  0  0  0  0  0  0  0  0  0
   -6.4393    3.2921    1.8736 H   0  0  0  0  0  0  0  0  0  0  0  0
   -3.7532    3.5105   -0.1886 C   0  0  0  0  0  0  0  0  0  0  0  0
   -3.9142    4.9976   -0.1687 C   0  0  0  0  0  0  0  0  0  0  0  0
   -4.9760    5.2931   -0.2750 H   0  0  0  0  0  0  0  0  0  0  0  0
   -3.3474    5.4841   -0.9904 H   0  0  0  0  0  0  0  0  0  0  0  0
   -3.5414    5.4385    0.7804 H   0  0  0  0  0  0  0  0  0  0  0  0
   -2.4773    2.8033   -0.1532 C   0  0  0  0  0  0  0  0  0  0  0  0
   -1.2206    3.4166   -0.1096 C   0  0  0  0  0  0  0  0  0  0  0  0
   -1.2157    4.5158   -0.1035 H   0  0  0  0  0  0  0  0  0  0  0  0
    0.0373    2.7946   -0.0725 C   0  0  0  0  0  0  0  0  0  0  0  0
    1.2881    3.5291   -0.0315 C   0  0  0  0  0  0  0  0  0  0  0  0
    1.3856    5.0227   -0.0236 C   0  0  0  0  0  0  0  0  0  0  0  0
    0.8660    5.4622    0.8542 H   0  0  0  0  0  0  0  0  0  0  0  0
    0.9184    5.4682   -0.9274 H   0  0  0  0  0  0  0  0  0  0  0  0
    2.4359    5.3690    0.0086 H   0  0  0  0  0  0  0  0  0  0  0  0
    2.3067    2.5905   -0.0037 C   0  0  0  0  0  0  0  0  0  0  0  0
    3.7645    2.9380    0.0422 C   0  0  0  0  0  0  0  0  0  0  0  0
    3.8955    4.0374    0.0467 H   0  0  0  0  0  0  0  0  0  0  0  0
    4.3251    2.5345   -0.8230 H   0  0  0  0  0  0  0  0  0  0  0  0
    4.2692    2.5341    0.9410 H   0  0  0  0  0  0  0  0  0  0  0  0
    1.6480    1.2671   -0.0277 C   0  0  0  0  0  0  0  0  0  0  0  0
   -2.6802    1.4440   -0.1703 N   0  0  0  0  0  2  0  0  0  0  0  0
   -2.6801   -1.4441   -0.1698 N   0  0  0  0  0  0  0  0  0  0  0  0
    0.2767   -1.4405   -0.0694 N   0  0  0  0  0  2  0  0  0  0  0  0
    0.2767    1.4405   -0.0695 N   0  0  0  0  0  0  0  0  0  0  0  0
    8.0467    0.0001    0.1499 N   0  0  0  0  0  0  0  0  0  0  0  0
  1  3  1  0  0  0  0
  1 84  1  0  0  0  0
  2  1  1  0  0  0  0
  4  1  1  0  0  0  0
  5  8  1  0  0  0  0
  5  6  1  0  0  0  0
  7  5  1  0  0  0  0
  9 84  1  0  0  0  0
  9 10  1  0  0  0  0
 10 11  1  0  0  0  0
 12 10  2  0  0  0  0
 12 13  1  0  0  0  0
 14 12  1  0  0  0  0
 15 17  1  0  0  0  0
 15 14  2  0  0  0  0
 16 15  1  0  0  0  0
 17  9  2  0  0  0  0
 18 17  1  0  0  0  0
 19 14  1  0  0  0  0
 20 19  2  0  0  0  0
 20 21  1  0  0  0  0
 21 22  1  0  0  0  0
 22 23  1  0  0  0  0
 22 24  1  0  0  0  0
 25 22  1  0  0  0  0
 26 27  1  0  0  0  0
 26 21  2  0  0  0  0
 27 28  1  0  0  0  0
 27 30  1  0  0  0  0
 29 27  1  0  0  0  0
 31 82  1  0  0  0  0
 31 26  1  0  0  0  0
 32 33  1  0  0  0  0
 32 31  2  0  0  0  0
 34 32  1  0  0  0  0
 35 36  1  0  0  0  0
 35 34  1  0  0  0  0
 36 37  1  0  0  0  0
 38 36  1  0  0  0  0
 39 36  1  0  0  0  0
 40 41  1  0  0  0  0
 40 48  1  0  0  0  0
 40 35  2  0  0  0  0
 41 44  1  0  0  0  0
 42 41  1  0  0  0  0
 43 41  1  0  0  0  0
 44 47  1  0  0  0  0
 44 45  1  0  0  0  0
 46 44  1  0  0  0  0
 48 81  1  0  0  0  0
 49 51  1  0  0  0  0
 49 48  2  0  0  0  0
 50 49  1  0  0  0  0
 51 80  1  0  0  0  0
 52 53  1  0  0  0  0
 52 51  2  0  0  0  0
 52 60  1  0  0  0  0
 53 56  1  0  0  0  0
 54 53  1  0  0  0  0
 55 53  1  0  0  0  0
 56 57  1  0  0  0  0
 56 59  1  0  0  0  0
 58 56  1  0  0  0  0
 60 61  1  0  0  0  0
 60 65  2  0  0  0  0
 61 64  1  0  0  0  0
 62 61  1  0  0  0  0
 63 61  1  0  0  0  0
 65 66  1  0  0  0  0
 66 67  1  0  0  0  0
 66 68  2  0  0  0  0
 68 83  1  0  0  0  0
 68 69  1  0  0  0  0
 69 70  1  0  0  0  0
 69 74  2  0  0  0  0
 70 73  1  0  0  0  0
 70 71  1  0  0  0  0
 72 70  1  0  0  0  0
 74 75  1  0  0  0  0
 75 76  1  0  0  0  0
 75 78  1  0  0  0  0
 77 75  1  0  0  0  0
 79 19  1  0  0  0  0
 79 74  1  0  0  0  0
 80 65  1  0  0  0  0
 81 34  2  0  0  0  0
 82 20  1  0  0  0  0
 83 79  2  0  0  0  0
 84  5  1  0  0  0  0
M  END
