1,2,3,4
q = 0.0, confidence = 0.994

 67 69  0  0  0  0  0  0  0  0999 V2000
    3.0879   -1.3845   -0.1222 N   0  0  0  0  0  0  0  0  0  0  0  0
    1.8034    0.7368   -1.7526 N   0  0  0  0  0  0  0  0  0  0  0  0
    0.3251   -2.2719   -0.7101 N   0  0  0  0  0  0  0  0  0  0  0  0
    1.3422   -0.2592    1.8837 N   0  0  0  0  0  0  0  0  0  0  0  0
    3.8410   -0.5562   -1.0653 C   0  0  0  0  0  0  0  0  0  0  0  0
    2.9747   -0.0398   -2.2232 C   0  0  0  0  0  0  0  0  0  0  0  0
    2.1107    2.1609   -1.4632 C   0  0  0  0  0  0  0  0  0  0  0  0
    0.9105    2.8879   -0.9059 C   0  0  0  0  0  0  0  0  0  0  0  0
    0.9798    3.5432    0.3385 C   0  0  0  0  0  0  0  0  0  0  0  0
   -0.1328    4.2270    0.8542 C   0  0  0  0  0  0  0  0  0  0  0  0
   -1.3347    4.2587    0.1311 C   0  0  0  0  0  0  0  0  0  0  0  0
   -1.4137    3.6171   -1.1161 C   0  0  0  0  0  0  0  0  0  0  0  0
   -0.2969    2.9448   -1.6330 C   0  0  0  0  0  0  0  0  0  0  0  0
    2.7605   -2.7402   -0.5750 C   0  0  0  0  0  0  0  0  0  0  0  0
    1.3483   -3.1753   -0.1605 C   0  0  0  0  0  0  0  0  0  0  0  0
   -1.0486   -2.5625   -0.2501 C   0  0  0  0  0  0  0  0  0  0  0  0
   -2.0913   -1.8451   -1.0795 C   0  0  0  0  0  0  0  0  0  0  0  0
   -3.3561   -2.4321   -1.2742 C   0  0  0  0  0  0  0  0  0  0  0  0
   -4.3557   -1.7594   -1.9922 C   0  0  0  0  0  0  0  0  0  0  0  0
   -4.0997   -0.4928   -2.5420 C   0  0  0  0  0  0  0  0  0  0  0  0
   -2.8392    0.0974   -2.3614 C   0  0  0  0  0  0  0  0  0  0  0  0
   -1.8475   -0.5716   -1.6298 C   0  0  0  0  0  0  0  0  0  0  0  0
    3.5060   -1.2799    1.2804 C   0  0  0  0  0  0  0  0  0  0  0  0
    2.8050   -0.1380    2.0296 C   0  0  0  0  0  0  0  0  0  0  0  0
    0.5448    0.7093    2.6783 C   0  0  0  0  0  0  0  0  0  0  0  0
   -0.9114    0.3340    2.5712 C   0  0  0  0  0  0  0  0  0  0  0  0
   -1.6859    0.7919    1.4872 C   0  0  0  0  0  0  0  0  0  0  0  0
   -3.0117    0.3612    1.3317 C   0  0  0  0  0  0  0  0  0  0  0  0
   -3.5715   -0.5417    2.2493 C   0  0  0  0  0  0  0  0  0  0  0  0
   -2.8066   -1.0055    3.3320 C   0  0  0  0  0  0  0  0  0  0  0  0
   -1.4828   -0.5662    3.4928 C   0  0  0  0  0  0  0  0  0  0  0  0
    1.0967    0.7225   -2.5000 H   0  0  0  0  0  0  0  0  0  0  0  0
    4.2496    0.3091   -0.5046 H   0  0  0  0  0  0  0  0  0  0  0  0
    4.7257   -1.0884   -1.4930 H   0  0  0  0  0  0  0  0  0  0  0  0
    2.5902   -0.8966   -2.8135 H   0  0  0  0  0  0  0  0  0  0  0  0
    3.6117    0.5599   -2.9132 H   0  0  0  0  0  0  0  0  0  0  0  0
    2.9390    2.1934   -0.7287 H   0  0  0  0  0  0  0  0  0  0  0  0
    2.4806    2.6683   -2.3868 H   0  0  0  0  0  0  0  0  0  0  0  0
    1.9248    3.5288    0.9051 H   0  0  0  0  0  0  0  0  0  0  0  0
   -0.0605    4.7373    1.8261 H   0  0  0  0  0  0  0  0  0  0  0  0
   -2.2091    4.7895    0.5352 H   0  0  0  0  0  0  0  0  0  0  0  0
   -2.3491    3.6510   -1.6944 H   0  0  0  0  0  0  0  0  0  0  0  0
   -0.3686    2.4722   -2.6269 H   0  0  0  0  0  0  0  0  0  0  0  0
    0.3281   -2.3646   -1.7371 H   0  0  0  0  0  0  0  0  0  0  0  0
    2.8261   -2.7646   -1.6830 H   0  0  0  0  0  0  0  0  0  0  0  0
    3.4971   -3.4962   -0.2120 H   0  0  0  0  0  0  0  0  0  0  0  0
    1.2528   -3.1653    0.9470 H   0  0  0  0  0  0  0  0  0  0  0  0
    1.1848   -4.2352   -0.4693 H   0  0  0  0  0  0  0  0  0  0  0  0
   -1.2581   -3.6577   -0.2707 H   0  0  0  0  0  0  0  0  0  0  0  0
   -1.1281   -2.2417    0.8142 H   0  0  0  0  0  0  0  0  0  0  0  0
   -3.5625   -3.4295   -0.8545 H   0  0  0  0  0  0  0  0  0  0  0  0
   -5.3392   -2.2323   -2.1322 H   0  0  0  0  0  0  0  0  0  0  0  0
   -4.8810    0.0306   -3.1131 H   0  0  0  0  0  0  0  0  0  0  0  0
   -2.6321    1.0932   -2.7819 H   0  0  0  0  0  0  0  0  0  0  0  0
   -0.8724   -0.0842   -1.4445 H   0  0  0  0  0  0  0  0  0  0  0  0
    1.0682   -1.1944    2.2254 H   0  0  0  0  0  0  0  0  0  0  0  0
    3.2534   -2.2351    1.7877 H   0  0  0  0  0  0  0  0  0  0  0  0
    4.6107   -1.1681    1.3833 H   0  0  0  0  0  0  0  0  0  0  0  0
    3.1088    0.8511    1.6266 H   0  0  0  0  0  0  0  0  0  0  0  0
    3.1215   -0.1585    3.0994 H   0  0  0  0  0  0  0  0  0  0  0  0
    0.8735    0.7054    3.7432 H   0  0  0  0  0  0  0  0  0  0  0  0
    0.7265    1.7213    2.2664 H   0  0  0  0  0  0  0  0  0  0  0  0
   -1.2469    1.4968    0.7652 H   0  0  0  0  0  0  0  0  0  0  0  0
   -3.6076    0.7228    0.4810 H   0  0  0  0  0  0  0  0  0  0  0  0
   -4.6106   -0.8804    2.1229 H   0  0  0  0  0  0  0  0  0  0  0  0
   -3.2456   -1.7035    4.0604 H   0  0  0  0  0  0  0  0  0  0  0  0
   -0.8887   -0.9179    4.3524 H   0  0  0  0  0  0  0  0  0  0  0  0
  1 23  1  0  0  0  0
  2  7  1  0  0  0  0
  3 16  1  0  0  0  0
  3 15  1  0  0  0  0
  4 24  1  0  0  0  0
  4 56  1  0  0  0  0
  4 25  1  0  0  0  0
  5 33  1  0  0  0  0
  5  1  1  0  0  0  0
  6  2  1  0  0  0  0
  6  5  1  0  0  0  0
  7  8  1  0  0  0  0
  7 37  1  0  0  0  0
  8  9  1  0  0  0  0
  9 10  2  0  0  0  0
  9 39  1  0  0  0  0
 10 40  1  0  0  0  0
 11 41  1  0  0  0  0
 11 10  1  0  0  0  0
 12 11  2  0  0  0  0
 13 12  1  0  0  0  0
 13  8  2  0  0  0  0
 14 46  1  0  0  0  0
 14 15  1  0  0  0  0
 14  1  1  0  0  0  0
 15 47  1  0  0  0  0
 16 50  1  0  0  0  0
 17 16  1  0  0  0  0
 18 17  1  0  0  0  0
 18 51  1  0  0  0  0
 19 18  2  0  0  0  0
 20 21  2  0  0  0  0
 20 19  1  0  0  0  0
 21 22  1  0  0  0  0
 22 55  1  0  0  0  0
 22 17  2  0  0  0  0
 23 58  1  0  0  0  0
 23 57  1  0  0  0  0
 23 24  1  0  0  0  0
 24 60  1  0  0  0  0
 25 61  1  0  0  0  0
 26 25  1  0  0  0  0
 26 31  1  0  0  0  0
 27 26  2  0  0  0  0
 28 27  1  0  0  0  0
 28 29  2  0  0  0  0
 29 30  1  0  0  0  0
 30 31  2  0  0  0  0
 30 66  1  0  0  0  0
 31 67  1  0  0  0  0
 32  2  1  0  0  0  0
 34  5  1  0  0  0  0
 35  6  1  0  0  0  0
 36  6  1  0  0  0  0
 38  7  1  0  0  0  0
 42 12  1  0  0  0  0
 43 13  1  0  0  0  0
 44  3  1  0  0  0  0
 45 14  1  0  0  0  0
 48 15  1  0  0  0  0
 49 16  1  0  0  0  0
 52 19  1  0  0  0  0
 53 20  1  0  0  0  0
 54 21  1  0  0  0  0
 59 24  1  0  0  0  0
 62 25  1  0  0  0  0
 63 27  1  0  0  0  0
 64 28  1  0  0  0  0
 65 29  1  0  0  0  0
M  END
