1,4,6,8
q = 0.0, confidence = 1.0

 34 33  0  0  0  0  0  0  0  0999 V2000
    1.4486   -1.7228    0.1546 N   0  0  0  0  0  0  0  0  0  0  0  0
    1.2307   -1.8143    1.1670 H   0  0  0  0  0  0  0  0  0  0  0  0
    1.1688   -2.6103   -0.2896 H   0  0  0  0  0  0  0  0  0  0  0  0
    1.4535    1.1341    0.3125 N   0  0  0  0  0  0  0  0  0  0  0  0
    1.2340    1.0101    1.3227 H   0  0  0  0  0  0  0  0  0  0  0  0
   -1.0914    1.2483   -0.6563 N   0  0  0  0  0  0  0  0  0  0  0  0
   -0.9588    1.3942   -1.6706 H   0  0  0  0  0  0  0  0  0  0  0  0
   -1.1774   -1.6721   -0.7653 N   0  0  0  0  0  0  0  0  0  0  0  0
   -1.0461   -1.8740   -1.7701 H   0  0  0  0  0  0  0  0  0  0  0  0
   -0.9162   -2.5404   -0.2736 H   0  0  0  0  0  0  0  0  0  0  0  0
    2.9051   -1.5566   -0.0559 C   0  0  0  0  0  0  0  0  0  0  0  0
    3.0864   -1.4860   -1.1475 H   0  0  0  0  0  0  0  0  0  0  0  0
    3.4363   -2.4614    0.3092 H   0  0  0  0  0  0  0  0  0  0  0  0
    2.9064    0.9892    0.0996 C   0  0  0  0  0  0  0  0  0  0  0  0
    3.4275    1.8457    0.5816 H   0  0  0  0  0  0  0  0  0  0  0  0
    3.1039    1.0635   -0.9898 H   0  0  0  0  0  0  0  0  0  0  0  0
   -2.6275   -1.4539   -0.5112 C   0  0  0  0  0  0  0  0  0  0  0  0
   -3.2020   -2.3063   -0.9317 H   0  0  0  0  0  0  0  0  0  0  0  0
   -2.7914   -1.4553    0.5845 H   0  0  0  0  0  0  0  0  0  0  0  0
   -2.5474    1.0858   -0.4192 C   0  0  0  0  0  0  0  0  0  0  0  0
   -3.0675    2.0020   -0.7755 H   0  0  0  0  0  0  0  0  0  0  0  0
   -2.7150    1.0235    0.6747 H   0  0  0  0  0  0  0  0  0  0  0  0
    3.4468   -0.3227    0.6523 C   0  0  0  0  0  0  0  0  0  0  0  0
    3.2463   -0.3900    1.7450 H   0  0  0  0  0  0  0  0  0  0  0  0
    4.5501   -0.3159    0.5472 H   0  0  0  0  0  0  0  0  0  0  0  0
    0.9453    2.4498   -0.1233 C   0  0  0  0  0  0  0  0  0  0  0  0
    1.2248    2.5941   -1.1881 H   0  0  0  0  0  0  0  0  0  0  0  0
    1.4111    3.2770    0.4548 H   0  0  0  0  0  0  0  0  0  0  0  0
   -0.5588    2.4406    0.0459 C   0  0  0  0  0  0  0  0  0  0  0  0
   -0.8309    2.3482    1.1170 H   0  0  0  0  0  0  0  0  0  0  0  0
   -1.0197    3.3753   -0.3389 H   0  0  0  0  0  0  0  0  0  0  0  0
   -3.1224   -0.1443   -1.1077 C   0  0  0  0  0  0  0  0  0  0  0  0
   -4.2251   -0.1121   -0.9995 H   0  0  0  0  0  0  0  0  0  0  0  0
   -2.9269   -0.1121   -2.2037 H   0  0  0  0  0  0  0  0  0  0  0  0
  1  2  1  0  0  0  0
  3  1  1  0  0  0  0
  4  5  1  0  0  0  0
  6 20  1  0  0  0  0
  6 29  1  0  0  0  0
  7  6  1  0  0  0  0
  8 17  1  0  0  0  0
  8 10  1  0  0  0  0
  9  8  1  0  0  0  0
 11  1  1  0  0  0  0
 11 13  1  0  0  0  0
 11 23  1  0  0  0  0
 12 11  1  0  0  0  0
 14  4  1  0  0  0  0
 14 15  1  0  0  0  0
 14 23  1  0  0  0  0
 16 14  1  0  0  0  0
 17 19  1  0  0  0  0
 18 17  1  0  0  0  0
 20 22  1  0  0  0  0
 21 20  1  0  0  0  0
 23 24  1  0  0  0  0
 25 23  1  0  0  0  0
 26 29  1  0  0  0  0
 26  4  1  0  0  0  0
 26 28  1  0  0  0  0
 27 26  1  0  0  0  0
 29 30  1  0  0  0  0
 31 29  1  0  0  0  0
 32 33  1  0  0  0  0
 32 17  1  0  0  0  0
 32 20  1  0  0  0  0
 34 32  1  0  0  0  0
M  END
