10,11,12,13
q = -3.0

 73 75  0  0  0  0  0  0  0  0999 V2000
    0.2040    2.0803   -0.4004 S   0  0  0  0  0  0  0  0  0  0  0  0
   -4.2206   -1.2667   -0.6782 S   0  0  0  0  0  0  0  0  0  0  0  0
    1.5202   -2.8970   -0.5911 S   0  0  0  0  0  0  0  0  0  0  0  0
    0.3949    1.5451   -1.7986 O   0  0  0  0  0  0  0  0  0  0  0  0
   -5.5019   -1.5874    0.0258 O   0  0  0  0  0  0  0  0  0  0  0  0
   -0.2462    3.5000   -0.2858 O   0  0  0  0  0  0  0  0  0  0  0  0
    0.7849   -2.9367   -1.8972 O   0  0  0  0  0  0  0  0  0  0  0  0
   -4.0288   -1.7181   -2.0753 O   0  0  0  0  0  0  0  0  0  0  0  0
    2.0492   -4.1741   -0.0356 O   0  0  0  0  0  0  0  0  0  0  0  0
   -0.6722    1.0201    0.4209 N   0  0  0  0  0  2  0  0  0  0  0  0
   -2.9367   -1.7254    0.2442 N   0  0  0  0  0  2  0  0  0  0  0  0
    0.5976   -2.0829    0.4656 N   0  0  0  0  0  2  0  0  0  0  0  0
   -1.1793   -0.9893    2.3568 N   0  0  0  0  0  0  0  0  0  0  0  0
    6.3796    0.7276   -1.5856 C   0  0  0  0  0  0  0  0  0  0  0  0
    6.1802    1.7135   -1.1142 H   0  0  0  0  0  0  0  0  0  0  0  0
    6.5650    0.9189   -2.6633 H   0  0  0  0  0  0  0  0  0  0  0  0
    7.3115    0.3210   -1.1452 H   0  0  0  0  0  0  0  0  0  0  0  0
   -3.6282    3.3164   -0.6046 C   0  0  0  0  0  0  0  0  0  0  0  0
   -3.2270   -2.1563    1.5994 C   0  0  0  0  0  0  0  0  0  0  0  0
   -2.8339   -3.1897    1.7618 H   0  0  0  0  0  0  0  0  0  0  0  0
   -4.3239   -2.2144    1.7667 H   0  0  0  0  0  0  0  0  0  0  0  0
    1.8692    2.0988    0.3322 C   0  0  0  0  0  0  0  0  0  0  0  0
   -4.1000    0.5391   -0.7198 C   0  0  0  0  0  0  0  0  0  0  0  0
    4.4701    2.0700    1.4203 C   0  0  0  0  0  0  0  0  0  0  0  0
   -2.6058   -1.2007    2.6262 C   0  0  0  0  0  0  0  0  0  0  0  0
   -3.1145   -0.2204    2.5315 H   0  0  0  0  0  0  0  0  0  0  0  0
   -2.7726   -1.5645    3.6736 H   0  0  0  0  0  0  0  0  0  0  0  0
   -0.6783    0.3223    2.7721 C   0  0  0  0  0  0  0  0  0  0  0  0
    0.4280    0.2725    2.8110 H   0  0  0  0  0  0  0  0  0  0  0  0
   -1.0309    0.5888    3.8013 H   0  0  0  0  0  0  0  0  0  0  0  0
    2.3808    0.9173    0.8859 C   0  0  0  0  0  0  0  0  0  0  0  0
    1.7634    0.0083    0.8502 H   0  0  0  0  0  0  0  0  0  0  0  0
    5.8620    2.0377    2.0010 C   0  0  0  0  0  0  0  0  0  0  0  0
    6.4587    1.2126    1.5583 H   0  0  0  0  0  0  0  0  0  0  0  0
    5.8399    1.8627    3.0979 H   0  0  0  0  0  0  0  0  0  0  0  0
    6.4043    2.9871    1.8224 H   0  0  0  0  0  0  0  0  0  0  0  0
   -4.4832    2.6889    0.3251 C   0  0  0  0  0  0  0  0  0  0  0  0
   -4.9598    3.2967    1.1123 H   0  0  0  0  0  0  0  0  0  0  0  0
    3.6677    0.9097    1.4344 C   0  0  0  0  0  0  0  0  0  0  0  0
    4.0671   -0.0256    1.8568 H   0  0  0  0  0  0  0  0  0  0  0  0
    3.9366    3.2443    0.8497 C   0  0  0  0  0  0  0  0  0  0  0  0
    4.5489    4.1611    0.8337 H   0  0  0  0  0  0  0  0  0  0  0  0
   -1.0781    1.4147    1.7679 C   0  0  0  0  0  0  0  0  0  0  0  0
   -2.1794    1.5803    1.7914 H   0  0  0  0  0  0  0  0  0  0  0  0
   -0.6215    2.3797    2.0811 H   0  0  0  0  0  0  0  0  0  0  0  0
   -4.7210    1.3070    0.2764 C   0  0  0  0  0  0  0  0  0  0  0  0
   -5.3829    0.8065    0.9993 H   0  0  0  0  0  0  0  0  0  0  0  0
   -0.3404   -2.1307    2.7231 C   0  0  0  0  0  0  0  0  0  0  0  0
   -0.9382   -3.0455    2.5407 H   0  0  0  0  0  0  0  0  0  0  0  0
   -0.0734   -2.1195    3.8114 H   0  0  0  0  0  0  0  0  0  0  0  0
    4.2289   -2.2248   -0.4002 C   0  0  0  0  0  0  0  0  0  0  0  0
    4.3147   -3.1573    0.1769 H   0  0  0  0  0  0  0  0  0  0  0  0
    2.9821   -1.8755   -0.9338 C   0  0  0  0  0  0  0  0  0  0  0  0
    5.3335   -1.3853   -0.6247 C   0  0  0  0  0  0  0  0  0  0  0  0
    6.3151   -1.6544   -0.2005 H   0  0  0  0  0  0  0  0  0  0  0  0
   -3.2761    4.7766   -0.4966 C   0  0  0  0  0  0  0  0  0  0  0  0
   -3.4545    5.3135   -1.4519 H   0  0  0  0  0  0  0  0  0  0  0  0
   -2.1930    4.8659   -0.2677 H   0  0  0  0  0  0  0  0  0  0  0  0
   -3.8565    5.2847    0.2991 H   0  0  0  0  0  0  0  0  0  0  0  0
   -3.0516    2.5241   -1.6201 C   0  0  0  0  0  0  0  0  0  0  0  0
   -2.3624    2.9897   -2.3411 H   0  0  0  0  0  0  0  0  0  0  0  0
    2.8381   -0.7049   -1.6978 C   0  0  0  0  0  0  0  0  0  0  0  0
    1.8522   -0.4049   -2.0736 H   0  0  0  0  0  0  0  0  0  0  0  0
    2.6392    3.2690    0.3133 C   0  0  0  0  0  0  0  0  0  0  0  0
    2.2048    4.1857   -0.1115 H   0  0  0  0  0  0  0  0  0  0  0  0
    5.2113   -0.2030   -1.3808 C   0  0  0  0  0  0  0  0  0  0  0  0
    3.9459    0.1159   -1.9191 C   0  0  0  0  0  0  0  0  0  0  0  0
    3.8106    1.0472   -2.4913 H   0  0  0  0  0  0  0  0  0  0  0  0
   -3.2893    1.1480   -1.6902 C   0  0  0  0  0  0  0  0  0  0  0  0
   -2.8221    0.5175   -2.4601 H   0  0  0  0  0  0  0  0  0  0  0  0
    0.9339   -2.2282    1.8754 C   0  0  0  0  0  0  0  0  0  0  0  0
    1.6668   -1.4523    2.2175 H   0  0  0  0  0  0  0  0  0  0  0  0
    1.4096   -3.2127    2.0770 H   0  0  0  0  0  0  0  0  0  0  0  0
  1  6  2  0  0  0  0
  1 22  1  0  0  0  0
  1 10  1  0  0  0  0
  2  5  2  0  0  0  0
  2 11  1  0  0  0  0
  3  9  2  0  0  0  0
  3 12  1  0  0  0  0
  4  1  2  0  0  0  0
  7  3  2  0  0  0  0
  8  2  2  0  0  0  0
 10 43  1  0  0  0  0
 11 19  1  0  0  0  0
 12 71  1  0  0  0  0
 13 25  1  0  0  0  0
 13 48  1  0  0  0  0
 13 28  1  0  0  0  0
 14 66  1  0  0  0  0
 14 17  1  0  0  0  0
 14 15  1  0  0  0  0
 16 14  1  0  0  0  0
 18 56  1  0  0  0  0
 18 37  1  0  0  0  0
 19 20  1  0  0  0  0
 19 21  1  0  0  0  0
 19 25  1  0  0  0  0
 22 31  1  0  0  0  0
 23  2  1  0  0  0  0
 23 46  1  0  0  0  0
 24 39  1  0  0  0  0
 24 33  1  0  0  0  0
 25 27  1  0  0  0  0
 26 25  1  0  0  0  0
 28 29  1  0  0  0  0
 28 30  1  0  0  0  0
 31 39  2  0  0  0  0
 32 31  1  0  0  0  0
 33 35  1  0  0  0  0
 34 33  1  0  0  0  0
 36 33  1  0  0  0  0
 37 38  1  0  0  0  0
 39 40  1  0  0  0  0
 41 24  2  0  0  0  0
 42 41  1  0  0  0  0
 43 44  1  0  0  0  0
 43 45  1  0  0  0  0
 43 28  1  0  0  0  0
 46 37  2  0  0  0  0
 46 47  1  0  0  0  0
 48 50  1  0  0  0  0
 49 48  1  0  0  0  0
 51 52  1  0  0  0  0
 53  3  1  0  0  0  0
 53 51  2  0  0  0  0
 54 51  1  0  0  0  0
 54 55  1  0  0  0  0
 56 58  1  0  0  0  0
 56 59  1  0  0  0  0
 57 56  1  0  0  0  0
 60 18  2  0  0  0  0
 61 60  1  0  0  0  0
 62 53  1  0  0  0  0
 63 62  1  0  0  0  0
 64 22  2  0  0  0  0
 64 41  1  0  0  0  0
 65 64  1  0  0  0  0
 66 54  2  0  0  0  0
 67 62  2  0  0  0  0
 67 66  1  0  0  0  0
 68 67  1  0  0  0  0
 69 60  1  0  0  0  0
 69 23  2  0  0  0  0
 70 69  1  0  0  0  0
 71 73  1  0  0  0  0
 71 72  1  0  0  0  0
 71 48  1  0  0  0  0
M  END
