1,3,4,6
q = -1.0

 32 32  0  0  1  0  0  0  0  0999 V2000
    0.6930   -1.2031   -0.1199 N   0  0  0  0  0  2  0  0  0  0  0  0
    0.6752   -2.2282   -0.0701 H   0  0  0  0  0  0  0  0  0  0  0  0
   -0.1246    1.3543   -0.0896 N   0  0  0  0  0  2  0  0  0  0  0  0
   -2.6173    0.6012   -0.1972 N   0  0  0  0  0  0  0  0  0  0  0  0
   -2.8530    0.7176   -1.1983 H   0  0  0  0  0  0  0  0  0  0  0  0
   -1.9302   -1.9753    0.0697 N   0  0  0  0  0  0  0  0  0  0  0  0
   -1.7540   -2.3302    1.0237 H   0  0  0  0  0  0  0  0  0  0  0  0
   -1.6357   -2.7312   -0.5676 H   0  0  0  0  0  0  0  0  0  0  0  0
    1.9527   -0.7216   -0.0256 C   0  0  1  0  0  3  0  0  0  0  0  0
    3.0761   -1.6056    0.0486 C   0  0  0  0  0  0  0  0  0  0  0  0
    2.8938   -2.6920    0.0436 H   0  0  0  0  0  0  0  0  0  0  0  0
    4.3715   -1.1172    0.1145 C   0  0  0  0  0  0  0  0  0  0  0  0
    5.2102   -1.8283    0.1645 H   0  0  0  0  0  0  0  0  0  0  0  0
    4.6348    0.2795    0.1204 C   0  0  0  0  0  0  0  0  0  0  0  0
    5.6684    0.6479    0.1755 H   0  0  0  0  0  0  0  0  0  0  0  0
    3.5721    1.1626    0.0607 C   0  0  0  0  0  0  0  0  0  0  0  0
    3.7501    2.2492    0.0687 H   0  0  0  0  0  0  0  0  0  0  0  0
    2.2224    0.6979   -0.0104 C   0  0  0  0  0  0  0  0  0  0  0  0
    1.1656    1.6402   -0.0531 C   0  0  0  0  0  0  0  0  0  0  0  0
    1.4429    2.7122   -0.0485 H   0  0  0  0  0  0  0  0  0  0  0  0
   -1.1007    2.4476   -0.2076 C   0  0  0  0  0  0  0  0  0  0  0  0
   -1.2497    2.7112   -1.2808 H   0  0  0  0  0  0  0  0  0  0  0  0
   -0.7478    3.3664    0.3059 H   0  0  0  0  0  0  0  0  0  0  0  0
   -2.4059    1.9470    0.3905 C   0  0  0  0  0  0  0  0  0  0  0  0
   -2.3076    1.8229    1.4875 H   0  0  0  0  0  0  0  0  0  0  0  0
   -3.2590    2.6288    0.1867 H   0  0  0  0  0  0  0  0  0  0  0  0
   -3.6318   -0.2778    0.4293 C   0  0  0  0  0  0  0  0  0  0  0  0
   -4.6700    0.0623    0.2257 H   0  0  0  0  0  0  0  0  0  0  0  0
   -3.4794   -0.2442    1.5278 H   0  0  0  0  0  0  0  0  0  0  0  0
   -3.3809   -1.6784   -0.1114 C   0  0  0  0  0  0  0  0  0  0  0  0
   -3.6000   -1.7134   -1.1982 H   0  0  0  0  0  0  0  0  0  0  0  0
   -4.0300   -2.4320    0.3800 H   0  0  0  0  0  0  0  0  0  0  0  0
  1  2  1  0  0  0  0
  3 19  1  0  0  0  0
  4 24  1  0  0  0  0
  4 27  1  0  0  0  0
  5  4  1  0  0  0  0
  6  7  1  0  0  0  0
  8  6  1  0  0  0  0
  9  1  1  6  0  0  0
  9 18  1  0  0  0  0
  9 10  1  0  0  0  0
 10 12  2  0  0  0  0
 11 10  1  0  0  0  0
 12 14  1  0  0  0  0
 12 13  1  0  0  0  0
 14 15  1  0  0  0  0
 16 17  1  0  0  0  0
 16 14  2  0  0  0  0
 18 16  1  0  0  0  0
 19 20  1  0  0  0  0
 19 18  2  0  0  0  0
 21  3  1  0  0  0  0
 21 23  1  0  0  0  0
 21 24  1  0  0  0  0
 22 21  1  0  0  0  0
 24 25  1  0  0  0  0
 26 24  1  0  0  0  0
 27 29  1  0  0  0  0
 28 27  1  0  0  0  0
 30  6  1  0  0  0  0
 30 32  1  0  0  0  0
 30 27  1  0  0  0  0
 31 30  1  0  0  0  0
M  END
