1,3,4,5
q = -1.0

 41 41  0  0  0  0  0  0  0  0999 V2000
    1.0705   -1.1811   -0.2809 N   0  0  0  0  0  2  0  0  0  0  0  0
    1.0615   -2.1924   -0.4641 H   0  0  0  0  0  0  0  0  0  0  0  0
    0.3288    1.3913   -0.3937 N   0  0  0  0  0  2  0  0  0  0  0  0
   -2.3429    0.4634    0.2889 N   0  0  0  0  0  0  0  0  0  0  0  0
   -1.3894   -1.9568   -0.9525 N   0  0  0  0  0  0  0  0  0  0  0  0
   -0.6730   -2.5328   -1.4203 H   0  0  0  0  0  0  0  0  0  0  0  0
   -2.0809   -1.7573   -1.6930 H   0  0  0  0  0  0  0  0  0  0  0  0
    2.3327   -0.7383   -0.0709 C   0  0  0  0  0  0  0  0  0  0  0  0
    3.4274   -1.6512    0.0460 C   0  0  0  0  0  0  0  0  0  0  0  0
    3.2324   -2.7293   -0.0687 H   0  0  0  0  0  0  0  0  0  0  0  0
    4.7104   -1.1999    0.3212 C   0  0  0  0  0  0  0  0  0  0  0  0
    5.5265   -1.9323    0.4169 H   0  0  0  0  0  0  0  0  0  0  0  0
    4.9890    0.1842    0.4706 C   0  0  0  0  0  0  0  0  0  0  0  0
    6.0128    0.5242    0.6788 H   0  0  0  0  0  0  0  0  0  0  0  0
    3.9554    1.0955    0.3298 C   0  0  0  0  0  0  0  0  0  0  0  0
    4.1501    2.1758    0.4180 H   0  0  0  0  0  0  0  0  0  0  0  0
    2.6219    0.6670    0.0594 C   0  0  0  0  0  0  0  0  0  0  0  0
    1.6076    1.6335   -0.1692 C   0  0  0  0  0  3  0  0  0  0  0  0
    1.9278    2.6935   -0.2019 H   0  0  0  0  0  0  0  0  0  0  0  0
   -0.5232    2.5183   -0.7803 C   0  0  0  0  0  0  0  0  0  0  0  0
   -1.0273    2.2531   -1.7338 H   0  0  0  0  0  0  0  0  0  0  0  0
    0.1076    3.4014   -1.0131 H   0  0  0  0  0  0  0  0  0  0  0  0
   -1.5587    2.8878    0.2884 C   0  0  0  0  0  0  0  0  0  0  0  0
   -1.1170    3.5950    1.0194 H   0  0  0  0  0  0  0  0  0  0  0  0
   -2.3977    3.4309   -0.1922 H   0  0  0  0  0  0  0  0  0  0  0  0
   -2.0555    1.6917    1.0926 C   0  0  0  0  0  0  0  0  0  0  0  0
   -2.9738    1.9738    1.6558 H   0  0  0  0  0  0  0  0  0  0  0  0
   -1.2918    1.3962    1.8383 H   0  0  0  0  0  0  0  0  0  0  0  0
   -3.3630    0.7443   -0.7430 C   0  0  0  0  0  0  0  0  0  0  0  0
   -3.5973   -0.1665   -1.3226 H   0  0  0  0  0  0  0  0  0  0  0  0
   -2.9951    1.5106   -1.4472 H   0  0  0  0  0  0  0  0  0  0  0  0
   -4.3075    1.1093   -0.2807 H   0  0  0  0  0  0  0  0  0  0  0  0
   -2.8382   -0.5603    1.2697 C   0  0  0  0  0  0  0  0  0  0  0  0
   -3.7314   -0.1323    1.7798 H   0  0  0  0  0  0  0  0  0  0  0  0
   -2.0484   -0.6647    2.0418 H   0  0  0  0  0  0  0  0  0  0  0  0
   -3.2034   -1.9350    0.7175 C   0  0  0  0  0  0  0  0  0  0  0  0
   -4.0226   -1.8589   -0.0298 H   0  0  0  0  0  0  0  0  0  0  0  0
   -3.6356   -2.5159    1.5572 H   0  0  0  0  0  0  0  0  0  0  0  0
   -2.0396   -2.7263    0.1367 C   0  0  0  0  0  0  0  0  0  0  0  0
   -1.2658   -2.9147    0.9091 H   0  0  0  0  0  0  0  0  0  0  0  0
   -2.3947   -3.7120   -0.2331 H   0  0  0  0  0  0  0  0  0  0  0  0
  1  8  1  0  0  0  0
  2  1  1  0  0  0  0
  3 18  1  0  0  0  0
  4 26  1  0  0  0  0
  4 33  1  0  0  0  0
  5 39  1  0  0  0  0
  6  5  1  0  0  0  0
  7  5  1  0  0  0  0
  8  9  2  0  0  0  0
  8 17  1  0  0  0  0
  9 11  1  0  0  0  0
 10  9  1  0  0  0  0
 11 12  1  0  0  0  0
 11 13  2  0  0  0  0
 13 14  1  0  0  0  0
 15 16  1  0  0  0  0
 15 13  1  0  0  0  0
 17 15  2  0  0  0  0
 18 17  1  0  0  0  0
 19 18  1  0  0  0  0
 20  3  1  0  0  0  0
 20 23  1  0  0  0  0
 21 20  1  0  0  0  0
 22 20  1  0  0  0  0
 23 24  1  0  0  0  0
 23 26  1  0  0  0  0
 25 23  1  0  0  0  0
 26 27  1  0  0  0  0
 26 28  1  0  0  0  0
 29 32  1  0  0  0  0
 29  4  1  0  0  0  0
 30 29  1  0  0  0  0
 31 29  1  0  0  0  0
 33 34  1  0  0  0  0
 33 35  1  0  0  0  0
 36 33  1  0  0  0  0
 36 38  1  0  0  0  0
 37 36  1  0  0  0  0
 39 36  1  0  0  0  0
 39 40  1  0  0  0  0
 41 39  1  0  0  0  0
M  END
