1,14,21,29
q = -1.0, confidence = 0.016

 41 43  0  0  1  0  0  0  0  0999 V2000
    0.6874    0.0607   -0.0612 N   0  0  0  0  0  2  0  0  0  0  0  0
    1.5239   -1.0293   -0.2817 C   0  0  2  0  0  3  0  0  0  0  0  0
    2.7805   -0.8593   -0.9311 C   0  0  0  0  0  0  0  0  0  0  0  0
    3.0473    0.1374   -1.3079 H   0  0  0  0  0  0  0  0  0  0  0  0
    3.6612   -1.9217   -1.1099 C   0  0  0  0  0  0  0  0  0  0  0  0
    4.6112   -1.7464   -1.6369 H   0  0  0  0  0  0  0  0  0  0  0  0
    3.3454   -3.2167   -0.6377 C   0  0  0  0  0  0  0  0  0  0  0  0
    4.0521   -4.0479   -0.7697 H   0  0  0  0  0  0  0  0  0  0  0  0
    2.1119   -3.4256   -0.0386 C   0  0  0  0  0  0  0  0  0  0  0  0
    1.8229   -4.4324    0.3002 H   0  0  0  0  0  0  0  0  0  0  0  0
    1.1726   -2.3654    0.1180 C   0  0  0  0  0  0  0  0  0  0  0  0
   -0.1204   -2.6881    0.6272 C   0  0  0  0  0  0  0  0  0  0  0  0
   -0.2671   -3.7012    1.0504 H   0  0  0  0  0  0  0  0  0  0  0  0
   -1.1559   -1.8864    0.5575 N   0  0  0  0  0  2  0  0  0  0  0  0
   -2.4770   -2.3980    0.9675 C   0  0  0  0  0  0  0  0  0  0  0  0
   -2.4338   -2.9059    1.9536 H   0  0  0  0  0  0  0  0  0  0  0  0
   -2.8190   -3.1544    0.2251 H   0  0  0  0  0  0  0  0  0  0  0  0
   -3.4392   -1.2198    1.0014 C   0  0  0  0  0  0  0  0  0  0  0  0
   -4.5012   -1.5472    0.9982 H   0  0  0  0  0  0  0  0  0  0  0  0
   -3.2733   -0.5967    1.9027 H   0  0  0  0  0  0  0  0  0  0  0  0
   -3.1089   -0.3885   -0.1781 N   0  0  0  0  0  0  0  0  0  0  0  0
   -3.3062   -0.9290   -1.0378 H   0  0  0  0  0  0  0  0  0  0  0  0
   -3.7557    0.9400   -0.2896 C   0  0  0  0  0  0  0  0  0  0  0  0
   -3.7758    1.3928    0.7216 H   0  0  0  0  0  0  0  0  0  0  0  0
   -4.7991    0.8628   -0.6611 H   0  0  0  0  0  0  0  0  0  0  0  0
   -2.8578    1.7544   -1.2114 C   0  0  0  0  0  0  0  0  0  0  0  0
   -2.9196    1.3635   -2.2523 H   0  0  0  0  0  0  0  0  0  0  0  0
   -3.1562    2.8232   -1.2425 H   0  0  0  0  0  0  0  0  0  0  0  0
   -1.4951    1.5828   -0.6981 N   0  0  0  0  0  2  0  0  0  0  0  0
   -0.6699    2.6005   -0.6623 C   0  0  0  0  0  0  0  0  0  0  0  0
   -1.0311    3.5817   -1.0274 H   0  0  0  0  0  0  0  0  0  0  0  0
    0.6436    2.5381   -0.1110 C   0  0  0  0  0  0  0  0  0  0  0  0
    1.3208    3.7669    0.1375 C   0  0  0  0  0  3  0  0  0  0  0  0
    0.8312    4.7034   -0.1713 H   0  0  0  0  0  0  0  0  0  0  0  0
    2.5477    3.7989    0.7833 C   0  0  0  0  0  0  0  0  0  0  0  0
    3.0517    4.7548    0.9829 H   0  0  0  0  0  0  0  0  0  0  0  0
    3.1188    2.5794    1.2162 C   0  0  0  0  0  0  0  0  0  0  0  0
    4.0634    2.5865    1.7807 H   0  0  0  0  0  0  0  0  0  0  0  0
    2.4974    1.3628    0.9542 C   0  0  0  0  0  0  0  0  0  0  0  0
    2.9601    0.4318    1.3080 H   0  0  0  0  0  0  0  0  0  0  0  0
    1.2615    1.2885    0.2466 C   0  0  0  0  0  0  0  0  0  0  0  0
  1 41  1  0  0  0  0
  2  3  1  6  0  0  0
  2  1  1  0  0  0  0
  2 11  1  0  0  0  0
  4  3  1  0  0  0  0
  5  3  2  0  0  0  0
  5  7  1  0  0  0  0
  6  5  1  0  0  0  0
  7  9  2  0  0  0  0
  8  7  1  0  0  0  0
  9 11  1  0  0  0  0
  9 10  1  0  0  0  0
 11 12  2  0  0  0  0
 12 13  1  0  0  0  0
 14 12  1  0  0  0  0
 14 15  1  0  0  0  0
 15 18  1  0  0  0  0
 15 16  1  0  0  0  0
 17 15  1  0  0  0  0
 18 20  1  0  0  0  0
 19 18  1  0  0  0  0
 21 18  1  0  0  0  0
 22 21  1  0  0  0  0
 23 21  1  0  0  0  0
 23 24  1  0  0  0  0
 25 23  1  0  0  0  0
 26 29  1  0  0  0  0
 26 23  1  0  0  0  0
 27 26  1  0  0  0  0
 28 26  1  0  0  0  0
 29 30  1  0  0  0  0
 30 32  2  0  0  0  0
 31 30  1  0  0  0  0
 32 33  1  0  0  0  0
 32 41  1  0  0  0  0
 33 35  1  0  0  0  0
 34 33  1  0  0  0  0
 35 36  1  0  0  0  0
 35 37  2  0  0  0  0
 37 38  1  0  0  0  0
 39 37  1  0  0  0  0
 39 40  1  0  0  0  0
 41 39  2  0  0  0  0
M  END
