11,12,40,41
q = -2.0, confidence = 0.654

 76 84  0  0  0  0  0  0  0  0999 V2000
    4.2136    2.9750   -2.1128 F   0  0  0  0  0  0  0  0  0  0  0  0
    6.1387    4.8957   -2.0516 F   0  0  0  0  0  0  0  0  0  0  0  0
    6.4556    6.4441    0.1826 F   0  0  0  0  0  0  0  0  0  0  0  0
    4.8394    6.0665    2.3588 F   0  0  0  0  0  0  0  0  0  0  0  0
    2.9116    4.1486    2.3042 F   0  0  0  0  0  0  0  0  0  0  0  0
   -4.2156    2.9725    2.1129 F   0  0  0  0  0  0  0  0  0  0  0  0
   -6.1421    4.8917    2.0513 F   0  0  0  0  0  0  0  0  0  0  0  0
   -6.4604    6.4392   -0.1834 F   0  0  0  0  0  0  0  0  0  0  0  0
   -4.8441    6.0622   -2.3596 F   0  0  0  0  0  0  0  0  0  0  0  0
   -2.9148    4.1457   -2.3046 F   0  0  0  0  0  0  0  0  0  0  0  0
   -0.0007    2.0383    0.0002 N   0  0  0  0  0  2  0  0  0  0  0  0
   -2.0378   -0.0007   -0.0362 N   0  0  0  0  0  0  0  0  0  0  0  0
    2.4478    2.4504    0.0609 C   0  0  0  0  0  0  0  0  0  0  0  0
    1.1074    2.8674    0.0225 C   0  0  0  0  0  0  0  0  0  0  0  0
    0.6827    4.2507    0.0078 C   0  0  0  0  0  0  0  0  0  0  0  0
    1.3557    5.1138    0.0085 H   0  0  0  0  0  0  0  0  0  0  0  0
   -0.6858    4.2502   -0.0085 C   0  0  0  0  0  0  0  0  0  0  0  0
   -1.3594    5.1128   -0.0095 H   0  0  0  0  0  0  0  0  0  0  0  0
   -1.1094    2.8666   -0.0225 C   0  0  0  0  0  0  0  0  0  0  0  0
   -2.4496    2.4486   -0.0608 C   0  0  0  0  0  0  0  0  0  0  0  0
   -2.8659    1.1075   -0.0758 C   0  0  0  0  0  0  0  0  0  0  0  0
   -4.2469    0.6828   -0.1550 C   0  0  0  0  0  0  0  0  0  0  0  0
   -5.1075    1.3561   -0.2187 H   0  0  0  0  0  0  0  0  0  0  0  0
   -4.2464   -0.6859   -0.1552 C   0  0  0  0  0  0  0  0  0  0  0  0
   -5.1065   -1.3598   -0.2192 H   0  0  0  0  0  0  0  0  0  0  0  0
   -2.8651   -1.1095   -0.0761 C   0  0  0  0  0  0  0  0  0  0  0  0
    3.5031    3.5044    0.0932 C   0  0  0  0  0  0  0  0  0  0  0  0
    4.3499    3.7196   -1.0111 C   0  0  0  0  0  0  0  0  0  0  0  0
    5.3490    4.7068   -0.9924 C   0  0  0  0  0  0  0  0  0  0  0  0
    5.5116    5.5040    0.1540 C   0  0  0  0  0  0  0  0  0  0  0  0
    4.6795    5.3104    1.2705 C   0  0  0  0  0  0  0  0  0  0  0  0
    3.6886    4.3157    1.2290 C   0  0  0  0  0  0  0  0  0  0  0  0
   -3.5056    3.5018   -0.0933 C   0  0  0  0  0  0  0  0  0  0  0  0
   -4.3525    3.7167    1.0109 C   0  0  0  0  0  0  0  0  0  0  0  0
   -5.3524    4.7032    0.9920 C   0  0  0  0  0  0  0  0  0  0  0  0
   -5.5157    5.4999   -0.1546 C   0  0  0  0  0  0  0  0  0  0  0  0
   -4.6836    5.3066   -1.2711 C   0  0  0  0  0  0  0  0  0  0  0  0
   -3.6919    4.3126   -1.2293 C   0  0  0  0  0  0  0  0  0  0  0  0
    2.8651    1.1096    0.0761 C   0  0  0  0  0  0  0  0  0  0  0  0
    2.0378    0.0008    0.0367 N   0  0  0  0  0  0  0  0  0  0  0  0
    0.0007   -2.0383    0.0003 N   0  0  0  0  0  0  0  0  0  0  0  0
   -1.1074   -2.8674   -0.0224 C   0  0  0  0  0  0  0  0  0  0  0  0
   -2.4478   -2.4504   -0.0611 C   0  0  0  0  0  0  0  0  0  0  0  0
   -3.5030   -3.5044   -0.0940 C   0  0  0  0  0  0  0  0  0  0  0  0
   -4.3502   -3.7199    1.0100 C   0  0  0  0  0  0  0  0  0  0  0  0
   -4.2142   -2.9756    2.1121 F   0  0  0  0  0  0  0  0  0  0  0  0
   -5.3492   -4.7072    0.9907 C   0  0  0  0  0  0  0  0  0  0  0  0
   -6.1392   -4.8964    2.0498 F   0  0  0  0  0  0  0  0  0  0  0  0
   -5.5115   -5.5041   -0.1559 C   0  0  0  0  0  0  0  0  0  0  0  0
   -6.4554   -6.4442   -0.1850 F   0  0  0  0  0  0  0  0  0  0  0  0
   -4.6791   -5.3102   -1.2721 C   0  0  0  0  0  0  0  0  0  0  0  0
   -4.8386   -6.0659   -2.3606 F   0  0  0  0  0  0  0  0  0  0  0  0
   -3.6882   -4.3154   -1.2300 C   0  0  0  0  0  0  0  0  0  0  0  0
   -2.9109   -4.1479   -2.3050 F   0  0  0  0  0  0  0  0  0  0  0  0
   -0.6827   -4.2507   -0.0080 C   0  0  0  0  0  0  0  0  0  0  0  0
   -1.3557   -5.1138   -0.0089 H   0  0  0  0  0  0  0  0  0  0  0  0
    0.6858   -4.2502    0.0086 C   0  0  0  0  0  0  0  0  0  0  0  0
    1.3594   -5.1128    0.0096 H   0  0  0  0  0  0  0  0  0  0  0  0
    1.1094   -2.8666    0.0229 C   0  0  0  0  0  3  0  0  0  0  0  0
    2.4495   -2.4486    0.0614 C   0  0  0  0  0  0  0  0  0  0  0  0
    2.8659   -1.1074    0.0763 C   0  0  0  0  0  0  0  0  0  0  0  0
    4.2469   -0.6828    0.1552 C   0  0  0  0  0  0  0  0  0  0  0  0
    5.1075   -1.3561    0.2188 H   0  0  0  0  0  0  0  0  0  0  0  0
    4.2464    0.6859    0.1551 C   0  0  0  0  0  0  0  0  0  0  0  0
    5.1065    1.3598    0.2187 H   0  0  0  0  0  0  0  0  0  0  0  0
    3.5056   -3.5018    0.0940 C   0  0  0  0  0  0  0  0  0  0  0  0
    4.3525   -3.7167   -1.0103 C   0  0  0  0  0  0  0  0  0  0  0  0
    4.2156   -2.9725   -2.1123 F   0  0  0  0  0  0  0  0  0  0  0  0
    5.3524   -4.7032   -0.9913 C   0  0  0  0  0  0  0  0  0  0  0  0
    6.1421   -4.8918   -2.0506 F   0  0  0  0  0  0  0  0  0  0  0  0
    5.5156   -5.4999    0.1553 C   0  0  0  0  0  0  0  0  0  0  0  0
    6.4602   -6.4393    0.1841 F   0  0  0  0  0  0  0  0  0  0  0  0
    4.6834   -5.3066    1.2717 C   0  0  0  0  0  0  0  0  0  0  0  0
    4.8439   -6.0621    2.3603 F   0  0  0  0  0  0  0  0  0  0  0  0
    3.6918   -4.3126    1.2300 C   0  0  0  0  0  0  0  0  0  0  0  0
    2.9147   -4.1457    2.3052 F   0  0  0  0  0  0  0  0  0  0  0  0
  1 28  1  0  0  0  0
  2 29  1  0  0  0  0
  8 36  1  0  0  0  0
  9 37  1  0  0  0  0
 10 38  1  0  0  0  0
 11 14  1  0  0  0  0
 13 39  1  0  0  0  0
 13 27  1  0  0  0  0
 14 13  2  0  0  0  0
 15 16  1  0  0  0  0
 15 14  1  0  0  0  0
 17 15  2  0  0  0  0
 18 17  1  0  0  0  0
 19 17  1  0  0  0  0
 19 11  1  0  0  0  0
 20 19  2  0  0  0  0
 21 20  1  0  0  0  0
 21 12  2  0  0  0  0
 22 21  1  0  0  0  0
 23 22  1  0  0  0  0
 24 22  2  0  0  0  0
 24 26  1  0  0  0  0
 25 24  1  0  0  0  0
 26 43  2  0  0  0  0
 26 12  1  0  0  0  0
 27 32  1  0  0  0  0
 28 29  1  0  0  0  0
 28 27  2  0  0  0  0
 29 30  2  0  0  0  0
 30  3  1  0  0  0  0
 30 31  1  0  0  0  0
 31  4  1  0  0  0  0
 32 31  2  0  0  0  0
 32  5  1  0  0  0  0
 33 20  1  0  0  0  0
 33 34  1  0  0  0  0
 34  6  1  0  0  0  0
 35 34  2  0  0  0  0
 35  7  1  0  0  0  0
 36 35  1  0  0  0  0
 37 38  1  0  0  0  0
 37 36  2  0  0  0  0
 38 33  2  0  0  0  0
 39 64  1  0  0  0  0
 40 39  2  0  0  0  0
 40 61  1  0  0  0  0
 41 59  1  0  0  0  0
 42 55  1  0  0  0  0
 42 41  2  0  0  0  0
 43 42  1  0  0  0  0
 44 43  1  0  0  0  0
 44 45  1  0  0  0  0
 45 46  1  0  0  0  0
 47 45  2  0  0  0  0
 47 48  1  0  0  0  0
 49 47  1  0  0  0  0
 50 49  1  0  0  0  0
 51 53  1  0  0  0  0
 51 49  2  0  0  0  0
 52 51  1  0  0  0  0
 53 44  2  0  0  0  0
 54 53  1  0  0  0  0
 55 57  2  0  0  0  0
 56 55  1  0  0  0  0
 57 58  1  0  0  0  0
 57 59  1  0  0  0  0
 59 60  1  0  0  0  0
 60 61  2  0  0  0  0
 60 66  1  0  0  0  0
 61 62  1  0  0  0  0
 62 63  1  0  0  0  0
 64 62  2  0  0  0  0
 64 65  1  0  0  0  0
 66 75  1  0  0  0  0
 67 69  1  0  0  0  0
 67 66  2  0  0  0  0
 68 67  1  0  0  0  0
 69 71  2  0  0  0  0
 70 69  1  0  0  0  0
 71 72  1  0  0  0  0
 71 73  1  0  0  0  0
 73 74  1  0  0  0  0
 75 73  2  0  0  0  0
 75 76  1  0  0  0  0
M  END
