5,6,7,8
q = -1.0

 68 75  0  0  1  0  0  0  0  0999 V2000
   -4.4198   -4.7436   -0.3879 O   0  0  0  0  0  0  0  0  0  0  0  0
   -5.0254   -2.9048   -1.4158 O   0  0  0  0  0  0  0  0  0  0  0  0
    4.3758   -4.7929   -0.3073 O   0  0  0  0  0  0  0  0  0  0  0  0
    5.0194   -3.1233    0.9595 O   0  0  0  0  0  0  0  0  0  0  0  0
   -1.2414   -1.5438   -0.1090 N   0  0  0  0  0  0  0  0  0  0  0  0
   -1.4000    1.1186   -0.1188 N   0  0  0  0  0  0  0  0  0  0  0  0
    1.4041    1.1006   -0.0601 N   0  0  0  0  0  0  0  0  0  0  0  0
    1.2241   -1.5601   -0.0672 N   0  0  0  0  0  0  0  0  0  0  0  0
   -4.2366   -3.5773   -0.7490 N   0  0  0  0  0  0  0  0  0  0  0  0
    4.2102   -3.6895    0.2213 N   0  0  0  0  0  0  0  0  0  0  0  0
   -0.7262   -2.8164   -0.2053 C   0  0  0  0  0  0  0  0  0  0  0  0
   -1.7841   -3.7434   -0.3769 C   0  0  0  0  0  0  0  0  0  0  0  0
   -1.7205   -4.8258   -0.5250 H   0  0  0  0  0  0  0  0  0  0  0  0
   -2.9575   -2.9838   -0.4014 C   0  0  0  0  0  0  0  0  0  0  0  0
   -2.6187   -1.5890   -0.2046 C   0  0  0  0  0  3  0  0  0  0  0  0
   -3.3881   -0.4107   -0.0836 C   0  0  2  0  0  3  0  0  0  0  0  0
   -2.7687    0.8675   -0.0371 C   0  0  0  0  0  3  0  0  0  0  0  0
   -3.4663    2.1275    0.0782 C   0  0  0  0  0  0  0  0  0  0  0  0
   -4.5509    2.2337    0.1785 H   0  0  0  0  0  0  0  0  0  0  0  0
   -2.5246    3.1310    0.0392 C   0  0  0  0  0  0  0  0  0  0  0  0
   -2.6922    4.2107    0.1051 H   0  0  0  0  0  0  0  0  0  0  0  0
   -1.2342    2.4992   -0.0807 C   0  0  0  0  0  0  0  0  0  0  0  0
    0.0143    3.1562   -0.1447 C   0  0  1  0  0  3  0  0  0  0  0  0
    1.2534    2.4775   -0.1746 C   0  0  0  0  0  0  0  0  0  0  0  0
    2.5487    3.0816   -0.3651 C   0  0  0  0  0  0  0  0  0  0  0  0
    2.7245    4.1486   -0.5341 H   0  0  0  0  0  0  0  0  0  0  0  0
    3.4785    2.0672   -0.3341 C   0  0  0  0  0  0  0  0  0  0  0  0
    4.5606    2.1458   -0.4780 H   0  0  0  0  0  0  0  0  0  0  0  0
    2.7682    0.8269   -0.1209 C   0  0  0  0  0  3  0  0  0  0  0  0
    3.3794   -0.4559   -0.0631 C   0  0  1  0  0  3  0  0  0  0  0  0
    2.6044   -1.6326    0.0089 C   0  0  0  0  0  3  0  0  0  0  0  0
    2.9290   -3.0444   -0.0002 C   0  0  0  0  0  0  0  0  0  0  0  0
    1.7477   -3.7806   -0.1292 C   0  0  0  0  0  0  0  0  0  0  0  0
    1.6770   -4.8716   -0.1775 H   0  0  0  0  0  0  0  0  0  0  0  0
    0.6978   -2.8284   -0.1464 C   0  0  0  0  0  0  0  0  0  0  0  0
   -4.8634   -0.4975    0.0584 C   0  0  0  0  0  0  0  0  0  0  0  0
   -5.4156   -1.2339    1.1288 C   0  0  0  0  0  0  0  0  0  0  0  0
   -4.7432   -1.7265    1.8477 H   0  0  0  0  0  0  0  0  0  0  0  0
   -6.8046   -1.3345    1.2802 C   0  0  0  0  0  0  0  0  0  0  0  0
   -7.2213   -1.9109    2.1198 H   0  0  0  0  0  0  0  0  0  0  0  0
   -7.6604   -0.7049    0.3635 C   0  0  0  0  0  0  0  0  0  0  0  0
   -8.7515   -0.7917    0.4772 H   0  0  0  0  0  0  0  0  0  0  0  0
   -7.1197    0.0300   -0.7041 C   0  0  0  0  0  0  0  0  0  0  0  0
   -7.7865    0.5126   -1.4346 H   0  0  0  0  0  0  0  0  0  0  0  0
   -5.7319    0.1391   -0.8540 C   0  0  0  0  0  0  0  0  0  0  0  0
   -5.3078    0.6870   -1.7082 H   0  0  0  0  0  0  0  0  0  0  0  0
    0.0285    4.6452   -0.1861 C   0  0  0  0  0  0  0  0  0  0  0  0
   -0.6117    5.3422   -1.2346 C   0  0  0  0  0  0  0  0  0  0  0  0
   -1.1126    4.7716   -2.0310 H   0  0  0  0  0  0  0  0  0  0  0  0
   -0.5930    6.7434   -1.2744 C   0  0  0  0  0  0  0  0  0  0  0  0
   -1.0874    7.2717   -2.1037 H   0  0  0  0  0  0  0  0  0  0  0  0
    0.0590    7.4700   -0.2653 C   0  0  0  0  0  0  0  0  0  0  0  0
    0.0709    8.5700   -0.2962 H   0  0  0  0  0  0  0  0  0  0  0  0
    0.6965    6.7873    0.7829 C   0  0  0  0  0  0  0  0  0  0  0  0
    1.2038    7.3505    1.5808 H   0  0  0  0  0  0  0  0  0  0  0  0
    0.6851    5.3859    0.8214 C   0  0  0  0  0  0  0  0  0  0  0  0
    1.1770    4.8502    1.6470 H   0  0  0  0  0  0  0  0  0  0  0  0
    4.8583   -0.5274   -0.1918 C   0  0  0  0  0  0  0  0  0  0  0  0
    5.4353   -1.1756   -1.3043 C   0  0  0  0  0  0  0  0  0  0  0  0
    4.7806   -1.6261   -2.0660 H   0  0  0  0  0  0  0  0  0  0  0  0
    6.8276   -1.2439   -1.4417 C   0  0  0  0  0  0  0  0  0  0  0  0
    7.2649   -1.7529   -2.3138 H   0  0  0  0  0  0  0  0  0  0  0  0
    7.6607   -0.6674   -0.4704 C   0  0  0  0  0  0  0  0  0  0  0  0
    8.7544   -0.7287   -0.5746 H   0  0  0  0  0  0  0  0  0  0  0  0
    7.0942   -0.0154    0.6365 C   0  0  0  0  0  0  0  0  0  0  0  0
    7.7430    0.4306    1.4055 H   0  0  0  0  0  0  0  0  0  0  0  0
    5.7022    0.0614    0.7730 C   0  0  0  0  0  0  0  0  0  0  0  0
    5.2560    0.5555    1.6487 H   0  0  0  0  0  0  0  0  0  0  0  0
  2  9  2  0  0  0  0
  3 10  2  0  0  0  0
  6 22  2  0  0  0  0
  6 17  1  0  0  0  0
  8 31  1  0  0  0  0
  9 14  1  0  0  0  0
  9  1  2  0  0  0  0
 10  4  2  0  0  0  0
 11 35  1  0  0  0  0
 11  5  2  0  0  0  0
 12 11  1  0  0  0  0
 13 12  1  0  0  0  0
 14 12  2  0  0  0  0
 14 15  1  0  0  0  0
 15  5  1  0  0  0  0
 15 16  1  0  0  0  0
 16 17  1  0  0  0  0
 16 36  1  1  0  0  0
 17 18  1  0  0  0  0
 18 19  1  0  0  0  0
 20 18  2  0  0  0  0
 20 21  1  0  0  0  0
 22 20  1  0  0  0  0
 23 47  1  6  0  0  0
 23 22  1  0  0  0  0
 24 23  1  0  0  0  0
 24  7  2  0  0  0  0
 25 27  2  0  0  0  0
 25 24  1  0  0  0  0
 26 25  1  0  0  0  0
 27 29  1  0  0  0  0
 28 27  1  0  0  0  0
 29 30  1  0  0  0  0
 29  7  1  0  0  0  0
 30 58  1  6  0  0  0
 30 31  1  0  0  0  0
 32 31  1  0  0  0  0
 32 10  1  0  0  0  0
 33 32  2  0  0  0  0
 34 33  1  0  0  0  0
 35 33  1  0  0  0  0
 35  8  2  0  0  0  0
 36 37  1  0  0  0  0
 37 39  2  0  0  0  0
 37 38  1  0  0  0  0
 39 40  1  0  0  0  0
 41 42  1  0  0  0  0
 41 39  1  0  0  0  0
 43 41  2  0  0  0  0
 44 43  1  0  0  0  0
 45 43  1  0  0  0  0
 45 36  2  0  0  0  0
 46 45  1  0  0  0  0
 47 56  1  0  0  0  0
 48 47  2  0  0  0  0
 49 48  1  0  0  0  0
 50 48  1  0  0  0  0
 50 52  2  0  0  0  0
 51 50  1  0  0  0  0
 52 54  1  0  0  0  0
 53 52  1  0  0  0  0
 54 56  2  0  0  0  0
 54 55  1  0  0  0  0
 56 57  1  0  0  0  0
 58 67  1  0  0  0  0
 59 58  2  0  0  0  0
 60 59  1  0  0  0  0
 61 59  1  0  0  0  0
 61 63  2  0  0  0  0
 62 61  1  0  0  0  0
 63 65  1  0  0  0  0
 64 63  1  0  0  0  0
 65 67  2  0  0  0  0
 65 66  1  0  0  0  0
 67 68  1  0  0  0  0
M  END
