4,6,7,9
q = -1.0, confidence = 0.0

 39 39  0  0  1  0  0  0  0  0999 V2000
    0.9872   -2.6796    0.2489 C   0  0  0  0  0  0  0  0  0  0  0  0
    0.9620   -2.6243    1.3557 H   0  0  0  0  0  0  0  0  0  0  0  0
    1.5714   -3.5791   -0.0435 H   0  0  0  0  0  0  0  0  0  0  0  0
    1.6363   -1.4381   -0.2398 N   0  0  0  0  0  0  0  0  0  0  0  0
    1.7573   -1.5388   -1.2635 H   0  0  0  0  0  0  0  0  0  0  0  0
   -0.9916   -1.3696   -0.0588 N   0  0  0  0  0  2  0  0  0  0  0  0
    1.6363    1.4381   -0.2398 N   0  0  0  0  0  0  0  0  0  0  0  0
    1.7573    1.5388   -1.2635 H   0  0  0  0  0  0  0  0  0  0  0  0
   -0.9916    1.3696   -0.0588 N   0  0  0  0  0  2  0  0  0  0  0  0
    2.9850    1.2652    0.3487 C   0  0  0  0  0  0  0  0  0  0  0  0
    2.8635    1.2418    1.4513 H   0  0  0  0  0  0  0  0  0  0  0  0
    3.6010    2.1600    0.1097 H   0  0  0  0  0  0  0  0  0  0  0  0
   -2.9589   -0.0000    0.1813 C   0  0  0  0  0  0  0  0  0  0  0  0
   -4.0465   -0.0000    0.3170 H   0  0  0  0  0  0  0  0  0  0  0  0
    3.6779    0.0000   -0.1290 C   0  0  0  0  0  0  0  0  0  0  0  0
    4.7165    0.0000    0.2580 H   0  0  0  0  0  0  0  0  0  0  0  0
    3.7738    0.0000   -1.2387 H   0  0  0  0  0  0  0  0  0  0  0  0
   -2.3221   -1.2473    0.0781 C   0  0  1  0  0  3  0  0  0  0  0  0
   -0.4161    2.6913   -0.3045 C   0  0  0  0  0  0  0  0  0  0  0  0
   -0.9956    3.5035    0.1765 H   0  0  0  0  0  0  0  0  0  0  0  0
   -0.4007    2.9198   -1.3980 H   0  0  0  0  0  0  0  0  0  0  0  0
   -2.3221    1.2472    0.0781 C   0  0  0  0  0  0  0  0  0  0  0  0
    2.9850   -1.2652    0.3486 C   0  0  0  0  0  0  0  0  0  0  0  0
    3.6010   -2.1600    0.1095 H   0  0  0  0  0  0  0  0  0  0  0  0
    2.8636   -1.2419    1.4512 H   0  0  0  0  0  0  0  0  0  0  0  0
   -0.4161   -2.6913   -0.3044 C   0  0  0  0  0  0  0  0  0  0  0  0
   -0.4007   -2.9198   -1.3980 H   0  0  0  0  0  0  0  0  0  0  0  0
   -0.9956   -3.5035    0.1766 H   0  0  0  0  0  0  0  0  0  0  0  0
   -3.1959    2.4819    0.1076 C   0  0  0  0  0  0  0  0  0  0  0  0
   -3.1118    3.0652   -0.8326 H   0  0  0  0  0  0  0  0  0  0  0  0
   -2.9227    3.1600    0.9429 H   0  0  0  0  0  0  0  0  0  0  0  0
   -4.2552    2.1998    0.2365 H   0  0  0  0  0  0  0  0  0  0  0  0
   -3.1958   -2.4819    0.1076 C   0  0  0  0  0  0  0  0  0  0  0  0
   -3.1117   -3.0652   -0.8326 H   0  0  0  0  0  0  0  0  0  0  0  0
   -4.2551   -2.1999    0.2365 H   0  0  0  0  0  0  0  0  0  0  0  0
   -2.9226   -3.1600    0.9429 H   0  0  0  0  0  0  0  0  0  0  0  0
    0.9872    2.6797    0.2489 C   0  0  0  0  0  0  0  0  0  0  0  0
    1.5714    3.5791   -0.0435 H   0  0  0  0  0  0  0  0  0  0  0  0
    0.9620    2.6244    1.3557 H   0  0  0  0  0  0  0  0  0  0  0  0
  1  2  1  0  0  0  0
  3  1  1  0  0  0  0
  4  1  1  0  0  0  0
  4 23  1  0  0  0  0
  5  4  1  0  0  0  0
  6 18  1  0  0  0  0
  7 37  1  0  0  0  0
  7 10  1  0  0  0  0
  8  7  1  0  0  0  0
  9 22  1  0  0  0  0
 10 11  1  0  0  0  0
 12 10  1  0  0  0  0
 13 14  1  0  0  0  0
 15 16  1  0  0  0  0
 15 23  1  0  0  0  0
 15 10  1  0  0  0  0
 17 15  1  0  0  0  0
 18 33  1  6  0  0  0
 18 13  1  0  0  0  0
 19  9  1  0  0  0  0
 19 20  1  0  0  0  0
 19 37  1  0  0  0  0
 21 19  1  0  0  0  0
 22 29  1  0  0  0  0
 22 13  2  0  0  0  0
 23 25  1  0  0  0  0
 24 23  1  0  0  0  0
 26  6  1  0  0  0  0
 26 28  1  0  0  0  0
 26  1  1  0  0  0  0
 27 26  1  0  0  0  0
 29 32  1  0  0  0  0
 29 31  1  0  0  0  0
 30 29  1  0  0  0  0
 33 35  1  0  0  0  0
 33 36  1  0  0  0  0
 34 33  1  0  0  0  0
 37 39  1  0  0  0  0
 38 37  1  0  0  0  0
M  END
