1,3,29,31
q = -2.0, confidence = 0.74

 56 64  0  0  0  0  0  0  0  0999 V2000
   -1.4278   -1.3895   -0.0000 N   0  0  0  0  0  0  0  0  0  0  0  0
   -3.3913    0.0461    0.0000 N   0  0  0  0  0  0  0  0  0  0  0  0
    1.3895   -1.4278   -0.0000 N   0  0  0  0  0  0  0  0  0  0  0  0
   -0.0461   -3.3913   -0.0000 N   0  0  0  0  0  0  0  0  0  0  0  0
   -1.2104   -2.7542   -0.0000 C   0  0  0  0  0  0  0  0  0  0  0  0
    1.1351   -2.7861   -0.0000 C   0  0  0  0  0  0  0  0  0  0  0  0
   -2.7542    1.2104    0.0000 C   0  0  0  0  0  0  0  0  0  0  0  0
   -2.5085   -3.4299   -0.0000 C   0  0  0  0  0  0  0  0  0  0  0  0
   -2.7861   -1.1351    0.0000 C   0  0  0  0  0  0  0  0  0  0  0  0
    2.4144   -3.4968    0.0000 C   0  0  0  0  0  3  0  0  0  0  0  0
    4.7863   -2.8617    0.0000 C   0  0  0  0  0  0  0  0  0  0  0  0
    5.5640   -2.0843    0.0000 H   0  0  0  0  0  0  0  0  0  0  0  0
    3.4299   -2.5085    0.0000 C   0  0  0  0  0  0  0  0  0  0  0  0
   -3.4968   -2.4144   -0.0000 C   0  0  0  0  0  0  0  0  0  0  0  0
   -2.8617   -4.7863   -0.0000 C   0  0  0  0  0  0  0  0  0  0  0  0
   -2.0843   -5.5640   -0.0000 H   0  0  0  0  0  0  0  0  0  0  0  0
    2.7306   -4.8623    0.0000 C   0  0  0  0  0  0  0  0  0  0  0  0
    1.9324   -5.6186    0.0000 H   0  0  0  0  0  0  0  0  0  0  0  0
   -4.2291   -5.1025   -0.0000 C   0  0  0  0  0  0  0  0  0  0  0  0
   -4.5429   -6.1574   -0.0000 H   0  0  0  0  0  0  0  0  0  0  0  0
    4.0890   -5.2155    0.0000 C   0  0  0  0  0  0  0  0  0  0  0  0
    4.3739   -6.2786    0.0000 H   0  0  0  0  0  0  0  0  0  0  0  0
   -4.8623   -2.7306   -0.0000 C   0  0  0  0  0  0  0  0  0  0  0  0
   -5.6186   -1.9324   -0.0000 H   0  0  0  0  0  0  0  0  0  0  0  0
    5.1025   -4.2291    0.0000 C   0  0  0  0  0  0  0  0  0  0  0  0
    6.1574   -4.5429    0.0000 H   0  0  0  0  0  0  0  0  0  0  0  0
   -5.2155   -4.0890   -0.0000 C   0  0  0  0  0  0  0  0  0  0  0  0
   -6.2786   -4.3739   -0.0000 H   0  0  0  0  0  0  0  0  0  0  0  0
    1.4278    1.3895    0.0000 N   0  0  0  0  0  0  0  0  0  0  0  0
    3.3913   -0.0461   -0.0000 N   0  0  0  0  0  0  0  0  0  0  0  0
   -1.3895    1.4278    0.0000 N   0  0  0  0  0  2  0  0  0  0  0  0
    0.0461    3.3913    0.0000 N   0  0  0  0  0  0  0  0  0  0  0  0
    1.2104    2.7542    0.0000 C   0  0  0  0  0  0  0  0  0  0  0  0
   -1.1351    2.7861    0.0000 C   0  0  0  0  0  0  0  0  0  0  0  0
    2.7542   -1.2104    0.0000 C   0  0  0  0  0  0  0  0  0  0  0  0
    2.5085    3.4299   -0.0000 C   0  0  0  0  0  0  0  0  0  0  0  0
    2.7861    1.1351   -0.0000 C   0  0  0  0  0  0  0  0  0  0  0  0
   -2.4144    3.4968    0.0000 C   0  0  0  0  0  0  0  0  0  0  0  0
   -4.7863    2.8617    0.0000 C   0  0  0  0  0  0  0  0  0  0  0  0
   -5.5640    2.0843    0.0000 H   0  0  0  0  0  0  0  0  0  0  0  0
   -3.4299    2.5085    0.0000 C   0  0  0  0  0  0  0  0  0  0  0  0
    3.4968    2.4144   -0.0000 C   0  0  0  0  0  0  0  0  0  0  0  0
    2.8617    4.7863   -0.0000 C   0  0  0  0  0  0  0  0  0  0  0  0
    2.0843    5.5640   -0.0000 H   0  0  0  0  0  0  0  0  0  0  0  0
   -2.7306    4.8623    0.0000 C   0  0  0  0  0  0  0  0  0  0  0  0
   -1.9324    5.6187    0.0000 H   0  0  0  0  0  0  0  0  0  0  0  0
    4.2291    5.1025   -0.0000 C   0  0  0  0  0  0  0  0  0  0  0  0
    4.5429    6.1574   -0.0000 H   0  0  0  0  0  0  0  0  0  0  0  0
   -4.0890    5.2155    0.0000 C   0  0  0  0  0  0  0  0  0  0  0  0
   -4.3739    6.2786    0.0000 H   0  0  0  0  0  0  0  0  0  0  0  0
    4.8623    2.7306   -0.0000 C   0  0  0  0  0  0  0  0  0  0  0  0
    5.6186    1.9324   -0.0000 H   0  0  0  0  0  0  0  0  0  0  0  0
   -5.1025    4.2291    0.0000 C   0  0  0  0  0  0  0  0  0  0  0  0
   -6.1574    4.5429    0.0000 H   0  0  0  0  0  0  0  0  0  0  0  0
    5.2155    4.0890   -0.0000 C   0  0  0  0  0  0  0  0  0  0  0  0
    6.2786    4.3739   -0.0000 H   0  0  0  0  0  0  0  0  0  0  0  0
  1  9  2  0  0  0  0
  2  9  1  0  0  0  0
  3  6  2  0  0  0  0
  3 35  1  0  0  0  0
  4  6  1  0  0  0  0
  5  1  1  0  0  0  0
  5  4  2  0  0  0  0
  5  8  1  0  0  0  0
  6 10  1  0  0  0  0
  7  2  2  0  0  0  0
  7 41  1  0  0  0  0
  7 31  1  0  0  0  0
 10 13  1  0  0  0  0
 10 17  1  0  0  0  0
 11 12  1  0  0  0  0
 11 25  2  0  0  0  0
 13 11  1  0  0  0  0
 14  8  1  0  0  0  0
 14  9  1  0  0  0  0
 15  8  2  0  0  0  0
 16 15  1  0  0  0  0
 17 21  2  0  0  0  0
 18 17  1  0  0  0  0
 19 15  1  0  0  0  0
 20 19  1  0  0  0  0
 21 22  1  0  0  0  0
 23 24  1  0  0  0  0
 23 14  2  0  0  0  0
 25 21  1  0  0  0  0
 25 26  1  0  0  0  0
 27 23  1  0  0  0  0
 27 19  2  0  0  0  0
 28 27  1  0  0  0  0
 30 35  1  0  0  0  0
 32 34  2  0  0  0  0
 33 29  2  0  0  0  0
 33 32  1  0  0  0  0
 34 31  1  0  0  0  0
 35 13  2  0  0  0  0
 36 42  1  0  0  0  0
 36 33  1  0  0  0  0
 37 42  1  0  0  0  0
 37 30  2  0  0  0  0
 37 29  1  0  0  0  0
 38 34  1  0  0  0  0
 38 45  1  0  0  0  0
 40 39  1  0  0  0  0
 41 38  2  0  0  0  0
 41 39  1  0  0  0  0
 43 44  1  0  0  0  0
 43 36  2  0  0  0  0
 46 45  1  0  0  0  0
 47 55  2  0  0  0  0
 47 43  1  0  0  0  0
 48 47  1  0  0  0  0
 49 45  2  0  0  0  0
 49 50  1  0  0  0  0
 51 42  2  0  0  0  0
 52 51  1  0  0  0  0
 53 54  1  0  0  0  0
 53 49  1  0  0  0  0
 53 39  2  0  0  0  0
 55 51  1  0  0  0  0
 56 55  1  0  0  0  0
M  END
