1,3,5,7
q = 0.0, confidence = 0.998

 61 63  0  0  1  0  0  0  0  0999 V2000
   -0.0016   -0.0007   -1.9621 N   0  0  0  0  0  0  0  0  0  0  0  0
    2.4384   -1.4627   -0.3838 N   0  0  0  0  0  0  0  0  0  0  0  0
    1.4731   -1.3173    0.5627 N   0  0  0  0  0  2  0  0  0  0  0  0
   -2.4871   -1.3809   -0.3816 N   0  0  0  0  0  0  0  0  0  0  0  0
   -1.8773   -0.6170    0.5637 N   0  0  0  0  0  2  0  0  0  0  0  0
    0.0480    2.8430   -0.3830 N   0  0  0  0  0  0  0  0  0  0  0  0
    0.4052    1.9335    0.5626 N   0  0  0  0  0  2  0  0  0  0  0  0
    1.1597   -0.7908   -2.4201 C   0  0  0  0  0  0  0  0  0  0  0  0
    2.4197   -0.6113   -1.5579 C   0  0  0  0  0  0  0  0  0  0  0  0
    1.7085   -2.2591    1.5014 C   0  0  1  0  0  3  0  0  0  0  0  0
    2.8481   -3.0165    1.1350 C   0  0  0  0  0  0  0  0  0  0  0  0
    3.2963   -2.4915   -0.0789 C   0  0  0  0  0  0  0  0  0  0  0  0
    0.8363   -2.3595    2.7099 C   0  0  0  0  0  0  0  0  0  0  0  0
    4.4514   -2.8835   -0.9398 C   0  0  0  0  0  0  0  0  0  0  0  0
   -1.2671   -0.6111   -2.4190 C   0  0  0  0  0  0  0  0  0  0  0  0
   -1.7420   -1.7916   -1.5563 C   0  0  0  0  0  0  0  0  0  0  0  0
   -2.8100   -0.3474    1.5021 C   0  0  1  0  0  3  0  0  0  0  0  0
   -4.0367   -0.9543    1.1369 C   0  0  0  0  0  0  0  0  0  0  0  0
   -3.8073   -1.6070   -0.0762 C   0  0  0  0  0  0  0  0  0  0  0  0
   -2.4593    0.4592    2.7095 C   0  0  0  0  0  0  0  0  0  0  0  0
   -4.7257   -2.4111   -0.9359 C   0  0  0  0  0  0  0  0  0  0  0  0
    0.1018    1.4003   -2.4199 C   0  0  0  0  0  0  0  0  0  0  0  0
   -0.6818    2.4022   -1.5565 C   0  0  0  0  0  0  0  0  0  0  0  0
    1.1048    2.6072    1.5008 C   0  0  1  0  0  3  0  0  0  0  0  0
    1.1917    3.9729    1.1350 C   0  0  0  0  0  0  0  0  0  0  0  0
    0.5114    4.0998   -0.0779 C   0  0  0  0  0  0  0  0  0  0  0  0
    1.6286    1.9006    2.7082 C   0  0  0  0  0  0  0  0  0  0  0  0
    0.2730    5.2968   -0.9378 C   0  0  0  0  0  0  0  0  0  0  0  0
    1.3991   -0.5450   -3.4835 H   0  0  0  0  0  0  0  0  0  0  0  0
    0.8882   -1.8649   -2.4036 H   0  0  0  0  0  0  0  0  0  0  0  0
   -1.1746   -0.9417   -3.4823 H   0  0  0  0  0  0  0  0  0  0  0  0
   -2.0612    0.1614   -2.4021 H   0  0  0  0  0  0  0  0  0  0  0  0
   -0.2325    1.4849   -3.4827 H   0  0  0  0  0  0  0  0  0  0  0  0
    1.1679    1.7017   -2.4052 H   0  0  0  0  0  0  0  0  0  0  0  0
    2.5282    0.4473   -1.2381 H   0  0  0  0  0  0  0  0  0  0  0  0
    3.3122   -0.8659   -2.1587 H   0  0  0  0  0  0  0  0  0  0  0  0
   -0.8801   -2.4161   -1.2374 H   0  0  0  0  0  0  0  0  0  0  0  0
   -2.4100   -2.4364   -2.1565 H   0  0  0  0  0  0  0  0  0  0  0  0
   -1.6529    1.9680   -1.2357 H   0  0  0  0  0  0  0  0  0  0  0  0
   -0.9072    3.3027   -2.1569 H   0  0  0  0  0  0  0  0  0  0  0  0
    3.3001   -3.8473    1.6866 H   0  0  0  0  0  0  0  0  0  0  0  0
   -4.9820   -0.9284    1.6887 H   0  0  0  0  0  0  0  0  0  0  0  0
    1.6863    4.7790    1.6865 H   0  0  0  0  0  0  0  0  0  0  0  0
    0.5866   -3.4132    2.9418 H   0  0  0  0  0  0  0  0  0  0  0  0
    1.3369   -1.9354    3.6055 H   0  0  0  0  0  0  0  0  0  0  0  0
   -0.1033   -1.7976    2.5419 H   0  0  0  0  0  0  0  0  0  0  0  0
    4.9876   -3.7315   -0.4768 H   0  0  0  0  0  0  0  0  0  0  0  0
    4.1328   -3.2057   -1.9533 H   0  0  0  0  0  0  0  0  0  0  0  0
    5.1812   -2.0562   -1.0631 H   0  0  0  0  0  0  0  0  0  0  0  0
   -3.2465    1.2026    2.9418 H   0  0  0  0  0  0  0  0  0  0  0  0
   -2.3412   -0.1856    3.6056 H   0  0  0  0  0  0  0  0  0  0  0  0
   -1.5030    0.9915    2.5396 H   0  0  0  0  0  0  0  0  0  0  0  0
   -5.7283   -2.4490   -0.4728 H   0  0  0  0  0  0  0  0  0  0  0  0
   -4.8446   -1.9755   -1.9500 H   0  0  0  0  0  0  0  0  0  0  0  0
   -4.3758   -3.4576   -1.0575 H   0  0  0  0  0  0  0  0  0  0  0  0
    2.6657    2.2118    2.9406 H   0  0  0  0  0  0  0  0  0  0  0  0
    1.0107    2.1200    3.6042 H   0  0  0  0  0  0  0  0  0  0  0  0
    1.6126    0.8063    2.5382 H   0  0  0  0  0  0  0  0  0  0  0  0
    0.7406    6.1846   -0.4750 H   0  0  0  0  0  0  0  0  0  0  0  0
    0.7098    5.1822   -1.9520 H   0  0  0  0  0  0  0  0  0  0  0  0
   -0.8084    5.5160   -1.0595 H   0  0  0  0  0  0  0  0  0  0  0  0
  2 12  1  0  0  0  0
  2  3  1  0  0  0  0
  3 10  1  0  0  0  0
  4 19  1  0  0  0  0
  4  5  1  0  0  0  0
  5 17  1  0  0  0  0
  6 26  1  0  0  0  0
  6  7  1  0  0  0  0
  7 24  1  0  0  0  0
  8 30  1  0  0  0  0
  8  1  1  0  0  0  0
  8  9  1  0  0  0  0
  9 35  1  0  0  0  0
  9  2  1  0  0  0  0
 10 13  1  1  0  0  0
 11 10  1  0  0  0  0
 11 41  1  0  0  0  0
 12 11  2  0  0  0  0
 13 44  1  0  0  0  0
 13 45  1  0  0  0  0
 14 47  1  0  0  0  0
 14 12  1  0  0  0  0
 15 32  1  0  0  0  0
 15  1  1  0  0  0  0
 15 16  1  0  0  0  0
 16 37  1  0  0  0  0
 16  4  1  0  0  0  0
 17 20  1  1  0  0  0
 18 17  1  0  0  0  0
 18 42  1  0  0  0  0
 19 18  2  0  0  0  0
 20 50  1  0  0  0  0
 20 51  1  0  0  0  0
 21 53  1  0  0  0  0
 21 19  1  0  0  0  0
 22 34  1  0  0  0  0
 22  1  1  0  0  0  0
 22 23  1  0  0  0  0
 23 39  1  0  0  0  0
 23  6  1  0  0  0  0
 24 27  1  1  0  0  0
 25 24  1  0  0  0  0
 25 43  1  0  0  0  0
 26 25  2  0  0  0  0
 27 56  1  0  0  0  0
 27 57  1  0  0  0  0
 28 59  1  0  0  0  0
 28 26  1  0  0  0  0
 29  8  1  0  0  0  0
 31 15  1  0  0  0  0
 33 22  1  0  0  0  0
 36  9  1  0  0  0  0
 38 16  1  0  0  0  0
 40 23  1  0  0  0  0
 46 13  1  0  0  0  0
 48 14  1  0  0  0  0
 49 14  1  0  0  0  0
 52 20  1  0  0  0  0
 54 21  1  0  0  0  0
 55 21  1  0  0  0  0
 58 27  1  0  0  0  0
 60 28  1  0  0  0  0
 61 28  1  0  0  0  0
M  END
