1,8,16,30
q = 0.0, confidence = 0.998

 32 32  0  0  0  0  0  0  0  0999 V2000
   -1.8032    0.6171    0.2717 N   0  0  0  0  0  0  0  0  0  0  0  0
   -2.4718    0.2342   -0.9865 C   0  0  0  0  0  0  0  0  0  0  0  0
   -2.2111    0.9940   -1.7506 H   0  0  0  0  0  0  0  0  0  0  0  0
   -3.5827    0.2523   -0.8896 H   0  0  0  0  0  0  0  0  0  0  0  0
   -2.0250   -1.1473   -1.4938 C   0  0  0  0  0  0  0  0  0  0  0  0
   -2.4654   -1.9477   -0.8671 H   0  0  0  0  0  0  0  0  0  0  0  0
   -2.4407   -1.3037   -2.5102 H   0  0  0  0  0  0  0  0  0  0  0  0
   -0.5500   -1.2901   -1.4864 N   0  0  0  0  0  0  0  0  0  0  0  0
   -0.1732   -1.2091   -2.4390 H   0  0  0  0  0  0  0  0  0  0  0  0
   -0.0200   -2.5354   -0.8764 C   0  0  0  0  0  0  0  0  0  0  0  0
    1.0739   -2.5257   -1.0580 H   0  0  0  0  0  0  0  0  0  0  0  0
   -0.4382   -3.4484   -1.3552 H   0  0  0  0  0  0  0  0  0  0  0  0
   -0.2936   -2.5834    0.6360 C   0  0  0  0  0  0  0  0  0  0  0  0
   -1.3629   -2.8029    0.8301 H   0  0  0  0  0  0  0  0  0  0  0  0
    0.2701   -3.4324    1.0735 H   0  0  0  0  0  0  0  0  0  0  0  0
    0.0600   -1.3048    1.2928 N   0  0  0  0  0  0  0  0  0  0  0  0
    0.9699   -1.3594    1.7678 H   0  0  0  0  0  0  0  0  0  0  0  0
   -0.9440   -0.7259    2.2038 C   0  0  0  0  0  0  0  0  0  0  0  0
   -0.4505    0.1194    2.7271 H   0  0  0  0  0  0  0  0  0  0  0  0
   -1.2758   -1.4425    2.9884 H   0  0  0  0  0  0  0  0  0  0  0  0
   -2.1745   -0.2263    1.4301 C   0  0  0  0  0  0  0  0  0  0  0  0
   -2.7621   -1.0910    1.0650 H   0  0  0  0  0  0  0  0  0  0  0  0
   -2.8512    0.3165    2.1242 H   0  0  0  0  0  0  0  0  0  0  0  0
   -1.8574    2.0627    0.5611 C   0  0  0  0  0  0  0  0  0  0  0  0
   -1.4845    2.2043    1.5971 H   0  0  0  0  0  0  0  0  0  0  0  0
   -2.9020    2.4514    0.5414 H   0  0  0  0  0  0  0  0  0  0  0  0
   -0.9870    2.8849   -0.3972 C   0  0  0  0  0  0  0  0  0  0  0  0
   -1.4214    2.8875   -1.4169 H   0  0  0  0  0  0  0  0  0  0  0  0
   -0.9814    3.9424   -0.0594 H   0  0  0  0  0  0  0  0  0  0  0  0
    0.3674    2.3067   -0.4788 N   0  0  0  0  0  0  0  0  0  0  0  0
    0.9616    2.5923    0.3160 H   0  0  0  0  0  0  0  0  0  0  0  0
    0.8672    2.6177   -1.3228 H   0  0  0  0  0  0  0  0  0  0  0  0
  1 24  1  0  0  0  0
  1 21  1  0  0  0  0
  2  4  1  0  0  0  0
  2  1  1  0  0  0  0
  3  2  1  0  0  0  0
  5  8  1  0  0  0  0
  5  2  1  0  0  0  0
  5  6  1  0  0  0  0
  7  5  1  0  0  0  0
  8 10  1  0  0  0  0
  9  8  1  0  0  0  0
 10 13  1  0  0  0  0
 11 10  1  0  0  0  0
 12 10  1  0  0  0  0
 13 14  1  0  0  0  0
 13 15  1  0  0  0  0
 13 16  1  0  0  0  0
 16 17  1  0  0  0  0
 16 18  1  0  0  0  0
 18 19  1  0  0  0  0
 18 20  1  0  0  0  0
 21 23  1  0  0  0  0
 21 18  1  0  0  0  0
 22 21  1  0  0  0  0
 24 25  1  0  0  0  0
 26 24  1  0  0  0  0
 27 29  1  0  0  0  0
 27 24  1  0  0  0  0
 28 27  1  0  0  0  0
 30 27  1  0  0  0  0
 30 31  1  0  0  0  0
 32 30  1  0  0  0  0
M  END
