6,7,8,9
q = -1.0

 30 29  0  0  1  0  0  0  0  0999 V2000
   -1.2049   -2.6794    0.0582 O   0  0  0  0  0  0  0  0  0  0  0  0
   -0.0031   -2.7838    0.0602 H   0  0  0  0  0  0  0  0  0  0  0  0
   -3.7414    1.2329   -0.0692 O   0  0  0  0  0  0  0  0  0  0  0  0
    3.7412    1.2332   -0.0693 O   0  0  0  0  0  0  0  0  0  0  0  0
    1.2046   -2.6791    0.0583 O   0  0  0  0  0  1  0  0  0  0  0  0
   -1.3875   -1.3711    0.0108 N   0  0  0  0  0  2  0  0  0  0  0  0
   -1.4059    1.1384   -0.0867 N   0  0  0  0  0  2  0  0  0  0  0  0
    1.4058    1.1383   -0.0864 N   0  0  0  0  0  2  0  0  0  0  0  0
    1.3878   -1.3716    0.0109 N   0  0  0  0  0  2  0  0  0  0  0  0
   -3.8297   -1.7336    0.0506 C   0  0  0  0  0  0  0  0  0  0  0  0
   -3.8692   -2.4313   -0.8141 H   0  0  0  0  0  0  0  0  0  0  0  0
   -4.7120   -1.0653    0.0404 H   0  0  0  0  0  0  0  0  0  0  0  0
   -3.8428   -2.3711    0.9612 H   0  0  0  0  0  0  0  0  0  0  0  0
   -2.6079   -0.8871    0.0043 C   0  0  2  0  0  3  0  0  0  0  0  0
   -2.6594    0.6086   -0.0557 C   0  0  0  0  0  0  0  0  0  0  0  0
   -1.2750    2.5758   -0.1357 C   0  0  0  0  0  0  0  0  0  0  0  0
   -2.1788    3.0297    0.3295 H   0  0  0  0  0  0  0  0  0  0  0  0
   -1.2631    2.9432   -1.1953 H   0  0  0  0  0  0  0  0  0  0  0  0
   -0.0001    3.0648    0.5525 C   0  0  0  0  0  0  0  0  0  0  0  0
   -0.0002    2.7233    1.6113 H   0  0  0  0  0  0  0  0  0  0  0  0
   -0.0001    4.1775    0.5606 H   0  0  0  0  0  0  0  0  0  0  0  0
    1.2749    2.5757   -0.1354 C   0  0  0  0  0  0  0  0  0  0  0  0
    1.2634    2.9432   -1.1950 H   0  0  0  0  0  0  0  0  0  0  0  0
    2.1786    3.0295    0.3300 H   0  0  0  0  0  0  0  0  0  0  0  0
    2.6594    0.6084   -0.0557 C   0  0  0  0  0  0  0  0  0  0  0  0
    2.6081   -0.8871    0.0043 C   0  0  2  0  0  3  0  0  0  0  0  0
    3.8299   -1.7337    0.0504 C   0  0  0  0  0  0  0  0  0  0  0  0
    3.8447   -2.3689    0.9626 H   0  0  0  0  0  0  0  0  0  0  0  0
    4.7124   -1.0656    0.0371 H   0  0  0  0  0  0  0  0  0  0  0  0
    3.8675   -2.4336   -0.8125 H   0  0  0  0  0  0  0  0  0  0  0  0
  1  2  1  0  0  0  0
  3 15  2  0  0  0  0
  4 25  2  0  0  0  0
  6  1  1  0  0  0  0
  7 15  1  0  0  0  0
  8 25  1  0  0  0  0
  9  5  1  0  0  0  0
 10 13  1  0  0  0  0
 11 10  1  0  0  0  0
 12 10  1  0  0  0  0
 14 15  1  6  0  0  0
 14  6  1  0  0  0  0
 14 10  1  0  0  0  0
 16  7  1  0  0  0  0
 16 17  1  0  0  0  0
 16 19  1  0  0  0  0
 18 16  1  0  0  0  0
 19 21  1  0  0  0  0
 19 20  1  0  0  0  0
 22  8  1  0  0  0  0
 22 24  1  0  0  0  0
 22 19  1  0  0  0  0
 23 22  1  0  0  0  0
 26 25  1  6  0  0  0
 26  9  1  0  0  0  0
 26 27  1  0  0  0  0
 27 28  1  0  0  0  0
 29 27  1  0  0  0  0
 30 27  1  0  0  0  0
M  END
