18,25,32,56
q = -1.0

 73 75  0  0  0  0  0  0  0  0999 V2000
    0.9085   -2.8711    0.0965 C   0  0  0  0  0  0  0  0  0  0  0  0
    1.7601   -2.5494   -0.9806 C   0  0  0  0  0  0  0  0  0  0  0  0
    2.1415   -1.5213   -1.0640 H   0  0  0  0  0  0  0  0  0  0  0  0
    2.1169   -3.5116   -1.9412 C   0  0  0  0  0  0  0  0  0  0  0  0
    1.6300   -4.8244   -1.8027 C   0  0  0  0  0  0  0  0  0  0  0  0
    1.9117   -5.5863   -2.5478 H   0  0  0  0  0  0  0  0  0  0  0  0
    0.7923   -5.1837   -0.7281 C   0  0  0  0  0  0  0  0  0  0  0  0
    0.4401   -4.2030    0.2142 C   0  0  0  0  0  0  0  0  0  0  0  0
   -0.2413   -4.4775    1.0328 H   0  0  0  0  0  0  0  0  0  0  0  0
    3.0062   -3.1238   -3.0972 C   0  0  0  0  0  0  0  0  0  0  0  0
    3.9377   -2.6349   -2.7448 H   0  0  0  0  0  0  0  0  0  0  0  0
    2.4962   -2.3942   -3.7609 H   0  0  0  0  0  0  0  0  0  0  0  0
    3.2895   -4.0015   -3.7099 H   0  0  0  0  0  0  0  0  0  0  0  0
    0.2843   -6.5995   -0.5976 C   0  0  0  0  0  0  0  0  0  0  0  0
   -0.2129   -6.9388   -1.5299 H   0  0  0  0  0  0  0  0  0  0  0  0
   -0.4431   -6.7003    0.2313 H   0  0  0  0  0  0  0  0  0  0  0  0
    1.1163   -7.3094   -0.4034 H   0  0  0  0  0  0  0  0  0  0  0  0
    0.5473   -1.8734    1.0352 N   0  0  0  0  0  2  0  0  0  0  0  0
    0.3225   -2.3412    2.4079 C   0  0  0  0  0  0  0  0  0  0  0  0
    0.9632   -3.2254    2.6162 H   0  0  0  0  0  0  0  0  0  0  0  0
   -0.7301   -2.6833    2.5549 H   0  0  0  0  0  0  0  0  0  0  0  0
    0.6655   -1.2492    3.4212 C   0  0  0  0  0  0  0  0  0  0  0  0
    0.4274   -1.5891    4.4589 H   0  0  0  0  0  0  0  0  0  0  0  0
    1.7577   -1.0650    3.3786 H   0  0  0  0  0  0  0  0  0  0  0  0
   -0.0135    0.0059    3.0863 N   0  0  0  0  0  0  0  0  0  0  0  0
   -1.4411    0.0447    3.4165 C   0  0  0  0  0  0  0  0  0  0  0  0
   -1.6199    0.4203    4.4538 H   0  0  0  0  0  0  0  0  0  0  0  0
   -1.8266   -0.9937    3.3724 H   0  0  0  0  0  0  0  0  0  0  0  0
   -2.2123    0.8884    2.4014 C   0  0  0  0  0  0  0  0  0  0  0  0
   -3.2991    0.7746    2.6051 H   0  0  0  0  0  0  0  0  0  0  0  0
   -1.9837    1.9710    2.5508 H   0  0  0  0  0  0  0  0  0  0  0  0
   -1.9136    0.4616    1.0295 N   0  0  0  0  0  2  0  0  0  0  0  0
   -2.9542    0.6511    0.0864 C   0  0  0  0  0  0  0  0  0  0  0  0
   -3.8732    1.7228    0.2036 C   0  0  0  0  0  0  0  0  0  0  0  0
   -3.7734    2.4475    1.0249 H   0  0  0  0  0  0  0  0  0  0  0  0
   -4.8952    1.9110   -0.7418 C   0  0  0  0  0  0  0  0  0  0  0  0
   -5.0024    1.0061   -1.8167 C   0  0  0  0  0  0  0  0  0  0  0  0
   -5.8030    1.1429   -2.5619 H   0  0  0  0  0  0  0  0  0  0  0  0
   -4.1092   -0.0722   -1.9546 C   0  0  0  0  0  0  0  0  0  0  0  0
   -3.0993   -0.2455   -0.9924 C   0  0  0  0  0  0  0  0  0  0  0  0
   -2.4014   -1.0915   -1.0745 H   0  0  0  0  0  0  0  0  0  0  0  0
   -5.8495    3.0754   -0.6277 C   0  0  0  0  0  0  0  0  0  0  0  0
   -5.6943    3.8046   -1.4511 H   0  0  0  0  0  0  0  0  0  0  0  0
   -5.7223    3.6191    0.3287 H   0  0  0  0  0  0  0  0  0  0  0  0
   -6.9057    2.7413   -0.6928 H   0  0  0  0  0  0  0  0  0  0  0  0
   -4.2196   -1.0390   -3.1081 C   0  0  0  0  0  0  0  0  0  0  0  0
   -3.3189   -0.9876   -3.7551 H   0  0  0  0  0  0  0  0  0  0  0  0
   -5.1050   -0.8271   -3.7383 H   0  0  0  0  0  0  0  0  0  0  0  0
   -4.2948   -2.0871   -2.7517 H   0  0  0  0  0  0  0  0  0  0  0  0
    0.7327    1.2230    3.4186 C   0  0  0  0  0  0  0  0  0  0  0  0
    1.1414    1.1922    4.4583 H   0  0  0  0  0  0  0  0  0  0  0  0
    0.0269    2.0762    3.3684 H   0  0  0  0  0  0  0  0  0  0  0  0
    1.8547    1.4677    2.4096 C   0  0  0  0  0  0  0  0  0  0  0  0
    2.2989    2.4657    2.6157 H   0  0  0  0  0  0  0  0  0  0  0  0
    2.6768    0.7282    2.5637 H   0  0  0  0  0  0  0  0  0  0  0  0
    1.3445    1.4229    1.0343 N   0  0  0  0  0  2  0  0  0  0  0  0
    2.0419    2.2218    0.0942 C   0  0  0  0  0  0  0  0  0  0  0  0
    1.3520    2.7943   -0.9948 C   0  0  0  0  0  0  0  0  0  0  0  0
    0.2707    2.6173   -1.0882 H   0  0  0  0  0  0  0  0  0  0  0  0
    2.0205    3.5756   -1.9529 C   0  0  0  0  0  0  0  0  0  0  0  0
    3.4004    3.8059   -1.8006 C   0  0  0  0  0  0  0  0  0  0  0  0
    3.9293    4.4271   -2.5418 H   0  0  0  0  0  0  0  0  0  0  0  0
    4.1164    3.2620   -0.7161 C   0  0  0  0  0  0  0  0  0  0  0  0
    3.4289    2.4774    0.2254 C   0  0  0  0  0  0  0  0  0  0  0  0
    3.9960    2.0311    1.0554 H   0  0  0  0  0  0  0  0  0  0  0  0
    1.2553    4.1489   -3.1205 C   0  0  0  0  0  0  0  0  0  0  0  0
    1.8747    4.8497   -3.7133 H   0  0  0  0  0  0  0  0  0  0  0  0
    0.3479    4.6909   -2.7837 H   0  0  0  0  0  0  0  0  0  0  0  0
    0.9092    3.3419   -3.8002 H   0  0  0  0  0  0  0  0  0  0  0  0
    5.6025    3.4961   -0.5882 C   0  0  0  0  0  0  0  0  0  0  0  0
    6.1655    2.9343   -1.3639 H   0  0  0  0  0  0  0  0  0  0  0  0
    5.9860    3.1742    0.3997 H   0  0  0  0  0  0  0  0  0  0  0  0
    5.8573    4.5674   -0.7221 H   0  0  0  0  0  0  0  0  0  0  0  0
  1  8  1  0  0  0  0
  1 18  1  0  0  0  0
  2  1  2  0  0  0  0
  3  2  1  0  0  0  0
  4  5  2  0  0  0  0
  4  2  1  0  0  0  0
  5  7  1  0  0  0  0
  6  5  1  0  0  0  0
  7 14  1  0  0  0  0
  7  8  2  0  0  0  0
  8  9  1  0  0  0  0
 10 11  1  0  0  0  0
 10  4  1  0  0  0  0
 12 10  1  0  0  0  0
 13 10  1  0  0  0  0
 14 17  1  0  0  0  0
 14 16  1  0  0  0  0
 15 14  1  0  0  0  0
 18 19  1  0  0  0  0
 19 21  1  0  0  0  0
 19 20  1  0  0  0  0
 19 22  1  0  0  0  0
 22 23  1  0  0  0  0
 24 22  1  0  0  0  0
 25 26  1  0  0  0  0
 25 50  1  0  0  0  0
 25 22  1  0  0  0  0
 26 27  1  0  0  0  0
 28 26  1  0  0  0  0
 29 31  1  0  0  0  0
 29 30  1  0  0  0  0
 29 26  1  0  0  0  0
 32 29  1  0  0  0  0
 33 34  1  0  0  0  0
 33 32  1  0  0  0  0
 34 35  1  0  0  0  0
 36 42  1  0  0  0  0
 36 34  2  0  0  0  0
 37 36  1  0  0  0  0
 38 37  1  0  0  0  0
 39 37  2  0  0  0  0
 39 40  1  0  0  0  0
 40 33  2  0  0  0  0
 41 40  1  0  0  0  0
 42 44  1  0  0  0  0
 43 42  1  0  0  0  0
 45 42  1  0  0  0  0
 46 49  1  0  0  0  0
 46 39  1  0  0  0  0
 47 46  1  0  0  0  0
 48 46  1  0  0  0  0
 50 51  1  0  0  0  0
 52 50  1  0  0  0  0
 53 55  1  0  0  0  0
 53 54  1  0  0  0  0
 53 50  1  0  0  0  0
 56 53  1  0  0  0  0
 57 64  1  0  0  0  0
 57 56  1  0  0  0  0
 58 57  2  0  0  0  0
 59 58  1  0  0  0  0
 60 61  2  0  0  0  0
 60 58  1  0  0  0  0
 61 63  1  0  0  0  0
 62 61  1  0  0  0  0
 63 70  1  0  0  0  0
 63 64  2  0  0  0  0
 64 65  1  0  0  0  0
 66 68  1  0  0  0  0
 66 60  1  0  0  0  0
 67 66  1  0  0  0  0
 69 66  1  0  0  0  0
 70 72  1  0  0  0  0
 71 70  1  0  0  0  0
 73 70  1  0  0  0  0
M  END
