1,2,3,4
q = 0.0, confidence = 0.918

 69 71  0  0  1  0  0  0  0  0999 V2000
   -0.4054   -1.0066    0.2152 N   0  0  0  0  0  2  0  0  0  0  0  0
    2.0553   -0.9812    0.2005 N   0  0  0  0  0  2  0  0  0  0  0  0
    2.5252    1.3651   -0.1037 N   0  0  0  0  0  2  0  0  0  0  0  0
    0.0401    2.2577   -0.3141 N   0  0  0  0  0  0  0  0  0  0  0  0
   -0.7163   -3.4720    0.5560 C   0  0  0  0  0  0  0  0  0  0  0  0
   -0.3607   -4.1006    1.3957 H   0  0  0  0  0  0  0  0  0  0  0  0
   -1.7871   -3.2462    0.7048 H   0  0  0  0  0  0  0  0  0  0  0  0
   -0.6201   -4.0800   -0.3688 H   0  0  0  0  0  0  0  0  0  0  0  0
    0.0952   -2.2218    0.4244 C   0  0  0  0  0  0  0  0  0  0  0  0
    1.5452   -2.2281    0.4784 C   0  0  0  0  0  0  0  0  0  0  0  0
    2.4074   -3.2793    0.8173 C   0  0  0  0  0  0  0  0  0  0  0  0
    2.0016   -4.2792    1.0247 H   0  0  0  0  0  0  0  0  0  0  0  0
    3.7910   -3.0329    0.9094 C   0  0  0  0  0  0  0  0  0  0  0  0
    4.4772   -3.8476    1.1796 H   0  0  0  0  0  0  0  0  0  0  0  0
    4.2892   -1.7402    0.6894 C   0  0  0  0  0  0  0  0  0  0  0  0
    5.3626   -1.5304    0.7990 H   0  0  0  0  0  0  0  0  0  0  0  0
    3.4035   -0.7038    0.3434 C   0  0  0  0  0  0  0  0  0  0  0  0
    3.6567    0.7053    0.1555 C   0  0  2  0  0  3  0  0  0  0  0  0
    4.9923    1.3674    0.2685 C   0  0  0  0  0  0  0  0  0  0  0  0
    5.7877    0.6439    0.5204 H   0  0  0  0  0  0  0  0  0  0  0  0
    5.2769    1.8630   -0.6840 H   0  0  0  0  0  0  0  0  0  0  0  0
    4.9874    2.1526    1.0532 H   0  0  0  0  0  0  0  0  0  0  0  0
    2.4522    2.8124   -0.2550 C   0  0  0  0  0  0  0  0  0  0  0  0
    3.2773    3.2144   -0.8820 H   0  0  0  0  0  0  0  0  0  0  0  0
    2.5556    3.2925    0.7444 H   0  0  0  0  0  0  0  0  0  0  0  0
    1.1033    3.1357   -0.8921 C   0  0  0  0  0  0  0  0  0  0  0  0
    0.8566    4.2124   -0.7730 H   0  0  0  0  0  0  0  0  0  0  0  0
    1.1423    2.9162   -1.9766 H   0  0  0  0  0  0  0  0  0  0  0  0
   -0.3292    2.6711    1.0726 C   0  0  0  0  0  0  0  0  0  0  0  0
    0.5746    2.8445    1.6862 H   0  0  0  0  0  0  0  0  0  0  0  0
   -0.8756    1.8201    1.5115 H   0  0  0  0  0  0  0  0  0  0  0  0
   -1.2598    3.8901    0.9236 C   0  0  0  0  0  0  0  0  0  0  0  0
   -0.6993    4.8419    1.0060 H   0  0  0  0  0  0  0  0  0  0  0  0
   -2.0182    3.9007    1.7300 H   0  0  0  0  0  0  0  0  0  0  0  0
   -1.8886    3.7230   -0.4866 C   0  0  0  0  0  0  0  0  0  0  0  0
   -2.9898    3.6246   -0.4500 H   0  0  0  0  0  0  0  0  0  0  0  0
   -1.6659    4.5966   -1.1299 H   0  0  0  0  0  0  0  0  0  0  0  0
   -1.2513    2.4333   -1.0439 C   0  0  0  0  0  0  0  0  0  0  0  0
   -1.8787    1.5526   -0.8131 H   0  0  0  0  0  0  0  0  0  0  0  0
   -1.0641    2.4403   -2.1340 H   0  0  0  0  0  0  0  0  0  0  0  0
   -1.8144   -0.7669    0.2205 C   0  0  0  0  0  0  0  0  0  0  0  0
   -2.4050   -0.2848    1.4268 C   0  0  0  0  0  0  0  0  0  0  0  0
   -3.7648    0.0735    1.3921 C   0  0  0  0  0  0  0  0  0  0  0  0
   -4.2466    0.4491    2.3059 H   0  0  0  0  0  0  0  0  0  0  0  0
   -4.5208   -0.0490    0.2183 C   0  0  0  0  0  0  0  0  0  0  0  0
   -5.5818    0.2417    0.2147 H   0  0  0  0  0  0  0  0  0  0  0  0
   -3.9306   -0.5622   -0.9414 C   0  0  0  0  0  0  0  0  0  0  0  0
   -4.5375   -0.6812   -1.8517 H   0  0  0  0  0  0  0  0  0  0  0  0
   -2.5737   -0.9396   -0.9685 C   0  0  0  0  0  0  0  0  0  0  0  0
   -1.6132   -0.2267    2.7327 C   0  0  0  0  0  0  0  0  0  0  0  0
   -0.5503   -0.0393    2.4608 H   0  0  0  0  0  0  0  0  0  0  0  0
   -1.6598   -1.5806    3.4693 C   0  0  0  0  0  0  0  0  0  0  0  0
   -1.0798   -1.5292    4.4128 H   0  0  0  0  0  0  0  0  0  0  0  0
   -2.7054   -1.8470    3.7259 H   0  0  0  0  0  0  0  0  0  0  0  0
   -1.2436   -2.4050    2.8631 H   0  0  0  0  0  0  0  0  0  0  0  0
   -2.0749    0.8857    3.6870 C   0  0  0  0  0  0  0  0  0  0  0  0
   -1.3634    0.9848    4.5304 H   0  0  0  0  0  0  0  0  0  0  0  0
   -2.1551    1.8725    3.1890 H   0  0  0  0  0  0  0  0  0  0  0  0
   -3.0657    0.6579    4.1292 H   0  0  0  0  0  0  0  0  0  0  0  0
   -1.9822   -1.5331   -2.2420 C   0  0  0  0  0  0  0  0  0  0  0  0
   -0.9135   -1.7551   -2.0511 H   0  0  0  0  0  0  0  0  0  0  0  0
   -2.6730   -2.8617   -2.6033 C   0  0  0  0  0  0  0  0  0  0  0  0
   -2.1851   -3.3254   -3.4842 H   0  0  0  0  0  0  0  0  0  0  0  0
   -2.6371   -3.5877   -1.7674 H   0  0  0  0  0  0  0  0  0  0  0  0
   -3.7406   -2.7046   -2.8592 H   0  0  0  0  0  0  0  0  0  0  0  0
   -2.0438   -0.5513   -3.4244 C   0  0  0  0  0  0  0  0  0  0  0  0
   -1.5506   -0.9870   -4.3161 H   0  0  0  0  0  0  0  0  0  0  0  0
   -3.0918   -0.3171   -3.7019 H   0  0  0  0  0  0  0  0  0  0  0  0
   -1.5340    0.4026   -3.1892 H   0  0  0  0  0  0  0  0  0  0  0  0
  1 41  1  0  0  0  0
  1  9  1  0  0  0  0
  2 17  1  0  0  0  0
  2 10  1  0  0  0  0
  4 29  1  0  0  0  0
  5  7  1  0  0  0  0
  5  6  1  0  0  0  0
  8  5  1  0  0  0  0
  9 10  2  0  0  0  0
  9  5  1  0  0  0  0
 10 11  1  0  0  0  0
 11 13  2  0  0  0  0
 11 12  1  0  0  0  0
 13 14  1  0  0  0  0
 15 16  1  0  0  0  0
 15 13  1  0  0  0  0
 17 15  2  0  0  0  0
 18  3  1  1  0  0  0
 18 19  1  0  0  0  0
 18 17  1  0  0  0  0
 19 20  1  0  0  0  0
 19 22  1  0  0  0  0
 21 19  1  0  0  0  0
 23  3  1  0  0  0  0
 23 25  1  0  0  0  0
 24 23  1  0  0  0  0
 26 27  1  0  0  0  0
 26  4  1  0  0  0  0
 26 23  1  0  0  0  0
 28 26  1  0  0  0  0
 29 31  1  0  0  0  0
 29 30  1  0  0  0  0
 32 33  1  0  0  0  0
 32 29  1  0  0  0  0
 32 34  1  0  0  0  0
 35 36  1  0  0  0  0
 35 32  1  0  0  0  0
 37 35  1  0  0  0  0
 38 39  1  0  0  0  0
 38 35  1  0  0  0  0
 38  4  1  0  0  0  0
 40 38  1  0  0  0  0
 41 42  1  0  0  0  0
 42 50  1  0  0  0  0
 43 42  2  0  0  0  0
 43 44  1  0  0  0  0
 45 43  1  0  0  0  0
 46 45  1  0  0  0  0
 47 45  2  0  0  0  0
 48 47  1  0  0  0  0
 49 47  1  0  0  0  0
 49 41  2  0  0  0  0
 50 52  1  0  0  0  0
 50 56  1  0  0  0  0
 51 50  1  0  0  0  0
 52 54  1  0  0  0  0
 52 53  1  0  0  0  0
 55 52  1  0  0  0  0
 56 59  1  0  0  0  0
 56 57  1  0  0  0  0
 58 56  1  0  0  0  0
 60 61  1  0  0  0  0
 60 49  1  0  0  0  0
 62 60  1  0  0  0  0
 62 64  1  0  0  0  0
 63 62  1  0  0  0  0
 65 62  1  0  0  0  0
 66 69  1  0  0  0  0
 66 60  1  0  0  0  0
 67 66  1  0  0  0  0
 68 66  1  0  0  0  0
M  END
