5,6,7,8
q = -2.0, confidence = 0.796

 34 34  0  0  0  0  0  0  0  0999 V2000
    2.4745   -1.2937   -0.1853 O   0  0  0  0  0  0  0  0  0  0  0  0
    2.5638    1.2179   -0.0445 O   0  0  0  0  0  0  0  0  0  0  0  0
   -2.5285    1.4244   -0.6161 O   0  0  0  0  0  0  0  0  0  0  0  0
   -2.6099   -1.0985   -0.7967 O   0  0  0  0  0  0  0  0  0  0  0  0
    1.1665   -1.3937   -0.4223 N   0  0  0  0  0  2  0  0  0  0  0  0
   -1.3150   -1.2952   -0.5582 N   0  0  0  0  0  2  0  0  0  0  0  0
   -1.2267    1.5011   -0.3542 N   0  0  0  0  0  2  0  0  0  0  0  0
    1.2541    1.4221   -0.2316 N   0  0  0  0  0  2  0  0  0  0  0  0
    3.1597   -0.0310   -0.7061 B   0  0  0  0  0  0  0  0  0  0  0  0
    3.0089    0.0522   -2.0721 F   0  0  0  0  0  0  0  0  0  0  0  0
    4.4464   -0.0970   -0.2471 F   0  0  0  0  0  0  0  0  0  0  0  0
   -3.2723    0.1543   -0.2419 B   0  0  0  0  0  0  0  0  0  0  0  0
   -4.4912    0.2335   -0.8475 F   0  0  0  0  0  0  0  0  0  0  0  0
   -3.3312    0.0584    1.1491 F   0  0  0  0  0  0  0  0  0  0  0  0
    1.4019   -3.8553   -0.5085 C   0  0  0  0  0  0  0  0  0  0  0  0
    0.6127   -2.5870   -0.5282 C   0  0  0  0  0  0  0  0  0  0  0  0
   -0.8416   -2.5262   -0.6513 C   0  0  0  0  0  0  0  0  0  0  0  0
   -1.7245   -3.7005   -0.9188 C   0  0  0  0  0  0  0  0  0  0  0  0
   -1.4840    3.9540   -0.3739 C   0  0  0  0  0  0  0  0  0  0  0  0
   -0.6771    2.7010   -0.2782 C   0  0  0  0  0  0  0  0  0  0  0  0
    0.7778    2.6517   -0.1671 C   0  0  0  0  0  0  0  0  0  0  0  0
    1.6468    3.8556   -0.0007 C   0  0  0  0  0  0  0  0  0  0  0  0
    2.4747   -3.6254   -0.6353 H   0  0  0  0  0  0  0  0  0  0  0  0
    1.0735   -4.5415   -1.3138 H   0  0  0  0  0  0  0  0  0  0  0  0
    1.2742   -4.3907    0.4567 H   0  0  0  0  0  0  0  0  0  0  0  0
   -2.7146   -3.5387   -0.4526 H   0  0  0  0  0  0  0  0  0  0  0  0
   -1.2789   -4.6380   -0.5384 H   0  0  0  0  0  0  0  0  0  0  0  0
   -1.9004   -3.8213   -2.0098 H   0  0  0  0  0  0  0  0  0  0  0  0
   -2.4781    3.7945    0.0847 H   0  0  0  0  0  0  0  0  0  0  0  0
   -1.6619    4.2296   -1.4361 H   0  0  0  0  0  0  0  0  0  0  0  0
   -0.9756    4.8026    0.1196 H   0  0  0  0  0  0  0  0  0  0  0  0
    2.7038    3.5744   -0.1542 H   0  0  0  0  0  0  0  0  0  0  0  0
    1.5444    4.2853    1.0186 H   0  0  0  0  0  0  0  0  0  0  0  0
    1.3680    4.6491   -0.7220 H   0  0  0  0  0  0  0  0  0  0  0  0
  3  7  1  0  0  0  0
  3 12  1  0  0  0  0
  4  6  1  0  0  0  0
  4 12  1  0  0  0  0
  5  1  1  0  0  0  0
  7 20  1  0  0  0  0
  8 21  1  0  0  0  0
  8  2  1  0  0  0  0
  9 11  1  0  0  0  0
  9  1  1  0  0  0  0
  9  2  1  0  0  0  0
 10  9  1  0  0  0  0
 12 14  1  0  0  0  0
 13 12  1  0  0  0  0
 15 25  1  0  0  0  0
 16 15  1  0  0  0  0
 16  5  1  0  0  0  0
 17  6  1  0  0  0  0
 17 16  2  0  0  0  0
 18 17  1  0  0  0  0
 18 27  1  0  0  0  0
 18 26  1  0  0  0  0
 19 20  1  0  0  0  0
 19 29  1  0  0  0  0
 19 31  1  0  0  0  0
 20 21  2  0  0  0  0
 21 22  1  0  0  0  0
 22 33  1  0  0  0  0
 23 15  1  0  0  0  0
 24 15  1  0  0  0  0
 28 18  1  0  0  0  0
 30 19  1  0  0  0  0
 32 22  1  0  0  0  0
 34 22  1  0  0  0  0
M  END
