3,4,5,6
q = -2.0, confidence = 0.98

 32 34  0  0  0  0  0  0  0  0999 V2000
    5.5249   -1.5917   -0.1712 Cl  0  0  0  0  0  0  0  0  0  0  0  0
    5.5249    1.5917   -0.1711 Cl  0  0  0  0  0  0  0  0  0  0  0  0
   -2.2163    1.5805    0.1032 N   0  0  0  0  0  0  0  0  0  0  0  0
    0.3344    1.2808    0.0717 N   0  0  0  0  0  2  0  0  0  0  0  0
    0.3344   -1.2808    0.0717 N   0  0  0  0  0  2  0  0  0  0  0  0
   -2.2163   -1.5806    0.1031 N   0  0  0  0  0  0  0  0  0  0  0  0
   -3.5065    1.9405    0.1325 C   0  0  0  0  0  3  0  0  0  0  0  0
   -4.3097    1.1949    0.1073 H   0  0  0  0  0  0  0  0  0  0  0  0
   -3.6173    3.3632    0.1504 C   0  0  0  0  0  0  0  0  0  0  0  0
   -4.5556    3.9302    0.1631 H   0  0  0  0  0  0  0  0  0  0  0  0
   -2.3150    3.8786    0.1252 C   0  0  0  0  0  0  0  0  0  0  0  0
   -2.0102    4.9316    0.1165 H   0  0  0  0  0  0  0  0  0  0  0  0
   -1.4474    2.7496    0.0983 C   0  0  0  0  0  0  0  0  0  0  0  0
   -0.0526    2.5484    0.0598 C   0  0  0  0  0  3  0  0  0  0  0  0
    0.6706    3.3815    0.0185 H   0  0  0  0  0  0  0  0  0  0  0  0
    1.6003    0.7165    0.0098 C   0  0  0  0  0  0  0  0  0  0  0  0
    2.8207    1.4133   -0.0489 C   0  0  0  0  0  0  0  0  0  0  0  0
    2.8475    2.5108   -0.0572 H   0  0  0  0  0  0  0  0  0  0  0  0
    4.0319    0.7090   -0.1027 C   0  0  0  0  0  0  0  0  0  0  0  0
    4.0319   -0.7089   -0.1027 C   0  0  0  0  0  0  0  0  0  0  0  0
    2.8207   -1.4133   -0.0490 C   0  0  0  0  0  0  0  0  0  0  0  0
    2.8475   -2.5108   -0.0574 H   0  0  0  0  0  0  0  0  0  0  0  0
    1.6003   -0.7165    0.0097 C   0  0  0  0  0  0  0  0  0  0  0  0
   -0.0526   -2.5484    0.0598 C   0  0  0  0  0  3  0  0  0  0  0  0
    0.6706   -3.3815    0.0186 H   0  0  0  0  0  0  0  0  0  0  0  0
   -1.4473   -2.7496    0.0982 C   0  0  0  0  0  0  0  0  0  0  0  0
   -2.3149   -3.8786    0.1249 C   0  0  0  0  0  0  0  0  0  0  0  0
   -2.0102   -4.9316    0.1162 H   0  0  0  0  0  0  0  0  0  0  0  0
   -3.6173   -3.3632    0.1498 C   0  0  0  0  0  0  0  0  0  0  0  0
   -4.5556   -3.9302    0.1624 H   0  0  0  0  0  0  0  0  0  0  0  0
   -3.5065   -1.9405    0.1320 C   0  0  0  0  0  3  0  0  0  0  0  0
   -4.3097   -1.1949    0.1068 H   0  0  0  0  0  0  0  0  0  0  0  0
  1 20  1  0  0  0  0
  2 19  1  0  0  0  0
  3  7  1  0  0  0  0
  6 31  1  0  0  0  0
  7  9  1  0  0  0  0
  8  7  1  0  0  0  0
  9 10  1  0  0  0  0
 11  9  2  0  0  0  0
 12 11  1  0  0  0  0
 13  3  2  0  0  0  0
 13 11  1  0  0  0  0
 14  4  1  0  0  0  0
 14 13  1  0  0  0  0
 15 14  1  0  0  0  0
 16  4  1  0  0  0  0
 17 16  2  0  0  0  0
 18 17  1  0  0  0  0
 19 17  1  0  0  0  0
 20 19  2  0  0  0  0
 20 21  1  0  0  0  0
 21 23  2  0  0  0  0
 22 21  1  0  0  0  0
 23 16  1  0  0  0  0
 23  5  1  0  0  0  0
 24  5  1  0  0  0  0
 24 26  1  0  0  0  0
 25 24  1  0  0  0  0
 26  6  2  0  0  0  0
 26 27  1  0  0  0  0
 27 29  2  0  0  0  0
 28 27  1  0  0  0  0
 29 30  1  0  0  0  0
 31 29  1  0  0  0  0
 32 31  1  0  0  0  0
M  END
