1,8,29,36
q = 0.0, confidence = 0.998

 56 56  0  0  1  0  0  0  0  0999 V2000
    1.7359   -1.1892   -0.0300 N   0  0  0  0  0  0  0  0  0  0  0  0
    1.6861   -1.7909    0.8225 H   0  0  0  0  0  0  0  0  0  0  0  0
    2.3325    1.8061   -0.8673 C   0  0  2  0  0  0  0  0  0  0  0  0
    2.2978    2.0773    0.2084 H   0  0  0  0  0  0  0  0  0  0  0  0
    3.2220    0.5690   -1.0454 C   0  0  0  0  0  0  0  0  0  0  0  0
    4.2783    0.9070   -1.0205 H   0  0  0  0  0  0  0  0  0  0  0  0
    3.0752    0.1757   -2.0786 H   0  0  0  0  0  0  0  0  0  0  0  0
    0.9390    1.4831   -1.2379 N   0  0  0  0  0  0  0  0  0  0  0  0
    0.9326    1.1224   -2.2035 H   0  0  0  0  0  0  0  0  0  0  0  0
   -0.0179    2.5850   -1.1316 C   0  0  0  0  0  0  0  0  0  0  0  0
    0.1065    3.3607   -1.9239 H   0  0  0  0  0  0  0  0  0  0  0  0
    0.1491    3.0929   -0.1593 H   0  0  0  0  0  0  0  0  0  0  0  0
    1.4451   -2.0585   -1.1808 C   0  0  0  0  0  0  0  0  0  0  0  0
    2.1325   -2.9324   -1.2319 H   0  0  0  0  0  0  0  0  0  0  0  0
    1.5964   -1.4838   -2.1219 H   0  0  0  0  0  0  0  0  0  0  0  0
    3.1133   -0.5918   -0.0301 C   0  0  0  0  0  0  0  0  0  0  0  0
    2.9087    2.9902   -1.6592 C   0  0  0  0  0  0  0  0  0  0  0  0
    3.9365    3.2247   -1.3169 H   0  0  0  0  0  0  0  0  0  0  0  0
    2.3040    3.9096   -1.5342 H   0  0  0  0  0  0  0  0  0  0  0  0
    2.9611    2.7577   -2.7451 H   0  0  0  0  0  0  0  0  0  0  0  0
    4.1784   -1.6471   -0.4104 C   0  0  0  0  0  0  0  0  0  0  0  0
    4.0784   -2.5517    0.2235 H   0  0  0  0  0  0  0  0  0  0  0  0
    5.1916   -1.2326   -0.2412 H   0  0  0  0  0  0  0  0  0  0  0  0
    4.1224   -1.9549   -1.4736 H   0  0  0  0  0  0  0  0  0  0  0  0
    3.4166   -0.1229    1.4011 C   0  0  0  0  0  0  0  0  0  0  0  0
    2.6593    0.5889    1.7716 H   0  0  0  0  0  0  0  0  0  0  0  0
    4.4187    0.3482    1.4418 H   0  0  0  0  0  0  0  0  0  0  0  0
    3.4154   -0.9923    2.0895 H   0  0  0  0  0  0  0  0  0  0  0  0
   -1.7359    1.1892   -0.0303 N   0  0  0  0  0  0  0  0  0  0  0  0
   -1.6861    1.7911    0.8220 H   0  0  0  0  0  0  0  0  0  0  0  0
   -2.3326   -1.8065   -0.8670 C   0  0  2  0  0  0  0  0  0  0  0  0
   -2.2983   -2.0777    0.2087 H   0  0  0  0  0  0  0  0  0  0  0  0
   -3.2219   -0.5693   -1.0452 C   0  0  0  0  0  0  0  0  0  0  0  0
   -4.2783   -0.9072   -1.0204 H   0  0  0  0  0  0  0  0  0  0  0  0
   -3.0750   -0.1762   -2.0786 H   0  0  0  0  0  0  0  0  0  0  0  0
   -0.9391   -1.4835   -1.2371 N   0  0  0  0  0  0  0  0  0  0  0  0
   -0.9321   -1.1219   -2.2022 H   0  0  0  0  0  0  0  0  0  0  0  0
    0.0178   -2.5853   -1.1310 C   0  0  0  0  0  0  0  0  0  0  0  0
   -0.1064   -3.3611   -1.9232 H   0  0  0  0  0  0  0  0  0  0  0  0
   -0.1490   -3.0933   -0.1586 H   0  0  0  0  0  0  0  0  0  0  0  0
   -1.4452    2.0584   -1.1813 C   0  0  0  0  0  0  0  0  0  0  0  0
   -2.1325    2.9324   -1.2323 H   0  0  0  0  0  0  0  0  0  0  0  0
   -1.5967    1.4836   -2.1223 H   0  0  0  0  0  0  0  0  0  0  0  0
   -3.1133    0.5916   -0.0302 C   0  0  0  0  0  0  0  0  0  0  0  0
   -2.9087   -2.9905   -1.6590 C   0  0  0  0  0  0  0  0  0  0  0  0
   -3.9366   -3.2250   -1.3171 H   0  0  0  0  0  0  0  0  0  0  0  0
   -2.3041   -3.9099   -1.5338 H   0  0  0  0  0  0  0  0  0  0  0  0
   -2.9607   -2.7580   -2.7449 H   0  0  0  0  0  0  0  0  0  0  0  0
   -4.1784    1.6469   -0.4107 C   0  0  0  0  0  0  0  0  0  0  0  0
   -4.0784    2.5517    0.2229 H   0  0  0  0  0  0  0  0  0  0  0  0
   -5.1916    1.2323   -0.2413 H   0  0  0  0  0  0  0  0  0  0  0  0
   -4.1225    1.9544   -1.4740 H   0  0  0  0  0  0  0  0  0  0  0  0
   -3.4164    0.1231    1.4011 C   0  0  0  0  0  0  0  0  0  0  0  0
   -2.6590   -0.5885    1.7717 H   0  0  0  0  0  0  0  0  0  0  0  0
   -4.4184   -0.3481    1.4420 H   0  0  0  0  0  0  0  0  0  0  0  0
   -3.4153    0.9927    2.0893 H   0  0  0  0  0  0  0  0  0  0  0  0
  1  2  1  0  0  0  0
  3  4  1  1  0  0  0
  5  6  1  0  0  0  0
  5  3  1  0  0  0  0
  5 16  1  0  0  0  0
  7  5  1  0  0  0  0
  8 10  1  0  0  0  0
  8  3  1  0  0  0  0
  9  8  1  0  0  0  0
 10 12  1  0  0  0  0
 11 10  1  0  0  0  0
 13 38  1  0  0  0  0
 13  1  1  0  0  0  0
 14 13  1  0  0  0  0
 15 13  1  0  0  0  0
 16  1  1  0  0  0  0
 16 25  1  0  0  0  0
 17 19  1  0  0  0  0
 17 18  1  0  0  0  0
 17  3  1  0  0  0  0
 20 17  1  0  0  0  0
 21 23  1  0  0  0  0
 21 16  1  0  0  0  0
 21 22  1  0  0  0  0
 24 21  1  0  0  0  0
 25 27  1  0  0  0  0
 25 26  1  0  0  0  0
 25 28  1  0  0  0  0
 29 44  1  0  0  0  0
 29 30  1  0  0  0  0
 31 32  1  1  0  0  0
 33 34  1  0  0  0  0
 33 31  1  0  0  0  0
 33 44  1  0  0  0  0
 35 33  1  0  0  0  0
 36 38  1  0  0  0  0
 36 31  1  0  0  0  0
 37 36  1  0  0  0  0
 38 40  1  0  0  0  0
 39 38  1  0  0  0  0
 41 10  1  0  0  0  0
 41 29  1  0  0  0  0
 42 41  1  0  0  0  0
 43 41  1  0  0  0  0
 44 53  1  0  0  0  0
 45 47  1  0  0  0  0
 45 46  1  0  0  0  0
 45 31  1  0  0  0  0
 48 45  1  0  0  0  0
 49 51  1  0  0  0  0
 49 44  1  0  0  0  0
 49 50  1  0  0  0  0
 52 49  1  0  0  0  0
 53 55  1  0  0  0  0
 53 54  1  0  0  0  0
 53 56  1  0  0  0  0
M  END
