1,2,3,4
q = -1.0

 48 50  0  0  0  0  0  0  0  0999 V2000
   -0.0437    0.5920    1.9486 N   0  0  0  0  0  0  0  0  0  0  0  0
   -2.1400   -0.3760    0.0081 N   0  0  0  0  0  2  0  0  0  0  0  0
    1.6148    1.1310   -0.4123 N   0  0  0  0  0  2  0  0  0  0  0  0
    0.6250   -1.8990   -0.0559 N   0  0  0  0  0  2  0  0  0  0  0  0
   -2.6196   -1.0777   -1.0406 C   0  0  0  0  0  3  0  0  0  0  0  0
   -3.7995   -0.7392   -1.7053 C   0  0  0  0  0  0  0  0  0  0  0  0
   -4.4514    0.4769   -1.3781 C   0  0  0  0  0  0  0  0  0  0  0  0
   -3.9736    1.2349   -0.3251 C   0  0  0  0  0  0  0  0  0  0  0  0
   -2.8673    0.7373    0.4457 C   0  0  0  0  0  0  0  0  0  0  0  0
   -2.4660    1.2722    1.6685 C   0  0  0  0  0  3  0  0  0  0  0  0
   -1.4552    0.5297    2.4721 C   0  0  0  0  0  0  0  0  0  0  0  0
    2.6088    0.6421   -1.1776 C   0  0  0  0  0  3  0  0  0  0  0  0
    3.6948    1.4310   -1.5671 C   0  0  0  0  0  0  0  0  0  0  0  0
    3.7293    2.7723   -1.1603 C   0  0  0  0  0  0  0  0  0  0  0  0
    2.6891    3.2701   -0.3644 C   0  0  0  0  0  0  0  0  0  0  0  0
    1.6315    2.4190   -0.0029 C   0  0  0  0  0  0  0  0  0  0  0  0
    0.5090    2.8403    0.9075 C   0  0  0  0  0  0  0  0  0  0  0  0
    0.5036    1.9684    2.1735 C   0  0  0  0  0  0  0  0  0  0  0  0
    0.9072   -2.4971   -1.2328 C   0  0  0  0  0  3  0  0  0  0  0  0
    1.4796   -3.7713   -1.3150 C   0  0  0  0  0  0  0  0  0  0  0  0
    1.7796   -4.4420   -0.1204 C   0  0  0  0  0  0  0  0  0  0  0  0
    1.4806   -3.8211    1.0990 C   0  0  0  0  0  0  0  0  0  0  0  0
    0.8874   -2.5433    1.1026 C   0  0  0  0  0  0  0  0  0  0  0  0
    0.4759   -1.8927    2.4053 C   0  0  0  0  0  0  0  0  0  0  0  0
    0.8304   -0.4137    2.6177 C   0  0  0  0  0  0  0  0  0  0  0  0
   -2.0360   -1.9624   -1.3382 H   0  0  0  0  0  0  0  0  0  0  0  0
   -4.1971   -1.4059   -2.4829 H   0  0  0  0  0  0  0  0  0  0  0  0
   -5.3292    0.8069   -1.9528 H   0  0  0  0  0  0  0  0  0  0  0  0
   -4.4358    2.1923   -0.0443 H   0  0  0  0  0  0  0  0  0  0  0  0
   -2.9606    2.1689    2.0684 H   0  0  0  0  0  0  0  0  0  0  0  0
   -1.7403   -0.5415    2.4394 H   0  0  0  0  0  0  0  0  0  0  0  0
   -1.4634    0.8719    3.5298 H   0  0  0  0  0  0  0  0  0  0  0  0
    2.5170   -0.4072   -1.4924 H   0  0  0  0  0  0  0  0  0  0  0  0
    4.4888    0.9986   -2.1917 H   0  0  0  0  0  0  0  0  0  0  0  0
    4.5603    3.4276   -1.4611 H   0  0  0  0  0  0  0  0  0  0  0  0
    2.6873    4.3150   -0.0227 H   0  0  0  0  0  0  0  0  0  0  0  0
    0.6333    3.9018    1.1958 H   0  0  0  0  0  0  0  0  0  0  0  0
   -0.4633    2.7551    0.3738 H   0  0  0  0  0  0  0  0  0  0  0  0
    1.5411    1.8816    2.5518 H   0  0  0  0  0  0  0  0  0  0  0  0
   -0.0772    2.4681    2.9755 H   0  0  0  0  0  0  0  0  0  0  0  0
    0.6447   -1.9096   -2.1322 H   0  0  0  0  0  0  0  0  0  0  0  0
    1.6854   -4.2229   -2.2959 H   0  0  0  0  0  0  0  0  0  0  0  0
    2.2397   -5.4415   -0.1367 H   0  0  0  0  0  0  0  0  0  0  0  0
    1.6983   -4.3255    2.0520 H   0  0  0  0  0  0  0  0  0  0  0  0
    0.9493   -2.4562    3.2328 H   0  0  0  0  0  0  0  0  0  0  0  0
   -0.6156   -2.0550    2.5417 H   0  0  0  0  0  0  0  0  0  0  0  0
    1.8602   -0.2280    2.2517 H   0  0  0  0  0  0  0  0  0  0  0  0
    0.8379   -0.2089    3.7133 H   0  0  0  0  0  0  0  0  0  0  0  0
  1 18  1  0  0  0  0
  1 11  1  0  0  0  0
  1 25  1  0  0  0  0
  2  9  1  0  0  0  0
  3 16  1  0  0  0  0
  4 23  1  0  0  0  0
  5  2  1  0  0  0  0
  6  7  2  0  0  0  0
  6  5  1  0  0  0  0
  7  8  1  0  0  0  0
  8 29  1  0  0  0  0
  8  9  2  0  0  0  0
  9 10  1  0  0  0  0
 10 30  1  0  0  0  0
 10 11  1  0  0  0  0
 11 32  1  0  0  0  0
 12  3  1  0  0  0  0
 13 12  1  0  0  0  0
 13 14  2  0  0  0  0
 14 15  1  0  0  0  0
 15 36  1  0  0  0  0
 15 16  2  0  0  0  0
 16 17  1  0  0  0  0
 17 37  1  0  0  0  0
 17 18  1  0  0  0  0
 18 39  1  0  0  0  0
 18 40  1  0  0  0  0
 19  4  1  0  0  0  0
 20 19  1  0  0  0  0
 20 21  2  0  0  0  0
 21 22  1  0  0  0  0
 22 23  2  0  0  0  0
 22 44  1  0  0  0  0
 23 24  1  0  0  0  0
 24 46  1  0  0  0  0
 24 25  1  0  0  0  0
 24 45  1  0  0  0  0
 25 48  1  0  0  0  0
 26  5  1  0  0  0  0
 27  6  1  0  0  0  0
 28  7  1  0  0  0  0
 31 11  1  0  0  0  0
 33 12  1  0  0  0  0
 34 13  1  0  0  0  0
 35 14  1  0  0  0  0
 38 17  1  0  0  0  0
 41 19  1  0  0  0  0
 42 20  1  0  0  0  0
 43 21  1  0  0  0  0
 47 25  1  0  0  0  0
M  END
