1,11,24,31
q = -1.0

 52 54  0  0  0  0  0  0  0  0999 V2000
   -1.9450   -1.8053   -0.3401 N   0  0  0  0  0  2  0  0  0  0  0  0
   -1.8377   -2.5455   -1.4694 C   0  0  0  0  0  3  0  0  0  0  0  0
   -1.5320   -1.9793   -2.3635 H   0  0  0  0  0  0  0  0  0  0  0  0
   -2.1101   -3.9169   -1.4954 C   0  0  0  0  0  0  0  0  0  0  0  0
   -2.0033   -4.4654   -2.4425 H   0  0  0  0  0  0  0  0  0  0  0  0
   -2.5168   -4.5652   -0.3200 C   0  0  0  0  0  0  0  0  0  0  0  0
   -2.7337   -5.6437   -0.3115 H   0  0  0  0  0  0  0  0  0  0  0  0
   -2.6515   -3.7964    0.8471 C   0  0  0  0  0  0  0  0  0  0  0  0
   -2.9848   -4.2470    1.7936 H   0  0  0  0  0  0  0  0  0  0  0  0
   -2.3694   -2.4288    0.7988 C   0  0  0  0  0  0  0  0  0  0  0  0
   -1.4870    2.1719    0.0996 N   0  0  0  0  0  2  0  0  0  0  0  0
   -2.5107    3.0108    0.3886 C   0  0  0  0  0  3  0  0  0  0  0  0
   -3.4776    2.5105    0.5614 H   0  0  0  0  0  0  0  0  0  0  0  0
   -2.3482    4.3996    0.4143 C   0  0  0  0  0  0  0  0  0  0  0  0
   -3.2125    5.0382    0.6471 H   0  0  0  0  0  0  0  0  0  0  0  0
   -1.0875    4.9498    0.1420 C   0  0  0  0  0  0  0  0  0  0  0  0
   -0.9296    6.0384    0.1546 H   0  0  0  0  0  0  0  0  0  0  0  0
   -0.0234    4.0763   -0.1383 C   0  0  0  0  0  0  0  0  0  0  0  0
    0.9888    4.4559   -0.3416 H   0  0  0  0  0  0  0  0  0  0  0  0
   -0.2563    2.6985   -0.1568 C   0  0  0  0  0  0  0  0  0  0  0  0
    0.8016    1.6715   -0.4515 C   0  0  0  0  0  0  0  0  0  0  0  0
    0.7770    1.4528   -1.5399 H   0  0  0  0  0  0  0  0  0  0  0  0
    1.8139    2.0324   -0.1647 H   0  0  0  0  0  0  0  0  0  0  0  0
    0.4294    0.4264    0.2505 N   0  0  0  0  0  0  0  0  0  0  0  0
    0.5570    0.6245    1.7213 C   0  0  0  0  0  0  0  0  0  0  0  0
    0.2822    1.6742    1.9352 H   0  0  0  0  0  0  0  0  0  0  0  0
    1.6076    0.4847    2.0562 H   0  0  0  0  0  0  0  0  0  0  0  0
   -0.4116   -0.3019    2.4325 C   0  0  0  0  0  0  0  0  0  0  0  0
    0.0156   -1.3319    2.5324 H   0  0  0  0  0  0  0  0  0  0  0  0
   -0.5886    0.0529    3.4762 H   0  0  0  0  0  0  0  0  0  0  0  0
   -1.6289   -0.3448    1.6463 N   0  0  0  0  0  2  0  0  0  0  0  0
   -2.5143   -1.4604    1.9413 C   0  0  0  0  0  0  0  0  0  0  0  0
   -3.5627   -1.0732    1.9227 H   0  0  0  0  0  0  0  0  0  0  0  0
   -2.3168   -1.9399    2.9256 H   0  0  0  0  0  0  0  0  0  0  0  0
    1.1646   -0.7699   -0.2608 C   0  0  0  0  0  0  0  0  0  0  0  0
    0.8612   -0.8587   -1.3233 H   0  0  0  0  0  0  0  0  0  0  0  0
    0.7528   -1.6491    0.2710 H   0  0  0  0  0  0  0  0  0  0  0  0
    2.6668   -0.7206   -0.1145 C   0  0  0  0  0  0  0  0  0  0  0  0
    3.3114   -1.2640    1.0203 C   0  0  0  0  0  0  0  0  0  0  0  0
    2.7102   -1.7739    1.7905 H   0  0  0  0  0  0  0  0  0  0  0  0
    4.6964   -1.1897    1.1789 C   0  0  0  0  0  0  0  0  0  0  0  0
    5.1996   -1.6179    2.0578 H   0  0  0  0  0  0  0  0  0  0  0  0
    5.4897   -0.5638    0.1924 C   0  0  0  0  0  0  0  0  0  0  0  0
    6.8284   -0.5364    0.4304 O   0  0  0  0  0  0  0  0  0  0  0  0
    7.6717    0.0653   -0.5338 C   0  0  0  0  0  0  0  0  0  0  0  0
    8.7032   -0.0206   -0.1450 H   0  0  0  0  0  0  0  0  0  0  0  0
    7.4304    1.1419   -0.6828 H   0  0  0  0  0  0  0  0  0  0  0  0
    7.6125   -0.4516   -1.5179 H   0  0  0  0  0  0  0  0  0  0  0  0
    4.8686   -0.0286   -0.9555 C   0  0  0  0  0  0  0  0  0  0  0  0
    5.4605    0.4461   -1.7493 H   0  0  0  0  0  0  0  0  0  0  0  0
    3.4747   -0.1148   -1.0950 C   0  0  0  0  0  0  0  0  0  0  0  0
    3.0048    0.2917   -2.0043 H   0  0  0  0  0  0  0  0  0  0  0  0
  1 10  1  0  0  0  0
  2  1  1  0  0  0  0
  3  2  1  0  0  0  0
  4  2  1  0  0  0  0
  4  6  2  0  0  0  0
  5  4  1  0  0  0  0
  6  7  1  0  0  0  0
  6  8  1  0  0  0  0
  8  9  1  0  0  0  0
 10  8  2  0  0  0  0
 10 32  1  0  0  0  0
 11 12  1  0  0  0  0
 12 14  1  0  0  0  0
 12 13  1  0  0  0  0
 14 15  1  0  0  0  0
 16 17  1  0  0  0  0
 16 14  2  0  0  0  0
 18 16  1  0  0  0  0
 19 18  1  0  0  0  0
 20 18  2  0  0  0  0
 20 11  1  0  0  0  0
 21 23  1  0  0  0  0
 21 20  1  0  0  0  0
 21 24  1  0  0  0  0
 22 21  1  0  0  0  0
 24 25  1  0  0  0  0
 25 26  1  0  0  0  0
 25 27  1  0  0  0  0
 25 28  1  0  0  0  0
 28 29  1  0  0  0  0
 28 30  1  0  0  0  0
 31 32  1  0  0  0  0
 31 28  1  0  0  0  0
 32 34  1  0  0  0  0
 33 32  1  0  0  0  0
 35 38  1  0  0  0  0
 35 24  1  0  0  0  0
 35 37  1  0  0  0  0
 36 35  1  0  0  0  0
 38 39  1  0  0  0  0
 39 41  2  0  0  0  0
 39 40  1  0  0  0  0
 41 42  1  0  0  0  0
 43 44  1  0  0  0  0
 43 41  1  0  0  0  0
 45 46  1  0  0  0  0
 45 44  1  0  0  0  0
 47 45  1  0  0  0  0
 48 45  1  0  0  0  0
 49 43  2  0  0  0  0
 50 49  1  0  0  0  0
 51 49  1  0  0  0  0
 51 38  2  0  0  0  0
 52 51  1  0  0  0  0
M  END
