1,11,24,31
q = -1.0, confidence = 0.086

 48 50  0  0  0  0  0  0  0  0999 V2000
    1.5358    2.1493    0.1108 N   0  0  0  0  0  2  0  0  0  0  0  0
    2.5738    2.9587    0.4308 C   0  0  0  0  0  3  0  0  0  0  0  0
    3.5206    2.4315    0.6325 H   0  0  0  0  0  0  0  0  0  0  0  0
    2.4504    4.3515    0.4525 C   0  0  0  0  0  0  0  0  0  0  0  0
    3.3252    4.9652    0.7116 H   0  0  0  0  0  0  0  0  0  0  0  0
    1.2148    4.9376    0.1426 C   0  0  0  0  0  0  0  0  0  0  0  0
    1.0879    6.0302    0.1509 H   0  0  0  0  0  0  0  0  0  0  0  0
    0.1350    4.0949   -0.1700 C   0  0  0  0  0  0  0  0  0  0  0  0
   -0.8592    4.5035   -0.4036 H   0  0  0  0  0  0  0  0  0  0  0  0
    0.3292    2.7111   -0.1820 C   0  0  0  0  0  0  0  0  0  0  0  0
    1.8965   -1.8425   -0.3107 N   0  0  0  0  0  2  0  0  0  0  0  0
    1.8061   -2.5819   -1.4419 C   0  0  0  0  0  3  0  0  0  0  0  0
    1.5449   -2.0102   -2.3465 H   0  0  0  0  0  0  0  0  0  0  0  0
    2.0422   -3.9603   -1.4573 C   0  0  0  0  0  0  0  0  0  0  0  0
    1.9517   -4.5078   -2.4067 H   0  0  0  0  0  0  0  0  0  0  0  0
    2.3930   -4.6165   -0.2685 C   0  0  0  0  0  0  0  0  0  0  0  0
    2.5805   -5.7004   -0.2515 H   0  0  0  0  0  0  0  0  0  0  0  0
    2.5109   -3.8491    0.9013 C   0  0  0  0  0  0  0  0  0  0  0  0
    2.8016   -4.3064    1.8586 H   0  0  0  0  0  0  0  0  0  0  0  0
    2.2673   -2.4745    0.8420 C   0  0  0  0  0  0  0  0  0  0  0  0
    2.4029   -1.5077    1.9870 C   0  0  0  0  0  0  0  0  0  0  0  0
    2.1618   -1.9791    2.9654 H   0  0  0  0  0  0  0  0  0  0  0  0
    3.4615   -1.1496    2.0009 H   0  0  0  0  0  0  0  0  0  0  0  0
    1.5580   -0.3688    1.6627 N   0  0  0  0  0  2  0  0  0  0  0  0
    0.3185   -0.2918    2.4105 C   0  0  0  0  0  0  0  0  0  0  0  0
    0.4724    0.0578    3.4595 H   0  0  0  0  0  0  0  0  0  0  0  0
   -0.1405   -1.3095    2.4966 H   0  0  0  0  0  0  0  0  0  0  0  0
   -0.6011    0.6618    1.6708 C   0  0  0  0  0  0  0  0  0  0  0  0
   -1.6645    0.5544    1.9765 H   0  0  0  0  0  0  0  0  0  0  0  0
   -0.3017    1.7031    1.8921 H   0  0  0  0  0  0  0  0  0  0  0  0
   -0.4359    0.4603    0.2044 N   0  0  0  0  0  0  0  0  0  0  0  0
   -0.7489    1.7154   -0.5094 C   0  0  0  0  0  0  0  0  0  0  0  0
   -1.7579    2.1080   -0.2537 H   0  0  0  0  0  0  0  0  0  0  0  0
   -0.6963    1.4949   -1.5965 H   0  0  0  0  0  0  0  0  0  0  0  0
   -1.1798   -0.7169   -0.3311 C   0  0  0  0  0  0  0  0  0  0  0  0
   -0.8108   -1.6065    0.2141 H   0  0  0  0  0  0  0  0  0  0  0  0
   -0.8453   -0.8145   -1.3836 H   0  0  0  0  0  0  0  0  0  0  0  0
   -2.6854   -0.6275   -0.2347 C   0  0  0  0  0  0  0  0  0  0  0  0
   -3.3761   -1.1606    0.8735 C   0  0  0  0  0  0  0  0  0  0  0  0
   -2.8134   -1.6922    1.6578 H   0  0  0  0  0  0  0  0  0  0  0  0
   -4.7681   -1.0483    0.9921 C   0  0  0  0  0  0  0  0  0  0  0  0
   -5.3004   -1.4700    1.8561 H   0  0  0  0  0  0  0  0  0  0  0  0
   -5.4895   -0.3921   -0.0181 C   0  0  0  0  0  0  0  0  0  0  0  0
   -7.2220   -0.2425    0.1167 Cl  0  0  0  0  0  0  0  0  0  0  0  0
   -4.8314    0.1350   -1.1420 C   0  0  0  0  0  0  0  0  0  0  0  0
   -5.4142    0.6289   -1.9321 H   0  0  0  0  0  0  0  0  0  0  0  0
   -3.4396    0.0110   -1.2414 C   0  0  0  0  0  0  0  0  0  0  0  0
   -2.9274    0.4088   -2.1311 H   0  0  0  0  0  0  0  0  0  0  0  0
  1  2  1  0  0  0  0
  2  4  1  0  0  0  0
  2  3  1  0  0  0  0
  4  5  1  0  0  0  0
  6  7  1  0  0  0  0
  6  4  2  0  0  0  0
  8  6  1  0  0  0  0
  9  8  1  0  0  0  0
 10  8  2  0  0  0  0
 10  1  1  0  0  0  0
 11 20  1  0  0  0  0
 12 11  1  0  0  0  0
 13 12  1  0  0  0  0
 14 12  1  0  0  0  0
 14 16  2  0  0  0  0
 15 14  1  0  0  0  0
 16 17  1  0  0  0  0
 16 18  1  0  0  0  0
 18 19  1  0  0  0  0
 20 18  2  0  0  0  0
 20 21  1  0  0  0  0
 21 23  1  0  0  0  0
 21 22  1  0  0  0  0
 24 21  1  0  0  0  0
 24 25  1  0  0  0  0
 25 27  1  0  0  0  0
 25 26  1  0  0  0  0
 28 30  1  0  0  0  0
 28 29  1  0  0  0  0
 28 25  1  0  0  0  0
 31 28  1  0  0  0  0
 32 33  1  0  0  0  0
 32 10  1  0  0  0  0
 32 31  1  0  0  0  0
 34 32  1  0  0  0  0
 35 38  1  0  0  0  0
 35 31  1  0  0  0  0
 35 36  1  0  0  0  0
 37 35  1  0  0  0  0
 38 39  1  0  0  0  0
 39 41  2  0  0  0  0
 39 40  1  0  0  0  0
 41 42  1  0  0  0  0
 43 44  1  0  0  0  0
 43 41  1  0  0  0  0
 45 43  2  0  0  0  0
 46 45  1  0  0  0  0
 47 45  1  0  0  0  0
 47 38  2  0  0  0  0
 48 47  1  0  0  0  0
M  END
