1,2,3,4
q = -2.0, confidence = 0.932

 52 54  0  0  0  0  0  0  0  0999 V2000
    1.4851    1.2488    0.1923 N   0  0  0  0  0  2  0  0  0  0  0  0
    1.4851   -1.2490   -0.1923 N   0  0  0  0  0  2  0  0  0  0  0  0
   -1.3425   -1.1048    0.5332 N   0  0  0  0  0  2  0  0  0  0  0  0
   -1.3424    1.1048   -0.5332 N   0  0  0  0  0  2  0  0  0  0  0  0
    2.7256    0.7358    0.0723 C   0  0  0  0  0  0  0  0  0  0  0  0
    3.8911    1.5606    0.0733 C   0  0  0  0  0  3  0  0  0  0  0  0
    3.6866    2.6391    0.0699 H   0  0  0  0  0  0  0  0  0  0  0  0
    5.2538    1.2480    0.0364 C   0  0  0  0  0  0  0  0  0  0  0  0
    5.9226    2.1256    0.0340 H   0  0  0  0  0  0  0  0  0  0  0  0
    5.8931    0.0001   -0.0001 C   0  0  0  0  0  0  0  0  0  0  0  0
    6.9940    0.0001   -0.0001 H   0  0  0  0  0  0  0  0  0  0  0  0
    5.2539   -1.2479   -0.0365 C   0  0  0  0  0  0  0  0  0  0  0  0
    5.9228   -2.1254   -0.0341 H   0  0  0  0  0  0  0  0  0  0  0  0
    3.8912   -1.5607   -0.0733 C   0  0  0  0  0  0  0  0  0  0  0  0
    3.6868   -2.6392   -0.0697 H   0  0  0  0  0  0  0  0  0  0  0  0
    2.7257   -0.7360   -0.0724 C   0  0  0  0  0  0  0  0  0  0  0  0
    1.3704   -2.6585   -0.5753 C   0  0  0  0  0  0  0  0  0  0  0  0
    2.0963   -2.8441   -1.3977 H   0  0  0  0  0  0  0  0  0  0  0  0
    1.6948   -3.3239    0.2630 H   0  0  0  0  0  0  0  0  0  0  0  0
   -0.0139   -3.1027   -1.0542 C   0  0  0  0  0  0  0  0  0  0  0  0
    0.1198   -3.9691   -1.7344 H   0  0  0  0  0  0  0  0  0  0  0  0
   -0.4583   -2.2896   -1.6653 H   0  0  0  0  0  0  0  0  0  0  0  0
   -0.9684   -3.4988    0.0751 C   0  0  0  0  0  0  0  0  0  0  0  0
   -0.6157   -4.4332    0.5643 H   0  0  0  0  0  0  0  0  0  0  0  0
   -1.9725   -3.7178   -0.3458 H   0  0  0  0  0  0  0  0  0  0  0  0
   -1.0720   -2.3968    1.1355 C   0  0  0  0  0  0  0  0  0  0  0  0
   -0.1095   -2.3129    1.6799 H   0  0  0  0  0  0  0  0  0  0  0  0
   -1.8365   -2.6517    1.9007 H   0  0  0  0  0  0  0  0  0  0  0  0
   -2.5963   -0.6779    0.2960 C   0  0  0  0  0  0  0  0  0  0  0  0
   -3.7526   -1.4559    0.5939 C   0  0  0  0  0  3  0  0  0  0  0  0
   -3.5425   -2.4647    0.9759 H   0  0  0  0  0  0  0  0  0  0  0  0
   -5.1136   -1.1598    0.4724 C   0  0  0  0  0  0  0  0  0  0  0  0
   -5.7878   -1.9726    0.7919 H   0  0  0  0  0  0  0  0  0  0  0  0
   -5.7482    0.0001   -0.0001 C   0  0  0  0  0  0  0  0  0  0  0  0
   -6.8491    0.0002   -0.0001 H   0  0  0  0  0  0  0  0  0  0  0  0
   -5.1136    1.1600   -0.4726 C   0  0  0  0  0  0  0  0  0  0  0  0
   -5.7876    1.9729   -0.7920 H   0  0  0  0  0  0  0  0  0  0  0  0
   -3.7525    1.4561   -0.5939 C   0  0  0  0  0  0  0  0  0  0  0  0
   -3.5423    2.4648   -0.9759 H   0  0  0  0  0  0  0  0  0  0  0  0
   -2.5962    0.6780   -0.2961 C   0  0  0  0  0  0  0  0  0  0  0  0
   -1.0717    2.3968   -1.1355 C   0  0  0  0  0  0  0  0  0  0  0  0
   -0.1092    2.3129   -1.6797 H   0  0  0  0  0  0  0  0  0  0  0  0
   -1.8362    2.6518   -1.9007 H   0  0  0  0  0  0  0  0  0  0  0  0
   -0.9681    3.4988   -0.0750 C   0  0  0  0  0  0  0  0  0  0  0  0
   -0.6154    4.4332   -0.5641 H   0  0  0  0  0  0  0  0  0  0  0  0
   -1.9722    3.7179    0.3459 H   0  0  0  0  0  0  0  0  0  0  0  0
   -0.0137    3.1026    1.0543 C   0  0  0  0  0  0  0  0  0  0  0  0
   -0.4581    2.2896    1.6655 H   0  0  0  0  0  0  0  0  0  0  0  0
    0.1202    3.9691    1.7345 H   0  0  0  0  0  0  0  0  0  0  0  0
    1.3706    2.6583    0.5754 C   0  0  0  0  0  0  0  0  0  0  0  0
    2.0966    2.8438    1.3978 H   0  0  0  0  0  0  0  0  0  0  0  0
    1.6950    3.3237   -0.2629 H   0  0  0  0  0  0  0  0  0  0  0  0
  1 50  1  0  0  0  0
  2 16  1  0  0  0  0
  3 26  1  0  0  0  0
  4 40  1  0  0  0  0
  5  6  1  0  0  0  0
  5  1  1  0  0  0  0
  7  6  1  0  0  0  0
  8  6  1  0  0  0  0
  9  8  1  0  0  0  0
 10  8  2  0  0  0  0
 11 10  1  0  0  0  0
 12 13  1  0  0  0  0
 12 10  1  0  0  0  0
 14 16  1  0  0  0  0
 14 15  1  0  0  0  0
 14 12  2  0  0  0  0
 16  5  2  0  0  0  0
 17  2  1  0  0  0  0
 17 19  1  0  0  0  0
 18 17  1  0  0  0  0
 20 17  1  0  0  0  0
 20 23  1  0  0  0  0
 21 20  1  0  0  0  0
 22 20  1  0  0  0  0
 23 24  1  0  0  0  0
 23 26  1  0  0  0  0
 25 23  1  0  0  0  0
 26 27  1  0  0  0  0
 26 28  1  0  0  0  0
 29  3  1  0  0  0  0
 29 30  1  0  0  0  0
 30 31  1  0  0  0  0
 32 30  1  0  0  0  0
 32 33  1  0  0  0  0
 34 32  2  0  0  0  0
 35 34  1  0  0  0  0
 36 34  1  0  0  0  0
 37 36  1  0  0  0  0
 38 36  2  0  0  0  0
 38 40  1  0  0  0  0
 39 38  1  0  0  0  0
 40 29  2  0  0  0  0
 41  4  1  0  0  0  0
 41 44  1  0  0  0  0
 42 41  1  0  0  0  0
 43 41  1  0  0  0  0
 44 46  1  0  0  0  0
 44 47  1  0  0  0  0
 45 44  1  0  0  0  0
 47 48  1  0  0  0  0
 47 49  1  0  0  0  0
 50 47  1  0  0  0  0
 50 51  1  0  0  0  0
 52 50  1  0  0  0  0
M  END
