1,2,3,4
q = 0.0, confidence = 1.0

 44 44  0  0  1  0  0  0  0  0999 V2000
   -0.7391    1.3865   -0.6456 N   0  0  0  0  0  0  0  0  0  0  0  0
   -1.1312   -1.4184    0.0343 N   0  0  0  0  0  0  0  0  0  0  0  0
    1.1653   -0.8560   -1.3817 N   0  0  0  0  0  0  0  0  0  0  0  0
    1.7867    1.2469    0.5029 N   0  0  0  0  0  0  0  0  0  0  0  0
    0.5123   -2.1785   -1.5911 C   0  0  0  0  0  0  0  0  0  0  0  0
   -2.5297   -0.9911    0.3409 C   0  0  1  0  0  0  0  0  0  0  0  0
    1.4457    2.4395   -0.3037 C   0  0  0  0  0  0  0  0  0  0  0  0
   -0.9643   -2.0496   -1.2973 C   0  0  0  0  0  0  0  0  0  0  0  0
    3.1870    0.8005    0.3091 C   0  0  0  0  0  0  0  0  0  0  0  0
   -0.0487    2.6558   -0.2694 C   0  0  0  0  0  0  0  0  0  0  0  0
   -2.2201    1.4921   -0.3654 C   0  0  2  0  0  0  0  0  0  0  0  0
    2.6494   -1.0296   -1.3891 C   0  0  0  0  0  0  0  0  0  0  0  0
    3.4389    0.2353   -1.0862 C   0  0  0  0  0  0  0  0  0  0  0  0
   -2.9580    0.1667   -0.5610 C   0  0  0  0  0  0  0  0  0  0  0  0
   -2.8693    2.5916   -1.2119 C   0  0  0  0  0  0  0  0  0  0  0  0
   -3.5103   -2.1656    0.2810 C   0  0  0  0  0  0  0  0  0  0  0  0
    1.6278    1.4596    1.5056 H   0  0  0  0  0  0  0  0  0  0  0  0
    0.9197   -0.2474   -2.1805 H   0  0  0  0  0  0  0  0  0  0  0  0
   -0.8227   -2.0923    0.7606 H   0  0  0  0  0  0  0  0  0  0  0  0
    3.3826    0.0269    1.0757 H   0  0  0  0  0  0  0  0  0  0  0  0
    3.8658    1.6605    0.4989 H   0  0  0  0  0  0  0  0  0  0  0  0
    4.5144   -0.0251   -1.1566 H   0  0  0  0  0  0  0  0  0  0  0  0
    3.2812    1.0033   -1.8749 H   0  0  0  0  0  0  0  0  0  0  0  0
    2.9461   -1.4419   -2.3780 H   0  0  0  0  0  0  0  0  0  0  0  0
    2.8632   -1.7923   -0.6160 H   0  0  0  0  0  0  0  0  0  0  0  0
    0.9823   -2.8731   -0.8678 H   0  0  0  0  0  0  0  0  0  0  0  0
    0.6962   -2.5598   -2.6180 H   0  0  0  0  0  0  0  0  0  0  0  0
   -1.4615   -1.4117   -2.0558 H   0  0  0  0  0  0  0  0  0  0  0  0
   -1.4553   -3.0435   -1.3425 H   0  0  0  0  0  0  0  0  0  0  0  0
   -0.3784    2.8929    0.7611 H   0  0  0  0  0  0  0  0  0  0  0  0
   -0.3356    3.4925   -0.9370 H   0  0  0  0  0  0  0  0  0  0  0  0
    1.7877    2.2686   -1.3447 H   0  0  0  0  0  0  0  0  0  0  0  0
    1.9842    3.3398    0.0636 H   0  0  0  0  0  0  0  0  0  0  0  0
   -2.4745   -0.6161    1.3825 H   0  0  0  0  0  0  0  0  0  0  0  0
   -2.2692    1.7522    0.7112 H   0  0  0  0  0  0  0  0  0  0  0  0
   -4.4855   -1.8573    0.7051 H   0  0  0  0  0  0  0  0  0  0  0  0
   -3.1475   -3.0234    0.8825 H   0  0  0  0  0  0  0  0  0  0  0  0
   -3.6959   -2.5149   -0.7550 H   0  0  0  0  0  0  0  0  0  0  0  0
   -4.0250    0.3697   -0.3408 H   0  0  0  0  0  0  0  0  0  0  0  0
   -2.9486   -0.1301   -1.6344 H   0  0  0  0  0  0  0  0  0  0  0  0
   -3.9536    2.6352   -0.9937 H   0  0  0  0  0  0  0  0  0  0  0  0
   -2.7620    2.3853   -2.2988 H   0  0  0  0  0  0  0  0  0  0  0  0
   -2.4612    3.5979   -1.0031 H   0  0  0  0  0  0  0  0  0  0  0  0
   -0.6414    1.2644   -1.6691 H   0  0  0  0  0  0  0  0  0  0  0  0
  1 11  1  0  0  0  0
  1 10  1  0  0  0  0
  2  6  1  0  0  0  0
  2 19  1  0  0  0  0
  4 17  1  0  0  0  0
  5  3  1  0  0  0  0
  5  8  1  0  0  0  0
  5 26  1  0  0  0  0
  6 34  1  1  0  0  0
  7 10  1  0  0  0  0
  7 33  1  0  0  0  0
  7  4  1  0  0  0  0
  8  2  1  0  0  0  0
  9 21  1  0  0  0  0
  9  4  1  0  0  0  0
  9 20  1  0  0  0  0
 10 30  1  0  0  0  0
 11 35  1  1  0  0  0
 12  3  1  0  0  0  0
 12 13  1  0  0  0  0
 12 25  1  0  0  0  0
 13  9  1  0  0  0  0
 14 11  1  0  0  0  0
 14 39  1  0  0  0  0
 14  6  1  0  0  0  0
 15 43  1  0  0  0  0
 15 41  1  0  0  0  0
 15 11  1  0  0  0  0
 16  6  1  0  0  0  0
 16 36  1  0  0  0  0
 16 37  1  0  0  0  0
 18  3  1  0  0  0  0
 22 13  1  0  0  0  0
 23 13  1  0  0  0  0
 24 12  1  0  0  0  0
 27  5  1  0  0  0  0
 28  8  1  0  0  0  0
 29  8  1  0  0  0  0
 31 10  1  0  0  0  0
 32  7  1  0  0  0  0
 38 16  1  0  0  0  0
 40 14  1  0  0  0  0
 42 15  1  0  0  0  0
 44  1  1  0  0  0  0
M  END
