3,4,30,31
q = -2.0, confidence = 0.948

 54 57  0  0  0  0  0  0  0  0999 V2000
   -2.2964    3.2275   -0.9436 O   0  0  0  0  0  0  0  0  0  0  0  0
   -1.1400   -0.8529    1.6251 O   0  0  0  0  0  0  0  0  0  0  0  0
    0.8536    1.5689   -1.1208 N   0  0  0  0  0  2  0  0  0  0  0  0
   -1.5226    1.1151   -0.2540 N   0  0  0  0  0  2  0  0  0  0  0  0
    2.1311    1.7096   -1.5409 C   0  0  0  0  0  3  0  0  0  0  0  0
    2.8171    0.8805   -1.3164 H   0  0  0  0  0  0  0  0  0  0  0  0
    2.5630    2.8564   -2.2160 C   0  0  0  0  0  0  0  0  0  0  0  0
    3.6146    2.9291   -2.5284 H   0  0  0  0  0  0  0  0  0  0  0  0
    1.6490    3.8919   -2.4762 C   0  0  0  0  0  0  0  0  0  0  0  0
    1.9677    4.8018   -3.0062 H   0  0  0  0  0  0  0  0  0  0  0  0
    0.3253    3.7380   -2.0457 C   0  0  0  0  0  0  0  0  0  0  0  0
   -0.4589    4.4931   -2.2023 H   0  0  0  0  0  0  0  0  0  0  0  0
   -0.0369    2.5660   -1.3740 C   0  0  0  0  0  0  0  0  0  0  0  0
   -1.4288    2.3491   -0.8526 C   0  0  0  0  0  0  0  0  0  0  0  0
   -2.6013    0.7444    0.5576 C   0  0  0  0  0  0  0  0  0  0  0  0
   -3.9043    1.3002    0.4590 C   0  0  0  0  0  0  0  0  0  0  0  0
   -4.0732    2.0798   -0.2925 H   0  0  0  0  0  0  0  0  0  0  0  0
   -4.9258    0.8947    1.3277 C   0  0  0  0  0  0  0  0  0  0  0  0
   -5.9228    1.3507    1.2312 H   0  0  0  0  0  0  0  0  0  0  0  0
   -4.6922   -0.0814    2.3091 C   0  0  0  0  0  0  0  0  0  0  0  0
   -5.4995   -0.4062    2.9821 H   0  0  0  0  0  0  0  0  0  0  0  0
   -3.4162   -0.6546    2.4165 C   0  0  0  0  0  0  0  0  0  0  0  0
   -3.2105   -1.4397    3.1599 H   0  0  0  0  0  0  0  0  0  0  0  0
   -2.3834   -0.2460    1.5621 C   0  0  0  0  0  0  0  0  0  0  0  0
   -0.3521   -0.6761    2.8015 C   0  0  0  0  0  0  0  0  0  0  0  0
    0.3931   -1.4973    2.7866 H   0  0  0  0  0  0  0  0  0  0  0  0
   -0.9690   -0.7776    3.7223 H   0  0  0  0  0  0  0  0  0  0  0  0
    2.2964   -3.2275   -0.9436 O   0  0  0  0  0  0  0  0  0  0  0  0
    1.1399    0.8530    1.6250 O   0  0  0  0  0  0  0  0  0  0  0  0
   -0.8536   -1.5689   -1.1208 N   0  0  0  0  0  2  0  0  0  0  0  0
    1.5226   -1.1151   -0.2540 N   0  0  0  0  0  2  0  0  0  0  0  0
   -2.1311   -1.7096   -1.5409 C   0  0  0  0  0  3  0  0  0  0  0  0
   -2.8171   -0.8805   -1.3163 H   0  0  0  0  0  0  0  0  0  0  0  0
   -2.5630   -2.8565   -2.2160 C   0  0  0  0  0  0  0  0  0  0  0  0
   -3.6146   -2.9292   -2.5284 H   0  0  0  0  0  0  0  0  0  0  0  0
   -1.6490   -3.8920   -2.4762 C   0  0  0  0  0  0  0  0  0  0  0  0
   -1.9676   -4.8018   -3.0063 H   0  0  0  0  0  0  0  0  0  0  0  0
   -0.3252   -3.7380   -2.0457 C   0  0  0  0  0  0  0  0  0  0  0  0
    0.4589   -4.4931   -2.2024 H   0  0  0  0  0  0  0  0  0  0  0  0
    0.0370   -2.5660   -1.3740 C   0  0  0  0  0  0  0  0  0  0  0  0
    1.4288   -2.3491   -0.8527 C   0  0  0  0  0  0  0  0  0  0  0  0
    2.6013   -0.7444    0.5576 C   0  0  0  0  0  0  0  0  0  0  0  0
    3.9043   -1.3002    0.4590 C   0  0  0  0  0  0  0  0  0  0  0  0
    4.0732   -2.0798   -0.2925 H   0  0  0  0  0  0  0  0  0  0  0  0
    4.9258   -0.8946    1.3277 C   0  0  0  0  0  0  0  0  0  0  0  0
    5.9228   -1.3507    1.2312 H   0  0  0  0  0  0  0  0  0  0  0  0
    4.6921    0.0815    2.3091 C   0  0  0  0  0  0  0  0  0  0  0  0
    5.4995    0.4063    2.9821 H   0  0  0  0  0  0  0  0  0  0  0  0
    3.4162    0.6546    2.4165 C   0  0  0  0  0  0  0  0  0  0  0  0
    3.2105    1.4398    3.1598 H   0  0  0  0  0  0  0  0  0  0  0  0
    2.3834    0.2460    1.5621 C   0  0  0  0  0  0  0  0  0  0  0  0
    0.3521    0.6762    2.8015 C   0  0  0  0  0  0  0  0  0  0  0  0
   -0.3931    1.4975    2.7865 H   0  0  0  0  0  0  0  0  0  0  0  0
    0.9690    0.7778    3.7223 H   0  0  0  0  0  0  0  0  0  0  0  0
  1 14  2  0  0  0  0
  2 25  1  0  0  0  0
  4 15  1  0  0  0  0
  5  6  1  0  0  0  0
  5  3  1  0  0  0  0
  7  5  1  0  0  0  0
  8  7  1  0  0  0  0
  9  7  2  0  0  0  0
  9 11  1  0  0  0  0
 10  9  1  0  0  0  0
 11 13  2  0  0  0  0
 12 11  1  0  0  0  0
 13  3  1  0  0  0  0
 13 14  1  0  0  0  0
 14  4  1  0  0  0  0
 15 24  1  0  0  0  0
 16 15  2  0  0  0  0
 16 18  1  0  0  0  0
 17 16  1  0  0  0  0
 18 20  2  0  0  0  0
 19 18  1  0  0  0  0
 20 22  1  0  0  0  0
 20 21  1  0  0  0  0
 22 23  1  0  0  0  0
 24  2  1  0  0  0  0
 24 22  2  0  0  0  0
 25 27  1  0  0  0  0
 26 25  1  0  0  0  0
 28 41  2  0  0  0  0
 29 52  1  0  0  0  0
 31 42  1  0  0  0  0
 32 33  1  0  0  0  0
 32 30  1  0  0  0  0
 34 32  1  0  0  0  0
 35 34  1  0  0  0  0
 36 34  2  0  0  0  0
 36 38  1  0  0  0  0
 37 36  1  0  0  0  0
 38 40  2  0  0  0  0
 39 38  1  0  0  0  0
 40 30  1  0  0  0  0
 40 41  1  0  0  0  0
 41 31  1  0  0  0  0
 42 51  1  0  0  0  0
 43 42  2  0  0  0  0
 43 45  1  0  0  0  0
 44 43  1  0  0  0  0
 45 47  2  0  0  0  0
 46 45  1  0  0  0  0
 47 49  1  0  0  0  0
 47 48  1  0  0  0  0
 49 50  1  0  0  0  0
 51 29  1  0  0  0  0
 51 49  2  0  0  0  0
 52 25  1  0  0  0  0
 52 54  1  0  0  0  0
 53 52  1  0  0  0  0
M  END
