1,2,3,4
q = -1.0

 59 61  0  0  1  0  0  0  0  0999 V2000
   -2.1161    1.7814   -0.3962 N   0  0  0  0  0  2  0  0  0  0  0  0
    0.5186    1.4571   -0.5307 N   0  0  0  0  0  2  0  0  0  0  0  0
    0.4970   -1.4510   -0.3930 N   0  0  0  0  0  2  0  0  0  0  0  0
   -2.0470   -1.4524   -1.0936 N   0  0  0  0  0  2  0  0  0  0  0  0
   -3.4462    1.8282   -0.1839 C   0  0  0  0  0  3  0  0  0  0  0  0
   -3.8879    0.9210    0.2613 H   0  0  0  0  0  0  0  0  0  0  0  0
   -4.2083    2.9662   -0.4571 C   0  0  0  0  0  0  0  0  0  0  0  0
   -5.2922    2.9659   -0.2741 H   0  0  0  0  0  0  0  0  0  0  0  0
   -3.5451    4.1009   -0.9527 C   0  0  0  0  0  0  0  0  0  0  0  0
   -4.1041    5.0196   -1.1867 H   0  0  0  0  0  0  0  0  0  0  0  0
   -2.1576    4.0599   -1.1173 C   0  0  0  0  0  0  0  0  0  0  0  0
   -1.6147    4.9497   -1.4660 H   0  0  0  0  0  0  0  0  0  0  0  0
   -1.4557    2.8739   -0.8145 C   0  0  0  0  0  0  0  0  0  0  0  0
    0.0820    2.8191   -0.8605 C   0  0  0  0  0  0  0  0  0  0  0  0
    0.5917    3.8242    0.2046 C   0  0  0  0  0  0  0  0  0  0  0  0
    0.2423    3.5124    1.2085 H   0  0  0  0  0  0  0  0  0  0  0  0
    0.2354    4.8538    0.0054 H   0  0  0  0  0  0  0  0  0  0  0  0
    1.6992    3.8458    0.2116 H   0  0  0  0  0  0  0  0  0  0  0  0
    0.5658    3.2150   -2.2742 C   0  0  0  0  0  0  0  0  0  0  0  0
    0.1943    2.4866   -3.0217 H   0  0  0  0  0  0  0  0  0  0  0  0
    1.6728    3.2125   -2.3120 H   0  0  0  0  0  0  0  0  0  0  0  0
    0.2216    4.2275   -2.5636 H   0  0  0  0  0  0  0  0  0  0  0  0
    1.8212    1.2258   -0.4612 C   0  0  0  0  0  3  0  0  0  0  0  0
    2.5133    2.0832   -0.6016 H   0  0  0  0  0  0  0  0  0  0  0  0
    2.4765   -0.0183   -0.2744 C   0  0  0  0  0  0  0  0  0  0  0  0
    3.9536   -0.0107   -0.1362 C   0  0  0  0  0  0  0  0  0  0  0  0
    4.6145    0.9954    0.6082 C   0  0  0  0  0  0  0  0  0  0  0  0
    4.0155    1.7556    1.1334 H   0  0  0  0  0  0  0  0  0  0  0  0
    6.0109    1.0251    0.7239 C   0  0  0  0  0  0  0  0  0  0  0  0
    6.4858    1.8247    1.3154 H   0  0  0  0  0  0  0  0  0  0  0  0
    6.8194    0.0414    0.1226 C   0  0  0  0  0  0  0  0  0  0  0  0
    8.3198    0.0467    0.2763 C   0  0  0  0  0  0  0  0  0  0  0  0
    8.6884    1.0213    0.6521 H   0  0  0  0  0  0  0  0  0  0  0  0
    8.8300   -0.1638   -0.6862 H   0  0  0  0  0  0  0  0  0  0  0  0
    8.6564   -0.7326    0.9940 H   0  0  0  0  0  0  0  0  0  0  0  0
    6.1660   -0.9688   -0.6145 C   0  0  0  0  0  0  0  0  0  0  0  0
    6.7672   -1.7466   -1.1135 H   0  0  0  0  0  0  0  0  0  0  0  0
    4.7735   -0.9916   -0.7479 C   0  0  0  0  0  0  0  0  0  0  0  0
    4.3099   -1.7724   -1.3708 H   0  0  0  0  0  0  0  0  0  0  0  0
    1.7987   -1.2681   -0.3044 C   0  0  0  0  0  0  0  0  0  0  0  0
    2.4606   -2.1580   -0.2559 H   0  0  0  0  0  0  0  0  0  0  0  0
   -0.0442   -2.8065   -0.5082 C   0  0  0  0  0  0  0  0  0  0  0  0
    0.7178   -3.6326   -1.5724 C   0  0  0  0  0  0  0  0  0  0  0  0
    1.7707   -3.7845   -1.2658 H   0  0  0  0  0  0  0  0  0  0  0  0
    0.7101   -3.1097   -2.5492 H   0  0  0  0  0  0  0  0  0  0  0  0
    0.2720   -4.6370   -1.7046 H   0  0  0  0  0  0  0  0  0  0  0  0
   -0.0019   -3.5198    0.8649 C   0  0  0  0  0  0  0  0  0  0  0  0
   -0.5473   -2.9195    1.6204 H   0  0  0  0  0  0  0  0  0  0  0  0
    1.0527   -3.6212    1.1911 H   0  0  0  0  0  0  0  0  0  0  0  0
   -0.4471   -4.5337    0.8138 H   0  0  0  0  0  0  0  0  0  0  0  0
   -1.5112   -2.6839   -0.9699 C   0  0  2  0  0  3  0  0  0  0  0  0
   -2.2753   -3.8300   -1.2688 C   0  0  0  0  0  0  0  0  0  0  0  0
   -1.8391   -4.8300   -1.1376 H   0  0  0  0  0  0  0  0  0  0  0  0
   -3.5857   -3.6902   -1.7343 C   0  0  0  0  0  0  0  0  0  0  0  0
   -4.1902   -4.5793   -1.9692 H   0  0  0  0  0  0  0  0  0  0  0  0
   -4.1112   -2.4003   -1.9037 C   0  0  0  0  0  0  0  0  0  0  0  0
   -5.1296   -2.2365   -2.2838 H   0  0  0  0  0  0  0  0  0  0  0  0
   -3.3025   -1.3144   -1.5609 C   0  0  0  0  0  0  0  0  0  0  0  0
   -3.6717   -0.2821   -1.6614 H   0  0  0  0  0  0  0  0  0  0  0  0
  1  5  1  0  0  0  0
  2 23  1  0  0  0  0
  3 40  1  0  0  0  0
  4 51  1  0  0  0  0
  5  6  1  0  0  0  0
  7  8  1  0  0  0  0
  7  5  1  0  0  0  0
  9  7  2  0  0  0  0
 10  9  1  0  0  0  0
 11  9  1  0  0  0  0
 11 13  2  0  0  0  0
 12 11  1  0  0  0  0
 13  1  1  0  0  0  0
 14 13  1  0  0  0  0
 14  2  1  0  0  0  0
 14 15  1  0  0  0  0
 15 18  1  0  0  0  0
 15 16  1  0  0  0  0
 17 15  1  0  0  0  0
 19 14  1  0  0  0  0
 20 19  1  0  0  0  0
 21 19  1  0  0  0  0
 22 19  1  0  0  0  0
 23 25  1  0  0  0  0
 24 23  1  0  0  0  0
 25 26  1  0  0  0  0
 26 27  1  0  0  0  0
 27 29  2  0  0  0  0
 27 28  1  0  0  0  0
 29 30  1  0  0  0  0
 31 32  1  0  0  0  0
 31 29  1  0  0  0  0
 32 33  1  0  0  0  0
 32 35  1  0  0  0  0
 34 32  1  0  0  0  0
 36 31  2  0  0  0  0
 37 36  1  0  0  0  0
 38 36  1  0  0  0  0
 38 26  2  0  0  0  0
 39 38  1  0  0  0  0
 40 25  2  0  0  0  0
 40 41  1  0  0  0  0
 42  3  1  0  0  0  0
 42 47  1  0  0  0  0
 43 44  1  0  0  0  0
 43 42  1  0  0  0  0
 45 43  1  0  0  0  0
 46 43  1  0  0  0  0
 47 49  1  0  0  0  0
 47 48  1  0  0  0  0
 50 47  1  0  0  0  0
 51 42  1  6  0  0  0
 52 53  1  0  0  0  0
 52 51  1  0  0  0  0
 54 52  2  0  0  0  0
 55 54  1  0  0  0  0
 56 54  1  0  0  0  0
 56 58  2  0  0  0  0
 57 56  1  0  0  0  0
 58  4  1  0  0  0  0
 59 58  1  0  0  0  0
M  END
