9,10,11,12
q = -1.0

 57 60  0  0  1  0  0  0  0  0999 V2000
   -2.7194   -3.4525    0.8720 O   0  0  0  0  0  0  0  0  0  0  0  0
   -3.5999   -2.5446   -1.0117 O   0  0  0  0  0  0  0  0  0  0  0  0
   -3.8508    2.5884    0.9704 O   0  0  0  0  0  0  0  0  0  0  0  0
   -2.7500    3.2973   -0.8656 O   0  0  0  0  0  0  0  0  0  0  0  0
   -3.4164    0.1493   -1.2879 O   0  0  0  0  0  0  0  0  0  0  0  0
   -3.8851   -0.6951   -1.4734 H   0  0  0  0  0  0  0  0  0  0  0  0
   -3.8733   -0.1004    0.9851 O   0  0  0  0  0  0  0  0  0  0  0  0
   -4.2534    0.8025    1.1303 H   0  0  0  0  0  0  0  0  0  0  0  0
    1.0591   -1.9335    0.1782 N   0  0  0  0  0  2  0  0  0  0  0  0
    1.1136    1.8945    0.2617 N   0  0  0  0  0  2  0  0  0  0  0  0
   -0.1301    0.0305   -0.9987 N   0  0  0  0  0  2  0  0  0  0  0  0
   -0.4730   -0.0075    1.7593 N   0  0  0  0  0  0  0  0  0  0  0  0
   -1.9813   -1.2412    0.1742 C   0  0  1  0  0  0  0  0  0  0  0  0
   -0.8948   -1.1974   -0.9758 C   0  0  2  0  0  0  0  0  0  0  0  0
   -1.4393   -1.3565   -1.9322 H   0  0  0  0  0  0  0  0  0  0  0  0
   -0.8738    1.2793   -0.9221 C   0  0  1  0  0  0  0  0  0  0  0  0
   -1.3974    1.4951   -1.8763 H   0  0  0  0  0  0  0  0  0  0  0  0
   -1.9705    1.2795    0.2059 C   0  0  2  0  0  0  0  0  0  0  0  0
   -1.3383    1.1983    1.6056 C   0  0  0  0  0  0  0  0  0  0  0  0
   -0.7353    2.0959    1.8321 H   0  0  0  0  0  0  0  0  0  0  0  0
   -2.1527    1.1449    2.3578 H   0  0  0  0  0  0  0  0  0  0  0  0
   -1.3390   -1.2035    1.5686 C   0  0  0  0  0  0  0  0  0  0  0  0
   -2.1557   -1.1757    2.3193 H   0  0  0  0  0  0  0  0  0  0  0  0
   -0.7503   -2.1148    1.7650 H   0  0  0  0  0  0  0  0  0  0  0  0
   -2.8873    0.0136    0.0043 C   0  0  0  0  0  0  0  0  0  0  0  0
   -2.7986   -2.5274    0.0914 C   0  0  0  0  0  0  0  0  0  0  0  0
   -4.4315   -3.7163   -1.1616 C   0  0  0  0  0  0  0  0  0  0  0  0
   -5.1403   -3.7917   -0.3146 H   0  0  0  0  0  0  0  0  0  0  0  0
   -3.8061   -4.6292   -1.1860 H   0  0  0  0  0  0  0  0  0  0  0  0
   -4.9724   -3.5844   -2.1142 H   0  0  0  0  0  0  0  0  0  0  0  0
   -2.9407    2.4607    0.1589 C   0  0  0  0  0  0  0  0  0  0  0  0
   -3.7206    4.3597   -0.9996 C   0  0  0  0  0  0  0  0  0  0  0  0
   -3.7465    4.9771   -0.0815 H   0  0  0  0  0  0  0  0  0  0  0  0
   -4.7262    3.9316   -1.1741 H   0  0  0  0  0  0  0  0  0  0  0  0
   -3.3953    4.9564   -1.8688 H   0  0  0  0  0  0  0  0  0  0  0  0
    0.0876   -2.3063   -0.7007 C   0  0  2  0  0  3  0  0  0  0  0  0
   -0.0003   -3.6228   -1.1624 C   0  0  0  0  0  0  0  0  0  0  0  0
   -0.7921   -3.8954   -1.8742 H   0  0  0  0  0  0  0  0  0  0  0  0
    0.9248   -4.5705   -0.6992 C   0  0  0  0  0  0  0  0  0  0  0  0
    0.8771   -5.6118   -1.0502 H   0  0  0  0  0  0  0  0  0  0  0  0
    1.9047   -4.1740    0.2222 C   0  0  0  0  0  0  0  0  0  0  0  0
    2.6381   -4.8883    0.6217 H   0  0  0  0  0  0  0  0  0  0  0  0
    1.9478   -2.8386    0.6375 C   0  0  0  0  0  0  0  0  0  0  0  0
    2.6904   -2.4713    1.3604 H   0  0  0  0  0  0  0  0  0  0  0  0
    0.1632    2.3368   -0.6105 C   0  0  1  0  0  3  0  0  0  0  0  0
    0.1893    3.6548   -1.0798 C   0  0  0  0  0  0  0  0  0  0  0  0
   -0.5703    3.9808   -1.8002 H   0  0  0  0  0  0  0  0  0  0  0  0
    1.1815    4.5299   -0.6124 C   0  0  0  0  0  0  0  0  0  0  0  0
    1.2216    5.5673   -0.9764 H   0  0  0  0  0  0  0  0  0  0  0  0
    2.1167    4.0687    0.3252 C   0  0  0  0  0  0  0  0  0  0  0  0
    2.8966    4.7274    0.7320 H   0  0  0  0  0  0  0  0  0  0  0  0
    2.0602    2.7326    0.7339 C   0  0  0  0  0  0  0  0  0  0  0  0
    2.7730    2.3057    1.4540 H   0  0  0  0  0  0  0  0  0  0  0  0
    0.0608   -0.0255    3.1438 C   0  0  0  0  0  0  0  0  0  0  0  0
    0.6862   -0.9220    3.2875 H   0  0  0  0  0  0  0  0  0  0  0  0
   -0.7825   -0.0288    3.8668 H   0  0  0  0  0  0  0  0  0  0  0  0
    0.6989    0.8590    3.3079 H   0  0  0  0  0  0  0  0  0  0  0  0
  2 26  1  0  0  0  0
  4 31  1  0  0  0  0
  5 25  1  0  0  0  0
  6  5  1  0  0  0  0
  7  8  1  0  0  0  0
  9 43  1  0  0  0  0
 10 52  1  0  0  0  0
 11 14  1  0  0  0  0
 11 16  1  0  0  0  0
 12 54  1  0  0  0  0
 13 26  1  6  0  0  0
 13 22  1  0  0  0  0
 14 15  1  6  0  0  0
 14 36  1  0  0  0  0
 14 13  1  0  0  0  0
 16 17  1  6  0  0  0
 16 45  1  0  0  0  0
 16 18  1  0  0  0  0
 18 31  1  6  0  0  0
 18 19  1  0  0  0  0
 19 12  1  0  0  0  0
 19 20  1  0  0  0  0
 19 21  1  0  0  0  0
 22 12  1  0  0  0  0
 22 24  1  0  0  0  0
 22 23  1  0  0  0  0
 25 13  1  0  0  0  0
 25 18  1  0  0  0  0
 25  7  1  0  0  0  0
 26  1  2  0  0  0  0
 27  2  1  0  0  0  0
 27 28  1  0  0  0  0
 29 27  1  0  0  0  0
 30 27  1  0  0  0  0
 31  3  2  0  0  0  0
 32  4  1  0  0  0  0
 32 33  1  0  0  0  0
 34 32  1  0  0  0  0
 35 32  1  0  0  0  0
 36 37  1  1  0  0  0
 36  9  1  0  0  0  0
 37 39  2  0  0  0  0
 38 37  1  0  0  0  0
 39 41  1  0  0  0  0
 40 39  1  0  0  0  0
 41 42  1  0  0  0  0
 41 43  2  0  0  0  0
 43 44  1  0  0  0  0
 45 46  1  1  0  0  0
 45 10  1  0  0  0  0
 46 48  2  0  0  0  0
 47 46  1  0  0  0  0
 48 50  1  0  0  0  0
 49 48  1  0  0  0  0
 50 51  1  0  0  0  0
 50 52  2  0  0  0  0
 52 53  1  0  0  0  0
 54 55  1  0  0  0  0
 54 57  1  0  0  0  0
 54 56  1  0  0  0  0
M  END
