2,4
q = -1.0, confidence = 0.008

 50 52  0  0  1  0  0  0  0  0999 V2000
   -2.7669    2.6106   -0.6052 O   0  0  0  0  0  0  0  0  0  0  0  0
   -0.7032    1.5572   -0.5353 N   0  0  0  0  0  2  0  0  0  0  0  0
   -1.6868   -0.8276   -0.0137 N   0  0  2  0  0  0  0  0  0  0  0  0
    1.0007   -1.8292   -0.5360 N   0  0  0  0  0  0  0  0  0  0  0  0
    1.0413   -2.3895    0.3318 H   0  0  0  0  0  0  0  0  0  0  0  0
    1.9039    0.7017    0.0705 N   0  0  2  0  0  0  0  0  0  0  0  0
   -2.0613    1.6256   -0.3921 C   0  0  0  0  0  0  0  0  0  0  0  0
   -2.6927    0.3104    0.0643 C   0  0  2  0  0  0  0  0  0  0  0  0
   -3.5259    0.1100   -0.6378 H   0  0  0  0  0  0  0  0  0  0  0  0
   -2.0468   -1.7843   -1.0921 C   0  0  0  0  0  0  0  0  0  0  0  0
   -3.0859   -2.1418   -0.9120 H   0  0  0  0  0  0  0  0  0  0  0  0
   -2.0553   -1.2166   -2.0448 H   0  0  0  0  0  0  0  0  0  0  0  0
   -1.1147   -2.9873   -1.2014 C   0  0  0  0  0  0  0  0  0  0  0  0
   -1.5201   -3.6547   -1.9885 H   0  0  0  0  0  0  0  0  0  0  0  0
   -1.1388   -3.5893   -0.2673 H   0  0  0  0  0  0  0  0  0  0  0  0
    0.3217   -2.6475   -1.5728 C   0  0  0  0  0  0  0  0  0  0  0  0
    0.9038   -3.5787   -1.7529 H   0  0  0  0  0  0  0  0  0  0  0  0
    0.3454   -2.0625   -2.5158 H   0  0  0  0  0  0  0  0  0  0  0  0
    2.3884   -1.4813   -0.9271 C   0  0  0  0  0  0  0  0  0  0  0  0
    2.3502   -1.0669   -1.9551 H   0  0  0  0  0  0  0  0  0  0  0  0
    3.0464   -2.3776   -0.9584 H   0  0  0  0  0  0  0  0  0  0  0  0
    2.9103   -0.4362    0.0399 C   0  0  2  0  0  0  0  0  0  0  0  0
    3.8777   -0.0467   -0.3396 H   0  0  0  0  0  0  0  0  0  0  0  0
    2.2895    1.8052   -0.8488 C   0  0  0  0  0  0  0  0  0  0  0  0
    2.3234    1.3905   -1.8784 H   0  0  0  0  0  0  0  0  0  0  0  0
    3.3236    2.1264   -0.5859 H   0  0  0  0  0  0  0  0  0  0  0  0
    1.3384    2.9920   -0.7860 C   0  0  0  0  0  0  0  0  0  0  0  0
    1.3283    3.4213    0.2372 H   0  0  0  0  0  0  0  0  0  0  0  0
    1.7519    3.7853   -1.4415 H   0  0  0  0  0  0  0  0  0  0  0  0
   -0.0755    2.6690   -1.2484 C   0  0  0  0  0  0  0  0  0  0  0  0
   -0.7241    3.5604   -1.1301 H   0  0  0  0  0  0  0  0  0  0  0  0
   -0.0549    2.4443   -2.3417 H   0  0  0  0  0  0  0  0  0  0  0  0
   -3.1906    0.3538    1.5212 C   0  0  0  0  0  0  0  0  0  0  0  0
   -3.4018    1.3944    1.8311 H   0  0  0  0  0  0  0  0  0  0  0  0
   -4.1306   -0.2240    1.6288 H   0  0  0  0  0  0  0  0  0  0  0  0
   -2.0645   -0.3298    2.3013 C   0  0  0  0  0  0  0  0  0  0  0  0
   -1.2073    0.3598    2.4490 H   0  0  0  0  0  0  0  0  0  0  0  0
   -2.3740   -0.7059    3.2949 H   0  0  0  0  0  0  0  0  0  0  0  0
   -1.6864   -1.4587    1.3519 C   0  0  0  0  0  0  0  0  0  0  0  0
   -2.4666   -2.2531    1.3775 H   0  0  0  0  0  0  0  0  0  0  0  0
   -0.7143   -1.9399    1.5740 H   0  0  0  0  0  0  0  0  0  0  0  0
    3.0633   -0.9091    1.5094 C   0  0  0  0  0  0  0  0  0  0  0  0
    2.9680   -2.0094    1.6118 H   0  0  0  0  0  0  0  0  0  0  0  0
    4.0771   -0.6544    1.8734 H   0  0  0  0  0  0  0  0  0  0  0  0
    2.0019   -0.1328    2.3066 C   0  0  0  0  0  0  0  0  0  0  0  0
    1.0378   -0.6802    2.3485 H   0  0  0  0  0  0  0  0  0  0  0  0
    2.3075    0.0667    3.3511 H   0  0  0  0  0  0  0  0  0  0  0  0
    1.8471    1.1495    1.5013 C   0  0  0  0  0  0  0  0  0  0  0  0
    0.9076    1.7008    1.6855 H   0  0  0  0  0  0  0  0  0  0  0  0
    2.7028    1.8370    1.6937 H   0  0  0  0  0  0  0  0  0  0  0  0
  1  7  2  0  0  0  0
  2  7  1  0  0  0  0
  3 10  1  6  0  0  0
  3  8  1  0  0  0  0
  3 39  1  0  0  0  0
  4  5  1  0  0  0  0
  6 24  1  6  0  0  0
  6 48  1  0  0  0  0
  7  8  1  0  0  0  0
  8  9  1  6  0  0  0
  8 33  1  0  0  0  0
 10 11  1  0  0  0  0
 12 10  1  0  0  0  0
 13 10  1  0  0  0  0
 13 15  1  0  0  0  0
 14 13  1  0  0  0  0
 16 13  1  0  0  0  0
 16  4  1  0  0  0  0
 17 16  1  0  0  0  0
 18 16  1  0  0  0  0
 19  4  1  0  0  0  0
 19 22  1  0  0  0  0
 20 19  1  0  0  0  0
 21 19  1  0  0  0  0
 22 23  1  6  0  0  0
 22  6  1  0  0  0  0
 22 42  1  0  0  0  0
 24 27  1  0  0  0  0
 24 26  1  0  0  0  0
 25 24  1  0  0  0  0
 27 28  1  0  0  0  0
 29 27  1  0  0  0  0
 30 31  1  0  0  0  0
 30 27  1  0  0  0  0
 30  2  1  0  0  0  0
 32 30  1  0  0  0  0
 33 35  1  0  0  0  0
 33 34  1  0  0  0  0
 33 36  1  0  0  0  0
 36 37  1  0  0  0  0
 36 38  1  0  0  0  0
 39 40  1  0  0  0  0
 39 41  1  0  0  0  0
 39 36  1  0  0  0  0
 42 43  1  0  0  0  0
 42 44  1  0  0  0  0
 42 45  1  0  0  0  0
 45 46  1  0  0  0  0
 45 47  1  0  0  0  0
 48 49  1  0  0  0  0
 48 50  1  0  0  0  0
 48 45  1  0  0  0  0
M  END
