3,5
q = -2.0, confidence = 0.942

 48 50  0  0  1  0  0  0  0  0999 V2000
   -3.5125    1.8265   -0.8261 O   0  0  0  0  0  0  0  0  0  0  0  0
    3.5125   -1.8265   -0.8261 O   0  0  0  0  0  0  0  0  0  0  0  0
   -1.2410    1.3907   -0.5712 N   0  0  0  0  0  2  0  0  0  0  0  0
   -1.5528   -1.1517    0.0299 N   0  0  2  0  0  0  0  0  0  0  0  0
    1.2410   -1.3907   -0.5712 N   0  0  0  0  0  2  0  0  0  0  0  0
    1.5528    1.1517    0.0299 N   0  0  2  0  0  0  0  0  0  0  0  0
   -2.5614    1.0778   -0.5577 C   0  0  0  0  0  0  0  0  0  0  0  0
   -2.8391   -0.3732   -0.1521 C   0  0  2  0  0  0  0  0  0  0  0  0
   -3.4326   -0.8287   -0.9688 H   0  0  0  0  0  0  0  0  0  0  0  0
   -1.5846   -2.4168   -0.7489 C   0  0  0  0  0  0  0  0  0  0  0  0
   -1.6877   -2.1412   -1.8186 H   0  0  0  0  0  0  0  0  0  0  0  0
   -2.5044   -2.9776   -0.4580 H   0  0  0  0  0  0  0  0  0  0  0  0
   -0.3567   -3.2961   -0.5509 C   0  0  0  0  0  0  0  0  0  0  0  0
   -0.2250   -3.5338    0.5259 H   0  0  0  0  0  0  0  0  0  0  0  0
   -0.5555   -4.2646   -1.0556 H   0  0  0  0  0  0  0  0  0  0  0  0
    0.9255   -2.7020   -1.1176 C   0  0  0  0  0  0  0  0  0  0  0  0
    1.7824   -3.3831   -0.9309 H   0  0  0  0  0  0  0  0  0  0  0  0
    0.8274   -2.6361   -2.2291 H   0  0  0  0  0  0  0  0  0  0  0  0
    2.5614   -1.0778   -0.5578 C   0  0  0  0  0  0  0  0  0  0  0  0
    2.8391    0.3732   -0.1521 C   0  0  2  0  0  0  0  0  0  0  0  0
    3.4326    0.8288   -0.9688 H   0  0  0  0  0  0  0  0  0  0  0  0
    1.5846    2.4168   -0.7489 C   0  0  0  0  0  0  0  0  0  0  0  0
    1.6877    2.1412   -1.8186 H   0  0  0  0  0  0  0  0  0  0  0  0
    2.5044    2.9776   -0.4580 H   0  0  0  0  0  0  0  0  0  0  0  0
    0.3567    3.2961   -0.5509 C   0  0  0  0  0  0  0  0  0  0  0  0
    0.5555    4.2646   -1.0556 H   0  0  0  0  0  0  0  0  0  0  0  0
    0.2250    3.5338    0.5259 H   0  0  0  0  0  0  0  0  0  0  0  0
   -0.9254    2.7020   -1.1176 C   0  0  0  0  0  0  0  0  0  0  0  0
   -1.7824    3.3831   -0.9309 H   0  0  0  0  0  0  0  0  0  0  0  0
   -0.8274    2.6361   -2.2291 H   0  0  0  0  0  0  0  0  0  0  0  0
   -3.5653   -0.4274    1.1983 C   0  0  0  0  0  0  0  0  0  0  0  0
   -4.1586   -1.3605    1.3013 H   0  0  0  0  0  0  0  0  0  0  0  0
   -4.2530    0.4345    1.2914 H   0  0  0  0  0  0  0  0  0  0  0  0
   -2.3915   -0.4298    2.1822 C   0  0  0  0  0  0  0  0  0  0  0  0
   -1.9350    0.5801    2.2370 H   0  0  0  0  0  0  0  0  0  0  0  0
   -2.6609   -0.7437    3.2093 H   0  0  0  0  0  0  0  0  0  0  0  0
   -1.4423   -1.4192    1.5144 C   0  0  0  0  0  0  0  0  0  0  0  0
   -0.3856   -1.3578    1.8340 H   0  0  0  0  0  0  0  0  0  0  0  0
   -1.7972   -2.4558    1.7122 H   0  0  0  0  0  0  0  0  0  0  0  0
    3.5653    0.4274    1.1983 C   0  0  0  0  0  0  0  0  0  0  0  0
    4.2529   -0.4346    1.2914 H   0  0  0  0  0  0  0  0  0  0  0  0
    4.1586    1.3605    1.3013 H   0  0  0  0  0  0  0  0  0  0  0  0
    2.3914    0.4297    2.1822 C   0  0  0  0  0  0  0  0  0  0  0  0
    2.6608    0.7437    3.2093 H   0  0  0  0  0  0  0  0  0  0  0  0
    1.9349   -0.5801    2.2370 H   0  0  0  0  0  0  0  0  0  0  0  0
    1.4423    1.4192    1.5144 C   0  0  0  0  0  0  0  0  0  0  0  0
    1.7972    2.4558    1.7122 H   0  0  0  0  0  0  0  0  0  0  0  0
    0.3855    1.3579    1.8340 H   0  0  0  0  0  0  0  0  0  0  0  0
  1  7  2  0  0  0  0
  2 19  2  0  0  0  0
  3  7  1  0  0  0  0
  4 10  1  6  0  0  0
  4 37  1  0  0  0  0
  5 19  1  0  0  0  0
  6 22  1  6  0  0  0
  6 46  1  0  0  0  0
  7  8  1  0  0  0  0
  8  9  1  6  0  0  0
  8  4  1  0  0  0  0
  8 31  1  0  0  0  0
 10 13  1  0  0  0  0
 10 12  1  0  0  0  0
 11 10  1  0  0  0  0
 13 14  1  0  0  0  0
 15 13  1  0  0  0  0
 16 17  1  0  0  0  0
 16  5  1  0  0  0  0
 16 13  1  0  0  0  0
 18 16  1  0  0  0  0
 19 20  1  0  0  0  0
 20 21  1  6  0  0  0
 20  6  1  0  0  0  0
 20 40  1  0  0  0  0
 22 25  1  0  0  0  0
 22 24  1  0  0  0  0
 23 22  1  0  0  0  0
 25 27  1  0  0  0  0
 26 25  1  0  0  0  0
 28 29  1  0  0  0  0
 28  3  1  0  0  0  0
 28 25  1  0  0  0  0
 30 28  1  0  0  0  0
 31 33  1  0  0  0  0
 31 32  1  0  0  0  0
 31 34  1  0  0  0  0
 34 35  1  0  0  0  0
 34 36  1  0  0  0  0
 37 39  1  0  0  0  0
 37 38  1  0  0  0  0
 37 34  1  0  0  0  0
 40 41  1  0  0  0  0
 40 42  1  0  0  0  0
 40 43  1  0  0  0  0
 43 45  1  0  0  0  0
 43 44  1  0  0  0  0
 46 47  1  0  0  0  0
 46 48  1  0  0  0  0
 46 43  1  0  0  0  0
M  END
