19,20,21,22
q = -1.0

 64 71  0  0  1  0  0  0  0  0999 V2000
   -4.5156   -4.0706   -0.2137 I   0  0  0  0  0  0  0  0  0  0  0  0
    2.1886   -5.1307    0.0661 I   0  0  0  0  0  0  0  0  0  0  0  0
    5.1894   -2.7190    0.1693 I   0  0  0  0  0  0  0  0  0  0  0  0
    4.6815    0.1538   -2.4213 F   0  0  0  0  0  0  0  0  0  0  0  0
    7.3893    0.4394   -2.5725 F   0  0  0  0  0  0  0  0  0  0  0  0
    8.8165    1.0894   -0.3314 F   0  0  0  0  0  0  0  0  0  0  0  0
    7.5379    1.4848    2.0536 F   0  0  0  0  0  0  0  0  0  0  0  0
    4.8278    1.2191    2.2026 F   0  0  0  0  0  0  0  0  0  0  0  0
   -1.8829    5.1012   -2.1224 F   0  0  0  0  0  0  0  0  0  0  0  0
   -2.2550    7.7918   -2.1027 F   0  0  0  0  0  0  0  0  0  0  0  0
   -1.3998    9.2786    0.0303 F   0  0  0  0  0  0  0  0  0  0  0  0
   -0.1765    8.0590    2.1536 F   0  0  0  0  0  0  0  0  0  0  0  0
    0.1838    5.3669    2.1536 F   0  0  0  0  0  0  0  0  0  0  0  0
   -5.2495   -0.1098   -2.2071 F   0  0  0  0  0  0  0  0  0  0  0  0
   -7.9286   -0.5988   -2.0671 F   0  0  0  0  0  0  0  0  0  0  0  0
   -9.0488   -1.3833    0.3013 F   0  0  0  0  0  0  0  0  0  0  0  0
   -7.4958   -1.6717    2.5347 F   0  0  0  0  0  0  0  0  0  0  0  0
   -4.8137   -1.2031    2.3923 F   0  0  0  0  0  0  0  0  0  0  0  0
    1.0764    1.8712    0.0173 N   0  0  0  0  0  2  0  0  0  0  0  0
   -1.8059    1.4782   -0.0143 N   0  0  0  0  0  0  0  0  0  0  0  0
   -1.2418   -1.3103    0.0032 N   0  0  0  0  0  2  0  0  0  0  0  0
    1.2808   -0.9678   -0.0252 N   0  0  0  0  0  2  0  0  0  0  0  0
    3.2035    0.5209   -0.0317 C   0  0  0  0  0  0  0  0  0  0  0  0
    2.4564    1.7336   -0.0283 C   0  0  0  0  0  0  0  0  0  0  0  0
    2.9872    3.0784   -0.0840 C   0  0  0  0  0  0  0  0  0  0  0  0
    4.0536    3.3228   -0.1341 H   0  0  0  0  0  0  0  0  0  0  0  0
    1.9283    3.9663   -0.0728 C   0  0  0  0  0  0  0  0  0  0  0  0
    1.9824    5.0591   -0.1155 H   0  0  0  0  0  0  0  0  0  0  0  0
    0.7053    3.1995   -0.0096 C   0  0  0  0  0  0  0  0  0  0  0  0
   -0.6363    3.6702    0.0096 C   0  0  0  0  0  0  0  0  0  0  0  0
   -1.8033    2.8571    0.0236 C   0  0  0  0  0  0  0  0  0  0  0  0
   -3.1864    3.2687    0.0908 C   0  0  0  0  0  0  0  0  0  0  0  0
   -3.5303    4.3070    0.1421 H   0  0  0  0  0  0  0  0  0  0  0  0
   -3.9699    2.1301    0.0930 C   0  0  0  0  0  0  0  0  0  0  0  0
   -5.0628    2.0803    0.1433 H   0  0  0  0  0  0  0  0  0  0  0  0
   -3.0997    0.9768    0.0276 C   0  0  0  0  0  3  0  0  0  0  0  0
   -3.4936   -0.3919    0.0193 C   0  0  0  0  0  0  0  0  0  0  0  0
   -2.5997   -1.5015   -0.0141 C   0  0  0  0  0  0  0  0  0  0  0  0
   -2.7521   -2.9476   -0.0660 C   0  0  0  0  0  0  0  0  0  0  0  0
   -1.4828   -3.5442   -0.0650 C   0  0  0  0  0  0  0  0  0  0  0  0
   -1.2633   -4.6160   -0.1020 H   0  0  0  0  0  0  0  0  0  0  0  0
   -0.5244   -2.4894   -0.0226 C   0  0  0  0  0  0  0  0  0  0  0  0
    0.8962   -2.2917   -0.0118 C   0  0  0  0  0  0  0  0  0  0  0  0
    2.1080   -3.0476    0.0217 C   0  0  0  0  0  0  0  0  0  0  0  0
    3.1861   -2.1380    0.0309 C   0  0  0  0  0  0  0  0  0  0  0  0
    2.6411   -0.7903   -0.0082 C   0  0  2  0  0  3  0  0  0  0  0  0
    4.6835    0.6770   -0.1054 C   0  0  0  0  0  0  0  0  0  0  0  0
    5.3637    0.4916   -1.3230 C   0  0  0  0  0  0  0  0  0  0  0  0
    6.7571    0.6299   -1.4123 C   0  0  0  0  0  0  0  0  0  0  0  0
    7.4917    0.9609   -0.2602 C   0  0  0  0  0  0  0  0  0  0  0  0
    6.8337    1.1644    0.9655 C   0  0  0  0  0  0  0  0  0  0  0  0
    5.4379    1.0269    1.0289 C   0  0  0  0  0  0  0  0  0  0  0  0
   -0.8374    5.1455    0.0152 C   0  0  0  0  0  0  0  0  0  0  0  0
   -1.4647    5.8024   -1.0628 C   0  0  0  0  0  0  0  0  0  0  0  0
   -1.6623    7.1929   -1.0675 C   0  0  0  0  0  0  0  0  0  0  0  0
   -1.2202    7.9582    0.0255 C   0  0  0  0  0  0  0  0  0  0  0  0
   -0.5887    7.3310    1.1134 C   0  0  0  0  0  0  0  0  0  0  0  0
   -0.4075    5.9384    1.0986 C   0  0  0  0  0  0  0  0  0  0  0  0
   -4.9602   -0.6455    0.0890 C   0  0  0  0  0  0  0  0  0  0  0  0
   -5.7825   -0.4893   -1.0414 C   0  0  0  0  0  0  0  0  0  0  0  0
   -7.1627   -0.7398   -0.9826 C   0  0  0  0  0  0  0  0  0  0  0  0
   -7.7392   -1.1433    0.2346 C   0  0  0  0  0  0  0  0  0  0  0  0
   -6.9411   -1.2881    1.3827 C   0  0  0  0  0  0  0  0  0  0  0  0
   -5.5629   -1.0391    1.2979 C   0  0  0  0  0  0  0  0  0  0  0  0
  1 39  1  0  0  0  0
  4 48  1  0  0  0  0
  5 49  1  0  0  0  0
  6 50  1  0  0  0  0
  9 54  1  0  0  0  0
 10 55  1  0  0  0  0
 14 60  1  0  0  0  0
 15 61  1  0  0  0  0
 20 31  2  0  0  0  0
 20 36  1  0  0  0  0
 22 43  1  0  0  0  0
 22 46  1  0  0  0  0
 23 24  2  0  0  0  0
 24 19  1  0  0  0  0
 25 27  2  0  0  0  0
 25 24  1  0  0  0  0
 26 25  1  0  0  0  0
 27 29  1  0  0  0  0
 28 27  1  0  0  0  0
 29 30  2  0  0  0  0
 29 19  1  0  0  0  0
 30 53  1  0  0  0  0
 30 31  1  0  0  0  0
 31 32  1  0  0  0  0
 32 34  2  0  0  0  0
 32 33  1  0  0  0  0
 34 35  1  0  0  0  0
 36 34  1  0  0  0  0
 37 36  1  0  0  0  0
 37 59  1  0  0  0  0
 38 21  1  0  0  0  0
 38 37  2  0  0  0  0
 39 40  2  0  0  0  0
 39 38  1  0  0  0  0
 40 42  1  0  0  0  0
 41 40  1  0  0  0  0
 42 43  2  0  0  0  0
 42 21  1  0  0  0  0
 43 44  1  0  0  0  0
 44 45  2  0  0  0  0
 44  2  1  0  0  0  0
 45  3  1  0  0  0  0
 46 23  1  6  0  0  0
 46 45  1  0  0  0  0
 47 23  1  0  0  0  0
 47 52  1  0  0  0  0
 48 47  2  0  0  0  0
 49 48  1  0  0  0  0
 49 50  2  0  0  0  0
 50 51  1  0  0  0  0
 51 52  2  0  0  0  0
 51  7  1  0  0  0  0
 52  8  1  0  0  0  0
 53 58  1  0  0  0  0
 54 53  2  0  0  0  0
 55 54  1  0  0  0  0
 55 56  2  0  0  0  0
 56 11  1  0  0  0  0
 56 57  1  0  0  0  0
 57 12  1  0  0  0  0
 58 57  2  0  0  0  0
 58 13  1  0  0  0  0
 59 64  1  0  0  0  0
 60 61  1  0  0  0  0
 60 59  2  0  0  0  0
 61 62  2  0  0  0  0
 62 16  1  0  0  0  0
 62 63  1  0  0  0  0
 63 17  1  0  0  0  0
 64 63  2  0  0  0  0
 64 18  1  0  0  0  0
M  END
