1,2,3,4
q = -1.0, confidence = 0.046

 38 38  0  0  0  0  0  0  0  0999 V2000
   -1.4641    0.8371   -0.3761 N   0  0  0  0  0  2  0  0  0  0  0  0
   -1.3786   -1.6597    0.3240 N   0  0  0  0  0  2  0  0  0  0  0  0
    1.5999   -1.4618   -0.2335 N   0  0  0  0  0  2  0  0  0  0  0  0
    1.3787    1.0958    0.1158 N   0  0  0  0  0  2  0  0  0  0  0  0
    1.0563    2.3606   -0.1777 O   0  0  0  0  0  0  0  0  0  0  0  0
   -1.4480    2.1685   -0.3887 O   0  0  0  0  0  0  0  0  0  0  0  0
   -0.2758    2.8129    0.3910 B   0  0  0  0  0  0  0  0  0  0  0  0
   -0.3711    4.1538    0.1534 F   0  0  0  0  0  0  0  0  0  0  0  0
   -0.3911    2.4256    1.7118 F   0  0  0  0  0  0  0  0  0  0  0  0
   -3.9293    0.9763   -0.4439 C   0  0  0  0  0  0  0  0  0  0  0  0
   -2.6408    0.2213   -0.3469 C   0  0  0  0  0  0  0  0  0  0  0  0
   -2.5190   -1.2288   -0.1967 C   0  0  0  0  0  0  0  0  0  0  0  0
   -3.6078   -2.1600   -0.6480 C   0  0  0  0  0  0  0  0  0  0  0  0
   -1.0402   -3.0744    0.3511 C   0  0  0  0  0  0  0  0  0  0  0  0
    0.3763   -3.3220    0.8843 C   0  0  0  0  0  0  0  0  0  0  0  0
    1.5414   -2.8975   -0.0310 C   0  0  0  0  0  0  0  0  0  0  0  0
    4.0910   -1.4094   -0.1264 C   0  0  0  0  0  0  0  0  0  0  0  0
    2.7338   -0.7661   -0.2298 C   0  0  0  0  0  0  0  0  0  0  0  0
    2.5758    0.6783   -0.3081 C   0  0  0  0  0  0  0  0  0  0  0  0
    3.5691    1.6549   -0.8546 C   0  0  0  0  0  0  0  0  0  0  0  0
   -4.7723    0.4259    0.0132 H   0  0  0  0  0  0  0  0  0  0  0  0
   -3.8044    1.9518    0.0658 H   0  0  0  0  0  0  0  0  0  0  0  0
   -4.1919    1.2040   -1.4998 H   0  0  0  0  0  0  0  0  0  0  0  0
   -4.5055   -1.6153   -0.9897 H   0  0  0  0  0  0  0  0  0  0  0  0
   -3.9076   -2.8612    0.1595 H   0  0  0  0  0  0  0  0  0  0  0  0
   -3.2523   -2.7873   -1.4943 H   0  0  0  0  0  0  0  0  0  0  0  0
    4.9016   -0.6677   -0.2343 H   0  0  0  0  0  0  0  0  0  0  0  0
    4.2207   -1.8929    0.8655 H   0  0  0  0  0  0  0  0  0  0  0  0
    4.2376   -2.1971   -0.8942 H   0  0  0  0  0  0  0  0  0  0  0  0
    3.6700    2.5269   -0.1768 H   0  0  0  0  0  0  0  0  0  0  0  0
    3.2058    2.0629   -1.8220 H   0  0  0  0  0  0  0  0  0  0  0  0
    4.5616    1.1997   -1.0217 H   0  0  0  0  0  0  0  0  0  0  0  0
   -1.7648   -3.6119    1.0054 H   0  0  0  0  0  0  0  0  0  0  0  0
   -1.1473   -3.5369   -0.6612 H   0  0  0  0  0  0  0  0  0  0  0  0
    0.4839   -4.4110    1.0730 H   0  0  0  0  0  0  0  0  0  0  0  0
    0.4822   -2.8143    1.8673 H   0  0  0  0  0  0  0  0  0  0  0  0
    1.4055   -3.3893   -1.0245 H   0  0  0  0  0  0  0  0  0  0  0  0
    2.4848   -3.3079    0.3934 H   0  0  0  0  0  0  0  0  0  0  0  0
  1 11  1  0  0  0  0
  2 14  1  0  0  0  0
  3 18  1  0  0  0  0
  3 16  1  0  0  0  0
  5  4  1  0  0  0  0
  5  7  1  0  0  0  0
  6  1  1  0  0  0  0
  6  7  1  0  0  0  0
  7  9  1  0  0  0  0
  8  7  1  0  0  0  0
 10 11  1  0  0  0  0
 10 21  1  0  0  0  0
 10 22  1  0  0  0  0
 11 12  2  0  0  0  0
 12  2  1  0  0  0  0
 13 12  1  0  0  0  0
 13 25  1  0  0  0  0
 14 15  1  0  0  0  0
 14 33  1  0  0  0  0
 15 35  1  0  0  0  0
 15 36  1  0  0  0  0
 16 38  1  0  0  0  0
 16 15  1  0  0  0  0
 17 28  1  0  0  0  0
 18 17  1  0  0  0  0
 19 18  2  0  0  0  0
 19  4  1  0  0  0  0
 20 19  1  0  0  0  0
 20 30  1  0  0  0  0
 23 10  1  0  0  0  0
 24 13  1  0  0  0  0
 26 13  1  0  0  0  0
 27 17  1  0  0  0  0
 29 17  1  0  0  0  0
 31 20  1  0  0  0  0
 32 20  1  0  0  0  0
 34 14  1  0  0  0  0
 37 16  1  0  0  0  0
M  END
