1,2,3,4
q = 0.0, confidence = 1.0

 39 40  0  0  1  0  0  0  0  0999 V2000
   -1.7634    0.7599   -0.0661 N   0  0  0  0  0  2  0  0  0  0  0  0
   -0.6026   -1.1770   -1.6794 N   0  0  0  0  0  0  0  0  0  0  0  0
    1.9193   -1.4108    0.2695 N   0  0  0  0  0  0  0  0  0  0  0  0
    1.4804    1.2729   -0.1584 N   0  0  0  0  0  2  0  0  0  0  0  0
   -2.1950    1.7797    0.7034 C   0  0  0  0  0  3  0  0  0  0  0  0
   -1.5557    2.0398    1.5627 H   0  0  0  0  0  0  0  0  0  0  0  0
   -3.3971    2.4459    0.4439 C   0  0  0  0  0  0  0  0  0  0  0  0
   -3.7235    3.2699    1.0938 H   0  0  0  0  0  0  0  0  0  0  0  0
   -4.1658    2.0321   -0.6555 C   0  0  0  0  0  0  0  0  0  0  0  0
   -5.1117    2.5391   -0.8978 H   0  0  0  0  0  0  0  0  0  0  0  0
   -3.7235    0.9542   -1.4343 C   0  0  0  0  0  0  0  0  0  0  0  0
   -4.3157    0.5915   -2.2875 H   0  0  0  0  0  0  0  0  0  0  0  0
   -2.5146    0.3245   -1.0978 C   0  0  0  0  0  0  0  0  0  0  0  0
   -2.0564   -0.9509   -1.7769 C   0  0  0  0  0  0  0  0  0  0  0  0
   -2.5490   -1.7872   -1.2343 H   0  0  0  0  0  0  0  0  0  0  0  0
   -2.4258   -0.9920   -2.8244 H   0  0  0  0  0  0  0  0  0  0  0  0
   -0.2535   -2.6163   -1.7873 C   0  0  0  0  0  0  0  0  0  0  0  0
   -0.6193   -3.0242   -2.7566 H   0  0  0  0  0  0  0  0  0  0  0  0
   -0.8086   -3.1377   -0.9808 H   0  0  0  0  0  0  0  0  0  0  0  0
    1.2421   -2.9060   -1.6480 C   0  0  0  0  0  0  0  0  0  0  0  0
    1.4026   -3.9499   -1.9866 H   0  0  0  0  0  0  0  0  0  0  0  0
    1.8239   -2.2865   -2.3678 H   0  0  0  0  0  0  0  0  0  0  0  0
    1.8222   -2.8009   -0.2337 C   0  0  0  0  0  0  0  0  0  0  0  0
    1.1626   -3.3435    0.4719 H   0  0  0  0  0  0  0  0  0  0  0  0
    2.8198   -3.2945   -0.2054 H   0  0  0  0  0  0  0  0  0  0  0  0
    3.0162   -0.6245   -0.3038 C   0  0  0  0  0  0  0  0  0  0  0  0
    3.0939   -0.8739   -1.3849 H   0  0  0  0  0  0  0  0  0  0  0  0
    4.0044   -0.8807    0.1378 H   0  0  0  0  0  0  0  0  0  0  0  0
    2.7693    0.8674   -0.1959 C   0  0  1  0  0  3  0  0  0  0  0  0
    3.8275    1.7901   -0.1979 C   0  0  0  0  0  0  0  0  0  0  0  0
    4.8673    1.4314   -0.2141 H   0  0  0  0  0  0  0  0  0  0  0  0
    3.5383    3.1603   -0.1771 C   0  0  0  0  0  0  0  0  0  0  0  0
    4.3523    3.9004   -0.1747 H   0  0  0  0  0  0  0  0  0  0  0  0
    2.1973    3.5724   -0.1531 C   0  0  0  0  0  0  0  0  0  0  0  0
    1.9244    4.6368   -0.1355 H   0  0  0  0  0  0  0  0  0  0  0  0
    1.2008    2.5922   -0.1397 C   0  0  0  0  0  0  0  0  0  0  0  0
    0.1348    2.8658   -0.1107 H   0  0  0  0  0  0  0  0  0  0  0  0
   -0.1347   -0.6631   -2.4407 H   0  0  0  0  0  0  0  0  0  0  0  0
    2.0272   -1.4337    1.2940 H   0  0  0  0  0  0  0  0  0  0  0  0
  1  5  1  0  0  0  0
  3 39  1  0  0  0  0
  4 36  1  0  0  0  0
  5  6  1  0  0  0  0
  7  5  1  0  0  0  0
  7  8  1  0  0  0  0
  9  7  2  0  0  0  0
 10  9  1  0  0  0  0
 11 13  2  0  0  0  0
 11  9  1  0  0  0  0
 12 11  1  0  0  0  0
 13  1  1  0  0  0  0
 14  2  1  0  0  0  0
 14 15  1  0  0  0  0
 14 13  1  0  0  0  0
 16 14  1  0  0  0  0
 17  2  1  0  0  0  0
 17 20  1  0  0  0  0
 17 19  1  0  0  0  0
 18 17  1  0  0  0  0
 20 23  1  0  0  0  0
 21 20  1  0  0  0  0
 22 20  1  0  0  0  0
 23 25  1  0  0  0  0
 23  3  1  0  0  0  0
 23 24  1  0  0  0  0
 26 28  1  0  0  0  0
 26  3  1  0  0  0  0
 27 26  1  0  0  0  0
 29 26  1  6  0  0  0
 29  4  1  0  0  0  0
 30 29  1  0  0  0  0
 30 32  2  0  0  0  0
 31 30  1  0  0  0  0
 32 33  1  0  0  0  0
 32 34  1  0  0  0  0
 34 36  2  0  0  0  0
 34 35  1  0  0  0  0
 36 37  1  0  0  0  0
 38  2  1  0  0  0  0
M  END
