3,4,5,6
q = -2.0, confidence = 0.964

 42 44  0  0  1  0  0  0  0  0999 V2000
   -4.5450    1.0504   -2.0068 O   0  0  0  0  0  0  0  0  0  0  0  0
    1.1651    1.2117    2.3205 O   0  0  0  0  0  0  0  0  0  0  0  0
   -3.1539   -2.0301   -0.7691 N   0  0  0  0  0  2  0  0  0  0  0  0
   -2.9570    0.6010   -0.3479 N   0  0  0  0  0  2  0  0  0  0  0  0
   -0.8421    0.6578    1.2514 N   0  0  0  0  0  2  0  0  0  0  0  0
   -0.3020   -1.9555    1.4408 N   0  0  0  0  0  2  0  0  0  0  0  0
   -3.1912   -3.3612   -0.9575 C   0  0  0  0  0  3  0  0  0  0  0  0
   -2.5356   -3.9663   -0.3139 H   0  0  0  0  0  0  0  0  0  0  0  0
   -4.0158   -3.9525   -1.9219 C   0  0  0  0  0  0  0  0  0  0  0  0
   -4.0179   -5.0449   -2.0412 H   0  0  0  0  0  0  0  0  0  0  0  0
   -4.8213   -3.1241   -2.7202 C   0  0  0  0  0  0  0  0  0  0  0  0
   -5.4764   -3.5588   -3.4901 H   0  0  0  0  0  0  0  0  0  0  0  0
   -4.7759   -1.7399   -2.5241 C   0  0  0  0  0  0  0  0  0  0  0  0
   -5.3686   -1.0213   -3.1084 H   0  0  0  0  0  0  0  0  0  0  0  0
   -3.9294   -1.2164   -1.5364 C   0  0  0  0  0  0  0  0  0  0  0  0
   -3.8543    0.2828   -1.3260 C   0  0  0  0  0  0  0  0  0  0  0  0
   -2.5299    1.8809    0.0533 C   0  0  0  0  0  0  0  0  0  0  0  0
   -3.1109    3.0933   -0.3654 C   0  0  0  0  0  0  0  0  0  0  0  0
   -3.9743    3.0475   -1.0412 H   0  0  0  0  0  0  0  0  0  0  0  0
   -2.5882    4.3294    0.0542 C   0  0  0  0  0  0  0  0  0  0  0  0
   -1.4526    4.3593    0.9107 C   0  0  0  0  0  0  0  0  0  0  0  0
   -0.8655    3.1523    1.3293 C   0  0  0  0  0  0  0  0  0  0  0  0
    0.0239    3.1519    1.9717 H   0  0  0  0  0  0  0  0  0  0  0  0
   -1.3877    1.9119    0.9179 C   0  0  0  0  0  0  0  0  0  0  0  0
    0.3501    0.3999    1.8687 C   0  0  0  0  0  0  0  0  0  0  0  0
    0.6260   -1.0897    1.9333 C   0  0  2  0  0  3  0  0  0  0  0  0
    1.8415   -1.5466    2.4648 C   0  0  0  0  0  0  0  0  0  0  0  0
    2.5441   -0.7865    2.8352 H   0  0  0  0  0  0  0  0  0  0  0  0
    2.1076   -2.9184    2.4754 C   0  0  0  0  0  0  0  0  0  0  0  0
    3.0593   -3.3006    2.8739 H   0  0  0  0  0  0  0  0  0  0  0  0
    1.1444   -3.8027    1.9602 C   0  0  0  0  0  0  0  0  0  0  0  0
    1.3103   -4.8890    1.9475 H   0  0  0  0  0  0  0  0  0  0  0  0
   -0.0495   -3.2775    1.4525 C   0  0  0  0  0  0  0  0  0  0  0  0
   -0.8316   -3.9298    1.0364 H   0  0  0  0  0  0  0  0  0  0  0  0
   -3.2295    5.6120   -0.4086 C   0  0  0  0  0  0  0  0  0  0  0  0
   -4.0942    5.4153   -1.0703 H   0  0  0  0  0  0  0  0  0  0  0  0
   -2.5116    6.2512   -0.9659 H   0  0  0  0  0  0  0  0  0  0  0  0
   -3.5867    6.2233    0.4478 H   0  0  0  0  0  0  0  0  0  0  0  0
   -0.8730    5.6734    1.3660 C   0  0  0  0  0  0  0  0  0  0  0  0
    0.0072    5.5216    2.0189 H   0  0  0  0  0  0  0  0  0  0  0  0
   -1.6170    6.2762    1.9297 H   0  0  0  0  0  0  0  0  0  0  0  0
   -0.5551    6.3007    0.5058 H   0  0  0  0  0  0  0  0  0  0  0  0
  1 16  2  0  0  0  0
  4 17  1  0  0  0  0
  5 25  1  0  0  0  0
  6 33  1  0  0  0  0
  6 26  1  0  0  0  0
  7  3  1  0  0  0  0
  7  8  1  0  0  0  0
  9  7  1  0  0  0  0
 10  9  1  0  0  0  0
 11 13  1  0  0  0  0
 11  9  2  0  0  0  0
 12 11  1  0  0  0  0
 13 15  2  0  0  0  0
 14 13  1  0  0  0  0
 15 16  1  0  0  0  0
 15  3  1  0  0  0  0
 16  4  1  0  0  0  0
 17 24  1  0  0  0  0
 18 17  2  0  0  0  0
 18 20  1  0  0  0  0
 19 18  1  0  0  0  0
 20 21  2  0  0  0  0
 21 22  1  0  0  0  0
 21 39  1  0  0  0  0
 22 23  1  0  0  0  0
 24  5  1  0  0  0  0
 24 22  2  0  0  0  0
 25  2  2  0  0  0  0
 26 25  1  6  0  0  0
 26 27  1  0  0  0  0
 27 29  2  0  0  0  0
 27 28  1  0  0  0  0
 29 30  1  0  0  0  0
 31 29  1  0  0  0  0
 32 31  1  0  0  0  0
 33 31  2  0  0  0  0
 34 33  1  0  0  0  0
 35 20  1  0  0  0  0
 35 38  1  0  0  0  0
 36 35  1  0  0  0  0
 37 35  1  0  0  0  0
 39 41  1  0  0  0  0
 39 40  1  0  0  0  0
 42 39  1  0  0  0  0
M  END
