3,6,37,40
q = -2.0, confidence = 0.644

 68 72  0  0  1  0  0  0  0  0999 V2000
    0.4750   -4.2947   -0.0147 S   0  0  0  0  0  0  0  0  0  0  0  0
   -2.7949   -0.4762    0.0225 C   0  0  2  0  0  3  0  0  0  0  0  0
   -1.5587   -0.9792    0.0560 N   0  0  0  0  0  2  0  0  0  0  0  0
   -1.3912   -2.3468    0.0303 N   0  0  0  0  0  0  0  0  0  0  0  0
   -0.1085   -2.6443    0.0193 C   0  0  0  0  0  0  0  0  0  0  0  0
    0.8202   -1.6091    0.0265 N   0  0  0  0  0  2  0  0  0  0  0  0
    2.0956   -1.9192   -0.0210 N   0  0  0  0  0  2  0  0  0  0  0  0
    3.0288   -0.9753   -0.0571 C   0  0  0  0  0  0  0  0  0  0  0  0
   -1.1256   -5.1641    0.0035 C   0  0  0  0  0  0  0  0  0  0  0  0
   -1.6733   -4.9595    0.9420 H   0  0  0  0  0  0  0  0  0  0  0  0
   -0.8809   -6.2406   -0.0700 H   0  0  0  0  0  0  0  0  0  0  0  0
   -1.7485   -4.8490   -0.8539 H   0  0  0  0  0  0  0  0  0  0  0  0
   -3.9545   -1.4033   -0.1064 C   0  0  0  0  0  0  0  0  0  0  0  0
   -4.8471   -1.2564   -1.1883 C   0  0  0  0  0  0  0  0  0  0  0  0
   -4.6787   -0.4560   -1.9234 H   0  0  0  0  0  0  0  0  0  0  0  0
   -5.9436   -2.1183   -1.3260 C   0  0  0  0  0  0  0  0  0  0  0  0
   -6.6292   -1.9949   -2.1777 H   0  0  0  0  0  0  0  0  0  0  0  0
   -6.1710   -3.1265   -0.3766 C   0  0  0  0  0  0  0  0  0  0  0  0
   -7.0386   -3.7961   -0.4786 H   0  0  0  0  0  0  0  0  0  0  0  0
   -5.2876   -3.2771    0.7055 C   0  0  0  0  0  0  0  0  0  0  0  0
   -5.4620   -4.0649    1.4542 H   0  0  0  0  0  0  0  0  0  0  0  0
   -4.1801   -2.4298    0.8356 C   0  0  0  0  0  0  0  0  0  0  0  0
   -3.4844   -2.5505    1.6772 H   0  0  0  0  0  0  0  0  0  0  0  0
    4.4161   -1.5224   -0.1380 C   0  0  0  0  0  0  0  0  0  0  0  0
    4.7543   -2.6482    0.6457 C   0  0  0  0  0  0  0  0  0  0  0  0
    3.9904   -3.0721    1.3138 H   0  0  0  0  0  0  0  0  0  0  0  0
    6.0323   -3.2168    0.5713 C   0  0  0  0  0  0  0  0  0  0  0  0
    6.2784   -4.0883    1.1972 H   0  0  0  0  0  0  0  0  0  0  0  0
    6.9969   -2.6763   -0.2945 C   0  0  0  0  0  0  0  0  0  0  0  0
    8.0029   -3.1194   -0.3506 H   0  0  0  0  0  0  0  0  0  0  0  0
    6.6660   -1.5703   -1.0933 C   0  0  0  0  0  0  0  0  0  0  0  0
    7.4082   -1.1488   -1.7881 H   0  0  0  0  0  0  0  0  0  0  0  0
    5.3888   -0.9987   -1.0181 C   0  0  0  0  0  0  0  0  0  0  0  0
    5.1419   -0.1405   -1.6582 H   0  0  0  0  0  0  0  0  0  0  0  0
   -0.4750    4.2947    0.0147 S   0  0  0  0  0  0  0  0  0  0  0  0
    2.7950    0.4762   -0.0225 C   0  0  0  0  0  0  0  0  0  0  0  0
    1.5587    0.9792   -0.0560 N   0  0  0  0  0  2  0  0  0  0  0  0
    1.3912    2.3468   -0.0303 N   0  0  0  0  0  0  0  0  0  0  0  0
    0.1085    2.6443   -0.0192 C   0  0  0  0  0  0  0  0  0  0  0  0
   -0.8201    1.6091   -0.0265 N   0  0  0  0  0  2  0  0  0  0  0  0
   -2.0956    1.9192    0.0210 N   0  0  0  0  0  0  0  0  0  0  0  0
   -3.0288    0.9753    0.0571 C   0  0  0  0  0  0  0  0  0  0  0  0
    1.1256    5.1642   -0.0034 C   0  0  0  0  0  0  0  0  0  0  0  0
    1.6733    4.9596   -0.9419 H   0  0  0  0  0  0  0  0  0  0  0  0
    0.8810    6.2406    0.0701 H   0  0  0  0  0  0  0  0  0  0  0  0
    1.7485    4.8490    0.8540 H   0  0  0  0  0  0  0  0  0  0  0  0
    3.9545    1.4034    0.1064 C   0  0  0  0  0  0  0  0  0  0  0  0
    4.8470    1.2566    1.1884 C   0  0  0  0  0  0  0  0  0  0  0  0
    4.6786    0.4561    1.9235 H   0  0  0  0  0  0  0  0  0  0  0  0
    5.9434    2.1185    1.3262 C   0  0  0  0  0  0  0  0  0  0  0  0
    6.6290    1.9952    2.1780 H   0  0  0  0  0  0  0  0  0  0  0  0
    6.1709    3.1266    0.3769 C   0  0  0  0  0  0  0  0  0  0  0  0
    7.0384    3.7963    0.4789 H   0  0  0  0  0  0  0  0  0  0  0  0
    5.2876    3.2772   -0.7053 C   0  0  0  0  0  0  0  0  0  0  0  0
    5.4620    4.0650   -1.4541 H   0  0  0  0  0  0  0  0  0  0  0  0
    4.1801    2.4298   -0.8355 C   0  0  0  0  0  0  0  0  0  0  0  0
    3.4845    2.5505   -1.6772 H   0  0  0  0  0  0  0  0  0  0  0  0
   -4.4160    1.5224    0.1379 C   0  0  0  0  0  0  0  0  0  0  0  0
   -4.7542    2.6482   -0.6458 C   0  0  0  0  0  0  0  0  0  0  0  0
   -3.9903    3.0723   -1.3137 H   0  0  0  0  0  0  0  0  0  0  0  0
   -6.0323    3.2167   -0.5714 C   0  0  0  0  0  0  0  0  0  0  0  0
   -6.2784    4.0883   -1.1973 H   0  0  0  0  0  0  0  0  0  0  0  0
   -6.9970    2.6761    0.2942 C   0  0  0  0  0  0  0  0  0  0  0  0
   -8.0030    3.1191    0.3502 H   0  0  0  0  0  0  0  0  0  0  0  0
   -6.6661    1.5700    1.0929 C   0  0  0  0  0  0  0  0  0  0  0  0
   -7.4084    1.1483    1.7876 H   0  0  0  0  0  0  0  0  0  0  0  0
   -5.3889    0.9985    1.0178 C   0  0  0  0  0  0  0  0  0  0  0  0
   -5.1420    0.1402    1.6578 H   0  0  0  0  0  0  0  0  0  0  0  0
  1  9  1  0  0  0  0
  1  5  1  0  0  0  0
  2 13  1  6  0  0  0
  2  3  1  0  0  0  0
  2 42  1  0  0  0  0
  4  3  1  0  0  0  0
  5  6  1  0  0  0  0
  5  4  2  0  0  0  0
  7  6  1  0  0  0  0
  8 36  2  0  0  0  0
  8  7  1  0  0  0  0
  9 10  1  0  0  0  0
 11  9  1  0  0  0  0
 12  9  1  0  0  0  0
 13 22  1  0  0  0  0
 14 13  2  0  0  0  0
 15 14  1  0  0  0  0
 16 14  1  0  0  0  0
 16 18  2  0  0  0  0
 17 16  1  0  0  0  0
 18 20  1  0  0  0  0
 19 18  1  0  0  0  0
 20 22  2  0  0  0  0
 20 21  1  0  0  0  0
 22 23  1  0  0  0  0
 24  8  1  0  0  0  0
 24 25  1  0  0  0  0
 25 26  1  0  0  0  0
 27 25  2  0  0  0  0
 27 28  1  0  0  0  0
 29 27  1  0  0  0  0
 30 29  1  0  0  0  0
 31 33  1  0  0  0  0
 31 29  2  0  0  0  0
 32 31  1  0  0  0  0
 33 24  2  0  0  0  0
 34 33  1  0  0  0  0
 36 47  1  0  0  0  0
 37 38  1  0  0  0  0
 37 36  1  0  0  0  0
 38 39  2  0  0  0  0
 39 35  1  0  0  0  0
 40 39  1  0  0  0  0
 40 41  1  0  0  0  0
 41 42  2  0  0  0  0
 42 58  1  0  0  0  0
 43 35  1  0  0  0  0
 43 45  1  0  0  0  0
 43 46  1  0  0  0  0
 44 43  1  0  0  0  0
 47 48  1  0  0  0  0
 48 50  2  0  0  0  0
 48 49  1  0  0  0  0
 50 51  1  0  0  0  0
 52 53  1  0  0  0  0
 52 50  1  0  0  0  0
 54 52  2  0  0  0  0
 55 54  1  0  0  0  0
 56 54  1  0  0  0  0
 56 47  2  0  0  0  0
 57 56  1  0  0  0  0
 58 67  1  0  0  0  0
 59 61  1  0  0  0  0
 59 58  2  0  0  0  0
 60 59  1  0  0  0  0
 61 63  2  0  0  0  0
 62 61  1  0  0  0  0
 63 64  1  0  0  0  0
 63 65  1  0  0  0  0
 65 66  1  0  0  0  0
 67 65  2  0  0  0  0
 67 68  1  0  0  0  0
M  END
