4,7,14,17
q = -2.0, confidence = 0.792

 64 67  0  0  1  0  0  0  0  0999 V2000
    0.1616    4.6506    0.5112 S   0  0  0  0  0  0  0  0  0  0  0  0
   -0.8228   -3.9333    0.5290 S   0  0  0  0  0  0  0  0  0  0  0  0
    2.3198    0.1810   -0.0406 C   0  0  1  0  0  3  0  0  0  0  0  0
    1.2237    0.9497    0.0577 N   0  0  0  0  0  2  0  0  0  0  0  0
    1.3997    2.2898    0.1614 N   0  0  0  0  0  0  0  0  0  0  0  0
    0.2365    2.9110    0.2503 C   0  0  0  0  0  0  0  0  0  0  0  0
   -0.9315    2.2138    0.1190 N   0  0  0  0  0  2  0  0  0  0  0  0
   -2.0388    2.9479    0.4047 N   0  0  0  0  0  0  0  0  0  0  0  0
   -3.1726    2.6389   -0.1381 C   0  0  0  0  0  0  0  0  0  0  0  0
   -3.2833    1.5443   -1.1809 C   0  0  0  0  0  0  0  0  0  0  0  0
   -4.1605    1.7497   -1.8208 H   0  0  0  0  0  0  0  0  0  0  0  0
   -2.3628    1.5675   -1.8010 H   0  0  0  0  0  0  0  0  0  0  0  0
   -3.4165    0.1788   -0.5642 C   0  0  1  0  0  3  0  0  0  0  0  0
   -2.2927   -0.4152   -0.2067 N   0  0  0  0  0  2  0  0  0  0  0  0
   -2.3560   -1.7522    0.1290 N   0  0  0  0  0  2  0  0  0  0  0  0
   -1.1403   -2.2341    0.2401 C   0  0  2  0  0  3  0  0  0  0  0  0
   -0.0530   -1.3884    0.0870 N   0  0  0  0  0  2  0  0  0  0  0  0
    1.1246   -1.9713    0.1166 N   0  0  0  0  0  0  0  0  0  0  0  0
    2.2460   -1.2708    0.0301 C   0  0  0  0  0  0  0  0  0  0  0  0
    1.9446    5.0151    0.6146 C   0  0  0  0  0  0  0  0  0  0  0  0
    2.3971    4.5292    1.4990 H   0  0  0  0  0  0  0  0  0  0  0  0
    2.0162    6.1154    0.7098 H   0  0  0  0  0  0  0  0  0  0  0  0
    2.4710    4.6714   -0.2947 H   0  0  0  0  0  0  0  0  0  0  0  0
   -2.5424   -4.5307    0.6254 C   0  0  0  0  0  0  0  0  0  0  0  0
   -2.4687   -5.6278    0.7487 H   0  0  0  0  0  0  0  0  0  0  0  0
   -3.0961   -4.2823   -0.2987 H   0  0  0  0  0  0  0  0  0  0  0  0
   -3.0662   -4.0873    1.4926 H   0  0  0  0  0  0  0  0  0  0  0  0
    3.6469    0.8352   -0.2375 C   0  0  0  0  0  0  0  0  0  0  0  0
    4.1749    1.7477    0.7005 C   0  0  0  0  0  0  0  0  0  0  0  0
    3.5890    1.9984    1.5949 H   0  0  0  0  0  0  0  0  0  0  0  0
    5.4383    2.3184    0.4991 C   0  0  0  0  0  0  0  0  0  0  0  0
    5.8445    3.0192    1.2446 H   0  0  0  0  0  0  0  0  0  0  0  0
    6.1841    2.0024   -0.6492 C   0  0  0  0  0  0  0  0  0  0  0  0
    7.1748    2.4553   -0.8068 H   0  0  0  0  0  0  0  0  0  0  0  0
    5.6600    1.1062   -1.5929 C   0  0  0  0  0  0  0  0  0  0  0  0
    6.2362    0.8530   -2.4957 H   0  0  0  0  0  0  0  0  0  0  0  0
    4.4027    0.5214   -1.3855 C   0  0  0  0  0  0  0  0  0  0  0  0
    3.9995   -0.1945   -2.1169 H   0  0  0  0  0  0  0  0  0  0  0  0
   -4.3994    3.3988    0.2634 C   0  0  0  0  0  0  0  0  0  0  0  0
   -4.1369    4.1789    1.0014 H   0  0  0  0  0  0  0  0  0  0  0  0
   -5.1554    2.7176    0.7116 H   0  0  0  0  0  0  0  0  0  0  0  0
   -4.8831    3.8726   -0.6180 H   0  0  0  0  0  0  0  0  0  0  0  0
   -4.7587   -0.4131   -0.3776 C   0  0  0  0  0  0  0  0  0  0  0  0
   -5.0813   -1.1426    0.7938 C   0  0  0  0  0  0  0  0  0  0  0  0
   -4.3058   -1.3023    1.5533 H   0  0  0  0  0  0  0  0  0  0  0  0
   -6.3729   -1.6425    0.9883 C   0  0  0  0  0  0  0  0  0  0  0  0
   -6.6082   -2.1922    1.9123 H   0  0  0  0  0  0  0  0  0  0  0  0
   -7.3666   -1.4474    0.0136 C   0  0  0  0  0  0  0  0  0  0  0  0
   -8.3792   -1.8504    0.1665 H   0  0  0  0  0  0  0  0  0  0  0  0
   -7.0607   -0.7326   -1.1542 C   0  0  0  0  0  0  0  0  0  0  0  0
   -7.8292   -0.5784   -1.9265 H   0  0  0  0  0  0  0  0  0  0  0  0
   -5.7740   -0.2107   -1.3423 C   0  0  0  0  0  0  0  0  0  0  0  0
   -5.5486    0.3372   -2.2692 H   0  0  0  0  0  0  0  0  0  0  0  0
    3.4732   -2.1225    0.0403 C   0  0  0  0  0  0  0  0  0  0  0  0
    4.6140   -1.8164    0.8149 C   0  0  0  0  0  0  0  0  0  0  0  0
    4.6316   -0.9038    1.4259 H   0  0  0  0  0  0  0  0  0  0  0  0
    5.7233   -2.6724    0.8229 C   0  0  0  0  0  0  0  0  0  0  0  0
    6.6007   -2.4157    1.4360 H   0  0  0  0  0  0  0  0  0  0  0  0
    5.7165   -3.8521    0.0617 C   0  0  0  0  0  0  0  0  0  0  0  0
    6.5920   -4.5193    0.0649 H   0  0  0  0  0  0  0  0  0  0  0  0
    4.5812   -4.1766   -0.6981 C   0  0  0  0  0  0  0  0  0  0  0  0
    4.5611   -5.1023   -1.2936 H   0  0  0  0  0  0  0  0  0  0  0  0
    3.4707   -3.3226   -0.7057 C   0  0  0  0  0  0  0  0  0  0  0  0
    2.5744   -3.5750   -1.2909 H   0  0  0  0  0  0  0  0  0  0  0  0
  1 20  1  0  0  0  0
  2 24  1  0  0  0  0
  3 28  1  6  0  0  0
  3 19  1  0  0  0  0
  3  4  1  0  0  0  0
  4  5  1  0  0  0  0
  5  6  2  0  0  0  0
  6  1  1  0  0  0  0
  7  6  1  0  0  0  0
  7  8  1  0  0  0  0
  9 39  1  0  0  0  0
  9  8  2  0  0  0  0
 10 13  1  0  0  0  0
 10  9  1  0  0  0  0
 11 10  1  0  0  0  0
 12 10  1  0  0  0  0
 13 43  1  1  0  0  0
 13 14  1  0  0  0  0
 14 15  1  0  0  0  0
 15 16  1  0  0  0  0
 16  2  1  6  0  0  0
 17 18  1  0  0  0  0
 17 16  1  0  0  0  0
 19 54  1  0  0  0  0
 19 18  2  0  0  0  0
 20 22  1  0  0  0  0
 20 21  1  0  0  0  0
 23 20  1  0  0  0  0
 24 25  1  0  0  0  0
 24 27  1  0  0  0  0
 26 24  1  0  0  0  0
 28 29  1  0  0  0  0
 29 30  1  0  0  0  0
 31 29  2  0  0  0  0
 31 32  1  0  0  0  0
 33 31  1  0  0  0  0
 34 33  1  0  0  0  0
 35 37  1  0  0  0  0
 35 33  2  0  0  0  0
 36 35  1  0  0  0  0
 37 28  2  0  0  0  0
 38 37  1  0  0  0  0
 39 41  1  0  0  0  0
 39 40  1  0  0  0  0
 42 39  1  0  0  0  0
 43 44  1  0  0  0  0
 44 46  2  0  0  0  0
 44 45  1  0  0  0  0
 46 47  1  0  0  0  0
 48 49  1  0  0  0  0
 48 46  1  0  0  0  0
 50 48  2  0  0  0  0
 51 50  1  0  0  0  0
 52 50  1  0  0  0  0
 52 43  2  0  0  0  0
 53 52  1  0  0  0  0
 54 55  1  0  0  0  0
 55 57  2  0  0  0  0
 55 56  1  0  0  0  0
 57 58  1  0  0  0  0
 59 60  1  0  0  0  0
 59 57  1  0  0  0  0
 61 59  2  0  0  0  0
 62 61  1  0  0  0  0
 63 61  1  0  0  0  0
 63 54  2  0  0  0  0
 64 63  1  0  0  0  0
M  END
