1,2,4,6
q = 0.0, confidence = 0.998

 55 54  0  0  0  0  0  0  0  0999 V2000
    0.1283   -0.0991    2.1549 N   0  0  0  0  0  0  0  0  0  0  0  0
    0.7221    1.9870    0.1912 N   0  0  0  0  0  0  0  0  0  0  0  0
   -0.1440    2.5428    0.2566 H   0  0  0  0  0  0  0  0  0  0  0  0
   -1.9849   -0.2600    0.1087 N   0  0  0  0  0  0  0  0  0  0  0  0
   -2.1927   -1.2595   -0.0427 H   0  0  0  0  0  0  0  0  0  0  0  0
    1.4165   -1.6187   -0.0135 N   0  0  0  0  0  0  0  0  0  0  0  0
    2.3604   -1.2051   -0.0490 H   0  0  0  0  0  0  0  0  0  0  0  0
    0.4517    1.2729    2.5590 C   0  0  0  0  0  0  0  0  0  0  0  0
    0.9394    1.3165    3.5622 H   0  0  0  0  0  0  0  0  0  0  0  0
   -0.4989    1.8368    2.6606 H   0  0  0  0  0  0  0  0  0  0  0  0
    1.3403    1.9843    1.5341 C   0  0  0  0  0  0  0  0  0  0  0  0
    1.5569    3.0181    1.8921 H   0  0  0  0  0  0  0  0  0  0  0  0
    2.3199    1.4702    1.4604 H   0  0  0  0  0  0  0  0  0  0  0  0
    1.5556    2.6344   -0.8640 C   0  0  0  0  0  0  0  0  0  0  0  0
    1.9501    3.5985   -0.4609 H   0  0  0  0  0  0  0  0  0  0  0  0
    2.7375    1.7471   -1.2471 C   0  0  0  0  0  0  0  0  0  0  0  0
    3.3553    2.2432   -2.0204 H   0  0  0  0  0  0  0  0  0  0  0  0
    2.3665    0.7866   -1.6600 H   0  0  0  0  0  0  0  0  0  0  0  0
    3.4043    1.5312   -0.3886 H   0  0  0  0  0  0  0  0  0  0  0  0
    0.6691    2.9392   -2.0683 C   0  0  0  0  0  0  0  0  0  0  0  0
    1.2441    3.4631   -2.8554 H   0  0  0  0  0  0  0  0  0  0  0  0
   -0.1868    3.5900   -1.7927 H   0  0  0  0  0  0  0  0  0  0  0  0
    0.2670    1.9999   -2.5010 H   0  0  0  0  0  0  0  0  0  0  0  0
   -1.2349   -0.5351    2.4706 C   0  0  0  0  0  0  0  0  0  0  0  0
   -1.5245   -0.2985    3.5234 H   0  0  0  0  0  0  0  0  0  0  0  0
   -1.2712   -1.6411    2.3864 H   0  0  0  0  0  0  0  0  0  0  0  0
   -2.2765    0.0660    1.5190 C   0  0  0  0  0  0  0  0  0  0  0  0
   -3.2867   -0.2728    1.8406 H   0  0  0  0  0  0  0  0  0  0  0  0
   -2.2815    1.1734    1.6082 H   0  0  0  0  0  0  0  0  0  0  0  0
   -2.7730    0.5147   -0.8923 C   0  0  0  0  0  0  0  0  0  0  0  0
   -2.5118    1.5819   -0.7087 H   0  0  0  0  0  0  0  0  0  0  0  0
   -2.2877    0.1334   -2.2891 C   0  0  0  0  0  0  0  0  0  0  0  0
   -2.7415    0.7824   -3.0625 H   0  0  0  0  0  0  0  0  0  0  0  0
   -2.5570   -0.9159   -2.5330 H   0  0  0  0  0  0  0  0  0  0  0  0
   -1.1818    0.2266   -2.3441 H   0  0  0  0  0  0  0  0  0  0  0  0
   -4.2878    0.3444   -0.7461 C   0  0  0  0  0  0  0  0  0  0  0  0
   -4.6604    0.6853    0.2396 H   0  0  0  0  0  0  0  0  0  0  0  0
   -4.5795   -0.7192   -0.8789 H   0  0  0  0  0  0  0  0  0  0  0  0
   -4.8200    0.9325   -1.5190 H   0  0  0  0  0  0  0  0  0  0  0  0
    1.1823   -1.0856    2.4126 C   0  0  0  0  0  0  0  0  0  0  0  0
    1.0829   -1.5625    3.4178 H   0  0  0  0  0  0  0  0  0  0  0  0
    2.1549   -0.5504    2.4246 H   0  0  0  0  0  0  0  0  0  0  0  0
    1.2331   -2.1810    1.3429 C   0  0  0  0  0  0  0  0  0  0  0  0
    2.0393   -2.9064    1.6008 H   0  0  0  0  0  0  0  0  0  0  0  0
    0.2861   -2.7567    1.3481 H   0  0  0  0  0  0  0  0  0  0  0  0
    1.3585   -2.6350   -1.1068 C   0  0  0  0  0  0  0  0  0  0  0  0
    1.9985   -3.5026   -0.8152 H   0  0  0  0  0  0  0  0  0  0  0  0
   -0.0691   -3.1333   -1.3201 C   0  0  0  0  0  0  0  0  0  0  0  0
   -0.7149   -2.2917   -1.6432 H   0  0  0  0  0  0  0  0  0  0  0  0
   -0.5053   -3.5894   -0.4092 H   0  0  0  0  0  0  0  0  0  0  0  0
   -0.0883   -3.9081   -2.1107 H   0  0  0  0  0  0  0  0  0  0  0  0
    1.9247   -2.0183   -2.3827 C   0  0  0  0  0  0  0  0  0  0  0  0
    2.9658   -1.6615   -2.2417 H   0  0  0  0  0  0  0  0  0  0  0  0
    1.3006   -1.1566   -2.7003 H   0  0  0  0  0  0  0  0  0  0  0  0
    1.9349   -2.7596   -3.2044 H   0  0  0  0  0  0  0  0  0  0  0  0
  1 40  1  0  0  0  0
  1 24  1  0  0  0  0
  1  8  1  0  0  0  0
  2  3  1  0  0  0  0
  2 11  1  0  0  0  0
  4 27  1  0  0  0  0
  5  4  1  0  0  0  0
  6 43  1  0  0  0  0
  7  6  1  0  0  0  0
  8 10  1  0  0  0  0
  8  9  1  0  0  0  0
 11 12  1  0  0  0  0
 11  8  1  0  0  0  0
 13 11  1  0  0  0  0
 14 15  1  0  0  0  0
 14  2  1  0  0  0  0
 16 14  1  0  0  0  0
 16 19  1  0  0  0  0
 17 16  1  0  0  0  0
 18 16  1  0  0  0  0
 20 22  1  0  0  0  0
 20 14  1  0  0  0  0
 21 20  1  0  0  0  0
 23 20  1  0  0  0  0
 24 25  1  0  0  0  0
 26 24  1  0  0  0  0
 27 29  1  0  0  0  0
 27 28  1  0  0  0  0
 27 24  1  0  0  0  0
 30 36  1  0  0  0  0
 30 31  1  0  0  0  0
 30  4  1  0  0  0  0
 32 30  1  0  0  0  0
 33 32  1  0  0  0  0
 34 32  1  0  0  0  0
 35 32  1  0  0  0  0
 36 37  1  0  0  0  0
 38 36  1  0  0  0  0
 39 36  1  0  0  0  0
 40 42  1  0  0  0  0
 40 41  1  0  0  0  0
 43 45  1  0  0  0  0
 43 44  1  0  0  0  0
 43 40  1  0  0  0  0
 46 47  1  0  0  0  0
 46  6  1  0  0  0  0
 48 46  1  0  0  0  0
 48 50  1  0  0  0  0
 49 48  1  0  0  0  0
 51 48  1  0  0  0  0
 52 53  1  0  0  0  0
 52 46  1  0  0  0  0
 54 52  1  0  0  0  0
 55 52  1  0  0  0  0
M  END
