51,53,55,57
q = 0.0, confidence = 0.97

 60 64  0  0  1  0  0  0  0  0999 V2000
   -3.3723    0.3315   -0.3269 C   0  0  2  0  0  0  0  0  0  0  0  0
   -4.4757    0.2530   -0.3173 H   0  0  0  0  0  0  0  0  0  0  0  0
    3.3730    0.3300    0.3240 C   0  0  2  0  0  0  0  0  0  0  0  0
    4.4763    0.2511    0.3116 H   0  0  0  0  0  0  0  0  0  0  0  0
   -3.8988    2.7300   -0.9261 C   0  0  0  0  0  3  0  0  0  0  0  0
   -4.9704    2.6332   -0.7184 H   0  0  0  0  0  0  0  0  0  0  0  0
   -3.1348    3.8049   -1.3654 C   0  0  0  0  0  0  0  0  0  0  0  0
   -3.4860    4.8146   -1.5999 H   0  0  0  0  0  0  0  0  0  0  0  0
   -1.8157    3.2964   -1.4505 C   0  0  0  0  0  0  0  0  0  0  0  0
   -0.8949    3.8086   -1.7555 H   0  0  0  0  0  0  0  0  0  0  0  0
   -3.7422   -0.2596    2.1055 C   0  0  0  0  0  3  0  0  0  0  0  0
   -4.8277   -0.3543    1.9922 H   0  0  0  0  0  0  0  0  0  0  0  0
   -2.9047   -0.4512    3.2005 C   0  0  0  0  0  0  0  0  0  0  0  0
   -3.1962   -0.7374    4.2157 H   0  0  0  0  0  0  0  0  0  0  0  0
   -1.6062   -0.1868    2.7083 C   0  0  0  0  0  0  0  0  0  0  0  0
   -0.6437   -0.2134    3.2324 H   0  0  0  0  0  0  0  0  0  0  0  0
    3.9023    2.7282    0.9219 C   0  0  0  0  0  3  0  0  0  0  0  0
    4.9736    2.6303    0.7130 H   0  0  0  0  0  0  0  0  0  0  0  0
    3.1399    3.8039    1.3618 C   0  0  0  0  0  0  0  0  0  0  0  0
    3.4923    4.8134    1.5954 H   0  0  0  0  0  0  0  0  0  0  0  0
    1.8204    3.2967    1.4487 C   0  0  0  0  0  0  0  0  0  0  0  0
    0.9004    3.8098    1.7547 H   0  0  0  0  0  0  0  0  0  0  0  0
    3.7363   -0.2594   -2.1100 C   0  0  0  0  0  3  0  0  0  0  0  0
    4.8222   -0.3533   -2.0001 H   0  0  0  0  0  0  0  0  0  0  0  0
    2.8956   -0.4504   -3.2026 C   0  0  0  0  0  0  0  0  0  0  0  0
    3.1843   -0.7353   -4.2190 H   0  0  0  0  0  0  0  0  0  0  0  0
    1.5984   -0.1878   -2.7062 C   0  0  0  0  0  0  0  0  0  0  0  0
    0.6342   -0.2146   -3.2273 H   0  0  0  0  0  0  0  0  0  0  0  0
   -2.8287   -0.7498   -1.2676 C   0  0  0  0  0  0  0  0  0  0  0  0
   -3.1227   -0.4936   -2.3137 H   0  0  0  0  0  0  0  0  0  0  0  0
   -1.7135   -0.7490   -1.2145 H   0  0  0  0  0  0  0  0  0  0  0  0
   -2.6485   -3.1209   -1.2532 C   0  0  0  0  0  0  0  0  0  0  0  0
   -2.5638   -3.1525   -2.3642 H   0  0  0  0  0  0  0  0  0  0  0  0
   -3.2746   -3.9796   -0.9390 H   0  0  0  0  0  0  0  0  0  0  0  0
   -1.2763   -3.1900   -0.6167 C   0  0  0  0  0  0  0  0  0  0  0  0
   -1.1585   -3.1894    0.7867 C   0  0  0  0  0  0  0  0  0  0  0  0
   -2.0670   -3.1674    1.4082 H   0  0  0  0  0  0  0  0  0  0  0  0
    0.1038   -3.1897    1.3938 C   0  0  0  0  0  0  0  0  0  0  0  0
    0.1814   -3.1837    2.4930 H   0  0  0  0  0  0  0  0  0  0  0  0
    1.2776   -3.1905    0.6161 C   0  0  0  0  0  0  0  0  0  0  0  0
    1.1598   -3.1930   -0.7873 C   0  0  0  0  0  0  0  0  0  0  0  0
    2.0683   -3.1738   -1.4088 H   0  0  0  0  0  0  0  0  0  0  0  0
   -0.1025   -3.1928   -1.3944 C   0  0  0  0  0  0  0  0  0  0  0  0
   -0.1800   -3.1892   -2.4935 H   0  0  0  0  0  0  0  0  0  0  0  0
    2.6499   -3.1217    1.2524 C   0  0  0  0  0  0  0  0  0  0  0  0
    2.5654   -3.1529    2.3634 H   0  0  0  0  0  0  0  0  0  0  0  0
    3.2757   -3.9807    0.9384 H   0  0  0  0  0  0  0  0  0  0  0  0
    2.8314   -0.7506    1.2667 C   0  0  0  0  0  0  0  0  0  0  0  0
    3.1278   -0.4937    2.3120 H   0  0  0  0  0  0  0  0  0  0  0  0
    1.7162   -0.7498    1.2162 H   0  0  0  0  0  0  0  0  0  0  0  0
   -1.7691    2.0026   -1.0962 N   0  0  0  0  0  2  0  0  0  0  0  0
   -3.0439    1.6704   -0.7794 N   0  0  0  0  0  0  0  0  0  0  0  0
   -1.6447    0.1348    1.4046 N   0  0  0  0  0  2  0  0  0  0  0  0
   -2.9493    0.0999    1.0542 N   0  0  0  0  0  0  0  0  0  0  0  0
    1.7722    2.0029    1.0949 N   0  0  0  0  0  2  0  0  0  0  0  0
    3.0463    1.6693    0.7766 N   0  0  0  0  0  0  0  0  0  0  0  0
    1.6405    0.1322   -1.4022 N   0  0  0  0  0  2  0  0  0  0  0  0
    2.9461    0.0980   -1.0558 N   0  0  0  0  0  0  0  0  0  0  0  0
   -3.3823   -1.9646   -0.8350 O   0  0  0  0  0  0  0  0  0  0  0  0
    3.3840   -1.9658    0.8337 O   0  0  0  0  0  0  0  0  0  0  0  0
  1  2  1  6  0  0  0
  1 54  1  0  0  0  0
  3  4  1  1  0  0  0
  3 56  1  0  0  0  0
  3 48  1  0  0  0  0
  5 52  1  0  0  0  0
  5  6  1  0  0  0  0
  7  5  1  0  0  0  0
  8  7  1  0  0  0  0
  9  7  2  0  0  0  0
  9 51  1  0  0  0  0
 10  9  1  0  0  0  0
 11 13  1  0  0  0  0
 12 11  1  0  0  0  0
 13 14  1  0  0  0  0
 15 13  2  0  0  0  0
 15 16  1  0  0  0  0
 17 19  1  0  0  0  0
 18 17  1  0  0  0  0
 19 21  2  0  0  0  0
 19 20  1  0  0  0  0
 21 22  1  0  0  0  0
 23 24  1  0  0  0  0
 23 58  1  0  0  0  0
 25 27  2  0  0  0  0
 25 23  1  0  0  0  0
 26 25  1  0  0  0  0
 27 57  1  0  0  0  0
 28 27  1  0  0  0  0
 29 31  1  0  0  0  0
 29 59  1  0  0  0  0
 29  1  1  0  0  0  0
 30 29  1  0  0  0  0
 32 34  1  0  0  0  0
 32 59  1  0  0  0  0
 32 35  1  0  0  0  0
 33 32  1  0  0  0  0
 35 36  1  0  0  0  0
 36 38  2  0  0  0  0
 36 37  1  0  0  0  0
 38 39  1  0  0  0  0
 40 45  1  0  0  0  0
 40 38  1  0  0  0  0
 41 40  2  0  0  0  0
 42 41  1  0  0  0  0
 43 41  1  0  0  0  0
 43 35  2  0  0  0  0
 44 43  1  0  0  0  0
 45 46  1  0  0  0  0
 47 45  1  0  0  0  0
 48 49  1  0  0  0  0
 50 48  1  0  0  0  0
 51 52  1  0  0  0  0
 52  1  1  0  0  0  0
 53 15  1  0  0  0  0
 54 53  1  0  0  0  0
 54 11  1  0  0  0  0
 55 21  1  0  0  0  0
 56 17  1  0  0  0  0
 56 55  1  0  0  0  0
 57 58  1  0  0  0  0
 58  3  1  0  0  0  0
 60 45  1  0  0  0  0
 60 48  1  0  0  0  0
M  END
