1,2,3,4
q = -2.0, confidence = 0.784

 36 36  0  0  0  0  0  0  0  0999 V2000
    1.5873   -1.5475    0.5020 N   0  0  0  0  0  2  0  0  0  0  0  0
   -0.5783   -1.3260    2.1822 N   0  0  0  0  0  0  0  0  0  0  0  0
   -1.5876   -1.5472   -0.5020 N   0  0  0  0  0  2  0  0  0  0  0  0
    0.5780   -1.3261   -2.1822 N   0  0  0  0  0  0  0  0  0  0  0  0
    1.6756   -2.2097    1.7893 C   0  0  0  0  0  0  0  0  0  0  0  0
    2.1836   -1.5782    2.5604 H   0  0  0  0  0  0  0  0  0  0  0  0
    2.2751   -3.1478    1.7388 H   0  0  0  0  0  0  0  0  0  0  0  0
    0.2561   -2.5541    2.2381 C   0  0  0  0  0  0  0  0  0  0  0  0
   -0.1619   -3.2919    1.5264 H   0  0  0  0  0  0  0  0  0  0  0  0
    0.2153   -3.0051    3.2592 H   0  0  0  0  0  0  0  0  0  0  0  0
   -2.0150   -1.6143    1.9383 C   0  0  0  0  0  0  0  0  0  0  0  0
   -2.5456   -0.6454    2.0050 H   0  0  0  0  0  0  0  0  0  0  0  0
   -2.4203   -2.2777    2.7401 H   0  0  0  0  0  0  0  0  0  0  0  0
   -2.2782   -2.2394    0.5670 C   0  0  0  0  0  0  0  0  0  0  0  0
   -1.9948   -3.3263    0.5930 H   0  0  0  0  0  0  0  0  0  0  0  0
   -3.3916   -2.2412    0.4345 H   0  0  0  0  0  0  0  0  0  0  0  0
   -1.6760   -2.2094   -1.7893 C   0  0  0  0  0  0  0  0  0  0  0  0
   -2.1839   -1.5778   -2.5604 H   0  0  0  0  0  0  0  0  0  0  0  0
   -2.2757   -3.1473   -1.7387 H   0  0  0  0  0  0  0  0  0  0  0  0
   -0.2566   -2.5540   -2.2381 C   0  0  0  0  0  0  0  0  0  0  0  0
    0.1612   -3.2919   -1.5263 H   0  0  0  0  0  0  0  0  0  0  0  0
   -0.2159   -3.0051   -3.2592 H   0  0  0  0  0  0  0  0  0  0  0  0
    2.0147   -1.6147   -1.9383 C   0  0  0  0  0  0  0  0  0  0  0  0
    2.5455   -0.6459   -2.0049 H   0  0  0  0  0  0  0  0  0  0  0  0
    2.4199   -2.2781   -2.7401 H   0  0  0  0  0  0  0  0  0  0  0  0
    2.2778   -2.2399   -0.5670 C   0  0  0  0  0  0  0  0  0  0  0  0
    1.9942   -3.3267   -0.5930 H   0  0  0  0  0  0  0  0  0  0  0  0
    3.3911   -2.2420   -0.4345 H   0  0  0  0  0  0  0  0  0  0  0  0
   -0.4196   -0.5730    3.4370 C   0  0  0  0  0  0  0  0  0  0  0  0
   -0.8062   -1.1586    4.3036 H   0  0  0  0  0  0  0  0  0  0  0  0
   -0.9622    0.3861    3.3747 H   0  0  0  0  0  0  0  0  0  0  0  0
    0.6490   -0.3490    3.6129 H   0  0  0  0  0  0  0  0  0  0  0  0
    0.4195   -0.5732   -3.4370 C   0  0  0  0  0  0  0  0  0  0  0  0
    0.9624    0.3859   -3.3748 H   0  0  0  0  0  0  0  0  0  0  0  0
   -0.6490   -0.3488   -3.6129 H   0  0  0  0  0  0  0  0  0  0  0  0
    0.8060   -1.1589   -4.3036 H   0  0  0  0  0  0  0  0  0  0  0  0
  1  5  1  0  0  0  0
  2  8  1  0  0  0  0
  2 29  1  0  0  0  0
  3 14  1  0  0  0  0
  4 23  1  0  0  0  0
  5  8  1  0  0  0  0
  5  6  1  0  0  0  0
  7  5  1  0  0  0  0
  8 10  1  0  0  0  0
  9  8  1  0  0  0  0
 11 12  1  0  0  0  0
 11  2  1  0  0  0  0
 11 13  1  0  0  0  0
 14 15  1  0  0  0  0
 14 11  1  0  0  0  0
 16 14  1  0  0  0  0
 17 19  1  0  0  0  0
 17  3  1  0  0  0  0
 18 17  1  0  0  0  0
 20  4  1  0  0  0  0
 20 17  1  0  0  0  0
 20 21  1  0  0  0  0
 22 20  1  0  0  0  0
 23 26  1  0  0  0  0
 24 23  1  0  0  0  0
 25 23  1  0  0  0  0
 26 28  1  0  0  0  0
 26  1  1  0  0  0  0
 27 26  1  0  0  0  0
 29 32  1  0  0  0  0
 29 30  1  0  0  0  0
 31 29  1  0  0  0  0
 33 34  1  0  0  0  0
 33  4  1  0  0  0  0
 35 33  1  0  0  0  0
 36 33  1  0  0  0  0
M  END
