1,2,3,4
q = 0.0, confidence = 0.996

 43 45  0  0  1  0  0  0  0  0999 V2000
    1.9631    0.0728    0.1643 N   0  0  0  0  0  2  0  0  0  0  0  0
   -0.0130    0.2759    1.9239 N   0  0  0  0  0  0  0  0  0  0  0  0
   -1.8093   -0.5123    0.1045 N   0  0  0  0  0  2  0  0  0  0  0  0
   -0.2522    1.5999   -0.7700 N   0  0  0  0  0  2  0  0  0  0  0  0
    0.0530    1.7466   -2.0826 C   0  0  0  0  0  3  0  0  0  0  0  0
    0.4334    0.8372   -2.5741 H   0  0  0  0  0  0  0  0  0  0  0  0
    2.3767    0.0762    1.4586 C   0  0  1  0  0  3  0  0  0  0  0  0
   -1.1864   -0.4981    2.4297 C   0  0  0  0  0  0  0  0  0  0  0  0
   -0.8340   -1.5345    2.6060 H   0  0  0  0  0  0  0  0  0  0  0  0
   -1.5638   -0.0877    3.3903 H   0  0  0  0  0  0  0  0  0  0  0  0
    4.2211    0.3142   -0.5851 C   0  0  0  0  0  0  0  0  0  0  0  0
    4.9256    0.3754   -1.4261 H   0  0  0  0  0  0  0  0  0  0  0  0
   -0.1145    1.7331    2.1913 C   0  0  0  0  0  0  0  0  0  0  0  0
    0.8822    2.1735    1.9861 H   0  0  0  0  0  0  0  0  0  0  0  0
   -0.3207    1.8796    3.2747 H   0  0  0  0  0  0  0  0  0  0  0  0
   -0.7997    2.6420   -0.0898 C   0  0  0  0  0  0  0  0  0  0  0  0
   -0.7016    4.0340   -2.0814 C   0  0  0  0  0  0  0  0  0  0  0  0
   -0.8767    4.9948   -2.5876 H   0  0  0  0  0  0  0  0  0  0  0  0
   -4.4984   -0.9931    0.5645 C   0  0  0  0  0  0  0  0  0  0  0  0
   -5.5669   -1.1793    0.7476 H   0  0  0  0  0  0  0  0  0  0  0  0
   -3.9990   -0.9432   -0.7446 C   0  0  0  0  0  0  0  0  0  0  0  0
   -4.6540   -1.0982   -1.6131 H   0  0  0  0  0  0  0  0  0  0  0  0
   -1.1684    2.4569    1.3603 C   0  0  0  0  0  0  0  0  0  0  0  0
   -2.1496    1.9399    1.4367 H   0  0  0  0  0  0  0  0  0  0  0  0
   -1.3283    3.4557    1.8100 H   0  0  0  0  0  0  0  0  0  0  0  0
   -1.0283    3.8722   -0.7303 C   0  0  0  0  0  0  0  0  0  0  0  0
   -1.4670    4.7000   -0.1545 H   0  0  0  0  0  0  0  0  0  0  0  0
    1.2868   -0.2398    2.4476 C   0  0  0  0  0  0  0  0  0  0  0  0
    1.5035    0.1512    3.4641 H   0  0  0  0  0  0  0  0  0  0  0  0
    1.2067   -1.3447    2.4882 H   0  0  0  0  0  0  0  0  0  0  0  0
   -2.2650   -0.5833    1.3801 C   0  0  2  0  0  3  0  0  0  0  0  0
    2.8535    0.1616   -0.8407 C   0  0  0  0  0  0  0  0  0  0  0  0
    2.4433    0.0648   -1.8556 H   0  0  0  0  0  0  0  0  0  0  0  0
   -0.1525    2.9447   -2.7700 C   0  0  0  0  0  0  0  0  0  0  0  0
    0.1130    3.0088   -3.8346 H   0  0  0  0  0  0  0  0  0  0  0  0
    3.7262    0.2441    1.7825 C   0  0  0  0  0  0  0  0  0  0  0  0
    4.0400    0.2555    2.8362 H   0  0  0  0  0  0  0  0  0  0  0  0
   -3.6193   -0.8138    1.6446 C   0  0  0  0  0  0  0  0  0  0  0  0
   -3.9765   -0.8625    2.6833 H   0  0  0  0  0  0  0  0  0  0  0  0
    4.6622    0.3704    0.7433 C   0  0  0  0  0  0  0  0  0  0  0  0
    5.7305    0.4957    0.9730 H   0  0  0  0  0  0  0  0  0  0  0  0
   -2.6354   -0.6992   -0.9416 C   0  0  0  0  0  0  0  0  0  0  0  0
   -2.1549   -0.6797   -1.9313 H   0  0  0  0  0  0  0  0  0  0  0  0
  1  7  1  0  0  0  0
  2 13  1  0  0  0  0
  2  8  1  0  0  0  0
  2 28  1  0  0  0  0
  3 31  1  0  0  0  0
  4 16  1  0  0  0  0
  5  4  1  0  0  0  0
  6  5  1  0  0  0  0
  7 36  1  0  0  0  0
  7 28  1  6  0  0  0
  8  9  1  0  0  0  0
  8 10  1  0  0  0  0
 11 40  1  0  0  0  0
 12 11  1  0  0  0  0
 13 15  1  0  0  0  0
 14 13  1  0  0  0  0
 16 23  1  0  0  0  0
 17 26  1  0  0  0  0
 18 17  1  0  0  0  0
 19 20  1  0  0  0  0
 19 38  2  0  0  0  0
 21 19  1  0  0  0  0
 22 21  1  0  0  0  0
 23 24  1  0  0  0  0
 23 25  1  0  0  0  0
 23 13  1  0  0  0  0
 26 27  1  0  0  0  0
 26 16  2  0  0  0  0
 28 30  1  0  0  0  0
 28 29  1  0  0  0  0
 31 38  1  0  0  0  0
 31  8  1  1  0  0  0
 32 11  2  0  0  0  0
 32  1  1  0  0  0  0
 33 32  1  0  0  0  0
 34  5  1  0  0  0  0
 34 17  2  0  0  0  0
 35 34  1  0  0  0  0
 36 37  1  0  0  0  0
 38 39  1  0  0  0  0
 40 41  1  0  0  0  0
 40 36  2  0  0  0  0
 42 21  2  0  0  0  0
 42  3  1  0  0  0  0
 43 42  1  0  0  0  0
M  END
