1,3,4,6
q = -2.0, confidence = 0.736

 55 58  0  0  0  0  0  0  0  0999 V2000
   -1.5285   -1.2511   -0.1294 N   0  0  0  0  0  0  0  0  0  0  0  0
    0.2712   -2.7170   -0.1880 N   0  0  0  0  0  2  0  0  0  0  0  0
    0.8942   -1.5926    0.0489 N   0  0  0  0  0  2  0  0  0  0  0  0
    0.8942    1.5926   -0.0489 N   0  0  0  0  0  2  0  0  0  0  0  0
    0.2712    2.7170    0.1881 N   0  0  0  0  0  2  0  0  0  0  0  0
   -1.5285    1.2511    0.1294 N   0  0  0  0  0  0  0  0  0  0  0  0
    2.8288   -0.8310    1.2985 C   0  0  0  0  0  0  0  0  0  0  0  0
    2.1713   -0.1109    1.8053 H   0  0  0  0  0  0  0  0  0  0  0  0
    4.1964   -0.8884    1.5881 C   0  0  0  0  0  0  0  0  0  0  0  0
    4.6229   -0.1971    2.3300 H   0  0  0  0  0  0  0  0  0  0  0  0
    5.0204   -1.8135    0.9266 C   0  0  0  0  0  0  0  0  0  0  0  0
    6.0984   -1.8477    1.1441 H   0  0  0  0  0  0  0  0  0  0  0  0
    4.4618   -2.6969   -0.0139 C   0  0  0  0  0  0  0  0  0  0  0  0
    5.1028   -3.4272   -0.5312 H   0  0  0  0  0  0  0  0  0  0  0  0
    3.0935   -2.6517   -0.3060 C   0  0  0  0  0  0  0  0  0  0  0  0
    2.6362   -3.3317   -1.0380 H   0  0  0  0  0  0  0  0  0  0  0  0
    2.2740   -1.7042    0.3418 C   0  0  0  0  0  0  0  0  0  0  0  0
   -1.0541   -2.5409   -0.3216 C   0  0  0  0  0  0  0  0  0  0  0  0
   -2.1675   -3.4039   -0.5387 C   0  0  0  0  0  0  0  0  0  0  0  0
   -2.1230   -4.4838   -0.7161 H   0  0  0  0  0  0  0  0  0  0  0  0
   -3.3063   -2.5871   -0.4748 C   0  0  0  0  0  0  0  0  0  0  0  0
   -4.3483   -2.9096   -0.5855 H   0  0  0  0  0  0  0  0  0  0  0  0
   -2.8720   -1.2428   -0.2127 C   0  0  0  0  0  3  0  0  0  0  0  0
   -3.7122    0.0000   -0.0001 C   0  0  0  0  0  0  0  0  0  0  0  0
   -4.6224   -0.2185    1.2521 C   0  0  0  0  0  0  0  0  0  0  0  0
   -5.2835    0.6690    1.3488 H   0  0  0  0  0  0  0  0  0  0  0  0
   -5.2902   -1.0799    1.0383 H   0  0  0  0  0  0  0  0  0  0  0  0
   -3.8554   -0.4523    2.5510 C   0  0  0  0  0  0  0  0  0  0  0  0
   -3.2141   -1.3543    2.4837 H   0  0  0  0  0  0  0  0  0  0  0  0
   -4.5519   -0.5950    3.4009 H   0  0  0  0  0  0  0  0  0  0  0  0
   -3.2000    0.4093    2.7915 H   0  0  0  0  0  0  0  0  0  0  0  0
   -4.6220    0.2186   -1.2525 C   0  0  0  0  0  0  0  0  0  0  0  0
   -5.2831   -0.6690   -1.3495 H   0  0  0  0  0  0  0  0  0  0  0  0
   -5.2899    1.0800   -1.0389 H   0  0  0  0  0  0  0  0  0  0  0  0
   -3.8546    0.4524   -2.5512 C   0  0  0  0  0  0  0  0  0  0  0  0
   -3.2134    1.3544   -2.4837 H   0  0  0  0  0  0  0  0  0  0  0  0
   -4.5509    0.5952   -3.4013 H   0  0  0  0  0  0  0  0  0  0  0  0
   -3.1992   -0.4092   -2.7915 H   0  0  0  0  0  0  0  0  0  0  0  0
   -2.8720    1.2427    0.2128 C   0  0  0  0  0  0  0  0  0  0  0  0
   -3.3063    2.5871    0.4750 C   0  0  0  0  0  0  0  0  0  0  0  0
   -4.3483    2.9095    0.5857 H   0  0  0  0  0  0  0  0  0  0  0  0
   -2.1674    3.4039    0.5390 C   0  0  0  0  0  0  0  0  0  0  0  0
   -2.1229    4.4837    0.7164 H   0  0  0  0  0  0  0  0  0  0  0  0
   -1.0541    2.5409    0.3217 C   0  0  0  0  0  3  0  0  0  0  0  0
    2.2741    1.7042   -0.3417 C   0  0  0  0  0  0  0  0  0  0  0  0
    3.0935    2.6517    0.3060 C   0  0  0  0  0  0  0  0  0  0  0  0
    2.6362    3.3317    1.0380 H   0  0  0  0  0  0  0  0  0  0  0  0
    4.4618    2.6969    0.0140 C   0  0  0  0  0  0  0  0  0  0  0  0
    5.1028    3.4272    0.5312 H   0  0  0  0  0  0  0  0  0  0  0  0
    5.0204    1.8135   -0.9266 C   0  0  0  0  0  0  0  0  0  0  0  0
    6.0984    1.8477   -1.1440 H   0  0  0  0  0  0  0  0  0  0  0  0
    4.1964    0.8884   -1.5881 C   0  0  0  0  0  0  0  0  0  0  0  0
    4.6228    0.1971   -2.3300 H   0  0  0  0  0  0  0  0  0  0  0  0
    2.8288    0.8310   -1.2985 C   0  0  0  0  0  0  0  0  0  0  0  0
    2.1713    0.1108   -1.8052 H   0  0  0  0  0  0  0  0  0  0  0  0
  2  3  1  0  0  0  0
  3 17  1  0  0  0  0
  4  5  1  0  0  0  0
  5 44  1  0  0  0  0
  6 39  2  0  0  0  0
  6 44  1  0  0  0  0
  7  9  1  0  0  0  0
  7  8  1  0  0  0  0
  9 10  1  0  0  0  0
 11 12  1  0  0  0  0
 11  9  2  0  0  0  0
 13 11  1  0  0  0  0
 14 13  1  0  0  0  0
 15 13  2  0  0  0  0
 15 17  1  0  0  0  0
 16 15  1  0  0  0  0
 17  7  2  0  0  0  0
 18  2  1  0  0  0  0
 18  1  2  0  0  0  0
 19 21  2  0  0  0  0
 19 18  1  0  0  0  0
 20 19  1  0  0  0  0
 21 23  1  0  0  0  0
 22 21  1  0  0  0  0
 23  1  1  0  0  0  0
 23 24  1  0  0  0  0
 24 39  1  0  0  0  0
 24 25  1  0  0  0  0
 25 26  1  0  0  0  0
 25 28  1  0  0  0  0
 27 25  1  0  0  0  0
 28 31  1  0  0  0  0
 28 30  1  0  0  0  0
 29 28  1  0  0  0  0
 32 34  1  0  0  0  0
 32 24  1  0  0  0  0
 33 32  1  0  0  0  0
 35 36  1  0  0  0  0
 35 32  1  0  0  0  0
 37 35  1  0  0  0  0
 38 35  1  0  0  0  0
 39 40  1  0  0  0  0
 40 42  2  0  0  0  0
 40 41  1  0  0  0  0
 42 43  1  0  0  0  0
 44 42  1  0  0  0  0
 45  4  1  0  0  0  0
 45 46  1  0  0  0  0
 46 47  1  0  0  0  0
 48 46  2  0  0  0  0
 48 49  1  0  0  0  0
 50 48  1  0  0  0  0
 51 50  1  0  0  0  0
 52 54  1  0  0  0  0
 52 50  2  0  0  0  0
 53 52  1  0  0  0  0
 54 45  2  0  0  0  0
 55 54  1  0  0  0  0
M  END
