1,2,3,4
q = 0.0, confidence = 0.988

 52 53  0  0  1  0  0  0  0  0999 V2000
    1.7154   -0.8688   -0.1096 N   0  0  0  0  0  2  0  0  0  0  0  0
    0.7944    1.4585   -0.8874 N   0  0  0  0  0  2  0  0  0  0  0  0
   -1.4913    1.0262    0.6185 N   0  0  0  0  0  0  0  0  0  0  0  0
   -1.2720   -1.4743   -0.0997 N   0  0  0  0  0  2  0  0  0  0  0  0
    1.1635   -2.6327    1.5404 C   0  0  0  0  0  0  0  0  0  0  0  0
    2.1005   -1.9955    0.5596 C   0  0  2  0  0  3  0  0  0  0  0  0
    3.4018   -2.4941    0.3781 C   0  0  0  0  0  0  0  0  0  0  0  0
    4.3137   -1.8237   -0.4452 C   0  0  0  0  0  0  0  0  0  0  0  0
    3.9269   -0.6162   -1.0335 C   0  0  0  0  0  0  0  0  0  0  0  0
    2.6220   -0.1556   -0.8248 C   0  0  0  0  0  0  0  0  0  0  0  0
    2.1775    1.1987   -1.2909 C   0  0  0  0  0  0  0  0  0  0  0  0
    1.0745    3.7057   -1.8219 C   0  0  0  0  0  0  0  0  0  0  0  0
    0.2733    2.6234   -1.1541 C   0  0  2  0  0  3  0  0  0  0  0  0
   -1.1383    2.9827   -0.7745 C   0  0  0  0  0  0  0  0  0  0  0  0
   -2.1481    1.8655   -0.4343 C   0  0  0  0  0  0  0  0  0  0  0  0
   -3.4120    2.5392    0.1324 C   0  0  0  0  0  0  0  0  0  0  0  0
   -2.4984    1.0399   -1.6790 C   0  0  0  0  0  0  0  0  0  0  0  0
   -2.2927    0.0642    1.4132 C   0  0  0  0  0  0  0  0  0  0  0  0
   -2.3771   -1.2326    0.6649 C   0  0  1  0  0  3  0  0  0  0  0  0
   -3.4654   -2.1059    0.6995 C   0  0  0  0  0  0  0  0  0  0  0  0
   -3.4292   -3.2543   -0.1050 C   0  0  0  0  0  0  0  0  0  0  0  0
   -2.3285   -3.4542   -0.9448 C   0  0  0  0  0  0  0  0  0  0  0  0
   -1.2532   -2.5457   -0.9421 C   0  0  0  0  0  0  0  0  0  0  0  0
   -0.0940   -2.7169   -1.8783 C   0  0  0  0  0  0  0  0  0  0  0  0
    0.2503   -3.0393    1.0680 H   0  0  0  0  0  0  0  0  0  0  0  0
    1.6723   -3.4586    2.0689 H   0  0  0  0  0  0  0  0  0  0  0  0
    0.8533   -1.8702    2.2828 H   0  0  0  0  0  0  0  0  0  0  0  0
    3.6948   -3.4079    0.9135 H   0  0  0  0  0  0  0  0  0  0  0  0
    5.3294   -2.2190   -0.5919 H   0  0  0  0  0  0  0  0  0  0  0  0
    4.6298   -0.0161   -1.6285 H   0  0  0  0  0  0  0  0  0  0  0  0
    2.8510    1.9527   -0.8255 H   0  0  0  0  0  0  0  0  0  0  0  0
    2.2901    1.2995   -2.3936 H   0  0  0  0  0  0  0  0  0  0  0  0
    1.4357    3.3851   -2.8221 H   0  0  0  0  0  0  0  0  0  0  0  0
    0.4831    4.6294   -1.9478 H   0  0  0  0  0  0  0  0  0  0  0  0
    1.9727    3.9479   -1.2157 H   0  0  0  0  0  0  0  0  0  0  0  0
   -1.0457    3.6787    0.0908 H   0  0  0  0  0  0  0  0  0  0  0  0
   -1.5639    3.5940   -1.5970 H   0  0  0  0  0  0  0  0  0  0  0  0
   -3.7859    3.2953   -0.5846 H   0  0  0  0  0  0  0  0  0  0  0  0
   -4.2298    1.8095    0.2893 H   0  0  0  0  0  0  0  0  0  0  0  0
   -3.2019    3.0547    1.0910 H   0  0  0  0  0  0  0  0  0  0  0  0
   -2.9656    1.6940   -2.4406 H   0  0  0  0  0  0  0  0  0  0  0  0
   -1.5952    0.5739   -2.1182 H   0  0  0  0  0  0  0  0  0  0  0  0
   -3.2234    0.2367   -1.4427 H   0  0  0  0  0  0  0  0  0  0  0  0
   -1.7207   -0.0775    2.3559 H   0  0  0  0  0  0  0  0  0  0  0  0
   -3.2923    0.4602    1.6793 H   0  0  0  0  0  0  0  0  0  0  0  0
   -4.3321   -1.8775    1.3358 H   0  0  0  0  0  0  0  0  0  0  0  0
   -4.2665   -3.9675   -0.1020 H   0  0  0  0  0  0  0  0  0  0  0  0
   -2.2929   -4.3150   -1.6275 H   0  0  0  0  0  0  0  0  0  0  0  0
   -0.3869   -3.3321   -2.7487 H   0  0  0  0  0  0  0  0  0  0  0  0
    0.2684   -1.7320   -2.2306 H   0  0  0  0  0  0  0  0  0  0  0  0
    0.7624   -3.2232   -1.3873 H   0  0  0  0  0  0  0  0  0  0  0  0
   -1.0027    1.6890    1.3007 H   0  0  0  0  0  0  0  0  0  0  0  0
  1  6  1  0  0  0  0
  3 52  1  0  0  0  0
  3 18  1  0  0  0  0
  4 19  1  0  0  0  0
  5 26  1  0  0  0  0
  5 27  1  0  0  0  0
  6  5  1  1  0  0  0
  7  6  1  0  0  0  0
  7 28  1  0  0  0  0
  8  7  2  0  0  0  0
  9 10  2  0  0  0  0
  9  8  1  0  0  0  0
 10  1  1  0  0  0  0
 11  2  1  0  0  0  0
 11 31  1  0  0  0  0
 11 10  1  0  0  0  0
 12 35  1  0  0  0  0
 12 13  1  0  0  0  0
 13  2  1  1  0  0  0
 13 14  1  0  0  0  0
 14 15  1  0  0  0  0
 14 36  1  0  0  0  0
 15 16  1  0  0  0  0
 15  3  1  0  0  0  0
 16 39  1  0  0  0  0
 16 40  1  0  0  0  0
 17 43  1  0  0  0  0
 17 15  1  0  0  0  0
 18 45  1  0  0  0  0
 18 44  1  0  0  0  0
 19 20  1  0  0  0  0
 19 18  1  6  0  0  0
 20 46  1  0  0  0  0
 21 47  1  0  0  0  0
 21 20  2  0  0  0  0
 22 23  2  0  0  0  0
 22 21  1  0  0  0  0
 23  4  1  0  0  0  0
 24 51  1  0  0  0  0
 24 23  1  0  0  0  0
 25  5  1  0  0  0  0
 29  8  1  0  0  0  0
 30  9  1  0  0  0  0
 32 11  1  0  0  0  0
 33 12  1  0  0  0  0
 34 12  1  0  0  0  0
 37 14  1  0  0  0  0
 38 16  1  0  0  0  0
 41 17  1  0  0  0  0
 42 17  1  0  0  0  0
 48 22  1  0  0  0  0
 49 24  1  0  0  0  0
 50 24  1  0  0  0  0
M  END
