3,4,5,6
q = -1.0, confidence = 0.008

 36 35  0  0  0  0  0  0  0  0999 V2000
   -0.7791   -1.0149   -2.3945 O   0  0  0  0  0  1  0  0  0  0  0  0
   -0.1240    1.3266   -2.4393 O   0  0  0  0  0  0  0  0  0  0  0  0
   -0.6271   -1.2476   -1.1347 N   0  0  0  0  0  2  0  0  0  0  0  0
    0.0353    1.4784   -1.1460 N   0  0  0  0  0  2  0  0  0  0  0  0
    0.5836    1.4255    1.2928 N   0  0  0  0  0  2  0  0  0  0  0  0
   -0.1247   -1.4139    1.3145 N   0  0  0  0  0  2  0  0  0  0  0  0
   -1.3361   -3.5934   -1.4946 C   0  0  0  0  0  0  0  0  0  0  0  0
   -0.8626   -2.4655   -0.6372 C   0  0  0  0  0  0  0  0  0  0  0  0
   -0.6115   -2.5227    0.7911 C   0  0  0  0  0  0  0  0  0  0  0  0
   -0.8996   -3.7561    1.5950 C   0  0  0  0  0  0  0  0  0  0  0  0
    0.1676   -1.2887    2.7312 C   0  0  0  0  0  0  0  0  0  0  0  0
    1.2347   -0.2329    3.0203 C   0  0  0  0  0  0  0  0  0  0  0  0
    0.8086    1.2011    2.7095 C   0  0  0  0  0  0  0  0  0  0  0  0
    0.8965    3.8755    1.5552 C   0  0  0  0  0  0  0  0  0  0  0  0
    0.6006    2.6343    0.7681 C   0  0  0  0  0  0  0  0  0  0  0  0
    0.3038    2.6855   -0.6601 C   0  0  0  0  0  0  0  0  0  0  0  0
    0.3370    3.9126   -1.5119 C   0  0  0  0  0  0  0  0  0  0  0  0
   -1.1576   -3.3466   -2.5567 H   0  0  0  0  0  0  0  0  0  0  0  0
   -0.8179   -4.5416   -1.2522 H   0  0  0  0  0  0  0  0  0  0  0  0
   -2.4272   -3.7631   -1.3695 H   0  0  0  0  0  0  0  0  0  0  0  0
   -1.6281   -3.5325    2.4014 H   0  0  0  0  0  0  0  0  0  0  0  0
   -1.3200   -4.5618    0.9698 H   0  0  0  0  0  0  0  0  0  0  0  0
    0.0160   -4.1444    2.0884 H   0  0  0  0  0  0  0  0  0  0  0  0
    0.4985   -2.2648    3.1438 H   0  0  0  0  0  0  0  0  0  0  0  0
   -0.7713   -1.0238    3.2741 H   0  0  0  0  0  0  0  0  0  0  0  0
    2.1668   -0.4779    2.4693 H   0  0  0  0  0  0  0  0  0  0  0  0
    1.4819   -0.2860    4.0997 H   0  0  0  0  0  0  0  0  0  0  0  0
    1.5770    1.9051    3.0942 H   0  0  0  0  0  0  0  0  0  0  0  0
   -0.1332    1.4385    3.2598 H   0  0  0  0  0  0  0  0  0  0  0  0
    0.1223    4.0350    2.3349 H   0  0  0  0  0  0  0  0  0  0  0  0
    1.8689    3.7973    2.0840 H   0  0  0  0  0  0  0  0  0  0  0  0
    0.9258    4.7726    0.9137 H   0  0  0  0  0  0  0  0  0  0  0  0
   -0.0115    3.6684   -2.5305 H   0  0  0  0  0  0  0  0  0  0  0  0
   -0.3168    4.7048   -1.0942 H   0  0  0  0  0  0  0  0  0  0  0  0
    1.3612    4.3343   -1.5885 H   0  0  0  0  0  0  0  0  0  0  0  0
   -0.4323    0.2488   -2.5441 H   0  0  0  0  0  0  0  0  0  0  0  0
  1  3  1  0  0  0  0
  2  4  1  0  0  0  0
  3  8  1  0  0  0  0
  4 16  1  0  0  0  0
  5 13  1  0  0  0  0
  6 11  1  0  0  0  0
  7 20  1  0  0  0  0
  7 19  1  0  0  0  0
  7  8  1  0  0  0  0
  8  9  2  0  0  0  0
  9  6  1  0  0  0  0
  9 10  1  0  0  0  0
 10 23  1  0  0  0  0
 10 21  1  0  0  0  0
 11 12  1  0  0  0  0
 11 24  1  0  0  0  0
 11 25  1  0  0  0  0
 12 27  1  0  0  0  0
 13 12  1  0  0  0  0
 13 28  1  0  0  0  0
 13 29  1  0  0  0  0
 14 31  1  0  0  0  0
 14 30  1  0  0  0  0
 15  5  1  0  0  0  0
 15 14  1  0  0  0  0
 16 15  2  0  0  0  0
 17 34  1  0  0  0  0
 17 16  1  0  0  0  0
 18  7  1  0  0  0  0
 22 10  1  0  0  0  0
 26 12  1  0  0  0  0
 32 14  1  0  0  0  0
 33 17  1  0  0  0  0
 35 17  1  0  0  0  0
 36  2  1  0  0  0  0
M  END
