1,2,3,4
q = 0.0, confidence = 0.968

 46 48  0  0  1  0  0  0  0  0999 V2000
    0.2780   -0.5780    1.6456 N   0  0  0  0  0  0  0  0  0  0  0  0
   -0.3952    1.3769   -0.0340 N   0  0  0  0  0  2  0  0  0  0  0  0
    2.1455    0.0062   -0.0543 N   0  0  0  0  0  2  0  0  0  0  0  0
   -1.8058   -0.8637   -0.1300 N   0  0  0  0  0  2  0  0  0  0  0  0
    0.2708    0.8023    2.2035 C   0  0  0  0  0  0  0  0  0  0  0  0
    1.3280    1.1333    2.2722 H   0  0  0  0  0  0  0  0  0  0  0  0
   -0.1451    0.8213    3.2344 H   0  0  0  0  0  0  0  0  0  0  0  0
   -0.4606    1.7400    1.2842 C   0  0  1  0  0  3  0  0  0  0  0  0
   -1.1009    2.9095    1.7032 C   0  0  0  0  0  0  0  0  0  0  0  0
   -1.1417    3.1489    2.7764 H   0  0  0  0  0  0  0  0  0  0  0  0
   -1.6827    3.7584    0.7474 C   0  0  0  0  0  0  0  0  0  0  0  0
   -2.1949    4.6819    1.0534 H   0  0  0  0  0  0  0  0  0  0  0  0
   -1.5982    3.3881   -0.6064 C   0  0  0  0  0  0  0  0  0  0  0  0
   -2.0355    4.0159   -1.3964 H   0  0  0  0  0  0  0  0  0  0  0  0
   -0.9604    2.1983   -0.9605 C   0  0  0  0  0  0  0  0  0  0  0  0
   -0.8525    1.8446   -2.0000 H   0  0  0  0  0  0  0  0  0  0  0  0
    1.5533   -1.2826    1.9089 C   0  0  0  0  0  0  0  0  0  0  0  0
    1.4023   -2.3330    1.5780 H   0  0  0  0  0  0  0  0  0  0  0  0
    1.8393   -1.2497    2.9856 H   0  0  0  0  0  0  0  0  0  0  0  0
    2.6116   -0.6661    1.0413 C   0  0  2  0  0  3  0  0  0  0  0  0
    3.9669   -0.7548    1.3699 C   0  0  0  0  0  0  0  0  0  0  0  0
    4.2717   -1.3234    2.2604 H   0  0  0  0  0  0  0  0  0  0  0  0
    4.9016   -0.1098    0.5517 C   0  0  0  0  0  0  0  0  0  0  0  0
    5.9805   -0.1840    0.7533 H   0  0  0  0  0  0  0  0  0  0  0  0
    4.4182    0.6811   -0.4929 C   0  0  0  0  0  0  0  0  0  0  0  0
    5.1056    1.2717   -1.1151 H   0  0  0  0  0  0  0  0  0  0  0  0
    3.0358    0.7711   -0.7586 C   0  0  0  0  0  0  0  0  0  0  0  0
    2.5449    1.7682   -1.7581 C   0  0  0  0  0  0  0  0  0  0  0  0
    1.9416    1.2682   -2.5452 H   0  0  0  0  0  0  0  0  0  0  0  0
    3.3927    2.3252   -2.1975 H   0  0  0  0  0  0  0  0  0  0  0  0
    1.8630    2.4898   -1.2638 H   0  0  0  0  0  0  0  0  0  0  0  0
   -0.8992   -1.3687    2.0376 C   0  0  0  0  0  0  0  0  0  0  0  0
   -1.1088   -1.3083    3.1286 H   0  0  0  0  0  0  0  0  0  0  0  0
   -0.6608   -2.4177    1.7534 H   0  0  0  0  0  0  0  0  0  0  0  0
   -2.0824   -0.9799    1.2048 C   0  0  2  0  0  3  0  0  0  0  0  0
   -3.3681   -0.8838    1.7413 C   0  0  0  0  0  0  0  0  0  0  0  0
   -3.5093   -0.9619    2.8288 H   0  0  0  0  0  0  0  0  0  0  0  0
   -4.4488   -0.7054    0.8666 C   0  0  0  0  0  0  0  0  0  0  0  0
   -5.4762   -0.5995    1.2450 H   0  0  0  0  0  0  0  0  0  0  0  0
   -4.1841   -0.7170   -0.5030 C   0  0  0  0  0  0  0  0  0  0  0  0
   -5.0038   -0.6564   -1.2332 H   0  0  0  0  0  0  0  0  0  0  0  0
   -2.8634   -0.8318   -0.9948 C   0  0  0  0  0  0  0  0  0  0  0  0
   -2.6489   -1.0228   -2.4606 C   0  0  0  0  0  0  0  0  0  0  0  0
   -3.6186   -1.1908   -2.9656 H   0  0  0  0  0  0  0  0  0  0  0  0
   -1.9763   -1.8880   -2.6207 H   0  0  0  0  0  0  0  0  0  0  0  0
   -2.1117   -0.1759   -2.9305 H   0  0  0  0  0  0  0  0  0  0  0  0
  1 17  1  0  0  0  0
  1 32  1  0  0  0  0
  1  5  1  0  0  0  0
  2  8  1  0  0  0  0
  3 20  1  0  0  0  0
  4 35  1  0  0  0  0
  5  6  1  0  0  0  0
  5  7  1  0  0  0  0
  8  9  1  0  0  0  0
  8  5  1  6  0  0  0
  9 10  1  0  0  0  0
 11 12  1  0  0  0  0
 11  9  2  0  0  0  0
 13 11  1  0  0  0  0
 14 13  1  0  0  0  0
 15 13  2  0  0  0  0
 15  2  1  0  0  0  0
 16 15  1  0  0  0  0
 17 19  1  0  0  0  0
 18 17  1  0  0  0  0
 20 21  1  0  0  0  0
 20 17  1  1  0  0  0
 21 22  1  0  0  0  0
 23 24  1  0  0  0  0
 23 21  2  0  0  0  0
 25 23  1  0  0  0  0
 26 25  1  0  0  0  0
 27 25  2  0  0  0  0
 27  3  1  0  0  0  0
 28 31  1  0  0  0  0
 28 27  1  0  0  0  0
 29 28  1  0  0  0  0
 30 28  1  0  0  0  0
 32 33  1  0  0  0  0
 34 32  1  0  0  0  0
 35 36  1  0  0  0  0
 35 32  1  6  0  0  0
 36 37  1  0  0  0  0
 38 39  1  0  0  0  0
 38 36  2  0  0  0  0
 40 38  1  0  0  0  0
 41 40  1  0  0  0  0
 42 40  2  0  0  0  0
 42  4  1  0  0  0  0
 43 42  1  0  0  0  0
 44 43  1  0  0  0  0
 45 43  1  0  0  0  0
 46 43  1  0  0  0  0
M  END
