3,4,5,6
q = -1.0

 41 40  0  0  1  0  0  0  0  0999 V2000
    1.4778   -2.6742   -0.1290 O   0  0  0  0  0  1  0  0  0  0  0  0
   -0.9303   -2.8032    0.0510 O   0  0  0  0  0  0  0  0  0  0  0  0
    1.6249   -1.3649   -0.1791 N   0  0  0  0  0  2  0  0  0  0  0  0
   -1.2068   -1.5066    0.0035 N   0  0  0  0  0  2  0  0  0  0  0  0
    1.4794    1.1743   -0.2511 N   0  0  0  0  0  2  0  0  0  0  0  0
   -1.3135    1.0208   -0.1585 N   0  0  0  0  0  2  0  0  0  0  0  0
    2.7587   -0.8441   -0.5870 C   0  0  1  0  0  3  0  0  0  0  0  0
   -2.4387   -1.1190   -0.2092 C   0  0  2  0  0  3  0  0  0  0  0  0
    2.8101    0.6559   -0.5636 C   0  0  2  0  0  0  0  0  0  0  0  0
   -2.6427    0.3781   -0.2872 C   0  0  0  0  0  0  0  0  0  0  0  0
    3.8988   -1.7171   -0.9850 C   0  0  0  0  0  0  0  0  0  0  0  0
   -3.5209   -2.1349   -0.3496 C   0  0  0  0  0  0  0  0  0  0  0  0
    3.8779    1.1450    0.4400 C   0  0  0  0  0  0  0  0  0  0  0  0
   -3.3096    0.7101   -1.6433 C   0  0  0  0  0  0  0  0  0  0  0  0
   -3.5538    0.8142    0.8878 C   0  0  0  0  0  0  0  0  0  0  0  0
    1.2704    2.5599   -0.6280 C   0  0  0  0  0  0  0  0  0  0  0  0
   -1.2677    2.4293   -0.5238 C   0  0  0  0  0  0  0  0  0  0  0  0
   -0.0081    3.1286   -0.0245 C   0  0  0  0  0  0  0  0  0  0  0  0
    0.2492   -2.8354    0.0087 H   0  0  0  0  0  0  0  0  0  0  0  0
    3.1149    0.9991   -1.5863 H   0  0  0  0  0  0  0  0  0  0  0  0
    4.3666   -2.1854   -0.0914 H   0  0  0  0  0  0  0  0  0  0  0  0
    4.6755   -1.1568   -1.5380 H   0  0  0  0  0  0  0  0  0  0  0  0
    3.5176   -2.5570   -1.6008 H   0  0  0  0  0  0  0  0  0  0  0  0
   -4.5166   -1.6786   -0.4915 H   0  0  0  0  0  0  0  0  0  0  0  0
   -3.2962   -2.8071   -1.2047 H   0  0  0  0  0  0  0  0  0  0  0  0
   -3.5375   -2.7918    0.5453 H   0  0  0  0  0  0  0  0  0  0  0  0
    4.8837    0.7537    0.1870 H   0  0  0  0  0  0  0  0  0  0  0  0
    3.6076    0.8086    1.4607 H   0  0  0  0  0  0  0  0  0  0  0  0
    3.9385    2.2512    0.4400 H   0  0  0  0  0  0  0  0  0  0  0  0
   -2.6315    0.4499   -2.4800 H   0  0  0  0  0  0  0  0  0  0  0  0
   -3.5573    1.7866   -1.7115 H   0  0  0  0  0  0  0  0  0  0  0  0
   -4.2552    0.1479   -1.7694 H   0  0  0  0  0  0  0  0  0  0  0  0
   -3.7257    1.9088    0.8565 H   0  0  0  0  0  0  0  0  0  0  0  0
   -3.0696    0.5627    1.8515 H   0  0  0  0  0  0  0  0  0  0  0  0
   -4.5449    0.3200    0.8424 H   0  0  0  0  0  0  0  0  0  0  0  0
    2.1326    3.1773   -0.2803 H   0  0  0  0  0  0  0  0  0  0  0  0
    1.2442    2.6729   -1.7426 H   0  0  0  0  0  0  0  0  0  0  0  0
   -1.3375    2.5665   -1.6311 H   0  0  0  0  0  0  0  0  0  0  0  0
   -2.1517    2.9577   -0.0948 H   0  0  0  0  0  0  0  0  0  0  0  0
    0.0452    3.0482    1.0822 H   0  0  0  0  0  0  0  0  0  0  0  0
   -0.0779    4.2067   -0.2779 H   0  0  0  0  0  0  0  0  0  0  0  0
  3  1  1  0  0  0  0
  4  2  1  0  0  0  0
  7  9  1  0  0  0  0
  7  3  1  1  0  0  0
  8  4  1  1  0  0  0
  9 20  1  6  0  0  0
  9  5  1  0  0  0  0
  9 13  1  0  0  0  0
 10  8  1  0  0  0  0
 10  6  1  0  0  0  0
 10 15  1  0  0  0  0
 11  7  1  0  0  0  0
 11 21  1  0  0  0  0
 12  8  1  0  0  0  0
 12 26  1  0  0  0  0
 13 29  1  0  0  0  0
 13 28  1  0  0  0  0
 14 10  1  0  0  0  0
 15 34  1  0  0  0  0
 16 36  1  0  0  0  0
 16  5  1  0  0  0  0
 16 18  1  0  0  0  0
 17  6  1  0  0  0  0
 17 39  1  0  0  0  0
 17 18  1  0  0  0  0
 18 40  1  0  0  0  0
 19  2  1  0  0  0  0
 22 11  1  0  0  0  0
 23 11  1  0  0  0  0
 24 12  1  0  0  0  0
 25 12  1  0  0  0  0
 27 13  1  0  0  0  0
 30 14  1  0  0  0  0
 31 14  1  0  0  0  0
 32 14  1  0  0  0  0
 33 15  1  0  0  0  0
 35 15  1  0  0  0  0
 37 16  1  0  0  0  0
 38 17  1  0  0  0  0
 41 18  1  0  0  0  0
M  END
