3,4,5,6
q = -1.0

 38 37  0  0  1  0  0  0  0  0999 V2000
    1.2079   -2.7125   -0.0126 O   0  0  0  0  0  0  0  0  0  0  0  0
   -1.2081   -2.7125   -0.0120 O   0  0  0  0  0  1  0  0  0  0  0  0
    1.4197   -1.4105   -0.1003 N   0  0  0  0  0  2  0  0  0  0  0  0
   -1.4198   -1.4105   -0.1000 N   0  0  0  0  0  2  0  0  0  0  0  0
    1.3937    1.1265   -0.2905 N   0  0  0  0  0  2  0  0  0  0  0  0
   -1.3936    1.1265   -0.2907 N   0  0  0  0  0  2  0  0  0  0  0  0
    2.5967   -0.9610   -0.4639 C   0  0  1  0  0  3  0  0  0  0  0  0
   -2.5967   -0.9610   -0.4639 C   0  0  2  0  0  3  0  0  0  0  0  0
    2.7146    0.5350   -0.5005 C   0  0  2  0  0  0  0  0  0  0  0  0
   -2.7145    0.5351   -0.5006 C   0  0  1  0  0  0  0  0  0  0  0  0
    3.7151   -1.8985   -0.7652 C   0  0  0  0  0  0  0  0  0  0  0  0
   -3.7151   -1.8984   -0.7651 C   0  0  0  0  0  0  0  0  0  0  0  0
    3.7441    1.0232    0.5427 C   0  0  0  0  0  0  0  0  0  0  0  0
   -3.7441    1.0233    0.5425 C   0  0  0  0  0  0  0  0  0  0  0  0
    1.2725    2.4921   -0.7697 C   0  0  0  0  0  0  0  0  0  0  0  0
   -1.2724    2.4921   -0.7697 C   0  0  0  0  0  0  0  0  0  0  0  0
    0.0001    3.1722   -0.2783 C   0  0  0  0  0  0  0  0  0  0  0  0
    3.0933    0.8159   -1.5172 H   0  0  0  0  0  0  0  0  0  0  0  0
   -3.0931    0.8159   -1.5174 H   0  0  0  0  0  0  0  0  0  0  0  0
    4.5438   -1.3961   -1.2978 H   0  0  0  0  0  0  0  0  0  0  0  0
    3.3286   -2.7465   -1.3663 H   0  0  0  0  0  0  0  0  0  0  0  0
    4.1144   -2.3474    0.1706 H   0  0  0  0  0  0  0  0  0  0  0  0
   -4.1149   -2.3467    0.1706 H   0  0  0  0  0  0  0  0  0  0  0  0
   -3.3285   -2.7467   -1.3656 H   0  0  0  0  0  0  0  0  0  0  0  0
   -4.5435   -1.3961   -1.2983 H   0  0  0  0  0  0  0  0  0  0  0  0
    3.4011    0.7445    1.5589 H   0  0  0  0  0  0  0  0  0  0  0  0
    3.8520    2.1249    0.4993 H   0  0  0  0  0  0  0  0  0  0  0  0
    4.7448    0.5800    0.3664 H   0  0  0  0  0  0  0  0  0  0  0  0
   -3.4011    0.7447    1.5587 H   0  0  0  0  0  0  0  0  0  0  0  0
   -4.7447    0.5802    0.3662 H   0  0  0  0  0  0  0  0  0  0  0  0
   -3.8519    2.1250    0.4990 H   0  0  0  0  0  0  0  0  0  0  0  0
    2.1488    3.0894   -0.4222 H   0  0  0  0  0  0  0  0  0  0  0  0
    1.3071    2.5245   -1.8892 H   0  0  0  0  0  0  0  0  0  0  0  0
   -1.3071    2.5246   -1.8892 H   0  0  0  0  0  0  0  0  0  0  0  0
   -2.1486    3.0895   -0.4221 H   0  0  0  0  0  0  0  0  0  0  0  0
    0.0001    4.2272   -0.6217 H   0  0  0  0  0  0  0  0  0  0  0  0
    0.0001    3.1831    0.8328 H   0  0  0  0  0  0  0  0  0  0  0  0
    0.0001   -2.8060    0.0347 H   0  0  0  0  0  0  0  0  0  0  0  0
  1 38  1  0  0  0  0
  3  1  1  0  0  0  0
  4  2  1  0  0  0  0
  7  3  1  1  0  0  0
  8  4  1  1  0  0  0
  9 18  1  6  0  0  0
  9  7  1  0  0  0  0
  9  5  1  0  0  0  0
  9 13  1  0  0  0  0
 10 19  1  6  0  0  0
 10  8  1  0  0  0  0
 10  6  1  0  0  0  0
 10 14  1  0  0  0  0
 11  7  1  0  0  0  0
 11 22  1  0  0  0  0
 12  8  1  0  0  0  0
 12 23  1  0  0  0  0
 13 26  1  0  0  0  0
 14 29  1  0  0  0  0
 15 32  1  0  0  0  0
 15  5  1  0  0  0  0
 15 17  1  0  0  0  0
 16 35  1  0  0  0  0
 16  6  1  0  0  0  0
 16 17  1  0  0  0  0
 17 37  1  0  0  0  0
 20 11  1  0  0  0  0
 21 11  1  0  0  0  0
 24 12  1  0  0  0  0
 25 12  1  0  0  0  0
 27 13  1  0  0  0  0
 28 13  1  0  0  0  0
 30 14  1  0  0  0  0
 31 14  1  0  0  0  0
 33 15  1  0  0  0  0
 34 16  1  0  0  0  0
 36 17  1  0  0  0  0
M  END
