1,12,23,34
q = -2.0, confidence = 0.666

 44 48  0  0  0  0  0  0  0  0999 V2000
   -0.8103    0.4218   -1.3725 N   0  0  0  0  0  2  0  0  0  0  0  0
   -0.5497   -0.2169   -2.5779 C   0  0  0  0  0  0  0  0  0  0  0  0
   -1.3086   -0.1608   -3.7713 C   0  0  0  0  0  0  0  0  0  0  0  0
   -2.2450    0.4029   -3.8067 H   0  0  0  0  0  0  0  0  0  0  0  0
   -0.8493   -0.7895   -4.9325 C   0  0  0  0  0  0  0  0  0  0  0  0
   -1.4530   -0.7325   -5.8504 H   0  0  0  0  0  0  0  0  0  0  0  0
    0.3777   -1.4773   -4.9361 C   0  0  0  0  0  0  0  0  0  0  0  0
    0.7363   -1.9652   -5.8544 H   0  0  0  0  0  0  0  0  0  0  0  0
    1.1543   -1.5414   -3.7749 C   0  0  0  0  0  0  0  0  0  0  0  0
    2.1166   -2.0638   -3.7969 H   0  0  0  0  0  0  0  0  0  0  0  0
    0.7037   -0.9319   -2.5842 C   0  0  0  0  0  0  0  0  0  0  0  0
    1.3872   -0.8781   -1.3717 N   0  0  0  0  0  2  0  0  0  0  0  0
    2.7674   -0.9072   -1.1536 C   0  0  0  0  0  0  0  0  0  0  0  0
    3.7101   -1.7822   -1.7270 C   0  0  0  0  0  0  0  0  0  0  0  0
    3.3848   -2.5621   -2.4260 H   0  0  0  0  0  0  0  0  0  0  0  0
    5.0570   -1.7082   -1.3463 C   0  0  0  0  0  0  0  0  0  0  0  0
    5.7825   -2.4069   -1.7884 H   0  0  0  0  0  0  0  0  0  0  0  0
    5.4737   -0.7850   -0.3706 C   0  0  0  0  0  0  0  0  0  0  0  0
    6.5250   -0.7636   -0.0473 H   0  0  0  0  0  0  0  0  0  0  0  0
    4.5543    0.0869    0.2259 C   0  0  0  0  0  0  0  0  0  0  0  0
    4.8834    0.7521    1.0326 H   0  0  0  0  0  0  0  0  0  0  0  0
    3.1989    0.0671   -0.1756 C   0  0  0  0  0  0  0  0  0  0  0  0
    2.1479    0.8512    0.2916 N   0  0  0  0  0  2  0  0  0  0  0  0
    2.1462    2.1010    0.8922 C   0  0  0  0  0  0  0  0  0  0  0  0
    3.2655    2.9067    1.2060 C   0  0  0  0  0  0  0  0  0  0  0  0
    4.2800    2.5467    1.0060 H   0  0  0  0  0  0  0  0  0  0  0  0
    3.0834    4.1910    1.7277 C   0  0  0  0  0  0  0  0  0  0  0  0
    3.9631    4.8074    1.9651 H   0  0  0  0  0  0  0  0  0  0  0  0
    1.7881    4.6976    1.9354 C   0  0  0  0  0  0  0  0  0  0  0  0
    1.6492    5.7088    2.3456 H   0  0  0  0  0  0  0  0  0  0  0  0
    0.6650    3.9276    1.6139 C   0  0  0  0  0  0  0  0  0  0  0  0
   -0.3338    4.3494    1.7630 H   0  0  0  0  0  0  0  0  0  0  0  0
    0.8194    2.6235    1.0965 C   0  0  0  0  0  0  0  0  0  0  0  0
   -0.1995    1.7636    0.6735 N   0  0  0  0  0  2  0  0  0  0  0  0
   -1.4303    2.1385    0.1204 C   0  0  0  0  0  0  0  0  0  0  0  0
   -2.3101    3.1310    0.5950 C   0  0  0  0  0  0  0  0  0  0  0  0
   -2.0820    3.6759    1.5183 H   0  0  0  0  0  0  0  0  0  0  0  0
   -3.5200    3.3691   -0.0680 C   0  0  0  0  0  0  0  0  0  0  0  0
   -4.2086    4.1345    0.3196 H   0  0  0  0  0  0  0  0  0  0  0  0
   -3.8763    2.6030   -1.1915 C   0  0  0  0  0  0  0  0  0  0  0  0
   -4.8484    2.7629   -1.6809 H   0  0  0  0  0  0  0  0  0  0  0  0
   -3.0282    1.5991   -1.6692 C   0  0  0  0  0  0  0  0  0  0  0  0
   -3.3710    0.9560   -2.4855 H   0  0  0  0  0  0  0  0  0  0  0  0
   -1.7837    1.3639   -1.0442 C   0  0  0  0  0  0  0  0  0  0  0  0
  1 44  1  0  0  0  0
  2  1  1  0  0  0  0
  3  2  2  0  0  0  0
  4  3  1  0  0  0  0
  5  3  1  0  0  0  0
  6  5  1  0  0  0  0
  7  5  2  0  0  0  0
  7  9  1  0  0  0  0
  8  7  1  0  0  0  0
  9 11  2  0  0  0  0
 10  9  1  0  0  0  0
 11  2  1  0  0  0  0
 11 12  1  0  0  0  0
 12 13  1  0  0  0  0
 13 22  1  0  0  0  0
 14 16  1  0  0  0  0
 14 13  2  0  0  0  0
 15 14  1  0  0  0  0
 16 18  2  0  0  0  0
 17 16  1  0  0  0  0
 18 19  1  0  0  0  0
 18 20  1  0  0  0  0
 20 21  1  0  0  0  0
 22 20  2  0  0  0  0
 22 23  1  0  0  0  0
 23 24  1  0  0  0  0
 24 33  2  0  0  0  0
 24 25  1  0  0  0  0
 25 27  2  0  0  0  0
 26 25  1  0  0  0  0
 27 29  1  0  0  0  0
 27 28  1  0  0  0  0
 29 30  1  0  0  0  0
 31 32  1  0  0  0  0
 31 29  2  0  0  0  0
 33 31  1  0  0  0  0
 34 33  1  0  0  0  0
 35 36  1  0  0  0  0
 35 34  1  0  0  0  0
 36 37  1  0  0  0  0
 38 39  1  0  0  0  0
 38 36  2  0  0  0  0
 40 38  1  0  0  0  0
 41 40  1  0  0  0  0
 42 40  2  0  0  0  0
 42 44  1  0  0  0  0
 43 42  1  0  0  0  0
 44 35  2  0  0  0  0
M  END
