1,2,3,4
q = -1.0

 55 55  0  0  1  0  0  0  0  0999 V2000
   -1.3542   -1.8183    0.1185 N   0  0  0  0  0  0  0  0  0  0  0  0
    1.3559   -1.1055   -0.6264 N   0  0  0  0  0  0  0  0  0  0  0  0
    1.3301    1.7439    0.8919 N   0  0  0  0  0  0  0  0  0  0  0  0
   -1.5577    1.3909    0.4820 N   0  0  0  0  0  0  0  0  0  0  0  0
   -2.6039   -1.5575   -0.6400 C   0  0  1  0  0  0  0  0  0  0  0  0
   -3.5833   -2.7349   -0.5445 C   0  0  0  0  0  0  0  0  0  0  0  0
   -0.4223   -2.7926   -0.4859 C   0  0  0  0  0  0  0  0  0  0  0  0
    0.5871   -2.1003   -1.4040 C   0  0  0  0  0  0  0  0  0  0  0  0
    2.4747   -0.4256   -1.3320 C   0  0  0  0  0  0  0  0  0  0  0  0
    1.9935    0.2067   -2.6419 C   0  0  0  0  0  0  0  0  0  0  0  0
    3.6206   -1.4219   -1.5978 C   0  0  0  0  0  0  0  0  0  0  0  0
    3.0809    0.6604   -0.3421 C   0  0  0  0  0  0  0  0  0  0  0  0
    2.2166    1.8440   -0.0948 C   0  0  1  0  0  3  0  0  0  0  0  0
    2.2152    3.0227   -1.0100 C   0  0  0  0  0  0  0  0  0  0  0  0
    0.3382    2.7547    1.2833 C   0  0  0  0  0  0  0  0  0  0  0  0
   -0.9149    2.7198    0.4105 C   0  0  0  0  0  0  0  0  0  0  0  0
   -2.6789    1.1301   -0.4980 C   0  0  0  0  0  0  0  0  0  0  0  0
   -2.1222    1.1685   -1.9264 C   0  0  0  0  0  0  0  0  0  0  0  0
   -3.7875    2.1864   -0.3288 C   0  0  0  0  0  0  0  0  0  0  0  0
   -3.2923   -0.2613   -0.1716 C   0  0  0  0  0  0  0  0  0  0  0  0
   -1.6020   -2.1291    1.0683 H   0  0  0  0  0  0  0  0  0  0  0  0
    1.8057   -1.6246    0.1647 H   0  0  0  0  0  0  0  0  0  0  0  0
    1.4448    0.9921    1.6180 H   0  0  0  0  0  0  0  0  0  0  0  0
   -1.9669    1.2947    1.4243 H   0  0  0  0  0  0  0  0  0  0  0  0
   -2.3028   -1.4352   -1.7019 H   0  0  0  0  0  0  0  0  0  0  0  0
   -3.9579   -2.8511    0.4942 H   0  0  0  0  0  0  0  0  0  0  0  0
   -3.1079   -3.6893   -0.8442 H   0  0  0  0  0  0  0  0  0  0  0  0
   -4.4603   -2.5823   -1.2036 H   0  0  0  0  0  0  0  0  0  0  0  0
    0.1259   -3.2964    0.3363 H   0  0  0  0  0  0  0  0  0  0  0  0
   -0.9523   -3.5864   -1.0562 H   0  0  0  0  0  0  0  0  0  0  0  0
    1.2431   -2.8769   -1.8562 H   0  0  0  0  0  0  0  0  0  0  0  0
    0.0613   -1.5938   -2.2393 H   0  0  0  0  0  0  0  0  0  0  0  0
    2.7745    0.8663   -3.0666 H   0  0  0  0  0  0  0  0  0  0  0  0
    1.7788   -0.5678   -3.4031 H   0  0  0  0  0  0  0  0  0  0  0  0
    1.0701    0.8023   -2.4960 H   0  0  0  0  0  0  0  0  0  0  0  0
    3.2906   -2.2333   -2.2757 H   0  0  0  0  0  0  0  0  0  0  0  0
    3.9691   -1.8800   -0.6504 H   0  0  0  0  0  0  0  0  0  0  0  0
    4.4786   -0.9163   -2.0823 H   0  0  0  0  0  0  0  0  0  0  0  0
    3.3062    0.1295    0.6071 H   0  0  0  0  0  0  0  0  0  0  0  0
    4.0399    0.9929   -0.7826 H   0  0  0  0  0  0  0  0  0  0  0  0
    2.0434    3.9745   -0.4684 H   0  0  0  0  0  0  0  0  0  0  0  0
    1.4223    2.9437   -1.7867 H   0  0  0  0  0  0  0  0  0  0  0  0
    3.1791    3.0935   -1.5455 H   0  0  0  0  0  0  0  0  0  0  0  0
    0.0819    2.5367    2.3402 H   0  0  0  0  0  0  0  0  0  0  0  0
    0.7944    3.7646    1.2559 H   0  0  0  0  0  0  0  0  0  0  0  0
   -0.6425    2.9187   -0.6433 H   0  0  0  0  0  0  0  0  0  0  0  0
   -1.5904    3.5435    0.7309 H   0  0  0  0  0  0  0  0  0  0  0  0
   -1.8612    2.1968   -2.2447 H   0  0  0  0  0  0  0  0  0  0  0  0
   -2.8790    0.7946   -2.6428 H   0  0  0  0  0  0  0  0  0  0  0  0
   -1.2150    0.5363   -2.0100 H   0  0  0  0  0  0  0  0  0  0  0  0
   -4.2106    2.1639    0.6970 H   0  0  0  0  0  0  0  0  0  0  0  0
   -4.6175    1.9928   -1.0354 H   0  0  0  0  0  0  0  0  0  0  0  0
   -3.4210    3.2112   -0.5331 H   0  0  0  0  0  0  0  0  0  0  0  0
   -3.4771   -0.3265    0.9253 H   0  0  0  0  0  0  0  0  0  0  0  0
   -4.3024   -0.2645   -0.6284 H   0  0  0  0  0  0  0  0  0  0  0  0
  1 21  1  0  0  0  0
  2 22  1  0  0  0  0
  3 15  1  0  0  0  0
  3 23  1  0  0  0  0
  4 24  1  0  0  0  0
  5 25  1  6  0  0  0
  5  6  1  0  0  0  0
  5 20  1  0  0  0  0
  5  1  1  0  0  0  0
  6 26  1  0  0  0  0
  7  1  1  0  0  0  0
  7 29  1  0  0  0  0
  8  2  1  0  0  0  0
  8  7  1  0  0  0  0
  9  2  1  0  0  0  0
  9 12  1  0  0  0  0
 10 35  1  0  0  0  0
 10  9  1  0  0  0  0
 11  9  1  0  0  0  0
 11 37  1  0  0  0  0
 12 13  1  0  0  0  0
 12 39  1  0  0  0  0
 13 14  1  6  0  0  0
 13  3  1  0  0  0  0
 14 41  1  0  0  0  0
 15 44  1  0  0  0  0
 16  4  1  0  0  0  0
 16 47  1  0  0  0  0
 16 15  1  0  0  0  0
 17 19  1  0  0  0  0
 17 20  1  0  0  0  0
 17  4  1  0  0  0  0
 18 17  1  0  0  0  0
 19 51  1  0  0  0  0
 20 54  1  0  0  0  0
 27  6  1  0  0  0  0
 28  6  1  0  0  0  0
 30  7  1  0  0  0  0
 31  8  1  0  0  0  0
 32  8  1  0  0  0  0
 33 10  1  0  0  0  0
 34 10  1  0  0  0  0
 36 11  1  0  0  0  0
 38 11  1  0  0  0  0
 40 12  1  0  0  0  0
 42 14  1  0  0  0  0
 43 14  1  0  0  0  0
 45 15  1  0  0  0  0
 46 16  1  0  0  0  0
 48 18  1  0  0  0  0
 49 18  1  0  0  0  0
 50 18  1  0  0  0  0
 52 19  1  0  0  0  0
 53 19  1  0  0  0  0
 55 20  1  0  0  0  0
M  END
