1,2,3,4
q = -2.0, confidence = 0.708

 82 90  0  0  0  0  0  0  0  0999 V2000
    1.2051   -0.2507    0.0845 N   0  0  0  0  0  0  0  0  0  0  0  0
   -2.6381    0.3009    0.0741 N   0  0  0  0  0  0  0  0  0  0  0  0
   -0.9967   -1.8892   -0.0597 N   0  0  0  0  0  2  0  0  0  0  0  0
   -0.4356    1.9303   -0.0182 N   0  0  0  0  0  0  0  0  0  0  0  0
    1.2546   -2.6900    0.6004 C   0  0  0  0  0  0  0  0  0  0  0  0
   -3.4186   -1.9584   -0.5746 C   0  0  0  0  0  0  0  0  0  0  0  0
    1.8415   -1.4112    0.5198 C   0  0  0  0  0  0  0  0  0  0  0  0
    1.9786    2.0023   -0.5673 C   0  0  0  0  0  0  0  0  0  0  0  0
   -4.5692   -2.8163   -0.9835 C   0  0  0  0  0  0  0  0  0  0  0  0
    2.2010    0.6822   -0.1247 C   0  0  0  0  0  0  0  0  0  0  0  0
    3.5774    3.9618   -0.3748 C   0  0  0  0  0  0  0  0  0  0  0  0
    3.0513    4.2854    0.5356 H   0  0  0  0  0  0  0  0  0  0  0  0
   -2.7104    2.7235    0.5764 C   0  0  0  0  0  0  0  0  0  0  0  0
    3.1267    2.8115   -1.0608 C   0  0  0  0  0  0  0  0  0  0  0  0
   -0.0724   -2.8906    0.1966 C   0  0  0  0  0  0  0  0  0  0  0  0
    3.5043    0.1129    0.2375 C   0  0  0  0  0  0  0  0  0  0  0  0
   -3.3003    1.4552    0.4660 C   0  0  0  0  0  0  0  0  0  0  0  0
   -5.5449   -3.2278   -0.0505 C   0  0  0  0  0  0  0  0  0  0  0  0
   -5.4518   -2.9100    0.9989 H   0  0  0  0  0  0  0  0  0  0  0  0
    2.0750   -3.8621    1.0103 C   0  0  0  0  0  0  0  0  0  0  0  0
   -3.6334   -0.6272   -0.1899 C   0  0  0  0  0  0  0  0  0  0  0  0
    4.7924    0.7554    0.2348 C   0  0  0  0  0  0  0  0  0  0  0  0
    4.8328    1.8502    0.3084 H   0  0  0  0  0  0  0  0  0  0  0  0
    3.8335    2.3836   -2.2071 C   0  0  0  0  0  0  0  0  0  0  0  0
    3.4884    1.4871   -2.7436 H   0  0  0  0  0  0  0  0  0  0  0  0
   -4.7265    1.2188    0.5262 C   0  0  0  0  0  0  0  0  0  0  0  0
   -5.4702    1.9546    0.8471 H   0  0  0  0  0  0  0  0  0  0  0  0
    4.7170    4.6517   -0.8138 C   0  0  0  0  0  0  0  0  0  0  0  0
    5.0707    5.5318   -0.2558 H   0  0  0  0  0  0  0  0  0  0  0  0
    0.7047    2.5819   -0.4679 C   0  0  0  0  0  0  0  0  0  0  0  0
   -6.6113   -4.0474   -0.4488 C   0  0  0  0  0  0  0  0  0  0  0  0
   -7.3619   -4.3639    0.2915 H   0  0  0  0  0  0  0  0  0  0  0  0
    6.3022   -2.4400   -0.2367 N   0  0  0  0  0  0  0  0  0  0  0  0
   -1.3700    2.9237    0.2058 C   0  0  0  0  0  3  0  0  0  0  0  0
   -4.6800   -3.2531   -2.3206 C   0  0  0  0  0  0  0  0  0  0  0  0
   -3.9200   -2.9379   -3.0514 H   0  0  0  0  0  0  0  0  0  0  0  0
    3.2383   -1.1791    0.6780 C   0  0  0  0  0  0  0  0  0  0  0  0
    3.9489   -1.8952    1.0974 H   0  0  0  0  0  0  0  0  0  0  0  0
   -3.5238    3.9140    0.9538 C   0  0  0  0  0  0  0  0  0  0  0  0
    0.4430    3.9977   -0.6172 C   0  0  0  0  0  0  0  0  0  0  0  0
    1.1540    4.7302   -1.0110 H   0  0  0  0  0  0  0  0  0  0  0  0
   -2.1463   -2.5427   -0.4699 C   0  0  0  0  0  0  0  0  0  0  0  0
    6.0233    0.1262    0.1433 C   0  0  0  0  0  0  0  0  0  0  0  0
   -4.9364   -0.0521    0.0582 C   0  0  0  0  0  0  0  0  0  0  0  0
   -5.8873   -0.5744   -0.0861 H   0  0  0  0  0  0  0  0  0  0  0  0
    6.1775   -1.2848   -0.0576 C   0  0  0  0  0  0  0  0  0  0  0  0
    8.2060    1.5527    0.2199 N   0  0  0  0  0  0  0  0  0  0  0  0
   -0.8242    4.2166   -0.1426 C   0  0  0  0  0  0  0  0  0  0  0  0
   -1.3735    5.1613   -0.0759 H   0  0  0  0  0  0  0  0  0  0  0  0
   -6.7161   -4.4712   -1.7832 C   0  0  0  0  0  0  0  0  0  0  0  0
   -7.5525   -5.1151   -2.0945 H   0  0  0  0  0  0  0  0  0  0  0  0
   -1.9191   -3.9701   -0.5384 C   0  0  0  0  0  0  0  0  0  0  0  0
   -2.6690   -4.7046   -0.8495 H   0  0  0  0  0  0  0  0  0  0  0  0
    5.4183    4.2098   -1.9476 C   0  0  0  0  0  0  0  0  0  0  0  0
    6.3210    4.7429   -2.2809 H   0  0  0  0  0  0  0  0  0  0  0  0
    3.2724   -4.2024    0.3407 C   0  0  0  0  0  0  0  0  0  0  0  0
    3.6044   -3.6100   -0.5238 H   0  0  0  0  0  0  0  0  0  0  0  0
    3.6228   -6.0757    1.8509 C   0  0  0  0  0  0  0  0  0  0  0  0
    4.2293   -6.9316    2.1838 H   0  0  0  0  0  0  0  0  0  0  0  0
    7.2260    0.9049    0.1903 C   0  0  0  0  0  0  0  0  0  0  0  0
    2.4256   -5.7595    2.5137 C   0  0  0  0  0  0  0  0  0  0  0  0
    2.0912   -6.3655    3.3696 H   0  0  0  0  0  0  0  0  0  0  0  0
    4.9686    3.0788   -2.6470 C   0  0  0  0  0  0  0  0  0  0  0  0
    5.5127    2.7282   -3.5368 H   0  0  0  0  0  0  0  0  0  0  0  0
   -0.6410   -4.1881   -0.0955 C   0  0  0  0  0  0  0  0  0  0  0  0
   -0.1066   -5.1377    0.0085 H   0  0  0  0  0  0  0  0  0  0  0  0
   -3.1901    4.6481    2.1131 C   0  0  0  0  0  0  0  0  0  0  0  0
   -2.3454    4.3119    2.7330 H   0  0  0  0  0  0  0  0  0  0  0  0
    1.6583   -4.6623    2.0989 C   0  0  0  0  0  0  0  0  0  0  0  0
    0.7304   -4.4018    2.6300 H   0  0  0  0  0  0  0  0  0  0  0  0
    4.0431   -5.2942    0.7634 C   0  0  0  0  0  0  0  0  0  0  0  0
    4.9815   -5.5233    0.2373 H   0  0  0  0  0  0  0  0  0  0  0  0
   -3.9279    5.7835    2.4780 C   0  0  0  0  0  0  0  0  0  0  0  0
   -3.6591    6.3392    3.3892 H   0  0  0  0  0  0  0  0  0  0  0  0
   -5.7465   -4.0735   -2.7172 C   0  0  0  0  0  0  0  0  0  0  0  0
   -5.8214   -4.4023   -3.7649 H   0  0  0  0  0  0  0  0  0  0  0  0
   -4.6049    4.3560    0.1601 C   0  0  0  0  0  0  0  0  0  0  0  0
   -4.8523    3.8097   -0.7623 H   0  0  0  0  0  0  0  0  0  0  0  0
   -5.0064    6.2083    1.6861 C   0  0  0  0  0  0  0  0  0  0  0  0
   -5.5845    7.1003    1.9714 H   0  0  0  0  0  0  0  0  0  0  0  0
   -5.3400    5.4934    0.5247 C   0  0  0  0  0  0  0  0  0  0  0  0
   -6.1749    5.8289   -0.1092 H   0  0  0  0  0  0  0  0  0  0  0  0
  1  7  2  0  0  0  0
  2 17  1  0  0  0  0
  3 15  1  0  0  0  0
  4 34  1  0  0  0  0
  5 20  1  0  0  0  0
  6 42  2  0  0  0  0
  6 21  1  0  0  0  0
  7  5  1  0  0  0  0
  7 37  1  0  0  0  0
  8 30  1  0  0  0  0
  8 10  2  0  0  0  0
  9  6  1  0  0  0  0
  9 18  1  0  0  0  0
 10  1  1  0  0  0  0
 10 16  1  0  0  0  0
 11 12  1  0  0  0  0
 13 39  1  0  0  0  0
 14  8  1  0  0  0  0
 14 11  2  0  0  0  0
 15  5  2  0  0  0  0
 16 37  2  0  0  0  0
 17 26  1  0  0  0  0
 17 13  2  0  0  0  0
 18 19  1  0  0  0  0
 20 69  1  0  0  0  0
 21 44  1  0  0  0  0
 21  2  2  0  0  0  0
 22 16  1  0  0  0  0
 22 23  1  0  0  0  0
 24 14  1  0  0  0  0
 25 24  1  0  0  0  0
 26 27  1  0  0  0  0
 28 11  1  0  0  0  0
 28 29  1  0  0  0  0
 30  4  2  0  0  0  0
 31 18  2  0  0  0  0
 31 32  1  0  0  0  0
 33 46  3  0  0  0  0
 34 13  1  0  0  0  0
 35  9  2  0  0  0  0
 36 35  1  0  0  0  0
 37 38  1  0  0  0  0
 39 67  1  0  0  0  0
 40 30  1  0  0  0  0
 40 48  2  0  0  0  0
 41 40  1  0  0  0  0
 42  3  1  0  0  0  0
 43 60  1  0  0  0  0
 43 22  2  0  0  0  0
 44 26  2  0  0  0  0
 45 44  1  0  0  0  0
 46 43  1  0  0  0  0
 48 49  1  0  0  0  0
 48 34  1  0  0  0  0
 50 31  1  0  0  0  0
 51 50  1  0  0  0  0
 52 42  1  0  0  0  0
 52 65  2  0  0  0  0
 53 52  1  0  0  0  0
 54 28  2  0  0  0  0
 55 54  1  0  0  0  0
 56 71  1  0  0  0  0
 56 20  2  0  0  0  0
 57 56  1  0  0  0  0
 58 59  1  0  0  0  0
 58 61  1  0  0  0  0
 60 47  3  0  0  0  0
 61 62  1  0  0  0  0
 63 24  2  0  0  0  0
 63 54  1  0  0  0  0
 64 63  1  0  0  0  0
 65 66  1  0  0  0  0
 65 15  1  0  0  0  0
 67 73  2  0  0  0  0
 67 68  1  0  0  0  0
 69 61  2  0  0  0  0
 69 70  1  0  0  0  0
 71 58  2  0  0  0  0
 72 71  1  0  0  0  0
 73 74  1  0  0  0  0
 75 35  1  0  0  0  0
 75 50  2  0  0  0  0
 76 75  1  0  0  0  0
 77 81  1  0  0  0  0
 77 39  2  0  0  0  0
 78 77  1  0  0  0  0
 79 80  1  0  0  0  0
 79 73  1  0  0  0  0
 81 79  2  0  0  0  0
 82 81  1  0  0  0  0
M  END
