2,3,4,5
q = 0.0, confidence = 0.684

 41 42  0  0  1  0  0  0  0  0999 V2000
    0.6599   -0.2000   -2.8116 O   0  0  0  0  0  1  0  0  0  0  0  0
   -0.0643   -0.1016   -1.8039 N   0  0  0  0  0  2  0  0  0  0  0  0
   -0.0067    1.9019   -0.0507 N   0  0  0  0  0  0  0  0  0  0  0  0
   -1.9011   -0.3696    0.0074 N   0  0  0  0  0  2  0  0  0  0  0  0
    2.2220   -0.4715    0.0262 N   0  0  0  0  0  2  0  0  0  0  0  0
   -0.7855    2.4287    1.1142 C   0  0  0  0  0  0  0  0  0  0  0  0
   -0.9567    3.9458    1.1918 C   0  0  0  0  0  0  0  0  0  0  0  0
   -0.7051    2.1602   -1.3492 C   0  0  0  0  0  0  0  0  0  0  0  0
   -1.2599    0.8427   -1.9342 C   0  0  2  0  0  0  0  0  0  0  0  0
    1.3678    2.4664   -0.0496 C   0  0  0  0  0  0  0  0  0  0  0  0
    2.3481    1.7711   -1.0051 C   0  0  0  0  0  0  0  0  0  0  0  0
   -2.3680    0.2590   -1.1136 C   0  0  2  0  0  3  0  0  0  0  0  0
   -3.7320    0.3211   -1.4093 C   0  0  0  0  0  0  0  0  0  0  0  0
   -4.6462   -0.2777   -0.5273 C   0  0  0  0  0  0  0  0  0  0  0  0
   -4.1578   -0.9231    0.6182 C   0  0  0  0  0  0  0  0  0  0  0  0
   -2.7803   -0.9561    0.8546 C   0  0  0  0  0  0  0  0  0  0  0  0
    3.0053    0.5317   -0.4540 C   0  0  1  0  0  3  0  0  0  0  0  0
    4.4066    0.4343   -0.4133 C   0  0  0  0  0  0  0  0  0  0  0  0
    5.0203   -0.6975    0.1358 C   0  0  0  0  0  0  0  0  0  0  0  0
    4.2006   -1.7091    0.6511 C   0  0  0  0  0  0  0  0  0  0  0  0
    2.8142   -1.5587    0.5834 C   0  0  0  0  0  0  0  0  0  0  0  0
   -0.2689    2.0607    2.0191 H   0  0  0  0  0  0  0  0  0  0  0  0
   -1.7733    1.9306    1.0945 H   0  0  0  0  0  0  0  0  0  0  0  0
    0.0056    4.4771    1.3290 H   0  0  0  0  0  0  0  0  0  0  0  0
   -1.5885    4.1851    2.0698 H   0  0  0  0  0  0  0  0  0  0  0  0
   -1.4604    4.3743    0.3012 H   0  0  0  0  0  0  0  0  0  0  0  0
    0.0134    2.5771   -2.0820 H   0  0  0  0  0  0  0  0  0  0  0  0
   -1.5141    2.9064   -1.2214 H   0  0  0  0  0  0  0  0  0  0  0  0
   -1.5356    0.9720   -2.9999 H   0  0  0  0  0  0  0  0  0  0  0  0
    1.7408    2.3915    0.9919 H   0  0  0  0  0  0  0  0  0  0  0  0
    1.3245    3.5481   -0.3096 H   0  0  0  0  0  0  0  0  0  0  0  0
    1.8533    1.5158   -1.9672 H   0  0  0  0  0  0  0  0  0  0  0  0
    3.1469    2.4960   -1.2552 H   0  0  0  0  0  0  0  0  0  0  0  0
   -4.0693    0.8293   -2.3241 H   0  0  0  0  0  0  0  0  0  0  0  0
   -5.7254   -0.2452   -0.7366 H   0  0  0  0  0  0  0  0  0  0  0  0
   -4.8352   -1.4102    1.3331 H   0  0  0  0  0  0  0  0  0  0  0  0
   -2.3542   -1.4498    1.7391 H   0  0  0  0  0  0  0  0  0  0  0  0
    5.0084    1.2633   -0.8134 H   0  0  0  0  0  0  0  0  0  0  0  0
    6.1168   -0.7804    0.1698 H   0  0  0  0  0  0  0  0  0  0  0  0
    4.6211   -2.6161    1.1080 H   0  0  0  0  0  0  0  0  0  0  0  0
    2.1199   -2.3256    0.9536 H   0  0  0  0  0  0  0  0  0  0  0  0
  1  2  1  0  0  0  0
  3 10  1  0  0  0  0
  3  6  1  0  0  0  0
  4 16  1  0  0  0  0
  5 21  1  0  0  0  0
  6  7  1  0  0  0  0
  6 22  1  0  0  0  0
  7 24  1  0  0  0  0
  7 25  1  0  0  0  0
  8 28  1  0  0  0  0
  8  3  1  0  0  0  0
  9 29  1  6  0  0  0
  9  2  1  0  0  0  0
  9  8  1  0  0  0  0
 10 30  1  0  0  0  0
 11 10  1  0  0  0  0
 12  9  1  1  0  0  0
 12  4  1  0  0  0  0
 13 12  1  0  0  0  0
 13 14  2  0  0  0  0
 14 15  1  0  0  0  0
 15 16  2  0  0  0  0
 15 36  1  0  0  0  0
 16 37  1  0  0  0  0
 17 11  1  1  0  0  0
 17 18  1  0  0  0  0
 17  5  1  0  0  0  0
 18 19  2  0  0  0  0
 19 39  1  0  0  0  0
 19 20  1  0  0  0  0
 20 40  1  0  0  0  0
 21 20  2  0  0  0  0
 21 41  1  0  0  0  0
 23  6  1  0  0  0  0
 26  7  1  0  0  0  0
 27  8  1  0  0  0  0
 31 10  1  0  0  0  0
 32 11  1  0  0  0  0
 33 11  1  0  0  0  0
 34 13  1  0  0  0  0
 35 14  1  0  0  0  0
 38 18  1  0  0  0  0
M  END
