16,17,18,19
q = -1.0

 64 71  0  0  1  0  0  0  0  0999 V2000
    4.8955   -2.3994    2.0957 F   0  0  0  0  0  0  0  0  0  0  0  0
    7.5966   -2.6531    2.0323 F   0  0  0  0  0  0  0  0  0  0  0  0
    9.0141   -1.7118   -0.1124 F   0  0  0  0  0  0  0  0  0  0  0  0
    7.7102   -0.5217   -2.2048 F   0  0  0  0  0  0  0  0  0  0  0  0
    5.0074   -0.2839   -2.1660 F   0  0  0  0  0  0  0  0  0  0  0  0
    0.9475    4.0078    2.1813 F   0  0  0  0  0  0  0  0  0  0  0  0
    0.9536    6.7241    2.1723 F   0  0  0  0  0  0  0  0  0  0  0  0
   -0.0000    8.0904    0.0001 F   0  0  0  0  0  0  0  0  0  0  0  0
   -0.9536    6.7243   -2.1722 F   0  0  0  0  0  0  0  0  0  0  0  0
   -0.9475    4.0080   -2.1814 F   0  0  0  0  0  0  0  0  0  0  0  0
   -5.0067   -0.2836    2.1662 F   0  0  0  0  0  0  0  0  0  0  0  0
   -7.7094   -0.5215    2.2060 F   0  0  0  0  0  0  0  0  0  0  0  0
   -9.0141   -1.7117    0.1141 F   0  0  0  0  0  0  0  0  0  0  0  0
   -7.5973   -2.6532   -2.0310 F   0  0  0  0  0  0  0  0  0  0  0  0
   -4.8962   -2.3995   -2.0954 F   0  0  0  0  0  0  0  0  0  0  0  0
    1.4609    0.4182    0.0034 N   0  0  0  0  0  2  0  0  0  0  0  0
   -1.4609    0.4182   -0.0040 N   0  0  0  0  0  0  0  0  0  0  0  0
   -1.2604   -2.4193   -0.0190 N   0  0  0  0  0  2  0  0  0  0  0  0
    1.2603   -2.4193    0.0178 N   0  0  0  0  0  2  0  0  0  0  0  0
    3.3767   -1.2102   -0.0059 C   0  0  0  0  0  0  0  0  0  0  0  0
    2.8131    0.0997    0.0036 C   0  0  2  0  0  3  0  0  0  0  0  0
    3.5163    1.3628    0.0162 C   0  0  0  0  0  0  0  0  0  0  0  0
    4.6061    1.4702    0.0313 H   0  0  0  0  0  0  0  0  0  0  0  0
    2.5836    2.3832    0.0086 C   0  0  0  0  0  0  0  0  0  0  0  0
    2.7842    3.4596    0.0046 H   0  0  0  0  0  0  0  0  0  0  0  0
    1.2688    1.7840    0.0064 C   0  0  0  0  0  0  0  0  0  0  0  0
    0.0000    2.4283   -0.0002 C   0  0  0  0  0  0  0  0  0  0  0  0
   -1.2688    1.7840   -0.0067 C   0  0  0  0  0  0  0  0  0  0  0  0
   -2.5835    2.3832   -0.0087 C   0  0  0  0  0  0  0  0  0  0  0  0
   -2.7841    3.4596   -0.0046 H   0  0  0  0  0  0  0  0  0  0  0  0
   -3.5162    1.3629   -0.0163 C   0  0  0  0  0  0  0  0  0  0  0  0
   -4.6060    1.4703   -0.0312 H   0  0  0  0  0  0  0  0  0  0  0  0
   -2.8131    0.0997   -0.0040 C   0  0  0  0  0  3  0  0  0  0  0  0
   -3.3767   -1.2101    0.0056 C   0  0  0  0  0  0  0  0  0  0  0  0
   -2.6268   -2.4230    0.0001 C   0  0  0  0  0  0  0  0  0  0  0  0
   -3.0022   -3.8169    0.0273 C   0  0  0  0  0  0  0  0  0  0  0  0
   -4.0310   -4.1930    0.0502 H   0  0  0  0  0  0  0  0  0  0  0  0
   -1.8345   -4.5882    0.0216 C   0  0  0  0  0  0  0  0  0  0  0  0
   -1.7755   -5.6822    0.0375 H   0  0  0  0  0  0  0  0  0  0  0  0
   -0.7185   -3.6898   -0.0024 C   0  0  0  0  0  0  0  0  0  0  0  0
    0.7185   -3.6898    0.0015 C   0  0  0  0  0  0  0  0  0  0  0  0
    1.8345   -4.5882   -0.0219 C   0  0  0  0  0  0  0  0  0  0  0  0
    1.7754   -5.6822   -0.0376 H   0  0  0  0  0  0  0  0  0  0  0  0
    3.0022   -3.8169   -0.0274 C   0  0  0  0  0  0  0  0  0  0  0  0
    4.0309   -4.1931   -0.0498 H   0  0  0  0  0  0  0  0  0  0  0  0
    2.6268   -2.4231   -0.0007 C   0  0  0  0  0  0  0  0  0  0  0  0
    4.8592   -1.3285   -0.0309 C   0  0  0  0  0  0  0  0  0  0  0  0
    5.5595   -1.9411    1.0287 C   0  0  0  0  0  0  0  0  0  0  0  0
    6.9574   -2.0763    1.0117 C   0  0  0  0  0  0  0  0  0  0  0  0
    7.6869   -1.5903   -0.0868 C   0  0  0  0  0  0  0  0  0  0  0  0
    7.0164   -0.9745   -1.1576 C   0  0  0  0  0  0  0  0  0  0  0  0
    5.6176   -0.8556   -1.1217 C   0  0  0  0  0  0  0  0  0  0  0  0
    0.0000    3.9182   -0.0001 C   0  0  0  0  0  0  0  0  0  0  0  0
    0.4843    4.6499    1.1028 C   0  0  0  0  0  0  0  0  0  0  0  0
    0.4925    6.0543    1.1131 C   0  0  0  0  0  0  0  0  0  0  0  0
   -0.0000    6.7573    0.0001 C   0  0  0  0  0  0  0  0  0  0  0  0
   -0.4925    6.0545   -1.1130 C   0  0  0  0  0  0  0  0  0  0  0  0
   -0.4843    4.6500   -1.1029 C   0  0  0  0  0  0  0  0  0  0  0  0
   -4.8592   -1.3284    0.0311 C   0  0  0  0  0  0  0  0  0  0  0  0
   -5.6172   -0.8554    1.1221 C   0  0  0  0  0  0  0  0  0  0  0  0
   -7.0160   -0.9744    1.1585 C   0  0  0  0  0  0  0  0  0  0  0  0
   -7.6869   -1.5903    0.0880 C   0  0  0  0  0  0  0  0  0  0  0  0
   -6.9577   -2.0764   -1.0107 C   0  0  0  0  0  0  0  0  0  0  0  0
   -5.5599   -1.9412   -1.0281 C   0  0  0  0  0  0  0  0  0  0  0  0
  3 50  1  0  0  0  0
  4 51  1  0  0  0  0
  5 52  1  0  0  0  0
  9 57  1  0  0  0  0
 10 58  1  0  0  0  0
 14 63  1  0  0  0  0
 15 64  1  0  0  0  0
 16 21  1  0  0  0  0
 16 26  1  0  0  0  0
 17 33  1  0  0  0  0
 18 40  1  0  0  0  0
 18 35  1  0  0  0  0
 20 46  2  0  0  0  0
 21 20  1  1  0  0  0
 21 22  1  0  0  0  0
 22 23  1  0  0  0  0
 24 22  2  0  0  0  0
 25 24  1  0  0  0  0
 26 24  1  0  0  0  0
 27 53  1  0  0  0  0
 27 26  2  0  0  0  0
 28 17  2  0  0  0  0
 28 27  1  0  0  0  0
 29 28  1  0  0  0  0
 29 30  1  0  0  0  0
 31 29  2  0  0  0  0
 31 33  1  0  0  0  0
 32 31  1  0  0  0  0
 33 34  1  0  0  0  0
 34 59  1  0  0  0  0
 35 34  2  0  0  0  0
 35 36  1  0  0  0  0
 36 37  1  0  0  0  0
 38 36  2  0  0  0  0
 38 39  1  0  0  0  0
 40 41  2  0  0  0  0
 40 38  1  0  0  0  0
 41 19  1  0  0  0  0
 42 41  1  0  0  0  0
 43 42  1  0  0  0  0
 44 42  2  0  0  0  0
 44 46  1  0  0  0  0
 45 44  1  0  0  0  0
 46 19  1  0  0  0  0
 47 20  1  0  0  0  0
 47 48  1  0  0  0  0
 48  1  1  0  0  0  0
 49 48  2  0  0  0  0
 49  2  1  0  0  0  0
 50 49  1  0  0  0  0
 51 52  1  0  0  0  0
 51 50  2  0  0  0  0
 52 47  2  0  0  0  0
 53 54  1  0  0  0  0
 54 55  2  0  0  0  0
 54  6  1  0  0  0  0
 55  7  1  0  0  0  0
 56  8  1  0  0  0  0
 56 55  1  0  0  0  0
 57 58  1  0  0  0  0
 57 56  2  0  0  0  0
 58 53  2  0  0  0  0
 59 60  1  0  0  0  0
 60 61  2  0  0  0  0
 60 11  1  0  0  0  0
 61 12  1  0  0  0  0
 62 13  1  0  0  0  0
 62 61  1  0  0  0  0
 63 62  2  0  0  0  0
 64 63  1  0  0  0  0
 64 59  2  0  0  0  0
M  END
