3,5,6,7
q = -2.0, confidence = 0.822

 34 35  0  0  1  0  0  0  0  0999 V2000
   -3.5327    1.9451    0.1817 O   0  0  0  0  0  0  0  0  0  0  0  0
    3.5327    1.9451   -0.1822 O   0  0  0  0  0  0  0  0  0  0  0  0
   -1.5198   -1.0426   -0.0231 N   0  0  0  0  0  2  0  0  0  0  0  0
   -3.7388   -1.1280   -0.0604 N   0  0  0  0  0  0  0  0  0  0  0  0
   -1.2399    1.4774    0.0591 N   0  0  0  0  0  2  0  0  0  0  0  0
    1.2398    1.4774   -0.0587 N   0  0  0  0  0  2  0  0  0  0  0  0
    1.5198   -1.0425    0.0235 N   0  0  0  0  0  2  0  0  0  0  0  0
    3.7388   -1.1280    0.0601 N   0  0  0  0  0  0  0  0  0  0  0  0
   -2.6520   -0.3133   -0.0117 C   0  0  1  0  0  3  0  0  0  0  0  0
   -1.8939   -2.3639   -0.0879 C   0  0  0  0  0  0  0  0  0  0  0  0
   -1.1692   -3.1836   -0.1164 H   0  0  0  0  0  0  0  0  0  0  0  0
   -3.2790   -2.4330   -0.1111 C   0  0  0  0  0  0  0  0  0  0  0  0
   -3.9633   -3.2856   -0.1589 H   0  0  0  0  0  0  0  0  0  0  0  0
   -5.1253   -0.6768   -0.0613 C   0  0  0  0  0  0  0  0  0  0  0  0
   -5.6723   -1.1295    0.7886 H   0  0  0  0  0  0  0  0  0  0  0  0
   -5.6210   -0.9647   -1.0093 H   0  0  0  0  0  0  0  0  0  0  0  0
   -5.1090    0.4264    0.0396 H   0  0  0  0  0  0  0  0  0  0  0  0
   -2.5570    1.1786    0.0829 C   0  0  0  0  0  0  0  0  0  0  0  0
   -0.7129    2.8170    0.2816 C   0  0  0  0  0  0  0  0  0  0  0  0
   -0.6931    3.0370    1.3747 H   0  0  0  0  0  0  0  0  0  0  0  0
   -1.3633    3.5834   -0.1915 H   0  0  0  0  0  0  0  0  0  0  0  0
    0.7129    2.8170   -0.2813 C   0  0  0  0  0  0  0  0  0  0  0  0
    0.6931    3.0370   -1.3744 H   0  0  0  0  0  0  0  0  0  0  0  0
    1.3632    3.5835    0.1917 H   0  0  0  0  0  0  0  0  0  0  0  0
    2.5569    1.1786   -0.0830 C   0  0  0  0  0  0  0  0  0  0  0  0
    2.6520   -0.3133    0.0116 C   0  0  1  0  0  3  0  0  0  0  0  0
    3.2791   -2.4329    0.1111 C   0  0  0  0  0  0  0  0  0  0  0  0
    3.9634   -3.2856    0.1588 H   0  0  0  0  0  0  0  0  0  0  0  0
    1.8939   -2.3639    0.0883 C   0  0  0  0  0  0  0  0  0  0  0  0
    1.1693   -3.1836    0.1171 H   0  0  0  0  0  0  0  0  0  0  0  0
    5.1253   -0.6768    0.0604 C   0  0  0  0  0  0  0  0  0  0  0  0
    5.1090    0.4265   -0.0401 H   0  0  0  0  0  0  0  0  0  0  0  0
    5.6719   -1.1291   -0.7900 H   0  0  0  0  0  0  0  0  0  0  0  0
    5.6215   -0.9651    1.0080 H   0  0  0  0  0  0  0  0  0  0  0  0
  2 25  2  0  0  0  0
  3  9  1  0  0  0  0
  4  9  1  0  0  0  0
  5 18  1  0  0  0  0
  5 19  1  0  0  0  0
  7 29  1  0  0  0  0
  8 31  1  0  0  0  0
  8 27  1  0  0  0  0
  9 18  1  1  0  0  0
 10  3  1  0  0  0  0
 11 10  1  0  0  0  0
 12 10  2  0  0  0  0
 12  4  1  0  0  0  0
 13 12  1  0  0  0  0
 14  4  1  0  0  0  0
 14 17  1  0  0  0  0
 14 15  1  0  0  0  0
 16 14  1  0  0  0  0
 18  1  2  0  0  0  0
 19 20  1  0  0  0  0
 21 19  1  0  0  0  0
 22  6  1  0  0  0  0
 22 24  1  0  0  0  0
 22 19  1  0  0  0  0
 23 22  1  0  0  0  0
 25  6  1  0  0  0  0
 26 25  1  6  0  0  0
 26  7  1  0  0  0  0
 26  8  1  0  0  0  0
 27 28  1  0  0  0  0
 29 27  2  0  0  0  0
 29 30  1  0  0  0  0
 31 34  1  0  0  0  0
 32 31  1  0  0  0  0
 33 31  1  0  0  0  0
M  END
