19,20,21,22
q = -2.0, confidence = 0.664

 56 62  0  0  0  0  0  0  0  0999 V2000
    2.6098   -4.7946   -0.6598 F   0  0  0  0  0  0  0  0  0  0  0  0
    4.8008   -2.7771   -0.4609 F   0  0  0  0  0  0  0  0  0  0  0  0
    4.8384    2.7998   -0.4108 F   0  0  0  0  0  0  0  0  0  0  0  0
    2.6710    4.8581   -0.4010 F   0  0  0  0  0  0  0  0  0  0  0  0
   -2.6026    4.8887   -0.2435 F   0  0  0  0  0  0  0  0  0  0  0  0
   -4.7951    2.8638   -0.1986 F   0  0  0  0  0  0  0  0  0  0  0  0
   -4.8327   -2.6999   -0.6495 F   0  0  0  0  0  0  0  0  0  0  0  0
   -2.6660   -4.7503   -0.8034 F   0  0  0  0  0  0  0  0  0  0  0  0
    4.8016    0.5938    2.0425 F   0  0  0  0  0  0  0  0  0  0  0  0
    7.5107    0.6088    2.3510 F   0  0  0  0  0  0  0  0  0  0  0  0
    9.1305    0.0690    0.2106 F   0  0  0  0  0  0  0  0  0  0  0  0
    8.0408   -0.5032   -2.2327 F   0  0  0  0  0  0  0  0  0  0  0  0
    5.3308   -0.5398   -2.5376 F   0  0  0  0  0  0  0  0  0  0  0  0
   -5.3080    0.8562   -2.4643 F   0  0  0  0  0  0  0  0  0  0  0  0
   -8.0202    0.7922   -2.1895 F   0  0  0  0  0  0  0  0  0  0  0  0
   -9.1330   -0.0338    0.1695 F   0  0  0  0  0  0  0  0  0  0  0  0
   -7.5332   -0.8020    2.2546 F   0  0  0  0  0  0  0  0  0  0  0  0
   -4.8217   -0.7590    1.9738 F   0  0  0  0  0  0  0  0  0  0  0  0
    1.4820   -1.4001   -0.5554 N   0  0  0  0  0  2  0  0  0  0  0  0
    1.4970    1.4785   -0.4215 N   0  0  0  0  0  0  0  0  0  0  0  0
   -1.4781    1.4963   -0.4156 N   0  0  0  0  0  0  0  0  0  0  0  0
   -1.4916   -1.3825   -0.5158 N   0  0  0  0  0  0  0  0  0  0  0  0
    1.2357   -2.7517   -0.6162 C   0  0  0  0  0  0  0  0  0  0  0  0
    2.4915   -3.4696   -0.6034 C   0  0  0  0  0  0  0  0  0  0  0  0
    3.4914   -2.5310   -0.5132 C   0  0  0  0  0  0  0  0  0  0  0  0
    2.8464   -1.2222   -0.4912 C   0  0  0  0  0  0  0  0  0  0  0  0
    3.5104    0.0236   -0.4053 C   0  0  0  0  0  0  0  0  0  0  0  0
    2.8580    1.2789   -0.4065 C   0  0  0  0  0  0  0  0  0  0  0  0
    3.5235    2.5785   -0.3982 C   0  0  0  0  0  0  0  0  0  0  0  0
    2.5360    3.5337   -0.4001 C   0  0  0  0  0  0  0  0  0  0  0  0
    1.2691    2.8335   -0.4058 C   0  0  0  0  0  0  0  0  0  0  0  0
    0.0232    3.4702   -0.3787 C   0  0  0  0  0  0  0  0  0  0  0  0
    0.0298    4.5694   -0.3483 H   0  0  0  0  0  0  0  0  0  0  0  0
   -1.2305    2.8480   -0.3705 C   0  0  0  0  0  0  0  0  0  0  0  0
   -2.4858    3.5636   -0.2945 C   0  0  0  0  0  0  0  0  0  0  0  0
   -3.4863    2.6219   -0.2775 C   0  0  0  0  0  0  0  0  0  0  0  0
   -2.8425    1.3148   -0.3644 C   0  0  0  0  0  3  0  0  0  0  0  0
   -3.5072    0.0664   -0.3882 C   0  0  0  0  0  0  0  0  0  0  0  0
   -2.8539   -1.1844   -0.4947 C   0  0  0  0  0  0  0  0  0  0  0  0
   -3.5183   -2.4793   -0.6062 C   0  0  0  0  0  0  0  0  0  0  0  0
   -2.5305   -3.4313   -0.6835 C   0  0  0  0  0  0  0  0  0  0  0  0
   -1.2640   -2.7345   -0.6223 C   0  0  0  0  0  0  0  0  0  0  0  0
   -0.0185   -3.3716   -0.6596 C   0  0  0  0  0  0  0  0  0  0  0  0
   -0.0260   -4.4695   -0.7221 H   0  0  0  0  0  0  0  0  0  0  0  0
    4.9961    0.0222   -0.2574 C   0  0  0  0  0  0  0  0  0  0  0  0
    5.5824    0.3132    0.9859 C   0  0  0  0  0  0  0  0  0  0  0  0
    6.9738    0.3302    1.1601 C   0  0  0  0  0  0  0  0  0  0  0  0
    7.8058    0.0552    0.0610 C   0  0  0  0  0  0  0  0  0  0  0  0
    7.2449   -0.2386   -1.1940 C   0  0  0  0  0  0  0  0  0  0  0  0
    5.8495   -0.2493   -1.3395 C   0  0  0  0  0  0  0  0  0  0  0  0
   -4.9939    0.0547   -0.2535 C   0  0  0  0  0  0  0  0  0  0  0  0
   -5.8375    0.4411   -1.3083 C   0  0  0  0  0  0  0  0  0  0  0  0
   -7.2342    0.4173   -1.1775 C   0  0  0  0  0  0  0  0  0  0  0  0
   -7.8070   -0.0067    0.0341 C   0  0  0  0  0  0  0  0  0  0  0  0
   -6.9853   -0.3989    1.1050 C   0  0  0  0  0  0  0  0  0  0  0  0
   -5.5924   -0.3655    0.9464 C   0  0  0  0  0  0  0  0  0  0  0  0
  1 24  1  0  0  0  0
  3 29  1  0  0  0  0
  4 30  1  0  0  0  0
  7 40  1  0  0  0  0
  8 41  1  0  0  0  0
 12 49  1  0  0  0  0
 13 50  1  0  0  0  0
 14 52  1  0  0  0  0
 15 53  1  0  0  0  0
 19 26  1  0  0  0  0
 20 28  2  0  0  0  0
 20 31  1  0  0  0  0
 21 34  2  0  0  0  0
 21 37  1  0  0  0  0
 22 39  1  0  0  0  0
 23 24  1  0  0  0  0
 23 19  1  0  0  0  0
 24 25  2  0  0  0  0
 25 26  1  0  0  0  0
 25  2  1  0  0  0  0
 26 27  2  0  0  0  0
 27 45  1  0  0  0  0
 28 27  1  0  0  0  0
 28 29  1  0  0  0  0
 30 29  2  0  0  0  0
 31 30  1  0  0  0  0
 31 32  2  0  0  0  0
 32 34  1  0  0  0  0
 32 33  1  0  0  0  0
 34 35  1  0  0  0  0
 35 36  2  0  0  0  0
 35  5  1  0  0  0  0
 36  6  1  0  0  0  0
 37 36  1  0  0  0  0
 38 37  1  0  0  0  0
 38 51  1  0  0  0  0
 39 38  2  0  0  0  0
 40 39  1  0  0  0  0
 41 42  1  0  0  0  0
 41 40  2  0  0  0  0
 42 22  2  0  0  0  0
 43 42  1  0  0  0  0
 43 23  2  0  0  0  0
 44 43  1  0  0  0  0
 45 46  1  0  0  0  0
 46 47  2  0  0  0  0
 46  9  1  0  0  0  0
 47 10  1  0  0  0  0
 48 11  1  0  0  0  0
 48 47  1  0  0  0  0
 49 48  2  0  0  0  0
 50 49  1  0  0  0  0
 50 45  2  0  0  0  0
 51 56  1  0  0  0  0
 52 53  1  0  0  0  0
 52 51  2  0  0  0  0
 53 54  2  0  0  0  0
 54 16  1  0  0  0  0
 54 55  1  0  0  0  0
 55 17  1  0  0  0  0
 56 55  2  0  0  0  0
 56 18  1  0  0  0  0
M  END
