3,4,5,6
q = 0.0, confidence = 0.934

 67 68  0  0  0  0  0  0  0  0999 V2000
   -5.0377    0.0070   -0.4423 O   0  0  0  0  0  0  0  0  0  0  0  0
    5.0038   -0.3715   -0.0463 O   0  0  0  0  0  0  0  0  0  0  0  0
   -1.5209   -0.7905   -0.1545 N   0  0  0  0  0  2  0  0  0  0  0  0
   -1.3580    1.7247    0.3093 N   0  0  0  0  0  2  0  0  0  0  0  0
    1.4282    1.6461    0.5354 N   0  0  0  0  0  2  0  0  0  0  0  0
    1.4792   -0.9032    0.5684 N   0  0  0  0  0  2  0  0  0  0  0  0
   -1.4820   -2.0682   -0.5687 C   0  0  0  0  0  3  0  0  0  0  0  0
   -0.4938   -2.5386   -0.6437 H   0  0  0  0  0  0  0  0  0  0  0  0
   -2.6425   -2.7601   -0.9301 C   0  0  0  0  0  0  0  0  0  0  0  0
   -2.5677   -3.8053   -1.2603 H   0  0  0  0  0  0  0  0  0  0  0  0
   -3.8896   -2.1150   -0.8800 C   0  0  0  0  0  0  0  0  0  0  0  0
   -4.8035   -2.6553   -1.1581 H   0  0  0  0  0  0  0  0  0  0  0  0
   -3.9295   -0.7640   -0.4999 C   0  0  0  0  0  0  0  0  0  0  0  0
   -2.7060   -0.1179   -0.1607 C   0  0  0  0  0  0  0  0  0  0  0  0
   -6.3030   -0.5754   -0.7671 C   0  0  0  0  0  0  0  0  0  0  0  0
   -6.4919   -1.4444   -0.0974 H   0  0  0  0  0  0  0  0  0  0  0  0
   -6.2847   -0.9551   -1.8156 H   0  0  0  0  0  0  0  0  0  0  0  0
   -7.3680    0.4980   -0.6023 C   0  0  0  0  0  0  0  0  0  0  0  0
   -7.0750    1.3680   -1.2268 H   0  0  0  0  0  0  0  0  0  0  0  0
   -7.3555    0.8485    0.4526 H   0  0  0  0  0  0  0  0  0  0  0  0
   -8.7777    0.0292   -0.9873 C   0  0  0  0  0  0  0  0  0  0  0  0
   -9.4546    0.9084   -0.9488 H   0  0  0  0  0  0  0  0  0  0  0  0
   -8.7781   -0.2996   -2.0506 H   0  0  0  0  0  0  0  0  0  0  0  0
   -9.3461   -1.0835   -0.1018 C   0  0  0  0  0  0  0  0  0  0  0  0
  -10.3910   -1.3244   -0.3817 H   0  0  0  0  0  0  0  0  0  0  0  0
   -9.3472   -0.7849    0.9674 H   0  0  0  0  0  0  0  0  0  0  0  0
   -8.7645   -2.0250   -0.1812 H   0  0  0  0  0  0  0  0  0  0  0  0
   -2.5824    1.2825    0.1267 C   0  0  0  0  0  3  0  0  0  0  0  0
   -3.4633    1.9424    0.1821 H   0  0  0  0  0  0  0  0  0  0  0  0
   -1.1785    3.1043    0.7239 C   0  0  0  0  0  0  0  0  0  0  0  0
   -1.1536    3.1113    1.8383 H   0  0  0  0  0  0  0  0  0  0  0  0
   -2.0600    3.7065    0.4097 H   0  0  0  0  0  0  0  0  0  0  0  0
    0.1084    3.7612    0.1944 C   0  0  0  0  0  0  0  0  0  0  0  0
    0.1752    3.6858   -1.3384 C   0  0  0  0  0  0  0  0  0  0  0  0
   -0.7014    4.1924   -1.7919 H   0  0  0  0  0  0  0  0  0  0  0  0
    0.1934    2.6340   -1.6881 H   0  0  0  0  0  0  0  0  0  0  0  0
    1.0883    4.1927   -1.7127 H   0  0  0  0  0  0  0  0  0  0  0  0
    0.1145    5.2265    0.6624 C   0  0  0  0  0  0  0  0  0  0  0  0
    0.0481    5.3064    1.7675 H   0  0  0  0  0  0  0  0  0  0  0  0
   -0.7420    5.7806    0.2281 H   0  0  0  0  0  0  0  0  0  0  0  0
    1.0429    5.7389    0.3386 H   0  0  0  0  0  0  0  0  0  0  0  0
    1.3205    3.0610    0.8361 C   0  0  0  0  0  0  0  0  0  0  0  0
    2.2559    3.5830    0.5335 H   0  0  0  0  0  0  0  0  0  0  0  0
    1.2336    3.1553    1.9432 H   0  0  0  0  0  0  0  0  0  0  0  0
    2.6187    1.1291    0.3121 C   0  0  0  0  0  3  0  0  0  0  0  0
    3.5274    1.7477    0.2291 H   0  0  0  0  0  0  0  0  0  0  0  0
    1.4340   -2.2029    0.9093 C   0  0  0  0  0  3  0  0  0  0  0  0
    0.4591   -2.6002    1.2233 H   0  0  0  0  0  0  0  0  0  0  0  0
    2.5845   -2.9983    0.9049 C   0  0  0  0  0  0  0  0  0  0  0  0
    2.5110   -4.0585    1.1842 H   0  0  0  0  0  0  0  0  0  0  0  0
    3.8237   -2.4395    0.5443 C   0  0  0  0  0  0  0  0  0  0  0  0
    4.7246   -3.0660    0.5171 H   0  0  0  0  0  0  0  0  0  0  0  0
    3.8856   -1.0655    0.2596 C   0  0  0  0  0  0  0  0  0  0  0  0
    2.6822   -0.3064    0.3232 C   0  0  0  0  0  0  0  0  0  0  0  0
    6.2507   -1.0667   -0.1216 C   0  0  0  0  0  0  0  0  0  0  0  0
    6.1815   -1.8776   -0.8832 H   0  0  0  0  0  0  0  0  0  0  0  0
    6.4746   -1.5465    0.8598 H   0  0  0  0  0  0  0  0  0  0  0  0
    7.3310   -0.0659   -0.4952 C   0  0  0  0  0  0  0  0  0  0  0  0
    7.3464    0.7426    0.2674 H   0  0  0  0  0  0  0  0  0  0  0  0
    7.0499    0.4160   -1.4563 H   0  0  0  0  0  0  0  0  0  0  0  0
    8.7169   -0.7074   -0.6115 C   0  0  0  0  0  0  0  0  0  0  0  0
    8.9774   -1.1999    0.3518 H   0  0  0  0  0  0  0  0  0  0  0  0
    8.6823   -1.5236   -1.3670 H   0  0  0  0  0  0  0  0  0  0  0  0
    9.8092    0.2941   -0.9879 C   0  0  0  0  0  0  0  0  0  0  0  0
   10.8007   -0.1945   -1.0662 H   0  0  0  0  0  0  0  0  0  0  0  0
    9.8922    1.1025   -0.2321 H   0  0  0  0  0  0  0  0  0  0  0  0
    9.5944    0.7756   -1.9643 H   0  0  0  0  0  0  0  0  0  0  0  0
  2 53  1  0  0  0  0
  4 30  1  0  0  0  0
  5 42  1  0  0  0  0
  6 47  1  0  0  0  0
  7  3  1  0  0  0  0
  8  7  1  0  0  0  0
  9 11  2  0  0  0  0
  9  7  1  0  0  0  0
 10  9  1  0  0  0  0
 11 13  1  0  0  0  0
 12 11  1  0  0  0  0
 13  1  1  0  0  0  0
 13 14  2  0  0  0  0
 14  3  1  0  0  0  0
 14 28  1  0  0  0  0
 15 18  1  0  0  0  0
 15  1  1  0  0  0  0
 15 16  1  0  0  0  0
 17 15  1  0  0  0  0
 18 20  1  0  0  0  0
 19 18  1  0  0  0  0
 21 22  1  0  0  0  0
 21 18  1  0  0  0  0
 21 24  1  0  0  0  0
 23 21  1  0  0  0  0
 24 26  1  0  0  0  0
 25 24  1  0  0  0  0
 27 24  1  0  0  0  0
 28 29  1  0  0  0  0
 28  4  1  0  0  0  0
 30 31  1  0  0  0  0
 32 30  1  0  0  0  0
 33 38  1  0  0  0  0
 33 30  1  0  0  0  0
 33 42  1  0  0  0  0
 34 33  1  0  0  0  0
 35 34  1  0  0  0  0
 36 34  1  0  0  0  0
 37 34  1  0  0  0  0
 38 39  1  0  0  0  0
 40 38  1  0  0  0  0
 41 38  1  0  0  0  0
 42 44  1  0  0  0  0
 43 42  1  0  0  0  0
 45 54  1  0  0  0  0
 45  5  1  0  0  0  0
 46 45  1  0  0  0  0
 47 48  1  0  0  0  0
 49 47  1  0  0  0  0
 49 50  1  0  0  0  0
 51 49  2  0  0  0  0
 52 51  1  0  0  0  0
 53 54  2  0  0  0  0
 53 51  1  0  0  0  0
 54  6  1  0  0  0  0
 55  2  1  0  0  0  0
 55 57  1  0  0  0  0
 56 55  1  0  0  0  0
 58 55  1  0  0  0  0
 58 59  1  0  0  0  0
 60 58  1  0  0  0  0
 61 58  1  0  0  0  0
 61 62  1  0  0  0  0
 63 61  1  0  0  0  0
 64 61  1  0  0  0  0
 64 66  1  0  0  0  0
 65 64  1  0  0  0  0
 67 64  1  0  0  0  0
M  END
