3,4,5,6
q = 0.0, confidence = 0.832

 56 56  0  0  0  0  0  0  0  0999 V2000
   -4.9475   -1.1116    0.6792 O   0  0  0  0  0  0  0  0  0  0  0  0
   -4.9476    1.1116   -0.6791 O   0  0  0  0  0  0  0  0  0  0  0  0
    0.0101   -1.0121    0.7400 N   0  0  0  0  0  2  0  0  0  0  0  0
    0.0101    1.0121   -0.7400 N   0  0  0  0  0  2  0  0  0  0  0  0
    1.7569   -1.8965   -1.3844 N   0  0  0  0  0  0  0  0  0  0  0  0
    1.7568    1.8967    1.3844 N   0  0  0  0  0  0  0  0  0  0  0  0
   -1.2667   -0.5920    0.3962 C   0  0  0  0  0  0  0  0  0  0  0  0
   -1.2667    0.5920   -0.3962 C   0  0  0  0  0  0  0  0  0  0  0  0
   -2.4987    1.1955   -0.7482 C   0  0  0  0  0  0  0  0  0  0  0  0
   -2.5069    2.1213   -1.3340 H   0  0  0  0  0  0  0  0  0  0  0  0
   -3.7163    0.6073   -0.3749 C   0  0  0  0  0  0  0  0  0  0  0  0
   -3.7163   -0.6074    0.3749 C   0  0  0  0  0  0  0  0  0  0  0  0
   -2.4986   -1.1955    0.7483 C   0  0  0  0  0  0  0  0  0  0  0  0
   -2.5068   -2.1213    1.3341 H   0  0  0  0  0  0  0  0  0  0  0  0
   -5.0040   -2.3075    1.4225 C   0  0  0  0  0  0  0  0  0  0  0  0
   -4.5157   -3.1563    0.8895 H   0  0  0  0  0  0  0  0  0  0  0  0
   -6.0760   -2.5428    1.5618 H   0  0  0  0  0  0  0  0  0  0  0  0
   -4.5254   -2.2028    2.4238 H   0  0  0  0  0  0  0  0  0  0  0  0
   -5.0041    2.3073   -1.4227 C   0  0  0  0  0  0  0  0  0  0  0  0
   -4.5159    3.1563   -0.8898 H   0  0  0  0  0  0  0  0  0  0  0  0
   -6.0760    2.5425   -1.5621 H   0  0  0  0  0  0  0  0  0  0  0  0
   -4.5254    2.2024   -2.4239 H   0  0  0  0  0  0  0  0  0  0  0  0
    0.1314   -2.3596    1.2804 C   0  0  0  0  0  0  0  0  0  0  0  0
   -0.7405   -2.6155    1.9197 H   0  0  0  0  0  0  0  0  0  0  0  0
    1.0303   -2.4068    1.9249 H   0  0  0  0  0  0  0  0  0  0  0  0
    0.2609   -3.3662    0.1333 C   0  0  0  0  0  0  0  0  0  0  0  0
   -0.6371   -3.3037   -0.5183 H   0  0  0  0  0  0  0  0  0  0  0  0
    0.2770   -4.4003    0.5398 H   0  0  0  0  0  0  0  0  0  0  0  0
    1.5447   -3.1960   -0.6742 C   0  0  0  0  0  0  0  0  0  0  0  0
    2.4139   -3.3159    0.0025 H   0  0  0  0  0  0  0  0  0  0  0  0
    1.6025   -4.0052   -1.4415 H   0  0  0  0  0  0  0  0  0  0  0  0
    3.0869   -1.9955   -2.0266 C   0  0  0  0  0  0  0  0  0  0  0  0
    3.2755   -1.0974   -2.6382 H   0  0  0  0  0  0  0  0  0  0  0  0
    3.1378   -2.9073   -2.6659 H   0  0  0  0  0  0  0  0  0  0  0  0
    3.8629   -2.0509   -1.2403 H   0  0  0  0  0  0  0  0  0  0  0  0
    0.7252   -1.6830   -2.4207 C   0  0  0  0  0  0  0  0  0  0  0  0
   -0.2746   -1.5921   -1.9583 H   0  0  0  0  0  0  0  0  0  0  0  0
    0.7176   -2.5266   -3.1509 H   0  0  0  0  0  0  0  0  0  0  0  0
    0.9454   -0.7405   -2.9551 H   0  0  0  0  0  0  0  0  0  0  0  0
    0.1312    2.3596   -1.2804 C   0  0  0  0  0  0  0  0  0  0  0  0
   -0.7407    2.6155   -1.9197 H   0  0  0  0  0  0  0  0  0  0  0  0
    1.0301    2.4069   -1.9250 H   0  0  0  0  0  0  0  0  0  0  0  0
    0.2606    3.3662   -0.1333 C   0  0  0  0  0  0  0  0  0  0  0  0
    0.2767    4.4003   -0.5397 H   0  0  0  0  0  0  0  0  0  0  0  0
   -0.6373    3.3035    0.5184 H   0  0  0  0  0  0  0  0  0  0  0  0
    1.5445    3.1961    0.6742 C   0  0  0  0  0  0  0  0  0  0  0  0
    2.4137    3.3160   -0.0025 H   0  0  0  0  0  0  0  0  0  0  0  0
    1.6023    4.0053    1.4415 H   0  0  0  0  0  0  0  0  0  0  0  0
    0.7252    1.6831    2.4208 C   0  0  0  0  0  0  0  0  0  0  0  0
   -0.2746    1.5921    1.9585 H   0  0  0  0  0  0  0  0  0  0  0  0
    0.7176    2.5268    3.1509 H   0  0  0  0  0  0  0  0  0  0  0  0
    0.9455    0.7407    2.9552 H   0  0  0  0  0  0  0  0  0  0  0  0
    3.0868    1.9958    2.0265 C   0  0  0  0  0  0  0  0  0  0  0  0
    3.8628    2.0513    1.2402 H   0  0  0  0  0  0  0  0  0  0  0  0
    3.2756    1.0979    2.6382 H   0  0  0  0  0  0  0  0  0  0  0  0
    3.1376    2.9077    2.6657 H   0  0  0  0  0  0  0  0  0  0  0  0
  1 15  1  0  0  0  0
  2 11  1  0  0  0  0
  3 23  1  0  0  0  0
  4  8  1  0  0  0  0
  5 29  1  0  0  0  0
  6 53  1  0  0  0  0
  6 49  1  0  0  0  0
  7  3  1  0  0  0  0
  7 13  1  0  0  0  0
  8  7  2  0  0  0  0
  9  8  1  0  0  0  0
  9 11  2  0  0  0  0
 10  9  1  0  0  0  0
 11 12  1  0  0  0  0
 12  1  1  0  0  0  0
 12 13  2  0  0  0  0
 13 14  1  0  0  0  0
 15 17  1  0  0  0  0
 15 18  1  0  0  0  0
 16 15  1  0  0  0  0
 19 20  1  0  0  0  0
 19  2  1  0  0  0  0
 21 19  1  0  0  0  0
 22 19  1  0  0  0  0
 23 24  1  0  0  0  0
 23 25  1  0  0  0  0
 26 28  1  0  0  0  0
 26 23  1  0  0  0  0
 27 26  1  0  0  0  0
 29 30  1  0  0  0  0
 29 26  1  0  0  0  0
 31 29  1  0  0  0  0
 32  5  1  0  0  0  0
 32 35  1  0  0  0  0
 33 32  1  0  0  0  0
 34 32  1  0  0  0  0
 36 37  1  0  0  0  0
 36  5  1  0  0  0  0
 38 36  1  0  0  0  0
 39 36  1  0  0  0  0
 40  4  1  0  0  0  0
 40 43  1  0  0  0  0
 41 40  1  0  0  0  0
 42 40  1  0  0  0  0
 43 45  1  0  0  0  0
 43 46  1  0  0  0  0
 44 43  1  0  0  0  0
 46  6  1  0  0  0  0
 46 48  1  0  0  0  0
 47 46  1  0  0  0  0
 49 52  1  0  0  0  0
 49 51  1  0  0  0  0
 50 49  1  0  0  0  0
 53 55  1  0  0  0  0
 53 56  1  0  0  0  0
 54 53  1  0  0  0  0
M  END
