1,2,4,5
q = 0.0, confidence = 0.998

 44 46  0  0  1  0  0  0  0  0999 V2000
    2.5552   -0.7490   -1.1834 N   0  0  0  0  0  2  0  0  0  0  0  0
    1.5195   -1.5897    1.1653 N   0  0  0  0  0  2  0  0  0  0  0  0
    1.3843    2.5223   -0.3873 N   0  0  0  0  0  0  0  0  0  0  0  0
    0.8218    1.4605   -1.0401 N   0  0  0  0  0  2  0  0  0  0  0  0
    2.4754    0.9076    0.9350 N   0  0  0  0  0  0  0  0  0  0  0  0
    2.4328   -1.6732   -2.1604 C   0  0  0  0  0  3  0  0  0  0  0  0
    1.4037   -2.0219   -2.3411 H   0  0  0  0  0  0  0  0  0  0  0  0
    3.5481   -2.1364   -2.8638 C   0  0  0  0  0  0  0  0  0  0  0  0
    3.4180   -2.8869   -3.6561 H   0  0  0  0  0  0  0  0  0  0  0  0
    4.8181   -1.6362   -2.5338 C   0  0  0  0  0  0  0  0  0  0  0  0
    5.7146   -1.9896   -3.0640 H   0  0  0  0  0  0  0  0  0  0  0  0
    4.9311   -0.6785   -1.5159 C   0  0  0  0  0  0  0  0  0  0  0  0
    5.9100   -0.2636   -1.2342 H   0  0  0  0  0  0  0  0  0  0  0  0
    3.7707   -0.2475   -0.8596 C   0  0  0  0  0  0  0  0  0  0  0  0
    3.7652    0.8471    0.1819 C   0  0  0  0  0  0  0  0  0  0  0  0
    3.8994    1.8176   -0.3414 H   0  0  0  0  0  0  0  0  0  0  0  0
    4.6195    0.7401    0.8825 H   0  0  0  0  0  0  0  0  0  0  0  0
    1.1170   -2.8663    1.0422 C   0  0  0  0  0  3  0  0  0  0  0  0
    0.4766   -3.0636    0.1669 H   0  0  0  0  0  0  0  0  0  0  0  0
    1.4907   -3.8336    1.9828 C   0  0  0  0  0  0  0  0  0  0  0  0
    1.1404   -4.8689    1.8679 H   0  0  0  0  0  0  0  0  0  0  0  0
    2.3107   -3.4560    3.0557 C   0  0  0  0  0  0  0  0  0  0  0  0
    2.6286   -4.1969    3.8041 H   0  0  0  0  0  0  0  0  0  0  0  0
    2.7186   -2.1173    3.1716 C   0  0  0  0  0  0  0  0  0  0  0  0
    3.3527   -1.7867    4.0070 H   0  0  0  0  0  0  0  0  0  0  0  0
    2.2889   -1.1971    2.2089 C   0  0  0  0  0  0  0  0  0  0  0  0
    2.5248    0.2913    2.2899 C   0  0  0  0  0  0  0  0  0  0  0  0
    1.6838    0.7243    2.8701 H   0  0  0  0  0  0  0  0  0  0  0  0
    3.4712    0.5352    2.8175 H   0  0  0  0  0  0  0  0  0  0  0  0
    0.2181    1.9396   -2.1417 C   0  0  2  0  0  3  0  0  0  0  0  0
    0.3946    3.3505   -2.1736 C   0  0  0  0  0  0  0  0  0  0  0  0
    0.0273    4.0348   -2.9450 H   0  0  0  0  0  0  0  0  0  0  0  0
    1.1277    3.7013   -1.0413 C   0  0  0  0  0  0  0  0  0  0  0  0
   -0.5253    1.0712   -3.0977 C   0  0  0  0  0  0  0  0  0  0  0  0
   -0.1088    0.0487   -3.1108 H   0  0  0  0  0  0  0  0  0  0  0  0
   -0.5107    1.5060   -4.1140 H   0  0  0  0  0  0  0  0  0  0  0  0
   -1.5831    0.9710   -2.7748 H   0  0  0  0  0  0  0  0  0  0  0  0
    1.5739    5.0276   -0.5250 C   0  0  0  0  0  0  0  0  0  0  0  0
    2.6691    5.0634   -0.3489 H   0  0  0  0  0  0  0  0  0  0  0  0
    1.0683    5.2861    0.4290 H   0  0  0  0  0  0  0  0  0  0  0  0
    1.3267    5.8162   -1.2581 H   0  0  0  0  0  0  0  0  0  0  0  0
    1.8884    2.2712    0.9442 C   0  0  0  0  0  0  0  0  0  0  0  0
    1.0509    2.2586    1.6703 H   0  0  0  0  0  0  0  0  0  0  0  0
    2.6269    3.0556    1.2143 H   0  0  0  0  0  0  0  0  0  0  0  0
  1 14  1  0  0  0  0
  2 26  1  0  0  0  0
  3 42  1  0  0  0  0
  4  3  1  0  0  0  0
  5 42  1  0  0  0  0
  5 27  1  0  0  0  0
  6  1  1  0  0  0  0
  7  6  1  0  0  0  0
  8 10  2  0  0  0  0
  8  6  1  0  0  0  0
  9  8  1  0  0  0  0
 10 12  1  0  0  0  0
 11 10  1  0  0  0  0
 12 13  1  0  0  0  0
 12 14  2  0  0  0  0
 14 15  1  0  0  0  0
 15 17  1  0  0  0  0
 15  5  1  0  0  0  0
 16 15  1  0  0  0  0
 18  2  1  0  0  0  0
 18 20  1  0  0  0  0
 19 18  1  0  0  0  0
 20 22  2  0  0  0  0
 21 20  1  0  0  0  0
 22 24  1  0  0  0  0
 22 23  1  0  0  0  0
 24 25  1  0  0  0  0
 26 27  1  0  0  0  0
 26 24  2  0  0  0  0
 27 29  1  0  0  0  0
 27 28  1  0  0  0  0
 30 34  1  1  0  0  0
 30  4  1  0  0  0  0
 31 30  1  0  0  0  0
 31 33  2  0  0  0  0
 32 31  1  0  0  0  0
 33 38  1  0  0  0  0
 33  3  1  0  0  0  0
 34 37  1  0  0  0  0
 35 34  1  0  0  0  0
 36 34  1  0  0  0  0
 38 39  1  0  0  0  0
 38 40  1  0  0  0  0
 41 38  1  0  0  0  0
 42 44  1  0  0  0  0
 42 43  1  0  0  0  0
M  END
