1,2,3,4
q = -1.0

 63 63  0  0  0  0  0  0  0  0999 V2000
   -0.8470    0.7332   -0.3964 N   0  0  0  0  0  2  0  0  0  0  0  0
   -0.0493   -1.3204   -1.7947 N   0  0  0  0  0  2  0  0  0  0  0  0
    2.1931    0.9478   -0.1997 N   0  0  0  0  0  2  0  0  0  0  0  0
    2.5306   -1.3390   -1.5181 N   0  0  0  0  0  0  0  0  0  0  0  0
   -1.1545    2.4098   -0.9114 Si  0  0  0  0  0  0  0  0  0  0  0  0
    2.5682    1.7938    1.3110 Si  0  0  0  0  0  0  0  0  0  0  0  0
    0.5817   -2.0558   -2.8543 C   0  0  0  0  0  0  0  0  0  0  0  0
    1.9841   -2.4228   -2.3576 C   0  0  0  0  0  0  0  0  0  0  0  0
    3.1692    1.0138   -1.2766 C   0  0  0  0  0  0  0  0  0  0  0  0
    2.9134   -0.1297   -2.2700 C   0  0  0  0  0  0  0  0  0  0  0  0
    3.6159   -1.8266   -0.6597 C   0  0  0  0  0  0  0  0  0  0  0  0
    1.1712    1.5405    2.5543 C   0  0  0  0  0  0  0  0  0  0  0  0
    2.8425    3.6391    0.9678 C   0  0  0  0  0  0  0  0  0  0  0  0
    4.1629    1.0843    2.0624 C   0  0  0  0  0  0  0  0  0  0  0  0
   -1.2689    3.6077    0.5518 C   0  0  0  0  0  0  0  0  0  0  0  0
    0.2353    2.9912   -2.0581 C   0  0  0  0  0  0  0  0  0  0  0  0
   -2.7785    2.4875   -1.8814 C   0  0  0  0  0  0  0  0  0  0  0  0
   -2.1907   -2.6105   -1.7137 C   0  0  0  0  0  0  0  0  0  0  0  0
   -1.3854   -1.3691   -1.4294 C   0  0  0  0  0  0  0  0  0  0  0  0
   -1.8061   -0.2774   -0.6489 C   0  0  0  0  0  0  0  0  0  0  0  0
   -3.1290   -0.1641    0.0030 C   0  0  0  0  0  0  0  0  0  0  0  0
   -4.3398   -0.5605   -0.6178 C   0  0  0  0  0  0  0  0  0  0  0  0
   -5.5731   -0.3845    0.0249 C   0  0  0  0  0  0  0  0  0  0  0  0
   -5.6356    0.2002    1.3004 C   0  0  0  0  0  0  0  0  0  0  0  0
   -4.4465    0.6157    1.9232 C   0  0  0  0  0  0  0  0  0  0  0  0
   -3.2138    0.4399    1.2830 C   0  0  0  0  0  0  0  0  0  0  0  0
    0.0387   -2.9872   -3.1345 H   0  0  0  0  0  0  0  0  0  0  0  0
    0.6398   -1.4461   -3.7906 H   0  0  0  0  0  0  0  0  0  0  0  0
    1.9052   -3.3129   -1.7017 H   0  0  0  0  0  0  0  0  0  0  0  0
    2.6741   -2.6800   -3.1968 H   0  0  0  0  0  0  0  0  0  0  0  0
    4.2200    0.9458   -0.8998 H   0  0  0  0  0  0  0  0  0  0  0  0
    3.1232    1.9754   -1.8428 H   0  0  0  0  0  0  0  0  0  0  0  0
    3.8042   -0.3106   -2.9200 H   0  0  0  0  0  0  0  0  0  0  0  0
    2.0606    0.1334   -2.9294 H   0  0  0  0  0  0  0  0  0  0  0  0
    3.9188   -1.0356    0.0487 H   0  0  0  0  0  0  0  0  0  0  0  0
    4.5025   -2.1458   -1.2579 H   0  0  0  0  0  0  0  0  0  0  0  0
    3.2515   -2.6861   -0.0669 H   0  0  0  0  0  0  0  0  0  0  0  0
    1.1870    0.5004    2.9328 H   0  0  0  0  0  0  0  0  0  0  0  0
    0.1769    1.7120    2.0996 H   0  0  0  0  0  0  0  0  0  0  0  0
    1.2954    2.2358    3.4100 H   0  0  0  0  0  0  0  0  0  0  0  0
    3.1364    4.1743    1.8945 H   0  0  0  0  0  0  0  0  0  0  0  0
    3.6511    3.7913    0.2231 H   0  0  0  0  0  0  0  0  0  0  0  0
    1.9251    4.1193    0.5718 H   0  0  0  0  0  0  0  0  0  0  0  0
    4.4450    1.6364    2.9830 H   0  0  0  0  0  0  0  0  0  0  0  0
    4.0128    0.0201    2.3393 H   0  0  0  0  0  0  0  0  0  0  0  0
    5.0248    1.1437    1.3659 H   0  0  0  0  0  0  0  0  0  0  0  0
   -1.4920    4.6308    0.1827 H   0  0  0  0  0  0  0  0  0  0  0  0
   -0.3273    3.6573    1.1325 H   0  0  0  0  0  0  0  0  0  0  0  0
   -2.0839    3.3094    1.2418 H   0  0  0  0  0  0  0  0  0  0  0  0
    0.0259    4.0104   -2.4447 H   0  0  0  0  0  0  0  0  0  0  0  0
    1.2021    3.0070   -1.5207 H   0  0  0  0  0  0  0  0  0  0  0  0
    0.3346    2.3061   -2.9255 H   0  0  0  0  0  0  0  0  0  0  0  0
   -2.8904    3.4896   -2.3454 H   0  0  0  0  0  0  0  0  0  0  0  0
   -2.7883    1.7296   -2.6915 H   0  0  0  0  0  0  0  0  0  0  0  0
   -3.6596    2.3034   -1.2361 H   0  0  0  0  0  0  0  0  0  0  0  0
   -4.3187   -0.9621   -1.6407 H   0  0  0  0  0  0  0  0  0  0  0  0
   -6.4996   -0.6891   -0.4865 H   0  0  0  0  0  0  0  0  0  0  0  0
   -6.6058    0.3422    1.8002 H   0  0  0  0  0  0  0  0  0  0  0  0
   -4.4802    1.0798    2.9213 H   0  0  0  0  0  0  0  0  0  0  0  0
   -2.2808    0.7615    1.7675 H   0  0  0  0  0  0  0  0  0  0  0  0
   -1.5577   -3.5185   -1.6207 H   0  0  0  0  0  0  0  0  0  0  0  0
   -2.6100   -2.6152   -2.7435 H   0  0  0  0  0  0  0  0  0  0  0  0
   -3.0373   -2.7141   -1.0107 H   0  0  0  0  0  0  0  0  0  0  0  0
  2 19  1  0  0  0  0
  3  6  1  0  0  0  0
  4 11  1  0  0  0  0
  5  1  1  0  0  0  0
  5 15  1  0  0  0  0
  6 14  1  0  0  0  0
  6 12  1  0  0  0  0
  7  8  1  0  0  0  0
  7  2  1  0  0  0  0
  8 29  1  0  0  0  0
  8  4  1  0  0  0  0
  9 31  1  0  0  0  0
  9  3  1  0  0  0  0
 10  4  1  0  0  0  0
 10  9  1  0  0  0  0
 11 37  1  0  0  0  0
 11 35  1  0  0  0  0
 12 38  1  0  0  0  0
 12 40  1  0  0  0  0
 13  6  1  0  0  0  0
 13 41  1  0  0  0  0
 14 45  1  0  0  0  0
 14 44  1  0  0  0  0
 15 48  1  0  0  0  0
 15 49  1  0  0  0  0
 16 51  1  0  0  0  0
 16  5  1  0  0  0  0
 17 55  1  0  0  0  0
 17  5  1  0  0  0  0
 18 61  1  0  0  0  0
 18 19  1  0  0  0  0
 18 63  1  0  0  0  0
 19 20  2  0  0  0  0
 20  1  1  0  0  0  0
 20 21  1  0  0  0  0
 21 26  1  0  0  0  0
 22 21  2  0  0  0  0
 22 23  1  0  0  0  0
 23 24  2  0  0  0  0
 24 58  1  0  0  0  0
 24 25  1  0  0  0  0
 25 59  1  0  0  0  0
 26 60  1  0  0  0  0
 26 25  2  0  0  0  0
 27  7  1  0  0  0  0
 28  7  1  0  0  0  0
 30  8  1  0  0  0  0
 32  9  1  0  0  0  0
 33 10  1  0  0  0  0
 34 10  1  0  0  0  0
 36 11  1  0  0  0  0
 39 12  1  0  0  0  0
 42 13  1  0  0  0  0
 43 13  1  0  0  0  0
 46 14  1  0  0  0  0
 47 15  1  0  0  0  0
 50 16  1  0  0  0  0
 52 16  1  0  0  0  0
 53 17  1  0  0  0  0
 54 17  1  0  0  0  0
 56 22  1  0  0  0  0
 57 23  1  0  0  0  0
 62 18  1  0  0  0  0
M  END
