1,11,17,23
q = -2.0, confidence = 0.898

 78 87  0  0  0  0  0  0  0  0999 V2000
   -1.5824   -0.1665    0.0514 N   0  0  0  0  0  2  0  0  0  0  0  0
   -2.2682   -1.2868   -0.3487 C   0  0  0  0  0  0  0  0  0  0  0  0
   -3.6746   -1.0364   -0.3146 C   0  0  0  0  0  0  0  0  0  0  0  0
   -3.8841    0.2676    0.1691 C   0  0  0  0  0  0  0  0  0  0  0  0
   -2.5382    0.7996    0.3658 C   0  0  0  0  0  0  0  0  0  0  0  0
   -2.2013    2.1247    0.6927 C   0  0  0  0  0  0  0  0  0  0  0  0
   -0.9110    2.6256    0.4474 C   0  0  0  0  0  0  0  0  0  0  0  0
   -0.5796    4.0358    0.4608 C   0  0  0  0  0  0  0  0  0  0  0  0
    0.6778    4.1539   -0.0727 C   0  0  0  0  0  0  0  0  0  0  0  0
    1.1514    2.8123   -0.3357 C   0  0  0  0  0  0  0  0  0  0  0  0
    0.1731    1.8901   -0.0033 N   0  0  0  0  0  0  0  0  0  0  0  0
    2.4664    2.5095   -0.7199 C   0  0  0  0  0  0  0  0  0  0  0  0
    2.9851    1.2114   -0.5468 C   0  0  0  0  0  0  0  0  0  0  0  0
    4.3848    0.8657   -0.6433 C   0  0  0  0  0  0  0  0  0  0  0  0
    4.5168   -0.4028   -0.1339 C   0  0  0  0  0  0  0  0  0  0  0  0
    3.1887   -0.8597    0.2016 C   0  0  0  0  0  0  0  0  0  0  0  0
    2.2585    0.1284   -0.0804 N   0  0  0  0  0  2  0  0  0  0  0  0
    2.8931   -2.1629    0.6368 C   0  0  0  0  0  0  0  0  0  0  0  0
    1.5882   -2.6802    0.5536 C   0  0  0  0  0  0  0  0  0  0  0  0
    1.2355   -4.0613    0.7608 C   0  0  0  0  0  0  0  0  0  0  0  0
   -0.0469   -4.2196    0.2854 C   0  0  0  0  0  0  0  0  0  0  0  0
   -0.4936   -2.9215   -0.1498 C   0  0  0  0  0  0  0  0  0  0  0  0
    0.4928   -1.9777    0.0627 N   0  0  0  0  0  0  0  0  0  0  0  0
   -1.8085   -2.5941   -0.5746 C   0  0  0  0  0  0  0  0  0  0  0  0
   -3.7708    2.8761    2.4986 C   0  0  0  0  0  0  0  0  0  0  0  0
   -3.2609    3.0456    1.1940 C   0  0  0  0  0  0  0  0  0  0  0  0
   -3.7937    4.0690    0.3818 C   0  0  0  0  0  0  0  0  0  0  0  0
   -4.8188    4.8981    0.8615 C   0  0  0  0  0  0  0  0  0  0  0  0
   -5.3228    4.7178    2.1596 C   0  0  0  0  0  0  0  0  0  0  0  0
   -4.7938    3.7068    2.9781 C   0  0  0  0  0  0  0  0  0  0  0  0
    3.3433    3.6197   -1.1868 C   0  0  0  0  0  0  0  0  0  0  0  0
    4.4861    4.0191   -0.4590 C   0  0  0  0  0  0  0  0  0  0  0  0
    5.2846    5.0809   -0.9077 C   0  0  0  0  0  0  0  0  0  0  0  0
    4.9548    5.7635   -2.0897 C   0  0  0  0  0  0  0  0  0  0  0  0
    3.8167    5.3814   -2.8173 C   0  0  0  0  0  0  0  0  0  0  0  0
    3.0166    4.3207   -2.3687 C   0  0  0  0  0  0  0  0  0  0  0  0
    4.0188   -3.0314    1.0794 C   0  0  0  0  0  0  0  0  0  0  0  0
    4.8008   -2.6531    2.1935 C   0  0  0  0  0  0  0  0  0  0  0  0
    5.8731   -3.4498    2.6193 C   0  0  0  0  0  0  0  0  0  0  0  0
    6.1880   -4.6342    1.9343 C   0  0  0  0  0  0  0  0  0  0  0  0
    5.4254   -5.0149    0.8185 C   0  0  0  0  0  0  0  0  0  0  0  0
    4.3500   -4.2213    0.3940 C   0  0  0  0  0  0  0  0  0  0  0  0
   -2.7806   -3.5499   -1.1082 C   0  0  0  0  0  0  0  0  0  0  0  0
   -4.1793   -3.2170   -1.1229 C   0  0  0  0  0  0  0  0  0  0  0  0
   -4.5792   -1.9785   -0.6622 N   0  0  0  0  0  0  0  0  0  0  0  0
   -5.1385   -4.1375   -1.6017 C   0  0  0  0  0  0  0  0  0  0  0  0
   -4.7345   -5.3728   -2.1037 C   0  0  0  0  0  0  0  0  0  0  0  0
   -3.3624   -5.6962   -2.1582 C   0  0  0  0  0  0  0  0  0  0  0  0
   -2.4112   -4.7983   -1.6743 C   0  0  0  0  0  0  0  0  0  0  0  0
   -5.2355    0.7815    0.2874 C   0  0  0  0  0  0  0  0  0  0  0  0
   -6.2235    0.0768    0.0058 O   0  0  0  0  0  0  0  0  0  0  0  0
   -5.5638   -1.6647   -0.5731 H   0  0  0  0  0  0  0  0  0  0  0  0
   -5.3872    1.8327    0.6344 H   0  0  0  0  0  0  0  0  0  0  0  0
   -1.2445    4.8306    0.8130 H   0  0  0  0  0  0  0  0  0  0  0  0
    1.2661    5.0630   -0.2349 H   0  0  0  0  0  0  0  0  0  0  0  0
    5.1677    1.5228   -1.0345 H   0  0  0  0  0  0  0  0  0  0  0  0
    5.4262   -1.0038   -0.0321 H   0  0  0  0  0  0  0  0  0  0  0  0
    1.8881   -4.8191    1.2051 H   0  0  0  0  0  0  0  0  0  0  0  0
   -0.6582   -5.1268    0.3029 H   0  0  0  0  0  0  0  0  0  0  0  0
   -3.4094    4.1954   -0.6415 H   0  0  0  0  0  0  0  0  0  0  0  0
   -5.2329    5.6855    0.2135 H   0  0  0  0  0  0  0  0  0  0  0  0
   -6.1301    5.3656    2.5335 H   0  0  0  0  0  0  0  0  0  0  0  0
   -5.1827    3.5622    3.9975 H   0  0  0  0  0  0  0  0  0  0  0  0
   -3.3589    2.0771    3.1334 H   0  0  0  0  0  0  0  0  0  0  0  0
    4.7323    3.5001    0.4793 H   0  0  0  0  0  0  0  0  0  0  0  0
    6.1671    5.3839   -0.3237 H   0  0  0  0  0  0  0  0  0  0  0  0
    5.5826    6.5965   -2.4409 H   0  0  0  0  0  0  0  0  0  0  0  0
    3.5504    5.9115   -3.7445 H   0  0  0  0  0  0  0  0  0  0  0  0
    2.1262    4.0166   -2.9393 H   0  0  0  0  0  0  0  0  0  0  0  0
    4.5498   -1.7261    2.7305 H   0  0  0  0  0  0  0  0  0  0  0  0
    6.4658   -3.1441    3.4949 H   0  0  0  0  0  0  0  0  0  0  0  0
    7.0309   -5.2586    2.2673 H   0  0  0  0  0  0  0  0  0  0  0  0
    5.6753   -5.9342    0.2672 H   0  0  0  0  0  0  0  0  0  0  0  0
    3.7665   -4.5084   -0.4932 H   0  0  0  0  0  0  0  0  0  0  0  0
   -6.2018   -3.8543   -1.5823 H   0  0  0  0  0  0  0  0  0  0  0  0
   -5.4872   -6.0816   -2.4796 H   0  0  0  0  0  0  0  0  0  0  0  0
   -3.0377   -6.6502   -2.5989 H   0  0  0  0  0  0  0  0  0  0  0  0
   -1.3437   -5.0401   -1.7615 H   0  0  0  0  0  0  0  0  0  0  0  0
  1  5  1  0  0  0  0
  2  3  1  0  0  0  0
  2  1  1  0  0  0  0
  3  4  2  0  0  0  0
  4 50  1  0  0  0  0
  4  5  1  0  0  0  0
  5  6  2  0  0  0  0
  6 26  1  0  0  0  0
  7  8  1  0  0  0  0
  7  6  1  0  0  0  0
  8 54  1  0  0  0  0
  9  8  2  0  0  0  0
 10  9  1  0  0  0  0
 10 11  1  0  0  0  0
 11  7  2  0  0  0  0
 12 13  1  0  0  0  0
 12 10  2  0  0  0  0
 13 17  1  0  0  0  0
 14 13  2  0  0  0  0
 14 15  1  0  0  0  0
 15 57  1  0  0  0  0
 15 16  2  0  0  0  0
 16 18  1  0  0  0  0
 17 16  1  0  0  0  0
 18 37  1  0  0  0  0
 19 18  2  0  0  0  0
 19 20  1  0  0  0  0
 20 58  1  0  0  0  0
 21 59  1  0  0  0  0
 21 20  2  0  0  0  0
 22 23  2  0  0  0  0
 22 21  1  0  0  0  0
 23 19  1  0  0  0  0
 24  2  2  0  0  0  0
 24 22  1  0  0  0  0
 25 30  1  0  0  0  0
 25 64  1  0  0  0  0
 26 25  2  0  0  0  0
 27 28  2  0  0  0  0
 27 26  1  0  0  0  0
 28 29  1  0  0  0  0
 29 62  1  0  0  0  0
 29 30  2  0  0  0  0
 30 63  1  0  0  0  0
 31 12  1  0  0  0  0
 31 32  1  0  0  0  0
 32 65  1  0  0  0  0
 33 32  2  0  0  0  0
 33 66  1  0  0  0  0
 34 33  1  0  0  0  0
 35 36  1  0  0  0  0
 35 34  2  0  0  0  0
 36 31  2  0  0  0  0
 37 38  1  0  0  0  0
 38 39  2  0  0  0  0
 38 70  1  0  0  0  0
 39 71  1  0  0  0  0
 40 72  1  0  0  0  0
 40 39  1  0  0  0  0
 41 40  2  0  0  0  0
 42 41  1  0  0  0  0
 42 37  2  0  0  0  0
 43 24  1  0  0  0  0
 44 43  1  0  0  0  0
 44 45  1  0  0  0  0
 45 52  1  0  0  0  0
 45  3  1  0  0  0  0
 46 75  1  0  0  0  0
 46 44  2  0  0  0  0
 47 46  1  0  0  0  0
 48 47  2  0  0  0  0
 48 49  1  0  0  0  0
 49 43  2  0  0  0  0
 50 53  1  0  0  0  0
 51 50  2  0  0  0  0
 55  9  1  0  0  0  0
 56 14  1  0  0  0  0
 60 27  1  0  0  0  0
 61 28  1  0  0  0  0
 67 34  1  0  0  0  0
 68 35  1  0  0  0  0
 69 36  1  0  0  0  0
 73 41  1  0  0  0  0
 74 42  1  0  0  0  0
 76 47  1  0  0  0  0
 77 48  1  0  0  0  0
 78 49  1  0  0  0  0
M  END
