1,2,3,4
q = 0.0, confidence = 0.996

 32 32  0  0  1  0  0  0  0  0999 V2000
    1.2940    0.2596   -1.3501 N   0  0  0  0  0  0  0  0  0  0  0  0
   -0.3439   -1.2820    0.0573 N   0  0  0  0  0  2  0  0  0  0  0  0
   -1.4028    0.6455   -1.6342 N   0  0  0  0  0  0  0  0  0  0  0  0
    0.3327    2.5563   -0.1412 N   0  0  0  0  0  0  0  0  0  0  0  0
    1.8590   -1.0507   -0.9268 C   0  0  0  0  0  0  0  0  0  0  0  0
    2.5542   -0.8581   -0.0809 H   0  0  0  0  0  0  0  0  0  0  0  0
    2.4487   -1.5310   -1.7402 H   0  0  0  0  0  0  0  0  0  0  0  0
    0.7428   -1.9484   -0.4540 C   0  0  1  0  0  3  0  0  0  0  0  0
    0.8033   -3.3435   -0.4851 C   0  0  0  0  0  0  0  0  0  0  0  0
    1.6915   -3.8351   -0.9090 H   0  0  0  0  0  0  0  0  0  0  0  0
   -0.2638   -4.0958    0.0342 C   0  0  0  0  0  0  0  0  0  0  0  0
   -0.2315   -5.1947    0.0264 H   0  0  0  0  0  0  0  0  0  0  0  0
   -1.3670   -3.4071    0.5631 C   0  0  0  0  0  0  0  0  0  0  0  0
   -2.2267   -3.9452    0.9875 H   0  0  0  0  0  0  0  0  0  0  0  0
   -1.3774   -2.0098    0.5577 C   0  0  0  0  0  0  0  0  0  0  0  0
   -2.2163   -1.4286    0.9682 H   0  0  0  0  0  0  0  0  0  0  0  0
    0.7124    0.2102   -2.7270 C   0  0  0  0  0  0  0  0  0  0  0  0
    1.2876   -0.4884   -3.3727 H   0  0  0  0  0  0  0  0  0  0  0  0
    0.8172    1.2172   -3.1787 H   0  0  0  0  0  0  0  0  0  0  0  0
   -0.7672   -0.1619   -2.6928 C   0  0  0  0  0  0  0  0  0  0  0  0
   -1.2232   -0.0093   -3.6961 H   0  0  0  0  0  0  0  0  0  0  0  0
   -0.8987   -1.2286   -2.4320 H   0  0  0  0  0  0  0  0  0  0  0  0
    2.2355    1.4034   -1.2009 C   0  0  0  0  0  0  0  0  0  0  0  0
    2.9605    1.4506   -2.0462 H   0  0  0  0  0  0  0  0  0  0  0  0
    2.8176    1.2426   -0.2723 H   0  0  0  0  0  0  0  0  0  0  0  0
    1.4386    2.7090   -1.1130 C   0  0  0  0  0  0  0  0  0  0  0  0
    2.1263    3.5450   -0.8593 H   0  0  0  0  0  0  0  0  0  0  0  0
    0.9940    2.9614   -2.0988 H   0  0  0  0  0  0  0  0  0  0  0  0
   -2.3230    0.2703   -1.3512 H   0  0  0  0  0  0  0  0  0  0  0  0
   -1.5951    1.6050   -1.9604 H   0  0  0  0  0  0  0  0  0  0  0  0
   -0.4038    3.2639   -0.2766 H   0  0  0  0  0  0  0  0  0  0  0  0
    0.6723    2.6600    0.8282 H   0  0  0  0  0  0  0  0  0  0  0  0
  1 23  1  0  0  0  0
  1  5  1  0  0  0  0
  2 15  1  0  0  0  0
  3 29  1  0  0  0  0
  4 32  1  0  0  0  0
  5  6  1  0  0  0  0
  7  5  1  0  0  0  0
  8  5  1  1  0  0  0
  8  2  1  0  0  0  0
  9  8  1  0  0  0  0
  9 11  2  0  0  0  0
 10  9  1  0  0  0  0
 11 13  1  0  0  0  0
 12 11  1  0  0  0  0
 13 14  1  0  0  0  0
 15 13  2  0  0  0  0
 15 16  1  0  0  0  0
 17 20  1  0  0  0  0
 17  1  1  0  0  0  0
 18 17  1  0  0  0  0
 19 17  1  0  0  0  0
 20 22  1  0  0  0  0
 20  3  1  0  0  0  0
 21 20  1  0  0  0  0
 23 26  1  0  0  0  0
 23 25  1  0  0  0  0
 24 23  1  0  0  0  0
 26 27  1  0  0  0  0
 26  4  1  0  0  0  0
 28 26  1  0  0  0  0
 30  3  1  0  0  0  0
 31  4  1  0  0  0  0
M  END
