3,4,5,6
q = -2.0, confidence = 0.974

 32 34  0  0  0  0  0  0  0  0999 V2000
    5.0904   -1.5903   -0.0005 Cl  0  0  0  0  0  0  0  0  0  0  0  0
    5.0904    1.5903    0.0005 Cl  0  0  0  0  0  0  0  0  0  0  0  0
   -2.6321   -1.5032   -0.0002 N   0  0  0  0  0  2  0  0  0  0  0  0
   -0.1173   -1.2572   -0.0005 N   0  0  0  0  0  2  0  0  0  0  0  0
   -2.6321    1.5032   -0.0006 N   0  0  0  0  0  0  0  0  0  0  0  0
   -0.1173    1.2572    0.0004 N   0  0  0  0  0  2  0  0  0  0  0  0
   -3.9387   -1.8321    0.0013 C   0  0  0  0  0  3  0  0  0  0  0  0
   -4.7247   -1.0670    0.0020 H   0  0  0  0  0  0  0  0  0  0  0  0
   -4.0955   -3.2463    0.0018 C   0  0  0  0  0  0  0  0  0  0  0  0
   -5.0505   -3.7846    0.0028 H   0  0  0  0  0  0  0  0  0  0  0  0
   -2.8068   -3.8017    0.0007 C   0  0  0  0  0  0  0  0  0  0  0  0
   -2.5363   -4.8640    0.0007 H   0  0  0  0  0  0  0  0  0  0  0  0
   -1.9058   -2.7032   -0.0005 C   0  0  0  0  0  0  0  0  0  0  0  0
   -0.5050   -2.5305   -0.0007 C   0  0  0  0  0  0  0  0  0  0  0  0
    0.2137   -3.3674   -0.0008 H   0  0  0  0  0  0  0  0  0  0  0  0
    1.1658   -0.7151   -0.0003 C   0  0  0  0  0  0  0  0  0  0  0  0
    2.3832   -1.4160   -0.0005 C   0  0  0  0  0  0  0  0  0  0  0  0
    2.4114   -2.5135   -0.0009 H   0  0  0  0  0  0  0  0  0  0  0  0
    3.5955   -0.7091   -0.0002 C   0  0  0  0  0  0  0  0  0  0  0  0
    3.5955    0.7091    0.0002 C   0  0  0  0  0  0  0  0  0  0  0  0
    2.3832    1.4160    0.0005 C   0  0  0  0  0  0  0  0  0  0  0  0
    2.4114    2.5135    0.0008 H   0  0  0  0  0  0  0  0  0  0  0  0
    1.1658    0.7151    0.0002 C   0  0  0  0  0  0  0  0  0  0  0  0
   -0.5050    2.5305    0.0014 C   0  0  0  0  0  3  0  0  0  0  0  0
    0.2137    3.3674    0.0025 H   0  0  0  0  0  0  0  0  0  0  0  0
   -1.9058    2.7032    0.0009 C   0  0  0  0  0  3  0  0  0  0  0  0
   -2.8068    3.8017    0.0007 C   0  0  0  0  0  0  0  0  0  0  0  0
   -2.5363    4.8640    0.0017 H   0  0  0  0  0  0  0  0  0  0  0  0
   -4.0955    3.2463   -0.0013 C   0  0  0  0  0  0  0  0  0  0  0  0
   -5.0505    3.7846   -0.0021 H   0  0  0  0  0  0  0  0  0  0  0  0
   -3.9387    1.8321   -0.0020 C   0  0  0  0  0  0  0  0  0  0  0  0
   -4.7246    1.0669   -0.0036 H   0  0  0  0  0  0  0  0  0  0  0  0
  1 19  1  0  0  0  0
  3  7  1  0  0  0  0
  4 16  1  0  0  0  0
  5 26  1  0  0  0  0
  6 24  1  0  0  0  0
  7  9  1  0  0  0  0
  7  8  1  0  0  0  0
  9 10  1  0  0  0  0
 11 12  1  0  0  0  0
 11  9  2  0  0  0  0
 13  3  1  0  0  0  0
 13 11  1  0  0  0  0
 14  4  1  0  0  0  0
 14 13  2  0  0  0  0
 15 14  1  0  0  0  0
 16 23  1  0  0  0  0
 17 16  2  0  0  0  0
 17 19  1  0  0  0  0
 18 17  1  0  0  0  0
 19 20  2  0  0  0  0
 20 21  1  0  0  0  0
 20  2  1  0  0  0  0
 21 22  1  0  0  0  0
 23  6  1  0  0  0  0
 23 21  2  0  0  0  0
 24 25  1  0  0  0  0
 26 24  1  0  0  0  0
 27 26  1  0  0  0  0
 27 28  1  0  0  0  0
 29 27  2  0  0  0  0
 30 29  1  0  0  0  0
 31 29  1  0  0  0  0
 31  5  2  0  0  0  0
 32 31  1  0  0  0  0
M  END
