1,2,3,4
q = -2.0, confidence = 0.82

 78 82  0  0  1  0  0  0  0  0999 V2000
   -0.9012   -1.8068   -0.3404 N   0  0  0  0  0  2  0  0  0  0  0  0
    1.7732   -1.8954   -0.6378 N   0  0  0  0  0  2  0  0  0  0  0  0
    1.8280    0.6371   -1.0160 N   0  0  0  0  0  2  0  0  0  0  0  0
   -0.6511    0.8763    0.0165 N   0  0  0  0  0  2  0  0  0  0  0  0
   -6.4011    2.0150    1.1974 C   0  0  0  0  0  0  0  0  0  0  0  0
   -6.9569    2.6135    0.4501 H   0  0  0  0  0  0  0  0  0  0  0  0
   -5.9433    2.7161    1.9260 H   0  0  0  0  0  0  0  0  0  0  0  0
   -7.1374    1.4043    1.7605 H   0  0  0  0  0  0  0  0  0  0  0  0
   -5.3523    1.1471    0.5502 C   0  0  0  0  0  0  0  0  0  0  0  0
   -4.5271    0.3158    1.3380 C   0  0  0  0  0  0  0  0  0  0  0  0
   -4.6397    0.3190    2.4332 H   0  0  0  0  0  0  0  0  0  0  0  0
   -3.5386   -0.4886    0.7608 C   0  0  0  0  0  0  0  0  0  0  0  0
   -2.8641   -1.0797    1.3947 H   0  0  0  0  0  0  0  0  0  0  0  0
   -3.3546   -0.4462   -0.6279 C   0  0  0  0  0  0  0  0  0  0  0  0
   -4.1531    0.3717   -1.4406 C   0  0  0  0  0  0  0  0  0  0  0  0
   -3.9710    0.4098   -2.5240 H   0  0  0  0  0  0  0  0  0  0  0  0
   -5.1527    1.1538   -0.8452 C   0  0  0  0  0  0  0  0  0  0  0  0
   -5.7788    1.8027   -1.4780 H   0  0  0  0  0  0  0  0  0  0  0  0
   -2.1294   -1.4641   -1.4614 S   0  0  0  0  0  0  0  0  0  0  0  0
   -1.4929   -0.6096   -2.4973 O   0  0  0  0  0  0  0  0  0  0  0  0
   -2.7996   -2.7197   -1.8725 O   0  0  0  0  0  0  0  0  0  0  0  0
   -0.8199   -3.0272    0.2855 C   0  0  1  0  0  3  0  0  0  0  0  0
   -1.9577   -3.7479    0.7473 C   0  0  0  0  0  0  0  0  0  0  0  0
   -2.9569   -3.3381    0.5584 H   0  0  0  0  0  0  0  0  0  0  0  0
   -1.8191   -4.9540    1.4282 C   0  0  0  0  0  0  0  0  0  0  0  0
   -2.7240   -5.4680    1.7876 H   0  0  0  0  0  0  0  0  0  0  0  0
   -0.5470   -5.5197    1.6729 C   0  0  0  0  0  0  0  0  0  0  0  0
   -0.4519   -6.4682    2.2205 H   0  0  0  0  0  0  0  0  0  0  0  0
    0.5783   -4.8603    1.1944 C   0  0  0  0  0  0  0  0  0  0  0  0
    1.5809   -5.2922    1.3443 H   0  0  0  0  0  0  0  0  0  0  0  0
    0.4737   -3.6268    0.4953 C   0  0  0  0  0  0  0  0  0  0  0  0
    1.6692   -3.0754   -0.0817 C   0  0  0  0  0  0  0  0  0  0  0  0
    2.5602   -3.7307   -0.0655 H   0  0  0  0  0  0  0  0  0  0  0  0
    2.9930   -1.4357   -1.3130 C   0  0  2  0  0  0  0  0  0  0  0  0
    2.7679   -1.4440   -2.4059 H   0  0  0  0  0  0  0  0  0  0  0  0
    4.2816   -2.2232   -1.0721 C   0  0  0  0  0  0  0  0  0  0  0  0
    4.4846   -2.2649    0.0211 H   0  0  0  0  0  0  0  0  0  0  0  0
    4.1701   -3.2698   -1.4226 H   0  0  0  0  0  0  0  0  0  0  0  0
    5.4572   -1.5504   -1.7977 C   0  0  0  0  0  0  0  0  0  0  0  0
    5.2914   -1.6161   -2.8957 H   0  0  0  0  0  0  0  0  0  0  0  0
    6.3940   -2.1070   -1.5913 H   0  0  0  0  0  0  0  0  0  0  0  0
    5.6107   -0.0777   -1.3986 C   0  0  0  0  0  0  0  0  0  0  0  0
    6.4476    0.3888   -1.9572 H   0  0  0  0  0  0  0  0  0  0  0  0
    5.8804   -0.0145   -0.3205 H   0  0  0  0  0  0  0  0  0  0  0  0
    4.3163    0.7147   -1.6353 C   0  0  0  0  0  0  0  0  0  0  0  0
    4.4390    1.7577   -1.2766 H   0  0  0  0  0  0  0  0  0  0  0  0
    4.0932    0.7646   -2.7241 H   0  0  0  0  0  0  0  0  0  0  0  0
    3.1597    0.0394   -0.9024 C   0  0  1  0  0  0  0  0  0  0  0  0
    3.3904    0.0412    0.1882 H   0  0  0  0  0  0  0  0  0  0  0  0
    1.6190    1.8220   -1.5207 C   0  0  0  0  0  0  0  0  0  0  0  0
    2.4746    2.3769   -1.9479 H   0  0  0  0  0  0  0  0  0  0  0  0
    0.3431    2.4978   -1.5384 C   0  0  0  0  0  0  0  0  0  0  0  0
    0.2124    3.6862   -2.3001 C   0  0  0  0  0  3  0  0  0  0  0  0
    1.0621    4.0138   -2.9202 H   0  0  0  0  0  0  0  0  0  0  0  0
   -0.9637    4.4337   -2.2687 C   0  0  0  0  0  0  0  0  0  0  0  0
   -1.0582    5.3472   -2.8738 H   0  0  0  0  0  0  0  0  0  0  0  0
   -2.0284    4.0057   -1.4489 C   0  0  0  0  0  0  0  0  0  0  0  0
   -2.9619    4.5884   -1.4136 H   0  0  0  0  0  0  0  0  0  0  0  0
   -1.9262    2.8388   -0.6880 C   0  0  0  0  0  0  0  0  0  0  0  0
   -2.7530    2.5044   -0.0509 H   0  0  0  0  0  0  0  0  0  0  0  0
   -0.7516    2.0488   -0.7273 C   0  0  0  0  0  0  0  0  0  0  0  0
   -0.6802    1.0229    1.7013 S   0  0  0  0  0  0  0  0  0  0  0  0
   -0.8131   -0.3342    2.2799 O   0  0  0  0  0  0  0  0  0  0  0  0
   -1.5983    2.1112    2.1109 O   0  0  0  0  0  0  0  0  0  0  0  0
    1.0010    1.5685    2.0530 C   0  0  0  0  0  0  0  0  0  0  0  0
    1.9545    0.6207    2.4581 C   0  0  0  0  0  0  0  0  0  0  0  0
    1.6276   -0.4096    2.6617 H   0  0  0  0  0  0  0  0  0  0  0  0
    3.2924    1.0128    2.5884 C   0  0  0  0  0  0  0  0  0  0  0  0
    4.0431    0.2760    2.9180 H   0  0  0  0  0  0  0  0  0  0  0  0
    3.6992    2.3361    2.3041 C   0  0  0  0  0  0  0  0  0  0  0  0
    2.7129    3.2695    1.9231 C   0  0  0  0  0  0  0  0  0  0  0  0
    3.0073    4.3114    1.7200 H   0  0  0  0  0  0  0  0  0  0  0  0
    1.3644    2.9004    1.8060 C   0  0  0  0  0  0  0  0  0  0  0  0
    0.5955    3.6329    1.5211 H   0  0  0  0  0  0  0  0  0  0  0  0
    5.1515    2.7276    2.4114 C   0  0  0  0  0  0  0  0  0  0  0  0
    5.3023    3.8051    2.2078 H   0  0  0  0  0  0  0  0  0  0  0  0
    5.7762    2.1568    1.6911 H   0  0  0  0  0  0  0  0  0  0  0  0
    5.5553    2.5120    3.4223 H   0  0  0  0  0  0  0  0  0  0  0  0
  2 32  1  0  0  0  0
  3 48  1  0  0  0  0
  4 62  1  0  0  0  0
  5  8  1  0  0  0  0
  5  7  1  0  0  0  0
  6  5  1  0  0  0  0
  9  5  1  0  0  0  0
  9 10  1  0  0  0  0
 10 11  1  0  0  0  0
 12 10  2  0  0  0  0
 12 13  1  0  0  0  0
 14 12  1  0  0  0  0
 15 17  1  0  0  0  0
 15 14  2  0  0  0  0
 16 15  1  0  0  0  0
 17  9  2  0  0  0  0
 18 17  1  0  0  0  0
 19 14  1  0  0  0  0
 19  1  1  0  0  0  0
 20 19  2  0  0  0  0
 21 19  2  0  0  0  0
 22  1  1  6  0  0  0
 22 31  1  0  0  0  0
 22 23  1  0  0  0  0
 23 25  2  0  0  0  0
 24 23  1  0  0  0  0
 25 27  1  0  0  0  0
 25 26  1  0  0  0  0
 27 28  1  0  0  0  0
 29 30  1  0  0  0  0
 29 27  2  0  0  0  0
 31 29  1  0  0  0  0
 32 33  1  0  0  0  0
 32 31  2  0  0  0  0
 34 35  1  6  0  0  0
 34 36  1  0  0  0  0
 34 48  1  0  0  0  0
 34  2  1  0  0  0  0
 36 37  1  0  0  0  0
 38 36  1  0  0  0  0
 39 41  1  0  0  0  0
 39 42  1  0  0  0  0
 39 36  1  0  0  0  0
 40 39  1  0  0  0  0
 42 44  1  0  0  0  0
 43 42  1  0  0  0  0
 45 42  1  0  0  0  0
 45 46  1  0  0  0  0
 45 48  1  0  0  0  0
 47 45  1  0  0  0  0
 48 49  1  1  0  0  0
 50  3  1  0  0  0  0
 51 50  1  0  0  0  0
 52 50  2  0  0  0  0
 52 61  1  0  0  0  0
 53 55  1  0  0  0  0
 53 52  1  0  0  0  0
 54 53  1  0  0  0  0
 55 57  2  0  0  0  0
 56 55  1  0  0  0  0
 57 58  1  0  0  0  0
 57 59  1  0  0  0  0
 59 60  1  0  0  0  0
 61 59  2  0  0  0  0
 61  4  1  0  0  0  0
 62 65  1  0  0  0  0
 62 64  2  0  0  0  0
 62 63  2  0  0  0  0
 65 66  1  0  0  0  0
 66 68  2  0  0  0  0
 66 67  1  0  0  0  0
 68 69  1  0  0  0  0
 70 75  1  0  0  0  0
 70 68  1  0  0  0  0
 71 70  2  0  0  0  0
 72 71  1  0  0  0  0
 73 71  1  0  0  0  0
 73 65  2  0  0  0  0
 74 73  1  0  0  0  0
 75 78  1  0  0  0  0
 76 75  1  0  0  0  0
 77 75  1  0  0  0  0
M  END
