4,5,6,7
q = -2.0, confidence = 0.748

 42 41  0  0  1  0  0  0  0  0999 V2000
   -1.6401   -2.8710   -0.0009 O   0  0  0  0  0  0  0  0  0  0  0  0
    0.7270   -3.1947   -0.0004 O   0  0  0  0  0  1  0  0  0  0  0  0
    1.5876    4.5676   -0.0006 O   0  0  0  0  0  0  0  0  0  0  0  0
    1.4463    0.5490    0.0000 N   0  0  0  0  0  2  0  0  0  0  0  0
   -1.3254    0.9288   -0.0001 N   0  0  0  0  0  2  0  0  0  0  0  0
   -1.6539   -1.5553   -0.0004 N   0  0  0  0  0  2  0  0  0  0  0  0
    1.0962   -1.9326   -0.0002 N   0  0  0  0  0  2  0  0  0  0  0  0
    0.4403    4.1010   -0.0005 N   0  0  0  0  0  0  0  0  0  0  0  0
    2.3790   -1.6605    0.0001 C   0  0  2  0  0  3  0  0  0  0  0  0
   -2.8157   -0.9476   -0.0001 C   0  0  1  0  0  3  0  0  0  0  0  0
   -4.0765   -1.7463   -0.0002 C   0  0  0  0  0  0  0  0  0  0  0  0
    3.3781   -2.7693    0.0003 C   0  0  0  0  0  0  0  0  0  0  0  0
    2.7400   -0.1934    0.0003 C   0  0  0  0  0  0  0  0  0  0  0  0
   -2.7686    0.5632    0.0004 C   0  0  0  0  0  0  0  0  0  0  0  0
    3.5420    0.1495    1.2737 C   0  0  0  0  0  0  0  0  0  0  0  0
    3.5427    0.1496   -1.2727 C   0  0  0  0  0  0  0  0  0  0  0  0
   -3.4521    1.1052    1.2743 C   0  0  0  0  0  0  0  0  0  0  0  0
   -3.4535    1.1061   -1.2723 C   0  0  0  0  0  0  0  0  0  0  0  0
    1.4752    1.8622   -0.0002 C   0  0  0  0  0  3  0  0  0  0  0  0
    0.3298    2.6970   -0.0003 C   0  0  0  0  0  0  0  0  0  0  0  0
   -0.9961    2.2031   -0.0002 C   0  0  0  0  0  0  0  0  0  0  0  0
   -0.4747   -3.1457   -0.0007 H   0  0  0  0  0  0  0  0  0  0  0  0
   -4.1049   -2.4169   -0.8850 H   0  0  0  0  0  0  0  0  0  0  0  0
   -4.1038   -2.4186    0.8833 H   0  0  0  0  0  0  0  0  0  0  0  0
   -4.9777   -1.1069    0.0009 H   0  0  0  0  0  0  0  0  0  0  0  0
    4.4181   -2.3959    0.0002 H   0  0  0  0  0  0  0  0  0  0  0  0
    3.2244   -3.4232    0.8846 H   0  0  0  0  0  0  0  0  0  0  0  0
    3.2243   -3.4235   -0.8838 H   0  0  0  0  0  0  0  0  0  0  0  0
    2.9320   -0.0544    2.1752 H   0  0  0  0  0  0  0  0  0  0  0  0
    4.4680   -0.4554    1.3294 H   0  0  0  0  0  0  0  0  0  0  0  0
    3.8356    1.2177    1.2789 H   0  0  0  0  0  0  0  0  0  0  0  0
    4.4687   -0.4553   -1.3279 H   0  0  0  0  0  0  0  0  0  0  0  0
    3.8364    1.2177   -1.2776 H   0  0  0  0  0  0  0  0  0  0  0  0
    2.9331   -0.0542   -2.1745 H   0  0  0  0  0  0  0  0  0  0  0  0
   -2.9190    0.7446    2.1754 H   0  0  0  0  0  0  0  0  0  0  0  0
   -4.5063    0.7702    1.3294 H   0  0  0  0  0  0  0  0  0  0  0  0
   -3.4506    2.2130    1.2825 H   0  0  0  0  0  0  0  0  0  0  0  0
   -4.5077    0.7712   -1.3265 H   0  0  0  0  0  0  0  0  0  0  0  0
   -2.9213    0.7464   -2.1743 H   0  0  0  0  0  0  0  0  0  0  0  0
   -3.4521    2.2140   -1.2797 H   0  0  0  0  0  0  0  0  0  0  0  0
    2.4319    2.4231   -0.0002 H   0  0  0  0  0  0  0  0  0  0  0  0
   -1.7766    2.9883   -0.0002 H   0  0  0  0  0  0  0  0  0  0  0  0
  1 22  1  0  0  0  0
  1  6  1  0  0  0  0
  2  7  1  0  0  0  0
  3  8  2  0  0  0  0
  4 13  1  0  0  0  0
  5 14  1  0  0  0  0
  8 20  1  0  0  0  0
  9  7  1  1  0  0  0
  9 12  1  0  0  0  0
  9 13  1  0  0  0  0
 10  6  1  1  0  0  0
 10 14  1  0  0  0  0
 11 10  1  0  0  0  0
 11 25  1  0  0  0  0
 11 24  1  0  0  0  0
 12 27  1  0  0  0  0
 13 15  1  0  0  0  0
 14 17  1  0  0  0  0
 15 31  1  0  0  0  0
 15 30  1  0  0  0  0
 15 29  1  0  0  0  0
 16 13  1  0  0  0  0
 17 37  1  0  0  0  0
 17 36  1  0  0  0  0
 17 35  1  0  0  0  0
 18 14  1  0  0  0  0
 19  4  1  0  0  0  0
 20 21  2  0  0  0  0
 20 19  1  0  0  0  0
 21 42  1  0  0  0  0
 21  5  1  0  0  0  0
 23 11  1  0  0  0  0
 26 12  1  0  0  0  0
 28 12  1  0  0  0  0
 32 16  1  0  0  0  0
 33 16  1  0  0  0  0
 34 16  1  0  0  0  0
 38 18  1  0  0  0  0
 39 18  1  0  0  0  0
 40 18  1  0  0  0  0
 41 19  1  0  0  0  0
M  END
