1,2,33,34
q = -2.0, confidence = 0.91

 56 56  0  0  1  0  0  0  0  0999 V2000
   -1.3626   -1.5070   -0.7577 N   0  0  0  0  0  2  0  0  0  0  0  0
   -1.3542    1.1227   -0.6450 N   0  0  0  0  0  2  0  0  0  0  0  0
   -4.1117   -1.2463    2.5302 O   0  0  0  0  0  0  0  0  0  0  0  0
    0.0002   -2.5184   -2.5499 C   0  0  0  0  0  0  0  0  0  0  0  0
   -1.2519   -2.6226   -1.6945 C   0  0  0  0  0  0  0  0  0  0  0  0
   -2.3744   -1.4971    0.1046 C   0  0  1  0  0  3  0  0  0  0  0  0
   -2.7426   -0.2846    0.8018 C   0  0  0  0  0  0  0  0  0  0  0  0
   -2.3401    0.9445    0.2127 C   0  0  0  0  0  0  0  0  0  0  0  0
   -1.2529    2.4040   -1.3219 C   0  0  0  0  0  0  0  0  0  0  0  0
   -0.0004    3.2161   -0.9351 C   0  0  0  0  0  0  0  0  0  0  0  0
   -0.0006    4.5235   -1.7401 C   0  0  0  0  0  0  0  0  0  0  0  0
   -0.0004    3.5124    0.5712 C   0  0  0  0  0  0  0  0  0  0  0  0
   -3.2403   -2.7271    0.2271 C   0  0  0  0  0  0  0  0  0  0  0  0
   -3.6532   -0.2457    1.9621 C   0  0  0  0  0  0  0  0  0  0  0  0
   -4.0257    1.1285    2.5332 C   0  0  0  0  0  0  0  0  0  0  0  0
    0.0001   -1.5662   -3.1241 H   0  0  0  0  0  0  0  0  0  0  0  0
    0.0003   -3.3454   -3.2899 H   0  0  0  0  0  0  0  0  0  0  0  0
   -1.2289   -3.5954   -1.1512 H   0  0  0  0  0  0  0  0  0  0  0  0
   -2.1574   -2.6543   -2.3424 H   0  0  0  0  0  0  0  0  0  0  0  0
   -2.9478    1.8413    0.4405 H   0  0  0  0  0  0  0  0  0  0  0  0
   -2.1606    3.0126   -1.1059 H   0  0  0  0  0  0  0  0  0  0  0  0
   -1.2406    2.2319   -2.4215 H   0  0  0  0  0  0  0  0  0  0  0  0
   -0.0006    4.3280   -2.8327 H   0  0  0  0  0  0  0  0  0  0  0  0
   -0.8958    5.1344   -1.5046 H   0  0  0  0  0  0  0  0  0  0  0  0
   -0.0003    2.5771    1.1645 H   0  0  0  0  0  0  0  0  0  0  0  0
   -0.8964    4.1005    0.8583 H   0  0  0  0  0  0  0  0  0  0  0  0
   -3.9367   -2.6127    1.0737 H   0  0  0  0  0  0  0  0  0  0  0  0
   -2.6215   -3.6329    0.3909 H   0  0  0  0  0  0  0  0  0  0  0  0
   -3.8040   -2.8898   -0.7168 H   0  0  0  0  0  0  0  0  0  0  0  0
   -4.6290    1.7224    1.8147 H   0  0  0  0  0  0  0  0  0  0  0  0
   -3.1349    1.7330    2.7987 H   0  0  0  0  0  0  0  0  0  0  0  0
   -4.6323    0.9545    3.4396 H   0  0  0  0  0  0  0  0  0  0  0  0
    1.3628   -1.5067   -0.7578 N   0  0  0  0  0  2  0  0  0  0  0  0
    1.3539    1.1230   -0.6450 N   0  0  0  0  0  2  0  0  0  0  0  0
    1.2524   -2.6223   -1.6946 C   0  0  0  0  0  0  0  0  0  0  0  0
    1.2523    2.4043   -1.3220 C   0  0  0  0  0  0  0  0  0  0  0  0
    0.8945    5.1346   -1.5046 H   0  0  0  0  0  0  0  0  0  0  0  0
    0.8954    4.1007    0.8583 H   0  0  0  0  0  0  0  0  0  0  0  0
    2.3747   -1.4965    0.1045 C   0  0  2  0  0  3  0  0  0  0  0  0
    2.3399    0.9450    0.2126 C   0  0  0  0  0  0  0  0  0  0  0  0
    1.2295   -3.5951   -1.1512 H   0  0  0  0  0  0  0  0  0  0  0  0
    2.1579   -2.6539   -2.3424 H   0  0  0  0  0  0  0  0  0  0  0  0
    2.1598    3.0131   -1.1059 H   0  0  0  0  0  0  0  0  0  0  0  0
    1.2400    2.2322   -2.4215 H   0  0  0  0  0  0  0  0  0  0  0  0
    2.7426   -0.2840    0.8017 C   0  0  0  0  0  0  0  0  0  0  0  0
    3.2409   -2.7262    0.2273 C   0  0  0  0  0  0  0  0  0  0  0  0
    2.9473    1.8420    0.4403 H   0  0  0  0  0  0  0  0  0  0  0  0
    3.6535   -0.2451    1.9618 C   0  0  0  0  0  0  0  0  0  0  0  0
    3.9372   -2.6115    1.0740 H   0  0  0  0  0  0  0  0  0  0  0  0
    2.6224   -3.6323    0.3913 H   0  0  0  0  0  0  0  0  0  0  0  0
    3.8047   -2.8890   -0.7164 H   0  0  0  0  0  0  0  0  0  0  0  0
    4.1122   -1.2459    2.5295 O   0  0  0  0  0  0  0  0  0  0  0  0
    4.0257    1.1289    2.5333 C   0  0  0  0  0  0  0  0  0  0  0  0
    4.6288    1.7232    1.8150 H   0  0  0  0  0  0  0  0  0  0  0  0
    3.1349    1.7332    2.7993 H   0  0  0  0  0  0  0  0  0  0  0  0
    4.6325    0.9547    3.4396 H   0  0  0  0  0  0  0  0  0  0  0  0
  1  6  1  0  0  0  0
  2  8  1  0  0  0  0
  4 35  1  0  0  0  0
  4  5  1  0  0  0  0
  5 18  1  0  0  0  0
  5  1  1  0  0  0  0
  6 13  1  6  0  0  0
  6  7  1  0  0  0  0
  7 14  1  0  0  0  0
  8 20  1  0  0  0  0
  8  7  2  0  0  0  0
  9 21  1  0  0  0  0
  9 10  1  0  0  0  0
  9  2  1  0  0  0  0
 10 12  1  0  0  0  0
 11 37  1  0  0  0  0
 11 24  1  0  0  0  0
 11 10  1  0  0  0  0
 12 38  1  0  0  0  0
 12 26  1  0  0  0  0
 12 25  1  0  0  0  0
 13 28  1  0  0  0  0
 13 27  1  0  0  0  0
 14  3  2  0  0  0  0
 14 15  1  0  0  0  0
 15 31  1  0  0  0  0
 15 32  1  0  0  0  0
 16  4  1  0  0  0  0
 17  4  1  0  0  0  0
 19  5  1  0  0  0  0
 22  9  1  0  0  0  0
 23 11  1  0  0  0  0
 29 13  1  0  0  0  0
 30 15  1  0  0  0  0
 33 39  1  0  0  0  0
 34 40  1  0  0  0  0
 35 41  1  0  0  0  0
 35 33  1  0  0  0  0
 36 43  1  0  0  0  0
 36 10  1  0  0  0  0
 36 34  1  0  0  0  0
 39 46  1  6  0  0  0
 39 45  1  0  0  0  0
 40 47  1  0  0  0  0
 40 45  2  0  0  0  0
 42 35  1  0  0  0  0
 44 36  1  0  0  0  0
 45 48  1  0  0  0  0
 46 50  1  0  0  0  0
 46 49  1  0  0  0  0
 48 52  2  0  0  0  0
 48 53  1  0  0  0  0
 51 46  1  0  0  0  0
 53 55  1  0  0  0  0
 53 56  1  0  0  0  0
 54 53  1  0  0  0  0
M  END
