1,2,3,4
q = -2.0, confidence = 0.954

 48 48  0  0  1  0  0  0  0  0999 V2000
   -1.3903    2.5259   -0.4107 N   0  0  0  0  0  2  0  0  0  0  0  0
   -1.1385    0.8895    1.6927 N   0  0  0  0  0  2  0  0  0  0  0  0
    1.5003    1.1857    1.5858 N   0  0  0  0  0  2  0  0  0  0  0  0
    1.3254    2.4752   -0.6670 N   0  0  0  0  0  2  0  0  0  0  0  0
   -2.4445    1.8096   -0.7660 C   0  0  1  0  0  3  0  0  0  0  0  0
   -2.6699    0.4971   -0.1799 C   0  0  0  0  0  0  0  0  0  0  0  0
   -2.1506    0.2514    1.1175 C   0  0  0  0  0  0  0  0  0  0  0  0
   -0.9109    0.6509    3.0530 C   0  0  0  0  0  0  0  0  0  0  0  0
    0.2580    0.8715    3.6940 C   0  0  0  0  0  0  0  0  0  0  0  0
    1.5230    1.3250    3.0308 C   0  0  0  0  0  0  0  0  0  0  0  0
    2.4037    0.4582    0.9775 C   0  0  0  0  0  3  0  0  0  0  0  0
    2.6224    0.4567   -0.4380 C   0  0  0  0  0  0  0  0  0  0  0  0
    2.2711    1.6769   -1.1431 C   0  0  0  0  0  0  0  0  0  0  0  0
    1.1826    3.8304   -1.1878 C   0  0  0  0  0  0  0  0  0  0  0  0
    0.0344    4.5552   -0.5000 C   0  0  0  0  0  0  0  0  0  0  0  0
   -1.3094    3.9243   -0.8352 C   0  0  0  0  0  0  0  0  0  0  0  0
   -3.4887    2.4312   -1.6609 C   0  0  0  0  0  0  0  0  0  0  0  0
    3.0715    2.1332   -2.3371 C   0  0  0  0  0  0  0  0  0  0  0  0
   -3.4698   -0.4976   -0.8884 C   0  0  0  0  0  0  0  0  0  0  0  0
   -3.6206   -1.9564   -0.2553 C   0  0  0  0  0  0  0  0  0  0  0  0
    3.2791   -0.6505   -1.1156 C   0  0  0  0  0  0  0  0  0  0  0  0
    3.5231   -1.9975   -0.2893 C   0  0  0  0  0  0  0  0  0  0  0  0
   -3.9962   -0.3381   -1.9865 O   0  0  0  0  0  0  0  0  0  0  0  0
    3.6198   -0.6869   -2.2960 O   0  0  0  0  0  0  0  0  0  0  0  0
   -2.0100   -2.6570    0.1667 Cl  0  0  0  0  0  0  0  0  0  0  0  0
   -4.4178   -3.0335   -1.4156 Cl  0  0  0  0  0  0  0  0  0  0  0  0
   -4.6636   -1.8567    1.2337 Cl  0  0  0  0  0  0  0  0  0  0  0  0
    2.0349   -2.5218    0.5921 Cl  0  0  0  0  0  0  0  0  0  0  0  0
    4.8732   -1.7174    0.9019 Cl  0  0  0  0  0  0  0  0  0  0  0  0
    4.0153   -3.2971   -1.3886 Cl  0  0  0  0  0  0  0  0  0  0  0  0
   -2.6549   -0.5119    1.7347 H   0  0  0  0  0  0  0  0  0  0  0  0
   -1.7724    0.2493    3.6155 H   0  0  0  0  0  0  0  0  0  0  0  0
    0.3004    0.6858    4.7775 H   0  0  0  0  0  0  0  0  0  0  0  0
    1.7331    2.3920    3.2890 H   0  0  0  0  0  0  0  0  0  0  0  0
    2.3820    0.7469    3.4432 H   0  0  0  0  0  0  0  0  0  0  0  0
    3.0940   -0.1261    1.6151 H   0  0  0  0  0  0  0  0  0  0  0  0
    2.1322    4.3924   -1.0393 H   0  0  0  0  0  0  0  0  0  0  0  0
    1.0010    3.8149   -2.2878 H   0  0  0  0  0  0  0  0  0  0  0  0
    0.1993    4.5621    0.5994 H   0  0  0  0  0  0  0  0  0  0  0  0
    0.0194    5.6135   -0.8329 H   0  0  0  0  0  0  0  0  0  0  0  0
   -1.4749    4.0041   -1.9336 H   0  0  0  0  0  0  0  0  0  0  0  0
   -2.1297    4.5049   -0.3552 H   0  0  0  0  0  0  0  0  0  0  0  0
   -3.0563    2.6980   -2.6482 H   0  0  0  0  0  0  0  0  0  0  0  0
   -3.8562    3.3745   -1.2051 H   0  0  0  0  0  0  0  0  0  0  0  0
   -4.3270    1.7436   -1.8418 H   0  0  0  0  0  0  0  0  0  0  0  0
    2.4041    2.3954   -3.1840 H   0  0  0  0  0  0  0  0  0  0  0  0
    3.7643    1.3464   -2.6714 H   0  0  0  0  0  0  0  0  0  0  0  0
    3.6353    3.0542   -2.0758 H   0  0  0  0  0  0  0  0  0  0  0  0
  2  8  1  0  0  0  0
  3 10  1  0  0  0  0
  5 17  1  1  0  0  0
  5  1  1  0  0  0  0
  5  6  1  0  0  0  0
  6  7  2  0  0  0  0
  7  2  1  0  0  0  0
  7 31  1  0  0  0  0
  8 32  1  0  0  0  0
  8  9  2  0  0  0  0
  9 33  1  0  0  0  0
 10 34  1  0  0  0  0
 10 35  1  0  0  0  0
 10  9  1  0  0  0  0
 11  3  1  0  0  0  0
 11 36  1  0  0  0  0
 12 11  1  0  0  0  0
 13  4  1  0  0  0  0
 13 12  2  0  0  0  0
 14 37  1  0  0  0  0
 14  4  1  0  0  0  0
 14 15  1  0  0  0  0
 15 39  1  0  0  0  0
 16 15  1  0  0  0  0
 16  1  1  0  0  0  0
 16 42  1  0  0  0  0
 17 44  1  0  0  0  0
 18 48  1  0  0  0  0
 18 13  1  0  0  0  0
 19 20  1  0  0  0  0
 19  6  1  0  0  0  0
 20 25  1  0  0  0  0
 20 27  1  0  0  0  0
 21 12  1  0  0  0  0
 21 22  1  0  0  0  0
 22 28  1  0  0  0  0
 22 29  1  0  0  0  0
 23 19  2  0  0  0  0
 24 21  2  0  0  0  0
 26 20  1  0  0  0  0
 30 22  1  0  0  0  0
 38 14  1  0  0  0  0
 40 15  1  0  0  0  0
 41 16  1  0  0  0  0
 43 17  1  0  0  0  0
 45 17  1  0  0  0  0
 46 18  1  0  0  0  0
 47 18  1  0  0  0  0
M  END
