1,5,10,11
q = 0.0, confidence = 1.0

 32 33  0  0  0  0  0  0  0  0999 V2000
    2.5562   -0.5665    0.0727 N   0  0  0  0  0  2  0  0  0  0  0  0
    3.3328    0.5461    0.1472 C   0  0  0  0  0  0  0  0  0  0  0  0
    2.6310    1.8310    0.2813 C   0  0  0  0  0  0  0  0  0  0  0  0
    3.2473    2.7508    0.3900 H   0  0  0  0  0  0  0  0  0  0  0  0
   -2.5561   -0.5664   -0.0730 N   0  0  0  0  0  2  0  0  0  0  0  0
   -3.3326    0.5461   -0.1485 C   0  0  0  0  0  0  0  0  0  0  0  0
    0.6079    3.0862    0.4685 C   0  0  0  0  0  0  0  0  0  0  0  0
    1.2303    3.9957    0.3093 H   0  0  0  0  0  0  0  0  0  0  0  0
    0.2452    3.0765    1.5201 H   0  0  0  0  0  0  0  0  0  0  0  0
   -1.3480    1.8567   -0.2818 N   0  0  0  0  0  2  0  0  0  0  0  0
    1.3482    1.8567    0.2818 N   0  0  0  0  0  2  0  0  0  0  0  0
   -0.6075    3.0861   -0.4686 C   0  0  0  0  0  0  0  0  0  0  0  0
   -1.2299    3.9957   -0.3096 H   0  0  0  0  0  0  0  0  0  0  0  0
   -0.2449    3.0763   -1.5202 H   0  0  0  0  0  0  0  0  0  0  0  0
    4.7367    0.4860    0.1035 C   0  0  0  0  0  0  0  0  0  0  0  0
    5.3262    1.4124    0.1690 H   0  0  0  0  0  0  0  0  0  0  0  0
   -2.6307    1.8310   -0.2824 C   0  0  0  0  0  0  0  0  0  0  0  0
   -3.2469    2.7507   -0.3920 H   0  0  0  0  0  0  0  0  0  0  0  0
    3.1546   -1.7619   -0.0488 C   0  0  0  0  0  0  0  0  0  0  0  0
    2.4682   -2.6253   -0.1024 H   0  0  0  0  0  0  0  0  0  0  0  0
    4.5527   -1.9072   -0.1028 C   0  0  0  0  0  0  0  0  0  0  0  0
    4.9906   -2.9105   -0.2030 H   0  0  0  0  0  0  0  0  0  0  0  0
   -3.1546   -1.7618    0.0482 C   0  0  0  0  0  0  0  0  0  0  0  0
   -2.4683   -2.6252    0.1029 H   0  0  0  0  0  0  0  0  0  0  0  0
   -4.7366    0.4860   -0.1063 C   0  0  0  0  0  0  0  0  0  0  0  0
   -5.3260    1.4124   -0.1727 H   0  0  0  0  0  0  0  0  0  0  0  0
   -5.3571   -0.7644    0.0225 C   0  0  0  0  0  0  0  0  0  0  0  0
   -6.4541   -0.8424    0.0604 H   0  0  0  0  0  0  0  0  0  0  0  0
    5.3571   -0.7644   -0.0256 C   0  0  0  0  0  0  0  0  0  0  0  0
    6.4540   -0.8424   -0.0647 H   0  0  0  0  0  0  0  0  0  0  0  0
   -4.5528   -1.9071    0.1008 C   0  0  0  0  0  0  0  0  0  0  0  0
   -4.9908   -2.9104    0.2008 H   0  0  0  0  0  0  0  0  0  0  0  0
  1  2  1  0  0  0  0
  2  3  2  0  0  0  0
  3 11  1  0  0  0  0
  3  4  1  0  0  0  0
  5 23  1  0  0  0  0
  6 25  1  0  0  0  0
  6  5  1  0  0  0  0
  7  9  1  0  0  0  0
  8  7  1  0  0  0  0
 11  7  1  0  0  0  0
 12 13  1  0  0  0  0
 12 10  1  0  0  0  0
 12  7  1  0  0  0  0
 14 12  1  0  0  0  0
 15  2  1  0  0  0  0
 15 16  1  0  0  0  0
 17 10  1  0  0  0  0
 17  6  2  0  0  0  0
 18 17  1  0  0  0  0
 19  1  1  0  0  0  0
 20 19  1  0  0  0  0
 21 19  2  0  0  0  0
 21 29  1  0  0  0  0
 22 21  1  0  0  0  0
 23 31  2  0  0  0  0
 23 24  1  0  0  0  0
 25 27  2  0  0  0  0
 26 25  1  0  0  0  0
 27 28  1  0  0  0  0
 27 31  1  0  0  0  0
 29 15  2  0  0  0  0
 30 29  1  0  0  0  0
 31 32  1  0  0  0  0
M  END
