1,2,3,4
q = -2.0, confidence = 0.858

 78 89  0  0  0  0  0  0  0  0999 V2000
    1.5043   -0.0000    0.0000 N   0  0  0  0  0  0  0  0  0  0  0  0
   -0.3948    2.1251    0.0641 N   0  0  0  0  0  2  0  0  0  0  0  0
   -2.4514   -0.0000   -0.0002 N   0  0  0  0  0  0  0  0  0  0  0  0
   -0.3947   -2.1251   -0.0641 N   0  0  0  0  0  0  0  0  0  0  0  0
    2.3206   -1.1016   -0.1802 C   0  0  0  0  0  0  0  0  0  0  0  0
    3.6820   -0.6850   -0.1243 C   0  0  0  0  0  0  0  0  0  0  0  0
    3.6819    0.6849    0.1251 C   0  0  0  0  0  0  0  0  0  0  0  0
    2.3206    1.1016    0.1806 C   0  0  0  0  0  0  0  0  0  0  0  0
    2.0378    2.4771    0.3097 C   0  0  0  0  0  0  0  0  0  0  0  0
    0.7021    2.9554    0.0620 C   0  0  0  0  0  0  0  0  0  0  0  0
    0.2988    4.2914   -0.3370 C   0  0  0  0  0  0  0  0  0  0  0  0
    0.9652    5.1412   -0.5105 H   0  0  0  0  0  0  0  0  0  0  0  0
   -1.0608    4.2556   -0.5474 C   0  0  0  0  0  0  0  0  0  0  0  0
   -1.7034    5.0716   -0.8938 H   0  0  0  0  0  0  0  0  0  0  0  0
   -1.4927    2.8993   -0.2725 C   0  0  0  0  0  0  0  0  0  0  0  0
   -2.8306    2.4461   -0.3435 C   0  0  0  0  0  0  0  0  0  0  0  0
   -3.2668    1.1015   -0.1660 C   0  0  0  0  0  0  0  0  0  0  0  0
   -4.6488    0.6817   -0.1014 C   0  0  0  0  0  0  0  0  0  0  0  0
   -5.5162    1.3438   -0.1875 H   0  0  0  0  0  0  0  0  0  0  0  0
   -4.6488   -0.6816    0.1032 C   0  0  0  0  0  0  0  0  0  0  0  0
   -5.5162   -1.3435    0.1902 H   0  0  0  0  0  0  0  0  0  0  0  0
   -3.2668   -1.1015    0.1664 C   0  0  0  0  0  0  0  0  0  0  0  0
   -2.8305   -2.4461    0.3435 C   0  0  0  0  0  0  0  0  0  0  0  0
   -1.4927   -2.8994    0.2719 C   0  0  0  0  0  3  0  0  0  0  0  0
   -1.0609   -4.2559    0.5461 C   0  0  0  0  0  0  0  0  0  0  0  0
   -1.7036   -5.0721    0.8920 H   0  0  0  0  0  0  0  0  0  0  0  0
    0.2987   -4.2917    0.3357 C   0  0  0  0  0  0  0  0  0  0  0  0
    0.9650   -5.1417    0.5088 H   0  0  0  0  0  0  0  0  0  0  0  0
    0.7021   -2.9555   -0.0625 C   0  0  0  0  0  0  0  0  0  0  0  0
    2.0379   -2.4772   -0.3098 C   0  0  0  0  0  0  0  0  0  0  0  0
    3.2091   -3.3362   -0.6123 C   0  0  0  0  0  0  0  0  0  0  0  0
    3.0234   -4.6694   -1.0680 C   0  0  0  0  0  0  0  0  0  0  0  0
    2.0032   -5.0261   -1.2548 H   0  0  0  0  0  0  0  0  0  0  0  0
    4.0914   -5.5249   -1.3396 C   0  0  0  0  0  0  0  0  0  0  0  0
    3.8903   -6.5470   -1.6946 H   0  0  0  0  0  0  0  0  0  0  0  0
    5.4171   -5.0769   -1.1844 C   0  0  0  0  0  0  0  0  0  0  0  0
    6.2626   -5.7500   -1.3906 H   0  0  0  0  0  0  0  0  0  0  0  0
    5.6466   -3.7548   -0.8081 C   0  0  0  0  0  0  0  0  0  0  0  0
    6.6791   -3.3817   -0.7354 H   0  0  0  0  0  0  0  0  0  0  0  0
    4.5850   -2.8590   -0.5405 C   0  0  0  0  0  0  0  0  0  0  0  0
    4.8376   -1.4498   -0.2510 C   0  0  0  0  0  0  0  0  0  0  0  0
    6.0482   -0.6960   -0.1171 C   0  0  0  0  0  0  0  0  0  0  0  0
    7.0227   -1.2005   -0.2024 H   0  0  0  0  0  0  0  0  0  0  0  0
    6.0482    0.6961    0.1179 C   0  0  0  0  0  0  0  0  0  0  0  0
    7.0226    1.2006    0.2033 H   0  0  0  0  0  0  0  0  0  0  0  0
    4.8375    1.4499    0.2518 C   0  0  0  0  0  0  0  0  0  0  0  0
    4.5848    2.8591    0.5409 C   0  0  0  0  0  0  0  0  0  0  0  0
    5.6464    3.7550    0.8083 C   0  0  0  0  0  0  0  0  0  0  0  0
    6.6789    3.3819    0.7361 H   0  0  0  0  0  0  0  0  0  0  0  0
    5.4167    5.0772    1.1841 C   0  0  0  0  0  0  0  0  0  0  0  0
    6.2622    5.7504    1.3903 H   0  0  0  0  0  0  0  0  0  0  0  0
    4.0910    5.5253    1.3389 C   0  0  0  0  0  0  0  0  0  0  0  0
    3.8898    6.5475    1.6935 H   0  0  0  0  0  0  0  0  0  0  0  0
    3.0231    4.6696    1.0674 C   0  0  0  0  0  0  0  0  0  0  0  0
    2.0028    5.0264    1.2538 H   0  0  0  0  0  0  0  0  0  0  0  0
    3.2089    3.3363    0.6122 C   0  0  0  0  0  0  0  0  0  0  0  0
   -3.8856    3.4668   -0.6170 C   0  0  0  0  0  0  0  0  0  0  0  0
   -4.0967    4.5438    0.2718 C   0  0  0  0  0  0  0  0  0  0  0  0
   -3.4801    4.6147    1.1803 H   0  0  0  0  0  0  0  0  0  0  0  0
   -5.0872    5.5021    0.0126 C   0  0  0  0  0  0  0  0  0  0  0  0
   -5.2432    6.3303    0.7206 H   0  0  0  0  0  0  0  0  0  0  0  0
   -5.8808    5.4032   -1.1413 C   0  0  0  0  0  0  0  0  0  0  0  0
   -6.6568    6.1565   -1.3454 H   0  0  0  0  0  0  0  0  0  0  0  0
   -5.6793    4.3378   -2.0335 C   0  0  0  0  0  0  0  0  0  0  0  0
   -6.2924    4.2568   -2.9441 H   0  0  0  0  0  0  0  0  0  0  0  0
   -4.6928    3.3763   -1.7727 C   0  0  0  0  0  0  0  0  0  0  0  0
   -4.5287    2.5459   -2.4757 H   0  0  0  0  0  0  0  0  0  0  0  0
   -3.8854   -3.4668    0.6171 C   0  0  0  0  0  0  0  0  0  0  0  0
   -4.6916   -3.3771    1.7735 C   0  0  0  0  0  0  0  0  0  0  0  0
   -4.5268   -2.5473    2.4771 H   0  0  0  0  0  0  0  0  0  0  0  0
   -5.6781   -4.3387    2.0344 C   0  0  0  0  0  0  0  0  0  0  0  0
   -6.2903   -4.2584    2.9456 H   0  0  0  0  0  0  0  0  0  0  0  0
   -5.8805   -5.4033    1.1414 C   0  0  0  0  0  0  0  0  0  0  0  0
   -6.6565   -6.1566    1.3456 H   0  0  0  0  0  0  0  0  0  0  0  0
   -5.0880   -5.5015   -0.0132 C   0  0  0  0  0  0  0  0  0  0  0  0
   -5.2447   -6.3290   -0.7218 H   0  0  0  0  0  0  0  0  0  0  0  0
   -4.0975   -4.5430   -0.2725 C   0  0  0  0  0  0  0  0  0  0  0  0
   -3.4817   -4.6133   -1.1816 H   0  0  0  0  0  0  0  0  0  0  0  0
  1  8  2  0  0  0  0
  3 22  1  0  0  0  0
  4 29  2  0  0  0  0
  4 24  1  0  0  0  0
  5  6  1  0  0  0  0
  5  1  1  0  0  0  0
  6  7  1  0  0  0  0
  7  8  1  0  0  0  0
  7 46  2  0  0  0  0
  8  9  1  0  0  0  0
  9 56  1  0  0  0  0
 10  2  1  0  0  0  0
 10  9  2  0  0  0  0
 11 10  1  0  0  0  0
 12 11  1  0  0  0  0
 13 11  2  0  0  0  0
 13 15  1  0  0  0  0
 14 13  1  0  0  0  0
 15  2  1  0  0  0  0
 16 15  2  0  0  0  0
 16 17  1  0  0  0  0
 17 18  1  0  0  0  0
 17  3  2  0  0  0  0
 18 20  2  0  0  0  0
 19 18  1  0  0  0  0
 20 22  1  0  0  0  0
 20 21  1  0  0  0  0
 22 23  2  0  0  0  0
 23 68  1  0  0  0  0
 24 23  1  0  0  0  0
 24 25  1  0  0  0  0
 25 26  1  0  0  0  0
 27 28  1  0  0  0  0
 27 25  2  0  0  0  0
 29 27  1  0  0  0  0
 30  5  2  0  0  0  0
 30 29  1  0  0  0  0
 31 40  1  0  0  0  0
 31 30  1  0  0  0  0
 32 31  2  0  0  0  0
 33 32  1  0  0  0  0
 34 36  2  0  0  0  0
 34 32  1  0  0  0  0
 35 34  1  0  0  0  0
 36 38  1  0  0  0  0
 37 36  1  0  0  0  0
 38 39  1  0  0  0  0
 38 40  2  0  0  0  0
 40 41  1  0  0  0  0
 41  6  2  0  0  0  0
 41 42  1  0  0  0  0
 42 44  2  0  0  0  0
 43 42  1  0  0  0  0
 44 45  1  0  0  0  0
 44 46  1  0  0  0  0
 46 47  1  0  0  0  0
 47 56  2  0  0  0  0
 47 48  1  0  0  0  0
 48 50  2  0  0  0  0
 49 48  1  0  0  0  0
 50 52  1  0  0  0  0
 50 51  1  0  0  0  0
 52 53  1  0  0  0  0
 54 55  1  0  0  0  0
 54 52  2  0  0  0  0
 56 54  1  0  0  0  0
 57 16  1  0  0  0  0
 57 58  1  0  0  0  0
 58 59  1  0  0  0  0
 60 58  2  0  0  0  0
 60 61  1  0  0  0  0
 62 60  1  0  0  0  0
 63 62  1  0  0  0  0
 64 66  1  0  0  0  0
 64 62  2  0  0  0  0
 65 64  1  0  0  0  0
 66 57  2  0  0  0  0
 67 66  1  0  0  0  0
 68 69  1  0  0  0  0
 69 71  2  0  0  0  0
 69 70  1  0  0  0  0
 71 72  1  0  0  0  0
 73 74  1  0  0  0  0
 73 71  1  0  0  0  0
 75 73  2  0  0  0  0
 76 75  1  0  0  0  0
 77 75  1  0  0  0  0
 77 68  2  0  0  0  0
 78 77  1  0  0  0  0
M  END
