6,7,8,9
q = -1.0

 32 31  0  0  1  0  0  0  0  0999 V2000
   -1.2068   -2.8061    0.1705 O   0  0  0  0  0  0  0  0  0  0  0  0
   -0.0005   -2.9104    0.1722 H   0  0  0  0  0  0  0  0  0  0  0  0
   -3.7215    1.1154   -0.1688 O   0  0  0  0  0  0  0  0  0  0  0  0
    1.2076   -2.8056    0.1705 O   0  0  0  0  0  1  0  0  0  0  0  0
    3.7212    1.1166   -0.1687 O   0  0  0  0  0  0  0  0  0  0  0  0
   -1.3895   -1.5064    0.0183 N   0  0  0  0  0  2  0  0  0  0  0  0
   -1.3935    0.9778   -0.3302 N   0  0  0  0  0  2  0  0  0  0  0  0
    1.3902   -1.5061    0.0187 N   0  0  0  0  0  2  0  0  0  0  0  0
    1.3932    0.9784   -0.3286 N   0  0  0  0  0  2  0  0  0  0  0  0
   -0.0008    2.9224    0.1386 N   0  0  0  0  0  0  0  0  0  0  0  0
   -3.8313   -1.8355    0.1970 C   0  0  0  0  0  0  0  0  0  0  0  0
   -4.7063   -1.1575    0.1903 H   0  0  0  0  0  0  0  0  0  0  0  0
   -3.7971   -2.4090    1.1484 H   0  0  0  0  0  0  0  0  0  0  0  0
   -3.9300   -2.5895   -0.6142 H   0  0  0  0  0  0  0  0  0  0  0  0
   -2.6061   -1.0109    0.0224 C   0  0  2  0  0  3  0  0  0  0  0  0
   -2.6479    0.4772   -0.1674 C   0  0  0  0  0  0  0  0  0  0  0  0
   -1.2080    2.4079   -0.4888 C   0  0  0  0  0  0  0  0  0  0  0  0
   -2.1004    2.9255   -0.0705 H   0  0  0  0  0  0  0  0  0  0  0  0
   -1.1473    2.6800   -1.5713 H   0  0  0  0  0  0  0  0  0  0  0  0
   -0.0017    2.7903    1.5861 C   0  0  0  0  0  0  0  0  0  0  0  0
   -0.0019    1.7312    1.9445 H   0  0  0  0  0  0  0  0  0  0  0  0
   -0.9025    3.2890    2.0023 H   0  0  0  0  0  0  0  0  0  0  0  0
    0.8984    3.2891    2.0035 H   0  0  0  0  0  0  0  0  0  0  0  0
    1.2075    2.4085   -0.4872 C   0  0  0  0  0  0  0  0  0  0  0  0
    2.0992    2.9263   -0.0674 H   0  0  0  0  0  0  0  0  0  0  0  0
    1.1485    2.6809   -1.5697 H   0  0  0  0  0  0  0  0  0  0  0  0
    2.6479    0.4780   -0.1668 C   0  0  0  0  0  0  0  0  0  0  0  0
    2.6067   -1.0101    0.0225 C   0  0  2  0  0  3  0  0  0  0  0  0
    3.8321   -1.8345    0.1963 C   0  0  0  0  0  0  0  0  0  0  0  0
    4.7072   -1.1565    0.1869 H   0  0  0  0  0  0  0  0  0  0  0  0
    3.9291   -2.5901   -0.6136 H   0  0  0  0  0  0  0  0  0  0  0  0
    3.7998   -2.4061    1.1490 H   0  0  0  0  0  0  0  0  0  0  0  0
  1  2  1  0  0  0  0
  3 16  2  0  0  0  0
  5 27  2  0  0  0  0
  6 15  1  0  0  0  0
  6  1  1  0  0  0  0
  7 16  1  0  0  0  0
  8 28  1  0  0  0  0
  8  4  1  0  0  0  0
  9 27  1  0  0  0  0
 10 20  1  0  0  0  0
 11 13  1  0  0  0  0
 12 11  1  0  0  0  0
 14 11  1  0  0  0  0
 15 16  1  6  0  0  0
 15 11  1  0  0  0  0
 17  7  1  0  0  0  0
 17 18  1  0  0  0  0
 17 10  1  0  0  0  0
 19 17  1  0  0  0  0
 20 21  1  0  0  0  0
 20 22  1  0  0  0  0
 20 23  1  0  0  0  0
 24  9  1  0  0  0  0
 24 25  1  0  0  0  0
 24 10  1  0  0  0  0
 26 24  1  0  0  0  0
 28 27  1  6  0  0  0
 28 29  1  0  0  0  0
 29 32  1  0  0  0  0
 30 29  1  0  0  0  0
 31 29  1  0  0  0  0
M  END
