2,3,4,5
q = 0.0, confidence = 0.93

 60 64  0  0  1  0  0  0  0  0999 V2000
   -3.7708    2.0855    1.2441 O   0  0  0  0  0  0  0  0  0  0  0  0
    2.6724   -1.2831   -0.9216 N   0  0  0  0  0  2  0  0  0  0  0  0
    3.0226    1.0416    0.4893 N   0  0  0  0  0  0  0  0  0  0  0  0
    1.4184   -0.9348    1.5028 N   0  0  0  0  0  2  0  0  0  0  0  0
    0.4242    1.8271    0.6285 N   0  0  0  0  0  2  0  0  0  0  0  0
   -1.7627    1.0285    0.7711 N   0  0  0  0  0  0  0  0  0  0  0  0
    2.4206   -2.5588   -1.2990 C   0  0  0  0  0  3  0  0  0  0  0  0
    3.4498   -3.4758   -1.5366 C   0  0  0  0  0  0  0  0  0  0  0  0
    4.7805   -3.0710   -1.3624 C   0  0  0  0  0  0  0  0  0  0  0  0
    5.0388   -1.7529   -0.9537 C   0  0  0  0  0  0  0  0  0  0  0  0
    3.9693   -0.8756   -0.7461 C   0  0  0  0  0  0  0  0  0  0  0  0
    4.1386    0.5807   -0.3922 C   0  0  0  0  0  0  0  0  0  0  0  0
    3.2065    0.6482    1.9259 C   0  0  0  0  0  0  0  0  0  0  0  0
    2.4782   -0.6160    2.2927 C   0  0  1  0  0  3  0  0  0  0  0  0
    2.8081   -1.3792    3.4206 C   0  0  0  0  0  0  0  0  0  0  0  0
    2.0156   -2.4863    3.7531 C   0  0  0  0  0  0  0  0  0  0  0  0
    0.9224   -2.8046    2.9336 C   0  0  0  0  0  0  0  0  0  0  0  0
    0.6619   -2.0149    1.8105 C   0  0  0  0  0  0  0  0  0  0  0  0
    2.7598    2.5068    0.3908 C   0  0  0  0  0  0  0  0  0  0  0  0
    1.3663    2.7917    0.8932 C   0  0  1  0  0  3  0  0  0  0  0  0
    1.0578    3.9851    1.5421 C   0  0  0  0  0  0  0  0  0  0  0  0
   -0.2769    4.2198    1.9204 C   0  0  0  0  0  0  0  0  0  0  0  0
   -1.2436    3.2553    1.6664 C   0  0  0  0  0  0  0  0  0  0  0  0
   -0.8688    2.0440    1.0248 C   0  0  0  0  0  0  0  0  0  0  0  0
   -3.1650    1.0655    0.9290 C   0  0  0  0  0  0  0  0  0  0  0  0
   -3.8220   -0.2546    0.6800 C   0  0  0  0  0  0  0  0  0  0  0  0
   -3.2121   -1.4149    1.1610 C   0  0  0  0  0  0  0  0  0  0  0  0
   -3.8113   -2.6856    0.9987 C   0  0  0  0  0  0  0  0  0  0  0  0
   -5.0194   -2.7946    0.3289 C   0  0  0  0  0  0  0  0  0  0  0  0
   -5.6819   -1.6414   -0.1830 C   0  0  0  0  0  0  0  0  0  0  0  0
   -6.9239   -1.7567   -0.8740 C   0  0  0  0  0  0  0  0  0  0  0  0
   -7.5710   -0.6343   -1.3645 C   0  0  0  0  0  0  0  0  0  0  0  0
   -6.9958    0.6498   -1.1784 C   0  0  0  0  0  0  0  0  0  0  0  0
   -5.7889    0.8002   -0.5099 C   0  0  0  0  0  0  0  0  0  0  0  0
   -5.0930   -0.3341    0.0038 C   0  0  0  0  0  0  0  0  0  0  0  0
    1.3535   -2.8095   -1.4100 H   0  0  0  0  0  0  0  0  0  0  0  0
    3.1996   -4.4990   -1.8507 H   0  0  0  0  0  0  0  0  0  0  0  0
    5.6098   -3.7723   -1.5352 H   0  0  0  0  0  0  0  0  0  0  0  0
    6.0685   -1.3992   -0.8001 H   0  0  0  0  0  0  0  0  0  0  0  0
    4.0523    1.1788   -1.3271 H   0  0  0  0  0  0  0  0  0  0  0  0
    5.1320    0.7783    0.0645 H   0  0  0  0  0  0  0  0  0  0  0  0
    4.2858    0.5823    2.1749 H   0  0  0  0  0  0  0  0  0  0  0  0
    2.7862    1.4674    2.5465 H   0  0  0  0  0  0  0  0  0  0  0  0
    3.6771   -1.1002    4.0340 H   0  0  0  0  0  0  0  0  0  0  0  0
    2.2535   -3.0960    4.6370 H   0  0  0  0  0  0  0  0  0  0  0  0
    0.2758   -3.6663    3.1507 H   0  0  0  0  0  0  0  0  0  0  0  0
   -0.1550   -2.2294    1.1029 H   0  0  0  0  0  0  0  0  0  0  0  0
    3.5168    3.0986    0.9497 H   0  0  0  0  0  0  0  0  0  0  0  0
    2.8254    2.7692   -0.6890 H   0  0  0  0  0  0  0  0  0  0  0  0
   -1.3766    0.2085    0.2577 H   0  0  0  0  0  0  0  0  0  0  0  0
    1.8490    4.7223    1.7365 H   0  0  0  0  0  0  0  0  0  0  0  0
   -0.5580    5.1577    2.4215 H   0  0  0  0  0  0  0  0  0  0  0  0
   -2.2995    3.3892    1.9270 H   0  0  0  0  0  0  0  0  0  0  0  0
   -2.2627   -1.3343    1.7099 H   0  0  0  0  0  0  0  0  0  0  0  0
   -3.3176   -3.5802    1.4062 H   0  0  0  0  0  0  0  0  0  0  0  0
   -5.4928   -3.7787    0.1883 H   0  0  0  0  0  0  0  0  0  0  0  0
   -7.3594   -2.7587   -1.0092 H   0  0  0  0  0  0  0  0  0  0  0  0
   -8.5300   -0.7346   -1.8941 H   0  0  0  0  0  0  0  0  0  0  0  0
   -7.5169    1.5394   -1.5632 H   0  0  0  0  0  0  0  0  0  0  0  0
   -5.3699    1.8012   -0.3492 H   0  0  0  0  0  0  0  0  0  0  0  0
  2 11  1  0  0  0  0
  3 13  1  0  0  0  0
  4 18  1  0  0  0  0
  4 14  1  0  0  0  0
  5 20  1  0  0  0  0
  5 24  1  0  0  0  0
  6 25  1  0  0  0  0
  6 24  1  0  0  0  0
  7  2  1  0  0  0  0
  8  9  2  0  0  0  0
  8  7  1  0  0  0  0
  9 10  1  0  0  0  0
 10 39  1  0  0  0  0
 10 11  2  0  0  0  0
 11 12  1  0  0  0  0
 12 41  1  0  0  0  0
 12  3  1  0  0  0  0
 13 42  1  0  0  0  0
 13 43  1  0  0  0  0
 14 13  1  1  0  0  0
 14 15  1  0  0  0  0
 15 16  2  0  0  0  0
 15 44  1  0  0  0  0
 16 45  1  0  0  0  0
 17 46  1  0  0  0  0
 17 16  1  0  0  0  0
 18 17  2  0  0  0  0
 19  3  1  0  0  0  0
 19 48  1  0  0  0  0
 20 19  1  6  0  0  0
 20 21  1  0  0  0  0
 21 51  1  0  0  0  0
 21 22  2  0  0  0  0
 22 52  1  0  0  0  0
 23 22  1  0  0  0  0
 23 53  1  0  0  0  0
 24 23  2  0  0  0  0
 25  1  2  0  0  0  0
 26 25  1  0  0  0  0
 26 27  1  0  0  0  0
 27 54  1  0  0  0  0
 28 27  2  0  0  0  0
 28 55  1  0  0  0  0
 29 28  1  0  0  0  0
 30 35  1  0  0  0  0
 30 29  2  0  0  0  0
 31 30  1  0  0  0  0
 32 33  1  0  0  0  0
 32 31  2  0  0  0  0
 33 34  2  0  0  0  0
 34 60  1  0  0  0  0
 34 35  1  0  0  0  0
 35 26  2  0  0  0  0
 36  7  1  0  0  0  0
 37  8  1  0  0  0  0
 38  9  1  0  0  0  0
 40 12  1  0  0  0  0
 47 18  1  0  0  0  0
 49 19  1  0  0  0  0
 50  6  1  0  0  0  0
 56 29  1  0  0  0  0
 57 31  1  0  0  0  0
 58 32  1  0  0  0  0
 59 33  1  0  0  0  0
M  END
