1,2,3,4
q = 0.0, confidence = 0.996

 34 33  0  0  0  0  0  0  0  0999 V2000
    0.7391    0.3681   -1.8219 N   0  0  0  0  0  0  0  0  0  0  0  0
    1.4000   -1.1838    0.3566 N   0  0  0  0  0  0  0  0  0  0  0  0
   -1.3970   -1.1864   -0.3587 N   0  0  0  0  0  0  0  0  0  0  0  0
   -0.7397    0.3630    1.8225 N   0  0  0  0  0  0  0  0  0  0  0  0
    1.6070   -0.7854   -2.1079 C   0  0  0  0  0  0  0  0  0  0  0  0
    2.3361   -1.1208   -0.8154 C   0  0  0  0  0  0  0  0  0  0  0  0
    0.6311   -2.4633    0.4263 C   0  0  0  0  0  0  0  0  0  0  0  0
   -0.6245   -2.4632   -0.4338 C   0  0  0  0  0  0  0  0  0  0  0  0
   -2.3318   -1.1300    0.8148 C   0  0  0  0  0  0  0  0  0  0  0  0
   -1.6024   -0.7946    2.1072 C   0  0  0  0  0  0  0  0  0  0  0  0
    2.2081   -1.0599    1.5972 C   0  0  0  0  0  0  0  0  0  0  0  0
   -2.2071   -1.0607   -1.5977 C   0  0  0  0  0  0  0  0  0  0  0  0
    0.0055    0.5548   -2.5224 H   0  0  0  0  0  0  0  0  0  0  0  0
    1.3021    1.2481   -1.7375 H   0  0  0  0  0  0  0  0  0  0  0  0
   -0.0060    0.5517    2.5225 H   0  0  0  0  0  0  0  0  0  0  0  0
   -1.3069    1.2406    1.7397 H   0  0  0  0  0  0  0  0  0  0  0  0
    0.9980   -1.6310   -2.4793 H   0  0  0  0  0  0  0  0  0  0  0  0
    2.3468   -0.5587   -2.9045 H   0  0  0  0  0  0  0  0  0  0  0  0
    2.9171   -2.0652   -0.8981 H   0  0  0  0  0  0  0  0  0  0  0  0
    3.0550   -0.3069   -0.5960 H   0  0  0  0  0  0  0  0  0  0  0  0
    1.2804   -3.3190    0.1362 H   0  0  0  0  0  0  0  0  0  0  0  0
    0.3699   -2.6266    1.4866 H   0  0  0  0  0  0  0  0  0  0  0  0
   -1.2712   -3.3221   -0.1471 H   0  0  0  0  0  0  0  0  0  0  0  0
   -0.3630   -2.6213   -1.4948 H   0  0  0  0  0  0  0  0  0  0  0  0
   -3.0544   -0.3186    0.5984 H   0  0  0  0  0  0  0  0  0  0  0  0
   -2.9087   -2.0770    0.8962 H   0  0  0  0  0  0  0  0  0  0  0  0
   -0.9895   -1.6385    2.4760 H   0  0  0  0  0  0  0  0  0  0  0  0
   -2.3421   -0.5726    2.9053 H   0  0  0  0  0  0  0  0  0  0  0  0
    1.5489   -1.0891    2.4838 H   0  0  0  0  0  0  0  0  0  0  0  0
    2.7634   -0.1065    1.6030 H   0  0  0  0  0  0  0  0  0  0  0  0
    2.9305   -1.9007    1.6748 H   0  0  0  0  0  0  0  0  0  0  0  0
   -2.7655   -0.1091   -1.5997 H   0  0  0  0  0  0  0  0  0  0  0  0
   -2.9271   -1.9035   -1.6774 H   0  0  0  0  0  0  0  0  0  0  0  0
   -1.5490   -1.0850   -2.4853 H   0  0  0  0  0  0  0  0  0  0  0  0
  1 14  1  0  0  0  0
  2  7  1  0  0  0  0
  2 11  1  0  0  0  0
  3  9  1  0  0  0  0
  4 10  1  0  0  0  0
  4 15  1  0  0  0  0
  5  1  1  0  0  0  0
  5  6  1  0  0  0  0
  6 20  1  0  0  0  0
  6  2  1  0  0  0  0
  7 22  1  0  0  0  0
  8  3  1  0  0  0  0
  8 23  1  0  0  0  0
  8  7  1  0  0  0  0
  9 26  1  0  0  0  0
  9 10  1  0  0  0  0
 10 27  1  0  0  0  0
 10 28  1  0  0  0  0
 11 30  1  0  0  0  0
 11 31  1  0  0  0  0
 11 29  1  0  0  0  0
 12  3  1  0  0  0  0
 13  1  1  0  0  0  0
 16  4  1  0  0  0  0
 17  5  1  0  0  0  0
 18  5  1  0  0  0  0
 19  6  1  0  0  0  0
 21  7  1  0  0  0  0
 24  8  1  0  0  0  0
 25  9  1  0  0  0  0
 32 12  1  0  0  0  0
 33 12  1  0  0  0  0
 34 12  1  0  0  0  0
M  END
