1,16,32,47
q = 0.0, confidence = 1.0

 47 48  0  0  1  0  0  0  0  0999 V2000
   -1.9550   -0.9731    0.1190 N   0  0  0  0  0  2  0  0  0  0  0  0
   -2.4065   -2.0714    0.7384 C   0  0  0  0  0  3  0  0  0  0  0  0
   -1.6791   -2.5836    1.3905 H   0  0  0  0  0  0  0  0  0  0  0  0
   -3.7343   -2.5076    0.6020 C   0  0  0  0  0  0  0  0  0  0  0  0
   -4.0725   -3.4171    1.1183 H   0  0  0  0  0  0  0  0  0  0  0  0
   -4.6060   -1.7510   -0.1914 C   0  0  0  0  0  0  0  0  0  0  0  0
   -5.6546   -2.0572   -0.3206 H   0  0  0  0  0  0  0  0  0  0  0  0
   -4.1363   -0.5767   -0.8010 C   0  0  0  0  0  0  0  0  0  0  0  0
   -4.8205    0.0501   -1.3880 H   0  0  0  0  0  0  0  0  0  0  0  0
   -2.7930   -0.2048   -0.6132 C   0  0  0  0  0  0  0  0  0  0  0  0
   -2.2175    1.0939   -1.0835 C   0  0  1  0  0  3  0  0  0  0  0  0
   -2.9933    1.9726   -2.0223 C   0  0  0  0  0  0  0  0  0  0  0  0
   -3.4590    2.8175   -1.4698 H   0  0  0  0  0  0  0  0  0  0  0  0
   -3.7970    1.4286   -2.5469 H   0  0  0  0  0  0  0  0  0  0  0  0
   -2.3254    2.4168   -2.7854 H   0  0  0  0  0  0  0  0  0  0  0  0
   -1.0669    1.4185   -0.5788 N   0  0  0  0  0  2  0  0  0  0  0  0
   -0.4572    2.7123   -0.8526 C   0  0  0  0  0  0  0  0  0  0  0  0
   -1.2419    3.4987   -0.8995 H   0  0  0  0  0  0  0  0  0  0  0  0
    0.0122    2.6870   -1.8647 H   0  0  0  0  0  0  0  0  0  0  0  0
    0.5937    3.1541    0.1965 C   0  0  0  0  0  0  0  0  0  0  0  0
    0.9020    4.6393   -0.0743 C   0  0  0  0  0  0  0  0  0  0  0  0
    1.7169    4.9976    0.5861 H   0  0  0  0  0  0  0  0  0  0  0  0
    0.0131    5.2699    0.1261 H   0  0  0  0  0  0  0  0  0  0  0  0
    1.2158    4.8125   -1.1250 H   0  0  0  0  0  0  0  0  0  0  0  0
    0.0438    3.0000    1.6253 C   0  0  0  0  0  0  0  0  0  0  0  0
   -0.0785    1.9441    1.9436 H   0  0  0  0  0  0  0  0  0  0  0  0
   -0.9394    3.5035    1.7240 H   0  0  0  0  0  0  0  0  0  0  0  0
    0.7359    3.4726    2.3508 H   0  0  0  0  0  0  0  0  0  0  0  0
    1.9216    2.3835    0.0188 C   0  0  0  0  0  0  0  0  0  0  0  0
    2.4383    2.7613   -0.8944 H   0  0  0  0  0  0  0  0  0  0  0  0
    2.5979    2.6351    0.8688 H   0  0  0  0  0  0  0  0  0  0  0  0
    1.7765    0.9426   -0.0804 N   0  0  0  0  0  2  0  0  0  0  0  0
    2.7891    0.1957   -0.3966 C   0  0  0  0  0  0  0  0  0  0  0  0
    4.1650    0.7517   -0.6156 C   0  0  0  0  0  0  0  0  0  0  0  0
    4.1380    1.5472   -1.3895 H   0  0  0  0  0  0  0  0  0  0  0  0
    4.9077    0.0009   -0.9284 H   0  0  0  0  0  0  0  0  0  0  0  0
    4.5291    1.2367    0.3145 H   0  0  0  0  0  0  0  0  0  0  0  0
    2.5131   -1.2661   -0.5439 C   0  0  0  0  0  0  0  0  0  0  0  0
    3.5153   -2.2253   -0.7759 C   0  0  0  0  0  0  0  0  0  0  0  0
    4.5711   -1.9326   -0.8368 H   0  0  0  0  0  0  0  0  0  0  0  0
    3.1564   -3.5735   -0.9192 C   0  0  0  0  0  0  0  0  0  0  0  0
    3.9295   -4.3358   -1.0957 H   0  0  0  0  0  0  0  0  0  0  0  0
    1.8058   -3.9298   -0.8335 C   0  0  0  0  0  0  0  0  0  0  0  0
    1.4777   -4.9726   -0.9466 H   0  0  0  0  0  0  0  0  0  0  0  0
    0.8659   -2.9174   -0.5892 C   0  0  0  0  0  0  0  0  0  0  0  0
   -0.2068   -3.1502   -0.5024 H   0  0  0  0  0  0  0  0  0  0  0  0
    1.2094   -1.6307   -0.4486 N   0  0  0  0  0  2  0  0  0  0  0  0
  1  2  1  0  0  0  0
  2  3  1  0  0  0  0
  4  2  1  0  0  0  0
  4  5  1  0  0  0  0
  6  4  2  0  0  0  0
  7  6  1  0  0  0  0
  8 10  2  0  0  0  0
  8  6  1  0  0  0  0
  9  8  1  0  0  0  0
 10  1  1  0  0  0  0
 11 10  1  0  0  0  0
 11 16  1  1  0  0  0
 12 13  1  0  0  0  0
 12 11  1  0  0  0  0
 14 12  1  0  0  0  0
 15 12  1  0  0  0  0
 17 16  1  0  0  0  0
 17 20  1  0  0  0  0
 18 17  1  0  0  0  0
 19 17  1  0  0  0  0
 20 25  1  0  0  0  0
 21 23  1  0  0  0  0
 21 20  1  0  0  0  0
 21 22  1  0  0  0  0
 24 21  1  0  0  0  0
 25 27  1  0  0  0  0
 25 26  1  0  0  0  0
 25 28  1  0  0  0  0
 29 20  1  0  0  0  0
 29 31  1  0  0  0  0
 30 29  1  0  0  0  0
 32 29  1  0  0  0  0
 33 32  1  0  0  0  0
 34 33  1  0  0  0  0
 34 37  1  0  0  0  0
 35 34  1  0  0  0  0
 36 34  1  0  0  0  0
 38 47  1  0  0  0  0
 38 33  2  0  0  0  0
 39 38  1  0  0  0  0
 40 39  1  0  0  0  0
 41 43  1  0  0  0  0
 41 39  2  0  0  0  0
 42 41  1  0  0  0  0
 43 45  2  0  0  0  0
 44 43  1  0  0  0  0
 45 46  1  0  0  0  0
 45 47  1  0  0  0  0
M  END
