1,12,21,32
q = 0.0, confidence = 0.996

 56 61  0  0  0  0  0  0  0  0999 V2000
   -2.9301   -1.9169   -0.3060 N   0  0  0  0  0  2  0  0  0  0  0  0
   -2.1742   -2.9832   -0.6796 C   0  0  0  0  0  0  0  0  0  0  0  0
   -2.7184   -4.2809   -0.6935 C   0  0  0  0  0  0  0  0  0  0  0  0
   -2.0996   -5.1316   -1.0096 H   0  0  0  0  0  0  0  0  0  0  0  0
   -4.8097   -3.3610    0.0998 C   0  0  0  0  0  0  0  0  0  0  0  0
   -5.8512   -3.4680    0.4329 H   0  0  0  0  0  0  0  0  0  0  0  0
   -4.0487   -4.4690   -0.3016 C   0  0  0  0  0  0  0  0  0  0  0  0
   -4.4875   -5.4777   -0.3025 H   0  0  0  0  0  0  0  0  0  0  0  0
   -4.2050   -2.0990    0.0837 C   0  0  0  0  0  0  0  0  0  0  0  0
   -4.7496   -1.2019    0.4181 H   0  0  0  0  0  0  0  0  0  0  0  0
    0.9739   -1.4947   -1.3975 N   0  0  0  0  0  0  0  0  0  0  0  0
   -0.3495   -1.4433   -1.1800 N   0  0  0  0  0  2  0  0  0  0  0  0
   -0.7697   -2.7195   -1.0306 C   0  0  0  0  0  0  0  0  0  0  0  0
    0.3260   -3.6074   -1.1835 C   0  0  0  0  0  0  0  0  0  0  0  0
    0.3322   -4.6987   -1.1077 H   0  0  0  0  0  0  0  0  0  0  0  0
    1.4243   -2.7819   -1.4126 C   0  0  0  0  0  0  0  0  0  0  0  0
    2.4838   -3.0072   -1.5760 H   0  0  0  0  0  0  0  0  0  0  0  0
    1.7375   -0.2712   -1.6974 C   0  0  0  0  0  0  0  0  0  0  0  0
    1.0325    0.5615   -1.5255 H   0  0  0  0  0  0  0  0  0  0  0  0
    1.9821   -0.2786   -2.7788 H   0  0  0  0  0  0  0  0  0  0  0  0
   -2.6385    2.0289   -0.9414 N   0  0  0  0  0  2  0  0  0  0  0  0
   -1.8681    3.1371   -0.7610 C   0  0  0  0  0  0  0  0  0  0  0  0
   -2.3295    4.4072   -1.1568 C   0  0  0  0  0  0  0  0  0  0  0  0
   -1.6962    5.2914   -1.0031 H   0  0  0  0  0  0  0  0  0  0  0  0
   -3.5955    4.5263   -1.7399 C   0  0  0  0  0  0  0  0  0  0  0  0
   -3.9705    5.5126   -2.0507 H   0  0  0  0  0  0  0  0  0  0  0  0
   -4.3784    3.3758   -1.9208 C   0  0  0  0  0  0  0  0  0  0  0  0
   -5.3784    3.4248   -2.3734 H   0  0  0  0  0  0  0  0  0  0  0  0
   -3.8557    2.1466   -1.5043 C   0  0  0  0  0  0  0  0  0  0  0  0
   -4.4338    1.2162   -1.6231 H   0  0  0  0  0  0  0  0  0  0  0  0
    1.0420    1.7762    0.7505 N   0  0  0  0  0  0  0  0  0  0  0  0
   -0.1740    1.6919    0.2015 N   0  0  0  0  0  2  0  0  0  0  0  0
   -0.5500    2.9423   -0.1408 C   0  0  0  0  0  0  0  0  0  0  0  0
    0.4798    3.8557    0.2027 C   0  0  0  0  0  0  0  0  0  0  0  0
    0.5003    4.9416    0.0710 H   0  0  0  0  0  0  0  0  0  0  0  0
    1.4796    3.0664    0.7697 C   0  0  0  0  0  0  0  0  0  0  0  0
    2.4617    3.3237    1.1809 H   0  0  0  0  0  0  0  0  0  0  0  0
    1.7264    0.5723    1.2465 C   0  0  0  0  0  0  0  0  0  0  0  0
    0.9746   -0.2376    1.2097 H   0  0  0  0  0  0  0  0  0  0  0  0
    1.9319    0.7307    2.3218 H   0  0  0  0  0  0  0  0  0  0  0  0
    4.2218   -0.4098   -1.5134 C   0  0  0  0  0  0  0  0  0  0  0  0
    4.2296   -0.6943   -2.5786 H   0  0  0  0  0  0  0  0  0  0  0  0
    3.0096   -0.1381   -0.8885 C   0  0  0  0  0  0  0  0  0  0  0  0
    3.0026    0.2539    0.4980 C   0  0  0  0  0  0  0  0  0  0  0  0
    4.2106    0.3374    1.1800 C   0  0  0  0  0  0  0  0  0  0  0  0
    4.2092    0.6320    2.2419 H   0  0  0  0  0  0  0  0  0  0  0  0
    5.4609    0.0491    0.5610 C   0  0  0  0  0  0  0  0  0  0  0  0
    5.4681   -0.3286   -0.8291 C   0  0  0  0  0  0  0  0  0  0  0  0
    6.6972    0.1291    1.2634 C   0  0  0  0  0  0  0  0  0  0  0  0
    6.6905    0.4159    2.3262 H   0  0  0  0  0  0  0  0  0  0  0  0
    7.8922   -0.1514    0.6164 C   0  0  0  0  0  0  0  0  0  0  0  0
    8.8429   -0.0881    1.1663 H   0  0  0  0  0  0  0  0  0  0  0  0
    7.8993   -0.5213   -0.7556 C   0  0  0  0  0  0  0  0  0  0  0  0
    8.8554   -0.7394   -1.2542 H   0  0  0  0  0  0  0  0  0  0  0  0
    6.7108   -0.6082   -1.4663 C   0  0  0  0  0  0  0  0  0  0  0  0
    6.7147   -0.8946   -2.5293 H   0  0  0  0  0  0  0  0  0  0  0  0
  1  9  1  0  0  0  0
  2  1  1  0  0  0  0
  3  2  1  0  0  0  0
  3  7  2  0  0  0  0
  4  3  1  0  0  0  0
  5  6  1  0  0  0  0
  7  5  1  0  0  0  0
  8  7  1  0  0  0  0
  9  5  2  0  0  0  0
  9 10  1  0  0  0  0
 11 12  1  0  0  0  0
 12 13  1  0  0  0  0
 13  2  2  0  0  0  0
 14 15  1  0  0  0  0
 14 13  1  0  0  0  0
 16 11  1  0  0  0  0
 16 14  2  0  0  0  0
 17 16  1  0  0  0  0
 18 19  1  0  0  0  0
 18 11  1  0  0  0  0
 18 43  1  0  0  0  0
 20 18  1  0  0  0  0
 21 22  1  0  0  0  0
 22 33  2  0  0  0  0
 23 24  1  0  0  0  0
 23 22  1  0  0  0  0
 25 23  2  0  0  0  0
 26 25  1  0  0  0  0
 27 25  1  0  0  0  0
 27 29  2  0  0  0  0
 28 27  1  0  0  0  0
 29 21  1  0  0  0  0
 30 29  1  0  0  0  0
 31 36  1  0  0  0  0
 31 38  1  0  0  0  0
 32 31  1  0  0  0  0
 33 32  1  0  0  0  0
 33 34  1  0  0  0  0
 34 36  2  0  0  0  0
 35 34  1  0  0  0  0
 36 37  1  0  0  0  0
 38 40  1  0  0  0  0
 39 38  1  0  0  0  0
 41 43  2  0  0  0  0
 41 48  1  0  0  0  0
 42 41  1  0  0  0  0
 43 44  1  0  0  0  0
 44 45  2  0  0  0  0
 44 38  1  0  0  0  0
 45 46  1  0  0  0  0
 47 45  1  0  0  0  0
 47 49  1  0  0  0  0
 48 47  2  0  0  0  0
 49 50  1  0  0  0  0
 51 52  1  0  0  0  0
 51 49  2  0  0  0  0
 53 51  1  0  0  0  0
 54 53  1  0  0  0  0
 55 48  1  0  0  0  0
 55 53  2  0  0  0  0
 56 55  1  0  0  0  0
M  END
