1,8,15,53
q = 0.0, confidence = 0.986

 64 66  0  0  1  0  0  0  0  0999 V2000
    1.6296    1.8508    0.5631 N   0  0  0  0  0  0  0  0  0  0  0  0
    3.0134    1.6625    0.1253 C   0  0  0  0  0  0  0  0  0  0  0  0
    3.5975    1.2481    0.9691 H   0  0  0  0  0  0  0  0  0  0  0  0
    3.5109    2.6286   -0.1209 H   0  0  0  0  0  0  0  0  0  0  0  0
    3.1121    0.7456   -1.1043 C   0  0  0  0  0  0  0  0  0  0  0  0
    2.6885    1.2778   -1.9753 H   0  0  0  0  0  0  0  0  0  0  0  0
    4.1884    0.5577   -1.3354 H   0  0  0  0  0  0  0  0  0  0  0  0
    2.3688   -0.5360   -0.9577 N   0  0  0  0  0  0  0  0  0  0  0  0
    2.9441   -1.3428    0.1571 C   0  0  0  0  0  0  0  0  0  0  0  0
    3.6779   -0.7198    0.7021 H   0  0  0  0  0  0  0  0  0  0  0  0
    3.5346   -2.1973   -0.2355 H   0  0  0  0  0  0  0  0  0  0  0  0
    1.9019   -1.8750    1.1461 C   0  0  0  0  0  0  0  0  0  0  0  0
    1.2895   -2.6621    0.6637 H   0  0  0  0  0  0  0  0  0  0  0  0
    2.4510   -2.3638    1.9853 H   0  0  0  0  0  0  0  0  0  0  0  0
    0.9609   -0.8380    1.6237 N   0  0  0  0  0  0  0  0  0  0  0  0
    1.6232    0.2052    2.4538 C   0  0  0  0  0  0  0  0  0  0  0  0
    2.7144    0.0116    2.4688 H   0  0  0  0  0  0  0  0  0  0  0  0
    1.3082    0.1248    3.5151 H   0  0  0  0  0  0  0  0  0  0  0  0
    1.3616    1.6506    1.9890 C   0  0  0  0  0  0  0  0  0  0  0  0
    0.2953    1.9004    2.1583 H   0  0  0  0  0  0  0  0  0  0  0  0
    1.9565    2.3415    2.6374 H   0  0  0  0  0  0  0  0  0  0  0  0
    1.6859   -0.4748   -3.3708 C   0  0  0  0  0  0  0  0  0  0  0  0
    1.5011   -1.1176   -4.2522 H   0  0  0  0  0  0  0  0  0  0  0  0
    2.3076    0.3717   -3.7172 H   0  0  0  0  0  0  0  0  0  0  0  0
    0.7098   -0.0690   -3.0273 H   0  0  0  0  0  0  0  0  0  0  0  0
    2.3405   -1.2967   -2.2560 C   0  0  0  0  0  0  0  0  0  0  0  0
    3.4000   -1.5056   -2.5472 H   0  0  0  0  0  0  0  0  0  0  0  0
    1.6193   -2.6360   -2.0923 C   0  0  0  0  0  0  0  0  0  0  0  0
    2.1393   -3.3293   -1.4048 H   0  0  0  0  0  0  0  0  0  0  0  0
    1.5530   -3.1452   -3.0725 H   0  0  0  0  0  0  0  0  0  0  0  0
    0.5907   -2.4783   -1.7123 H   0  0  0  0  0  0  0  0  0  0  0  0
    0.0800   -2.3552    3.4728 C   0  0  0  0  0  0  0  0  0  0  0  0
    0.7484   -3.1972    3.2084 H   0  0  0  0  0  0  0  0  0  0  0  0
   -0.8538   -2.7940    3.8754 H   0  0  0  0  0  0  0  0  0  0  0  0
    0.5519   -1.7846    4.2994 H   0  0  0  0  0  0  0  0  0  0  0  0
   -0.2498   -1.4591    2.2722 C   0  0  0  0  0  0  0  0  0  0  0  0
   -0.6897   -2.0926    1.4712 H   0  0  0  0  0  0  0  0  0  0  0  0
   -1.2872   -0.4007    2.6424 C   0  0  0  0  0  0  0  0  0  0  0  0
   -1.4901    0.2720    1.7894 H   0  0  0  0  0  0  0  0  0  0  0  0
   -0.9706    0.2091    3.5132 H   0  0  0  0  0  0  0  0  0  0  0  0
   -2.2380   -0.8949    2.9191 H   0  0  0  0  0  0  0  0  0  0  0  0
    0.9295    2.9697   -0.0585 C   0  0  0  0  0  0  0  0  0  0  0  0
    1.3615    3.1147   -1.0727 H   0  0  0  0  0  0  0  0  0  0  0  0
    1.0862    3.9342    0.4834 H   0  0  0  0  0  0  0  0  0  0  0  0
   -0.5638    2.7331   -0.2290 C   0  0  1  0  0  3  0  0  0  0  0  0
   -1.4709    3.7987   -0.1919 C   0  0  0  0  0  0  0  0  0  0  0  0
   -1.1074    4.8173    0.0080 H   0  0  0  0  0  0  0  0  0  0  0  0
   -2.8324    3.5456   -0.4159 C   0  0  0  0  0  0  0  0  0  0  0  0
   -3.5618    4.3686   -0.4193 H   0  0  0  0  0  0  0  0  0  0  0  0
   -3.2484    2.2263   -0.6203 C   0  0  0  0  0  0  0  0  0  0  0  0
   -4.3066    1.9909   -0.7981 H   0  0  0  0  0  0  0  0  0  0  0  0
   -2.2992    1.1860   -0.6057 C   0  0  0  0  0  0  0  0  0  0  0  0
   -0.9688    1.4533   -0.4482 N   0  0  0  0  0  2  0  0  0  0  0  0
   -2.6938   -0.2383   -0.6904 C   0  0  0  0  0  0  0  0  0  0  0  0
   -3.8856   -0.6911   -0.0839 C   0  0  0  0  0  0  0  0  0  0  0  0
   -4.5408    0.0244    0.4351 H   0  0  0  0  0  0  0  0  0  0  0  0
   -4.2181   -2.0531   -0.0935 C   0  0  0  0  0  0  0  0  0  0  0  0
   -5.1424   -2.3919    0.3975 H   0  0  0  0  0  0  0  0  0  0  0  0
   -3.3719   -2.9826   -0.7200 C   0  0  0  0  0  0  0  0  0  0  0  0
   -3.6373   -4.0502   -0.7324 H   0  0  0  0  0  0  0  0  0  0  0  0
   -2.1936   -2.5416   -1.3439 C   0  0  0  0  0  0  0  0  0  0  0  0
   -1.5462   -3.2622   -1.8662 H   0  0  0  0  0  0  0  0  0  0  0  0
   -1.8535   -1.1815   -1.3233 C   0  0  0  0  0  0  0  0  0  0  0  0
   -0.9520   -0.8265   -1.8500 H   0  0  0  0  0  0  0  0  0  0  0  0
  1 19  1  0  0  0  0
  2  1  1  0  0  0  0
  2  3  1  0  0  0  0
  4  2  1  0  0  0  0
  5  8  1  0  0  0  0
  5  2  1  0  0  0  0
  6  5  1  0  0  0  0
  7  5  1  0  0  0  0
  8  9  1  0  0  0  0
  9 10  1  0  0  0  0
  9 12  1  0  0  0  0
 11  9  1  0  0  0  0
 12 15  1  0  0  0  0
 12 14  1  0  0  0  0
 13 12  1  0  0  0  0
 15 36  1  0  0  0  0
 15 16  1  0  0  0  0
 16 17  1  0  0  0  0
 16 18  1  0  0  0  0
 19 20  1  0  0  0  0
 19 16  1  0  0  0  0
 19 21  1  0  0  0  0
 22 25  1  0  0  0  0
 22 26  1  0  0  0  0
 23 22  1  0  0  0  0
 24 22  1  0  0  0  0
 26 28  1  0  0  0  0
 26  8  1  0  0  0  0
 27 26  1  0  0  0  0
 28 31  1  0  0  0  0
 28 29  1  0  0  0  0
 30 28  1  0  0  0  0
 32 34  1  0  0  0  0
 32 35  1  0  0  0  0
 33 32  1  0  0  0  0
 36 38  1  0  0  0  0
 36 32  1  0  0  0  0
 37 36  1  0  0  0  0
 38 41  1  0  0  0  0
 38 40  1  0  0  0  0
 39 38  1  0  0  0  0
 42 44  1  0  0  0  0
 42  1  1  0  0  0  0
 43 42  1  0  0  0  0
 45 46  1  0  0  0  0
 45 42  1  6  0  0  0
 46 47  1  0  0  0  0
 48 46  2  0  0  0  0
 49 48  1  0  0  0  0
 50 52  2  0  0  0  0
 50 48  1  0  0  0  0
 51 50  1  0  0  0  0
 52 53  1  0  0  0  0
 53 45  1  0  0  0  0
 54 52  1  0  0  0  0
 54 55  1  0  0  0  0
 55 56  1  0  0  0  0
 57 55  2  0  0  0  0
 57 58  1  0  0  0  0
 59 57  1  0  0  0  0
 60 59  1  0  0  0  0
 61 63  1  0  0  0  0
 61 59  2  0  0  0  0
 62 61  1  0  0  0  0
 63 54  2  0  0  0  0
 64 63  1  0  0  0  0
M  END
