9,10,13,14
q = -2.0, confidence = 0.896

 44 45  0  0  0  0  0  0  0  0999 V2000
   -0.2337    1.3529   -1.2693 S   0  0  0  0  0  0  0  0  0  0  0  0
   -0.1683   -1.6183   -1.1373 S   0  0  0  0  0  0  0  0  0  0  0  0
   -3.4276    1.3336   -0.5589 S   0  0  0  0  0  0  0  0  0  0  0  0
   -3.4044   -1.6418   -0.4001 S   0  0  0  0  0  0  0  0  0  0  0  0
   -5.9861    1.5383    1.1497 S   0  0  0  0  0  0  0  0  0  0  0  0
   -5.9718   -1.7241    1.2688 S   0  0  0  0  0  0  0  0  0  0  0  0
    2.1307    2.7359   -1.5114 O   0  0  0  0  0  0  0  0  0  0  0  0
    2.2574   -2.8986   -1.2885 O   0  0  0  0  0  0  0  0  0  0  0  0
    3.6012    1.4238   -0.3626 N   0  0  0  0  0  2  0  0  0  0  0  0
    4.9849    1.5494    1.7524 N   0  0  0  0  0  0  0  0  0  0  0  0
    4.2050    2.0560    2.2026 H   0  0  0  0  0  0  0  0  0  0  0  0
    5.6759    1.3652    2.4938 H   0  0  0  0  0  0  0  0  0  0  0  0
    3.6934   -1.3755   -0.3356 N   0  0  0  0  0  2  0  0  0  0  0  0
    5.1348   -1.3163    1.8413 N   0  0  0  0  0  0  0  0  0  0  0  0
    6.1462   -1.1098    1.8231 H   0  0  0  0  0  0  0  0  0  0  0  0
    4.8664   -1.3032    2.8369 H   0  0  0  0  0  0  0  0  0  0  0  0
    1.3444    0.5981   -0.9560 C   0  0  0  0  0  0  0  0  0  0  0  0
    1.3732   -0.7682   -0.9004 C   0  0  0  0  0  0  0  0  0  0  0  0
   -1.1364   -0.1438   -0.9741 C   0  0  0  0  0  0  0  0  0  0  0  0
   -2.4701   -0.1639   -0.6854 C   0  0  0  0  0  0  0  0  0  0  0  0
   -4.7090    0.5752    0.4077 C   0  0  0  0  0  0  0  0  0  0  0  0
   -4.7045   -0.7933    0.4816 C   0  0  0  0  0  0  0  0  0  0  0  0
   -5.4961    3.2318    0.6855 C   0  0  0  0  0  0  0  0  0  0  0  0
   -4.4872    3.4779    1.0702 H   0  0  0  0  0  0  0  0  0  0  0  0
   -6.2411    3.8933    1.1674 H   0  0  0  0  0  0  0  0  0  0  0  0
   -5.5336    3.3852   -0.4106 H   0  0  0  0  0  0  0  0  0  0  0  0
   -7.2621   -1.6994   -0.0370 C   0  0  0  0  0  0  0  0  0  0  0  0
   -7.5714   -0.6584   -0.2537 H   0  0  0  0  0  0  0  0  0  0  0  0
   -8.1251   -2.2659    0.3643 H   0  0  0  0  0  0  0  0  0  0  0  0
   -6.8900   -2.1921   -0.9550 H   0  0  0  0  0  0  0  0  0  0  0  0
    2.4093    1.6401   -0.9780 C   0  0  0  0  0  0  0  0  0  0  0  0
    4.4451    2.6218   -0.3378 C   0  0  0  0  0  0  0  0  0  0  0  0
    3.8270    3.5067   -0.0582 H   0  0  0  0  0  0  0  0  0  0  0  0
    4.8628    2.8698   -1.3389 H   0  0  0  0  0  0  0  0  0  0  0  0
    5.5637    2.3909    0.6713 C   0  0  0  0  0  0  0  0  0  0  0  0
    6.4042    1.8198    0.2277 H   0  0  0  0  0  0  0  0  0  0  0  0
    5.9704    3.3503    1.0604 H   0  0  0  0  0  0  0  0  0  0  0  0
    2.4939   -1.7484   -0.8622 C   0  0  0  0  0  0  0  0  0  0  0  0
    4.6908   -2.4363   -0.2412 C   0  0  0  0  0  0  0  0  0  0  0  0
    5.6470   -2.1351   -0.7294 H   0  0  0  0  0  0  0  0  0  0  0  0
    4.3134   -3.3473   -0.7494 H   0  0  0  0  0  0  0  0  0  0  0  0
    4.9058   -2.6704    1.2454 C   0  0  0  0  0  0  0  0  0  0  0  0
    3.9773   -3.0816    1.6865 H   0  0  0  0  0  0  0  0  0  0  0  0
    5.7469   -3.3581    1.4782 H   0  0  0  0  0  0  0  0  0  0  0  0
  1 19  1  0  0  0  0
  1 17  1  0  0  0  0
  2 19  1  0  0  0  0
  2 18  1  0  0  0  0
  3 21  1  0  0  0  0
  4 22  1  0  0  0  0
  7 31  2  0  0  0  0
  8 38  2  0  0  0  0
  9 32  1  0  0  0  0
 10 11  1  0  0  0  0
 10 12  1  0  0  0  0
 13 39  1  0  0  0  0
 14 16  1  0  0  0  0
 15 14  1  0  0  0  0
 17 18  2  0  0  0  0
 18 38  1  0  0  0  0
 19 20  2  0  0  0  0
 20  3  1  0  0  0  0
 20  4  1  0  0  0  0
 21 22  2  0  0  0  0
 21  5  1  0  0  0  0
 22  6  1  0  0  0  0
 23 24  1  0  0  0  0
 23  5  1  0  0  0  0
 23 25  1  0  0  0  0
 26 23  1  0  0  0  0
 27 29  1  0  0  0  0
 27  6  1  0  0  0  0
 28 27  1  0  0  0  0
 30 27  1  0  0  0  0
 31 17  1  0  0  0  0
 31  9  1  0  0  0  0
 32 33  1  0  0  0  0
 32 35  1  0  0  0  0
 34 32  1  0  0  0  0
 35 37  1  0  0  0  0
 35 10  1  0  0  0  0
 36 35  1  0  0  0  0
 38 13  1  0  0  0  0
 39 42  1  0  0  0  0
 40 39  1  0  0  0  0
 41 39  1  0  0  0  0
 42 44  1  0  0  0  0
 42 43  1  0  0  0  0
 42 14  1  0  0  0  0
M  END
