3,4,5,6
q = -1.0

 78 86  0  0  1  0  0  0  0  0999 V2000
   -0.0161   -4.8705   -1.0242 O   0  0  0  0  0  0  0  0  0  0  0  0
   -0.0553   -4.6297   -1.9694 H   0  0  0  0  0  0  0  0  0  0  0  0
   -1.4824   -1.6018   -0.3922 N   0  0  0  0  0  2  0  0  0  0  0  0
    1.4702   -1.5925   -0.3996 N   0  0  0  0  0  0  0  0  0  0  0  0
    1.4647    1.3260   -0.1798 N   0  0  0  0  0  2  0  0  0  0  0  0
   -1.4701    1.2953   -0.0814 N   0  0  0  0  0  0  0  0  0  0  0  0
   -2.8583   -1.3749   -0.5768 C   0  0  0  0  0  0  0  0  0  0  0  0
   -3.5132   -2.6453   -0.8351 C   0  0  0  0  0  0  0  0  0  0  0  0
   -4.5792   -2.7775   -1.0468 H   0  0  0  0  0  0  0  0  0  0  0  0
   -2.5412   -3.6177   -0.7629 C   0  0  0  0  0  0  0  0  0  0  0  0
   -2.6425   -4.7008   -0.8829 H   0  0  0  0  0  0  0  0  0  0  0  0
   -1.3023   -2.9240   -0.4980 C   0  0  2  0  0  3  0  0  0  0  0  0
   -0.0003   -3.6598   -0.2781 C   0  0  2  0  0  0  0  0  0  0  0  0
    1.2776   -2.9074   -0.5727 C   0  0  0  0  0  3  0  0  0  0  0  0
    2.4913   -3.5824   -0.9674 C   0  0  0  0  0  0  0  0  0  0  0  0
    2.5801   -4.6563   -1.1588 H   0  0  0  0  0  0  0  0  0  0  0  0
    3.4630   -2.6092   -1.0379 C   0  0  0  0  0  0  0  0  0  0  0  0
    4.5101   -2.7289   -1.3337 H   0  0  0  0  0  0  0  0  0  0  0  0
    2.8342   -1.3579   -0.6563 C   0  0  0  0  0  0  0  0  0  0  0  0
    3.4763   -0.1243   -0.5085 C   0  0  0  0  0  0  0  0  0  0  0  0
    2.8162    1.1104   -0.1530 C   0  0  0  0  0  0  0  0  0  0  0  0
    3.5027    2.2783    0.3471 C   0  0  0  0  0  0  0  0  0  0  0  0
    4.5825    2.3642    0.5046 H   0  0  0  0  0  0  0  0  0  0  0  0
    2.5306    3.2140    0.6331 C   0  0  0  0  0  0  0  0  0  0  0  0
    2.6692    4.2075    1.0706 H   0  0  0  0  0  0  0  0  0  0  0  0
    1.2614    2.6145    0.2847 C   0  0  0  0  0  0  0  0  0  0  0  0
   -0.0034    3.2474    0.4308 C   0  0  0  0  0  0  0  0  0  0  0  0
   -1.2675    2.6313    0.2074 C   0  0  0  0  0  3  0  0  0  0  0  0
   -2.5367    3.3246    0.2293 C   0  0  0  0  0  0  0  0  0  0  0  0
   -2.6773    4.3949    0.4090 H   0  0  0  0  0  0  0  0  0  0  0  0
   -3.5075    2.3828   -0.0382 C   0  0  0  0  0  0  0  0  0  0  0  0
   -4.5904    2.5335   -0.0833 H   0  0  0  0  0  0  0  0  0  0  0  0
   -2.8215    1.1262   -0.2346 C   0  0  0  0  0  0  0  0  0  0  0  0
   -3.4851   -0.1276   -0.5007 C   0  0  0  0  0  0  0  0  0  0  0  0
    0.0411   -4.0468    1.2271 C   0  0  0  0  0  0  0  0  0  0  0  0
    0.0611   -5.4016    1.5983 C   0  0  0  0  0  0  0  0  0  0  0  0
    0.0486   -6.1765    0.8212 H   0  0  0  0  0  0  0  0  0  0  0  0
    0.0974   -5.7472    2.9589 C   0  0  0  0  0  0  0  0  0  0  0  0
    0.1137   -6.8092    3.2464 H   0  0  0  0  0  0  0  0  0  0  0  0
    0.1129   -4.7506    3.9456 C   0  0  0  0  0  0  0  0  0  0  0  0
    0.1410   -5.0273    5.0100 H   0  0  0  0  0  0  0  0  0  0  0  0
    0.0921   -3.3970    3.5697 C   0  0  0  0  0  0  0  0  0  0  0  0
    0.1035   -2.6092    4.3376 H   0  0  0  0  0  0  0  0  0  0  0  0
    0.0560   -3.0446    2.2147 C   0  0  0  0  0  0  0  0  0  0  0  0
    0.0397   -1.9846    1.9218 H   0  0  0  0  0  0  0  0  0  0  0  0
    4.9530   -0.0685   -0.6607 C   0  0  0  0  0  0  0  0  0  0  0  0
    5.7925   -0.9079    0.1082 C   0  0  0  0  0  0  0  0  0  0  0  0
    5.3434   -1.5901    0.8450 H   0  0  0  0  0  0  0  0  0  0  0  0
    7.1849   -0.8430   -0.0361 C   0  0  0  0  0  0  0  0  0  0  0  0
    7.8272   -1.4902    0.5794 H   0  0  0  0  0  0  0  0  0  0  0  0
    7.7582    0.0503   -0.9550 C   0  0  0  0  0  0  0  0  0  0  0  0
    8.8513    0.0969   -1.0700 H   0  0  0  0  0  0  0  0  0  0  0  0
    6.9336    0.8901   -1.7224 C   0  0  0  0  0  0  0  0  0  0  0  0
    7.3787    1.5880   -2.4471 H   0  0  0  0  0  0  0  0  0  0  0  0
    5.5425    0.8413   -1.5693 C   0  0  0  0  0  0  0  0  0  0  0  0
    4.8979    1.4964   -2.1742 H   0  0  0  0  0  0  0  0  0  0  0  0
   -0.0073    4.6723    0.8527 C   0  0  0  0  0  0  0  0  0  0  0  0
    0.6702    5.6523    0.0901 C   0  0  0  0  0  0  0  0  0  0  0  0
    1.1867    5.3554   -0.8347 H   0  0  0  0  0  0  0  0  0  0  0  0
    0.6569    6.9954    0.4879 C   0  0  0  0  0  0  0  0  0  0  0  0
    1.1717    7.7505   -0.1245 H   0  0  0  0  0  0  0  0  0  0  0  0
   -0.0140    7.3774    1.6611 C   0  0  0  0  0  0  0  0  0  0  0  0
   -0.0165    8.4314    1.9762 H   0  0  0  0  0  0  0  0  0  0  0  0
   -0.6812    6.4109    2.4315 C   0  0  0  0  0  0  0  0  0  0  0  0
   -1.1978    6.7035    3.3577 H   0  0  0  0  0  0  0  0  0  0  0  0
   -0.6879    5.0697    2.0275 C   0  0  0  0  0  0  0  0  0  0  0  0
   -1.1995    4.3107    2.6377 H   0  0  0  0  0  0  0  0  0  0  0  0
   -4.9650   -0.0822   -0.6659 C   0  0  0  0  0  0  0  0  0  0  0  0
   -5.5491    0.6517   -1.7227 C   0  0  0  0  0  0  0  0  0  0  0  0
   -4.9028    1.1854   -2.4357 H   0  0  0  0  0  0  0  0  0  0  0  0
   -6.9410    0.6813   -1.8804 C   0  0  0  0  0  0  0  0  0  0  0  0
   -7.3830    1.2419   -2.7175 H   0  0  0  0  0  0  0  0  0  0  0  0
   -7.7690   -0.0043   -0.9762 C   0  0  0  0  0  0  0  0  0  0  0  0
   -8.8620    0.0265   -1.0977 H   0  0  0  0  0  0  0  0  0  0  0  0
   -7.1986   -0.7260    0.0838 C   0  0  0  0  0  0  0  0  0  0  0  0
   -7.8426   -1.2563    0.8011 H   0  0  0  0  0  0  0  0  0  0  0  0
   -5.8057   -0.7709    0.2370 C   0  0  0  0  0  0  0  0  0  0  0  0
   -5.3577   -1.3245    1.0756 H   0  0  0  0  0  0  0  0  0  0  0  0
  2  1  1  0  0  0  0
  5 21  1  0  0  0  0
  5 26  1  0  0  0  0
  6 28  1  0  0  0  0
  7 34  2  0  0  0  0
  7  3  1  0  0  0  0
  8 10  2  0  0  0  0
  8  7  1  0  0  0  0
  9  8  1  0  0  0  0
 11 10  1  0  0  0  0
 12 10  1  1  0  0  0
 12  3  1  0  0  0  0
 12 13  1  0  0  0  0
 13  1  1  6  0  0  0
 13 35  1  0  0  0  0
 14  4  1  0  0  0  0
 14 13  1  0  0  0  0
 15 14  1  0  0  0  0
 16 15  1  0  0  0  0
 17 15  2  0  0  0  0
 17 19  1  0  0  0  0
 18 17  1  0  0  0  0
 19 20  1  0  0  0  0
 19  4  2  0  0  0  0
 20 21  2  0  0  0  0
 21 22  1  0  0  0  0
 22 23  1  0  0  0  0
 22 24  2  0  0  0  0
 24 25  1  0  0  0  0
 26 27  2  0  0  0  0
 26 24  1  0  0  0  0
 27 57  1  0  0  0  0
 28 29  1  0  0  0  0
 28 27  1  0  0  0  0
 29 30  1  0  0  0  0
 31 29  2  0  0  0  0
 32 31  1  0  0  0  0
 33  6  2  0  0  0  0
 33 31  1  0  0  0  0
 34 33  1  0  0  0  0
 35 36  2  0  0  0  0
 35 44  1  0  0  0  0
 36 38  1  0  0  0  0
 37 36  1  0  0  0  0
 38 39  1  0  0  0  0
 38 40  2  0  0  0  0
 40 41  1  0  0  0  0
 42 40  1  0  0  0  0
 42 43  1  0  0  0  0
 44 42  2  0  0  0  0
 45 44  1  0  0  0  0
 46 20  1  0  0  0  0
 46 47  1  0  0  0  0
 47 48  1  0  0  0  0
 49 47  2  0  0  0  0
 49 50  1  0  0  0  0
 51 49  1  0  0  0  0
 52 51  1  0  0  0  0
 53 55  1  0  0  0  0
 53 51  2  0  0  0  0
 54 53  1  0  0  0  0
 55 46  2  0  0  0  0
 56 55  1  0  0  0  0
 57 66  1  0  0  0  0
 58 60  1  0  0  0  0
 58 57  2  0  0  0  0
 59 58  1  0  0  0  0
 60 62  2  0  0  0  0
 61 60  1  0  0  0  0
 62 63  1  0  0  0  0
 62 64  1  0  0  0  0
 64 65  1  0  0  0  0
 66 64  2  0  0  0  0
 66 67  1  0  0  0  0
 68 34  1  0  0  0  0
 68 77  1  0  0  0  0
 69 68  2  0  0  0  0
 70 69  1  0  0  0  0
 71 69  1  0  0  0  0
 71 73  2  0  0  0  0
 72 71  1  0  0  0  0
 73 75  1  0  0  0  0
 74 73  1  0  0  0  0
 75 77  2  0  0  0  0
 75 76  1  0  0  0  0
 77 78  1  0  0  0  0
M  END
