1,4,8,11
q = -1.0

 46 47  0  0  1  0  0  0  0  0999 V2000
    3.2226    0.2961   -0.2521 N   0  0  0  0  0  0  0  0  0  0  0  0
    3.4592    1.7106    0.1705 C   0  0  0  0  0  0  0  0  0  0  0  0
    2.3169    2.5274   -0.3817 C   0  0  0  0  0  0  0  0  0  0  0  0
    1.0844    1.8059   -0.0410 N   0  0  0  0  0  2  0  0  0  0  0  0
   -0.0204    2.5994    0.1442 C   0  0  0  0  0  0  0  0  0  0  0  0
   -1.3313    1.9080    0.4984 C   0  0  0  0  0  0  0  0  0  0  0  0
   -1.6218    0.6266   -0.2772 C   0  0  1  0  0  0  0  0  0  0  0  0
   -0.6411   -0.4284    0.1645 N   0  0  0  0  0  0  0  0  0  0  0  0
   -0.9085   -1.7727   -0.4138 C   0  0  0  0  0  0  0  0  0  0  0  0
    0.2010   -2.6941    0.0462 C   0  0  0  0  0  0  0  0  0  0  0  0
    1.4991   -2.0583   -0.2969 N   0  0  0  0  0  0  0  0  0  0  0  0
    2.6564   -2.7217    0.3488 C   0  0  0  0  0  0  0  0  0  0  0  0
    3.9807   -2.0921   -0.0622 C   0  0  0  0  0  0  0  0  0  0  0  0
    4.1574   -0.6516    0.4008 C   0  0  0  0  0  0  0  0  0  0  0  0
    0.0280    3.8295    0.0528 O   0  0  0  0  0  0  0  0  0  0  0  0
   -3.0542    0.1467   -0.1200 C   0  0  0  0  0  0  0  0  0  0  0  0
   -3.8719   -0.0279   -1.2522 C   0  0  0  0  0  0  0  0  0  0  0  0
   -5.1951   -0.4755   -1.1158 C   0  0  0  0  0  0  0  0  0  0  0  0
   -5.7118   -0.7624    0.1567 C   0  0  0  0  0  0  0  0  0  0  0  0
   -4.9041   -0.5926    1.2935 C   0  0  0  0  0  0  0  0  0  0  0  0
   -3.5856   -0.1359    1.1562 C   0  0  0  0  0  0  0  0  0  0  0  0
    3.3922    0.2551   -1.2729 H   0  0  0  0  0  0  0  0  0  0  0  0
    4.4582    2.0546   -0.1740 H   0  0  0  0  0  0  0  0  0  0  0  0
    3.4434    1.7251    1.2786 H   0  0  0  0  0  0  0  0  0  0  0  0
    2.2917    3.5489    0.0473 H   0  0  0  0  0  0  0  0  0  0  0  0
    2.4215    2.6570   -1.4859 H   0  0  0  0  0  0  0  0  0  0  0  0
   -2.1349    2.6424    0.3068 H   0  0  0  0  0  0  0  0  0  0  0  0
   -1.3545    1.7032    1.5926 H   0  0  0  0  0  0  0  0  0  0  0  0
   -1.4167    0.7960   -1.3547 H   0  0  0  0  0  0  0  0  0  0  0  0
   -0.7549   -0.5068    1.1918 H   0  0  0  0  0  0  0  0  0  0  0  0
   -0.9196   -1.6726   -1.5192 H   0  0  0  0  0  0  0  0  0  0  0  0
   -1.9070   -2.1492   -0.1112 H   0  0  0  0  0  0  0  0  0  0  0  0
    0.1687   -2.8175    1.1492 H   0  0  0  0  0  0  0  0  0  0  0  0
    0.1093   -3.7081   -0.3988 H   0  0  0  0  0  0  0  0  0  0  0  0
    1.6234   -2.1475   -1.3200 H   0  0  0  0  0  0  0  0  0  0  0  0
    2.6519   -3.8057    0.0981 H   0  0  0  0  0  0  0  0  0  0  0  0
    2.5157   -2.6410    1.4467 H   0  0  0  0  0  0  0  0  0  0  0  0
    4.8009   -2.6982    0.3721 H   0  0  0  0  0  0  0  0  0  0  0  0
    4.1153   -2.1637   -1.1658 H   0  0  0  0  0  0  0  0  0  0  0  0
    3.9957   -0.5743    1.4958 H   0  0  0  0  0  0  0  0  0  0  0  0
    5.1997   -0.3162    0.2056 H   0  0  0  0  0  0  0  0  0  0  0  0
   -3.4700    0.1992   -2.2527 H   0  0  0  0  0  0  0  0  0  0  0  0
   -5.8260   -0.5986   -2.0087 H   0  0  0  0  0  0  0  0  0  0  0  0
   -6.7487   -1.1131    0.2654 H   0  0  0  0  0  0  0  0  0  0  0  0
   -5.3085   -0.8059    2.2942 H   0  0  0  0  0  0  0  0  0  0  0  0
   -2.9747    0.0133    2.0621 H   0  0  0  0  0  0  0  0  0  0  0  0
  1  2  1  0  0  0  0
  1 14  1  0  0  0  0
  2 24  1  0  0  0  0
  3  4  1  0  0  0  0
  3 25  1  0  0  0  0
  3  2  1  0  0  0  0
  4  5  1  0  0  0  0
  5  6  1  0  0  0  0
  6 28  1  0  0  0  0
  7 29  1  6  0  0  0
  7 16  1  0  0  0  0
  7  8  1  0  0  0  0
  7  6  1  0  0  0  0
  8 30  1  0  0  0  0
  9 32  1  0  0  0  0
  9 10  1  0  0  0  0
  9  8  1  0  0  0  0
 10 33  1  0  0  0  0
 11 10  1  0  0  0  0
 11 12  1  0  0  0  0
 12 37  1  0  0  0  0
 13 12  1  0  0  0  0
 13 38  1  0  0  0  0
 13 14  1  0  0  0  0
 14 40  1  0  0  0  0
 15  5  2  0  0  0  0
 16 21  1  0  0  0  0
 17 18  1  0  0  0  0
 17 16  2  0  0  0  0
 18 19  2  0  0  0  0
 19 44  1  0  0  0  0
 19 20  1  0  0  0  0
 20 45  1  0  0  0  0
 21 20  2  0  0  0  0
 21 46  1  0  0  0  0
 22  1  1  0  0  0  0
 23  2  1  0  0  0  0
 26  3  1  0  0  0  0
 27  6  1  0  0  0  0
 31  9  1  0  0  0  0
 34 10  1  0  0  0  0
 35 11  1  0  0  0  0
 36 12  1  0  0  0  0
 39 13  1  0  0  0  0
 41 14  1  0  0  0  0
 42 17  1  0  0  0  0
 43 18  1  0  0  0  0
M  END
