1,2,3,4
q = 0.0, confidence = 0.988

 56 59  0  0  1  0  0  0  0  0999 V2000
   -2.1609   -0.7650   -0.1273 N   0  0  0  0  0  2  0  0  0  0  0  0
   -0.2957    0.9639   -1.3561 N   0  0  0  0  0  0  0  0  0  0  0  0
    0.2960    0.9642    1.3561 N   0  0  0  0  0  0  0  0  0  0  0  0
    2.1608   -0.7652    0.1274 N   0  0  0  0  0  2  0  0  0  0  0  0
   -2.6735   -2.4528    1.6262 C   0  0  0  0  0  0  0  0  0  0  0  0
   -2.1132   -3.2425    1.0873 H   0  0  0  0  0  0  0  0  0  0  0  0
   -3.5594   -2.9015    2.1095 H   0  0  0  0  0  0  0  0  0  0  0  0
   -1.9739   -2.0803    2.4012 H   0  0  0  0  0  0  0  0  0  0  0  0
   -3.0919   -1.3741    0.6816 C   0  0  2  0  0  3  0  0  0  0  0  0
   -4.4508   -1.0164    0.5857 C   0  0  0  0  0  0  0  0  0  0  0  0
   -5.1658   -1.5088    1.2596 H   0  0  0  0  0  0  0  0  0  0  0  0
   -4.8888   -0.0888   -0.3610 C   0  0  0  0  0  0  0  0  0  0  0  0
   -5.9509    0.1859   -0.4339 H   0  0  0  0  0  0  0  0  0  0  0  0
   -3.9400    0.4623   -1.2335 C   0  0  0  0  0  0  0  0  0  0  0  0
   -4.2325    1.1692   -2.0228 H   0  0  0  0  0  0  0  0  0  0  0  0
   -2.5980    0.1015   -1.1023 C   0  0  0  0  0  0  0  0  0  0  0  0
   -1.5643    0.6223   -2.0664 C   0  0  0  0  0  0  0  0  0  0  0  0
   -1.3136   -0.1728   -2.7957 H   0  0  0  0  0  0  0  0  0  0  0  0
   -1.9714    1.4936   -2.6205 H   0  0  0  0  0  0  0  0  0  0  0  0
    0.8055    1.2491   -2.3262 C   0  0  0  0  0  0  0  0  0  0  0  0
    0.8131    0.4712   -3.1110 H   0  0  0  0  0  0  0  0  0  0  0  0
    1.7647    1.1725   -1.7772 H   0  0  0  0  0  0  0  0  0  0  0  0
    0.5509    2.6809   -2.8166 C   0  0  0  0  0  0  0  0  0  0  0  0
   -0.1140    2.6787   -3.7026 H   0  0  0  0  0  0  0  0  0  0  0  0
    1.4889    3.1786   -3.1268 H   0  0  0  0  0  0  0  0  0  0  0  0
   -0.1318    3.3826   -1.6138 C   0  0  0  0  0  0  0  0  0  0  0  0
   -1.0430    3.9275   -1.9241 H   0  0  0  0  0  0  0  0  0  0  0  0
    0.5330    4.1319   -1.1410 H   0  0  0  0  0  0  0  0  0  0  0  0
   -0.4643    2.2468   -0.6076 C   0  0  2  0  0  0  0  0  0  0  0  0
   -1.5138    2.2968   -0.2531 H   0  0  0  0  0  0  0  0  0  0  0  0
    0.4643    2.2470    0.6073 C   0  0  1  0  0  0  0  0  0  0  0  0
    1.5138    2.2973    0.2529 H   0  0  0  0  0  0  0  0  0  0  0  0
    0.1315    3.3830    1.6132 C   0  0  0  0  0  0  0  0  0  0  0  0
    1.0424    3.9286    1.9231 H   0  0  0  0  0  0  0  0  0  0  0  0
   -0.5340    4.1316    1.1405 H   0  0  0  0  0  0  0  0  0  0  0  0
   -0.5504    2.6812    2.8165 C   0  0  0  0  0  0  0  0  0  0  0  0
   -1.4882    3.1789    3.1273 H   0  0  0  0  0  0  0  0  0  0  0  0
    0.1151    2.6792    3.7021 H   0  0  0  0  0  0  0  0  0  0  0  0
   -0.8050    1.2494    2.3264 C   0  0  0  0  0  0  0  0  0  0  0  0
   -0.8124    0.4716    3.1113 H   0  0  0  0  0  0  0  0  0  0  0  0
   -1.7643    1.1727    1.7776 H   0  0  0  0  0  0  0  0  0  0  0  0
    1.5648    0.6228    2.0661 C   0  0  0  0  0  0  0  0  0  0  0  0
    1.9720    1.4943    2.6199 H   0  0  0  0  0  0  0  0  0  0  0  0
    1.3143   -0.1721    2.7957 H   0  0  0  0  0  0  0  0  0  0  0  0
    2.5982    0.1018    1.1019 C   0  0  1  0  0  3  0  0  0  0  0  0
    3.9403    0.4625    1.2325 C   0  0  0  0  0  0  0  0  0  0  0  0
    4.2330    1.1698    2.0215 H   0  0  0  0  0  0  0  0  0  0  0  0
    4.8888   -0.0888    0.3599 C   0  0  0  0  0  0  0  0  0  0  0  0
    5.9509    0.1860    0.4324 H   0  0  0  0  0  0  0  0  0  0  0  0
    4.4505   -1.0168   -0.5862 C   0  0  0  0  0  0  0  0  0  0  0  0
    5.1653   -1.5095   -1.2602 H   0  0  0  0  0  0  0  0  0  0  0  0
    3.0916   -1.3747   -0.6815 C   0  0  0  0  0  0  0  0  0  0  0  0
    2.6729   -2.4538   -1.6255 C   0  0  0  0  0  0  0  0  0  0  0  0
    2.1126   -3.2431   -1.0860 H   0  0  0  0  0  0  0  0  0  0  0  0
    3.5586   -2.9030   -2.1086 H   0  0  0  0  0  0  0  0  0  0  0  0
    1.9733   -2.0817   -2.4006 H   0  0  0  0  0  0  0  0  0  0  0  0
  1  9  1  0  0  0  0
  2 29  1  0  0  0  0
  3 42  1  0  0  0  0
  3 39  1  0  0  0  0
  4 45  1  0  0  0  0
  5  7  1  0  0  0  0
  5  8  1  0  0  0  0
  6  5  1  0  0  0  0
  9  5  1  6  0  0  0
 10  9  1  0  0  0  0
 10 11  1  0  0  0  0
 12 10  2  0  0  0  0
 13 12  1  0  0  0  0
 14 16  2  0  0  0  0
 14 12  1  0  0  0  0
 15 14  1  0  0  0  0
 16  1  1  0  0  0  0
 17  2  1  0  0  0  0
 17 16  1  0  0  0  0
 18 17  1  0  0  0  0
 19 17  1  0  0  0  0
 20 22  1  0  0  0  0
 20  2  1  0  0  0  0
 21 20  1  0  0  0  0
 23 20  1  0  0  0  0
 23 26  1  0  0  0  0
 24 23  1  0  0  0  0
 25 23  1  0  0  0  0
 26 28  1  0  0  0  0
 26 29  1  0  0  0  0
 27 26  1  0  0  0  0
 29 30  1  1  0  0  0
 29 31  1  0  0  0  0
 31 32  1  6  0  0  0
 31  3  1  0  0  0  0
 31 33  1  0  0  0  0
 33 34  1  0  0  0  0
 33 36  1  0  0  0  0
 35 33  1  0  0  0  0
 36 37  1  0  0  0  0
 36 38  1  0  0  0  0
 39 36  1  0  0  0  0
 39 40  1  0  0  0  0
 41 39  1  0  0  0  0
 42 43  1  0  0  0  0
 42 44  1  0  0  0  0
 45 46  1  0  0  0  0
 45 42  1  1  0  0  0
 46 47  1  0  0  0  0
 48 49  1  0  0  0  0
 48 46  2  0  0  0  0
 50 48  1  0  0  0  0
 51 50  1  0  0  0  0
 52 50  2  0  0  0  0
 52  4  1  0  0  0  0
 53 54  1  0  0  0  0
 53 52  1  0  0  0  0
 55 53  1  0  0  0  0
 56 53  1  0  0  0  0
M  END
