1,2,3,6
q = 0.0, confidence = 0.996

 38 39  0  0  1  0  0  0  0  0999 V2000
    2.7587   -0.6420   -0.2347 N   0  0  0  0  0  2  0  0  0  0  0  0
    0.8173   -0.4880    1.8216 N   0  0  0  0  0  2  0  0  0  0  0  0
    1.3093    1.6173    0.2044 N   0  0  0  0  0  0  0  0  0  0  0  0
   -2.3150    2.0590   -0.3717 N   0  0  0  0  0  0  0  0  0  0  0  0
   -2.6194    3.0191   -0.5384 H   0  0  0  0  0  0  0  0  0  0  0  0
   -0.9675    0.3083   -0.1115 N   0  0  0  0  0  2  0  0  0  0  0  0
    2.6590    1.7846   -0.4081 C   0  0  0  0  0  0  0  0  0  0  0  0
    3.1217    2.7504   -0.1115 H   0  0  0  0  0  0  0  0  0  0  0  0
    2.5139    1.7540   -1.5050 H   0  0  0  0  0  0  0  0  0  0  0  0
    3.5181    0.5968    0.0074 C   0  0  0  0  0  0  0  0  0  0  0  0
    4.4798    0.5973   -0.5453 H   0  0  0  0  0  0  0  0  0  0  0  0
    3.7647    0.6326    1.0909 H   0  0  0  0  0  0  0  0  0  0  0  0
    3.3599   -1.7147   -0.6005 C   0  0  0  0  0  3  0  0  0  0  0  0
    2.7496   -2.6193   -0.7719 H   0  0  0  0  0  0  0  0  0  0  0  0
    4.4568   -1.7257   -0.7496 H   0  0  0  0  0  0  0  0  0  0  0  0
    1.0041   -1.5401    2.5339 C   0  0  0  0  0  3  0  0  0  0  0  0
    1.1521   -2.4998    2.0068 H   0  0  0  0  0  0  0  0  0  0  0  0
    0.9767   -1.4924    3.6399 H   0  0  0  0  0  0  0  0  0  0  0  0
    0.5230    0.8097    2.4315 C   0  0  0  0  0  0  0  0  0  0  0  0
    0.7636    0.8218    3.5153 H   0  0  0  0  0  0  0  0  0  0  0  0
   -0.5662    0.9874    2.3250 H   0  0  0  0  0  0  0  0  0  0  0  0
    1.3300    1.8678    1.6838 C   0  0  0  0  0  0  0  0  0  0  0  0
    0.9603    2.8892    1.9069 H   0  0  0  0  0  0  0  0  0  0  0  0
    2.3828    1.8246    2.0208 H   0  0  0  0  0  0  0  0  0  0  0  0
    0.2411    2.3907   -0.4934 C   0  0  0  0  0  0  0  0  0  0  0  0
    0.4882    2.3760   -1.5766 H   0  0  0  0  0  0  0  0  0  0  0  0
    0.1871    3.4408   -0.1344 H   0  0  0  0  0  0  0  0  0  0  0  0
   -1.0274    1.6285   -0.3045 C   0  0  1  0  0  3  0  0  0  0  0  0
   -3.1469    0.9513   -0.2102 C   0  0  0  0  0  0  0  0  0  0  0  0
   -4.5435    0.8258   -0.1863 C   0  0  0  0  0  0  0  0  0  0  0  0
   -5.2069    1.6915   -0.3234 H   0  0  0  0  0  0  0  0  0  0  0  0
   -5.0505   -0.4617    0.0190 C   0  0  0  0  0  0  0  0  0  0  0  0
   -6.1399   -0.6105    0.0413 H   0  0  0  0  0  0  0  0  0  0  0  0
   -4.1950   -1.5773    0.1961 C   0  0  0  0  0  0  0  0  0  0  0  0
   -4.6407   -2.5709    0.3498 H   0  0  0  0  0  0  0  0  0  0  0  0
   -2.8031   -1.4536    0.1726 C   0  0  0  0  0  0  0  0  0  0  0  0
   -2.1286   -2.3114    0.2886 H   0  0  0  0  0  0  0  0  0  0  0  0
   -2.2762   -0.1660   -0.0381 C   0  0  0  0  0  0  0  0  0  0  0  0
  1 10  1  0  0  0  0
  2 19  1  0  0  0  0
  2 16  1  0  0  0  0
  3 22  1  0  0  0  0
  4 28  1  0  0  0  0
  4 29  1  0  0  0  0
  5  4  1  0  0  0  0
  6 38  1  0  0  0  0
  7  8  1  0  0  0  0
  7 10  1  0  0  0  0
  7  3  1  0  0  0  0
  9  7  1  0  0  0  0
 10 12  1  0  0  0  0
 11 10  1  0  0  0  0
 13  1  1  0  0  0  0
 14 13  1  0  0  0  0
 15 13  1  0  0  0  0
 16 18  1  0  0  0  0
 17 16  1  0  0  0  0
 19 20  1  0  0  0  0
 21 19  1  0  0  0  0
 22 23  1  0  0  0  0
 22 24  1  0  0  0  0
 22 19  1  0  0  0  0
 25 27  1  0  0  0  0
 25  3  1  0  0  0  0
 26 25  1  0  0  0  0
 28 25  1  6  0  0  0
 28  6  1  0  0  0  0
 29 30  2  0  0  0  0
 29 38  1  0  0  0  0
 30 32  1  0  0  0  0
 31 30  1  0  0  0  0
 32 33  1  0  0  0  0
 32 34  2  0  0  0  0
 34 35  1  0  0  0  0
 36 34  1  0  0  0  0
 36 37  1  0  0  0  0
 38 36  2  0  0  0  0
M  END
