1,11,27,34
q = 0.0, confidence = 0.998

 43 46  0  0  1  0  0  0  0  0999 V2000
   -2.0782   -1.4927    0.3997 N   0  0  0  0  0  2  0  0  0  0  0  0
   -3.1489   -0.7313    0.0472 C   0  0  1  0  0  3  0  0  0  0  0  0
   -4.4638   -1.2275    0.1509 C   0  0  0  0  0  0  0  0  0  0  0  0
   -5.3121   -0.5981   -0.1511 H   0  0  0  0  0  0  0  0  0  0  0  0
   -4.6735   -2.5232    0.6332 C   0  0  0  0  0  0  0  0  0  0  0  0
   -5.6939   -2.9249    0.7200 H   0  0  0  0  0  0  0  0  0  0  0  0
   -3.5641   -3.2986    1.0013 C   0  0  0  0  0  0  0  0  0  0  0  0
   -3.6792   -4.3201    1.3900 H   0  0  0  0  0  0  0  0  0  0  0  0
   -2.2876   -2.7406    0.8627 C   0  0  0  0  0  0  0  0  0  0  0  0
   -1.3899   -3.3152    1.1397 H   0  0  0  0  0  0  0  0  0  0  0  0
   -1.6034    1.0223   -0.6373 N   0  0  0  0  0  2  0  0  0  0  0  0
   -1.6553    2.3071   -1.0190 N   0  0  0  0  0  0  0  0  0  0  0  0
   -2.9435    2.7683   -1.0645 C   0  0  0  0  0  3  0  0  0  0  0  0
   -3.1746    3.7977   -1.3606 H   0  0  0  0  0  0  0  0  0  0  0  0
   -3.7680    1.7120   -0.6928 C   0  0  0  0  0  0  0  0  0  0  0  0
   -4.8596    1.7291   -0.6217 H   0  0  0  0  0  0  0  0  0  0  0  0
   -2.8775    0.6346   -0.4257 C   0  0  0  0  0  0  0  0  0  0  0  0
   -0.4277    3.0684   -1.2287 C   0  0  0  0  0  0  0  0  0  0  0  0
   -0.5933    3.7464   -2.0887 H   0  0  0  0  0  0  0  0  0  0  0  0
    0.3522    2.3391   -1.5217 H   0  0  0  0  0  0  0  0  0  0  0  0
    0.0001    3.8847   -0.0002 C   0  0  0  0  0  0  0  0  0  0  0  0
    0.8331    4.5516   -0.3068 H   0  0  0  0  0  0  0  0  0  0  0  0
   -0.8328    4.5518    0.3063 H   0  0  0  0  0  0  0  0  0  0  0  0
    0.4278    3.0686    1.2286 C   0  0  0  0  0  0  0  0  0  0  0  0
    0.5934    3.7468    2.0884 H   0  0  0  0  0  0  0  0  0  0  0  0
   -0.3522    2.3395    1.5217 H   0  0  0  0  0  0  0  0  0  0  0  0
    1.6034    1.0224    0.6374 N   0  0  0  0  0  2  0  0  0  0  0  0
    1.6554    2.3072    1.0191 N   0  0  0  0  0  0  0  0  0  0  0  0
    2.9436    2.7682    1.0648 C   0  0  0  0  0  3  0  0  0  0  0  0
    3.1748    3.7977    1.3608 H   0  0  0  0  0  0  0  0  0  0  0  0
    3.7680    1.7119    0.6932 C   0  0  0  0  0  0  0  0  0  0  0  0
    4.8597    1.7288    0.6223 H   0  0  0  0  0  0  0  0  0  0  0  0
    2.8774    0.6346    0.4260 C   0  0  0  0  0  0  0  0  0  0  0  0
    2.0781   -1.4926   -0.3999 N   0  0  0  0  0  2  0  0  0  0  0  0
    3.1488   -0.7313   -0.0470 C   0  0  1  0  0  3  0  0  0  0  0  0
    4.4637   -1.2277   -0.1502 C   0  0  0  0  0  0  0  0  0  0  0  0
    5.3119   -0.5985    0.1521 H   0  0  0  0  0  0  0  0  0  0  0  0
    4.6734   -2.5234   -0.6326 C   0  0  0  0  0  0  0  0  0  0  0  0
    5.6937   -2.9252   -0.7191 H   0  0  0  0  0  0  0  0  0  0  0  0
    3.5641   -3.2987   -1.0011 C   0  0  0  0  0  0  0  0  0  0  0  0
    3.6791   -4.3202   -1.3898 H   0  0  0  0  0  0  0  0  0  0  0  0
    2.2876   -2.7405   -0.8629 C   0  0  0  0  0  0  0  0  0  0  0  0
    1.3899   -3.3150   -1.1402 H   0  0  0  0  0  0  0  0  0  0  0  0
  1  9  1  0  0  0  0
  2 17  1  1  0  0  0
  2  3  1  0  0  0  0
  2  1  1  0  0  0  0
  3  5  2  0  0  0  0
  4  3  1  0  0  0  0
  5  6  1  0  0  0  0
  5  7  1  0  0  0  0
  7  8  1  0  0  0  0
  9  7  2  0  0  0  0
  9 10  1  0  0  0  0
 11 17  1  0  0  0  0
 12 11  1  0  0  0  0
 13 12  1  0  0  0  0
 13 15  1  0  0  0  0
 14 13  1  0  0  0  0
 15 16  1  0  0  0  0
 15 17  2  0  0  0  0
 18 12  1  0  0  0  0
 18 21  1  0  0  0  0
 19 18  1  0  0  0  0
 20 18  1  0  0  0  0
 21 23  1  0  0  0  0
 21 24  1  0  0  0  0
 22 21  1  0  0  0  0
 24 26  1  0  0  0  0
 24 25  1  0  0  0  0
 27 28  1  0  0  0  0
 28 29  1  0  0  0  0
 28 24  1  0  0  0  0
 29 30  1  0  0  0  0
 31 29  1  0  0  0  0
 32 31  1  0  0  0  0
 33 27  1  0  0  0  0
 33 31  2  0  0  0  0
 34 35  1  0  0  0  0
 35 33  1  6  0  0  0
 36 35  1  0  0  0  0
 36 37  1  0  0  0  0
 38 36  2  0  0  0  0
 39 38  1  0  0  0  0
 40 42  2  0  0  0  0
 40 38  1  0  0  0  0
 41 40  1  0  0  0  0
 42 34  1  0  0  0  0
 43 42  1  0  0  0  0
M  END
