1,2,26,29
q = 0.0, confidence = 1.0

 50 50  0  0  1  0  0  0  0  0999 V2000
   -1.9918   -0.7087   -0.4609 N   0  0  0  0  0  0  0  0  0  0  0  0
   -0.8958    1.9645   -0.1790 N   0  0  0  0  0  0  0  0  0  0  0  0
   -2.8468    0.4742   -0.2914 C   0  0  0  0  0  0  0  0  0  0  0  0
   -2.1840    1.7387   -0.8695 C   0  0  1  0  0  0  0  0  0  0  0  0
   -3.1339    2.9355   -0.7730 C   0  0  0  0  0  0  0  0  0  0  0  0
    0.0253    2.8978   -0.8432 C   0  0  0  0  0  0  0  0  0  0  0  0
    1.3570    3.0475   -0.0953 C   0  0  0  0  0  0  0  0  0  0  0  0
   -2.4020   -1.9275    0.2719 C   0  0  1  0  0  0  0  0  0  0  0  0
   -3.7968   -2.4208   -0.1353 C   0  0  0  0  0  0  0  0  0  0  0  0
   -1.8850   -0.9140   -1.4671 H   0  0  0  0  0  0  0  0  0  0  0  0
   -1.1040    2.3111    0.7794 H   0  0  0  0  0  0  0  0  0  0  0  0
   -3.8453    0.3519   -0.7682 H   0  0  0  0  0  0  0  0  0  0  0  0
   -3.0207    0.6198    0.7970 H   0  0  0  0  0  0  0  0  0  0  0  0
   -1.9306    1.5373   -1.9338 H   0  0  0  0  0  0  0  0  0  0  0  0
   -4.0778    2.7418   -1.3209 H   0  0  0  0  0  0  0  0  0  0  0  0
   -3.3872    3.1438    0.2877 H   0  0  0  0  0  0  0  0  0  0  0  0
   -2.6816    3.8490   -1.2057 H   0  0  0  0  0  0  0  0  0  0  0  0
    0.2107    2.5079   -1.8654 H   0  0  0  0  0  0  0  0  0  0  0  0
   -0.4350    3.9083   -0.9441 H   0  0  0  0  0  0  0  0  0  0  0  0
    1.1647    3.2117    0.9905 H   0  0  0  0  0  0  0  0  0  0  0  0
    1.8268    3.9859   -0.4543 H   0  0  0  0  0  0  0  0  0  0  0  0
   -2.4103   -1.6347    1.3448 H   0  0  0  0  0  0  0  0  0  0  0  0
   -3.8125   -2.7256   -1.2037 H   0  0  0  0  0  0  0  0  0  0  0  0
   -4.5714   -1.6430    0.0114 H   0  0  0  0  0  0  0  0  0  0  0  0
   -4.0949   -3.3000    0.4697 H   0  0  0  0  0  0  0  0  0  0  0  0
    1.9919    0.7087    0.4609 N   0  0  0  0  0  0  0  0  0  0  0  0
    2.8468   -0.4742    0.2913 C   0  0  0  0  0  0  0  0  0  0  0  0
    2.1840   -1.7387    0.8695 C   0  0  1  0  0  0  0  0  0  0  0  0
    0.8959   -1.9644    0.1790 N   0  0  0  0  0  0  0  0  0  0  0  0
   -0.0253   -2.8978    0.8432 C   0  0  0  0  0  0  0  0  0  0  0  0
   -1.3570   -3.0475    0.0953 C   0  0  0  0  0  0  0  0  0  0  0  0
   -1.1647   -3.2118   -0.9905 H   0  0  0  0  0  0  0  0  0  0  0  0
   -1.8267   -3.9859    0.4544 H   0  0  0  0  0  0  0  0  0  0  0  0
   -0.2106   -2.5079    1.8654 H   0  0  0  0  0  0  0  0  0  0  0  0
    0.4351   -3.9083    0.9441 H   0  0  0  0  0  0  0  0  0  0  0  0
    1.1040   -2.3111   -0.7794 H   0  0  0  0  0  0  0  0  0  0  0  0
    3.1339   -2.9355    0.7729 C   0  0  0  0  0  0  0  0  0  0  0  0
    4.0778   -2.7418    1.3208 H   0  0  0  0  0  0  0  0  0  0  0  0
    3.3872   -3.1437   -0.2878 H   0  0  0  0  0  0  0  0  0  0  0  0
    2.6816   -3.8490    1.2056 H   0  0  0  0  0  0  0  0  0  0  0  0
    1.9306   -1.5374    1.9338 H   0  0  0  0  0  0  0  0  0  0  0  0
    3.8453   -0.3519    0.7682 H   0  0  0  0  0  0  0  0  0  0  0  0
    3.0207   -0.6197   -0.7970 H   0  0  0  0  0  0  0  0  0  0  0  0
    2.4020    1.9276   -0.2719 C   0  0  2  0  0  0  0  0  0  0  0  0
    3.7969    2.4208    0.1353 C   0  0  0  0  0  0  0  0  0  0  0  0
    3.8125    2.7257    1.2037 H   0  0  0  0  0  0  0  0  0  0  0  0
    4.5714    1.6430   -0.0114 H   0  0  0  0  0  0  0  0  0  0  0  0
    4.0949    3.3000   -0.4697 H   0  0  0  0  0  0  0  0  0  0  0  0
    2.4103    1.6347   -1.3448 H   0  0  0  0  0  0  0  0  0  0  0  0
    1.8850    0.9140    1.4671 H   0  0  0  0  0  0  0  0  0  0  0  0
  1  3  1  0  0  0  0
  1  8  1  0  0  0  0
  2 11  1  0  0  0  0
  3 13  1  0  0  0  0
  4 14  1  6  0  0  0
  4  5  1  0  0  0  0
  4  3  1  0  0  0  0
  4  2  1  0  0  0  0
  5 16  1  0  0  0  0
  6  2  1  0  0  0  0
  6  7  1  0  0  0  0
  7 20  1  0  0  0  0
  8 22  1  1  0  0  0
  9 24  1  0  0  0  0
  9  8  1  0  0  0  0
  9 25  1  0  0  0  0
 10  1  1  0  0  0  0
 12  3  1  0  0  0  0
 15  5  1  0  0  0  0
 17  5  1  0  0  0  0
 18  6  1  0  0  0  0
 19  6  1  0  0  0  0
 21  7  1  0  0  0  0
 23  9  1  0  0  0  0
 26 50  1  0  0  0  0
 27 26  1  0  0  0  0
 27 42  1  0  0  0  0
 27 28  1  0  0  0  0
 28 41  1  1  0  0  0
 29 30  1  0  0  0  0
 29 28  1  0  0  0  0
 30 35  1  0  0  0  0
 30 34  1  0  0  0  0
 31  8  1  0  0  0  0
 31 33  1  0  0  0  0
 31 30  1  0  0  0  0
 32 31  1  0  0  0  0
 36 29  1  0  0  0  0
 37 28  1  0  0  0  0
 37 40  1  0  0  0  0
 37 38  1  0  0  0  0
 39 37  1  0  0  0  0
 43 27  1  0  0  0  0
 44 49  1  6  0  0  0
 44  7  1  0  0  0  0
 44 45  1  0  0  0  0
 44 26  1  0  0  0  0
 45 46  1  0  0  0  0
 47 45  1  0  0  0  0
 48 45  1  0  0  0  0
M  END
