1,5,9,13
q = -2.0, confidence = 0.922

 82 89  0  0  0  0  0  0  0  0999 V2000
   -0.0694    1.4286   -0.3660 N   0  0  0  0  0  2  0  0  0  0  0  0
   -0.2316    2.7673   -0.6818 C   0  0  0  0  0  0  0  0  0  0  0  0
   -1.4605    3.4547   -0.7056 C   0  0  0  0  0  0  0  0  0  0  0  0
   -2.6332    2.8615   -0.2176 C   0  0  0  0  0  0  0  0  0  0  0  0
   -2.7501    1.5360    0.1871 N   0  0  0  0  0  0  0  0  0  0  0  0
   -3.9740    1.4327    0.8106 C   0  0  0  0  0  0  0  0  0  0  0  0
   -4.5578    0.2200    1.2620 C   0  0  0  0  0  0  0  0  0  0  0  0
   -4.0846   -1.0104    0.7344 C   0  0  0  0  0  0  0  0  0  0  0  0
   -2.8619   -1.1919    0.1286 N   0  0  0  0  0  0  0  0  0  0  0  0
   -2.8762   -2.4831   -0.3909 C   0  0  0  0  0  0  0  0  0  0  0  0
   -1.7502   -3.1626   -0.8777 C   0  0  0  0  0  0  0  0  0  0  0  0
   -0.4627   -2.5989   -0.7827 C   0  0  0  0  0  0  0  0  0  0  0  0
   -0.1868   -1.2918   -0.4173 N   0  0  0  0  0  0  0  0  0  0  0  0
    1.1843   -1.2226   -0.2800 C   0  0  0  0  0  0  0  0  0  0  0  0
    1.9207   -0.0264   -0.0939 C   0  0  0  0  0  0  0  0  0  0  0  0
    1.2918    1.2329   -0.2534 C   0  0  0  0  0  0  0  0  0  0  0  0
    2.0016    2.4648   -0.4798 C   0  0  0  0  0  0  0  0  0  0  0  0
    1.0561    3.4142   -0.7859 C   0  0  0  0  0  0  0  0  0  0  0  0
   -3.8444    3.5800    0.1036 C   0  0  0  0  0  0  0  0  0  0  0  0
   -4.6484    2.7124    0.7991 C   0  0  0  0  0  0  0  0  0  0  0  0
   -4.9083   -2.1861    0.5575 C   0  0  0  0  0  3  0  0  0  0  0  0
   -4.1753   -3.0781   -0.1855 C   0  0  0  0  0  0  0  0  0  0  0  0
    0.7628   -3.3575   -0.8802 C   0  0  0  0  0  0  0  0  0  0  0  0
    1.7842   -2.5071   -0.5294 C   0  0  0  0  0  0  0  0  0  0  0  0
   -1.4611    4.8828   -1.1344 C   0  0  0  0  0  0  0  0  0  0  0  0
   -1.7259    5.9276   -0.2226 C   0  0  0  0  0  0  0  0  0  0  0  0
   -1.7034    7.2653   -0.6438 C   0  0  0  0  0  0  0  0  0  0  0  0
   -1.4138    7.5803   -1.9809 C   0  0  0  0  0  0  0  0  0  0  0  0
   -1.1401    6.5496   -2.8940 C   0  0  0  0  0  0  0  0  0  0  0  0
   -1.1602    5.2117   -2.4739 C   0  0  0  0  0  0  0  0  0  0  0  0
   -5.6856    0.2832    2.1675 C   0  0  0  0  0  0  0  0  0  0  0  0
   -6.1577   -0.6950    3.0009 C   0  0  0  0  0  0  0  0  0  0  0  0
   -7.2988   -0.4330    3.8789 C   0  0  0  0  0  0  0  0  0  0  0  0
   -7.7912   -1.2413    4.6554 O   0  0  0  0  0  0  0  0  0  0  0  0
   -1.8739   -4.5571   -1.3878 C   0  0  0  0  0  0  0  0  0  0  0  0
   -2.3245   -5.6093   -0.5609 C   0  0  0  0  0  0  0  0  0  0  0  0
   -2.4177   -6.9176   -1.0577 C   0  0  0  0  0  0  0  0  0  0  0  0
   -2.0610   -7.1961   -2.3866 C   0  0  0  0  0  0  0  0  0  0  0  0
   -1.6035   -6.1592   -3.2152 C   0  0  0  0  0  0  0  0  0  0  0  0
   -1.5069   -4.8511   -2.7194 C   0  0  0  0  0  0  0  0  0  0  0  0
    3.3165   -0.0896    0.1134 C   0  0  0  0  0  0  0  0  0  0  0  0
    4.5350   -0.1446    0.3153 C   0  0  0  0  0  0  0  0  0  0  0  0
    5.9298   -0.2069    0.5468 C   0  0  0  0  0  0  0  0  0  0  0  0
    6.6067   -1.4517    0.6583 C   0  0  0  0  0  0  0  0  0  0  0  0
    7.9777   -1.5177    0.8860 C   0  0  0  0  0  0  0  0  0  0  0  0
    8.7616   -0.3329    1.0167 C   0  0  0  0  0  0  0  0  0  0  0  0
    8.0827    0.9171    0.9061 C   0  0  0  0  0  0  0  0  0  0  0  0
    6.7112    0.9730    0.6785 C   0  0  0  0  0  0  0  0  0  0  0  0
   10.1206   -0.3933    1.2418 N   0  0  0  0  0  0  0  0  0  0  0  0
   10.7814   -1.6786    1.3576 C   0  0  0  0  0  0  0  0  0  0  0  0
   10.8898    0.8282    1.3760 C   0  0  0  0  0  0  0  0  0  0  0  0
    3.0914    2.5649   -0.4407 H   0  0  0  0  0  0  0  0  0  0  0  0
    1.2042    4.4725   -1.0241 H   0  0  0  0  0  0  0  0  0  0  0  0
   -4.0430    4.6250   -0.1540 H   0  0  0  0  0  0  0  0  0  0  0  0
   -5.6450    2.9169    1.2028 H   0  0  0  0  0  0  0  0  0  0  0  0
   -5.9477   -2.2812    0.8849 H   0  0  0  0  0  0  0  0  0  0  0  0
   -4.4839   -4.0602   -0.5572 H   0  0  0  0  0  0  0  0  0  0  0  0
    0.8197   -4.4174   -1.1483 H   0  0  0  0  0  0  0  0  0  0  0  0
    2.8596   -2.7067   -0.4761 H   0  0  0  0  0  0  0  0  0  0  0  0
   -1.9315    5.6816    0.8299 H   0  0  0  0  0  0  0  0  0  0  0  0
   -1.9059    8.0685    0.0811 H   0  0  0  0  0  0  0  0  0  0  0  0
   -1.3969    8.6302   -2.3105 H   0  0  0  0  0  0  0  0  0  0  0  0
   -0.9113    6.7882   -3.9439 H   0  0  0  0  0  0  0  0  0  0  0  0
   -0.9479    4.4018   -3.1879 H   0  0  0  0  0  0  0  0  0  0  0  0
   -6.1851    1.2634    2.2563 H   0  0  0  0  0  0  0  0  0  0  0  0
   -5.6921   -1.6898    3.0756 H   0  0  0  0  0  0  0  0  0  0  0  0
   -7.7159    0.6205    3.7846 H   0  0  0  0  0  0  0  0  0  0  0  0
   -2.5832   -5.3952    0.4867 H   0  0  0  0  0  0  0  0  0  0  0  0
   -2.7643   -7.7274   -0.3977 H   0  0  0  0  0  0  0  0  0  0  0  0
   -2.1356   -8.2230   -2.7755 H   0  0  0  0  0  0  0  0  0  0  0  0
   -1.3218   -6.3692   -4.2583 H   0  0  0  0  0  0  0  0  0  0  0  0
   -1.1514   -4.0361   -3.3676 H   0  0  0  0  0  0  0  0  0  0  0  0
    6.0285   -2.3825    0.5635 H   0  0  0  0  0  0  0  0  0  0  0  0
    8.4493   -2.5053    0.9647 H   0  0  0  0  0  0  0  0  0  0  0  0
    8.6375    1.8590    1.0007 H   0  0  0  0  0  0  0  0  0  0  0  0
    6.2152    1.9515    0.5997 H   0  0  0  0  0  0  0  0  0  0  0  0
   11.8603   -1.5208    1.5339 H   0  0  0  0  0  0  0  0  0  0  0  0
   10.6736   -2.2888    0.4328 H   0  0  0  0  0  0  0  0  0  0  0  0
   10.3821   -2.2803    2.2050 H   0  0  0  0  0  0  0  0  0  0  0  0
   10.8331    1.4602    0.4615 H   0  0  0  0  0  0  0  0  0  0  0  0
   11.9515    0.5752    1.5462 H   0  0  0  0  0  0  0  0  0  0  0  0
   10.5455    1.4483    2.2343 H   0  0  0  0  0  0  0  0  0  0  0  0
  1 16  1  0  0  0  0
  2  1  1  0  0  0  0
  3  2  2  0  0  0  0
  3  4  1  0  0  0  0
  4 19  1  0  0  0  0
  4  5  2  0  0  0  0
  5  6  1  0  0  0  0
  6  7  2  0  0  0  0
  7 31  1  0  0  0  0
  8  7  1  0  0  0  0
  9  8  2  0  0  0  0
 10 22  2  0  0  0  0
 10  9  1  0  0  0  0
 11 12  2  0  0  0  0
 11 10  1  0  0  0  0
 12 13  1  0  0  0  0
 13 14  2  0  0  0  0
 14 15  1  0  0  0  0
 15 41  1  0  0  0  0
 16 15  2  0  0  0  0
 17 52  1  0  0  0  0
 17 16  1  0  0  0  0
 18  2  1  0  0  0  0
 18 17  2  0  0  0  0
 19 20  2  0  0  0  0
 20  6  1  0  0  0  0
 20 55  1  0  0  0  0
 21  8  1  0  0  0  0
 21 56  1  0  0  0  0
 22 21  1  0  0  0  0
 23 12  1  0  0  0  0
 23 24  2  0  0  0  0
 24 59  1  0  0  0  0
 24 14  1  0  0  0  0
 25  3  1  0  0  0  0
 25 26  1  0  0  0  0
 26 60  1  0  0  0  0
 27 26  2  0  0  0  0
 27 61  1  0  0  0  0
 28 27  1  0  0  0  0
 29 30  1  0  0  0  0
 29 28  2  0  0  0  0
 30 25  2  0  0  0  0
 31 65  1  0  0  0  0
 31 32  2  0  0  0  0
 32 66  1  0  0  0  0
 32 33  1  0  0  0  0
 33 34  2  0  0  0  0
 35 11  1  0  0  0  0
 35 36  1  0  0  0  0
 36 68  1  0  0  0  0
 37 36  2  0  0  0  0
 37 69  1  0  0  0  0
 38 37  1  0  0  0  0
 39 40  1  0  0  0  0
 39 38  2  0  0  0  0
 40 35  2  0  0  0  0
 41 42  3  0  0  0  0
 42 43  1  0  0  0  0
 43 44  2  0  0  0  0
 43 48  1  0  0  0  0
 44 45  1  0  0  0  0
 45 74  1  0  0  0  0
 45 46  2  0  0  0  0
 46 49  1  0  0  0  0
 47 75  1  0  0  0  0
 47 46  1  0  0  0  0
 48 47  2  0  0  0  0
 49 50  1  0  0  0  0
 49 51  1  0  0  0  0
 50 77  1  0  0  0  0
 50 79  1  0  0  0  0
 51 81  1  0  0  0  0
 51 82  1  0  0  0  0
 53 18  1  0  0  0  0
 54 19  1  0  0  0  0
 57 22  1  0  0  0  0
 58 23  1  0  0  0  0
 62 28  1  0  0  0  0
 63 29  1  0  0  0  0
 64 30  1  0  0  0  0
 67 33  1  0  0  0  0
 70 38  1  0  0  0  0
 71 39  1  0  0  0  0
 72 40  1  0  0  0  0
 73 44  1  0  0  0  0
 76 48  1  0  0  0  0
 78 50  1  0  0  0  0
 80 51  1  0  0  0  0
M  END
