1,18,25
q = 0.0, confidence = 0.998

 68 71  0  0  1  0  0  0  0  0999 V2000
   -0.8689    1.6915    1.2423 N   0  0  0  0  0  0  0  0  0  0  0  0
   -2.3289    1.7895    1.4970 C   0  0  0  0  0  0  0  0  0  0  0  0
   -2.5965    2.7972    1.8897 H   0  0  0  0  0  0  0  0  0  0  0  0
   -2.5955    1.0779    2.2948 H   0  0  0  0  0  0  0  0  0  0  0  0
   -3.1632    1.5009    0.2458 C   0  0  0  0  0  0  0  0  0  0  0  0
   -4.2452    1.5474    0.5216 H   0  0  0  0  0  0  0  0  0  0  0  0
   -2.9992    2.3100   -0.4945 H   0  0  0  0  0  0  0  0  0  0  0  0
   -2.8207    0.2319   -0.4156 N   0  0  2  0  0  0  0  0  0  0  0  0
   -3.1255    0.2841   -1.8616 C   0  0  0  0  0  0  0  0  0  0  0  0
   -2.7496    1.2617   -2.2286 H   0  0  0  0  0  0  0  0  0  0  0  0
   -4.2302    0.2896   -2.0370 H   0  0  0  0  0  0  0  0  0  0  0  0
   -2.5084   -0.8243   -2.7178 C   0  0  0  0  0  0  0  0  0  0  0  0
   -2.9525   -1.8098   -2.4651 H   0  0  0  0  0  0  0  0  0  0  0  0
   -2.8597   -0.6415   -3.7550 H   0  0  0  0  0  0  0  0  0  0  0  0
   -0.9820   -0.9229   -2.8112 C   0  0  0  0  0  0  0  0  0  0  0  0
   -0.7409   -1.6788   -3.5978 H   0  0  0  0  0  0  0  0  0  0  0  0
   -0.5686    0.0417   -3.1718 H   0  0  0  0  0  0  0  0  0  0  0  0
   -0.2253   -1.2661   -1.5688 N   0  0  0  0  0  0  0  0  0  0  0  0
   -0.6979   -2.5557   -0.9861 C   0  0  0  0  0  0  0  0  0  0  0  0
   -0.1558   -3.4115   -1.4492 H   0  0  0  0  0  0  0  0  0  0  0  0
   -1.7568   -2.6880   -1.2646 H   0  0  0  0  0  0  0  0  0  0  0  0
   -0.5549   -2.6586    0.5392 C   0  0  0  0  0  0  0  0  0  0  0  0
   -1.0501   -3.6053    0.8664 H   0  0  0  0  0  0  0  0  0  0  0  0
    0.5151   -2.7564    0.7953 H   0  0  0  0  0  0  0  0  0  0  0  0
   -1.0773   -1.4956    1.2776 N   0  0  2  0  0  0  0  0  0  0  0  0
   -0.3322   -1.2895    2.5406 C   0  0  0  0  0  0  0  0  0  0  0  0
    0.7408   -1.4094    2.2923 H   0  0  0  0  0  0  0  0  0  0  0  0
   -0.5805   -2.0889    3.2820 H   0  0  0  0  0  0  0  0  0  0  0  0
   -0.5227    0.0696    3.2220 C   0  0  0  0  0  0  0  0  0  0  0  0
    0.1076    0.0404    4.1355 H   0  0  0  0  0  0  0  0  0  0  0  0
   -1.5534    0.1716    3.6224 H   0  0  0  0  0  0  0  0  0  0  0  0
   -0.1050    1.3430    2.4749 C   0  0  0  0  0  0  0  0  0  0  0  0
   -0.1744    2.1968    3.1926 H   0  0  0  0  0  0  0  0  0  0  0  0
    0.9604    1.2684    2.1769 H   0  0  0  0  0  0  0  0  0  0  0  0
   -2.5398   -1.4900    1.4556 C   0  0  0  0  0  0  0  0  0  0  0  0
   -2.7665   -0.8717    2.3424 H   0  0  0  0  0  0  0  0  0  0  0  0
   -2.9186   -2.5117    1.7034 H   0  0  0  0  0  0  0  0  0  0  0  0
   -3.3562   -0.9707    0.2492 C   0  0  0  0  0  0  0  0  0  0  0  0
   -3.4169   -1.7696   -0.5112 H   0  0  0  0  0  0  0  0  0  0  0  0
   -4.4067   -0.8068    0.5931 H   0  0  0  0  0  0  0  0  0  0  0  0
   -0.3689    2.9840    0.6806 C   0  0  0  0  0  0  0  0  0  0  0  0
   -0.2362    3.7214    1.5067 H   0  0  0  0  0  0  0  0  0  0  0  0
   -1.1620    3.3800    0.0169 H   0  0  0  0  0  0  0  0  0  0  0  0
    0.9018    2.8357   -0.1159 C   0  0  0  0  0  0  0  0  0  0  0  0
    0.8255    2.4361   -1.4688 C   0  0  0  0  0  0  0  0  0  0  0  0
   -0.1634    2.3071   -1.9381 H   0  0  0  0  0  0  0  0  0  0  0  0
    1.9925    2.2692   -2.2305 C   0  0  0  0  0  0  0  0  0  0  0  0
    1.9226    1.9952   -3.2942 H   0  0  0  0  0  0  0  0  0  0  0  0
    3.2515    2.4819   -1.6417 C   0  0  0  0  0  0  0  0  0  0  0  0
    4.1671    2.3492   -2.2369 H   0  0  0  0  0  0  0  0  0  0  0  0
    3.3376    2.8859   -0.3014 C   0  0  0  0  0  0  0  0  0  0  0  0
    4.3206    3.0682    0.1572 H   0  0  0  0  0  0  0  0  0  0  0  0
    2.1666    3.0678    0.4553 C   0  0  0  0  0  0  0  0  0  0  0  0
    2.2367    3.4080    1.5006 H   0  0  0  0  0  0  0  0  0  0  0  0
    1.2226   -1.3329   -1.9373 C   0  0  0  0  0  0  0  0  0  0  0  0
    1.4716   -0.3606   -2.4077 H   0  0  0  0  0  0  0  0  0  0  0  0
    1.3649   -2.1256   -2.7097 H   0  0  0  0  0  0  0  0  0  0  0  0
    2.1436   -1.5801   -0.7708 C   0  0  0  0  0  0  0  0  0  0  0  0
    2.3757   -0.5500    0.1625 C   0  0  0  0  0  0  0  0  0  0  0  0
    1.9177    0.4365   -0.0038 H   0  0  0  0  0  0  0  0  0  0  0  0
    3.1929   -0.7723    1.2808 C   0  0  0  0  0  0  0  0  0  0  0  0
    3.3835    0.0473    1.9909 H   0  0  0  0  0  0  0  0  0  0  0  0
    3.7865   -2.0304    1.4805 C   0  0  0  0  0  0  0  0  0  0  0  0
    4.4298   -2.2061    2.3558 H   0  0  0  0  0  0  0  0  0  0  0  0
    3.5764   -3.0567    0.5455 C   0  0  0  0  0  0  0  0  0  0  0  0
    4.0531   -4.0381    0.6871 H   0  0  0  0  0  0  0  0  0  0  0  0
    2.7641   -2.8285   -0.5778 C   0  0  0  0  0  0  0  0  0  0  0  0
    2.6070   -3.6339   -1.3131 H   0  0  0  0  0  0  0  0  0  0  0  0
  1  2  1  0  0  0  0
  1 32  1  0  0  0  0
  2  3  1  0  0  0  0
  2  4  1  0  0  0  0
  5  6  1  0  0  0  0
  5  2  1  0  0  0  0
  7  5  1  0  0  0  0
  8  9  1  6  0  0  0
  8  5  1  0  0  0  0
  8 38  1  0  0  0  0
 10  9  1  0  0  0  0
 11  9  1  0  0  0  0
 12 13  1  0  0  0  0
 12  9  1  0  0  0  0
 14 12  1  0  0  0  0
 15 12  1  0  0  0  0
 15 18  1  0  0  0  0
 16 15  1  0  0  0  0
 17 15  1  0  0  0  0
 18 19  1  0  0  0  0
 19 22  1  0  0  0  0
 20 19  1  0  0  0  0
 21 19  1  0  0  0  0
 22 24  1  0  0  0  0
 22 23  1  0  0  0  0
 25 22  1  1  0  0  0
 25 35  1  0  0  0  0
 25 26  1  0  0  0  0
 26 29  1  0  0  0  0
 26 28  1  0  0  0  0
 27 26  1  0  0  0  0
 29 31  1  0  0  0  0
 29 30  1  0  0  0  0
 32 33  1  0  0  0  0
 32 29  1  0  0  0  0
 34 32  1  0  0  0  0
 35 37  1  0  0  0  0
 35 36  1  0  0  0  0
 38 40  1  0  0  0  0
 38 35  1  0  0  0  0
 39 38  1  0  0  0  0
 41  1  1  0  0  0  0
 41 42  1  0  0  0  0
 43 41  1  0  0  0  0
 44 53  1  0  0  0  0
 44 41  1  0  0  0  0
 45 44  2  0  0  0  0
 46 45  1  0  0  0  0
 47 49  2  0  0  0  0
 47 45  1  0  0  0  0
 48 47  1  0  0  0  0
 49 51  1  0  0  0  0
 50 49  1  0  0  0  0
 51 52  1  0  0  0  0
 51 53  2  0  0  0  0
 53 54  1  0  0  0  0
 55 18  1  0  0  0  0
 55 58  1  0  0  0  0
 56 55  1  0  0  0  0
 57 55  1  0  0  0  0
 58 67  2  0  0  0  0
 58 59  1  0  0  0  0
 59 61  2  0  0  0  0
 60 59  1  0  0  0  0
 61 63  1  0  0  0  0
 61 62  1  0  0  0  0
 63 64  1  0  0  0  0
 65 66  1  0  0  0  0
 65 63  2  0  0  0  0
 67 65  1  0  0  0  0
 68 67  1  0  0  0  0
M  END
