1,2,3,4
q = -2.0, confidence = 0.71

 84 88  0  0  0  0  0  0  0  0999 V2000
   -1.3762    1.2744   -0.3075 N   0  0  0  0  0  2  0  0  0  0  0  0
   -1.3799   -1.3797   -0.1839 N   0  0  0  0  0  0  0  0  0  0  0  0
    1.3798   -1.3797   -0.1836 N   0  0  0  0  0  0  0  0  0  0  0  0
    1.3761    1.2743   -0.3078 N   0  0  0  0  0  0  0  0  0  0  0  0
   -1.2250    2.5341   -0.8477 C   0  0  0  0  0  0  0  0  0  0  0  0
   -2.4840    3.2461   -0.8262 C   0  0  0  0  0  0  0  0  0  0  0  0
   -2.6988    4.6152   -1.3902 C   0  0  0  0  0  0  0  0  0  0  0  0
   -3.3938    2.4321   -0.1707 C   0  0  0  0  0  0  0  0  0  0  0  0
   -4.8439    2.7871    0.0325 C   0  0  0  0  0  0  0  0  0  0  0  0
   -5.1140    3.6250    1.2934 C   0  0  0  0  0  0  0  0  0  0  0  0
   -2.6842    1.1850    0.1360 C   0  0  0  0  0  0  0  0  0  0  0  0
   -3.2646   -0.0096    0.6202 C   0  0  0  0  0  0  0  0  0  0  0  0
   -4.4492    0.0377    1.5652 C   0  0  0  0  0  0  0  0  0  0  0  0
   -4.1180   -0.6162    2.9176 C   0  0  0  0  0  0  0  0  0  0  0  0
   -2.6884   -1.2472    0.2467 C   0  0  0  0  0  0  0  0  0  0  0  0
   -3.3905   -2.5251    0.0926 C   0  0  0  0  0  0  0  0  0  0  0  0
   -4.8540   -2.8205    0.2826 C   0  0  0  0  0  0  0  0  0  0  0  0
   -5.7332   -2.2635   -0.8500 C   0  0  0  0  0  0  0  0  0  0  0  0
   -2.4822   -3.4011   -0.4821 C   0  0  0  0  0  0  0  0  0  0  0  0
   -2.6878   -4.8193   -0.9124 C   0  0  0  0  0  0  0  0  0  0  0  0
   -1.2262   -2.6897   -0.5867 C   0  0  0  0  0  0  0  0  0  0  0  0
    0.0000   -3.2943   -0.8587 C   0  0  0  0  0  0  0  0  0  0  0  0
    1.2261   -2.6899   -0.5859 C   0  0  0  0  0  0  0  0  0  0  0  0
    2.4818   -3.4015   -0.4802 C   0  0  0  0  0  0  0  0  0  0  0  0
    2.6874   -4.8200   -0.9096 C   0  0  0  0  0  0  0  0  0  0  0  0
    3.3900   -2.5254    0.0947 C   0  0  0  0  0  0  0  0  0  0  0  0
    4.8533   -2.8212    0.2858 C   0  0  0  0  0  0  0  0  0  0  0  0
    5.7334   -2.2659   -0.8469 C   0  0  0  0  0  0  0  0  0  0  0  0
    2.6881   -1.2472    0.2476 C   0  0  0  0  0  3  0  0  0  0  0  0
    3.2646   -0.0095    0.6201 C   0  0  0  0  0  0  0  0  0  0  0  0
    4.4492    0.0385    1.5651 C   0  0  0  0  0  0  0  0  0  0  0  0
    4.1176   -0.6136    2.9183 C   0  0  0  0  0  0  0  0  0  0  0  0
    2.6843    1.1849    0.1351 C   0  0  0  0  0  0  0  0  0  0  0  0
    3.3940    2.4317   -0.1727 C   0  0  0  0  0  0  0  0  0  0  0  0
    4.8444    2.7863    0.0294 C   0  0  0  0  0  0  0  0  0  0  0  0
    5.1156    3.6254    1.2891 C   0  0  0  0  0  0  0  0  0  0  0  0
    2.4840    3.2456   -0.8280 C   0  0  0  0  0  0  0  0  0  0  0  0
    2.6989    4.6143   -1.3929 C   0  0  0  0  0  0  0  0  0  0  0  0
    1.2249    2.5339   -0.8485 C   0  0  0  0  0  0  0  0  0  0  0  0
   -0.0001    3.1085   -1.1839 C   0  0  0  0  0  0  0  0  0  0  0  0
   -3.7761    4.8599   -1.4654 H   0  0  0  0  0  0  0  0  0  0  0  0
   -2.2309    5.3996   -0.7565 H   0  0  0  0  0  0  0  0  0  0  0  0
   -2.2597    4.7161   -2.4041 H   0  0  0  0  0  0  0  0  0  0  0  0
   -5.4752    1.8772    0.0333 H   0  0  0  0  0  0  0  0  0  0  0  0
   -5.1798    3.3702   -0.8518 H   0  0  0  0  0  0  0  0  0  0  0  0
   -6.1891    3.8821    1.3847 H   0  0  0  0  0  0  0  0  0  0  0  0
   -4.8123    3.0882    2.2163 H   0  0  0  0  0  0  0  0  0  0  0  0
   -4.5359    4.5706    1.2680 H   0  0  0  0  0  0  0  0  0  0  0  0
   -5.3581   -0.4274    1.1313 H   0  0  0  0  0  0  0  0  0  0  0  0
   -4.7119    1.0894    1.7608 H   0  0  0  0  0  0  0  0  0  0  0  0
   -4.9818   -0.5480    3.6102 H   0  0  0  0  0  0  0  0  0  0  0  0
   -3.8472   -1.6847    2.8053 H   0  0  0  0  0  0  0  0  0  0  0  0
   -3.2546   -0.1090    3.3938 H   0  0  0  0  0  0  0  0  0  0  0  0
   -5.2181   -2.4528    1.2616 H   0  0  0  0  0  0  0  0  0  0  0  0
   -4.9826   -3.9220    0.3251 H   0  0  0  0  0  0  0  0  0  0  0  0
   -6.8049   -2.4946   -0.6811 H   0  0  0  0  0  0  0  0  0  0  0  0
   -5.6283   -1.1631   -0.9400 H   0  0  0  0  0  0  0  0  0  0  0  0
   -5.4359   -2.6975   -1.8258 H   0  0  0  0  0  0  0  0  0  0  0  0
   -3.7245   -5.1585   -0.7265 H   0  0  0  0  0  0  0  0  0  0  0  0
   -2.4840   -4.9518   -1.9959 H   0  0  0  0  0  0  0  0  0  0  0  0
   -2.0101   -5.5143   -0.3722 H   0  0  0  0  0  0  0  0  0  0  0  0
    0.0000   -4.3539   -1.1469 H   0  0  0  0  0  0  0  0  0  0  0  0
    3.7241   -5.1592   -0.7232 H   0  0  0  0  0  0  0  0  0  0  0  0
    2.0095   -5.5146   -0.3692 H   0  0  0  0  0  0  0  0  0  0  0  0
    2.4840   -4.9530   -1.9931 H   0  0  0  0  0  0  0  0  0  0  0  0
    4.9814   -3.9228    0.3298 H   0  0  0  0  0  0  0  0  0  0  0  0
    5.2170   -2.4525    1.2647 H   0  0  0  0  0  0  0  0  0  0  0  0
    6.8049   -2.4974   -0.6771 H   0  0  0  0  0  0  0  0  0  0  0  0
    5.4364   -2.7010   -1.8223 H   0  0  0  0  0  0  0  0  0  0  0  0
    5.6290   -1.1656   -0.9382 H   0  0  0  0  0  0  0  0  0  0  0  0
    4.7123    1.0904    1.7594 H   0  0  0  0  0  0  0  0  0  0  0  0
    5.3578   -0.4274    1.1317 H   0  0  0  0  0  0  0  0  0  0  0  0
    4.9815   -0.5450    3.6108 H   0  0  0  0  0  0  0  0  0  0  0  0
    3.2545   -0.1055    3.3938 H   0  0  0  0  0  0  0  0  0  0  0  0
    3.8464   -1.6821    2.8071 H   0  0  0  0  0  0  0  0  0  0  0  0
    5.1800    3.3682   -0.8558 H   0  0  0  0  0  0  0  0  0  0  0  0
    5.4753    1.8760    0.0307 H   0  0  0  0  0  0  0  0  0  0  0  0
    6.1909    3.8821    1.3795 H   0  0  0  0  0  0  0  0  0  0  0  0
    4.5378    4.5712    1.2631 H   0  0  0  0  0  0  0  0  0  0  0  0
    4.8141    3.0896    2.2128 H   0  0  0  0  0  0  0  0  0  0  0  0
    3.7763    4.8585   -1.4691 H   0  0  0  0  0  0  0  0  0  0  0  0
    2.2591    4.7149   -2.4064 H   0  0  0  0  0  0  0  0  0  0  0  0
    2.2319    5.3992   -0.7591 H   0  0  0  0  0  0  0  0  0  0  0  0
   -0.0001    4.1325   -1.5806 H   0  0  0  0  0  0  0  0  0  0  0  0
  1 11  1  0  0  0  0
  2 15  2  0  0  0  0
  3 29  1  0  0  0  0
  4 33  1  0  0  0  0
  5  6  1  0  0  0  0
  5  1  1  0  0  0  0
  6  8  2  0  0  0  0
  7  6  1  0  0  0  0
  7 42  1  0  0  0  0
  8  9  1  0  0  0  0
  8 11  1  0  0  0  0
  9 44  1  0  0  0  0
  9 10  1  0  0  0  0
 10 46  1  0  0  0  0
 10 47  1  0  0  0  0
 11 12  2  0  0  0  0
 12 13  1  0  0  0  0
 13 50  1  0  0  0  0
 13 14  1  0  0  0  0
 14 53  1  0  0  0  0
 14 51  1  0  0  0  0
 15 12  1  0  0  0  0
 16 15  1  0  0  0  0
 16 17  1  0  0  0  0
 17 55  1  0  0  0  0
 17 54  1  0  0  0  0
 18 56  1  0  0  0  0
 18 17  1  0  0  0  0
 19 16  2  0  0  0  0
 20 59  1  0  0  0  0
 20 19  1  0  0  0  0
 20 61  1  0  0  0  0
 21 19  1  0  0  0  0
 21  2  1  0  0  0  0
 22 21  2  0  0  0  0
 22 23  1  0  0  0  0
 23 24  1  0  0  0  0
 23  3  2  0  0  0  0
 24 26  2  0  0  0  0
 25 63  1  0  0  0  0
 25 24  1  0  0  0  0
 25 64  1  0  0  0  0
 26 29  1  0  0  0  0
 26 27  1  0  0  0  0
 27 66  1  0  0  0  0
 27 67  1  0  0  0  0
 28 68  1  0  0  0  0
 28 27  1  0  0  0  0
 29 30  1  0  0  0  0
 30 31  1  0  0  0  0
 31 71  1  0  0  0  0
 31 32  1  0  0  0  0
 32 74  1  0  0  0  0
 32 73  1  0  0  0  0
 33 30  2  0  0  0  0
 34 35  1  0  0  0  0
 34 33  1  0  0  0  0
 35 77  1  0  0  0  0
 35 36  1  0  0  0  0
 36 78  1  0  0  0  0
 36 80  1  0  0  0  0
 37 34  2  0  0  0  0
 38 37  1  0  0  0  0
 38 83  1  0  0  0  0
 39 37  1  0  0  0  0
 39  4  2  0  0  0  0
 40 39  1  0  0  0  0
 40  5  2  0  0  0  0
 41  7  1  0  0  0  0
 43  7  1  0  0  0  0
 45  9  1  0  0  0  0
 48 10  1  0  0  0  0
 49 13  1  0  0  0  0
 52 14  1  0  0  0  0
 57 18  1  0  0  0  0
 58 18  1  0  0  0  0
 60 20  1  0  0  0  0
 62 22  1  0  0  0  0
 65 25  1  0  0  0  0
 69 28  1  0  0  0  0
 70 28  1  0  0  0  0
 72 31  1  0  0  0  0
 75 32  1  0  0  0  0
 76 35  1  0  0  0  0
 79 36  1  0  0  0  0
 81 38  1  0  0  0  0
 82 38  1  0  0  0  0
 84 40  1  0  0  0  0
M  END
