4,16,32,44
q = 0.0, confidence = 0.988

 56 56  0  0  1  0  0  0  0  0999 V2000
   -0.0115    1.4742   -2.3505 C   0  0  0  0  0  0  0  0  0  0  0  0
    0.4456    2.1876   -3.0666 H   0  0  0  0  0  0  0  0  0  0  0  0
   -1.1005    1.6808   -2.2910 H   0  0  0  0  0  0  0  0  0  0  0  0
    0.5521    1.6254   -0.9937 N   0  0  0  0  0  0  0  0  0  0  0  0
    1.5797    1.4166   -1.0498 H   0  0  0  0  0  0  0  0  0  0  0  0
   -0.3530   -3.0040    0.4687 C   0  0  2  0  0  0  0  0  0  0  0  0
    0.7422   -3.1787    0.5042 H   0  0  0  0  0  0  0  0  0  0  0  0
   -0.8080   -3.0994   -0.9816 C   0  0  0  0  0  0  0  0  0  0  0  0
   -0.7303   -4.1625   -1.2851 H   0  0  0  0  0  0  0  0  0  0  0  0
   -1.8795   -2.8179   -1.0750 H   0  0  0  0  0  0  0  0  0  0  0  0
    0.0142   -2.2597   -1.9540 C   0  0  2  0  0  0  0  0  0  0  0  0
    1.0937   -2.3546   -1.7070 H   0  0  0  0  0  0  0  0  0  0  0  0
    0.2507    0.0575   -2.7846 C   0  0  0  0  0  0  0  0  0  0  0  0
   -0.1904   -0.1329   -3.7842 H   0  0  0  0  0  0  0  0  0  0  0  0
    1.3430   -0.1347   -2.8307 H   0  0  0  0  0  0  0  0  0  0  0  0
   -0.3318   -0.8250   -1.7560 N   0  0  0  0  0  0  0  0  0  0  0  0
   -1.3794   -0.7316   -1.7843 H   0  0  0  0  0  0  0  0  0  0  0  0
   -1.0592   -4.0705    1.3375 C   0  0  0  0  0  0  0  0  0  0  0  0
   -0.7715   -5.0595    0.9216 H   0  0  0  0  0  0  0  0  0  0  0  0
   -0.6308   -4.0590    2.3607 H   0  0  0  0  0  0  0  0  0  0  0  0
   -2.5854   -3.9550    1.4044 C   0  0  0  0  0  0  0  0  0  0  0  0
   -3.0024   -4.6847    2.1262 H   0  0  0  0  0  0  0  0  0  0  0  0
   -3.0568   -4.1589    0.4222 H   0  0  0  0  0  0  0  0  0  0  0  0
   -2.9243   -2.9445    1.7127 H   0  0  0  0  0  0  0  0  0  0  0  0
   -0.2337   -2.7254   -3.3951 C   0  0  0  0  0  0  0  0  0  0  0  0
   -1.2927   -2.5689   -3.6893 H   0  0  0  0  0  0  0  0  0  0  0  0
   -0.0185   -3.8090   -3.4717 H   0  0  0  0  0  0  0  0  0  0  0  0
    0.4163   -2.2132   -4.1291 H   0  0  0  0  0  0  0  0  0  0  0  0
    0.0113   -1.4740    2.3506 C   0  0  0  0  0  0  0  0  0  0  0  0
   -0.4458   -2.1874    3.0667 H   0  0  0  0  0  0  0  0  0  0  0  0
    1.1003   -1.6806    2.2912 H   0  0  0  0  0  0  0  0  0  0  0  0
   -0.5520   -1.6253    0.9937 N   0  0  0  0  0  0  0  0  0  0  0  0
   -1.5797   -1.4166    1.0498 H   0  0  0  0  0  0  0  0  0  0  0  0
    0.3533    3.0042   -0.4686 C   0  0  1  0  0  0  0  0  0  0  0  0
   -0.7419    3.1790   -0.5042 H   0  0  0  0  0  0  0  0  0  0  0  0
    0.8082    3.0995    0.9816 C   0  0  0  0  0  0  0  0  0  0  0  0
    0.7307    4.1626    1.2851 H   0  0  0  0  0  0  0  0  0  0  0  0
    1.8797    2.8178    1.0751 H   0  0  0  0  0  0  0  0  0  0  0  0
   -0.0140    2.2599    1.9540 C   0  0  1  0  0  0  0  0  0  0  0  0
   -1.0936    2.3549    1.7070 H   0  0  0  0  0  0  0  0  0  0  0  0
   -0.2508   -0.0573    2.7846 C   0  0  0  0  0  0  0  0  0  0  0  0
    0.1902    0.1331    3.7843 H   0  0  0  0  0  0  0  0  0  0  0  0
   -1.3432    0.1349    2.8306 H   0  0  0  0  0  0  0  0  0  0  0  0
    0.3318    0.8252    1.7560 N   0  0  0  0  0  0  0  0  0  0  0  0
    1.3794    0.7316    1.7843 H   0  0  0  0  0  0  0  0  0  0  0  0
    1.0596    4.0706   -1.3375 C   0  0  0  0  0  0  0  0  0  0  0  0
    0.7721    5.0596   -0.9216 H   0  0  0  0  0  0  0  0  0  0  0  0
    0.6313    4.0590   -2.3607 H   0  0  0  0  0  0  0  0  0  0  0  0
    2.5858    3.9549   -1.4042 C   0  0  0  0  0  0  0  0  0  0  0  0
    3.0029    4.6844   -2.1260 H   0  0  0  0  0  0  0  0  0  0  0  0
    3.0572    4.1589   -0.4220 H   0  0  0  0  0  0  0  0  0  0  0  0
    2.9247    2.9443   -1.7123 H   0  0  0  0  0  0  0  0  0  0  0  0
    0.2339    2.7256    3.3951 C   0  0  0  0  0  0  0  0  0  0  0  0
    1.2929    2.5690    3.6894 H   0  0  0  0  0  0  0  0  0  0  0  0
    0.0188    3.8092    3.4717 H   0  0  0  0  0  0  0  0  0  0  0  0
   -0.4162    2.2135    4.1292 H   0  0  0  0  0  0  0  0  0  0  0  0
  1  3  1  0  0  0  0
  1  4  1  0  0  0  0
  2  1  1  0  0  0  0
  4 34  1  0  0  0  0
  5  4  1  0  0  0  0
  6  7  1  1  0  0  0
  6 32  1  0  0  0  0
  6 18  1  0  0  0  0
  8  6  1  0  0  0  0
  9  8  1  0  0  0  0
 10  8  1  0  0  0  0
 11 16  1  0  0  0  0
 11 12  1  1  0  0  0
 11  8  1  0  0  0  0
 13  1  1  0  0  0  0
 13 16  1  0  0  0  0
 14 13  1  0  0  0  0
 15 13  1  0  0  0  0
 17 16  1  0  0  0  0
 18 21  1  0  0  0  0
 18 20  1  0  0  0  0
 19 18  1  0  0  0  0
 21 24  1  0  0  0  0
 21 22  1  0  0  0  0
 23 21  1  0  0  0  0
 25 11  1  0  0  0  0
 26 25  1  0  0  0  0
 27 25  1  0  0  0  0
 28 25  1  0  0  0  0
 29 41  1  0  0  0  0
 29 30  1  0  0  0  0
 31 29  1  0  0  0  0
 32 33  1  0  0  0  0
 32 29  1  0  0  0  0
 34 35  1  6  0  0  0
 34 36  1  0  0  0  0
 36 38  1  0  0  0  0
 36 37  1  0  0  0  0
 36 39  1  0  0  0  0
 39 40  1  6  0  0  0
 39 53  1  0  0  0  0
 41 43  1  0  0  0  0
 41 42  1  0  0  0  0
 44 45  1  0  0  0  0
 44 39  1  0  0  0  0
 44 41  1  0  0  0  0
 46 47  1  0  0  0  0
 46 34  1  0  0  0  0
 48 46  1  0  0  0  0
 49 46  1  0  0  0  0
 49 51  1  0  0  0  0
 50 49  1  0  0  0  0
 52 49  1  0  0  0  0
 53 55  1  0  0  0  0
 53 54  1  0  0  0  0
 53 56  1  0  0  0  0
M  END
