3,4,5,6
q = 0.0, confidence = 0.974

 46 47  0  0  1  0  0  0  0  0999 V2000
   -0.5723    3.4043   -1.3573 S   0  0  0  0  0  0  0  0  0  0  0  0
   -0.4831    3.6266    0.7030 S   0  0  0  0  0  0  0  0  0  0  0  0
    1.9495   -0.5280    0.0696 N   0  0  0  0  0  2  0  0  0  0  0  0
    0.1142    0.2400   -1.5992 N   0  0  0  0  0  2  0  0  0  0  0  0
   -1.8492   -0.9888    0.2600 N   0  0  0  0  0  2  0  0  0  0  0  0
   -0.2810    0.5363    1.6504 N   0  0  0  0  0  2  0  0  0  0  0  0
    2.8360   -0.9381    1.0131 C   0  0  2  0  0  3  0  0  0  0  0  0
    4.2136   -0.6938    0.8264 C   0  0  0  0  0  0  0  0  0  0  0  0
    4.9146   -1.0343    1.6018 H   0  0  0  0  0  0  0  0  0  0  0  0
    4.6806   -0.0454   -0.3224 C   0  0  0  0  0  0  0  0  0  0  0  0
    5.7562    0.1332   -0.4647 H   0  0  0  0  0  0  0  0  0  0  0  0
    3.7536    0.3744   -1.2823 C   0  0  0  0  0  0  0  0  0  0  0  0
    4.0642    0.8970   -2.1979 H   0  0  0  0  0  0  0  0  0  0  0  0
    2.3928    0.1220   -1.0588 C   0  0  0  0  0  0  0  0  0  0  0  0
    1.3339    0.5472   -1.9474 C   0  0  0  0  0  3  0  0  0  0  0  0
    1.5632    1.1264   -2.8606 H   0  0  0  0  0  0  0  0  0  0  0  0
   -0.9888    0.7862   -2.3661 C   0  0  0  0  0  0  0  0  0  0  0  0
   -1.7480   -0.0070   -2.5286 H   0  0  0  0  0  0  0  0  0  0  0  0
   -0.6428    1.1206   -3.3692 H   0  0  0  0  0  0  0  0  0  0  0  0
   -1.6765    1.9508   -1.6341 C   0  0  0  0  0  0  0  0  0  0  0  0
   -2.0621    1.6411   -0.6452 H   0  0  0  0  0  0  0  0  0  0  0  0
   -2.5340    2.3003   -2.2445 H   0  0  0  0  0  0  0  0  0  0  0  0
    2.3516   -1.6765    2.2247 C   0  0  0  0  0  0  0  0  0  0  0  0
    1.3111   -1.4076    2.4814 H   0  0  0  0  0  0  0  0  0  0  0  0
    3.0190   -1.4907    3.0869 H   0  0  0  0  0  0  0  0  0  0  0  0
    2.3526   -2.7690    2.0269 H   0  0  0  0  0  0  0  0  0  0  0  0
   -2.5915   -1.8063   -0.5297 C   0  0  2  0  0  3  0  0  0  0  0  0
   -3.9840   -1.9029   -0.3174 C   0  0  0  0  0  0  0  0  0  0  0  0
   -4.5671   -2.5723   -0.9658 H   0  0  0  0  0  0  0  0  0  0  0  0
   -4.6104   -1.1695    0.6970 C   0  0  0  0  0  0  0  0  0  0  0  0
   -5.6950   -1.2529    0.8576 H   0  0  0  0  0  0  0  0  0  0  0  0
   -3.8332   -0.3259    1.4975 C   0  0  0  0  0  0  0  0  0  0  0  0
   -4.2755    0.2814    2.2997 H   0  0  0  0  0  0  0  0  0  0  0  0
   -2.4527   -0.2563    1.2571 C   0  0  0  0  0  0  0  0  0  0  0  0
   -1.5450    0.6073    1.9785 C   0  0  0  0  0  3  0  0  0  0  0  0
   -1.9200    1.3076    2.7467 H   0  0  0  0  0  0  0  0  0  0  0  0
    0.6361    1.5058    2.2203 C   0  0  0  0  0  0  0  0  0  0  0  0
    1.5834    0.9975    2.4958 H   0  0  0  0  0  0  0  0  0  0  0  0
    0.2136    1.9411    3.1528 H   0  0  0  0  0  0  0  0  0  0  0  0
    0.9793    2.6289    1.2264 C   0  0  0  0  0  0  0  0  0  0  0  0
    1.4475    2.2318    0.3071 H   0  0  0  0  0  0  0  0  0  0  0  0
    1.6991    3.3218    1.7077 H   0  0  0  0  0  0  0  0  0  0  0  0
   -1.9315   -2.6161   -1.6039 C   0  0  0  0  0  0  0  0  0  0  0  0
   -0.9696   -2.1763   -1.9238 H   0  0  0  0  0  0  0  0  0  0  0  0
   -2.6040   -2.7323   -2.4749 H   0  0  0  0  0  0  0  0  0  0  0  0
   -1.7075   -3.6338   -1.2206 H   0  0  0  0  0  0  0  0  0  0  0  0
  1  2  1  0  0  0  0
  2 40  1  0  0  0  0
  3  7  1  0  0  0  0
  5 34  1  0  0  0  0
  6 35  1  0  0  0  0
  6 37  1  0  0  0  0
  7 23  1  6  0  0  0
  8  7  1  0  0  0  0
  8  9  1  0  0  0  0
 10  8  2  0  0  0  0
 11 10  1  0  0  0  0
 12 14  2  0  0  0  0
 12 10  1  0  0  0  0
 13 12  1  0  0  0  0
 14  3  1  0  0  0  0
 15  4  1  0  0  0  0
 15 14  1  0  0  0  0
 16 15  1  0  0  0  0
 17 20  1  0  0  0  0
 17  4  1  0  0  0  0
 18 17  1  0  0  0  0
 19 17  1  0  0  0  0
 20  1  1  0  0  0  0
 20 21  1  0  0  0  0
 22 20  1  0  0  0  0
 23 24  1  0  0  0  0
 23 25  1  0  0  0  0
 26 23  1  0  0  0  0
 27 43  1  1  0  0  0
 27 28  1  0  0  0  0
 27  5  1  0  0  0  0
 28 30  2  0  0  0  0
 29 28  1  0  0  0  0
 30 31  1  0  0  0  0
 30 32  1  0  0  0  0
 32 33  1  0  0  0  0
 34 32  2  0  0  0  0
 34 35  1  0  0  0  0
 35 36  1  0  0  0  0
 37 38  1  0  0  0  0
 37 39  1  0  0  0  0
 40 42  1  0  0  0  0
 40 37  1  0  0  0  0
 41 40  1  0  0  0  0
 43 46  1  0  0  0  0
 44 43  1  0  0  0  0
 45 43  1  0  0  0  0
M  END
