1,2,6,7
q = 0.0, confidence = 0.988

 43 45  0  0  1  0  0  0  0  0999 V2000
    0.1094    2.0471    0.0244 N   0  0  0  0  0  2  0  0  0  0  0  0
    1.7190   -1.1184    0.0239 N   0  0  0  0  0  2  0  0  0  0  0  0
    0.7981    2.7357    2.1344 O   0  0  0  0  0  0  0  0  0  0  0  0
    1.9727   -2.0572    2.1345 O   0  0  0  0  0  0  0  0  0  0  0  0
   -2.7692   -0.6756    2.1347 O   0  0  0  0  0  0  0  0  0  0  0  0
   -1.8292   -0.9287    0.0246 N   0  0  0  0  0  2  0  0  0  0  0  0
   -0.0009   -0.0008   -1.8833 N   0  0  0  0  0  0  0  0  0  0  0  0
    2.1209   -1.0791   -1.2766 C   0  0  1  0  0  3  0  0  0  0  0  0
   -4.1502   -1.5113    0.4293 C   0  0  0  0  0  0  0  0  0  0  0  0
   -4.9655   -1.5714    1.1628 H   0  0  0  0  0  0  0  0  0  0  0  0
   -2.8873   -1.0315    0.8660 C   0  0  2  0  0  3  0  0  0  0  0  0
    3.3878   -2.8335    0.4290 C   0  0  0  0  0  0  0  0  0  0  0  0
    3.8493   -3.5080    1.1628 H   0  0  0  0  0  0  0  0  0  0  0  0
    0.7648    4.3487    0.4283 C   0  0  0  0  0  0  0  0  0  0  0  0
    1.1202    5.0852    1.1616 H   0  0  0  0  0  0  0  0  0  0  0  0
   -1.9963   -1.2971   -1.2756 C   0  0  0  0  0  0  0  0  0  0  0  0
   -0.6526    1.2624   -2.1628 C   0  0  0  0  0  0  0  0  0  0  0  0
   -1.7358    1.1299   -1.9478 H   0  0  0  0  0  0  0  0  0  0  0  0
   -0.5782    1.5757   -3.2346 H   0  0  0  0  0  0  0  0  0  0  0  0
    0.5490    3.0153    0.8654 C   0  0  1  0  0  3  0  0  0  0  0  0
    2.3393   -1.9816    0.8655 C   0  0  0  0  0  0  0  0  0  0  0  0
   -0.1261    2.3756   -1.2759 C   0  0  0  0  0  0  0  0  0  0  0  0
    0.5262    4.6684   -0.9027 C   0  0  0  0  0  0  0  0  0  0  0  0
    0.6930    5.6935   -1.2662 H   0  0  0  0  0  0  0  0  0  0  0  0
   -3.2116   -1.7644   -1.7793 C   0  0  0  0  0  0  0  0  0  0  0  0
   -3.2966   -2.0335   -2.8419 H   0  0  0  0  0  0  0  0  0  0  0  0
   -0.7692   -1.1966   -2.1627 C   0  0  0  0  0  0  0  0  0  0  0  0
   -0.1129   -2.0686   -1.9479 H   0  0  0  0  0  0  0  0  0  0  0  0
   -1.0779   -1.2888   -3.2345 H   0  0  0  0  0  0  0  0  0  0  0  0
    0.0767    3.6616   -1.7801 C   0  0  0  0  0  0  0  0  0  0  0  0
   -0.1138    3.8692   -2.8428 H   0  0  0  0  0  0  0  0  0  0  0  0
    3.7836   -2.7870   -0.9021 C   0  0  0  0  0  0  0  0  0  0  0  0
    4.5892   -3.4429   -1.2652 H   0  0  0  0  0  0  0  0  0  0  0  0
    1.4187   -0.0682   -2.1641 C   0  0  0  0  0  0  0  0  0  0  0  0
    1.8455    0.9367   -1.9511 H   0  0  0  0  0  0  0  0  0  0  0  0
    1.6518   -0.2906   -3.2359 H   0  0  0  0  0  0  0  0  0  0  0  0
    3.1346   -1.8963   -1.7802 C   0  0  0  0  0  0  0  0  0  0  0  0
    3.4094   -1.8356   -2.8430 H   0  0  0  0  0  0  0  0  0  0  0  0
   -4.3080   -1.8782   -0.9015 C   0  0  0  0  0  0  0  0  0  0  0  0
   -5.2794   -2.2464   -1.2646 H   0  0  0  0  0  0  0  0  0  0  0  0
    0.5474    1.7822    2.3591 H   0  0  0  0  0  0  0  0  0  0  0  0
   -1.8179   -0.4162    2.3590 H   0  0  0  0  0  0  0  0  0  0  0  0
    1.2709   -1.3644    2.3586 H   0  0  0  0  0  0  0  0  0  0  0  0
  1 20  1  0  0  0  0
  2 21  1  0  0  0  0
  3 41  1  0  0  0  0
  4 43  1  0  0  0  0
  5 42  1  0  0  0  0
  6 11  1  0  0  0  0
  8 34  1  1  0  0  0
  8  2  1  0  0  0  0
  9 11  1  0  0  0  0
  9 10  1  0  0  0  0
 11  5  1  6  0  0  0
 12 21  2  0  0  0  0
 12 13  1  0  0  0  0
 14 20  1  0  0  0  0
 14 15  1  0  0  0  0
 16  6  1  0  0  0  0
 17 18  1  0  0  0  0
 17  7  1  0  0  0  0
 17 22  1  0  0  0  0
 19 17  1  0  0  0  0
 20  3  1  6  0  0  0
 21  4  1  0  0  0  0
 22  1  1  0  0  0  0
 23 14  2  0  0  0  0
 24 23  1  0  0  0  0
 25 16  2  0  0  0  0
 25 39  1  0  0  0  0
 26 25  1  0  0  0  0
 27 28  1  0  0  0  0
 27  7  1  0  0  0  0
 27 16  1  0  0  0  0
 29 27  1  0  0  0  0
 30 22  2  0  0  0  0
 30 23  1  0  0  0  0
 31 30  1  0  0  0  0
 32 12  1  0  0  0  0
 33 32  1  0  0  0  0
 34 35  1  0  0  0  0
 34  7  1  0  0  0  0
 36 34  1  0  0  0  0
 37  8  1  0  0  0  0
 37 32  2  0  0  0  0
 38 37  1  0  0  0  0
 39  9  2  0  0  0  0
 40 39  1  0  0  0  0
M  END
