1,2,3,4
q = 0.0, confidence = 0.976

 51 53  0  0  1  0  0  0  0  0999 V2000
    1.7940   -1.2875   -1.6667 N   0  0  0  0  0  0  0  0  0  0  0  0
    2.8918   -0.4962    0.5859 N   0  0  0  0  0  2  0  0  0  0  0  0
    0.5507   -2.0174    0.5072 N   0  0  0  0  0  2  0  0  0  0  0  0
    1.7580    1.3115   -1.0394 N   0  0  0  0  0  2  0  0  0  0  0  0
    5.5312   -0.6891    1.4146 C   0  0  0  0  0  0  0  0  0  0  0  0
    6.5781   -0.7601    1.7420 H   0  0  0  0  0  0  0  0  0  0  0  0
    3.2699    0.0996    1.7447 C   0  0  1  0  0  3  0  0  0  0  0  0
    3.7807   -1.1978   -0.1653 C   0  0  0  0  0  0  0  0  0  0  0  0
    0.7610   -2.3458   -1.8721 C   0  0  0  0  0  0  0  0  0  0  0  0
    1.1147   -3.1471   -2.5577 H   0  0  0  0  0  0  0  0  0  0  0  0
   -0.1144   -1.8438   -2.3413 H   0  0  0  0  0  0  0  0  0  0  0  0
    1.8713   -0.3256   -2.8015 C   0  0  0  0  0  0  0  0  0  0  0  0
    0.8359   -0.2512   -3.2094 H   0  0  0  0  0  0  0  0  0  0  0  0
    2.5645   -0.6732   -3.5959 H   0  0  0  0  0  0  0  0  0  0  0  0
    5.1203   -1.3012    0.2169 C   0  0  0  0  0  0  0  0  0  0  0  0
    5.8325   -1.8623   -0.4052 H   0  0  0  0  0  0  0  0  0  0  0  0
    4.5932    0.0091    2.1925 C   0  0  0  0  0  0  0  0  0  0  0  0
    4.8882    0.4888    3.1372 H   0  0  0  0  0  0  0  0  0  0  0  0
    2.2028    1.0503   -2.3025 C   0  0  1  0  0  3  0  0  0  0  0  0
   -0.3426   -3.6490    2.0344 C   0  0  0  0  0  0  0  0  0  0  0  0
   -0.6137   -3.9094    3.0672 H   0  0  0  0  0  0  0  0  0  0  0  0
    1.8215    2.5799   -0.5728 C   0  0  0  0  0  0  0  0  0  0  0  0
    1.4095    2.7488    0.4308 H   0  0  0  0  0  0  0  0  0  0  0  0
    2.8581    3.3584   -2.6074 C   0  0  0  0  0  0  0  0  0  0  0  0
    3.2977    4.1587   -3.2202 H   0  0  0  0  0  0  0  0  0  0  0  0
    0.3702   -2.8911   -0.5249 C   0  0  2  0  0  3  0  0  0  0  0  0
    2.7752    2.0481   -3.1003 C   0  0  0  0  0  0  0  0  0  0  0  0
    3.1320    1.7984   -4.1100 H   0  0  0  0  0  0  0  0  0  0  0  0
    0.2129   -2.3958    1.7593 C   0  0  0  0  0  0  0  0  0  0  0  0
    0.3832   -1.6486    2.5473 H   0  0  0  0  0  0  0  0  0  0  0  0
    2.1777    0.8608    2.4574 C   0  0  0  0  0  0  0  0  0  0  0  0
    2.0801    0.5323    3.5171 H   0  0  0  0  0  0  0  0  0  0  0  0
    2.4205    1.9506    2.4814 H   0  0  0  0  0  0  0  0  0  0  0  0
    2.3558    3.6288   -1.3257 C   0  0  0  0  0  0  0  0  0  0  0  0
    2.3766    4.6438   -0.9049 H   0  0  0  0  0  0  0  0  0  0  0  0
   -0.5474   -4.5480    0.9771 C   0  0  0  0  0  0  0  0  0  0  0  0
   -0.9887   -5.5387    1.1586 H   0  0  0  0  0  0  0  0  0  0  0  0
   -0.1725   -4.1642   -0.3192 C   0  0  0  0  0  0  0  0  0  0  0  0
   -0.3081   -4.8431   -1.1734 H   0  0  0  0  0  0  0  0  0  0  0  0
    3.1312   -1.8969   -1.3304 C   0  0  0  0  0  0  0  0  0  0  0  0
    3.7871   -1.9188   -2.2250 H   0  0  0  0  0  0  0  0  0  0  0  0
    2.9546   -2.9536   -1.0394 H   0  0  0  0  0  0  0  0  0  0  0  0
    0.9492    0.6507    1.7589 O   0  0  0  0  0  0  0  0  0  0  0  0
   -0.1822    1.4413    2.2375 C   0  0  0  0  0  0  0  0  0  0  0  0
    0.1280    2.5074    2.3088 H   0  0  0  0  0  0  0  0  0  0  0  0
   -0.9329    1.3394    1.4303 H   0  0  0  0  0  0  0  0  0  0  0  0
   -0.6931    0.9352    3.5490 C   0  0  0  0  0  0  0  0  0  0  0  0
   -1.1602   -0.0659    3.5323 H   0  0  0  0  0  0  0  0  0  0  0  0
   -0.6493    1.6345    4.6967 C   0  0  0  0  0  0  0  0  0  0  0  0
   -0.2155    2.6483    4.7334 H   0  0  0  0  0  0  0  0  0  0  0  0
   -1.0698    1.2377    5.6335 H   0  0  0  0  0  0  0  0  0  0  0  0
  1 40  1  0  0  0  0
  2  7  1  0  0  0  0
  3 29  1  0  0  0  0
  4 22  1  0  0  0  0
  5  6  1  0  0  0  0
  5 17  2  0  0  0  0
  7 17  1  0  0  0  0
  7 31  1  6  0  0  0
  8 15  2  0  0  0  0
  8  2  1  0  0  0  0
  9  1  1  0  0  0  0
 10  9  1  0  0  0  0
 11  9  1  0  0  0  0
 12  1  1  0  0  0  0
 13 12  1  0  0  0  0
 14 12  1  0  0  0  0
 15  5  1  0  0  0  0
 16 15  1  0  0  0  0
 17 18  1  0  0  0  0
 19 12  1  6  0  0  0
 19  4  1  0  0  0  0
 20 21  1  0  0  0  0
 22 23  1  0  0  0  0
 24 34  1  0  0  0  0
 25 24  1  0  0  0  0
 26  9  1  6  0  0  0
 26 38  1  0  0  0  0
 26  3  1  0  0  0  0
 27 24  2  0  0  0  0
 27 19  1  0  0  0  0
 28 27  1  0  0  0  0
 29 20  2  0  0  0  0
 29 30  1  0  0  0  0
 31 33  1  0  0  0  0
 31 32  1  0  0  0  0
 34 35  1  0  0  0  0
 34 22  2  0  0  0  0
 36 37  1  0  0  0  0
 36 20  1  0  0  0  0
 38 36  2  0  0  0  0
 39 38  1  0  0  0  0
 40 42  1  0  0  0  0
 40  8  1  0  0  0  0
 41 40  1  0  0  0  0
 43 44  1  0  0  0  0
 43 31  1  0  0  0  0
 44 45  1  0  0  0  0
 44 47  1  0  0  0  0
 46 44  1  0  0  0  0
 47 49  2  0  0  0  0
 48 47  1  0  0  0  0
 49 50  1  0  0  0  0
 49 51  1  0  0  0  0
M  END
