1,4,5,8
q = 0.0, confidence = 0.518

 26 26  0  0  0  0  0  0  0  0999 V2000
    1.5513    1.1193   -1.3011 N   0  0  0  0  0  2  0  0  0  0  0  0
    2.0969    2.2845   -0.9382 N   0  0  0  0  0  0  0  0  0  0  0  0
    2.0177    2.4922    0.3286 N   0  0  0  0  0  0  0  0  0  0  0  0
    1.4042    1.4894    0.9697 N   0  0  0  0  0  2  0  0  0  0  0  0
    1.4042   -1.4894   -0.9697 N   0  0  0  0  0  2  0  0  0  0  0  0
    2.0177   -2.4922   -0.3286 N   0  0  0  0  0  0  0  0  0  0  0  0
    2.0969   -2.2845    0.9382 N   0  0  0  0  0  0  0  0  0  0  0  0
    1.5513   -1.1193    1.3011 N   0  0  0  0  0  2  0  0  0  0  0  0
    1.4327    1.6502    2.4227 C   0  0  0  0  0  0  0  0  0  0  0  0
    0.8135    2.5349    2.6914 H   0  0  0  0  0  0  0  0  0  0  0  0
    2.4725    1.8800    2.7443 H   0  0  0  0  0  0  0  0  0  0  0  0
    0.9183    0.4000    3.1225 C   0  0  0  0  0  0  0  0  0  0  0  0
   -0.1532    0.2414    2.8783 H   0  0  0  0  0  0  0  0  0  0  0  0
    0.9887    0.5469    4.2193 H   0  0  0  0  0  0  0  0  0  0  0  0
    1.7167   -0.8330    2.7257 C   0  0  0  0  0  0  0  0  0  0  0  0
    2.7969   -0.6932    2.9574 H   0  0  0  0  0  0  0  0  0  0  0  0
    1.3802   -1.7258    3.2946 H   0  0  0  0  0  0  0  0  0  0  0  0
    1.7166    0.8330   -2.7257 C   0  0  0  0  0  0  0  0  0  0  0  0
    2.7969    0.6932   -2.9574 H   0  0  0  0  0  0  0  0  0  0  0  0
    1.3802    1.7258   -3.2946 H   0  0  0  0  0  0  0  0  0  0  0  0
    0.9183   -0.4000   -3.1225 C   0  0  0  0  0  0  0  0  0  0  0  0
   -0.1532   -0.2414   -2.8783 H   0  0  0  0  0  0  0  0  0  0  0  0
    0.9887   -0.5469   -4.2193 H   0  0  0  0  0  0  0  0  0  0  0  0
    1.4327   -1.6502   -2.4227 C   0  0  0  0  0  0  0  0  0  0  0  0
    0.8136   -2.5349   -2.6914 H   0  0  0  0  0  0  0  0  0  0  0  0
    2.4725   -1.8800   -2.7443 H   0  0  0  0  0  0  0  0  0  0  0  0
  1  2  1  0  0  0  0
  2  3  2  0  0  0  0
  3  4  1  0  0  0  0
  4  9  1  0  0  0  0
  5  6  1  0  0  0  0
  6  7  2  0  0  0  0
  7  8  1  0  0  0  0
  8 15  1  0  0  0  0
  9 10  1  0  0  0  0
  9 11  1  0  0  0  0
  9 12  1  0  0  0  0
 12 14  1  0  0  0  0
 13 12  1  0  0  0  0
 15 16  1  0  0  0  0
 15 12  1  0  0  0  0
 15 17  1  0  0  0  0
 18  1  1  0  0  0  0
 19 18  1  0  0  0  0
 20 18  1  0  0  0  0
 21 22  1  0  0  0  0
 21 18  1  0  0  0  0
 21 24  1  0  0  0  0
 23 21  1  0  0  0  0
 24  5  1  0  0  0  0
 25 24  1  0  0  0  0
 26 24  1  0  0  0  0
M  END
