1,2,3,4
q = 0.0, confidence = 0.966

 56 58  0  0  1  0  0  0  0  0999 V2000
    1.6004   -0.5913    0.6411 N   0  0  0  0  0  0  0  0  0  0  0  0
   -0.6060   -1.5149   -1.2167 N   0  0  0  0  0  2  0  0  0  0  0  0
   -0.3127    0.2024    2.2510 N   0  0  0  0  0  2  0  0  0  0  0  0
   -0.2669   -2.6451    1.1257 N   0  0  0  0  0  0  0  0  0  0  0  0
    3.7470   -0.2935   -0.6974 C   0  0  0  0  0  0  0  0  0  0  0  0
    1.9176    0.6189    1.4408 C   0  0  0  0  0  0  0  0  0  0  0  0
   -0.9193   -3.5916   -2.4172 C   0  0  0  0  0  0  0  0  0  0  0  0
   -1.0814   -4.6782   -2.3723 H   0  0  0  0  0  0  0  0  0  0  0  0
   -0.5599   -0.8580   -2.4040 C   0  0  0  0  0  3  0  0  0  0  0  0
   -0.4390    0.2305   -2.3388 H   0  0  0  0  0  0  0  0  0  0  0  0
   -1.0317   -3.4450    0.1336 C   0  0  0  0  0  0  0  0  0  0  0  0
   -2.1116   -3.3531    0.3645 H   0  0  0  0  0  0  0  0  0  0  0  0
   -0.7559   -4.5219    0.1870 H   0  0  0  0  0  0  0  0  0  0  0  0
    4.2374    1.0272   -0.7700 C   0  0  0  0  0  0  0  0  0  0  0  0
    3.5211    1.8569   -0.8830 H   0  0  0  0  0  0  0  0  0  0  0  0
    6.5542    0.2269   -0.6119 C   0  0  0  0  0  0  0  0  0  0  0  0
    5.6136    1.2776   -0.7242 C   0  0  0  0  0  0  0  0  0  0  0  0
    5.9784    2.3152   -0.7850 H   0  0  0  0  0  0  0  0  0  0  0  0
    2.2591   -0.5477   -0.7120 C   0  0  0  0  0  0  0  0  0  0  0  0
    1.7490    0.2632   -1.2632 H   0  0  0  0  0  0  0  0  0  0  0  0
    2.0297   -1.5069   -1.2126 H   0  0  0  0  0  0  0  0  0  0  0  0
    0.8961    0.7695    2.5273 C   0  0  1  0  0  3  0  0  0  0  0  0
    1.9997   -1.7849    1.4381 C   0  0  0  0  0  0  0  0  0  0  0  0
    1.8075   -1.5546    2.5052 H   0  0  0  0  0  0  0  0  0  0  0  0
    3.0900   -1.9782    1.3440 H   0  0  0  0  0  0  0  0  0  0  0  0
   -0.6802   -1.5224   -3.6258 C   0  0  0  0  0  0  0  0  0  0  0  0
   -0.6410   -0.9383   -4.5560 H   0  0  0  0  0  0  0  0  0  0  0  0
   -1.3392    0.4170    3.1140 C   0  0  0  0  0  0  0  0  0  0  0  0
   -2.3023   -0.0123    2.8027 H   0  0  0  0  0  0  0  0  0  0  0  0
   -0.8484   -2.9150   -3.6438 C   0  0  0  0  0  0  0  0  0  0  0  0
   -0.9369   -3.4629   -4.5931 H   0  0  0  0  0  0  0  0  0  0  0  0
   -1.1823    1.1572    4.2872 C   0  0  0  0  0  0  0  0  0  0  0  0
   -2.0501    1.3054    4.9455 H   0  0  0  0  0  0  0  0  0  0  0  0
   -0.7866   -2.8920    2.4838 C   0  0  0  0  0  0  0  0  0  0  0  0
   -1.8296   -2.5288    2.5245 H   0  0  0  0  0  0  0  0  0  0  0  0
   -0.1871   -2.3338    3.2254 H   0  0  0  0  0  0  0  0  0  0  0  0
   -0.7522   -3.9770    2.7296 H   0  0  0  0  0  0  0  0  0  0  0  0
    1.1258    1.5016    3.6961 C   0  0  0  0  0  0  0  0  0  0  0  0
    2.1219    1.9318    3.8746 H   0  0  0  0  0  0  0  0  0  0  0  0
   -0.8181   -2.8634   -1.2299 C   0  0  0  0  0  0  0  0  0  0  0  0
    1.1785   -2.9760    1.0092 C   0  0  0  0  0  0  0  0  0  0  0  0
    1.3851   -3.2202   -0.0527 H   0  0  0  0  0  0  0  0  0  0  0  0
    1.4291   -3.8810    1.6066 H   0  0  0  0  0  0  0  0  0  0  0  0
    6.0569   -1.0974   -0.5686 C   0  0  0  0  0  0  0  0  0  0  0  0
    6.7575   -1.9437   -0.5111 H   0  0  0  0  0  0  0  0  0  0  0  0
    7.9887    0.5491   -0.5617 C   0  0  0  0  0  0  0  0  0  0  0  0
    8.2191    1.6264   -0.6374 H   0  0  0  0  0  0  0  0  0  0  0  0
    0.0726    1.7023    4.5983 C   0  0  0  0  0  0  0  0  0  0  0  0
    0.2250    2.2859    5.5178 H   0  0  0  0  0  0  0  0  0  0  0  0
    4.6828   -1.3488   -0.6141 C   0  0  0  0  0  0  0  0  0  0  0  0
    4.3269   -2.3922   -0.6106 H   0  0  0  0  0  0  0  0  0  0  0  0
    9.0185   -0.3145   -0.4335 C   0  0  0  0  0  0  0  0  0  0  0  0
    8.8713   -1.4031   -0.3497 H   0  0  0  0  0  0  0  0  0  0  0  0
   10.0575    0.0456   -0.4079 H   0  0  0  0  0  0  0  0  0  0  0  0
    1.8713    1.5031    0.7743 H   0  0  0  0  0  0  0  0  0  0  0  0
    2.9519    0.5792    1.8463 H   0  0  0  0  0  0  0  0  0  0  0  0
  1 23  1  0  0  0  0
  1  6  1  0  0  0  0
  3 22  1  0  0  0  0
  3 28  1  0  0  0  0
  4 34  1  0  0  0  0
  5 50  1  0  0  0  0
  6 56  1  0  0  0  0
  7  8  1  0  0  0  0
  7 40  2  0  0  0  0
  9 10  1  0  0  0  0
  9  2  1  0  0  0  0
 11 13  1  0  0  0  0
 11 12  1  0  0  0  0
 11  4  1  0  0  0  0
 14 17  1  0  0  0  0
 14  5  2  0  0  0  0
 15 14  1  0  0  0  0
 16 44  1  0  0  0  0
 16 46  1  0  0  0  0
 17 16  2  0  0  0  0
 18 17  1  0  0  0  0
 19  5  1  0  0  0  0
 19  1  1  0  0  0  0
 20 19  1  0  0  0  0
 21 19  1  0  0  0  0
 22  6  1  6  0  0  0
 22 38  1  0  0  0  0
 23 24  1  0  0  0  0
 25 23  1  0  0  0  0
 26  9  1  0  0  0  0
 27 26  1  0  0  0  0
 28 32  2  0  0  0  0
 29 28  1  0  0  0  0
 30 26  2  0  0  0  0
 30  7  1  0  0  0  0
 31 30  1  0  0  0  0
 32 48  1  0  0  0  0
 32 33  1  0  0  0  0
 34 35  1  0  0  0  0
 34 37  1  0  0  0  0
 34 36  1  0  0  0  0
 38 39  1  0  0  0  0
 38 48  2  0  0  0  0
 40  2  1  0  0  0  0
 40 11  1  0  0  0  0
 41  4  1  0  0  0  0
 41 23  1  0  0  0  0
 41 43  1  0  0  0  0
 42 41  1  0  0  0  0
 44 45  1  0  0  0  0
 46 52  2  0  0  0  0
 47 46  1  0  0  0  0
 48 49  1  0  0  0  0
 50 51  1  0  0  0  0
 50 44  2  0  0  0  0
 52 54  1  0  0  0  0
 52 53  1  0  0  0  0
 55  6  1  0  0  0  0
M  END
