1,5,20,35
q = 0.0, confidence = 0.976

 46 48  0  0  1  0  0  0  0  0999 V2000
   -0.0004   -0.0001   -1.7042 N   0  0  0  0  0  0  0  0  0  0  0  0
   -0.4076    1.3579   -2.0695 C   0  0  0  0  0  0  0  0  0  0  0  0
   -1.4971    1.4468   -1.8680 H   0  0  0  0  0  0  0  0  0  0  0  0
   -0.2631    1.5643   -3.1541 H   0  0  0  0  0  0  0  0  0  0  0  0
    0.6290    2.0202    0.0401 N   0  0  0  0  0  2  0  0  0  0  0  0
    0.3366    2.3830   -1.2416 C   0  0  2  0  0  3  0  0  0  0  0  0
    0.6725    3.6205   -1.7801 C   0  0  0  0  0  0  0  0  0  0  0  0
    0.4254    3.8552   -2.8243 H   0  0  0  0  0  0  0  0  0  0  0  0
    1.3327    4.5527   -0.9505 C   0  0  0  0  0  0  0  0  0  0  0  0
    1.6055    5.5462   -1.3363 H   0  0  0  0  0  0  0  0  0  0  0  0
    1.6467    4.2030    0.3505 C   0  0  0  0  0  0  0  0  0  0  0  0
    2.1713    4.9016    1.0180 H   0  0  0  0  0  0  0  0  0  0  0  0
    1.2962    2.9072    0.8398 C   0  0  0  0  0  0  0  0  0  0  0  0
    1.6466    2.5325    2.0883 N   0  0  0  0  0  0  0  0  0  0  0  0
    1.2492    1.6763    2.5055 H   0  0  0  0  0  0  0  0  0  0  0  0
    2.0691    3.2208    2.7077 H   0  0  0  0  0  0  0  0  0  0  0  0
   -0.9728   -1.0316   -2.0697 C   0  0  0  0  0  0  0  0  0  0  0  0
   -0.5050   -2.0197   -1.8683 H   0  0  0  0  0  0  0  0  0  0  0  0
   -1.2238   -1.0095   -3.1543 H   0  0  0  0  0  0  0  0  0  0  0  0
   -2.0648   -0.4650    0.0398 N   0  0  0  0  0  2  0  0  0  0  0  0
   -2.2327   -0.9000   -1.2418 C   0  0  2  0  0  3  0  0  0  0  0  0
   -3.4723   -1.2287   -1.7801 C   0  0  0  0  0  0  0  0  0  0  0  0
   -3.5519   -1.5605   -2.8242 H   0  0  0  0  0  0  0  0  0  0  0  0
   -4.6097   -1.1235   -0.9504 C   0  0  0  0  0  0  0  0  0  0  0  0
   -5.6063   -1.3847   -1.3360 H   0  0  0  0  0  0  0  0  0  0  0  0
   -4.4639   -0.6762    0.3505 C   0  0  0  0  0  0  0  0  0  0  0  0
   -5.3312   -0.5715    1.0180 H   0  0  0  0  0  0  0  0  0  0  0  0
   -3.1665   -0.3311    0.8396 C   0  0  0  0  0  0  0  0  0  0  0  0
   -3.0172    0.1602    2.0878 N   0  0  0  0  0  0  0  0  0  0  0  0
   -2.0770    0.2441    2.5050 H   0  0  0  0  0  0  0  0  0  0  0  0
   -3.8245    0.1815    2.7075 H   0  0  0  0  0  0  0  0  0  0  0  0
    1.3790   -0.3264   -2.0701 C   0  0  0  0  0  0  0  0  0  0  0  0
    2.0008    0.5730   -1.8697 H   0  0  0  0  0  0  0  0  0  0  0  0
    1.4848   -0.5554   -3.1546 H   0  0  0  0  0  0  0  0  0  0  0  0
    1.4352   -1.5550    0.0398 N   0  0  0  0  0  2  0  0  0  0  0  0
    1.8955   -1.4828   -1.2419 C   0  0  2  0  0  3  0  0  0  0  0  0
    2.8003   -2.3917   -1.7802 C   0  0  0  0  0  0  0  0  0  0  0  0
    3.1271   -2.2947   -2.8245 H   0  0  0  0  0  0  0  0  0  0  0  0
    3.2787   -3.4289   -0.9506 C   0  0  0  0  0  0  0  0  0  0  0  0
    4.0035   -4.1610   -1.3362 H   0  0  0  0  0  0  0  0  0  0  0  0
    2.8188   -3.5263    0.3505 C   0  0  0  0  0  0  0  0  0  0  0  0
    3.1623   -4.3295    1.0180 H   0  0  0  0  0  0  0  0  0  0  0  0
    1.8708   -2.5758    0.8396 C   0  0  0  0  0  0  0  0  0  0  0  0
    1.3712   -2.6923    2.0880 N   0  0  0  0  0  0  0  0  0  0  0  0
    0.8276   -1.9207    2.5053 H   0  0  0  0  0  0  0  0  0  0  0  0
    1.7567   -3.4021    2.7074 H   0  0  0  0  0  0  0  0  0  0  0  0
  2  3  1  0  0  0  0
  2  1  1  0  0  0  0
  4  2  1  0  0  0  0
  5 13  1  0  0  0  0
  6  2  1  1  0  0  0
  6  5  1  0  0  0  0
  7  6  1  0  0  0  0
  7  9  2  0  0  0  0
  8  7  1  0  0  0  0
  9 11  1  0  0  0  0
 10  9  1  0  0  0  0
 11 13  2  0  0  0  0
 11 12  1  0  0  0  0
 13 14  1  0  0  0  0
 14 15  1  0  0  0  0
 14 16  1  0  0  0  0
 17 18  1  0  0  0  0
 17  1  1  0  0  0  0
 19 17  1  0  0  0  0
 20 28  1  0  0  0  0
 21 17  1  1  0  0  0
 21 20  1  0  0  0  0
 22 21  1  0  0  0  0
 22 24  2  0  0  0  0
 23 22  1  0  0  0  0
 24 26  1  0  0  0  0
 25 24  1  0  0  0  0
 26 28  2  0  0  0  0
 26 27  1  0  0  0  0
 28 29  1  0  0  0  0
 29 30  1  0  0  0  0
 29 31  1  0  0  0  0
 32 33  1  0  0  0  0
 32  1  1  0  0  0  0
 34 32  1  0  0  0  0
 35 43  1  0  0  0  0
 36 32  1  1  0  0  0
 36 35  1  0  0  0  0
 37 36  1  0  0  0  0
 37 39  2  0  0  0  0
 38 37  1  0  0  0  0
 39 41  1  0  0  0  0
 40 39  1  0  0  0  0
 41 43  2  0  0  0  0
 41 42  1  0  0  0  0
 43 44  1  0  0  0  0
 44 45  1  0  0  0  0
 44 46  1  0  0  0  0
M  END
