1,2,3,4
q = -2.0, confidence = 0.648

 42 44  0  0  1  0  0  0  0  0999 V2000
   -1.3988    1.0224   -0.0400 N   0  0  0  0  0  2  0  0  0  0  0  0
    1.3989    1.0225   -0.0401 N   0  0  0  0  0  2  0  0  0  0  0  0
    1.3722   -1.4978   -0.3507 N   0  0  0  0  0  2  0  0  0  0  0  0
   -1.3720   -1.4979   -0.3506 N   0  0  0  0  0  2  0  0  0  0  0  0
   -1.2649    2.3131   -0.3965 C   0  0  1  0  0  3  0  0  0  0  0  0
   -0.0001    2.8956   -0.6121 C   0  0  0  0  0  0  0  0  0  0  0  0
    1.2648    2.3132   -0.3967 C   0  0  0  0  0  0  0  0  0  0  0  0
    2.6176    0.4059    0.3008 C   0  0  0  0  0  0  0  0  0  0  0  0
    3.7598    1.0036    0.8724 C   0  0  0  0  0  0  0  0  0  0  0  0
    4.9031    0.2338    1.1428 C   0  0  0  0  0  0  0  0  0  0  0  0
    4.9157   -1.1406    0.8630 C   0  0  0  0  0  0  0  0  0  0  0  0
    3.7682   -1.7621    0.3463 C   0  0  0  0  0  0  0  0  0  0  0  0
    2.6157   -1.0018    0.0795 C   0  0  0  0  0  0  0  0  0  0  0  0
    1.2302   -2.7510   -0.7880 C   0  0  0  0  0  3  0  0  0  0  0  0
    0.0001   -3.3621   -1.0640 C   0  0  0  0  0  0  0  0  0  0  0  0
   -1.2300   -2.7511   -0.7879 C   0  0  0  0  0  0  0  0  0  0  0  0
   -2.6156   -1.0020    0.0795 C   0  0  0  0  0  0  0  0  0  0  0  0
   -3.7681   -1.7622    0.3463 C   0  0  0  0  0  0  0  0  0  0  0  0
   -4.9157   -1.1407    0.8629 C   0  0  0  0  0  0  0  0  0  0  0  0
   -4.9031    0.2337    1.1425 C   0  0  0  0  0  0  0  0  0  0  0  0
   -3.7598    1.0035    0.8722 C   0  0  0  0  0  0  0  0  0  0  0  0
   -2.6175    0.4057    0.3008 C   0  0  0  0  0  0  0  0  0  0  0  0
   -2.4581    3.2100   -0.6534 C   0  0  0  0  0  0  0  0  0  0  0  0
    2.4577    3.2103   -0.6540 C   0  0  0  0  0  0  0  0  0  0  0  0
   -0.0002    3.9370   -0.9592 H   0  0  0  0  0  0  0  0  0  0  0  0
    3.7535    2.0634    1.1484 H   0  0  0  0  0  0  0  0  0  0  0  0
    5.7818    0.7146    1.5977 H   0  0  0  0  0  0  0  0  0  0  0  0
    5.8076   -1.7448    1.0863 H   0  0  0  0  0  0  0  0  0  0  0  0
    3.7638   -2.8505    0.1949 H   0  0  0  0  0  0  0  0  0  0  0  0
    2.1473   -3.3509   -0.9264 H   0  0  0  0  0  0  0  0  0  0  0  0
    0.0002   -4.3907   -1.4465 H   0  0  0  0  0  0  0  0  0  0  0  0
   -2.1470   -3.3512   -0.9262 H   0  0  0  0  0  0  0  0  0  0  0  0
   -3.7638   -2.8507    0.1949 H   0  0  0  0  0  0  0  0  0  0  0  0
   -5.8076   -1.7449    1.0861 H   0  0  0  0  0  0  0  0  0  0  0  0
   -5.7820    0.7146    1.5973 H   0  0  0  0  0  0  0  0  0  0  0  0
   -3.7535    2.0633    1.1480 H   0  0  0  0  0  0  0  0  0  0  0  0
   -3.3126    2.6490   -1.0771 H   0  0  0  0  0  0  0  0  0  0  0  0
   -2.8123    3.7123    0.2706 H   0  0  0  0  0  0  0  0  0  0  0  0
   -2.1670    4.0067   -1.3631 H   0  0  0  0  0  0  0  0  0  0  0  0
    2.1662    4.0068   -1.3638 H   0  0  0  0  0  0  0  0  0  0  0  0
    2.8121    3.7128    0.2698 H   0  0  0  0  0  0  0  0  0  0  0  0
    3.3121    2.6494   -1.0779 H   0  0  0  0  0  0  0  0  0  0  0  0
  1 22  1  0  0  0  0
  2  8  1  0  0  0  0
  3 13  1  0  0  0  0
  4 17  1  0  0  0  0
  5 23  1  6  0  0  0
  5  1  1  0  0  0  0
  6  7  2  0  0  0  0
  6  5  1  0  0  0  0
  7  2  1  0  0  0  0
  8  9  1  0  0  0  0
  9 10  2  0  0  0  0
  9 26  1  0  0  0  0
 10 27  1  0  0  0  0
 11 28  1  0  0  0  0
 11 10  1  0  0  0  0
 12 11  2  0  0  0  0
 13  8  2  0  0  0  0
 13 12  1  0  0  0  0
 14  3  1  0  0  0  0
 15 14  1  0  0  0  0
 15 16  2  0  0  0  0
 16  4  1  0  0  0  0
 17 22  2  0  0  0  0
 17 18  1  0  0  0  0
 18 19  2  0  0  0  0
 19 34  1  0  0  0  0
 19 20  1  0  0  0  0
 20 35  1  0  0  0  0
 21 20  2  0  0  0  0
 21 36  1  0  0  0  0
 22 21  1  0  0  0  0
 23 38  1  0  0  0  0
 24  7  1  0  0  0  0
 24 41  1  0  0  0  0
 25  6  1  0  0  0  0
 29 12  1  0  0  0  0
 30 14  1  0  0  0  0
 31 15  1  0  0  0  0
 32 16  1  0  0  0  0
 33 18  1  0  0  0  0
 37 23  1  0  0  0  0
 39 23  1  0  0  0  0
 40 24  1  0  0  0  0
 42 24  1  0  0  0  0
M  END
