1,2,3,4
q = 0.0, confidence = 0.998

 35 35  0  0  0  0  0  0  0  0999 V2000
    0.0235    1.6657    0.6166 N   0  0  0  0  0  0  0  0  0  0  0  0
   -2.6936    0.8483   -0.8441 N   0  0  0  0  0  0  0  0  0  0  0  0
   -2.1776   -1.8885   -0.1778 N   0  0  0  0  0  0  0  0  0  0  0  0
   -0.0732   -1.0285    1.5090 N   0  0  0  0  0  0  0  0  0  0  0  0
   -0.8984    2.7018    1.1270 C   0  0  0  0  0  0  0  0  0  0  0  0
   -0.3315    3.6279    1.3756 H   0  0  0  0  0  0  0  0  0  0  0  0
   -1.3218    2.3336    2.0858 H   0  0  0  0  0  0  0  0  0  0  0  0
   -2.0471    3.0439    0.1788 C   0  0  0  0  0  0  0  0  0  0  0  0
   -1.6509    3.3365   -0.8198 H   0  0  0  0  0  0  0  0  0  0  0  0
   -2.5400    3.9554    0.5737 H   0  0  0  0  0  0  0  0  0  0  0  0
   -3.1251    1.9703    0.0174 C   0  0  0  0  0  0  0  0  0  0  0  0
   -3.3992    1.5579    1.0123 H   0  0  0  0  0  0  0  0  0  0  0  0
   -4.0507    2.4303   -0.3978 H   0  0  0  0  0  0  0  0  0  0  0  0
   -3.7170   -0.2058   -1.0314 C   0  0  0  0  0  0  0  0  0  0  0  0
   -3.6072   -0.6113   -2.0586 H   0  0  0  0  0  0  0  0  0  0  0  0
   -4.7454    0.2096   -0.9579 H   0  0  0  0  0  0  0  0  0  0  0  0
   -3.5301   -1.3448   -0.0248 C   0  0  0  0  0  0  0  0  0  0  0  0
   -3.6399   -0.9610    1.0119 H   0  0  0  0  0  0  0  0  0  0  0  0
   -4.3271   -2.1094   -0.1680 H   0  0  0  0  0  0  0  0  0  0  0  0
   -1.6699   -2.7867    0.8685 C   0  0  0  0  0  0  0  0  0  0  0  0
   -0.8859   -3.4201    0.4049 H   0  0  0  0  0  0  0  0  0  0  0  0
   -2.4514   -3.4758    1.2590 H   0  0  0  0  0  0  0  0  0  0  0  0
   -1.0574   -1.9891    2.0251 C   0  0  0  0  0  0  0  0  0  0  0  0
   -1.8452   -1.4098    2.5527 H   0  0  0  0  0  0  0  0  0  0  0  0
   -0.6267   -2.6890    2.7751 H   0  0  0  0  0  0  0  0  0  0  0  0
    0.3563    0.0306    2.4346 C   0  0  0  0  0  0  0  0  0  0  0  0
    1.0778   -0.3348    3.1976 H   0  0  0  0  0  0  0  0  0  0  0  0
   -0.5417    0.3792    2.9880 H   0  0  0  0  0  0  0  0  0  0  0  0
    0.9758    1.1798    1.6386 C   0  0  0  0  0  0  0  0  0  0  0  0
    1.2867    1.9945    2.3292 H   0  0  0  0  0  0  0  0  0  0  0  0
    1.8879    0.8279    1.1165 H   0  0  0  0  0  0  0  0  0  0  0  0
   -2.4428    1.2332   -1.7662 H   0  0  0  0  0  0  0  0  0  0  0  0
    0.5662    2.0461   -0.1737 H   0  0  0  0  0  0  0  0  0  0  0  0
   -2.0677   -2.3274   -1.1015 H   0  0  0  0  0  0  0  0  0  0  0  0
    0.7649   -1.5197    1.1531 H   0  0  0  0  0  0  0  0  0  0  0  0
  1  5  1  0  0  0  0
  1 29  1  0  0  0  0
  2 11  1  0  0  0  0
  3 17  1  0  0  0  0
  3 20  1  0  0  0  0
  4 23  1  0  0  0  0
  4 26  1  0  0  0  0
  5  6  1  0  0  0  0
  5  7  1  0  0  0  0
  8 10  1  0  0  0  0
  8  5  1  0  0  0  0
  9  8  1  0  0  0  0
 11  8  1  0  0  0  0
 11 12  1  0  0  0  0
 13 11  1  0  0  0  0
 14 16  1  0  0  0  0
 14  2  1  0  0  0  0
 14 17  1  0  0  0  0
 15 14  1  0  0  0  0
 17 18  1  0  0  0  0
 19 17  1  0  0  0  0
 20 22  1  0  0  0  0
 20 23  1  0  0  0  0
 21 20  1  0  0  0  0
 23 24  1  0  0  0  0
 23 25  1  0  0  0  0
 26 28  1  0  0  0  0
 26 27  1  0  0  0  0
 29 30  1  0  0  0  0
 29 26  1  0  0  0  0
 31 29  1  0  0  0  0
 32  2  1  0  0  0  0
 33  1  1  0  0  0  0
 34  3  1  0  0  0  0
 35  4  1  0  0  0  0
M  END
