1,2,3,4
q = 0.0, confidence = 0.998

 41 41  0  0  0  0  0  0  0  0999 V2000
    0.1082    0.5410   -1.7248 N   0  0  0  0  0  0  0  0  0  0  0  0
   -0.7267   -1.8263   -0.4074 N   0  0  0  0  0  0  0  0  0  0  0  0
    2.0633   -1.8189    0.1651 N   0  0  0  0  0  0  0  0  0  0  0  0
    2.3055    1.3227    0.3610 N   0  0  0  0  0  0  0  0  0  0  0  0
   -1.0680   -0.2215   -2.1986 C   0  0  0  0  0  0  0  0  0  0  0  0
   -1.2319   -0.0855   -3.2902 H   0  0  0  0  0  0  0  0  0  0  0  0
   -1.9623    0.1854   -1.6832 H   0  0  0  0  0  0  0  0  0  0  0  0
   -0.9097   -1.7014   -1.8565 C   0  0  0  0  0  0  0  0  0  0  0  0
   -1.7896   -2.2713   -2.2309 H   0  0  0  0  0  0  0  0  0  0  0  0
   -0.0190   -2.1172   -2.3738 H   0  0  0  0  0  0  0  0  0  0  0  0
   -0.1094   -3.0468    0.1139 C   0  0  0  0  0  0  0  0  0  0  0  0
   -0.5857   -3.9795   -0.2667 H   0  0  0  0  0  0  0  0  0  0  0  0
   -0.2459   -3.0341    1.2155 H   0  0  0  0  0  0  0  0  0  0  0  0
    1.3819   -3.0760   -0.2238 C   0  0  0  0  0  0  0  0  0  0  0  0
    1.8601   -3.9665    0.2386 H   0  0  0  0  0  0  0  0  0  0  0  0
    1.5144   -3.1939   -1.3190 H   0  0  0  0  0  0  0  0  0  0  0  0
    3.2967   -1.6033   -0.6255 C   0  0  0  0  0  0  0  0  0  0  0  0
    2.9873   -1.5067   -1.6896 H   0  0  0  0  0  0  0  0  0  0  0  0
    3.9485   -2.5055   -0.5737 H   0  0  0  0  0  0  0  0  0  0  0  0
    4.1081   -0.3784   -0.2161 C   0  0  0  0  0  0  0  0  0  0  0  0
    4.4236   -0.4634    0.8451 H   0  0  0  0  0  0  0  0  0  0  0  0
    5.0536   -0.4121   -0.7951 H   0  0  0  0  0  0  0  0  0  0  0  0
    3.4657    0.9820   -0.4928 C   0  0  0  0  0  0  0  0  0  0  0  0
    4.2427    1.7784   -0.3866 H   0  0  0  0  0  0  0  0  0  0  0  0
    3.1402    1.0082   -1.5529 H   0  0  0  0  0  0  0  0  0  0  0  0
    1.7285    2.6449   -0.0133 C   0  0  0  0  0  0  0  0  0  0  0  0
    2.5068    3.4301    0.1438 H   0  0  0  0  0  0  0  0  0  0  0  0
    0.9157    2.8379    0.7175 H   0  0  0  0  0  0  0  0  0  0  0  0
    1.1698    2.7876   -1.4303 C   0  0  0  0  0  0  0  0  0  0  0  0
    0.9330    3.8629   -1.5642 H   0  0  0  0  0  0  0  0  0  0  0  0
    1.9463    2.5769   -2.1982 H   0  0  0  0  0  0  0  0  0  0  0  0
   -0.1028    2.0068   -1.7444 C   0  0  0  0  0  0  0  0  0  0  0  0
   -0.8909    2.2299   -0.9962 H   0  0  0  0  0  0  0  0  0  0  0  0
   -0.4969    2.3243   -2.7367 H   0  0  0  0  0  0  0  0  0  0  0  0
    2.7280    1.4162    1.7750 C   0  0  0  0  0  0  0  0  0  0  0  0
    3.5689    2.1384    1.8926 H   0  0  0  0  0  0  0  0  0  0  0  0
    3.0484    0.4326    2.1627 H   0  0  0  0  0  0  0  0  0  0  0  0
    1.8741    1.7529    2.3922 H   0  0  0  0  0  0  0  0  0  0  0  0
    0.9017    0.3261   -2.3482 H   0  0  0  0  0  0  0  0  0  0  0  0
   -1.6295   -1.6397    0.0544 H   0  0  0  0  0  0  0  0  0  0  0  0
    2.3179   -1.8823    1.1628 H   0  0  0  0  0  0  0  0  0  0  0  0
  2 40  1  0  0  0  0
  2 11  1  0  0  0  0
  3 41  1  0  0  0  0
  4 35  1  0  0  0  0
  5  8  1  0  0  0  0
  5  1  1  0  0  0  0
  5  7  1  0  0  0  0
  6  5  1  0  0  0  0
  8  2  1  0  0  0  0
  9  8  1  0  0  0  0
 10  8  1  0  0  0  0
 11 13  1  0  0  0  0
 12 11  1  0  0  0  0
 14 11  1  0  0  0  0
 14  3  1  0  0  0  0
 14 15  1  0  0  0  0
 16 14  1  0  0  0  0
 17 19  1  0  0  0  0
 17 20  1  0  0  0  0
 17  3  1  0  0  0  0
 18 17  1  0  0  0  0
 20 21  1  0  0  0  0
 22 20  1  0  0  0  0
 23 24  1  0  0  0  0
 23 20  1  0  0  0  0
 23  4  1  0  0  0  0
 25 23  1  0  0  0  0
 26 27  1  0  0  0  0
 26  4  1  0  0  0  0
 26 28  1  0  0  0  0
 29 26  1  0  0  0  0
 30 29  1  0  0  0  0
 31 29  1  0  0  0  0
 32  1  1  0  0  0  0
 32 29  1  0  0  0  0
 32 33  1  0  0  0  0
 34 32  1  0  0  0  0
 35 36  1  0  0  0  0
 35 37  1  0  0  0  0
 35 38  1  0  0  0  0
 39  1  1  0  0  0  0
M  END
