1,2,3,4
q = -1.0, confidence = 0.028

 40 43  0  0  0  0  0  0  0  0999 V2000
   -1.4545   -0.9728   -0.5600 N   0  0  0  0  0  2  0  0  0  0  0  0
   -1.4938    1.6444    0.0037 N   0  0  0  0  0  2  0  0  0  0  0  0
    1.4149    1.6520   -0.1034 N   0  0  0  0  0  2  0  0  0  0  0  0
    1.7714   -0.9608    0.3311 N   0  0  0  0  0  2  0  0  0  0  0  0
   -1.3694   -2.2607   -0.8737 C   0  0  0  0  0  0  0  0  0  0  0  0
   -0.3569   -2.6965   -0.8941 H   0  0  0  0  0  0  0  0  0  0  0  0
   -2.5043   -3.0566   -1.1634 C   0  0  0  0  0  0  0  0  0  0  0  0
   -2.3761   -4.1173   -1.4225 H   0  0  0  0  0  0  0  0  0  0  0  0
   -3.7610   -2.4743   -1.1003 C   0  0  0  0  0  0  0  0  0  0  0  0
   -4.6689   -3.0631   -1.3048 H   0  0  0  0  0  0  0  0  0  0  0  0
   -3.8897   -1.0969   -0.7646 C   0  0  0  0  0  0  0  0  0  0  0  0
   -5.1407   -0.4244   -0.6763 C   0  0  0  0  0  3  0  0  0  0  0  0
   -6.0678   -0.9845   -0.8689 H   0  0  0  0  0  0  0  0  0  0  0  0
   -5.1729    0.9236   -0.3392 C   0  0  0  0  0  0  0  0  0  0  0  0
   -6.1403    1.4422   -0.2567 H   0  0  0  0  0  0  0  0  0  0  0  0
   -3.9862    1.6515   -0.0938 C   0  0  0  0  0  0  0  0  0  0  0  0
   -4.0603    2.7140    0.1780 H   0  0  0  0  0  0  0  0  0  0  0  0
   -2.7257    1.0411   -0.1777 C   0  0  0  0  0  0  0  0  0  0  0  0
   -2.6775   -0.3699   -0.5033 C   0  0  0  0  0  0  0  0  0  0  0  0
   -1.3171    2.9569    0.0499 C   0  0  0  0  0  0  0  0  0  0  0  0
   -2.1999    3.6295    0.0019 H   0  0  0  0  0  0  0  0  0  0  0  0
   -0.0554    3.5882    0.1026 C   0  0  0  0  0  0  0  0  0  0  0  0
   -0.0548    4.6849    0.1718 H   0  0  0  0  0  0  0  0  0  0  0  0
    1.1981    2.9677   -0.0271 C   0  0  0  0  0  3  0  0  0  0  0  0
    2.0749    3.6472   -0.0779 H   0  0  0  0  0  0  0  0  0  0  0  0
    2.6526    1.1330   -0.4355 C   0  0  0  0  0  0  0  0  0  0  0  0
    3.7342    1.8254   -1.0071 C   0  0  0  0  0  0  0  0  0  0  0  0
    3.6251    2.8865   -1.2723 H   0  0  0  0  0  0  0  0  0  0  0  0
    4.9675    1.1795   -1.2588 C   0  0  0  0  0  0  0  0  0  0  0  0
    5.7876    1.7643   -1.7030 H   0  0  0  0  0  0  0  0  0  0  0  0
    5.1690   -0.1628   -0.9551 C   0  0  0  0  0  3  0  0  0  0  0  0
    6.1399   -0.6474   -1.1354 H   0  0  0  0  0  0  0  0  0  0  0  0
    4.1000   -0.9201   -0.3988 C   0  0  0  0  0  0  0  0  0  0  0  0
    4.2005   -2.2900   -0.0211 C   0  0  0  0  0  0  0  0  0  0  0  0
    5.1544   -2.8185   -0.1758 H   0  0  0  0  0  0  0  0  0  0  0  0
    3.1153   -2.9369    0.5553 C   0  0  0  0  0  0  0  0  0  0  0  0
    3.1825   -3.9848    0.8813 H   0  0  0  0  0  0  0  0  0  0  0  0
    1.9002   -2.2265    0.7157 C   0  0  0  0  0  0  0  0  0  0  0  0
    1.0106   -2.6706    1.1943 H   0  0  0  0  0  0  0  0  0  0  0  0
    2.8338   -0.2800   -0.1729 C   0  0  0  0  0  0  0  0  0  0  0  0
  1 19  1  0  0  0  0
  2 20  1  0  0  0  0
  3 24  1  0  0  0  0
  4 38  1  0  0  0  0
  5  1  1  0  0  0  0
  6  5  1  0  0  0  0
  7  9  1  0  0  0  0
  7  5  2  0  0  0  0
  8  7  1  0  0  0  0
  9 11  2  0  0  0  0
 10  9  1  0  0  0  0
 11 12  1  0  0  0  0
 11 19  1  0  0  0  0
 12 14  1  0  0  0  0
 13 12  1  0  0  0  0
 14 15  1  0  0  0  0
 14 16  2  0  0  0  0
 16 17  1  0  0  0  0
 18 16  1  0  0  0  0
 18  2  1  0  0  0  0
 19 18  2  0  0  0  0
 20 22  2  0  0  0  0
 21 20  1  0  0  0  0
 22 23  1  0  0  0  0
 24 22  1  0  0  0  0
 25 24  1  0  0  0  0
 26 40  2  0  0  0  0
 26  3  1  0  0  0  0
 27 26  1  0  0  0  0
 28 27  1  0  0  0  0
 29 27  2  0  0  0  0
 29 31  1  0  0  0  0
 30 29  1  0  0  0  0
 31 33  1  0  0  0  0
 32 31  1  0  0  0  0
 33 40  1  0  0  0  0
 33 34  2  0  0  0  0
 34 36  1  0  0  0  0
 35 34  1  0  0  0  0
 36 38  2  0  0  0  0
 36 37  1  0  0  0  0
 38 39  1  0  0  0  0
 40  4  1  0  0  0  0
M  END
