5,6,12,15
q = 0.0, confidence = 0.998

 39 40  0  0  1  0  0  0  0  0999 V2000
   -2.3590   -2.4099    0.1027 C   0  0  0  0  0  0  0  0  0  0  0  0
   -3.3934   -2.6481    0.4285 H   0  0  0  0  0  0  0  0  0  0  0  0
   -1.7390   -3.3170    0.2398 H   0  0  0  0  0  0  0  0  0  0  0  0
   -1.3123    1.4368   -1.0811 C   0  0  1  0  0  3  0  0  0  0  0  0
   -1.0322    1.1709    0.2190 N   0  0  0  0  0  2  0  0  0  0  0  0
   -0.1442   -0.7346   -1.4919 N   0  0  0  0  0  0  0  0  0  0  0  0
   -2.0990    2.5363   -1.4509 C   0  0  0  0  0  0  0  0  0  0  0  0
   -2.3149    2.7191   -2.5138 H   0  0  0  0  0  0  0  0  0  0  0  0
   -2.3446   -1.9922   -1.3639 C   0  0  0  0  0  0  0  0  0  0  0  0
   -2.9004   -2.7557   -1.9447 H   0  0  0  0  0  0  0  0  0  0  0  0
   -2.9028   -1.0409   -1.5149 H   0  0  0  0  0  0  0  0  0  0  0  0
    1.6338    0.3273    0.1336 N   0  0  0  0  0  2  0  0  0  0  0  0
   -2.2792    3.1163    0.8837 C   0  0  0  0  0  0  0  0  0  0  0  0
   -2.6367    3.7597    1.7000 H   0  0  0  0  0  0  0  0  0  0  0  0
   -1.7935   -1.3716    0.9880 N   0  0  0  0  0  0  0  0  0  0  0  0
   -1.5612   -1.7626    1.9173 H   0  0  0  0  0  0  0  0  0  0  0  0
   -2.4873   -0.6291    1.1656 H   0  0  0  0  0  0  0  0  0  0  0  0
   -0.9353   -1.9169   -1.9425 C   0  0  0  0  0  0  0  0  0  0  0  0
   -0.3634   -2.8085   -1.6199 H   0  0  0  0  0  0  0  0  0  0  0  0
   -0.9642   -1.9062   -3.0547 H   0  0  0  0  0  0  0  0  0  0  0  0
   -2.5911    3.3909   -0.4556 C   0  0  0  0  0  0  0  0  0  0  0  0
   -3.2097    4.2601   -0.7239 H   0  0  0  0  0  0  0  0  0  0  0  0
   -0.6612    0.5368   -2.0910 C   0  0  0  0  0  0  0  0  0  0  0  0
    0.1935    1.0900   -2.5347 H   0  0  0  0  0  0  0  0  0  0  0  0
   -1.3521    0.3146   -2.9302 H   0  0  0  0  0  0  0  0  0  0  0  0
    1.2877   -0.9272   -1.8742 C   0  0  0  0  0  0  0  0  0  0  0  0
    1.5676   -1.9518   -1.5498 H   0  0  0  0  0  0  0  0  0  0  0  0
    1.4260   -0.8361   -2.9726 H   0  0  0  0  0  0  0  0  0  0  0  0
    3.5511    1.6913    0.5884 C   0  0  0  0  0  0  0  0  0  0  0  0
    4.0882    2.3380    1.2963 H   0  0  0  0  0  0  0  0  0  0  0  0
    4.0703    1.4097   -0.6824 C   0  0  0  0  0  0  0  0  0  0  0  0
    5.0323    1.8356   -1.0036 H   0  0  0  0  0  0  0  0  0  0  0  0
    3.3426    0.5740   -1.5420 C   0  0  0  0  0  0  0  0  0  0  0  0
    3.7138    0.3258   -2.5468 H   0  0  0  0  0  0  0  0  0  0  0  0
    2.3237    1.1359    0.9650 C   0  0  0  0  0  3  0  0  0  0  0  0
    1.8701    1.2999    1.9542 H   0  0  0  0  0  0  0  0  0  0  0  0
    2.1272    0.0408   -1.0993 C   0  0  0  0  0  0  0  0  0  0  0  0
   -1.5035    1.9935    1.1862 C   0  0  0  0  0  0  0  0  0  0  0  0
   -1.2262    1.7053    2.2146 H   0  0  0  0  0  0  0  0  0  0  0  0
  1  3  1  0  0  0  0
  1  2  1  0  0  0  0
  1 15  1  0  0  0  0
  4 23  1  6  0  0  0
  4  5  1  0  0  0  0
  5 38  1  0  0  0  0
  7  4  1  0  0  0  0
  7 21  2  0  0  0  0
  8  7  1  0  0  0  0
  9  1  1  0  0  0  0
 10  9  1  0  0  0  0
 11  9  1  0  0  0  0
 12 35  1  0  0  0  0
 13 38  2  0  0  0  0
 13 14  1  0  0  0  0
 15 17  1  0  0  0  0
 15 16  1  0  0  0  0
 18 19  1  0  0  0  0
 18  6  1  0  0  0  0
 18  9  1  0  0  0  0
 20 18  1  0  0  0  0
 21 13  1  0  0  0  0
 22 21  1  0  0  0  0
 23  6  1  0  0  0  0
 24 23  1  0  0  0  0
 25 23  1  0  0  0  0
 26 27  1  0  0  0  0
 26  6  1  0  0  0  0
 26 37  1  0  0  0  0
 28 26  1  0  0  0  0
 29 35  1  0  0  0  0
 29 30  1  0  0  0  0
 31 29  2  0  0  0  0
 32 31  1  0  0  0  0
 33 37  2  0  0  0  0
 33 31  1  0  0  0  0
 34 33  1  0  0  0  0
 35 36  1  0  0  0  0
 37 12  1  0  0  0  0
 38 39  1  0  0  0  0
M  END
