1,2,3,4
q = -3.0, confidence = 0.358

 34 36  0  0  0  0  0  0  0  0999 V2000
   -0.7626   -0.8718   -1.7222 N   0  0  0  0  0  0  0  0  0  0  0  0
   -1.2510    1.9426    0.0298 N   0  0  0  0  0  0  0  0  0  0  0  0
   -0.2361   -0.8682    1.6182 N   0  0  0  0  0  0  0  0  0  0  0  0
   -2.5308   -0.4533    0.2851 N   0  0  0  0  0  0  0  0  0  0  0  0
    0.0111   -1.4647   -2.7081 C   0  0  0  0  0  0  0  0  0  0  0  0
    1.0960   -1.3096   -2.7307 H   0  0  0  0  0  0  0  0  0  0  0  0
   -0.8054   -2.2095   -3.5513 C   0  0  0  0  0  0  0  0  0  0  0  0
   -0.4785   -2.7977   -4.4177 H   0  0  0  0  0  0  0  0  0  0  0  0
   -2.1499   -2.0698   -3.0680 C   0  0  0  0  0  0  0  0  0  0  0  0
   -3.0557   -2.5160   -3.4965 H   0  0  0  0  0  0  0  0  0  0  0  0
   -2.0889   -1.2415   -1.9543 C   0  0  0  0  0  3  0  0  0  0  0  0
   -0.9357    3.2295   -0.3706 C   0  0  0  0  0  0  0  0  0  0  0  0
    0.0462    3.4530   -0.8045 H   0  0  0  0  0  0  0  0  0  0  0  0
   -2.0347    4.0587   -0.1749 C   0  0  0  0  0  0  0  0  0  0  0  0
   -2.0906    5.1284   -0.4108 H   0  0  0  0  0  0  0  0  0  0  0  0
   -3.0831    3.2454    0.3716 C   0  0  0  0  0  0  0  0  0  0  0  0
   -4.0923    3.5700    0.6533 H   0  0  0  0  0  0  0  0  0  0  0  0
   -2.5714    1.9585    0.4873 C   0  0  0  0  0  3  0  0  0  0  0  0
    0.7227   -0.9650    2.6134 C   0  0  0  0  0  3  0  0  0  0  0  0
    1.6717   -0.4223    2.5275 H   0  0  0  0  0  0  0  0  0  0  0  0
    0.2410   -1.7641    3.6449 C   0  0  0  0  0  0  0  0  0  0  0  0
    0.7683   -2.0119    4.5745 H   0  0  0  0  0  0  0  0  0  0  0  0
   -1.0812   -2.1808    3.2725 C   0  0  0  0  0  0  0  0  0  0  0  0
   -1.7577   -2.8245    3.8478 H   0  0  0  0  0  0  0  0  0  0  0  0
   -1.3389   -1.6177    2.0286 C   0  0  0  0  0  0  0  0  0  0  0  0
   -3.1216   -0.6264   -1.0640 C   0  0  0  0  0  0  0  0  0  0  0  0
   -4.0585   -1.2282   -1.0280 H   0  0  0  0  0  0  0  0  0  0  0  0
   -3.3978    0.3923   -1.4165 H   0  0  0  0  0  0  0  0  0  0  0  0
   -3.1171    0.6802    1.0426 C   0  0  0  0  0  0  0  0  0  0  0  0
   -2.8111    0.5356    2.1027 H   0  0  0  0  0  0  0  0  0  0  0  0
   -4.2308    0.6584    1.0160 H   0  0  0  0  0  0  0  0  0  0  0  0
   -2.4759   -1.7134    1.0617 C   0  0  0  0  0  0  0  0  0  0  0  0
   -2.3078   -2.5273    0.3217 H   0  0  0  0  0  0  0  0  0  0  0  0
   -3.4441   -1.9259    1.5708 H   0  0  0  0  0  0  0  0  0  0  0  0
  2 18  1  0  0  0  0
  3 25  2  0  0  0  0
  3 19  1  0  0  0  0
  4 29  1  0  0  0  0
  4 32  1  0  0  0  0
  5  1  2  0  0  0  0
  6  5  1  0  0  0  0
  7  9  2  0  0  0  0
  7  5  1  0  0  0  0
  8  7  1  0  0  0  0
  9 11  1  0  0  0  0
 10  9  1  0  0  0  0
 11  1  1  0  0  0  0
 11 26  1  0  0  0  0
 12 14  1  0  0  0  0
 12  2  2  0  0  0  0
 13 12  1  0  0  0  0
 14 16  2  0  0  0  0
 15 14  1  0  0  0  0
 16 18  1  0  0  0  0
 16 17  1  0  0  0  0
 18 29  1  0  0  0  0
 19 21  1  0  0  0  0
 20 19  1  0  0  0  0
 21 22  1  0  0  0  0
 23 21  2  0  0  0  0
 23 24  1  0  0  0  0
 25 23  1  0  0  0  0
 26 27  1  0  0  0  0
 26  4  1  0  0  0  0
 28 26  1  0  0  0  0
 29 30  1  0  0  0  0
 31 29  1  0  0  0  0
 32 34  1  0  0  0  0
 32 25  1  0  0  0  0
 33 32  1  0  0  0  0
M  END
