1,2,3,4
q = 0.0, confidence = 0.992

 49 51  0  0  1  0  0  0  0  0999 V2000
    0.5162   -0.0512   -1.7870 N   0  0  0  0  0  0  0  0  0  0  0  0
   -1.4980   -1.4479    0.4126 N   0  0  0  0  0  2  0  0  0  0  0  0
   -0.5055    1.6681    0.2022 N   0  0  0  0  0  2  0  0  0  0  0  0
    2.1007   -0.5660    0.4312 N   0  0  0  0  0  2  0  0  0  0  0  0
   -0.6334   -0.5780   -2.5337 C   0  0  0  0  0  0  0  0  0  0  0  0
   -1.1570   -1.9247   -1.9989 C   0  0  0  0  0  0  0  0  0  0  0  0
   -2.0253   -1.9025   -0.7619 C   0  0  1  0  0  3  0  0  0  0  0  0
   -3.3391   -2.4031   -0.8144 C   0  0  0  0  0  0  0  0  0  0  0  0
   -4.1179   -2.4712    0.3470 C   0  0  0  0  0  0  0  0  0  0  0  0
   -3.5516   -2.0408    1.5554 C   0  0  0  0  0  0  0  0  0  0  0  0
   -2.2490   -1.5390    1.5387 C   0  0  0  0  0  0  0  0  0  0  0  0
    0.6778    1.3993   -1.9135 C   0  0  0  0  0  0  0  0  0  0  0  0
   -0.2927    2.1716   -1.0405 C   0  0  2  0  0  3  0  0  0  0  0  0
   -0.8676    3.3754   -1.4625 C   0  0  0  0  0  0  0  0  0  0  0  0
   -1.6684    4.0944   -0.5616 C   0  0  0  0  0  0  0  0  0  0  0  0
   -1.8594    3.5856    0.7258 C   0  0  0  0  0  0  0  0  0  0  0  0
   -1.2663    2.3587    1.0846 C   0  0  0  0  0  0  0  0  0  0  0  0
   -1.4608    1.7655    2.4504 C   0  0  0  0  0  0  0  0  0  0  0  0
    1.7695   -0.7823   -1.9816 C   0  0  0  0  0  0  0  0  0  0  0  0
    2.6974   -0.6423   -0.7878 C   0  0  2  0  0  3  0  0  0  0  0  0
    4.0900   -0.6526   -0.9268 C   0  0  0  0  0  0  0  0  0  0  0  0
    4.8870   -0.6048    0.2264 C   0  0  0  0  0  0  0  0  0  0  0  0
    4.2645   -0.5378    1.4783 C   0  0  0  0  0  0  0  0  0  0  0  0
    2.8608   -0.5112    1.5561 C   0  0  0  0  0  0  0  0  0  0  0  0
    2.1260   -0.3997    2.8591 C   0  0  0  0  0  0  0  0  0  0  0  0
   -1.4423    0.1791   -2.4758 H   0  0  0  0  0  0  0  0  0  0  0  0
   -0.3844   -0.6919   -3.6169 H   0  0  0  0  0  0  0  0  0  0  0  0
   -1.7360   -2.4053   -2.8109 H   0  0  0  0  0  0  0  0  0  0  0  0
   -0.2969   -2.6037   -1.8058 H   0  0  0  0  0  0  0  0  0  0  0  0
   -3.7404   -2.7549   -1.7760 H   0  0  0  0  0  0  0  0  0  0  0  0
   -5.1431   -2.8681    0.3116 H   0  0  0  0  0  0  0  0  0  0  0  0
   -4.1050   -2.0964    2.5035 H   0  0  0  0  0  0  0  0  0  0  0  0
   -1.7692   -1.1994    2.4686 H   0  0  0  0  0  0  0  0  0  0  0  0
    1.7037    1.6533   -1.5681 H   0  0  0  0  0  0  0  0  0  0  0  0
    0.6069    1.7454   -2.9716 H   0  0  0  0  0  0  0  0  0  0  0  0
   -0.6803    3.7479   -2.4802 H   0  0  0  0  0  0  0  0  0  0  0  0
   -2.1337    5.0446   -0.8628 H   0  0  0  0  0  0  0  0  0  0  0  0
   -2.4705    4.1283    1.4616 H   0  0  0  0  0  0  0  0  0  0  0  0
   -2.4416    1.2502    2.5192 H   0  0  0  0  0  0  0  0  0  0  0  0
   -0.6674    1.0209    2.6566 H   0  0  0  0  0  0  0  0  0  0  0  0
   -1.4450    2.5447    3.2368 H   0  0  0  0  0  0  0  0  0  0  0  0
    1.5256   -1.8607   -2.0919 H   0  0  0  0  0  0  0  0  0  0  0  0
    2.3000   -0.4882   -2.9184 H   0  0  0  0  0  0  0  0  0  0  0  0
    4.5411   -0.7048   -1.9285 H   0  0  0  0  0  0  0  0  0  0  0  0
    5.9840   -0.6174    0.1480 H   0  0  0  0  0  0  0  0  0  0  0  0
    4.8591   -0.5001    2.4022 H   0  0  0  0  0  0  0  0  0  0  0  0
    1.2216   -1.0421    2.8372 H   0  0  0  0  0  0  0  0  0  0  0  0
    2.7585   -0.6861    3.7199 H   0  0  0  0  0  0  0  0  0  0  0  0
    1.7853    0.6456    3.0208 H   0  0  0  0  0  0  0  0  0  0  0  0
  2 11  1  0  0  0  0
  3 17  1  0  0  0  0
  4 24  1  0  0  0  0
  5 26  1  0  0  0  0
  5  6  1  0  0  0  0
  5  1  1  0  0  0  0
  6 29  1  0  0  0  0
  7  6  1  1  0  0  0
  7  2  1  0  0  0  0
  8  7  1  0  0  0  0
  8  9  2  0  0  0  0
  9 10  1  0  0  0  0
 10 32  1  0  0  0  0
 11 10  2  0  0  0  0
 11 33  1  0  0  0  0
 12  1  1  0  0  0  0
 12 34  1  0  0  0  0
 13 12  1  1  0  0  0
 13  3  1  0  0  0  0
 14 13  1  0  0  0  0
 14 15  2  0  0  0  0
 15 16  1  0  0  0  0
 16 17  2  0  0  0  0
 16 38  1  0  0  0  0
 17 18  1  0  0  0  0
 18 39  1  0  0  0  0
 18 40  1  0  0  0  0
 18 41  1  0  0  0  0
 19  1  1  0  0  0  0
 20 19  1  1  0  0  0
 20  4  1  0  0  0  0
 21 20  1  0  0  0  0
 21 22  2  0  0  0  0
 22 23  1  0  0  0  0
 23 24  2  0  0  0  0
 23 46  1  0  0  0  0
 24 25  1  0  0  0  0
 25 49  1  0  0  0  0
 25 48  1  0  0  0  0
 27  5  1  0  0  0  0
 28  6  1  0  0  0  0
 30  8  1  0  0  0  0
 31  9  1  0  0  0  0
 35 12  1  0  0  0  0
 36 14  1  0  0  0  0
 37 15  1  0  0  0  0
 42 19  1  0  0  0  0
 43 19  1  0  0  0  0
 44 21  1  0  0  0  0
 45 22  1  0  0  0  0
 47 25  1  0  0  0  0
M  END
