1,2,3,4
q = -2.0, confidence = 0.774

 77 81  0  0  0  0  0  0  0  0999 V2000
    1.6577   -1.4718   -0.0431 N   0  0  0  0  0  0  0  0  0  0  0  0
   -1.2039   -1.1899   -0.2182 N   0  0  0  0  0  2  0  0  0  0  0  0
   -1.1500    1.2746   -0.2021 N   0  0  0  0  0  2  0  0  0  0  0  0
    1.7217    1.4278   -0.0236 N   0  0  0  0  0  0  0  0  0  0  0  0
    1.4037    2.7874   -0.0689 C   0  0  0  0  0  0  0  0  0  0  0  0
   -1.2363   -2.5547   -0.2525 C   0  0  0  0  0  0  0  0  0  0  0  0
    1.2792   -2.8153   -0.1034 C   0  0  0  0  0  0  0  0  0  0  0  0
   -1.1192    2.6394   -0.2413 C   0  0  0  0  0  0  0  0  0  0  0  0
   -0.0407   -3.3004   -0.2016 C   0  0  0  0  0  0  0  0  0  0  0  0
   -0.1411   -4.3958   -0.2458 H   0  0  0  0  0  0  0  0  0  0  0  0
    3.7845   -0.0701    0.1792 C   0  0  0  0  0  0  0  0  0  0  0  0
    2.9975   -1.3801    0.0399 C   0  0  0  0  0  3  0  0  0  0  0  0
    0.1070    3.3310   -0.1732 C   0  0  0  0  0  0  0  0  0  0  0  0
    0.0544    4.4301   -0.2104 H   0  0  0  0  0  0  0  0  0  0  0  0
   -2.4247    0.8028   -0.3104 C   0  0  0  0  0  0  0  0  0  0  0  0
    2.6409    3.5272    0.0010 C   0  0  0  0  0  0  0  0  0  0  0  0
    4.8925   -0.0862   -0.9129 C   0  0  0  0  0  0  0  0  0  0  0  0
    5.5212   -0.9890   -0.8392 H   0  0  0  0  0  0  0  0  0  0  0  0
    4.4280   -0.0690   -1.9183 H   0  0  0  0  0  0  0  0  0  0  0  0
    5.5592    0.7877   -0.8265 H   0  0  0  0  0  0  0  0  0  0  0  0
   -2.4867    3.0973   -0.3812 C   0  0  0  0  0  0  0  0  0  0  0  0
    3.5634   -2.7241    0.0444 C   0  0  0  0  0  0  0  0  0  0  0  0
    3.6811    2.5922    0.0827 C   0  0  0  0  0  0  0  0  0  0  0  0
   -2.4579   -0.6613   -0.3071 C   0  0  0  0  0  0  0  0  0  0  0  0
    2.4825   -3.6105   -0.0465 C   0  0  0  0  0  0  0  0  0  0  0  0
   -3.3919   -1.7682   -0.3945 C   0  0  0  0  0  0  0  0  0  0  0  0
   -3.3048    1.9515   -0.4278 C   0  0  0  0  0  0  0  0  0  0  0  0
    3.0563    1.2755    0.0596 C   0  0  0  0  0  3  0  0  0  0  0  0
   -2.6256   -2.9504   -0.3624 C   0  0  0  0  0  0  0  0  0  0  0  0
    4.3906   -0.0945    1.6200 C   0  0  0  0  0  0  0  0  0  0  0  0
    4.9973   -1.0034    1.7881 H   0  0  0  0  0  0  0  0  0  0  0  0
    5.0360    0.7847    1.8017 H   0  0  0  0  0  0  0  0  0  0  0  0
    3.5726   -0.0824    2.3661 H   0  0  0  0  0  0  0  0  0  0  0  0
   -3.1213   -4.3674   -0.3950 C   0  0  0  0  0  0  0  0  0  0  0  0
   -2.5123   -4.9552   -1.1167 H   0  0  0  0  0  0  0  0  0  0  0  0
   -4.1575   -4.3853   -0.7932 H   0  0  0  0  0  0  0  0  0  0  0  0
    2.7642    5.0178   -0.0433 C   0  0  0  0  0  0  0  0  0  0  0  0
    1.8841    5.5201    0.4047 H   0  0  0  0  0  0  0  0  0  0  0  0
    3.6595    5.3709    0.5065 H   0  0  0  0  0  0  0  0  0  0  0  0
    2.8594    5.3945   -1.0854 H   0  0  0  0  0  0  0  0  0  0  0  0
   -3.0876   -5.0705    0.9738 C   0  0  0  0  0  0  0  0  0  0  0  0
   -3.4585   -6.1133    0.9000 H   0  0  0  0  0  0  0  0  0  0  0  0
   -2.0574   -5.1014    1.3826 H   0  0  0  0  0  0  0  0  0  0  0  0
   -3.7146   -4.5340    1.7141 H   0  0  0  0  0  0  0  0  0  0  0  0
   -4.8028    1.9550   -0.5350 C   0  0  0  0  0  0  0  0  0  0  0  0
   -5.1257    2.9012   -1.0179 H   0  0  0  0  0  0  0  0  0  0  0  0
   -5.1323    1.1470   -1.2213 H   0  0  0  0  0  0  0  0  0  0  0  0
    4.9988   -3.1614    0.1007 C   0  0  0  0  0  0  0  0  0  0  0  0
    5.6197   -2.5519    0.7855 H   0  0  0  0  0  0  0  0  0  0  0  0
    5.0693   -4.2109    0.4493 H   0  0  0  0  0  0  0  0  0  0  0  0
    5.4923   -3.1271   -0.8953 H   0  0  0  0  0  0  0  0  0  0  0  0
   -3.0648    5.1592    0.9898 C   0  0  0  0  0  0  0  0  0  0  0  0
   -3.3711    6.2236    0.9273 H   0  0  0  0  0  0  0  0  0  0  0  0
   -3.8254    4.6177    1.5875 H   0  0  0  0  0  0  0  0  0  0  0  0
   -2.1100    5.1081    1.5514 H   0  0  0  0  0  0  0  0  0  0  0  0
   -4.8933   -1.7083   -0.4540 C   0  0  0  0  0  0  0  0  0  0  0  0
   -5.2130   -0.7161   -0.8254 H   0  0  0  0  0  0  0  0  0  0  0  0
   -5.2586   -2.4398   -1.2074 H   0  0  0  0  0  0  0  0  0  0  0  0
    5.1340    2.9663    0.1472 C   0  0  0  0  0  0  0  0  0  0  0  0
    5.7282    2.3178    0.8196 H   0  0  0  0  0  0  0  0  0  0  0  0
    5.6260    2.9305   -0.8496 H   0  0  0  0  0  0  0  0  0  0  0  0
    5.2490    4.0050    0.5158 H   0  0  0  0  0  0  0  0  0  0  0  0
   -2.9159    4.5354   -0.4090 C   0  0  0  0  0  0  0  0  0  0  0  0
   -2.1821    5.1287   -0.9966 H   0  0  0  0  0  0  0  0  0  0  0  0
   -3.8788    4.6250   -0.9551 H   0  0  0  0  0  0  0  0  0  0  0  0
   -5.5206    1.8109    0.8166 C   0  0  0  0  0  0  0  0  0  0  0  0
   -6.6225    1.7928    0.6905 H   0  0  0  0  0  0  0  0  0  0  0  0
   -5.2211    0.8772    1.3320 H   0  0  0  0  0  0  0  0  0  0  0  0
   -5.2650    2.6533    1.4903 H   0  0  0  0  0  0  0  0  0  0  0  0
    2.5354   -5.1046   -0.1089 C   0  0  0  0  0  0  0  0  0  0  0  0
    1.6545   -5.5706    0.3759 H   0  0  0  0  0  0  0  0  0  0  0  0
    2.5631   -5.4741   -1.1575 H   0  0  0  0  0  0  0  0  0  0  0  0
    3.4380   -5.5041    0.3948 H   0  0  0  0  0  0  0  0  0  0  0  0
   -5.5785   -1.9957    0.8924 C   0  0  0  0  0  0  0  0  0  0  0  0
   -6.6797   -1.8859    0.8159 H   0  0  0  0  0  0  0  0  0  0  0  0
   -5.3625   -3.0256    1.2399 H   0  0  0  0  0  0  0  0  0  0  0  0
   -5.2192   -1.3033    1.6800 H   0  0  0  0  0  0  0  0  0  0  0  0
  1 12  1  0  0  0  0
  4 28  1  0  0  0  0
  5  4  2  0  0  0  0
  5 16  1  0  0  0  0
  6  2  1  0  0  0  0
  6  9  2  0  0  0  0
  7 25  1  0  0  0  0
  7  1  2  0  0  0  0
  8  3  1  0  0  0  0
  8 13  2  0  0  0  0
  9  7  1  0  0  0  0
 10  9  1  0  0  0  0
 11 30  1  0  0  0  0
 12 22  1  0  0  0  0
 12 11  1  0  0  0  0
 13  5  1  0  0  0  0
 14 13  1  0  0  0  0
 15 24  2  0  0  0  0
 15  3  1  0  0  0  0
 16 23  2  0  0  0  0
 17 18  1  0  0  0  0
 17 20  1  0  0  0  0
 17 11  1  0  0  0  0
 19 17  1  0  0  0  0
 21  8  1  0  0  0  0
 22 48  1  0  0  0  0
 23 59  1  0  0  0  0
 24  2  1  0  0  0  0
 25 22  2  0  0  0  0
 26 29  2  0  0  0  0
 26 24  1  0  0  0  0
 27 21  2  0  0  0  0
 27 15  1  0  0  0  0
 28 23  1  0  0  0  0
 28 11  1  0  0  0  0
 29  6  1  0  0  0  0
 30 31  1  0  0  0  0
 30 32  1  0  0  0  0
 30 33  1  0  0  0  0
 34 29  1  0  0  0  0
 34 41  1  0  0  0  0
 35 34  1  0  0  0  0
 36 34  1  0  0  0  0
 37 16  1  0  0  0  0
 37 38  1  0  0  0  0
 37 39  1  0  0  0  0
 40 37  1  0  0  0  0
 41 43  1  0  0  0  0
 41 44  1  0  0  0  0
 42 41  1  0  0  0  0
 45 27  1  0  0  0  0
 45 66  1  0  0  0  0
 46 45  1  0  0  0  0
 47 45  1  0  0  0  0
 48 50  1  0  0  0  0
 48 49  1  0  0  0  0
 51 48  1  0  0  0  0
 52 55  1  0  0  0  0
 52 54  1  0  0  0  0
 53 52  1  0  0  0  0
 56 26  1  0  0  0  0
 56 74  1  0  0  0  0
 57 56  1  0  0  0  0
 58 56  1  0  0  0  0
 59 62  1  0  0  0  0
 59 60  1  0  0  0  0
 61 59  1  0  0  0  0
 63 21  1  0  0  0  0
 63 52  1  0  0  0  0
 64 63  1  0  0  0  0
 65 63  1  0  0  0  0
 66 68  1  0  0  0  0
 66 69  1  0  0  0  0
 67 66  1  0  0  0  0
 70 25  1  0  0  0  0
 70 71  1  0  0  0  0
 70 73  1  0  0  0  0
 72 70  1  0  0  0  0
 74 76  1  0  0  0  0
 74 77  1  0  0  0  0
 75 74  1  0  0  0  0
M  END
