1,4,6,8
q = 0.0, confidence = 0.986

 37 36  0  0  0  0  0  0  0  0999 V2000
   -2.4012   -1.3803    0.2393 N   0  0  0  0  0  0  0  0  0  0  0  0
   -2.8996   -1.4071   -0.6672 H   0  0  0  0  0  0  0  0  0  0  0  0
   -3.0801   -1.1732    0.9862 H   0  0  0  0  0  0  0  0  0  0  0  0
    0.2791   -1.4735   -0.0845 N   0  0  0  0  0  0  0  0  0  0  0  0
    0.6516   -1.5326    0.8835 H   0  0  0  0  0  0  0  0  0  0  0  0
    0.3455    1.4455   -0.1104 N   0  0  0  0  0  0  0  0  0  0  0  0
    0.6772    1.5007    0.8713 H   0  0  0  0  0  0  0  0  0  0  0  0
   -2.3438    1.4771    0.1921 N   0  0  0  0  0  0  0  0  0  0  0  0
   -3.0351    1.3216    0.9401 H   0  0  0  0  0  0  0  0  0  0  0  0
   -2.8344    1.4971   -0.7189 H   0  0  0  0  0  0  0  0  0  0  0  0
    3.0876    1.0749    1.2716 O   0  0  0  0  0  0  0  0  0  0  0  0
    3.3816    0.9378    2.2010 H   0  0  0  0  0  0  0  0  0  0  0  0
    2.7323   -1.1519    1.4599 O   0  0  0  0  0  0  0  0  0  0  0  0
   -1.7313   -2.6772    0.5078 C   0  0  0  0  0  0  0  0  0  0  0  0
   -2.3997   -3.5384    0.3028 H   0  0  0  0  0  0  0  0  0  0  0  0
   -1.4584   -2.6918    1.5819 H   0  0  0  0  0  0  0  0  0  0  0  0
   -0.4876   -2.7138   -0.3593 C   0  0  0  0  0  0  0  0  0  0  0  0
    0.1298   -3.6139   -0.1547 H   0  0  0  0  0  0  0  0  0  0  0  0
   -0.7575   -2.7102   -1.4350 H   0  0  0  0  0  0  0  0  0  0  0  0
    1.4338   -1.3166   -0.9899 C   0  0  0  0  0  0  0  0  0  0  0  0
    1.0498   -1.2524   -2.0265 H   0  0  0  0  0  0  0  0  0  0  0  0
    2.0752   -2.2183   -0.8987 H   0  0  0  0  0  0  0  0  0  0  0  0
    2.2740   -0.0702   -0.6762 C   0  0  0  0  0  0  0  0  0  0  0  0
    1.5049    1.2215   -0.9948 C   0  0  0  0  0  0  0  0  0  0  0  0
    2.1908    2.0907   -0.9110 H   0  0  0  0  0  0  0  0  0  0  0  0
    1.1262    1.1697   -2.0347 H   0  0  0  0  0  0  0  0  0  0  0  0
    2.7154   -0.1328    0.7952 C   0  0  0  0  0  0  0  0  0  0  0  0
    3.5506   -0.1019   -1.5483 C   0  0  0  0  0  0  0  0  0  0  0  0
    4.1894    0.7784   -1.3446 H   0  0  0  0  0  0  0  0  0  0  0  0
    3.2770   -0.0952   -2.6225 H   0  0  0  0  0  0  0  0  0  0  0  0
    4.1422   -1.0156   -1.3464 H   0  0  0  0  0  0  0  0  0  0  0  0
   -0.3676    2.7091   -0.4260 C   0  0  0  0  0  0  0  0  0  0  0  0
   -0.6271    2.6817   -1.5039 H   0  0  0  0  0  0  0  0  0  0  0  0
    0.2838    3.5901   -0.2444 H   0  0  0  0  0  0  0  0  0  0  0  0
   -1.6211    2.7509    0.4274 C   0  0  0  0  0  0  0  0  0  0  0  0
   -1.3596    2.7873    1.5037 H   0  0  0  0  0  0  0  0  0  0  0  0
   -2.2478    3.6343    0.1880 H   0  0  0  0  0  0  0  0  0  0  0  0
  1 14  1  0  0  0  0
  1  3  1  0  0  0  0
  2  1  1  0  0  0  0
  4  5  1  0  0  0  0
  6  7  1  0  0  0  0
  8 35  1  0  0  0  0
  8  9  1  0  0  0  0
 10  8  1  0  0  0  0
 11 12  1  0  0  0  0
 14 16  1  0  0  0  0
 15 14  1  0  0  0  0
 17 18  1  0  0  0  0
 17  4  1  0  0  0  0
 17 14  1  0  0  0  0
 19 17  1  0  0  0  0
 20 22  1  0  0  0  0
 20 23  1  0  0  0  0
 20  4  1  0  0  0  0
 21 20  1  0  0  0  0
 23 27  1  0  0  0  0
 24 25  1  0  0  0  0
 24 23  1  0  0  0  0
 24  6  1  0  0  0  0
 26 24  1  0  0  0  0
 27 11  1  0  0  0  0
 27 13  2  0  0  0  0
 28 31  1  0  0  0  0
 28 29  1  0  0  0  0
 28 23  1  0  0  0  0
 30 28  1  0  0  0  0
 32 34  1  0  0  0  0
 32  6  1  0  0  0  0
 32 35  1  0  0  0  0
 33 32  1  0  0  0  0
 35 36  1  0  0  0  0
 37 35  1  0  0  0  0
M  END
