1,2,3,4
q = -1.0, confidence = 0.002

 49 49  0  0  0  0  0  0  0  0999 V2000
   -0.9254    0.3696    1.9541 N   0  0  0  0  0  2  0  0  0  0  0  0
   -2.4677   -1.4006    0.2011 N   0  0  0  0  0  0  0  0  0  0  0  0
    0.0882   -2.8057    0.5208 N   0  0  0  0  0  0  0  0  0  0  0  0
   -0.8432   -2.0160   -2.1933 N   0  0  0  0  0  0  0  0  0  0  0  0
    1.2653    1.1967    2.5292 C   0  0  0  0  0  0  0  0  0  0  0  0
    0.0273   -0.1917    4.2063 C   0  0  0  0  0  0  0  0  0  0  0  0
   -0.7169    2.1579    3.6999 C   0  0  0  0  0  0  0  0  0  0  0  0
   -0.1296    0.8653    3.0850 C   0  0  0  0  0  0  0  0  0  0  0  0
   -2.3050    0.0658    2.2427 C   0  0  0  0  0  0  0  0  0  0  0  0
   -3.0838   -0.3012    0.9773 C   0  0  0  0  0  0  0  0  0  0  0  0
   -2.3790   -2.6641    0.9514 C   0  0  0  0  0  0  0  0  0  0  0  0
   -0.9840   -2.9413    1.5215 C   0  0  0  0  0  0  0  0  0  0  0  0
    1.4106   -2.8435    1.1528 C   0  0  0  0  0  0  0  0  0  0  0  0
   -0.0161   -3.7722   -0.5882 C   0  0  0  0  0  0  0  0  0  0  0  0
    0.1012   -3.1264   -1.9684 C   0  0  0  0  0  0  0  0  0  0  0  0
   -0.5616   -1.3718   -3.4842 C   0  0  0  0  0  0  0  0  0  0  0  0
   -2.2641   -2.4209   -2.0813 C   0  0  0  0  0  0  0  0  0  0  0  0
   -3.0767   -1.5379   -1.1290 C   0  0  0  0  0  0  0  0  0  0  0  0
    1.7350    0.3151    2.0394 H   0  0  0  0  0  0  0  0  0  0  0  0
    1.9665    1.5307    3.3195 H   0  0  0  0  0  0  0  0  0  0  0  0
    1.2030    2.0153    1.7817 H   0  0  0  0  0  0  0  0  0  0  0  0
   -0.9577   -0.5112    4.6034 H   0  0  0  0  0  0  0  0  0  0  0  0
    0.6151    0.2033    5.0603 H   0  0  0  0  0  0  0  0  0  0  0  0
    0.5509   -1.0936    3.8263 H   0  0  0  0  0  0  0  0  0  0  0  0
   -0.8463    2.9319    2.9167 H   0  0  0  0  0  0  0  0  0  0  0  0
   -0.0504    2.5656    4.4876 H   0  0  0  0  0  0  0  0  0  0  0  0
   -1.7056    1.9784    4.1685 H   0  0  0  0  0  0  0  0  0  0  0  0
   -2.8704    0.9251    2.6887 H   0  0  0  0  0  0  0  0  0  0  0  0
   -2.4383   -0.7638    2.9950 H   0  0  0  0  0  0  0  0  0  0  0  0
   -4.1396   -0.5573    1.2470 H   0  0  0  0  0  0  0  0  0  0  0  0
   -3.1170    0.5854    0.3088 H   0  0  0  0  0  0  0  0  0  0  0  0
   -2.6914   -3.4981    0.2907 H   0  0  0  0  0  0  0  0  0  0  0  0
   -3.1042   -2.6723    1.7968 H   0  0  0  0  0  0  0  0  0  0  0  0
   -0.7686   -2.2027    2.3163 H   0  0  0  0  0  0  0  0  0  0  0  0
   -0.9816   -3.9592    1.9907 H   0  0  0  0  0  0  0  0  0  0  0  0
    1.6013   -3.8125    1.6767 H   0  0  0  0  0  0  0  0  0  0  0  0
    1.4938   -2.0273    1.8974 H   0  0  0  0  0  0  0  0  0  0  0  0
    2.1998   -2.6791    0.3967 H   0  0  0  0  0  0  0  0  0  0  0  0
   -0.9773   -4.3177   -0.5076 H   0  0  0  0  0  0  0  0  0  0  0  0
    0.7694   -4.5571   -0.5054 H   0  0  0  0  0  0  0  0  0  0  0  0
    1.1223   -2.7101   -2.0920 H   0  0  0  0  0  0  0  0  0  0  0  0
   -0.0170   -3.9235   -2.7469 H   0  0  0  0  0  0  0  0  0  0  0  0
    0.4715   -0.9693   -3.4834 H   0  0  0  0  0  0  0  0  0  0  0  0
   -1.2517   -0.5232   -3.6395 H   0  0  0  0  0  0  0  0  0  0  0  0
   -0.6588   -2.0884   -4.3362 H   0  0  0  0  0  0  0  0  0  0  0  0
   -2.3204   -3.4801   -1.7590 H   0  0  0  0  0  0  0  0  0  0  0  0
   -2.7543   -2.3970   -3.0794 H   0  0  0  0  0  0  0  0  0  0  0  0
   -3.1407   -0.5175   -1.5570 H   0  0  0  0  0  0  0  0  0  0  0  0
   -4.1217   -1.9387   -1.0735 H   0  0  0  0  0  0  0  0  0  0  0  0
  1  9  1  0  0  0  0
  1  8  1  0  0  0  0
  2 11  1  0  0  0  0
  2 10  1  0  0  0  0
  3 13  1  0  0  0  0
  3 12  1  0  0  0  0
  4 17  1  0  0  0  0
  4 15  1  0  0  0  0
  5  8  1  0  0  0  0
  5 20  1  0  0  0  0
  6 22  1  0  0  0  0
  6 23  1  0  0  0  0
  7 27  1  0  0  0  0
  7 26  1  0  0  0  0
  8  7  1  0  0  0  0
  8  6  1  0  0  0  0
  9 28  1  0  0  0  0
  9 29  1  0  0  0  0
 10 30  1  0  0  0  0
 10  9  1  0  0  0  0
 11 12  1  0  0  0  0
 11 33  1  0  0  0  0
 12 35  1  0  0  0  0
 12 34  1  0  0  0  0
 13 36  1  0  0  0  0
 13 37  1  0  0  0  0
 14 39  1  0  0  0  0
 14 40  1  0  0  0  0
 14  3  1  0  0  0  0
 15 14  1  0  0  0  0
 16 43  1  0  0  0  0
 16  4  1  0  0  0  0
 17 46  1  0  0  0  0
 17 18  1  0  0  0  0
 18 49  1  0  0  0  0
 18  2  1  0  0  0  0
 19  5  1  0  0  0  0
 21  5  1  0  0  0  0
 24  6  1  0  0  0  0
 25  7  1  0  0  0  0
 31 10  1  0  0  0  0
 32 11  1  0  0  0  0
 38 13  1  0  0  0  0
 41 15  1  0  0  0  0
 42 15  1  0  0  0  0
 44 16  1  0  0  0  0
 45 16  1  0  0  0  0
 47 17  1  0  0  0  0
 48 18  1  0  0  0  0
M  END
