1,2,4,7
q = -2.0, confidence = 0.986

 58 63  0  0  1  0  0  0  0  0999 V2000
   -2.0737   -1.4915    0.0853 N   0  0  0  0  0  2  0  0  0  0  0  0
   -0.8736    0.3121   -1.3657 N   0  0  0  0  0  2  0  0  0  0  0  0
   -0.4639    0.9687   -3.5464 O   0  0  0  0  0  0  0  0  0  0  0  0
    0.7228   -1.8016   -0.4634 N   0  0  0  0  0  2  0  0  0  0  0  0
    2.1633    1.7166    2.5499 O   0  0  0  0  0  0  0  0  0  0  0  0
   -0.0591    0.7372   -2.3990 C   0  0  0  0  0  0  0  0  0  0  0  0
    1.2724    0.3212    0.9221 N   0  0  0  0  0  2  0  0  0  0  0  0
   -2.8729   -0.8600   -0.8254 C   0  0  0  0  0  0  0  0  0  0  0  0
   -2.2358    0.1526   -1.6113 C   0  0  0  0  0  0  0  0  0  0  0  0
    1.4009    0.9147   -2.1023 C   0  0  0  0  0  0  0  0  0  0  0  0
    1.8303    1.9352   -1.2280 C   0  0  0  0  0  0  0  0  0  0  0  0
    0.8627    2.8132   -0.5021 C   0  0  0  0  0  0  0  0  0  0  0  0
    0.1737    3.8486   -1.1616 C   0  0  0  0  0  0  0  0  0  0  0  0
    0.2709    3.9442   -2.2538 H   0  0  0  0  0  0  0  0  0  0  0  0
   -0.6059    4.7594   -0.4325 C   0  0  0  0  0  0  0  0  0  0  0  0
   -1.1424    5.5631   -0.9595 H   0  0  0  0  0  0  0  0  0  0  0  0
   -0.6743    4.6686    0.9688 C   0  0  0  0  0  0  0  0  0  0  0  0
   -1.2566    5.4066    1.5418 H   0  0  0  0  0  0  0  0  0  0  0  0
   -0.0017    3.6342    1.6328 C   0  0  0  0  0  0  0  0  0  0  0  0
   -0.0461    3.5359    2.7281 H   0  0  0  0  0  0  0  0  0  0  0  0
    0.7196    2.6777    0.9001 C   0  0  0  0  0  0  0  0  0  0  0  0
    1.4292    1.5388    1.5716 C   0  0  0  0  0  0  0  0  0  0  0  0
    2.2936   -0.6022    0.8569 C   0  0  0  0  0  0  0  0  0  0  0  0
    3.5918   -0.5214    1.3999 C   0  0  0  0  0  0  0  0  0  0  0  0
    3.8259    0.3011    2.0847 H   0  0  0  0  0  0  0  0  0  0  0  0
    4.5689   -1.4792    1.0445 C   0  0  0  0  0  0  0  0  0  0  0  0
    5.5763   -1.3771    1.4777 H   0  0  0  0  0  0  0  0  0  0  0  0
    4.3115   -2.5293    0.1654 C   0  0  0  0  0  0  0  0  0  0  0  0
    5.0944   -3.2515   -0.1084 H   0  0  0  0  0  0  0  0  0  0  0  0
    3.0068   -2.6712   -0.3805 C   0  0  0  0  0  0  0  0  0  0  0  0
    2.0047   -1.7225    0.0064 C   0  0  2  0  0  3  0  0  0  0  0  0
    0.3762   -2.7405   -1.3468 C   0  0  0  0  0  0  0  0  0  0  0  0
   -0.6641   -2.7322   -1.7010 H   0  0  0  0  0  0  0  0  0  0  0  0
    1.3122   -3.6987   -1.7996 C   0  0  0  0  0  0  0  0  0  0  0  0
    0.9904   -4.4547   -2.5295 H   0  0  0  0  0  0  0  0  0  0  0  0
    2.6115   -3.6752   -1.3085 C   0  0  0  0  0  0  0  0  0  0  0  0
    3.3502   -4.4217   -1.6393 H   0  0  0  0  0  0  0  0  0  0  0  0
    3.2142    2.1200   -1.0255 C   0  0  0  0  0  0  0  0  0  0  0  0
    3.5496    2.9104   -0.3371 H   0  0  0  0  0  0  0  0  0  0  0  0
    4.1503    1.3005   -1.6713 C   0  0  0  0  0  0  0  0  0  0  0  0
    5.2249    1.4470   -1.4851 H   0  0  0  0  0  0  0  0  0  0  0  0
    3.7162    0.2957   -2.5502 C   0  0  0  0  0  0  0  0  0  0  0  0
    4.4468   -0.3516   -3.0581 H   0  0  0  0  0  0  0  0  0  0  0  0
    2.3448    0.1189   -2.7762 C   0  0  0  0  0  0  0  0  0  0  0  0
    1.9870   -0.6582   -3.4685 H   0  0  0  0  0  0  0  0  0  0  0  0
   -3.0371    0.8302   -2.5490 C   0  0  0  0  0  0  0  0  0  0  0  0
   -2.5858    1.5994   -3.1826 H   0  0  0  0  0  0  0  0  0  0  0  0
   -4.4067    0.5018   -2.6908 C   0  0  0  0  0  0  0  0  0  0  0  0
   -5.0002    1.0647   -3.4278 H   0  0  0  0  0  0  0  0  0  0  0  0
   -5.0186   -0.5084   -1.9534 C   0  0  0  0  0  3  0  0  0  0  0  0
   -6.0789   -0.7621   -2.0985 H   0  0  0  0  0  0  0  0  0  0  0  0
   -4.2488   -1.2276   -1.0000 C   0  0  0  0  0  0  0  0  0  0  0  0
   -4.7295   -2.3042   -0.2025 C   0  0  0  0  0  0  0  0  0  0  0  0
   -5.7806   -2.6176   -0.3010 H   0  0  0  0  0  0  0  0  0  0  0  0
   -3.8753   -2.9537    0.6797 C   0  0  0  0  0  0  0  0  0  0  0  0
   -4.2217   -3.7966    1.2941 H   0  0  0  0  0  0  0  0  0  0  0  0
   -2.5367   -2.5130    0.8068 C   0  0  0  0  0  0  0  0  0  0  0  0
   -1.8255   -2.9716    1.5090 H   0  0  0  0  0  0  0  0  0  0  0  0
  1 57  1  0  0  0  0
  3  6  2  0  0  0  0
  6 10  1  0  0  0  0
  6  2  1  0  0  0  0
  7 22  1  0  0  0  0
  8  1  1  0  0  0  0
  9  2  1  0  0  0  0
  9  8  2  0  0  0  0
 10 11  1  0  0  0  0
 11 38  2  0  0  0  0
 11 12  1  0  0  0  0
 12 21  1  0  0  0  0
 13 12  2  0  0  0  0
 13 15  1  0  0  0  0
 14 13  1  0  0  0  0
 15 17  2  0  0  0  0
 16 15  1  0  0  0  0
 17 18  1  0  0  0  0
 17 19  1  0  0  0  0
 19 20  1  0  0  0  0
 21 22  1  0  0  0  0
 21 19  2  0  0  0  0
 22  5  2  0  0  0  0
 23  7  1  0  0  0  0
 23 24  2  0  0  0  0
 24 25  1  0  0  0  0
 26 24  1  0  0  0  0
 26 27  1  0  0  0  0
 28 26  2  0  0  0  0
 29 28  1  0  0  0  0
 30 31  1  0  0  0  0
 30 28  1  0  0  0  0
 31  4  1  6  0  0  0
 31 23  1  0  0  0  0
 32  4  1  0  0  0  0
 33 32  1  0  0  0  0
 34 32  2  0  0  0  0
 34 36  1  0  0  0  0
 35 34  1  0  0  0  0
 36 30  2  0  0  0  0
 37 36  1  0  0  0  0
 38 39  1  0  0  0  0
 40 41  1  0  0  0  0
 40 38  1  0  0  0  0
 42 40  2  0  0  0  0
 43 42  1  0  0  0  0
 44 42  1  0  0  0  0
 44 10  2  0  0  0  0
 45 44  1  0  0  0  0
 46  9  1  0  0  0  0
 47 46  1  0  0  0  0
 48 46  2  0  0  0  0
 48 50  1  0  0  0  0
 49 48  1  0  0  0  0
 50 52  1  0  0  0  0
 51 50  1  0  0  0  0
 52  8  1  0  0  0  0
 52 53  2  0  0  0  0
 53 55  1  0  0  0  0
 54 53  1  0  0  0  0
 55 57  2  0  0  0  0
 55 56  1  0  0  0  0
 57 58  1  0  0  0  0
M  END
