1,3,6,12
q = -2.0, confidence = 0.82

 65 65  0  0  1  0  0  0  0  0999 V2000
    1.2413    0.7806    0.9823 N   0  0  0  0  0  2  0  0  0  0  0  0
    1.6710    0.2040   -0.1292 C   0  0  2  0  0  3  0  0  0  0  0  0
    0.6628   -0.2618   -0.8874 N   0  0  0  0  0  2  0  0  0  0  0  0
    0.7495   -1.4551   -1.6805 C   0  0  0  0  0  0  0  0  0  0  0  0
   -0.0248   -2.6613   -1.0563 C   0  0  1  0  0  0  0  0  0  0  0  0
    0.1224   -1.9458    1.2832 N   0  0  0  0  0  2  0  0  0  0  0  0
    0.5071   -2.0913    2.5658 C   0  0  0  0  0  3  0  0  0  0  0  0
    1.2586   -3.1821    3.0158 C   0  0  0  0  0  0  0  0  0  0  0  0
    1.6141   -4.1670    2.0865 C   0  0  0  0  0  0  0  0  0  0  0  0
    1.2031   -4.0231    0.7559 C   0  0  0  0  0  0  0  0  0  0  0  0
    0.4536   -2.8929    0.3708 C   0  0  0  0  0  0  0  0  0  0  0  0
   -2.0142   -1.1005   -0.5335 N   0  0  0  0  0  2  0  0  0  0  0  0
   -1.5566   -2.3790   -1.0585 C   0  0  0  0  0  0  0  0  0  0  0  0
    2.0662    1.5687    1.9169 C   0  0  0  0  0  0  0  0  0  0  0  0
    1.1630    2.0411    3.0662 C   0  0  0  0  0  0  0  0  0  0  0  0
    3.1978    0.6974    2.5045 C   0  0  0  0  0  0  0  0  0  0  0  0
    2.6568    2.8010    1.2010 C   0  0  0  0  0  0  0  0  0  0  0  0
    2.9726    0.0654   -0.4638 O   0  0  0  0  0  0  0  0  0  0  0  0
    3.7606    0.6010   -1.9140 Si  0  0  0  0  0  0  0  0  0  0  0  0
    2.6984    1.9394   -2.6915 C   0  0  0  0  0  0  0  0  0  0  0  0
    4.0214   -0.8569   -3.0774 C   0  0  0  0  0  0  0  0  0  0  0  0
    5.4293    1.2228   -1.3151 C   0  0  0  0  0  0  0  0  0  0  0  0
    0.2150   -3.8816   -1.9570 C   0  0  0  0  0  0  0  0  0  0  0  0
   -3.6283   -0.6109   -1.1451 Si  0  0  0  0  0  0  0  0  0  0  0  0
   -4.6015    0.3080    0.1792 C   0  0  0  0  0  0  0  0  0  0  0  0
   -3.3817    0.3548   -2.7547 C   0  0  0  0  0  0  0  0  0  0  0  0
   -4.6259   -2.1788   -1.5464 C   0  0  0  0  0  0  0  0  0  0  0  0
    0.3178   -1.2833   -2.6937 H   0  0  0  0  0  0  0  0  0  0  0  0
    1.8067   -1.7665   -1.8186 H   0  0  0  0  0  0  0  0  0  0  0  0
    0.1661   -1.2976    3.2493 H   0  0  0  0  0  0  0  0  0  0  0  0
    1.5491   -3.2517    4.0737 H   0  0  0  0  0  0  0  0  0  0  0  0
    2.2023   -5.0458    2.3925 H   0  0  0  0  0  0  0  0  0  0  0  0
    1.4653   -4.7898    0.0167 H   0  0  0  0  0  0  0  0  0  0  0  0
   -2.0468   -3.2292   -0.5241 H   0  0  0  0  0  0  0  0  0  0  0  0
   -1.8600   -2.4876   -2.1282 H   0  0  0  0  0  0  0  0  0  0  0  0
    1.7452    2.6614    3.7764 H   0  0  0  0  0  0  0  0  0  0  0  0
    0.7340    1.1816    3.6146 H   0  0  0  0  0  0  0  0  0  0  0  0
    0.3143    2.6390    2.6862 H   0  0  0  0  0  0  0  0  0  0  0  0
    3.7767    1.2751    3.2537 H   0  0  0  0  0  0  0  0  0  0  0  0
    2.7696   -0.1911    3.0102 H   0  0  0  0  0  0  0  0  0  0  0  0
    3.8890    0.3465    1.7159 H   0  0  0  0  0  0  0  0  0  0  0  0
    3.2080    3.4427    1.9178 H   0  0  0  0  0  0  0  0  0  0  0  0
    1.8490    3.4065    0.7442 H   0  0  0  0  0  0  0  0  0  0  0  0
    3.3627    2.5030    0.4034 H   0  0  0  0  0  0  0  0  0  0  0  0
    3.1264    2.2689   -3.6602 H   0  0  0  0  0  0  0  0  0  0  0  0
    1.6707    1.5628   -2.8684 H   0  0  0  0  0  0  0  0  0  0  0  0
    2.6226    2.8234   -2.0276 H   0  0  0  0  0  0  0  0  0  0  0  0
    4.7533   -0.5748   -3.8630 H   0  0  0  0  0  0  0  0  0  0  0  0
    3.0868   -1.1695   -3.5824 H   0  0  0  0  0  0  0  0  0  0  0  0
    4.4335   -1.7301   -2.5317 H   0  0  0  0  0  0  0  0  0  0  0  0
    6.0547    1.5490   -2.1713 H   0  0  0  0  0  0  0  0  0  0  0  0
    5.9746    0.4180   -0.7810 H   0  0  0  0  0  0  0  0  0  0  0  0
    5.3219    2.0800   -0.6213 H   0  0  0  0  0  0  0  0  0  0  0  0
   -0.3410   -4.7718   -1.6004 H   0  0  0  0  0  0  0  0  0  0  0  0
   -0.1310   -3.6597   -2.9860 H   0  0  0  0  0  0  0  0  0  0  0  0
    1.2892   -4.1451   -2.0224 H   0  0  0  0  0  0  0  0  0  0  0  0
   -5.5222    0.7547   -0.2500 H   0  0  0  0  0  0  0  0  0  0  0  0
   -4.8967   -0.4074    0.9735 H   0  0  0  0  0  0  0  0  0  0  0  0
   -4.0049    1.1063    0.6552 H   0  0  0  0  0  0  0  0  0  0  0  0
   -4.3293    0.7823   -3.1421 H   0  0  0  0  0  0  0  0  0  0  0  0
   -2.6577    1.1768   -2.5946 H   0  0  0  0  0  0  0  0  0  0  0  0
   -2.9669   -0.3163   -3.5355 H   0  0  0  0  0  0  0  0  0  0  0  0
   -5.6572   -1.8850   -1.8337 H   0  0  0  0  0  0  0  0  0  0  0  0
   -4.7032   -2.8405   -0.6593 H   0  0  0  0  0  0  0  0  0  0  0  0
   -4.2031   -2.7696   -2.3836 H   0  0  0  0  0  0  0  0  0  0  0  0
  1 14  1  0  0  0  0
  2  3  1  1  0  0  0
  2  1  1  0  0  0  0
  4  5  1  0  0  0  0
  4  3  1  0  0  0  0
  5 23  1  6  0  0  0
  5 11  1  0  0  0  0
  6  7  1  0  0  0  0
  7  8  1  0  0  0  0
  7 30  1  0  0  0  0
  8 31  1  0  0  0  0
  9 32  1  0  0  0  0
  9  8  2  0  0  0  0
 10  9  1  0  0  0  0
 11 10  2  0  0  0  0
 11  6  1  0  0  0  0
 13  5  1  0  0  0  0
 13 12  1  0  0  0  0
 13 34  1  0  0  0  0
 14 16  1  0  0  0  0
 14 15  1  0  0  0  0
 15 37  1  0  0  0  0
 15 36  1  0  0  0  0
 16 40  1  0  0  0  0
 16 39  1  0  0  0  0
 17 14  1  0  0  0  0
 17 42  1  0  0  0  0
 18  2  1  0  0  0  0
 19 22  1  0  0  0  0
 19 18  1  0  0  0  0
 20 47  1  0  0  0  0
 20 19  1  0  0  0  0
 21 50  1  0  0  0  0
 21 19  1  0  0  0  0
 22 52  1  0  0  0  0
 22 53  1  0  0  0  0
 23 54  1  0  0  0  0
 24 12  1  0  0  0  0
 24 25  1  0  0  0  0
 25 59  1  0  0  0  0
 25 58  1  0  0  0  0
 26 61  1  0  0  0  0
 26 24  1  0  0  0  0
 27 24  1  0  0  0  0
 27 64  1  0  0  0  0
 28  4  1  0  0  0  0
 29  4  1  0  0  0  0
 33 10  1  0  0  0  0
 35 13  1  0  0  0  0
 38 15  1  0  0  0  0
 41 16  1  0  0  0  0
 43 17  1  0  0  0  0
 44 17  1  0  0  0  0
 45 20  1  0  0  0  0
 46 20  1  0  0  0  0
 48 21  1  0  0  0  0
 49 21  1  0  0  0  0
 51 22  1  0  0  0  0
 55 23  1  0  0  0  0
 56 23  1  0  0  0  0
 57 25  1  0  0  0  0
 60 26  1  0  0  0  0
 62 26  1  0  0  0  0
 63 27  1  0  0  0  0
 65 27  1  0  0  0  0
M  END
