1,2,21,22
q = -2.0, confidence = 0.732

 40 40  0  0  1  0  0  0  0  0999 V2000
    1.3444   -1.4966    0.0218 N   0  0  0  0  0  2  0  0  0  0  0  0
    1.3444    1.4966    0.0221 N   0  0  0  0  0  2  0  0  0  0  0  0
    0.7085   -2.7922    0.2867 C   0  0  0  0  0  0  0  0  0  0  0  0
    0.6729   -2.9645    1.3869 H   0  0  0  0  0  0  0  0  0  0  0  0
    1.2886   -3.6226   -0.1617 H   0  0  0  0  0  0  0  0  0  0  0  0
   -0.7086   -2.7923   -0.2865 C   0  0  0  0  0  0  0  0  0  0  0  0
   -0.6730   -2.9649   -1.3866 H   0  0  0  0  0  0  0  0  0  0  0  0
   -1.2886   -3.6225    0.1622 H   0  0  0  0  0  0  0  0  0  0  0  0
    2.6649    1.2831   -0.0334 C   0  0  2  0  0  3  0  0  0  0  0  0
    3.2581   -0.0000   -0.1005 C   0  0  0  0  0  0  0  0  0  0  0  0
    4.3516   -0.0000   -0.1789 H   0  0  0  0  0  0  0  0  0  0  0  0
    2.6649   -1.2831   -0.0335 C   0  0  0  0  0  0  0  0  0  0  0  0
    3.5800   -2.4845   -0.0093 C   0  0  0  0  0  0  0  0  0  0  0  0
    3.4641   -3.0525    0.9368 H   0  0  0  0  0  0  0  0  0  0  0  0
    4.6357   -2.1764   -0.0972 H   0  0  0  0  0  0  0  0  0  0  0  0
    3.3520   -3.1803   -0.8428 H   0  0  0  0  0  0  0  0  0  0  0  0
    3.5800    2.4845   -0.0094 C   0  0  0  0  0  0  0  0  0  0  0  0
    3.3524    3.1798   -0.8435 H   0  0  0  0  0  0  0  0  0  0  0  0
    4.6358    2.1764   -0.0967 H   0  0  0  0  0  0  0  0  0  0  0  0
    3.4637    3.0530    0.9362 H   0  0  0  0  0  0  0  0  0  0  0  0
   -1.3444    1.4966   -0.0218 N   0  0  0  0  0  2  0  0  0  0  0  0
   -1.3444   -1.4966   -0.0220 N   0  0  0  0  0  2  0  0  0  0  0  0
   -0.7085    2.7922   -0.2865 C   0  0  0  0  0  0  0  0  0  0  0  0
   -0.6730    2.9647   -1.3867 H   0  0  0  0  0  0  0  0  0  0  0  0
   -1.2886    3.6225    0.1620 H   0  0  0  0  0  0  0  0  0  0  0  0
    0.7085    2.7922    0.2867 C   0  0  0  0  0  0  0  0  0  0  0  0
    0.6730    2.9648    1.3868 H   0  0  0  0  0  0  0  0  0  0  0  0
    1.2886    3.6225   -0.1619 H   0  0  0  0  0  0  0  0  0  0  0  0
   -2.6649   -1.2831    0.0336 C   0  0  1  0  0  3  0  0  0  0  0  0
   -3.2581    0.0000    0.1008 C   0  0  0  0  0  0  0  0  0  0  0  0
   -4.3516    0.0000    0.1792 H   0  0  0  0  0  0  0  0  0  0  0  0
   -2.6649    1.2831    0.0337 C   0  0  0  0  0  0  0  0  0  0  0  0
   -3.5799    2.4845    0.0097 C   0  0  0  0  0  0  0  0  0  0  0  0
   -3.4642    3.0525   -0.9364 H   0  0  0  0  0  0  0  0  0  0  0  0
   -4.6357    2.1764    0.0978 H   0  0  0  0  0  0  0  0  0  0  0  0
   -3.3518    3.1803    0.8433 H   0  0  0  0  0  0  0  0  0  0  0  0
   -3.5799   -2.4845    0.0098 C   0  0  0  0  0  0  0  0  0  0  0  0
   -3.3523   -3.1797    0.8440 H   0  0  0  0  0  0  0  0  0  0  0  0
   -4.6357   -2.1764    0.0972 H   0  0  0  0  0  0  0  0  0  0  0  0
   -3.4638   -3.0531   -0.9358 H   0  0  0  0  0  0  0  0  0  0  0  0
  1  3  1  0  0  0  0
  2 26  1  0  0  0  0
  3  4  1  0  0  0  0
  5  3  1  0  0  0  0
  6 22  1  0  0  0  0
  6  8  1  0  0  0  0
  6  3  1  0  0  0  0
  7  6  1  0  0  0  0
  9 17  1  1  0  0  0
  9  2  1  0  0  0  0
 10 12  2  0  0  0  0
 10  9  1  0  0  0  0
 11 10  1  0  0  0  0
 12 13  1  0  0  0  0
 12  1  1  0  0  0  0
 13 14  1  0  0  0  0
 15 13  1  0  0  0  0
 16 13  1  0  0  0  0
 17 20  1  0  0  0  0
 18 17  1  0  0  0  0
 19 17  1  0  0  0  0
 21 32  1  0  0  0  0
 22 29  1  0  0  0  0
 23 21  1  0  0  0  0
 23 25  1  0  0  0  0
 23 26  1  0  0  0  0
 24 23  1  0  0  0  0
 26 27  1  0  0  0  0
 28 26  1  0  0  0  0
 29 37  1  6  0  0  0
 29 30  1  0  0  0  0
 30 31  1  0  0  0  0
 32 30  2  0  0  0  0
 33 32  1  0  0  0  0
 33 35  1  0  0  0  0
 33 36  1  0  0  0  0
 34 33  1  0  0  0  0
 37 39  1  0  0  0  0
 37 38  1  0  0  0  0
 40 37  1  0  0  0  0
M  END
