5,6,7,8
q = -2.0, confidence = 0.83

 74 78  0  0  0  0  0  0  0  0999 V2000
   -2.6100    1.0104   -1.2371 O   0  0  0  0  0  0  0  0  0  0  0  0
    2.5053    0.8809   -1.3117 O   0  0  0  0  0  0  0  0  0  0  0  0
    2.5314    1.0745    1.1600 O   0  0  0  0  0  0  0  0  0  0  0  0
   -2.5854    1.0313    1.2369 O   0  0  0  0  0  0  0  0  0  0  0  0
   -1.2968    0.9579   -1.4237 N   0  0  0  0  0  2  0  0  0  0  0  0
    1.1843    0.8834   -1.4404 N   0  0  0  0  0  2  0  0  0  0  0  0
    1.2155    1.0434    1.3340 N   0  0  0  0  0  2  0  0  0  0  0  0
   -1.2663    1.0527    1.3783 N   0  0  0  0  0  2  0  0  0  0  0  0
   -0.7907    1.1648   -2.6252 C   0  0  0  0  0  0  0  0  0  0  0  0
    0.6709    1.1274   -2.6319 C   0  0  0  0  0  0  0  0  0  0  0  0
    0.7263    1.3933    2.5085 C   0  0  0  0  0  0  0  0  0  0  0  0
   -0.7352    1.3840    2.5415 C   0  0  0  0  0  0  0  0  0  0  0  0
   -1.6334    1.3971   -3.8349 C   0  0  0  0  0  0  0  0  0  0  0  0
    1.5430    1.3285   -3.8253 C   0  0  0  0  0  0  0  0  0  0  0  0
    1.6213    1.7459    3.6488 C   0  0  0  0  0  0  0  0  0  0  0  0
   -1.5523    1.6914    3.7522 C   0  0  0  0  0  0  0  0  0  0  0  0
   -4.6902    0.3825    0.0304 C   0  0  0  0  0  0  0  0  0  0  0  0
   -5.2866    1.6642    0.0084 C   0  0  0  0  0  0  0  0  0  0  0  0
   -6.6803    1.8237    0.0227 C   0  0  0  0  0  0  0  0  0  0  0  0
   -7.5147    0.6938    0.0606 C   0  0  0  0  0  0  0  0  0  0  0  0
   -6.9446   -0.5886    0.0838 C   0  0  0  0  0  0  0  0  0  0  0  0
   -5.5479   -0.7371    0.0684 C   0  0  0  0  0  0  0  0  0  0  0  0
   -2.4828   -1.2516   -0.0009 C   0  0  0  0  0  0  0  0  0  0  0  0
   -2.3947   -1.9760   -1.2136 C   0  0  0  0  0  0  0  0  0  0  0  0
   -1.9391   -3.3016   -1.2496 C   0  0  0  0  0  0  0  0  0  0  0  0
   -1.5537   -3.9424   -0.0616 C   0  0  0  0  0  0  0  0  0  0  0  0
   -1.6281   -3.2482    1.1550 C   0  0  0  0  0  0  0  0  0  0  0  0
   -2.0927   -1.9242    1.1803 C   0  0  0  0  0  0  0  0  0  0  0  0
    4.6371    0.4543   -0.0603 C   0  0  0  0  0  0  0  0  0  0  0  0
    5.5548   -0.6158   -0.0069 C   0  0  0  0  0  0  0  0  0  0  0  0
    6.9414   -0.3936   -0.0432 C   0  0  0  0  0  0  0  0  0  0  0  0
    7.4407    0.9150   -0.1338 C   0  0  0  0  0  0  0  0  0  0  0  0
    6.5458    1.9970   -0.1882 C   0  0  0  0  0  0  0  0  0  0  0  0
    5.1630    1.7635   -0.1519 C   0  0  0  0  0  0  0  0  0  0  0  0
    2.5344   -1.2920    0.1132 C   0  0  0  0  0  0  0  0  0  0  0  0
    2.2483   -2.0905   -1.0175 C   0  0  0  0  0  0  0  0  0  0  0  0
    1.9063   -3.4459   -0.8950 C   0  0  0  0  0  0  0  0  0  0  0  0
    1.8482   -4.0429    0.3733 C   0  0  0  0  0  0  0  0  0  0  0  0
    2.1215   -3.2723    1.5142 C   0  0  0  0  0  0  0  0  0  0  0  0
    2.4588   -1.9174    1.3793 C   0  0  0  0  0  0  0  0  0  0  0  0
   -3.0937    0.2369    0.0139 B   0  0  0  0  0  0  0  0  0  0  0  0
    3.0492    0.2257   -0.0233 B   0  0  0  0  0  0  0  0  0  0  0  0
   -2.6992    1.2649   -3.5778 H   0  0  0  0  0  0  0  0  0  0  0  0
   -1.4921    2.4256   -4.2288 H   0  0  0  0  0  0  0  0  0  0  0  0
   -1.3611    0.6929   -4.6472 H   0  0  0  0  0  0  0  0  0  0  0  0
    2.1720    0.4294   -3.9949 H   0  0  0  0  0  0  0  0  0  0  0  0
    2.2522    2.1624   -3.6439 H   0  0  0  0  0  0  0  0  0  0  0  0
    0.9555    1.5386   -4.7358 H   0  0  0  0  0  0  0  0  0  0  0  0
    2.3131    0.9048    3.8635 H   0  0  0  0  0  0  0  0  0  0  0  0
    1.0507    1.9918    4.5610 H   0  0  0  0  0  0  0  0  0  0  0  0
    2.2671    2.6066    3.3776 H   0  0  0  0  0  0  0  0  0  0  0  0
   -2.6215    1.5231    3.5342 H   0  0  0  0  0  0  0  0  0  0  0  0
   -1.4182    2.7479    4.0663 H   0  0  0  0  0  0  0  0  0  0  0  0
   -1.2483    1.0531    4.6070 H   0  0  0  0  0  0  0  0  0  0  0  0
   -4.6407    2.5569   -0.0216 H   0  0  0  0  0  0  0  0  0  0  0  0
   -7.1216    2.8330    0.0043 H   0  0  0  0  0  0  0  0  0  0  0  0
   -8.6094    0.8142    0.0721 H   0  0  0  0  0  0  0  0  0  0  0  0
   -7.5928   -1.4787    0.1140 H   0  0  0  0  0  0  0  0  0  0  0  0
   -5.1092   -1.7477    0.0860 H   0  0  0  0  0  0  0  0  0  0  0  0
   -2.7026   -1.4868   -2.1523 H   0  0  0  0  0  0  0  0  0  0  0  0
   -1.8820   -3.8399   -2.2088 H   0  0  0  0  0  0  0  0  0  0  0  0
   -1.1880   -4.9800   -0.0852 H   0  0  0  0  0  0  0  0  0  0  0  0
   -1.3183   -3.7415    2.0892 H   0  0  0  0  0  0  0  0  0  0  0  0
   -2.1622   -1.4002    2.1471 H   0  0  0  0  0  0  0  0  0  0  0  0
    5.1721   -1.6466    0.0648 H   0  0  0  0  0  0  0  0  0  0  0  0
    7.6371   -1.2465   -0.0004 H   0  0  0  0  0  0  0  0  0  0  0  0
    8.5272    1.0933   -0.1622 H   0  0  0  0  0  0  0  0  0  0  0  0
    6.9313    3.0266   -0.2592 H   0  0  0  0  0  0  0  0  0  0  0  0
    4.4694    2.6192   -0.1949 H   0  0  0  0  0  0  0  0  0  0  0  0
    2.3077   -1.6410   -2.0221 H   0  0  0  0  0  0  0  0  0  0  0  0
    1.6828   -4.0411   -1.7941 H   0  0  0  0  0  0  0  0  0  0  0  0
    1.5838   -5.1069    0.4736 H   0  0  0  0  0  0  0  0  0  0  0  0
    2.0744   -3.7324    2.5138 H   0  0  0  0  0  0  0  0  0  0  0  0
    2.6877   -1.3276    2.2823 H   0  0  0  0  0  0  0  0  0  0  0  0
  1 41  1  0  0  0  0
  2 42  1  0  0  0  0
  3  7  1  0  0  0  0
  4  8  1  0  0  0  0
  5  1  1  0  0  0  0
  6  2  1  0  0  0  0
  7 11  1  0  0  0  0
  8 12  1  0  0  0  0
  9  5  1  0  0  0  0
 10  9  2  0  0  0  0
 10  6  1  0  0  0  0
 11 12  2  0  0  0  0
 11 15  1  0  0  0  0
 12 16  1  0  0  0  0
 13 43  1  0  0  0  0
 13  9  1  0  0  0  0
 14 47  1  0  0  0  0
 14 10  1  0  0  0  0
 15 49  1  0  0  0  0
 15 50  1  0  0  0  0
 16 53  1  0  0  0  0
 16 54  1  0  0  0  0
 17 22  1  0  0  0  0
 18 19  1  0  0  0  0
 18 17  2  0  0  0  0
 19 20  2  0  0  0  0
 20 57  1  0  0  0  0
 20 21  1  0  0  0  0
 21 58  1  0  0  0  0
 22 21  2  0  0  0  0
 22 59  1  0  0  0  0
 23 41  1  0  0  0  0
 23 28  1  0  0  0  0
 24 23  2  0  0  0  0
 25 24  1  0  0  0  0
 25 26  2  0  0  0  0
 26 27  1  0  0  0  0
 27 28  2  0  0  0  0
 27 63  1  0  0  0  0
 28 64  1  0  0  0  0
 29 42  1  0  0  0  0
 29 30  1  0  0  0  0
 30 65  1  0  0  0  0
 31 30  2  0  0  0  0
 31 66  1  0  0  0  0
 32 31  1  0  0  0  0
 33 34  1  0  0  0  0
 33 32  2  0  0  0  0
 34 29  2  0  0  0  0
 35 40  1  0  0  0  0
 36 37  1  0  0  0  0
 36 35  2  0  0  0  0
 37 38  2  0  0  0  0
 38 72  1  0  0  0  0
 38 39  1  0  0  0  0
 39 73  1  0  0  0  0
 40 39  2  0  0  0  0
 40 74  1  0  0  0  0
 41 17  1  0  0  0  0
 41  4  1  0  0  0  0
 42 35  1  0  0  0  0
 42  3  1  0  0  0  0
 44 13  1  0  0  0  0
 45 13  1  0  0  0  0
 46 14  1  0  0  0  0
 48 14  1  0  0  0  0
 51 15  1  0  0  0  0
 52 16  1  0  0  0  0
 55 18  1  0  0  0  0
 56 19  1  0  0  0  0
 60 24  1  0  0  0  0
 61 25  1  0  0  0  0
 62 26  1  0  0  0  0
 67 32  1  0  0  0  0
 68 33  1  0  0  0  0
 69 34  1  0  0  0  0
 70 36  1  0  0  0  0
 71 37  1  0  0  0  0
M  END
