1,2,3,4
q = -1.0, confidence = 0.048

 46 47  0  0  0  0  0  0  0  0999 V2000
    1.0125    1.4156   -0.8241 N   0  0  0  0  0  0  0  0  0  0  0  0
   -1.3574    1.9756    0.2049 N   0  0  0  0  0  2  0  0  0  0  0  0
   -2.2801   -1.1607    0.3962 N   0  0  0  0  0  0  0  0  0  0  0  0
    0.5450   -1.7176   -0.7727 N   0  0  0  0  0  2  0  0  0  0  0  0
    2.7897   -0.4663    1.0762 N   0  0  0  0  0  0  0  0  0  0  0  0
    2.2392    1.3817   -1.4173 C   0  0  0  0  0  0  0  0  0  0  0  0
    2.7941    2.6764   -1.4472 C   0  0  0  0  0  0  0  0  0  0  0  0
    1.8601    3.5480   -0.8453 C   0  0  0  0  0  0  0  0  0  0  0  0
    0.7541    2.7521   -0.4754 C   0  0  0  0  0  3  0  0  0  0  0  0
   -0.5319    3.0025    0.0563 C   0  0  0  0  0  3  0  0  0  0  0  0
   -2.7528    2.1748    0.5710 C   0  0  0  0  0  0  0  0  0  0  0  0
   -3.3551    0.9916    1.3326 C   0  0  0  0  0  0  0  0  0  0  0  0
   -3.5062   -0.3027    0.5288 C   0  0  0  0  0  0  0  0  0  0  0  0
   -2.0048   -1.8269    1.6936 C   0  0  0  0  0  0  0  0  0  0  0  0
   -2.6021   -2.2115   -0.6274 C   0  0  0  0  0  0  0  0  0  0  0  0
   -1.4832   -3.1991   -0.9372 C   0  0  0  0  0  0  0  0  0  0  0  0
   -0.2515   -2.6171   -1.6345 C   0  0  0  0  0  0  0  0  0  0  0  0
    1.7621   -2.1540   -0.4954 C   0  0  0  0  0  3  0  0  0  0  0  0
    2.8166   -1.6022    0.2829 C   0  0  0  0  0  0  0  0  0  0  0  0
    4.1445   -2.1040    0.3318 C   0  0  0  0  0  0  0  0  0  0  0  0
    4.8969   -1.2423    1.1502 C   0  0  0  0  0  0  0  0  0  0  0  0
    4.0211   -0.2397    1.6015 C   0  0  0  0  0  0  0  0  0  0  0  0
    1.9183    0.0483    1.2623 H   0  0  0  0  0  0  0  0  0  0  0  0
    2.6644    0.4423   -1.7907 H   0  0  0  0  0  0  0  0  0  0  0  0
    3.7688    2.9462   -1.8693 H   0  0  0  0  0  0  0  0  0  0  0  0
    1.9592    4.6305   -0.7033 H   0  0  0  0  0  0  0  0  0  0  0  0
   -0.8581    4.0271    0.3135 H   0  0  0  0  0  0  0  0  0  0  0  0
   -2.8561    3.1041    1.1729 H   0  0  0  0  0  0  0  0  0  0  0  0
   -3.3400    2.3324   -0.3636 H   0  0  0  0  0  0  0  0  0  0  0  0
   -4.3765    1.2931    1.6421 H   0  0  0  0  0  0  0  0  0  0  0  0
   -2.8028    0.8180    2.2794 H   0  0  0  0  0  0  0  0  0  0  0  0
   -4.3053   -0.9324    0.9802 H   0  0  0  0  0  0  0  0  0  0  0  0
   -3.8350   -0.0559   -0.5008 H   0  0  0  0  0  0  0  0  0  0  0  0
   -1.9807   -1.0812    2.5041 H   0  0  0  0  0  0  0  0  0  0  0  0
   -1.0260   -2.3355    1.6669 H   0  0  0  0  0  0  0  0  0  0  0  0
   -2.8041   -2.5656    1.9179 H   0  0  0  0  0  0  0  0  0  0  0  0
   -3.4969   -2.7679   -0.2675 H   0  0  0  0  0  0  0  0  0  0  0  0
   -2.8929   -1.6777   -1.5530 H   0  0  0  0  0  0  0  0  0  0  0  0
   -1.9196   -3.9551   -1.6225 H   0  0  0  0  0  0  0  0  0  0  0  0
   -1.1735   -3.7623   -0.0325 H   0  0  0  0  0  0  0  0  0  0  0  0
    0.3938   -3.4502   -1.9819 H   0  0  0  0  0  0  0  0  0  0  0  0
   -0.5655   -2.0441   -2.5320 H   0  0  0  0  0  0  0  0  0  0  0  0
    2.0469   -3.1191   -0.9565 H   0  0  0  0  0  0  0  0  0  0  0  0
    4.5010   -2.9946   -0.1987 H   0  0  0  0  0  0  0  0  0  0  0  0
    5.9599   -1.3248    1.4002 H   0  0  0  0  0  0  0  0  0  0  0  0
    4.2057    0.6112    2.2676 H   0  0  0  0  0  0  0  0  0  0  0  0
  1  9  1  0  0  0  0
  2 11  1  0  0  0  0
  3 13  1  0  0  0  0
  3 14  1  0  0  0  0
  4 18  1  0  0  0  0
  5 23  1  0  0  0  0
  5 22  1  0  0  0  0
  6  1  2  0  0  0  0
  7  6  1  0  0  0  0
  7  8  2  0  0  0  0
  8 26  1  0  0  0  0
  8  9  1  0  0  0  0
  9 10  1  0  0  0  0
 10  2  1  0  0  0  0
 10 27  1  0  0  0  0
 11 28  1  0  0  0  0
 11 12  1  0  0  0  0
 12 30  1  0  0  0  0
 12 31  1  0  0  0  0
 13 32  1  0  0  0  0
 13 12  1  0  0  0  0
 14 36  1  0  0  0  0
 14 34  1  0  0  0  0
 15 37  1  0  0  0  0
 15  3  1  0  0  0  0
 16 15  1  0  0  0  0
 16 40  1  0  0  0  0
 17 16  1  0  0  0  0
 17  4  1  0  0  0  0
 18 19  1  0  0  0  0
 19 20  2  0  0  0  0
 19  5  1  0  0  0  0
 20 21  1  0  0  0  0
 21 45  1  0  0  0  0
 21 22  2  0  0  0  0
 22 46  1  0  0  0  0
 24  6  1  0  0  0  0
 25  7  1  0  0  0  0
 29 11  1  0  0  0  0
 33 13  1  0  0  0  0
 35 14  1  0  0  0  0
 38 15  1  0  0  0  0
 39 16  1  0  0  0  0
 41 17  1  0  0  0  0
 42 17  1  0  0  0  0
 43 18  1  0  0  0  0
 44 20  1  0  0  0  0
M  END
