1,3,4,6
q = -2.0, confidence = 0.834

 82 83  0  0  0  0  0  0  0  0999 V2000
   -1.1601   -0.1756    0.7687 N   0  0  0  0  0  2  0  0  0  0  0  0
   -2.4333   -0.2095    0.7226 N   0  0  0  0  0  2  0  0  0  0  0  0
   -1.2583   -2.7896    0.3106 N   0  0  0  0  0  2  0  0  0  0  0  0
    1.2581   -2.7898   -0.3101 N   0  0  0  0  0  2  0  0  0  0  0  0
    2.4333   -0.2098   -0.7225 N   0  0  0  0  0  2  0  0  0  0  0  0
    1.1601   -0.1758   -0.7684 N   0  0  0  0  0  2  0  0  0  0  0  0
   -4.2047    1.3038   -0.7039 F   0  0  0  0  0  0  0  0  0  0  0  0
   -4.8398    0.9847    1.3894 F   0  0  0  0  0  0  0  0  0  0  0  0
   -6.5589    0.4601   -1.6440 F   0  0  0  0  0  0  0  0  0  0  0  0
   -6.6684    2.0946   -0.1849 F   0  0  0  0  0  0  0  0  0  0  0  0
   -8.4227    0.8930    1.0141 F   0  0  0  0  0  0  0  0  0  0  0  0
   -6.9675   -0.6596    1.5546 F   0  0  0  0  0  0  0  0  0  0  0  0
   -9.1301   -0.3772   -1.2138 F   0  0  0  0  0  0  0  0  0  0  0  0
   -9.1432   -1.7442    0.5220 F   0  0  0  0  0  0  0  0  0  0  0  0
    4.2046    1.3032    0.7041 F   0  0  0  0  0  0  0  0  0  0  0  0
    4.8395    0.9846   -1.3894 F   0  0  0  0  0  0  0  0  0  0  0  0
    6.5590    0.4595    1.6438 F   0  0  0  0  0  0  0  0  0  0  0  0
    6.6681    2.0944    0.1853 F   0  0  0  0  0  0  0  0  0  0  0  0
    6.9675   -0.6592   -1.5552 F   0  0  0  0  0  0  0  0  0  0  0  0
    8.4225    0.8936   -1.0144 F   0  0  0  0  0  0  0  0  0  0  0  0
    9.1302   -0.3772    1.2131 F   0  0  0  0  0  0  0  0  0  0  0  0
    9.1436   -1.7436   -0.5231 F   0  0  0  0  0  0  0  0  0  0  0  0
   -5.3726   -1.7720   -0.4629 O   0  0  0  0  0  0  0  0  0  0  0  0
    5.3730   -1.7724    0.4620 O   0  0  0  0  0  0  0  0  0  0  0  0
   -3.4796   -3.8344    0.2626 C   0  0  0  0  0  0  0  0  0  0  0  0
    3.4792   -3.8348   -0.2618 C   0  0  0  0  0  0  0  0  0  0  0  0
   -3.1330   -1.2871    0.2904 C   0  0  0  0  0  0  0  0  0  0  0  0
   -2.5686   -2.6304    0.2471 C   0  0  0  0  0  0  0  0  0  0  0  0
    0.6181   -4.0963   -0.4467 C   0  0  0  0  0  0  0  0  0  0  0  0
   -0.6186   -4.0962    0.4473 C   0  0  0  0  0  0  0  0  0  0  0  0
    2.5683   -2.6307   -0.2467 C   0  0  0  0  0  0  0  0  0  0  0  0
    3.1329   -1.2875   -0.2902 C   0  0  0  0  0  0  0  0  0  0  0  0
   -0.5959    1.0055    1.3429 C   0  0  0  0  0  0  0  0  0  0  0  0
    0.6840    0.9277    1.9191 C   0  0  0  0  0  0  0  0  0  0  0  0
    1.3099    2.0870    2.3911 C   0  0  0  0  0  0  0  0  0  0  0  0
    0.6716    3.3403    2.3135 C   0  0  0  0  0  0  0  0  0  0  0  0
   -0.6329    3.3882    1.7692 C   0  0  0  0  0  0  0  0  0  0  0  0
   -1.2699    2.2426    1.2903 C   0  0  0  0  0  0  0  0  0  0  0  0
    1.3570    4.5999    2.7739 C   0  0  0  0  0  0  0  0  0  0  0  0
    0.5960    1.0054   -1.3426 C   0  0  0  0  0  0  0  0  0  0  0  0
    1.2701    2.2424   -1.2900 C   0  0  0  0  0  0  0  0  0  0  0  0
    0.6332    3.3880   -1.7689 C   0  0  0  0  0  0  0  0  0  0  0  0
   -0.6713    3.3402   -2.3132 C   0  0  0  0  0  0  0  0  0  0  0  0
   -1.3097    2.0870   -2.3908 C   0  0  0  0  0  0  0  0  0  0  0  0
   -0.6839    0.9277   -1.9188 C   0  0  0  0  0  0  0  0  0  0  0  0
   -1.3567    4.5999   -2.7735 C   0  0  0  0  0  0  0  0  0  0  0  0
   -4.5288   -0.9823   -0.0202 C   0  0  0  0  0  0  0  0  0  0  0  0
   -4.9677    0.5129    0.1227 C   0  0  0  0  0  0  0  0  0  0  0  0
   -6.4483    0.7637   -0.3211 C   0  0  0  0  0  0  0  0  0  0  0  0
   -7.5495   -0.0100    0.5057 C   0  0  0  0  0  0  0  0  0  0  0  0
   -8.3443   -1.0463   -0.3289 C   0  0  0  0  0  0  0  0  0  0  0  0
    4.5289   -0.9828    0.0198 C   0  0  0  0  0  0  0  0  0  0  0  0
    4.9676    0.5125   -0.1228 C   0  0  0  0  0  0  0  0  0  0  0  0
    6.4482    0.7634    0.3210 C   0  0  0  0  0  0  0  0  0  0  0  0
    7.5494   -0.0098   -0.5062 C   0  0  0  0  0  0  0  0  0  0  0  0
    8.3446   -1.0462    0.3280 C   0  0  0  0  0  0  0  0  0  0  0  0
   -4.5324   -3.5289    0.1641 H   0  0  0  0  0  0  0  0  0  0  0  0
   -3.2446   -4.5164   -0.5803 H   0  0  0  0  0  0  0  0  0  0  0  0
   -3.3401   -4.4058    1.2037 H   0  0  0  0  0  0  0  0  0  0  0  0
    3.2434   -4.5171    0.5806 H   0  0  0  0  0  0  0  0  0  0  0  0
    3.3404   -4.4060   -1.2032 H   0  0  0  0  0  0  0  0  0  0  0  0
    4.5320   -3.5294   -0.1625 H   0  0  0  0  0  0  0  0  0  0  0  0
   -1.2902   -4.9364    0.1838 H   0  0  0  0  0  0  0  0  0  0  0  0
   -0.3131   -4.2304    1.5095 H   0  0  0  0  0  0  0  0  0  0  0  0
    0.3127   -4.2305   -1.5088 H   0  0  0  0  0  0  0  0  0  0  0  0
    1.2896   -4.9366   -0.1832 H   0  0  0  0  0  0  0  0  0  0  0  0
    1.1949   -0.0445    1.9851 H   0  0  0  0  0  0  0  0  0  0  0  0
    2.3234    2.0162    2.8142 H   0  0  0  0  0  0  0  0  0  0  0  0
   -1.1532    4.3569    1.7017 H   0  0  0  0  0  0  0  0  0  0  0  0
   -2.2717    2.2835    0.8434 H   0  0  0  0  0  0  0  0  0  0  0  0
    0.7077    5.1916    3.4513 H   0  0  0  0  0  0  0  0  0  0  0  0
    2.3032    4.3817    3.3049 H   0  0  0  0  0  0  0  0  0  0  0  0
    1.6006    5.2556    1.9107 H   0  0  0  0  0  0  0  0  0  0  0  0
    2.2719    2.2832   -0.8431 H   0  0  0  0  0  0  0  0  0  0  0  0
    1.1536    4.3567   -1.7015 H   0  0  0  0  0  0  0  0  0  0  0  0
   -2.3232    2.0163   -2.8140 H   0  0  0  0  0  0  0  0  0  0  0  0
   -1.1949   -0.0445   -1.9848 H   0  0  0  0  0  0  0  0  0  0  0  0
   -2.3029    4.3817   -3.3046 H   0  0  0  0  0  0  0  0  0  0  0  0
   -1.6004    5.2554   -1.9102 H   0  0  0  0  0  0  0  0  0  0  0  0
   -0.7074    5.1917   -3.4508 H   0  0  0  0  0  0  0  0  0  0  0  0
   -7.6631   -1.7397   -0.8617 H   0  0  0  0  0  0  0  0  0  0  0  0
    7.6636   -1.7399    0.8606 H   0  0  0  0  0  0  0  0  0  0  0  0
  1 33  1  0  0  0  0
  2  1  1  0  0  0  0
  3 30  1  0  0  0  0
  4 31  1  0  0  0  0
  5 32  1  0  0  0  0
  6  5  1  0  0  0  0
  7 48  1  0  0  0  0
  9 49  1  0  0  0  0
 13 51  1  0  0  0  0
 16 53  1  0  0  0  0
 18 54  1  0  0  0  0
 19 55  1  0  0  0  0
 20 55  1  0  0  0  0
 22 56  1  0  0  0  0
 23 47  2  0  0  0  0
 25 59  1  0  0  0  0
 26 31  1  0  0  0  0
 26 62  1  0  0  0  0
 26 60  1  0  0  0  0
 27  2  1  0  0  0  0
 28 25  1  0  0  0  0
 28 27  2  0  0  0  0
 28  3  1  0  0  0  0
 29  4  1  0  0  0  0
 29 66  1  0  0  0  0
 29 30  1  0  0  0  0
 30 64  1  0  0  0  0
 32 31  2  0  0  0  0
 32 52  1  0  0  0  0
 33 34  1  0  0  0  0
 34 67  1  0  0  0  0
 34 35  2  0  0  0  0
 35 68  1  0  0  0  0
 36 35  1  0  0  0  0
 36 39  1  0  0  0  0
 37 36  2  0  0  0  0
 38 33  2  0  0  0  0
 38 37  1  0  0  0  0
 39 72  1  0  0  0  0
 39 71  1  0  0  0  0
 40 41  1  0  0  0  0
 40  6  1  0  0  0  0
 41 74  1  0  0  0  0
 42 75  1  0  0  0  0
 42 41  2  0  0  0  0
 43 42  1  0  0  0  0
 44 43  2  0  0  0  0
 44 45  1  0  0  0  0
 45 40  2  0  0  0  0
 46 43  1  0  0  0  0
 46 79  1  0  0  0  0
 47 48  1  0  0  0  0
 47 27  1  0  0  0  0
 48  8  1  0  0  0  0
 49 10  1  0  0  0  0
 49 48  1  0  0  0  0
 49 50  1  0  0  0  0
 50 11  1  0  0  0  0
 50 12  1  0  0  0  0
 51 50  1  0  0  0  0
 51 14  1  0  0  0  0
 52 24  2  0  0  0  0
 53 52  1  0  0  0  0
 53 54  1  0  0  0  0
 53 15  1  0  0  0  0
 54 17  1  0  0  0  0
 55 54  1  0  0  0  0
 55 56  1  0  0  0  0
 56 82  1  0  0  0  0
 56 21  1  0  0  0  0
 57 25  1  0  0  0  0
 58 25  1  0  0  0  0
 61 26  1  0  0  0  0
 63 30  1  0  0  0  0
 65 29  1  0  0  0  0
 69 37  1  0  0  0  0
 70 38  1  0  0  0  0
 73 39  1  0  0  0  0
 76 44  1  0  0  0  0
 77 45  1  0  0  0  0
 78 46  1  0  0  0  0
 80 46  1  0  0  0  0
 81 51  1  0  0  0  0
M  END
