3,4,5,6
q = -1.0

 52 51  0  0  1  0  0  0  0  0999 V2000
    1.3123   -2.9290   -0.4632 O   0  0  0  0  0  0  0  0  0  0  0  0
   -1.1287   -2.7565   -0.8671 O   0  0  0  0  0  1  0  0  0  0  0  0
    1.5564   -1.6548   -0.1384 N   0  0  0  0  0  2  0  0  0  0  0  0
   -1.4741   -1.6543   -0.2134 N   0  0  0  0  0  2  0  0  0  0  0  0
    1.7568    0.9528   -0.0937 N   0  0  0  0  0  0  0  0  0  0  0  0
   -1.7730    0.9037    0.0297 N   0  0  0  0  0  0  0  0  0  0  0  0
    2.7983   -1.2707   -0.0065 C   0  0  1  0  0  3  0  0  0  0  0  0
   -2.7345   -1.3335   -0.0454 C   0  0  1  0  0  3  0  0  0  0  0  0
    3.0295    0.2037    0.3160 C   0  0  0  0  0  0  0  0  0  0  0  0
   -3.0029    0.0845    0.4542 C   0  0  0  0  0  0  0  0  0  0  0  0
    3.9197   -2.2479   -0.1257 C   0  0  0  0  0  0  0  0  0  0  0  0
   -3.8236   -2.2955   -0.3758 C   0  0  0  0  0  0  0  0  0  0  0  0
    4.2132    0.7489   -0.5028 C   0  0  0  0  0  0  0  0  0  0  0  0
    3.2854    0.3492    1.8258 C   0  0  0  0  0  0  0  0  0  0  0  0
   -4.2490    0.6613   -0.2410 C   0  0  0  0  0  0  0  0  0  0  0  0
   -3.1763    0.0934    1.9804 C   0  0  0  0  0  0  0  0  0  0  0  0
    1.6957    2.3809    0.3484 C   0  0  0  0  0  0  0  0  0  0  0  0
   -1.7401    2.3166    0.5131 C   0  0  0  0  0  0  0  0  0  0  0  0
    1.2184    3.3168   -0.7640 C   0  0  0  0  0  0  0  0  0  0  0  0
   -1.3986    3.2965   -0.6121 C   0  0  0  0  0  0  0  0  0  0  0  0
   -0.1311    3.0355   -1.4417 C   0  0  0  0  0  0  0  0  0  0  0  0
    0.2325   -2.9628   -0.5941 H   0  0  0  0  0  0  0  0  0  0  0  0
    1.7898    0.9637   -1.1265 H   0  0  0  0  0  0  0  0  0  0  0  0
   -1.8357    0.9330   -1.0030 H   0  0  0  0  0  0  0  0  0  0  0  0
    4.8274   -1.9053    0.4036 H   0  0  0  0  0  0  0  0  0  0  0  0
    4.1880   -2.4105   -1.1921 H   0  0  0  0  0  0  0  0  0  0  0  0
    3.5996   -3.2306    0.2705 H   0  0  0  0  0  0  0  0  0  0  0  0
   -3.4156   -3.3230   -0.3799 H   0  0  0  0  0  0  0  0  0  0  0  0
   -4.2410   -2.1012   -1.3875 H   0  0  0  0  0  0  0  0  0  0  0  0
   -4.6619   -2.2199    0.3446 H   0  0  0  0  0  0  0  0  0  0  0  0
    4.3516    1.8327   -0.3215 H   0  0  0  0  0  0  0  0  0  0  0  0
    5.1589    0.2531   -0.2153 H   0  0  0  0  0  0  0  0  0  0  0  0
    4.0635    0.5884   -1.5905 H   0  0  0  0  0  0  0  0  0  0  0  0
    3.5590    1.3868    2.0973 H   0  0  0  0  0  0  0  0  0  0  0  0
    4.1341   -0.2989    2.1158 H   0  0  0  0  0  0  0  0  0  0  0  0
    2.3992    0.0428    2.4132 H   0  0  0  0  0  0  0  0  0  0  0  0
   -4.4199    1.7123    0.0634 H   0  0  0  0  0  0  0  0  0  0  0  0
   -4.1549    0.6244   -1.3457 H   0  0  0  0  0  0  0  0  0  0  0  0
   -5.1555    0.0949    0.0421 H   0  0  0  0  0  0  0  0  0  0  0  0
   -3.4171    1.1053    2.3604 H   0  0  0  0  0  0  0  0  0  0  0  0
   -2.2690   -0.2763    2.4932 H   0  0  0  0  0  0  0  0  0  0  0  0
   -4.0213   -0.5687    2.2497 H   0  0  0  0  0  0  0  0  0  0  0  0
    1.0615    2.4337    1.2526 H   0  0  0  0  0  0  0  0  0  0  0  0
    2.7069    2.7161    0.6545 H   0  0  0  0  0  0  0  0  0  0  0  0
   -1.0328    2.3763    1.3614 H   0  0  0  0  0  0  0  0  0  0  0  0
   -2.7339    2.5945    0.9176 H   0  0  0  0  0  0  0  0  0  0  0  0
    1.2065    4.3452   -0.3442 H   0  0  0  0  0  0  0  0  0  0  0  0
    2.0054    3.3316   -1.5508 H   0  0  0  0  0  0  0  0  0  0  0  0
   -1.3451    4.3137   -0.1691 H   0  0  0  0  0  0  0  0  0  0  0  0
   -2.2652    3.3225   -1.3087 H   0  0  0  0  0  0  0  0  0  0  0  0
   -0.1862    3.6964   -2.3310 H   0  0  0  0  0  0  0  0  0  0  0  0
   -0.1513    2.0056   -1.8647 H   0  0  0  0  0  0  0  0  0  0  0  0
  1  3  1  0  0  0  0
  2  4  1  0  0  0  0
  5  9  1  0  0  0  0
  5 17  1  0  0  0  0
  6 10  1  0  0  0  0
  6 18  1  0  0  0  0
  7  3  1  1  0  0  0
  7  9  1  0  0  0  0
  8  4  1  6  0  0  0
  8 10  1  0  0  0  0
  9 14  1  0  0  0  0
 10 16  1  0  0  0  0
 11  7  1  0  0  0  0
 11 27  1  0  0  0  0
 11 25  1  0  0  0  0
 12  8  1  0  0  0  0
 12 30  1  0  0  0  0
 13 31  1  0  0  0  0
 13 32  1  0  0  0  0
 13  9  1  0  0  0  0
 14 34  1  0  0  0  0
 14 35  1  0  0  0  0
 14 36  1  0  0  0  0
 15 39  1  0  0  0  0
 15 37  1  0  0  0  0
 15 10  1  0  0  0  0
 16 42  1  0  0  0  0
 16 40  1  0  0  0  0
 16 41  1  0  0  0  0
 17 44  1  0  0  0  0
 17 43  1  0  0  0  0
 18 46  1  0  0  0  0
 18 45  1  0  0  0  0
 19 47  1  0  0  0  0
 19 17  1  0  0  0  0
 20 49  1  0  0  0  0
 20 18  1  0  0  0  0
 21 19  1  0  0  0  0
 21 20  1  0  0  0  0
 22  1  1  0  0  0  0
 23  5  1  0  0  0  0
 24  6  1  0  0  0  0
 26 11  1  0  0  0  0
 28 12  1  0  0  0  0
 29 12  1  0  0  0  0
 33 13  1  0  0  0  0
 38 15  1  0  0  0  0
 48 19  1  0  0  0  0
 50 20  1  0  0  0  0
 51 21  1  0  0  0  0
 52 21  1  0  0  0  0
M  END
