3,4,5,6
q = -1.0, confidence = 0.02

 49 48  0  0  1  0  0  0  0  0999 V2000
   -1.0584   -2.7510    0.5989 O   0  0  0  0  0  1  0  0  0  0  0  0
    1.3847   -2.8485    0.0750 O   0  0  0  0  0  0  0  0  0  0  0  0
   -1.4382   -1.5835    0.0968 N   0  0  0  0  0  2  0  0  0  0  0  0
    1.5980   -1.5331   -0.0427 N   0  0  0  0  0  2  0  0  0  0  0  0
   -1.7425    1.0125    0.1198 N   0  0  0  0  0  0  0  0  0  0  0  0
    1.6937    1.0243    0.3612 N   0  0  0  0  0  0  0  0  0  0  0  0
   -2.7031   -1.2385    0.0407 C   0  0  2  0  0  3  0  0  0  0  0  0
    2.8247   -1.0890   -0.1250 C   0  0  2  0  0  3  0  0  0  0  0  0
   -2.9891    0.2205   -0.3164 C   0  0  0  0  0  0  0  0  0  0  0  0
    3.0012    0.4329   -0.1635 C   0  0  0  0  0  0  0  0  0  0  0  0
   -3.7818   -2.2236    0.3350 C   0  0  0  0  0  0  0  0  0  0  0  0
    3.9849   -2.0251   -0.1843 C   0  0  0  0  0  0  0  0  0  0  0  0
   -4.2029    0.7387    0.4726 C   0  0  0  0  0  0  0  0  0  0  0  0
   -3.2227    0.3521   -1.8298 C   0  0  0  0  0  0  0  0  0  0  0  0
    4.1552    0.8475    0.7677 C   0  0  0  0  0  0  0  0  0  0  0  0
    3.2632    0.8995   -1.6036 C   0  0  0  0  0  0  0  0  0  0  0  0
   -1.6624    2.4163   -0.3789 C   0  0  0  0  0  0  0  0  0  0  0  0
    1.5149    2.4992    0.2595 C   0  0  0  0  0  0  0  0  0  0  0  0
   -0.9594    3.3693    0.5922 C   0  0  0  0  0  0  0  0  0  0  0  0
    0.3887    2.9559    1.2093 C   0  0  0  0  0  0  0  0  0  0  0  0
    0.3174   -2.9161    0.2376 H   0  0  0  0  0  0  0  0  0  0  0  0
   -1.8007    1.0409    1.1523 H   0  0  0  0  0  0  0  0  0  0  0  0
    1.6963    0.8035    1.3712 H   0  0  0  0  0  0  0  0  0  0  0  0
   -4.6504   -2.0876   -0.3394 H   0  0  0  0  0  0  0  0  0  0  0  0
   -3.3783   -3.2478    0.2348 H   0  0  0  0  0  0  0  0  0  0  0  0
   -4.1549   -2.1131    1.3762 H   0  0  0  0  0  0  0  0  0  0  0  0
    4.8465   -1.5782   -0.7143 H   0  0  0  0  0  0  0  0  0  0  0  0
    4.3237   -2.3010    0.8378 H   0  0  0  0  0  0  0  0  0  0  0  0
    3.6812   -2.9639   -0.6847 H   0  0  0  0  0  0  0  0  0  0  0  0
   -4.0689    0.6023    1.5654 H   0  0  0  0  0  0  0  0  0  0  0  0
   -5.1252    0.2060    0.1749 H   0  0  0  0  0  0  0  0  0  0  0  0
   -4.3730    1.8142    0.2686 H   0  0  0  0  0  0  0  0  0  0  0  0
   -2.3271    0.0498   -2.4043 H   0  0  0  0  0  0  0  0  0  0  0  0
   -4.0590   -0.3118   -2.1210 H   0  0  0  0  0  0  0  0  0  0  0  0
   -3.5064    1.3834   -2.1156 H   0  0  0  0  0  0  0  0  0  0  0  0
    3.9876    0.4948    1.8064 H   0  0  0  0  0  0  0  0  0  0  0  0
    5.1153    0.4240    0.4190 H   0  0  0  0  0  0  0  0  0  0  0  0
    4.2771    1.9479    0.7814 H   0  0  0  0  0  0  0  0  0  0  0  0
    2.4019    0.6760   -2.2617 H   0  0  0  0  0  0  0  0  0  0  0  0
    4.1503    0.3747   -2.0059 H   0  0  0  0  0  0  0  0  0  0  0  0
    3.4799    1.9849   -1.6399 H   0  0  0  0  0  0  0  0  0  0  0  0
   -2.6834    2.8152   -0.5540 H   0  0  0  0  0  0  0  0  0  0  0  0
   -1.1563    2.3895   -1.3623 H   0  0  0  0  0  0  0  0  0  0  0  0
    2.4642    3.0111    0.5235 H   0  0  0  0  0  0  0  0  0  0  0  0
    1.2917    2.7479   -0.7959 H   0  0  0  0  0  0  0  0  0  0  0  0
   -0.8340    4.3294    0.0491 H   0  0  0  0  0  0  0  0  0  0  0  0
   -1.6490    3.5986    1.4332 H   0  0  0  0  0  0  0  0  0  0  0  0
    0.7503    3.8240    1.7962 H   0  0  0  0  0  0  0  0  0  0  0  0
    0.2238    2.1581    1.9681 H   0  0  0  0  0  0  0  0  0  0  0  0
  2 21  1  0  0  0  0
  3  1  1  0  0  0  0
  4  2  1  0  0  0  0
  5 22  1  0  0  0  0
  6 23  1  0  0  0  0
  7  3  1  1  0  0  0
  7 11  1  0  0  0  0
  8  4  1  6  0  0  0
  9  7  1  0  0  0  0
  9  5  1  0  0  0  0
  9 13  1  0  0  0  0
 10  8  1  0  0  0  0
 10  6  1  0  0  0  0
 10 15  1  0  0  0  0
 11 26  1  0  0  0  0
 12  8  1  0  0  0  0
 12 28  1  0  0  0  0
 13 30  1  0  0  0  0
 14  9  1  0  0  0  0
 15 38  1  0  0  0  0
 15 36  1  0  0  0  0
 16 10  1  0  0  0  0
 17  5  1  0  0  0  0
 17 19  1  0  0  0  0
 18  6  1  0  0  0  0
 18 44  1  0  0  0  0
 18 20  1  0  0  0  0
 19 20  1  0  0  0  0
 19 47  1  0  0  0  0
 20 48  1  0  0  0  0
 20 49  1  0  0  0  0
 24 11  1  0  0  0  0
 25 11  1  0  0  0  0
 27 12  1  0  0  0  0
 29 12  1  0  0  0  0
 31 13  1  0  0  0  0
 32 13  1  0  0  0  0
 33 14  1  0  0  0  0
 34 14  1  0  0  0  0
 35 14  1  0  0  0  0
 37 15  1  0  0  0  0
 39 16  1  0  0  0  0
 40 16  1  0  0  0  0
 41 16  1  0  0  0  0
 42 17  1  0  0  0  0
 43 17  1  0  0  0  0
 45 18  1  0  0  0  0
 46 19  1  0  0  0  0
M  END
