1,2,3,4
q = -2.0, confidence = 0.678

 48 50  0  0  1  0  0  0  0  0999 V2000
    2.8141    0.4666   -0.0399 N   0  0  0  0  0  2  0  0  0  0  0  0
    0.6391    2.2379    0.2337 N   0  0  0  0  0  2  0  0  0  0  0  0
    1.3438   -1.3964    0.9722 N   0  0  0  0  0  2  0  0  0  0  0  0
   -0.7529    0.4068    1.3577 N   0  0  0  0  0  2  0  0  0  0  0  0
    3.5646    1.5629    0.1003 C   0  0  0  0  0  0  0  0  0  0  0  0
    2.9777    2.8300    0.3157 C   0  0  0  0  0  0  0  0  0  0  0  0
    1.6072    3.1577    0.3751 C   0  0  2  0  0  3  0  0  0  0  0  0
    5.0760    1.4916    0.0975 C   0  0  0  0  0  0  0  0  0  0  0  0
    1.2603    4.6020    0.6662 C   0  0  0  0  0  0  0  0  0  0  0  0
    0.9075   -1.9393    2.1230 C   0  0  2  0  0  3  0  0  0  0  0  0
   -0.2059   -1.4233    2.8116 C   0  0  0  0  0  0  0  0  0  0  0  0
   -1.0171   -0.3216    2.4452 C   0  0  0  0  0  0  0  0  0  0  0  0
    1.6334   -3.1118    2.7444 C   0  0  0  0  0  0  0  0  0  0  0  0
   -2.1781    0.0094    3.3533 C   0  0  0  0  0  0  0  0  0  0  0  0
    3.2443   -0.8243   -0.3602 C   0  0  0  0  0  0  0  0  0  0  0  0
    4.2784   -1.1763   -1.2555 C   0  0  0  0  0  0  0  0  0  0  0  0
    4.5070   -2.5182   -1.5786 C   0  0  0  0  0  0  0  0  0  0  0  0
    3.6911   -3.5324   -1.0445 C   0  0  0  0  0  0  0  0  0  0  0  0
    2.6390   -3.2070   -0.1813 C   0  0  0  0  0  0  0  0  0  0  0  0
    2.4144   -1.8642    0.1871 C   0  0  0  0  0  0  0  0  0  0  0  0
   -0.7467    2.4888    0.2198 C   0  0  0  0  0  0  0  0  0  0  0  0
   -1.3983    3.5355   -0.4629 C   0  0  0  0  0  0  0  0  0  0  0  0
   -2.7991    3.5867   -0.4937 C   0  0  0  0  0  0  0  0  0  0  0  0
   -3.5616    2.5799    0.1204 C   0  0  0  0  0  0  0  0  0  0  0  0
   -2.9334    1.5119    0.7754 C   0  0  0  0  0  0  0  0  0  0  0  0
   -1.5268    1.4658    0.8569 C   0  0  0  0  0  0  0  0  0  0  0  0
    3.6757    3.6628    0.4744 H   0  0  0  0  0  0  0  0  0  0  0  0
    5.4990    2.3191    0.6970 H   0  0  0  0  0  0  0  0  0  0  0  0
    5.4806    1.5918   -0.9313 H   0  0  0  0  0  0  0  0  0  0  0  0
    5.4399    0.5289    0.5051 H   0  0  0  0  0  0  0  0  0  0  0  0
    2.0883    5.0894    1.2131 H   0  0  0  0  0  0  0  0  0  0  0  0
    1.1008    5.1763   -0.2698 H   0  0  0  0  0  0  0  0  0  0  0  0
    0.3327    4.6852    1.2645 H   0  0  0  0  0  0  0  0  0  0  0  0
   -0.4711   -1.9281    3.7499 H   0  0  0  0  0  0  0  0  0  0  0  0
    1.4635   -3.1297    3.8367 H   0  0  0  0  0  0  0  0  0  0  0  0
    1.2688   -4.0777    2.3378 H   0  0  0  0  0  0  0  0  0  0  0  0
    2.7220   -3.0645    2.5481 H   0  0  0  0  0  0  0  0  0  0  0  0
   -1.9738   -0.3411    4.3821 H   0  0  0  0  0  0  0  0  0  0  0  0
   -3.0989   -0.5019    3.0020 H   0  0  0  0  0  0  0  0  0  0  0  0
   -2.3878    1.0957    3.3732 H   0  0  0  0  0  0  0  0  0  0  0  0
    4.8723   -0.3905   -1.7374 H   0  0  0  0  0  0  0  0  0  0  0  0
    5.3111   -2.7751   -2.2842 H   0  0  0  0  0  0  0  0  0  0  0  0
    3.8572   -4.5818   -1.3291 H   0  0  0  0  0  0  0  0  0  0  0  0
    1.9624   -3.9899    0.1850 H   0  0  0  0  0  0  0  0  0  0  0  0
   -0.8091    4.2825   -1.0091 H   0  0  0  0  0  0  0  0  0  0  0  0
   -3.2984    4.4034   -1.0360 H   0  0  0  0  0  0  0  0  0  0  0  0
   -4.6592    2.5992    0.0517 H   0  0  0  0  0  0  0  0  0  0  0  0
   -3.5321    0.6812    1.1681 H   0  0  0  0  0  0  0  0  0  0  0  0
  1  5  1  0  0  0  0
  2  7  1  0  0  0  0
  3 10  1  0  0  0  0
  4 12  1  0  0  0  0
  5  6  2  0  0  0  0
  6  7  1  0  0  0  0
  6 27  1  0  0  0  0
  7  9  1  1  0  0  0
  8  5  1  0  0  0  0
  8 30  1  0  0  0  0
  8 28  1  0  0  0  0
  9 31  1  0  0  0  0
  9 33  1  0  0  0  0
 10 13  1  1  0  0  0
 10 11  1  0  0  0  0
 11 34  1  0  0  0  0
 12 11  2  0  0  0  0
 12 14  1  0  0  0  0
 13 35  1  0  0  0  0
 14 40  1  0  0  0  0
 14 38  1  0  0  0  0
 15  1  1  0  0  0  0
 15 20  1  0  0  0  0
 16 15  2  0  0  0  0
 17 16  1  0  0  0  0
 17 18  2  0  0  0  0
 18 19  1  0  0  0  0
 19 44  1  0  0  0  0
 19 20  2  0  0  0  0
 20  3  1  0  0  0  0
 21  2  1  0  0  0  0
 21 26  1  0  0  0  0
 22 21  2  0  0  0  0
 23 22  1  0  0  0  0
 23 24  2  0  0  0  0
 24 25  1  0  0  0  0
 25 26  2  0  0  0  0
 25 48  1  0  0  0  0
 26  4  1  0  0  0  0
 29  8  1  0  0  0  0
 32  9  1  0  0  0  0
 36 13  1  0  0  0  0
 37 13  1  0  0  0  0
 39 14  1  0  0  0  0
 41 16  1  0  0  0  0
 42 17  1  0  0  0  0
 43 18  1  0  0  0  0
 45 22  1  0  0  0  0
 46 23  1  0  0  0  0
 47 24  1  0  0  0  0
M  END
