1,2,3,4
q = -2.0, confidence = 0.71

 54 57  0  0  1  0  0  0  0  0999 V2000
    0.2753   -1.3201   -0.1225 N   0  0  0  0  0  2  0  0  0  0  0  0
   -1.6858   -2.1177    0.5005 N   0  0  0  0  0  2  0  0  0  0  0  0
    0.2752    1.3201    0.1225 N   0  0  0  0  0  2  0  0  0  0  0  0
   -1.6858    2.1176   -0.5006 N   0  0  0  0  0  2  0  0  0  0  0  0
    4.5929    0.8524   -1.3937 C   0  0  0  0  0  0  0  0  0  0  0  0
    4.8144    1.3813   -2.3422 H   0  0  0  0  0  0  0  0  0  0  0  0
    5.5396    0.3716   -1.0686 H   0  0  0  0  0  0  0  0  0  0  0  0
    4.3234    1.6043   -0.6288 H   0  0  0  0  0  0  0  0  0  0  0  0
    3.4967   -0.1648   -1.6024 C   0  0  0  0  0  0  0  0  0  0  0  0
    3.4973   -0.9267   -2.7888 C   0  0  0  0  0  0  0  0  0  0  0  0
    4.3063   -0.7726   -3.5200 H   0  0  0  0  0  0  0  0  0  0  0  0
    2.4824   -1.8532   -3.0578 C   0  0  0  0  0  0  0  0  0  0  0  0
    2.4959   -2.4326   -3.9936 H   0  0  0  0  0  0  0  0  0  0  0  0
    1.4218   -2.0052   -2.1596 C   0  0  0  0  0  0  0  0  0  0  0  0
    0.5773   -2.6704   -2.3907 H   0  0  0  0  0  0  0  0  0  0  0  0
    1.3956   -1.2542   -0.9653 C   0  0  0  0  0  0  0  0  0  0  0  0
    2.4567   -0.3577   -0.6538 C   0  0  0  0  0  0  0  0  0  0  0  0
    2.4567    0.3578    0.6539 C   0  0  0  0  0  0  0  0  0  0  0  0
    1.3955    1.2543    0.9653 C   0  0  0  0  0  0  0  0  0  0  0  0
    1.4217    2.0052    2.1596 C   0  0  0  0  0  0  0  0  0  0  0  0
    0.5771    2.6704    2.3908 H   0  0  0  0  0  0  0  0  0  0  0  0
    2.4823    1.8532    3.0579 C   0  0  0  0  0  0  0  0  0  0  0  0
    2.4957    2.4326    3.9937 H   0  0  0  0  0  0  0  0  0  0  0  0
    3.4972    0.9268    2.7888 C   0  0  0  0  0  0  0  0  0  0  0  0
    4.3062    0.7727    3.5200 H   0  0  0  0  0  0  0  0  0  0  0  0
    3.4967    0.1649    1.6024 C   0  0  0  0  0  0  0  0  0  0  0  0
    4.5929   -0.8522    1.3937 C   0  0  0  0  0  0  0  0  0  0  0  0
    4.8151   -1.3805    2.3422 H   0  0  0  0  0  0  0  0  0  0  0  0
    5.5394   -0.3713    1.0677 H   0  0  0  0  0  0  0  0  0  0  0  0
    4.3232   -1.6045    0.6293 H   0  0  0  0  0  0  0  0  0  0  0  0
   -0.4122   -2.4667    0.1816 C   0  0  2  0  0  3  0  0  0  0  0  0
    0.0109   -3.8126    0.2242 C   0  0  0  0  0  0  0  0  0  0  0  0
    1.0415   -4.0846   -0.0383 H   0  0  0  0  0  0  0  0  0  0  0  0
   -0.9395   -4.7599    0.6215 C   0  0  0  0  0  0  0  0  0  0  0  0
   -0.6543   -5.8220    0.6774 H   0  0  0  0  0  0  0  0  0  0  0  0
   -2.2529   -4.3764    0.9488 C   0  0  0  0  0  0  0  0  0  0  0  0
   -3.0027   -5.1210    1.2491 H   0  0  0  0  0  0  0  0  0  0  0  0
   -2.6109   -3.0155    0.8734 C   0  0  0  0  0  0  0  0  0  0  0  0
   -3.9912   -2.5017    1.1522 C   0  0  0  0  0  0  0  0  0  0  0  0
   -4.3912   -2.0080    0.2420 H   0  0  0  0  0  0  0  0  0  0  0  0
   -3.9518   -1.7216    1.9394 H   0  0  0  0  0  0  0  0  0  0  0  0
   -4.6775   -3.3120    1.4581 H   0  0  0  0  0  0  0  0  0  0  0  0
   -0.4123    2.4667   -0.1815 C   0  0  2  0  0  3  0  0  0  0  0  0
    0.0107    3.8126   -0.2241 C   0  0  0  0  0  0  0  0  0  0  0  0
    1.0413    4.0846    0.0384 H   0  0  0  0  0  0  0  0  0  0  0  0
   -0.9397    4.7598   -0.6215 C   0  0  0  0  0  0  0  0  0  0  0  0
   -0.6545    5.8220   -0.6773 H   0  0  0  0  0  0  0  0  0  0  0  0
   -2.2531    4.3763   -0.9488 C   0  0  0  0  0  0  0  0  0  0  0  0
   -3.0029    5.1209   -1.2491 H   0  0  0  0  0  0  0  0  0  0  0  0
   -2.6110    3.0154   -0.8734 C   0  0  0  0  0  0  0  0  0  0  0  0
   -3.9913    2.5016   -1.1523 C   0  0  0  0  0  0  0  0  0  0  0  0
   -3.9519    1.7215   -1.9395 H   0  0  0  0  0  0  0  0  0  0  0  0
   -4.6775    3.3118   -1.4582 H   0  0  0  0  0  0  0  0  0  0  0  0
   -4.3913    2.0079   -0.2421 H   0  0  0  0  0  0  0  0  0  0  0  0
  2 38  1  0  0  0  0
  3 19  1  0  0  0  0
  4 43  1  0  0  0  0
  5  7  1  0  0  0  0
  5  8  1  0  0  0  0
  6  5  1  0  0  0  0
  9  5  1  0  0  0  0
  9 17  1  0  0  0  0
 10  9  2  0  0  0  0
 11 10  1  0  0  0  0
 12 10  1  0  0  0  0
 12 14  2  0  0  0  0
 13 12  1  0  0  0  0
 14 16  1  0  0  0  0
 15 14  1  0  0  0  0
 16 17  2  0  0  0  0
 16  1  1  0  0  0  0
 17 18  1  0  0  0  0
 18 19  2  0  0  0  0
 18 26  1  0  0  0  0
 19 20  1  0  0  0  0
 20 21  1  0  0  0  0
 20 22  2  0  0  0  0
 22 23  1  0  0  0  0
 24 22  1  0  0  0  0
 24 25  1  0  0  0  0
 26 24  2  0  0  0  0
 27 26  1  0  0  0  0
 27 28  1  0  0  0  0
 29 27  1  0  0  0  0
 30 27  1  0  0  0  0
 31  1  1  1  0  0  0
 31 32  1  0  0  0  0
 31  2  1  0  0  0  0
 32 34  2  0  0  0  0
 33 32  1  0  0  0  0
 34 35  1  0  0  0  0
 34 36  1  0  0  0  0
 36 37  1  0  0  0  0
 38 36  2  0  0  0  0
 38 39  1  0  0  0  0
 39 42  1  0  0  0  0
 39 41  1  0  0  0  0
 40 39  1  0  0  0  0
 43  3  1  6  0  0  0
 44 43  1  0  0  0  0
 44 45  1  0  0  0  0
 46 44  2  0  0  0  0
 47 46  1  0  0  0  0
 48 50  2  0  0  0  0
 48 46  1  0  0  0  0
 49 48  1  0  0  0  0
 50  4  1  0  0  0  0
 51 50  1  0  0  0  0
 51 54  1  0  0  0  0
 52 51  1  0  0  0  0
 53 51  1  0  0  0  0
M  END
