3,4,5,8
q = -2.0, confidence = 0.62

 84 86  0  0  0  0  0  0  0  0999 V2000
   -1.5896    5.6469   -0.2329 Cl  0  0  0  0  0  0  0  0  0  0  0  0
    1.5892    5.6471    0.2311 Cl  0  0  0  0  0  0  0  0  0  0  0  0
   -1.2674    0.4189   -0.0459 N   0  0  0  0  0  2  0  0  0  0  0  0
    1.4066   -2.0415    0.0661 N   0  0  0  0  0  2  0  0  0  0  0  0
    1.2674    0.4189    0.0455 N   0  0  0  0  0  2  0  0  0  0  0  0
    2.6377   -1.4704    0.0630 C   0  0  0  0  0  0  0  0  0  0  0  0
   -2.6377   -1.4704   -0.0634 C   0  0  0  0  0  0  0  0  0  0  0  0
   -1.4066   -2.0415   -0.0671 N   0  0  0  0  0  2  0  0  0  0  0  0
    5.0445   -1.3201    0.0337 C   0  0  0  0  0  0  0  0  0  0  0  0
    6.0315   -1.7978    0.0469 H   0  0  0  0  0  0  0  0  0  0  0  0
   -5.0444   -1.3201   -0.0331 C   0  0  0  0  0  0  0  0  0  0  0  0
   -6.0314   -1.7978   -0.0461 H   0  0  0  0  0  0  0  0  0  0  0  0
   -3.7600    0.7426    0.0562 C   0  0  0  0  0  0  0  0  0  0  0  0
   -3.7175    1.8288    0.1432 H   0  0  0  0  0  0  0  0  0  0  0  0
   -0.6915    4.1649   -0.0962 C   0  0  0  0  0  0  0  0  0  0  0  0
   -0.7187    1.7166   -0.0559 C   0  0  0  0  0  0  0  0  0  0  0  0
    0.6913    4.1650    0.0949 C   0  0  0  0  0  0  0  0  0  0  0  0
    2.5642   -0.0127    0.0223 C   0  0  0  0  0  0  0  0  0  0  0  0
    0.7186    1.7167    0.0553 C   0  0  0  0  0  0  0  0  0  0  0  0
    1.3934    2.9355    0.1681 C   0  0  0  0  0  0  0  0  0  0  0  0
    2.4732    2.9892    0.3251 H   0  0  0  0  0  0  0  0  0  0  0  0
    3.7601    0.7427   -0.0552 C   0  0  0  0  0  0  0  0  0  0  0  0
    3.7178    1.8289   -0.1416 H   0  0  0  0  0  0  0  0  0  0  0  0
   -2.5641   -0.0128   -0.0222 C   0  0  0  0  0  0  0  0  0  0  0  0
   -1.3936    2.9354   -0.1691 C   0  0  0  0  0  0  0  0  0  0  0  0
   -2.4733    2.9888   -0.3263 H   0  0  0  0  0  0  0  0  0  0  0  0
    3.3757   -4.3055   -1.1032 C   0  0  0  0  0  0  0  0  0  0  0  0
    2.3104   -4.0342   -1.2345 H   0  0  0  0  0  0  0  0  0  0  0  0
    3.4395   -5.4121   -1.0521 H   0  0  0  0  0  0  0  0  0  0  0  0
    3.9047   -3.9729   -2.0187 H   0  0  0  0  0  0  0  0  0  0  0  0
    4.0250   -3.6703    0.1519 C   0  0  0  0  0  0  0  0  0  0  0  0
    6.3232    0.8829   -0.1363 C   0  0  0  0  0  0  0  0  0  0  0  0
    3.9121   -2.1345    0.0860 C   0  0  0  0  0  0  0  0  0  0  0  0
   -3.9121   -2.1346   -0.0862 C   0  0  0  0  0  0  0  0  0  0  0  0
    5.4926   -4.1379    0.1802 C   0  0  0  0  0  0  0  0  0  0  0  0
    5.5267   -5.2446    0.2335 H   0  0  0  0  0  0  0  0  0  0  0  0
    6.0352   -3.7440    1.0626 H   0  0  0  0  0  0  0  0  0  0  0  0
    6.0428   -3.8311   -0.7317 H   0  0  0  0  0  0  0  0  0  0  0  0
    5.0010    0.1026   -0.0507 C   0  0  0  0  0  0  0  0  0  0  0  0
   -3.3754   -4.3060    1.1021 C   0  0  0  0  0  0  0  0  0  0  0  0
   -2.3100   -4.0347    1.2332 H   0  0  0  0  0  0  0  0  0  0  0  0
   -3.4391   -5.4126    1.0505 H   0  0  0  0  0  0  0  0  0  0  0  0
   -3.9040   -3.9737    2.0178 H   0  0  0  0  0  0  0  0  0  0  0  0
   -6.3230    0.8828    0.1386 C   0  0  0  0  0  0  0  0  0  0  0  0
   -4.0250   -3.6703   -0.1526 C   0  0  0  0  0  0  0  0  0  0  0  0
   -5.0009    0.1026    0.0520 C   0  0  0  0  0  0  0  0  0  0  0  0
    3.3617   -4.1982    1.4486 C   0  0  0  0  0  0  0  0  0  0  0  0
    2.2950   -3.9176    1.5463 H   0  0  0  0  0  0  0  0  0  0  0  0
    3.8813   -3.7906    2.3388 H   0  0  0  0  0  0  0  0  0  0  0  0
    3.4248   -5.3051    1.4907 H   0  0  0  0  0  0  0  0  0  0  0  0
   -7.1725    0.5843   -1.1189 C   0  0  0  0  0  0  0  0  0  0  0  0
   -6.6393    0.8977   -2.0390 H   0  0  0  0  0  0  0  0  0  0  0  0
   -8.1358    1.1335   -1.0731 H   0  0  0  0  0  0  0  0  0  0  0  0
   -7.4056   -0.4948   -1.2144 H   0  0  0  0  0  0  0  0  0  0  0  0
   -3.3621   -4.1977   -1.4497 C   0  0  0  0  0  0  0  0  0  0  0  0
   -3.8820   -3.7898   -2.3396 H   0  0  0  0  0  0  0  0  0  0  0  0
   -3.4252   -5.3046   -1.4922 H   0  0  0  0  0  0  0  0  0  0  0  0
   -2.2955   -3.9171   -1.5476 H   0  0  0  0  0  0  0  0  0  0  0  0
   -7.0953    0.4353    1.4016 C   0  0  0  0  0  0  0  0  0  0  0  0
   -7.3234   -0.6489    1.3838 H   0  0  0  0  0  0  0  0  0  0  0  0
   -8.0586    0.9809    1.4792 H   0  0  0  0  0  0  0  0  0  0  0  0
   -6.5064    0.6417    2.3180 H   0  0  0  0  0  0  0  0  0  0  0  0
   -6.0987    2.4024    0.2209 C   0  0  0  0  0  0  0  0  0  0  0  0
   -5.5144    2.6860    1.1193 H   0  0  0  0  0  0  0  0  0  0  0  0
   -7.0749    2.9238    0.2813 H   0  0  0  0  0  0  0  0  0  0  0  0
   -5.5697    2.7902   -0.6731 H   0  0  0  0  0  0  0  0  0  0  0  0
    7.0960    0.4360   -1.3992 C   0  0  0  0  0  0  0  0  0  0  0  0
    7.3241   -0.6482   -1.3819 H   0  0  0  0  0  0  0  0  0  0  0  0
    8.0594    0.9816   -1.4761 H   0  0  0  0  0  0  0  0  0  0  0  0
    6.5075    0.6428   -2.3157 H   0  0  0  0  0  0  0  0  0  0  0  0
    7.1720    0.5838    1.1214 C   0  0  0  0  0  0  0  0  0  0  0  0
    6.6385    0.8967    2.0414 H   0  0  0  0  0  0  0  0  0  0  0  0
    8.1354    1.1330    1.0763 H   0  0  0  0  0  0  0  0  0  0  0  0
    7.4051   -0.4953    1.2165 H   0  0  0  0  0  0  0  0  0  0  0  0
   -5.4927   -4.1379   -0.1806 C   0  0  0  0  0  0  0  0  0  0  0  0
   -6.0425   -3.8315    0.7316 H   0  0  0  0  0  0  0  0  0  0  0  0
   -5.5268   -5.2445   -0.2344 H   0  0  0  0  0  0  0  0  0  0  0  0
   -6.0355   -3.7435   -1.0627 H   0  0  0  0  0  0  0  0  0  0  0  0
    6.0989    2.4026   -0.2179 C   0  0  0  0  0  0  0  0  0  0  0  0
    5.5149    2.6866   -1.1165 H   0  0  0  0  0  0  0  0  0  0  0  0
    7.0751    2.9240   -0.2777 H   0  0  0  0  0  0  0  0  0  0  0  0
    5.5695    2.7899    0.6760 H   0  0  0  0  0  0  0  0  0  0  0  0
    1.3727   -3.0620    0.1144 H   0  0  0  0  0  0  0  0  0  0  0  0
   -1.3726   -3.0620   -0.1157 H   0  0  0  0  0  0  0  0  0  0  0  0
  1 15  1  0  0  0  0
  3 24  1  0  0  0  0
  4 83  1  0  0  0  0
  5 19  1  0  0  0  0
  6  4  1  0  0  0  0
  6 33  1  0  0  0  0
  7 24  1  0  0  0  0
  8  7  1  0  0  0  0
  9 10  1  0  0  0  0
  9 33  2  0  0  0  0
 11 46  2  0  0  0  0
 12 11  1  0  0  0  0
 13 14  1  0  0  0  0
 15 17  1  0  0  0  0
 16  3  1  0  0  0  0
 16 19  2  0  0  0  0
 17 20  2  0  0  0  0
 17  2  1  0  0  0  0
 18  5  1  0  0  0  0
 18  6  2  0  0  0  0
 19 20  1  0  0  0  0
 20 21  1  0  0  0  0
 22 39  2  0  0  0  0
 22 18  1  0  0  0  0
 23 22  1  0  0  0  0
 24 13  2  0  0  0  0
 25 15  2  0  0  0  0
 25 16  1  0  0  0  0
 26 25  1  0  0  0  0
 27 29  1  0  0  0  0
 27 31  1  0  0  0  0
 28 27  1  0  0  0  0
 30 27  1  0  0  0  0
 31 35  1  0  0  0  0
 31 47  1  0  0  0  0
 32 39  1  0  0  0  0
 32 71  1  0  0  0  0
 33 31  1  0  0  0  0
 34  7  2  0  0  0  0
 34 11  1  0  0  0  0
 35 36  1  0  0  0  0
 35 37  1  0  0  0  0
 38 35  1  0  0  0  0
 39  9  1  0  0  0  0
 40 41  1  0  0  0  0
 40 43  1  0  0  0  0
 42 40  1  0  0  0  0
 44 63  1  0  0  0  0
 44 59  1  0  0  0  0
 45 34  1  0  0  0  0
 45 40  1  0  0  0  0
 46 13  1  0  0  0  0
 46 44  1  0  0  0  0
 47 50  1  0  0  0  0
 47 48  1  0  0  0  0
 47 49  1  0  0  0  0
 51 53  1  0  0  0  0
 51 44  1  0  0  0  0
 52 51  1  0  0  0  0
 54 51  1  0  0  0  0
 55 45  1  0  0  0  0
 56 55  1  0  0  0  0
 57 55  1  0  0  0  0
 58 55  1  0  0  0  0
 59 61  1  0  0  0  0
 59 62  1  0  0  0  0
 60 59  1  0  0  0  0
 63 65  1  0  0  0  0
 63 64  1  0  0  0  0
 66 63  1  0  0  0  0
 67 68  1  0  0  0  0
 67 32  1  0  0  0  0
 69 67  1  0  0  0  0
 70 67  1  0  0  0  0
 71 74  1  0  0  0  0
 71 72  1  0  0  0  0
 73 71  1  0  0  0  0
 75 45  1  0  0  0  0
 75 76  1  0  0  0  0
 77 75  1  0  0  0  0
 78 75  1  0  0  0  0
 79 32  1  0  0  0  0
 79 82  1  0  0  0  0
 80 79  1  0  0  0  0
 81 79  1  0  0  0  0
 84  8  1  0  0  0  0
M  END
