3,4,5,6
q = -1.0, confidence = 0.002

 49 48  0  0  1  0  0  0  0  0999 V2000
   -1.2197   -2.7813   -0.4520 O   0  5  0  0  0  0  0  0  0  0  0  0
    1.1719   -2.8047   -0.4393 O   0  0  0  0  0  0  0  0  0  0  0  0
   -1.4880   -1.5837    0.0176 N   0  3  0  0  0  2  0  0  0  0  0  0
   -1.3355    1.4732    0.1583 N   0  0  0  0  0  0  0  0  0  0  0  0
    1.3550    1.4522    0.2380 N   0  0  0  0  0  0  0  0  0  0  0  0
    1.4654   -1.6040    0.0112 N   0  0  0  0  0  2  0  0  0  0  0  0
   -3.7295   -2.4424    0.1754 C   0  0  0  0  0  0  0  0  0  0  0  0
   -2.7324   -1.3353    0.3494 C   0  0  1  0  0  3  0  0  0  0  0  0
   -3.1347    0.0067    0.8971 C   0  0  0  0  0  0  0  0  0  0  0  0
   -2.8156    1.2449    0.0189 C   0  0  0  0  0  0  0  0  0  0  0  0
   -3.2011    1.0083   -1.4439 C   0  0  0  0  0  0  0  0  0  0  0  0
   -3.5681    2.4576    0.5954 C   0  0  0  0  0  0  0  0  0  0  0  0
   -0.7188    2.4922   -0.7158 C   0  0  0  0  0  0  0  0  0  0  0  0
    0.7626    2.6855   -0.3481 C   0  0  0  0  0  0  0  0  0  0  0  0
    2.8250    1.2261    0.0260 C   0  0  0  0  0  0  0  0  0  0  0  0
    3.1521    1.0344   -1.4567 C   0  0  0  0  0  0  0  0  0  0  0  0
    3.6129    2.4127    0.6113 C   0  0  0  0  0  0  0  0  0  0  0  0
    3.1683   -0.0426    0.8503 C   0  0  0  0  0  0  0  0  0  0  0  0
    2.7228   -1.3722    0.3030 C   0  0  1  0  0  3  0  0  0  0  0  0
    3.6965   -2.4964    0.1051 C   0  0  0  0  0  0  0  0  0  0  0  0
   -0.0187   -2.8455   -0.5043 H   0  0  0  0  0  0  0  0  0  0  0  0
   -1.1866    1.7195    1.1553 H   0  0  0  0  0  0  0  0  0  0  0  0
    1.2386    1.5071    1.2692 H   0  0  0  0  0  0  0  0  0  0  0  0
   -3.7984   -2.7367   -0.8944 H   0  0  0  0  0  0  0  0  0  0  0  0
   -3.3875   -3.3547    0.7077 H   0  0  0  0  0  0  0  0  0  0  0  0
   -4.7315   -2.1508    0.5403 H   0  0  0  0  0  0  0  0  0  0  0  0
   -2.6622    0.1609    1.8940 H   0  0  0  0  0  0  0  0  0  0  0  0
   -4.2289   -0.0100    1.0630 H   0  0  0  0  0  0  0  0  0  0  0  0
   -4.2468    0.6461   -1.4910 H   0  0  0  0  0  0  0  0  0  0  0  0
   -2.5364    0.2585   -1.9153 H   0  0  0  0  0  0  0  0  0  0  0  0
   -3.1447    1.9430   -2.0363 H   0  0  0  0  0  0  0  0  0  0  0  0
   -3.3419    2.5959    1.6734 H   0  0  0  0  0  0  0  0  0  0  0  0
   -4.6614    2.3101    0.4962 H   0  0  0  0  0  0  0  0  0  0  0  0
   -3.3127    3.3934    0.0595 H   0  0  0  0  0  0  0  0  0  0  0  0
   -1.2502    3.4669   -0.6557 H   0  0  0  0  0  0  0  0  0  0  0  0
   -0.7824    2.1011   -1.7480 H   0  0  0  0  0  0  0  0  0  0  0  0
    1.3154    2.9526   -1.2676 H   0  0  0  0  0  0  0  0  0  0  0  0
    0.8874    3.5263    0.3672 H   0  0  0  0  0  0  0  0  0  0  0  0
    3.0465    1.9794   -2.0266 H   0  0  0  0  0  0  0  0  0  0  0  0
    2.4848    0.2816   -1.9181 H   0  0  0  0  0  0  0  0  0  0  0  0
    4.2054    0.7068   -1.5591 H   0  0  0  0  0  0  0  0  0  0  0  0
    4.7012    2.2416    0.4954 H   0  0  0  0  0  0  0  0  0  0  0  0
    3.4031    2.5416    1.6938 H   0  0  0  0  0  0  0  0  0  0  0  0
    3.3716    3.3612    0.0920 H   0  0  0  0  0  0  0  0  0  0  0  0
    2.7563    0.0937    1.8769 H   0  0  0  0  0  0  0  0  0  0  0  0
    4.2692   -0.0778    0.9577 H   0  0  0  0  0  0  0  0  0  0  0  0
    3.7085   -2.8125   -0.9604 H   0  0  0  0  0  0  0  0  0  0  0  0
    3.3699   -3.3937    0.6717 H   0  0  0  0  0  0  0  0  0  0  0  0
    4.7184   -2.2116    0.4161 H   0  0  0  0  0  0  0  0  0  0  0  0
  1  3  1  0  0  0  0
  2  6  1  0  0  0  0
  4 22  1  0  0  0  0
  5 23  1  0  0  0  0
  7  8  1  0  0  0  0
  7 26  1  0  0  0  0
  7 25  1  0  0  0  0
  8  3  1  1  0  0  0
  8  9  1  0  0  0  0
  9 28  1  0  0  0  0
  9 27  1  0  0  0  0
 10  4  1  0  0  0  0
 10 12  1  0  0  0  0
 10  9  1  0  0  0  0
 11 10  1  0  0  0  0
 12 32  1  0  0  0  0
 13 35  1  0  0  0  0
 13 14  1  0  0  0  0
 13  4  1  0  0  0  0
 14  5  1  0  0  0  0
 14 38  1  0  0  0  0
 15  5  1  0  0  0  0
 15 17  1  0  0  0  0
 15 18  1  0  0  0  0
 16 15  1  0  0  0  0
 17 43  1  0  0  0  0
 18 46  1  0  0  0  0
 18 45  1  0  0  0  0
 19  6  1  1  0  0  0
 19 18  1  0  0  0  0
 20 19  1  0  0  0  0
 20 49  1  0  0  0  0
 20 48  1  0  0  0  0
 21  2  1  0  0  0  0
 24  7  1  0  0  0  0
 29 11  1  0  0  0  0
 30 11  1  0  0  0  0
 31 11  1  0  0  0  0
 33 12  1  0  0  0  0
 34 12  1  0  0  0  0
 36 13  1  0  0  0  0
 37 14  1  0  0  0  0
 39 16  1  0  0  0  0
 40 16  1  0  0  0  0
 41 16  1  0  0  0  0
 42 17  1  0  0  0  0
 44 17  1  0  0  0  0
 47 20  1  0  0  0  0
M  CHG  2   1  -1   3   1
M  END
