2,3,4,5
q = -2.0, confidence = 0.966

 43 47  0  0  0  0  0  0  0  0999 V2000
   -2.8960   -1.3903   -0.0009 N   0  0  0  0  0  0  0  0  0  0  0  0
    0.7514   -1.3996   -0.1001 N   0  0  0  0  0  2  0  0  0  0  0  0
    3.3037   -1.3796    0.1873 N   0  0  0  0  0  2  0  0  0  0  0  0
    3.3037    1.3796    0.1869 N   0  0  0  0  0  2  0  0  0  0  0  0
    0.7514    1.3996   -0.1002 N   0  0  0  0  0  2  0  0  0  0  0  0
   -2.8958    1.3903    0.0008 N   0  0  0  0  0  0  0  0  0  0  0  0
   -4.0593   -0.7201    0.0939 C   0  0  0  0  0  0  0  0  0  0  0  0
   -4.0592    0.7201    0.0951 C   0  0  0  0  0  0  0  0  0  0  0  0
   -5.2986    1.4226    0.1947 C   0  0  0  0  0  0  0  0  0  0  0  0
   -5.2691    2.5221    0.1935 H   0  0  0  0  0  0  0  0  0  0  0  0
   -6.4853    0.7138    0.2898 C   0  0  0  0  0  0  0  0  0  0  0  0
   -7.4421    1.2523    0.3675 H   0  0  0  0  0  0  0  0  0  0  0  0
   -6.4855   -0.7137    0.2885 C   0  0  0  0  0  0  0  0  0  0  0  0
   -7.4424   -1.2521    0.3652 H   0  0  0  0  0  0  0  0  0  0  0  0
   -5.2989   -1.4225    0.1921 C   0  0  0  0  0  0  0  0  0  0  0  0
   -5.2695   -2.5220    0.1889 H   0  0  0  0  0  0  0  0  0  0  0  0
   -1.7282   -0.7314   -0.0856 C   0  0  0  0  0  0  0  0  0  0  0  0
   -1.7281    0.7314   -0.0851 C   0  0  0  0  0  0  0  0  0  0  0  0
   -0.5912   -1.6453   -0.2060 C   0  0  0  0  0  0  0  0  0  0  0  0
   -0.7949   -3.0527   -0.4181 C   0  0  0  0  0  0  0  0  0  0  0  0
   -1.7828   -3.5068   -0.5287 H   0  0  0  0  0  0  0  0  0  0  0  0
    0.4526   -3.6650   -0.4380 C   0  0  0  0  0  0  0  0  0  0  0  0
    0.6795   -4.7283   -0.5778 H   0  0  0  0  0  0  0  0  0  0  0  0
    1.3944   -2.6247   -0.2281 C   0  0  0  0  0  0  0  0  0  0  0  0
    2.7900   -2.5732   -0.0537 C   0  0  0  0  0  0  0  0  0  0  0  0
    3.4304   -3.4732   -0.0916 H   0  0  0  0  0  0  0  0  0  0  0  0
    4.7203   -1.2565    0.4759 C   0  0  0  0  0  0  0  0  0  0  0  0
    5.2525   -2.1625    0.1105 H   0  0  0  0  0  0  0  0  0  0  0  0
    4.8701   -1.2214    1.5819 H   0  0  0  0  0  0  0  0  0  0  0  0
    5.3310   -0.0000   -0.1336 C   0  0  0  0  0  0  0  0  0  0  0  0
    6.4238    0.0000    0.0589 H   0  0  0  0  0  0  0  0  0  0  0  0
    5.1840   -0.0002   -1.2344 H   0  0  0  0  0  0  0  0  0  0  0  0
    4.7203    1.2567    0.4756 C   0  0  0  0  0  0  0  0  0  0  0  0
    4.8701    1.2218    1.5816 H   0  0  0  0  0  0  0  0  0  0  0  0
    5.2525    2.1625    0.1099 H   0  0  0  0  0  0  0  0  0  0  0  0
    2.7900    2.5732   -0.0545 C   0  0  0  0  0  0  0  0  0  0  0  0
    3.4304    3.4732   -0.0927 H   0  0  0  0  0  0  0  0  0  0  0  0
    1.3944    2.6247   -0.2288 C   0  0  0  0  0  0  0  0  0  0  0  0
    0.4526    3.6648   -0.4389 C   0  0  0  0  0  0  0  0  0  0  0  0
    0.6794    4.7281   -0.5791 H   0  0  0  0  0  0  0  0  0  0  0  0
   -0.7950    3.0526   -0.4185 C   0  0  0  0  0  0  0  0  0  0  0  0
   -1.7829    3.5066   -0.5290 H   0  0  0  0  0  0  0  0  0  0  0  0
   -0.5912    1.6453   -0.2059 C   0  0  0  0  0  0  0  0  0  0  0  0
  1  7  2  0  0  0  0
  3 27  1  0  0  0  0
  4 33  1  0  0  0  0
  6  8  2  0  0  0  0
  7  8  1  0  0  0  0
  7 15  1  0  0  0  0
  8  9  1  0  0  0  0
  9 11  2  0  0  0  0
 10  9  1  0  0  0  0
 11 12  1  0  0  0  0
 13 11  1  0  0  0  0
 13 14  1  0  0  0  0
 15 13  2  0  0  0  0
 16 15  1  0  0  0  0
 17 18  1  0  0  0  0
 17  1  1  0  0  0  0
 18  6  1  0  0  0  0
 19  2  1  0  0  0  0
 19 17  2  0  0  0  0
 20 19  1  0  0  0  0
 21 20  1  0  0  0  0
 22 20  2  0  0  0  0
 22 24  1  0  0  0  0
 23 22  1  0  0  0  0
 24  2  1  0  0  0  0
 24 25  2  0  0  0  0
 25  3  1  0  0  0  0
 26 25  1  0  0  0  0
 27 29  1  0  0  0  0
 28 27  1  0  0  0  0
 30 31  1  0  0  0  0
 30 33  1  0  0  0  0
 30 27  1  0  0  0  0
 32 30  1  0  0  0  0
 33 34  1  0  0  0  0
 35 33  1  0  0  0  0
 36  4  1  0  0  0  0
 37 36  1  0  0  0  0
 38  5  1  0  0  0  0
 38 36  2  0  0  0  0
 39 41  2  0  0  0  0
 39 38  1  0  0  0  0
 40 39  1  0  0  0  0
 41 43  1  0  0  0  0
 42 41  1  0  0  0  0
 43  5  1  0  0  0  0
 43 18  2  0  0  0  0
M  END
