1,3,5,8
q = 0.0, confidence = 1.0

 60 63  0  0  1  0  0  0  0  0999 V2000
   -2.0324   -1.2924   -0.6125 N   0  0  1  0  0  0  0  0  0  0  0  0
   -0.5354   -3.1995   -0.9042 N   0  0  1  0  0  0  0  0  0  0  0  0
    1.0800   -1.5192   -0.0416 N   0  0  0  0  0  0  0  0  0  0  0  0
    1.1428   -1.7668    0.9609 H   0  0  0  0  0  0  0  0  0  0  0  0
    1.1484    1.3162    0.0219 N   0  0  0  0  0  0  0  0  0  0  0  0
    1.0000    1.9081    0.8507 H   0  0  0  0  0  0  0  0  0  0  0  0
   -0.1372    2.9643   -1.2433 N   0  0  2  0  0  0  0  0  0  0  0  0
   -1.9398    1.6005   -0.3096 N   0  0  2  0  0  0  0  0  0  0  0  0
   -2.7325   -1.9979    0.5045 C   0  0  0  0  0  0  0  0  0  0  0  0
   -3.6209   -2.5249    0.0791 H   0  0  0  0  0  0  0  0  0  0  0  0
   -3.0951   -1.2417    1.2282 H   0  0  0  0  0  0  0  0  0  0  0  0
   -1.8108   -2.9902    1.2174 C   0  0  0  0  0  0  0  0  0  0  0  0
   -2.4153   -3.5680    1.9457 H   0  0  0  0  0  0  0  0  0  0  0  0
   -1.0680   -2.4199    1.8134 H   0  0  0  0  0  0  0  0  0  0  0  0
   -1.1290   -3.9313    0.2170 C   0  0  0  0  0  0  0  0  0  0  0  0
   -0.3442   -4.5429    0.7044 H   0  0  0  0  0  0  0  0  0  0  0  0
   -1.8760   -4.6437   -0.2007 H   0  0  0  0  0  0  0  0  0  0  0  0
   -1.4601   -2.3271   -1.5429 C   0  0  0  0  0  0  0  0  0  0  0  0
   -2.3132   -2.9186   -1.9576 H   0  0  0  0  0  0  0  0  0  0  0  0
   -0.9692   -1.7928   -2.3822 H   0  0  0  0  0  0  0  0  0  0  0  0
    0.8239   -2.7638   -0.8379 C   0  0  0  0  0  0  0  0  0  0  0  0
    1.1768   -2.5377   -1.8678 H   0  0  0  0  0  0  0  0  0  0  0  0
    1.4383   -3.6064   -0.4564 H   0  0  0  0  0  0  0  0  0  0  0  0
    2.3388   -0.8315   -0.4151 C   0  0  2  0  0  0  0  0  0  0  0  0
    2.2929   -0.6693   -1.5175 H   0  0  0  0  0  0  0  0  0  0  0  0
    3.5972   -1.6533   -0.0853 C   0  0  0  0  0  0  0  0  0  0  0  0
    3.5606   -1.9136    0.9975 H   0  0  0  0  0  0  0  0  0  0  0  0
    3.5786   -2.6127   -0.6413 H   0  0  0  0  0  0  0  0  0  0  0  0
    4.8941   -0.8934   -0.3840 C   0  0  0  0  0  0  0  0  0  0  0  0
    4.9812   -0.7283   -1.4809 H   0  0  0  0  0  0  0  0  0  0  0  0
    5.7665   -1.5131   -0.0947 H   0  0  0  0  0  0  0  0  0  0  0  0
    4.9223    0.4559    0.3390 C   0  0  0  0  0  0  0  0  0  0  0  0
    5.8486    1.0131    0.0941 H   0  0  0  0  0  0  0  0  0  0  0  0
    4.9368    0.2903    1.4386 H   0  0  0  0  0  0  0  0  0  0  0  0
    3.6942    1.2930   -0.0350 C   0  0  0  0  0  0  0  0  0  0  0  0
    3.7003    2.2635    0.5048 H   0  0  0  0  0  0  0  0  0  0  0  0
    3.7388    1.5288   -1.1207 H   0  0  0  0  0  0  0  0  0  0  0  0
    2.3923    0.5424    0.2804 C   0  0  1  0  0  0  0  0  0  0  0  0
    2.3647    0.3392    1.3748 H   0  0  0  0  0  0  0  0  0  0  0  0
    1.0816    2.2102   -1.1763 C   0  0  0  0  0  0  0  0  0  0  0  0
    1.9286    2.9283   -1.1777 H   0  0  0  0  0  0  0  0  0  0  0  0
    1.1772    1.5771   -2.0837 H   0  0  0  0  0  0  0  0  0  0  0  0
   -0.3335    4.0232   -0.2466 C   0  0  0  0  0  0  0  0  0  0  0  0
   -0.9872    4.7989   -0.7038 H   0  0  0  0  0  0  0  0  0  0  0  0
    0.6402    4.5113   -0.0414 H   0  0  0  0  0  0  0  0  0  0  0  0
   -0.9913    3.5028    1.0428 C   0  0  0  0  0  0  0  0  0  0  0  0
   -1.3205    4.3532    1.6737 H   0  0  0  0  0  0  0  0  0  0  0  0
   -0.2886    2.9192    1.6744 H   0  0  0  0  0  0  0  0  0  0  0  0
   -2.2085    2.6328    0.7309 C   0  0  0  0  0  0  0  0  0  0  0  0
   -2.5424    2.1040    1.6456 H   0  0  0  0  0  0  0  0  0  0  0  0
   -3.0482    3.2771    0.3736 H   0  0  0  0  0  0  0  0  0  0  0  0
   -1.3509    2.2616   -1.5234 C   0  0  0  0  0  0  0  0  0  0  0  0
   -1.1674    1.4870   -2.2952 H   0  0  0  0  0  0  0  0  0  0  0  0
   -2.1050    2.9802   -1.9303 H   0  0  0  0  0  0  0  0  0  0  0  0
   -3.1978    0.8994   -0.6255 C   0  0  0  0  0  0  0  0  0  0  0  0
   -3.8762    1.5458   -1.2307 H   0  0  0  0  0  0  0  0  0  0  0  0
   -3.7210    0.7069    0.3327 H   0  0  0  0  0  0  0  0  0  0  0  0
   -2.9510   -0.4114   -1.3596 C   0  0  0  0  0  0  0  0  0  0  0  0
   -3.9233   -0.9193   -1.5530 H   0  0  0  0  0  0  0  0  0  0  0  0
   -2.4983   -0.2186   -2.3548 H   0  0  0  0  0  0  0  0  0  0  0  0
  1 18  1  6  0  0  0
  1  9  1  0  0  0  0
  2 18  1  1  0  0  0
  2 21  1  0  0  0  0
  2 15  1  0  0  0  0
  3  4  1  0  0  0  0
  5 38  1  0  0  0  0
  5  6  1  0  0  0  0
  7 52  1  1  0  0  0
  7 40  1  0  0  0  0
  7 43  1  0  0  0  0
  8 52  1  6  0  0  0
  8 49  1  0  0  0  0
  9 12  1  0  0  0  0
  9 11  1  0  0  0  0
 10  9  1  0  0  0  0
 12 14  1  0  0  0  0
 12 13  1  0  0  0  0
 15 16  1  0  0  0  0
 15 12  1  0  0  0  0
 17 15  1  0  0  0  0
 19 18  1  0  0  0  0
 20 18  1  0  0  0  0
 21 23  1  0  0  0  0
 21  3  1  0  0  0  0
 22 21  1  0  0  0  0
 24 25  1  6  0  0  0
 24 26  1  0  0  0  0
 24  3  1  0  0  0  0
 24 38  1  0  0  0  0
 26 27  1  0  0  0  0
 28 26  1  0  0  0  0
 29 31  1  0  0  0  0
 29 26  1  0  0  0  0
 29 32  1  0  0  0  0
 30 29  1  0  0  0  0
 32 34  1  0  0  0  0
 33 32  1  0  0  0  0
 35 38  1  0  0  0  0
 35 32  1  0  0  0  0
 35 36  1  0  0  0  0
 37 35  1  0  0  0  0
 38 39  1  1  0  0  0
 40  5  1  0  0  0  0
 41 40  1  0  0  0  0
 42 40  1  0  0  0  0
 43 45  1  0  0  0  0
 43 46  1  0  0  0  0
 44 43  1  0  0  0  0
 46 47  1  0  0  0  0
 46 48  1  0  0  0  0
 49 46  1  0  0  0  0
 49 50  1  0  0  0  0
 51 49  1  0  0  0  0
 53 52  1  0  0  0  0
 54 52  1  0  0  0  0
 55  8  1  0  0  0  0
 55 57  1  0  0  0  0
 56 55  1  0  0  0  0
 58 55  1  0  0  0  0
 58  1  1  0  0  0  0
 59 58  1  0  0  0  0
 60 58  1  0  0  0  0
M  END
