14,15,16,17
q = -2.0, confidence = 0.778

 67 74  0  0  0  0  0  0  0  0999 V2000
   -4.1929   -0.9950    2.8162 F   0  0  0  0  0  0  0  0  0  0  0  0
    0.8537    4.1087    1.7291 F   0  0  0  0  0  0  0  0  0  0  0  0
   -1.0044    3.6912   -2.6266 F   0  0  0  0  0  0  0  0  0  0  0  0
   -1.1320    6.4010   -2.8270 F   0  0  0  0  0  0  0  0  0  0  0  0
    0.7324    6.8144    1.5166 F   0  0  0  0  0  0  0  0  0  0  0  0
   -5.4918   -1.5344   -1.7242 F   0  0  0  0  0  0  0  0  0  0  0  0
    5.4981   -1.6961   -1.8195 F   0  0  0  0  0  0  0  0  0  0  0  0
   -0.2612    7.9678   -0.7581 F   0  0  0  0  0  0  0  0  0  0  0  0
   -0.0078   -5.4431   -2.2651 O   0  0  0  0  0  0  0  0  0  0  0  0
    0.9035   -5.7139   -2.4837 H   0  0  0  0  0  0  0  0  0  0  0  0
    8.1238   -1.7259   -1.1261 F   0  0  0  0  0  0  0  0  0  0  0  0
   -6.8050   -1.0899    3.5703 F   0  0  0  0  0  0  0  0  0  0  0  0
    4.3363   -0.6088    2.6611 F   0  0  0  0  0  0  0  0  0  0  0  0
    1.4077   -2.4042   -0.7216 N   0  0  0  0  0  0  0  0  0  0  0  0
   -1.3470   -2.4187   -0.7211 N   0  0  0  0  0  2  0  0  0  0  0  0
   -1.3546    0.2606   -0.1593 N   0  0  0  0  0  0  0  0  0  0  0  0
    1.3847    0.2939   -0.2220 N   0  0  0  0  0  0  0  0  0  0  0  0
    8.8672   -1.1911    1.4534 F   0  0  0  0  0  0  0  0  0  0  0  0
   -8.7621   -1.4132    1.6840 F   0  0  0  0  0  0  0  0  0  0  0  0
   -8.0986   -1.6359   -0.9621 F   0  0  0  0  0  0  0  0  0  0  0  0
    6.9684   -0.6290    3.3432 F   0  0  0  0  0  0  0  0  0  0  0  0
    0.0360   -4.2377   -1.6484 C   0  0  0  0  0  0  0  0  0  0  0  0
    1.2232    1.6663   -0.3102 C   0  0  0  0  0  0  0  0  0  0  0  0
   -1.1948   -3.6616   -1.3095 C   0  0  0  0  0  0  0  0  0  0  0  0
    2.7375   -2.3222   -0.3463 C   0  0  0  0  0  0  0  0  0  0  0  0
    1.2566   -3.6789   -1.2373 C   0  0  0  0  0  0  0  0  0  0  0  0
   -0.0093    2.3297   -0.3535 C   0  0  0  0  0  0  0  0  0  0  0  0
   -0.5701    4.4364   -1.6051 C   0  0  0  0  0  0  0  0  0  0  0  0
   -1.2161    1.6354   -0.1903 C   0  0  0  0  0  0  0  0  0  0  0  0
    2.7383    0.0980    0.0023 C   0  0  0  0  0  3  0  0  0  0  0  0
   -3.3264   -1.2085    0.1283 C   0  0  0  0  0  0  0  0  0  0  0  0
   -3.3616   -3.5796   -0.7200 C   0  0  0  0  0  0  0  0  0  0  0  0
   -4.4178   -3.7919   -0.5264 H   0  0  0  0  0  0  0  0  0  0  0  0
   -2.6850   -2.3532   -0.3736 C   0  0  0  0  0  0  0  0  0  0  0  0
   -0.0530    3.8143   -0.4517 C   0  0  0  0  0  0  0  0  0  0  0  0
    3.4066   -3.5772   -0.5716 C   0  0  0  0  0  0  0  0  0  0  0  0
    4.4502   -3.7921   -0.3209 H   0  0  0  0  0  0  0  0  0  0  0  0
    3.3872   -1.1385    0.0464 C   0  0  0  0  0  0  0  0  0  0  0  0
    2.4904   -4.4142   -1.1636 C   0  0  0  0  0  0  0  0  0  0  0  0
    2.6514   -5.4595   -1.4575 H   0  0  0  0  0  0  0  0  0  0  0  0
   -2.6850    0.0325    0.1605 C   0  0  0  0  0  0  0  0  0  0  0  0
   -2.4392   -4.3796   -1.3489 C   0  0  0  0  0  0  0  0  0  0  0  0
   -2.5649   -5.3845   -1.7640 H   0  0  0  0  0  0  0  0  0  0  0  0
    0.3172    6.0462    0.5063 C   0  0  0  0  0  0  0  0  0  0  0  0
   -2.4755    2.2814    0.1056 C   0  0  0  0  0  0  0  0  0  0  0  0
   -2.6292    3.3649    0.1437 H   0  0  0  0  0  0  0  0  0  0  0  0
    0.3781    4.6459    0.6001 C   0  0  0  0  0  0  0  0  0  0  0  0
   -0.6447    5.8342   -1.7206 C   0  0  0  0  0  0  0  0  0  0  0  0
    5.8315   -1.4482   -0.5475 C   0  0  0  0  0  0  0  0  0  0  0  0
   -3.3793    1.2849    0.3606 C   0  0  0  0  0  0  0  0  0  0  0  0
   -4.4379    1.3784    0.6245 H   0  0  0  0  0  0  0  0  0  0  0  0
    4.8310   -1.1714    0.4048 C   0  0  0  0  0  0  0  0  0  0  0  0
   -4.7597   -1.2794    0.5253 C   0  0  0  0  0  0  0  0  0  0  0  0
   -5.1314   -1.1574    1.8783 C   0  0  0  0  0  0  0  0  0  0  0  0
   -0.1972    6.6398   -0.6594 C   0  0  0  0  0  0  0  0  0  0  0  0
    2.4999    2.3363   -0.1940 C   0  0  0  0  0  0  0  0  0  0  0  0
    2.6513    3.4180   -0.2656 H   0  0  0  0  0  0  0  0  0  0  0  0
    3.4336    1.3655    0.0474 C   0  0  0  0  0  0  0  0  0  0  0  0
    4.5116    1.4826    0.2001 H   0  0  0  0  0  0  0  0  0  0  0  0
    7.1935   -1.4619   -0.2049 C   0  0  0  0  0  0  0  0  0  0  0  0
    5.2448   -0.8880    1.7217 C   0  0  0  0  0  0  0  0  0  0  0  0
   -5.7882   -1.4364   -0.4235 C   0  0  0  0  0  0  0  0  0  0  0  0
   -6.4765   -1.2015    2.2810 C   0  0  0  0  0  0  0  0  0  0  0  0
    7.5771   -1.1823    1.1181 C   0  0  0  0  0  0  0  0  0  0  0  0
    6.6011   -0.8927    2.0872 C   0  0  0  0  0  0  0  0  0  0  0  0
   -7.1399   -1.4867   -0.0446 C   0  0  0  0  0  0  0  0  0  0  0  0
   -7.4823   -1.3683    1.3136 C   0  0  0  0  0  0  0  0  0  0  0  0
  3 28  1  0  0  0  0
  4 48  1  0  0  0  0
  6 62  1  0  0  0  0
  7 49  1  0  0  0  0
  8 55  1  0  0  0  0
  9 22  1  0  0  0  0
 10  9  1  0  0  0  0
 11 60  1  0  0  0  0
 14 25  1  0  0  0  0
 15 34  1  0  0  0  0
 16 41  2  0  0  0  0
 17 30  1  0  0  0  0
 20 66  1  0  0  0  0
 22 24  2  0  0  0  0
 22 26  1  0  0  0  0
 23 17  2  0  0  0  0
 23 56  1  0  0  0  0
 24 15  1  0  0  0  0
 25 38  2  0  0  0  0
 26 39  1  0  0  0  0
 26 14  2  0  0  0  0
 27 23  1  0  0  0  0
 27 29  2  0  0  0  0
 28 35  1  0  0  0  0
 29 16  1  0  0  0  0
 29 45  1  0  0  0  0
 30 38  1  0  0  0  0
 30 58  1  0  0  0  0
 31 41  1  0  0  0  0
 31 53  1  0  0  0  0
 32 33  1  0  0  0  0
 32 34  1  0  0  0  0
 34 31  2  0  0  0  0
 35 27  1  0  0  0  0
 35 47  2  0  0  0  0
 36 25  1  0  0  0  0
 36 37  1  0  0  0  0
 38 52  1  0  0  0  0
 39 36  2  0  0  0  0
 40 39  1  0  0  0  0
 41 50  1  0  0  0  0
 42 24  1  0  0  0  0
 42 32  2  0  0  0  0
 43 42  1  0  0  0  0
 44 47  1  0  0  0  0
 44  5  1  0  0  0  0
 45 46  1  0  0  0  0
 45 50  2  0  0  0  0
 47  2  1  0  0  0  0
 48 28  2  0  0  0  0
 48 55  1  0  0  0  0
 49 60  2  0  0  0  0
 49 52  1  0  0  0  0
 50 51  1  0  0  0  0
 52 61  2  0  0  0  0
 53 54  1  0  0  0  0
 54 63  2  0  0  0  0
 54  1  1  0  0  0  0
 55 44  2  0  0  0  0
 56 58  2  0  0  0  0
 57 56  1  0  0  0  0
 58 59  1  0  0  0  0
 60 64  1  0  0  0  0
 61 65  1  0  0  0  0
 61 13  1  0  0  0  0
 62 66  1  0  0  0  0
 62 53  2  0  0  0  0
 63 12  1  0  0  0  0
 64 18  1  0  0  0  0
 64 65  2  0  0  0  0
 65 21  1  0  0  0  0
 66 67  2  0  0  0  0
 67 19  1  0  0  0  0
 67 63  1  0  0  0  0
M  END
