4,5,6,7
q = 0.0, confidence = 0.986

 52 54  0  0  0  0  0  0  0  0999 V2000
    1.4093   -0.9023    1.8203 S   0  0  0  0  0  0  0  0  0  0  0  0
    1.4046    2.0299   -0.1259 S   0  0  0  0  0  0  0  0  0  0  0  0
    1.4121   -1.1215   -1.6907 S   0  0  0  0  0  0  0  0  0  0  0  0
   -3.2755   -0.0048   -0.0023 N   0  0  0  0  0  0  0  0  0  0  0  0
   -1.1779   -1.9429    0.3875 N   0  0  0  0  0  2  0  0  0  0  0  0
   -1.1839    1.3052    1.4867 N   0  0  0  0  0  2  0  0  0  0  0  0
   -1.1795    0.6327   -1.8759 N   0  0  0  0  0  2  0  0  0  0  0  0
   -3.5748   -1.4048    0.3053 C   0  0  0  0  0  0  0  0  0  0  0  0
   -2.4601   -2.3491   -0.1788 C   0  0  0  0  0  0  0  0  0  0  0  0
   -0.4662   -2.8193    1.0340 C   0  0  0  0  0  3  0  0  0  0  0  0
    0.7700   -2.5295    1.7052 C   0  0  0  0  0  0  0  0  0  0  0  0
    1.5947   -3.4399    2.3730 C   0  0  0  0  0  0  0  0  0  0  0  0
    2.7287   -2.8268    2.9656 C   0  0  0  0  0  0  0  0  0  0  0  0
    2.7578   -1.4575    2.7492 C   0  0  0  0  0  0  0  0  0  0  0  0
   -3.5792    0.9611    1.0554 C   0  0  0  0  0  0  0  0  0  0  0  0
   -2.4675    1.0161    2.1183 C   0  0  0  0  0  0  0  0  0  0  0  0
   -0.4755    2.3052    1.9233 C   0  0  0  0  0  3  0  0  0  0  0  0
    0.7610    2.7437    1.3391 C   0  0  0  0  0  0  0  0  0  0  0  0
    1.5828    3.7792    1.7945 C   0  0  0  0  0  0  0  0  0  0  0  0
    2.7180    3.9875    0.9692 C   0  0  0  0  0  0  0  0  0  0  0  0
    2.7509    3.1147   -0.1078 C   0  0  0  0  0  0  0  0  0  0  0  0
   -3.5760    0.4276   -1.3687 C   0  0  0  0  0  0  0  0  0  0  0  0
   -2.4641    1.3221   -1.9449 C   0  0  0  0  0  0  0  0  0  0  0  0
   -0.4680    0.5121   -2.9583 C   0  0  0  0  0  3  0  0  0  0  0  0
    0.7701   -0.2108   -3.0428 C   0  0  0  0  0  0  0  0  0  0  0  0
    1.5948   -0.3325   -4.1653 C   0  0  0  0  0  0  0  0  0  0  0  0
    2.7311   -1.1491   -3.9304 C   0  0  0  0  0  0  0  0  0  0  0  0
    2.7618   -1.6454   -2.6359 C   0  0  0  0  0  0  0  0  0  0  0  0
   -4.5511   -1.7340   -0.1238 H   0  0  0  0  0  0  0  0  0  0  0  0
   -3.6628   -1.5079    1.4058 H   0  0  0  0  0  0  0  0  0  0  0  0
   -2.3838   -2.2983   -1.2877 H   0  0  0  0  0  0  0  0  0  0  0  0
   -2.7188   -3.3989    0.0864 H   0  0  0  0  0  0  0  0  0  0  0  0
   -0.8131   -3.8729    1.1017 H   0  0  0  0  0  0  0  0  0  0  0  0
    1.3709   -4.5148    2.4251 H   0  0  0  0  0  0  0  0  0  0  0  0
    3.4987   -3.3649    3.5345 H   0  0  0  0  0  0  0  0  0  0  0  0
    3.5086   -0.7346    3.0933 H   0  0  0  0  0  0  0  0  0  0  0  0
   -4.5565    0.7526    1.5524 H   0  0  0  0  0  0  0  0  0  0  0  0
   -3.6676    1.9656    0.5941 H   0  0  0  0  0  0  0  0  0  0  0  0
   -2.3909    0.0307    2.6295 H   0  0  0  0  0  0  0  0  0  0  0  0
   -2.7294    1.7706    2.8937 H   0  0  0  0  0  0  0  0  0  0  0  0
   -0.8258    2.8907    2.8005 H   0  0  0  0  0  0  0  0  0  0  0  0
    1.3561    4.3620    2.6984 H   0  0  0  0  0  0  0  0  0  0  0  0
    3.4861    4.7510    1.1516 H   0  0  0  0  0  0  0  0  0  0  0  0
    3.5033    3.0522   -0.9044 H   0  0  0  0  0  0  0  0  0  0  0  0
   -4.5539    0.9609   -1.4394 H   0  0  0  0  0  0  0  0  0  0  0  0
   -3.6614   -0.4744   -2.0079 H   0  0  0  0  0  0  0  0  0  0  0  0
   -2.3908    2.2579   -1.3473 H   0  0  0  0  0  0  0  0  0  0  0  0
   -2.7236    1.6157   -2.9869 H   0  0  0  0  0  0  0  0  0  0  0  0
   -0.8165    0.9785   -3.9048 H   0  0  0  0  0  0  0  0  0  0  0  0
    1.3695    0.1586   -5.1224 H   0  0  0  0  0  0  0  0  0  0  0  0
    3.5014   -1.3712   -4.6809 H   0  0  0  0  0  0  0  0  0  0  0  0
    3.5145   -2.3026   -2.1818 H   0  0  0  0  0  0  0  0  0  0  0  0
  1 14  1  0  0  0  0
  2 21  1  0  0  0  0
  2 18  1  0  0  0  0
  4  8  1  0  0  0  0
  4 15  1  0  0  0  0
  5 10  1  0  0  0  0
  6 17  1  0  0  0  0
  6 16  1  0  0  0  0
  8 30  1  0  0  0  0
  9 32  1  0  0  0  0
  9  8  1  0  0  0  0
  9  5  1  0  0  0  0
 10 33  1  0  0  0  0
 10 11  1  0  0  0  0
 11  1  1  0  0  0  0
 11 12  2  0  0  0  0
 12 34  1  0  0  0  0
 12 13  1  0  0  0  0
 13 35  1  0  0  0  0
 14 13  2  0  0  0  0
 14 36  1  0  0  0  0
 15 37  1  0  0  0  0
 15 16  1  0  0  0  0
 16 39  1  0  0  0  0
 16 40  1  0  0  0  0
 17 41  1  0  0  0  0
 18 19  2  0  0  0  0
 18 17  1  0  0  0  0
 19 42  1  0  0  0  0
 20 43  1  0  0  0  0
 20 19  1  0  0  0  0
 21 20  2  0  0  0  0
 22  4  1  0  0  0  0
 23  7  1  0  0  0  0
 23 22  1  0  0  0  0
 23 47  1  0  0  0  0
 24  7  1  0  0  0  0
 25 24  1  0  0  0  0
 25  3  1  0  0  0  0
 26 27  1  0  0  0  0
 26 25  2  0  0  0  0
 27 28  2  0  0  0  0
 28 52  1  0  0  0  0
 28  3  1  0  0  0  0
 29  8  1  0  0  0  0
 31  9  1  0  0  0  0
 38 15  1  0  0  0  0
 44 21  1  0  0  0  0
 45 22  1  0  0  0  0
 46 22  1  0  0  0  0
 48 23  1  0  0  0  0
 49 24  1  0  0  0  0
 50 26  1  0  0  0  0
 51 27  1  0  0  0  0
M  END
