4,5,6,8
q = -1.0

 68 69  0  0  1  0  0  0  0  0999 V2000
   -1.0734   -2.5813    0.5440 O   0  0  0  0  0  0  0  0  0  0  0  0
   -0.0204   -2.6155    0.1138 H   0  0  0  0  0  0  0  0  0  0  0  0
    1.2028   -2.4843   -0.3876 O   0  0  0  0  0  1  0  0  0  0  0  0
   -1.2434   -1.2789    0.8206 N   0  0  0  0  0  2  0  0  0  0  0  0
    1.3728   -1.1765   -0.4976 N   0  0  0  0  0  2  0  0  0  0  0  0
   -1.2102    1.3075    1.2208 N   0  0  0  0  0  0  0  0  0  0  0  0
   -0.6204    1.1405    2.0491 H   0  0  0  0  0  0  0  0  0  0  0  0
    1.5459    1.4266   -0.0088 N   0  0  0  0  0  0  0  0  0  0  0  0
    1.8174    1.2653    0.9728 H   0  0  0  0  0  0  0  0  0  0  0  0
   -2.3998   -0.8517    1.2335 C   0  0  1  0  0  3  0  0  0  0  0  0
   -2.5266    0.6534    1.5073 C   0  0  2  0  0  0  0  0  0  0  0  0
   -3.6412    1.1884    0.5737 C   0  0  0  0  0  0  0  0  0  0  0  0
   -3.8397    2.2569    0.7985 H   0  0  0  0  0  0  0  0  0  0  0  0
   -3.2638    1.1249   -0.4700 H   0  0  0  0  0  0  0  0  0  0  0  0
   -4.9384    0.3819    0.7155 C   0  0  0  0  0  0  0  0  0  0  0  0
   -5.7118    0.8202    0.0546 H   0  0  0  0  0  0  0  0  0  0  0  0
   -5.3408    0.4771    1.7468 H   0  0  0  0  0  0  0  0  0  0  0  0
   -4.7415   -1.1181    0.3902 C   0  0  2  0  0  0  0  0  0  0  0  0
   -5.6964   -1.6343    0.6443 H   0  0  0  0  0  0  0  0  0  0  0  0
   -3.6412   -1.6903    1.3211 C   0  0  0  0  0  0  0  0  0  0  0  0
   -4.0339   -1.6895    2.3608 H   0  0  0  0  0  0  0  0  0  0  0  0
   -3.3833   -2.7349    1.0664 H   0  0  0  0  0  0  0  0  0  0  0  0
   -4.5078   -1.3514   -1.0994 C   0  0  0  0  0  0  0  0  0  0  0  0
   -5.5634   -0.7772   -2.0155 C   0  0  0  0  0  0  0  0  0  0  0  0
   -5.4594   -1.1758   -3.0425 H   0  0  0  0  0  0  0  0  0  0  0  0
   -5.4888    0.3297   -2.0854 H   0  0  0  0  0  0  0  0  0  0  0  0
   -6.5904   -1.0052   -1.6556 H   0  0  0  0  0  0  0  0  0  0  0  0
   -3.4513   -2.0204   -1.6038 C   0  0  0  0  0  0  0  0  0  0  0  0
   -2.6444   -2.4446   -0.9871 H   0  0  0  0  0  0  0  0  0  0  0  0
   -3.3550   -2.1490   -2.6935 H   0  0  0  0  0  0  0  0  0  0  0  0
   -2.8743    0.8946    2.9923 C   0  0  0  0  0  0  0  0  0  0  0  0
   -2.0925    0.4598    3.6491 H   0  0  0  0  0  0  0  0  0  0  0  0
   -3.8382    0.4347    3.2794 H   0  0  0  0  0  0  0  0  0  0  0  0
   -2.9508    1.9820    3.1993 H   0  0  0  0  0  0  0  0  0  0  0  0
   -1.1937    2.7467    0.9119 C   0  0  0  0  0  0  0  0  0  0  0  0
   -1.8153    3.3311    1.6306 H   0  0  0  0  0  0  0  0  0  0  0  0
   -1.6274    2.8754   -0.1003 H   0  0  0  0  0  0  0  0  0  0  0  0
    0.2316    3.3166    0.9272 C   0  0  0  0  0  0  0  0  0  0  0  0
    0.6962    3.1362    1.9263 H   0  0  0  0  0  0  0  0  0  0  0  0
    0.1450    4.4193    0.8423 H   0  0  0  0  0  0  0  0  0  0  0  0
    1.1896    2.8450   -0.1760 C   0  0  0  0  0  0  0  0  0  0  0  0
    0.6924    2.9534   -1.1614 H   0  0  0  0  0  0  0  0  0  0  0  0
    2.0900    3.5027   -0.1694 H   0  0  0  0  0  0  0  0  0  0  0  0
    2.6615    0.8576   -0.8356 C   0  0  2  0  0  0  0  0  0  0  0  0
    2.5438   -0.6721   -0.7776 C   0  0  2  0  0  3  0  0  0  0  0  0
    3.7391   -1.5248   -1.0865 C   0  0  0  0  0  0  0  0  0  0  0  0
    3.9413   -1.4810   -2.1812 H   0  0  0  0  0  0  0  0  0  0  0  0
    3.4722   -2.5742   -0.8579 H   0  0  0  0  0  0  0  0  0  0  0  0
    5.0001   -1.0512   -0.3471 C   0  0  1  0  0  0  0  0  0  0  0  0
    5.8749   -1.6128   -0.7482 H   0  0  0  0  0  0  0  0  0  0  0  0
    5.2146    0.4437   -0.6853 C   0  0  0  0  0  0  0  0  0  0  0  0
    5.3546    0.5450   -1.7828 H   0  0  0  0  0  0  0  0  0  0  0  0
    6.1464    0.8286   -0.2234 H   0  0  0  0  0  0  0  0  0  0  0  0
    4.0238    1.2863   -0.2214 C   0  0  0  0  0  0  0  0  0  0  0  0
    3.9428    1.1837    0.8842 H   0  0  0  0  0  0  0  0  0  0  0  0
    4.2001    2.3614   -0.4359 H   0  0  0  0  0  0  0  0  0  0  0  0
    4.9690   -1.3103    1.1556 C   0  0  0  0  0  0  0  0  0  0  0  0
    6.1985   -0.8788    1.9182 C   0  0  0  0  0  0  0  0  0  0  0  0
    6.1720   -1.2324    2.9667 H   0  0  0  0  0  0  0  0  0  0  0  0
    6.3057    0.2277    1.9397 H   0  0  0  0  0  0  0  0  0  0  0  0
    7.1246   -1.2695    1.4432 H   0  0  0  0  0  0  0  0  0  0  0  0
    3.9300   -1.9034    1.7837 C   0  0  0  0  0  0  0  0  0  0  0  0
    3.9761   -2.0879    2.8696 H   0  0  0  0  0  0  0  0  0  0  0  0
    3.0207   -2.2441    1.2622 H   0  0  0  0  0  0  0  0  0  0  0  0
    2.5277    1.3257   -2.2962 C   0  0  0  0  0  0  0  0  0  0  0  0
    1.5040    1.1206   -2.6692 H   0  0  0  0  0  0  0  0  0  0  0  0
    3.2483    0.7786   -2.9333 H   0  0  0  0  0  0  0  0  0  0  0  0
    2.7414    2.4086   -2.4028 H   0  0  0  0  0  0  0  0  0  0  0  0
  1  4  1  0  0  0  0
  2  1  1  0  0  0  0
  5  3  1  0  0  0  0
  6  7  1  0  0  0  0
  8  9  1  0  0  0  0
 10  4  1  6  0  0  0
 10 20  1  0  0  0  0
 10 11  1  0  0  0  0
 11  6  1  6  0  0  0
 11 31  1  0  0  0  0
 12 15  1  0  0  0  0
 12 13  1  0  0  0  0
 12 11  1  0  0  0  0
 14 12  1  0  0  0  0
 15 17  1  0  0  0  0
 16 15  1  0  0  0  0
 18 19  1  1  0  0  0
 18 15  1  0  0  0  0
 18 20  1  0  0  0  0
 20 21  1  0  0  0  0
 22 20  1  0  0  0  0
 23 18  1  0  0  0  0
 24 27  1  0  0  0  0
 24 23  1  0  0  0  0
 25 24  1  0  0  0  0
 26 24  1  0  0  0  0
 28 23  2  0  0  0  0
 28 29  1  0  0  0  0
 30 28  1  0  0  0  0
 31 34  1  0  0  0  0
 31 33  1  0  0  0  0
 31 32  1  0  0  0  0
 35 38  1  0  0  0  0
 35  6  1  0  0  0  0
 35 36  1  0  0  0  0
 37 35  1  0  0  0  0
 38 39  1  0  0  0  0
 40 38  1  0  0  0  0
 41 43  1  0  0  0  0
 41  8  1  0  0  0  0
 41 38  1  0  0  0  0
 42 41  1  0  0  0  0
 44 65  1  6  0  0  0
 44 45  1  0  0  0  0
 44 54  1  0  0  0  0
 44  8  1  0  0  0  0
 45  5  1  6  0  0  0
 46 48  1  0  0  0  0
 46 45  1  0  0  0  0
 46 49  1  0  0  0  0
 47 46  1  0  0  0  0
 49 50  1  6  0  0  0
 49 57  1  0  0  0  0
 51 49  1  0  0  0  0
 51 53  1  0  0  0  0
 51 54  1  0  0  0  0
 52 51  1  0  0  0  0
 54 55  1  0  0  0  0
 56 54  1  0  0  0  0
 57 62  2  0  0  0  0
 57 58  1  0  0  0  0
 58 60  1  0  0  0  0
 58 59  1  0  0  0  0
 61 58  1  0  0  0  0
 62 63  1  0  0  0  0
 64 62  1  0  0  0  0
 66 65  1  0  0  0  0
 67 65  1  0  0  0  0
 68 65  1  0  0  0  0
M  END
