1,2,3,4
q = 0.0, confidence = 0.952

 41 43  0  0  1  0  0  0  0  0999 V2000
    1.8875   -0.5890   -0.5487 N   0  0  0  0  0  2  0  0  0  0  0  0
    0.1318   -1.1290    1.4102 N   0  0  0  0  0  0  0  0  0  0  0  0
    0.3519    1.3373    0.3682 N   0  0  0  0  0  2  0  0  0  0  0  0
   -1.8998   -0.3037    0.0044 N   0  0  0  0  0  2  0  0  0  0  0  0
   -2.5617    2.7885   -1.6763 N   0  0  0  0  0  0  0  0  0  0  0  0
    2.7076   -0.0647   -1.4844 C   0  0  0  0  0  3  0  0  0  0  0  0
    2.1852    0.4071   -2.3340 H   0  0  0  0  0  0  0  0  0  0  0  0
    4.1001   -0.1409   -1.3658 C   0  0  0  0  0  0  0  0  0  0  0  0
    4.7333    0.2947   -2.1520 H   0  0  0  0  0  0  0  0  0  0  0  0
    4.6611   -0.7635   -0.2412 C   0  0  0  0  0  0  0  0  0  0  0  0
    5.7523   -0.8242   -0.1158 H   0  0  0  0  0  0  0  0  0  0  0  0
    3.8023   -1.3150    0.7232 C   0  0  0  0  0  0  0  0  0  0  0  0
    4.1976   -1.8242    1.6144 H   0  0  0  0  0  0  0  0  0  0  0  0
    2.4196   -1.2239    0.5325 C   0  0  0  0  0  0  0  0  0  0  0  0
    1.3938   -1.9087    1.3941 C   0  0  0  0  0  0  0  0  0  0  0  0
    1.1473   -2.8566    0.8661 H   0  0  0  0  0  0  0  0  0  0  0  0
    1.7719   -2.1290    2.4166 H   0  0  0  0  0  0  0  0  0  0  0  0
    0.1345    0.0074    2.3727 C   0  0  0  0  0  0  0  0  0  0  0  0
    0.7504   -0.2223    3.2691 H   0  0  0  0  0  0  0  0  0  0  0  0
   -0.9090    0.1405    2.7287 H   0  0  0  0  0  0  0  0  0  0  0  0
    0.5667    1.2918    1.7149 C   0  0  2  0  0  3  0  0  0  0  0  0
    1.0742    2.3869    2.4209 C   0  0  0  0  0  0  0  0  0  0  0  0
    1.2461    2.3033    3.5044 H   0  0  0  0  0  0  0  0  0  0  0  0
    1.3522    3.5779    1.7314 C   0  0  0  0  0  0  0  0  0  0  0  0
    1.7512    4.4530    2.2650 H   0  0  0  0  0  0  0  0  0  0  0  0
    1.1126    3.6206    0.3490 C   0  0  0  0  0  0  0  0  0  0  0  0
    1.3063    4.5305   -0.2368 H   0  0  0  0  0  0  0  0  0  0  0  0
    0.6236    2.4852   -0.3022 C   0  0  0  0  0  0  0  0  0  0  0  0
    0.4185    2.4370   -1.3857 H   0  0  0  0  0  0  0  0  0  0  0  0
   -1.0870   -1.9725    1.5532 C   0  0  0  0  0  0  0  0  0  0  0  0
   -1.2812   -2.2700    2.6087 H   0  0  0  0  0  0  0  0  0  0  0  0
   -0.9149   -2.8685    0.9168 H   0  0  0  0  0  0  0  0  0  0  0  0
   -2.2496   -1.2219    0.9605 C   0  0  2  0  0  3  0  0  0  0  0  0
   -3.5728   -1.4408    1.3457 C   0  0  0  0  0  0  0  0  0  0  0  0
   -3.7923   -2.1954    2.1150 H   0  0  0  0  0  0  0  0  0  0  0  0
   -4.6003   -0.6936    0.7433 C   0  0  0  0  0  0  0  0  0  0  0  0
   -5.6538   -0.8650    1.0062 H   0  0  0  0  0  0  0  0  0  0  0  0
   -4.2442    0.3106   -0.1583 C   0  0  0  0  0  0  0  0  0  0  0  0
   -4.9938    0.9763   -0.6069 H   0  0  0  0  0  0  0  0  0  0  0  0
   -2.8844    0.5112   -0.4839 C   0  0  0  0  0  0  0  0  0  0  0  0
   -2.5678    1.6986   -1.2330 C   0  0  0  0  0  0  0  0  0  0  0  0
  1 14  1  0  0  0  0
  2 30  1  0  0  0  0
  2 18  1  0  0  0  0
  3 21  1  0  0  0  0
  4 33  1  0  0  0  0
  5 41  3  0  0  0  0
  6  8  1  0  0  0  0
  6  1  1  0  0  0  0
  7  6  1  0  0  0  0
  8 10  2  0  0  0  0
  9  8  1  0  0  0  0
 10 11  1  0  0  0  0
 10 12  1  0  0  0  0
 12 13  1  0  0  0  0
 14 12  2  0  0  0  0
 14 15  1  0  0  0  0
 15  2  1  0  0  0  0
 15 17  1  0  0  0  0
 16 15  1  0  0  0  0
 18 20  1  0  0  0  0
 18 19  1  0  0  0  0
 21 18  1  1  0  0  0
 21 22  1  0  0  0  0
 22 23  1  0  0  0  0
 24 25  1  0  0  0  0
 24 22  2  0  0  0  0
 26 24  1  0  0  0  0
 27 26  1  0  0  0  0
 28 26  2  0  0  0  0
 28  3  1  0  0  0  0
 29 28  1  0  0  0  0
 30 31  1  0  0  0  0
 32 30  1  0  0  0  0
 33 34  1  0  0  0  0
 33 30  1  6  0  0  0
 34 35  1  0  0  0  0
 36 37  1  0  0  0  0
 36 34  2  0  0  0  0
 38 36  1  0  0  0  0
 39 38  1  0  0  0  0
 40 38  2  0  0  0  0
 40  4  1  0  0  0  0
 41 40  1  0  0  0  0
M  END
