3,4,5,6
q = -2.0, confidence = 0.96

 39 41  0  0  1  0  0  0  0  0999 V2000
   -2.2784    2.9103    0.9415 O   0  0  0  0  0  0  0  0  0  0  0  0
   -0.5278   -3.7108   -1.0711 O   0  0  0  0  0  0  0  0  0  0  0  0
    1.1072    1.8765    0.3751 N   0  0  0  0  0  2  0  0  0  0  0  0
   -1.2848    0.8879    0.3102 N   0  0  0  0  0  2  0  0  0  0  0  0
   -0.6581   -1.4709   -0.4099 N   0  0  0  0  0  2  0  0  0  0  0  0
    1.9122   -1.2019   -0.2904 N   0  0  0  0  0  2  0  0  0  0  0  0
    2.3645    2.3638    0.3096 C   0  0  0  0  0  3  0  0  0  0  0  0
    3.1561    1.6689    0.0004 H   0  0  0  0  0  0  0  0  0  0  0  0
    2.6807    3.6946    0.6095 C   0  0  0  0  0  0  0  0  0  0  0  0
    3.7248    4.0304    0.5394 H   0  0  0  0  0  0  0  0  0  0  0  0
    1.6521    4.5693    0.9937 C   0  0  0  0  0  0  0  0  0  0  0  0
    1.8708    5.6185    1.2421 H   0  0  0  0  0  0  0  0  0  0  0  0
    0.3426    4.0785    1.0394 C   0  0  0  0  0  0  0  0  0  0  0  0
   -0.5303    4.6930    1.3049 H   0  0  0  0  0  0  0  0  0  0  0  0
    0.1041    2.7354    0.7188 C   0  0  0  0  0  0  0  0  0  0  0  0
   -1.3002    2.1988    0.6841 C   0  0  0  0  0  0  0  0  0  0  0  0
   -2.3943    0.0536    0.1050 C   0  0  0  0  0  0  0  0  0  0  0  0
   -3.7483    0.4147    0.2559 C   0  0  0  0  0  0  0  0  0  0  0  0
   -3.9901    1.4397    0.5634 H   0  0  0  0  0  0  0  0  0  0  0  0
   -4.7607   -0.5356    0.0183 C   0  0  0  0  0  0  0  0  0  0  0  0
   -4.3921   -1.8446   -0.3696 C   0  0  0  0  0  0  0  0  0  0  0  0
   -5.1795   -2.5917   -0.5550 H   0  0  0  0  0  0  0  0  0  0  0  0
   -3.0533   -2.2230   -0.5293 C   0  0  0  0  0  0  0  0  0  0  0  0
   -2.7695   -3.2370   -0.8353 H   0  0  0  0  0  0  0  0  0  0  0  0
   -2.0410   -1.2694   -0.2947 C   0  0  0  0  0  0  0  0  0  0  0  0
   -0.0230   -2.6251   -0.7606 C   0  0  0  0  0  0  0  0  0  0  0  0
    1.4651   -2.4283   -0.6888 C   0  0  2  0  0  3  0  0  0  0  0  0
    2.3363   -3.4899   -0.9688 C   0  0  0  0  0  0  0  0  0  0  0  0
    1.8820   -4.4409   -1.2839 H   0  0  0  0  0  0  0  0  0  0  0  0
    3.7145   -3.2989   -0.8232 C   0  0  0  0  0  0  0  0  0  0  0  0
    4.4229   -4.1128   -1.0377 H   0  0  0  0  0  0  0  0  0  0  0  0
    4.1733   -2.0472   -0.3826 C   0  0  0  0  0  0  0  0  0  0  0  0
    5.2436   -1.8470   -0.2337 H   0  0  0  0  0  0  0  0  0  0  0  0
    3.2417   -1.0332   -0.1284 C   0  0  0  0  0  0  0  0  0  0  0  0
    3.5832   -0.0512    0.2241 H   0  0  0  0  0  0  0  0  0  0  0  0
   -6.2130   -0.1667    0.1778 C   0  0  0  0  0  0  0  0  0  0  0  0
   -6.3375    0.8927    0.4706 H   0  0  0  0  0  0  0  0  0  0  0  0
   -6.7027   -0.7952    0.9506 H   0  0  0  0  0  0  0  0  0  0  0  0
   -6.7737   -0.3302   -0.7658 H   0  0  0  0  0  0  0  0  0  0  0  0
  2 26  2  0  0  0  0
  3 15  1  0  0  0  0
  4 16  1  0  0  0  0
  5 25  1  0  0  0  0
  6 34  1  0  0  0  0
  7  3  1  0  0  0  0
  7  9  1  0  0  0  0
  8  7  1  0  0  0  0
  9 11  2  0  0  0  0
 10  9  1  0  0  0  0
 11 13  1  0  0  0  0
 11 12  1  0  0  0  0
 13 14  1  0  0  0  0
 15 13  2  0  0  0  0
 16 15  1  0  0  0  0
 16  1  2  0  0  0  0
 17 18  1  0  0  0  0
 17  4  1  0  0  0  0
 18 19  1  0  0  0  0
 20 36  1  0  0  0  0
 20 18  2  0  0  0  0
 21 20  1  0  0  0  0
 22 21  1  0  0  0  0
 23 21  2  0  0  0  0
 23 25  1  0  0  0  0
 24 23  1  0  0  0  0
 25 17  2  0  0  0  0
 26  5  1  0  0  0  0
 27 26  1  1  0  0  0
 27  6  1  0  0  0  0
 28 30  2  0  0  0  0
 28 27  1  0  0  0  0
 29 28  1  0  0  0  0
 30 32  1  0  0  0  0
 31 30  1  0  0  0  0
 32 33  1  0  0  0  0
 32 34  2  0  0  0  0
 34 35  1  0  0  0  0
 36 37  1  0  0  0  0
 36 38  1  0  0  0  0
 39 36  1  0  0  0  0
M  END
