1,2,3,4
q = 0.0, confidence = 1.0

 31 30  0  0  0  0  0  0  0  0999 V2000
    1.2076    1.3507   -1.7501 N   0  0  0  0  0  0  0  0  0  0  0  0
   -0.3205    1.4190    0.4984 N   0  0  0  0  0  0  0  0  0  0  0  0
    2.1344   -0.0758    0.7358 N   0  0  0  0  0  0  0  0  0  0  0  0
    1.4290   -1.5828   -1.4423 N   0  0  0  0  0  0  0  0  0  0  0  0
    0.4003    2.5822   -1.5013 C   0  0  0  0  0  0  0  0  0  0  0  0
    0.2296    2.6990    0.0002 C   0  0  0  0  0  0  0  0  0  0  0  0
   -0.3402    1.3170    1.9747 C   0  0  0  0  0  0  0  0  0  0  0  0
    1.0451    1.2125    2.6065 C   0  0  0  0  0  0  0  0  0  0  0  0
    1.8164   -0.0329    2.1954 C   0  0  0  0  0  0  0  0  0  0  0  0
    2.9302   -1.2951    0.4148 C   0  0  0  0  0  0  0  0  0  0  0  0
    2.8638   -1.5669   -1.0760 C   0  0  0  0  0  0  0  0  0  0  0  0
    2.2065    1.5740   -1.6092 H   0  0  0  0  0  0  0  0  0  0  0  0
    1.1402    1.0876   -2.7451 H   0  0  0  0  0  0  0  0  0  0  0  0
   -1.3495    1.3962    0.1604 H   0  0  0  0  0  0  0  0  0  0  0  0
    2.7182    0.7503    0.5260 H   0  0  0  0  0  0  0  0  0  0  0  0
    1.3064   -1.6752   -2.4616 H   0  0  0  0  0  0  0  0  0  0  0  0
    0.9646   -2.3993   -1.0054 H   0  0  0  0  0  0  0  0  0  0  0  0
   -0.5880    2.4568   -1.9868 H   0  0  0  0  0  0  0  0  0  0  0  0
    0.8749    3.4850   -1.9371 H   0  0  0  0  0  0  0  0  0  0  0  0
   -0.4503    3.5394    0.2576 H   0  0  0  0  0  0  0  0  0  0  0  0
    1.2069    2.9132    0.4835 H   0  0  0  0  0  0  0  0  0  0  0  0
   -0.9447    0.4262    2.2318 H   0  0  0  0  0  0  0  0  0  0  0  0
   -0.8772    2.2029    2.3782 H   0  0  0  0  0  0  0  0  0  0  0  0
    1.6487    2.1285    2.4198 H   0  0  0  0  0  0  0  0  0  0  0  0
    0.9163    1.1755    3.7071 H   0  0  0  0  0  0  0  0  0  0  0  0
    2.7691   -0.1022    2.7646 H   0  0  0  0  0  0  0  0  0  0  0  0
    1.2157   -0.9384    2.4042 H   0  0  0  0  0  0  0  0  0  0  0  0
    2.4614   -2.1351    0.9655 H   0  0  0  0  0  0  0  0  0  0  0  0
    3.9773   -1.2030    0.7718 H   0  0  0  0  0  0  0  0  0  0  0  0
    3.3700   -0.7682   -1.6589 H   0  0  0  0  0  0  0  0  0  0  0  0
    3.3731   -2.5218   -1.3251 H   0  0  0  0  0  0  0  0  0  0  0  0
  1 12  1  0  0  0  0
  1  5  1  0  0  0  0
  2  7  1  0  0  0  0
  3  9  1  0  0  0  0
  4 11  1  0  0  0  0
  4 17  1  0  0  0  0
  5  6  1  0  0  0  0
  6 20  1  0  0  0  0
  6 21  1  0  0  0  0
  6  2  1  0  0  0  0
  7 22  1  0  0  0  0
  7 23  1  0  0  0  0
  7  8  1  0  0  0  0
  8 25  1  0  0  0  0
  9 27  1  0  0  0  0
  9  8  1  0  0  0  0
  9 26  1  0  0  0  0
 10  3  1  0  0  0  0
 10 29  1  0  0  0  0
 10 28  1  0  0  0  0
 11 10  1  0  0  0  0
 13  1  1  0  0  0  0
 14  2  1  0  0  0  0
 15  3  1  0  0  0  0
 16  4  1  0  0  0  0
 18  5  1  0  0  0  0
 19  5  1  0  0  0  0
 24  8  1  0  0  0  0
 30 11  1  0  0  0  0
 31 11  1  0  0  0  0
M  END
