1,4,5,8
q = 0.0, confidence = 0.998

 48 51  0  0  1  0  0  0  0  0999 V2000
   -1.1053   -1.1049   -0.9143 N   0  0  0  0  0  2  0  0  0  0  0  0
    0.2755   -3.0371   -0.9096 N   0  0  0  0  0  0  0  0  0  0  0  0
    0.2515   -4.0560   -0.9077 H   0  0  0  0  0  0  0  0  0  0  0  0
    1.6821   -1.1746   -0.4969 N   0  0  0  0  0  2  0  0  0  0  0  0
    1.6820    1.1747    0.4968 N   0  0  0  0  0  2  0  0  0  0  0  0
    0.2753    3.0371    0.9096 N   0  0  0  0  0  0  0  0  0  0  0  0
    0.2512    4.0560    0.9077 H   0  0  0  0  0  0  0  0  0  0  0  0
   -1.1054    1.1048    0.9143 N   0  0  0  0  0  2  0  0  0  0  0  0
   -2.2492   -0.5190   -1.3615 C   0  0  0  0  0  3  0  0  0  0  0  0
   -2.2751    0.5740   -1.2658 H   0  0  0  0  0  0  0  0  0  0  0  0
   -3.3304   -1.2120   -1.9117 C   0  0  0  0  0  0  0  0  0  0  0  0
   -4.5711   -0.4864   -2.3575 C   0  0  0  0  0  0  0  0  0  0  0  0
   -5.4744   -0.8792   -1.8457 H   0  0  0  0  0  0  0  0  0  0  0  0
   -4.7389   -0.6058   -3.4483 H   0  0  0  0  0  0  0  0  0  0  0  0
   -4.5019    0.5976   -2.1444 H   0  0  0  0  0  0  0  0  0  0  0  0
   -3.1986   -2.6150   -2.0159 C   0  0  0  0  0  0  0  0  0  0  0  0
   -4.0239   -3.2247   -2.4147 H   0  0  0  0  0  0  0  0  0  0  0  0
   -2.0002   -3.2207   -1.6527 C   0  0  0  0  0  0  0  0  0  0  0  0
   -1.8476   -4.3020   -1.7853 H   0  0  0  0  0  0  0  0  0  0  0  0
   -0.9450   -2.4305   -1.1378 C   0  0  0  0  0  0  0  0  0  0  0  0
    1.5354   -2.5014   -0.7312 C   0  0  1  0  0  3  0  0  0  0  0  0
    2.6427   -3.3759   -0.7729 C   0  0  0  0  0  0  0  0  0  0  0  0
    2.4779   -4.4437   -0.9760 H   0  0  0  0  0  0  0  0  0  0  0  0
    3.9242   -2.8743   -0.5415 C   0  0  0  0  0  0  0  0  0  0  0  0
    4.7944   -3.5453   -0.5648 H   0  0  0  0  0  0  0  0  0  0  0  0
    4.0759   -1.5147   -0.2439 C   0  0  0  0  0  0  0  0  0  0  0  0
    5.0589   -1.0956    0.0059 H   0  0  0  0  0  0  0  0  0  0  0  0
    2.9356   -0.6998   -0.2075 C   0  0  0  0  0  0  0  0  0  0  0  0
    2.9355    0.7000    0.2075 C   0  0  1  0  0  3  0  0  0  0  0  0
    4.0757    1.5150    0.2439 C   0  0  0  0  0  0  0  0  0  0  0  0
    5.0588    1.0960   -0.0060 H   0  0  0  0  0  0  0  0  0  0  0  0
    3.9240    2.8746    0.5415 C   0  0  0  0  0  0  0  0  0  0  0  0
    4.7942    3.5457    0.5647 H   0  0  0  0  0  0  0  0  0  0  0  0
    2.6424    3.3761    0.7729 C   0  0  0  0  0  0  0  0  0  0  0  0
    2.4776    4.4439    0.9760 H   0  0  0  0  0  0  0  0  0  0  0  0
    1.5352    2.5015    0.7312 C   0  0  0  0  0  0  0  0  0  0  0  0
   -0.9452    2.4304    1.1378 C   0  0  1  0  0  3  0  0  0  0  0  0
   -2.0004    3.2205    1.6528 C   0  0  0  0  0  0  0  0  0  0  0  0
   -1.8479    4.3018    1.7854 H   0  0  0  0  0  0  0  0  0  0  0  0
   -3.1988    2.6147    2.0159 C   0  0  0  0  0  0  0  0  0  0  0  0
   -4.0241    3.2244    2.4148 H   0  0  0  0  0  0  0  0  0  0  0  0
   -3.3305    1.2117    1.9117 C   0  0  0  0  0  0  0  0  0  0  0  0
   -4.5711    0.4860    2.3575 C   0  0  0  0  0  0  0  0  0  0  0  0
   -5.4745    0.8793    1.8465 H   0  0  0  0  0  0  0  0  0  0  0  0
   -4.7384    0.6046    3.4485 H   0  0  0  0  0  0  0  0  0  0  0  0
   -4.5022   -0.5978    2.1437 H   0  0  0  0  0  0  0  0  0  0  0  0
   -2.2492    0.5188    1.3614 C   0  0  0  0  0  0  0  0  0  0  0  0
   -2.2751   -0.5742    1.2657 H   0  0  0  0  0  0  0  0  0  0  0  0
  2  3  1  0  0  0  0
  4 28  1  0  0  0  0
  5 36  1  0  0  0  0
  7  6  1  0  0  0  0
  8 37  1  0  0  0  0
  8 47  1  0  0  0  0
  9 10  1  0  0  0  0
  9  1  1  0  0  0  0
 11  9  1  0  0  0  0
 12 15  1  0  0  0  0
 12 11  1  0  0  0  0
 12 13  1  0  0  0  0
 14 12  1  0  0  0  0
 16 11  2  0  0  0  0
 16 18  1  0  0  0  0
 17 16  1  0  0  0  0
 18 20  2  0  0  0  0
 19 18  1  0  0  0  0
 20  1  1  0  0  0  0
 20  2  1  0  0  0  0
 21  2  1  1  0  0  0
 21  4  1  0  0  0  0
 22 21  1  0  0  0  0
 22 24  2  0  0  0  0
 23 22  1  0  0  0  0
 24 26  1  0  0  0  0
 25 24  1  0  0  0  0
 26 28  2  0  0  0  0
 26 27  1  0  0  0  0
 29 28  1  6  0  0  0
 29 30  1  0  0  0  0
 29  5  1  0  0  0  0
 30 32  2  0  0  0  0
 31 30  1  0  0  0  0
 32 33  1  0  0  0  0
 32 34  1  0  0  0  0
 34 35  1  0  0  0  0
 36 34  2  0  0  0  0
 36  6  1  0  0  0  0
 37  6  1  1  0  0  0
 37 38  1  0  0  0  0
 38 39  1  0  0  0  0
 38 40  2  0  0  0  0
 40 41  1  0  0  0  0
 42 40  1  0  0  0  0
 42 43  1  0  0  0  0
 43 45  1  0  0  0  0
 44 43  1  0  0  0  0
 46 43  1  0  0  0  0
 47 42  2  0  0  0  0
 48 47  1  0  0  0  0
M  END
