2,12,44,49
q = -1.0, confidence = 0.072

 51 54  0  0  1  0  0  0  0  0999 V2000
    2.7041    1.2366   -0.5525 C   0  0  0  0  0  0  0  0  0  0  0  0
    1.4362    1.7376   -0.4279 N   0  0  0  0  0  2  0  0  0  0  0  0
    1.1905    3.0054   -0.7925 C   0  0  0  0  0  0  0  0  0  0  0  0
    0.1368    3.3191   -0.7681 H   0  0  0  0  0  0  0  0  0  0  0  0
    2.2073    3.8787   -1.1990 C   0  0  0  0  0  0  0  0  0  0  0  0
    1.9588    4.9126   -1.4761 H   0  0  0  0  0  0  0  0  0  0  0  0
    3.5279    3.4045   -1.2409 C   0  0  0  0  0  0  0  0  0  0  0  0
    4.3532    4.0686   -1.5375 H   0  0  0  0  0  0  0  0  0  0  0  0
    3.7793    2.0645   -0.9275 C   0  0  0  0  0  0  0  0  0  0  0  0
    4.7915    1.6409   -0.9831 H   0  0  0  0  0  0  0  0  0  0  0  0
   -2.6622    0.8587    0.5363 C   0  0  2  0  0  3  0  0  0  0  0  0
   -1.3922    1.3375    0.6925 N   0  0  0  0  0  2  0  0  0  0  0  0
   -1.1799    2.5256    1.3022 C   0  0  0  0  0  0  0  0  0  0  0  0
   -0.1283    2.7701    1.5039 H   0  0  0  0  0  0  0  0  0  0  0  0
   -2.2156    3.3661    1.7048 C   0  0  0  0  0  0  0  0  0  0  0  0
   -1.9836    4.3273    2.1838 H   0  0  0  0  0  0  0  0  0  0  0  0
   -3.5361    2.9297    1.5050 C   0  0  0  0  0  0  0  0  0  0  0  0
   -4.3897    3.5500    1.8170 H   0  0  0  0  0  0  0  0  0  0  0  0
   -3.7522    1.6732    0.9458 C   0  0  0  0  0  0  0  0  0  0  0  0
   -4.7695    1.2761    0.8422 H   0  0  0  0  0  0  0  0  0  0  0  0
    4.0739   -0.9587   -0.1910 C   0  0  0  0  0  0  0  0  0  0  0  0
    4.3860   -1.5074    1.0748 C   0  0  0  0  0  0  0  0  0  0  0  0
    3.6927   -1.3309    1.9134 H   0  0  0  0  0  0  0  0  0  0  0  0
    5.5706   -2.2360    1.2491 C   0  0  0  0  0  0  0  0  0  0  0  0
    5.8122   -2.6572    2.2366 H   0  0  0  0  0  0  0  0  0  0  0  0
    6.4514   -2.4178    0.1697 C   0  0  0  0  0  0  0  0  0  0  0  0
    7.3813   -2.9895    0.3092 H   0  0  0  0  0  0  0  0  0  0  0  0
    6.1466   -1.8714   -1.0875 C   0  0  0  0  0  0  0  0  0  0  0  0
    6.8342   -2.0185   -1.9339 H   0  0  0  0  0  0  0  0  0  0  0  0
    4.9606   -1.1453   -1.2721 C   0  0  0  0  0  0  0  0  0  0  0  0
    4.7083   -0.7316   -2.2603 H   0  0  0  0  0  0  0  0  0  0  0  0
   -4.2796   -0.9671   -0.2631 C   0  0  0  0  0  0  0  0  0  0  0  0
   -4.8149   -2.1816    0.2184 C   0  0  0  0  0  0  0  0  0  0  0  0
   -4.2120   -2.7804    0.9166 H   0  0  0  0  0  0  0  0  0  0  0  0
   -6.0795   -2.6166   -0.1974 C   0  0  0  0  0  0  0  0  0  0  0  0
   -6.4852   -3.5626    0.1930 H   0  0  0  0  0  0  0  0  0  0  0  0
   -6.8301   -1.8519   -1.1066 C   0  0  0  0  0  0  0  0  0  0  0  0
   -7.8246   -2.1946   -1.4307 H   0  0  0  0  0  0  0  0  0  0  0  0
   -6.2976   -0.6538   -1.6086 C   0  0  0  0  0  0  0  0  0  0  0  0
   -6.8662   -0.0608   -2.3414 H   0  0  0  0  0  0  0  0  0  0  0  0
   -5.0313   -0.2162   -1.1949 C   0  0  0  0  0  0  0  0  0  0  0  0
   -4.5996    0.7032   -1.6195 H   0  0  0  0  0  0  0  0  0  0  0  0
    2.8086   -0.2013   -0.3240 C   0  0  0  0  0  0  0  0  0  0  0  0
    1.6295   -0.7580   -0.1417 N   0  0  0  0  0  2  0  0  0  0  0  0
    1.3978   -2.0436    0.0925 N   0  0  0  0  0  0  0  0  0  0  0  0
    2.1635   -2.7226    0.1565 H   0  0  0  0  0  0  0  0  0  0  0  0
    0.0615   -2.4371    0.3745 C   0  0  0  0  0  0  0  0  0  0  0  0
   -0.2359   -3.6000    0.5558 O   0  0  0  0  0  0  0  0  0  0  0  0
   -0.7585   -1.2974    0.3792 N   0  0  0  0  0  2  0  0  0  0  0  0
   -2.0318   -1.5113    0.2233 N   0  0  0  0  0  2  0  0  0  0  0  0
   -2.9125   -0.5382    0.1360 C   0  0  2  0  0  3  0  0  0  0  0  0
  1  2  1  0  0  0  0
  1 43  2  0  0  0  0
  3  4  1  0  0  0  0
  3  2  1  0  0  0  0
  5  3  2  0  0  0  0
  6  5  1  0  0  0  0
  7  5  1  0  0  0  0
  7  9  2  0  0  0  0
  8  7  1  0  0  0  0
  9  1  1  0  0  0  0
 10  9  1  0  0  0  0
 11 51  1  1  0  0  0
 11 12  1  0  0  0  0
 11 19  1  0  0  0  0
 12 13  1  0  0  0  0
 13 14  1  0  0  0  0
 13 15  2  0  0  0  0
 15 16  1  0  0  0  0
 17 15  1  0  0  0  0
 17 18  1  0  0  0  0
 19 17  2  0  0  0  0
 20 19  1  0  0  0  0
 21 22  1  0  0  0  0
 22 24  2  0  0  0  0
 22 23  1  0  0  0  0
 24 25  1  0  0  0  0
 26 27  1  0  0  0  0
 26 24  1  0  0  0  0
 28 26  2  0  0  0  0
 29 28  1  0  0  0  0
 30 28  1  0  0  0  0
 30 21  2  0  0  0  0
 31 30  1  0  0  0  0
 32 51  1  0  0  0  0
 32 33  1  0  0  0  0
 33 34  1  0  0  0  0
 35 36  1  0  0  0  0
 35 33  2  0  0  0  0
 37 35  1  0  0  0  0
 38 37  1  0  0  0  0
 39 41  1  0  0  0  0
 39 37  2  0  0  0  0
 40 39  1  0  0  0  0
 41 32  2  0  0  0  0
 42 41  1  0  0  0  0
 43 21  1  0  0  0  0
 43 44  1  0  0  0  0
 44 45  1  0  0  0  0
 45 46  1  0  0  0  0
 45 47  1  0  0  0  0
 47 49  1  0  0  0  0
 47 48  2  0  0  0  0
 50 49  1  0  0  0  0
 51 50  1  1  0  0  0
M  END
