1,2,3,4
q = -1.0

 36 38  0  0  1  0  0  0  0  0999 V2000
    2.2508    0.6120   -0.1351 N   0  0  0  0  0  2  0  0  0  0  0  0
    0.9648   -1.5089    0.0281 N   0  0  0  0  0  2  0  0  0  0  0  0
   -1.4134   -0.8230   -0.0602 N   0  0  0  0  0  2  0  0  0  0  0  0
   -1.3434    1.7257    0.1470 N   0  0  0  0  0  2  0  0  0  0  0  0
   -3.7514   -0.8092   -0.2967 O   0  0  0  0  0  0  0  0  0  0  0  0
    2.8225    1.8322   -0.2595 C   0  0  0  0  0  3  0  0  0  0  0  0
    4.1994    2.0152   -0.2323 C   0  0  0  0  0  0  0  0  0  0  0  0
    5.0436    0.8818   -0.0816 C   0  0  0  0  0  0  0  0  0  0  0  0
    4.4716   -0.3747    0.0300 C   0  0  0  0  0  0  0  0  0  0  0  0
    3.0541   -0.5023    0.0054 C   0  0  0  0  0  0  0  0  0  0  0  0
    2.3030   -1.6848    0.0919 C   0  0  0  0  0  3  0  0  0  0  0  0
    0.0928   -2.6045    0.0386 C   0  0  0  0  0  0  0  0  0  0  0  0
    0.4482   -3.9644    0.0952 C   0  0  0  0  0  0  0  0  0  0  0  0
   -0.5589   -4.9387    0.0785 C   0  0  0  0  0  0  0  0  0  0  0  0
   -1.9089   -4.5565    0.0024 C   0  0  0  0  0  0  0  0  0  0  0  0
   -2.2772   -3.2040   -0.0569 C   0  0  0  0  0  0  0  0  0  0  0  0
   -1.2697   -2.2156   -0.0356 C   0  0  0  0  0  0  0  0  0  0  0  0
   -2.6730   -0.2333   -0.1553 C   0  0  0  0  0  0  0  0  0  0  0  0
   -2.5904    1.2490   -0.0230 C   0  0  1  0  0  3  0  0  0  0  0  0
   -3.7162    2.0814   -0.0363 C   0  0  0  0  0  0  0  0  0  0  0  0
   -3.5278    3.4578    0.1340 C   0  0  0  0  0  0  0  0  0  0  0  0
   -2.2228    3.9450    0.3263 C   0  0  0  0  0  0  0  0  0  0  0  0
   -1.1511    3.0466    0.3310 C   0  0  0  0  0  0  0  0  0  0  0  0
    2.1362    2.6790   -0.4122 H   0  0  0  0  0  0  0  0  0  0  0  0
    4.6146    3.0264   -0.3414 H   0  0  0  0  0  0  0  0  0  0  0  0
    6.1367    1.0021   -0.0640 H   0  0  0  0  0  0  0  0  0  0  0  0
    5.0853   -1.2808    0.1359 H   0  0  0  0  0  0  0  0  0  0  0  0
    2.7570   -2.6807    0.1820 H   0  0  0  0  0  0  0  0  0  0  0  0
    1.5018   -4.2698    0.1501 H   0  0  0  0  0  0  0  0  0  0  0  0
   -0.2860   -6.0035    0.1226 H   0  0  0  0  0  0  0  0  0  0  0  0
   -2.6956   -5.3257   -0.0146 H   0  0  0  0  0  0  0  0  0  0  0  0
   -3.3259   -2.8991   -0.1244 H   0  0  0  0  0  0  0  0  0  0  0  0
   -4.7022    1.6166   -0.1768 H   0  0  0  0  0  0  0  0  0  0  0  0
   -4.3851    4.1470    0.1265 H   0  0  0  0  0  0  0  0  0  0  0  0
   -2.0300    5.0163    0.4789 H   0  0  0  0  0  0  0  0  0  0  0  0
   -0.1169    3.3779    0.5061 H   0  0  0  0  0  0  0  0  0  0  0  0
  1 10  1  0  0  0  0
  2 12  1  0  0  0  0
  2 11  1  0  0  0  0
  3 17  1  0  0  0  0
  4 23  1  0  0  0  0
  5 18  2  0  0  0  0
  6  7  1  0  0  0  0
  6  1  1  0  0  0  0
  7  8  2  0  0  0  0
  8 26  1  0  0  0  0
  8  9  1  0  0  0  0
  9 27  1  0  0  0  0
 10  9  2  0  0  0  0
 10 11  1  0  0  0  0
 11 28  1  0  0  0  0
 12 13  1  0  0  0  0
 13 29  1  0  0  0  0
 14 13  2  0  0  0  0
 14 30  1  0  0  0  0
 15 14  1  0  0  0  0
 16 17  1  0  0  0  0
 16 15  2  0  0  0  0
 17 12  2  0  0  0  0
 18  3  1  0  0  0  0
 19 18  1  1  0  0  0
 19  4  1  0  0  0  0
 20 19  1  0  0  0  0
 20 21  2  0  0  0  0
 21 22  1  0  0  0  0
 22 23  2  0  0  0  0
 22 35  1  0  0  0  0
 23 36  1  0  0  0  0
 24  6  1  0  0  0  0
 25  7  1  0  0  0  0
 31 15  1  0  0  0  0
 32 16  1  0  0  0  0
 33 20  1  0  0  0  0
 34 21  1  0  0  0  0
M  END
