1,11,20,29
q = 0.0, confidence = 1.0

 38 41  0  0  1  0  0  0  0  0999 V2000
   -2.2123   -1.1849    0.0001 N   0  0  0  0  0  2  0  0  0  0  0  0
   -3.0672   -0.1638    0.0001 C   0  0  1  0  0  3  0  0  0  0  0  0
   -4.7305   -0.6653    0.0005 S   0  0  0  0  0  0  0  0  0  0  0  0
   -4.2256   -2.3148    0.0006 C   0  0  0  0  0  0  0  0  0  0  0  0
   -4.9613   -3.1277    0.0008 H   0  0  0  0  0  0  0  0  0  0  0  0
   -2.8436   -2.4110    0.0004 C   0  0  0  0  0  0  0  0  0  0  0  0
   -2.0454   -3.6756    0.0005 C   0  0  0  0  0  0  0  0  0  0  0  0
   -1.3924   -3.7248    0.8959 H   0  0  0  0  0  0  0  0  0  0  0  0
   -1.3914   -3.7244   -0.8942 H   0  0  0  0  0  0  0  0  0  0  0  0
   -2.7020   -4.5643    0.0000 H   0  0  0  0  0  0  0  0  0  0  0  0
   -1.3084    1.4103    0.0003 N   0  0  0  0  0  2  0  0  0  0  0  0
   -0.7500    2.6279   -0.0002 C   0  0  0  0  0  0  0  0  0  0  0  0
   -1.5522    3.7883   -0.0011 C   0  0  0  0  0  0  0  0  0  0  0  0
   -1.1080    4.7930   -0.0017 H   0  0  0  0  0  0  0  0  0  0  0  0
   -2.9478    3.6351   -0.0015 C   0  0  0  0  0  0  0  0  0  0  0  0
   -3.5979    4.5222   -0.0022 H   0  0  0  0  0  0  0  0  0  0  0  0
   -3.5137    2.3531   -0.0010 C   0  0  0  0  0  0  0  0  0  0  0  0
   -4.6058    2.2189   -0.0014 H   0  0  0  0  0  0  0  0  0  0  0  0
   -2.6362    1.2474   -0.0002 C   0  0  0  0  0  0  0  0  0  0  0  0
    1.3084    1.4103   -0.0003 N   0  0  0  0  0  2  0  0  0  0  0  0
    0.7500    2.6279    0.0002 C   0  0  0  0  0  0  0  0  0  0  0  0
    1.5522    3.7883    0.0012 C   0  0  0  0  0  0  0  0  0  0  0  0
    1.1080    4.7930    0.0018 H   0  0  0  0  0  0  0  0  0  0  0  0
    2.9478    3.6351    0.0015 C   0  0  0  0  0  0  0  0  0  0  0  0
    3.5979    4.5221    0.0022 H   0  0  0  0  0  0  0  0  0  0  0  0
    3.5137    2.3531    0.0010 C   0  0  0  0  0  0  0  0  0  0  0  0
    4.6058    2.2189    0.0013 H   0  0  0  0  0  0  0  0  0  0  0  0
    2.6363    1.2474    0.0002 C   0  0  0  0  0  0  0  0  0  0  0  0
    2.2123   -1.1849   -0.0001 N   0  0  0  0  0  2  0  0  0  0  0  0
    3.0672   -0.1639   -0.0001 C   0  0  1  0  0  3  0  0  0  0  0  0
    4.7305   -0.6653   -0.0005 S   0  0  0  0  0  0  0  0  0  0  0  0
    4.2255   -2.3148   -0.0006 C   0  0  0  0  0  0  0  0  0  0  0  0
    4.9613   -3.1277   -0.0008 H   0  0  0  0  0  0  0  0  0  0  0  0
    2.8435   -2.4110   -0.0004 C   0  0  0  0  0  0  0  0  0  0  0  0
    2.0453   -3.6756   -0.0005 C   0  0  0  0  0  0  0  0  0  0  0  0
    1.3916   -3.7243   -0.8953 H   0  0  0  0  0  0  0  0  0  0  0  0
    1.3921   -3.7248    0.8948 H   0  0  0  0  0  0  0  0  0  0  0  0
    2.7020   -4.5643   -0.0009 H   0  0  0  0  0  0  0  0  0  0  0  0
  1  2  1  0  0  0  0
  1  6  1  0  0  0  0
  2 19  1  1  0  0  0
  2  3  1  0  0  0  0
  3  4  1  0  0  0  0
  4  5  1  0  0  0  0
  6  7  1  0  0  0  0
  6  4  2  0  0  0  0
  7  8  1  0  0  0  0
  9  7  1  0  0  0  0
 10  7  1  0  0  0  0
 12 21  2  0  0  0  0
 12 11  1  0  0  0  0
 13 12  1  0  0  0  0
 14 13  1  0  0  0  0
 15 13  2  0  0  0  0
 15 17  1  0  0  0  0
 16 15  1  0  0  0  0
 17 19  2  0  0  0  0
 18 17  1  0  0  0  0
 19 11  1  0  0  0  0
 20 28  1  0  0  0  0
 20 21  1  0  0  0  0
 21 22  1  0  0  0  0
 22 24  2  0  0  0  0
 22 23  1  0  0  0  0
 24 25  1  0  0  0  0
 26 27  1  0  0  0  0
 26 24  1  0  0  0  0
 28 26  2  0  0  0  0
 29 30  1  0  0  0  0
 30 28  1  6  0  0  0
 31 30  1  0  0  0  0
 32 31  1  0  0  0  0
 32 34  2  0  0  0  0
 33 32  1  0  0  0  0
 34 29  1  0  0  0  0
 35 34  1  0  0  0  0
 35 37  1  0  0  0  0
 36 35  1  0  0  0  0
 38 35  1  0  0  0  0
M  END
