1,13,21,29
q = 0.0, confidence = 0.994

 33 34  0  0  1  0  0  0  0  0999 V2000
   -1.1853    0.0166    0.3629 N   0  0  0  0  0  2  0  0  0  0  0  0
   -1.8195    1.1906    0.2027 C   0  0  1  0  0  3  0  0  0  0  0  0
   -3.2103    1.2307    0.0181 C   0  0  0  0  0  0  0  0  0  0  0  0
   -3.7264    2.1924   -0.1184 H   0  0  0  0  0  0  0  0  0  0  0  0
   -3.9198    0.0210    0.0046 C   0  0  0  0  0  0  0  0  0  0  0  0
   -5.0105    0.0232   -0.1399 H   0  0  0  0  0  0  0  0  0  0  0  0
   -3.2326   -1.1952    0.1524 C   0  0  0  0  0  0  0  0  0  0  0  0
   -3.7658   -2.1564    0.1209 H   0  0  0  0  0  0  0  0  0  0  0  0
   -1.8436   -1.1594    0.3284 C   0  0  0  0  0  0  0  0  0  0  0  0
   -0.9670   -2.3900    0.4982 C   0  0  0  0  0  0  0  0  0  0  0  0
   -0.8710   -2.6089    1.5836 H   0  0  0  0  0  0  0  0  0  0  0  0
   -1.4572   -3.2729    0.0309 H   0  0  0  0  0  0  0  0  0  0  0  0
    0.3791   -2.1271   -0.0247 N   0  0  0  0  0  0  0  0  0  0  0  0
    1.0672   -2.7513    0.4146 H   0  0  0  0  0  0  0  0  0  0  0  0
    0.4931   -2.1463   -1.4923 C   0  0  0  0  0  0  0  0  0  0  0  0
   -0.4211   -1.6701   -1.9057 H   0  0  0  0  0  0  0  0  0  0  0  0
    0.5220   -3.1781   -1.9072 H   0  0  0  0  0  0  0  0  0  0  0  0
    1.7355   -1.3753   -1.9494 C   0  0  0  0  0  0  0  0  0  0  0  0
    2.6450   -1.8847   -1.5701 H   0  0  0  0  0  0  0  0  0  0  0  0
    1.7966   -1.3874   -3.0598 H   0  0  0  0  0  0  0  0  0  0  0  0
    1.7482   -0.0001   -1.4093 N   0  0  0  0  0  0  0  0  0  0  0  0
    2.7220    0.3145   -1.3000 H   0  0  0  0  0  0  0  0  0  0  0  0
    0.9810    1.0187   -2.1477 C   0  0  0  0  0  0  0  0  0  0  0  0
   -0.0539    0.6412   -2.2860 H   0  0  0  0  0  0  0  0  0  0  0  0
    1.3966    1.2048   -3.1634 H   0  0  0  0  0  0  0  0  0  0  0  0
    0.9680    2.3309   -1.3513 C   0  0  0  0  0  0  0  0  0  0  0  0
    2.0054    2.7209   -1.2887 H   0  0  0  0  0  0  0  0  0  0  0  0
    0.3783    3.0926   -1.9074 H   0  0  0  0  0  0  0  0  0  0  0  0
    0.4704    2.1526    0.0255 N   0  0  0  0  0  0  0  0  0  0  0  0
    1.0605    2.6586    0.6933 H   0  0  0  0  0  0  0  0  0  0  0  0
   -0.9456    2.4341    0.2798 C   0  0  0  0  0  0  0  0  0  0  0  0
   -1.3496    3.2165   -0.4013 H   0  0  0  0  0  0  0  0  0  0  0  0
   -1.0380    2.8415    1.3095 H   0  0  0  0  0  0  0  0  0  0  0  0
  2  3  1  1  0  0  0
  2 31  1  0  0  0  0
  2  1  1  0  0  0  0
  4  3  1  0  0  0  0
  5  3  2  0  0  0  0
  5  7  1  0  0  0  0
  6  5  1  0  0  0  0
  7  9  2  0  0  0  0
  8  7  1  0  0  0  0
  9  1  1  0  0  0  0
  9 10  1  0  0  0  0
 10 11  1  0  0  0  0
 12 10  1  0  0  0  0
 13 14  1  0  0  0  0
 13 10  1  0  0  0  0
 15 13  1  0  0  0  0
 16 15  1  0  0  0  0
 17 15  1  0  0  0  0
 18 19  1  0  0  0  0
 18 15  1  0  0  0  0
 18 21  1  0  0  0  0
 20 18  1  0  0  0  0
 21 22  1  0  0  0  0
 23 21  1  0  0  0  0
 23 26  1  0  0  0  0
 24 23  1  0  0  0  0
 25 23  1  0  0  0  0
 26 27  1  0  0  0  0
 26 29  1  0  0  0  0
 28 26  1  0  0  0  0
 29 31  1  0  0  0  0
 29 30  1  0  0  0  0
 31 33  1  0  0  0  0
 32 31  1  0  0  0  0
M  END
