1,2,3,4
q = 0.0, confidence = 0.98

 40 40  0  0  1  0  0  0  0  0999 V2000
    1.1677    1.2629    0.1345 N   0  0  0  0  0  2  0  0  0  0  0  0
    1.1676   -1.2630   -0.1342 N   0  0  0  0  0  2  0  0  0  0  0  0
   -1.7483   -1.3073   -0.2557 N   0  0  0  0  0  0  0  0  0  0  0  0
   -1.7483    1.3074    0.2554 N   0  0  0  0  0  0  0  0  0  0  0  0
    2.3635    0.7374    0.0238 C   0  0  1  0  0  3  0  0  0  0  0  0
    2.3634   -0.7376   -0.0237 C   0  0  1  0  0  3  0  0  0  0  0  0
    1.0262   -2.7153   -0.0743 C   0  0  0  0  0  0  0  0  0  0  0  0
   -0.3006   -3.2586   -0.5884 C   0  0  0  0  0  0  0  0  0  0  0  0
   -1.5200   -2.7070    0.1372 C   0  0  0  0  0  0  0  0  0  0  0  0
   -3.0198   -0.7246    0.2246 C   0  0  0  0  0  0  0  0  0  0  0  0
   -3.0196    0.7249   -0.2255 C   0  0  0  0  0  0  0  0  0  0  0  0
   -1.5197    2.7071   -0.1372 C   0  0  0  0  0  0  0  0  0  0  0  0
   -0.3004    3.2585    0.5887 C   0  0  0  0  0  0  0  0  0  0  0  0
    1.0265    2.7152    0.0747 C   0  0  0  0  0  0  0  0  0  0  0  0
    3.6061    1.5574   -0.1188 C   0  0  0  0  0  0  0  0  0  0  0  0
    3.6060   -1.5577    0.1186 C   0  0  0  0  0  0  0  0  0  0  0  0
   -1.7506   -1.2481   -1.3096 H   0  0  0  0  0  0  0  0  0  0  0  0
   -1.7510    1.2480    1.3094 H   0  0  0  0  0  0  0  0  0  0  0  0
    1.1566   -2.9939    0.9966 H   0  0  0  0  0  0  0  0  0  0  0  0
    1.8559   -3.1910   -0.6360 H   0  0  0  0  0  0  0  0  0  0  0  0
   -0.2758   -4.3592   -0.4640 H   0  0  0  0  0  0  0  0  0  0  0  0
   -0.3975   -3.0703   -1.6793 H   0  0  0  0  0  0  0  0  0  0  0  0
   -2.4210   -3.3023   -0.1289 H   0  0  0  0  0  0  0  0  0  0  0  0
   -1.4010   -2.7644    1.2394 H   0  0  0  0  0  0  0  0  0  0  0  0
   -3.8884   -1.2827   -0.1849 H   0  0  0  0  0  0  0  0  0  0  0  0
   -3.0563   -0.7977    1.3310 H   0  0  0  0  0  0  0  0  0  0  0  0
   -3.8883    1.2831    0.1837 H   0  0  0  0  0  0  0  0  0  0  0  0
   -3.0556    0.7980   -1.3318 H   0  0  0  0  0  0  0  0  0  0  0  0
   -2.4207    3.3025    0.1287 H   0  0  0  0  0  0  0  0  0  0  0  0
   -1.4005    2.7646   -1.2394 H   0  0  0  0  0  0  0  0  0  0  0  0
   -0.3976    3.0701    1.6796 H   0  0  0  0  0  0  0  0  0  0  0  0
   -0.2755    4.3592    0.4645 H   0  0  0  0  0  0  0  0  0  0  0  0
    1.8561    3.1907    0.6367 H   0  0  0  0  0  0  0  0  0  0  0  0
    1.1571    2.9940   -0.9960 H   0  0  0  0  0  0  0  0  0  0  0  0
    4.5066    0.9358   -0.2509 H   0  0  0  0  0  0  0  0  0  0  0  0
    3.7675    2.2107    0.7642 H   0  0  0  0  0  0  0  0  0  0  0  0
    3.5185    2.2227   -1.0031 H   0  0  0  0  0  0  0  0  0  0  0  0
    3.5182   -2.2238    1.0023 H   0  0  0  0  0  0  0  0  0  0  0  0
    4.5064   -0.9362    0.2516 H   0  0  0  0  0  0  0  0  0  0  0  0
    3.7678   -2.2101   -0.7649 H   0  0  0  0  0  0  0  0  0  0  0  0
  2  7  1  0  0  0  0
  2  6  1  0  0  0  0
  3  9  1  0  0  0  0
  3 10  1  0  0  0  0
  4 18  1  0  0  0  0
  5 15  1  6  0  0  0
  5  1  1  0  0  0  0
  6  5  1  0  0  0  0
  6 16  1  1  0  0  0
  7 19  1  0  0  0  0
  8 21  1  0  0  0  0
  8  7  1  0  0  0  0
  8  9  1  0  0  0  0
  9 24  1  0  0  0  0
 10 26  1  0  0  0  0
 11 27  1  0  0  0  0
 11 10  1  0  0  0  0
 11  4  1  0  0  0  0
 12 29  1  0  0  0  0
 12  4  1  0  0  0  0
 12 13  1  0  0  0  0
 13 31  1  0  0  0  0
 14  1  1  0  0  0  0
 14 13  1  0  0  0  0
 14 33  1  0  0  0  0
 15 36  1  0  0  0  0
 16 39  1  0  0  0  0
 16 38  1  0  0  0  0
 17  3  1  0  0  0  0
 20  7  1  0  0  0  0
 22  8  1  0  0  0  0
 23  9  1  0  0  0  0
 25 10  1  0  0  0  0
 28 11  1  0  0  0  0
 30 12  1  0  0  0  0
 32 13  1  0  0  0  0
 34 14  1  0  0  0  0
 35 15  1  0  0  0  0
 37 15  1  0  0  0  0
 40 16  1  0  0  0  0
M  END
