7,10,11,12
q = -2.0, confidence = 0.824

 78 83  0  0  1  0  0  0  0  0999 V2000
   -1.1367    4.3941    1.3028 O   0  0  0  0  0  0  0  0  0  0  0  0
   -2.5991   -2.3858   -1.1059 O   0  0  0  0  0  0  0  0  0  0  0  0
    1.3036    4.2319    1.4303 O   0  0  0  0  0  1  0  0  0  0  0  0
    2.2488   -2.6785   -0.7328 O   0  0  0  0  0  0  0  0  0  0  0  0
   -3.7721   -0.5135   -0.4178 N   0  0  0  0  0  0  0  0  0  0  0  0
   -3.7999    0.8289   -0.0972 N   0  0  0  0  0  2  0  0  0  0  0  0
   -1.4217    0.7719    0.1091 N   0  0  0  0  0  2  0  0  0  0  0  0
    3.5928   -0.9204    0.0090 N   0  0  0  0  0  0  0  0  0  0  0  0
    3.7029    0.3465    0.4633 N   0  0  0  0  0  2  0  0  0  0  0  0
    1.3220    0.5763    0.3678 N   0  0  0  0  0  2  0  0  0  0  0  0
   -1.3503    3.1591    0.8663 N   0  0  0  0  0  2  0  0  0  0  0  0
    1.4320    2.9901    1.0994 N   0  0  0  0  0  2  0  0  0  0  0  0
   -2.6375    1.3758    0.1776 C   0  0  0  0  0  0  0  0  0  0  0  0
   -1.3046   -0.3806   -0.7433 C   0  0  1  0  0  0  0  0  0  0  0  0
   -2.6124   -1.2119   -0.7463 C   0  0  0  0  0  0  0  0  0  0  0  0
    2.6118    1.0588    0.6161 C   0  0  0  0  0  0  0  0  0  0  0  0
    1.1771   -0.6594   -0.0683 C   0  0  1  0  0  3  0  0  0  0  0  0
    2.3551   -1.5317   -0.3008 C   0  0  0  0  0  0  0  0  0  0  0  0
   -5.0710   -1.1155   -0.5280 C   0  0  0  0  0  0  0  0  0  0  0  0
   -5.2774   -2.4786   -0.2363 C   0  0  0  0  0  0  0  0  0  0  0  0
   -6.5674   -3.0175   -0.3423 C   0  0  0  0  0  0  0  0  0  0  0  0
   -7.6536   -2.2182   -0.7301 C   0  0  0  0  0  0  0  0  0  0  0  0
   -7.4414   -0.8588   -1.0085 C   0  0  0  0  0  0  0  0  0  0  0  0
   -6.1589   -0.3050   -0.9075 C   0  0  0  0  0  0  0  0  0  0  0  0
   -2.5893    2.7635    0.6510 C   0  0  0  0  0  0  0  0  0  0  0  0
   -3.7746    3.6299    0.8856 C   0  0  0  0  0  0  0  0  0  0  0  0
   -0.4721   -2.0263    1.0726 C   0  0  0  0  0  0  0  0  0  0  0  0
   -0.6358   -3.4252    1.0852 C   0  0  0  0  0  0  0  0  0  0  0  0
   -0.9485   -4.0909    2.2781 C   0  0  0  0  0  0  0  0  0  0  0  0
   -1.0948   -3.3678    3.4734 C   0  0  0  0  0  0  0  0  0  0  0  0
   -0.9188   -1.9756    3.4707 C   0  0  0  0  0  0  0  0  0  0  0  0
   -0.6001   -1.3083    2.2787 C   0  0  0  0  0  0  0  0  0  0  0  0
    0.1573    0.7888   -2.5145 C   0  0  0  0  0  0  0  0  0  0  0  0
    0.2075    2.1714   -2.2263 C   0  0  0  0  0  0  0  0  0  0  0  0
    1.4249    2.8716   -2.2783 C   0  0  0  0  0  0  0  0  0  0  0  0
    2.6105    2.2012   -2.6154 C   0  0  0  0  0  0  0  0  0  0  0  0
    2.5687    0.8337   -2.9376 C   0  0  0  0  0  0  0  0  0  0  0  0
    1.3507    0.1366   -2.8903 C   0  0  0  0  0  0  0  0  0  0  0  0
   -1.0989    0.0102   -2.2689 C   0  0  0  0  0  0  0  0  0  0  0  0
    4.8414   -1.6234   -0.1054 C   0  0  0  0  0  0  0  0  0  0  0  0
    5.8981   -1.2416    0.7461 C   0  0  0  0  0  0  0  0  0  0  0  0
    7.1371   -1.8839    0.6491 C   0  0  0  0  0  0  0  0  0  0  0  0
    7.3366   -2.9045   -0.2950 C   0  0  0  0  0  0  0  0  0  0  0  0
    6.2824   -3.2757   -1.1424 C   0  0  0  0  0  0  0  0  0  0  0  0
    5.0323   -2.6464   -1.0564 C   0  0  0  0  0  0  0  0  0  0  0  0
    2.6442    2.4406    1.0468 C   0  0  0  0  0  0  0  0  0  0  0  0
    3.8803    3.2128    1.3454 C   0  0  0  0  0  0  0  0  0  0  0  0
   -0.1632   -1.3146   -0.2496 C   0  0  1  0  0  0  0  0  0  0  0  0
    3.8481    3.6203    2.3769 H   0  0  0  0  0  0  0  0  0  0  0  0
    3.9570    4.0897    0.6685 H   0  0  0  0  0  0  0  0  0  0  0  0
    4.7722    2.5731    1.2235 H   0  0  0  0  0  0  0  0  0  0  0  0
   -4.6971    3.0627    0.6698 H   0  0  0  0  0  0  0  0  0  0  0  0
   -3.7886    3.9898    1.9353 H   0  0  0  0  0  0  0  0  0  0  0  0
   -3.7284    4.5362    0.2467 H   0  0  0  0  0  0  0  0  0  0  0  0
   -4.4345   -3.1098    0.0646 H   0  0  0  0  0  0  0  0  0  0  0  0
   -6.7213   -4.0824   -0.1104 H   0  0  0  0  0  0  0  0  0  0  0  0
   -8.6618   -2.6515   -0.8109 H   0  0  0  0  0  0  0  0  0  0  0  0
   -8.2836   -0.2174   -1.3100 H   0  0  0  0  0  0  0  0  0  0  0  0
   -5.9787    0.7582   -1.1106 H   0  0  0  0  0  0  0  0  0  0  0  0
   -0.5302   -3.9857    0.1457 H   0  0  0  0  0  0  0  0  0  0  0  0
   -1.0805   -5.1835    2.2736 H   0  0  0  0  0  0  0  0  0  0  0  0
   -1.3408   -3.8919    4.4096 H   0  0  0  0  0  0  0  0  0  0  0  0
   -1.0255   -1.4017    4.4037 H   0  0  0  0  0  0  0  0  0  0  0  0
   -0.4585   -0.2180    2.2752 H   0  0  0  0  0  0  0  0  0  0  0  0
   -0.7235    2.7091   -1.9927 H   0  0  0  0  0  0  0  0  0  0  0  0
    1.4467    3.9436   -2.0296 H   0  0  0  0  0  0  0  0  0  0  0  0
    3.5667    2.7451   -2.6380 H   0  0  0  0  0  0  0  0  0  0  0  0
    3.4916    0.3054   -3.2222 H   0  0  0  0  0  0  0  0  0  0  0  0
    1.3257   -0.9386   -3.1285 H   0  0  0  0  0  0  0  0  0  0  0  0
   -1.1146   -0.9285   -2.8561 H   0  0  0  0  0  0  0  0  0  0  0  0
   -1.9905    0.6056   -2.5556 H   0  0  0  0  0  0  0  0  0  0  0  0
    5.7307   -0.4378    1.4743 H   0  0  0  0  0  0  0  0  0  0  0  0
    7.9541   -1.5846    1.3226 H   0  0  0  0  0  0  0  0  0  0  0  0
    8.3112   -3.4098   -0.3676 H   0  0  0  0  0  0  0  0  0  0  0  0
    6.4278   -4.0712   -1.8885 H   0  0  0  0  0  0  0  0  0  0  0  0
    4.2087   -2.9524   -1.7091 H   0  0  0  0  0  0  0  0  0  0  0  0
   -0.0477    4.4448    1.4001 H   0  0  0  0  0  0  0  0  0  0  0  0
   -0.0250   -2.1073   -1.0058 H   0  0  0  0  0  0  0  0  0  0  0  0
  1 77  1  0  0  0  0
  2 15  2  0  0  0  0
  4 18  2  0  0  0  0
  5  6  1  0  0  0  0
  6 13  1  0  0  0  0
  7 13  1  0  0  0  0
  8  9  1  0  0  0  0
  9 16  1  0  0  0  0
 10 16  1  0  0  0  0
 11  1  1  0  0  0  0
 12  3  1  0  0  0  0
 13 25  2  0  0  0  0
 14 39  1  6  0  0  0
 14 48  1  0  0  0  0
 14  7  1  0  0  0  0
 15 14  1  0  0  0  0
 15  5  1  0  0  0  0
 16 46  2  0  0  0  0
 17 48  1  1  0  0  0
 17 10  1  0  0  0  0
 18 17  1  0  0  0  0
 18  8  1  0  0  0  0
 19  5  1  0  0  0  0
 19 20  1  0  0  0  0
 20 55  1  0  0  0  0
 21 20  2  0  0  0  0
 21 56  1  0  0  0  0
 22 21  1  0  0  0  0
 23 24  1  0  0  0  0
 23 22  2  0  0  0  0
 24 19  2  0  0  0  0
 25 11  1  0  0  0  0
 25 26  1  0  0  0  0
 26 53  1  0  0  0  0
 27 28  2  0  0  0  0
 27 32  1  0  0  0  0
 28 29  1  0  0  0  0
 29 30  2  0  0  0  0
 30 62  1  0  0  0  0
 31 30  1  0  0  0  0
 31 63  1  0  0  0  0
 32 31  2  0  0  0  0
 33 39  1  0  0  0  0
 33 34  1  0  0  0  0
 34 65  1  0  0  0  0
 35 34  2  0  0  0  0
 35 66  1  0  0  0  0
 36 35  1  0  0  0  0
 37 38  1  0  0  0  0
 37 36  2  0  0  0  0
 38 33  2  0  0  0  0
 40  8  1  0  0  0  0
 40 41  1  0  0  0  0
 41 72  1  0  0  0  0
 42 41  2  0  0  0  0
 42 73  1  0  0  0  0
 43 42  1  0  0  0  0
 44 45  1  0  0  0  0
 44 43  2  0  0  0  0
 45 40  2  0  0  0  0
 46 12  1  0  0  0  0
 46 47  1  0  0  0  0
 47 49  1  0  0  0  0
 48 78  1  6  0  0  0
 48 27  1  0  0  0  0
 50 47  1  0  0  0  0
 51 47  1  0  0  0  0
 52 26  1  0  0  0  0
 54 26  1  0  0  0  0
 57 22  1  0  0  0  0
 58 23  1  0  0  0  0
 59 24  1  0  0  0  0
 60 28  1  0  0  0  0
 61 29  1  0  0  0  0
 64 32  1  0  0  0  0
 67 36  1  0  0  0  0
 68 37  1  0  0  0  0
 69 38  1  0  0  0  0
 70 39  1  0  0  0  0
 71 39  1  0  0  0  0
 74 43  1  0  0  0  0
 75 44  1  0  0  0  0
 76 45  1  0  0  0  0
M  END
