2,3,4,5
q = -1.0

 68 75  0  0  0  0  0  0  0  0999 V2000
   -0.6269    7.8318    0.2427 O   0  0  0  0  0  0  0  0  0  0  0  0
   -1.4277    0.0218   -0.1146 N   0  0  0  0  0  2  0  0  0  0  0  0
   -0.9767   -2.6650    0.1877 N   0  0  0  0  0  0  0  0  0  0  0  0
    1.4861   -2.4316   -0.2355 N   0  0  0  0  0  0  0  0  0  0  0  0
    1.4413    0.2799    0.1621 N   0  0  0  0  0  2  0  0  0  0  0  0
   -2.7368   -0.3876    0.0972 C   0  0  0  0  0  0  0  0  0  0  0  0
   -3.5285    0.7708    0.4328 C   0  0  0  0  0  3  0  0  0  0  0  0
   -2.6844    1.8641    0.4441 C   0  0  0  0  0  0  0  0  0  0  0  0
   -1.3643    1.3881    0.1118 C   0  0  0  0  0  0  0  0  0  0  0  0
   -0.1785    2.1706    0.0603 C   0  0  0  0  0  0  0  0  0  0  0  0
    1.1296    1.6190   -0.0153 C   0  0  0  0  0  0  0  0  0  0  0  0
    2.3398    2.3391   -0.3258 C   0  0  0  0  0  0  0  0  0  0  0  0
    3.3687    1.4180   -0.3515 C   0  0  0  0  0  0  0  0  0  0  0  0
    2.8024    0.1235   -0.0599 C   0  0  0  0  0  0  0  0  0  0  0  0
    3.5217   -1.1124   -0.0588 C   0  0  0  0  0  0  0  0  0  0  0  0
    2.8545   -2.3571   -0.0982 C   0  0  0  0  0  0  0  0  0  0  0  0
    3.3454   -3.7049    0.0781 C   0  0  0  0  0  0  0  0  0  0  0  0
    2.2411   -4.5553    0.0940 C   0  0  0  0  0  0  0  0  0  0  0  0
    1.0816   -3.7290   -0.0642 C   0  0  0  0  0  3  0  0  0  0  0  0
   -0.3435   -3.8605   -0.0262 C   0  0  0  0  0  0  0  0  0  0  0  0
   -1.3340   -4.8783   -0.2145 C   0  0  0  0  0  0  0  0  0  0  0  0
   -2.5746   -4.2441   -0.1721 C   0  0  0  0  0  0  0  0  0  0  0  0
   -2.3363   -2.8362    0.0503 C   0  0  0  0  0  3  0  0  0  0  0  0
   -3.2190   -1.7331    0.0515 C   0  0  0  0  0  0  0  0  0  0  0  0
   -0.3132    3.6466    0.0880 C   0  0  0  0  0  0  0  0  0  0  0  0
   -1.1872    4.3180   -0.7943 C   0  0  0  0  0  0  0  0  0  0  0  0
   -1.3195    5.7133   -0.7808 C   0  0  0  0  0  0  0  0  0  0  0  0
   -0.5723    6.4782    0.1399 C   0  0  0  0  0  0  0  0  0  0  0  0
    0.3041    5.8219    1.0334 C   0  0  0  0  0  0  0  0  0  0  0  0
    0.4321    4.4346    1.0015 C   0  0  0  0  0  0  0  0  0  0  0  0
   -1.4957    8.5403   -0.6218 C   0  0  0  0  0  0  0  0  0  0  0  0
    5.0034   -1.0861   -0.0379 C   0  0  0  0  0  0  0  0  0  0  0  0
    5.7023   -0.2919    0.9020 C   0  0  0  0  0  0  0  0  0  0  0  0
    7.1029   -0.2803    0.9302 C   0  0  0  0  0  0  0  0  0  0  0  0
    7.8354   -1.0578    0.0182 C   0  0  0  0  0  0  0  0  0  0  0  0
    7.1555   -1.8484   -0.9222 C   0  0  0  0  0  0  0  0  0  0  0  0
    5.7545   -1.8646   -0.9501 C   0  0  0  0  0  0  0  0  0  0  0  0
   -4.6807   -1.9765    0.0287 C   0  0  0  0  0  0  0  0  0  0  0  0
   -5.2738   -2.9062    0.9153 C   0  0  0  0  0  0  0  0  0  0  0  0
   -6.6544   -3.1448    0.8856 C   0  0  0  0  0  0  0  0  0  0  0  0
   -7.4706   -2.4633   -0.0315 C   0  0  0  0  0  0  0  0  0  0  0  0
   -6.8956   -1.5381   -0.9181 C   0  0  0  0  0  0  0  0  0  0  0  0
   -5.5162   -1.2948   -0.8877 C   0  0  0  0  0  0  0  0  0  0  0  0
   -4.5960    0.7494    0.6769 H   0  0  0  0  0  0  0  0  0  0  0  0
   -2.9315    2.8973    0.7096 H   0  0  0  0  0  0  0  0  0  0  0  0
    2.3946    3.4092   -0.5517 H   0  0  0  0  0  0  0  0  0  0  0  0
    4.4215    1.6004   -0.5922 H   0  0  0  0  0  0  0  0  0  0  0  0
    4.3940   -3.9782    0.2416 H   0  0  0  0  0  0  0  0  0  0  0  0
    2.2442   -5.6432    0.2289 H   0  0  0  0  0  0  0  0  0  0  0  0
   -1.1396   -5.9435   -0.3855 H   0  0  0  0  0  0  0  0  0  0  0  0
   -3.5566   -4.6981   -0.3467 H   0  0  0  0  0  0  0  0  0  0  0  0
   -1.7616    3.7308   -1.5259 H   0  0  0  0  0  0  0  0  0  0  0  0
   -1.9988    6.1945   -1.4969 H   0  0  0  0  0  0  0  0  0  0  0  0
    0.8684    6.4331    1.7525 H   0  0  0  0  0  0  0  0  0  0  0  0
    1.1061    3.9343    1.7124 H   0  0  0  0  0  0  0  0  0  0  0  0
    5.1292    0.3032    1.6284 H   0  0  0  0  0  0  0  0  0  0  0  0
    7.6279    0.3357    1.6762 H   0  0  0  0  0  0  0  0  0  0  0  0
    8.9357   -1.0463    0.0397 H   0  0  0  0  0  0  0  0  0  0  0  0
    7.7218   -2.4520   -1.6478 H   0  0  0  0  0  0  0  0  0  0  0  0
    5.2225   -2.4666   -1.7014 H   0  0  0  0  0  0  0  0  0  0  0  0
   -4.6380   -3.4238    1.6486 H   0  0  0  0  0  0  0  0  0  0  0  0
   -7.0984   -3.8632    1.5915 H   0  0  0  0  0  0  0  0  0  0  0  0
   -8.5546   -2.6521   -0.0546 H   0  0  0  0  0  0  0  0  0  0  0  0
   -7.5269   -1.0059   -1.6460 H   0  0  0  0  0  0  0  0  0  0  0  0
   -5.0638   -0.5833   -1.5943 H   0  0  0  0  0  0  0  0  0  0  0  0
   -1.2248    8.3958   -1.6917 H   0  0  0  0  0  0  0  0  0  0  0  0
   -1.3879    9.6104   -0.3656 H   0  0  0  0  0  0  0  0  0  0  0  0
   -2.5579    8.2393   -0.4797 H   0  0  0  0  0  0  0  0  0  0  0  0
  2  6  1  0  0  0  0
  2  9  1  0  0  0  0
  4 16  2  0  0  0  0
  4 19  1  0  0  0  0
  6  7  1  0  0  0  0
  7  8  1  0  0  0  0
  7 44  1  0  0  0  0
  8 45  1  0  0  0  0
  9  8  2  0  0  0  0
 10 25  1  0  0  0  0
 10  9  1  0  0  0  0
 11 10  2  0  0  0  0
 11  5  1  0  0  0  0
 12 11  1  0  0  0  0
 13 12  2  0  0  0  0
 13 14  1  0  0  0  0
 14 15  2  0  0  0  0
 14  5  1  0  0  0  0
 15 32  1  0  0  0  0
 16 15  1  0  0  0  0
 16 17  1  0  0  0  0
 17 18  2  0  0  0  0
 17 48  1  0  0  0  0
 18 49  1  0  0  0  0
 19 20  1  0  0  0  0
 19 18  1  0  0  0  0
 20  3  2  0  0  0  0
 21 22  2  0  0  0  0
 21 20  1  0  0  0  0
 22 23  1  0  0  0  0
 23 24  1  0  0  0  0
 23  3  1  0  0  0  0
 24  6  2  0  0  0  0
 25 30  1  0  0  0  0
 26 27  1  0  0  0  0
 26 25  2  0  0  0  0
 27 28  2  0  0  0  0
 28  1  1  0  0  0  0
 28 29  1  0  0  0  0
 29 54  1  0  0  0  0
 30 29  2  0  0  0  0
 30 55  1  0  0  0  0
 31 68  1  0  0  0  0
 31 67  1  0  0  0  0
 31  1  1  0  0  0  0
 32 33  1  0  0  0  0
 33 34  2  0  0  0  0
 33 56  1  0  0  0  0
 34 57  1  0  0  0  0
 35 58  1  0  0  0  0
 35 34  1  0  0  0  0
 36 35  2  0  0  0  0
 37 36  1  0  0  0  0
 37 32  2  0  0  0  0
 38 24  1  0  0  0  0
 38 39  1  0  0  0  0
 39 61  1  0  0  0  0
 40 39  2  0  0  0  0
 40 62  1  0  0  0  0
 41 40  1  0  0  0  0
 42 43  1  0  0  0  0
 42 41  2  0  0  0  0
 43 38  2  0  0  0  0
 46 12  1  0  0  0  0
 47 13  1  0  0  0  0
 50 21  1  0  0  0  0
 51 22  1  0  0  0  0
 52 26  1  0  0  0  0
 53 27  1  0  0  0  0
 59 36  1  0  0  0  0
 60 37  1  0  0  0  0
 63 41  1  0  0  0  0
 64 42  1  0  0  0  0
 65 43  1  0  0  0  0
 66 31  1  0  0  0  0
M  END
