1,20,30,40
q = 0.0, confidence = 0.996

 49 51  0  0  1  0  0  0  0  0999 V2000
    0.0007   -0.7544    1.8419 N   0  0  0  0  0  0  0  0  0  0  0  0
    0.6371    0.3228    2.6428 C   0  0  0  0  0  0  0  0  0  0  0  0
    1.6925    0.4122    2.3267 H   0  0  0  0  0  0  0  0  0  0  0  0
    0.6401    0.0196    3.7150 H   0  0  0  0  0  0  0  0  0  0  0  0
   -0.0252    1.6898    2.5089 C   0  0  0  0  0  0  0  0  0  0  0  0
   -1.1201    1.6212    2.6908 H   0  0  0  0  0  0  0  0  0  0  0  0
    0.3579    2.3301    3.3268 H   0  0  0  0  0  0  0  0  0  0  0  0
   -1.3478   -1.0599    2.4009 C   0  0  0  0  0  0  0  0  0  0  0  0
   -1.8601   -0.1084    2.6351 H   0  0  0  0  0  0  0  0  0  0  0  0
   -1.2042   -1.5953    3.3649 H   0  0  0  0  0  0  0  0  0  0  0  0
   -2.2350   -1.8779    1.4678 C   0  0  0  0  0  0  0  0  0  0  0  0
   -1.6675   -2.6961    0.9787 H   0  0  0  0  0  0  0  0  0  0  0  0
   -3.0411   -2.3482    2.0617 H   0  0  0  0  0  0  0  0  0  0  0  0
    0.7899   -2.0222    1.9183 C   0  0  0  0  0  0  0  0  0  0  0  0
    0.6429   -2.4640    2.9291 H   0  0  0  0  0  0  0  0  0  0  0  0
    0.3616   -2.7126    1.1696 H   0  0  0  0  0  0  0  0  0  0  0  0
    2.2799   -1.8887    1.6854 C   0  0  0  0  0  0  0  0  0  0  0  0
    2.7769   -1.3936    2.5482 H   0  0  0  0  0  0  0  0  0  0  0  0
    2.6903   -2.9195    1.6881 H   0  0  0  0  0  0  0  0  0  0  0  0
    0.1345    1.7163    0.0377 N   0  0  0  0  0  2  0  0  0  0  0  0
    0.1934    2.4097    1.2047 C   0  0  1  0  0  3  0  0  0  0  0  0
    0.4052    3.8013    1.2069 C   0  0  0  0  0  0  0  0  0  0  0  0
    0.4579    4.3291    2.1701 H   0  0  0  0  0  0  0  0  0  0  0  0
    0.5382    4.4994    0.0029 C   0  0  0  0  0  0  0  0  0  0  0  0
    0.7044    5.5867    0.0003 H   0  0  0  0  0  0  0  0  0  0  0  0
    0.4472    3.7780   -1.1948 C   0  0  0  0  0  0  0  0  0  0  0  0
    0.5284    4.2689   -2.1748 H   0  0  0  0  0  0  0  0  0  0  0  0
    0.2472    2.3986   -1.1314 C   0  0  0  0  0  0  0  0  0  0  0  0
    0.1517    1.7893   -2.0440 H   0  0  0  0  0  0  0  0  0  0  0  0
   -2.0351   -0.1197   -0.2225 N   0  0  0  0  0  2  0  0  0  0  0  0
   -2.8454   -1.0063    0.4131 C   0  0  2  0  0  3  0  0  0  0  0  0
   -4.2196   -1.0614    0.1255 C   0  0  0  0  0  0  0  0  0  0  0  0
   -4.8426   -1.7949    0.6569 H   0  0  0  0  0  0  0  0  0  0  0  0
   -4.7746   -0.1963   -0.8218 C   0  0  0  0  0  0  0  0  0  0  0  0
   -5.8478   -0.2383   -1.0595 H   0  0  0  0  0  0  0  0  0  0  0  0
   -3.9309    0.7246   -1.4557 C   0  0  0  0  0  0  0  0  0  0  0  0
   -4.3070    1.4328   -2.2067 H   0  0  0  0  0  0  0  0  0  0  0  0
   -2.5727    0.7217   -1.1379 C   0  0  0  0  0  0  0  0  0  0  0  0
   -1.8823    1.3992   -1.6499 H   0  0  0  0  0  0  0  0  0  0  0  0
    1.9294   -0.4652   -0.3510 N   0  0  0  0  0  2  0  0  0  0  0  0
    2.7559   -1.2125    0.4260 C   0  0  1  0  0  3  0  0  0  0  0  0
    4.1216   -1.3534    0.1058 C   0  0  0  0  0  0  0  0  0  0  0  0
    4.7515   -1.9724    0.7613 H   0  0  0  0  0  0  0  0  0  0  0  0
    4.6597   -0.7288   -1.0183 C   0  0  0  0  0  0  0  0  0  0  0  0
    5.7238   -0.8428   -1.2721 H   0  0  0  0  0  0  0  0  0  0  0  0
    3.7977    0.0318   -1.8179 C   0  0  0  0  0  0  0  0  0  0  0  0
    4.1451    0.5375   -2.7293 H   0  0  0  0  0  0  0  0  0  0  0  0
    2.4555    0.1263   -1.4565 C   0  0  0  0  0  0  0  0  0  0  0  0
    1.7460    0.6492   -2.1034 H   0  0  0  0  0  0  0  0  0  0  0  0
  1 14  1  0  0  0  0
  1  8  1  0  0  0  0
  1  2  1  0  0  0  0
  2  4  1  0  0  0  0
  3  2  1  0  0  0  0
  5  2  1  0  0  0  0
  5  6  1  0  0  0  0
  5  7  1  0  0  0  0
  8  9  1  0  0  0  0
  8 10  1  0  0  0  0
 11 13  1  0  0  0  0
 11  8  1  0  0  0  0
 12 11  1  0  0  0  0
 14 15  1  0  0  0  0
 16 14  1  0  0  0  0
 17 19  1  0  0  0  0
 17 14  1  0  0  0  0
 17 18  1  0  0  0  0
 20 21  1  0  0  0  0
 21 22  1  0  0  0  0
 21  5  1  6  0  0  0
 22 23  1  0  0  0  0
 24 22  2  0  0  0  0
 25 24  1  0  0  0  0
 26 28  2  0  0  0  0
 26 24  1  0  0  0  0
 27 26  1  0  0  0  0
 28 20  1  0  0  0  0
 29 28  1  0  0  0  0
 30 31  1  0  0  0  0
 31 11  1  1  0  0  0
 32 31  1  0  0  0  0
 32 33  1  0  0  0  0
 34 32  2  0  0  0  0
 35 34  1  0  0  0  0
 36 38  2  0  0  0  0
 36 34  1  0  0  0  0
 37 36  1  0  0  0  0
 38 30  1  0  0  0  0
 39 38  1  0  0  0  0
 40 41  1  0  0  0  0
 41 17  1  1  0  0  0
 42 41  1  0  0  0  0
 42 43  1  0  0  0  0
 44 42  2  0  0  0  0
 45 44  1  0  0  0  0
 46 48  2  0  0  0  0
 46 44  1  0  0  0  0
 47 46  1  0  0  0  0
 48 40  1  0  0  0  0
 49 48  1  0  0  0  0
M  END
