7,14,19,21
q = 0.0, confidence = 0.994

 49 52  0  0  1  0  0  0  0  0999 V2000
   -1.9110    1.0089   -0.0006 C   0  0  2  0  0  0  0  0  0  0  0  0
   -2.8468    1.5927   -0.0008 H   0  0  0  0  0  0  0  0  0  0  0  0
   -2.9112    0.0992    2.1623 C   0  0  1  0  0  3  0  0  0  0  0  0
   -1.9250    0.1926    1.2066 N   0  0  0  0  0  0  0  0  0  0  0  0
   -2.4493   -0.8310    3.0897 C   0  0  0  0  0  0  0  0  0  0  0  0
   -2.9716   -1.1598    3.9940 H   0  0  0  0  0  0  0  0  0  0  0  0
   -0.8764   -0.6317    1.4844 N   0  0  0  0  0  2  0  0  0  0  0  0
   -1.1779   -1.2687    2.6307 C   0  0  0  0  0  0  0  0  0  0  0  0
   -1.9251    0.1913   -1.2069 N   0  0  0  0  0  0  0  0  0  0  0  0
   -4.1794    0.8844    2.1141 C   0  0  0  0  0  0  0  0  0  0  0  0
   -4.7929    0.6504    3.0026 H   0  0  0  0  0  0  0  0  0  0  0  0
   -4.7902    0.6397    1.2198 H   0  0  0  0  0  0  0  0  0  0  0  0
   -3.9980    1.9796    2.1176 H   0  0  0  0  0  0  0  0  0  0  0  0
   -0.8765   -0.6330   -1.4840 N   0  0  0  0  0  2  0  0  0  0  0  0
   -0.2387   -2.2487    3.2500 C   0  0  0  0  0  0  0  0  0  0  0  0
   -0.7955   -3.0059    3.8326 H   0  0  0  0  0  0  0  0  0  0  0  0
    0.4573   -1.7377    3.9480 H   0  0  0  0  0  0  0  0  0  0  0  0
    0.3610   -2.7581    2.4689 H   0  0  0  0  0  0  0  0  0  0  0  0
    0.4750    1.3657   -0.0007 N   0  0  0  0  0  2  0  0  0  0  0  0
   -2.9119    0.0961   -2.1618 C   0  0  2  0  0  3  0  0  0  0  0  0
    2.6439   -0.0960   -0.0002 N   0  0  0  0  0  2  0  0  0  0  0  0
   -2.4502   -0.8353   -3.0881 C   0  0  0  0  0  0  0  0  0  0  0  0
   -2.9729   -1.1655   -3.9916 H   0  0  0  0  0  0  0  0  0  0  0  0
   -1.1784   -1.2718   -2.6292 C   0  0  0  0  0  0  0  0  0  0  0  0
   -4.1803    0.8810   -2.1140 C   0  0  0  0  0  0  0  0  0  0  0  0
   -4.7909    0.6367   -1.2194 H   0  0  0  0  0  0  0  0  0  0  0  0
   -4.7939    0.6462   -3.0023 H   0  0  0  0  0  0  0  0  0  0  0  0
   -3.9993    1.9762   -2.1183 H   0  0  0  0  0  0  0  0  0  0  0  0
   -0.2393   -2.2525   -3.2476 C   0  0  0  0  0  0  0  0  0  0  0  0
   -0.7962   -3.0110   -3.8285 H   0  0  0  0  0  0  0  0  0  0  0  0
    0.3612   -2.7605   -2.4662 H   0  0  0  0  0  0  0  0  0  0  0  0
    0.4560   -1.7424   -3.9471 H   0  0  0  0  0  0  0  0  0  0  0  0
   -0.7205    1.9641   -0.0011 C   0  0  2  0  0  3  0  0  0  0  0  0
   -0.8472    3.3604   -0.0019 C   0  0  0  0  0  0  0  0  0  0  0  0
   -1.8354    3.8429   -0.0022 H   0  0  0  0  0  0  0  0  0  0  0  0
    0.3331    4.1238   -0.0024 C   0  0  0  0  0  0  0  0  0  0  0  0
    0.2794    5.2224   -0.0030 H   0  0  0  0  0  0  0  0  0  0  0  0
    1.5792    3.4845   -0.0020 C   0  0  0  0  0  0  0  0  0  0  0  0
    2.5034    4.0774   -0.0024 H   0  0  0  0  0  0  0  0  0  0  0  0
    1.6159    2.0746   -0.0012 C   0  0  0  0  0  0  0  0  0  0  0  0
    2.8509    1.2441   -0.0007 C   0  0  2  0  0  3  0  0  0  0  0  0
    4.1493    1.7809   -0.0008 C   0  0  0  0  0  0  0  0  0  0  0  0
    4.3093    2.8675   -0.0012 H   0  0  0  0  0  0  0  0  0  0  0  0
    5.2453    0.9059   -0.0004 C   0  0  0  0  0  0  0  0  0  0  0  0
    6.2704    1.3051   -0.0004 H   0  0  0  0  0  0  0  0  0  0  0  0
    5.0152   -0.4759    0.0002 C   0  0  0  0  0  0  0  0  0  0  0  0
    5.8459   -1.1956    0.0006 H   0  0  0  0  0  0  0  0  0  0  0  0
    3.6900   -0.9379    0.0003 C   0  0  0  0  0  0  0  0  0  0  0  0
    3.4203   -2.0095    0.0008 H   0  0  0  0  0  0  0  0  0  0  0  0
  1  2  1  6  0  0  0
  1  4  1  0  0  0  0
  3 10  1  1  0  0  0
  3  5  1  0  0  0  0
  4  7  1  0  0  0  0
  4  3  1  0  0  0  0
  5  6  1  0  0  0  0
  7  8  1  0  0  0  0
  8  5  2  0  0  0  0
  8 15  1  0  0  0  0
  9  1  1  0  0  0  0
 10 13  1  0  0  0  0
 10 11  1  0  0  0  0
 12 10  1  0  0  0  0
 14  9  1  0  0  0  0
 15 16  1  0  0  0  0
 15 17  1  0  0  0  0
 18 15  1  0  0  0  0
 20 25  1  6  0  0  0
 20  9  1  0  0  0  0
 21 48  1  0  0  0  0
 22 24  2  0  0  0  0
 22 20  1  0  0  0  0
 23 22  1  0  0  0  0
 24 14  1  0  0  0  0
 25 26  1  0  0  0  0
 27 25  1  0  0  0  0
 28 25  1  0  0  0  0
 29 24  1  0  0  0  0
 29 31  1  0  0  0  0
 30 29  1  0  0  0  0
 32 29  1  0  0  0  0
 33 19  1  0  0  0  0
 33  1  1  1  0  0  0
 34 33  1  0  0  0  0
 35 34  1  0  0  0  0
 36 38  1  0  0  0  0
 36 34  2  0  0  0  0
 37 36  1  0  0  0  0
 38 40  2  0  0  0  0
 39 38  1  0  0  0  0
 40 19  1  0  0  0  0
 41 40  1  6  0  0  0
 41 21  1  0  0  0  0
 42 41  1  0  0  0  0
 42 44  2  0  0  0  0
 43 42  1  0  0  0  0
 44 46  1  0  0  0  0
 45 44  1  0  0  0  0
 46 48  2  0  0  0  0
 46 47  1  0  0  0  0
 48 49  1  0  0  0  0
M  END
