1,2,4,6
q = 0.0, confidence = 1.0

 42 43  0  0  1  0  0  0  0  0999 V2000
    1.5831   -1.3081   -0.0627 N   0  0  0  0  0  2  0  0  0  0  0  0
    1.5504    1.4040   -0.3894 N   0  0  0  0  0  0  0  0  0  0  0  0
    1.5274    1.3609   -1.4201 H   0  0  0  0  0  0  0  0  0  0  0  0
   -1.4822    1.4152   -0.4676 N   0  0  0  0  0  0  0  0  0  0  0  0
   -1.4433    1.3710   -1.4974 H   0  0  0  0  0  0  0  0  0  0  0  0
   -1.6344   -1.2890    0.0079 N   0  0  0  0  0  2  0  0  0  0  0  0
    0.0456    3.0685   -2.0524 O   0  0  0  0  0  0  0  0  0  0  0  0
    0.5706    3.7435   -2.5187 H   0  0  0  0  0  0  0  0  0  0  0  0
    3.1722   -2.7764   -0.4682 N   0  0  0  0  0  0  0  0  0  0  0  0
    3.6307   -3.6712   -0.6524 H   0  0  0  0  0  0  0  0  0  0  0  0
   -3.2698   -2.7213   -0.3399 N   0  0  0  0  0  0  0  0  0  0  0  0
   -3.7600   -3.6094   -0.4650 H   0  0  0  0  0  0  0  0  0  0  0  0
    5.2883   -1.3843   -0.5423 C   0  0  0  0  0  0  0  0  0  0  0  0
    5.5513   -0.3113   -0.5875 H   0  0  0  0  0  0  0  0  0  0  0  0
    5.6622   -1.8626   -1.4708 H   0  0  0  0  0  0  0  0  0  0  0  0
    5.8446   -1.8246    0.3117 H   0  0  0  0  0  0  0  0  0  0  0  0
    3.8153   -1.5481   -0.3881 C   0  0  0  0  0  0  0  0  0  0  0  0
    1.8386   -2.5953   -0.2705 C   0  0  0  0  0  3  0  0  0  0  0  0
    1.1103   -3.4124   -0.2944 H   0  0  0  0  0  0  0  0  0  0  0  0
    2.7960   -0.6420   -0.1292 C   0  0  0  0  0  0  0  0  0  0  0  0
    2.8035    0.8339    0.1258 C   0  0  0  0  0  0  0  0  0  0  0  0
    2.8077    1.0200    1.2228 H   0  0  0  0  0  0  0  0  0  0  0  0
    3.7132    1.3158   -0.2993 H   0  0  0  0  0  0  0  0  0  0  0  0
    1.3320    2.8007    0.0052 C   0  0  0  0  0  0  0  0  0  0  0  0
    2.2031    3.4364   -0.2851 H   0  0  0  0  0  0  0  0  0  0  0  0
    1.2340    2.8333    1.1105 H   0  0  0  0  0  0  0  0  0  0  0  0
    0.0595    3.3574   -0.6482 C   0  0  2  0  0  0  0  0  0  0  0  0
    0.0480    4.4548   -0.4632 H   0  0  0  0  0  0  0  0  0  0  0  0
   -1.2447    2.8115   -0.0654 C   0  0  0  0  0  0  0  0  0  0  0  0
   -1.1940    2.8381    1.0426 H   0  0  0  0  0  0  0  0  0  0  0  0
   -2.0849    3.4615   -0.4013 H   0  0  0  0  0  0  0  0  0  0  0  0
   -2.7780    0.9041    0.0103 C   0  0  0  0  0  0  0  0  0  0  0  0
   -3.6473    1.3937   -0.4834 H   0  0  0  0  0  0  0  0  0  0  0  0
   -2.8314    1.1472    1.0947 H   0  0  0  0  0  0  0  0  0  0  0  0
   -2.8141   -0.5833   -0.1596 C   0  0  0  0  0  0  0  0  0  0  0  0
   -1.9378   -2.5777   -0.1023 C   0  0  0  0  0  3  0  0  0  0  0  0
   -1.2483   -3.4235   -0.0116 H   0  0  0  0  0  0  0  0  0  0  0  0
   -3.8615   -1.4660   -0.3861 C   0  0  0  0  0  0  0  0  0  0  0  0
   -5.3197   -1.2567   -0.6109 C   0  0  0  0  0  0  0  0  0  0  0  0
   -5.5351   -0.1814   -0.7515 H   0  0  0  0  0  0  0  0  0  0  0  0
   -5.9252   -1.6050    0.2521 H   0  0  0  0  0  0  0  0  0  0  0  0
   -5.6792   -1.7927   -1.5132 H   0  0  0  0  0  0  0  0  0  0  0  0
  2 24  1  0  0  0  0
  2 21  1  0  0  0  0
  3  2  1  0  0  0  0
  4 29  1  0  0  0  0
  4 32  1  0  0  0  0
  5  4  1  0  0  0  0
  7 27  1  0  0  0  0
  8  7  1  0  0  0  0
  9 17  1  0  0  0  0
  9 18  1  0  0  0  0
 10  9  1  0  0  0  0
 11 36  1  0  0  0  0
 12 11  1  0  0  0  0
 13 17  1  0  0  0  0
 13 16  1  0  0  0  0
 14 13  1  0  0  0  0
 15 13  1  0  0  0  0
 17 20  2  0  0  0  0
 18  1  1  0  0  0  0
 19 18  1  0  0  0  0
 20  1  1  0  0  0  0
 20 21  1  0  0  0  0
 21 22  1  0  0  0  0
 23 21  1  0  0  0  0
 24 26  1  0  0  0  0
 25 24  1  0  0  0  0
 27 28  1  1  0  0  0
 27 29  1  0  0  0  0
 27 24  1  0  0  0  0
 29 30  1  0  0  0  0
 31 29  1  0  0  0  0
 32 34  1  0  0  0  0
 33 32  1  0  0  0  0
 35  6  1  0  0  0  0
 35 32  1  0  0  0  0
 36 37  1  0  0  0  0
 36  6  1  0  0  0  0
 38 11  1  0  0  0  0
 38 35  2  0  0  0  0
 39 38  1  0  0  0  0
 39 41  1  0  0  0  0
 40 39  1  0  0  0  0
 42 39  1  0  0  0  0
M  END
