1,2,3,4
q = -1.0, confidence = 0.224

 64 66  0  0  0  0  0  0  0  0999 V2000
    0.1490   -0.5109    2.1984 N   0  0  0  0  0  0  0  0  0  0  0  0
    2.1987    0.3436    0.5580 N   0  0  0  0  0  2  0  0  0  0  0  0
   -0.9722   -1.3713   -0.1493 N   0  0  0  0  0  2  0  0  0  0  0  0
   -1.0918    1.2681    0.4375 N   0  0  0  0  0  2  0  0  0  0  0  0
    1.5429   -0.6432    2.6608 C   0  0  0  0  0  0  0  0  0  0  0  0
    1.6046   -0.5760    3.7704 H   0  0  0  0  0  0  0  0  0  0  0  0
    1.9016   -1.6483    2.3621 H   0  0  0  0  0  0  0  0  0  0  0  0
    2.4186    0.4065    1.9800 C   0  0  0  0  0  0  0  0  0  0  0  0
    2.1893    1.4340    2.3658 H   0  0  0  0  0  0  0  0  0  0  0  0
    3.4901    0.2351    2.2323 H   0  0  0  0  0  0  0  0  0  0  0  0
    3.2430    0.9163   -0.2658 C   0  0  0  0  0  0  0  0  0  0  0  0
    3.6916    1.8206    0.2033 H   0  0  0  0  0  0  0  0  0  0  0  0
    2.8092    1.1835   -1.2490 H   0  0  0  0  0  0  0  0  0  0  0  0
    4.2952   -0.1756   -0.4286 C   0  0  0  0  0  0  0  0  0  0  0  0
    5.5095   -0.1308    0.2825 C   0  0  0  0  0  0  0  0  0  0  0  0
    5.7392    0.7338    0.9258 H   0  0  0  0  0  0  0  0  0  0  0  0
    6.4492   -1.1629    0.1355 C   0  0  0  0  0  0  0  0  0  0  0  0
    7.4091   -1.1094    0.6708 H   0  0  0  0  0  0  0  0  0  0  0  0
    6.1706   -2.2542   -0.7051 C   0  0  0  0  0  0  0  0  0  0  0  0
    6.9079   -3.0634   -0.8165 H   0  0  0  0  0  0  0  0  0  0  0  0
    4.9536   -2.3089   -1.4055 C   0  0  0  0  0  0  0  0  0  0  0  0
    4.7389   -3.1584   -2.0712 H   0  0  0  0  0  0  0  0  0  0  0  0
    4.0125   -1.2807   -1.2620 C   0  0  0  0  0  0  0  0  0  0  0  0
    3.0561   -1.3089   -1.8078 H   0  0  0  0  0  0  0  0  0  0  0  0
   -0.6382   -1.7525    2.2060 C   0  0  0  0  0  0  0  0  0  0  0  0
   -1.6848   -1.5231    2.4790 H   0  0  0  0  0  0  0  0  0  0  0  0
   -0.2430   -2.4650    2.9590 H   0  0  0  0  0  0  0  0  0  0  0  0
   -0.6252   -2.3927    0.7980 C   0  0  0  0  0  0  0  0  0  0  0  0
    0.4017   -2.7932    0.6039 H   0  0  0  0  0  0  0  0  0  0  0  0
   -1.3252   -3.2569    0.7576 H   0  0  0  0  0  0  0  0  0  0  0  0
   -1.7538   -1.7242   -1.3095 C   0  0  0  0  0  0  0  0  0  0  0  0
   -1.1653   -2.3734   -2.0025 H   0  0  0  0  0  0  0  0  0  0  0  0
   -1.9588   -0.8003   -1.8880 H   0  0  0  0  0  0  0  0  0  0  0  0
   -3.0391   -2.4213   -0.9034 C   0  0  0  0  0  0  0  0  0  0  0  0
   -3.9665   -1.7514   -0.0758 C   0  0  0  0  0  0  0  0  0  0  0  0
   -3.7597   -0.7157    0.2365 H   0  0  0  0  0  0  0  0  0  0  0  0
   -5.1515   -2.3824    0.3261 C   0  0  0  0  0  0  0  0  0  0  0  0
   -5.8729   -1.8464    0.9611 H   0  0  0  0  0  0  0  0  0  0  0  0
   -5.4228   -3.6958   -0.0926 C   0  0  0  0  0  0  0  0  0  0  0  0
   -6.3541   -4.1922    0.2179 H   0  0  0  0  0  0  0  0  0  0  0  0
   -4.5054   -4.3710   -0.9135 C   0  0  0  0  0  0  0  0  0  0  0  0
   -4.7172   -5.3973   -1.2488 H   0  0  0  0  0  0  0  0  0  0  0  0
   -3.3160   -3.7395   -1.3109 C   0  0  0  0  0  0  0  0  0  0  0  0
   -2.5986   -4.2723   -1.9546 H   0  0  0  0  0  0  0  0  0  0  0  0
   -0.5653    0.6735    2.7203 C   0  0  0  0  0  0  0  0  0  0  0  0
    0.1691    1.4967    2.8173 H   0  0  0  0  0  0  0  0  0  0  0  0
   -0.9754    0.4713    3.7346 H   0  0  0  0  0  0  0  0  0  0  0  0
   -1.6609    1.1021    1.7505 C   0  0  0  0  0  0  0  0  0  0  0  0
   -2.5331    0.4056    1.7645 H   0  0  0  0  0  0  0  0  0  0  0  0
   -2.0735    2.0863    2.0791 H   0  0  0  0  0  0  0  0  0  0  0  0
   -1.9924    1.6973   -0.6028 C   0  0  0  0  0  0  0  0  0  0  0  0
   -3.0553    1.4176   -0.4314 H   0  0  0  0  0  0  0  0  0  0  0  0
   -1.6408    1.2918   -1.5733 H   0  0  0  0  0  0  0  0  0  0  0  0
   -1.8025    3.2110   -0.5853 C   0  0  0  0  0  0  0  0  0  0  0  0
   -0.6547    3.7694   -1.1932 C   0  0  0  0  0  0  0  0  0  0  0  0
    0.0667    3.1013   -1.6898 H   0  0  0  0  0  0  0  0  0  0  0  0
   -0.4617    5.1556   -1.1749 C   0  0  0  0  0  0  0  0  0  0  0  0
    0.4197    5.5927   -1.6672 H   0  0  0  0  0  0  0  0  0  0  0  0
   -1.3936    5.9879   -0.5298 C   0  0  0  0  0  0  0  0  0  0  0  0
   -1.2378    7.0769   -0.5110 H   0  0  0  0  0  0  0  0  0  0  0  0
   -2.5255    5.4323    0.0940 C   0  0  0  0  0  0  0  0  0  0  0  0
   -3.2622    6.0863    0.5840 H   0  0  0  0  0  0  0  0  0  0  0  0
   -2.7226    4.0446    0.0820 C   0  0  0  0  0  0  0  0  0  0  0  0
   -3.6179    3.6112    0.5559 H   0  0  0  0  0  0  0  0  0  0  0  0
  1 25  1  0  0  0  0
  1  5  1  0  0  0  0
  1 45  1  0  0  0  0
  2  8  1  0  0  0  0
  3 28  1  0  0  0  0
  4 48  1  0  0  0  0
  5  6  1  0  0  0  0
  7  5  1  0  0  0  0
  8 10  1  0  0  0  0
  8  9  1  0  0  0  0
  8  5  1  0  0  0  0
 11 12  1  0  0  0  0
 11  2  1  0  0  0  0
 13 11  1  0  0  0  0
 14 11  1  0  0  0  0
 14 15  1  0  0  0  0
 15 16  1  0  0  0  0
 17 15  2  0  0  0  0
 17 18  1  0  0  0  0
 19 17  1  0  0  0  0
 20 19  1  0  0  0  0
 21 23  1  0  0  0  0
 21 19  2  0  0  0  0
 22 21  1  0  0  0  0
 23 14  2  0  0  0  0
 24 23  1  0  0  0  0
 25 26  1  0  0  0  0
 25 27  1  0  0  0  0
 28 25  1  0  0  0  0
 29 28  1  0  0  0  0
 30 28  1  0  0  0  0
 31 34  1  0  0  0  0
 31  3  1  0  0  0  0
 32 31  1  0  0  0  0
 33 31  1  0  0  0  0
 34 35  1  0  0  0  0
 35 36  1  0  0  0  0
 35 37  2  0  0  0  0
 37 38  1  0  0  0  0
 39 40  1  0  0  0  0
 39 37  1  0  0  0  0
 41 39  2  0  0  0  0
 42 41  1  0  0  0  0
 43 41  1  0  0  0  0
 43 34  2  0  0  0  0
 44 43  1  0  0  0  0
 45 46  1  0  0  0  0
 45 47  1  0  0  0  0
 48 49  1  0  0  0  0
 48 50  1  0  0  0  0
 48 45  1  0  0  0  0
 51 54  1  0  0  0  0
 51 52  1  0  0  0  0
 51  4  1  0  0  0  0
 53 51  1  0  0  0  0
 54 63  1  0  0  0  0
 55 57  1  0  0  0  0
 55 54  2  0  0  0  0
 56 55  1  0  0  0  0
 57 59  2  0  0  0  0
 58 57  1  0  0  0  0
 59 60  1  0  0  0  0
 59 61  1  0  0  0  0
 61 62  1  0  0  0  0
 63 61  2  0  0  0  0
 63 64  1  0  0  0  0
M  END
