1,3,4,6
q = -1.0, confidence = 0.064

 65 67  0  0  1  0  0  0  0  0999 V2000
    1.3699   -0.8187    0.8614 N   0  0  0  0  0  0  0  0  0  0  0  0
    1.5668   -0.3580    1.7635 H   0  0  0  0  0  0  0  0  0  0  0  0
    1.2159    1.4071   -0.4121 N   0  0  0  0  0  2  0  0  0  0  0  0
   -1.2451   -1.3060    0.3701 N   0  0  0  0  0  0  0  0  0  0  0  0
   -1.5972   -1.1895    1.3356 H   0  0  0  0  0  0  0  0  0  0  0  0
   -1.5049    1.0270   -0.7139 N   0  0  0  0  0  2  0  0  0  0  0  0
    0.9221    2.6668   -0.6319 O   0  0  0  0  0  0  0  0  0  0  0  0
   -1.4635    2.3076   -0.9512 O   0  0  0  0  0  1  0  0  0  0  0  0
    3.9019   -0.7484    0.7443 C   0  0  1  0  0  0  0  0  0  0  0  0
    3.9908   -1.8123    1.0518 H   0  0  0  0  0  0  0  0  0  0  0  0
    2.5819   -0.5140   -0.0197 C   0  0  2  0  0  0  0  0  0  0  0  0
    2.4544    0.9960   -0.2643 C   0  0  2  0  0  3  0  0  0  0  0  0
    3.6263    1.9234   -0.1060 C   0  0  0  0  0  0  0  0  0  0  0  0
    3.2543    2.8390    0.4026 H   0  0  0  0  0  0  0  0  0  0  0  0
    4.0175    2.2713   -1.0866 H   0  0  0  0  0  0  0  0  0  0  0  0
    4.7201    1.2243    0.7223 C   0  0  2  0  0  0  0  0  0  0  0  0
    5.5142    1.9390    1.0160 H   0  0  0  0  0  0  0  0  0  0  0  0
    5.1741   -0.1121    0.0414 C   0  0  0  0  0  0  0  0  0  0  0  0
    4.0482    0.3644    1.8264 C   0  0  0  0  0  0  0  0  0  0  0  0
    4.7355    0.0825    2.6420 H   0  0  0  0  0  0  0  0  0  0  0  0
    3.1253    0.7801    2.2896 H   0  0  0  0  0  0  0  0  0  0  0  0
    5.3681   -0.1045   -1.4754 C   0  0  0  0  0  0  0  0  0  0  0  0
    5.5146   -1.1306   -1.8696 H   0  0  0  0  0  0  0  0  0  0  0  0
    6.2884    0.4664   -1.7162 H   0  0  0  0  0  0  0  0  0  0  0  0
    4.5443    0.3693   -2.0403 H   0  0  0  0  0  0  0  0  0  0  0  0
    6.4537   -0.6835    0.6737 C   0  0  0  0  0  0  0  0  0  0  0  0
    6.4193   -0.7276    1.7785 H   0  0  0  0  0  0  0  0  0  0  0  0
    7.3285   -0.0641    0.3911 H   0  0  0  0  0  0  0  0  0  0  0  0
    6.6388   -1.7123    0.3031 H   0  0  0  0  0  0  0  0  0  0  0  0
    2.4424   -1.3569   -1.2959 C   0  0  0  0  0  0  0  0  0  0  0  0
    2.5459   -2.4379   -1.0745 H   0  0  0  0  0  0  0  0  0  0  0  0
    3.2188   -1.0973   -2.0310 H   0  0  0  0  0  0  0  0  0  0  0  0
    1.4573   -1.1724   -1.7700 H   0  0  0  0  0  0  0  0  0  0  0  0
    0.9010   -2.2136    1.1311 C   0  0  0  0  0  0  0  0  0  0  0  0
    0.6796   -2.2810    2.2157 H   0  0  0  0  0  0  0  0  0  0  0  0
    1.6877   -2.9665    0.9224 H   0  0  0  0  0  0  0  0  0  0  0  0
   -0.3669   -2.5084    0.3140 C   0  0  0  0  0  0  0  0  0  0  0  0
   -0.1005   -2.6877   -0.7425 H   0  0  0  0  0  0  0  0  0  0  0  0
   -0.8757   -3.4217    0.6916 H   0  0  0  0  0  0  0  0  0  0  0  0
   -2.4648   -1.1755   -0.5361 C   0  0  1  0  0  0  0  0  0  0  0  0
   -3.7161   -1.6963    0.2119 C   0  0  0  0  0  0  0  0  0  0  0  0
   -3.6646   -1.3309    1.2621 H   0  0  0  0  0  0  0  0  0  0  0  0
   -3.6942   -2.8056    0.2440 H   0  0  0  0  0  0  0  0  0  0  0  0
   -5.0280   -1.1895   -0.3975 C   0  0  0  0  0  0  0  0  0  0  0  0
   -5.1437   -1.5638   -1.4366 H   0  0  0  0  0  0  0  0  0  0  0  0
   -5.8807   -1.6104    0.1699 H   0  0  0  0  0  0  0  0  0  0  0  0
   -5.0797    0.3571   -0.4050 C   0  0  2  0  0  0  0  0  0  0  0  0
   -6.0308    0.6531   -0.9008 H   0  0  0  0  0  0  0  0  0  0  0  0
   -3.9174    0.8820   -1.2711 C   0  0  0  0  0  0  0  0  0  0  0  0
   -4.0990    0.5763   -2.3266 H   0  0  0  0  0  0  0  0  0  0  0  0
   -3.8548    1.9858   -1.2734 H   0  0  0  0  0  0  0  0  0  0  0  0
   -2.6081    0.3175   -0.8187 C   0  0  2  0  0  3  0  0  0  0  0  0
   -2.2436   -1.9257   -1.8583 C   0  0  0  0  0  0  0  0  0  0  0  0
   -2.1891   -3.0225   -1.7109 H   0  0  0  0  0  0  0  0  0  0  0  0
   -1.3268   -1.5706   -2.3696 H   0  0  0  0  0  0  0  0  0  0  0  0
   -3.0926   -1.7268   -2.5384 H   0  0  0  0  0  0  0  0  0  0  0  0
   -5.1149    0.9395    1.0045 C   0  0  0  0  0  0  0  0  0  0  0  0
   -4.1965    1.8151    1.4691 C   0  0  0  0  0  0  0  0  0  0  0  0
   -3.3556    2.1893    0.8657 H   0  0  0  0  0  0  0  0  0  0  0  0
   -4.2873    2.2261    2.4870 H   0  0  0  0  0  0  0  0  0  0  0  0
   -6.2742    0.4962    1.8623 C   0  0  0  0  0  0  0  0  0  0  0  0
   -7.2400    0.6312    1.3300 H   0  0  0  0  0  0  0  0  0  0  0  0
   -6.3204    1.0667    2.8087 H   0  0  0  0  0  0  0  0  0  0  0  0
   -6.2127   -0.5821    2.1246 H   0  0  0  0  0  0  0  0  0  0  0  0
   -0.2198    2.6353   -0.7862 H   0  0  0  0  0  0  0  0  0  0  0  0
  1 34  1  0  0  0  0
  1  2  1  0  0  0  0
  4  5  1  0  0  0  0
  7  3  1  0  0  0  0
  8  6  1  0  0  0  0
  9 10  1  1  0  0  0
  9 19  1  0  0  0  0
 11 30  1  6  0  0  0
 11  9  1  0  0  0  0
 11  1  1  0  0  0  0
 12  3  1  1  0  0  0
 12 13  1  0  0  0  0
 12 11  1  0  0  0  0
 13 14  1  0  0  0  0
 13 16  1  0  0  0  0
 15 13  1  0  0  0  0
 16 17  1  1  0  0  0
 16 19  1  0  0  0  0
 18 26  1  0  0  0  0
 18 16  1  0  0  0  0
 18  9  1  0  0  0  0
 19 21  1  0  0  0  0
 19 20  1  0  0  0  0
 22 18  1  0  0  0  0
 23 22  1  0  0  0  0
 24 22  1  0  0  0  0
 25 22  1  0  0  0  0
 26 27  1  0  0  0  0
 28 26  1  0  0  0  0
 29 26  1  0  0  0  0
 30 31  1  0  0  0  0
 32 30  1  0  0  0  0
 33 30  1  0  0  0  0
 34 35  1  0  0  0  0
 36 34  1  0  0  0  0
 37  4  1  0  0  0  0
 37 39  1  0  0  0  0
 37 34  1  0  0  0  0
 38 37  1  0  0  0  0
 40 53  1  6  0  0  0
 40 41  1  0  0  0  0
 40  4  1  0  0  0  0
 41 43  1  0  0  0  0
 41 42  1  0  0  0  0
 44 46  1  0  0  0  0
 44 41  1  0  0  0  0
 45 44  1  0  0  0  0
 47 48  1  6  0  0  0
 47 44  1  0  0  0  0
 47 57  1  0  0  0  0
 49 52  1  0  0  0  0
 49 47  1  0  0  0  0
 50 49  1  0  0  0  0
 51 49  1  0  0  0  0
 52  6  1  6  0  0  0
 52 40  1  0  0  0  0
 53 54  1  0  0  0  0
 55 53  1  0  0  0  0
 56 53  1  0  0  0  0
 57 58  2  0  0  0  0
 57 61  1  0  0  0  0
 58 60  1  0  0  0  0
 59 58  1  0  0  0  0
 61 64  1  0  0  0  0
 61 63  1  0  0  0  0
 62 61  1  0  0  0  0
 65  7  1  0  0  0  0
M  END
