1,4,5,7
q = 0.0, confidence = 0.996

 35 35  0  0  0  0  0  0  0  0999 V2000
    1.3816    2.0010    0.3433 N   0  0  0  0  0  0  0  0  0  0  0  0
    1.8689    2.2987   -0.5185 H   0  0  0  0  0  0  0  0  0  0  0  0
    2.0431    2.0318    1.1334 H   0  0  0  0  0  0  0  0  0  0  0  0
   -1.1210    1.0193   -0.1792 N   0  0  0  0  0  0  0  0  0  0  0  0
   -0.0891   -1.5875   -0.3319 N   0  0  0  0  0  0  0  0  0  0  0  0
   -0.0793   -1.5662   -1.3677 H   0  0  0  0  0  0  0  0  0  0  0  0
    2.4392   -0.7281    0.1479 N   0  0  0  0  0  0  0  0  0  0  0  0
    2.6963   -0.7190    1.1499 H   0  0  0  0  0  0  0  0  0  0  0  0
    3.1686   -0.2481   -0.3994 H   0  0  0  0  0  0  0  0  0  0  0  0
    0.2144    2.8771    0.6198 C   0  0  0  0  0  0  0  0  0  0  0  0
    0.4710    3.9515    0.5142 H   0  0  0  0  0  0  0  0  0  0  0  0
   -0.0921    2.6914    1.6684 H   0  0  0  0  0  0  0  0  0  0  0  0
   -0.8900    2.4699   -0.3409 C   0  0  0  0  0  0  0  0  0  0  0  0
   -1.8254    3.0420   -0.1620 H   0  0  0  0  0  0  0  0  0  0  0  0
   -0.5720    2.6325   -1.3912 H   0  0  0  0  0  0  0  0  0  0  0  0
   -2.0998    0.5279    0.8568 C   0  0  0  0  0  0  0  0  0  0  0  0
   -2.9517    1.2377    0.9261 H   0  0  0  0  0  0  0  0  0  0  0  0
   -1.6672    0.3315    1.8543 H   0  0  0  0  0  0  0  0  0  0  0  0
   -1.9529    0.3033   -1.2087 C   0  0  0  0  0  0  0  0  0  0  0  0
   -1.3869   -0.0524   -2.0912 H   0  0  0  0  0  0  0  0  0  0  0  0
   -2.7796    0.9621   -1.5489 H   0  0  0  0  0  0  0  0  0  0  0  0
   -2.4404   -0.6539   -0.0866 C   0  0  0  0  0  0  0  0  0  0  0  0
   -3.8840   -1.1322   -0.1176 C   0  0  0  0  0  0  0  0  0  0  0  0
   -4.0593   -1.8188   -0.9703 H   0  0  0  0  0  0  0  0  0  0  0  0
   -4.5863   -0.2812   -0.2134 H   0  0  0  0  0  0  0  0  0  0  0  0
   -4.1406   -1.6789    0.8126 H   0  0  0  0  0  0  0  0  0  0  0  0
   -1.4758   -1.8427    0.1317 C   0  0  0  0  0  0  0  0  0  0  0  0
   -1.4300   -2.0840    1.2120 H   0  0  0  0  0  0  0  0  0  0  0  0
   -1.8612   -2.7409   -0.3987 H   0  0  0  0  0  0  0  0  0  0  0  0
    0.8981   -2.6017    0.1138 C   0  0  0  0  0  0  0  0  0  0  0  0
    0.6598   -3.6063   -0.2961 H   0  0  0  0  0  0  0  0  0  0  0  0
    0.8454   -2.6487    1.2201 H   0  0  0  0  0  0  0  0  0  0  0  0
    2.2670   -2.1211   -0.3410 C   0  0  0  0  0  0  0  0  0  0  0  0
    3.0729   -2.7882    0.0272 H   0  0  0  0  0  0  0  0  0  0  0  0
    2.3204   -2.0894   -1.4477 H   0  0  0  0  0  0  0  0  0  0  0  0
  1 10  1  0  0  0  0
  1  3  1  0  0  0  0
  2  1  1  0  0  0  0
  4 16  1  0  0  0  0
  5 30  1  0  0  0  0
  5 27  1  0  0  0  0
  6  5  1  0  0  0  0
  7  8  1  0  0  0  0
  9  7  1  0  0  0  0
 10 12  1  0  0  0  0
 11 10  1  0  0  0  0
 13  4  1  0  0  0  0
 13 14  1  0  0  0  0
 13 10  1  0  0  0  0
 15 13  1  0  0  0  0
 16 17  1  0  0  0  0
 16 18  1  0  0  0  0
 19  4  1  0  0  0  0
 19 22  1  0  0  0  0
 20 19  1  0  0  0  0
 21 19  1  0  0  0  0
 22 27  1  0  0  0  0
 22 16  1  0  0  0  0
 23 22  1  0  0  0  0
 23 26  1  0  0  0  0
 24 23  1  0  0  0  0
 25 23  1  0  0  0  0
 27 28  1  0  0  0  0
 29 27  1  0  0  0  0
 30 32  1  0  0  0  0
 31 30  1  0  0  0  0
 33 34  1  0  0  0  0
 33 30  1  0  0  0  0
 33  7  1  0  0  0  0
 35 33  1  0  0  0  0
M  END
