2,4,7,12
q = 0.0, confidence = 0.986

 42 43  0  0  1  0  0  0  0  0999 V2000
   -0.0123   -0.6260    2.7996 F   0  0  0  0  0  0  0  0  0  0  0  0
   -1.5570    0.1738    1.3308 N   0  0  0  0  0  2  0  0  0  0  0  0
   -1.0739    0.1371    2.5899 C   0  0  1  0  0  3  0  0  0  0  0  0
   -2.6194   -0.0995   -1.0687 N   0  0  0  0  0  0  0  0  0  0  0  0
   -1.6256    0.8220    3.6743 C   0  0  0  0  0  0  0  0  0  0  0  0
   -1.1358    0.7329    4.6529 H   0  0  0  0  0  0  0  0  0  0  0  0
   -0.3235   -1.1703   -2.2313 N   0  0  0  0  0  0  0  0  0  0  0  0
   -2.7704    1.5962    3.4618 C   0  0  0  0  0  0  0  0  0  0  0  0
   -3.2316    2.1539    4.2890 H   0  0  0  0  0  0  0  0  0  0  0  0
   -3.3081    1.6466    2.1666 C   0  0  0  0  0  0  0  0  0  0  0  0
   -4.1985    2.2499    1.9405 H   0  0  0  0  0  0  0  0  0  0  0  0
   -1.5373   -2.4545   -0.0649 N   0  0  0  0  0  0  0  0  0  0  0  0
   -2.6790    0.9470    1.1370 C   0  0  0  0  0  0  0  0  0  0  0  0
   -3.0960    1.0771   -0.2977 C   0  0  0  0  0  0  0  0  0  0  0  0
   -4.1952    1.2176   -0.3965 H   0  0  0  0  0  0  0  0  0  0  0  0
   -2.6017    1.9849   -0.7091 H   0  0  0  0  0  0  0  0  0  0  0  0
   -2.3543    0.2460   -2.4926 C   0  0  0  0  0  0  0  0  0  0  0  0
   -1.8117    1.2089   -2.4734 H   0  0  0  0  0  0  0  0  0  0  0  0
   -3.3013    0.3764   -3.0655 H   0  0  0  0  0  0  0  0  0  0  0  0
   -1.4792   -0.8295   -3.1221 C   0  0  0  0  0  0  0  0  0  0  0  0
   -2.0669   -1.7487   -3.3172 H   0  0  0  0  0  0  0  0  0  0  0  0
   -1.1167   -0.4845   -4.1129 H   0  0  0  0  0  0  0  0  0  0  0  0
    0.9267   -0.5586   -2.7401 C   0  0  0  0  0  0  0  0  0  0  0  0
    1.1847   -0.9884   -3.7336 H   0  0  0  0  0  0  0  0  0  0  0  0
    1.7388   -0.7586   -2.0222 H   0  0  0  0  0  0  0  0  0  0  0  0
    0.7963    0.5338   -2.8159 H   0  0  0  0  0  0  0  0  0  0  0  0
   -0.1387   -2.6382   -2.1038 C   0  0  0  0  0  0  0  0  0  0  0  0
    0.8185   -2.8034   -1.5677 H   0  0  0  0  0  0  0  0  0  0  0  0
   -0.0582   -3.1213   -3.1065 H   0  0  0  0  0  0  0  0  0  0  0  0
   -1.2893   -3.2417   -1.3208 C   0  0  0  0  0  0  0  0  0  0  0  0
   -1.0676   -4.2998   -1.0713 H   0  0  0  0  0  0  0  0  0  0  0  0
   -2.2195   -3.2560   -1.9222 H   0  0  0  0  0  0  0  0  0  0  0  0
   -0.9553   -3.1756    1.0907 C   0  0  0  0  0  0  0  0  0  0  0  0
   -1.5212   -4.1146    1.2846 H   0  0  0  0  0  0  0  0  0  0  0  0
   -0.9678   -2.5362    1.9878 H   0  0  0  0  0  0  0  0  0  0  0  0
    0.0974   -3.4306    0.8804 H   0  0  0  0  0  0  0  0  0  0  0  0
   -2.9911   -2.2367    0.1461 C   0  0  0  0  0  0  0  0  0  0  0  0
   -3.1184   -1.8185    1.1619 H   0  0  0  0  0  0  0  0  0  0  0  0
   -3.5530   -3.2000    0.1116 H   0  0  0  0  0  0  0  0  0  0  0  0
   -3.5326   -1.2732   -0.9050 C   0  0  0  0  0  0  0  0  0  0  0  0
   -3.6280   -1.7832   -1.8831 H   0  0  0  0  0  0  0  0  0  0  0  0
   -4.5540   -0.9382   -0.6276 H   0  0  0  0  0  0  0  0  0  0  0  0
  2  3  1  0  0  0  0
  3  1  1  1  0  0  0
  3  5  1  0  0  0  0
  4 40  1  0  0  0  0
  4 14  1  0  0  0  0
  5  6  1  0  0  0  0
  7 27  1  0  0  0  0
  8  5  2  0  0  0  0
  8  9  1  0  0  0  0
 10  8  1  0  0  0  0
 11 10  1  0  0  0  0
 12 37  1  0  0  0  0
 12 33  1  0  0  0  0
 13  2  1  0  0  0  0
 13 10  2  0  0  0  0
 14 13  1  0  0  0  0
 15 14  1  0  0  0  0
 16 14  1  0  0  0  0
 17 18  1  0  0  0  0
 17  4  1  0  0  0  0
 19 17  1  0  0  0  0
 20 17  1  0  0  0  0
 20  7  1  0  0  0  0
 21 20  1  0  0  0  0
 22 20  1  0  0  0  0
 23  7  1  0  0  0  0
 23 25  1  0  0  0  0
 24 23  1  0  0  0  0
 26 23  1  0  0  0  0
 27 28  1  0  0  0  0
 27 30  1  0  0  0  0
 29 27  1  0  0  0  0
 30 31  1  0  0  0  0
 30 12  1  0  0  0  0
 32 30  1  0  0  0  0
 33 34  1  0  0  0  0
 33 35  1  0  0  0  0
 36 33  1  0  0  0  0
 37 38  1  0  0  0  0
 39 37  1  0  0  0  0
 40 42  1  0  0  0  0
 40 37  1  0  0  0  0
 41 40  1  0  0  0  0
M  END
