2,8,11,14
q = 0.0, confidence = 0.756

 44 45  0  0  1  0  0  0  0  0999 V2000
    2.2637   -1.0231   -0.1889 C   0  0  1  0  0  3  0  0  0  0  0  0
    1.1359   -0.4553   -0.7345 N   0  0  0  0  0  2  0  0  0  0  0  0
    5.9620   -0.0415   -1.7064 O   0  0  0  0  0  0  0  0  0  0  0  0
    3.5404   -0.7246   -0.6557 C   0  0  0  0  0  0  0  0  0  0  0  0
    4.4407   -1.1860   -0.2293 H   0  0  0  0  0  0  0  0  0  0  0  0
    5.0657    1.4083   -3.0883 O   0  0  0  0  0  0  0  0  0  0  0  0
    3.6648    0.2205   -1.6842 C   0  0  0  0  0  0  0  0  0  0  0  0
    0.6216   -2.4593    0.9042 N   0  0  0  0  0  0  0  0  0  0  0  0
    2.5271    0.8445   -2.2149 C   0  0  0  0  0  0  0  0  0  0  0  0
    2.6298    1.5997   -3.0044 H   0  0  0  0  0  0  0  0  0  0  0  0
   -2.0703   -1.7404    1.1441 N   0  0  0  0  0  0  0  0  0  0  0  0
    1.2781    0.4806   -1.7173 C   0  0  0  0  0  0  0  0  0  0  0  0
    0.3520    0.9403   -2.0970 H   0  0  0  0  0  0  0  0  0  0  0  0
   -0.9569   -2.3772   -1.3620 N   0  0  0  0  0  0  0  0  0  0  0  0
    5.0004    0.5569   -2.1988 N   0  0  0  0  0  0  0  0  0  0  0  0
    1.9943   -1.8879    1.0081 C   0  0  0  0  0  0  0  0  0  0  0  0
    2.7632   -2.6807    1.1342 H   0  0  0  0  0  0  0  0  0  0  0  0
    2.0192   -1.2381    1.9150 H   0  0  0  0  0  0  0  0  0  0  0  0
   -0.0274   -2.7070    2.2230 C   0  0  0  0  0  0  0  0  0  0  0  0
    0.2295   -1.8512    2.8732 H   0  0  0  0  0  0  0  0  0  0  0  0
    0.3773   -3.6262    2.7056 H   0  0  0  0  0  0  0  0  0  0  0  0
   -1.5395   -2.8282    2.0302 C   0  0  0  0  0  0  0  0  0  0  0  0
   -1.7996   -3.8106    1.5874 H   0  0  0  0  0  0  0  0  0  0  0  0
   -2.0412   -2.7995    3.0196 H   0  0  0  0  0  0  0  0  0  0  0  0
   -2.7890   -0.7132    1.9386 C   0  0  0  0  0  0  0  0  0  0  0  0
   -3.7077   -1.1550    2.3838 H   0  0  0  0  0  0  0  0  0  0  0  0
   -3.0541    0.1269    1.2744 H   0  0  0  0  0  0  0  0  0  0  0  0
   -2.1323   -0.3172    2.7304 H   0  0  0  0  0  0  0  0  0  0  0  0
   -2.9734   -2.2490    0.0800 C   0  0  0  0  0  0  0  0  0  0  0  0
   -3.4018   -1.3663   -0.4360 H   0  0  0  0  0  0  0  0  0  0  0  0
   -3.8170   -2.8370    0.5124 H   0  0  0  0  0  0  0  0  0  0  0  0
   -2.1991   -3.0962   -0.9130 C   0  0  0  0  0  0  0  0  0  0  0  0
   -1.9084   -4.0670   -0.4665 H   0  0  0  0  0  0  0  0  0  0  0  0
   -2.8374   -3.3355   -1.7879 H   0  0  0  0  0  0  0  0  0  0  0  0
   -1.1666   -1.8222   -2.7209 C   0  0  0  0  0  0  0  0  0  0  0  0
   -1.2093   -2.6485   -3.4647 H   0  0  0  0  0  0  0  0  0  0  0  0
   -0.3433   -1.1366   -2.9848 H   0  0  0  0  0  0  0  0  0  0  0  0
   -2.1169   -1.2628   -2.7563 H   0  0  0  0  0  0  0  0  0  0  0  0
    0.2139   -3.2940   -1.3890 C   0  0  0  0  0  0  0  0  0  0  0  0
    1.0396   -2.7587   -1.8945 H   0  0  0  0  0  0  0  0  0  0  0  0
   -0.0077   -4.2043   -1.9927 H   0  0  0  0  0  0  0  0  0  0  0  0
    0.6046   -3.6729    0.0298 C   0  0  0  0  0  0  0  0  0  0  0  0
   -0.1171   -4.3990    0.4499 H   0  0  0  0  0  0  0  0  0  0  0  0
    1.5947   -4.1741    0.0407 H   0  0  0  0  0  0  0  0  0  0  0  0
  1 16  1  1  0  0  0
  2  1  1  0  0  0  0
  4  5  1  0  0  0  0
  4  1  1  0  0  0  0
  6 15  2  0  0  0  0
  7  4  2  0  0  0  0
  8 16  1  0  0  0  0
  8 19  1  0  0  0  0
  9 12  2  0  0  0  0
  9  7  1  0  0  0  0
 10  9  1  0  0  0  0
 11 25  1  0  0  0  0
 11 22  1  0  0  0  0
 12  2  1  0  0  0  0
 13 12  1  0  0  0  0
 14 32  1  0  0  0  0
 15  3  2  0  0  0  0
 15  7  1  0  0  0  0
 16 17  1  0  0  0  0
 16 18  1  0  0  0  0
 19 21  1  0  0  0  0
 19 20  1  0  0  0  0
 22 19  1  0  0  0  0
 22 24  1  0  0  0  0
 23 22  1  0  0  0  0
 25 26  1  0  0  0  0
 25 28  1  0  0  0  0
 27 25  1  0  0  0  0
 29 31  1  0  0  0  0
 29 11  1  0  0  0  0
 30 29  1  0  0  0  0
 32 33  1  0  0  0  0
 32 29  1  0  0  0  0
 34 32  1  0  0  0  0
 35 14  1  0  0  0  0
 36 35  1  0  0  0  0
 37 35  1  0  0  0  0
 38 35  1  0  0  0  0
 39 14  1  0  0  0  0
 39 42  1  0  0  0  0
 40 39  1  0  0  0  0
 41 39  1  0  0  0  0
 42 44  1  0  0  0  0
 42 43  1  0  0  0  0
 42  8  1  0  0  0  0
M  END
