1,2,3,4
q = -2.0, confidence = 0.608

 76 84  0  0  0  0  0  0  0  0999 V2000
   -0.5070    1.8606    0.1888 N   0  0  0  0  0  0  0  0  0  0  0  0
    1.8604    0.5068   -0.1884 N   0  0  0  0  0  2  0  0  0  0  0  0
    0.5067   -1.8605    0.1885 N   0  0  0  0  0  0  0  0  0  0  0  0
   -1.8607   -0.5069   -0.1889 N   0  0  0  0  0  0  0  0  0  0  0  0
   -1.7869    2.3134    0.4711 C   0  0  0  0  0  0  0  0  0  0  0  0
   -1.6985    3.5988    1.1434 C   0  0  0  0  0  0  0  0  0  0  0  0
   -2.9500    4.4954    1.8993 Cl  0  0  0  0  0  0  0  0  0  0  0  0
   -0.3657    3.9605    1.1497 C   0  0  0  0  0  0  0  0  0  0  0  0
    0.2544    5.3637    1.9163 Cl  0  0  0  0  0  0  0  0  0  0  0  0
    0.3660    2.8982    0.4803 C   0  0  0  0  0  0  0  0  0  0  0  0
    1.6891    2.9520    0.0080 C   0  0  0  0  0  0  0  0  0  0  0  0
    2.3133    1.7867   -0.4705 C   0  0  0  0  0  0  0  0  0  0  0  0
    3.5987    1.6986   -1.1425 C   0  0  0  0  0  0  0  0  0  0  0  0
    4.4951    2.9506   -1.8978 Cl  0  0  0  0  0  0  0  0  0  0  0  0
    3.9605    0.3658   -1.1490 C   0  0  0  0  0  0  0  0  0  0  0  0
    5.3639   -0.2542   -1.9152 Cl  0  0  0  0  0  0  0  0  0  0  0  0
    2.8981   -0.3661   -0.4798 C   0  0  0  0  0  0  0  0  0  0  0  0
    2.9519   -1.6893   -0.0078 C   0  0  0  0  0  0  0  0  0  0  0  0
    1.7865   -2.3135    0.4707 C   0  0  0  0  0  0  0  0  0  0  0  0
    1.6981   -3.5986    1.1435 C   0  0  0  0  0  0  0  0  0  0  0  0
    2.9494   -4.4946    1.9005 Cl  0  0  0  0  0  0  0  0  0  0  0  0
    0.3653   -3.9603    1.1496 C   0  0  0  0  0  0  0  0  0  0  0  0
   -0.2551   -5.3631    1.9168 Cl  0  0  0  0  0  0  0  0  0  0  0  0
   -0.3662   -2.8982    0.4797 C   0  0  0  0  0  0  0  0  0  0  0  0
   -1.6893   -2.9522    0.0073 C   0  0  0  0  0  0  0  0  0  0  0  0
   -2.3136   -1.7868   -0.4713 C   0  0  0  0  0  3  0  0  0  0  0  0
   -3.5989   -1.6981   -1.1439 C   0  0  0  0  0  0  0  0  0  0  0  0
   -4.4956   -2.9488   -1.9010 Cl  0  0  0  0  0  0  0  0  0  0  0  0
   -3.9605   -0.3652   -1.1498 C   0  0  0  0  0  0  0  0  0  0  0  0
   -5.3634    0.2553   -1.9167 Cl  0  0  0  0  0  0  0  0  0  0  0  0
   -2.8983    0.3662   -0.4801 C   0  0  0  0  0  0  0  0  0  0  0  0
   -2.9522    1.6892   -0.0076 C   0  0  0  0  0  0  0  0  0  0  0  0
    2.4300    4.2440    0.0129 C   0  0  0  0  0  0  0  0  0  0  0  0
    2.0333    5.2952   -0.8374 C   0  0  0  0  0  0  0  0  0  0  0  0
    2.7339    6.5078   -0.8362 C   0  0  0  0  0  0  0  0  0  0  0  0
    3.8307    6.6865    0.0221 C   0  0  0  0  0  0  0  0  0  0  0  0
    4.2284    5.6446    0.8751 C   0  0  0  0  0  0  0  0  0  0  0  0
    3.5357    4.4273    0.8671 C   0  0  0  0  0  0  0  0  0  0  0  0
    4.2440   -2.4301   -0.0134 C   0  0  0  0  0  0  0  0  0  0  0  0
    5.2950   -2.0343    0.8376 C   0  0  0  0  0  0  0  0  0  0  0  0
    6.5078   -2.7346    0.8355 C   0  0  0  0  0  0  0  0  0  0  0  0
    6.6870   -3.8298   -0.0247 C   0  0  0  0  0  0  0  0  0  0  0  0
    5.6454   -4.2264   -0.8786 C   0  0  0  0  0  0  0  0  0  0  0  0
    4.4279   -3.5342   -0.8695 C   0  0  0  0  0  0  0  0  0  0  0  0
   -2.4293   -4.2447    0.0128 C   0  0  0  0  0  0  0  0  0  0  0  0
   -3.5346   -4.4284    0.8674 C   0  0  0  0  0  0  0  0  0  0  0  0
   -4.2265   -5.6461    0.8761 C   0  0  0  0  0  0  0  0  0  0  0  0
   -3.8283   -6.6882    0.0235 C   0  0  0  0  0  0  0  0  0  0  0  0
   -2.7316   -6.5092   -0.8349 C   0  0  0  0  0  0  0  0  0  0  0  0
   -2.0317   -5.2962   -0.8367 C   0  0  0  0  0  0  0  0  0  0  0  0
   -4.2445    2.4296   -0.0127 C   0  0  0  0  0  0  0  0  0  0  0  0
   -4.4279    3.5356   -0.8664 C   0  0  0  0  0  0  0  0  0  0  0  0
   -5.6455    4.2277   -0.8748 C   0  0  0  0  0  0  0  0  0  0  0  0
   -6.6877    3.8290   -0.0226 C   0  0  0  0  0  0  0  0  0  0  0  0
   -6.5090    2.7319    0.8352 C   0  0  0  0  0  0  0  0  0  0  0  0
   -5.2960    2.0318    0.8368 C   0  0  0  0  0  0  0  0  0  0  0  0
    1.1713    5.1498   -1.5059 H   0  0  0  0  0  0  0  0  0  0  0  0
    2.4213    7.3209   -1.5088 H   0  0  0  0  0  0  0  0  0  0  0  0
    4.3780    7.6414    0.0258 H   0  0  0  0  0  0  0  0  0  0  0  0
    5.0862    5.7815    1.5510 H   0  0  0  0  0  0  0  0  0  0  0  0
    3.8439    3.6058    1.5312 H   0  0  0  0  0  0  0  0  0  0  0  0
    5.1493   -1.1735    1.5075 H   0  0  0  0  0  0  0  0  0  0  0  0
    7.3208   -2.4228    1.5086 H   0  0  0  0  0  0  0  0  0  0  0  0
    7.6421   -4.3769   -0.0292 H   0  0  0  0  0  0  0  0  0  0  0  0
    5.7828   -5.0830   -1.5559 H   0  0  0  0  0  0  0  0  0  0  0  0
    3.6067   -3.8414   -1.5345 H   0  0  0  0  0  0  0  0  0  0  0  0
   -3.8433   -3.6068    1.5312 H   0  0  0  0  0  0  0  0  0  0  0  0
   -5.0842   -5.7833    1.5521 H   0  0  0  0  0  0  0  0  0  0  0  0
   -4.3751   -7.6434    0.0277 H   0  0  0  0  0  0  0  0  0  0  0  0
   -2.4185   -7.3226   -1.5070 H   0  0  0  0  0  0  0  0  0  0  0  0
   -1.1698   -5.1506   -1.5052 H   0  0  0  0  0  0  0  0  0  0  0  0
   -3.6062    3.8445   -1.5300 H   0  0  0  0  0  0  0  0  0  0  0  0
   -5.7825    5.0857   -1.5503 H   0  0  0  0  0  0  0  0  0  0  0  0
   -7.6429    4.3759   -0.0266 H   0  0  0  0  0  0  0  0  0  0  0  0
   -7.3224    2.4184    1.5071 H   0  0  0  0  0  0  0  0  0  0  0  0
   -5.1506    1.1695    1.5047 H   0  0  0  0  0  0  0  0  0  0  0  0
  1  5  1  0  0  0  0
  1 10  2  0  0  0  0
  3 19  2  0  0  0  0
  3 24  1  0  0  0  0
  5  6  1  0  0  0  0
  6  8  2  0  0  0  0
  6  7  1  0  0  0  0
  8  9  1  0  0  0  0
 10  8  1  0  0  0  0
 11 33  1  0  0  0  0
 11 10  1  0  0  0  0
 12  2  1  0  0  0  0
 12 11  2  0  0  0  0
 13 12  1  0  0  0  0
 14 13  1  0  0  0  0
 15 13  2  0  0  0  0
 15 17  1  0  0  0  0
 16 15  1  0  0  0  0
 17  2  1  0  0  0  0
 17 18  2  0  0  0  0
 18 19  1  0  0  0  0
 19 20  1  0  0  0  0
 20 22  2  0  0  0  0
 20 21  1  0  0  0  0
 22 23  1  0  0  0  0
 24 22  1  0  0  0  0
 25 45  1  0  0  0  0
 25 24  2  0  0  0  0
 26  4  1  0  0  0  0
 26 25  1  0  0  0  0
 27 26  1  0  0  0  0
 28 27  1  0  0  0  0
 29 27  2  0  0  0  0
 29 31  1  0  0  0  0
 30 29  1  0  0  0  0
 31  4  2  0  0  0  0
 31 32  1  0  0  0  0
 32  5  2  0  0  0  0
 33 38  1  0  0  0  0
 34 35  1  0  0  0  0
 34 33  2  0  0  0  0
 35 36  2  0  0  0  0
 36 59  1  0  0  0  0
 36 37  1  0  0  0  0
 37 60  1  0  0  0  0
 38 37  2  0  0  0  0
 38 61  1  0  0  0  0
 39 18  1  0  0  0  0
 39 40  1  0  0  0  0
 40 62  1  0  0  0  0
 41 40  2  0  0  0  0
 41 63  1  0  0  0  0
 42 41  1  0  0  0  0
 43 44  1  0  0  0  0
 43 42  2  0  0  0  0
 44 39  2  0  0  0  0
 45 46  1  0  0  0  0
 46 47  2  0  0  0  0
 46 67  1  0  0  0  0
 47 68  1  0  0  0  0
 48 69  1  0  0  0  0
 48 47  1  0  0  0  0
 49 48  2  0  0  0  0
 50 49  1  0  0  0  0
 50 45  2  0  0  0  0
 51 32  1  0  0  0  0
 51 56  1  0  0  0  0
 52 51  2  0  0  0  0
 53 52  1  0  0  0  0
 53 54  2  0  0  0  0
 54 55  1  0  0  0  0
 55 56  2  0  0  0  0
 55 75  1  0  0  0  0
 56 76  1  0  0  0  0
 57 34  1  0  0  0  0
 58 35  1  0  0  0  0
 64 42  1  0  0  0  0
 65 43  1  0  0  0  0
 66 44  1  0  0  0  0
 70 49  1  0  0  0  0
 71 50  1  0  0  0  0
 72 52  1  0  0  0  0
 73 53  1  0  0  0  0
 74 54  1  0  0  0  0
M  END
