1,2,3,5
q = 0.0, confidence = 0.998

 43 45  0  0  1  0  0  0  0  0999 V2000
   -1.5370    0.7471    0.4198 N   0  0  0  0  0  2  0  0  0  0  0  0
   -0.5305   -1.8600   -0.4686 N   0  0  0  0  0  0  0  0  0  0  0  0
    2.0945   -1.6269    0.5507 N   0  0  0  0  0  0  0  0  0  0  0  0
    2.0992   -2.1449    1.4383 H   0  0  0  0  0  0  0  0  0  0  0  0
    1.6044    0.9067   -0.3839 N   0  0  0  0  0  2  0  0  0  0  0  0
   -1.6478    1.8734    1.1545 C   0  0  0  0  0  3  0  0  0  0  0  0
   -0.8086    2.0767    1.8416 H   0  0  0  0  0  0  0  0  0  0  0  0
   -2.7693    2.7060    1.0832 C   0  0  0  0  0  0  0  0  0  0  0  0
   -2.8220    3.6154    1.6978 H   0  0  0  0  0  0  0  0  0  0  0  0
   -3.8100    2.3376    0.2216 C   0  0  0  0  0  0  0  0  0  0  0  0
   -4.7113    2.9623    0.1311 H   0  0  0  0  0  0  0  0  0  0  0  0
   -3.7038    1.1486   -0.5155 C   0  0  0  0  0  0  0  0  0  0  0  0
   -4.5246    0.8391   -1.1740 H   0  0  0  0  0  0  0  0  0  0  0  0
   -2.5502    0.3548   -0.3942 C   0  0  0  0  0  0  0  0  0  0  0  0
   -2.3956   -0.9892   -1.1011 C   0  0  1  0  0  0  0  0  0  0  0  0
   -0.9736   -1.1798   -1.7201 C   0  0  0  0  0  0  0  0  0  0  0  0
   -0.9950   -1.8778   -2.5863 H   0  0  0  0  0  0  0  0  0  0  0  0
   -0.3974   -0.2727   -1.9941 H   0  0  0  0  0  0  0  0  0  0  0  0
   -1.9505   -2.0981   -0.0866 C   0  0  0  0  0  0  0  0  0  0  0  0
   -2.1661   -1.9403    0.9900 H   0  0  0  0  0  0  0  0  0  0  0  0
   -2.3068   -3.1029   -0.4012 H   0  0  0  0  0  0  0  0  0  0  0  0
   -3.5645   -1.3511   -2.0076 C   0  0  0  0  0  0  0  0  0  0  0  0
   -4.5128   -1.4244   -1.4393 H   0  0  0  0  0  0  0  0  0  0  0  0
   -3.3893   -2.3330   -2.4875 H   0  0  0  0  0  0  0  0  0  0  0  0
   -3.7022   -0.6036   -2.8142 H   0  0  0  0  0  0  0  0  0  0  0  0
    0.3982   -2.9912   -0.5400 C   0  0  0  0  0  0  0  0  0  0  0  0
    0.1716   -3.6497   -1.4096 H   0  0  0  0  0  0  0  0  0  0  0  0
    0.2508   -3.5975    0.3793 H   0  0  0  0  0  0  0  0  0  0  0  0
    1.8460   -2.4938   -0.6015 C   0  0  0  0  0  0  0  0  0  0  0  0
    2.5444   -3.3585   -0.6636 H   0  0  0  0  0  0  0  0  0  0  0  0
    1.9987   -1.8934   -1.5242 H   0  0  0  0  0  0  0  0  0  0  0  0
    3.2222   -0.7043    0.4894 C   0  0  0  0  0  0  0  0  0  0  0  0
    4.1687   -1.1722    0.1368 H   0  0  0  0  0  0  0  0  0  0  0  0
    3.3932   -0.3459    1.5285 H   0  0  0  0  0  0  0  0  0  0  0  0
    2.8986    0.5121   -0.3595 C   0  0  2  0  0  3  0  0  0  0  0  0
    3.8914    1.2331   -1.0411 C   0  0  0  0  0  0  0  0  0  0  0  0
    4.9345    0.8851   -1.0135 H   0  0  0  0  0  0  0  0  0  0  0  0
    3.5355    2.3912   -1.7444 C   0  0  0  0  0  0  0  0  0  0  0  0
    4.2997    2.9718   -2.2824 H   0  0  0  0  0  0  0  0  0  0  0  0
    2.1918    2.7954   -1.7566 C   0  0  0  0  0  0  0  0  0  0  0  0
    1.8684    3.6963   -2.2965 H   0  0  0  0  0  0  0  0  0  0  0  0
    1.2580    2.0192   -1.0636 C   0  0  0  0  0  0  0  0  0  0  0  0
    0.1903    2.2900   -1.0433 H   0  0  0  0  0  0  0  0  0  0  0  0
  1  6  1  0  0  0  0
  2 19  1  0  0  0  0
  3  4  1  0  0  0  0
  5 35  1  0  0  0  0
  6  7  1  0  0  0  0
  8  6  1  0  0  0  0
  8  9  1  0  0  0  0
 10  8  2  0  0  0  0
 11 10  1  0  0  0  0
 12 14  2  0  0  0  0
 12 10  1  0  0  0  0
 13 12  1  0  0  0  0
 14  1  1  0  0  0  0
 15 22  1  6  0  0  0
 15 14  1  0  0  0  0
 15 19  1  0  0  0  0
 16 15  1  0  0  0  0
 16  2  1  0  0  0  0
 17 16  1  0  0  0  0
 18 16  1  0  0  0  0
 19 20  1  0  0  0  0
 21 19  1  0  0  0  0
 22 23  1  0  0  0  0
 24 22  1  0  0  0  0
 25 22  1  0  0  0  0
 26  2  1  0  0  0  0
 26 28  1  0  0  0  0
 27 26  1  0  0  0  0
 29 26  1  0  0  0  0
 29  3  1  0  0  0  0
 30 29  1  0  0  0  0
 31 29  1  0  0  0  0
 32  3  1  0  0  0  0
 32 34  1  0  0  0  0
 33 32  1  0  0  0  0
 35 32  1  1  0  0  0
 36 37  1  0  0  0  0
 36 35  1  0  0  0  0
 38 36  2  0  0  0  0
 39 38  1  0  0  0  0
 40 38  1  0  0  0  0
 40 42  2  0  0  0  0
 41 40  1  0  0  0  0
 42 43  1  0  0  0  0
 42  5  1  0  0  0  0
M  END
