1,2,3,4
q = -3.0, confidence = 0.278

 52 57  0  0  0  0  0  0  0  0999 V2000
   -1.5524   -1.1618    0.4933 N   0  0  0  0  0  0  0  0  0  0  0  0
    2.1888   -0.3642    0.4829 N   0  0  0  0  0  0  0  0  0  0  0  0
   -0.6609    1.6582    0.4909 N   0  0  0  0  0  0  0  0  0  0  0  0
    0.2739   -0.0239    2.2489 N   0  0  0  0  0  0  0  0  0  0  0  0
   -2.4946   -1.9731   -0.1486 C   0  0  0  0  0  0  0  0  0  0  0  0
   -2.7577   -2.1347   -1.5203 C   0  0  0  0  0  0  0  0  0  0  0  0
   -2.1837   -1.5854   -2.2788 H   0  0  0  0  0  0  0  0  0  0  0  0
   -3.7869   -3.0052   -1.8993 C   0  0  0  0  0  0  0  0  0  0  0  0
   -4.0122   -3.1384   -2.9681 H   0  0  0  0  0  0  0  0  0  0  0  0
   -4.5444   -3.7095   -0.9346 C   0  0  0  0  0  0  0  0  0  0  0  0
   -5.3464   -4.3861   -1.2667 H   0  0  0  0  0  0  0  0  0  0  0  0
   -4.2950   -3.5477    0.4325 C   0  0  0  0  0  0  0  0  0  0  0  0
   -4.8948   -4.0874    1.1813 H   0  0  0  0  0  0  0  0  0  0  0  0
   -3.2676   -2.6710    0.8392 C   0  0  0  0  0  0  0  0  0  0  0  0
   -2.7707   -2.2458    2.1230 C   0  0  0  0  0  0  0  0  0  0  0  0
   -3.1435   -2.5454    3.1095 H   0  0  0  0  0  0  0  0  0  0  0  0
   -1.7688   -1.3280    1.8723 C   0  0  0  0  0  3  0  0  0  0  0  0
   -1.0674   -0.3886    2.7909 C   0  0  0  0  0  0  0  0  0  0  0  0
   -0.9730   -0.7946    3.8206 H   0  0  0  0  0  0  0  0  0  0  0  0
   -1.6469    0.5575    2.8582 H   0  0  0  0  0  0  0  0  0  0  0  0
    3.4085   -0.2991   -0.2162 C   0  0  0  0  0  0  0  0  0  0  0  0
    3.6550   -0.0780   -1.5793 C   0  0  0  0  0  0  0  0  0  0  0  0
    2.8219    0.0545   -2.2801 H   0  0  0  0  0  0  0  0  0  0  0  0
    4.9873   -0.0693   -2.0154 C   0  0  0  0  0  0  0  0  0  0  0  0
    5.2024    0.0972   -3.0816 H   0  0  0  0  0  0  0  0  0  0  0  0
    6.0551   -0.2854   -1.1157 C   0  0  0  0  0  0  0  0  0  0  0  0
    7.0895   -0.2722   -1.4908 H   0  0  0  0  0  0  0  0  0  0  0  0
    5.8122   -0.5375    0.2401 C   0  0  0  0  0  0  0  0  0  0  0  0
    6.6441   -0.7312    0.9344 H   0  0  0  0  0  0  0  0  0  0  0  0
    4.4804   -0.5578    0.7003 C   0  0  0  0  0  0  0  0  0  0  0  0
    3.8740   -0.8226    1.9847 C   0  0  0  0  0  0  0  0  0  0  0  0
    4.3879   -1.0760    2.9191 H   0  0  0  0  0  0  0  0  0  0  0  0
    2.5124   -0.7195    1.8037 C   0  0  0  0  0  3  0  0  0  0  0  0
    1.3429   -0.9466    2.6981 C   0  0  0  0  0  0  0  0  0  0  0  0
    1.5915   -0.7873    3.7706 H   0  0  0  0  0  0  0  0  0  0  0  0
    0.9435   -1.9804    2.5928 H   0  0  0  0  0  0  0  0  0  0  0  0
   -1.5763    2.5256   -0.0996 C   0  0  0  0  0  0  0  0  0  0  0  0
   -2.3035    2.3794   -1.2955 C   0  0  0  0  0  0  0  0  0  0  0  0
   -2.2075    1.4732   -1.9108 H   0  0  0  0  0  0  0  0  0  0  0  0
   -3.1774    3.4094   -1.6653 C   0  0  0  0  0  0  0  0  0  0  0  0
   -3.7583    3.3164   -2.5953 H   0  0  0  0  0  0  0  0  0  0  0  0
   -3.3394    4.5587   -0.8551 C   0  0  0  0  0  0  0  0  0  0  0  0
   -4.0361    5.3486   -1.1742 H   0  0  0  0  0  0  0  0  0  0  0  0
   -2.6437    4.6954    0.3517 C   0  0  0  0  0  0  0  0  0  0  0  0
   -2.7917    5.5824    0.9867 H   0  0  0  0  0  0  0  0  0  0  0  0
   -1.7572    3.6716    0.7484 C   0  0  0  0  0  0  0  0  0  0  0  0
   -0.9365    3.4490    1.9139 C   0  0  0  0  0  0  0  0  0  0  0  0
   -0.8353    4.1023    2.7882 H   0  0  0  0  0  0  0  0  0  0  0  0
   -0.3119    2.2296    1.7195 C   0  0  0  0  0  3  0  0  0  0  0  0
    0.6001    1.3999    2.5590 C   0  0  0  0  0  0  0  0  0  0  0  0
    1.6726    1.5505    2.3097 H   0  0  0  0  0  0  0  0  0  0  0  0
    0.4756    1.6042    3.6449 H   0  0  0  0  0  0  0  0  0  0  0  0
  1 17  1  0  0  0  0
  2 33  1  0  0  0  0
  3 49  1  0  0  0  0
  4 50  1  0  0  0  0
  4 34  1  0  0  0  0
  4 18  1  0  0  0  0
  5  1  2  0  0  0  0
  5 14  1  0  0  0  0
  6  5  1  0  0  0  0
  7  6  1  0  0  0  0
  8  6  2  0  0  0  0
  8 10  1  0  0  0  0
  9  8  1  0  0  0  0
 10 12  2  0  0  0  0
 11 10  1  0  0  0  0
 12 14  1  0  0  0  0
 12 13  1  0  0  0  0
 14 15  2  0  0  0  0
 15 16  1  0  0  0  0
 17 15  1  0  0  0  0
 17 18  1  0  0  0  0
 18 20  1  0  0  0  0
 18 19  1  0  0  0  0
 21  2  2  0  0  0  0
 21 30  1  0  0  0  0
 22 21  1  0  0  0  0
 23 22  1  0  0  0  0
 24 22  2  0  0  0  0
 24 26  1  0  0  0  0
 25 24  1  0  0  0  0
 26 28  2  0  0  0  0
 27 26  1  0  0  0  0
 28 30  1  0  0  0  0
 28 29  1  0  0  0  0
 30 31  2  0  0  0  0
 31 32  1  0  0  0  0
 33 31  1  0  0  0  0
 33 34  1  0  0  0  0
 34 35  1  0  0  0  0
 36 34  1  0  0  0  0
 37  3  2  0  0  0  0
 37 46  1  0  0  0  0
 38 37  1  0  0  0  0
 39 38  1  0  0  0  0
 40 38  2  0  0  0  0
 40 42  1  0  0  0  0
 41 40  1  0  0  0  0
 42 44  2  0  0  0  0
 43 42  1  0  0  0  0
 44 46  1  0  0  0  0
 44 45  1  0  0  0  0
 46 47  2  0  0  0  0
 47 48  1  0  0  0  0
 49 47  1  0  0  0  0
 49 50  1  0  0  0  0
 50 52  1  0  0  0  0
 51 50  1  0  0  0  0
M  END
