1,2,3,4
q = -1.0

 64 71  0  0  1  0  0  0  0  0999 V2000
    1.2768   -1.9988   -0.0154 N   0  0  0  0  0  0  0  0  0  0  0  0
   -1.1890   -2.0326   -0.0710 N   0  0  0  0  0  0  0  0  0  0  0  0
    1.4053    0.7119    0.0053 N   0  0  0  0  0  0  0  0  0  0  0  0
   -1.4313    0.6714    0.0226 N   0  0  0  0  0  0  0  0  0  0  0  0
    0.7759   -3.2753   -0.2728 C   0  0  0  0  0  0  0  0  0  0  0  0
    4.8873   -0.9131   -0.2469 C   0  0  0  0  0  0  0  0  0  0  0  0
    2.5037    2.7316   -0.0389 C   0  0  0  0  0  0  0  0  0  0  0  0
    2.6698    3.8136   -0.0245 H   0  0  0  0  0  0  0  0  0  0  0  0
    3.4634    1.7353   -0.0432 C   0  0  0  0  0  0  0  0  0  0  0  0
    4.5505    1.8654   -0.0391 H   0  0  0  0  0  0  0  0  0  0  0  0
   -0.0442    2.7407   -0.0803 C   0  0  1  0  0  3  0  0  0  0  0  0
   -2.7977    0.3680   -0.1278 C   0  0  0  0  0  0  0  0  0  0  0  0
    2.6509   -2.0061   -0.1757 C   0  0  0  0  0  3  0  0  0  0  0  0
    1.2153    2.0994   -0.0380 C   0  0  0  0  0  3  0  0  0  0  0  0
    5.5923   -0.2653   -1.2865 C   0  0  0  0  0  0  0  0  0  0  0  0
    5.0314    0.3230   -2.0280 H   0  0  0  0  0  0  0  0  0  0  0  0
    3.4075   -0.8090   -0.1321 C   0  0  2  0  0  3  0  0  0  0  0  0
   -2.9017   -3.4757   -0.4383 C   0  0  0  0  0  0  0  0  0  0  0  0
   -3.9186   -3.8651   -0.5561 H   0  0  0  0  0  0  0  0  0  0  0  0
    2.7930    0.4654   -0.0496 C   0  0  0  0  0  0  0  0  0  0  0  0
   -0.0771    4.2310   -0.1496 C   0  0  0  0  0  0  0  0  0  0  0  0
   -5.4307   -1.7048   -1.4174 C   0  0  0  0  0  0  0  0  0  0  0  0
   -4.7819   -2.0905   -2.2178 H   0  0  0  0  0  0  0  0  0  0  0  0
    6.9847   -0.3895   -1.3930 C   0  0  0  0  0  0  0  0  0  0  0  0
    7.5157    0.1166   -2.2138 H   0  0  0  0  0  0  0  0  0  0  0  0
   -0.6427   -3.2992   -0.2821 C   0  0  0  0  0  0  0  0  0  0  0  0
    5.6168   -1.6975    0.6750 C   0  0  0  0  0  0  0  0  0  0  0  0
    5.0774   -2.1995    1.4923 H   0  0  0  0  0  0  0  0  0  0  0  0
   -2.5662   -2.0995   -0.2098 C   0  0  0  0  0  3  0  0  0  0  0  0
   -1.2822    2.0556   -0.1063 C   0  0  0  0  0  3  0  0  0  0  0  0
    1.8735   -4.1339   -0.5480 C   0  0  0  0  0  0  0  0  0  0  0  0
    1.8109   -5.1991   -0.7982 H   0  0  0  0  0  0  0  0  0  0  0  0
    7.6985   -1.1659   -0.4661 C   0  0  0  0  0  0  0  0  0  0  0  0
    8.7916   -1.2627   -0.5507 H   0  0  0  0  0  0  0  0  0  0  0  0
   -4.8429   -1.0613   -0.3055 C   0  0  0  0  0  0  0  0  0  0  0  0
   -2.5785    2.6331   -0.3191 C   0  0  0  0  0  0  0  0  0  0  0  0
   -2.7698    3.7002   -0.4728 H   0  0  0  0  0  0  0  0  0  0  0  0
    0.4995    4.9216   -1.2381 C   0  0  0  0  0  0  0  0  0  0  0  0
    0.9701    4.3448   -2.0485 H   0  0  0  0  0  0  0  0  0  0  0  0
   -0.7383    6.3811    0.8111 C   0  0  0  0  0  0  0  0  0  0  0  0
   -1.2207    6.9495    1.6209 H   0  0  0  0  0  0  0  0  0  0  0  0
   -5.6897   -0.5416    0.6992 C   0  0  0  0  0  0  0  0  0  0  0  0
   -5.2395   -0.0488    1.5740 H   0  0  0  0  0  0  0  0  0  0  0  0
    7.0092   -1.8208    0.5668 C   0  0  0  0  0  0  0  0  0  0  0  0
    7.5612   -2.4285    1.3001 H   0  0  0  0  0  0  0  0  0  0  0  0
   -1.7103   -4.2101   -0.5008 C   0  0  0  0  0  0  0  0  0  0  0  0
   -1.6110   -5.2844   -0.6932 H   0  0  0  0  0  0  0  0  0  0  0  0
   -0.6985    4.9806    0.8733 C   0  0  0  0  0  0  0  0  0  0  0  0
   -1.1427    4.4502    1.7291 H   0  0  0  0  0  0  0  0  0  0  0  0
   -3.3648   -0.9304   -0.1873 C   0  0  2  0  0  3  0  0  0  0  0  0
   -7.0824   -0.6655    0.5962 C   0  0  0  0  0  0  0  0  0  0  0  0
   -7.7260   -0.2606    1.3922 H   0  0  0  0  0  0  0  0  0  0  0  0
    3.0350   -3.3527   -0.4867 C   0  0  0  0  0  0  0  0  0  0  0  0
    4.0618   -3.6849   -0.6752 H   0  0  0  0  0  0  0  0  0  0  0  0
   -0.1586    7.0566   -0.2747 C   0  0  0  0  0  0  0  0  0  0  0  0
   -0.1899    8.1556   -0.3232 H   0  0  0  0  0  0  0  0  0  0  0  0
   -7.6546   -1.3105   -0.5119 C   0  0  0  0  0  0  0  0  0  0  0  0
   -8.7479   -1.4078   -0.5922 H   0  0  0  0  0  0  0  0  0  0  0  0
    0.4597    6.3222   -1.2991 C   0  0  0  0  0  0  0  0  0  0  0  0
    0.9087    6.8437   -2.1583 H   0  0  0  0  0  0  0  0  0  0  0  0
   -3.5023    1.6030   -0.3289 C   0  0  0  0  0  0  0  0  0  0  0  0
   -4.5805    1.6808   -0.5039 H   0  0  0  0  0  0  0  0  0  0  0  0
   -6.8240   -1.8284   -1.5183 C   0  0  0  0  0  0  0  0  0  0  0  0
   -7.2648   -2.3255   -2.3959 H   0  0  0  0  0  0  0  0  0  0  0  0
  5  1  2  0  0  0  0
  6 27  1  0  0  0  0
  7 14  1  0  0  0  0
  7  8  1  0  0  0  0
  9 10  1  0  0  0  0
  9  7  2  0  0  0  0
 11 21  1  6  0  0  0
 11 14  1  0  0  0  0
 12  4  2  0  0  0  0
 13 17  1  0  0  0  0
 13  1  1  0  0  0  0
 14  3  1  0  0  0  0
 15  6  2  0  0  0  0
 16 15  1  0  0  0  0
 17  6  1  6  0  0  0
 17 20  1  0  0  0  0
 18 29  1  0  0  0  0
 19 18  1  0  0  0  0
 20  9  1  0  0  0  0
 20  3  2  0  0  0  0
 21 48  1  0  0  0  0
 22 35  1  0  0  0  0
 23 22  1  0  0  0  0
 24 15  1  0  0  0  0
 24 33  2  0  0  0  0
 25 24  1  0  0  0  0
 26  5  1  0  0  0  0
 26  2  2  0  0  0  0
 27 28  1  0  0  0  0
 29 50  1  0  0  0  0
 29  2  1  0  0  0  0
 30 11  1  0  0  0  0
 30  4  1  0  0  0  0
 31 53  2  0  0  0  0
 31  5  1  0  0  0  0
 32 31  1  0  0  0  0
 33 44  1  0  0  0  0
 34 33  1  0  0  0  0
 35 42  2  0  0  0  0
 36 30  1  0  0  0  0
 37 36  1  0  0  0  0
 38 21  2  0  0  0  0
 39 38  1  0  0  0  0
 40 48  2  0  0  0  0
 40 41  1  0  0  0  0
 42 43  1  0  0  0  0
 44 27  2  0  0  0  0
 44 45  1  0  0  0  0
 46 18  2  0  0  0  0
 46 26  1  0  0  0  0
 47 46  1  0  0  0  0
 48 49  1  0  0  0  0
 50 35  1  6  0  0  0
 50 12  1  0  0  0  0
 51 42  1  0  0  0  0
 51 52  1  0  0  0  0
 53 13  1  0  0  0  0
 54 53  1  0  0  0  0
 55 40  1  0  0  0  0
 56 55  1  0  0  0  0
 57 51  2  0  0  0  0
 58 57  1  0  0  0  0
 59 38  1  0  0  0  0
 59 55  2  0  0  0  0
 60 59  1  0  0  0  0
 61 36  2  0  0  0  0
 61 12  1  0  0  0  0
 62 61  1  0  0  0  0
 63 22  2  0  0  0  0
 63 57  1  0  0  0  0
 64 63  1  0  0  0  0
M  END
