1,2,3,4
q = 0.0, confidence = 0.984

 58 63  0  0  1  0  0  0  0  0999 V2000
   -1.2760    1.3351    0.2405 N   0  0  0  0  0  0  0  0  0  0  0  0
   -1.3708   -1.3890   -0.2409 N   0  0  0  0  0  0  0  0  0  0  0  0
    0.1117   -0.0142    1.9967 N   0  0  0  0  0  2  0  0  0  0  0  0
    0.2186   -0.1206   -1.8629 N   0  0  0  0  0  2  0  0  0  0  0  0
   -1.5272    2.3169   -0.8692 C   0  0  0  0  0  0  0  0  0  0  0  0
   -1.3437    1.8114   -1.8390 H   0  0  0  0  0  0  0  0  0  0  0  0
   -0.7951    3.1437   -0.7997 H   0  0  0  0  0  0  0  0  0  0  0  0
   -2.9845    2.6724   -0.7203 C   0  0  0  0  0  0  0  0  0  0  0  0
   -3.7096    3.7587   -1.2227 C   0  0  0  0  0  0  0  0  0  0  0  0
   -3.2137    4.5367   -1.8228 H   0  0  0  0  0  0  0  0  0  0  0  0
   -5.0840    3.8450   -0.9341 C   0  0  0  0  0  0  0  0  0  0  0  0
   -5.6669    4.6970   -1.3154 H   0  0  0  0  0  0  0  0  0  0  0  0
   -5.7175    2.8654   -0.1497 C   0  0  0  0  0  0  0  0  0  0  0  0
   -6.7897    2.9586    0.0791 H   0  0  0  0  0  0  0  0  0  0  0  0
   -4.9889    1.7734    0.3569 C   0  0  0  0  0  0  0  0  0  0  0  0
   -5.4801    1.0112    0.9801 H   0  0  0  0  0  0  0  0  0  0  0  0
   -3.6246    1.6848    0.0566 C   0  0  0  0  0  0  0  0  0  0  0  0
   -2.6070    0.6335    0.4327 C   0  0  1  0  0  0  0  0  0  0  0  0
   -2.6853    0.3074    1.4899 H   0  0  0  0  0  0  0  0  0  0  0  0
   -2.6403   -0.6070   -0.4733 C   0  0  2  0  0  0  0  0  0  0  0  0
   -2.6676   -0.2798   -1.5327 H   0  0  0  0  0  0  0  0  0  0  0  0
   -3.7364   -1.5860   -0.1224 C   0  0  0  0  0  0  0  0  0  0  0  0
   -5.0976   -1.5767   -0.4491 C   0  0  0  0  0  0  0  0  0  0  0  0
   -5.5209   -0.7786   -1.0769 H   0  0  0  0  0  0  0  0  0  0  0  0
   -5.9115   -2.6162    0.0370 C   0  0  0  0  0  0  0  0  0  0  0  0
   -6.9828   -2.6321   -0.2132 H   0  0  0  0  0  0  0  0  0  0  0  0
   -5.3655   -3.6416    0.8287 C   0  0  0  0  0  0  0  0  0  0  0  0
   -6.0149   -4.4513    1.1942 H   0  0  0  0  0  0  0  0  0  0  0  0
   -3.9947   -3.6538    1.1452 C   0  0  0  0  0  0  0  0  0  0  0  0
   -3.5687   -4.4673    1.7519 H   0  0  0  0  0  0  0  0  0  0  0  0
   -3.1847   -2.6201    0.6619 C   0  0  0  0  0  0  0  0  0  0  0  0
   -1.7080   -2.3685    0.8439 C   0  0  0  0  0  0  0  0  0  0  0  0
   -1.5002   -1.9036    1.8288 H   0  0  0  0  0  0  0  0  0  0  0  0
   -1.0509   -3.2540    0.7574 H   0  0  0  0  0  0  0  0  0  0  0  0
   -0.9717    2.0732    1.5003 C   0  0  0  0  0  0  0  0  0  0  0  0
   -1.8585    2.6367    1.8650 H   0  0  0  0  0  0  0  0  0  0  0  0
   -0.1767    2.8150    1.2849 H   0  0  0  0  0  0  0  0  0  0  0  0
   -0.4629    1.1045    2.5232 C   0  0  2  0  0  3  0  0  0  0  0  0
   -0.4979    1.3454    3.9000 C   0  0  0  0  0  0  0  0  0  0  0  0
   -0.9791    2.2601    4.2751 H   0  0  0  0  0  0  0  0  0  0  0  0
    0.1106    0.4316    4.7722 C   0  0  0  0  0  0  0  0  0  0  0  0
    0.1091    0.6065    5.8578 H   0  0  0  0  0  0  0  0  0  0  0  0
    0.7341   -0.6995    4.2229 C   0  0  0  0  0  0  0  0  0  0  0  0
    1.2449   -1.4365    4.8589 H   0  0  0  0  0  0  0  0  0  0  0  0
    0.7147   -0.8921    2.8400 C   0  0  0  0  0  0  0  0  0  0  0  0
    1.2014   -1.7470    2.3492 H   0  0  0  0  0  0  0  0  0  0  0  0
   -1.0284   -2.1308   -1.4939 C   0  0  0  0  0  0  0  0  0  0  0  0
   -1.9197   -2.6446   -1.9149 H   0  0  0  0  0  0  0  0  0  0  0  0
   -0.2778   -2.9062   -1.2323 H   0  0  0  0  0  0  0  0  0  0  0  0
   -0.4172   -1.1668   -2.4637 C   0  0  2  0  0  3  0  0  0  0  0  0
   -0.4262   -1.3364   -3.8509 C   0  0  0  0  0  0  0  0  0  0  0  0
   -0.9574   -2.1946   -4.2874 H   0  0  0  0  0  0  0  0  0  0  0  0
    0.2651   -0.4190   -4.6551 C   0  0  0  0  0  0  0  0  0  0  0  0
    0.2871   -0.5373   -5.7482 H   0  0  0  0  0  0  0  0  0  0  0  0
    0.9283    0.6479   -4.0306 C   0  0  0  0  0  0  0  0  0  0  0  0
    1.4902    1.3919   -4.6125 H   0  0  0  0  0  0  0  0  0  0  0  0
    0.8828    0.7716   -2.6410 C   0  0  0  0  0  0  0  0  0  0  0  0
    1.3840    1.5936   -2.1146 H   0  0  0  0  0  0  0  0  0  0  0  0
  1 18  1  0  0  0  0
  1 35  1  0  0  0  0
  2 32  1  0  0  0  0
  3 38  1  0  0  0  0
  3 45  1  0  0  0  0
  5  7  1  0  0  0  0
  5  8  1  0  0  0  0
  5  1  1  0  0  0  0
  6  5  1  0  0  0  0
  8 17  1  0  0  0  0
  9 11  1  0  0  0  0
  9  8  2  0  0  0  0
 10  9  1  0  0  0  0
 11 13  2  0  0  0  0
 12 11  1  0  0  0  0
 13 14  1  0  0  0  0
 13 15  1  0  0  0  0
 15 16  1  0  0  0  0
 17 15  2  0  0  0  0
 17 18  1  0  0  0  0
 18 19  1  1  0  0  0
 20 21  1  6  0  0  0
 20  2  1  0  0  0  0
 20 22  1  0  0  0  0
 20 18  1  0  0  0  0
 22 31  1  0  0  0  0
 23 22  2  0  0  0  0
 23 25  1  0  0  0  0
 24 23  1  0  0  0  0
 25 27  2  0  0  0  0
 26 25  1  0  0  0  0
 27 29  1  0  0  0  0
 27 28  1  0  0  0  0
 29 30  1  0  0  0  0
 31 32  1  0  0  0  0
 31 29  2  0  0  0  0
 32 33  1  0  0  0  0
 34 32  1  0  0  0  0
 35 36  1  0  0  0  0
 37 35  1  0  0  0  0
 38 35  1  6  0  0  0
 38 39  1  0  0  0  0
 39 40  1  0  0  0  0
 39 41  2  0  0  0  0
 41 42  1  0  0  0  0
 43 41  1  0  0  0  0
 43 44  1  0  0  0  0
 45 43  2  0  0  0  0
 46 45  1  0  0  0  0
 47 49  1  0  0  0  0
 47  2  1  0  0  0  0
 48 47  1  0  0  0  0
 50  4  1  0  0  0  0
 50 47  1  1  0  0  0
 51 50  1  0  0  0  0
 52 51  1  0  0  0  0
 53 55  1  0  0  0  0
 53 51  2  0  0  0  0
 54 53  1  0  0  0  0
 55 57  2  0  0  0  0
 56 55  1  0  0  0  0
 57 58  1  0  0  0  0
 57  4  1  0  0  0  0
M  END
