1,2,3,4
q = -2.0, confidence = 0.648

 36 40  0  0  0  0  0  0  0  0999 V2000
    1.2599   -1.4197   -0.7250 N   0  0  0  0  0  0  0  0  0  0  0  0
    1.2598    1.4198   -0.7254 N   0  0  0  0  0  2  0  0  0  0  0  0
   -1.5554    1.4192   -0.2450 N   0  0  0  0  0  0  0  0  0  0  0  0
   -1.5553   -1.4191   -0.2445 N   0  0  0  0  0  0  0  0  0  0  0  0
    1.0849   -2.7837   -0.6152 C   0  0  0  0  0  0  0  0  0  0  0  0
    2.3375   -3.4766   -0.8433 C   0  0  0  0  0  0  0  0  0  0  0  0
    2.4613   -4.5658   -0.8092 H   0  0  0  0  0  0  0  0  0  0  0  0
    3.2768   -2.5131   -1.1091 C   0  0  0  0  0  0  0  0  0  0  0  0
    4.3424   -2.6363   -1.3375 H   0  0  0  0  0  0  0  0  0  0  0  0
    2.5943   -1.2368   -1.0282 C   0  0  0  0  0  0  0  0  0  0  0  0
    3.2216    0.0001   -1.1880 C   0  0  0  0  0  0  0  0  0  0  0  0
    4.2936    0.0001   -1.4306 H   0  0  0  0  0  0  0  0  0  0  0  0
    2.5943    1.2370   -1.0282 C   0  0  0  0  0  0  0  0  0  0  0  0
    3.2768    2.5132   -1.1087 C   0  0  0  0  0  0  0  0  0  0  0  0
    4.3425    2.6365   -1.3368 H   0  0  0  0  0  0  0  0  0  0  0  0
    2.3375    3.4767   -0.8428 C   0  0  0  0  0  0  0  0  0  0  0  0
    2.4614    4.5658   -0.8084 H   0  0  0  0  0  0  0  0  0  0  0  0
    1.0848    2.7838   -0.6152 C   0  0  0  0  0  0  0  0  0  0  0  0
   -0.1256    3.4249   -0.3515 C   0  0  0  0  0  0  0  0  0  0  0  0
   -0.1160    4.5225   -0.2928 H   0  0  0  0  0  0  0  0  0  0  0  0
   -1.3545    2.7830   -0.1997 C   0  0  0  0  0  0  0  0  0  0  0  0
   -2.6128    3.4761   -0.0032 C   0  0  0  0  0  0  0  0  0  0  0  0
   -2.7185    4.5651    0.0711 H   0  0  0  0  0  0  0  0  0  0  0  0
   -3.5867    2.5126    0.0538 C   0  0  0  0  0  0  0  0  0  0  0  0
   -4.6679    2.6350    0.1900 H   0  0  0  0  0  0  0  0  0  0  0  0
   -2.9149    1.2363   -0.0936 C   0  0  0  0  0  0  0  0  0  0  0  0
   -3.5601   -0.0000   -0.0400 C   0  0  0  0  0  0  0  0  0  0  0  0
   -4.6522   -0.0000    0.0837 H   0  0  0  0  0  0  0  0  0  0  0  0
   -2.9148   -1.2363   -0.0930 C   0  0  0  0  0  3  0  0  0  0  0  0
   -3.5865   -2.5125    0.0547 C   0  0  0  0  0  0  0  0  0  0  0  0
   -4.6677   -2.6350    0.1911 H   0  0  0  0  0  0  0  0  0  0  0  0
   -2.6125   -3.4760   -0.0023 C   0  0  0  0  0  0  0  0  0  0  0  0
   -2.7182   -4.5650    0.0721 H   0  0  0  0  0  0  0  0  0  0  0  0
   -1.3544   -2.7830   -0.1991 C   0  0  0  0  0  0  0  0  0  0  0  0
   -0.1255   -3.4248   -0.3512 C   0  0  0  0  0  0  0  0  0  0  0  0
   -0.1159   -4.5224   -0.2927 H   0  0  0  0  0  0  0  0  0  0  0  0
  1  5  1  0  0  0  0
  2 18  1  0  0  0  0
  3 21  2  0  0  0  0
  3 26  1  0  0  0  0
  4 34  2  0  0  0  0
  4 29  1  0  0  0  0
  5 35  2  0  0  0  0
  6  7  1  0  0  0  0
  6  5  1  0  0  0  0
  8 10  1  0  0  0  0
  8  6  2  0  0  0  0
  9  8  1  0  0  0  0
 10  1  2  0  0  0  0
 11 13  2  0  0  0  0
 11 10  1  0  0  0  0
 12 11  1  0  0  0  0
 13  2  1  0  0  0  0
 14 13  1  0  0  0  0
 14 16  2  0  0  0  0
 15 14  1  0  0  0  0
 16 17  1  0  0  0  0
 16 18  1  0  0  0  0
 18 19  2  0  0  0  0
 19 20  1  0  0  0  0
 19 21  1  0  0  0  0
 21 22  1  0  0  0  0
 22 24  2  0  0  0  0
 22 23  1  0  0  0  0
 24 25  1  0  0  0  0
 26 27  2  0  0  0  0
 26 24  1  0  0  0  0
 27 28  1  0  0  0  0
 29 27  1  0  0  0  0
 29 30  1  0  0  0  0
 30 31  1  0  0  0  0
 32 30  2  0  0  0  0
 32 33  1  0  0  0  0
 34 32  1  0  0  0  0
 35 36  1  0  0  0  0
 35 34  1  0  0  0  0
M  END
