2,3,4,5
q = -1.0, confidence = 0.008

 52 52  0  0  0  0  0  0  0  0999 V2000
    2.8038   -0.5129    1.1885 Si  0  0  0  0  0  0  0  0  0  0  0  0
    2.7044   -0.1566   -0.6168 N   0  0  0  0  0  0  0  0  0  0  0  0
    0.6825   -0.3763   -2.7700 N   0  0  0  0  0  0  0  0  0  0  0  0
    1.1696    2.2124   -1.3906 N   0  0  0  0  0  0  0  0  0  0  0  0
    1.2704    0.1187    1.6495 N   0  0  0  0  0  2  0  0  0  0  0  0
    2.7805   -1.2210   -1.6221 C   0  0  0  0  0  0  0  0  0  0  0  0
    2.0843   -0.8446   -2.9435 C   0  0  0  0  0  0  0  0  0  0  0  0
   -0.2796   -1.3667   -3.2849 C   0  0  0  0  0  0  0  0  0  0  0  0
    0.4094    0.9288   -3.4113 C   0  0  0  0  0  0  0  0  0  0  0  0
    1.2379    2.0883   -2.8622 C   0  0  0  0  0  0  0  0  0  0  0  0
    0.3287    3.3421   -0.9767 C   0  0  0  0  0  0  0  0  0  0  0  0
    2.5031    2.3227   -0.7686 C   0  0  0  0  0  0  0  0  0  0  0  0
    3.3727    1.0922   -1.0149 C   0  0  0  0  0  0  0  0  0  0  0  0
    0.7462    0.2993    3.0079 C   0  0  0  0  0  0  0  0  0  0  0  0
    1.2228   -0.8076    3.9717 C   0  0  0  0  0  0  0  0  0  0  0  0
    1.1793    1.6754    3.5613 C   0  0  0  0  0  0  0  0  0  0  0  0
   -0.7924    0.2520    2.9336 C   0  0  0  0  0  0  0  0  0  0  0  0
    3.1230   -2.3708    1.3749 C   0  0  0  0  0  0  0  0  0  0  0  0
    4.3274    0.3609    1.9144 C   0  0  0  0  0  0  0  0  0  0  0  0
    2.2898   -2.1225   -1.2062 H   0  0  0  0  0  0  0  0  0  0  0  0
    3.8317   -1.5166   -1.8676 H   0  0  0  0  0  0  0  0  0  0  0  0
    2.6665   -0.0587   -3.4659 H   0  0  0  0  0  0  0  0  0  0  0  0
    2.1103   -1.7255   -3.6209 H   0  0  0  0  0  0  0  0  0  0  0  0
   -1.3099   -1.0714   -3.0089 H   0  0  0  0  0  0  0  0  0  0  0  0
   -0.0882   -2.3527   -2.8288 H   0  0  0  0  0  0  0  0  0  0  0  0
   -0.2181   -1.4545   -4.3962 H   0  0  0  0  0  0  0  0  0  0  0  0
   -0.6681    1.1411   -3.2526 H   0  0  0  0  0  0  0  0  0  0  0  0
    0.5635    0.8696   -4.5182 H   0  0  0  0  0  0  0  0  0  0  0  0
    2.2950    1.9745   -3.1733 H   0  0  0  0  0  0  0  0  0  0  0  0
    0.8889    3.0238   -3.3531 H   0  0  0  0  0  0  0  0  0  0  0  0
    0.1877    3.3214    0.1208 H   0  0  0  0  0  0  0  0  0  0  0  0
   -0.6720    3.2630   -1.4365 H   0  0  0  0  0  0  0  0  0  0  0  0
    0.7838    4.3229   -1.2593 H   0  0  0  0  0  0  0  0  0  0  0  0
    2.3388    2.4366    0.3226 H   0  0  0  0  0  0  0  0  0  0  0  0
    3.0417    3.2382   -1.1237 H   0  0  0  0  0  0  0  0  0  0  0  0
    3.6522    1.0364   -2.0866 H   0  0  0  0  0  0  0  0  0  0  0  0
    4.3375    1.2460   -0.4819 H   0  0  0  0  0  0  0  0  0  0  0  0
    0.9366   -1.8067    3.5853 H   0  0  0  0  0  0  0  0  0  0  0  0
    0.7787   -0.6868    4.9814 H   0  0  0  0  0  0  0  0  0  0  0  0
    2.3266   -0.7860    4.0921 H   0  0  0  0  0  0  0  0  0  0  0  0
    0.8195    2.4840    2.8919 H   0  0  0  0  0  0  0  0  0  0  0  0
    2.2848    1.7449    3.6142 H   0  0  0  0  0  0  0  0  0  0  0  0
    0.7730    1.8610    4.5781 H   0  0  0  0  0  0  0  0  0  0  0  0
   -1.1721    1.0151    2.2216 H   0  0  0  0  0  0  0  0  0  0  0  0
   -1.2704    0.4526    3.9140 H   0  0  0  0  0  0  0  0  0  0  0  0
   -1.1375   -0.7436    2.5858 H   0  0  0  0  0  0  0  0  0  0  0  0
    3.2524   -2.6171    2.4485 H   0  0  0  0  0  0  0  0  0  0  0  0
    4.0496   -2.6794    0.8466 H   0  0  0  0  0  0  0  0  0  0  0  0
    2.2767   -2.9770    0.9964 H   0  0  0  0  0  0  0  0  0  0  0  0
    4.2648    1.4660    1.8614 H   0  0  0  0  0  0  0  0  0  0  0  0
    5.2706    0.0330    1.4284 H   0  0  0  0  0  0  0  0  0  0  0  0
    4.4033    0.0913    2.9885 H   0  0  0  0  0  0  0  0  0  0  0  0
  1 18  1  0  0  0  0
  1  5  1  0  0  0  0
  1 19  1  0  0  0  0
  2  1  1  0  0  0  0
  4 11  1  0  0  0  0
  4 12  1  0  0  0  0
  5 14  1  0  0  0  0
  6 20  1  0  0  0  0
  6  2  1  0  0  0  0
  7  3  1  0  0  0  0
  7  6  1  0  0  0  0
  8 24  1  0  0  0  0
  8 25  1  0  0  0  0
  8  3  1  0  0  0  0
  9 27  1  0  0  0  0
  9 10  1  0  0  0  0
  9  3  1  0  0  0  0
 10  4  1  0  0  0  0
 11 31  1  0  0  0  0
 12 34  1  0  0  0  0
 13 12  1  0  0  0  0
 13  2  1  0  0  0  0
 13 37  1  0  0  0  0
 14 16  1  0  0  0  0
 14 15  1  0  0  0  0
 15 40  1  0  0  0  0
 15 39  1  0  0  0  0
 16 42  1  0  0  0  0
 16 43  1  0  0  0  0
 17 14  1  0  0  0  0
 17 45  1  0  0  0  0
 18 47  1  0  0  0  0
 19 52  1  0  0  0  0
 21  6  1  0  0  0  0
 22  7  1  0  0  0  0
 23  7  1  0  0  0  0
 26  8  1  0  0  0  0
 28  9  1  0  0  0  0
 29 10  1  0  0  0  0
 30 10  1  0  0  0  0
 32 11  1  0  0  0  0
 33 11  1  0  0  0  0
 35 12  1  0  0  0  0
 36 13  1  0  0  0  0
 38 15  1  0  0  0  0
 41 16  1  0  0  0  0
 44 17  1  0  0  0  0
 46 17  1  0  0  0  0
 48 18  1  0  0  0  0
 49 18  1  0  0  0  0
 50 19  1  0  0  0  0
 51 19  1  0  0  0  0
M  END
