5,6,7,8
q = -2.0, confidence = 0.966

 82 87  0  0  1  0  0  0  0  0999 V2000
    3.9550    5.3481   -1.3035 Cl  0  0  0  0  0  0  0  0  0  0  0  0
   -4.2736    5.2445   -1.0362 Cl  0  0  0  0  0  0  0  0  0  0  0  0
    5.4802   -1.1847   -1.5121 O   0  0  0  0  0  0  0  0  0  0  0  0
   -5.3067   -1.3556   -1.7347 O   0  0  0  0  0  0  0  0  0  0  0  0
   -1.2230   -1.5880    0.7133 N   0  0  0  0  0  2  0  0  0  0  0  0
    1.3062   -1.5562    0.7884 N   0  0  0  0  0  2  0  0  0  0  0  0
    1.4312   -2.8584   -1.5569 N   0  0  0  0  0  2  0  0  0  0  0  0
   -1.1286   -2.7542   -1.7552 N   0  0  0  0  0  2  0  0  0  0  0  0
   -0.7068   -1.5928    2.0275 C   0  0  0  0  0  0  0  0  0  0  0  0
   -1.4329   -1.7127    3.2297 C   0  0  0  0  0  0  0  0  0  0  0  0
   -2.5257   -1.7941    3.2084 H   0  0  0  0  0  0  0  0  0  0  0  0
   -0.7535   -1.7644    4.4545 C   0  0  0  0  0  0  0  0  0  0  0  0
   -1.3295   -1.8725    5.3856 H   0  0  0  0  0  0  0  0  0  0  0  0
    0.6504   -1.7138    4.4935 C   0  0  0  0  0  0  0  0  0  0  0  0
    1.1805   -1.7803    5.4552 H   0  0  0  0  0  0  0  0  0  0  0  0
    1.3883   -1.6192    3.3061 C   0  0  0  0  0  0  0  0  0  0  0  0
    2.4845   -1.6275    3.3378 H   0  0  0  0  0  0  0  0  0  0  0  0
    0.7186   -1.5558    2.0681 C   0  0  0  0  0  0  0  0  0  0  0  0
    2.5314   -1.0996    0.4755 C   0  0  1  0  0  3  0  0  0  0  0  0
    3.2468   -0.1941    1.4266 C   0  0  0  0  0  0  0  0  0  0  0  0
    4.5627   -0.4810    1.8431 C   0  0  0  0  0  0  0  0  0  0  0  0
    5.0498   -1.4019    1.4903 H   0  0  0  0  0  0  0  0  0  0  0  0
    5.2437    0.3998    2.6966 C   0  0  0  0  0  0  0  0  0  0  0  0
    6.2699    0.1650    3.0175 H   0  0  0  0  0  0  0  0  0  0  0  0
    4.6201    1.5777    3.1347 C   0  0  0  0  0  0  0  0  0  0  0  0
    5.1575    2.2744    3.7958 H   0  0  0  0  0  0  0  0  0  0  0  0
    3.3070    1.8684    2.7247 C   0  0  0  0  0  0  0  0  0  0  0  0
    2.8179    2.7958    3.0587 H   0  0  0  0  0  0  0  0  0  0  0  0
    2.6214    0.9848    1.8847 C   0  0  0  0  0  0  0  0  0  0  0  0
    1.5973    1.2124    1.5542 H   0  0  0  0  0  0  0  0  0  0  0  0
    3.2032   -1.4720   -0.7252 C   0  0  0  0  0  0  0  0  0  0  0  0
    4.4118   -0.6901   -1.1334 C   0  0  0  0  0  0  0  0  0  0  0  0
    4.2607    0.8107   -1.1475 C   0  0  0  0  0  0  0  0  0  0  0  0
    5.4127    1.6105   -1.0094 C   0  0  0  0  0  0  0  0  0  0  0  0
    6.3802    1.1081   -0.8624 H   0  0  0  0  0  0  0  0  0  0  0  0
    5.3269    3.0049   -1.0461 C   0  0  0  0  0  0  0  0  0  0  0  0
    6.2179    3.6347   -0.9142 H   0  0  0  0  0  0  0  0  0  0  0  0
    4.0738    3.6085   -1.2574 C   0  0  0  0  0  0  0  0  0  0  0  0
    2.9171    2.8314   -1.4351 C   0  0  0  0  0  0  0  0  0  0  0  0
    1.9522    3.3250   -1.6178 H   0  0  0  0  0  0  0  0  0  0  0  0
    3.0170    1.4366   -1.3706 C   0  0  0  0  0  0  0  0  0  0  0  0
    2.1147    0.8193   -1.4988 H   0  0  0  0  0  0  0  0  0  0  0  0
    2.7168   -2.5359   -1.5711 C   0  0  0  0  0  0  0  0  0  0  0  0
    3.6708   -3.2799   -2.4777 C   0  0  0  0  0  0  0  0  0  0  0  0
    3.7052   -4.3505   -2.1867 H   0  0  0  0  0  0  0  0  0  0  0  0
    4.6883   -2.8657   -2.3832 H   0  0  0  0  0  0  0  0  0  0  0  0
    3.3481   -3.2352   -3.5385 H   0  0  0  0  0  0  0  0  0  0  0  0
    0.8839   -3.9815   -2.3091 C   0  0  0  0  0  0  0  0  0  0  0  0
    0.8013   -4.8640   -1.6347 H   0  0  0  0  0  0  0  0  0  0  0  0
    1.5226   -4.2814   -3.1639 H   0  0  0  0  0  0  0  0  0  0  0  0
   -0.4989   -3.5687   -2.7973 C   0  0  0  0  0  0  0  0  0  0  0  0
   -0.4053   -2.9677   -3.7309 H   0  0  0  0  0  0  0  0  0  0  0  0
   -1.1009   -4.4665   -3.0525 H   0  0  0  0  0  0  0  0  0  0  0  0
   -2.4160   -2.4284   -1.8513 C   0  0  2  0  0  3  0  0  0  0  0  0
   -3.2139   -2.9753   -3.0122 C   0  0  0  0  0  0  0  0  0  0  0  0
   -2.7881   -2.6421   -3.9821 H   0  0  0  0  0  0  0  0  0  0  0  0
   -4.2712   -2.6747   -2.9441 H   0  0  0  0  0  0  0  0  0  0  0  0
   -3.1735   -4.0841   -3.0093 H   0  0  0  0  0  0  0  0  0  0  0  0
   -3.0309   -1.5260   -0.9123 C   0  0  0  0  0  0  0  0  0  0  0  0
   -4.2887   -0.8067   -1.3001 C   0  0  0  0  0  0  0  0  0  0  0  0
   -4.2506    0.6980   -1.2107 C   0  0  0  0  0  0  0  0  0  0  0  0
   -3.0516    1.4254   -1.3585 C   0  0  0  0  0  0  0  0  0  0  0  0
   -2.1044    0.8838   -1.5041 H   0  0  0  0  0  0  0  0  0  0  0  0
   -3.0524    2.8246   -1.3222 C   0  0  0  0  0  0  0  0  0  0  0  0
   -2.1228    3.3981   -1.4452 H   0  0  0  0  0  0  0  0  0  0  0  0
   -4.2661    3.5021   -1.1176 C   0  0  0  0  0  0  0  0  0  0  0  0
   -5.4757    2.7970   -0.9803 C   0  0  0  0  0  0  0  0  0  0  0  0
   -6.4125    3.3505   -0.8251 H   0  0  0  0  0  0  0  0  0  0  0  0
   -5.4605    1.4010   -1.0450 C   0  0  0  0  0  0  0  0  0  0  0  0
   -6.3910    0.8211   -0.9562 H   0  0  0  0  0  0  0  0  0  0  0  0
   -2.4610   -1.2072    0.3545 C   0  0  0  0  0  0  0  0  0  0  0  0
   -3.3055   -0.4266    1.3126 C   0  0  0  0  0  0  0  0  0  0  0  0
   -4.6023   -0.8646    1.6499 C   0  0  0  0  0  0  0  0  0  0  0  0
   -4.9758   -1.8112    1.2326 H   0  0  0  0  0  0  0  0  0  0  0  0
   -5.4093   -0.0983    2.5043 C   0  0  0  0  0  0  0  0  0  0  0  0
   -6.4193   -0.4506    2.7626 H   0  0  0  0  0  0  0  0  0  0  0  0
   -4.9323    1.1157    3.0209 C   0  0  0  0  0  0  0  0  0  0  0  0
   -5.5691    1.7234    3.6815 H   0  0  0  0  0  0  0  0  0  0  0  0
   -3.6391    1.5573    2.6892 C   0  0  0  0  0  0  0  0  0  0  0  0
   -3.2651    2.5138    3.0842 H   0  0  0  0  0  0  0  0  0  0  0  0
   -2.8276    0.7873    1.8497 C   0  0  0  0  0  0  0  0  0  0  0  0
   -1.8187    1.1332    1.5814 H   0  0  0  0  0  0  0  0  0  0  0  0
  1 38  1  0  0  0  0
  3 32  2  0  0  0  0
  4 60  2  0  0  0  0
  5  9  1  0  0  0  0
  6 18  1  0  0  0  0
  9 18  2  0  0  0  0
  9 10  1  0  0  0  0
 10 12  2  0  0  0  0
 11 10  1  0  0  0  0
 12 14  1  0  0  0  0
 12 13  1  0  0  0  0
 14 15  1  0  0  0  0
 16 17  1  0  0  0  0
 16 14  2  0  0  0  0
 18 16  1  0  0  0  0
 19  6  1  0  0  0  0
 19 20  1  1  0  0  0
 20 21  2  0  0  0  0
 20 29  1  0  0  0  0
 21 23  1  0  0  0  0
 22 21  1  0  0  0  0
 23 24  1  0  0  0  0
 23 25  2  0  0  0  0
 25 26  1  0  0  0  0
 27 28  1  0  0  0  0
 27 25  1  0  0  0  0
 29 27  2  0  0  0  0
 30 29  1  0  0  0  0
 31 19  1  0  0  0  0
 32 31  1  0  0  0  0
 33 32  1  0  0  0  0
 33 34  1  0  0  0  0
 34 35  1  0  0  0  0
 36 34  2  0  0  0  0
 36 37  1  0  0  0  0
 38 36  1  0  0  0  0
 39 41  1  0  0  0  0
 39 38  2  0  0  0  0
 40 39  1  0  0  0  0
 41 33  2  0  0  0  0
 42 41  1  0  0  0  0
 43  7  1  0  0  0  0
 43 31  2  0  0  0  0
 44 46  1  0  0  0  0
 44 45  1  0  0  0  0
 44 43  1  0  0  0  0
 47 44  1  0  0  0  0
 48 49  1  0  0  0  0
 48  7  1  0  0  0  0
 50 48  1  0  0  0  0
 51 48  1  0  0  0  0
 51  8  1  0  0  0  0
 52 51  1  0  0  0  0
 53 51  1  0  0  0  0
 54 55  1  6  0  0  0
 54  8  1  0  0  0  0
 54 59  1  0  0  0  0
 55 58  1  0  0  0  0
 55 57  1  0  0  0  0
 56 55  1  0  0  0  0
 59 71  2  0  0  0  0
 60 61  1  0  0  0  0
 60 59  1  0  0  0  0
 61 69  1  0  0  0  0
 62 64  1  0  0  0  0
 62 61  2  0  0  0  0
 63 62  1  0  0  0  0
 64 66  2  0  0  0  0
 65 64  1  0  0  0  0
 66  2  1  0  0  0  0
 66 67  1  0  0  0  0
 67 68  1  0  0  0  0
 69 67  2  0  0  0  0
 69 70  1  0  0  0  0
 71  5  1  0  0  0  0
 71 72  1  0  0  0  0
 72 73  2  0  0  0  0
 72 81  1  0  0  0  0
 73 75  1  0  0  0  0
 74 73  1  0  0  0  0
 75 76  1  0  0  0  0
 75 77  2  0  0  0  0
 77 78  1  0  0  0  0
 79 77  1  0  0  0  0
 79 80  1  0  0  0  0
 81 79  2  0  0  0  0
 82 81  1  0  0  0  0
M  END
