39,41,42,43
q = -1.0

 43 46  0  0  1  0  0  0  0  0999 V2000
    0.0473   -0.8723   -2.7878 C   0  0  0  0  0  0  0  0  0  0  0  0
    0.0304    0.1436   -3.2284 H   0  0  0  0  0  0  0  0  0  0  0  0
   -0.0983   -1.5988   -3.6154 H   0  0  0  0  0  0  0  0  0  0  0  0
    1.3270   -1.1519   -2.0547 C   0  0  0  0  0  0  0  0  0  0  0  0
    2.6676   -1.1977   -0.3264 C   0  0  0  0  0  0  0  0  0  0  0  0
    3.3676   -1.1266    0.8946 C   0  0  0  0  0  0  0  0  0  0  0  0
    2.9185   -0.6973    1.7982 H   0  0  0  0  0  0  0  0  0  0  0  0
    4.6761   -1.6251    0.9241 C   0  0  0  0  0  0  0  0  0  0  0  0
    5.2446   -1.5800    1.8656 H   0  0  0  0  0  0  0  0  0  0  0  0
    5.2875   -2.1855   -0.2246 C   0  0  0  0  0  0  0  0  0  0  0  0
    6.3180   -2.5642   -0.1537 H   0  0  0  0  0  0  0  0  0  0  0  0
    4.6027   -2.2630   -1.4413 C   0  0  0  0  0  0  0  0  0  0  0  0
    5.0648   -2.6948   -2.3409 H   0  0  0  0  0  0  0  0  0  0  0  0
    3.2850   -1.7671   -1.4961 C   0  0  0  0  0  3  0  0  0  0  0  0
   -2.3481   -0.3412   -2.1641 C   0  0  0  0  0  0  0  0  0  0  0  0
   -3.0273   -1.0888   -2.6271 H   0  0  0  0  0  0  0  0  0  0  0  0
   -2.1370    0.4051   -2.9593 H   0  0  0  0  0  0  0  0  0  0  0  0
   -3.0472    0.3684   -1.0183 C   0  0  2  0  0  3  0  0  0  0  0  0
   -4.4151    0.6636   -1.0674 C   0  0  0  0  0  0  0  0  0  0  0  0
   -5.0169    0.3008   -1.9136 H   0  0  0  0  0  0  0  0  0  0  0  0
   -5.0007    1.4269   -0.0463 C   0  0  0  0  0  0  0  0  0  0  0  0
   -6.0727    1.6693   -0.0754 H   0  0  0  0  0  0  0  0  0  0  0  0
   -4.1898    1.8725    1.0085 C   0  0  0  0  0  0  0  0  0  0  0  0
   -4.5992    2.4767    1.8302 H   0  0  0  0  0  0  0  0  0  0  0  0
   -2.8366    1.5258    1.0147 C   0  0  0  0  0  0  0  0  0  0  0  0
   -2.1608    1.8356    1.8257 H   0  0  0  0  0  0  0  0  0  0  0  0
   -1.1960   -2.4033   -1.3999 C   0  0  0  0  0  0  0  0  0  0  0  0
   -1.8281   -2.9367   -2.1403 H   0  0  0  0  0  0  0  0  0  0  0  0
   -0.1759   -2.8401   -1.4534 H   0  0  0  0  0  0  0  0  0  0  0  0
   -1.7195   -2.5471   -0.0103 C   0  0  2  0  0  3  0  0  0  0  0  0
   -2.5814   -3.5784    0.3846 C   0  0  0  0  0  0  0  0  0  0  0  0
   -2.8875   -4.3357   -0.3515 H   0  0  0  0  0  0  0  0  0  0  0  0
   -3.0442   -3.6252    1.7054 C   0  0  0  0  0  0  0  0  0  0  0  0
   -3.7122   -4.4315    2.0405 H   0  0  0  0  0  0  0  0  0  0  0  0
   -2.6614   -2.5935    2.5748 C   0  0  0  0  0  0  0  0  0  0  0  0
   -3.0289   -2.5489    3.6096 H   0  0  0  0  0  0  0  0  0  0  0  0
   -1.8057   -1.5930    2.1094 C   0  0  0  0  0  0  0  0  0  0  0  0
   -1.5362   -0.7496    2.7575 H   0  0  0  0  0  0  0  0  0  0  0  0
    1.3935   -0.8059   -0.7135 N   0  0  0  0  0  0  0  0  0  0  0  0
    2.4018   -1.7339   -2.5631 N   0  0  0  0  0  0  0  0  0  0  0  0
   -1.0544   -0.9573   -1.7701 N   0  0  0  0  0  0  0  0  0  0  0  0
   -2.2681    0.7871    0.0287 N   0  0  0  0  0  2  0  0  0  0  0  0
   -1.2912   -1.5788    0.8524 N   0  0  0  0  0  2  0  0  0  0  0  0
  1  4  1  0  0  0  0
  1 41  1  0  0  0  0
  2  1  1  0  0  0  0
  3  1  1  0  0  0  0
  4 39  1  0  0  0  0
  5  6  1  0  0  0  0
  6  8  2  0  0  0  0
  6  7  1  0  0  0  0
  8  9  1  0  0  0  0
 10 11  1  0  0  0  0
 10  8  1  0  0  0  0
 12 10  2  0  0  0  0
 13 12  1  0  0  0  0
 14 12  1  0  0  0  0
 14  5  1  0  0  0  0
 15 41  1  0  0  0  0
 16 15  1  0  0  0  0
 17 15  1  0  0  0  0
 18 15  1  6  0  0  0
 18 42  1  0  0  0  0
 19 18  1  0  0  0  0
 19 21  2  0  0  0  0
 20 19  1  0  0  0  0
 21 23  1  0  0  0  0
 22 21  1  0  0  0  0
 23 25  2  0  0  0  0
 23 24  1  0  0  0  0
 25 26  1  0  0  0  0
 28 27  1  0  0  0  0
 29 27  1  0  0  0  0
 30 27  1  6  0  0  0
 30 31  1  0  0  0  0
 30 43  1  0  0  0  0
 31 33  2  0  0  0  0
 32 31  1  0  0  0  0
 33 34  1  0  0  0  0
 33 35  1  0  0  0  0
 35 36  1  0  0  0  0
 37 35  2  0  0  0  0
 37 38  1  0  0  0  0
 39  5  2  0  0  0  0
 40  4  2  0  0  0  0
 40 14  1  0  0  0  0
 41 27  1  0  0  0  0
 42 25  1  0  0  0  0
 43 37  1  0  0  0  0
M  END
