1,5,9,13
q = -3.0, confidence = 0.356

 61 63  0  0  0  0  0  0  0  0999 V2000
   -0.0207   -0.7976    2.2711 N   0  0  0  0  0  0  0  0  0  0  0  0
    1.2903   -0.4032    2.8000 C   0  0  0  0  0  0  0  0  0  0  0  0
    1.6332    1.0022    2.2945 C   0  0  0  0  0  0  0  0  0  0  0  0
    2.4122    1.7397    2.9194 O   0  0  0  0  0  0  0  0  0  0  0  0
    0.9958    1.2697    1.1157 N   0  0  0  0  0  2  0  0  0  0  0  0
   -1.1424   -0.1052    2.9158 C   0  0  0  0  0  0  0  0  0  0  0  0
   -2.3305   -0.0758    1.9510 C   0  0  0  0  0  0  0  0  0  0  0  0
   -3.4987    0.0180    2.3562 O   0  0  0  0  0  0  0  0  0  0  0  0
   -1.9007   -0.1448    0.6533 N   0  0  0  0  0  2  0  0  0  0  0  0
   -0.2089   -2.2504    2.1833 C   0  0  0  0  0  0  0  0  0  0  0  0
    0.6190   -2.7944    1.0168 C   0  0  0  0  0  0  0  0  0  0  0  0
    1.0075   -3.9711    0.9897 O   0  0  0  0  0  0  0  0  0  0  0  0
    0.8244   -1.8253    0.0678 N   0  0  0  0  0  2  0  0  0  0  0  0
    1.1393    2.6310    0.6002 C   0  0  0  0  0  0  0  0  0  0  0  0
   -0.2133    3.2983    0.1962 C   0  0  0  0  0  0  0  0  0  0  0  0
   -0.0103    3.8359   -1.2350 C   0  0  0  0  0  0  0  0  0  0  0  0
    1.5142    4.0099   -1.3617 C   0  0  0  0  0  0  0  0  0  0  0  0
    2.0470    2.7622   -0.6469 C   0  0  0  0  0  0  0  0  0  0  0  0
   -2.9416   -0.2335   -0.3675 C   0  0  0  0  0  0  0  0  0  0  0  0
   -3.0930    1.0193   -1.2597 C   0  0  0  0  0  0  0  0  0  0  0  0
   -3.7408    0.4778   -2.5385 C   0  0  0  0  0  0  0  0  0  0  0  0
   -2.9766   -0.8390   -2.7785 C   0  0  0  0  0  0  0  0  0  0  0  0
   -2.7412   -1.4188   -1.3641 C   0  0  0  0  0  0  0  0  0  0  0  0
    1.7770   -2.1578   -0.9923 C   0  0  0  0  0  0  0  0  0  0  0  0
    2.9563   -1.1576   -1.0722 C   0  0  0  0  0  0  0  0  0  0  0  0
    3.3903   -1.1863   -2.5420 C   0  0  0  0  0  0  0  0  0  0  0  0
    2.0450   -1.2471   -3.2861 C   0  0  0  0  0  0  0  0  0  0  0  0
    1.1958   -2.2199   -2.4424 C   0  0  0  0  0  0  0  0  0  0  0  0
    2.0508   -1.1151    2.4175 H   0  0  0  0  0  0  0  0  0  0  0  0
    1.3327   -0.4219    3.9131 H   0  0  0  0  0  0  0  0  0  0  0  0
   -0.8326    0.9392    3.1270 H   0  0  0  0  0  0  0  0  0  0  0  0
   -1.4481   -0.5749    3.8784 H   0  0  0  0  0  0  0  0  0  0  0  0
   -1.2824   -2.4514    1.9846 H   0  0  0  0  0  0  0  0  0  0  0  0
    0.0704   -2.7839    3.1205 H   0  0  0  0  0  0  0  0  0  0  0  0
    1.6050    3.2118    1.4253 H   0  0  0  0  0  0  0  0  0  0  0  0
   -1.0394    2.5631    0.2524 H   0  0  0  0  0  0  0  0  0  0  0  0
   -0.4567    4.1180    0.9051 H   0  0  0  0  0  0  0  0  0  0  0  0
   -0.3347    3.0549   -1.9527 H   0  0  0  0  0  0  0  0  0  0  0  0
   -0.5814    4.7648   -1.4443 H   0  0  0  0  0  0  0  0  0  0  0  0
    1.8421    4.9338   -0.8317 H   0  0  0  0  0  0  0  0  0  0  0  0
    1.8591    4.0960   -2.4141 H   0  0  0  0  0  0  0  0  0  0  0  0
    1.8746    1.8764   -1.2890 H   0  0  0  0  0  0  0  0  0  0  0  0
    3.1208    2.8128   -0.3742 H   0  0  0  0  0  0  0  0  0  0  0  0
   -3.8946   -0.3780    0.1862 H   0  0  0  0  0  0  0  0  0  0  0  0
   -3.6737    1.8188   -0.7574 H   0  0  0  0  0  0  0  0  0  0  0  0
   -2.0768    1.4059   -1.4820 H   0  0  0  0  0  0  0  0  0  0  0  0
   -4.8185    0.2597   -2.3630 H   0  0  0  0  0  0  0  0  0  0  0  0
   -3.6837    1.1781   -3.3980 H   0  0  0  0  0  0  0  0  0  0  0  0
   -2.0042   -0.6095   -3.2681 H   0  0  0  0  0  0  0  0  0  0  0  0
   -3.5087   -1.5384   -3.4559 H   0  0  0  0  0  0  0  0  0  0  0  0
   -1.7267   -1.8514   -1.2442 H   0  0  0  0  0  0  0  0  0  0  0  0
   -3.4558   -2.2368   -1.1379 H   0  0  0  0  0  0  0  0  0  0  0  0
    2.1635   -3.1666   -0.7346 H   0  0  0  0  0  0  0  0  0  0  0  0
    2.5791   -0.1473   -0.8144 H   0  0  0  0  0  0  0  0  0  0  0  0
    3.7658   -1.4063   -0.3558 H   0  0  0  0  0  0  0  0  0  0  0  0
    4.0104   -0.3125   -2.8319 H   0  0  0  0  0  0  0  0  0  0  0  0
    3.9887   -2.1018   -2.7535 H   0  0  0  0  0  0  0  0  0  0  0  0
    2.1395   -1.5508   -4.3497 H   0  0  0  0  0  0  0  0  0  0  0  0
    1.5809   -0.2404   -3.2508 H   0  0  0  0  0  0  0  0  0  0  0  0
    1.2748   -3.2574   -2.8304 H   0  0  0  0  0  0  0  0  0  0  0  0
    0.1177   -1.9657   -2.4483 H   0  0  0  0  0  0  0  0  0  0  0  0
  1  2  1  0  0  0  0
  1  6  1  0  0  0  0
  2 30  1  0  0  0  0
  3  2  1  0  0  0  0
  3  4  2  0  0  0  0
  5  3  1  0  0  0  0
  6 31  1  0  0  0  0
  6 32  1  0  0  0  0
  7  8  2  0  0  0  0
  7  6  1  0  0  0  0
  9  7  1  0  0  0  0
 10  1  1  0  0  0  0
 10 34  1  0  0  0  0
 11 10  1  0  0  0  0
 12 11  2  0  0  0  0
 13 11  1  0  0  0  0
 14  5  1  0  0  0  0
 14 35  1  0  0  0  0
 15 36  1  0  0  0  0
 15 14  1  0  0  0  0
 15 37  1  0  0  0  0
 16 15  1  0  0  0  0
 17 16  1  0  0  0  0
 17 40  1  0  0  0  0
 17 18  1  0  0  0  0
 18 43  1  0  0  0  0
 18 14  1  0  0  0  0
 19 44  1  0  0  0  0
 19  9  1  0  0  0  0
 20 45  1  0  0  0  0
 20 19  1  0  0  0  0
 21 47  1  0  0  0  0
 21 20  1  0  0  0  0
 22 21  1  0  0  0  0
 22 23  1  0  0  0  0
 23 51  1  0  0  0  0
 23 52  1  0  0  0  0
 23 19  1  0  0  0  0
 24 53  1  0  0  0  0
 24 13  1  0  0  0  0
 25 24  1  0  0  0  0
 25 54  1  0  0  0  0
 25 55  1  0  0  0  0
 26 25  1  0  0  0  0
 27 59  1  0  0  0  0
 27 26  1  0  0  0  0
 27 28  1  0  0  0  0
 28 24  1  0  0  0  0
 29  2  1  0  0  0  0
 33 10  1  0  0  0  0
 38 16  1  0  0  0  0
 39 16  1  0  0  0  0
 41 17  1  0  0  0  0
 42 18  1  0  0  0  0
 46 20  1  0  0  0  0
 48 21  1  0  0  0  0
 49 22  1  0  0  0  0
 50 22  1  0  0  0  0
 56 26  1  0  0  0  0
 57 26  1  0  0  0  0
 58 27  1  0  0  0  0
 60 28  1  0  0  0  0
 61 28  1  0  0  0  0
M  END
