28,29,30,31
q = 0.0, confidence = 0.98

 31 30  0  0  1  0  0  0  0  0999 V2000
   -0.7803   -2.1691   -1.7636 C   0  0  0  0  0  0  0  0  0  0  0  0
   -1.9210   -1.6004   -0.9186 C   0  0  0  0  0  0  0  0  0  0  0  0
   -2.2803    0.5283    0.4775 C   0  0  1  0  0  0  0  0  0  0  0  0
   -1.4677    1.8109    0.7188 C   0  0  0  0  0  0  0  0  0  0  0  0
    0.8143    2.5961    0.0430 C   0  0  0  0  0  0  0  0  0  0  0  0
    0.7038    2.3895   -1.4657 C   0  0  0  0  0  0  0  0  0  0  0  0
   -3.7494    0.8112    0.1826 C   0  0  0  0  0  0  0  0  0  0  0  0
    1.3365   -2.0348   -1.6188 H   0  0  0  0  0  0  0  0  0  0  0  0
   -1.7745    2.2923    1.6687 H   0  0  0  0  0  0  0  0  0  0  0  0
    0.3334    1.3719    1.6876 H   0  0  0  0  0  0  0  0  0  0  0  0
    0.4858    3.6188    0.3269 H   0  0  0  0  0  0  0  0  0  0  0  0
    1.8592    2.4761    0.3892 H   0  0  0  0  0  0  0  0  0  0  0  0
   -0.3102    2.6653   -1.8212 H   0  0  0  0  0  0  0  0  0  0  0  0
    1.4178    3.0424   -2.0087 H   0  0  0  0  0  0  0  0  0  0  0  0
    0.5059    0.7108   -2.6858 H   0  0  0  0  0  0  0  0  0  0  0  0
    1.9242    0.7106   -1.8512 H   0  0  0  0  0  0  0  0  0  0  0  0
   -4.3216   -0.1269    0.0461 H   0  0  0  0  0  0  0  0  0  0  0  0
   -4.2156    1.3567    1.0264 H   0  0  0  0  0  0  0  0  0  0  0  0
    0.5562   -2.5506   -0.2129 H   0  0  0  0  0  0  0  0  0  0  0  0
   -3.8707    1.4335   -0.7293 H   0  0  0  0  0  0  0  0  0  0  0  0
   -0.7410   -1.6620   -2.7513 H   0  0  0  0  0  0  0  0  0  0  0  0
   -0.9352   -3.2501   -1.9631 H   0  0  0  0  0  0  0  0  0  0  0  0
   -2.8974   -1.6992   -1.4374 H   0  0  0  0  0  0  0  0  0  0  0  0
   -1.9885   -2.1419    0.0460 H   0  0  0  0  0  0  0  0  0  0  0  0
   -1.7073    0.3606   -1.4890 H   0  0  0  0  0  0  0  0  0  0  0  0
   -2.2012   -0.1193    1.3729 H   0  0  0  0  0  0  0  0  0  0  0  0
   -1.6924    2.5344   -0.0930 H   0  0  0  0  0  0  0  0  0  0  0  0
    0.4898   -1.9160   -1.0414 N   0  0  0  0  0  0  0  0  0  0  0  0
   -1.5718   -0.1879   -0.6239 N   0  0  0  0  0  0  0  0  0  0  0  0
    0.0058    1.5512    0.7195 N   0  0  0  0  0  0  0  0  0  0  0  0
    0.9168    0.9461   -1.7707 N   0  0  0  0  0  0  0  0  0  0  0  0
  1 28  1  0  0  0  0
  1  2  1  0  0  0  0
  2 29  1  0  0  0  0
  2 24  1  0  0  0  0
  3  4  1  0  0  0  0
  3 26  1  1  0  0  0
  4 30  1  0  0  0  0
  4  9  1  0  0  0  0
  5 11  1  0  0  0  0
  5 12  1  0  0  0  0
  5 30  1  0  0  0  0
  6  5  1  0  0  0  0
  7  3  1  0  0  0  0
  7 18  1  0  0  0  0
  8 28  1  0  0  0  0
 13  6  1  0  0  0  0
 14  6  1  0  0  0  0
 15 31  1  0  0  0  0
 16 31  1  0  0  0  0
 17  7  1  0  0  0  0
 20  7  1  0  0  0  0
 21  1  1  0  0  0  0
 22  1  1  0  0  0  0
 23  2  1  0  0  0  0
 25 29  1  0  0  0  0
 27  4  1  0  0  0  0
 28 19  1  0  0  0  0
 29  3  1  0  0  0  0
 30 10  1  0  0  0  0
 31  6  1  0  0  0  0
M  END
