1,2,3,4
q = 0.0, confidence = 0.996

 48 49  0  0  1  0  0  0  0  0999 V2000
    1.8755    0.4652   -0.4564 N   0  0  0  0  0  2  0  0  0  0  0  0
   -1.8755   -0.4652   -0.4565 N   0  0  0  0  0  2  0  0  0  0  0  0
    0.6277   -1.2711    1.0618 N   0  0  0  0  0  0  0  0  0  0  0  0
   -0.6277    1.2711    1.0618 N   0  0  0  0  0  0  0  0  0  0  0  0
    2.4292    1.5386   -1.0820 C   0  0  0  0  0  3  0  0  0  0  0  0
    1.7103    2.1527   -1.6491 H   0  0  0  0  0  0  0  0  0  0  0  0
   -2.4291   -1.5386   -1.0821 C   0  0  0  0  0  3  0  0  0  0  0  0
   -1.7103   -2.1526   -1.6492 H   0  0  0  0  0  0  0  0  0  0  0  0
    0.6063   -0.4538    2.2991 C   0  0  0  0  0  0  0  0  0  0  0  0
    1.5354    0.1520    2.3196 H   0  0  0  0  0  0  0  0  0  0  0  0
    0.6151   -1.0917    3.2115 H   0  0  0  0  0  0  0  0  0  0  0  0
    2.0357   -1.6496    0.6949 C   0  0  1  0  0  0  0  0  0  0  0  0
    1.8970   -2.2775   -0.2173 H   0  0  0  0  0  0  0  0  0  0  0  0
   -2.0358    1.6496    0.6948 C   0  0  1  0  0  0  0  0  0  0  0  0
   -1.8971    2.2774   -0.2174 H   0  0  0  0  0  0  0  0  0  0  0  0
   -0.6063    0.4538    2.2991 C   0  0  0  0  0  0  0  0  0  0  0  0
   -1.5355   -0.1520    2.3196 H   0  0  0  0  0  0  0  0  0  0  0  0
   -0.6152    1.0917    3.2115 H   0  0  0  0  0  0  0  0  0  0  0  0
    3.7956    1.8191   -1.0309 C   0  0  0  0  0  0  0  0  0  0  0  0
    4.1791    2.7021   -1.5624 H   0  0  0  0  0  0  0  0  0  0  0  0
    4.0883   -0.1548    0.3103 C   0  0  0  0  0  0  0  0  0  0  0  0
    4.7222   -0.8615    0.8627 H   0  0  0  0  0  0  0  0  0  0  0  0
    2.7145   -0.3985    0.1996 C   0  0  0  0  0  0  0  0  0  0  0  0
    4.6495    0.9741   -0.3063 C   0  0  0  0  0  0  0  0  0  0  0  0
    5.7283    1.1755   -0.2347 H   0  0  0  0  0  0  0  0  0  0  0  0
   -4.6494   -0.9742   -0.3063 C   0  0  0  0  0  0  0  0  0  0  0  0
   -5.7282   -1.1757   -0.2347 H   0  0  0  0  0  0  0  0  0  0  0  0
   -3.7955   -1.8192   -1.0309 C   0  0  0  0  0  0  0  0  0  0  0  0
   -4.1790   -2.7022   -1.5625 H   0  0  0  0  0  0  0  0  0  0  0  0
   -4.0883    0.1546    0.3103 C   0  0  0  0  0  0  0  0  0  0  0  0
   -4.7222    0.8613    0.8627 H   0  0  0  0  0  0  0  0  0  0  0  0
    0.2239    2.4670    1.1670 C   0  0  0  0  0  0  0  0  0  0  0  0
   -0.1408    3.1690    1.9489 H   0  0  0  0  0  0  0  0  0  0  0  0
    0.2286    2.9643    0.1783 H   0  0  0  0  0  0  0  0  0  0  0  0
    1.2583    2.1724    1.4178 H   0  0  0  0  0  0  0  0  0  0  0  0
   -2.7145    0.3985    0.1996 C   0  0  0  0  0  0  0  0  0  0  0  0
   -0.2240   -2.4670    1.1670 C   0  0  0  0  0  0  0  0  0  0  0  0
    0.1407   -3.1690    1.9489 H   0  0  0  0  0  0  0  0  0  0  0  0
   -0.2287   -2.9643    0.1783 H   0  0  0  0  0  0  0  0  0  0  0  0
   -1.2584   -2.1723    1.4178 H   0  0  0  0  0  0  0  0  0  0  0  0
    2.8046   -2.4237    1.7646 C   0  0  0  0  0  0  0  0  0  0  0  0
    3.0658   -1.7992    2.6430 H   0  0  0  0  0  0  0  0  0  0  0  0
    3.7481   -2.8160    1.3387 H   0  0  0  0  0  0  0  0  0  0  0  0
    2.2312   -3.3022    2.1168 H   0  0  0  0  0  0  0  0  0  0  0  0
   -2.8047    2.4237    1.7645 C   0  0  0  0  0  0  0  0  0  0  0  0
   -3.0659    1.7992    2.6430 H   0  0  0  0  0  0  0  0  0  0  0  0
   -3.7483    2.8159    1.3386 H   0  0  0  0  0  0  0  0  0  0  0  0
   -2.2313    3.3022    2.1166 H   0  0  0  0  0  0  0  0  0  0  0  0
  1 23  1  0  0  0  0
  2 36  1  0  0  0  0
  3 37  1  0  0  0  0
  3  9  1  0  0  0  0
  4 32  1  0  0  0  0
  4 16  1  0  0  0  0
  5 19  1  0  0  0  0
  5  1  1  0  0  0  0
  6  5  1  0  0  0  0
  7 28  1  0  0  0  0
  7  2  1  0  0  0  0
  8  7  1  0  0  0  0
  9 10  1  0  0  0  0
  9 11  1  0  0  0  0
 12 13  1  6  0  0  0
 12  3  1  0  0  0  0
 12 41  1  0  0  0  0
 14 15  1  6  0  0  0
 14  4  1  0  0  0  0
 14 45  1  0  0  0  0
 16  9  1  0  0  0  0
 16 17  1  0  0  0  0
 16 18  1  0  0  0  0
 19 24  2  0  0  0  0
 20 19  1  0  0  0  0
 21 22  1  0  0  0  0
 23 21  2  0  0  0  0
 23 12  1  0  0  0  0
 24 25  1  0  0  0  0
 24 21  1  0  0  0  0
 26 27  1  0  0  0  0
 26 30  1  0  0  0  0
 28 26  2  0  0  0  0
 29 28  1  0  0  0  0
 30 31  1  0  0  0  0
 32 35  1  0  0  0  0
 32 33  1  0  0  0  0
 34 32  1  0  0  0  0
 36 30  2  0  0  0  0
 36 14  1  0  0  0  0
 37 40  1  0  0  0  0
 37 38  1  0  0  0  0
 39 37  1  0  0  0  0
 41 44  1  0  0  0  0
 41 42  1  0  0  0  0
 43 41  1  0  0  0  0
 45 48  1  0  0  0  0
 45 46  1  0  0  0  0
 47 45  1  0  0  0  0
M  END
