1,3,5,7
q = -2.0, confidence = 0.872

 56 59  0  0  1  0  0  0  0  0999 V2000
    1.4552   -1.5826   -0.4636 N   0  0  0  0  0  2  0  0  0  0  0  0
    1.2687   -2.9508   -0.9020 C   0  0  0  0  0  0  0  0  0  0  0  0
   -1.4278   -1.7403    0.2515 N   0  0  0  0  0  2  0  0  0  0  0  0
    1.1151   -3.9193    0.2761 C   0  0  0  0  0  0  0  0  0  0  0  0
   -1.3263    0.7476    0.1694 N   0  0  0  0  0  2  0  0  0  0  0  0
    0.0595   -3.4731    1.2940 C   0  0  0  0  0  0  0  0  0  0  0  0
    1.2121    0.8469   -0.1301 N   0  0  0  0  0  2  0  0  0  0  0  0
   -1.3169   -3.1226    0.7126 C   0  0  0  0  0  0  0  0  0  0  0  0
   -2.6453   -1.1752    0.1232 C   0  0  0  0  0  0  0  0  0  0  0  0
   -3.8631   -1.9075    0.2443 C   0  0  0  0  0  3  0  0  0  0  0  0
   -5.1857   -1.5263   -0.0049 C   0  0  0  0  0  0  0  0  0  0  0  0
   -5.7058   -0.3129   -0.4852 C   0  0  0  0  0  0  0  0  0  0  0  0
   -4.9729    0.8476   -0.7780 C   0  0  0  0  0  0  0  0  0  0  0  0
   -3.6125    1.1165   -0.5939 C   0  0  0  0  0  0  0  0  0  0  0  0
   -2.5650    0.2936   -0.0919 C   0  0  0  0  0  0  0  0  0  0  0  0
   -0.8572    2.1097   -0.0589 C   0  0  1  0  0  0  0  0  0  0  0  0
   -1.5192    3.2542    0.7296 C   0  0  0  0  0  0  0  0  0  0  0  0
   -0.9619    4.5923    0.2147 C   0  0  0  0  0  0  0  0  0  0  0  0
    0.5740    4.6462    0.2337 C   0  0  0  0  0  0  0  0  0  0  0  0
    1.2280    3.4161   -0.4200 C   0  0  0  0  0  0  0  0  0  0  0  0
    0.6607    2.1460    0.2418 C   0  0  2  0  0  0  0  0  0  0  0  0
    2.5000    0.4665   -0.0371 C   0  0  0  0  0  0  0  0  0  0  0  0
    3.5413    1.2991    0.4564 C   0  0  0  0  0  3  0  0  0  0  0  0
    4.9288    1.1060    0.4721 C   0  0  0  0  0  0  0  0  0  0  0  0
    5.6928    0.0392   -0.0218 C   0  0  0  0  0  0  0  0  0  0  0  0
    5.1989   -1.1539   -0.5809 C   0  0  0  0  0  0  0  0  0  0  0  0
    3.8841   -1.5986   -0.7353 C   0  0  0  0  0  0  0  0  0  0  0  0
    2.6480   -0.9656   -0.4132 C   0  0  0  0  0  0  0  0  0  0  0  0
    2.0859   -3.2899   -1.5734 H   0  0  0  0  0  0  0  0  0  0  0  0
    0.3432   -2.9718   -1.5159 H   0  0  0  0  0  0  0  0  0  0  0  0
    0.8498   -4.9198   -0.1309 H   0  0  0  0  0  0  0  0  0  0  0  0
    2.0928   -4.0351    0.7908 H   0  0  0  0  0  0  0  0  0  0  0  0
    0.4268   -2.5929    1.8622 H   0  0  0  0  0  0  0  0  0  0  0  0
   -0.0768   -4.2868    2.0365 H   0  0  0  0  0  0  0  0  0  0  0  0
   -1.5802   -3.8362   -0.1062 H   0  0  0  0  0  0  0  0  0  0  0  0
   -2.0728   -3.2922    1.5115 H   0  0  0  0  0  0  0  0  0  0  0  0
   -3.7447   -2.9586    0.5411 H   0  0  0  0  0  0  0  0  0  0  0  0
   -5.9291   -2.3234    0.1665 H   0  0  0  0  0  0  0  0  0  0  0  0
   -6.7916   -0.2738   -0.6625 H   0  0  0  0  0  0  0  0  0  0  0  0
   -5.5544    1.6861   -1.1975 H   0  0  0  0  0  0  0  0  0  0  0  0
   -3.2998    2.1291   -0.8848 H   0  0  0  0  0  0  0  0  0  0  0  0
   -0.9836    2.3322   -1.1491 H   0  0  0  0  0  0  0  0  0  0  0  0
   -2.6214    3.2358    0.6357 H   0  0  0  0  0  0  0  0  0  0  0  0
   -1.2953    3.1199    1.8099 H   0  0  0  0  0  0  0  0  0  0  0  0
   -1.3794    5.4337    0.8058 H   0  0  0  0  0  0  0  0  0  0  0  0
   -1.3169    4.7419   -0.8294 H   0  0  0  0  0  0  0  0  0  0  0  0
    0.9212    4.7082    1.2892 H   0  0  0  0  0  0  0  0  0  0  0  0
    0.9280    5.5739   -0.2619 H   0  0  0  0  0  0  0  0  0  0  0  0
    2.3281    3.4781   -0.3292 H   0  0  0  0  0  0  0  0  0  0  0  0
    1.0070    3.3810   -1.5087 H   0  0  0  0  0  0  0  0  0  0  0  0
    0.7803    2.2587    1.3495 H   0  0  0  0  0  0  0  0  0  0  0  0
    3.2016    2.2436    0.9031 H   0  0  0  0  0  0  0  0  0  0  0  0
    5.5013    1.9316    0.9279 H   0  0  0  0  0  0  0  0  0  0  0  0
    6.7871    0.1361    0.0500 H   0  0  0  0  0  0  0  0  0  0  0  0
    5.9667   -1.8720   -0.9157 H   0  0  0  0  0  0  0  0  0  0  0  0
    3.7891   -2.6166   -1.1408 H   0  0  0  0  0  0  0  0  0  0  0  0
  1 28  1  0  0  0  0
  2  1  1  0  0  0  0
  2  4  1  0  0  0  0
  3  8  1  0  0  0  0
  4 32  1  0  0  0  0
  4  6  1  0  0  0  0
  6 33  1  0  0  0  0
  6 34  1  0  0  0  0
  7 22  1  0  0  0  0
  7 21  1  0  0  0  0
  8  6  1  0  0  0  0
  8 36  1  0  0  0  0
  9 10  1  0  0  0  0
  9  3  1  0  0  0  0
 10 37  1  0  0  0  0
 11 38  1  0  0  0  0
 11 10  1  0  0  0  0
 12 11  2  0  0  0  0
 13 14  2  0  0  0  0
 13 12  1  0  0  0  0
 14 15  1  0  0  0  0
 15  9  2  0  0  0  0
 15  5  1  0  0  0  0
 16 42  1  6  0  0  0
 16  5  1  0  0  0  0
 16 21  1  0  0  0  0
 16 17  1  0  0  0  0
 17 44  1  0  0  0  0
 18 19  1  0  0  0  0
 18 17  1  0  0  0  0
 18 45  1  0  0  0  0
 19 47  1  0  0  0  0
 20 49  1  0  0  0  0
 20 19  1  0  0  0  0
 20 21  1  0  0  0  0
 21 51  1  1  0  0  0
 22 23  1  0  0  0  0
 23 24  1  0  0  0  0
 23 52  1  0  0  0  0
 24 53  1  0  0  0  0
 25 54  1  0  0  0  0
 25 24  2  0  0  0  0
 26 25  1  0  0  0  0
 27 26  2  0  0  0  0
 27 28  1  0  0  0  0
 28 22  2  0  0  0  0
 29  2  1  0  0  0  0
 30  2  1  0  0  0  0
 31  4  1  0  0  0  0
 35  8  1  0  0  0  0
 39 12  1  0  0  0  0
 40 13  1  0  0  0  0
 41 14  1  0  0  0  0
 43 17  1  0  0  0  0
 46 18  1  0  0  0  0
 48 19  1  0  0  0  0
 50 20  1  0  0  0  0
 55 26  1  0  0  0  0
 56 27  1  0  0  0  0
M  END
