1,2,3,4
q = -2.0, confidence = 0.802

 62 66  0  0  1  0  0  0  0  0999 V2000
    1.4791   -1.4400   -0.2186 N   0  0  0  0  0  2  0  0  0  0  0  0
    1.4791    1.4401   -0.2184 N   0  0  0  0  0  2  0  0  0  0  0  0
   -1.4791    1.4400   -0.2186 N   0  0  0  0  0  0  0  0  0  0  0  0
   -1.4791   -1.4400   -0.2184 N   0  0  0  0  0  0  0  0  0  0  0  0
    1.2615   -2.7794   -0.5518 C   0  0  0  0  0  0  0  0  0  0  0  0
    2.5188   -3.4622   -0.6040 C   0  0  0  0  0  0  0  0  0  0  0  0
    2.6577   -4.5237   -0.8430 H   0  0  0  0  0  0  0  0  0  0  0  0
    3.4928   -2.5251   -0.2821 C   0  0  0  0  0  0  0  0  0  0  0  0
    4.5717   -2.6972   -0.2134 H   0  0  0  0  0  0  0  0  0  0  0  0
    2.8130   -1.2793   -0.0581 C   0  0  2  0  0  3  0  0  0  0  0  0
    3.4670    0.0000    0.4326 C   0  0  0  0  0  0  0  0  0  0  0  0
    4.9722   -0.0000    0.0415 C   0  0  0  0  0  0  0  0  0  0  0  0
    5.4495    0.8780    0.5234 H   0  0  0  0  0  0  0  0  0  0  0  0
    5.4494   -0.8780    0.5236 H   0  0  0  0  0  0  0  0  0  0  0  0
    5.2675   -0.0002   -1.4585 C   0  0  0  0  0  0  0  0  0  0  0  0
    6.3605   -0.0001   -1.6445 H   0  0  0  0  0  0  0  0  0  0  0  0
    4.8394    0.8922   -1.9569 H   0  0  0  0  0  0  0  0  0  0  0  0
    4.8396   -0.8928   -1.9566 H   0  0  0  0  0  0  0  0  0  0  0  0
    3.4072    0.0002    2.0102 C   0  0  0  0  0  0  0  0  0  0  0  0
    3.9760   -0.8915    2.3516 H   0  0  0  0  0  0  0  0  0  0  0  0
    3.9761    0.8920    2.3513 H   0  0  0  0  0  0  0  0  0  0  0  0
    2.0205    0.0004    2.6469 C   0  0  0  0  0  0  0  0  0  0  0  0
    2.1054   -0.0001    3.7523 H   0  0  0  0  0  0  0  0  0  0  0  0
    1.4370   -0.8975    2.3594 H   0  0  0  0  0  0  0  0  0  0  0  0
    1.4375    0.8988    2.3599 H   0  0  0  0  0  0  0  0  0  0  0  0
    2.8131    1.2793   -0.0583 C   0  0  2  0  0  3  0  0  0  0  0  0
    3.4929    2.5249   -0.2828 C   0  0  0  0  0  0  0  0  0  0  0  0
    4.5718    2.6970   -0.2144 H   0  0  0  0  0  0  0  0  0  0  0  0
    2.5188    3.4621   -0.6046 C   0  0  0  0  0  0  0  0  0  0  0  0
    2.6577    4.5235   -0.8439 H   0  0  0  0  0  0  0  0  0  0  0  0
    1.2615    2.7793   -0.5518 C   0  0  0  0  0  0  0  0  0  0  0  0
   -0.0000    3.3629   -0.7203 C   0  0  0  0  0  0  0  0  0  0  0  0
    0.0000    4.4357   -0.9705 H   0  0  0  0  0  0  0  0  0  0  0  0
   -1.2615    2.7794   -0.5518 C   0  0  0  0  0  0  0  0  0  0  0  0
   -2.8130    1.2793   -0.0582 C   0  0  0  0  0  3  0  0  0  0  0  0
   -3.4670   -0.0000    0.4326 C   0  0  0  0  0  0  0  0  0  0  0  0
   -3.4072   -0.0002    2.0102 C   0  0  0  0  0  0  0  0  0  0  0  0
   -3.9759    0.8915    2.3516 H   0  0  0  0  0  0  0  0  0  0  0  0
   -3.9761   -0.8919    2.3513 H   0  0  0  0  0  0  0  0  0  0  0  0
   -2.8131   -1.2793   -0.0583 C   0  0  0  0  0  3  0  0  0  0  0  0
   -1.2615   -2.7793   -0.5518 C   0  0  0  0  0  0  0  0  0  0  0  0
    0.0000   -3.3629   -0.7203 C   0  0  0  0  0  0  0  0  0  0  0  0
   -0.0000   -4.4357   -0.9705 H   0  0  0  0  0  0  0  0  0  0  0  0
   -2.5188   -3.4621   -0.6046 C   0  0  0  0  0  0  0  0  0  0  0  0
   -2.6577   -4.5235   -0.8439 H   0  0  0  0  0  0  0  0  0  0  0  0
   -3.4929   -2.5249   -0.2828 C   0  0  0  0  0  0  0  0  0  0  0  0
   -4.5718   -2.6970   -0.2144 H   0  0  0  0  0  0  0  0  0  0  0  0
   -4.9722    0.0000    0.0416 C   0  0  0  0  0  0  0  0  0  0  0  0
   -5.4495   -0.8780    0.5235 H   0  0  0  0  0  0  0  0  0  0  0  0
   -5.4494    0.8780    0.5235 H   0  0  0  0  0  0  0  0  0  0  0  0
   -5.2675    0.0001   -1.4585 C   0  0  0  0  0  0  0  0  0  0  0  0
   -6.3605   -0.0000   -1.6444 H   0  0  0  0  0  0  0  0  0  0  0  0
   -4.8395   -0.8924   -1.9567 H   0  0  0  0  0  0  0  0  0  0  0  0
   -4.8396    0.8926   -1.9567 H   0  0  0  0  0  0  0  0  0  0  0  0
   -3.4928    2.5251   -0.2821 C   0  0  0  0  0  0  0  0  0  0  0  0
   -4.5717    2.6971   -0.2135 H   0  0  0  0  0  0  0  0  0  0  0  0
   -2.5188    3.4622   -0.6040 C   0  0  0  0  0  0  0  0  0  0  0  0
   -2.6577    4.5236   -0.8431 H   0  0  0  0  0  0  0  0  0  0  0  0
   -2.0205   -0.0004    2.6469 C   0  0  0  0  0  0  0  0  0  0  0  0
   -2.1054    0.0001    3.7523 H   0  0  0  0  0  0  0  0  0  0  0  0
   -1.4370    0.8975    2.3594 H   0  0  0  0  0  0  0  0  0  0  0  0
   -1.4375   -0.8988    2.3599 H   0  0  0  0  0  0  0  0  0  0  0  0
  1 10  1  0  0  0  0
  2 26  1  0  0  0  0
  3 35  1  0  0  0  0
  4 40  1  0  0  0  0
  5  1  1  0  0  0  0
  6  5  1  0  0  0  0
  6  8  2  0  0  0  0
  7  6  1  0  0  0  0
  8  9  1  0  0  0  0
 10  8  1  1  0  0  0
 10 11  1  0  0  0  0
 11 19  1  0  0  0  0
 12 11  1  0  0  0  0
 12 13  1  0  0  0  0
 12 14  1  0  0  0  0
 15 12  1  0  0  0  0
 16 15  1  0  0  0  0
 17 15  1  0  0  0  0
 18 15  1  0  0  0  0
 19 21  1  0  0  0  0
 19 20  1  0  0  0  0
 19 22  1  0  0  0  0
 22 23  1  0  0  0  0
 24 22  1  0  0  0  0
 25 22  1  0  0  0  0
 26 27  1  1  0  0  0
 26 11  1  0  0  0  0
 27 28  1  0  0  0  0
 29 31  1  0  0  0  0
 29 27  2  0  0  0  0
 30 29  1  0  0  0  0
 31  2  1  0  0  0  0
 32 31  2  0  0  0  0
 32 34  1  0  0  0  0
 33 32  1  0  0  0  0
 34  3  2  0  0  0  0
 35 36  1  0  0  0  0
 36 37  1  0  0  0  0
 37 39  1  0  0  0  0
 37 38  1  0  0  0  0
 37 59  1  0  0  0  0
 40 36  1  0  0  0  0
 41  4  2  0  0  0  0
 42 41  1  0  0  0  0
 42  5  2  0  0  0  0
 43 42  1  0  0  0  0
 44 41  1  0  0  0  0
 44 46  2  0  0  0  0
 45 44  1  0  0  0  0
 46 47  1  0  0  0  0
 46 40  1  0  0  0  0
 48 36  1  0  0  0  0
 48 49  1  0  0  0  0
 48 50  1  0  0  0  0
 51 48  1  0  0  0  0
 52 51  1  0  0  0  0
 53 51  1  0  0  0  0
 54 51  1  0  0  0  0
 55 56  1  0  0  0  0
 55 35  1  0  0  0  0
 57 34  1  0  0  0  0
 57 55  2  0  0  0  0
 58 57  1  0  0  0  0
 59 60  1  0  0  0  0
 61 59  1  0  0  0  0
 62 59  1  0  0  0  0
M  END
