3,4,5,6
q = -2.0, confidence = 0.812

 66 71  0  0  0  0  0  0  0  0999 V2000
   -6.7474    0.9615    2.8061 O   0  0  0  0  0  0  0  0  0  0  0  0
   -7.4247   -0.8849   -1.5580 O   0  0  0  0  0  0  0  0  0  0  0  0
   -0.8191    1.3560   -0.3431 N   0  0  0  0  0  2  0  0  0  0  0  0
    1.9317    1.3899   -0.0967 N   0  0  0  0  0  0  0  0  0  0  0  0
    1.9603   -1.3596   -0.1334 N   0  0  0  0  0  0  0  0  0  0  0  0
   -0.7978   -1.3755   -0.3891 N   0  0  0  0  0  0  0  0  0  0  0  0
   -2.1873    1.1912   -0.1887 C   0  0  0  0  0  0  0  0  0  0  0  0
   -2.8728    2.4544   -0.3535 C   0  0  0  0  0  0  0  0  0  0  0  0
   -1.9118    3.3881   -0.6465 C   0  0  0  0  0  0  0  0  0  0  0  0
   -0.6432    2.7034   -0.6064 C   0  0  0  0  0  0  0  0  0  0  0  0
    0.5853    3.3550   -0.6849 C   0  0  0  0  0  0  0  0  0  0  0  0
    1.7881    2.7388   -0.3741 C   0  0  0  0  0  0  0  0  0  0  0  0
    3.0385    3.4537   -0.1737 C   0  0  0  0  0  0  0  0  0  0  0  0
    3.9458    2.5221    0.2880 C   0  0  0  0  0  0  0  0  0  0  0  0
    3.2485    1.2442    0.2936 C   0  0  0  0  0  0  0  0  0  0  0  0
    3.8730    0.0262    0.5368 C   0  0  0  0  0  0  0  0  0  0  0  0
    3.2735   -1.1978    0.2641 C   0  0  0  0  0  3  0  0  0  0  0  0
    3.9983   -2.4605    0.2207 C   0  0  0  0  0  0  0  0  0  0  0  0
    3.1081   -3.3990   -0.2599 C   0  0  0  0  0  0  0  0  0  0  0  0
    1.8440   -2.7031   -0.4449 C   0  0  0  0  0  0  0  0  0  0  0  0
    0.6519   -3.3390   -0.7566 C   0  0  0  0  0  0  0  0  0  0  0  0
   -0.5905   -2.7177   -0.6512 C   0  0  0  0  0  0  0  0  0  0  0  0
   -1.8385   -3.4407   -0.6471 C   0  0  0  0  0  0  0  0  0  0  0  0
   -2.8173   -2.5359   -0.3250 C   0  0  0  0  0  0  0  0  0  0  0  0
   -2.1691   -1.2480   -0.2086 C   0  0  0  0  0  0  0  0  0  0  0  0
   -2.8527   -0.0353   -0.0464 C   0  0  0  0  0  0  0  0  0  0  0  0
   -4.3274   -0.0257    0.1851 C   0  0  0  0  0  0  0  0  0  0  0  0
   -4.8251    0.4686    1.4090 C   0  0  0  0  0  0  0  0  0  0  0  0
   -6.2123    0.5014    1.6414 C   0  0  0  0  0  0  0  0  0  0  0  0
   -7.1068    0.0455    0.6552 C   0  0  0  0  0  0  0  0  0  0  0  0
   -6.6062   -0.4403   -0.5650 C   0  0  0  0  0  0  0  0  0  0  0  0
   -5.2174   -0.4780   -0.8045 C   0  0  0  0  0  0  0  0  0  0  0  0
    3.2358    4.9176   -0.4078 C   0  0  0  0  0  0  0  0  0  0  0  0
    5.3955    2.7172    0.6241 C   0  0  0  0  0  0  0  0  0  0  0  0
    6.3396    2.4382   -0.5582 C   0  0  0  0  0  0  0  0  0  0  0  0
    5.4227   -2.6522    0.6509 C   0  0  0  0  0  0  0  0  0  0  0  0
    5.5923   -2.7322    2.1775 C   0  0  0  0  0  0  0  0  0  0  0  0
    3.3246   -4.8569   -0.5126 C   0  0  0  0  0  0  0  0  0  0  0  0
   -3.9583    2.5816   -0.2878 H   0  0  0  0  0  0  0  0  0  0  0  0
   -2.0334    4.4585   -0.8510 H   0  0  0  0  0  0  0  0  0  0  0  0
    0.5821    4.4334   -0.8927 H   0  0  0  0  0  0  0  0  0  0  0  0
    4.9260    0.0337    0.8456 H   0  0  0  0  0  0  0  0  0  0  0  0
    0.6696   -4.4146   -0.9773 H   0  0  0  0  0  0  0  0  0  0  0  0
   -1.9326   -4.5181   -0.8276 H   0  0  0  0  0  0  0  0  0  0  0  0
   -3.8911   -2.7045   -0.1977 H   0  0  0  0  0  0  0  0  0  0  0  0
   -4.1222    0.8215    2.1798 H   0  0  0  0  0  0  0  0  0  0  0  0
   -8.1880    0.0807    0.8597 H   0  0  0  0  0  0  0  0  0  0  0  0
   -4.8500   -0.8424   -1.7729 H   0  0  0  0  0  0  0  0  0  0  0  0
   -6.0150    1.2350    3.3891 H   0  0  0  0  0  0  0  0  0  0  0  0
   -8.3485   -0.7901   -1.2606 H   0  0  0  0  0  0  0  0  0  0  0  0
    2.5387    5.5314    0.2011 H   0  0  0  0  0  0  0  0  0  0  0  0
    4.2662    5.2307   -0.1519 H   0  0  0  0  0  0  0  0  0  0  0  0
    3.0595    5.1908   -1.4697 H   0  0  0  0  0  0  0  0  0  0  0  0
    5.5485    3.7584    0.9783 H   0  0  0  0  0  0  0  0  0  0  0  0
    5.6722    2.0682    1.4825 H   0  0  0  0  0  0  0  0  0  0  0  0
    6.1142    3.1103   -1.4106 H   0  0  0  0  0  0  0  0  0  0  0  0
    6.2266    1.3973   -0.9233 H   0  0  0  0  0  0  0  0  0  0  0  0
    7.4003    2.5893   -0.2716 H   0  0  0  0  0  0  0  0  0  0  0  0
    6.0503   -1.8259    0.2519 H   0  0  0  0  0  0  0  0  0  0  0  0
    5.8209   -3.5785    0.1865 H   0  0  0  0  0  0  0  0  0  0  0  0
    5.0137   -3.5806    2.5953 H   0  0  0  0  0  0  0  0  0  0  0  0
    5.2239   -1.8099    2.6706 H   0  0  0  0  0  0  0  0  0  0  0  0
    6.6564   -2.8696    2.4580 H   0  0  0  0  0  0  0  0  0  0  0  0
    2.7306   -5.4880    0.1825 H   0  0  0  0  0  0  0  0  0  0  0  0
    4.3882   -5.1346   -0.3817 H   0  0  0  0  0  0  0  0  0  0  0  0
    3.0266   -5.1448   -1.5424 H   0  0  0  0  0  0  0  0  0  0  0  0
  1 49  1  0  0  0  0
  2 50  1  0  0  0  0
  2 31  1  0  0  0  0
  3  7  1  0  0  0  0
  4 15  1  0  0  0  0
  5 17  1  0  0  0  0
  6 25  2  0  0  0  0
  7 26  2  0  0  0  0
  8 39  1  0  0  0  0
  8  7  1  0  0  0  0
  9 10  1  0  0  0  0
  9  8  2  0  0  0  0
 10  3  1  0  0  0  0
 11 10  2  0  0  0  0
 11 12  1  0  0  0  0
 12 13  1  0  0  0  0
 12  4  2  0  0  0  0
 13 14  2  0  0  0  0
 14 15  1  0  0  0  0
 14 34  1  0  0  0  0
 15 16  2  0  0  0  0
 16 42  1  0  0  0  0
 17 16  1  0  0  0  0
 18 17  1  0  0  0  0
 18 36  1  0  0  0  0
 19 18  2  0  0  0  0
 20 19  1  0  0  0  0
 20  5  2  0  0  0  0
 21 22  2  0  0  0  0
 21 20  1  0  0  0  0
 22 23  1  0  0  0  0
 22  6  1  0  0  0  0
 23 24  2  0  0  0  0
 24 25  1  0  0  0  0
 24 45  1  0  0  0  0
 25 26  1  0  0  0  0
 26 27  1  0  0  0  0
 27 28  1  0  0  0  0
 28 29  2  0  0  0  0
 28 46  1  0  0  0  0
 29  1  1  0  0  0  0
 30 47  1  0  0  0  0
 30 29  1  0  0  0  0
 31 30  2  0  0  0  0
 32 31  1  0  0  0  0
 32 27  2  0  0  0  0
 33 13  1  0  0  0  0
 33 52  1  0  0  0  0
 33 51  1  0  0  0  0
 34 54  1  0  0  0  0
 34 55  1  0  0  0  0
 35 58  1  0  0  0  0
 35 34  1  0  0  0  0
 36 37  1  0  0  0  0
 37 63  1  0  0  0  0
 37 61  1  0  0  0  0
 37 62  1  0  0  0  0
 38 65  1  0  0  0  0
 38 19  1  0  0  0  0
 38 64  1  0  0  0  0
 40  9  1  0  0  0  0
 41 11  1  0  0  0  0
 43 21  1  0  0  0  0
 44 23  1  0  0  0  0
 48 32  1  0  0  0  0
 53 33  1  0  0  0  0
 56 35  1  0  0  0  0
 57 35  1  0  0  0  0
 59 36  1  0  0  0  0
 60 36  1  0  0  0  0
 66 38  1  0  0  0  0
M  END
