3,4,5,6
q = -2.0, confidence = 0.866

 34 35  0  0  1  0  0  0  0  0999 V2000
    3.5391    1.9395   -0.1150 O   0  0  0  0  0  0  0  0  0  0  0  0
   -3.5392    1.9395    0.1136 O   0  0  0  0  0  0  0  0  0  0  0  0
    1.5188   -0.9703    0.0266 N   0  0  0  0  0  2  0  0  0  0  0  0
    1.2366    1.5176   -0.0335 N   0  0  0  0  0  2  0  0  0  0  0  0
   -1.2366    1.5175    0.0343 N   0  0  0  0  0  2  0  0  0  0  0  0
   -1.5187   -0.9704   -0.0263 N   0  0  0  0  0  2  0  0  0  0  0  0
    1.7675   -2.4153    0.1278 C   0  0  0  0  0  0  0  0  0  0  0  0
    3.2896   -2.5752   -0.1103 C   0  0  0  0  0  0  0  0  0  0  0  0
    3.8631   -1.1654    0.1707 C   0  0  0  0  0  0  0  0  0  0  0  0
    2.6451   -0.3085    0.0534 C   0  0  2  0  0  3  0  0  0  0  0  0
    2.5542    1.1933   -0.0336 C   0  0  0  0  0  0  0  0  0  0  0  0
    0.7230    2.8622   -0.2569 C   0  0  0  0  0  0  0  0  0  0  0  0
   -0.7231    2.8622    0.2572 C   0  0  0  0  0  0  0  0  0  0  0  0
   -2.5542    1.1933    0.0334 C   0  0  0  0  0  0  0  0  0  0  0  0
   -2.6451   -0.3086   -0.0536 C   0  0  1  0  0  3  0  0  0  0  0  0
   -3.8629   -1.1655   -0.1714 C   0  0  0  0  0  0  0  0  0  0  0  0
   -3.2896   -2.5753    0.1099 C   0  0  0  0  0  0  0  0  0  0  0  0
   -1.7674   -2.4154   -0.1275 C   0  0  0  0  0  0  0  0  0  0  0  0
    1.4488   -2.7567    1.1384 H   0  0  0  0  0  0  0  0  0  0  0  0
    1.1445   -2.9621   -0.6080 H   0  0  0  0  0  0  0  0  0  0  0  0
    3.4759   -2.8539   -1.1669 H   0  0  0  0  0  0  0  0  0  0  0  0
    3.7371   -3.3642    0.5230 H   0  0  0  0  0  0  0  0  0  0  0  0
    4.6635   -0.8378   -0.5220 H   0  0  0  0  0  0  0  0  0  0  0  0
    4.2851   -1.0608    1.1959 H   0  0  0  0  0  0  0  0  0  0  0  0
    1.3616    3.6188    0.2475 H   0  0  0  0  0  0  0  0  0  0  0  0
    0.7429    3.0981   -1.3467 H   0  0  0  0  0  0  0  0  0  0  0  0
   -1.3618    3.6186   -0.2475 H   0  0  0  0  0  0  0  0  0  0  0  0
   -0.7430    3.0985    1.3469 H   0  0  0  0  0  0  0  0  0  0  0  0
   -4.6637   -0.8379    0.5209 H   0  0  0  0  0  0  0  0  0  0  0  0
   -4.2846   -1.0610   -1.1968 H   0  0  0  0  0  0  0  0  0  0  0  0
   -3.4765   -2.8540    1.1664 H   0  0  0  0  0  0  0  0  0  0  0  0
   -3.7367   -3.3643   -0.5236 H   0  0  0  0  0  0  0  0  0  0  0  0
   -1.4482   -2.7569   -1.1379 H   0  0  0  0  0  0  0  0  0  0  0  0
   -1.1447   -2.9620    0.6086 H   0  0  0  0  0  0  0  0  0  0  0  0
  1 11  2  0  0  0  0
  3 10  1  0  0  0  0
  3  7  1  0  0  0  0
  5 13  1  0  0  0  0
  7 19  1  0  0  0  0
  8  7  1  0  0  0  0
  8  9  1  0  0  0  0
  8 22  1  0  0  0  0
  9 24  1  0  0  0  0
 10 11  1  1  0  0  0
 10  9  1  0  0  0  0
 11  4  1  0  0  0  0
 12  4  1  0  0  0  0
 12 25  1  0  0  0  0
 12 13  1  0  0  0  0
 13 28  1  0  0  0  0
 14  5  1  0  0  0  0
 14  2  2  0  0  0  0
 15  6  1  0  0  0  0
 15 14  1  6  0  0  0
 16 15  1  0  0  0  0
 16 17  1  0  0  0  0
 16 29  1  0  0  0  0
 17 31  1  0  0  0  0
 18  6  1  0  0  0  0
 18 17  1  0  0  0  0
 18 34  1  0  0  0  0
 20  7  1  0  0  0  0
 21  8  1  0  0  0  0
 23  9  1  0  0  0  0
 26 12  1  0  0  0  0
 27 13  1  0  0  0  0
 30 16  1  0  0  0  0
 32 17  1  0  0  0  0
 33 18  1  0  0  0  0
M  END
