3,4,5,6
q = 0.0, confidence = 0.97

 58 61  0  0  1  0  0  0  0  0999 V2000
   -3.6222   -1.5326   -0.9576 O   0  0  0  0  0  0  0  0  0  0  0  0
   -3.0523    3.8419    0.3484 O   0  0  0  0  0  0  0  0  0  0  0  0
   -0.4820   -0.6206    1.3362 N   0  0  0  0  0  2  0  0  0  0  0  0
    0.7266   -1.2790   -0.8984 N   0  0  0  0  0  2  0  0  0  0  0  0
    2.5839    0.8418   -0.7341 N   0  0  0  0  0  2  0  0  0  0  0  0
    2.2455   -0.7710    1.2527 N   0  0  0  0  0  0  0  0  0  0  0  0
    1.5630   -0.9991    2.5403 C   0  0  0  0  0  0  0  0  0  0  0  0
    0.1483   -1.4079    2.2587 C   0  0  1  0  0  3  0  0  0  0  0  0
   -0.4615   -2.4939    2.8880 C   0  0  0  0  0  0  0  0  0  0  0  0
   -1.7927   -2.8019    2.5608 C   0  0  0  0  0  0  0  0  0  0  0  0
   -2.4622   -1.9681    1.6694 C   0  0  0  0  0  0  0  0  0  0  0  0
   -1.8078   -0.8488    1.0996 C   0  0  0  0  0  0  0  0  0  0  0  0
   -2.5990    0.1582    0.3676 C   0  0  0  0  0  0  0  0  0  0  0  0
   -3.5511   -0.2015   -0.6202 C   0  0  0  0  0  0  0  0  0  0  0  0
   -4.3371    0.8024   -1.2143 C   0  0  0  0  0  0  0  0  0  0  0  0
   -4.1694    2.1437   -0.8469 C   0  0  0  0  0  0  0  0  0  0  0  0
   -3.1994    2.5134    0.1038 C   0  0  0  0  0  0  0  0  0  0  0  0
   -2.4276    1.5103    0.7159 C   0  0  0  0  0  0  0  0  0  0  0  0
   -4.4886   -1.9099   -2.0041 C   0  0  0  0  0  0  0  0  0  0  0  0
   -1.9441    4.2391    1.1477 C   0  0  0  0  0  0  0  0  0  0  0  0
    2.5388   -2.0283    0.5084 C   0  0  0  0  0  0  0  0  0  0  0  0
    1.4376   -2.3617   -0.4626 C   0  0  2  0  0  3  0  0  0  0  0  0
    1.1821   -3.6540   -0.9284 C   0  0  0  0  0  0  0  0  0  0  0  0
    0.1748   -3.8542   -1.8873 C   0  0  0  0  0  0  0  0  0  0  0  0
   -0.5405   -2.7354   -2.3415 C   0  0  0  0  0  0  0  0  0  0  0  0
   -0.2463   -1.4701   -1.8277 C   0  0  0  0  0  0  0  0  0  0  0  0
    3.4502    0.0877    1.3691 C   0  0  0  0  0  0  0  0  0  0  0  0
    3.7180    0.6553    0.0061 C   0  0  1  0  0  3  0  0  0  0  0  0
    4.9884    0.9636   -0.4868 C   0  0  0  0  0  0  0  0  0  0  0  0
    5.1136    1.4871   -1.7844 C   0  0  0  0  0  0  0  0  0  0  0  0
    3.9485    1.6613   -2.5440 C   0  0  0  0  0  0  0  0  0  0  0  0
    2.7067    1.3254   -1.9944 C   0  0  0  0  0  0  0  0  0  0  0  0
    1.5321   -0.0068    3.0425 H   0  0  0  0  0  0  0  0  0  0  0  0
    2.0959   -1.7399    3.1776 H   0  0  0  0  0  0  0  0  0  0  0  0
    0.1097   -3.0938    3.6109 H   0  0  0  0  0  0  0  0  0  0  0  0
   -2.3014   -3.6649    3.0155 H   0  0  0  0  0  0  0  0  0  0  0  0
   -3.5146   -2.1379    1.4103 H   0  0  0  0  0  0  0  0  0  0  0  0
   -5.0807    0.5509   -1.9820 H   0  0  0  0  0  0  0  0  0  0  0  0
   -4.7679    2.9352   -1.3207 H   0  0  0  0  0  0  0  0  0  0  0  0
   -1.6325    1.7568    1.4334 H   0  0  0  0  0  0  0  0  0  0  0  0
   -4.3680   -3.0024   -2.1337 H   0  0  0  0  0  0  0  0  0  0  0  0
   -5.5558   -1.6922   -1.7689 H   0  0  0  0  0  0  0  0  0  0  0  0
   -4.2310   -1.4008   -2.9611 H   0  0  0  0  0  0  0  0  0  0  0  0
   -1.9139    5.3441    1.1061 H   0  0  0  0  0  0  0  0  0  0  0  0
   -2.0688    3.9229    2.2084 H   0  0  0  0  0  0  0  0  0  0  0  0
   -0.9899    3.8155    0.7677 H   0  0  0  0  0  0  0  0  0  0  0  0
    2.7383   -2.8702    1.2060 H   0  0  0  0  0  0  0  0  0  0  0  0
    3.4719   -1.8620   -0.0697 H   0  0  0  0  0  0  0  0  0  0  0  0
    1.7671   -4.4980   -0.5336 H   0  0  0  0  0  0  0  0  0  0  0  0
   -0.0501   -4.8638   -2.2607 H   0  0  0  0  0  0  0  0  0  0  0  0
   -1.3455   -2.8345   -3.0839 H   0  0  0  0  0  0  0  0  0  0  0  0
   -0.7769   -0.5485   -2.1212 H   0  0  0  0  0  0  0  0  0  0  0  0
    4.3265   -0.4614    1.7815 H   0  0  0  0  0  0  0  0  0  0  0  0
    3.1680    0.9247    2.0445 H   0  0  0  0  0  0  0  0  0  0  0  0
    5.8705    0.7892    0.1469 H   0  0  0  0  0  0  0  0  0  0  0  0
    6.1022    1.7434   -2.1929 H   0  0  0  0  0  0  0  0  0  0  0  0
    3.9892    2.0603   -3.5679 H   0  0  0  0  0  0  0  0  0  0  0  0
    1.7485    1.4694   -2.5192 H   0  0  0  0  0  0  0  0  0  0  0  0
  1 14  1  0  0  0  0
  2 20  1  0  0  0  0
  3  8  1  0  0  0  0
  4 22  1  0  0  0  0
  5 28  1  0  0  0  0
  6 27  1  0  0  0  0
  6  7  1  0  0  0  0
  7 33  1  0  0  0  0
  7 34  1  0  0  0  0
  8  7  1  1  0  0  0
  8  9  1  0  0  0  0
  9 35  1  0  0  0  0
 10  9  2  0  0  0  0
 10 36  1  0  0  0  0
 11 10  1  0  0  0  0
 12  3  1  0  0  0  0
 12 11  2  0  0  0  0
 13 18  1  0  0  0  0
 13 12  1  0  0  0  0
 14 13  2  0  0  0  0
 15 16  2  0  0  0  0
 15 14  1  0  0  0  0
 16 17  1  0  0  0  0
 17  2  1  0  0  0  0
 17 18  2  0  0  0  0
 18 40  1  0  0  0  0
 19 42  1  0  0  0  0
 19  1  1  0  0  0  0
 20 45  1  0  0  0  0
 21 47  1  0  0  0  0
 21  6  1  0  0  0  0
 22 21  1  6  0  0  0
 23 49  1  0  0  0  0
 23 22  1  0  0  0  0
 24 23  2  0  0  0  0
 25 24  1  0  0  0  0
 25 26  2  0  0  0  0
 26  4  1  0  0  0  0
 27 53  1  0  0  0  0
 27 54  1  0  0  0  0
 28 27  1  6  0  0  0
 29 28  1  0  0  0  0
 29 55  1  0  0  0  0
 30 29  2  0  0  0  0
 31 32  2  0  0  0  0
 31 30  1  0  0  0  0
 32  5  1  0  0  0  0
 37 11  1  0  0  0  0
 38 15  1  0  0  0  0
 39 16  1  0  0  0  0
 41 19  1  0  0  0  0
 43 19  1  0  0  0  0
 44 20  1  0  0  0  0
 46 20  1  0  0  0  0
 48 21  1  0  0  0  0
 50 24  1  0  0  0  0
 51 25  1  0  0  0  0
 52 26  1  0  0  0  0
 56 30  1  0  0  0  0
 57 31  1  0  0  0  0
 58 32  1  0  0  0  0
M  END
