2,3,34,55
q = 0.0, confidence = 0.95

 66 69  0  0  1  0  0  0  0  0999 V2000
   -3.3788    2.3877   -0.4600 N   0  0  0  0  0  0  0  0  0  0  0  0
   -1.3670    0.0859    0.3424 N   0  0  0  0  0  0  0  0  0  0  0  0
    0.0670   -1.4383    1.9365 N   0  0  0  0  0  2  0  0  0  0  0  0
   -4.4042    3.2146   -0.1744 C   0  0  0  0  0  0  0  0  0  0  0  0
   -4.1048    4.6909   -0.2061 C   0  0  0  0  0  0  0  0  0  0  0  0
   -3.6373    4.9654   -1.1729 H   0  0  0  0  0  0  0  0  0  0  0  0
   -3.3712    4.9508    0.5852 H   0  0  0  0  0  0  0  0  0  0  0  0
   -5.0130    5.3046   -0.0571 H   0  0  0  0  0  0  0  0  0  0  0  0
   -5.6885    2.7219    0.1372 C   0  0  0  0  0  0  0  0  0  0  0  0
   -6.5095    3.4212    0.3555 H   0  0  0  0  0  0  0  0  0  0  0  0
   -5.8984    1.3367    0.1614 C   0  0  0  0  0  0  0  0  0  0  0  0
   -6.8915    0.9266    0.4012 H   0  0  0  0  0  0  0  0  0  0  0  0
   -4.8260    0.4836   -0.1254 C   0  0  0  0  0  0  0  0  0  0  0  0
   -4.9425   -0.6105   -0.1145 H   0  0  0  0  0  0  0  0  0  0  0  0
   -3.5752    1.0537   -0.4367 C   0  0  0  0  0  0  0  0  0  0  0  0
   -2.3873    0.1689   -0.7437 C   0  0  0  0  0  0  0  0  0  0  0  0
   -2.7172   -0.8743   -0.9135 H   0  0  0  0  0  0  0  0  0  0  0  0
   -1.8782    0.5349   -1.6549 H   0  0  0  0  0  0  0  0  0  0  0  0
   -2.0064   -0.2670    1.6330 C   0  0  0  0  0  0  0  0  0  0  0  0
   -2.6962   -1.1125    1.4174 H   0  0  0  0  0  0  0  0  0  0  0  0
   -2.5771    0.5832    2.0666 H   0  0  0  0  0  0  0  0  0  0  0  0
   -0.9544   -0.7784    2.5654 C   0  0  1  0  0  3  0  0  0  0  0  0
   -1.0355   -0.6717    3.9571 C   0  0  0  0  0  0  0  0  0  0  0  0
   -1.8694   -0.1097    4.4034 H   0  0  0  0  0  0  0  0  0  0  0  0
   -0.0684   -1.2994    4.7568 C   0  0  0  0  0  0  0  0  0  0  0  0
   -0.1137   -1.2337    5.8537 H   0  0  0  0  0  0  0  0  0  0  0  0
    0.9445   -2.0262    4.1112 C   0  0  0  0  0  0  0  0  0  0  0  0
    1.7146   -2.5640    4.6834 H   0  0  0  0  0  0  0  0  0  0  0  0
    0.9827   -2.0737    2.7163 C   0  0  0  0  0  0  0  0  0  0  0  0
    1.7374   -2.6478    2.1540 H   0  0  0  0  0  0  0  0  0  0  0  0
   -0.5720    1.3394    0.4918 C   0  0  0  0  0  0  0  0  0  0  0  0
   -0.1831    1.3650    1.5301 H   0  0  0  0  0  0  0  0  0  0  0  0
   -1.2222    2.2284    0.3461 H   0  0  0  0  0  0  0  0  0  0  0  0
    1.3668    0.0859   -0.3425 N   0  0  0  0  0  0  0  0  0  0  0  0
    2.3872    0.1692    0.7436 C   0  0  0  0  0  0  0  0  0  0  0  0
    3.5751    1.0538    0.4364 C   0  0  0  0  0  0  0  0  0  0  0  0
    3.3789    2.3878    0.4595 N   0  0  0  0  0  0  0  0  0  0  0  0
    4.4044    3.2145    0.1737 C   0  0  0  0  0  0  0  0  0  0  0  0
    4.1052    4.6909    0.2052 C   0  0  0  0  0  0  0  0  0  0  0  0
    3.6390    4.9658    1.1726 H   0  0  0  0  0  0  0  0  0  0  0  0
    3.3705    4.9506   -0.5852 H   0  0  0  0  0  0  0  0  0  0  0  0
    5.0132    5.3045    0.0548 H   0  0  0  0  0  0  0  0  0  0  0  0
    5.6886    2.7217   -0.1379 C   0  0  0  0  0  0  0  0  0  0  0  0
    6.5097    3.4208   -0.3563 H   0  0  0  0  0  0  0  0  0  0  0  0
    5.8984    1.3365   -0.1618 C   0  0  0  0  0  0  0  0  0  0  0  0
    6.8914    0.9262   -0.4014 H   0  0  0  0  0  0  0  0  0  0  0  0
    4.8259    0.4835    0.1252 C   0  0  0  0  0  0  0  0  0  0  0  0
    4.9423   -0.6106    0.1146 H   0  0  0  0  0  0  0  0  0  0  0  0
    2.7170   -0.8740    0.9137 H   0  0  0  0  0  0  0  0  0  0  0  0
    1.8781    0.5355    1.6547 H   0  0  0  0  0  0  0  0  0  0  0  0
    2.0063   -0.2674   -1.6330 C   0  0  0  0  0  0  0  0  0  0  0  0
    2.6961   -1.1127   -1.4172 H   0  0  0  0  0  0  0  0  0  0  0  0
    2.5770    0.5828   -2.0668 H   0  0  0  0  0  0  0  0  0  0  0  0
    0.9543   -0.7790   -2.5652 C   0  0  2  0  0  3  0  0  0  0  0  0
   -0.0671   -1.4388   -1.9362 N   0  0  0  0  0  2  0  0  0  0  0  0
   -0.9826   -2.0745   -2.7158 C   0  0  0  0  0  0  0  0  0  0  0  0
   -0.9445   -2.0274   -4.1108 C   0  0  0  0  0  0  0  0  0  0  0  0
    0.0684   -1.3007   -4.7565 C   0  0  0  0  0  0  0  0  0  0  0  0
    1.0354   -0.6727   -3.9570 C   0  0  0  0  0  0  0  0  0  0  0  0
    1.8693   -0.1107   -4.4034 H   0  0  0  0  0  0  0  0  0  0  0  0
    0.1138   -1.2353   -5.8535 H   0  0  0  0  0  0  0  0  0  0  0  0
   -1.7145   -2.5653   -4.6828 H   0  0  0  0  0  0  0  0  0  0  0  0
   -1.7373   -2.6486   -2.1534 H   0  0  0  0  0  0  0  0  0  0  0  0
    0.5718    1.3393   -0.4922 C   0  0  0  0  0  0  0  0  0  0  0  0
    0.1829    1.3645   -1.5305 H   0  0  0  0  0  0  0  0  0  0  0  0
    1.2219    2.2284   -0.3468 H   0  0  0  0  0  0  0  0  0  0  0  0
  1 15  2  0  0  0  0
  1  4  1  0  0  0  0
  2 31  1  0  0  0  0
  2 19  1  0  0  0  0
  3 22  1  0  0  0  0
  3 29  1  0  0  0  0
  4  9  2  0  0  0  0
  5  4  1  0  0  0  0
  5  8  1  0  0  0  0
  5  7  1  0  0  0  0
  6  5  1  0  0  0  0
  9 11  1  0  0  0  0
  9 10  1  0  0  0  0
 11 12  1  0  0  0  0
 13 14  1  0  0  0  0
 13 11  2  0  0  0  0
 15 13  1  0  0  0  0
 16 15  1  0  0  0  0
 16  2  1  0  0  0  0
 17 16  1  0  0  0  0
 18 16  1  0  0  0  0
 19 21  1  0  0  0  0
 20 19  1  0  0  0  0
 22 19  1  1  0  0  0
 22 23  1  0  0  0  0
 23 24  1  0  0  0  0
 23 25  2  0  0  0  0
 25 26  1  0  0  0  0
 27 28  1  0  0  0  0
 27 25  1  0  0  0  0
 29 27  2  0  0  0  0
 30 29  1  0  0  0  0
 31 32  1  0  0  0  0
 33 31  1  0  0  0  0
 34 35  1  0  0  0  0
 35 49  1  0  0  0  0
 35 50  1  0  0  0  0
 36 37  1  0  0  0  0
 36 35  1  0  0  0  0
 38 39  1  0  0  0  0
 38 37  2  0  0  0  0
 39 40  1  0  0  0  0
 41 39  1  0  0  0  0
 42 39  1  0  0  0  0
 43 38  1  0  0  0  0
 44 43  1  0  0  0  0
 45 43  2  0  0  0  0
 45 47  1  0  0  0  0
 46 45  1  0  0  0  0
 47 36  2  0  0  0  0
 48 47  1  0  0  0  0
 51 52  1  0  0  0  0
 51 34  1  0  0  0  0
 53 51  1  0  0  0  0
 54 55  1  0  0  0  0
 54 51  1  6  0  0  0
 56 63  1  0  0  0  0
 56 55  1  0  0  0  0
 57 56  2  0  0  0  0
 58 57  1  0  0  0  0
 58 59  2  0  0  0  0
 59 54  1  0  0  0  0
 60 59  1  0  0  0  0
 61 58  1  0  0  0  0
 62 57  1  0  0  0  0
 64 66  1  0  0  0  0
 64 34  1  0  0  0  0
 64 31  1  0  0  0  0
 65 64  1  0  0  0  0
M  END
