1,2,38,67
q = -2.0, confidence = 0.848

 74 77  0  0  0  0  0  0  0  0999 V2000
    1.6508   -0.7284   -0.6325 N   0  0  0  0  0  2  0  0  0  0  0  0
   -0.0541   -1.5323    1.5792 N   0  0  0  0  0  2  0  0  0  0  0  0
    7.5692    1.5668    1.4395 C   0  0  0  0  0  0  0  0  0  0  0  0
    7.5152    1.1502    2.4671 H   0  0  0  0  0  0  0  0  0  0  0  0
    7.7644    2.6543    1.5453 H   0  0  0  0  0  0  0  0  0  0  0  0
    8.4427    1.1117    0.9347 H   0  0  0  0  0  0  0  0  0  0  0  0
    6.2915    1.3128    0.6814 C   0  0  0  0  0  0  0  0  0  0  0  0
    6.2827    0.5575   -0.5074 C   0  0  0  0  0  0  0  0  0  0  0  0
    7.2302    0.1518   -0.8954 H   0  0  0  0  0  0  0  0  0  0  0  0
    5.0928    0.3199   -1.2125 C   0  0  0  0  0  0  0  0  0  0  0  0
    5.0925   -0.2474   -2.1535 H   0  0  0  0  0  0  0  0  0  0  0  0
    3.8920    0.8399   -0.7141 C   0  0  0  0  0  0  0  0  0  0  0  0
    3.8708    1.6122    0.4594 C   0  0  0  0  0  0  0  0  0  0  0  0
    2.9182    2.0436    0.7978 H   0  0  0  0  0  0  0  0  0  0  0  0
    5.0659    1.8423    1.1469 C   0  0  0  0  0  0  0  0  0  0  0  0
    5.0551    2.4546    2.0629 H   0  0  0  0  0  0  0  0  0  0  0  0
    2.3340    0.5022   -1.5489 S   0  0  0  0  0  0  0  0  0  0  0  0
    2.6405    0.1364   -2.9506 O   0  0  0  0  0  0  0  0  0  0  0  0
    1.4249    1.6450   -1.2550 O   0  0  0  0  0  0  0  0  0  0  0  0
    2.0280   -2.0489   -0.6856 C   0  0  0  0  0  0  0  0  0  0  0  0
    2.9563   -2.5671   -1.6361 C   0  0  0  0  0  0  0  0  0  0  0  0
    3.3287   -1.8938   -2.4172 H   0  0  0  0  0  0  0  0  0  0  0  0
    3.3352   -3.9070   -1.6348 C   0  0  0  0  0  0  0  0  0  0  0  0
    4.0461   -4.2579   -2.3991 H   0  0  0  0  0  0  0  0  0  0  0  0
    2.8146   -4.8158   -0.6901 C   0  0  0  0  0  0  0  0  0  0  0  0
    3.1170   -5.8726   -0.6956 H   0  0  0  0  0  0  0  0  0  0  0  0
    1.9003   -4.3416    0.2421 C   0  0  0  0  0  0  0  0  0  0  0  0
    1.4729   -5.0293    0.9897 H   0  0  0  0  0  0  0  0  0  0  0  0
    1.4808   -2.9823    0.2785 C   0  0  0  0  0  0  0  0  0  0  0  0
    0.5559   -2.6584    1.3406 C   0  0  0  0  0  3  0  0  0  0  0  0
    0.3621   -3.5032    2.0421 H   0  0  0  0  0  0  0  0  0  0  0  0
   -0.8489   -1.4203    2.7949 C   0  0  0  0  0  0  0  0  0  0  0  0
   -1.1785   -2.4330    3.1244 H   0  0  0  0  0  0  0  0  0  0  0  0
   -1.7632   -0.8305    2.5688 H   0  0  0  0  0  0  0  0  0  0  0  0
   -0.0776   -0.7632    3.9565 C   0  0  0  0  0  0  0  0  0  0  0  0
    0.9232   -1.2443    4.0177 H   0  0  0  0  0  0  0  0  0  0  0  0
   -0.6047   -1.0401    4.8945 H   0  0  0  0  0  0  0  0  0  0  0  0
   -1.6508    0.7284   -0.6325 N   0  0  0  0  0  2  0  0  0  0  0  0
   -2.3340   -0.5022   -1.5489 S   0  0  0  0  0  0  0  0  0  0  0  0
   -3.8920   -0.8399   -0.7141 C   0  0  0  0  0  0  0  0  0  0  0  0
   -5.0929   -0.3199   -1.2125 C   0  0  0  0  0  0  0  0  0  0  0  0
   -6.2828   -0.5575   -0.5074 C   0  0  0  0  0  0  0  0  0  0  0  0
   -6.2915   -1.3128    0.6814 C   0  0  0  0  0  0  0  0  0  0  0  0
   -7.5693   -1.5668    1.4395 C   0  0  0  0  0  0  0  0  0  0  0  0
   -7.5153   -1.1501    2.4671 H   0  0  0  0  0  0  0  0  0  0  0  0
   -7.7645   -2.6543    1.5453 H   0  0  0  0  0  0  0  0  0  0  0  0
   -8.4428   -1.1117    0.9347 H   0  0  0  0  0  0  0  0  0  0  0  0
   -5.0659   -1.8423    1.1469 C   0  0  0  0  0  0  0  0  0  0  0  0
   -3.8709   -1.6122    0.4594 C   0  0  0  0  0  0  0  0  0  0  0  0
   -2.9182   -2.0436    0.7978 H   0  0  0  0  0  0  0  0  0  0  0  0
   -5.0551   -2.4545    2.0630 H   0  0  0  0  0  0  0  0  0  0  0  0
   -7.2302   -0.1518   -0.8955 H   0  0  0  0  0  0  0  0  0  0  0  0
   -5.0925    0.2473   -2.1536 H   0  0  0  0  0  0  0  0  0  0  0  0
   -2.6405   -0.1364   -2.9506 O   0  0  0  0  0  0  0  0  0  0  0  0
   -1.4249   -1.6450   -1.2550 O   0  0  0  0  0  0  0  0  0  0  0  0
   -2.0280    2.0489   -0.6856 C   0  0  0  0  0  0  0  0  0  0  0  0
   -2.9563    2.5670   -1.6361 C   0  0  0  0  0  0  0  0  0  0  0  0
   -3.3287    1.8938   -2.4172 H   0  0  0  0  0  0  0  0  0  0  0  0
   -3.3351    3.9070   -1.6347 C   0  0  0  0  0  0  0  0  0  0  0  0
   -4.0461    4.2579   -2.3991 H   0  0  0  0  0  0  0  0  0  0  0  0
   -2.8146    4.8158   -0.6900 C   0  0  0  0  0  0  0  0  0  0  0  0
   -3.1170    5.8726   -0.6956 H   0  0  0  0  0  0  0  0  0  0  0  0
   -1.9003    4.3416    0.2422 C   0  0  0  0  0  0  0  0  0  0  0  0
   -1.4729    5.0293    0.9897 H   0  0  0  0  0  0  0  0  0  0  0  0
   -1.4807    2.9823    0.2785 C   0  0  0  0  0  0  0  0  0  0  0  0
   -0.5559    2.6584    1.3406 C   0  0  0  0  0  3  0  0  0  0  0  0
    0.0541    1.5323    1.5793 N   0  0  0  0  0  2  0  0  0  0  0  0
    0.8489    1.4203    2.7949 C   0  0  0  0  0  0  0  0  0  0  0  0
    1.1785    2.4330    3.1244 H   0  0  0  0  0  0  0  0  0  0  0  0
    1.7632    0.8304    2.5688 H   0  0  0  0  0  0  0  0  0  0  0  0
    0.0776    0.7631    3.9565 C   0  0  0  0  0  0  0  0  0  0  0  0
   -0.9232    1.2443    4.0177 H   0  0  0  0  0  0  0  0  0  0  0  0
    0.6047    1.0401    4.8945 H   0  0  0  0  0  0  0  0  0  0  0  0
   -0.3621    3.5031    2.0422 H   0  0  0  0  0  0  0  0  0  0  0  0
  2 32  1  0  0  0  0
  3  5  1  0  0  0  0
  3  4  1  0  0  0  0
  6  3  1  0  0  0  0
  7 15  1  0  0  0  0
  7  3  1  0  0  0  0
  8  7  2  0  0  0  0
  9  8  1  0  0  0  0
 10 12  2  0  0  0  0
 10  8  1  0  0  0  0
 11 10  1  0  0  0  0
 12 13  1  0  0  0  0
 13 14  1  0  0  0  0
 13 15  2  0  0  0  0
 15 16  1  0  0  0  0
 17 19  2  0  0  0  0
 17 12  1  0  0  0  0
 17  1  1  0  0  0  0
 18 17  2  0  0  0  0
 20  1  1  0  0  0  0
 20 29  1  0  0  0  0
 21 23  1  0  0  0  0
 21 20  2  0  0  0  0
 22 21  1  0  0  0  0
 23 25  2  0  0  0  0
 24 23  1  0  0  0  0
 25 27  1  0  0  0  0
 26 25  1  0  0  0  0
 27 29  2  0  0  0  0
 27 28  1  0  0  0  0
 29 30  1  0  0  0  0
 30  2  1  0  0  0  0
 30 31  1  0  0  0  0
 32 33  1  0  0  0  0
 32 35  1  0  0  0  0
 34 32  1  0  0  0  0
 35 71  1  0  0  0  0
 35 36  1  0  0  0  0
 35 37  1  0  0  0  0
 39 55  2  0  0  0  0
 39 40  1  0  0  0  0
 39 38  1  0  0  0  0
 40 49  1  0  0  0  0
 41 40  2  0  0  0  0
 41 42  1  0  0  0  0
 42 43  2  0  0  0  0
 43 48  1  0  0  0  0
 43 44  1  0  0  0  0
 44 46  1  0  0  0  0
 44 45  1  0  0  0  0
 47 44  1  0  0  0  0
 48 51  1  0  0  0  0
 49 50  1  0  0  0  0
 49 48  2  0  0  0  0
 52 42  1  0  0  0  0
 53 41  1  0  0  0  0
 54 39  2  0  0  0  0
 56 38  1  0  0  0  0
 56 65  1  0  0  0  0
 57 59  1  0  0  0  0
 57 56  2  0  0  0  0
 58 57  1  0  0  0  0
 59 61  2  0  0  0  0
 60 59  1  0  0  0  0
 61 63  1  0  0  0  0
 62 61  1  0  0  0  0
 63 65  2  0  0  0  0
 63 64  1  0  0  0  0
 65 66  1  0  0  0  0
 66 67  1  0  0  0  0
 66 74  1  0  0  0  0
 67 68  1  0  0  0  0
 68 69  1  0  0  0  0
 68 71  1  0  0  0  0
 70 68  1  0  0  0  0
 71 72  1  0  0  0  0
 71 73  1  0  0  0  0
M  END
