1,2,3,4
q = -3.0

 64 69  0  0  0  0  0  0  0  0999 V2000
    1.6287    1.7638   -0.5176 N   0  0  0  0  0  0  0  0  0  0  0  0
    0.8510   -0.2248    1.7894 N   0  0  0  0  0  0  0  0  0  0  0  0
    1.1943   -1.8809   -0.7730 N   0  0  0  0  0  0  0  0  0  0  0  0
    3.0577   -0.3354    0.2911 N   0  0  0  0  0  0  0  0  0  0  0  0
   -0.0408    0.2821    2.7203 C   0  0  0  0  0  3  0  0  0  0  0  0
    0.6076    0.3754    3.9760 C   0  0  0  0  0  0  0  0  0  0  0  0
    0.1206    0.6623    4.9164 H   0  0  0  0  0  0  0  0  0  0  0  0
    3.7458    0.9939    0.3411 C   0  0  0  0  0  0  0  0  0  0  0  0
    4.8187    0.8879    0.0655 H   0  0  0  0  0  0  0  0  0  0  0  0
    3.6951    1.3181    1.4039 H   0  0  0  0  0  0  0  0  0  0  0  0
    2.9970    1.9382   -0.5338 C   0  0  0  0  0  3  0  0  0  0  0  0
    1.1982   -4.0662   -1.4285 C   0  0  0  0  0  0  0  0  0  0  0  0
    0.8342   -5.0428   -1.7726 H   0  0  0  0  0  0  0  0  0  0  0  0
    2.1207    3.5611   -1.8317 C   0  0  0  0  0  0  0  0  0  0  0  0
    2.0027    4.4208   -2.5031 H   0  0  0  0  0  0  0  0  0  0  0  0
    2.5473   -3.6240   -1.3899 C   0  0  0  0  0  0  0  0  0  0  0  0
    3.4444   -4.1989   -1.6537 H   0  0  0  0  0  0  0  0  0  0  0  0
   -0.3576    2.8189   -1.5395 C   0  0  0  0  0  0  0  0  0  0  0  0
    3.5351   -1.2178   -0.8092 C   0  0  0  0  0  0  0  0  0  0  0  0
    4.5442   -1.6336   -0.5780 H   0  0  0  0  0  0  0  0  0  0  0  0
    3.6420   -0.5610   -1.7038 H   0  0  0  0  0  0  0  0  0  0  0  0
    2.4990   -2.2790   -0.9943 C   0  0  0  0  0  3  0  0  0  0  0  0
    3.3439    3.0372   -1.3343 C   0  0  0  0  0  0  0  0  0  0  0  0
    4.3559    3.4154   -1.5284 H   0  0  0  0  0  0  0  0  0  0  0  0
    1.0784    2.7564   -1.3162 C   0  0  0  0  0  0  0  0  0  0  0  0
    0.3864   -2.9685   -1.0587 C   0  0  0  0  0  0  0  0  0  0  0  0
   -1.0649   -2.8603   -1.1676 C   0  0  0  0  0  0  0  0  0  0  0  0
    2.0304   -0.4711    2.4539 C   0  0  0  0  0  0  0  0  0  0  0  0
    1.9293   -0.1075    3.8049 C   0  0  0  0  0  0  0  0  0  0  0  0
    2.7069   -0.2188    4.5714 H   0  0  0  0  0  0  0  0  0  0  0  0
    3.1193   -1.0329    1.6141 C   0  0  0  0  0  0  0  0  0  0  0  0
    4.1293   -0.9184    2.0672 H   0  0  0  0  0  0  0  0  0  0  0  0
    2.9568   -2.1114    1.4018 H   0  0  0  0  0  0  0  0  0  0  0  0
   -1.6708   -1.6304   -1.5332 C   0  0  0  0  0  0  0  0  0  0  0  0
   -1.0309   -0.7475   -1.6927 H   0  0  0  0  0  0  0  0  0  0  0  0
   -1.4724    0.4579    2.4837 C   0  0  0  0  0  0  0  0  0  0  0  0
   -2.2191    1.4361    3.1887 C   0  0  0  0  0  0  0  0  0  0  0  0
   -1.6815    2.1442    3.8378 H   0  0  0  0  0  0  0  0  0  0  0  0
   -1.2348    1.9950   -0.7879 C   0  0  0  0  0  0  0  0  0  0  0  0
   -0.8161    1.3593    0.0148 H   0  0  0  0  0  0  0  0  0  0  0  0
   -1.9139   -3.9845   -1.0021 C   0  0  0  0  0  0  0  0  0  0  0  0
   -1.4687   -4.9436   -0.6954 H   0  0  0  0  0  0  0  0  0  0  0  0
   -0.9385    3.6816   -2.5054 C   0  0  0  0  0  0  0  0  0  0  0  0
   -0.2836    4.3240   -3.1136 H   0  0  0  0  0  0  0  0  0  0  0  0
   -2.6199    2.0335   -0.9835 C   0  0  0  0  0  0  0  0  0  0  0  0
   -3.2625    1.3984   -0.3566 H   0  0  0  0  0  0  0  0  0  0  0  0
   -3.1770    2.8922   -1.9474 C   0  0  0  0  0  0  0  0  0  0  0  0
   -4.2669    2.9244   -2.1010 H   0  0  0  0  0  0  0  0  0  0  0  0
   -2.1806   -0.4186    1.6250 C   0  0  0  0  0  0  0  0  0  0  0  0
   -1.6200   -1.1877    1.0748 H   0  0  0  0  0  0  0  0  0  0  0  0
   -3.6114    1.5169    3.0582 C   0  0  0  0  0  0  0  0  0  0  0  0
   -4.1655    2.2908    3.6139 H   0  0  0  0  0  0  0  0  0  0  0  0
   -3.0517   -1.5310   -1.7362 C   0  0  0  0  0  0  0  0  0  0  0  0
   -3.4808   -0.5593   -2.0255 H   0  0  0  0  0  0  0  0  0  0  0  0
   -3.2958   -3.8842   -1.2054 C   0  0  0  0  0  0  0  0  0  0  0  0
   -3.9317   -4.7733   -1.0638 H   0  0  0  0  0  0  0  0  0  0  0  0
   -2.3234    3.7151   -2.7049 C   0  0  0  0  0  0  0  0  0  0  0  0
   -2.7447    4.3921   -3.4660 H   0  0  0  0  0  0  0  0  0  0  0  0
   -3.5733   -0.3379    1.4976 C   0  0  0  0  0  0  0  0  0  0  0  0
   -4.0878   -1.0452    0.8295 H   0  0  0  0  0  0  0  0  0  0  0  0
   -3.8771   -2.6583   -1.5772 C   0  0  0  0  0  0  0  0  0  0  0  0
   -4.9638   -2.5816   -1.7386 H   0  0  0  0  0  0  0  0  0  0  0  0
   -4.3016    0.6265    2.2171 C   0  0  0  0  0  0  0  0  0  0  0  0
   -5.3965    0.6886    2.1167 H   0  0  0  0  0  0  0  0  0  0  0  0
  2 28  2  0  0  0  0
  2  5  1  0  0  0  0
  4  8  1  0  0  0  0
  4 31  1  0  0  0  0
  5  6  1  0  0  0  0
  6  7  1  0  0  0  0
  8 10  1  0  0  0  0
  9  8  1  0  0  0  0
 11  1  1  0  0  0  0
 11  8  1  0  0  0  0
 12 16  2  0  0  0  0
 12 26  1  0  0  0  0
 13 12  1  0  0  0  0
 14 23  2  0  0  0  0
 14 25  1  0  0  0  0
 15 14  1  0  0  0  0
 16 22  1  0  0  0  0
 17 16  1  0  0  0  0
 18 25  1  0  0  0  0
 18 39  1  0  0  0  0
 19 20  1  0  0  0  0
 19  4  1  0  0  0  0
 21 19  1  0  0  0  0
 22 19  1  0  0  0  0
 22  3  1  0  0  0  0
 23 11  1  0  0  0  0
 24 23  1  0  0  0  0
 25  1  2  0  0  0  0
 26  3  2  0  0  0  0
 27 26  1  0  0  0  0
 27 41  1  0  0  0  0
 28 29  1  0  0  0  0
 29  6  2  0  0  0  0
 29 30  1  0  0  0  0
 31 32  1  0  0  0  0
 31 28  1  0  0  0  0
 33 31  1  0  0  0  0
 34 27  2  0  0  0  0
 35 34  1  0  0  0  0
 36  5  1  0  0  0  0
 36 37  1  0  0  0  0
 37 38  1  0  0  0  0
 39 40  1  0  0  0  0
 41 42  1  0  0  0  0
 43 18  2  0  0  0  0
 44 43  1  0  0  0  0
 45 39  2  0  0  0  0
 45 46  1  0  0  0  0
 47 45  1  0  0  0  0
 48 47  1  0  0  0  0
 49 36  2  0  0  0  0
 50 49  1  0  0  0  0
 51 37  2  0  0  0  0
 51 52  1  0  0  0  0
 53 61  2  0  0  0  0
 53 34  1  0  0  0  0
 54 53  1  0  0  0  0
 55 56  1  0  0  0  0
 55 41  2  0  0  0  0
 57 43  1  0  0  0  0
 57 47  2  0  0  0  0
 58 57  1  0  0  0  0
 59 49  1  0  0  0  0
 59 63  2  0  0  0  0
 60 59  1  0  0  0  0
 61 55  1  0  0  0  0
 62 61  1  0  0  0  0
 63 51  1  0  0  0  0
 64 63  1  0  0  0  0
M  END
