1,7,11,17
q = 0.0, confidence = 0.998

 45 46  0  0  1  0  0  0  0  0999 V2000
    1.5301    0.8578   -0.8948 N   0  0  0  0  0  0  0  0  0  0  0  0
    2.1296    2.1570   -0.4918 C   0  0  0  0  0  0  0  0  0  0  0  0
    3.4319    2.2346   -1.2929 C   0  0  0  0  0  0  0  0  0  0  0  0
    3.9590    0.7853   -1.2459 C   0  0  0  0  0  0  0  0  0  0  0  0
    2.6954   -0.0937   -1.0678 C   0  0  1  0  0  0  0  0  0  0  0  0
    2.7288   -0.9803    0.1656 C   0  0  0  0  0  0  0  0  0  0  0  0
    1.3809   -1.5430    0.4033 N   0  0  0  0  0  0  0  0  0  0  0  0
    1.2518   -2.2426    1.7068 C   0  0  0  0  0  0  0  0  0  0  0  0
    1.2483   -1.2900    2.9001 C   0  0  0  0  0  0  0  0  0  0  0  0
    0.0488   -0.3523    2.9419 C   0  0  0  0  0  0  0  0  0  0  0  0
    0.0330    0.6418    1.8334 N   0  0  0  0  0  0  0  0  0  0  0  0
   -1.1885    1.4852    1.9070 C   0  0  0  0  0  0  0  0  0  0  0  0
   -1.3679    2.2659    0.6138 C   0  0  2  0  0  0  0  0  0  0  0  0
   -2.7615    2.9382    0.4840 C   0  0  0  0  0  0  0  0  0  0  0  0
   -3.4084    2.2685   -0.7499 C   0  0  0  0  0  0  0  0  0  0  0  0
   -2.6956    0.9188   -0.8369 C   0  0  0  0  0  0  0  0  0  0  0  0
   -1.2758    1.2569   -0.5019 N   0  0  0  0  0  0  0  0  0  0  0  0
    1.4250    2.9895   -0.6829 H   0  0  0  0  0  0  0  0  0  0  0  0
    2.3400    2.1341    0.5997 H   0  0  0  0  0  0  0  0  0  0  0  0
    4.1462    2.9733   -0.8823 H   0  0  0  0  0  0  0  0  0  0  0  0
    3.2080    2.5399   -2.3364 H   0  0  0  0  0  0  0  0  0  0  0  0
    4.6433    0.6485   -0.3834 H   0  0  0  0  0  0  0  0  0  0  0  0
    4.5285    0.5149   -2.1542 H   0  0  0  0  0  0  0  0  0  0  0  0
    2.4705   -0.7114   -1.9592 H   0  0  0  0  0  0  0  0  0  0  0  0
    3.0165   -0.3802    1.0528 H   0  0  0  0  0  0  0  0  0  0  0  0
    3.4876   -1.7860    0.0618 H   0  0  0  0  0  0  0  0  0  0  0  0
    2.0829   -2.9743    1.8053 H   0  0  0  0  0  0  0  0  0  0  0  0
    0.3003   -2.8059    1.6763 H   0  0  0  0  0  0  0  0  0  0  0  0
    2.1999   -0.7178    2.9695 H   0  0  0  0  0  0  0  0  0  0  0  0
    1.2207   -1.9090    3.8195 H   0  0  0  0  0  0  0  0  0  0  0  0
    0.0192    0.1904    3.9119 H   0  0  0  0  0  0  0  0  0  0  0  0
   -0.8863   -0.9371    2.8454 H   0  0  0  0  0  0  0  0  0  0  0  0
   -1.1653    2.1605    2.7893 H   0  0  0  0  0  0  0  0  0  0  0  0
   -2.0424    0.7909    2.0379 H   0  0  0  0  0  0  0  0  0  0  0  0
   -0.5391    2.9930    0.4926 H   0  0  0  0  0  0  0  0  0  0  0  0
   -3.3601    2.7430    1.3966 H   0  0  0  0  0  0  0  0  0  0  0  0
   -2.6844    4.0363    0.3791 H   0  0  0  0  0  0  0  0  0  0  0  0
   -4.5050    2.1577   -0.6551 H   0  0  0  0  0  0  0  0  0  0  0  0
   -3.2197    2.8644   -1.6676 H   0  0  0  0  0  0  0  0  0  0  0  0
   -2.7434    0.4206   -1.8226 H   0  0  0  0  0  0  0  0  0  0  0  0
   -3.0692    0.2084   -0.0758 H   0  0  0  0  0  0  0  0  0  0  0  0
   -0.9007    1.7322   -1.3363 H   0  0  0  0  0  0  0  0  0  0  0  0
    0.8590    1.2524    1.9361 H   0  0  0  0  0  0  0  0  0  0  0  0
    1.1762   -2.2159   -0.3543 H   0  0  0  0  0  0  0  0  0  0  0  0
    1.1278    0.9626   -1.8407 H   0  0  0  0  0  0  0  0  0  0  0  0
  1  2  1  0  0  0  0
  2 19  1  0  0  0  0
  3  4  1  0  0  0  0
  3 20  1  0  0  0  0
  3  2  1  0  0  0  0
  4  5  1  0  0  0  0
  4 22  1  0  0  0  0
  5 24  1  6  0  0  0
  5  1  1  0  0  0  0
  5  6  1  0  0  0  0
  6  7  1  0  0  0  0
  6 25  1  0  0  0  0
  7  8  1  0  0  0  0
  8 27  1  0  0  0  0
  8  9  1  0  0  0  0
  9 10  1  0  0  0  0
  9 29  1  0  0  0  0
  9 30  1  0  0  0  0
 10 31  1  0  0  0  0
 11 12  1  0  0  0  0
 11 43  1  0  0  0  0
 11 10  1  0  0  0  0
 12 34  1  0  0  0  0
 12 33  1  0  0  0  0
 13 35  1  6  0  0  0
 13 12  1  0  0  0  0
 14 13  1  0  0  0  0
 14 36  1  0  0  0  0
 15 38  1  0  0  0  0
 15 14  1  0  0  0  0
 16 15  1  0  0  0  0
 16 17  1  0  0  0  0
 16 41  1  0  0  0  0
 17 13  1  0  0  0  0
 18  2  1  0  0  0  0
 21  3  1  0  0  0  0
 23  4  1  0  0  0  0
 26  6  1  0  0  0  0
 28  8  1  0  0  0  0
 32 10  1  0  0  0  0
 37 14  1  0  0  0  0
 39 15  1  0  0  0  0
 40 16  1  0  0  0  0
 42 17  1  0  0  0  0
 44  7  1  0  0  0  0
 45  1  1  0  0  0  0
M  END
