2,3,61,67
q = -2.0, confidence = 0.76

 79 85  0  0  0  0  0  0  0  0999 V2000
   -9.4022    0.0000   -0.0000 N   0  0  0  0  0  0  0  0  0  0  0  0
   -0.0971   -1.3786   -0.4233 N   0  0  0  0  0  2  0  0  0  0  0  0
   -3.0450   -1.3786   -0.4232 N   0  0  0  0  0  0  0  0  0  0  0  0
    6.2152    0.0000   -0.0000 C   0  0  0  0  0  0  0  0  0  0  0  0
    4.1341   -0.8675    0.8529 C   0  0  0  0  0  0  0  0  0  0  0  0
    1.9297   -0.0000    0.0000 C   0  0  0  0  0  0  0  0  0  0  0  0
   -6.5595    0.0000   -0.0000 C   0  0  0  0  0  0  0  0  0  0  0  0
    5.5408   -0.8839    0.8657 C   0  0  0  0  0  0  0  0  0  0  0  0
   -5.0678   -0.0000   -0.0000 C   0  0  0  0  0  0  0  0  0  0  0  0
    1.9369   -2.3979   -0.8535 C   0  0  0  0  0  0  0  0  0  0  0  0
    3.4227    0.0000    0.0000 C   0  0  0  0  0  0  0  0  0  0  0  0
    0.9526   -3.3112   -1.1462 C   0  0  0  0  0  0  0  0  0  0  0  0
    1.2688   -1.1909   -0.3922 C   0  0  0  0  0  0  0  0  0  0  0  0
   -0.3137   -2.6613   -0.8774 C   0  0  0  0  0  0  0  0  0  0  0  0
   -1.5709   -3.2530   -1.0736 C   0  0  0  0  0  0  0  0  0  0  0  0
   -4.4105   -1.1953   -0.3840 C   0  0  0  0  0  0  0  0  0  0  0  0
   -2.8274   -2.6633   -0.8734 C   0  0  0  0  0  0  0  0  0  0  0  0
    6.3497   -1.8199    1.7826 C   0  0  0  0  0  0  0  0  0  0  0  0
   -5.0786   -2.4068   -0.8339 C   0  0  0  0  0  0  0  0  0  0  0  0
   -7.2974    0.8465   -0.8534 C   0  0  0  0  0  0  0  0  0  0  0  0
   -4.0937   -3.3177   -1.1307 C   0  0  0  0  0  0  0  0  0  0  0  0
   -8.6996    0.8061   -0.8124 C   0  0  0  0  0  0  0  0  0  0  0  0
    7.2392   -0.9711    2.7189 C   0  0  0  0  0  0  0  0  0  0  0  0
    5.4417   -2.7097    2.6489 C   0  0  0  0  0  0  0  0  0  0  0  0
    7.2404   -2.7350    0.9117 C   0  0  0  0  0  0  0  0  0  0  0  0
    1.0685   -4.3338   -1.5252 H   0  0  0  0  0  0  0  0  0  0  0  0
    3.0205   -2.5185   -0.9528 H   0  0  0  0  0  0  0  0  0  0  0  0
   -4.2100   -4.3424   -1.5037 H   0  0  0  0  0  0  0  0  0  0  0  0
   -6.1619   -2.5364   -0.9255 H   0  0  0  0  0  0  0  0  0  0  0  0
   -1.5708   -4.2904   -1.4392 H   0  0  0  0  0  0  0  0  0  0  0  0
    3.5593   -1.5253    1.5176 H   0  0  0  0  0  0  0  0  0  0  0  0
   -6.7765    1.5207   -1.5496 H   0  0  0  0  0  0  0  0  0  0  0  0
   -9.2869    1.4620   -1.4805 H   0  0  0  0  0  0  0  0  0  0  0  0
    7.3158    0.0000   -0.0000 H   0  0  0  0  0  0  0  0  0  0  0  0
    7.8369   -1.6266    3.3856 H   0  0  0  0  0  0  0  0  0  0  0  0
    7.9464   -0.3348    2.1504 H   0  0  0  0  0  0  0  0  0  0  0  0
    6.6214   -0.3045    3.3539 H   0  0  0  0  0  0  0  0  0  0  0  0
    4.7943   -2.1096    3.3194 H   0  0  0  0  0  0  0  0  0  0  0  0
    4.7892   -3.3591    2.0311 H   0  0  0  0  0  0  0  0  0  0  0  0
    6.0622   -3.3701    3.2875 H   0  0  0  0  0  0  0  0  0  0  0  0
    6.6234   -3.3554    0.2305 H   0  0  0  0  0  0  0  0  0  0  0  0
    7.9469   -2.1514    0.2886 H   0  0  0  0  0  0  0  0  0  0  0  0
    7.8387   -3.4162    1.5515 H   0  0  0  0  0  0  0  0  0  0  0  0
    5.5408    0.8839   -0.8657 C   0  0  0  0  0  0  0  0  0  0  0  0
    4.1341    0.8675   -0.8529 C   0  0  0  0  0  0  0  0  0  0  0  0
    3.5593    1.5253   -1.5176 H   0  0  0  0  0  0  0  0  0  0  0  0
    6.3497    1.8199   -1.7826 C   0  0  0  0  0  0  0  0  0  0  0  0
    7.2392    0.9711   -2.7189 C   0  0  0  0  0  0  0  0  0  0  0  0
    7.8369    1.6266   -3.3856 H   0  0  0  0  0  0  0  0  0  0  0  0
    7.9464    0.3348   -2.1504 H   0  0  0  0  0  0  0  0  0  0  0  0
    6.6214    0.3045   -3.3539 H   0  0  0  0  0  0  0  0  0  0  0  0
    5.4417    2.7097   -2.6489 C   0  0  0  0  0  0  0  0  0  0  0  0
    4.7943    2.1096   -3.3194 H   0  0  0  0  0  0  0  0  0  0  0  0
    4.7892    3.3591   -2.0311 H   0  0  0  0  0  0  0  0  0  0  0  0
    6.0622    3.3701   -3.2875 H   0  0  0  0  0  0  0  0  0  0  0  0
    7.2404    2.7350   -0.9117 C   0  0  0  0  0  0  0  0  0  0  0  0
    6.6234    3.3554   -0.2305 H   0  0  0  0  0  0  0  0  0  0  0  0
    7.9469    2.1514   -0.2886 H   0  0  0  0  0  0  0  0  0  0  0  0
    7.8387    3.4162   -1.5515 H   0  0  0  0  0  0  0  0  0  0  0  0
    1.2688    1.1909    0.3922 C   0  0  0  0  0  0  0  0  0  0  0  0
   -0.0971    1.3786    0.4233 N   0  0  0  0  0  0  0  0  0  0  0  0
   -8.6996   -0.8061    0.8124 C   0  0  0  0  0  0  0  0  0  0  0  0
   -7.2974   -0.8465    0.8534 C   0  0  0  0  0  0  0  0  0  0  0  0
   -6.7765   -1.5207    1.5496 H   0  0  0  0  0  0  0  0  0  0  0  0
   -9.2869   -1.4620    1.4805 H   0  0  0  0  0  0  0  0  0  0  0  0
   -4.4105    1.1953    0.3840 C   0  0  0  0  0  0  0  0  0  0  0  0
   -3.0450    1.3786    0.4232 N   0  0  0  0  0  0  0  0  0  0  0  0
   -2.8274    2.6633    0.8734 C   0  0  0  0  0  0  0  0  0  0  0  0
   -1.5709    3.2530    1.0736 C   0  0  0  0  0  0  0  0  0  0  0  0
   -0.3137    2.6613    0.8774 C   0  0  0  0  0  0  0  0  0  0  0  0
    0.9526    3.3112    1.1462 C   0  0  0  0  0  0  0  0  0  0  0  0
    1.9369    2.3979    0.8535 C   0  0  0  0  0  0  0  0  0  0  0  0
    3.0205    2.5185    0.9528 H   0  0  0  0  0  0  0  0  0  0  0  0
    1.0685    4.3338    1.5252 H   0  0  0  0  0  0  0  0  0  0  0  0
   -1.5708    4.2904    1.4392 H   0  0  0  0  0  0  0  0  0  0  0  0
   -4.0937    3.3177    1.1307 C   0  0  0  0  0  0  0  0  0  0  0  0
   -5.0786    2.4068    0.8339 C   0  0  0  0  0  3  0  0  0  0  0  0
   -6.1619    2.5364    0.9255 H   0  0  0  0  0  0  0  0  0  0  0  0
   -4.2100    4.3424    1.5037 H   0  0  0  0  0  0  0  0  0  0  0  0
  1 62  1  0  0  0  0
  2 13  1  0  0  0  0
  3 16  1  0  0  0  0
  4 34  1  0  0  0  0
  4  8  1  0  0  0  0
  5  8  2  0  0  0  0
  5 31  1  0  0  0  0
  6 11  1  0  0  0  0
  6 60  1  0  0  0  0
  7  9  1  0  0  0  0
  7 63  1  0  0  0  0
  8 18  1  0  0  0  0
  9 66  1  0  0  0  0
 10 13  1  0  0  0  0
 11  5  1  0  0  0  0
 12 14  1  0  0  0  0
 12 10  2  0  0  0  0
 13  6  2  0  0  0  0
 14  2  1  0  0  0  0
 15 14  2  0  0  0  0
 15 17  1  0  0  0  0
 16  9  2  0  0  0  0
 17  3  2  0  0  0  0
 18 24  1  0  0  0  0
 18 23  1  0  0  0  0
 19 16  1  0  0  0  0
 20 22  1  0  0  0  0
 20  7  2  0  0  0  0
 21 17  1  0  0  0  0
 21 19  2  0  0  0  0
 22  1  2  0  0  0  0
 23 37  1  0  0  0  0
 23 35  1  0  0  0  0
 24 40  1  0  0  0  0
 24 38  1  0  0  0  0
 25 43  1  0  0  0  0
 25 18  1  0  0  0  0
 26 12  1  0  0  0  0
 27 10  1  0  0  0  0
 28 21  1  0  0  0  0
 29 19  1  0  0  0  0
 30 15  1  0  0  0  0
 32 20  1  0  0  0  0
 33 22  1  0  0  0  0
 36 23  1  0  0  0  0
 39 24  1  0  0  0  0
 41 25  1  0  0  0  0
 42 25  1  0  0  0  0
 44 45  1  0  0  0  0
 44  4  2  0  0  0  0
 45 11  2  0  0  0  0
 46 45  1  0  0  0  0
 47 56  1  0  0  0  0
 47 44  1  0  0  0  0
 48 50  1  0  0  0  0
 48 47  1  0  0  0  0
 49 48  1  0  0  0  0
 51 48  1  0  0  0  0
 52 54  1  0  0  0  0
 52 47  1  0  0  0  0
 53 52  1  0  0  0  0
 55 52  1  0  0  0  0
 56 58  1  0  0  0  0
 56 57  1  0  0  0  0
 59 56  1  0  0  0  0
 60 61  2  0  0  0  0
 60 72  1  0  0  0  0
 61 70  1  0  0  0  0
 62 63  2  0  0  0  0
 62 65  1  0  0  0  0
 63 64  1  0  0  0  0
 66 67  2  0  0  0  0
 66 77  1  0  0  0  0
 67 68  1  0  0  0  0
 68 69  1  0  0  0  0
 68 76  2  0  0  0  0
 69 75  1  0  0  0  0
 70 69  2  0  0  0  0
 70 71  1  0  0  0  0
 71 74  1  0  0  0  0
 72 73  1  0  0  0  0
 72 71  2  0  0  0  0
 76 79  1  0  0  0  0
 77 78  1  0  0  0  0
 77 76  1  0  0  0  0
M  END
