2,3,20,21
q = 0.0, confidence = 1.0

 37 40  0  0  0  0  0  0  0  0999 V2000
    0.0000    3.4319   -0.0000 S   0  0  0  0  0  0  0  0  0  0  0  0
    1.5655    1.1478   -0.0471 N   0  0  0  0  0  2  0  0  0  0  0  0
    1.7904   -1.3683    0.8020 N   0  0  0  0  0  2  0  0  0  0  0  0
    2.4156    3.2478   -0.7947 N   0  0  0  0  0  0  0  0  0  0  0  0
    2.8018    0.5997   -0.1227 C   0  0  0  0  0  0  0  0  0  0  0  0
    2.9353   -0.7956    0.3830 C   0  0  0  0  0  0  0  0  0  0  0  0
    3.8852    1.3602   -0.5927 C   0  0  0  0  0  0  0  0  0  0  0  0
    4.8959    0.9438   -0.6840 H   0  0  0  0  0  0  0  0  0  0  0  0
    1.4407    2.4476   -0.3357 C   0  0  0  0  0  0  0  0  0  0  0  0
    4.1668   -1.4660    0.4915 C   0  0  0  0  0  0  0  0  0  0  0  0
    5.1005   -0.9953    0.1560 H   0  0  0  0  0  0  0  0  0  0  0  0
    2.9874   -3.3257    1.4939 C   0  0  0  0  0  0  0  0  0  0  0  0
    2.9654   -4.3264    1.9485 H   0  0  0  0  0  0  0  0  0  0  0  0
    3.6200    2.6904   -0.9494 C   0  0  0  0  0  0  0  0  0  0  0  0
    4.4160    3.3360   -1.3593 H   0  0  0  0  0  0  0  0  0  0  0  0
    4.1863   -2.7520    1.0496 C   0  0  0  0  0  0  0  0  0  0  0  0
    5.1370   -3.2976    1.1426 H   0  0  0  0  0  0  0  0  0  0  0  0
    1.8010   -2.5890    1.3469 C   0  0  0  0  0  0  0  0  0  0  0  0
    0.8185   -2.9610    1.6825 H   0  0  0  0  0  0  0  0  0  0  0  0
   -1.5655    1.1478    0.0470 N   0  0  0  0  0  2  0  0  0  0  0  0
   -1.7905   -1.3683   -0.8020 N   0  0  0  0  0  2  0  0  0  0  0  0
   -2.4156    3.2478    0.7947 N   0  0  0  0  0  0  0  0  0  0  0  0
   -2.8018    0.5997    0.1227 C   0  0  0  0  0  0  0  0  0  0  0  0
   -2.9353   -0.7955   -0.3830 C   0  0  0  0  0  0  0  0  0  0  0  0
   -3.8852    1.3602    0.5927 C   0  0  0  0  0  0  0  0  0  0  0  0
   -4.8958    0.9438    0.6841 H   0  0  0  0  0  0  0  0  0  0  0  0
   -1.4407    2.4476    0.3357 C   0  0  0  0  0  0  0  0  0  0  0  0
   -4.1668   -1.4660   -0.4915 C   0  0  0  0  0  0  0  0  0  0  0  0
   -5.1005   -0.9953   -0.1559 H   0  0  0  0  0  0  0  0  0  0  0  0
   -2.9874   -3.3257   -1.4938 C   0  0  0  0  0  0  0  0  0  0  0  0
   -2.9655   -4.3263   -1.9484 H   0  0  0  0  0  0  0  0  0  0  0  0
   -3.6200    2.6904    0.9494 C   0  0  0  0  0  0  0  0  0  0  0  0
   -4.4160    3.3360    1.3593 H   0  0  0  0  0  0  0  0  0  0  0  0
   -4.1863   -2.7520   -1.0495 C   0  0  0  0  0  0  0  0  0  0  0  0
   -5.1371   -3.2976   -1.1425 H   0  0  0  0  0  0  0  0  0  0  0  0
   -1.8011   -2.5890   -1.3469 C   0  0  0  0  0  0  0  0  0  0  0  0
   -0.8185   -2.9610   -1.6825 H   0  0  0  0  0  0  0  0  0  0  0  0
  1 27  1  0  0  0  0
  3 18  1  0  0  0  0
  4  9  2  0  0  0  0
  5  2  1  0  0  0  0
  5  6  2  0  0  0  0
  6 10  1  0  0  0  0
  6  3  1  0  0  0  0
  7  5  1  0  0  0  0
  8  7  1  0  0  0  0
  9  2  1  0  0  0  0
  9  1  1  0  0  0  0
 10 16  2  0  0  0  0
 11 10  1  0  0  0  0
 12 13  1  0  0  0  0
 14  4  1  0  0  0  0
 14  7  2  0  0  0  0
 15 14  1  0  0  0  0
 16 17  1  0  0  0  0
 16 12  1  0  0  0  0
 18 12  2  0  0  0  0
 18 19  1  0  0  0  0
 20 23  1  0  0  0  0
 20 27  1  0  0  0  0
 21 24  1  0  0  0  0
 22 32  1  0  0  0  0
 23 25  1  0  0  0  0
 24 23  2  0  0  0  0
 25 26  1  0  0  0  0
 25 32  2  0  0  0  0
 27 22  2  0  0  0  0
 28 24  1  0  0  0  0
 28 29  1  0  0  0  0
 30 36  2  0  0  0  0
 30 34  1  0  0  0  0
 31 30  1  0  0  0  0
 32 33  1  0  0  0  0
 34 28  2  0  0  0  0
 35 34  1  0  0  0  0
 36 21  1  0  0  0  0
 37 36  1  0  0  0  0
M  END
