1,2,3,4
q = 0.0, confidence = 0.996

 41 41  0  0  0  0  0  0  0  0999 V2000
   -1.4425   -1.4982    0.4240 N   0  0  0  0  0  0  0  0  0  0  0  0
   -0.1331    1.3020    1.3130 N   0  0  0  0  0  0  0  0  0  0  0  0
   -1.2277    1.1284   -1.5990 N   0  0  0  0  0  0  0  0  0  0  0  0
    0.6918   -1.7106   -1.4965 N   0  0  0  0  0  0  0  0  0  0  0  0
   -1.2239   -1.6722    1.8938 C   0  0  0  0  0  0  0  0  0  0  0  0
   -1.3012   -0.4123    2.7619 C   0  0  0  0  0  0  0  0  0  0  0  0
   -0.1646    0.6031    2.6231 C   0  0  0  0  0  0  0  0  0  0  0  0
   -1.2190    2.2896    1.1536 C   0  0  0  0  0  0  0  0  0  0  0  0
   -1.1125    3.1877   -0.0855 C   0  0  0  0  0  0  0  0  0  0  0  0
   -0.7894    2.5444   -1.4505 C   0  0  0  0  0  0  0  0  0  0  0  0
   -2.6967    0.9161   -1.5400 C   0  0  0  0  0  0  0  0  0  0  0  0
   -3.0962   -0.5398   -1.2862 C   0  0  0  0  0  0  0  0  0  0  0  0
   -2.8449   -1.0894    0.1269 C   0  0  0  0  0  0  0  0  0  0  0  0
   -1.1279   -2.7806   -0.2703 C   0  0  0  0  0  0  0  0  0  0  0  0
    0.3419   -2.8798   -0.6678 C   0  0  0  0  0  0  0  0  0  0  0  0
    0.7746    1.7862    1.2315 H   0  0  0  0  0  0  0  0  0  0  0  0
   -0.9109    0.8238   -2.5312 H   0  0  0  0  0  0  0  0  0  0  0  0
    1.7207   -1.6228   -1.5961 H   0  0  0  0  0  0  0  0  0  0  0  0
    0.3134   -1.8121   -2.4491 H   0  0  0  0  0  0  0  0  0  0  0  0
   -0.2206   -2.1283    2.0158 H   0  0  0  0  0  0  0  0  0  0  0  0
   -1.9645   -2.4163    2.2704 H   0  0  0  0  0  0  0  0  0  0  0  0
   -1.2802   -0.7685    3.8124 H   0  0  0  0  0  0  0  0  0  0  0  0
   -2.2910    0.0817    2.6635 H   0  0  0  0  0  0  0  0  0  0  0  0
   -0.2478    1.3515    3.4431 H   0  0  0  0  0  0  0  0  0  0  0  0
    0.8119    0.0924    2.7294 H   0  0  0  0  0  0  0  0  0  0  0  0
   -1.2773    2.9444    2.0527 H   0  0  0  0  0  0  0  0  0  0  0  0
   -2.1734    1.7264    1.1357 H   0  0  0  0  0  0  0  0  0  0  0  0
   -0.3393    3.9645    0.0894 H   0  0  0  0  0  0  0  0  0  0  0  0
   -2.0702    3.7449   -0.1412 H   0  0  0  0  0  0  0  0  0  0  0  0
   -1.2338    3.1712   -2.2547 H   0  0  0  0  0  0  0  0  0  0  0  0
    0.3060    2.5372   -1.6121 H   0  0  0  0  0  0  0  0  0  0  0  0
   -3.1688    1.2776   -2.4801 H   0  0  0  0  0  0  0  0  0  0  0  0
   -3.1030    1.5546   -0.7314 H   0  0  0  0  0  0  0  0  0  0  0  0
   -2.6411   -1.2000   -2.0569 H   0  0  0  0  0  0  0  0  0  0  0  0
   -4.1883   -0.6112   -1.4678 H   0  0  0  0  0  0  0  0  0  0  0  0
   -3.1390   -0.3195    0.8665 H   0  0  0  0  0  0  0  0  0  0  0  0
   -3.5149   -1.9609    0.3104 H   0  0  0  0  0  0  0  0  0  0  0  0
   -1.7475   -2.8385   -1.1879 H   0  0  0  0  0  0  0  0  0  0  0  0
   -1.4265   -3.6444    0.3635 H   0  0  0  0  0  0  0  0  0  0  0  0
    1.0041   -2.8548    0.2204 H   0  0  0  0  0  0  0  0  0  0  0  0
    0.5192   -3.8463   -1.1852 H   0  0  0  0  0  0  0  0  0  0  0  0
  1  5  1  0  0  0  0
  2  7  1  0  0  0  0
  3 11  1  0  0  0  0
  3 10  1  0  0  0  0
  4 15  1  0  0  0  0
  5 20  1  0  0  0  0
  5 21  1  0  0  0  0
  5  6  1  0  0  0  0
  6 22  1  0  0  0  0
  7 25  1  0  0  0  0
  7  6  1  0  0  0  0
  7 24  1  0  0  0  0
  8  2  1  0  0  0  0
  8 26  1  0  0  0  0
  9 28  1  0  0  0  0
  9  8  1  0  0  0  0
 10  9  1  0  0  0  0
 11 12  1  0  0  0  0
 11 33  1  0  0  0  0
 12 13  1  0  0  0  0
 13 37  1  0  0  0  0
 13  1  1  0  0  0  0
 13 36  1  0  0  0  0
 14 39  1  0  0  0  0
 14  1  1  0  0  0  0
 15 14  1  0  0  0  0
 15 40  1  0  0  0  0
 16  2  1  0  0  0  0
 17  3  1  0  0  0  0
 18  4  1  0  0  0  0
 19  4  1  0  0  0  0
 23  6  1  0  0  0  0
 27  8  1  0  0  0  0
 29  9  1  0  0  0  0
 30 10  1  0  0  0  0
 31 10  1  0  0  0  0
 32 11  1  0  0  0  0
 34 12  1  0  0  0  0
 35 12  1  0  0  0  0
 38 14  1  0  0  0  0
 41 15  1  0  0  0  0
M  END
