1,4,6,7
q = 0.0, confidence = 1.0

 35 35  0  0  1  0  0  0  0  0999 V2000
   -0.9669   -0.7879   -1.9411 N   0  0  0  0  0  0  0  0  0  0  0  0
   -0.5152   -0.3698   -2.7678 H   0  0  0  0  0  0  0  0  0  0  0  0
   -0.6418   -1.7673   -1.9006 H   0  0  0  0  0  0  0  0  0  0  0  0
   -2.4031   -0.2108    0.2948 N   0  0  0  0  0  0  0  0  0  0  0  0
   -2.4331   -0.6449    1.2297 H   0  0  0  0  0  0  0  0  0  0  0  0
    1.4415   -0.1168   -0.3851 N   0  0  0  0  0  2  0  0  0  0  0  0
   -0.7467    1.8455   -0.3345 N   0  0  0  0  0  0  0  0  0  0  0  0
   -1.1458    2.0279   -1.2671 H   0  0  0  0  0  0  0  0  0  0  0  0
    4.2268   -0.2684   -0.6121 C   0  0  0  0  0  0  0  0  0  0  0  0
    5.3221   -0.3205   -0.6980 H   0  0  0  0  0  0  0  0  0  0  0  0
    3.4200   -1.3280   -1.0483 C   0  0  0  0  0  0  0  0  0  0  0  0
    3.8501   -2.2439   -1.4767 H   0  0  0  0  0  0  0  0  0  0  0  0
    1.5261    2.0911    0.7006 C   0  0  0  0  0  0  0  0  0  0  0  0
    2.2810    2.8646    0.9363 H   0  0  0  0  0  0  0  0  0  0  0  0
    1.0769    1.7578    1.6606 H   0  0  0  0  0  0  0  0  0  0  0  0
    2.2109    0.9109    0.0691 C   0  0  1  0  0  3  0  0  0  0  0  0
    2.0366   -1.2174   -0.9072 C   0  0  0  0  0  0  0  0  0  0  0  0
    1.3741   -2.0554   -1.1629 H   0  0  0  0  0  0  0  0  0  0  0  0
    0.4562    2.7095   -0.1984 C   0  0  0  0  0  0  0  0  0  0  0  0
    0.1529    3.7010    0.2001 H   0  0  0  0  0  0  0  0  0  0  0  0
    0.8687    2.8783   -1.2134 H   0  0  0  0  0  0  0  0  0  0  0  0
    3.6105    0.8530   -0.0463 C   0  0  0  0  0  0  0  0  0  0  0  0
    4.2091    1.6956    0.3281 H   0  0  0  0  0  0  0  0  0  0  0  0
   -1.8111    2.1257    0.6645 C   0  0  0  0  0  0  0  0  0  0  0  0
   -2.1473    3.1844    0.6191 H   0  0  0  0  0  0  0  0  0  0  0  0
   -1.3895    1.9270    1.6696 H   0  0  0  0  0  0  0  0  0  0  0  0
   -2.4469   -0.7731   -2.0720 C   0  0  0  0  0  0  0  0  0  0  0  0
   -2.8122   -1.4829   -2.8434 H   0  0  0  0  0  0  0  0  0  0  0  0
   -2.7551    0.2412   -2.4005 H   0  0  0  0  0  0  0  0  0  0  0  0
   -2.9565    1.1681    0.3746 C   0  0  0  0  0  0  0  0  0  0  0  0
   -3.7520    1.2387    1.1439 H   0  0  0  0  0  0  0  0  0  0  0  0
   -3.4276    1.4183   -0.5992 H   0  0  0  0  0  0  0  0  0  0  0  0
   -3.0340   -1.1059   -0.7055 C   0  0  0  0  0  0  0  0  0  0  0  0
   -4.1412   -1.0176   -0.7052 H   0  0  0  0  0  0  0  0  0  0  0  0
   -2.7662   -2.1414   -0.4169 H   0  0  0  0  0  0  0  0  0  0  0  0
  1  3  1  0  0  0  0
  2  1  1  0  0  0  0
  4 30  1  0  0  0  0
  4  5  1  0  0  0  0
  6 16  1  0  0  0  0
  7 19  1  0  0  0  0
  7 24  1  0  0  0  0
  8  7  1  0  0  0  0
  9 22  2  0  0  0  0
 10  9  1  0  0  0  0
 11 17  2  0  0  0  0
 11  9  1  0  0  0  0
 12 11  1  0  0  0  0
 13 14  1  0  0  0  0
 13 15  1  0  0  0  0
 16 13  1  1  0  0  0
 17  6  1  0  0  0  0
 18 17  1  0  0  0  0
 19 20  1  0  0  0  0
 19 13  1  0  0  0  0
 21 19  1  0  0  0  0
 22 16  1  0  0  0  0
 22 23  1  0  0  0  0
 24 26  1  0  0  0  0
 25 24  1  0  0  0  0
 27  1  1  0  0  0  0
 27 33  1  0  0  0  0
 28 27  1  0  0  0  0
 29 27  1  0  0  0  0
 30 24  1  0  0  0  0
 30 31  1  0  0  0  0
 32 30  1  0  0  0  0
 33 34  1  0  0  0  0
 33 35  1  0  0  0  0
 33  4  1  0  0  0  0
M  END
