5,6,7,8
q = -2.0, confidence = 0.732

 76 84  0  0  0  0  0  0  0  0999 V2000
   -5.3159   -7.4809    2.0435 Cl  0  0  0  0  0  0  0  0  0  0  0  0
    5.3309    7.5164    2.0688 Cl  0  0  0  0  0  0  0  0  0  0  0  0
   -7.5636    5.3044   -2.1270 Cl  0  0  0  0  0  0  0  0  0  0  0  0
    7.6053   -5.2496   -2.1289 Cl  0  0  0  0  0  0  0  0  0  0  0  0
   -0.3722    1.9407   -0.0952 N   0  0  0  0  0  0  0  0  0  0  0  0
    0.3915   -1.9135   -0.1219 N   0  0  0  0  0  0  0  0  0  0  0  0
    1.9322    0.3972   -0.1061 N   0  0  0  0  0  0  0  0  0  0  0  0
   -1.9037   -0.3754   -0.1492 N   0  0  0  0  0  2  0  0  0  0  0  0
   -0.4712   -2.9399    0.2277 C   0  0  0  0  0  0  0  0  0  0  0  0
    4.3299    6.1677    1.5977 C   0  0  0  0  0  0  0  0  0  0  0  0
   -2.9204    0.4925   -0.5167 C   0  0  0  0  0  0  0  0  0  0  0  0
    2.9525   -0.4610   -0.4824 C   0  0  0  0  0  0  0  0  0  0  0  0
   -3.5988   -6.2022    0.3537 C   0  0  0  0  0  0  0  0  0  0  0  0
   -3.6837   -7.0944   -0.2824 H   0  0  0  0  0  0  0  0  0  0  0  0
    0.4883    2.9595    0.2763 C   0  0  0  0  0  0  0  0  0  0  0  0
   -2.7925    1.8855   -0.6434 C   0  0  0  0  0  0  0  0  0  0  0  0
    1.6145   -2.5148   -0.3559 C   0  0  0  0  0  0  0  0  0  0  0  0
    1.5200   -3.9426   -0.1427 C   0  0  0  0  0  0  0  0  0  0  0  0
    2.3525   -4.6458   -0.2476 H   0  0  0  0  0  0  0  0  0  0  0  0
    3.4660    3.9476    2.0276 C   0  0  0  0  0  0  0  0  0  0  0  0
    3.4129    3.0518    2.6641 H   0  0  0  0  0  0  0  0  0  0  0  0
   -1.5897    2.5471   -0.3378 C   0  0  0  0  0  0  0  0  0  0  0  0
   -2.5141   -1.5937    0.0771 C   0  0  0  0  0  0  0  0  0  0  0  0
    1.8756    2.8182    0.4466 C   0  0  0  0  0  0  0  0  0  0  0  0
   -3.9330   -1.5047   -0.1886 C   0  0  0  0  0  0  0  0  0  0  0  0
   -4.6348   -2.3420   -0.1174 H   0  0  0  0  0  0  0  0  0  0  0  0
   -1.8588   -2.7990    0.3866 C   0  0  0  0  0  0  0  0  0  0  0  0
   -4.3139   -6.1368    1.5609 C   0  0  0  0  0  0  0  0  0  0  0  0
    2.7073    3.9904    0.8375 C   0  0  0  0  0  0  0  0  0  0  0  0
   -2.6922   -3.9682    0.7816 C   0  0  0  0  0  0  0  0  0  0  0  0
   -3.4290   -3.9240    1.9851 C   0  0  0  0  0  0  0  0  0  0  0  0
   -3.3554   -3.0310    2.6235 H   0  0  0  0  0  0  0  0  0  0  0  0
    3.5949    6.2321    0.4025 C   0  0  0  0  0  0  0  0  0  0  0  0
    3.6644    7.1263   -0.2326 H   0  0  0  0  0  0  0  0  0  0  0  0
    4.2068    0.2570   -0.5603 C   0  0  0  0  0  0  0  0  0  0  0  0
    5.1573   -0.1703   -0.8947 H   0  0  0  0  0  0  0  0  0  0  0  0
   -1.4977    3.9722   -0.1055 C   0  0  0  0  0  0  0  0  0  0  0  0
   -2.3272    4.6786   -0.2127 H   0  0  0  0  0  0  0  0  0  0  0  0
    2.8232   -1.8511   -0.6346 C   0  0  0  0  0  0  0  0  0  0  0  0
   -3.9791    2.7116   -1.0035 C   0  0  0  0  0  0  0  0  0  0  0  0
    4.0115   -2.6732   -0.9967 C   0  0  0  0  0  0  0  0  0  0  0  0
   -0.2180    4.2215    0.3203 C   0  0  0  0  0  0  0  0  0  0  0  0
    0.2185    5.1780    0.6238 H   0  0  0  0  0  0  0  0  0  0  0  0
    6.2311   -4.2664   -1.6957 C   0  0  0  0  0  0  0  0  0  0  0  0
   -4.1765   -0.2211   -0.6049 C   0  0  0  0  0  0  0  0  0  0  0  0
   -5.1248    0.2148   -0.9343 H   0  0  0  0  0  0  0  0  0  0  0  0
    2.7912    5.1464    0.0311 C   0  0  0  0  0  0  0  0  0  0  0  0
    2.2318    5.1854   -0.9152 H   0  0  0  0  0  0  0  0  0  0  0  0
   -2.7943   -5.1204   -0.0272 C   0  0  0  0  0  0  0  0  0  0  0  0
   -2.2485   -5.1600   -0.9815 H   0  0  0  0  0  0  0  0  0  0  0  0
    0.2360   -4.2004    0.2649 C   0  0  0  0  0  0  0  0  0  0  0  0
   -0.2036   -5.1611    0.5503 H   0  0  0  0  0  0  0  0  0  0  0  0
    2.5353    1.6157    0.1317 C   0  0  0  0  0  3  0  0  0  0  0  0
   -6.1928    4.3149   -1.6970 C   0  0  0  0  0  0  0  0  0  0  0  0
    3.9558    1.5357   -0.1337 C   0  0  0  0  0  0  0  0  0  0  0  0
    4.6539    2.3756   -0.0558 H   0  0  0  0  0  0  0  0  0  0  0  0
    6.2616   -3.5125   -0.5110 C   0  0  0  0  0  0  0  0  0  0  0  0
    7.1461   -3.5555    0.1398 H   0  0  0  0  0  0  0  0  0  0  0  0
    4.0039   -3.4488   -2.1767 C   0  0  0  0  0  0  0  0  0  0  0  0
    3.1195   -3.4213   -2.8307 H   0  0  0  0  0  0  0  0  0  0  0  0
    4.2713    5.0264    2.4141 C   0  0  0  0  0  0  0  0  0  0  0  0
    4.8526    4.9921    3.3461 H   0  0  0  0  0  0  0  0  0  0  0  0
   -3.9651    3.4977   -2.1762 C   0  0  0  0  0  0  0  0  0  0  0  0
   -3.0778    3.4750   -2.8264 H   0  0  0  0  0  0  0  0  0  0  0  0
   -4.2344   -4.9993    2.3809 C   0  0  0  0  0  0  0  0  0  0  0  0
   -4.7993   -4.9653    3.3229 H   0  0  0  0  0  0  0  0  0  0  0  0
    5.1035   -4.2401   -2.5325 C   0  0  0  0  0  0  0  0  0  0  0  0
    5.0961   -4.8346   -3.4568 H   0  0  0  0  0  0  0  0  0  0  0  0
   -5.1261    2.7566   -0.1812 C   0  0  0  0  0  0  0  0  0  0  0  0
   -5.1440    2.1720    0.7505 H   0  0  0  0  0  0  0  0  0  0  0  0
   -6.2296    3.5504   -0.5193 C   0  0  0  0  0  0  0  0  0  0  0  0
   -7.1167    3.5891    0.1283 H   0  0  0  0  0  0  0  0  0  0  0  0
   -5.0618    4.2942   -2.5294 C   0  0  0  0  0  0  0  0  0  0  0  0
   -5.0495    4.8972   -3.4480 H   0  0  0  0  0  0  0  0  0  0  0  0
    5.1554   -2.7236   -0.1704 C   0  0  0  0  0  0  0  0  0  0  0  0
    5.1684   -2.1475    0.7666 H   0  0  0  0  0  0  0  0  0  0  0  0
  3 54  1  0  0  0  0
  4 44  1  0  0  0  0
  5 15  1  0  0  0  0
  6  9  2  0  0  0  0
  7 53  1  0  0  0  0
  8 23  1  0  0  0  0
  9 51  1  0  0  0  0
  9 27  1  0  0  0  0
 10  2  1  0  0  0  0
 10 61  1  0  0  0  0
 11  8  1  0  0  0  0
 12  7  2  0  0  0  0
 13 28  1  0  0  0  0
 14 13  1  0  0  0  0
 15 42  1  0  0  0  0
 15 24  2  0  0  0  0
 16 11  2  0  0  0  0
 16 22  1  0  0  0  0
 17 18  1  0  0  0  0
 17  6  1  0  0  0  0
 18 51  2  0  0  0  0
 19 18  1  0  0  0  0
 20 61  2  0  0  0  0
 20 21  1  0  0  0  0
 22 37  1  0  0  0  0
 22  5  2  0  0  0  0
 23 27  2  0  0  0  0
 24 29  1  0  0  0  0
 25 26  1  0  0  0  0
 25 23  1  0  0  0  0
 27 30  1  0  0  0  0
 28  1  1  0  0  0  0
 28 65  2  0  0  0  0
 29 20  1  0  0  0  0
 30 31  2  0  0  0  0
 31 65  1  0  0  0  0
 31 32  1  0  0  0  0
 33 10  2  0  0  0  0
 34 33  1  0  0  0  0
 35 12  1  0  0  0  0
 35 55  2  0  0  0  0
 36 35  1  0  0  0  0
 37 42  2  0  0  0  0
 38 37  1  0  0  0  0
 39 12  1  0  0  0  0
 39 17  2  0  0  0  0
 40 16  1  0  0  0  0
 40 69  1  0  0  0  0
 41 39  1  0  0  0  0
 41 75  1  0  0  0  0
 42 43  1  0  0  0  0
 44 57  1  0  0  0  0
 45 11  1  0  0  0  0
 45 25  2  0  0  0  0
 46 45  1  0  0  0  0
 47 33  1  0  0  0  0
 47 29  2  0  0  0  0
 48 47  1  0  0  0  0
 49 13  2  0  0  0  0
 49 30  1  0  0  0  0
 50 49  1  0  0  0  0
 51 52  1  0  0  0  0
 53 24  1  0  0  0  0
 54 71  1  0  0  0  0
 55 56  1  0  0  0  0
 55 53  1  0  0  0  0
 57 75  2  0  0  0  0
 57 58  1  0  0  0  0
 59 41  2  0  0  0  0
 60 59  1  0  0  0  0
 61 62  1  0  0  0  0
 63 40  2  0  0  0  0
 64 63  1  0  0  0  0
 65 66  1  0  0  0  0
 67 59  1  0  0  0  0
 67 44  2  0  0  0  0
 68 67  1  0  0  0  0
 69 70  1  0  0  0  0
 71 69  2  0  0  0  0
 71 72  1  0  0  0  0
 73 63  1  0  0  0  0
 73 54  2  0  0  0  0
 74 73  1  0  0  0  0
 75 76  1  0  0  0  0
M  END
