1,2,3,4
q = -2.0, confidence = 0.598

 50 52  0  0  0  0  0  0  0  0999 V2000
    1.2285    0.7937    0.0251 N   0  0  0  0  0  2  0  0  0  0  0  0
   -1.5667   -1.8389    0.0536 N   0  0  0  0  0  0  0  0  0  0  0  0
   -1.2602    0.7798    0.0513 N   0  0  0  0  0  2  0  0  0  0  0  0
    1.6601   -1.7100    0.5502 N   0  0  0  0  0  0  0  0  0  0  0  0
    1.4015    3.2809    0.3418 C   0  0  0  0  0  0  0  0  0  0  0  0
    2.4973    3.2800    0.3970 H   0  0  0  0  0  0  0  0  0  0  0  0
   -4.0402   -1.5714   -0.3430 C   0  0  0  0  0  0  0  0  0  0  0  0
   -4.1794   -2.6618   -0.2792 H   0  0  0  0  0  0  0  0  0  0  0  0
    0.6964    4.4855    0.5132 C   0  0  0  0  0  0  0  0  0  0  0  0
    1.2540    5.4229    0.6598 H   0  0  0  0  0  0  0  0  0  0  0  0
    2.5002    0.4099   -0.3046 C   0  0  0  0  0  0  0  0  0  0  0  0
   -2.5456    0.3932   -0.2216 C   0  0  0  0  0  0  0  0  0  0  0  0
   -2.7743   -1.0099   -0.1628 C   0  0  0  0  0  0  0  0  0  0  0  0
    0.6994    2.0744    0.1520 C   0  0  0  0  0  0  0  0  0  0  0  0
   -4.9284    0.6371   -0.7581 C   0  0  0  0  0  0  0  0  0  0  0  0
   -5.7701    1.2956   -1.0241 H   0  0  0  0  0  0  0  0  0  0  0  0
   -3.6652    1.2069   -0.5676 C   0  0  0  0  0  0  0  0  0  0  0  0
   -3.5344    2.2829   -0.7198 H   0  0  0  0  0  0  0  0  0  0  0  0
    2.7718   -0.9730   -0.0889 C   0  0  0  0  0  0  0  0  0  0  0  0
    4.7702    0.6200   -1.1968 C   0  0  0  0  0  0  0  0  0  0  0  0
    5.5471    1.2491   -1.6586 H   0  0  0  0  0  0  0  0  0  0  0  0
   -0.7350    2.0703    0.1586 C   0  0  0  0  0  0  0  0  0  0  0  0
   -5.1411   -0.7464   -0.6296 C   0  0  0  0  0  0  0  0  0  0  0  0
   -6.1398   -1.1820   -0.7738 H   0  0  0  0  0  0  0  0  0  0  0  0
    3.5372    1.2001   -0.8726 C   0  0  0  0  0  0  0  0  0  0  0  0
    3.3503    2.2546   -1.1065 H   0  0  0  0  0  0  0  0  0  0  0  0
   -0.7046    4.4858    0.5231 C   0  0  0  0  0  0  0  0  0  0  0  0
   -1.2582    5.4233    0.6835 H   0  0  0  0  0  0  0  0  0  0  0  0
    4.0091   -1.5385   -0.4005 C   0  0  0  0  0  0  0  0  0  0  0  0
    4.2037   -2.6049   -0.2201 H   0  0  0  0  0  0  0  0  0  0  0  0
   -1.4217    3.2864    0.3559 C   0  0  0  0  0  0  0  0  0  0  0  0
   -2.5137    3.3076    0.4381 H   0  0  0  0  0  0  0  0  0  0  0  0
    5.0241   -0.7407   -0.9640 C   0  0  0  0  0  0  0  0  0  0  0  0
    5.9935   -1.1873   -1.2267 H   0  0  0  0  0  0  0  0  0  0  0  0
    1.7023   -3.1425    0.2154 C   0  0  0  0  0  0  0  0  0  0  0  0
    0.8315   -3.6601    0.6559 H   0  0  0  0  0  0  0  0  0  0  0  0
    2.6126   -3.6292    0.6266 H   0  0  0  0  0  0  0  0  0  0  0  0
    1.6990   -3.2695   -0.8824 H   0  0  0  0  0  0  0  0  0  0  0  0
   -1.7152   -2.6172    1.3046 C   0  0  0  0  0  0  0  0  0  0  0  0
   -0.8092   -3.2228    1.4928 H   0  0  0  0  0  0  0  0  0  0  0  0
   -2.5861   -3.3062    1.2551 H   0  0  0  0  0  0  0  0  0  0  0  0
   -1.8631   -1.9143    2.1447 H   0  0  0  0  0  0  0  0  0  0  0  0
   -1.3744   -2.7210   -1.1251 C   0  0  0  0  0  0  0  0  0  0  0  0
   -1.2880   -2.0895   -2.0281 H   0  0  0  0  0  0  0  0  0  0  0  0
   -2.2353   -3.4124   -1.2540 H   0  0  0  0  0  0  0  0  0  0  0  0
   -0.4575   -3.3226   -1.0109 H   0  0  0  0  0  0  0  0  0  0  0  0
    1.7668   -1.5460    2.0303 C   0  0  0  0  0  0  0  0  0  0  0  0
    1.7722   -0.4688    2.2730 H   0  0  0  0  0  0  0  0  0  0  0  0
    2.7049   -2.0162    2.4013 H   0  0  0  0  0  0  0  0  0  0  0  0
    0.9001   -2.0226    2.5277 H   0  0  0  0  0  0  0  0  0  0  0  0
  1 14  1  0  0  0  0
  2 39  1  0  0  0  0
  3 22  1  0  0  0  0
  4 47  1  0  0  0  0
  5  6  1  0  0  0  0
  5  9  1  0  0  0  0
  7  8  1  0  0  0  0
  7 13  1  0  0  0  0
  9 27  2  0  0  0  0
  9 10  1  0  0  0  0
 11 19  1  0  0  0  0
 11  1  1  0  0  0  0
 12 13  2  0  0  0  0
 12  3  1  0  0  0  0
 13  2  1  0  0  0  0
 14 22  1  0  0  0  0
 14  5  2  0  0  0  0
 15 23  1  0  0  0  0
 15 17  2  0  0  0  0
 16 15  1  0  0  0  0
 17 12  1  0  0  0  0
 18 17  1  0  0  0  0
 19  4  1  0  0  0  0
 20 33  2  0  0  0  0
 20 25  1  0  0  0  0
 21 20  1  0  0  0  0
 22 31  2  0  0  0  0
 23  7  2  0  0  0  0
 24 23  1  0  0  0  0
 25 11  2  0  0  0  0
 26 25  1  0  0  0  0
 27 28  1  0  0  0  0
 29 30  1  0  0  0  0
 29 19  2  0  0  0  0
 31 32  1  0  0  0  0
 31 27  1  0  0  0  0
 33 29  1  0  0  0  0
 34 33  1  0  0  0  0
 35  4  1  0  0  0  0
 35 37  1  0  0  0  0
 35 36  1  0  0  0  0
 38 35  1  0  0  0  0
 39 40  1  0  0  0  0
 39 42  1  0  0  0  0
 41 39  1  0  0  0  0
 43 46  1  0  0  0  0
 43  2  1  0  0  0  0
 44 43  1  0  0  0  0
 45 43  1  0  0  0  0
 47 48  1  0  0  0  0
 47 49  1  0  0  0  0
 47 50  1  0  0  0  0
M  END
