3,4,5,6
q = -2.0, confidence = 0.772

 44 44  0  0  0  0  0  0  0  0999 V2000
   -5.6059    0.5599    0.2581 O   0  0  0  0  0  0  0  0  0  0  0  0
    5.6051   -0.5596   -0.2659 O   0  0  0  0  0  0  0  0  0  0  0  0
    1.3611   -1.3023    0.1076 N   0  0  0  0  0  2  0  0  0  0  0  0
   -1.2018   -1.3726   -0.2430 N   0  0  0  0  0  2  0  0  0  0  0  0
   -1.3608    1.3024   -0.1048 N   0  0  0  0  0  2  0  0  0  0  0  0
    1.2020    1.3722    0.2460 N   0  0  0  0  0  2  0  0  0  0  0  0
    0.7614   -2.6324    0.2767 C   0  0  0  0  0  0  0  0  0  0  0  0
    0.5558   -2.8088    1.3578 H   0  0  0  0  0  0  0  0  0  0  0  0
    1.4251   -3.4464   -0.0716 H   0  0  0  0  0  0  0  0  0  0  0  0
   -0.5386   -2.6424   -0.5061 C   0  0  0  0  0  0  0  0  0  0  0  0
   -0.3129   -2.7229   -1.5940 H   0  0  0  0  0  0  0  0  0  0  0  0
   -1.1806   -3.5072   -0.2281 H   0  0  0  0  0  0  0  0  0  0  0  0
   -2.5141   -1.3093   -0.1744 C   0  0  0  0  0  3  0  0  0  0  0  0
   -3.0383   -2.2790   -0.2413 H   0  0  0  0  0  0  0  0  0  0  0  0
   -3.3123   -0.1406   -0.0519 C   0  0  0  0  0  0  0  0  0  0  0  0
   -2.6872    1.1629   -0.1192 C   0  0  0  0  0  0  0  0  0  0  0  0
   -0.7613    2.6328   -0.2713 C   0  0  0  0  0  0  0  0  0  0  0  0
   -1.4251    3.4459    0.0790 H   0  0  0  0  0  0  0  0  0  0  0  0
   -0.5559    2.8116   -1.3520 H   0  0  0  0  0  0  0  0  0  0  0  0
    0.5388    2.6416    0.5114 C   0  0  0  0  0  0  0  0  0  0  0  0
    1.1807    3.5068    0.2348 H   0  0  0  0  0  0  0  0  0  0  0  0
    0.3133    2.7201    1.5995 H   0  0  0  0  0  0  0  0  0  0  0  0
    2.5142    1.3093    0.1750 C   0  0  0  0  0  3  0  0  0  0  0  0
    3.0384    2.2790    0.2417 H   0  0  0  0  0  0  0  0  0  0  0  0
    3.3123    0.1407    0.0502 C   0  0  0  0  0  0  0  0  0  0  0  0
    2.6875   -1.1629    0.1191 C   0  0  0  0  0  0  0  0  0  0  0  0
   -4.7727   -0.3451    0.1193 C   0  0  0  0  0  0  0  0  0  0  0  0
   -5.3092   -1.7838    0.1471 C   0  0  0  0  0  0  0  0  0  0  0  0
   -6.4016   -1.7149    0.2933 H   0  0  0  0  0  0  0  0  0  0  0  0
   -4.8747   -2.3823    0.9734 H   0  0  0  0  0  0  0  0  0  0  0  0
   -5.1108   -2.3260   -0.8004 H   0  0  0  0  0  0  0  0  0  0  0  0
    4.7722    0.3454   -0.1247 C   0  0  0  0  0  0  0  0  0  0  0  0
    5.3085    1.7841   -0.1536 C   0  0  0  0  0  0  0  0  0  0  0  0
    6.4005    1.7154   -0.3027 H   0  0  0  0  0  0  0  0  0  0  0  0
    5.1125    2.3260    0.7946 H   0  0  0  0  0  0  0  0  0  0  0  0
    4.8717    2.3827   -0.9786 H   0  0  0  0  0  0  0  0  0  0  0  0
   -3.5397    2.4041   -0.2691 C   0  0  0  0  0  0  0  0  0  0  0  0
   -3.3783    3.1016    0.5794 H   0  0  0  0  0  0  0  0  0  0  0  0
   -4.6064    2.1293   -0.2772 H   0  0  0  0  0  0  0  0  0  0  0  0
   -3.2691    2.9464   -1.1983 H   0  0  0  0  0  0  0  0  0  0  0  0
    3.5404   -2.4039    0.2678 C   0  0  0  0  0  0  0  0  0  0  0  0
    3.2729   -2.9450    1.1986 H   0  0  0  0  0  0  0  0  0  0  0  0
    4.6072   -2.1290    0.2722 H   0  0  0  0  0  0  0  0  0  0  0  0
    3.3763   -3.1025   -0.5792 H   0  0  0  0  0  0  0  0  0  0  0  0
  2 32  2  0  0  0  0
  3 26  1  0  0  0  0
  3  7  1  0  0  0  0
  4 13  1  0  0  0  0
  6 20  1  0  0  0  0
  7  8  1  0  0  0  0
  9  7  1  0  0  0  0
 10  4  1  0  0  0  0
 10 12  1  0  0  0  0
 10  7  1  0  0  0  0
 11 10  1  0  0  0  0
 13 15  1  0  0  0  0
 14 13  1  0  0  0  0
 15 27  1  0  0  0  0
 16  5  1  0  0  0  0
 16 15  2  0  0  0  0
 17  5  1  0  0  0  0
 17 18  1  0  0  0  0
 17 20  1  0  0  0  0
 19 17  1  0  0  0  0
 20 22  1  0  0  0  0
 21 20  1  0  0  0  0
 23 24  1  0  0  0  0
 23  6  1  0  0  0  0
 25 26  2  0  0  0  0
 25 23  1  0  0  0  0
 26 41  1  0  0  0  0
 27 28  1  0  0  0  0
 27  1  2  0  0  0  0
 28 29  1  0  0  0  0
 28 30  1  0  0  0  0
 31 28  1  0  0  0  0
 32 25  1  0  0  0  0
 33 32  1  0  0  0  0
 33 35  1  0  0  0  0
 34 33  1  0  0  0  0
 36 33  1  0  0  0  0
 37 16  1  0  0  0  0
 37 38  1  0  0  0  0
 39 37  1  0  0  0  0
 40 37  1  0  0  0  0
 41 43  1  0  0  0  0
 41 42  1  0  0  0  0
 44 41  1  0  0  0  0
M  END
