1,2,3,4
q = -1.0, confidence = 0.016

 73 80  0  0  1  0  0  0  0  0999 V2000
    1.4677   -1.9894    0.2744 N   0  0  0  0  0  0  0  0  0  0  0  0
    1.4389    0.8726   -0.2937 N   0  0  0  0  0  0  0  0  0  0  0  0
   -1.4334    0.8543   -0.2607 N   0  0  0  0  0  0  0  0  0  0  0  0
   -1.4504   -2.0008    0.2746 N   0  0  0  0  0  0  0  0  0  0  0  0
    1.2648   -3.2976    0.4608 C   0  0  0  0  0  3  0  0  0  0  0  0
    2.4105   -4.0718    0.0273 C   0  0  0  0  0  0  0  0  0  0  0  0
    2.5035   -5.1621    0.0477 H   0  0  0  0  0  0  0  0  0  0  0  0
    3.3430   -3.1654   -0.4293 C   0  0  0  0  0  0  0  0  0  0  0  0
    4.3255   -3.3753   -0.8647 H   0  0  0  0  0  0  0  0  0  0  0  0
    2.7606   -1.8482   -0.2506 C   0  0  0  0  0  0  0  0  0  0  0  0
    3.3972   -0.6287   -0.5083 C   0  0  1  0  0  3  0  0  0  0  0  0
    2.7791    0.6656   -0.3858 C   0  0  0  0  0  0  0  0  0  0  0  0
    3.5005    1.9226   -0.2894 C   0  0  0  0  0  0  0  0  0  0  0  0
    4.5888    2.0406   -0.3175 H   0  0  0  0  0  0  0  0  0  0  0  0
    2.5488    2.9004   -0.1011 C   0  0  0  0  0  0  0  0  0  0  0  0
    2.7094    3.9731    0.0476 H   0  0  0  0  0  0  0  0  0  0  0  0
    1.2630    2.2297   -0.1288 C   0  0  0  0  0  3  0  0  0  0  0  0
   -0.0009    2.8600   -0.0125 C   0  0  1  0  0  3  0  0  0  0  0  0
   -1.2579    2.2128   -0.1365 C   0  0  0  0  0  3  0  0  0  0  0  0
   -2.5370    2.8909   -0.2249 C   0  0  0  0  0  0  0  0  0  0  0  0
   -2.6906    3.9738   -0.1708 H   0  0  0  0  0  0  0  0  0  0  0  0
   -3.4845    1.9094   -0.4176 C   0  0  0  0  0  0  0  0  0  0  0  0
   -4.5673    2.0325   -0.5243 H   0  0  0  0  0  0  0  0  0  0  0  0
   -2.7677    0.6462   -0.4201 C   0  0  0  0  0  0  0  0  0  0  0  0
   -3.3803   -0.6512   -0.5299 C   0  0  1  0  0  3  0  0  0  0  0  0
   -2.7452   -1.8661   -0.2473 C   0  0  0  0  0  0  0  0  0  0  0  0
   -3.3277   -3.1857   -0.4084 C   0  0  0  0  0  0  0  0  0  0  0  0
   -4.3127   -3.4010   -0.8353 H   0  0  0  0  0  0  0  0  0  0  0  0
   -2.3923   -4.0866    0.0535 C   0  0  0  0  0  0  0  0  0  0  0  0
   -2.4841   -5.1767    0.0855 H   0  0  0  0  0  0  0  0  0  0  0  0
   -1.2446   -3.3067    0.4711 C   0  0  0  0  0  3  0  0  0  0  0  0
    0.0147   -3.8476    1.1247 C   0  0  0  0  0  0  0  0  0  0  0  0
    4.8352   -0.6467   -0.8902 C   0  0  0  0  0  0  0  0  0  0  0  0
    5.7974   -1.2820   -0.0732 C   0  0  0  0  0  0  0  0  0  0  0  0
    5.4734   -1.7522    0.8668 H   0  0  0  0  0  0  0  0  0  0  0  0
    7.1513   -1.2852   -0.4377 C   0  0  0  0  0  0  0  0  0  0  0  0
    7.8902   -1.7733    0.2157 H   0  0  0  0  0  0  0  0  0  0  0  0
    7.5641   -0.6614   -1.6254 C   0  0  0  0  0  0  0  0  0  0  0  0
    8.6267   -0.6668   -1.9119 H   0  0  0  0  0  0  0  0  0  0  0  0
    6.6168   -0.0238   -2.4435 C   0  0  0  0  0  0  0  0  0  0  0  0
    6.9337    0.4647   -3.3774 H   0  0  0  0  0  0  0  0  0  0  0  0
    5.2651   -0.0074   -2.0755 C   0  0  0  0  0  0  0  0  0  0  0  0
    4.5216    0.4897   -2.7161 H   0  0  0  0  0  0  0  0  0  0  0  0
   -0.0287    4.3159    0.2976 C   0  0  0  0  0  0  0  0  0  0  0  0
   -0.5362    4.7265    1.5503 C   0  0  0  0  0  0  0  0  0  0  0  0
   -0.8764    3.9570    2.2600 H   0  0  0  0  0  0  0  0  0  0  0  0
   -0.5681    6.0872    1.8856 C   0  0  0  0  0  0  0  0  0  0  0  0
   -0.9534    6.3964    2.8691 H   0  0  0  0  0  0  0  0  0  0  0  0
   -0.1072    7.0509    0.9738 C   0  0  0  0  0  0  0  0  0  0  0  0
   -0.1384    8.1191    1.2368 H   0  0  0  0  0  0  0  0  0  0  0  0
    0.3944    6.6484   -0.2745 C   0  0  0  0  0  0  0  0  0  0  0  0
    0.7507    7.4006   -0.9947 H   0  0  0  0  0  0  0  0  0  0  0  0
    0.4406    5.2874   -0.6105 C   0  0  0  0  0  0  0  0  0  0  0  0
    0.8258    4.9682   -1.5905 H   0  0  0  0  0  0  0  0  0  0  0  0
   -4.8130   -0.6818   -0.9335 C   0  0  0  0  0  0  0  0  0  0  0  0
   -5.7873   -1.2825   -0.1052 C   0  0  0  0  0  0  0  0  0  0  0  0
   -5.4769   -1.7154    0.8571 H   0  0  0  0  0  0  0  0  0  0  0  0
   -7.1356   -1.3009   -0.4892 C   0  0  0  0  0  0  0  0  0  0  0  0
   -7.8843   -1.7620    0.1726 H   0  0  0  0  0  0  0  0  0  0  0  0
   -7.5304   -0.7271   -1.7079 C   0  0  0  0  0  0  0  0  0  0  0  0
   -8.5886   -0.7444   -2.0097 H   0  0  0  0  0  0  0  0  0  0  0  0
   -6.5704   -0.1253   -2.5382 C   0  0  0  0  0  0  0  0  0  0  0  0
   -6.8727    0.3231   -3.4966 H   0  0  0  0  0  0  0  0  0  0  0  0
   -5.2241   -0.0941   -2.1513 C   0  0  0  0  0  0  0  0  0  0  0  0
   -4.4707    0.3746   -2.8018 H   0  0  0  0  0  0  0  0  0  0  0  0
    0.0187   -3.3778    2.6148 C   0  0  0  0  0  0  0  0  0  0  0  0
    0.0140   -2.2719    2.6996 H   0  0  0  0  0  0  0  0  0  0  0  0
   -0.8779   -3.7763    3.1303 H   0  0  0  0  0  0  0  0  0  0  0  0
    0.9229   -3.7682    3.1232 H   0  0  0  0  0  0  0  0  0  0  0  0
    0.0200   -5.3862    1.0894 C   0  0  0  0  0  0  0  0  0  0  0  0
    0.0160   -5.7809    0.0541 H   0  0  0  0  0  0  0  0  0  0  0  0
    0.9141   -5.7796    1.6096 H   0  0  0  0  0  0  0  0  0  0  0  0
   -0.8663   -5.7856    1.6183 H   0  0  0  0  0  0  0  0  0  0  0  0
  1  5  1  0  0  0  0
  2 17  1  0  0  0  0
  3 19  1  0  0  0  0
  4 31  1  0  0  0  0
  5 32  1  0  0  0  0
  6  7  1  0  0  0  0
  6  5  1  0  0  0  0
  8 10  1  0  0  0  0
  8  6  2  0  0  0  0
  9  8  1  0  0  0  0
 10  1  2  0  0  0  0
 11 33  1  1  0  0  0
 11 12  1  0  0  0  0
 11 10  1  0  0  0  0
 12  2  2  0  0  0  0
 12 13  1  0  0  0  0
 13 15  2  0  0  0  0
 14 13  1  0  0  0  0
 15 16  1  0  0  0  0
 17 15  1  0  0  0  0
 17 18  1  0  0  0  0
 18 44  1  1  0  0  0
 19 18  1  0  0  0  0
 20 21  1  0  0  0  0
 20 19  1  0  0  0  0
 22 20  2  0  0  0  0
 23 22  1  0  0  0  0
 24 22  1  0  0  0  0
 24  3  2  0  0  0  0
 25 55  1  1  0  0  0
 25 24  1  0  0  0  0
 25 26  1  0  0  0  0
 26  4  2  0  0  0  0
 27 26  1  0  0  0  0
 27 29  2  0  0  0  0
 28 27  1  0  0  0  0
 29 30  1  0  0  0  0
 29 31  1  0  0  0  0
 31 32  1  0  0  0  0
 32 66  1  0  0  0  0
 33 34  1  0  0  0  0
 34 35  1  0  0  0  0
 36 34  2  0  0  0  0
 36 37  1  0  0  0  0
 38 36  1  0  0  0  0
 39 38  1  0  0  0  0
 40 42  1  0  0  0  0
 40 38  2  0  0  0  0
 41 40  1  0  0  0  0
 42 33  2  0  0  0  0
 43 42  1  0  0  0  0
 44 45  1  0  0  0  0
 45 47  2  0  0  0  0
 45 46  1  0  0  0  0
 47 48  1  0  0  0  0
 49 50  1  0  0  0  0
 49 47  1  0  0  0  0
 51 49  2  0  0  0  0
 52 51  1  0  0  0  0
 53 51  1  0  0  0  0
 53 44  2  0  0  0  0
 54 53  1  0  0  0  0
 55 56  1  0  0  0  0
 56 57  1  0  0  0  0
 58 56  2  0  0  0  0
 58 59  1  0  0  0  0
 60 58  1  0  0  0  0
 61 60  1  0  0  0  0
 62 64  1  0  0  0  0
 62 60  2  0  0  0  0
 63 62  1  0  0  0  0
 64 55  2  0  0  0  0
 65 64  1  0  0  0  0
 66 67  1  0  0  0  0
 66 69  1  0  0  0  0
 66 68  1  0  0  0  0
 70 32  1  0  0  0  0
 70 72  1  0  0  0  0
 70 73  1  0  0  0  0
 71 70  1  0  0  0  0
M  END
