2,3,4,5
q = 0.0, confidence = 0.956

 45 46  0  0  0  0  0  0  0  0999 V2000
   -2.7338   -2.0118   -0.4467 Br  0  0  0  0  0  0  0  0  0  0  0  0
    0.0778   -1.8459   -0.1536 N   0  0  0  0  0  2  0  0  0  0  0  0
   -1.2621    0.6427    1.1978 N   0  0  0  0  0  2  0  0  0  0  0  0
    0.6134    2.0382    0.1287 N   0  0  0  0  0  2  0  0  0  0  0  0
    1.9697   -0.2438   -0.8117 N   0  0  0  0  0  2  0  0  0  0  0  0
   -3.1206    1.1284    2.2733 N   0  0  0  0  0  0  0  0  0  0  0  0
   -3.9851    0.9921    2.7976 H   0  0  0  0  0  0  0  0  0  0  0  0
   -3.4055    3.6211    1.9196 C   0  0  0  0  0  0  0  0  0  0  0  0
   -3.9092    3.7194    2.9025 H   0  0  0  0  0  0  0  0  0  0  0  0
   -4.1776    3.6976    1.1234 H   0  0  0  0  0  0  0  0  0  0  0  0
   -2.7234    4.4835    1.7996 H   0  0  0  0  0  0  0  0  0  0  0  0
   -2.2569    0.1328    1.8996 C   0  0  0  0  0  3  0  0  0  0  0  0
   -2.4017   -0.9202    2.1559 H   0  0  0  0  0  0  0  0  0  0  0  0
   -2.6556    2.3424    1.7982 C   0  0  0  0  0  0  0  0  0  0  0  0
   -1.4684    2.0167    1.1459 C   0  0  0  0  0  0  0  0  0  0  0  0
   -0.3843    2.7582    0.5691 C   0  0  0  0  0  3  0  0  0  0  0  0
   -0.3482    3.8620    0.5764 H   0  0  0  0  0  0  0  0  0  0  0  0
    1.8529    2.7017   -0.2257 C   0  0  0  0  0  0  0  0  0  0  0  0
    2.5552    2.5635    0.6286 H   0  0  0  0  0  0  0  0  0  0  0  0
    1.6750    3.7948   -0.3380 H   0  0  0  0  0  0  0  0  0  0  0  0
    2.5178    2.1511   -1.4971 C   0  0  0  0  0  0  0  0  0  0  0  0
    3.7785    2.9964   -1.7582 C   0  0  0  0  0  0  0  0  0  0  0  0
    3.5054    4.0471   -1.9835 H   0  0  0  0  0  0  0  0  0  0  0  0
    4.3399    2.6034   -2.6300 H   0  0  0  0  0  0  0  0  0  0  0  0
    4.4623    2.9983   -0.8841 H   0  0  0  0  0  0  0  0  0  0  0  0
    1.5765    2.2226   -2.7075 C   0  0  0  0  0  0  0  0  0  0  0  0
    1.2315    3.2638   -2.8750 H   0  0  0  0  0  0  0  0  0  0  0  0
    0.6854    1.5810   -2.5643 H   0  0  0  0  0  0  0  0  0  0  0  0
    2.1058    1.8917   -3.6247 H   0  0  0  0  0  0  0  0  0  0  0  0
    2.9889    0.7164   -1.2263 C   0  0  0  0  0  0  0  0  0  0  0  0
    3.4885    0.3365   -2.1453 H   0  0  0  0  0  0  0  0  0  0  0  0
    3.7698    0.7464   -0.4311 H   0  0  0  0  0  0  0  0  0  0  0  0
    2.3785   -1.4951   -0.6321 C   0  0  0  0  0  0  0  0  0  0  0  0
    3.8098   -1.9162   -0.7737 C   0  0  0  0  0  0  0  0  0  0  0  0
    4.2529   -1.5737   -1.7301 H   0  0  0  0  0  0  0  0  0  0  0  0
    3.9324   -3.0110   -0.7226 H   0  0  0  0  0  0  0  0  0  0  0  0
    4.4050   -1.4646    0.0524 H   0  0  0  0  0  0  0  0  0  0  0  0
    1.3334   -2.4234   -0.2411 C   0  0  0  0  0  0  0  0  0  0  0  0
    1.5215   -3.8071   -0.0473 C   0  0  0  0  0  0  0  0  0  0  0  0
    2.5347   -4.2275   -0.0517 H   0  0  0  0  0  0  0  0  0  0  0  0
    0.4108   -4.6320    0.1330 C   0  0  0  0  0  0  0  0  0  0  0  0
    0.5322   -5.7126    0.2972 H   0  0  0  0  0  0  0  0  0  0  0  0
   -0.8697   -4.0677    0.0430 C   0  0  0  0  0  0  0  0  0  0  0  0
   -1.7802   -4.6787    0.0845 H   0  0  0  0  0  0  0  0  0  0  0  0
   -0.9785   -2.6773   -0.1257 C   0  0  0  0  0  0  0  0  0  0  0  0
  1 45  1  0  0  0  0
  2 45  1  0  0  0  0
  3 12  1  0  0  0  0
  4 16  1  0  0  0  0
  5 33  1  0  0  0  0
  6  7  1  0  0  0  0
  8  9  1  0  0  0  0
 10  8  1  0  0  0  0
 11  8  1  0  0  0  0
 12 13  1  0  0  0  0
 12  6  1  0  0  0  0
 14  8  1  0  0  0  0
 14  6  1  0  0  0  0
 15  3  1  0  0  0  0
 15 14  2  0  0  0  0
 16 17  1  0  0  0  0
 16 15  1  0  0  0  0
 18  4  1  0  0  0  0
 18 19  1  0  0  0  0
 20 18  1  0  0  0  0
 21 30  1  0  0  0  0
 21 18  1  0  0  0  0
 22 21  1  0  0  0  0
 22 25  1  0  0  0  0
 23 22  1  0  0  0  0
 24 22  1  0  0  0  0
 26 28  1  0  0  0  0
 26 21  1  0  0  0  0
 27 26  1  0  0  0  0
 29 26  1  0  0  0  0
 30  5  1  0  0  0  0
 30 32  1  0  0  0  0
 31 30  1  0  0  0  0
 33 38  2  0  0  0  0
 34 36  1  0  0  0  0
 34 33  1  0  0  0  0
 34 37  1  0  0  0  0
 35 34  1  0  0  0  0
 38  2  1  0  0  0  0
 38 39  1  0  0  0  0
 39 41  2  0  0  0  0
 40 39  1  0  0  0  0
 41 42  1  0  0  0  0
 43 44  1  0  0  0  0
 43 41  1  0  0  0  0
 45 43  2  0  0  0  0
M  END
