3,4,5,6
q = -2, confidence = 1.0

 58 60  0  0  0  0  0  0  0  0999 V2000
    2.3659    4.5471   -0.7122 O   0  0  0  0  0  0  0  0  0  0  0  0
   -2.3647    4.5478   -0.7123 O   0  0  0  0  0  0  0  0  0  0  0  0
    1.6212   -0.0893    0.6329 N   0  0  0  0  0  0  0  0  0  0  0  0
    1.4537    2.5421   -0.1410 N   0  0  0  0  0  2  0  0  0  0  0  0
   -1.4531    2.5425   -0.1409 N   0  0  0  0  0  2  0  0  0  0  0  0
   -1.6214   -0.0888    0.6330 N   0  0  0  0  0  0  0  0  0  0  0  0
    4.1708   -1.6749   -0.0582 N   0  0  0  0  0  0  0  0  0  0  0  0
   -4.1713   -1.6740   -0.0584 N   0  0  0  0  0  0  0  0  0  0  0  0
    2.7065    0.8568    1.0798 C   0  0  0  0  0  0  0  0  0  0  0  0
    3.6702    0.3114    1.1510 H   0  0  0  0  0  0  0  0  0  0  0  0
    2.3994    1.2017    2.0869 H   0  0  0  0  0  0  0  0  0  0  0  0
    2.7953    2.0485    0.1457 C   0  0  0  0  0  0  0  0  0  0  0  0
    3.4116    2.8489    0.6091 H   0  0  0  0  0  0  0  0  0  0  0  0
    3.3414    1.7811   -0.7927 H   0  0  0  0  0  0  0  0  0  0  0  0
    1.3620    3.8255   -0.5907 C   0  0  0  0  0  0  0  0  0  0  0  0
    0.0006    4.3562   -1.0374 C   0  0  0  0  0  0  0  0  0  0  0  0
    0.0006    4.2719   -2.1481 H   0  0  0  0  0  0  0  0  0  0  0  0
    0.0007    5.4461   -0.8468 H   0  0  0  0  0  0  0  0  0  0  0  0
   -1.3610    3.8259   -0.5906 C   0  0  0  0  0  0  0  0  0  0  0  0
   -2.7948    2.0493    0.1457 C   0  0  0  0  0  0  0  0  0  0  0  0
   -3.3409    1.7821   -0.7927 H   0  0  0  0  0  0  0  0  0  0  0  0
   -3.4108    2.8498    0.6091 H   0  0  0  0  0  0  0  0  0  0  0  0
   -2.7064    0.8576    1.0798 C   0  0  0  0  0  0  0  0  0  0  0  0
   -2.3991    1.2024    2.0869 H   0  0  0  0  0  0  0  0  0  0  0  0
   -3.6702    0.3125    1.1510 H   0  0  0  0  0  0  0  0  0  0  0  0
   -1.2939   -1.0488    1.7132 C   0  0  0  0  0  0  0  0  0  0  0  0
   -2.1465   -1.7506    1.8539 H   0  0  0  0  0  0  0  0  0  0  0  0
   -1.2111   -0.4558    2.6461 H   0  0  0  0  0  0  0  0  0  0  0  0
   -0.0003   -1.8420    1.5152 C   0  0  0  0  0  0  0  0  0  0  0  0
   -0.0004   -2.3773    0.5431 H   0  0  0  0  0  0  0  0  0  0  0  0
   -0.0004   -2.6474    2.2788 H   0  0  0  0  0  0  0  0  0  0  0  0
    1.2935   -1.0492    1.7132 C   0  0  0  0  0  0  0  0  0  0  0  0
    1.2109   -0.4562    2.6461 H   0  0  0  0  0  0  0  0  0  0  0  0
    2.1459   -1.7513    1.8538 H   0  0  0  0  0  0  0  0  0  0  0  0
    1.9656   -0.7785   -0.6496 C   0  0  0  0  0  0  0  0  0  0  0  0
    2.3724   -0.0035   -1.3271 H   0  0  0  0  0  0  0  0  0  0  0  0
    1.0270   -1.1389   -1.1111 H   0  0  0  0  0  0  0  0  0  0  0  0
    2.9416   -1.9358   -0.5484 C   0  0  0  0  0  0  0  0  0  0  0  0
    5.0535   -2.6799    0.0263 C   0  0  0  0  0  0  0  0  0  0  0  0
    6.0462   -2.4239    0.4375 H   0  0  0  0  0  0  0  0  0  0  0  0
    4.7736   -3.9951   -0.3812 C   0  0  0  0  0  0  0  0  0  0  0  0
    5.5400   -4.7797   -0.2989 H   0  0  0  0  0  0  0  0  0  0  0  0
    3.4986   -4.2705   -0.8929 C   0  0  0  0  0  0  0  0  0  0  0  0
    3.2321   -5.2854   -1.2252 H   0  0  0  0  0  0  0  0  0  0  0  0
    2.5661   -3.2269   -0.9717 C   0  0  0  0  0  0  0  0  0  0  0  0
    1.5540   -3.4055   -1.3670 H   0  0  0  0  0  0  0  0  0  0  0  0
   -1.9659   -0.7780   -0.6496 C   0  0  0  0  0  0  0  0  0  0  0  0
   -1.0274   -1.1385   -1.1110 H   0  0  0  0  0  0  0  0  0  0  0  0
   -2.3725   -0.0029   -1.3271 H   0  0  0  0  0  0  0  0  0  0  0  0
   -2.9421   -1.9351   -0.5484 C   0  0  0  0  0  0  0  0  0  0  0  0
   -5.0542   -2.6789    0.0261 C   0  0  0  0  0  0  0  0  0  0  0  0
   -6.0469   -2.4227    0.4371 H   0  0  0  0  0  0  0  0  0  0  0  0
   -4.7744   -3.9941   -0.3813 C   0  0  0  0  0  0  0  0  0  0  0  0
   -5.5409   -4.7786   -0.2990 H   0  0  0  0  0  0  0  0  0  0  0  0
   -3.4994   -4.2697   -0.8927 C   0  0  0  0  0  0  0  0  0  0  0  0
   -3.2330   -5.2847   -1.2249 H   0  0  0  0  0  0  0  0  0  0  0  0
   -2.5667   -3.2263   -0.9716 C   0  0  0  0  0  0  0  0  0  0  0  0
   -1.5546   -3.4051   -1.3667 H   0  0  0  0  0  0  0  0  0  0  0  0
  1 15  2  0  0  0  0
  2 19  2  0  0  0  0
  3  9  1  0  0  0  0
  3 32  1  0  0  0  0
  4 12  1  0  0  0  0
  5 20  1  0  0  0  0
  6 23  1  0  0  0  0
  6 26  1  0  0  0  0
  7 39  1  0  0  0  0
  8 51  1  0  0  0  0
  9 10  1  0  0  0  0
  9 11  1  0  0  0  0
 12 13  1  0  0  0  0
 12  9  1  0  0  0  0
 14 12  1  0  0  0  0
 15  4  1  0  0  0  0
 16 18  1  0  0  0  0
 16 15  1  0  0  0  0
 16 19  1  0  0  0  0
 17 16  1  0  0  0  0
 19  5  1  0  0  0  0
 20 22  1  0  0  0  0
 20 23  1  0  0  0  0
 21 20  1  0  0  0  0
 23 25  1  0  0  0  0
 23 24  1  0  0  0  0
 26 27  1  0  0  0  0
 26 28  1  0  0  0  0
 29 32  1  0  0  0  0
 29 26  1  0  0  0  0
 29 31  1  0  0  0  0
 30 29  1  0  0  0  0
 32 34  1  0  0  0  0
 32 33  1  0  0  0  0
 35 38  1  0  0  0  0
 35  3  1  0  0  0  0
 36 35  1  0  0  0  0
 37 35  1  0  0  0  0
 38  7  2  0  0  0  0
 39 40  1  0  0  0  0
 41 42  1  0  0  0  0
 41 39  2  0  0  0  0
 43 41  1  0  0  0  0
 44 43  1  0  0  0  0
 45 43  2  0  0  0  0
 45 38  1  0  0  0  0
 46 45  1  0  0  0  0
 47 50  1  0  0  0  0
 47  6  1  0  0  0  0
 48 47  1  0  0  0  0
 49 47  1  0  0  0  0
 50  8  2  0  0  0  0
 51 52  1  0  0  0  0
 53 54  1  0  0  0  0
 53 51  2  0  0  0  0
 55 53  1  0  0  0  0
 56 55  1  0  0  0  0
 57 55  2  0  0  0  0
 57 50  1  0  0  0  0
 58 57  1  0  0  0  0
M  END
