1,2,3,4
q = -1.0

 35 36  0  0  1  0  0  0  0  0999 V2000
    1.2237    1.1620   -0.2862 N   0  0  0  0  0  2  0  0  0  0  0  0
    1.8943   -1.4399    0.3355 N   0  0  0  0  0  0  0  0  0  0  0  0
   -0.1390   -0.3557    1.7185 N   0  0  0  0  0  2  0  0  0  0  0  0
   -1.8170    0.3421   -0.1107 N   0  0  0  0  0  2  0  0  0  0  0  0
    0.8192    2.4433   -0.3150 C   0  0  0  0  0  3  0  0  0  0  0  0
    1.7230    3.5131   -0.3458 C   0  0  0  0  0  0  0  0  0  0  0  0
    3.0967    3.2296   -0.3333 C   0  0  0  0  0  0  0  0  0  0  0  0
    3.5159    1.8922   -0.3012 C   0  0  0  0  0  0  0  0  0  0  0  0
    2.5424    0.8812   -0.2879 C   0  0  0  0  0  0  0  0  0  0  0  0
    2.8908   -0.5835   -0.3731 C   0  0  0  0  0  0  0  0  0  0  0  0
    2.0091   -1.4695    1.8424 C   0  0  0  0  0  0  0  0  0  0  0  0
    1.1252   -0.3866    2.4571 C   0  0  0  0  0  0  0  0  0  0  0  0
   -1.1122    0.6209    2.1938 C   0  0  0  0  0  0  0  0  0  0  0  0
   -2.1146    0.9012    1.1074 C   0  0  1  0  0  3  0  0  0  0  0  0
   -3.2683    1.6745    1.2647 C   0  0  0  0  0  0  0  0  0  0  0  0
   -4.1170    1.8768    0.1654 C   0  0  0  0  0  0  0  0  0  0  0  0
   -3.7911    1.3082   -1.0762 C   0  0  0  0  0  0  0  0  0  0  0  0
   -2.6237    0.5529   -1.1886 C   0  0  0  0  0  0  0  0  0  0  0  0
   -0.2688    2.6165   -0.3258 H   0  0  0  0  0  0  0  0  0  0  0  0
    1.3529    4.5475   -0.3779 H   0  0  0  0  0  0  0  0  0  0  0  0
    3.8368    4.0434   -0.3497 H   0  0  0  0  0  0  0  0  0  0  0  0
    4.5849    1.6335   -0.2950 H   0  0  0  0  0  0  0  0  0  0  0  0
    3.9105   -0.7838    0.0143 H   0  0  0  0  0  0  0  0  0  0  0  0
    2.8482   -0.8799   -1.4436 H   0  0  0  0  0  0  0  0  0  0  0  0
    1.6493   -2.4679    2.1577 H   0  0  0  0  0  0  0  0  0  0  0  0
    3.0697   -1.3650    2.1490 H   0  0  0  0  0  0  0  0  0  0  0  0
    1.6279    0.6107    2.4256 H   0  0  0  0  0  0  0  0  0  0  0  0
    0.9568   -0.6234    3.5318 H   0  0  0  0  0  0  0  0  0  0  0  0
   -1.6367    0.2782    3.1173 H   0  0  0  0  0  0  0  0  0  0  0  0
   -0.6103    1.5830    2.4674 H   0  0  0  0  0  0  0  0  0  0  0  0
   -3.5007    2.1076    2.2481 H   0  0  0  0  0  0  0  0  0  0  0  0
   -5.0307    2.4792    0.2786 H   0  0  0  0  0  0  0  0  0  0  0  0
   -4.4310    1.4496   -1.9582 H   0  0  0  0  0  0  0  0  0  0  0  0
   -2.2767    0.1011   -2.1315 H   0  0  0  0  0  0  0  0  0  0  0  0
    2.0409   -2.3995   -0.0151 H   0  0  0  0  0  0  0  0  0  0  0  0
  2 11  1  0  0  0  0
  3 13  1  0  0  0  0
  3 12  1  0  0  0  0
  4 14  1  0  0  0  0
  5  1  1  0  0  0  0
  6  7  2  0  0  0  0
  6  5  1  0  0  0  0
  7  8  1  0  0  0  0
  8 22  1  0  0  0  0
  8  9  2  0  0  0  0
  9  1  1  0  0  0  0
 10  9  1  0  0  0  0
 10 23  1  0  0  0  0
 10  2  1  0  0  0  0
 11 26  1  0  0  0  0
 11 25  1  0  0  0  0
 11 12  1  0  0  0  0
 12 28  1  0  0  0  0
 13 30  1  0  0  0  0
 13 29  1  0  0  0  0
 14 15  1  0  0  0  0
 14 13  1  6  0  0  0
 15 31  1  0  0  0  0
 16 32  1  0  0  0  0
 16 15  2  0  0  0  0
 17 16  1  0  0  0  0
 18 17  2  0  0  0  0
 18  4  1  0  0  0  0
 19  5  1  0  0  0  0
 20  6  1  0  0  0  0
 21  7  1  0  0  0  0
 24 10  1  0  0  0  0
 27 12  1  0  0  0  0
 33 17  1  0  0  0  0
 34 18  1  0  0  0  0
 35  2  1  0  0  0  0
M  END
