1,2,3,4
q = -2.0, confidence = 0.948

 42 44  0  0  1  0  0  0  0  0999 V2000
   -1.2811   -1.7775   -0.2023 N   0  0  0  0  0  2  0  0  0  0  0  0
    1.3050   -1.3043    0.0857 N   0  0  0  0  0  2  0  0  0  0  0  0
   -1.2831    1.7761    0.2024 N   0  0  0  0  0  2  0  0  0  0  0  0
    1.3035    1.3058   -0.0854 N   0  0  0  0  0  2  0  0  0  0  0  0
    2.5806   -0.7121    0.0600 C   0  0  0  0  0  0  0  0  0  0  0  0
    3.8021   -1.4120    0.1279 C   0  0  0  0  0  0  0  0  0  0  0  0
    3.7774   -2.5030    0.2357 H   0  0  0  0  0  0  0  0  0  0  0  0
    2.5798    0.7151   -0.0600 C   0  0  0  0  0  0  0  0  0  0  0  0
   -0.5055    2.8370   -0.1706 C   0  0  2  0  0  3  0  0  0  0  0  0
    0.9815    2.6045   -0.3487 C   0  0  0  0  0  0  0  0  0  0  0  0
    5.0070    0.7025   -0.0657 C   0  0  0  0  0  0  0  0  0  0  0  0
    5.9595    1.2513   -0.1203 H   0  0  0  0  0  0  0  0  0  0  0  0
   -3.1047    3.2854    0.5939 C   0  0  0  0  0  0  0  0  0  0  0  0
   -4.1330    3.4346    0.9542 H   0  0  0  0  0  0  0  0  0  0  0  0
   -0.5022   -2.8376    0.1705 C   0  0  1  0  0  3  0  0  0  0  0  0
   -2.5354   -1.9982   -0.6678 C   0  0  0  0  0  0  0  0  0  0  0  0
   -1.0133   -4.1346    0.2607 C   0  0  0  0  0  0  0  0  0  0  0  0
   -0.3209   -4.9268    0.5802 H   0  0  0  0  0  0  0  0  0  0  0  0
   -2.3558    4.3549    0.0915 C   0  0  0  0  0  0  0  0  0  0  0  0
   -2.7993    5.3593    0.0168 H   0  0  0  0  0  0  0  0  0  0  0  0
    0.9845   -2.6033    0.3490 C   0  0  0  0  0  0  0  0  0  0  0  0
   -3.1007   -3.2890   -0.5944 C   0  0  0  0  0  0  0  0  0  0  0  0
   -4.1288   -3.4394   -0.9549 H   0  0  0  0  0  0  0  0  0  0  0  0
    3.8005    1.4163   -0.1280 C   0  0  0  0  0  0  0  0  0  0  0  0
    3.7745    2.5073   -0.2358 H   0  0  0  0  0  0  0  0  0  0  0  0
   -1.0182    4.1334   -0.2612 C   0  0  0  0  0  0  0  0  0  0  0  0
   -0.3267    4.9263   -0.5808 H   0  0  0  0  0  0  0  0  0  0  0  0
   -2.3506   -4.3577   -0.0922 C   0  0  0  0  0  0  0  0  0  0  0  0
   -2.7928   -5.3627   -0.0179 H   0  0  0  0  0  0  0  0  0  0  0  0
   -2.5377    1.9954    0.6678 C   0  0  0  0  0  0  0  0  0  0  0  0
    5.0078   -0.6968    0.0654 C   0  0  0  0  0  0  0  0  0  0  0  0
    5.9609   -1.2445    0.1199 H   0  0  0  0  0  0  0  0  0  0  0  0
    1.7495   -3.5377    0.6206 O   0  0  0  0  0  0  0  0  0  0  0  0
    1.7454    3.5396   -0.6209 O   0  0  0  0  0  0  0  0  0  0  0  0
   -3.2682   -0.8768   -1.3477 C   0  0  0  0  0  0  0  0  0  0  0  0
   -2.7146    0.0745   -1.2578 H   0  0  0  0  0  0  0  0  0  0  0  0
   -4.2959   -0.7516   -0.9554 H   0  0  0  0  0  0  0  0  0  0  0  0
   -3.3578   -1.1096   -2.4295 H   0  0  0  0  0  0  0  0  0  0  0  0
   -3.2690    0.8732    1.3482 C   0  0  0  0  0  0  0  0  0  0  0  0
   -2.7148   -0.0777    1.2575 H   0  0  0  0  0  0  0  0  0  0  0  0
   -4.2971    0.7476    0.9572 H   0  0  0  0  0  0  0  0  0  0  0  0
   -3.3574    1.1057    2.4302 H   0  0  0  0  0  0  0  0  0  0  0  0
  1 15  1  0  0  0  0
  2 21  1  0  0  0  0
  3 30  1  0  0  0  0
  4  8  1  0  0  0  0
  5  2  1  0  0  0  0
  5  6  1  0  0  0  0
  6  7  1  0  0  0  0
  8  5  2  0  0  0  0
  9 10  1  1  0  0  0
  9  3  1  0  0  0  0
 10  4  1  0  0  0  0
 11 31  1  0  0  0  0
 12 11  1  0  0  0  0
 13 30  2  0  0  0  0
 13 14  1  0  0  0  0
 15 17  1  0  0  0  0
 15 21  1  6  0  0  0
 16 22  2  0  0  0  0
 16  1  1  0  0  0  0
 17 18  1  0  0  0  0
 19 13  1  0  0  0  0
 20 19  1  0  0  0  0
 21 33  2  0  0  0  0
 22 28  1  0  0  0  0
 23 22  1  0  0  0  0
 24 11  2  0  0  0  0
 24  8  1  0  0  0  0
 25 24  1  0  0  0  0
 26  9  1  0  0  0  0
 26 19  2  0  0  0  0
 27 26  1  0  0  0  0
 28 29  1  0  0  0  0
 28 17  2  0  0  0  0
 30 39  1  0  0  0  0
 31 32  1  0  0  0  0
 31  6  2  0  0  0  0
 34 10  2  0  0  0  0
 35 36  1  0  0  0  0
 35 37  1  0  0  0  0
 35 16  1  0  0  0  0
 38 35  1  0  0  0  0
 39 42  1  0  0  0  0
 40 39  1  0  0  0  0
 41 39  1  0  0  0  0
M  END
