1,18,28,38
q = 0.0, confidence = 0.992

 46 48  0  0  1  0  0  0  0  0999 V2000
   -0.0104   -1.1719    1.4274 N   0  0  0  0  0  0  0  0  0  0  0  0
   -0.9265   -2.2819    1.1257 C   0  0  0  0  0  0  0  0  0  0  0  0
   -1.4080   -2.6908    2.0447 H   0  0  0  0  0  0  0  0  0  0  0  0
   -0.3270   -3.1121    0.6936 H   0  0  0  0  0  0  0  0  0  0  0  0
   -0.6087   -0.2074    2.3709 C   0  0  0  0  0  0  0  0  0  0  0  0
   -0.5215   -0.5894    3.4163 H   0  0  0  0  0  0  0  0  0  0  0  0
   -1.6938   -0.1467    2.1494 H   0  0  0  0  0  0  0  0  0  0  0  0
    0.0058    1.2058    2.2884 C   0  0  0  0  0  0  0  0  0  0  0  0
   -0.1084    1.6957    3.2744 H   0  0  0  0  0  0  0  0  0  0  0  0
    1.1005    1.1221    2.1123 H   0  0  0  0  0  0  0  0  0  0  0  0
    1.3149   -1.6520    1.8604 C   0  0  0  0  0  0  0  0  0  0  0  0
    1.2043   -2.4658    2.6161 H   0  0  0  0  0  0  0  0  0  0  0  0
    1.8335   -0.8205    2.3777 H   0  0  0  0  0  0  0  0  0  0  0  0
    2.1988   -2.1462    0.6961 C   0  0  0  0  0  0  0  0  0  0  0  0
    2.9699   -2.8237    1.1109 H   0  0  0  0  0  0  0  0  0  0  0  0
    1.5850   -2.7601    0.0005 H   0  0  0  0  0  0  0  0  0  0  0  0
   -1.9723   -1.9077    0.0961 C   0  0  1  0  0  3  0  0  0  0  0  0
   -1.5332   -1.1374   -0.9351 N   0  0  0  0  0  2  0  0  0  0  0  0
   -2.3915   -0.8455   -1.9379 C   0  0  0  0  0  0  0  0  0  0  0  0
   -1.9905   -0.2362   -2.7627 H   0  0  0  0  0  0  0  0  0  0  0  0
   -3.7186   -1.2897   -1.9529 C   0  0  0  0  0  0  0  0  0  0  0  0
   -4.3749   -1.0261   -2.7944 H   0  0  0  0  0  0  0  0  0  0  0  0
   -4.1802   -2.0683   -0.8828 C   0  0  0  0  0  0  0  0  0  0  0  0
   -5.2188   -2.4293   -0.8555 H   0  0  0  0  0  0  0  0  0  0  0  0
   -3.2892   -2.3808    0.1558 C   0  0  0  0  0  0  0  0  0  0  0  0
   -3.6101   -2.9942    1.0107 H   0  0  0  0  0  0  0  0  0  0  0  0
   -0.5910    2.1101    1.2358 C   0  0  1  0  0  3  0  0  0  0  0  0
   -0.5164    1.7148   -0.0627 N   0  0  0  0  0  2  0  0  0  0  0  0
   -1.0411    2.5098   -1.0216 C   0  0  0  0  0  0  0  0  0  0  0  0
   -0.9536    2.1439   -2.0576 H   0  0  0  0  0  0  0  0  0  0  0  0
   -1.6591    3.7330   -0.7470 C   0  0  0  0  0  0  0  0  0  0  0  0
   -2.0614    4.3441   -1.5674 H   0  0  0  0  0  0  0  0  0  0  0  0
   -1.7442    4.1497    0.5890 C   0  0  0  0  0  0  0  0  0  0  0  0
   -2.2223    5.1049    0.8521 H   0  0  0  0  0  0  0  0  0  0  0  0
   -1.2067    3.3254    1.5860 C   0  0  0  0  0  0  0  0  0  0  0  0
   -1.2566    3.6214    2.6441 H   0  0  0  0  0  0  0  0  0  0  0  0
    2.8862   -1.0592   -0.0916 C   0  0  1  0  0  3  0  0  0  0  0  0
    2.1080   -0.2010   -0.8118 N   0  0  0  0  0  2  0  0  0  0  0  0
    2.7080    0.7808   -1.5304 C   0  0  0  0  0  0  0  0  0  0  0  0
    2.0364    1.4492   -2.0909 H   0  0  0  0  0  0  0  0  0  0  0  0
    4.0919    0.9547   -1.5747 C   0  0  0  0  0  0  0  0  0  0  0  0
    4.5233    1.7617   -2.1835 H   0  0  0  0  0  0  0  0  0  0  0  0
    4.9020    0.0805   -0.8340 C   0  0  0  0  0  0  0  0  0  0  0  0
    5.9971    0.1822   -0.8425 H   0  0  0  0  0  0  0  0  0  0  0  0
    4.2865   -0.9296   -0.0847 C   0  0  0  0  0  0  0  0  0  0  0  0
    4.8892   -1.6352    0.5056 H   0  0  0  0  0  0  0  0  0  0  0  0
  1 11  1  0  0  0  0
  1  5  1  0  0  0  0
  2  1  1  0  0  0  0
  2  3  1  0  0  0  0
  4  2  1  0  0  0  0
  5  6  1  0  0  0  0
  7  5  1  0  0  0  0
  8  5  1  0  0  0  0
  8  9  1  0  0  0  0
 10  8  1  0  0  0  0
 11 13  1  0  0  0  0
 11 12  1  0  0  0  0
 14 15  1  0  0  0  0
 14 11  1  0  0  0  0
 16 14  1  0  0  0  0
 17 25  1  0  0  0  0
 17  2  1  6  0  0  0
 18 17  1  0  0  0  0
 19 18  1  0  0  0  0
 20 19  1  0  0  0  0
 21 19  2  0  0  0  0
 21 23  1  0  0  0  0
 22 21  1  0  0  0  0
 23 24  1  0  0  0  0
 23 25  2  0  0  0  0
 25 26  1  0  0  0  0
 27 35  1  0  0  0  0
 27  8  1  1  0  0  0
 28 27  1  0  0  0  0
 29 31  2  0  0  0  0
 29 28  1  0  0  0  0
 30 29  1  0  0  0  0
 31 33  1  0  0  0  0
 32 31  1  0  0  0  0
 33 34  1  0  0  0  0
 33 35  2  0  0  0  0
 35 36  1  0  0  0  0
 37 45  1  0  0  0  0
 37 14  1  1  0  0  0
 38 37  1  0  0  0  0
 39 38  1  0  0  0  0
 40 39  1  0  0  0  0
 41 39  2  0  0  0  0
 41 43  1  0  0  0  0
 42 41  1  0  0  0  0
 43 45  2  0  0  0  0
 44 43  1  0  0  0  0
 45 46  1  0  0  0  0
M  END
