5,6,7,8
q = -1.0

 62 69  0  0  1  0  0  0  0  0999 V2000
   -4.9983   -0.0271    2.1703 F   0  0  0  0  0  0  0  0  0  0  0  0
   -4.8404   -1.6993   -2.2516 F   0  0  0  0  0  0  0  0  0  0  0  0
    4.9977   -0.0270   -2.1707 F   0  0  0  0  0  0  0  0  0  0  0  0
    4.8409   -1.6999    2.2510 F   0  0  0  0  0  0  0  0  0  0  0  0
    1.4148    0.8380    0.0057 N   0  0  0  0  0  0  0  0  0  0  0  0
   -1.4148    0.8381   -0.0053 N   0  0  0  0  0  0  0  0  0  0  0  0
   -1.2298   -1.8851   -0.0107 N   0  0  0  0  0  0  0  0  0  0  0  0
    1.2297   -1.8851    0.0108 N   0  0  0  0  0  0  0  0  0  0  0  0
   -0.8849    5.0022    0.8093 N   0  0  0  0  0  0  0  0  0  0  0  0
    0.8851    5.0022   -0.8088 N   0  0  0  0  0  0  0  0  0  0  0  0
    1.2559    2.2069    0.0065 C   0  0  0  0  0  0  0  0  0  0  0  0
    0.0001    2.8796    0.0003 C   0  0  2  0  0  3  0  0  0  0  0  0
   -1.2557    2.2069   -0.0060 C   0  0  0  0  0  3  0  0  0  0  0  0
   -2.7763    0.5495   -0.0436 C   0  0  0  0  0  0  0  0  0  0  0  0
   -3.4983    1.7984   -0.0913 C   0  0  0  0  0  0  0  0  0  0  0  0
   -4.5890    1.8900   -0.1402 H   0  0  0  0  0  0  0  0  0  0  0  0
   -2.5711    2.8153   -0.0696 C   0  0  0  0  0  0  0  0  0  0  0  0
   -2.7618    3.8905   -0.0745 H   0  0  0  0  0  0  0  0  0  0  0  0
   -3.3624   -0.7417   -0.0353 C   0  0  2  0  0  3  0  0  0  0  0  0
   -4.8421   -0.8560   -0.0411 C   0  0  0  0  0  0  0  0  0  0  0  0
   -5.6261   -0.4942    1.0728 C   0  0  0  0  0  0  0  0  0  0  0  0
   -7.0205   -0.6083    1.0920 C   0  0  0  0  0  0  0  0  0  0  0  0
   -7.5708   -0.3107    1.9951 H   0  0  0  0  0  0  0  0  0  0  0  0
   -7.6710   -1.1104   -0.0453 C   0  0  0  0  0  0  0  0  0  0  0  0
   -8.7666   -1.2081   -0.0471 H   0  0  0  0  0  0  0  0  0  0  0  0
   -6.9381   -1.4885   -1.1802 C   0  0  0  0  0  0  0  0  0  0  0  0
   -7.4240   -1.8783   -2.0853 H   0  0  0  0  0  0  0  0  0  0  0  0
   -5.5455   -1.3543   -1.1559 C   0  0  0  0  0  0  0  0  0  0  0  0
   -2.5955   -1.9353   -0.0193 C   0  0  0  0  0  0  0  0  0  0  0  0
   -0.7136   -3.1573   -0.0031 C   0  0  0  0  0  3  0  0  0  0  0  0
    0.7134   -3.1574    0.0035 C   0  0  0  0  0  0  0  0  0  0  0  0
    2.5954   -1.9354    0.0193 C   0  0  0  0  0  3  0  0  0  0  0  0
    2.9793   -3.3259    0.0126 C   0  0  0  0  0  0  0  0  0  0  0  0
    4.0105   -3.6975    0.0120 H   0  0  0  0  0  0  0  0  0  0  0  0
    1.8060   -4.0839    0.0053 C   0  0  0  0  0  0  0  0  0  0  0  0
    1.7240   -5.1769    0.0004 H   0  0  0  0  0  0  0  0  0  0  0  0
    3.3624   -0.7419    0.0352 C   0  0  1  0  0  3  0  0  0  0  0  0
    4.8421   -0.8562    0.0406 C   0  0  0  0  0  0  0  0  0  0  0  0
    5.6258   -0.4943   -1.0734 C   0  0  0  0  0  0  0  0  0  0  0  0
    7.0202   -0.6084   -1.0929 C   0  0  0  0  0  0  0  0  0  0  0  0
    7.5702   -0.3106   -1.9961 H   0  0  0  0  0  0  0  0  0  0  0  0
    7.6710   -1.1107    0.0440 C   0  0  0  0  0  0  0  0  0  0  0  0
    8.7665   -1.2083    0.0456 H   0  0  0  0  0  0  0  0  0  0  0  0
    6.9384   -1.4890    1.1791 C   0  0  0  0  0  0  0  0  0  0  0  0
    7.4245   -1.8789    2.0840 H   0  0  0  0  0  0  0  0  0  0  0  0
    5.5457   -1.3547    1.1552 C   0  0  0  0  0  0  0  0  0  0  0  0
    2.7764    0.5493    0.0437 C   0  0  0  0  0  3  0  0  0  0  0  0
    3.4984    1.7982    0.0916 C   0  0  0  0  0  0  0  0  0  0  0  0
    4.5891    1.8897    0.1404 H   0  0  0  0  0  0  0  0  0  0  0  0
    2.5712    2.8151    0.0701 C   0  0  0  0  0  0  0  0  0  0  0  0
    2.7620    3.8903    0.0752 H   0  0  0  0  0  0  0  0  0  0  0  0
   -1.8062   -4.0838   -0.0050 C   0  0  0  0  0  0  0  0  0  0  0  0
   -1.7243   -5.1768    0.0001 H   0  0  0  0  0  0  0  0  0  0  0  0
   -2.9795   -3.3258   -0.0124 C   0  0  0  0  0  0  0  0  0  0  0  0
   -4.0107   -3.6973   -0.0119 H   0  0  0  0  0  0  0  0  0  0  0  0
    0.0001    4.3666    0.0003 C   0  0  0  0  0  0  0  0  0  0  0  0
   -0.8805    6.3392    0.7954 C   0  0  0  0  0  0  0  0  0  0  0  0
   -1.6115    6.8403    1.4572 H   0  0  0  0  0  0  0  0  0  0  0  0
    0.0003    7.0876    0.0004 C   0  0  0  0  0  0  0  0  0  0  0  0
    0.0004    8.1870    0.0005 H   0  0  0  0  0  0  0  0  0  0  0  0
    0.8810    6.3392   -0.7947 C   0  0  0  0  0  0  0  0  0  0  0  0
    1.6119    6.8402   -1.4565 H   0  0  0  0  0  0  0  0  0  0  0  0
  2 28  1  0  0  0  0
  3 39  1  0  0  0  0
  5 11  2  0  0  0  0
  5 47  1  0  0  0  0
  7 30  1  0  0  0  0
  8 32  1  0  0  0  0
 10 61  2  0  0  0  0
 10 56  1  0  0  0  0
 11 50  1  0  0  0  0
 12 56  1  6  0  0  0
 12 11  1  0  0  0  0
 13  6  1  0  0  0  0
 13 12  1  0  0  0  0
 14 19  1  0  0  0  0
 14  6  2  0  0  0  0
 15 17  2  0  0  0  0
 15 14  1  0  0  0  0
 16 15  1  0  0  0  0
 17 13  1  0  0  0  0
 18 17  1  0  0  0  0
 19 20  1  1  0  0  0
 19 29  1  0  0  0  0
 20 21  1  0  0  0  0
 21 22  2  0  0  0  0
 21  1  1  0  0  0  0
 22 23  1  0  0  0  0
 24 22  1  0  0  0  0
 25 24  1  0  0  0  0
 26 28  1  0  0  0  0
 26 24  2  0  0  0  0
 27 26  1  0  0  0  0
 28 20  2  0  0  0  0
 29 54  1  0  0  0  0
 29  7  2  0  0  0  0
 30 31  1  0  0  0  0
 31 35  1  0  0  0  0
 31  8  2  0  0  0  0
 32 37  1  0  0  0  0
 33 32  1  0  0  0  0
 34 33  1  0  0  0  0
 35 33  2  0  0  0  0
 36 35  1  0  0  0  0
 37 38  1  6  0  0  0
 37 47  1  0  0  0  0
 38 46  1  0  0  0  0
 39 38  2  0  0  0  0
 40 39  1  0  0  0  0
 40 42  2  0  0  0  0
 41 40  1  0  0  0  0
 42 43  1  0  0  0  0
 42 44  1  0  0  0  0
 44 45  1  0  0  0  0
 46 44  2  0  0  0  0
 46  4  1  0  0  0  0
 47 48  1  0  0  0  0
 48 49  1  0  0  0  0
 50 51  1  0  0  0  0
 50 48  2  0  0  0  0
 52 30  1  0  0  0  0
 52 53  1  0  0  0  0
 54 55  1  0  0  0  0
 54 52  2  0  0  0  0
 56  9  2  0  0  0  0
 57  9  1  0  0  0  0
 57 58  1  0  0  0  0
 59 60  1  0  0  0  0
 59 57  2  0  0  0  0
 61 59  1  0  0  0  0
 62 61  1  0  0  0  0
M  END
