1,2,3,4
q = -2.0, confidence = 0.942

 72 75  0  0  0  0  0  0  0  0999 V2000
    1.5336    1.1299   -0.7240 N   0  0  0  0  0  0  0  0  0  0  0  0
   -1.0926    1.3640   -0.0264 N   0  0  0  0  0  0  0  0  0  0  0  0
   -1.0926   -1.3640    0.0264 N   0  0  0  0  0  0  0  0  0  0  0  0
    1.5336   -1.1299    0.7240 N   0  0  0  0  0  0  0  0  0  0  0  0
    2.6499    0.7475   -1.3866 C   0  0  0  0  0  0  0  0  0  0  0  0
    2.8865   -0.6298   -1.9107 C   0  0  0  0  0  0  0  0  0  0  0  0
    1.9388   -1.1892   -2.0074 H   0  0  0  0  0  0  0  0  0  0  0  0
    3.3750   -0.5815   -2.9048 H   0  0  0  0  0  0  0  0  0  0  0  0
    3.5539   -1.2227   -1.2470 H   0  0  0  0  0  0  0  0  0  0  0  0
    3.5274    1.8770   -1.5698 C   0  0  0  0  0  0  0  0  0  0  0  0
    4.8447    1.8217   -2.2789 C   0  0  0  0  0  0  0  0  0  0  0  0
    5.3911    2.7814   -2.2001 H   0  0  0  0  0  0  0  0  0  0  0  0
    5.5023    1.0269   -1.8677 H   0  0  0  0  0  0  0  0  0  0  0  0
    4.7227    1.6026   -3.3622 H   0  0  0  0  0  0  0  0  0  0  0  0
    2.8891    2.9842   -0.9971 C   0  0  0  0  0  0  0  0  0  0  0  0
    3.3457    4.4081   -0.9657 C   0  0  0  0  0  0  0  0  0  0  0  0
    4.4291    4.4911   -1.1793 H   0  0  0  0  0  0  0  0  0  0  0  0
    2.8160    5.0275   -1.7217 H   0  0  0  0  0  0  0  0  0  0  0  0
    3.1623    4.8785    0.0219 H   0  0  0  0  0  0  0  0  0  0  0  0
    1.6213    2.5006   -0.5019 C   0  0  0  0  0  3  0  0  0  0  0  0
    0.5276    3.2287   -0.0408 C   0  0  0  0  0  3  0  0  0  0  0  0
    0.6536    4.3125    0.1013 H   0  0  0  0  0  0  0  0  0  0  0  0
   -0.7591    2.7021    0.1639 C   0  0  0  0  0  3  0  0  0  0  0  0
   -1.9471    3.4513    0.4932 C   0  0  0  0  0  0  0  0  0  0  0  0
   -1.9848    4.9219    0.7706 C   0  0  0  0  0  0  0  0  0  0  0  0
   -3.0210    5.2715    0.9400 H   0  0  0  0  0  0  0  0  0  0  0  0
   -1.3963    5.1876    1.6744 H   0  0  0  0  0  0  0  0  0  0  0  0
   -1.5689    5.5150   -0.0714 H   0  0  0  0  0  0  0  0  0  0  0  0
   -3.0118    2.5458    0.4738 C   0  0  0  0  0  0  0  0  0  0  0  0
   -4.4583    2.8383    0.7510 C   0  0  0  0  0  0  0  0  0  0  0  0
   -5.0802    2.3311   -0.0124 H   0  0  0  0  0  0  0  0  0  0  0  0
   -4.6290    3.9308    0.6469 H   0  0  0  0  0  0  0  0  0  0  0  0
   -4.9181    2.3762    2.1425 C   0  0  0  0  0  0  0  0  0  0  0  0
   -5.9823    2.6368    2.3148 H   0  0  0  0  0  0  0  0  0  0  0  0
   -4.8225    1.2767    2.2336 H   0  0  0  0  0  0  0  0  0  0  0  0
   -4.3136    2.8470    2.9447 H   0  0  0  0  0  0  0  0  0  0  0  0
   -2.4359    1.2569    0.1610 C   0  0  0  0  0  0  0  0  0  0  0  0
   -3.1850   -0.0000    0.0000 C   0  0  0  0  0  0  0  0  0  0  0  0
   -2.4359   -1.2569   -0.1610 C   0  0  0  0  0  3  0  0  0  0  0  0
   -3.0118   -2.5458   -0.4738 C   0  0  0  0  0  0  0  0  0  0  0  0
   -4.4583   -2.8383   -0.7509 C   0  0  0  0  0  0  0  0  0  0  0  0
   -5.0802   -2.3311    0.0124 H   0  0  0  0  0  0  0  0  0  0  0  0
   -4.6290   -3.9309   -0.6468 H   0  0  0  0  0  0  0  0  0  0  0  0
   -4.9180   -2.3763   -2.1425 C   0  0  0  0  0  0  0  0  0  0  0  0
   -5.9823   -2.6369   -2.3148 H   0  0  0  0  0  0  0  0  0  0  0  0
   -4.8224   -1.2768   -2.2336 H   0  0  0  0  0  0  0  0  0  0  0  0
   -4.3136   -2.8471   -2.9447 H   0  0  0  0  0  0  0  0  0  0  0  0
   -1.9471   -3.4513   -0.4932 C   0  0  0  0  0  0  0  0  0  0  0  0
   -0.7591   -2.7021   -0.1638 C   0  0  0  0  0  0  0  0  0  0  0  0
    0.5276   -3.2287    0.0408 C   0  0  0  0  0  3  0  0  0  0  0  0
    0.6536   -4.3125   -0.1013 H   0  0  0  0  0  0  0  0  0  0  0  0
    1.6213   -2.5006    0.5019 C   0  0  0  0  0  0  0  0  0  0  0  0
    2.8892   -2.9841    0.9971 C   0  0  0  0  0  0  0  0  0  0  0  0
    3.3458   -4.4080    0.9657 C   0  0  0  0  0  0  0  0  0  0  0  0
    4.4294   -4.4909    1.1783 H   0  0  0  0  0  0  0  0  0  0  0  0
    2.8168   -5.0273    1.7224 H   0  0  0  0  0  0  0  0  0  0  0  0
    3.1615   -4.8788   -0.0216 H   0  0  0  0  0  0  0  0  0  0  0  0
    3.5275   -1.8770    1.5698 C   0  0  0  0  0  0  0  0  0  0  0  0
    4.8448   -1.8216    2.2788 C   0  0  0  0  0  0  0  0  0  0  0  0
    5.3914   -2.7812    2.1996 H   0  0  0  0  0  0  0  0  0  0  0  0
    5.5022   -1.0266    1.8679 H   0  0  0  0  0  0  0  0  0  0  0  0
    4.7228   -1.6030    3.3622 H   0  0  0  0  0  0  0  0  0  0  0  0
    2.6499   -0.7474    1.3866 C   0  0  0  0  0  3  0  0  0  0  0  0
    2.8866    0.6298    1.9106 C   0  0  0  0  0  0  0  0  0  0  0  0
    1.9388    1.1892    2.0074 H   0  0  0  0  0  0  0  0  0  0  0  0
    3.3750    0.5815    2.9048 H   0  0  0  0  0  0  0  0  0  0  0  0
    3.5540    1.2227    1.2471 H   0  0  0  0  0  0  0  0  0  0  0  0
   -4.4318    0.0000   -0.0001 O   0  0  0  0  0  0  0  0  0  0  0  0
   -1.9848   -4.9219   -0.7705 C   0  0  0  0  0  0  0  0  0  0  0  0
   -3.0209   -5.2715   -0.9400 H   0  0  0  0  0  0  0  0  0  0  0  0
   -1.3962   -5.1877   -1.6743 H   0  0  0  0  0  0  0  0  0  0  0  0
   -1.5690   -5.5151    0.0716 H   0  0  0  0  0  0  0  0  0  0  0  0
  1 20  1  0  0  0  0
  2 37  2  0  0  0  0
  2 23  1  0  0  0  0
  4 63  1  0  0  0  0
  5  1  2  0  0  0  0
  6  5  1  0  0  0  0
  6  9  1  0  0  0  0
  7  6  1  0  0  0  0
  8  6  1  0  0  0  0
 10  5  1  0  0  0  0
 10 15  2  0  0  0  0
 11 12  1  0  0  0  0
 11 13  1  0  0  0  0
 11 10  1  0  0  0  0
 14 11  1  0  0  0  0
 15 16  1  0  0  0  0
 15 20  1  0  0  0  0
 16 19  1  0  0  0  0
 17 16  1  0  0  0  0
 18 16  1  0  0  0  0
 20 21  1  0  0  0  0
 21 22  1  0  0  0  0
 21 23  1  0  0  0  0
 23 24  1  0  0  0  0
 24 25  1  0  0  0  0
 25 26  1  0  0  0  0
 25 27  1  0  0  0  0
 28 25  1  0  0  0  0
 29 24  2  0  0  0  0
 29 30  1  0  0  0  0
 30 33  1  0  0  0  0
 31 30  1  0  0  0  0
 32 30  1  0  0  0  0
 33 35  1  0  0  0  0
 33 34  1  0  0  0  0
 33 36  1  0  0  0  0
 37 29  1  0  0  0  0
 38 37  1  0  0  0  0
 39 38  1  0  0  0  0
 39  3  1  0  0  0  0
 40 39  1  0  0  0  0
 41 43  1  0  0  0  0
 41 40  1  0  0  0  0
 41 42  1  0  0  0  0
 44 41  1  0  0  0  0
 45 44  1  0  0  0  0
 46 44  1  0  0  0  0
 47 44  1  0  0  0  0
 48 40  2  0  0  0  0
 48 49  1  0  0  0  0
 49  3  2  0  0  0  0
 49 50  1  0  0  0  0
 50 52  1  0  0  0  0
 51 50  1  0  0  0  0
 52  4  2  0  0  0  0
 52 53  1  0  0  0  0
 53 58  2  0  0  0  0
 54 53  1  0  0  0  0
 54 55  1  0  0  0  0
 54 56  1  0  0  0  0
 57 54  1  0  0  0  0
 58 59  1  0  0  0  0
 59 62  1  0  0  0  0
 60 59  1  0  0  0  0
 61 59  1  0  0  0  0
 63 58  1  0  0  0  0
 63 64  1  0  0  0  0
 64 65  1  0  0  0  0
 64 66  1  0  0  0  0
 67 64  1  0  0  0  0
 68 38  2  0  0  0  0
 69 48  1  0  0  0  0
 69 72  1  0  0  0  0
 70 69  1  0  0  0  0
 71 69  1  0  0  0  0
M  END
