2,3,4,5
q = 0.0, confidence = 1.0

 41 42  0  0  1  0  0  0  0  0999 V2000
    1.2988   -1.6230   -0.1884 N   0  0  0  0  0  0  0  0  0  0  0  0
   -0.4042   -0.6779    1.9407 N   0  0  0  0  0  0  0  0  0  0  0  0
   -2.6337   -0.0275    0.2575 N   0  0  0  0  0  0  0  0  0  0  0  0
   -0.9143   -0.8346   -1.8927 N   0  0  0  0  0  0  0  0  0  0  0  0
    1.6561    0.6639   -0.2248 N   0  0  0  0  0  2  0  0  0  0  0  0
    1.1498   -2.4146    1.0285 C   0  0  0  0  0  0  0  0  0  0  0  0
    0.7706   -1.5222    2.2187 C   0  0  0  0  0  0  0  0  0  0  0  0
   -1.7094   -1.3302    2.1398 C   0  0  0  0  0  0  0  0  0  0  0  0
   -2.8374   -0.4126    1.6614 C   0  0  0  0  0  0  0  0  0  0  0  0
   -3.1185   -0.9594   -0.7682 C   0  0  0  0  0  0  0  0  0  0  0  0
   -2.3748   -0.7075   -2.0827 C   0  0  0  0  0  0  0  0  0  0  0  0
   -0.4111   -2.2168   -1.8871 C   0  0  0  0  0  0  0  0  0  0  0  0
    1.0663   -2.2653   -1.4835 C   0  0  0  0  0  0  0  0  0  0  0  0
    2.2378   -0.5526   -0.1545 C   0  0  1  0  0  3  0  0  0  0  0  0
    2.4091    1.7786   -0.2162 C   0  0  0  0  0  0  0  0  0  0  0  0
    3.8060    1.7155   -0.1224 C   0  0  0  0  0  0  0  0  0  0  0  0
    4.4214    0.4572   -0.0330 C   0  0  0  0  0  0  0  0  0  0  0  0
    3.6282   -0.7018   -0.0490 C   0  0  0  0  0  0  0  0  0  0  0  0
    2.0673   -2.9931    1.2960 H   0  0  0  0  0  0  0  0  0  0  0  0
    0.3555   -3.1670    0.8418 H   0  0  0  0  0  0  0  0  0  0  0  0
    0.6223   -2.1586    3.1196 H   0  0  0  0  0  0  0  0  0  0  0  0
    1.6183   -0.8450    2.4470 H   0  0  0  0  0  0  0  0  0  0  0  0
   -0.3620    0.1665    2.5288 H   0  0  0  0  0  0  0  0  0  0  0  0
   -1.7141   -2.2784    1.5610 H   0  0  0  0  0  0  0  0  0  0  0  0
   -1.8799   -1.6100    3.2038 H   0  0  0  0  0  0  0  0  0  0  0  0
   -3.8205   -0.9045    1.8331 H   0  0  0  0  0  0  0  0  0  0  0  0
   -2.8281    0.5191    2.2628 H   0  0  0  0  0  0  0  0  0  0  0  0
   -3.0188    0.9090    0.0845 H   0  0  0  0  0  0  0  0  0  0  0  0
   -2.9360   -1.9957   -0.4144 H   0  0  0  0  0  0  0  0  0  0  0  0
   -4.2151   -0.8779   -0.9374 H   0  0  0  0  0  0  0  0  0  0  0  0
   -2.5709    0.3305   -2.4193 H   0  0  0  0  0  0  0  0  0  0  0  0
   -2.7527   -1.3952   -2.8711 H   0  0  0  0  0  0  0  0  0  0  0  0
   -0.4369   -0.2971   -2.6296 H   0  0  0  0  0  0  0  0  0  0  0  0
   -0.5445   -2.7134   -2.8750 H   0  0  0  0  0  0  0  0  0  0  0  0
   -1.0129   -2.7993   -1.1586 H   0  0  0  0  0  0  0  0  0  0  0  0
    1.4173   -3.3220   -1.4931 H   0  0  0  0  0  0  0  0  0  0  0  0
    1.6733   -1.7343   -2.2461 H   0  0  0  0  0  0  0  0  0  0  0  0
    1.8736    2.7388   -0.2778 H   0  0  0  0  0  0  0  0  0  0  0  0
    4.3989    2.6410   -0.1152 H   0  0  0  0  0  0  0  0  0  0  0  0
    5.5162    0.3773    0.0437 H   0  0  0  0  0  0  0  0  0  0  0  0
    4.0772   -1.7038    0.0113 H   0  0  0  0  0  0  0  0  0  0  0  0
  1  6  1  0  0  0  0
  2  8  1  0  0  0  0
  2  7  1  0  0  0  0
  2 23  1  0  0  0  0
  3  9  1  0  0  0  0
  4 12  1  0  0  0  0
  5 15  1  0  0  0  0
  5 14  1  0  0  0  0
  6 19  1  0  0  0  0
  6  7  1  0  0  0  0
  7 22  1  0  0  0  0
  7 21  1  0  0  0  0
  8 25  1  0  0  0  0
  9 26  1  0  0  0  0
  9  8  1  0  0  0  0
  9 27  1  0  0  0  0
 10 29  1  0  0  0  0
 10  3  1  0  0  0  0
 11  4  1  0  0  0  0
 11 10  1  0  0  0  0
 12 13  1  0  0  0  0
 12 35  1  0  0  0  0
 13  1  1  0  0  0  0
 14  1  1  1  0  0  0
 14 18  1  0  0  0  0
 15 16  2  0  0  0  0
 16 39  1  0  0  0  0
 16 17  1  0  0  0  0
 17 40  1  0  0  0  0
 18 17  2  0  0  0  0
 18 41  1  0  0  0  0
 20  6  1  0  0  0  0
 24  8  1  0  0  0  0
 28  3  1  0  0  0  0
 30 10  1  0  0  0  0
 31 11  1  0  0  0  0
 32 11  1  0  0  0  0
 33  4  1  0  0  0  0
 34 12  1  0  0  0  0
 36 13  1  0  0  0  0
 37 13  1  0  0  0  0
 38 15  1  0  0  0  0
M  END
