1,2,3,5
q = 0.0, confidence = 0.932

 43 44  0  0  1  0  0  0  0  0999 V2000
    0.4138    1.7725    0.2379 N   0  0  0  0  0  2  0  0  0  0  0  0
   -0.6736   -1.8996    0.1708 N   0  0  0  0  0  2  0  0  0  0  0  0
   -1.5812    0.3245   -0.0197 N   0  0  0  0  0  2  0  0  0  0  0  0
    3.2861    1.2640   -0.5818 N   0  0  0  0  0  0  0  0  0  0  0  0
    2.0130   -1.4466    0.0274 N   0  0  0  0  0  0  0  0  0  0  0  0
   -0.6954    2.4677    0.0536 C   0  0  1  0  0  3  0  0  0  0  0  0
   -2.5637   -0.6385   -0.0917 C   0  0  0  0  0  0  0  0  0  0  0  0
   -1.9927   -1.9581    0.0718 C   0  0  0  0  0  0  0  0  0  0  0  0
   -1.8827    1.6537   -0.1378 C   0  0  0  0  0  0  0  0  0  0  0  0
   -3.2098    2.0642   -0.3574 C   0  0  0  0  0  0  0  0  0  0  0  0
   -3.4456    3.1312   -0.4667 H   0  0  0  0  0  0  0  0  0  0  0  0
    3.1634   -1.2209   -0.8853 C   0  0  0  0  0  0  0  0  0  0  0  0
    2.7333   -1.1367   -1.9048 H   0  0  0  0  0  0  0  0  0  0  0  0
    3.8212   -2.1221   -0.8746 H   0  0  0  0  0  0  0  0  0  0  0  0
   -3.9048   -0.2624   -0.2915 C   0  0  0  0  0  0  0  0  0  0  0  0
   -4.6870   -1.0323   -0.3415 H   0  0  0  0  0  0  0  0  0  0  0  0
    4.0177    0.0120   -0.6008 C   0  0  0  0  0  0  0  0  0  0  0  0
    4.5608   -0.0997    0.3636 H   0  0  0  0  0  0  0  0  0  0  0  0
    4.8086    0.0255   -1.3863 H   0  0  0  0  0  0  0  0  0  0  0  0
    1.6005    2.5270    0.6491 C   0  0  0  0  0  0  0  0  0  0  0  0
    1.3976    2.9981    1.6361 H   0  0  0  0  0  0  0  0  0  0  0  0
    1.7884    3.3549   -0.0723 H   0  0  0  0  0  0  0  0  0  0  0  0
    1.4870   -2.8041   -0.2482 C   0  0  0  0  0  0  0  0  0  0  0  0
    2.2323   -3.5866    0.0204 H   0  0  0  0  0  0  0  0  0  0  0  0
    1.3171   -2.8589   -1.3429 H   0  0  0  0  0  0  0  0  0  0  0  0
    2.8417    1.6714    0.7419 C   0  0  0  0  0  0  0  0  0  0  0  0
    3.6338    2.2751    1.2440 H   0  0  0  0  0  0  0  0  0  0  0  0
    2.6154    0.8257    1.4334 H   0  0  0  0  0  0  0  0  0  0  0  0
    0.1672   -3.0414    0.4653 C   0  0  0  0  0  0  0  0  0  0  0  0
   -0.2789   -4.0059    0.1436 H   0  0  0  0  0  0  0  0  0  0  0  0
    0.3129   -3.0788    1.5687 H   0  0  0  0  0  0  0  0  0  0  0  0
   -4.2243    1.0959   -0.4324 C   0  0  0  0  0  0  0  0  0  0  0  0
   -5.2664    1.4024   -0.6008 H   0  0  0  0  0  0  0  0  0  0  0  0
   -0.7608    3.9638    0.1289 C   0  0  0  0  0  0  0  0  0  0  0  0
   -0.0304    4.4311   -0.5630 H   0  0  0  0  0  0  0  0  0  0  0  0
   -0.5077    4.3223    1.1493 H   0  0  0  0  0  0  0  0  0  0  0  0
   -1.7656    4.3440   -0.1242 H   0  0  0  0  0  0  0  0  0  0  0  0
   -2.7939   -3.2203    0.1772 C   0  0  0  0  0  0  0  0  0  0  0  0
   -2.4510   -3.9845   -0.5506 H   0  0  0  0  0  0  0  0  0  0  0  0
   -3.8649   -3.0322   -0.0174 H   0  0  0  0  0  0  0  0  0  0  0  0
   -2.7104   -3.6674    1.1904 H   0  0  0  0  0  0  0  0  0  0  0  0
    2.3245   -1.4018    1.0107 H   0  0  0  0  0  0  0  0  0  0  0  0
    2.4882    1.2003   -1.2287 H   0  0  0  0  0  0  0  0  0  0  0  0
  1 20  1  0  0  0  0
  2 29  1  0  0  0  0
  4 26  1  0  0  0  0
  5 42  1  0  0  0  0
  6 34  1  1  0  0  0
  6  1  1  0  0  0  0
  7  3  1  0  0  0  0
  7  8  2  0  0  0  0
  8  2  1  0  0  0  0
  8 38  1  0  0  0  0
  9  3  1  0  0  0  0
  9  6  1  0  0  0  0
 10  9  2  0  0  0  0
 11 10  1  0  0  0  0
 12 14  1  0  0  0  0
 12 17  1  0  0  0  0
 12  5  1  0  0  0  0
 13 12  1  0  0  0  0
 15  7  1  0  0  0  0
 16 15  1  0  0  0  0
 17  4  1  0  0  0  0
 17 18  1  0  0  0  0
 19 17  1  0  0  0  0
 20 26  1  0  0  0  0
 20 21  1  0  0  0  0
 22 20  1  0  0  0  0
 23 24  1  0  0  0  0
 23  5  1  0  0  0  0
 23 29  1  0  0  0  0
 25 23  1  0  0  0  0
 26 27  1  0  0  0  0
 26 28  1  0  0  0  0
 29 31  1  0  0  0  0
 30 29  1  0  0  0  0
 32 10  1  0  0  0  0
 32 15  2  0  0  0  0
 33 32  1  0  0  0  0
 34 36  1  0  0  0  0
 35 34  1  0  0  0  0
 37 34  1  0  0  0  0
 38 41  1  0  0  0  0
 39 38  1  0  0  0  0
 40 38  1  0  0  0  0
 43  4  1  0  0  0  0
M  END
