1,14,24,35
q = -1.0

 47 49  0  0  1  0  0  0  0  0999 V2000
    0.9419    0.1240   -0.0877 N   0  0  0  0  0  2  0  0  0  0  0  0
    1.8260   -0.8855   -0.4351 C   0  0  1  0  0  3  0  0  0  0  0  0
    2.9966   -0.6079   -1.1926 C   0  0  0  0  0  0  0  0  0  0  0  0
    3.1788    0.4249   -1.5216 H   0  0  0  0  0  0  0  0  0  0  0  0
    3.8867   -1.6217   -1.5411 C   0  0  0  0  0  0  0  0  0  0  0  0
    4.7667   -1.3749   -2.1543 H   0  0  0  0  0  0  0  0  0  0  0  0
    3.6695   -2.9570   -1.1300 C   0  0  0  0  0  0  0  0  0  0  0  0
    4.3810   -3.7473   -1.4073 H   0  0  0  0  0  0  0  0  0  0  0  0
    2.5426   -3.2549   -0.3730 C   0  0  0  0  0  0  0  0  0  0  0  0
    2.3574   -4.2858   -0.0338 H   0  0  0  0  0  0  0  0  0  0  0  0
    1.6018   -2.2461   -0.0322 C   0  0  0  0  0  0  0  0  0  0  0  0
    0.4990   -2.5535    0.8263 C   0  0  0  0  0  0  0  0  0  0  0  0
    0.5682   -3.4691    1.4472 H   0  0  0  0  0  0  0  0  0  0  0  0
   -0.5604   -1.7927    0.9567 N   0  0  0  0  0  2  0  0  0  0  0  0
   -1.5241   -2.1211    2.0297 C   0  0  0  0  0  0  0  0  0  0  0  0
   -0.9679   -2.4222    2.9405 H   0  0  0  0  0  0  0  0  0  0  0  0
   -2.1421   -3.0020    1.7346 H   0  0  0  0  0  0  0  0  0  0  0  0
   -2.4118   -0.9175    2.3375 C   0  0  0  0  0  0  0  0  0  0  0  0
   -2.9843   -1.1077    3.2674 H   0  0  0  0  0  0  0  0  0  0  0  0
   -1.7601   -0.0415    2.5391 H   0  0  0  0  0  0  0  0  0  0  0  0
   -3.3970   -0.6107    1.2062 C   0  0  0  0  0  0  0  0  0  0  0  0
   -4.3093   -1.2430    1.2956 H   0  0  0  0  0  0  0  0  0  0  0  0
   -3.7265    0.4451    1.2484 H   0  0  0  0  0  0  0  0  0  0  0  0
   -2.7797   -0.8569   -0.1267 N   0  0  0  0  0  0  0  0  0  0  0  0
   -2.6387   -1.8744   -0.2069 H   0  0  0  0  0  0  0  0  0  0  0  0
   -3.6668   -0.4842   -1.2574 C   0  0  0  0  0  0  0  0  0  0  0  0
   -4.6997   -0.8339   -1.0376 H   0  0  0  0  0  0  0  0  0  0  0  0
   -3.3136   -1.0422   -2.1488 H   0  0  0  0  0  0  0  0  0  0  0  0
   -3.6509    1.0063   -1.5522 C   0  0  0  0  0  0  0  0  0  0  0  0
   -3.9882    1.5938   -0.6722 H   0  0  0  0  0  0  0  0  0  0  0  0
   -4.3863    1.2082   -2.3571 H   0  0  0  0  0  0  0  0  0  0  0  0
   -2.2826    1.4935   -2.0125 C   0  0  0  0  0  0  0  0  0  0  0  0
   -1.9548    0.8990   -2.8943 H   0  0  0  0  0  0  0  0  0  0  0  0
   -2.3531    2.5482   -2.3528 H   0  0  0  0  0  0  0  0  0  0  0  0
   -1.2415    1.3875   -0.9859 N   0  0  0  0  0  2  0  0  0  0  0  0
   -0.5511    2.4752   -0.7315 C   0  0  0  0  0  0  0  0  0  0  0  0
   -0.8962    3.4191   -1.1985 H   0  0  0  0  0  0  0  0  0  0  0  0
    0.6390    2.5462    0.0582 C   0  0  0  0  0  0  0  0  0  0  0  0
    1.1291    3.8147    0.4711 C   0  0  0  0  0  0  0  0  0  0  0  0
    0.5299    4.7101    0.2441 H   0  0  0  0  0  0  0  0  0  0  0  0
    2.3352    3.9317    1.1512 C   0  0  0  0  0  0  0  0  0  0  0  0
    2.6982    4.9149    1.4814 H   0  0  0  0  0  0  0  0  0  0  0  0
    3.0889    2.7642    1.4136 C   0  0  0  0  0  0  0  0  0  0  0  0
    4.0380    2.8398    1.9659 H   0  0  0  0  0  0  0  0  0  0  0  0
    2.6457    1.5110    0.9979 C   0  0  0  0  0  0  0  0  0  0  0  0
    3.2415    0.6153    1.2213 H   0  0  0  0  0  0  0  0  0  0  0  0
    1.4069    1.3602    0.3127 C   0  0  1  0  0  3  0  0  0  0  0  0
  2  3  1  1  0  0  0
  2  1  1  0  0  0  0
  2 11  1  0  0  0  0
  4  3  1  0  0  0  0
  5  3  2  0  0  0  0
  5  7  1  0  0  0  0
  6  5  1  0  0  0  0
  7  9  2  0  0  0  0
  8  7  1  0  0  0  0
  9 10  1  0  0  0  0
  9 11  1  0  0  0  0
 11 12  2  0  0  0  0
 12 14  1  0  0  0  0
 12 13  1  0  0  0  0
 14 15  1  0  0  0  0
 15 18  1  0  0  0  0
 15 16  1  0  0  0  0
 17 15  1  0  0  0  0
 18 20  1  0  0  0  0
 18 19  1  0  0  0  0
 21 23  1  0  0  0  0
 21 22  1  0  0  0  0
 21 18  1  0  0  0  0
 24 21  1  0  0  0  0
 25 24  1  0  0  0  0
 26 27  1  0  0  0  0
 26 24  1  0  0  0  0
 28 26  1  0  0  0  0
 29 26  1  0  0  0  0
 29 30  1  0  0  0  0
 31 29  1  0  0  0  0
 32 29  1  0  0  0  0
 32 35  1  0  0  0  0
 33 32  1  0  0  0  0
 34 32  1  0  0  0  0
 35 36  1  0  0  0  0
 36 38  2  0  0  0  0
 37 36  1  0  0  0  0
 38 47  1  0  0  0  0
 38 39  1  0  0  0  0
 39 41  2  0  0  0  0
 40 39  1  0  0  0  0
 41 43  1  0  0  0  0
 41 42  1  0  0  0  0
 43 44  1  0  0  0  0
 45 46  1  0  0  0  0
 45 43  2  0  0  0  0
 47  1  1  1  0  0  0
 47 45  1  0  0  0  0
M  END
