1,15,23,31
q = -1.0

 43 45  0  0  1  0  0  0  0  0999 V2000
   -0.7213   -0.0146    0.0019 N   0  0  0  0  0  2  0  0  0  0  0  0
   -1.3021    1.2507   -0.2613 C   0  0  0  0  0  0  0  0  0  0  0  0
   -2.3039    1.4067   -1.2473 C   0  0  0  0  0  0  0  0  0  0  0  0
   -2.6327    0.5256   -1.8173 H   0  0  0  0  0  0  0  0  0  0  0  0
   -2.8779    2.6605   -1.4861 C   0  0  0  0  0  0  0  0  0  0  0  0
   -3.6589    2.7600   -2.2547 H   0  0  0  0  0  0  0  0  0  0  0  0
   -2.4552    3.7890   -0.7629 C   0  0  0  0  0  0  0  0  0  0  0  0
   -2.9057    4.7735   -0.9536 H   0  0  0  0  0  0  0  0  0  0  0  0
   -1.4390    3.6520    0.1936 C   0  0  0  0  0  0  0  0  0  0  0  0
   -1.0872    4.5313    0.7560 H   0  0  0  0  0  0  0  0  0  0  0  0
   -0.8652    2.3965    0.4530 C   0  0  0  0  0  0  0  0  0  0  0  0
    0.2846    2.2130    1.3967 C   0  0  0  0  0  0  0  0  0  0  0  0
    0.5508    3.1630    1.9065 H   0  0  0  0  0  0  0  0  0  0  0  0
    0.0745    1.4405    2.1657 H   0  0  0  0  0  0  0  0  0  0  0  0
    1.4312    1.7202    0.5827 N   0  0  0  0  0  0  0  0  0  0  0  0
    1.5615    2.4058   -0.1825 H   0  0  0  0  0  0  0  0  0  0  0  0
    2.7120    1.5597    1.3119 C   0  0  0  0  0  0  0  0  0  0  0  0
    2.5448    0.8316    2.1316 H   0  0  0  0  0  0  0  0  0  0  0  0
    3.0459    2.5139    1.7762 H   0  0  0  0  0  0  0  0  0  0  0  0
    3.7331    1.0366    0.3081 C   0  0  0  0  0  0  0  0  0  0  0  0
    4.0468    1.8479   -0.3803 H   0  0  0  0  0  0  0  0  0  0  0  0
    4.6493    0.6639    0.8085 H   0  0  0  0  0  0  0  0  0  0  0  0
    3.0803   -0.0404   -0.4958 N   0  0  0  0  0  0  0  0  0  0  0  0
    3.2212    0.1623   -1.4981 H   0  0  0  0  0  0  0  0  0  0  0  0
    3.5358   -1.4337   -0.2596 C   0  0  0  0  0  0  0  0  0  0  0  0
    3.5054   -1.6256    0.8316 H   0  0  0  0  0  0  0  0  0  0  0  0
    4.5758   -1.5919   -0.6181 H   0  0  0  0  0  0  0  0  0  0  0  0
    2.5292   -2.3162   -0.9815 C   0  0  0  0  0  0  0  0  0  0  0  0
    2.6424   -2.1966   -2.0841 H   0  0  0  0  0  0  0  0  0  0  0  0
    2.6913   -3.3899   -0.7514 H   0  0  0  0  0  0  0  0  0  0  0  0
    1.1982   -1.8660   -0.5626 N   0  0  0  0  0  2  0  0  0  0  0  0
    0.2361   -2.7476   -0.3872 C   0  0  0  0  0  0  0  0  0  0  0  0
    0.4848   -3.8128   -0.5599 H   0  0  0  0  0  0  0  0  0  0  0  0
   -1.0871   -2.4508    0.0317 C   0  0  0  0  0  0  0  0  0  0  0  0
   -1.9763   -3.5436    0.2686 C   0  0  0  0  0  0  0  0  0  0  0  0
   -1.5965   -4.5653    0.1124 H   0  0  0  0  0  0  0  0  0  0  0  0
   -3.2787   -3.3385    0.6875 C   0  0  0  0  0  0  0  0  0  0  0  0
   -3.9523   -4.1873    0.8695 H   0  0  0  0  0  0  0  0  0  0  0  0
   -3.7233   -2.0078    0.8933 C   0  0  0  0  0  0  0  0  0  0  0  0
   -4.7474   -1.8252    1.2534 H   0  0  0  0  0  0  0  0  0  0  0  0
   -2.8896   -0.9217    0.6648 C   0  0  0  0  0  0  0  0  0  0  0  0
   -3.2607    0.0952    0.8482 H   0  0  0  0  0  0  0  0  0  0  0  0
   -1.5416   -1.0935    0.2162 C   0  0  1  0  0  3  0  0  0  0  0  0
  2  1  1  0  0  0  0
  2 11  1  0  0  0  0
  3  2  2  0  0  0  0
  4  3  1  0  0  0  0
  5  3  1  0  0  0  0
  5  7  2  0  0  0  0
  6  5  1  0  0  0  0
  7  9  1  0  0  0  0
  8  7  1  0  0  0  0
  9 11  2  0  0  0  0
  9 10  1  0  0  0  0
 11 12  1  0  0  0  0
 12 13  1  0  0  0  0
 12 14  1  0  0  0  0
 15 17  1  0  0  0  0
 15 12  1  0  0  0  0
 16 15  1  0  0  0  0
 17 19  1  0  0  0  0
 17 18  1  0  0  0  0
 20 22  1  0  0  0  0
 20 17  1  0  0  0  0
 21 20  1  0  0  0  0
 23 25  1  0  0  0  0
 23 20  1  0  0  0  0
 24 23  1  0  0  0  0
 25 26  1  0  0  0  0
 27 25  1  0  0  0  0
 28 30  1  0  0  0  0
 28 31  1  0  0  0  0
 28 25  1  0  0  0  0
 29 28  1  0  0  0  0
 31 32  1  0  0  0  0
 32 34  2  0  0  0  0
 33 32  1  0  0  0  0
 34 43  1  0  0  0  0
 34 35  1  0  0  0  0
 35 37  2  0  0  0  0
 36 35  1  0  0  0  0
 37 38  1  0  0  0  0
 37 39  1  0  0  0  0
 39 40  1  0  0  0  0
 41 42  1  0  0  0  0
 41 39  2  0  0  0  0
 43  1  1  1  0  0  0
 43 41  1  0  0  0  0
M  END
