3,4,5,6
q = -1.0

 57 57  0  0  1  0  0  0  0  0999 V2000
   -2.9511    2.6961   -0.2501 O   0  0  0  0  0  0  0  0  0  0  0  0
   -4.1726    0.6049   -0.3112 O   0  0  0  0  0  1  0  0  0  0  0  0
   -1.7304    2.2095   -0.0569 N   0  0  0  0  0  2  0  0  0  0  0  0
   -1.0087   -1.5134    0.2367 N   0  0  0  0  0  2  0  0  0  0  0  0
    0.3914    0.9001    0.3616 N   0  0  0  0  0  2  0  0  0  0  0  0
   -3.1758   -0.2400   -0.1381 N   0  0  0  0  0  2  0  0  0  0  0  0
   -0.7646    3.0190    0.2966 C   0  0  1  0  0  3  0  0  0  0  0  0
    0.5764    2.3594    0.5339 C   0  0  0  0  0  0  0  0  0  0  0  0
    2.7576   -2.1040    0.6190 C   0  0  0  0  0  0  0  0  0  0  0  0
    6.3433   -0.0458   -0.7179 C   0  0  0  0  0  0  0  0  0  0  0  0
    5.4619   -0.6171   -1.6507 C   0  0  0  0  0  0  0  0  0  0  0  0
    1.4728   -1.3322    0.2460 C   0  0  1  0  0  0  0  0  0  0  0  0
    4.9198   -0.8427    1.0856 C   0  0  0  0  0  0  0  0  0  0  0  0
   -3.4233   -1.4981    0.1406 C   0  0  2  0  0  3  0  0  0  0  0  0
   -2.2085   -2.3773    0.3453 C   0  0  0  0  0  0  0  0  0  0  0  0
    4.3159   -1.2963   -1.2136 C   0  0  0  0  0  0  0  0  0  0  0  0
    0.2354   -2.1139    0.6889 C   0  0  0  0  0  0  0  0  0  0  0  0
    1.4876    0.0754    0.8399 C   0  0  0  0  0  0  0  0  0  0  0  0
    6.0695   -0.1629    0.6532 C   0  0  0  0  0  0  0  0  0  0  0  0
    4.0250   -1.4181    0.1616 C   0  0  0  0  0  0  0  0  0  0  0  0
    1.0513    2.7071    1.9645 C   0  0  0  0  0  0  0  0  0  0  0  0
    0.3590    2.2778    2.7155 H   0  0  0  0  0  0  0  0  0  0  0  0
    1.0974    3.8033    2.1138 H   0  0  0  0  0  0  0  0  0  0  0  0
    2.0665    2.3077    2.1511 H   0  0  0  0  0  0  0  0  0  0  0  0
   -2.1847   -3.4539   -0.7689 C   0  0  0  0  0  0  0  0  0  0  0  0
   -2.1149   -2.9659   -1.7606 H   0  0  0  0  0  0  0  0  0  0  0  0
   -3.0939   -4.0874   -0.7431 H   0  0  0  0  0  0  0  0  0  0  0  0
   -1.3098   -4.1231   -0.6435 H   0  0  0  0  0  0  0  0  0  0  0  0
    1.5847    2.8882   -0.5172 C   0  0  0  0  0  0  0  0  0  0  0  0
    2.5762    2.4145   -0.3715 H   0  0  0  0  0  0  0  0  0  0  0  0
    1.7224    3.9852   -0.4370 H   0  0  0  0  0  0  0  0  0  0  0  0
    1.2269    2.6430   -1.5362 H   0  0  0  0  0  0  0  0  0  0  0  0
   -1.0313    4.4796    0.4326 C   0  0  0  0  0  0  0  0  0  0  0  0
   -1.4651    4.8716   -0.5111 H   0  0  0  0  0  0  0  0  0  0  0  0
   -0.1237    5.0540    0.6895 H   0  0  0  0  0  0  0  0  0  0  0  0
   -1.8082    4.6497    1.2080 H   0  0  0  0  0  0  0  0  0  0  0  0
   -4.8366   -1.9670    0.2173 C   0  0  0  0  0  0  0  0  0  0  0  0
   -5.3819   -1.3915    0.9951 H   0  0  0  0  0  0  0  0  0  0  0  0
   -4.9158   -3.0473    0.4343 H   0  0  0  0  0  0  0  0  0  0  0  0
   -5.3599   -1.7406   -0.7358 H   0  0  0  0  0  0  0  0  0  0  0  0
   -2.3071   -3.0419    1.7385 C   0  0  0  0  0  0  0  0  0  0  0  0
   -1.4811   -3.7620    1.8962 H   0  0  0  0  0  0  0  0  0  0  0  0
   -3.2556   -3.6033    1.8444 H   0  0  0  0  0  0  0  0  0  0  0  0
   -2.2628   -2.2731    2.5352 H   0  0  0  0  0  0  0  0  0  0  0  0
    6.7552    0.2783    1.3929 H   0  0  0  0  0  0  0  0  0  0  0  0
    4.7070   -0.9289    2.1634 H   0  0  0  0  0  0  0  0  0  0  0  0
    7.2433    0.4872   -1.0603 H   0  0  0  0  0  0  0  0  0  0  0  0
    0.3206   -3.1511    0.2841 H   0  0  0  0  0  0  0  0  0  0  0  0
    3.6296   -1.7391   -1.9532 H   0  0  0  0  0  0  0  0  0  0  0  0
    0.2676   -2.2178    1.8022 H   0  0  0  0  0  0  0  0  0  0  0  0
    2.6973   -3.1181    0.1685 H   0  0  0  0  0  0  0  0  0  0  0  0
    2.7923   -2.2520    1.7198 H   0  0  0  0  0  0  0  0  0  0  0  0
    5.6702   -0.5341   -2.7284 H   0  0  0  0  0  0  0  0  0  0  0  0
    2.4581    0.5495    0.5687 H   0  0  0  0  0  0  0  0  0  0  0  0
    1.4899   -0.0118    1.9558 H   0  0  0  0  0  0  0  0  0  0  0  0
    1.4301   -1.2269   -0.8610 H   0  0  0  0  0  0  0  0  0  0  0  0
   -3.6146    1.7383   -0.3351 H   0  0  0  0  0  0  0  0  0  0  0  0
  1  3  1  0  0  0  0
  2  6  1  0  0  0  0
  4 15  1  0  0  0  0
  4 17  1  0  0  0  0
  5  8  1  0  0  0  0
  5 18  1  0  0  0  0
  7  3  1  6  0  0  0
  7 33  1  0  0  0  0
  7  8  1  0  0  0  0
  8 21  1  0  0  0  0
  9 52  1  0  0  0  0
 10 19  1  0  0  0  0
 11 16  1  0  0  0  0
 11 10  2  0  0  0  0
 12 56  1  6  0  0  0
 12  9  1  0  0  0  0
 12 17  1  0  0  0  0
 12 18  1  0  0  0  0
 13 46  1  0  0  0  0
 14  6  1  6  0  0  0
 14 37  1  0  0  0  0
 14 15  1  0  0  0  0
 15 41  1  0  0  0  0
 16 20  2  0  0  0  0
 17 50  1  0  0  0  0
 18 55  1  0  0  0  0
 19 13  2  0  0  0  0
 19 45  1  0  0  0  0
 20  9  1  0  0  0  0
 20 13  1  0  0  0  0
 21 23  1  0  0  0  0
 21 24  1  0  0  0  0
 21 22  1  0  0  0  0
 25 27  1  0  0  0  0
 25 28  1  0  0  0  0
 25 15  1  0  0  0  0
 26 25  1  0  0  0  0
 29 31  1  0  0  0  0
 29 30  1  0  0  0  0
 29  8  1  0  0  0  0
 32 29  1  0  0  0  0
 33 35  1  0  0  0  0
 33 36  1  0  0  0  0
 34 33  1  0  0  0  0
 37 39  1  0  0  0  0
 37 38  1  0  0  0  0
 40 37  1  0  0  0  0
 41 43  1  0  0  0  0
 41 42  1  0  0  0  0
 41 44  1  0  0  0  0
 47 10  1  0  0  0  0
 48 17  1  0  0  0  0
 49 16  1  0  0  0  0
 51  9  1  0  0  0  0
 53 11  1  0  0  0  0
 54 18  1  0  0  0  0
 57  1  1  0  0  0  0
M  END
