3,5,6,9
q = -1.0

 59 59  0  0  1  0  0  0  0  0999 V2000
   -4.2249    1.6575   -0.0588 O   0  0  0  0  0  0  0  0  0  0  0  0
   -4.5766   -0.7344   -0.0235 O   0  0  0  0  0  1  0  0  0  0  0  0
   -0.4049    1.2709    0.1609 N   0  0  0  0  0  2  0  0  0  0  0  0
    5.6702    0.3492    0.9303 N   0  0  0  0  0  0  0  0  0  0  0  0
   -0.8104   -1.4891    0.1779 N   0  0  0  0  0  2  0  0  0  0  0  0
   -3.3202   -1.1373    0.0388 N   0  0  0  0  0  2  0  0  0  0  0  0
    1.4191   -0.4055   -0.0932 C   0  0  1  0  0  0  0  0  0  0  0  0
    3.8473    0.2773   -0.6732 C   0  0  0  0  0  0  0  0  0  0  0  0
   -2.9009    1.6717    0.0034 N   0  0  0  0  0  2  0  0  0  0  0  0
    6.2202   -0.4471   -1.2804 C   0  0  0  0  0  0  0  0  0  0  0  0
    5.3032    0.0569   -0.3354 C   0  0  0  0  0  0  0  0  0  0  0  0
    7.5543   -0.6460   -0.8992 C   0  0  0  0  0  0  0  0  0  0  0  0
   -0.7719    2.6917    0.3633 C   0  0  0  0  0  0  0  0  0  0  0  0
    0.9642    0.9264    0.5074 C   0  0  0  0  0  0  0  0  0  0  0  0
   -3.0493   -2.3841    0.3399 C   0  0  2  0  0  3  0  0  0  0  0  0
    6.9472    0.1544    1.2860 C   0  0  0  0  0  0  0  0  0  0  0  0
    2.9207   -0.6407    0.1400 C   0  0  0  0  0  0  0  0  0  0  0  0
   -1.5791   -2.7346    0.4114 C   0  0  0  0  0  0  0  0  0  0  0  0
    7.9329   -0.3394    0.4150 C   0  0  0  0  0  0  0  0  0  0  0  0
   -2.2792    2.7914    0.2760 C   0  0  1  0  0  3  0  0  0  0  0  0
    0.6086   -1.5678    0.4850 C   0  0  0  0  0  0  0  0  0  0  0  0
   -0.1518    3.5617   -0.7588 C   0  0  0  0  0  0  0  0  0  0  0  0
    0.9549    3.5125   -0.7179 H   0  0  0  0  0  0  0  0  0  0  0  0
   -0.4409    4.6270   -0.6576 H   0  0  0  0  0  0  0  0  0  0  0  0
   -0.4833    3.1908   -1.7482 H   0  0  0  0  0  0  0  0  0  0  0  0
   -1.2650   -3.7669   -0.7008 C   0  0  0  0  0  0  0  0  0  0  0  0
   -1.4823   -3.3266   -1.6935 H   0  0  0  0  0  0  0  0  0  0  0  0
   -1.8630   -4.6922   -0.5789 H   0  0  0  0  0  0  0  0  0  0  0  0
   -0.1954   -4.0562   -0.6708 H   0  0  0  0  0  0  0  0  0  0  0  0
   -3.0627    4.0449    0.4707 C   0  0  0  0  0  0  0  0  0  0  0  0
   -3.6896    4.2393   -0.4250 H   0  0  0  0  0  0  0  0  0  0  0  0
   -2.4202    4.9211    0.6689 H   0  0  0  0  0  0  0  0  0  0  0  0
   -3.7793    3.9132    1.3090 H   0  0  0  0  0  0  0  0  0  0  0  0
   -0.3263    3.2012    1.7545 C   0  0  0  0  0  0  0  0  0  0  0  0
   -0.7263    2.5428    2.5509 H   0  0  0  0  0  0  0  0  0  0  0  0
   -0.6872    4.2323    1.9358 H   0  0  0  0  0  0  0  0  0  0  0  0
    0.7774    3.2208    1.8354 H   0  0  0  0  0  0  0  0  0  0  0  0
   -4.1666   -3.3445    0.5687 C   0  0  0  0  0  0  0  0  0  0  0  0
   -4.8099   -2.9809    1.3979 H   0  0  0  0  0  0  0  0  0  0  0  0
   -3.8108   -4.3649    0.7974 H   0  0  0  0  0  0  0  0  0  0  0  0
   -4.8267   -3.3733   -0.3239 H   0  0  0  0  0  0  0  0  0  0  0  0
   -1.2804   -3.3332    1.8062 C   0  0  0  0  0  0  0  0  0  0  0  0
   -0.2319   -3.6815    1.8734 H   0  0  0  0  0  0  0  0  0  0  0  0
   -1.9299   -4.2062    2.0118 H   0  0  0  0  0  0  0  0  0  0  0  0
   -1.4512   -2.5738    2.5948 H   0  0  0  0  0  0  0  0  0  0  0  0
    0.7958   -1.6101    1.5868 H   0  0  0  0  0  0  0  0  0  0  0  0
    7.2080    0.4081    2.3299 H   0  0  0  0  0  0  0  0  0  0  0  0
    5.8855   -0.6767   -2.3035 H   0  0  0  0  0  0  0  0  0  0  0  0
    1.0279   -2.5148    0.0689 H   0  0  0  0  0  0  0  0  0  0  0  0
    3.1682   -0.5133    1.2163 H   0  0  0  0  0  0  0  0  0  0  0  0
    1.6467    1.7285    0.1432 H   0  0  0  0  0  0  0  0  0  0  0  0
    1.1162    0.8775    1.6143 H   0  0  0  0  0  0  0  0  0  0  0  0
    3.1640   -1.6964   -0.1089 H   0  0  0  0  0  0  0  0  0  0  0  0
    1.2219   -0.3695   -1.1886 H   0  0  0  0  0  0  0  0  0  0  0  0
    8.9677   -0.4778    0.7618 H   0  0  0  0  0  0  0  0  0  0  0  0
    3.6071    1.3386   -0.4496 H   0  0  0  0  0  0  0  0  0  0  0  0
    3.6787    0.1270   -1.7593 H   0  0  0  0  0  0  0  0  0  0  0  0
    8.2890   -1.0364   -1.6204 H   0  0  0  0  0  0  0  0  0  0  0  0
   -4.4905    0.4969   -0.0890 H   0  0  0  0  0  0  0  0  0  0  0  0
  1  9  1  0  0  0  0
  2  6  1  0  0  0  0
  3 13  1  0  0  0  0
  3 14  1  0  0  0  0
  4 16  1  0  0  0  0
  5 18  1  0  0  0  0
  5 21  1  0  0  0  0
  7 54  1  6  0  0  0
  7 17  1  0  0  0  0
  7 21  1  0  0  0  0
  7 14  1  0  0  0  0
  8 56  1  0  0  0  0
  8 11  1  0  0  0  0
  8 17  1  0  0  0  0
 10 12  2  0  0  0  0
 10 11  1  0  0  0  0
 11  4  2  0  0  0  0
 12 19  1  0  0  0  0
 13 34  1  0  0  0  0
 14 52  1  0  0  0  0
 15  6  1  6  0  0  0
 15 18  1  0  0  0  0
 15 38  1  0  0  0  0
 16 47  1  0  0  0  0
 17 50  1  0  0  0  0
 18 42  1  0  0  0  0
 19 55  1  0  0  0  0
 19 16  2  0  0  0  0
 20  9  1  6  0  0  0
 20 13  1  0  0  0  0
 20 30  1  0  0  0  0
 21 46  1  0  0  0  0
 22 23  1  0  0  0  0
 22 24  1  0  0  0  0
 22 13  1  0  0  0  0
 25 22  1  0  0  0  0
 26 29  1  0  0  0  0
 26 28  1  0  0  0  0
 26 18  1  0  0  0  0
 27 26  1  0  0  0  0
 30 32  1  0  0  0  0
 30 33  1  0  0  0  0
 31 30  1  0  0  0  0
 34 37  1  0  0  0  0
 34 36  1  0  0  0  0
 34 35  1  0  0  0  0
 38 40  1  0  0  0  0
 38 39  1  0  0  0  0
 41 38  1  0  0  0  0
 42 43  1  0  0  0  0
 42 44  1  0  0  0  0
 42 45  1  0  0  0  0
 48 10  1  0  0  0  0
 49 21  1  0  0  0  0
 51 14  1  0  0  0  0
 53 17  1  0  0  0  0
 57  8  1  0  0  0  0
 58 12  1  0  0  0  0
 59  1  1  0  0  0  0
M  END
