3,4,5,10
q = -1.0, confidence = 0.074

 59 59  0  0  1  0  0  0  0  0999 V2000
   -2.7345    2.5614    0.7615 O   0  0  0  0  0  0  0  0  0  0  0  0
   -3.9211    0.4780    0.8354 O   0  0  0  0  0  1  0  0  0  0  0  0
   -0.8523   -1.6884    0.0327 N   0  0  0  0  0  0  0  0  0  0  0  0
   -2.9797   -0.3316    0.4275 N   0  0  0  0  0  2  0  0  0  0  0  0
    0.6648    0.9740   -0.0604 N   0  0  0  0  0  0  0  0  0  0  0  0
   -2.1157   -2.4783   -0.2490 C   0  0  0  0  0  0  0  0  0  0  0  0
    0.6960    2.4475   -0.4171 C   0  0  0  0  0  0  0  0  0  0  0  0
    0.3674   -2.1216   -0.6662 C   0  0  0  0  0  0  0  0  0  0  0  0
    4.1697   -1.4327   -0.2196 C   0  0  0  0  0  0  0  0  0  0  0  0
   -1.5692    2.1376    0.3417 N   0  0  0  0  0  2  0  0  0  0  0  0
    1.6258    0.1085   -0.7605 C   0  0  0  0  0  0  0  0  0  0  0  0
   -0.6347    3.0056    0.0594 C   0  0  2  0  0  3  0  0  0  0  0  0
    5.0374   -0.7886   -1.1240 C   0  0  0  0  0  0  0  0  0  0  0  0
   -3.2586   -1.5909    0.2157 C   0  0  2  0  0  3  0  0  0  0  0  0
    1.6107   -1.3313   -0.2240 C   0  0  2  0  0  0  0  0  0  0  0  0
    6.2054   -0.1520   -0.6752 C   0  0  0  0  0  0  0  0  0  0  0  0
    6.5239   -0.1486    0.6912 C   0  0  0  0  0  0  0  0  0  0  0  0
    4.5056   -1.4264    1.1506 C   0  0  0  0  0  0  0  0  0  0  0  0
    2.8848   -2.0776   -0.6886 C   0  0  0  0  0  0  0  0  0  0  0  0
    5.6702   -0.7903    1.6035 C   0  0  0  0  0  0  0  0  0  0  0  0
    1.8593    3.1010    0.3598 C   0  0  0  0  0  0  0  0  0  0  0  0
   -4.6535   -2.0896    0.4131 C   0  0  0  0  0  0  0  0  0  0  0  0
   -2.2763   -2.8311   -1.7383 C   0  0  0  0  0  0  0  0  0  0  0  0
    0.8717    2.6870   -1.9271 C   0  0  0  0  0  0  0  0  0  0  0  0
   -0.9099    4.4683    0.1917 C   0  0  0  0  0  0  0  0  0  0  0  0
   -2.0724   -3.7697    0.5967 C   0  0  0  0  0  0  0  0  0  0  0  0
    7.4384    0.3503    1.0459 H   0  0  0  0  0  0  0  0  0  0  0  0
    2.8323   -3.1213   -0.3118 H   0  0  0  0  0  0  0  0  0  0  0  0
    1.3629    0.0939   -1.8343 H   0  0  0  0  0  0  0  0  0  0  0  0
    2.8801   -2.1436   -1.7975 H   0  0  0  0  0  0  0  0  0  0  0  0
   -0.7253   -1.8186    1.0580 H   0  0  0  0  0  0  0  0  0  0  0  0
    0.8931    0.9802    0.9529 H   0  0  0  0  0  0  0  0  0  0  0  0
    1.6347   -1.2969    0.8909 H   0  0  0  0  0  0  0  0  0  0  0  0
    3.8448   -1.9298    1.8748 H   0  0  0  0  0  0  0  0  0  0  0  0
    6.8704    0.3440   -1.3987 H   0  0  0  0  0  0  0  0  0  0  0  0
   -3.4056    1.5762    0.8221 H   0  0  0  0  0  0  0  0  0  0  0  0
    4.7907   -0.7871   -2.1979 H   0  0  0  0  0  0  0  0  0  0  0  0
    5.9150   -0.7978    2.6766 H   0  0  0  0  0  0  0  0  0  0  0  0
    0.2165   -1.9760   -1.7518 H   0  0  0  0  0  0  0  0  0  0  0  0
    2.6508    0.5235   -0.6512 H   0  0  0  0  0  0  0  0  0  0  0  0
    0.5427   -3.2049   -0.4788 H   0  0  0  0  0  0  0  0  0  0  0  0
    1.8892    2.4037   -2.2624 H   0  0  0  0  0  0  0  0  0  0  0  0
    1.7083    2.9915    1.4524 H   0  0  0  0  0  0  0  0  0  0  0  0
    0.7457    3.7669   -2.1356 H   0  0  0  0  0  0  0  0  0  0  0  0
    0.1322    2.1294   -2.5291 H   0  0  0  0  0  0  0  0  0  0  0  0
    2.8260    2.6349    0.0810 H   0  0  0  0  0  0  0  0  0  0  0  0
   -3.2769   -3.2784   -1.8948 H   0  0  0  0  0  0  0  0  0  0  0  0
   -0.1424    5.0838   -0.3127 H   0  0  0  0  0  0  0  0  0  0  0  0
    1.9347    4.1800    0.1258 H   0  0  0  0  0  0  0  0  0  0  0  0
   -2.0123   -3.5274    1.6765 H   0  0  0  0  0  0  0  0  0  0  0  0
   -5.3695   -1.3524   -0.0021 H   0  0  0  0  0  0  0  0  0  0  0  0
   -4.8148   -3.0743   -0.0635 H   0  0  0  0  0  0  0  0  0  0  0  0
   -2.9786   -4.3823    0.4284 H   0  0  0  0  0  0  0  0  0  0  0  0
   -0.9511    4.7650    1.2620 H   0  0  0  0  0  0  0  0  0  0  0  0
   -4.8914   -2.1809    1.4951 H   0  0  0  0  0  0  0  0  0  0  0  0
   -1.1997   -4.3934    0.3163 H   0  0  0  0  0  0  0  0  0  0  0  0
   -1.5274   -3.5835   -2.0567 H   0  0  0  0  0  0  0  0  0  0  0  0
   -2.1862   -1.9445   -2.3909 H   0  0  0  0  0  0  0  0  0  0  0  0
   -1.9085    4.6957   -0.2323 H   0  0  0  0  0  0  0  0  0  0  0  0
  1 36  1  0  0  0  0
  3 31  1  0  0  0  0
  4  2  1  0  0  0  0
  5 32  1  0  0  0  0
  6  3  1  0  0  0  0
  6 14  1  0  0  0  0
  6 26  1  0  0  0  0
  7  5  1  0  0  0  0
  7 12  1  0  0  0  0
  7 21  1  0  0  0  0
  8 41  1  0  0  0  0
  8 15  1  0  0  0  0
  8  3  1  0  0  0  0
  9 18  1  0  0  0  0
 10  1  1  0  0  0  0
 11 40  1  0  0  0  0
 11 15  1  0  0  0  0
 11  5  1  0  0  0  0
 12 25  1  0  0  0  0
 12 10  1  6  0  0  0
 13 16  1  0  0  0  0
 13  9  2  0  0  0  0
 14 22  1  0  0  0  0
 14  4  1  6  0  0  0
 15 33  1  1  0  0  0
 16 17  2  0  0  0  0
 17 27  1  0  0  0  0
 17 20  1  0  0  0  0
 18 20  2  0  0  0  0
 18 34  1  0  0  0  0
 19 28  1  0  0  0  0
 19 15  1  0  0  0  0
 19  9  1  0  0  0  0
 20 38  1  0  0  0  0
 21 43  1  0  0  0  0
 22 55  1  0  0  0  0
 23  6  1  0  0  0  0
 24  7  1  0  0  0  0
 25 54  1  0  0  0  0
 26 50  1  0  0  0  0
 29 11  1  0  0  0  0
 30 19  1  0  0  0  0
 35 16  1  0  0  0  0
 37 13  1  0  0  0  0
 39  8  1  0  0  0  0
 42 24  1  0  0  0  0
 44 24  1  0  0  0  0
 45 24  1  0  0  0  0
 46 21  1  0  0  0  0
 47 23  1  0  0  0  0
 48 25  1  0  0  0  0
 49 21  1  0  0  0  0
 51 22  1  0  0  0  0
 52 22  1  0  0  0  0
 53 26  1  0  0  0  0
 56 26  1  0  0  0  0
 57 23  1  0  0  0  0
 58 23  1  0  0  0  0
 59 25  1  0  0  0  0
M  END
