1,2,25,33
q = -2.0, confidence = 0.996

 48 51  0  0  0  0  0  0  0  0999 V2000
    1.3905    2.2036   -0.2427 N   0  0  0  0  0  0  0  0  0  0  0  0
   -0.9621    1.2823    0.6799 N   0  0  0  0  0  2  0  0  0  0  0  0
    2.4123    2.9293   -0.7593 C   0  0  0  0  0  0  0  0  0  0  0  0
    3.2743    2.4340   -1.2245 H   0  0  0  0  0  0  0  0  0  0  0  0
    0.9156    4.4427    0.0087 C   0  0  0  0  0  0  0  0  0  0  0  0
    0.3854    5.3663    0.2701 H   0  0  0  0  0  0  0  0  0  0  0  0
    0.4525    3.1195    0.2240 C   0  0  0  0  0  3  0  0  0  0  0  0
   -0.7462    2.5873    0.7453 C   0  0  0  0  0  3  0  0  0  0  0  0
   -1.5034    3.2470    1.2099 H   0  0  0  0  0  0  0  0  0  0  0  0
   -2.0435    0.7302    1.4197 C   0  0  0  0  0  0  0  0  0  0  0  0
   -2.0665    0.8660    2.8204 C   0  0  0  0  0  0  0  0  0  0  0  0
   -1.2467    1.4059    3.3146 H   0  0  0  0  0  0  0  0  0  0  0  0
   -3.0892    0.2587    3.5590 C   0  0  0  0  0  0  0  0  0  0  0  0
   -3.1026    0.3521    4.6554 H   0  0  0  0  0  0  0  0  0  0  0  0
   -4.0684   -0.4979    2.9051 C   0  0  0  0  0  0  0  0  0  0  0  0
   -4.8493   -1.0071    3.4918 H   0  0  0  0  0  0  0  0  0  0  0  0
   -3.0647    0.0159    0.7450 C   0  0  0  0  0  0  0  0  0  0  0  0
    2.1666    4.3170   -0.6230 C   0  0  0  0  0  0  0  0  0  0  0  0
    2.8272    5.1262   -0.9557 H   0  0  0  0  0  0  0  0  0  0  0  0
   -5.1472   -1.4645    0.8416 C   0  0  0  0  0  0  0  0  0  0  0  0
   -6.0817   -0.8822    0.6931 H   0  0  0  0  0  0  0  0  0  0  0  0
   -5.4107   -2.3351    1.4743 H   0  0  0  0  0  0  0  0  0  0  0  0
   -4.8320   -1.8345   -0.1524 H   0  0  0  0  0  0  0  0  0  0  0  0
   -4.0749   -0.6322    1.5013 C   0  0  0  0  0  0  0  0  0  0  0  0
    1.3904   -2.2036    0.2426 N   0  0  0  0  0  0  0  0  0  0  0  0
    2.4124   -2.9292    0.7592 C   0  0  0  0  0  3  0  0  0  0  0  0
    3.2745   -2.4339    1.2241 H   0  0  0  0  0  0  0  0  0  0  0  0
    2.1666   -4.3169    0.6229 C   0  0  0  0  0  0  0  0  0  0  0  0
    0.9155   -4.4426   -0.0085 C   0  0  0  0  0  0  0  0  0  0  0  0
    0.3852   -5.3662   -0.2697 H   0  0  0  0  0  0  0  0  0  0  0  0
    0.4524   -3.1194   -0.2238 C   0  0  0  0  0  0  0  0  0  0  0  0
   -0.7463   -2.5872   -0.7450 C   0  0  0  0  0  3  0  0  0  0  0  0
   -0.9622   -1.2822   -0.6797 N   0  0  0  0  0  2  0  0  0  0  0  0
   -2.0436   -0.7303   -1.4195 C   0  0  0  0  0  0  0  0  0  0  0  0
   -2.0668   -0.8664   -2.8201 C   0  0  0  0  0  0  0  0  0  0  0  0
   -1.2472   -1.4064   -3.3143 H   0  0  0  0  0  0  0  0  0  0  0  0
   -3.0897   -0.2592   -3.5588 C   0  0  0  0  0  0  0  0  0  0  0  0
   -3.1032   -0.3529   -4.6551 H   0  0  0  0  0  0  0  0  0  0  0  0
   -4.0688    0.4976   -2.9049 C   0  0  0  0  0  0  0  0  0  0  0  0
   -4.8497    1.0065   -3.4916 H   0  0  0  0  0  0  0  0  0  0  0  0
   -4.0751    0.6322   -1.5011 C   0  0  0  0  0  0  0  0  0  0  0  0
   -3.0648   -0.0157   -0.7448 C   0  0  0  0  0  0  0  0  0  0  0  0
   -5.1474    1.4650   -0.8419 C   0  0  0  0  0  0  0  0  0  0  0  0
   -6.0844    0.8852   -0.7003 H   0  0  0  0  0  0  0  0  0  0  0  0
   -5.4052    2.3394   -1.4715 H   0  0  0  0  0  0  0  0  0  0  0  0
   -4.8351    1.8294    0.1551 H   0  0  0  0  0  0  0  0  0  0  0  0
   -1.5036   -3.2469   -1.2095 H   0  0  0  0  0  0  0  0  0  0  0  0
    2.8273   -5.1261    0.9556 H   0  0  0  0  0  0  0  0  0  0  0  0
  1  7  1  0  0  0  0
  2  8  1  0  0  0  0
  2 10  1  0  0  0  0
  3 18  1  0  0  0  0
  3  1  2  0  0  0  0
  4  3  1  0  0  0  0
  5  7  1  0  0  0  0
  5  6  1  0  0  0  0
  7  8  1  0  0  0  0
  8  9  1  0  0  0  0
 10 11  1  0  0  0  0
 11 12  1  0  0  0  0
 11 13  2  0  0  0  0
 13 14  1  0  0  0  0
 15 16  1  0  0  0  0
 15 13  1  0  0  0  0
 17 10  2  0  0  0  0
 17 24  1  0  0  0  0
 18  5  2  0  0  0  0
 19 18  1  0  0  0  0
 20 22  1  0  0  0  0
 20 24  1  0  0  0  0
 21 20  1  0  0  0  0
 23 20  1  0  0  0  0
 24 15  2  0  0  0  0
 25 26  1  0  0  0  0
 26 27  1  0  0  0  0
 28 26  1  0  0  0  0
 28 48  1  0  0  0  0
 29 28  2  0  0  0  0
 30 29  1  0  0  0  0
 31 29  1  0  0  0  0
 31 25  2  0  0  0  0
 32 33  1  0  0  0  0
 32 31  1  0  0  0  0
 34 42  1  0  0  0  0
 34 33  1  0  0  0  0
 35 34  2  0  0  0  0
 36 35  1  0  0  0  0
 37 39  2  0  0  0  0
 37 35  1  0  0  0  0
 38 37  1  0  0  0  0
 39 41  1  0  0  0  0
 40 39  1  0  0  0  0
 41 43  1  0  0  0  0
 41 42  2  0  0  0  0
 42 17  1  0  0  0  0
 43 44  1  0  0  0  0
 43 46  1  0  0  0  0
 45 43  1  0  0  0  0
 47 32  1  0  0  0  0
M  END
