1,3,41,43
q = -2.0, confidence = 0.742

 80 92  0  0  0  0  0  0  0  0999 V2000
   -1.4005    1.3503   -0.0001 N   0  0  0  0  0  0  0  0  0  0  0  0
   -3.3730   -0.0561   -0.0000 N   0  0  0  0  0  0  0  0  0  0  0  0
   -1.3503   -1.4005   -0.0002 N   0  0  0  0  0  2  0  0  0  0  0  0
   -0.0561    3.3730   -0.0000 N   0  0  0  0  0  0  0  0  0  0  0  0
   -1.2027    2.7082   -0.0001 C   0  0  0  0  0  0  0  0  0  0  0  0
   -2.4943    3.3929    0.0000 C   0  0  0  0  0  0  0  0  0  0  0  0
   -2.8146    4.7699    0.0001 C   0  0  0  0  0  0  0  0  0  0  0  0
   -4.1547    5.1261    0.0001 C   0  0  0  0  0  0  0  0  0  0  0  0
   -5.1974    4.1414    0.0001 C   0  0  0  0  0  0  0  0  0  0  0  0
   -6.5713    4.5186    0.0001 C   0  0  0  0  0  0  0  0  0  0  0  0
   -7.5782    3.5624    0.0001 C   0  0  0  0  0  0  0  0  0  0  0  0
   -7.2489    2.1815    0.0001 C   0  0  0  0  0  0  0  0  0  0  0  0
   -5.9217    1.7723    0.0000 C   0  0  0  0  0  0  0  0  0  0  0  0
   -4.8686    2.7309    0.0000 C   0  0  0  0  0  0  0  0  0  0  0  0
   -3.4799    2.3961   -0.0000 C   0  0  0  0  0  0  0  0  0  0  0  0
   -2.7604    1.1198   -0.0001 C   0  0  0  0  0  0  0  0  0  0  0  0
   -2.7082   -1.2027   -0.0001 C   0  0  0  0  0  0  0  0  0  0  0  0
   -3.3928   -2.4943   -0.0000 C   0  0  0  0  0  0  0  0  0  0  0  0
   -4.7699   -2.8146   -0.0000 C   0  0  0  0  0  0  0  0  0  0  0  0
   -5.1261   -4.1547   -0.0000 C   0  0  0  0  0  0  0  0  0  0  0  0
   -4.1414   -5.1974   -0.0000 C   0  0  0  0  0  0  0  0  0  0  0  0
   -4.5186   -6.5713   -0.0001 C   0  0  0  0  0  0  0  0  0  0  0  0
   -3.5624   -7.5782   -0.0001 C   0  0  0  0  0  0  0  0  0  0  0  0
   -2.1815   -7.2489   -0.0001 C   0  0  0  0  0  0  0  0  0  0  0  0
   -1.7723   -5.9217   -0.0001 C   0  0  0  0  0  0  0  0  0  0  0  0
   -2.7309   -4.8686   -0.0000 C   0  0  0  0  0  0  0  0  0  0  0  0
   -2.3961   -3.4799   -0.0000 C   0  0  0  0  0  0  0  0  0  0  0  0
   -1.1198   -2.7604   -0.0001 C   0  0  0  0  0  0  0  0  0  0  0  0
   -2.0124    5.5220    0.0001 H   0  0  0  0  0  0  0  0  0  0  0  0
   -4.4464    6.1883    0.0001 H   0  0  0  0  0  0  0  0  0  0  0  0
   -6.8219    5.5916    0.0001 H   0  0  0  0  0  0  0  0  0  0  0  0
   -8.6342    3.8743    0.0002 H   0  0  0  0  0  0  0  0  0  0  0  0
   -8.0530    1.4293    0.0001 H   0  0  0  0  0  0  0  0  0  0  0  0
   -5.6406    0.7101    0.0000 H   0  0  0  0  0  0  0  0  0  0  0  0
   -5.5220   -2.0124    0.0000 H   0  0  0  0  0  0  0  0  0  0  0  0
   -6.1883   -4.4464   -0.0000 H   0  0  0  0  0  0  0  0  0  0  0  0
   -5.5916   -6.8219   -0.0001 H   0  0  0  0  0  0  0  0  0  0  0  0
   -3.8743   -8.6342   -0.0002 H   0  0  0  0  0  0  0  0  0  0  0  0
   -1.4293   -8.0530   -0.0002 H   0  0  0  0  0  0  0  0  0  0  0  0
   -0.7101   -5.6406   -0.0001 H   0  0  0  0  0  0  0  0  0  0  0  0
    1.4005   -1.3503    0.0001 N   0  0  0  0  0  0  0  0  0  0  0  0
    3.3730    0.0561    0.0001 N   0  0  0  0  0  0  0  0  0  0  0  0
    1.3503    1.4005    0.0001 N   0  0  0  0  0  0  0  0  0  0  0  0
    0.0561   -3.3730   -0.0000 N   0  0  0  0  0  0  0  0  0  0  0  0
    1.2027   -2.7082    0.0000 C   0  0  0  0  0  0  0  0  0  0  0  0
    2.4943   -3.3928    0.0000 C   0  0  0  0  0  0  0  0  0  0  0  0
    2.8146   -4.7699    0.0000 C   0  0  0  0  0  0  0  0  0  0  0  0
    4.1547   -5.1261    0.0000 C   0  0  0  0  0  0  0  0  0  0  0  0
    5.1974   -4.1414    0.0001 C   0  0  0  0  0  0  0  0  0  0  0  0
    6.5713   -4.5186    0.0001 C   0  0  0  0  0  0  0  0  0  0  0  0
    7.5782   -3.5624    0.0001 C   0  0  0  0  0  0  0  0  0  0  0  0
    7.2489   -2.1815    0.0001 C   0  0  0  0  0  0  0  0  0  0  0  0
    5.9217   -1.7723    0.0001 C   0  0  0  0  0  0  0  0  0  0  0  0
    4.8686   -2.7309    0.0001 C   0  0  0  0  0  0  0  0  0  0  0  0
    3.4799   -2.3961    0.0001 C   0  0  0  0  0  0  0  0  0  0  0  0
    2.7604   -1.1198    0.0001 C   0  0  0  0  0  0  0  0  0  0  0  0
    2.7082    1.2027    0.0001 C   0  0  0  0  0  0  0  0  0  0  0  0
    3.3928    2.4943   -0.0000 C   0  0  0  0  0  0  0  0  0  0  0  0
    4.7699    2.8146   -0.0001 C   0  0  0  0  0  0  0  0  0  0  0  0
    5.1261    4.1547   -0.0001 C   0  0  0  0  0  0  0  0  0  0  0  0
    4.1414    5.1974   -0.0001 C   0  0  0  0  0  3  0  0  0  0  0  0
    4.5186    6.5713   -0.0001 C   0  0  0  0  0  0  0  0  0  0  0  0
    3.5624    7.5782   -0.0001 C   0  0  0  0  0  0  0  0  0  0  0  0
    2.1815    7.2489   -0.0001 C   0  0  0  0  0  0  0  0  0  0  0  0
    1.7723    5.9217   -0.0001 C   0  0  0  0  0  0  0  0  0  0  0  0
    2.7309    4.8686   -0.0001 C   0  0  0  0  0  0  0  0  0  0  0  0
    2.3961    3.4799   -0.0001 C   0  0  0  0  0  0  0  0  0  0  0  0
    1.1198    2.7604    0.0000 C   0  0  0  0  0  0  0  0  0  0  0  0
    2.0124   -5.5220   -0.0000 H   0  0  0  0  0  0  0  0  0  0  0  0
    4.4464   -6.1883    0.0000 H   0  0  0  0  0  0  0  0  0  0  0  0
    6.8219   -5.5916    0.0001 H   0  0  0  0  0  0  0  0  0  0  0  0
    8.6342   -3.8743    0.0001 H   0  0  0  0  0  0  0  0  0  0  0  0
    8.0530   -1.4293    0.0001 H   0  0  0  0  0  0  0  0  0  0  0  0
    5.6406   -0.7101    0.0002 H   0  0  0  0  0  0  0  0  0  0  0  0
    5.5220    2.0124   -0.0000 H   0  0  0  0  0  0  0  0  0  0  0  0
    6.1883    4.4464   -0.0001 H   0  0  0  0  0  0  0  0  0  0  0  0
    5.5916    6.8219   -0.0001 H   0  0  0  0  0  0  0  0  0  0  0  0
    3.8743    8.6342   -0.0001 H   0  0  0  0  0  0  0  0  0  0  0  0
    1.4293    8.0530   -0.0001 H   0  0  0  0  0  0  0  0  0  0  0  0
    0.7101    5.6406   -0.0001 H   0  0  0  0  0  0  0  0  0  0  0  0
  1 16  2  0  0  0  0
  1  5  1  0  0  0  0
  3 28  1  0  0  0  0
  3 17  1  0  0  0  0
  4 68  1  0  0  0  0
  5  4  2  0  0  0  0
  5  6  1  0  0  0  0
  6  7  1  0  0  0  0
  7 29  1  0  0  0  0
  7  8  2  0  0  0  0
  8 30  1  0  0  0  0
  9  8  1  0  0  0  0
  9 10  1  0  0  0  0
 10 11  2  0  0  0  0
 10 31  1  0  0  0  0
 11 32  1  0  0  0  0
 12 33  1  0  0  0  0
 12 11  1  0  0  0  0
 13 12  2  0  0  0  0
 14 13  1  0  0  0  0
 14  9  2  0  0  0  0
 15  6  2  0  0  0  0
 15 14  1  0  0  0  0
 16  2  1  0  0  0  0
 16 15  1  0  0  0  0
 17  2  2  0  0  0  0
 17 18  1  0  0  0  0
 18 19  1  0  0  0  0
 19 35  1  0  0  0  0
 20 19  2  0  0  0  0
 20 36  1  0  0  0  0
 21 20  1  0  0  0  0
 22 37  1  0  0  0  0
 22 21  2  0  0  0  0
 23 22  1  0  0  0  0
 24 23  2  0  0  0  0
 24 25  1  0  0  0  0
 25 40  1  0  0  0  0
 25 26  2  0  0  0  0
 26 21  1  0  0  0  0
 26 27  1  0  0  0  0
 27 18  2  0  0  0  0
 28 44  2  0  0  0  0
 28 27  1  0  0  0  0
 34 13  1  0  0  0  0
 38 23  1  0  0  0  0
 39 24  1  0  0  0  0
 42 56  2  0  0  0  0
 44 45  1  0  0  0  0
 45 41  2  0  0  0  0
 46 45  1  0  0  0  0
 46 55  1  0  0  0  0
 47 46  2  0  0  0  0
 47 48  1  0  0  0  0
 48 70  1  0  0  0  0
 48 49  2  0  0  0  0
 49 50  1  0  0  0  0
 49 54  1  0  0  0  0
 50 51  2  0  0  0  0
 51 72  1  0  0  0  0
 51 52  1  0  0  0  0
 52 53  2  0  0  0  0
 52 73  1  0  0  0  0
 53 74  1  0  0  0  0
 54 53  1  0  0  0  0
 55 56  1  0  0  0  0
 55 54  2  0  0  0  0
 56 41  1  0  0  0  0
 57 42  1  0  0  0  0
 57 43  1  0  0  0  0
 58 57  2  0  0  0  0
 59 75  1  0  0  0  0
 59 58  1  0  0  0  0
 60 59  2  0  0  0  0
 61 66  1  0  0  0  0
 61 60  1  0  0  0  0
 62 63  2  0  0  0  0
 62 61  1  0  0  0  0
 63 64  1  0  0  0  0
 64 79  1  0  0  0  0
 64 65  2  0  0  0  0
 65 66  1  0  0  0  0
 65 80  1  0  0  0  0
 66 67  2  0  0  0  0
 67 58  1  0  0  0  0
 67 68  1  0  0  0  0
 68 43  2  0  0  0  0
 69 47  1  0  0  0  0
 71 50  1  0  0  0  0
 76 60  1  0  0  0  0
 77 62  1  0  0  0  0
 78 63  1  0  0  0  0
M  END
