1,2,3,4
q = -1.0

 55 58  0  0  1  0  0  0  0  0999 V2000
    1.8287   -1.3658   -0.1541 N   0  0  0  0  0  2  0  0  0  0  0  0
   -0.9025   -1.2299   -0.2111 N   0  0  0  0  0  2  0  0  0  0  0  0
   -0.8175    1.2682    0.2312 N   0  0  0  0  0  2  0  0  0  0  0  0
    1.9043    1.2086   -0.3887 N   0  0  0  0  0  2  0  0  0  0  0  0
    4.0754   -1.5819   -0.7740 O   0  0  0  0  0  0  0  0  0  0  0  0
    3.9546    1.0882   -1.5538 O   0  0  0  0  0  0  0  0  0  0  0  0
    3.0385   -0.9305   -0.6219 C   0  0  0  0  0  0  0  0  0  0  0  0
    1.6486   -2.6452    0.3775 C   0  0  0  0  0  0  0  0  0  0  0  0
    2.6971   -3.3451    1.0341 C   0  0  0  0  0  0  0  0  0  0  0  0
    2.4744   -4.5990    1.6134 C   0  0  0  0  0  0  0  0  0  0  0  0
    1.2066   -5.2011    1.5563 C   0  0  0  0  0  0  0  0  0  0  0  0
    0.1722   -4.5259    0.8909 C   0  0  0  0  0  0  0  0  0  0  0  0
    0.3730   -3.2710    0.2938 C   0  0  0  0  0  0  0  0  0  0  0  0
   -0.7376   -2.6373   -0.5208 C   0  0  2  0  0  0  0  0  0  0  0  0
   -0.5006   -2.8374   -2.0332 C   0  0  0  0  0  0  0  0  0  0  0  0
   -2.1265   -0.6631   -0.1523 C   0  0  0  0  0  0  0  0  0  0  0  0
   -3.3967   -1.2885   -0.3362 C   0  0  0  0  0  0  0  0  0  0  0  0
   -4.5870   -0.5548   -0.3342 C   0  0  0  0  0  0  0  0  0  0  0  0
   -5.9056   -1.2559   -0.5515 C   0  0  0  0  0  0  0  0  0  0  0  0
   -4.5562    0.8635   -0.1602 C   0  0  0  0  0  0  0  0  0  0  0  0
   -5.8246    1.6774   -0.2213 C   0  0  0  0  0  0  0  0  0  0  0  0
   -3.3166    1.4871    0.0466 C   0  0  0  0  0  0  0  0  0  0  0  0
   -2.1106    0.7568    0.0916 C   0  0  0  0  0  0  0  0  0  0  0  0
   -0.5212    2.4251    0.8355 C   0  0  0  0  0  0  0  0  0  0  0  0
   -1.4826    3.0273    1.8387 C   0  0  0  0  0  0  0  0  0  0  0  0
    0.7118    3.1389    0.5484 C   0  0  0  0  0  0  0  0  0  0  0  0
    0.7851    4.5104    0.9331 C   0  0  0  0  0  0  0  0  0  0  0  0
    1.8532    5.3364    0.5938 C   0  0  0  0  0  0  0  0  0  0  0  0
    2.9090    4.7970   -0.1663 C   0  0  0  0  0  0  0  0  0  0  0  0
    2.8967    3.4559   -0.5429 C   0  0  0  0  0  0  0  0  0  0  0  0
    1.8377    2.5713   -0.1687 C   0  0  1  0  0  3  0  0  0  0  0  0
    3.0140    0.5774   -0.9452 C   0  0  0  0  0  0  0  0  0  0  0  0
    3.6920   -2.8856    1.0597 H   0  0  0  0  0  0  0  0  0  0  0  0
    3.3074   -5.1108    2.1224 H   0  0  0  0  0  0  0  0  0  0  0  0
    1.0257   -6.1836    2.0194 H   0  0  0  0  0  0  0  0  0  0  0  0
   -0.8283   -4.9852    0.8191 H   0  0  0  0  0  0  0  0  0  0  0  0
   -1.6683   -3.1820   -0.2462 H   0  0  0  0  0  0  0  0  0  0  0  0
   -0.4074   -3.9139   -2.2840 H   0  0  0  0  0  0  0  0  0  0  0  0
    0.4327   -2.3209   -2.3322 H   0  0  0  0  0  0  0  0  0  0  0  0
   -1.3422   -2.4024   -2.6109 H   0  0  0  0  0  0  0  0  0  0  0  0
   -3.4474   -2.3722   -0.5168 H   0  0  0  0  0  0  0  0  0  0  0  0
   -6.6046   -1.0938    0.2982 H   0  0  0  0  0  0  0  0  0  0  0  0
   -5.7681   -2.3484   -0.6715 H   0  0  0  0  0  0  0  0  0  0  0  0
   -6.4311   -0.8796   -1.4567 H   0  0  0  0  0  0  0  0  0  0  0  0
   -6.3593    1.5609   -1.1909 H   0  0  0  0  0  0  0  0  0  0  0  0
   -5.6119    2.7570   -0.0894 H   0  0  0  0  0  0  0  0  0  0  0  0
   -6.5548    1.3861    0.5671 H   0  0  0  0  0  0  0  0  0  0  0  0
   -3.2915    2.5825    0.1264 H   0  0  0  0  0  0  0  0  0  0  0  0
   -0.9125    3.4164    2.7058 H   0  0  0  0  0  0  0  0  0  0  0  0
   -2.1916    2.2573    2.1952 H   0  0  0  0  0  0  0  0  0  0  0  0
   -2.0839    3.8743    1.4430 H   0  0  0  0  0  0  0  0  0  0  0  0
   -0.0576    4.9496    1.4837 H   0  0  0  0  0  0  0  0  0  0  0  0
    1.8531    6.3948    0.8971 H   0  0  0  0  0  0  0  0  0  0  0  0
    3.7581    5.4310   -0.4690 H   0  0  0  0  0  0  0  0  0  0  0  0
    3.7175    3.0257   -1.1264 H   0  0  0  0  0  0  0  0  0  0  0  0
  1  8  1  0  0  0  0
  2 16  1  0  0  0  0
  3 24  1  0  0  0  0
  4 31  1  0  0  0  0
  5  7  2  0  0  0  0
  6 32  2  0  0  0  0
  7  1  1  0  0  0  0
  8  9  1  0  0  0  0
  9 33  1  0  0  0  0
  9 10  2  0  0  0  0
 10 34  1  0  0  0  0
 11 10  1  0  0  0  0
 11 35  1  0  0  0  0
 12 11  2  0  0  0  0
 13  8  2  0  0  0  0
 13 12  1  0  0  0  0
 14 37  1  1  0  0  0
 14  2  1  0  0  0  0
 14 13  1  0  0  0  0
 15 14  1  0  0  0  0
 16 23  1  0  0  0  0
 17 18  1  0  0  0  0
 17 16  2  0  0  0  0
 18 20  2  0  0  0  0
 19 18  1  0  0  0  0
 19 42  1  0  0  0  0
 20 22  1  0  0  0  0
 21 20  1  0  0  0  0
 21 46  1  0  0  0  0
 21 47  1  0  0  0  0
 22 23  2  0  0  0  0
 22 48  1  0  0  0  0
 23  3  1  0  0  0  0
 24 25  1  0  0  0  0
 25 50  1  0  0  0  0
 25 49  1  0  0  0  0
 26 24  2  0  0  0  0
 26 27  1  0  0  0  0
 27 52  1  0  0  0  0
 28 53  1  0  0  0  0
 28 27  2  0  0  0  0
 29 28  1  0  0  0  0
 30 29  2  0  0  0  0
 31 30  1  1  0  0  0
 31 26  1  0  0  0  0
 32  7  1  0  0  0  0
 32  4  1  0  0  0  0
 36 12  1  0  0  0  0
 38 15  1  0  0  0  0
 39 15  1  0  0  0  0
 40 15  1  0  0  0  0
 41 17  1  0  0  0  0
 43 19  1  0  0  0  0
 44 19  1  0  0  0  0
 45 21  1  0  0  0  0
 51 25  1  0  0  0  0
 54 29  1  0  0  0  0
 55 30  1  0  0  0  0
M  END
