1,2,3,4
q = -3.0

 58 57  0  0  0  0  0  0  0  0999 V2000
    0.8764    1.7869    0.0391 N   0  0  0  0  0  2  0  0  0  0  0  0
    1.1096   -1.6524    0.0388 N   0  0  0  0  0  2  0  0  0  0  0  0
   -1.9863   -0.1347    0.0388 N   0  0  0  0  0  2  0  0  0  0  0  0
   -0.0007   -0.0005    1.9695 N   0  0  0  0  0  0  0  0  0  0  0  0
    2.0426    2.9831    1.6813 O   0  0  0  0  0  0  0  0  0  0  0  0
    1.5626   -3.2612    1.6802 O   0  0  0  0  0  0  0  0  0  0  0  0
   -3.6062    0.2772    1.6800 O   0  0  0  0  0  0  0  0  0  0  0  0
    1.1726    0.8228    2.2672 C   0  0  0  0  0  0  0  0  0  0  0  0
    1.3942    1.9974    1.2720 C   0  0  0  0  0  0  0  0  0  0  0  0
    0.9922    2.8351   -0.9887 C   0  0  0  0  0  0  0  0  0  0  0  0
    0.2337    2.3408   -2.2313 C   0  0  0  0  0  0  0  0  0  0  0  0
    2.4733    3.0803   -1.3487 C   0  0  0  0  0  0  0  0  0  0  0  0
    0.3398    4.1478   -0.5023 C   0  0  0  0  0  0  0  0  0  0  0  0
    0.1256   -1.4284    2.2664 C   0  0  0  0  0  0  0  0  0  0  0  0
    1.0328   -2.2068    1.2714 C   0  0  0  0  0  0  0  0  0  0  0  0
    1.9601   -2.2757   -0.9890 C   0  0  0  0  0  0  0  0  0  0  0  0
    3.4233   -2.3663   -0.5027 C   0  0  0  0  0  0  0  0  0  0  0  0
    1.9107   -1.3715   -2.2316 C   0  0  0  0  0  0  0  0  0  0  0  0
    1.4329   -3.6812   -1.3493 C   0  0  0  0  0  0  0  0  0  0  0  0
   -1.3005    0.6037    2.2671 C   0  0  0  0  0  0  0  0  0  0  0  0
   -2.4281    0.2085    1.2714 C   0  0  0  0  0  0  0  0  0  0  0  0
   -2.9512   -0.5585   -0.9897 C   0  0  0  0  0  0  0  0  0  0  0  0
   -2.1427   -0.9682   -2.2317 C   0  0  0  0  0  0  0  0  0  0  0  0
   -3.9038    0.6015   -1.3507 C   0  0  0  0  0  0  0  0  0  0  0  0
   -3.7621   -1.7799   -0.5040 C   0  0  0  0  0  0  0  0  0  0  0  0
    2.0690    0.1704    2.2035 H   0  0  0  0  0  0  0  0  0  0  0  0
    1.1547    1.2575    3.2933 H   0  0  0  0  0  0  0  0  0  0  0  0
    0.6772    1.3990   -2.6173 H   0  0  0  0  0  0  0  0  0  0  0  0
    0.2661    3.0921   -3.0478 H   0  0  0  0  0  0  0  0  0  0  0  0
   -0.8290    2.1454   -1.9779 H   0  0  0  0  0  0  0  0  0  0  0  0
    3.0183    3.4046   -0.4419 H   0  0  0  0  0  0  0  0  0  0  0  0
    2.5729    3.8575   -2.1364 H   0  0  0  0  0  0  0  0  0  0  0  0
    2.9349    2.1430   -1.7234 H   0  0  0  0  0  0  0  0  0  0  0  0
    0.8583    4.5042    0.4074 H   0  0  0  0  0  0  0  0  0  0  0  0
   -0.7270    3.9676   -0.2562 H   0  0  0  0  0  0  0  0  0  0  0  0
    0.3911    4.9317   -1.2876 H   0  0  0  0  0  0  0  0  0  0  0  0
   -0.8875   -1.8786    2.2015 H   0  0  0  0  0  0  0  0  0  0  0  0
    0.5101   -1.6309    3.2927 H   0  0  0  0  0  0  0  0  0  0  0  0
    3.4731   -2.9935    0.4069 H   0  0  0  0  0  0  0  0  0  0  0  0
    3.8002   -1.3521   -0.2566 H   0  0  0  0  0  0  0  0  0  0  0  0
    4.0766   -2.8023   -1.2882 H   0  0  0  0  0  0  0  0  0  0  0  0
    2.2717   -0.3532   -1.9776 H   0  0  0  0  0  0  0  0  0  0  0  0
    0.8734   -1.2857   -2.6179 H   0  0  0  0  0  0  0  0  0  0  0  0
    2.5459   -1.7743   -3.0479 H   0  0  0  0  0  0  0  0  0  0  0  0
    1.4420   -4.3157   -0.4426 H   0  0  0  0  0  0  0  0  0  0  0  0
    2.0562   -4.1555   -2.1373 H   0  0  0  0  0  0  0  0  0  0  0  0
    0.3902   -3.6130   -1.7235 H   0  0  0  0  0  0  0  0  0  0  0  0
   -1.1840    1.7062    2.2044 H   0  0  0  0  0  0  0  0  0  0  0  0
   -1.6683    0.3700    3.2930 H   0  0  0  0  0  0  0  0  0  0  0  0
   -1.5493   -0.1128   -2.6176 H   0  0  0  0  0  0  0  0  0  0  0  0
   -2.8087   -1.3166   -3.0485 H   0  0  0  0  0  0  0  0  0  0  0  0
   -1.4417   -1.7901   -1.9773 H   0  0  0  0  0  0  0  0  0  0  0  0
   -4.4579    0.9115   -0.4443 H   0  0  0  0  0  0  0  0  0  0  0  0
   -4.6260    0.2991   -2.1389 H   0  0  0  0  0  0  0  0  0  0  0  0
   -3.3225    1.4698   -1.7250 H   0  0  0  0  0  0  0  0  0  0  0  0
   -4.3308   -1.5091    0.4052 H   0  0  0  0  0  0  0  0  0  0  0  0
   -3.0727   -2.6136   -0.2572 H   0  0  0  0  0  0  0  0  0  0  0  0
   -4.4659   -2.1276   -1.2899 H   0  0  0  0  0  0  0  0  0  0  0  0
  1  9  1  0  0  0  0
  2 15  1  0  0  0  0
  3 21  1  0  0  0  0
  4 14  1  0  0  0  0
  4 20  1  0  0  0  0
  4  8  1  0  0  0  0
  8 27  1  0  0  0  0
  9  5  2  0  0  0  0
  9  8  1  0  0  0  0
 10 13  1  0  0  0  0
 10  1  1  0  0  0  0
 11 30  1  0  0  0  0
 11 10  1  0  0  0  0
 12 10  1  0  0  0  0
 12 31  1  0  0  0  0
 13 35  1  0  0  0  0
 13 34  1  0  0  0  0
 14 38  1  0  0  0  0
 15  6  2  0  0  0  0
 15 14  1  0  0  0  0
 16 17  1  0  0  0  0
 16  2  1  0  0  0  0
 17 40  1  0  0  0  0
 17 39  1  0  0  0  0
 18 42  1  0  0  0  0
 18 16  1  0  0  0  0
 19 16  1  0  0  0  0
 19 45  1  0  0  0  0
 20 49  1  0  0  0  0
 21  7  2  0  0  0  0
 21 20  1  0  0  0  0
 22 25  1  0  0  0  0
 22  3  1  0  0  0  0
 23 52  1  0  0  0  0
 23 22  1  0  0  0  0
 24 22  1  0  0  0  0
 24 53  1  0  0  0  0
 25 57  1  0  0  0  0
 25 56  1  0  0  0  0
 26  8  1  0  0  0  0
 28 11  1  0  0  0  0
 29 11  1  0  0  0  0
 32 12  1  0  0  0  0
 33 12  1  0  0  0  0
 36 13  1  0  0  0  0
 37 14  1  0  0  0  0
 41 17  1  0  0  0  0
 43 18  1  0  0  0  0
 44 18  1  0  0  0  0
 46 19  1  0  0  0  0
 47 19  1  0  0  0  0
 48 20  1  0  0  0  0
 50 23  1  0  0  0  0
 51 23  1  0  0  0  0
 54 24  1  0  0  0  0
 55 24  1  0  0  0  0
 58 25  1  0  0  0  0
M  END
