1,2,3,4
q = -1.0, confidence = 0.01

 53 57  0  0  0  0  0  0  0  0999 V2000
   -2.1312    2.0231   -0.0873 N   0  0  0  0  0  2  0  0  0  0  0  0
    0.5164    1.4672   -0.5635 N   0  0  0  0  0  2  0  0  0  0  0  0
    0.5408   -1.4409   -0.5684 N   0  0  0  0  0  2  0  0  0  0  0  0
   -2.1022   -2.0495   -0.1509 N   0  0  0  0  0  2  0  0  0  0  0  0
   -3.4065    2.2629    0.2128 C   0  0  0  0  0  0  0  0  0  0  0  0
   -3.9202    1.4643    0.7726 H   0  0  0  0  0  0  0  0  0  0  0  0
   -4.0428    3.4825   -0.1246 C   0  0  0  0  0  0  0  0  0  0  0  0
   -5.0982    3.6367    0.1418 H   0  0  0  0  0  0  0  0  0  0  0  0
   -3.3150    4.4568   -0.7900 C   0  0  0  0  0  0  0  0  0  0  0  0
   -3.7790    5.4139   -1.0763 H   0  0  0  0  0  0  0  0  0  0  0  0
   -1.9438    4.2358   -1.1027 C   0  0  0  0  0  0  0  0  0  0  0  0
   -1.3767    2.9709   -0.7113 C   0  0  0  0  0  0  0  0  0  0  0  0
    0.0256    2.6943   -0.9581 C   0  0  0  0  0  0  0  0  0  0  0  0
    0.7731    3.6766   -1.6348 C   0  0  0  0  0  0  0  0  0  0  0  0
    1.8215    3.4685   -1.8914 H   0  0  0  0  0  0  0  0  0  0  0  0
    0.2017    4.9094   -2.0213 C   0  0  0  0  0  0  0  0  0  0  0  0
    0.8305    5.6452   -2.5458 H   0  0  0  0  0  0  0  0  0  0  0  0
   -1.1310    5.2019   -1.7595 C   0  0  0  0  0  3  0  0  0  0  0  0
   -1.5726    6.1653   -2.0546 H   0  0  0  0  0  0  0  0  0  0  0  0
    1.8166    1.2771   -0.3632 C   0  0  0  0  0  3  0  0  0  0  0  0
    2.4688    2.1744   -0.2911 H   0  0  0  0  0  0  0  0  0  0  0  0
    2.4715    0.0296   -0.2020 C   0  0  0  0  0  0  0  0  0  0  0  0
    1.8405   -1.2271   -0.3926 C   0  0  0  0  0  0  0  0  0  0  0  0
    2.5238   -2.1042   -0.4124 H   0  0  0  0  0  0  0  0  0  0  0  0
    3.9238    0.0282    0.1155 C   0  0  0  0  0  0  0  0  0  0  0  0
    4.4686   -0.9121    1.0192 C   0  0  0  0  0  0  0  0  0  0  0  0
    3.7980   -1.6227    1.5264 H   0  0  0  0  0  0  0  0  0  0  0  0
    5.8397   -0.9335    1.3097 C   0  0  0  0  0  0  0  0  0  0  0  0
    6.2282   -1.6779    2.0232 H   0  0  0  0  0  0  0  0  0  0  0  0
    6.7282   -0.0112    0.7246 C   0  0  0  0  0  0  0  0  0  0  0  0
    6.1866    0.9307   -0.1759 C   0  0  0  0  0  0  0  0  0  0  0  0
    6.8561    1.6571   -0.6646 H   0  0  0  0  0  0  0  0  0  0  0  0
    4.8210    0.9483   -0.4781 C   0  0  0  0  0  0  0  0  0  0  0  0
    4.4447    1.6732   -1.2164 H   0  0  0  0  0  0  0  0  0  0  0  0
    8.1994   -0.0107    1.0555 C   0  0  0  0  0  0  0  0  0  0  0  0
    8.4709    0.8646    1.6841 H   0  0  0  0  0  0  0  0  0  0  0  0
    8.8231    0.0480    0.1398 H   0  0  0  0  0  0  0  0  0  0  0  0
    8.4935   -0.9222    1.6115 H   0  0  0  0  0  0  0  0  0  0  0  0
   -3.3751   -2.3204    0.1315 C   0  0  0  0  0  0  0  0  0  0  0  0
   -3.9047   -1.5519    0.7179 H   0  0  0  0  0  0  0  0  0  0  0  0
   -3.9904   -3.5354   -0.2581 C   0  0  0  0  0  0  0  0  0  0  0  0
   -5.0446   -3.7169   -0.0040 H   0  0  0  0  0  0  0  0  0  0  0  0
   -3.2444   -4.4698   -0.9596 C   0  0  0  0  0  0  0  0  0  0  0  0
   -3.6924   -5.4208   -1.2885 H   0  0  0  0  0  0  0  0  0  0  0  0
   -1.8754   -4.2149   -1.2559 C   0  0  0  0  0  0  0  0  0  0  0  0
   -1.3294   -2.9598   -0.8072 C   0  0  0  0  0  0  0  0  0  0  0  0
    0.0702   -2.6522   -1.0331 C   0  0  0  0  0  0  0  0  0  0  0  0
    0.8337   -3.5888   -1.7550 C   0  0  0  0  0  0  0  0  0  0  0  0
    1.8788   -3.3529   -2.0004 H   0  0  0  0  0  0  0  0  0  0  0  0
    0.2823   -4.8115   -2.1986 C   0  0  0  0  0  0  0  0  0  0  0  0
    0.9235   -5.5120   -2.7554 H   0  0  0  0  0  0  0  0  0  0  0  0
   -1.0456   -5.1376   -1.9524 C   0  0  0  0  0  3  0  0  0  0  0  0
   -1.4709   -6.0937   -2.2920 H   0  0  0  0  0  0  0  0  0  0  0  0
  1  5  1  0  0  0  0
  2 20  1  0  0  0  0
  3 23  1  0  0  0  0
  4 39  1  0  0  0  0
  5  6  1  0  0  0  0
  7  8  1  0  0  0  0
  7  5  2  0  0  0  0
  9  7  1  0  0  0  0
 10  9  1  0  0  0  0
 11  9  2  0  0  0  0
 11 12  1  0  0  0  0
 12  1  1  0  0  0  0
 13 12  2  0  0  0  0
 13  2  1  0  0  0  0
 14 13  1  0  0  0  0
 15 14  1  0  0  0  0
 16 18  1  0  0  0  0
 16 14  2  0  0  0  0
 17 16  1  0  0  0  0
 18 11  1  0  0  0  0
 19 18  1  0  0  0  0
 20 21  1  0  0  0  0
 20 22  1  0  0  0  0
 22 25  1  0  0  0  0
 23 22  2  0  0  0  0
 24 23  1  0  0  0  0
 25 26  1  0  0  0  0
 26 28  2  0  0  0  0
 26 27  1  0  0  0  0
 28 29  1  0  0  0  0
 30 35  1  0  0  0  0
 30 28  1  0  0  0  0
 31 30  2  0  0  0  0
 32 31  1  0  0  0  0
 33 31  1  0  0  0  0
 33 25  2  0  0  0  0
 34 33  1  0  0  0  0
 35 38  1  0  0  0  0
 35 36  1  0  0  0  0
 37 35  1  0  0  0  0
 39 40  1  0  0  0  0
 41 42  1  0  0  0  0
 41 39  2  0  0  0  0
 43 41  1  0  0  0  0
 44 43  1  0  0  0  0
 45 43  2  0  0  0  0
 45 46  1  0  0  0  0
 46  4  1  0  0  0  0
 47 46  2  0  0  0  0
 47  3  1  0  0  0  0
 48 47  1  0  0  0  0
 49 48  1  0  0  0  0
 50 52  1  0  0  0  0
 50 48  2  0  0  0  0
 51 50  1  0  0  0  0
 52 45  1  0  0  0  0
 53 52  1  0  0  0  0
M  END
