1,3,4
q = 0.0, confidence = 0.998

 39 41  0  0  1  0  0  0  0  0999 V2000
   -0.8162    1.4092   -0.1070 N   0  0  0  0  0  2  0  0  0  0  0  0
   -1.8289   -1.0628    0.6513 N   0  0  0  0  0  0  0  0  0  0  0  0
    0.7794   -1.1133    1.5459 N   0  0  0  0  0  2  0  0  0  0  0  0
    2.2429    0.1800   -0.2631 N   0  0  0  0  0  2  0  0  0  0  0  0
   -0.2017    2.6027   -0.2098 C   0  0  0  0  0  3  0  0  0  0  0  0
    0.8682    2.5818   -0.4691 H   0  0  0  0  0  0  0  0  0  0  0  0
   -0.8759    3.8114    0.0034 C   0  0  0  0  0  0  0  0  0  0  0  0
   -0.3385    4.7649   -0.0972 H   0  0  0  0  0  0  0  0  0  0  0  0
   -2.2341    3.7715    0.3474 C   0  0  0  0  0  0  0  0  0  0  0  0
   -2.7952    4.7012    0.5238 H   0  0  0  0  0  0  0  0  0  0  0  0
   -2.8680    2.5252    0.4621 C   0  0  0  0  0  0  0  0  0  0  0  0
   -3.9329    2.4477    0.7259 H   0  0  0  0  0  0  0  0  0  0  0  0
   -2.1275    1.3631    0.2202 C   0  0  0  0  0  0  0  0  0  0  0  0
   -2.7749   -0.0139    0.2199 C   0  0  1  0  0  0  0  0  0  0  0  0
   -3.6846   -0.0008    0.8813 H   0  0  0  0  0  0  0  0  0  0  0  0
   -3.0859   -0.3459   -1.0989 O   0  0  0  0  0  0  0  0  0  0  0  0
   -3.0687   -1.7793   -1.2307 C   0  0  0  0  0  0  0  0  0  0  0  0
   -2.5183   -2.0125   -2.1616 H   0  0  0  0  0  0  0  0  0  0  0  0
   -4.1058   -2.1731   -1.2895 H   0  0  0  0  0  0  0  0  0  0  0  0
   -2.3318   -2.3035    0.0199 C   0  0  0  0  0  0  0  0  0  0  0  0
   -3.0169   -2.8438    0.7118 H   0  0  0  0  0  0  0  0  0  0  0  0
   -1.4874   -2.9656   -0.2574 H   0  0  0  0  0  0  0  0  0  0  0  0
   -1.5721   -1.1191    2.0927 C   0  0  0  0  0  0  0  0  0  0  0  0
   -2.3727   -1.6693    2.6382 H   0  0  0  0  0  0  0  0  0  0  0  0
   -1.5607   -0.0787    2.4796 H   0  0  0  0  0  0  0  0  0  0  0  0
   -0.2057   -1.7650    2.3774 C   0  0  0  0  0  0  0  0  0  0  0  0
    0.0371   -1.7218    3.4612 H   0  0  0  0  0  0  0  0  0  0  0  0
   -0.2354   -2.8387    2.0850 H   0  0  0  0  0  0  0  0  0  0  0  0
    1.9871   -0.8421    1.8861 C   0  0  0  0  0  0  0  0  0  0  0  0
    2.4116   -1.1050    2.8777 H   0  0  0  0  0  0  0  0  0  0  0  0
    2.8580   -0.1897    0.8871 C   0  0  0  0  0  0  0  0  0  0  0  0
    4.2388   -0.0236    1.0812 C   0  0  0  0  0  0  0  0  0  0  0  0
    4.7073   -0.3330    2.0274 H   0  0  0  0  0  0  0  0  0  0  0  0
    5.0014    0.5204    0.0350 C   0  0  0  0  0  0  0  0  0  0  0  0
    6.0862    0.6600    0.1520 H   0  0  0  0  0  0  0  0  0  0  0  0
    4.3629    0.8630   -1.1643 C   0  0  0  0  0  0  0  0  0  0  0  0
    4.9273    1.2717   -2.0146 H   0  0  0  0  0  0  0  0  0  0  0  0
    2.9734    0.6698   -1.2720 C   0  0  0  0  0  0  0  0  0  0  0  0
    2.4276    0.8958   -2.2030 H   0  0  0  0  0  0  0  0  0  0  0  0
  1 13  1  0  0  0  0
  2 23  1  0  0  0  0
  3 29  1  0  0  0  0
  3 26  1  0  0  0  0
  4 31  1  0  0  0  0
  5  1  1  0  0  0  0
  5  7  1  0  0  0  0
  6  5  1  0  0  0  0
  7  9  2  0  0  0  0
  8  7  1  0  0  0  0
  9 11  1  0  0  0  0
  9 10  1  0  0  0  0
 11 12  1  0  0  0  0
 13 11  2  0  0  0  0
 14 13  1  0  0  0  0
 14  2  1  0  0  0  0
 14 15  1  1  0  0  0
 16 14  1  0  0  0  0
 17 16  1  0  0  0  0
 17 20  1  0  0  0  0
 18 17  1  0  0  0  0
 19 17  1  0  0  0  0
 20  2  1  0  0  0  0
 20 21  1  0  0  0  0
 22 20  1  0  0  0  0
 23 26  1  0  0  0  0
 23 25  1  0  0  0  0
 23 24  1  0  0  0  0
 26 27  1  0  0  0  0
 28 26  1  0  0  0  0
 29 30  1  0  0  0  0
 31 32  1  0  0  0  0
 31 29  2  0  0  0  0
 32 33  1  0  0  0  0
 34 35  1  0  0  0  0
 34 32  2  0  0  0  0
 36 34  1  0  0  0  0
 37 36  1  0  0  0  0
 38 36  2  0  0  0  0
 38  4  1  0  0  0  0
 39 38  1  0  0  0  0
M  END
