1,2,3,4
q = 0.0, confidence = 0.996

 56 59  0  0  1  0  0  0  0  0999 V2000
    0.1600   -1.3522   -0.5069 N   0  0  0  0  0  0  0  0  0  0  0  0
    0.3454    1.0950    0.6075 N   0  0  0  0  0  0  0  0  0  0  0  0
   -2.4386   -1.3724   -0.4713 N   0  0  0  0  0  2  0  0  0  0  0  0
   -1.0344   -0.5847    1.9842 N   0  0  0  0  0  2  0  0  0  0  0  0
   -3.7500   -1.3948   -0.1494 C   0  0  0  0  0  3  0  0  0  0  0  0
   -4.5985   -2.3947   -0.6384 C   0  0  0  0  0  0  0  0  0  0  0  0
   -4.0681   -3.3925   -1.4697 C   0  0  0  0  0  0  0  0  0  0  0  0
   -2.7024   -3.3606   -1.7959 C   0  0  0  0  0  0  0  0  0  0  0  0
   -1.9072   -2.3270   -1.2886 C   0  0  0  0  0  0  0  0  0  0  0  0
   -0.4386   -2.1367   -1.6066 C   0  0  0  0  0  0  0  0  0  0  0  0
    1.4379   -0.6238   -0.7588 C   0  0  1  0  0  0  0  0  0  0  0  0
    1.6029    0.2928    0.4788 C   0  0  1  0  0  0  0  0  0  0  0  0
   -1.5592   -1.6865    2.5606 C   0  0  0  0  0  3  0  0  0  0  0  0
   -1.5254   -1.8854    3.9437 C   0  0  0  0  0  0  0  0  0  0  0  0
   -0.9277   -0.9067    4.7517 C   0  0  0  0  0  0  0  0  0  0  0  0
   -0.3750    0.2306    4.1477 C   0  0  0  0  0  0  0  0  0  0  0  0
   -0.4450    0.3714    2.7561 C   0  0  0  0  0  0  0  0  0  0  0  0
    0.0929    1.5484    1.9857 C   0  0  0  0  0  0  0  0  0  0  0  0
    2.6182   -1.5360   -1.0035 C   0  0  0  0  0  0  0  0  0  0  0  0
    3.5046   -1.2660   -2.0619 C   0  0  0  0  0  0  0  0  0  0  0  0
    4.6356   -2.0705   -2.2634 C   0  0  0  0  0  0  0  0  0  0  0  0
    4.8875   -3.1568   -1.4115 C   0  0  0  0  0  0  0  0  0  0  0  0
    4.0083   -3.4345   -0.3522 C   0  0  0  0  0  0  0  0  0  0  0  0
    2.8829   -2.6237   -0.1466 C   0  0  0  0  0  0  0  0  0  0  0  0
    2.8759    1.1136    0.4734 C   0  0  0  0  0  0  0  0  0  0  0  0
    3.9800    0.6516    1.2183 C   0  0  0  0  0  0  0  0  0  0  0  0
    5.1998    1.3407    1.1842 C   0  0  0  0  0  0  0  0  0  0  0  0
    5.3232    2.5055    0.4104 C   0  0  0  0  0  0  0  0  0  0  0  0
    4.2238    2.9755   -0.3248 C   0  0  0  0  0  0  0  0  0  0  0  0
    3.0020    2.2850   -0.3028 C   0  0  0  0  0  0  0  0  0  0  0  0
   -4.0891   -0.5741    0.5037 H   0  0  0  0  0  0  0  0  0  0  0  0
   -5.6631   -2.3832   -0.3653 H   0  0  0  0  0  0  0  0  0  0  0  0
   -4.7117   -4.1932   -1.8630 H   0  0  0  0  0  0  0  0  0  0  0  0
   -2.2551   -4.1288   -2.4432 H   0  0  0  0  0  0  0  0  0  0  0  0
   -2.0305   -2.4194    1.8886 H   0  0  0  0  0  0  0  0  0  0  0  0
   -1.9678   -2.7943    4.3748 H   0  0  0  0  0  0  0  0  0  0  0  0
   -0.8890   -1.0304    5.8440 H   0  0  0  0  0  0  0  0  0  0  0  0
    0.1095    1.0148    4.7468 H   0  0  0  0  0  0  0  0  0  0  0  0
    3.3148   -0.4065   -2.7237 H   0  0  0  0  0  0  0  0  0  0  0  0
    5.3246   -1.8464   -3.0910 H   0  0  0  0  0  0  0  0  0  0  0  0
    5.7733   -3.7893   -1.5709 H   0  0  0  0  0  0  0  0  0  0  0  0
    4.2047   -4.2821    0.3209 H   0  0  0  0  0  0  0  0  0  0  0  0
    2.2180   -2.8472    0.7062 H   0  0  0  0  0  0  0  0  0  0  0  0
    3.8860   -0.2642    1.8236 H   0  0  0  0  0  0  0  0  0  0  0  0
    6.0553    0.9698    1.7682 H   0  0  0  0  0  0  0  0  0  0  0  0
    6.2776    3.0524    0.3866 H   0  0  0  0  0  0  0  0  0  0  0  0
    4.3117    3.8944   -0.9233 H   0  0  0  0  0  0  0  0  0  0  0  0
    2.1463    2.6815   -0.8741 H   0  0  0  0  0  0  0  0  0  0  0  0
    1.2836    0.0183   -1.6509 H   0  0  0  0  0  0  0  0  0  0  0  0
    1.6472   -0.3854    1.3607 H   0  0  0  0  0  0  0  0  0  0  0  0
    0.3202   -1.9885    0.2902 H   0  0  0  0  0  0  0  0  0  0  0  0
    0.3507    1.9093   -0.0983 H   0  0  0  0  0  0  0  0  0  0  0  0
   -0.3202   -1.5562   -2.5467 H   0  0  0  0  0  0  0  0  0  0  0  0
    0.0829   -3.1030   -1.7687 H   0  0  0  0  0  0  0  0  0  0  0  0
    1.0078    1.9700    2.4530 H   0  0  0  0  0  0  0  0  0  0  0  0
   -0.6781    2.3454    1.9510 H   0  0  0  0  0  0  0  0  0  0  0  0
  1 51  1  0  0  0  0
  2 18  1  0  0  0  0
  3  5  1  0  0  0  0
  4 13  1  0  0  0  0
  4 17  1  0  0  0  0
  5 31  1  0  0  0  0
  6 32  1  0  0  0  0
  6  5  1  0  0  0  0
  7  6  2  0  0  0  0
  8  7  1  0  0  0  0
  8  9  2  0  0  0  0
  9  3  1  0  0  0  0
 10  9  1  0  0  0  0
 10  1  1  0  0  0  0
 11 49  1  6  0  0  0
 11  1  1  0  0  0  0
 11 12  1  0  0  0  0
 12  2  1  0  0  0  0
 12 50  1  1  0  0  0
 13 14  1  0  0  0  0
 14 36  1  0  0  0  0
 14 15  2  0  0  0  0
 15 37  1  0  0  0  0
 16 38  1  0  0  0  0
 16 15  1  0  0  0  0
 17 16  2  0  0  0  0
 18 55  1  0  0  0  0
 18 17  1  0  0  0  0
 19 11  1  0  0  0  0
 19 24  1  0  0  0  0
 20 19  2  0  0  0  0
 21 20  1  0  0  0  0
 21 22  2  0  0  0  0
 22 23  1  0  0  0  0
 23 24  2  0  0  0  0
 23 42  1  0  0  0  0
 24 43  1  0  0  0  0
 25 12  1  0  0  0  0
 25 26  1  0  0  0  0
 26 44  1  0  0  0  0
 27 26  2  0  0  0  0
 27 45  1  0  0  0  0
 28 27  1  0  0  0  0
 29 30  1  0  0  0  0
 29 28  2  0  0  0  0
 30 25  2  0  0  0  0
 33  7  1  0  0  0  0
 34  8  1  0  0  0  0
 35 13  1  0  0  0  0
 39 20  1  0  0  0  0
 40 21  1  0  0  0  0
 41 22  1  0  0  0  0
 46 28  1  0  0  0  0
 47 29  1  0  0  0  0
 48 30  1  0  0  0  0
 52  2  1  0  0  0  0
 53 10  1  0  0  0  0
 54 10  1  0  0  0  0
 56 18  1  0  0  0  0
M  END
