3,4,5,6
q = -1.0, confidence = 0.008

 39 38  0  0  0  0  0  0  0  0999 V2000
   -1.0417   -2.7948    0.5067 O   0  0  0  0  0  1  0  0  0  0  0  0
    1.3160   -2.7818    0.0119 O   0  0  0  0  0  0  0  0  0  0  0  0
   -1.2917   -1.5777    0.1807 N   0  0  0  0  0  2  0  0  0  0  0  0
   -1.4535    0.8357   -0.4404 N   0  0  0  0  0  2  0  0  0  0  0  0
    1.4685    1.0332    0.1109 N   0  0  0  0  0  2  0  0  0  0  0  0
    1.4685   -1.4875    0.0081 N   0  0  0  0  0  2  0  0  0  0  0  0
   -2.5513   -1.1504    0.1158 C   0  0  0  0  0  0  0  0  0  0  0  0
   -2.6226    0.2448   -0.3023 C   0  0  0  0  0  0  0  0  0  0  0  0
   -1.2779    2.1807   -0.9675 C   0  0  0  0  0  0  0  0  0  0  0  0
   -1.0623    3.2100    0.1466 C   0  0  0  0  0  0  0  0  0  0  0  0
    0.0423    2.8247    1.1351 C   0  0  0  0  0  0  0  0  0  0  0  0
    1.3781    2.4487    0.4896 C   0  0  0  0  0  0  0  0  0  0  0  0
    2.6519    0.4899   -0.0889 C   0  0  0  0  0  0  0  0  0  0  0  0
    2.6669   -0.9681   -0.2202 C   0  0  0  0  0  0  0  0  0  0  0  0
   -3.6826   -2.0792    0.3966 C   0  0  0  0  0  0  0  0  0  0  0  0
   -3.9514    0.8762   -0.5754 C   0  0  0  0  0  0  0  0  0  0  0  0
    3.9257    1.2749   -0.0965 C   0  0  0  0  0  0  0  0  0  0  0  0
    3.8750   -1.8037   -0.4817 C   0  0  0  0  0  0  0  0  0  0  0  0
    0.2256   -2.9329    0.2722 H   0  0  0  0  0  0  0  0  0  0  0  0
   -2.1342    2.4743   -1.6073 H   0  0  0  0  0  0  0  0  0  0  0  0
   -0.3918    2.1491   -1.6359 H   0  0  0  0  0  0  0  0  0  0  0  0
   -0.8206    4.1824   -0.3329 H   0  0  0  0  0  0  0  0  0  0  0  0
   -2.0131    3.3619    0.6992 H   0  0  0  0  0  0  0  0  0  0  0  0
    0.2189    3.6796    1.8182 H   0  0  0  0  0  0  0  0  0  0  0  0
   -0.2854    1.9853    1.7854 H   0  0  0  0  0  0  0  0  0  0  0  0
    2.1988    2.6696    1.2043 H   0  0  0  0  0  0  0  0  0  0  0  0
    1.5747    3.0884   -0.4025 H   0  0  0  0  0  0  0  0  0  0  0  0
   -3.6321   -2.4447    1.4439 H   0  0  0  0  0  0  0  0  0  0  0  0
   -3.6042   -2.9813   -0.2451 H   0  0  0  0  0  0  0  0  0  0  0  0
   -4.6648   -1.6041    0.2323 H   0  0  0  0  0  0  0  0  0  0  0  0
   -4.6098    0.7593    0.3094 H   0  0  0  0  0  0  0  0  0  0  0  0
   -4.4593    0.3592   -1.4165 H   0  0  0  0  0  0  0  0  0  0  0  0
   -3.8827    1.9507   -0.8134 H   0  0  0  0  0  0  0  0  0  0  0  0
    4.7875    0.6625   -0.4110 H   0  0  0  0  0  0  0  0  0  0  0  0
    4.1433    1.6680    0.9207 H   0  0  0  0  0  0  0  0  0  0  0  0
    3.8502    2.1549   -0.7662 H   0  0  0  0  0  0  0  0  0  0  0  0
    3.5762   -2.8475   -0.6817 H   0  0  0  0  0  0  0  0  0  0  0  0
    4.4456   -1.4199   -1.3507 H   0  0  0  0  0  0  0  0  0  0  0  0
    4.5605   -1.8057    0.3926 H   0  0  0  0  0  0  0  0  0  0  0  0
  2 19  1  0  0  0  0
  3  1  1  0  0  0  0
  4  8  1  0  0  0  0
  5 12  1  0  0  0  0
  6  2  1  0  0  0  0
  7  3  1  0  0  0  0
  7 15  1  0  0  0  0
  8  7  2  0  0  0  0
  9  4  1  0  0  0  0
  9 10  1  0  0  0  0
 10 23  1  0  0  0  0
 10 11  1  0  0  0  0
 11 25  1  0  0  0  0
 11 24  1  0  0  0  0
 12 11  1  0  0  0  0
 12 26  1  0  0  0  0
 13  5  1  0  0  0  0
 14 13  2  0  0  0  0
 14  6  1  0  0  0  0
 15 28  1  0  0  0  0
 16  8  1  0  0  0  0
 16 31  1  0  0  0  0
 17 13  1  0  0  0  0
 17 35  1  0  0  0  0
 18 14  1  0  0  0  0
 18 39  1  0  0  0  0
 20  9  1  0  0  0  0
 21  9  1  0  0  0  0
 22 10  1  0  0  0  0
 27 12  1  0  0  0  0
 29 15  1  0  0  0  0
 30 15  1  0  0  0  0
 32 16  1  0  0  0  0
 33 16  1  0  0  0  0
 34 17  1  0  0  0  0
 36 17  1  0  0  0  0
 37 18  1  0  0  0  0
 38 18  1  0  0  0  0
M  END
