1,3,4,6
q = 0.0, confidence = 0.998

 43 43  0  0  0  0  0  0  0  0999 V2000
    0.1482    1.9852   -0.5237 N   0  0  0  0  0  0  0  0  0  0  0  0
   -0.0983    1.8447   -1.5204 H   0  0  0  0  0  0  0  0  0  0  0  0
   -1.6542   -0.2557    0.2678 N   0  0  0  0  0  0  0  0  0  0  0  0
    0.6557   -1.7801    0.6984 N   0  0  0  0  0  0  0  0  0  0  0  0
    0.9020   -1.5600    1.6822 H   0  0  0  0  0  0  0  0  0  0  0  0
    2.3595    0.4224   -0.0906 N   0  0  0  0  0  0  0  0  0  0  0  0
    2.5563    0.6408    0.9046 H   0  0  0  0  0  0  0  0  0  0  0  0
   -0.8814    2.8157    0.1466 C   0  0  0  0  0  0  0  0  0  0  0  0
   -0.9110    3.8090   -0.3528 H   0  0  0  0  0  0  0  0  0  0  0  0
   -0.5310    2.9706    1.1862 H   0  0  0  0  0  0  0  0  0  0  0  0
   -2.2698    2.1952    0.1595 C   0  0  0  0  0  0  0  0  0  0  0  0
   -2.9471    2.9173    0.6586 H   0  0  0  0  0  0  0  0  0  0  0  0
   -2.6730    2.0888   -0.8698 H   0  0  0  0  0  0  0  0  0  0  0  0
   -2.3535    0.8865    0.9343 C   0  0  0  0  0  0  0  0  0  0  0  0
   -1.8899    1.0082    1.9309 H   0  0  0  0  0  0  0  0  0  0  0  0
   -3.4167    0.5971    1.0742 H   0  0  0  0  0  0  0  0  0  0  0  0
   -1.6959   -1.4517    1.1634 C   0  0  0  0  0  0  0  0  0  0  0  0
   -2.7166   -1.8895    1.1690 H   0  0  0  0  0  0  0  0  0  0  0  0
   -1.4594   -1.1057    2.1884 H   0  0  0  0  0  0  0  0  0  0  0  0
   -0.6603   -2.4546    0.7011 C   0  0  0  0  0  0  0  0  0  0  0  0
   -0.6478   -3.3449    1.3661 H   0  0  0  0  0  0  0  0  0  0  0  0
   -0.8619   -2.8159   -0.3268 H   0  0  0  0  0  0  0  0  0  0  0  0
    1.7320   -2.6023    0.1082 C   0  0  0  0  0  0  0  0  0  0  0  0
    1.4887   -2.7491   -0.9633 H   0  0  0  0  0  0  0  0  0  0  0  0
    1.7292   -3.5987    0.6020 H   0  0  0  0  0  0  0  0  0  0  0  0
    3.0963   -1.9439    0.2691 C   0  0  0  0  0  0  0  0  0  0  0  0
    3.3096   -1.7561    1.3457 H   0  0  0  0  0  0  0  0  0  0  0  0
    3.8704   -2.6613   -0.0691 H   0  0  0  0  0  0  0  0  0  0  0  0
    3.2579   -0.6651   -0.5410 C   0  0  0  0  0  0  0  0  0  0  0  0
    4.3061   -0.3002   -0.4729 H   0  0  0  0  0  0  0  0  0  0  0  0
    3.0291   -0.8534   -1.6082 H   0  0  0  0  0  0  0  0  0  0  0  0
    2.5352    1.6558   -0.8922 C   0  0  0  0  0  0  0  0  0  0  0  0
    2.4067    1.3785   -1.9574 H   0  0  0  0  0  0  0  0  0  0  0  0
    3.5561    2.0732   -0.7595 H   0  0  0  0  0  0  0  0  0  0  0  0
    1.4773    2.6448   -0.4550 C   0  0  0  0  0  0  0  0  0  0  0  0
    1.6373    2.9432    0.6010 H   0  0  0  0  0  0  0  0  0  0  0  0
    1.4982    3.5650   -1.0763 H   0  0  0  0  0  0  0  0  0  0  0  0
   -2.3591   -0.5847   -1.0264 C   0  0  0  0  0  0  0  0  0  0  0  0
   -2.2129    0.2569   -1.7286 H   0  0  0  0  0  0  0  0  0  0  0  0
   -1.8326   -1.4306   -1.5051 H   0  0  0  0  0  0  0  0  0  0  0  0
   -3.7782   -0.8832   -0.8640 C   0  0  0  0  0  0  0  0  0  0  0  0
   -4.9668   -1.1471   -0.7549 C   0  0  0  0  0  0  0  0  0  0  0  0
   -6.0208   -1.3809   -0.6716 H   0  0  0  0  0  0  0  0  0  0  0  0
  1 35  1  0  0  0  0
  1  8  1  0  0  0  0
  2  1  1  0  0  0  0
  3 14  1  0  0  0  0
  3 17  1  0  0  0  0
  4 20  1  0  0  0  0
  4  5  1  0  0  0  0
  6  7  1  0  0  0  0
  8 11  1  0  0  0  0
  8 10  1  0  0  0  0
  9  8  1  0  0  0  0
 11 12  1  0  0  0  0
 11 14  1  0  0  0  0
 13 11  1  0  0  0  0
 14 16  1  0  0  0  0
 14 15  1  0  0  0  0
 17 18  1  0  0  0  0
 17 19  1  0  0  0  0
 20 17  1  0  0  0  0
 20 21  1  0  0  0  0
 22 20  1  0  0  0  0
 23 26  1  0  0  0  0
 23 25  1  0  0  0  0
 23  4  1  0  0  0  0
 24 23  1  0  0  0  0
 26 27  1  0  0  0  0
 28 26  1  0  0  0  0
 29 30  1  0  0  0  0
 29  6  1  0  0  0  0
 29 26  1  0  0  0  0
 31 29  1  0  0  0  0
 32 34  1  0  0  0  0
 32 35  1  0  0  0  0
 32  6  1  0  0  0  0
 33 32  1  0  0  0  0
 35 36  1  0  0  0  0
 37 35  1  0  0  0  0
 38 41  1  0  0  0  0
 38  3  1  0  0  0  0
 39 38  1  0  0  0  0
 40 38  1  0  0  0  0
 41 42  3  0  0  0  0
 42 43  1  0  0  0  0
M  END
