2,3,4,5
q = 0.0, confidence = 0.982

 50 52  0  0  1  0  0  0  0  0999 V2000
   -0.1466    0.5324    1.8196 O   0  0  0  0  0  0  0  0  0  0  0  0
   -0.3235   -2.1597    0.0244 N   0  0  0  0  0  0  0  0  0  0  0  0
    2.0112   -0.7170   -0.1085 N   0  0  0  0  0  2  0  0  0  0  0  0
   -2.1228   -0.0550   -0.2512 N   0  0  0  0  0  2  0  0  0  0  0  0
    0.3980    2.1025   -0.2389 N   0  0  0  0  0  2  0  0  0  0  0  0
    0.8185   -2.7481   -0.6960 C   0  0  0  0  0  0  0  0  0  0  0  0
    2.1064   -2.0492   -0.3178 C   0  0  1  0  0  3  0  0  0  0  0  0
    3.3419   -2.7117   -0.2567 C   0  0  0  0  0  0  0  0  0  0  0  0
    4.5008   -1.9697    0.0103 C   0  0  0  0  0  0  0  0  0  0  0  0
    4.3926   -0.5854    0.2105 C   0  0  0  0  0  0  0  0  0  0  0  0
    3.1224   -0.0019    0.1411 C   0  0  0  0  0  0  0  0  0  0  0  0
   -1.6083   -2.3914   -0.6541 C   0  0  0  0  0  0  0  0  0  0  0  0
   -2.6203   -1.3043   -0.3594 C   0  0  2  0  0  3  0  0  0  0  0  0
   -3.9989   -1.5512   -0.2722 C   0  0  0  0  0  0  0  0  0  0  0  0
   -4.8710   -0.4708   -0.0786 C   0  0  0  0  0  0  0  0  0  0  0  0
   -4.3410    0.8239    0.0293 C   0  0  0  0  0  0  0  0  0  0  0  0
   -2.9533    0.9834   -0.0596 C   0  0  0  0  0  0  0  0  0  0  0  0
   -0.3170   -2.5864    1.4441 C   0  0  0  0  0  0  0  0  0  0  0  0
   -0.9896   -1.6600    2.4631 C   0  0  0  0  0  0  0  0  0  0  0  0
   -0.1964   -0.4277    2.8757 C   0  0  0  0  0  0  0  0  0  0  0  0
    0.5073    1.7301    2.1737 C   0  0  0  0  0  0  0  0  0  0  0  0
    0.5525    2.6587    0.9805 C   0  0  1  0  0  3  0  0  0  0  0  0
    0.7863    4.0349    1.1318 C   0  0  0  0  0  0  0  0  0  0  0  0
    0.8680    4.8379   -0.0137 C   0  0  0  0  0  0  0  0  0  0  0  0
    0.7078    4.2476   -1.2770 C   0  0  0  0  0  0  0  0  0  0  0  0
    0.4702    2.8714   -1.3482 C   0  0  0  0  0  0  0  0  0  0  0  0
    0.6609   -2.5502   -1.7805 H   0  0  0  0  0  0  0  0  0  0  0  0
    0.9060   -3.8474   -0.5411 H   0  0  0  0  0  0  0  0  0  0  0  0
    3.3896   -3.7979   -0.4231 H   0  0  0  0  0  0  0  0  0  0  0  0
    5.4806   -2.4677    0.0604 H   0  0  0  0  0  0  0  0  0  0  0  0
    5.2764    0.0347    0.4164 H   0  0  0  0  0  0  0  0  0  0  0  0
    2.9847    1.0834    0.2768 H   0  0  0  0  0  0  0  0  0  0  0  0
   -1.4095   -2.3321   -1.7474 H   0  0  0  0  0  0  0  0  0  0  0  0
   -2.0329   -3.3955   -0.4263 H   0  0  0  0  0  0  0  0  0  0  0  0
   -4.3795   -2.5798   -0.3567 H   0  0  0  0  0  0  0  0  0  0  0  0
   -5.9562   -0.6385   -0.0090 H   0  0  0  0  0  0  0  0  0  0  0  0
   -4.9902    1.6973    0.1829 H   0  0  0  0  0  0  0  0  0  0  0  0
   -2.4824    1.9762    0.0245 H   0  0  0  0  0  0  0  0  0  0  0  0
    0.7444   -2.7099    1.7436 H   0  0  0  0  0  0  0  0  0  0  0  0
   -0.7775   -3.6003    1.5124 H   0  0  0  0  0  0  0  0  0  0  0  0
   -2.0093   -1.3654    2.1447 H   0  0  0  0  0  0  0  0  0  0  0  0
   -1.1294   -2.2572    3.3883 H   0  0  0  0  0  0  0  0  0  0  0  0
    0.8438   -0.7137    3.1674 H   0  0  0  0  0  0  0  0  0  0  0  0
   -0.6712    0.0425    3.7680 H   0  0  0  0  0  0  0  0  0  0  0  0
   -0.0118    2.2329    3.0238 H   0  0  0  0  0  0  0  0  0  0  0  0
    1.5525    1.5225    2.5188 H   0  0  0  0  0  0  0  0  0  0  0  0
    0.8989    4.4681    2.1369 H   0  0  0  0  0  0  0  0  0  0  0  0
    1.0500    5.9190    0.0802 H   0  0  0  0  0  0  0  0  0  0  0  0
    0.7624    4.8434   -2.1990 H   0  0  0  0  0  0  0  0  0  0  0  0
    0.3331    2.3285   -2.3009 H   0  0  0  0  0  0  0  0  0  0  0  0
  1 21  1  0  0  0  0
  1 20  1  0  0  0  0
  2 18  1  0  0  0  0
  3 11  1  0  0  0  0
  4 17  1  0  0  0  0
  5 22  1  0  0  0  0
  6 28  1  0  0  0  0
  6  2  1  0  0  0  0
  7  6  1  6  0  0  0
  7  8  1  0  0  0  0
  7  3  1  0  0  0  0
  8  9  2  0  0  0  0
  9 30  1  0  0  0  0
  9 10  1  0  0  0  0
 10 31  1  0  0  0  0
 11 10  2  0  0  0  0
 11 32  1  0  0  0  0
 12 34  1  0  0  0  0
 12  2  1  0  0  0  0
 13 12  1  6  0  0  0
 13 14  1  0  0  0  0
 13  4  1  0  0  0  0
 14 15  2  0  0  0  0
 15 36  1  0  0  0  0
 15 16  1  0  0  0  0
 16 37  1  0  0  0  0
 17 38  1  0  0  0  0
 17 16  2  0  0  0  0
 18 40  1  0  0  0  0
 18 39  1  0  0  0  0
 18 19  1  0  0  0  0
 19 20  1  0  0  0  0
 19 42  1  0  0  0  0
 20 43  1  0  0  0  0
 20 44  1  0  0  0  0
 21 46  1  0  0  0  0
 21 45  1  0  0  0  0
 22 23  1  0  0  0  0
 22 21  1  6  0  0  0
 23 47  1  0  0  0  0
 24 48  1  0  0  0  0
 24 23  2  0  0  0  0
 25 24  1  0  0  0  0
 26 25  2  0  0  0  0
 26  5  1  0  0  0  0
 27  6  1  0  0  0  0
 29  8  1  0  0  0  0
 33 12  1  0  0  0  0
 35 14  1  0  0  0  0
 41 19  1  0  0  0  0
 49 25  1  0  0  0  0
 50 26  1  0  0  0  0
M  END
