1,5,9,13
q = -3.0

 49 48  0  0  0  0  0  0  0  0999 V2000
   -0.0635   -0.6871    1.6396 N   0  0  0  0  0  0  0  0  0  0  0  0
    0.8181    0.2670    2.3671 C   0  0  0  0  0  0  0  0  0  0  0  0
    0.6766    1.6736    1.7645 C   0  0  0  0  0  0  0  0  0  0  0  0
    0.7985    2.6991    2.4717 O   0  0  0  0  0  0  0  0  0  0  0  0
    0.4062    1.6075    0.4434 N   0  0  0  0  0  2  0  0  0  0  0  0
    0.5063   -2.0525    1.5776 C   0  0  0  0  0  0  0  0  0  0  0  0
    1.7191   -2.0652    0.6289 C   0  0  0  0  0  0  0  0  0  0  0  0
    2.5803   -2.9669    0.7059 O   0  0  0  0  0  0  0  0  0  0  0  0
    1.6607   -1.0363   -0.2560 N   0  0  0  0  0  2  0  0  0  0  0  0
   -1.4653   -0.6428    2.1152 C   0  0  0  0  0  0  0  0  0  0  0  0
   -2.4528   -0.9409    0.9739 C   0  0  0  0  0  0  0  0  0  0  0  0
   -3.5623   -1.4588    1.2025 O   0  0  0  0  0  0  0  0  0  0  0  0
   -1.9586   -0.5171   -0.2240 N   0  0  0  0  0  2  0  0  0  0  0  0
    0.1340    2.8798   -0.2267 C   0  0  0  0  0  0  0  0  0  0  0  0
    1.3998    3.7372   -0.3860 C   0  0  0  0  0  0  0  0  0  0  0  0
   -0.5498    2.6152   -1.5670 C   0  0  0  0  0  0  0  0  0  0  0  0
    2.7782   -0.9456   -1.1929 C   0  0  0  0  0  0  0  0  0  0  0  0
    2.5802   -1.9172   -2.3675 C   0  0  0  0  0  0  0  0  0  0  0  0
    2.9516    0.4969   -1.6619 C   0  0  0  0  0  0  0  0  0  0  0  0
   -2.8486   -0.7054   -1.3711 C   0  0  0  0  0  0  0  0  0  0  0  0
   -2.0158   -0.7817   -2.6536 C   0  0  0  0  0  0  0  0  0  0  0  0
   -3.9312    0.3830   -1.4347 C   0  0  0  0  0  0  0  0  0  0  0  0
    1.8643   -0.0735    2.2448 H   0  0  0  0  0  0  0  0  0  0  0  0
    0.5788    0.2923    3.4522 H   0  0  0  0  0  0  0  0  0  0  0  0
   -0.2844   -2.7287    1.1837 H   0  0  0  0  0  0  0  0  0  0  0  0
    0.8056   -2.4312    2.5824 H   0  0  0  0  0  0  0  0  0  0  0  0
   -1.6651    0.3867    2.4774 H   0  0  0  0  0  0  0  0  0  0  0  0
   -1.6351   -1.3432    2.9620 H   0  0  0  0  0  0  0  0  0  0  0  0
   -0.5646    3.4655    0.4211 H   0  0  0  0  0  0  0  0  0  0  0  0
    1.8495    3.8985    0.6122 H   0  0  0  0  0  0  0  0  0  0  0  0
    1.1545    4.7265   -0.8300 H   0  0  0  0  0  0  0  0  0  0  0  0
    2.1389    3.2356   -1.0434 H   0  0  0  0  0  0  0  0  0  0  0  0
   -1.4739    2.0256   -1.4176 H   0  0  0  0  0  0  0  0  0  0  0  0
    0.1219    2.0418   -2.2444 H   0  0  0  0  0  0  0  0  0  0  0  0
   -0.8074    3.5639   -2.0828 H   0  0  0  0  0  0  0  0  0  0  0  0
    3.7008   -1.2731   -0.6572 H   0  0  0  0  0  0  0  0  0  0  0  0
    2.5095   -2.9515   -1.9774 H   0  0  0  0  0  0  0  0  0  0  0  0
    3.4239   -1.8688   -3.0896 H   0  0  0  0  0  0  0  0  0  0  0  0
    1.6414   -1.6748   -2.9111 H   0  0  0  0  0  0  0  0  0  0  0  0
    3.0569    1.1770   -0.7952 H   0  0  0  0  0  0  0  0  0  0  0  0
    2.0608    0.8356   -2.2332 H   0  0  0  0  0  0  0  0  0  0  0  0
    3.8390    0.6021   -2.3209 H   0  0  0  0  0  0  0  0  0  0  0  0
   -3.3826   -1.6746   -1.2284 H   0  0  0  0  0  0  0  0  0  0  0  0
   -1.2570   -1.5887   -2.5791 H   0  0  0  0  0  0  0  0  0  0  0  0
   -1.4790    0.1726   -2.8406 H   0  0  0  0  0  0  0  0  0  0  0  0
   -2.6525   -0.9838   -3.5410 H   0  0  0  0  0  0  0  0  0  0  0  0
   -4.5249    0.3592   -0.5002 H   0  0  0  0  0  0  0  0  0  0  0  0
   -4.6202    0.2213   -2.2914 H   0  0  0  0  0  0  0  0  0  0  0  0
   -3.4767    1.3900   -1.5424 H   0  0  0  0  0  0  0  0  0  0  0  0
  1 10  1  0  0  0  0
  1  2  1  0  0  0  0
  2 24  1  0  0  0  0
  3  2  1  0  0  0  0
  3  4  2  0  0  0  0
  5  3  1  0  0  0  0
  6  1  1  0  0  0  0
  6 26  1  0  0  0  0
  7  8  2  0  0  0  0
  7  6  1  0  0  0  0
  9  7  1  0  0  0  0
 10 27  1  0  0  0  0
 10 28  1  0  0  0  0
 11 12  2  0  0  0  0
 11 10  1  0  0  0  0
 13 11  1  0  0  0  0
 14 29  1  0  0  0  0
 14  5  1  0  0  0  0
 15 14  1  0  0  0  0
 15 30  1  0  0  0  0
 16 33  1  0  0  0  0
 16 14  1  0  0  0  0
 17 36  1  0  0  0  0
 17  9  1  0  0  0  0
 18 37  1  0  0  0  0
 18 17  1  0  0  0  0
 19 17  1  0  0  0  0
 19 40  1  0  0  0  0
 20 43  1  0  0  0  0
 20 13  1  0  0  0  0
 21 44  1  0  0  0  0
 21 20  1  0  0  0  0
 22 20  1  0  0  0  0
 22 47  1  0  0  0  0
 23  2  1  0  0  0  0
 25  6  1  0  0  0  0
 31 15  1  0  0  0  0
 32 15  1  0  0  0  0
 34 16  1  0  0  0  0
 35 16  1  0  0  0  0
 38 18  1  0  0  0  0
 39 18  1  0  0  0  0
 41 19  1  0  0  0  0
 42 19  1  0  0  0  0
 45 21  1  0  0  0  0
 46 21  1  0  0  0  0
 48 22  1  0  0  0  0
 49 22  1  0  0  0  0
M  END
