2,3,4,5
q = -2.0, confidence = 0.766

 72 79  0  0  0  0  0  0  0  0999 V2000
    0.1449    4.1843   -1.1078 S   0  0  0  0  0  0  0  0  0  0  0  0
   -1.6685   -1.8804    0.9332 N   0  0  0  0  0  0  0  0  0  0  0  0
   -1.5060    0.5580   -0.2853 N   0  0  0  0  0  2  0  0  0  0  0  0
    1.2353    0.3289   -0.4058 N   0  0  0  0  0  0  0  0  0  0  0  0
    1.0918   -2.0602    0.9073 N   0  0  0  0  0  0  0  0  0  0  0  0
    0.8784   -3.0603    1.8421 C   0  0  0  0  0  3  0  0  0  0  0  0
   -1.5622   -2.9676    1.7828 C   0  0  0  0  0  0  0  0  0  0  0  0
    2.4287   -2.1569    0.5662 C   0  0  0  0  0  0  0  0  0  0  0  0
   -2.8769    0.4022   -0.4146 C   0  0  0  0  0  0  0  0  0  0  0  0
    3.0666   -3.2213    1.3112 C   0  0  0  0  0  0  0  0  0  0  0  0
    4.1248   -3.4889    1.2272 H   0  0  0  0  0  0  0  0  0  0  0  0
   -3.6068   -0.7594   -0.1169 C   0  0  0  0  0  0  0  0  0  0  0  0
   -3.0067   -1.8225    0.5767 C   0  0  0  0  0  0  0  0  0  0  0  0
    2.1067   -3.7607    2.1294 C   0  0  0  0  0  0  0  0  0  0  0  0
    2.1997   -4.5850    2.8464 H   0  0  0  0  0  0  0  0  0  0  0  0
   -2.8432   -3.6079    1.9562 C   0  0  0  0  0  0  0  0  0  0  0  0
   -3.0159   -4.4959    2.5758 H   0  0  0  0  0  0  0  0  0  0  0  0
   -0.3707   -3.4662    2.2995 C   0  0  0  0  0  0  0  0  0  0  0  0
   -0.4195   -4.3090    3.0026 H   0  0  0  0  0  0  0  0  0  0  0  0
    4.5272   -1.5977   -0.6518 C   0  0  0  0  0  0  0  0  0  0  0  0
    1.1639    1.6484   -0.8085 C   0  0  0  0  0  0  0  0  0  0  0  0
    2.5286   -0.0801   -0.7105 C   0  0  0  0  0  0  0  0  0  0  0  0
    3.1171   -1.2808   -0.2905 C   0  0  0  0  0  0  0  0  0  0  0  0
   -5.0608   -0.7900   -0.4399 C   0  0  0  0  0  0  0  0  0  0  0  0
   -1.2622    1.8984   -0.5401 C   0  0  0  0  0  0  0  0  0  0  0  0
    0.0112    2.4456   -0.7400 C   0  0  0  0  0  0  0  0  0  0  0  0
   -6.0471   -0.8418    0.5684 C   0  0  0  0  0  0  0  0  0  0  0  0
   -5.7361   -0.8529    1.6237 H   0  0  0  0  0  0  0  0  0  0  0  0
   -5.4881   -0.7298   -1.7837 C   0  0  0  0  0  0  0  0  0  0  0  0
   -4.7329   -0.6794   -2.5826 H   0  0  0  0  0  0  0  0  0  0  0  0
   -3.7334   -2.9285    1.1641 C   0  0  0  0  0  0  0  0  0  0  0  0
   -4.7960   -3.1340    1.0017 H   0  0  0  0  0  0  0  0  0  0  0  0
   -6.8514   -0.7378   -2.1054 C   0  0  0  0  0  0  0  0  0  0  0  0
   -7.1575   -0.6937   -3.1628 H   0  0  0  0  0  0  0  0  0  0  0  0
    3.2428    0.9820   -1.3848 C   0  0  0  0  0  0  0  0  0  0  0  0
    4.2614    0.9000   -1.7762 H   0  0  0  0  0  0  0  0  0  0  0  0
   -7.4090   -0.8473    0.2401 C   0  0  0  0  0  0  0  0  0  0  0  0
   -8.1590   -0.8760    1.0468 H   0  0  0  0  0  0  0  0  0  0  0  0
    6.1467   -3.0756   -1.7359 C   0  0  0  0  0  0  0  0  0  0  0  0
    6.3505   -3.9822   -2.3279 H   0  0  0  0  0  0  0  0  0  0  0  0
    2.4101    2.0698   -1.4032 C   0  0  0  0  0  0  0  0  0  0  0  0
    2.5869    3.0679   -1.8166 H   0  0  0  0  0  0  0  0  0  0  0  0
    5.6018   -0.7846   -0.2322 C   0  0  0  0  0  0  0  0  0  0  0  0
    5.3940    0.1039    0.3826 H   0  0  0  0  0  0  0  0  0  0  0  0
    4.8243   -2.7546   -1.4037 C   0  0  0  0  0  0  0  0  0  0  0  0
    3.9996   -3.4045   -1.7331 H   0  0  0  0  0  0  0  0  0  0  0  0
    1.2349    3.9456    1.3626 N   0  0  0  0  0  0  0  0  0  0  0  0
    7.2220   -2.2598   -1.3287 C   0  0  0  0  0  0  0  0  0  0  0  0
   -7.8395   -0.8021   -1.1018 C   0  0  0  0  0  0  0  0  0  0  0  0
    0.9701    4.7909    0.3658 C   0  0  0  0  0  0  0  0  0  0  0  0
    1.3052    6.1644    0.3972 C   0  0  0  0  0  0  0  0  0  0  0  0
    1.0671    6.8214   -0.4531 H   0  0  0  0  0  0  0  0  0  0  0  0
    6.9224   -1.1126   -0.5657 C   0  0  0  0  0  0  0  0  0  0  0  0
    7.7440   -0.4670   -0.2163 H   0  0  0  0  0  0  0  0  0  0  0  0
   -3.4986    1.6661   -0.7464 C   0  0  0  0  0  0  0  0  0  0  0  0
   -4.5744    1.8093   -0.8903 H   0  0  0  0  0  0  0  0  0  0  0  0
   -2.5011    2.6048   -0.7752 C   0  0  0  0  0  0  0  0  0  0  0  0
   -2.5698    3.6800   -0.9701 H   0  0  0  0  0  0  0  0  0  0  0  0
    1.9467    6.6516    1.5391 C   0  0  0  0  0  0  0  0  0  0  0  0
    2.2244    7.7150    1.6041 H   0  0  0  0  0  0  0  0  0  0  0  0
    8.6413   -2.5893   -1.7166 C   0  0  0  0  0  0  0  0  0  0  0  0
    9.3673   -2.2156   -0.9678 H   0  0  0  0  0  0  0  0  0  0  0  0
    8.9066   -2.1211   -2.6894 H   0  0  0  0  0  0  0  0  0  0  0  0
    8.7914   -3.6811   -1.8307 H   0  0  0  0  0  0  0  0  0  0  0  0
   -9.3053   -0.8448   -1.4522 C   0  0  0  0  0  0  0  0  0  0  0  0
   -9.9297   -0.3953   -0.6549 H   0  0  0  0  0  0  0  0  0  0  0  0
   -9.6521   -1.8926   -1.5855 H   0  0  0  0  0  0  0  0  0  0  0  0
   -9.5153   -0.3106   -2.3998 H   0  0  0  0  0  0  0  0  0  0  0  0
    2.2338    5.7690    2.5958 C   0  0  0  0  0  0  0  0  0  0  0  0
    2.7395    6.1138    3.5094 H   0  0  0  0  0  0  0  0  0  0  0  0
    1.8551    4.4266    2.4516 C   0  0  0  0  0  0  0  0  0  0  0  0
    2.0590    3.6960    3.2547 H   0  0  0  0  0  0  0  0  0  0  0  0
  1 26  1  0  0  0  0
  1 50  1  0  0  0  0
  2  7  1  0  0  0  0
  5  6  1  0  0  0  0
  6 14  1  0  0  0  0
  6 18  1  0  0  0  0
  7 16  1  0  0  0  0
  7 18  2  0  0  0  0
  8  5  2  0  0  0  0
  8 10  1  0  0  0  0
  9  3  1  0  0  0  0
  9 12  2  0  0  0  0
 10 14  2  0  0  0  0
 11 10  1  0  0  0  0
 12 13  1  0  0  0  0
 13  2  2  0  0  0  0
 13 31  1  0  0  0  0
 14 15  1  0  0  0  0
 16 17  1  0  0  0  0
 18 19  1  0  0  0  0
 20 23  1  0  0  0  0
 20 43  1  0  0  0  0
 21 26  1  0  0  0  0
 21  4  2  0  0  0  0
 22  4  1  0  0  0  0
 22 23  2  0  0  0  0
 23  8  1  0  0  0  0
 24 12  1  0  0  0  0
 24 27  1  0  0  0  0
 25  3  1  0  0  0  0
 26 25  2  0  0  0  0
 27 28  1  0  0  0  0
 29 24  2  0  0  0  0
 30 29  1  0  0  0  0
 31 16  2  0  0  0  0
 32 31  1  0  0  0  0
 33 29  1  0  0  0  0
 33 49  2  0  0  0  0
 34 33  1  0  0  0  0
 35 22  1  0  0  0  0
 36 35  1  0  0  0  0
 37 27  2  0  0  0  0
 37 38  1  0  0  0  0
 39 45  1  0  0  0  0
 39 48  2  0  0  0  0
 40 39  1  0  0  0  0
 41 35  2  0  0  0  0
 41 21  1  0  0  0  0
 42 41  1  0  0  0  0
 43 44  1  0  0  0  0
 45 20  2  0  0  0  0
 46 45  1  0  0  0  0
 47 71  1  0  0  0  0
 48 53  1  0  0  0  0
 49 37  1  0  0  0  0
 50 51  1  0  0  0  0
 50 47  2  0  0  0  0
 51 59  2  0  0  0  0
 52 51  1  0  0  0  0
 53 43  2  0  0  0  0
 53 54  1  0  0  0  0
 55  9  1  0  0  0  0
 56 55  1  0  0  0  0
 57 55  2  0  0  0  0
 57 25  1  0  0  0  0
 58 57  1  0  0  0  0
 59 60  1  0  0  0  0
 59 69  1  0  0  0  0
 61 48  1  0  0  0  0
 61 62  1  0  0  0  0
 63 61  1  0  0  0  0
 64 61  1  0  0  0  0
 65 49  1  0  0  0  0
 65 66  1  0  0  0  0
 67 65  1  0  0  0  0
 68 65  1  0  0  0  0
 69 70  1  0  0  0  0
 71 69  2  0  0  0  0
 71 72  1  0  0  0  0
M  END
