3,4,5,6
q = -1.0, confidence = 0.178

 81 90  0  0  1  0  0  0  0  0999 V2000
    1.5297   -4.4838   -1.4968 S   0  0  0  0  0  0  0  0  0  0  0  0
    3.8635   -3.3845   -0.5162 N   0  0  0  0  0  0  0  0  0  0  0  0
   -1.1139   -1.7064   -0.2387 N   0  0  0  0  0  2  0  0  0  0  0  0
    1.4436   -0.6703   -0.1705 N   0  0  0  0  0  0  0  0  0  0  0  0
    0.4058    1.8593   -0.0950 N   0  0  0  0  0  0  0  0  0  0  0  0
   -2.1318    0.8247   -0.1153 N   0  0  0  0  0  0  0  0  0  0  0  0
    3.2118   -4.4750   -1.0671 C   0  0  2  0  0  3  0  0  0  0  0  0
    5.2062   -3.4857   -0.2025 C   0  0  0  0  0  0  0  0  0  0  0  0
    5.6472   -2.5909    0.2499 H   0  0  0  0  0  0  0  0  0  0  0  0
    4.2158    2.5550    2.1194 C   0  0  0  0  0  0  0  0  0  0  0  0
    3.3350    2.6438    2.7731 H   0  0  0  0  0  0  0  0  0  0  0  0
   -2.4169   -2.0785    0.0389 C   0  0  0  0  0  0  0  0  0  0  0  0
    3.9387   -5.6548   -1.3390 C   0  0  0  0  0  0  0  0  0  0  0  0
    3.3964   -6.5027   -1.7819 H   0  0  0  0  0  0  0  0  0  0  0  0
    3.7144   -0.9808    0.2242 C   0  0  0  0  0  0  0  0  0  0  0  0
    4.7316   -0.7331    0.5395 H   0  0  0  0  0  0  0  0  0  0  0  0
   -2.1835    4.5285   -0.9721 C   0  0  0  0  0  0  0  0  0  0  0  0
    6.5910    2.9919    1.7039 C   0  0  0  0  0  0  0  0  0  0  0  0
    3.1973   -2.1592   -0.2875 C   0  0  0  0  0  0  0  0  0  0  0  0
    1.7874   -1.9494   -0.5051 C   0  0  0  0  0  0  0  0  0  0  0  0
    5.4439    3.0919    2.5208 C   0  0  0  0  0  0  0  0  0  0  0  0
    5.5168    3.6023    3.4942 H   0  0  0  0  0  0  0  0  0  0  0  0
    5.2326    1.7879    0.0573 C   0  0  0  0  0  0  0  0  0  0  0  0
    5.1481    1.3083   -0.9300 H   0  0  0  0  0  0  0  0  0  0  0  0
   -0.2248    3.0443   -0.4410 C   0  0  0  0  0  0  0  0  0  0  0  0
   -7.2551   -2.9586    1.5700 C   0  0  0  0  0  0  0  0  0  0  0  0
   -3.3025    0.1815    0.2660 C   0  0  0  0  0  0  0  0  0  0  0  0
    5.2921   -5.7444   -1.0399 C   0  0  0  0  0  0  0  0  0  0  0  0
    5.8474   -6.6692   -1.2502 H   0  0  0  0  0  0  0  0  0  0  0  0
   -2.6072   -3.4886   -0.2176 C   0  0  0  0  0  0  0  0  0  0  0  0
   -3.5520   -4.0232   -0.0775 H   0  0  0  0  0  0  0  0  0  0  0  0
   -1.4122   -3.9771   -0.6799 C   0  0  0  0  0  0  0  0  0  0  0  0
   -1.1734   -5.0071   -0.9697 H   0  0  0  0  0  0  0  0  0  0  0  0
    5.9322   -4.6309   -0.4497 C   0  0  0  0  0  0  0  0  0  0  0  0
    6.9968   -4.6532   -0.1809 H   0  0  0  0  0  0  0  0  0  0  0  0
    1.7177    2.2089    0.1909 C   0  0  0  0  0  3  0  0  0  0  0  0
   -4.7714   -1.7894    0.7919 C   0  0  0  0  0  0  0  0  0  0  0  0
    6.4584    2.3330    0.4651 C   0  0  0  0  0  0  0  0  0  0  0  0
    7.3319    2.2590   -0.2016 H   0  0  0  0  0  0  0  0  0  0  0  0
    2.6302   -0.0503    0.2359 C   0  0  0  0  0  0  0  0  0  0  0  0
   -3.4615   -1.2066    0.3945 C   0  0  0  0  0  0  0  0  0  0  0  0
   -5.9348   -1.6010    0.0143 C   0  0  0  0  0  0  0  0  0  0  0  0
   -5.8751   -1.0175   -0.9167 H   0  0  0  0  0  0  0  0  0  0  0  0
    4.0916    1.8852    0.8818 C   0  0  0  0  0  0  0  0  0  0  0  0
   -0.4865   -2.8711   -0.6549 C   0  0  0  0  0  0  0  0  0  0  0  0
   -1.6079    3.2027   -0.6139 C   0  0  0  0  0  0  0  0  0  0  0  0
   -3.8963    2.3374   -0.0681 C   0  0  0  0  0  0  0  0  0  0  0  0
   -4.4155    3.2978   -0.1477 H   0  0  0  0  0  0  0  0  0  0  0  0
   -4.3897    1.1315    0.3541 C   0  0  0  0  0  0  0  0  0  0  0  0
   -5.4044    0.8903    0.6849 H   0  0  0  0  0  0  0  0  0  0  0  0
    0.8928   -2.9685   -0.8534 C   0  0  0  0  0  0  0  0  0  0  0  0
   -2.4879    2.1430   -0.3332 C   0  0  0  0  0  0  0  0  0  0  0  0
    1.9133    3.6313    0.0048 C   0  0  0  0  0  0  0  0  0  0  0  0
    2.8671    4.1498    0.1456 H   0  0  0  0  0  0  0  0  0  0  0  0
   -7.1507   -2.1791    0.3985 C   0  0  0  0  0  0  0  0  0  0  0  0
   -8.0414   -2.0302   -0.2319 H   0  0  0  0  0  0  0  0  0  0  0  0
    0.7226    4.1393   -0.4385 C   0  0  0  0  0  0  0  0  0  0  0  0
    0.4883    5.1681   -0.7284 H   0  0  0  0  0  0  0  0  0  0  0  0
   -8.5750   -3.5447    1.9977 C   0  0  0  0  0  0  0  0  0  0  0  0
   -9.2044   -3.8138    1.1269 H   0  0  0  0  0  0  0  0  0  0  0  0
   -9.1528   -2.8123    2.6016 H   0  0  0  0  0  0  0  0  0  0  0  0
   -8.4393   -4.4481    2.6234 H   0  0  0  0  0  0  0  0  0  0  0  0
   -6.0871   -3.1514    2.3364 C   0  0  0  0  0  0  0  0  0  0  0  0
   -6.1375   -3.7590    3.2536 H   0  0  0  0  0  0  0  0  0  0  0  0
    7.9030    3.5876    2.1432 C   0  0  0  0  0  0  0  0  0  0  0  0
    7.8280    4.6912    2.2364 H   0  0  0  0  0  0  0  0  0  0  0  0
    8.7168    3.3642    1.4274 H   0  0  0  0  0  0  0  0  0  0  0  0
    8.2057    3.2045    3.1394 H   0  0  0  0  0  0  0  0  0  0  0  0
   -4.8651   -2.5834    1.9553 C   0  0  0  0  0  0  0  0  0  0  0  0
   -3.9678   -2.7441    2.5722 H   0  0  0  0  0  0  0  0  0  0  0  0
    2.7745    1.3294    0.4663 C   0  0  0  0  0  0  0  0  0  0  0  0
   -2.0350    5.6503   -0.1270 C   0  0  0  0  0  0  0  0  0  0  0  0
   -1.4899    5.5431    0.8229 H   0  0  0  0  0  0  0  0  0  0  0  0
   -3.3262    7.0138   -1.6735 C   0  0  0  0  0  0  0  0  0  0  0  0
   -3.7704    7.9825   -1.9470 H   0  0  0  0  0  0  0  0  0  0  0  0
   -2.6040    6.8831   -0.4766 C   0  0  0  0  0  0  0  0  0  0  0  0
   -2.4895    7.7466    0.1959 H   0  0  0  0  0  0  0  0  0  0  0  0
   -2.9237    4.6667   -2.1669 C   0  0  0  0  0  0  0  0  0  0  0  0
   -3.0453    3.7954   -2.8280 H   0  0  0  0  0  0  0  0  0  0  0  0
   -3.4856    5.9026   -2.5166 C   0  0  0  0  0  0  0  0  0  0  0  0
   -4.0510    5.9986   -3.4557 H   0  0  0  0  0  0  0  0  0  0  0  0
  1 51  1  0  0  0  0
  2 19  1  0  0  0  0
  2  8  1  0  0  0  0
  3 12  1  0  0  0  0
  4 40  1  0  0  0  0
  5 36  1  0  0  0  0
  6 27  2  0  0  0  0
  7  1  1  6  0  0  0
  7  2  1  0  0  0  0
  8  9  1  0  0  0  0
 10 21  1  0  0  0  0
 10 11  1  0  0  0  0
 12 41  2  0  0  0  0
 13  7  1  0  0  0  0
 13 28  2  0  0  0  0
 14 13  1  0  0  0  0
 15 40  1  0  0  0  0
 15 16  1  0  0  0  0
 17 46  1  0  0  0  0
 17 72  1  0  0  0  0
 18 65  1  0  0  0  0
 18 21  2  0  0  0  0
 19 15  2  0  0  0  0
 20 19  1  0  0  0  0
 20  4  2  0  0  0  0
 21 22  1  0  0  0  0
 23 38  2  0  0  0  0
 23 44  1  0  0  0  0
 24 23  1  0  0  0  0
 25 57  1  0  0  0  0
 25  5  2  0  0  0  0
 26 59  1  0  0  0  0
 26 63  1  0  0  0  0
 27 49  1  0  0  0  0
 27 41  1  0  0  0  0
 28 34  1  0  0  0  0
 29 28  1  0  0  0  0
 30 31  1  0  0  0  0
 30 12  1  0  0  0  0
 32 45  1  0  0  0  0
 32 30  2  0  0  0  0
 33 32  1  0  0  0  0
 34  8  2  0  0  0  0
 34 35  1  0  0  0  0
 36 71  1  0  0  0  0
 37 69  1  0  0  0  0
 38 18  1  0  0  0  0
 39 38  1  0  0  0  0
 40 71  2  0  0  0  0
 41 37  1  0  0  0  0
 42 55  1  0  0  0  0
 42 37  2  0  0  0  0
 43 42  1  0  0  0  0
 44 10  2  0  0  0  0
 45  3  1  0  0  0  0
 46 25  1  0  0  0  0
 46 52  2  0  0  0  0
 47 49  2  0  0  0  0
 48 47  1  0  0  0  0
 49 50  1  0  0  0  0
 51 45  2  0  0  0  0
 51 20  1  0  0  0  0
 52  6  1  0  0  0  0
 52 47  1  0  0  0  0
 53 54  1  0  0  0  0
 53 36  1  0  0  0  0
 55 26  2  0  0  0  0
 56 55  1  0  0  0  0
 57 53  2  0  0  0  0
 58 57  1  0  0  0  0
 59 61  1  0  0  0  0
 59 62  1  0  0  0  0
 60 59  1  0  0  0  0
 63 64  1  0  0  0  0
 65 66  1  0  0  0  0
 65 68  1  0  0  0  0
 67 65  1  0  0  0  0
 69 63  2  0  0  0  0
 69 70  1  0  0  0  0
 71 44  1  0  0  0  0
 72 73  1  0  0  0  0
 74 76  1  0  0  0  0
 75 74  1  0  0  0  0
 76 72  2  0  0  0  0
 76 77  1  0  0  0  0
 78 17  2  0  0  0  0
 79 78  1  0  0  0  0
 80 78  1  0  0  0  0
 80 74  2  0  0  0  0
 81 80  1  0  0  0  0
M  END
