2,6,14,16
q = -2.0, confidence = 0.974

 37 38  0  0  1  0  0  0  0  0999 V2000
   -5.5752    0.4872   -0.4400 Cl  0  0  0  0  0  0  0  0  0  0  0  0
   -1.1070   -0.0221    0.0121 N   0  0  0  0  0  2  0  0  0  0  0  0
   -0.9748    3.4869    0.4708 O   0  0  0  0  0  0  0  0  0  0  0  0
   -1.8957   -1.1184   -0.2136 C   0  0  2  0  0  3  0  0  0  0  0  0
   -1.6557   -3.5330   -0.1883 O   0  0  0  0  0  0  0  0  0  0  0  0
    0.5905    1.7565    0.6301 N   0  0  0  0  0  2  0  0  0  0  0  0
   -3.2813   -0.9946   -0.3468 C   0  0  0  0  0  0  0  0  0  0  0  0
   -3.8760   -1.9041   -0.5094 H   0  0  0  0  0  0  0  0  0  0  0  0
    3.2750    1.6952   -0.6568 N   0  0  0  0  0  0  0  0  0  0  0  0
    3.5509    2.5070   -1.2229 H   0  0  0  0  0  0  0  0  0  0  0  0
   -3.8540    0.2877   -0.2537 C   0  0  0  0  0  0  0  0  0  0  0  0
   -3.0423    1.4098    0.0010 C   0  0  0  0  0  0  0  0  0  0  0  0
   -3.4418    2.4282    0.0985 H   0  0  0  0  0  0  0  0  0  0  0  0
    2.7257   -1.1833    0.0268 N   0  0  0  0  0  0  0  0  0  0  0  0
    3.0571   -1.1421    1.0036 H   0  0  0  0  0  0  0  0  0  0  0  0
    0.1926   -2.0947   -0.0584 N   0  0  0  0  0  2  0  0  0  0  0  0
   -1.6665    1.2074    0.1447 C   0  0  0  0  0  0  0  0  0  0  0  0
   -0.6679    2.2854    0.4359 C   0  0  0  0  0  0  0  0  0  0  0  0
    1.6048    2.7862    0.8100 C   0  0  0  0  0  0  0  0  0  0  0  0
    1.5002    3.3040    1.7925 H   0  0  0  0  0  0  0  0  0  0  0  0
    1.4784    3.6009    0.0568 H   0  0  0  0  0  0  0  0  0  0  0  0
    2.9801    2.1649    0.7119 C   0  0  0  0  0  0  0  0  0  0  0  0
    3.7660    2.8705    1.0716 H   0  0  0  0  0  0  0  0  0  0  0  0
    3.0089    1.2812    1.3816 H   0  0  0  0  0  0  0  0  0  0  0  0
    4.3418    0.6828   -0.6764 C   0  0  0  0  0  0  0  0  0  0  0  0
    4.9562    0.7396    0.2526 H   0  0  0  0  0  0  0  0  0  0  0  0
    5.0402    0.8820   -1.5154 H   0  0  0  0  0  0  0  0  0  0  0  0
    3.8005   -0.7260   -0.8865 C   0  0  0  0  0  0  0  0  0  0  0  0
    3.3696   -0.7882   -1.9058 H   0  0  0  0  0  0  0  0  0  0  0  0
    4.6600   -1.4366   -0.8561 H   0  0  0  0  0  0  0  0  0  0  0  0
    2.4755   -2.6214   -0.3217 C   0  0  0  0  0  0  0  0  0  0  0  0
    3.3399   -3.2533   -0.0140 H   0  0  0  0  0  0  0  0  0  0  0  0
    2.4095   -2.6591   -1.4275 H   0  0  0  0  0  0  0  0  0  0  0  0
    1.1597   -3.1116    0.2466 C   0  0  0  0  0  0  0  0  0  0  0  0
    0.8777   -4.0969   -0.1862 H   0  0  0  0  0  0  0  0  0  0  0  0
    1.2490   -3.2736    1.3530 H   0  0  0  0  0  0  0  0  0  0  0  0
   -1.1294   -2.4060   -0.1795 C   0  0  0  0  0  0  0  0  0  0  0  0
  1 11  1  0  0  0  0
  2 17  1  0  0  0  0
  4  7  1  1  0  0  0
  4 37  1  0  0  0  0
  4  2  1  0  0  0  0
  5 37  2  0  0  0  0
  6 19  1  0  0  0  0
  7 11  2  0  0  0  0
  8  7  1  0  0  0  0
  9 22  1  0  0  0  0
 10  9  1  0  0  0  0
 11 12  1  0  0  0  0
 12 13  1  0  0  0  0
 12 17  2  0  0  0  0
 14 15  1  0  0  0  0
 16 34  1  0  0  0  0
 17 18  1  0  0  0  0
 18  3  2  0  0  0  0
 18  6  1  0  0  0  0
 19 20  1  0  0  0  0
 21 19  1  0  0  0  0
 22 19  1  0  0  0  0
 22 23  1  0  0  0  0
 22 24  1  0  0  0  0
 25  9  1  0  0  0  0
 25 26  1  0  0  0  0
 27 25  1  0  0  0  0
 28 30  1  0  0  0  0
 28 25  1  0  0  0  0
 28 14  1  0  0  0  0
 29 28  1  0  0  0  0
 31 32  1  0  0  0  0
 31 14  1  0  0  0  0
 31 34  1  0  0  0  0
 33 31  1  0  0  0  0
 34 36  1  0  0  0  0
 35 34  1  0  0  0  0
 37 16  1  0  0  0  0
M  END
