1,2,3,4
q = -2.0, confidence = 0.888

 64 68  0  0  0  0  0  0  0  0999 V2000
   -1.4414   -1.3733    0.0049 N   0  0  0  0  0  0  0  0  0  0  0  0
   -1.4425    1.3721    0.0050 N   0  0  0  0  0  0  0  0  0  0  0  0
    1.4414    1.3733    0.0048 N   0  0  0  0  0  0  0  0  0  0  0  0
    1.4425   -1.3721    0.0049 N   0  0  0  0  0  0  0  0  0  0  0  0
   -1.2569   -2.6354    0.5572 C   0  0  0  0  0  3  0  0  0  0  0  0
   -2.4682   -3.3225    0.5019 C   0  0  0  0  0  0  0  0  0  0  0  0
   -2.6562   -4.3301    0.8895 H   0  0  0  0  0  0  0  0  0  0  0  0
   -3.4252   -2.4475   -0.0942 C   0  0  0  0  0  0  0  0  0  0  0  0
   -4.4790   -2.6718   -0.2937 H   0  0  0  0  0  0  0  0  0  0  0  0
   -2.7745   -1.2477   -0.3810 C   0  0  0  0  0  0  0  0  0  0  0  0
   -3.3545   -0.0014   -1.0321 C   0  0  0  0  0  0  0  0  0  0  0  0
   -2.7750    1.2462   -0.3829 C   0  0  0  0  0  0  0  0  0  0  0  0
   -3.4258    2.4467   -0.0992 C   0  0  0  0  0  0  0  0  0  0  0  0
   -4.4793    2.6709   -0.3005 H   0  0  0  0  0  0  0  0  0  0  0  0
   -2.4696    3.3224    0.4971 C   0  0  0  0  0  0  0  0  0  0  0  0
   -2.6579    4.3306    0.8829 H   0  0  0  0  0  0  0  0  0  0  0  0
   -1.2586    2.6351    0.5554 C   0  0  0  0  0  3  0  0  0  0  0  0
   -0.0014    3.0088    1.3113 C   0  0  0  0  0  0  0  0  0  0  0  0
    1.2570    2.6354    0.5572 C   0  0  0  0  0  3  0  0  0  0  0  0
    2.4683    3.3224    0.5020 C   0  0  0  0  0  0  0  0  0  0  0  0
    2.6563    4.3300    0.8896 H   0  0  0  0  0  0  0  0  0  0  0  0
    3.4252    2.4474   -0.0942 C   0  0  0  0  0  0  0  0  0  0  0  0
    4.4791    2.6718   -0.2936 H   0  0  0  0  0  0  0  0  0  0  0  0
    2.7745    1.2477   -0.3810 C   0  0  0  0  0  0  0  0  0  0  0  0
    3.3545    0.0014   -1.0322 C   0  0  0  0  0  0  0  0  0  0  0  0
    2.7750   -1.2462   -0.3829 C   0  0  0  0  0  0  0  0  0  0  0  0
    3.4259   -2.4466   -0.0991 C   0  0  0  0  0  0  0  0  0  0  0  0
    4.4794   -2.6708   -0.3004 H   0  0  0  0  0  0  0  0  0  0  0  0
    2.4696   -3.3223    0.4971 C   0  0  0  0  0  0  0  0  0  0  0  0
    2.6580   -4.3305    0.8830 H   0  0  0  0  0  0  0  0  0  0  0  0
    1.2586   -2.6351    0.5555 C   0  0  0  0  0  3  0  0  0  0  0  0
    0.0014   -3.0088    1.3113 C   0  0  0  0  0  0  0  0  0  0  0  0
   -4.8835   -0.0015   -0.8162 C   0  0  0  0  0  0  0  0  0  0  0  0
   -5.3403   -0.8935   -1.2883 H   0  0  0  0  0  0  0  0  0  0  0  0
   -5.3406    0.8897   -1.2896 H   0  0  0  0  0  0  0  0  0  0  0  0
   -5.1366   -0.0007    0.2613 H   0  0  0  0  0  0  0  0  0  0  0  0
   -3.1215   -0.0026   -2.5699 C   0  0  0  0  0  0  0  0  0  0  0  0
   -2.0471   -0.0028   -2.8288 H   0  0  0  0  0  0  0  0  0  0  0  0
   -3.5799    0.9014   -3.0224 H   0  0  0  0  0  0  0  0  0  0  0  0
   -3.5799   -0.9074   -3.0209 H   0  0  0  0  0  0  0  0  0  0  0  0
   -0.0018    4.5170    1.6104 C   0  0  0  0  0  0  0  0  0  0  0  0
   -0.0011    5.1086    0.6742 H   0  0  0  0  0  0  0  0  0  0  0  0
    0.8911    4.7947    2.2041 H   0  0  0  0  0  0  0  0  0  0  0  0
   -0.8957    4.7945    2.2026 H   0  0  0  0  0  0  0  0  0  0  0  0
   -0.0023    2.2450    2.6700 C   0  0  0  0  0  0  0  0  0  0  0  0
   -0.9090    2.4991    3.2570 H   0  0  0  0  0  0  0  0  0  0  0  0
    0.9036    2.4994    3.2582 H   0  0  0  0  0  0  0  0  0  0  0  0
   -0.0020    1.1494    2.5050 H   0  0  0  0  0  0  0  0  0  0  0  0
    4.8835    0.0015   -0.8163 C   0  0  0  0  0  0  0  0  0  0  0  0
    5.1367    0.0007    0.2611 H   0  0  0  0  0  0  0  0  0  0  0  0
    5.3402    0.8935   -1.2885 H   0  0  0  0  0  0  0  0  0  0  0  0
    5.3405   -0.8897   -1.2899 H   0  0  0  0  0  0  0  0  0  0  0  0
    3.1214    0.0026   -2.5700 C   0  0  0  0  0  0  0  0  0  0  0  0
    3.5798   -0.9014   -3.0225 H   0  0  0  0  0  0  0  0  0  0  0  0
    3.5797    0.9074   -3.0210 H   0  0  0  0  0  0  0  0  0  0  0  0
    2.0469    0.0028   -2.8287 H   0  0  0  0  0  0  0  0  0  0  0  0
    0.0018   -4.5170    1.6104 C   0  0  0  0  0  0  0  0  0  0  0  0
   -0.8911   -4.7947    2.2040 H   0  0  0  0  0  0  0  0  0  0  0  0
    0.8958   -4.7944    2.2027 H   0  0  0  0  0  0  0  0  0  0  0  0
    0.0012   -5.1086    0.6741 H   0  0  0  0  0  0  0  0  0  0  0  0
    0.0023   -2.2450    2.6700 C   0  0  0  0  0  0  0  0  0  0  0  0
    0.0020   -1.1494    2.5050 H   0  0  0  0  0  0  0  0  0  0  0  0
    0.9090   -2.4991    3.2570 H   0  0  0  0  0  0  0  0  0  0  0  0
   -0.9036   -2.4994    3.2582 H   0  0  0  0  0  0  0  0  0  0  0  0
  1  5  1  0  0  0  0
  2 17  1  0  0  0  0
  3 19  1  0  0  0  0
  4 31  1  0  0  0  0
  5 32  1  0  0  0  0
  6  5  1  0  0  0  0
  6  7  1  0  0  0  0
  8  6  2  0  0  0  0
  9  8  1  0  0  0  0
 10  8  1  0  0  0  0
 10  1  2  0  0  0  0
 11 33  1  0  0  0  0
 11 12  1  0  0  0  0
 11 10  1  0  0  0  0
 12 13  1  0  0  0  0
 12  2  2  0  0  0  0
 13 15  2  0  0  0  0
 14 13  1  0  0  0  0
 15 17  1  0  0  0  0
 15 16  1  0  0  0  0
 17 18  1  0  0  0  0
 18 41  1  0  0  0  0
 18 45  1  0  0  0  0
 19 18  1  0  0  0  0
 20 19  1  0  0  0  0
 20 21  1  0  0  0  0
 22 20  2  0  0  0  0
 23 22  1  0  0  0  0
 24 22  1  0  0  0  0
 24  3  2  0  0  0  0
 25 49  1  0  0  0  0
 25 26  1  0  0  0  0
 25 24  1  0  0  0  0
 26 27  1  0  0  0  0
 26  4  2  0  0  0  0
 27 29  2  0  0  0  0
 28 27  1  0  0  0  0
 29 31  1  0  0  0  0
 29 30  1  0  0  0  0
 31 32  1  0  0  0  0
 32 57  1  0  0  0  0
 32 61  1  0  0  0  0
 33 36  1  0  0  0  0
 34 33  1  0  0  0  0
 35 33  1  0  0  0  0
 37 11  1  0  0  0  0
 38 37  1  0  0  0  0
 39 37  1  0  0  0  0
 40 37  1  0  0  0  0
 41 44  1  0  0  0  0
 41 43  1  0  0  0  0
 42 41  1  0  0  0  0
 45 46  1  0  0  0  0
 45 47  1  0  0  0  0
 48 45  1  0  0  0  0
 49 50  1  0  0  0  0
 51 49  1  0  0  0  0
 52 49  1  0  0  0  0
 53 25  1  0  0  0  0
 54 53  1  0  0  0  0
 55 53  1  0  0  0  0
 56 53  1  0  0  0  0
 57 59  1  0  0  0  0
 57 58  1  0  0  0  0
 60 57  1  0  0  0  0
 61 63  1  0  0  0  0
 61 64  1  0  0  0  0
 62 61  1  0  0  0  0
M  END
