3,5,6,7
q = 0.0, confidence = 0.99

 61 65  0  0  0  0  0  0  0  0999 V2000
    2.4859   -0.0367    1.4253 O   0  0  0  0  0  0  0  0  0  0  0  0
    6.0501   -0.0960   -0.8307 C   0  0  0  0  0  0  0  0  0  0  0  0
   -1.8839    2.0815    0.9687 N   0  0  0  0  0  2  0  0  0  0  0  0
    2.3661   -0.0165   -1.3087 O   0  0  0  0  0  0  0  0  0  0  0  0
   -0.4666    0.0529   -1.2706 N   0  0  0  0  0  2  0  0  0  0  0  0
   -0.3399   -0.0004    1.6955 N   0  0  0  0  0  2  0  0  0  0  0  0
   -2.0060   -1.9820   -0.3968 N   0  0  0  0  0  2  0  0  0  0  0  0
    3.6747   -0.0640    0.7067 C   0  0  0  0  0  0  0  0  0  0  0  0
    3.6145   -0.0386   -0.7003 C   0  0  0  0  0  0  0  0  0  0  0  0
   -0.7802    2.3414    1.7085 C   0  0  0  0  0  0  0  0  0  0  0  0
    1.8247   -1.2244    1.6334 C   0  0  0  0  0  0  0  0  0  0  0  0
    0.4183   -1.1661    1.8597 C   0  0  0  0  0  0  0  0  0  0  0  0
    6.0918   -0.0903    0.5792 C   0  0  0  0  0  0  0  0  0  0  0  0
    7.0666   -0.1008    1.0895 H   0  0  0  0  0  0  0  0  0  0  0  0
   -0.2722   -2.3668    2.1427 C   0  0  0  0  0  0  0  0  0  0  0  0
   -1.3518   -2.2980    2.3373 H   0  0  0  0  0  0  0  0  0  0  0  0
    4.9174   -0.0800    1.3476 C   0  0  0  0  0  0  0  0  0  0  0  0
    4.9535   -0.0887    2.4466 H   0  0  0  0  0  0  0  0  0  0  0  0
   -0.9964   -2.2713   -1.2512 C   0  0  0  0  0  0  0  0  0  0  0  0
    2.4297    2.4143   -1.5009 C   0  0  0  0  0  0  0  0  0  0  0  0
    3.5245    2.4093   -1.4050 H   0  0  0  0  0  0  0  0  0  0  0  0
    1.7310    1.1972   -1.4430 C   0  0  0  0  0  0  0  0  0  0  0  0
   -0.4965    3.6349    2.1800 C   0  0  0  0  0  0  0  0  0  0  0  0
    0.4142    3.8193    2.7683 H   0  0  0  0  0  0  0  0  0  0  0  0
    1.7374    3.6153   -1.7061 C   0  0  0  0  0  0  0  0  0  0  0  0
    2.3027    4.5567   -1.7718 H   0  0  0  0  0  0  0  0  0  0  0  0
    0.3081    1.1922   -1.5204 C   0  0  0  0  0  0  0  0  0  0  0  0
    0.0745    1.1885    2.0126 C   0  0  0  0  0  0  0  0  0  0  0  0
    1.0282    1.3667    2.5385 H   0  0  0  0  0  0  0  0  0  0  0  0
   -2.7676    3.0544    0.7191 C   0  0  0  0  0  0  0  0  0  0  0  0
   -3.6519    2.7605    0.1329 H   0  0  0  0  0  0  0  0  0  0  0  0
    0.3925   -3.5933    2.1863 C   0  0  0  0  0  0  0  0  0  0  0  0
   -0.1607   -4.5119    2.4282 H   0  0  0  0  0  0  0  0  0  0  0  0
   -0.1474   -1.1437   -1.6544 C   0  0  0  0  0  0  0  0  0  0  0  0
    0.7228   -1.3503   -2.3015 H   0  0  0  0  0  0  0  0  0  0  0  0
    4.7868   -0.0628   -1.4609 C   0  0  0  0  0  0  0  0  0  0  0  0
    4.7026   -0.0456   -2.5580 H   0  0  0  0  0  0  0  0  0  0  0  0
   -2.8542   -2.9437   -0.0100 C   0  0  0  0  0  0  0  0  0  0  0  0
   -3.6527   -2.6287    0.6807 H   0  0  0  0  0  0  0  0  0  0  0  0
   -1.4051    4.6654    1.8973 C   0  0  0  0  0  0  0  0  0  0  0  0
   -1.2134    5.6883    2.2541 H   0  0  0  0  0  0  0  0  0  0  0  0
   -2.7220   -4.2701   -0.4554 C   0  0  0  0  0  0  0  0  0  0  0  0
   -3.4379   -5.0342   -0.1208 H   0  0  0  0  0  0  0  0  0  0  0  0
   -0.3653    2.4170   -1.7337 C   0  0  0  0  0  0  0  0  0  0  0  0
   -1.4600    2.3859   -1.8247 H   0  0  0  0  0  0  0  0  0  0  0  0
    2.4800   -2.4669    1.6252 C   0  0  0  0  0  0  0  0  0  0  0  0
    3.5584   -2.5023    1.4171 H   0  0  0  0  0  0  0  0  0  0  0  0
    0.3384    3.6176   -1.8460 C   0  0  0  0  0  0  0  0  0  0  0  0
   -0.2017    4.5566   -2.0334 H   0  0  0  0  0  0  0  0  0  0  0  0
   -0.7862   -3.5768   -1.7286 C   0  0  0  0  0  0  0  0  0  0  0  0
    0.0485   -3.7846   -2.4139 H   0  0  0  0  0  0  0  0  0  0  0  0
   -2.5660    4.3710    1.1681 C   0  0  0  0  0  0  0  0  0  0  0  0
   -3.3102    5.1474    0.9408 H   0  0  0  0  0  0  0  0  0  0  0  0
   -1.6661   -4.5901   -1.3206 C   0  0  0  0  0  0  0  0  0  0  0  0
   -1.5316   -5.6207   -1.6812 H   0  0  0  0  0  0  0  0  0  0  0  0
    1.7694   -3.6416    1.9056 C   0  0  0  0  0  0  0  0  0  0  0  0
    2.3038   -4.6030    1.9170 H   0  0  0  0  0  0  0  0  0  0  0  0
    7.3119   -0.1490   -1.6518 C   0  0  0  0  0  0  0  0  0  0  0  0
    7.2571    0.5262   -2.5285 H   0  0  0  0  0  0  0  0  0  0  0  0
    7.4833   -1.1741   -2.0437 H   0  0  0  0  0  0  0  0  0  0  0  0
    8.2000    0.1300   -1.0539 H   0  0  0  0  0  0  0  0  0  0  0  0
  1 11  1  0  0  0  0
  2 13  1  0  0  0  0
  3 10  1  0  0  0  0
  4  9  1  0  0  0  0
  6 12  1  0  0  0  0
  6 28  1  0  0  0  0
  7 38  1  0  0  0  0
  8 17  1  0  0  0  0
  8  1  1  0  0  0  0
  9  8  2  0  0  0  0
 10 28  2  0  0  0  0
 10 23  1  0  0  0  0
 11 12  1  0  0  0  0
 12 15  2  0  0  0  0
 13 14  1  0  0  0  0
 13 17  2  0  0  0  0
 15 32  1  0  0  0  0
 15 16  1  0  0  0  0
 17 18  1  0  0  0  0
 19  7  1  0  0  0  0
 20 22  1  0  0  0  0
 20 21  1  0  0  0  0
 22  4  1  0  0  0  0
 23 24  1  0  0  0  0
 25 20  2  0  0  0  0
 26 25  1  0  0  0  0
 27 22  2  0  0  0  0
 27  5  1  0  0  0  0
 28 29  1  0  0  0  0
 30  3  1  0  0  0  0
 30 52  2  0  0  0  0
 31 30  1  0  0  0  0
 32 33  1  0  0  0  0
 34  5  1  0  0  0  0
 34 19  2  0  0  0  0
 35 34  1  0  0  0  0
 36  2  2  0  0  0  0
 36  9  1  0  0  0  0
 37 36  1  0  0  0  0
 38 39  1  0  0  0  0
 40 23  2  0  0  0  0
 40 41  1  0  0  0  0
 42 43  1  0  0  0  0
 42 38  2  0  0  0  0
 44 27  1  0  0  0  0
 45 44  1  0  0  0  0
 46 11  2  0  0  0  0
 46 56  1  0  0  0  0
 47 46  1  0  0  0  0
 48 44  2  0  0  0  0
 48 25  1  0  0  0  0
 49 48  1  0  0  0  0
 50 54  2  0  0  0  0
 50 19  1  0  0  0  0
 51 50  1  0  0  0  0
 52 40  1  0  0  0  0
 53 52  1  0  0  0  0
 54 42  1  0  0  0  0
 55 54  1  0  0  0  0
 56 57  1  0  0  0  0
 56 32  2  0  0  0  0
 58 61  1  0  0  0  0
 58  2  1  0  0  0  0
 59 58  1  0  0  0  0
 60 58  1  0  0  0  0
M  END
