1,2,4,5
q = -1.0

 41 43  0  0  1  0  0  0  0  0999 V2000
   -0.8749    1.6411   -0.3954 N   0  0  0  0  0  2  0  0  0  0  0  0
    1.6896    1.0220   -0.6076 N   0  0  0  0  0  0  0  0  0  0  0  0
    1.8391    0.9281   -1.6294 H   0  0  0  0  0  0  0  0  0  0  0  0
    0.8710   -1.6090   -0.5911 N   0  0  0  0  0  2  0  0  0  0  0  0
   -1.5682   -0.9734   -0.1745 N   0  0  0  0  0  2  0  0  0  0  0  0
   -2.1521    1.8746   -0.1681 C   0  0  0  0  0  0  0  0  0  0  0  0
   -2.4998    2.9227   -0.2507 H   0  0  0  0  0  0  0  0  0  0  0  0
   -0.0098    2.7236   -0.8603 C   0  0  0  0  0  0  0  0  0  0  0  0
   -0.3752    3.7176   -0.5257 H   0  0  0  0  0  0  0  0  0  0  0  0
    0.0087    2.7430   -1.9750 H   0  0  0  0  0  0  0  0  0  0  0  0
    1.3760    2.4491   -0.3143 C   0  0  0  0  0  0  0  0  0  0  0  0
    2.1337    3.1326   -0.7492 H   0  0  0  0  0  0  0  0  0  0  0  0
    1.3800    2.5652    0.7869 H   0  0  0  0  0  0  0  0  0  0  0  0
    2.1320   -1.8775   -0.4100 C   0  0  0  0  0  3  0  0  0  0  0  0
    2.4763   -2.9197   -0.5558 H   0  0  0  0  0  0  0  0  0  0  0  0
   -0.0670   -2.6519   -1.0040 C   0  0  0  0  0  0  0  0  0  0  0  0
    0.3555   -3.6669   -0.8512 H   0  0  0  0  0  0  0  0  0  0  0  0
   -0.2726   -2.5174   -2.0877 H   0  0  0  0  0  0  0  0  0  0  0  0
   -1.3398   -2.4167   -0.2078 C   0  0  0  0  0  0  0  0  0  0  0  0
   -2.1859   -2.9480   -0.6930 H   0  0  0  0  0  0  0  0  0  0  0  0
   -1.2303   -2.8339    0.8204 H   0  0  0  0  0  0  0  0  0  0  0  0
   -3.1146    0.8967    0.1825 C   0  0  0  0  0  0  0  0  0  0  0  0
   -2.7919   -0.5161    0.1983 C   0  0  1  0  0  3  0  0  0  0  0  0
   -3.8417   -1.4054    0.6069 C   0  0  0  0  0  0  0  0  0  0  0  0
   -3.6489   -2.4822    0.6815 H   0  0  0  0  0  0  0  0  0  0  0  0
   -5.1067   -0.9342    0.9322 C   0  0  0  0  0  0  0  0  0  0  0  0
   -5.8768   -1.6568    1.2430 H   0  0  0  0  0  0  0  0  0  0  0  0
   -5.4232    0.4461    0.8804 C   0  0  0  0  0  0  0  0  0  0  0  0
   -6.4316    0.7984    1.1376 H   0  0  0  0  0  0  0  0  0  0  0  0
   -4.4313    1.3376    0.5119 C   0  0  0  0  0  0  0  0  0  0  0  0
   -4.6407    2.4179    0.4740 H   0  0  0  0  0  0  0  0  0  0  0  0
    2.8817    0.4923    0.0494 C   0  0  0  0  0  0  0  0  0  0  0  0
    3.8372    1.3464    0.6172 C   0  0  0  0  0  0  0  0  0  0  0  0
    3.6825    2.4323    0.6330 H   0  0  0  0  0  0  0  0  0  0  0  0
    5.0274    0.8300    1.1584 C   0  0  0  0  0  0  0  0  0  0  0  0
    5.7600    1.5207    1.6010 H   0  0  0  0  0  0  0  0  0  0  0  0
    5.2886   -0.5462    1.1156 C   0  0  0  0  0  0  0  0  0  0  0  0
    6.2260   -0.9493    1.5244 H   0  0  0  0  0  0  0  0  0  0  0  0
    4.3391   -1.4044    0.5541 C   0  0  0  0  0  0  0  0  0  0  0  0
    4.5215   -2.4896    0.5317 H   0  0  0  0  0  0  0  0  0  0  0  0
    3.1170   -0.9113    0.0392 C   0  0  0  0  0  0  0  0  0  0  0  0
  1  6  1  0  0  0  0
  2 11  1  0  0  0  0
  2 32  1  0  0  0  0
  3  2  1  0  0  0  0
  4 14  1  0  0  0  0
  6 22  2  0  0  0  0
  7  6  1  0  0  0  0
  8  9  1  0  0  0  0
  8  1  1  0  0  0  0
  8 11  1  0  0  0  0
 10  8  1  0  0  0  0
 11 13  1  0  0  0  0
 12 11  1  0  0  0  0
 14 41  1  0  0  0  0
 15 14  1  0  0  0  0
 16 17  1  0  0  0  0
 16  4  1  0  0  0  0
 16 19  1  0  0  0  0
 18 16  1  0  0  0  0
 19  5  1  0  0  0  0
 19 21  1  0  0  0  0
 20 19  1  0  0  0  0
 22 23  1  0  0  0  0
 22 30  1  0  0  0  0
 23  5  1  6  0  0  0
 23 24  1  0  0  0  0
 24 25  1  0  0  0  0
 24 26  2  0  0  0  0
 26 27  1  0  0  0  0
 28 26  1  0  0  0  0
 28 29  1  0  0  0  0
 30 28  2  0  0  0  0
 31 30  1  0  0  0  0
 32 33  1  0  0  0  0
 33 34  1  0  0  0  0
 33 35  2  0  0  0  0
 35 36  1  0  0  0  0
 37 35  1  0  0  0  0
 37 38  1  0  0  0  0
 39 37  2  0  0  0  0
 40 39  1  0  0  0  0
 41 32  2  0  0  0  0
 41 39  1  0  0  0  0
M  END
