1,2,3,4
q = 0.0, confidence = 1.0

 42 44  0  0  0  0  0  0  0  0999 V2000
   -1.7950    1.2676    0.0105 N   0  0  0  0  0  0  0  0  0  0  0  0
    0.8996    1.4104   -0.7876 N   0  0  0  0  0  2  0  0  0  0  0  0
    1.7951   -1.2672    0.0087 N   0  0  0  0  0  0  0  0  0  0  0  0
   -0.8995   -1.4089   -0.7899 N   0  0  0  0  0  2  0  0  0  0  0  0
   -1.4457    1.8694   -1.2962 C   0  0  0  0  0  0  0  0  0  0  0  0
   -0.0344    2.4452   -1.2213 C   0  0  0  0  0  0  0  0  0  0  0  0
    2.1696    1.5632   -0.9950 C   0  0  0  0  0  3  0  0  0  0  0  0
    1.4459   -1.8674   -1.2988 C   0  0  0  0  0  0  0  0  0  0  0  0
    0.0345   -2.4432   -1.2249 C   0  0  0  0  0  0  0  0  0  0  0  0
   -2.1695   -1.5615   -0.9974 C   0  0  0  0  0  3  0  0  0  0  0  0
    3.2371    0.6940   -0.5150 C   0  0  0  0  0  0  0  0  0  0  0  0
    4.5406    1.2528   -0.5298 C   0  0  0  0  0  0  0  0  0  0  0  0
    5.6224    0.6055    0.0714 C   0  0  0  0  0  0  0  0  0  0  0  0
    5.4170   -0.6323    0.7004 C   0  0  0  0  0  0  0  0  0  0  0  0
    4.1482   -1.2307    0.6808 C   0  0  0  0  0  0  0  0  0  0  0  0
    3.0572   -0.5970    0.0669 C   0  0  0  0  0  0  0  0  0  0  0  0
   -3.2369   -0.6929   -0.5161 C   0  0  0  0  0  0  0  0  0  0  0  0
   -4.5405   -1.2517   -0.5318 C   0  0  0  0  0  0  0  0  0  0  0  0
   -5.6222   -0.6054    0.0704 C   0  0  0  0  0  0  0  0  0  0  0  0
   -5.4170    0.6316    0.7011 C   0  0  0  0  0  0  0  0  0  0  0  0
   -4.1481    1.2300    0.6824 C   0  0  0  0  0  0  0  0  0  0  0  0
   -3.0572    0.5972    0.0677 C   0  0  0  0  0  0  0  0  0  0  0  0
    4.6847    2.2398   -0.9962 H   0  0  0  0  0  0  0  0  0  0  0  0
    6.6196    1.0675    0.0607 H   0  0  0  0  0  0  0  0  0  0  0  0
    6.2536   -1.1506    1.1919 H   0  0  0  0  0  0  0  0  0  0  0  0
    4.0014   -2.2204    1.1409 H   0  0  0  0  0  0  0  0  0  0  0  0
   -4.6846   -2.2381   -0.9996 H   0  0  0  0  0  0  0  0  0  0  0  0
   -6.6195   -1.0674    0.0590 H   0  0  0  0  0  0  0  0  0  0  0  0
   -6.2535    1.1491    1.1934 H   0  0  0  0  0  0  0  0  0  0  0  0
   -4.0014    2.2190    1.1440 H   0  0  0  0  0  0  0  0  0  0  0  0
   -1.7656    1.9841    0.7504 H   0  0  0  0  0  0  0  0  0  0  0  0
    1.7654   -1.9845    0.7479 H   0  0  0  0  0  0  0  0  0  0  0  0
   -2.1693    2.6593   -1.5944 H   0  0  0  0  0  0  0  0  0  0  0  0
   -1.4901    1.0691   -2.0624 H   0  0  0  0  0  0  0  0  0  0  0  0
   -0.0158    3.2768   -0.4789 H   0  0  0  0  0  0  0  0  0  0  0  0
    0.2551    2.8832   -2.2005 H   0  0  0  0  0  0  0  0  0  0  0  0
    2.5199    2.4725   -1.5320 H   0  0  0  0  0  0  0  0  0  0  0  0
    2.1694   -2.6569   -1.5979 H   0  0  0  0  0  0  0  0  0  0  0  0
    1.4905   -1.0661   -2.0639 H   0  0  0  0  0  0  0  0  0  0  0  0
    0.0158   -3.2756   -0.4835 H   0  0  0  0  0  0  0  0  0  0  0  0
   -0.2548   -2.8799   -2.2047 H   0  0  0  0  0  0  0  0  0  0  0  0
   -2.5198   -2.4702   -1.5355 H   0  0  0  0  0  0  0  0  0  0  0  0
  1 22  1  0  0  0  0
  1 31  1  0  0  0  0
  3 16  1  0  0  0  0
  3 32  1  0  0  0  0
  5  6  1  0  0  0  0
  5  1  1  0  0  0  0
  6  2  1  0  0  0  0
  6 35  1  0  0  0  0
  7  2  1  0  0  0  0
  7 11  1  0  0  0  0
  8  9  1  0  0  0  0
  8  3  1  0  0  0  0
  9  4  1  0  0  0  0
  9 40  1  0  0  0  0
 10  4  1  0  0  0  0
 10 17  1  0  0  0  0
 11 16  1  0  0  0  0
 12 11  2  0  0  0  0
 12 13  1  0  0  0  0
 13 14  2  0  0  0  0
 14 25  1  0  0  0  0
 15 14  1  0  0  0  0
 15 26  1  0  0  0  0
 16 15  2  0  0  0  0
 17 22  1  0  0  0  0
 18 17  2  0  0  0  0
 18 19  1  0  0  0  0
 19 20  2  0  0  0  0
 20 29  1  0  0  0  0
 21 20  1  0  0  0  0
 21 30  1  0  0  0  0
 22 21  2  0  0  0  0
 23 12  1  0  0  0  0
 24 13  1  0  0  0  0
 27 18  1  0  0  0  0
 28 19  1  0  0  0  0
 33  5  1  0  0  0  0
 34  5  1  0  0  0  0
 36  6  1  0  0  0  0
 37  7  1  0  0  0  0
 38  8  1  0  0  0  0
 39  8  1  0  0  0  0
 41  9  1  0  0  0  0
 42 10  1  0  0  0  0
M  END
