1,2,3,4
q = 0.0, confidence = 0.996

 44 45  0  0  1  0  0  0  0  0999 V2000
    1.9193    1.0278   -0.3675 N   0  0  0  0  0  2  0  0  0  0  0  0
    1.0818   -1.2982    0.4594 N   0  0  0  0  0  2  0  0  0  0  0  0
   -1.8932   -0.9771   -0.1267 N   0  0  0  0  0  2  0  0  0  0  0  0
   -0.6298    0.9573    1.1349 N   0  0  0  0  0  2  0  0  0  0  0  0
    2.0696    2.3674   -0.8664 C   0  0  0  0  0  0  0  0  0  0  0  0
    1.2763    2.5123   -1.6328 H   0  0  0  0  0  0  0  0  0  0  0  0
    3.0571    2.5756   -1.3397 H   0  0  0  0  0  0  0  0  0  0  0  0
    1.8262    3.3494    0.2940 C   0  0  0  0  0  0  0  0  0  0  0  0
    1.9046    4.3821   -0.1082 H   0  0  0  0  0  0  0  0  0  0  0  0
    2.6512    3.2413    1.0346 H   0  0  0  0  0  0  0  0  0  0  0  0
    0.4725    3.2008    1.0059 C   0  0  0  0  0  0  0  0  0  0  0  0
   -0.3445    3.2744    0.2581 H   0  0  0  0  0  0  0  0  0  0  0  0
    0.3586    4.0562    1.7042 H   0  0  0  0  0  0  0  0  0  0  0  0
    0.2528    1.8930    1.8197 C   0  0  0  0  0  0  0  0  0  0  0  0
    1.2213    1.3835    1.9953 H   0  0  0  0  0  0  0  0  0  0  0  0
   -0.1641    2.1440    2.8155 H   0  0  0  0  0  0  0  0  0  0  0  0
    2.4304   -1.1096    0.3854 C   0  0  2  0  0  3  0  0  0  0  0  0
    3.3083   -2.0549    0.9526 C   0  0  0  0  0  0  0  0  0  0  0  0
    4.3938   -1.8939    0.8961 H   0  0  0  0  0  0  0  0  0  0  0  0
    2.7880   -3.1825    1.5973 C   0  0  0  0  0  0  0  0  0  0  0  0
    3.4642   -3.9266    2.0447 H   0  0  0  0  0  0  0  0  0  0  0  0
    1.3944   -3.3480    1.6654 C   0  0  0  0  0  0  0  0  0  0  0  0
    0.9418   -4.2314    2.1377 H   0  0  0  0  0  0  0  0  0  0  0  0
    0.5781   -2.3677    1.0857 C   0  0  0  0  0  0  0  0  0  0  0  0
   -0.5224   -2.4327    1.0763 H   0  0  0  0  0  0  0  0  0  0  0  0
    2.8601    0.1317   -0.2915 C   0  0  1  0  0  3  0  0  0  0  0  0
    4.2678    0.2365   -0.8096 C   0  0  0  0  0  0  0  0  0  0  0  0
    4.4562    1.2155   -1.2855 H   0  0  0  0  0  0  0  0  0  0  0  0
    4.4563   -0.5561   -1.5638 H   0  0  0  0  0  0  0  0  0  0  0  0
    5.0135    0.1048    0.0020 H   0  0  0  0  0  0  0  0  0  0  0  0
   -2.6434   -0.1800    0.6943 C   0  0  2  0  0  3  0  0  0  0  0  0
   -4.0513   -0.1624    0.6274 C   0  0  0  0  0  0  0  0  0  0  0  0
   -4.6336    0.5032    1.2803 H   0  0  0  0  0  0  0  0  0  0  0  0
   -4.6976   -0.9655   -0.3180 C   0  0  0  0  0  0  0  0  0  0  0  0
   -5.7947   -0.9608   -0.3963 H   0  0  0  0  0  0  0  0  0  0  0  0
   -3.9144   -1.7529   -1.1866 C   0  0  0  0  0  0  0  0  0  0  0  0
   -4.3805   -2.3958   -1.9475 H   0  0  0  0  0  0  0  0  0  0  0  0
   -2.5236   -1.7173   -1.0621 C   0  0  0  0  0  0  0  0  0  0  0  0
   -1.8542   -2.2840   -1.7311 H   0  0  0  0  0  0  0  0  0  0  0  0
   -1.8502    0.7106    1.5506 C   0  0  2  0  0  3  0  0  0  0  0  0
   -2.4596    1.3483    2.7721 C   0  0  0  0  0  0  0  0  0  0  0  0
   -1.8275    1.1806    3.6671 H   0  0  0  0  0  0  0  0  0  0  0  0
   -3.4561    0.9260    2.9888 H   0  0  0  0  0  0  0  0  0  0  0  0
   -2.5668    2.4461    2.6468 H   0  0  0  0  0  0  0  0  0  0  0  0
  2 24  1  0  0  0  0
  3 31  1  0  0  0  0
  4 14  1  0  0  0  0
  5  1  1  0  0  0  0
  5  8  1  0  0  0  0
  6  5  1  0  0  0  0
  7  5  1  0  0  0  0
  8 11  1  0  0  0  0
  8 10  1  0  0  0  0
  9  8  1  0  0  0  0
 11 13  1  0  0  0  0
 11 14  1  0  0  0  0
 12 11  1  0  0  0  0
 14 15  1  0  0  0  0
 14 16  1  0  0  0  0
 17 26  1  1  0  0  0
 17  2  1  0  0  0  0
 17 18  1  0  0  0  0
 18 20  2  0  0  0  0
 19 18  1  0  0  0  0
 20 22  1  0  0  0  0
 20 21  1  0  0  0  0
 22 23  1  0  0  0  0
 24 22  2  0  0  0  0
 25 24  1  0  0  0  0
 26  1  1  6  0  0  0
 27 26  1  0  0  0  0
 27 30  1  0  0  0  0
 28 27  1  0  0  0  0
 29 27  1  0  0  0  0
 31 40  1  6  0  0  0
 32 31  1  0  0  0  0
 32 33  1  0  0  0  0
 34 32  2  0  0  0  0
 35 34  1  0  0  0  0
 36 38  2  0  0  0  0
 36 34  1  0  0  0  0
 37 36  1  0  0  0  0
 38  3  1  0  0  0  0
 39 38  1  0  0  0  0
 40  4  1  6  0  0  0
 40 41  1  0  0  0  0
 41 43  1  0  0  0  0
 41 42  1  0  0  0  0
 44 41  1  0  0  0  0
M  END
