1,2,3,4
q = 0.0, confidence = 0.996

 38 39  0  0  0  0  0  0  0  0999 V2000
    0.7996   -1.1200   -1.2864 N   0  0  0  0  0  2  0  0  0  0  0  0
    1.6262    0.8404    0.0806 N   0  0  0  0  0  2  0  0  0  0  0  0
   -1.3978    1.3130   -0.2794 N   0  0  0  0  0  2  0  0  0  0  0  0
   -1.5106   -1.2382    0.3312 N   0  0  0  0  0  2  0  0  0  0  0  0
    0.2117   -2.2431   -2.0155 C   0  0  0  0  0  0  0  0  0  0  0  0
    0.8532   -2.4600   -2.8959 H   0  0  0  0  0  0  0  0  0  0  0  0
   -0.7760   -1.9157   -2.4061 H   0  0  0  0  0  0  0  0  0  0  0  0
    0.0562   -3.5104   -1.1568 C   0  0  0  0  0  0  0  0  0  0  0  0
    0.1221   -4.3779   -1.8446 H   0  0  0  0  0  0  0  0  0  0  0  0
    0.9176   -3.5725   -0.4601 H   0  0  0  0  0  0  0  0  0  0  0  0
   -1.2540   -3.6214   -0.3756 C   0  0  0  0  0  0  0  0  0  0  0  0
   -2.1225   -3.5438   -1.0670 H   0  0  0  0  0  0  0  0  0  0  0  0
   -1.3117   -4.6328    0.0773 H   0  0  0  0  0  0  0  0  0  0  0  0
   -1.4266   -2.6278    0.7786 C   0  0  0  0  0  0  0  0  0  0  0  0
   -2.3414   -2.8709    1.3583 H   0  0  0  0  0  0  0  0  0  0  0  0
   -0.5427   -2.6908    1.4468 H   0  0  0  0  0  0  0  0  0  0  0  0
    2.4955    0.4335   -0.9013 C   0  0  0  0  0  0  0  0  0  0  0  0
    3.7252    1.0851   -1.1050 C   0  0  0  0  0  0  0  0  0  0  0  0
    4.4022    0.7303   -1.8950 H   0  0  0  0  0  0  0  0  0  0  0  0
    4.0556    2.1737   -0.2918 C   0  0  0  0  0  0  0  0  0  0  0  0
    5.0124    2.6989   -0.4263 H   0  0  0  0  0  0  0  0  0  0  0  0
    3.1491    2.5830    0.7026 C   0  0  0  0  0  0  0  0  0  0  0  0
    3.3751    3.4288    1.3669 H   0  0  0  0  0  0  0  0  0  0  0  0
    1.9436    1.8908    0.8653 C   0  0  0  0  0  0  0  0  0  0  0  0
    1.2207    2.1292    1.6598 H   0  0  0  0  0  0  0  0  0  0  0  0
    1.9812   -0.6831   -1.6508 C   0  0  0  0  0  0  0  0  0  0  0  0
    2.5384   -1.1389   -2.4877 H   0  0  0  0  0  0  0  0  0  0  0  0
   -2.6470    0.7818   -0.1504 C   0  0  0  0  0  0  0  0  0  0  0  0
   -3.8108    1.5506   -0.3254 C   0  0  0  0  0  0  0  0  0  0  0  0
   -4.8014    1.0879   -0.2056 H   0  0  0  0  0  0  0  0  0  0  0  0
   -3.6754    2.9078   -0.6475 C   0  0  0  0  0  0  0  0  0  0  0  0
   -4.5647    3.5386   -0.7907 H   0  0  0  0  0  0  0  0  0  0  0  0
   -2.3868    3.4471   -0.7801 C   0  0  0  0  0  0  0  0  0  0  0  0
   -2.2366    4.5070   -1.0307 H   0  0  0  0  0  0  0  0  0  0  0  0
   -1.2747    2.6116   -0.5863 C   0  0  0  0  0  0  0  0  0  0  0  0
   -0.2477    3.0017   -0.6777 H   0  0  0  0  0  0  0  0  0  0  0  0
   -2.6512   -0.6299    0.2067 C   0  0  0  0  0  0  0  0  0  0  0  0
   -3.6006   -1.1614    0.4030 H   0  0  0  0  0  0  0  0  0  0  0  0
  2 24  1  0  0  0  0
  3 28  1  0  0  0  0
  4 14  1  0  0  0  0
  5  1  1  0  0  0  0
  5  8  1  0  0  0  0
  6  5  1  0  0  0  0
  7  5  1  0  0  0  0
  8 10  1  0  0  0  0
  8 11  1  0  0  0  0
  9  8  1  0  0  0  0
 11 13  1  0  0  0  0
 11 14  1  0  0  0  0
 12 11  1  0  0  0  0
 14 15  1  0  0  0  0
 14 16  1  0  0  0  0
 17  2  1  0  0  0  0
 18 17  1  0  0  0  0
 18 20  2  0  0  0  0
 19 18  1  0  0  0  0
 20 22  1  0  0  0  0
 21 20  1  0  0  0  0
 22 24  2  0  0  0  0
 22 23  1  0  0  0  0
 24 25  1  0  0  0  0
 26  1  1  0  0  0  0
 26 17  2  0  0  0  0
 27 26  1  0  0  0  0
 28 37  2  0  0  0  0
 29 30  1  0  0  0  0
 29 28  1  0  0  0  0
 31 29  2  0  0  0  0
 32 31  1  0  0  0  0
 33 31  1  0  0  0  0
 33 35  2  0  0  0  0
 34 33  1  0  0  0  0
 35  3  1  0  0  0  0
 36 35  1  0  0  0  0
 37  4  1  0  0  0  0
 37 38  1  0  0  0  0
M  END
