3,5,6
q = 0.0, confidence = 0.972

 63 66  0  0  1  0  0  0  0  0999 V2000
   -2.0828    1.2692    0.7405 O   0  0  0  0  0  0  0  0  0  0  0  0
    0.7049    1.9100   -0.5919 O   0  0  0  0  0  0  0  0  0  0  0  0
    2.0787   -1.2768   -0.7268 N   0  0  0  0  0  2  0  0  0  0  0  0
    0.7315   -2.4894    1.4651 N   0  0  0  0  0  0  0  0  0  0  0  0
    1.1342    0.3984    1.8868 N   0  0  0  0  0  2  0  0  0  0  0  0
   -2.0159   -1.6786    0.7881 N   0  0  0  0  0  2  0  0  0  0  0  0
    1.0589   -0.5495    2.9939 C   0  0  0  0  0  0  0  0  0  0  0  0
    0.0021   -0.6236    3.3290 H   0  0  0  0  0  0  0  0  0  0  0  0
    1.6649   -0.2138    3.8651 H   0  0  0  0  0  0  0  0  0  0  0  0
   -1.6556   -3.0724    1.0300 C   0  0  0  0  0  0  0  0  0  0  0  0
   -1.3951   -3.5270    0.0490 H   0  0  0  0  0  0  0  0  0  0  0  0
   -2.5087   -3.6513    1.4474 H   0  0  0  0  0  0  0  0  0  0  0  0
    2.4514   -2.5153   -0.3425 C   0  0  1  0  0  3  0  0  0  0  0  0
   -3.3886    1.1449    0.3612 C   0  0  0  0  0  0  0  0  0  0  0  0
    1.5661   -1.9256    2.5377 C   0  0  0  0  0  0  0  0  0  0  0  0
    2.5989   -1.8037    2.1534 H   0  0  0  0  0  0  0  0  0  0  0  0
    1.6262   -2.6148    3.4126 H   0  0  0  0  0  0  0  0  0  0  0  0
    4.4831   -2.3468   -1.6490 C   0  0  0  0  0  0  0  0  0  0  0  0
    5.4323   -2.7727   -2.0069 H   0  0  0  0  0  0  0  0  0  0  0  0
    1.8227    2.6147   -0.2475 C   0  0  0  0  0  0  0  0  0  0  0  0
   -1.5568    2.5751    1.0456 C   0  0  0  0  0  0  0  0  0  0  0  0
   -0.6516    2.3563    1.6422 H   0  0  0  0  0  0  0  0  0  0  0  0
   -2.2678    3.1242    1.6978 H   0  0  0  0  0  0  0  0  0  0  0  0
   -3.9322   -0.1723    0.2465 C   0  0  0  0  0  0  0  0  0  0  0  0
    2.4953    2.2796    0.9663 C   0  0  0  0  0  0  0  0  0  0  0  0
    2.3428    3.6282   -1.0743 C   0  0  0  0  0  0  0  0  0  0  0  0
    1.8357    3.8805   -2.0149 H   0  0  0  0  0  0  0  0  0  0  0  0
    1.4865   -3.3124    0.5168 C   0  0  0  0  0  0  0  0  0  0  0  0
    0.7600   -3.7879   -0.1763 H   0  0  0  0  0  0  0  0  0  0  0  0
    2.0377   -4.1367    1.0289 H   0  0  0  0  0  0  0  0  0  0  0  0
   -6.1026    0.8020   -0.4076 C   0  0  0  0  0  0  0  0  0  0  0  0
   -7.1489    0.6649   -0.7134 H   0  0  0  0  0  0  0  0  0  0  0  0
   -4.2215    2.2557    0.1242 C   0  0  0  0  0  0  0  0  0  0  0  0
   -3.8357    3.2752    0.2370 H   0  0  0  0  0  0  0  0  0  0  0  0
    3.5149    4.3088   -0.7216 C   0  0  0  0  0  0  0  0  0  0  0  0
    3.9032    5.0914   -1.3905 H   0  0  0  0  0  0  0  0  0  0  0  0
    2.8622   -0.5718   -1.5626 C   0  0  0  0  0  0  0  0  0  0  0  0
    2.4911    0.4242   -1.8506 H   0  0  0  0  0  0  0  0  0  0  0  0
   -3.2630   -1.4308    0.5474 C   0  0  0  0  0  3  0  0  0  0  0  0
   -3.9708   -2.2912    0.5605 H   0  0  0  0  0  0  0  0  0  0  0  0
    3.6631   -3.0778   -0.7790 C   0  0  0  0  0  0  0  0  0  0  0  0
    3.9520   -4.0846   -0.4426 H   0  0  0  0  0  0  0  0  0  0  0  0
    4.0751   -1.0682   -2.0549 C   0  0  0  0  0  0  0  0  0  0  0  0
    4.6835   -0.4615   -2.7402 H   0  0  0  0  0  0  0  0  0  0  0  0
   -5.2924   -0.3003   -0.1380 C   0  0  0  0  0  0  0  0  0  0  0  0
   -5.7100   -1.3157   -0.2201 H   0  0  0  0  0  0  0  0  0  0  0  0
    2.0876    1.2746    1.9392 C   0  0  0  0  0  3  0  0  0  0  0  0
    2.7253    1.2847    2.8538 H   0  0  0  0  0  0  0  0  0  0  0  0
   -0.4699   -3.1642    1.9865 C   0  0  0  0  0  0  0  0  0  0  0  0
   -0.7501   -2.6747    2.9407 H   0  0  0  0  0  0  0  0  0  0  0  0
   -0.2575   -4.2328    2.2250 H   0  0  0  0  0  0  0  0  0  0  0  0
   -0.4004    2.6073   -1.2266 C   0  0  0  0  0  0  0  0  0  0  0  0
   -1.0049    1.8040   -1.6858 H   0  0  0  0  0  0  0  0  0  0  0  0
   -0.0386    3.2578   -2.0459 H   0  0  0  0  0  0  0  0  0  0  0  0
   -5.5583    2.0857   -0.2616 C   0  0  0  0  0  0  0  0  0  0  0  0
   -6.1776    2.9760   -0.4469 H   0  0  0  0  0  0  0  0  0  0  0  0
   -1.1790    3.4022   -0.1880 C   0  0  0  0  0  0  0  0  0  0  0  0
   -2.0699    3.8244   -0.6952 H   0  0  0  0  0  0  0  0  0  0  0  0
   -0.5826    4.2694    0.1689 H   0  0  0  0  0  0  0  0  0  0  0  0
    3.6787    2.9956    1.2924 C   0  0  0  0  0  0  0  0  0  0  0  0
    4.1953    2.7432    2.2316 H   0  0  0  0  0  0  0  0  0  0  0  0
    4.1926    3.9955    0.4684 C   0  0  0  0  0  0  0  0  0  0  0  0
    5.1105    4.5310    0.7482 H   0  0  0  0  0  0  0  0  0  0  0  0
  1 21  1  0  0  0  0
  2 20  1  0  0  0  0
  3 13  1  0  0  0  0
  4 49  1  0  0  0  0
  4 15  1  0  0  0  0
  5 47  1  0  0  0  0
  5  7  1  0  0  0  0
  6 10  1  0  0  0  0
  7  8  1  0  0  0  0
  7  9  1  0  0  0  0
 10 12  1  0  0  0  0
 10 49  1  0  0  0  0
 11 10  1  0  0  0  0
 13 28  1  6  0  0  0
 14  1  1  0  0  0  0
 15  7  1  0  0  0  0
 15 17  1  0  0  0  0
 16 15  1  0  0  0  0
 18 41  2  0  0  0  0
 19 18  1  0  0  0  0
 20 25  1  0  0  0  0
 21 22  1  0  0  0  0
 21 23  1  0  0  0  0
 24 14  1  0  0  0  0
 24 39  1  0  0  0  0
 25 60  2  0  0  0  0
 25 47  1  0  0  0  0
 26 35  1  0  0  0  0
 26 20  2  0  0  0  0
 27 26  1  0  0  0  0
 28 30  1  0  0  0  0
 28  4  1  0  0  0  0
 29 28  1  0  0  0  0
 31 55  2  0  0  0  0
 31 45  1  0  0  0  0
 32 31  1  0  0  0  0
 33 34  1  0  0  0  0
 33 14  2  0  0  0  0
 35 62  2  0  0  0  0
 36 35  1  0  0  0  0
 37  3  1  0  0  0  0
 38 37  1  0  0  0  0
 39 40  1  0  0  0  0
 39  6  1  0  0  0  0
 41 42  1  0  0  0  0
 41 13  1  0  0  0  0
 43 18  1  0  0  0  0
 43 37  2  0  0  0  0
 44 43  1  0  0  0  0
 45 24  2  0  0  0  0
 46 45  1  0  0  0  0
 47 48  1  0  0  0  0
 49 51  1  0  0  0  0
 49 50  1  0  0  0  0
 52  2  1  0  0  0  0
 52 57  1  0  0  0  0
 53 52  1  0  0  0  0
 54 52  1  0  0  0  0
 55 33  1  0  0  0  0
 56 55  1  0  0  0  0
 57 59  1  0  0  0  0
 57 21  1  0  0  0  0
 58 57  1  0  0  0  0
 60 61  1  0  0  0  0
 62 63  1  0  0  0  0
 62 60  1  0  0  0  0
M  END
