1,2,4,39
q = 0.0, confidence = 0.946

 52 55  0  0  1  0  0  0  0  0999 V2000
    1.3904    1.9724   -0.6139 N   0  0  0  0  0  2  0  0  0  0  0  0
   -1.7535    1.8847    0.5449 N   0  0  0  0  0  2  0  0  0  0  0  0
    2.5436    1.2560   -0.6902 C   0  0  1  0  0  3  0  0  0  0  0  0
   -1.2771   -0.5680    0.2656 N   0  0  0  0  0  2  0  0  0  0  0  0
   -2.8399    1.0758    0.6618 C   0  0  1  0  0  3  0  0  0  0  0  0
    2.4105   -0.1254   -0.4827 N   0  0  0  0  0  0  0  0  0  0  0  0
    1.2920   -2.9575   -0.5897 N   0  0  0  0  0  0  0  0  0  0  0  0
   -0.7844   -1.7846    0.0980 C   0  0  0  0  0  0  0  0  0  0  0  0
   -1.3659   -2.7136    0.1459 H   0  0  0  0  0  0  0  0  0  0  0  0
    2.2953   -2.8706   -1.3094 O   0  0  0  0  0  0  0  0  0  0  0  0
    3.7993    3.2380   -1.2344 C   0  0  0  0  0  0  0  0  0  0  0  0
    4.7528    3.7361   -1.4630 H   0  0  0  0  0  0  0  0  0  0  0  0
    3.4430   -0.9849    1.5638 C   0  0  0  0  0  0  0  0  0  0  0  0
    2.6160   -0.5351    2.1370 H   0  0  0  0  0  0  0  0  0  0  0  0
   -3.1253    3.7898    1.0704 C   0  0  0  0  0  0  0  0  0  0  0  0
   -3.1901    4.8722    1.2443 H   0  0  0  0  0  0  0  0  0  0  0  0
    4.5404   -1.3721   -0.5932 C   0  0  0  0  0  0  0  0  0  0  0  0
    4.5153   -1.2856   -1.6879 H   0  0  0  0  0  0  0  0  0  0  0  0
   -2.5945   -0.2860    0.5129 N   0  0  0  0  0  0  0  0  0  0  0  0
    0.7763   -4.0153   -0.2024 O   0  0  0  0  0  0  0  0  0  0  0  0
    3.4777   -0.8547    0.1648 C   0  0  0  0  0  0  0  0  0  0  0  0
   -4.2582    2.9614    1.1405 C   0  0  0  0  0  0  0  0  0  0  0  0
   -5.2483    3.3856    1.3635 H   0  0  0  0  0  0  0  0  0  0  0  0
    3.7795    1.8650   -0.9753 C   0  0  0  0  0  0  0  0  0  0  0  0
    4.6943    1.2598   -0.9949 H   0  0  0  0  0  0  0  0  0  0  0  0
    2.5974    3.9646   -1.2174 C   0  0  0  0  0  0  0  0  0  0  0  0
    2.5699    5.0398   -1.4399 H   0  0  0  0  0  0  0  0  0  0  0  0
   -3.9438   -1.2901   -1.2556 C   0  0  0  0  0  0  0  0  0  0  0  0
   -3.4233   -0.6319   -1.9716 H   0  0  0  0  0  0  0  0  0  0  0  0
    5.5935   -2.0217    0.0638 C   0  0  0  0  0  0  0  0  0  0  0  0
    6.4293   -2.4324   -0.5219 H   0  0  0  0  0  0  0  0  0  0  0  0
   -4.9200   -2.2092   -1.6637 C   0  0  0  0  0  0  0  0  0  0  0  0
   -5.1899   -2.2785   -2.7280 H   0  0  0  0  0  0  0  0  0  0  0  0
    4.4951   -1.6565    2.2051 C   0  0  0  0  0  0  0  0  0  0  0  0
    4.4791   -1.7606    3.3002 H   0  0  0  0  0  0  0  0  0  0  0  0
    0.6114   -1.7404   -0.2232 C   0  0  0  0  0  0  0  0  0  0  0  0
   -1.8933    3.2029    0.7697 C   0  0  0  0  0  0  0  0  0  0  0  0
   -0.9707    3.7980    0.7110 H   0  0  0  0  0  0  0  0  0  0  0  0
    1.0988   -0.4837   -0.3143 N   0  0  0  0  0  2  0  0  0  0  0  0
    1.4170    3.2878   -0.9018 C   0  0  0  0  0  0  0  0  0  0  0  0
    0.4455    3.8014   -0.8768 H   0  0  0  0  0  0  0  0  0  0  0  0
   -3.6121   -1.2162    0.1109 C   0  0  0  0  0  0  0  0  0  0  0  0
   -4.1231    1.5858    0.9417 C   0  0  0  0  0  0  0  0  0  0  0  0
   -4.9788    0.9013    1.0062 H   0  0  0  0  0  0  0  0  0  0  0  0
    5.5684   -2.1707    1.4606 C   0  0  0  0  0  0  0  0  0  0  0  0
    6.3921   -2.6918    1.9713 H   0  0  0  0  0  0  0  0  0  0  0  0
   -4.2275   -2.0444    1.0625 C   0  0  0  0  0  0  0  0  0  0  0  0
   -3.9354   -1.9639    2.1198 H   0  0  0  0  0  0  0  0  0  0  0  0
   -5.5494   -3.0393   -0.7196 C   0  0  0  0  0  0  0  0  0  0  0  0
   -6.3142   -3.7594   -1.0475 H   0  0  0  0  0  0  0  0  0  0  0  0
   -5.2052   -2.9585    0.6393 C   0  0  0  0  0  0  0  0  0  0  0  0
   -5.6970   -3.6126    1.3746 H   0  0  0  0  0  0  0  0  0  0  0  0
  2  5  1  0  0  0  0
  2 37  1  0  0  0  0
  3  1  1  0  0  0  0
  3  6  1  6  0  0  0
  4 19  1  0  0  0  0
  5 19  1  1  0  0  0
  5 43  1  0  0  0  0
  6 39  1  0  0  0  0
  6 21  1  0  0  0  0
  7 36  1  0  0  0  0
  7 20  2  0  0  0  0
  8  9  1  0  0  0  0
  8  4  1  0  0  0  0
 10  7  2  0  0  0  0
 11 26  1  0  0  0  0
 11 24  2  0  0  0  0
 12 11  1  0  0  0  0
 13 14  1  0  0  0  0
 13 34  1  0  0  0  0
 15 22  1  0  0  0  0
 15 16  1  0  0  0  0
 17 30  2  0  0  0  0
 17 21  1  0  0  0  0
 18 17  1  0  0  0  0
 21 13  2  0  0  0  0
 22 23  1  0  0  0  0
 24  3  1  0  0  0  0
 25 24  1  0  0  0  0
 26 40  2  0  0  0  0
 27 26  1  0  0  0  0
 28 42  1  0  0  0  0
 29 28  1  0  0  0  0
 30 45  1  0  0  0  0
 31 30  1  0  0  0  0
 32 28  2  0  0  0  0
 32 49  1  0  0  0  0
 33 32  1  0  0  0  0
 34 35  1  0  0  0  0
 36  8  2  0  0  0  0
 37 15  2  0  0  0  0
 38 37  1  0  0  0  0
 39 36  1  0  0  0  0
 40 41  1  0  0  0  0
 40  1  1  0  0  0  0
 42 19  1  0  0  0  0
 42 47  2  0  0  0  0
 43 44  1  0  0  0  0
 43 22  2  0  0  0  0
 45 46  1  0  0  0  0
 45 34  2  0  0  0  0
 47 48  1  0  0  0  0
 49 51  2  0  0  0  0
 50 49  1  0  0  0  0
 51 47  1  0  0  0  0
 51 52  1  0  0  0  0
M  END
