3,4,7,8
q = -1.0

 46 45  0  0  1  0  0  0  0  0999 V2000
    4.1577    0.7546   -0.9018 S   0  0  0  0  0  0  0  0  0  0  0  0
   -4.1577    0.7542   -0.9018 S   0  0  0  0  0  0  0  0  0  0  0  0
    1.3859    0.5345   -0.7491 N   0  0  0  0  0  2  0  0  0  0  0  0
   -1.3859    0.5344   -0.7490 N   0  0  0  0  0  2  0  0  0  0  0  0
    2.5961   -1.2422   -0.0857 N   0  0  0  0  0  0  0  0  0  0  0  0
   -2.5959   -1.2424   -0.0855 N   0  0  0  0  0  0  0  0  0  0  0  0
    1.3510   -1.8068    0.0917 N   0  0  0  0  0  2  0  0  0  0  0  0
   -1.3508   -1.8070    0.0917 N   0  0  0  0  0  2  0  0  0  0  0  0
    2.5922    0.0246   -0.5611 C   0  0  1  0  0  3  0  0  0  0  0  0
   -2.5921    0.0243   -0.5610 C   0  0  2  0  0  3  0  0  0  0  0  0
    3.8229    2.5128   -0.4799 C   0  0  0  0  0  0  0  0  0  0  0  0
   -3.8232    2.5124   -0.4800 C   0  0  0  0  0  0  0  0  0  0  0  0
    3.4833    2.7695    0.9864 C   0  0  0  0  0  0  0  0  0  0  0  0
   -3.4837    2.7693    0.9863 C   0  0  0  0  0  0  0  0  0  0  0  0
    3.2973    4.2613    1.2741 C   0  0  0  0  0  0  0  0  0  0  0  0
   -3.2979    4.2610    1.2740 C   0  0  0  0  0  0  0  0  0  0  0  0
    1.2583   -3.0834    0.5131 C   0  0  2  0  0  3  0  0  0  0  0  0
   -1.2580   -3.0835    0.5131 C   0  0  0  0  0  0  0  0  0  0  0  0
    2.5199   -3.8689    0.7603 C   0  0  0  0  0  0  0  0  0  0  0  0
   -2.5195   -3.8691    0.7605 C   0  0  0  0  0  0  0  0  0  0  0  0
    0.0002   -3.6793    0.7174 C   0  0  0  0  0  0  0  0  0  0  0  0
    3.0486    2.9082   -1.1719 H   0  0  0  0  0  0  0  0  0  0  0  0
    4.7724    3.0076   -0.7734 H   0  0  0  0  0  0  0  0  0  0  0  0
   -3.0489    2.9080   -1.1720 H   0  0  0  0  0  0  0  0  0  0  0  0
   -4.7727    3.0071   -0.7736 H   0  0  0  0  0  0  0  0  0  0  0  0
    4.2919    2.3495    1.6203 H   0  0  0  0  0  0  0  0  0  0  0  0
    2.5575    2.2133    1.2486 H   0  0  0  0  0  0  0  0  0  0  0  0
   -2.5579    2.2131    1.2486 H   0  0  0  0  0  0  0  0  0  0  0  0
   -4.2923    2.3491    1.6202 H   0  0  0  0  0  0  0  0  0  0  0  0
    2.4758    4.6963    0.6679 H   0  0  0  0  0  0  0  0  0  0  0  0
    3.0502    4.4290    2.3406 H   0  0  0  0  0  0  0  0  0  0  0  0
    4.2184    4.8371    1.0508 H   0  0  0  0  0  0  0  0  0  0  0  0
   -4.2191    4.8368    1.0506 H   0  0  0  0  0  0  0  0  0  0  0  0
   -2.4764    4.6961    0.6678 H   0  0  0  0  0  0  0  0  0  0  0  0
   -3.0509    4.4288    2.3405 H   0  0  0  0  0  0  0  0  0  0  0  0
    2.2808   -4.8999    1.0736 H   0  0  0  0  0  0  0  0  0  0  0  0
    3.1373   -3.4171    1.5682 H   0  0  0  0  0  0  0  0  0  0  0  0
    3.1461   -3.9320   -0.1556 H   0  0  0  0  0  0  0  0  0  0  0  0
   -3.1368   -3.4173    1.5686 H   0  0  0  0  0  0  0  0  0  0  0  0
   -3.1458   -3.9321   -0.1553 H   0  0  0  0  0  0  0  0  0  0  0  0
   -2.2804   -4.9000    1.0737 H   0  0  0  0  0  0  0  0  0  0  0  0
    0.0002   -4.7207    1.0612 H   0  0  0  0  0  0  0  0  0  0  0  0
    1.3415    1.4495   -1.2044 H   0  0  0  0  0  0  0  0  0  0  0  0
   -1.3416    1.4491   -1.2051 H   0  0  0  0  0  0  0  0  0  0  0  0
    3.4379   -1.6954    0.2782 H   0  0  0  0  0  0  0  0  0  0  0  0
   -3.4376   -1.6954    0.2791 H   0  0  0  0  0  0  0  0  0  0  0  0
  1 11  1  0  0  0  0
  2 12  1  0  0  0  0
  3  9  1  0  0  0  0
  4 10  1  0  0  0  0
  5  7  1  0  0  0  0
  5 45  1  0  0  0  0
  6  8  1  0  0  0  0
  6 46  1  0  0  0  0
  8 18  1  0  0  0  0
  9  1  1  6  0  0  0
  9  5  1  0  0  0  0
 10  2  1  6  0  0  0
 10  6  1  0  0  0  0
 11 13  1  0  0  0  0
 12 14  1  0  0  0  0
 13 27  1  0  0  0  0
 13 15  1  0  0  0  0
 13 26  1  0  0  0  0
 14 28  1  0  0  0  0
 14 16  1  0  0  0  0
 14 29  1  0  0  0  0
 15 31  1  0  0  0  0
 16 35  1  0  0  0  0
 17  7  1  6  0  0  0
 17 21  1  0  0  0  0
 17 19  1  0  0  0  0
 18 21  2  0  0  0  0
 18 20  1  0  0  0  0
 19 36  1  0  0  0  0
 19 37  1  0  0  0  0
 20 41  1  0  0  0  0
 20 39  1  0  0  0  0
 21 42  1  0  0  0  0
 22 11  1  0  0  0  0
 23 11  1  0  0  0  0
 24 12  1  0  0  0  0
 25 12  1  0  0  0  0
 30 15  1  0  0  0  0
 32 15  1  0  0  0  0
 33 16  1  0  0  0  0
 34 16  1  0  0  0  0
 38 19  1  0  0  0  0
 40 20  1  0  0  0  0
 43  3  1  0  0  0  0
 44  4  1  0  0  0  0
M  END
