30,31,32,33
q = -1.0, confidence = 0.372

 37 37  0  0  1  0  0  0  0  0999 V2000
   -1.8638    1.4812   -0.0000 C   0  0  0  0  0  0  0  0  0  0  0  0
   -2.9493    2.3848   -0.0001 C   0  0  0  0  0  0  0  0  0  0  0  0
   -3.9649    1.9701   -0.0001 H   0  0  0  0  0  0  0  0  0  0  0  0
   -2.6922    3.7672   -0.0000 C   0  0  0  0  0  0  0  0  0  0  0  0
   -3.5415    4.4702   -0.0000 H   0  0  0  0  0  0  0  0  0  0  0  0
   -1.3762    4.2614    0.0000 C   0  0  0  0  0  0  0  0  0  0  0  0
   -1.1933    5.3481    0.0000 H   0  0  0  0  0  0  0  0  0  0  0  0
   -0.2831    3.3749    0.0001 C   0  0  0  0  0  0  0  0  0  0  0  0
    0.7568    3.7246    0.0001 H   0  0  0  0  0  0  0  0  0  0  0  0
   -0.5242    1.9876    0.0001 C   0  0  0  0  0  0  0  0  0  0  0  0
    1.7709    1.1179    0.0000 C   0  0  0  0  0  0  0  0  0  0  0  0
    2.3898   -0.2610    0.0001 C   0  0  2  0  0  3  0  0  0  0  0  0
    4.6817    0.6034   -0.0002 C   0  0  0  0  0  0  0  0  0  0  0  0
    4.5216    1.2503    0.8848 H   0  0  0  0  0  0  0  0  0  0  0  0
    4.5214    1.2498   -0.8855 H   0  0  0  0  0  0  0  0  0  0  0  0
    6.0520   -0.0486   -0.0002 C   0  0  0  0  0  0  0  0  0  0  0  0
    6.1902   -0.6852    0.8973 H   0  0  0  0  0  0  0  0  0  0  0  0
    6.8413    0.7298   -0.0005 H   0  0  0  0  0  0  0  0  0  0  0  0
    6.1900   -0.6857   -0.8973 H   0  0  0  0  0  0  0  0  0  0  0  0
    2.1199   -2.6339    0.0002 C   0  0  0  0  0  0  0  0  0  0  0  0
    3.2269   -2.6393    0.0003 H   0  0  0  0  0  0  0  0  0  0  0  0
    1.7502   -3.1864   -0.8874 H   0  0  0  0  0  0  0  0  0  0  0  0
    1.7501   -3.1863    0.8878 H   0  0  0  0  0  0  0  0  0  0  0  0
   -0.8591   -3.7252   -0.0002 C   0  0  0  0  0  0  0  0  0  0  0  0
   -1.7495   -4.3895   -0.0002 H   0  0  0  0  0  0  0  0  0  0  0  0
   -0.2412   -3.9693    0.8953 H   0  0  0  0  0  0  0  0  0  0  0  0
   -0.2412   -3.9692   -0.8956 H   0  0  0  0  0  0  0  0  0  0  0  0
   -2.6668   -2.1744   -0.0000 C   0  0  0  0  0  0  0  0  0  0  0  0
   -3.0547   -0.6810   -0.0000 C   0  0  0  0  0  0  0  0  0  0  0  0
   -1.9272    0.0910   -0.0001 N   0  0  0  0  0  2  0  0  0  0  0  0
    0.4292    0.9606    0.0001 N   0  0  0  0  0  2  0  0  0  0  0  0
    1.5745   -1.2904    0.0001 N   0  0  0  0  0  2  0  0  0  0  0  0
   -1.3070   -2.3527   -0.0001 N   0  0  0  0  0  2  0  0  0  0  0  0
    2.4500    2.1710   -0.0001 O   0  0  0  0  0  0  0  0  0  0  0  0
    3.7188   -0.4699    0.0002 O   0  0  0  0  0  0  0  0  0  0  0  0
   -3.5298   -3.0635   -0.0001 O   0  0  0  0  0  0  0  0  0  0  0  0
   -4.2280   -0.2910    0.0001 O   0  0  0  0  0  0  0  0  0  0  0  0
  1 10  1  0  0  0  0
  2  1  2  0  0  0  0
  2  4  1  0  0  0  0
  3  2  1  0  0  0  0
  4  6  2  0  0  0  0
  5  4  1  0  0  0  0
  6  7  1  0  0  0  0
  6  8  1  0  0  0  0
  8  9  1  0  0  0  0
 10  8  2  0  0  0  0
 10 31  1  0  0  0  0
 11 31  1  0  0  0  0
 12 11  1  1  0  0  0
 12 32  1  0  0  0  0
 12 35  1  0  0  0  0
 13 16  1  0  0  0  0
 13 35  1  0  0  0  0
 13 14  1  0  0  0  0
 15 13  1  0  0  0  0
 16 17  1  0  0  0  0
 18 16  1  0  0  0  0
 19 16  1  0  0  0  0
 20 21  1  0  0  0  0
 20 23  1  0  0  0  0
 22 20  1  0  0  0  0
 24 33  1  0  0  0  0
 24 26  1  0  0  0  0
 25 24  1  0  0  0  0
 27 24  1  0  0  0  0
 28 29  1  0  0  0  0
 29 37  2  0  0  0  0
 30  1  1  0  0  0  0
 30 29  1  0  0  0  0
 32 20  1  0  0  0  0
 33 28  1  0  0  0  0
 34 11  2  0  0  0  0
 36 28  2  0  0  0  0
M  END
