10,11,12,13
q = -1.0

 43 47  0  0  1  0  0  0  0  0999 V2000
   -5.3737    0.3412   -2.2513 F   0  0  0  0  0  0  0  0  0  0  0  0
   -5.3637   -1.4857   -1.0662 F   0  0  0  0  0  0  0  0  0  0  0  0
   -5.1818    0.4423   -0.0814 F   0  0  0  0  0  0  0  0  0  0  0  0
   -0.6460    5.1680   -0.3420 F   0  0  0  0  0  0  0  0  0  0  0  0
    1.2949    4.7061    0.4892 F   0  0  0  0  0  0  0  0  0  0  0  0
    1.0975    5.1245   -1.6429 F   0  0  0  0  0  0  0  0  0  0  0  0
    5.3578   -2.2100   -1.4067 F   0  0  0  0  0  0  0  0  0  0  0  0
    5.5491   -0.1987   -2.2010 F   0  0  0  0  0  0  0  0  0  0  0  0
    5.4301   -0.5153   -0.0452 F   0  0  0  0  0  0  0  0  0  0  0  0
    1.5710    0.8798   -1.0441 N   0  0  0  0  0  0  0  0  0  0  0  0
    1.2135   -1.7452   -1.3265 N   0  0  0  0  0  0  0  0  0  0  0  0
   -1.2368   -1.5606   -1.4150 N   0  0  0  0  0  0  0  0  0  0  0  0
   -1.2182    1.0973   -1.1479 N   0  0  0  0  0  0  0  0  0  0  0  0
   -0.8035   -2.8434   -1.6449 C   0  0  0  0  0  0  0  0  0  0  0  0
   -1.9368   -3.6846   -1.8886 C   0  0  0  0  0  0  0  0  0  0  0  0
   -3.0652   -2.8837   -1.7670 C   0  0  0  0  0  0  0  0  0  0  0  0
   -2.6134   -1.5405   -1.4651 C   0  0  0  0  0  3  0  0  0  0  0  0
   -3.2849   -0.3171   -1.2923 C   0  0  1  0  0  3  0  0  0  0  0  0
   -2.5989    0.9246   -1.2290 C   0  0  0  0  0  0  0  0  0  0  0  0
   -3.2220    2.2240   -1.2912 C   0  0  0  0  0  0  0  0  0  0  0  0
   -2.2266    3.1703   -1.2220 C   0  0  0  0  0  0  0  0  0  0  0  0
   -0.9707    2.4679   -1.0881 C   0  0  0  0  0  3  0  0  0  0  0  0
    0.3157    3.0085   -0.8626 C   0  0  1  0  0  3  0  0  0  0  0  0
    1.5132    2.2591   -0.8851 C   0  0  0  0  0  3  0  0  0  0  0  0
    2.8574    2.7862   -0.8478 C   0  0  0  0  0  0  0  0  0  0  0  0
    3.7160    1.7250   -1.0018 C   0  0  0  0  0  0  0  0  0  0  0  0
    2.9184    0.5263   -1.1199 C   0  0  0  0  0  0  0  0  0  0  0  0
    3.4231   -0.7909   -1.2885 C   0  0  2  0  0  3  0  0  0  0  0  0
    2.5814   -1.9148   -1.4020 C   0  0  0  0  0  3  0  0  0  0  0  0
    2.8381   -3.3126   -1.6893 C   0  0  0  0  0  0  0  0  0  0  0  0
    1.6092   -3.9474   -1.8069 C   0  0  0  0  0  0  0  0  0  0  0  0
    0.6057   -2.9510   -1.5888 C   0  0  0  0  0  0  0  0  0  0  0  0
   -4.7933   -0.2651   -1.1811 C   0  0  0  0  0  0  0  0  0  0  0  0
    0.5009    4.4958   -0.5961 C   0  0  0  0  0  0  0  0  0  0  0  0
    4.9285   -0.9403   -1.2487 C   0  0  0  0  0  0  0  0  0  0  0  0
    1.4302   -5.0004   -2.0524 H   0  0  0  0  0  0  0  0  0  0  0  0
   -4.2927    2.4054   -1.4194 H   0  0  0  0  0  0  0  0  0  0  0  0
    3.8221   -3.7660   -1.8241 H   0  0  0  0  0  0  0  0  0  0  0  0
    4.8070    1.7675   -1.0557 H   0  0  0  0  0  0  0  0  0  0  0  0
    3.1282    3.8410   -0.7591 H   0  0  0  0  0  0  0  0  0  0  0  0
   -1.9058   -4.7505   -2.1415 H   0  0  0  0  0  0  0  0  0  0  0  0
   -4.1050   -3.1883   -1.9058 H   0  0  0  0  0  0  0  0  0  0  0  0
   -2.3526    4.2521   -1.2813 H   0  0  0  0  0  0  0  0  0  0  0  0
  1 33  1  0  0  0  0
  6 34  1  0  0  0  0
  7 35  1  0  0  0  0
  8 35  1  0  0  0  0
 10 24  1  0  0  0  0
 13 22  1  0  0  0  0
 14 32  1  0  0  0  0
 14 12  2  0  0  0  0
 15 16  2  0  0  0  0
 15 14  1  0  0  0  0
 16 17  1  0  0  0  0
 17 12  1  0  0  0  0
 17 18  1  0  0  0  0
 18 19  1  0  0  0  0
 18 33  1  6  0  0  0
 19 13  2  0  0  0  0
 20 19  1  0  0  0  0
 20 21  2  0  0  0  0
 21 22  1  0  0  0  0
 22 23  1  0  0  0  0
 23 34  1  6  0  0  0
 24 23  1  0  0  0  0
 24 25  1  0  0  0  0
 25 40  1  0  0  0  0
 26 25  2  0  0  0  0
 27 10  2  0  0  0  0
 27 26  1  0  0  0  0
 28 35  1  1  0  0  0
 28 27  1  0  0  0  0
 29 11  1  0  0  0  0
 29 28  1  0  0  0  0
 30 29  1  0  0  0  0
 31 30  2  0  0  0  0
 31 32  1  0  0  0  0
 32 11  2  0  0  0  0
 33  2  1  0  0  0  0
 33  3  1  0  0  0  0
 34  4  1  0  0  0  0
 34  5  1  0  0  0  0
 35  9  1  0  0  0  0
 36 31  1  0  0  0  0
 37 20  1  0  0  0  0
 38 30  1  0  0  0  0
 39 26  1  0  0  0  0
 41 15  1  0  0  0  0
 42 16  1  0  0  0  0
 43 21  1  0  0  0  0
M  END
