3,4,5,6
q = -2.0, confidence = 0.888

 41 42  0  0  0  0  0  0  0  0999 V2000
    1.2203   -3.5396   -0.3645 O   0  0  0  0  0  0  0  0  0  0  0  0
    1.2203    3.5396   -0.3645 O   0  0  0  0  0  0  0  0  0  0  0  0
    0.8131   -1.2506   -0.0902 N   0  0  0  0  0  2  0  0  0  0  0  0
    0.8131    1.2506   -0.0902 N   0  0  0  0  0  2  0  0  0  0  0  0
   -1.7676    1.5355    0.0719 N   0  0  0  0  0  0  0  0  0  0  0  0
   -1.7676   -1.5355    0.0719 N   0  0  0  0  0  0  0  0  0  0  0  0
    2.1089   -0.7127    0.0242 C   0  0  0  0  0  0  0  0  0  0  0  0
    3.3204   -1.4234    0.1038 C   0  0  0  0  0  0  0  0  0  0  0  0
    3.2957   -2.5198    0.0860 H   0  0  0  0  0  0  0  0  0  0  0  0
    4.5240   -0.7026    0.1917 C   0  0  0  0  0  0  0  0  0  0  0  0
    5.4758   -1.2518    0.2584 H   0  0  0  0  0  0  0  0  0  0  0  0
    4.5240    0.7026    0.1917 C   0  0  0  0  0  0  0  0  0  0  0  0
    5.4758    1.2518    0.2584 H   0  0  0  0  0  0  0  0  0  0  0  0
    3.3204    1.4234    0.1038 C   0  0  0  0  0  0  0  0  0  0  0  0
    3.2957    2.5198    0.0859 H   0  0  0  0  0  0  0  0  0  0  0  0
    2.1089    0.7127    0.0241 C   0  0  0  0  0  0  0  0  0  0  0  0
    0.4822    2.5535   -0.3086 C   0  0  0  0  0  0  0  0  0  0  0  0
   -1.0316    2.6576   -0.5821 C   0  0  0  0  0  0  0  0  0  0  0  0
   -1.4192    3.6449   -0.2485 H   0  0  0  0  0  0  0  0  0  0  0  0
   -1.1861    2.5842   -1.6778 H   0  0  0  0  0  0  0  0  0  0  0  0
   -1.9315    1.8596    1.5068 C   0  0  0  0  0  0  0  0  0  0  0  0
   -2.3922    1.0172    2.0524 H   0  0  0  0  0  0  0  0  0  0  0  0
   -2.5732    2.7617    1.6327 H   0  0  0  0  0  0  0  0  0  0  0  0
   -0.9365    2.0547    1.9460 H   0  0  0  0  0  0  0  0  0  0  0  0
   -3.0715    1.2891   -0.5888 C   0  0  0  0  0  0  0  0  0  0  0  0
   -2.8758    1.2507   -1.6799 H   0  0  0  0  0  0  0  0  0  0  0  0
   -3.7425    2.1619   -0.4074 H   0  0  0  0  0  0  0  0  0  0  0  0
   -3.7715    0.0000   -0.1594 C   0  0  0  0  0  0  0  0  0  0  0  0
   -4.7749    0.0000   -0.6332 H   0  0  0  0  0  0  0  0  0  0  0  0
   -3.9723   -0.0000    0.9322 H   0  0  0  0  0  0  0  0  0  0  0  0
   -3.0715   -1.2891   -0.5888 C   0  0  0  0  0  0  0  0  0  0  0  0
   -3.7425   -2.1618   -0.4075 H   0  0  0  0  0  0  0  0  0  0  0  0
   -2.8758   -1.2506   -1.6800 H   0  0  0  0  0  0  0  0  0  0  0  0
   -1.9315   -1.8596    1.5068 C   0  0  0  0  0  0  0  0  0  0  0  0
   -0.9366   -2.0547    1.9460 H   0  0  0  0  0  0  0  0  0  0  0  0
   -2.5732   -2.7617    1.6326 H   0  0  0  0  0  0  0  0  0  0  0  0
   -2.3922   -1.0172    2.0524 H   0  0  0  0  0  0  0  0  0  0  0  0
   -1.0316   -2.6576   -0.5821 C   0  0  0  0  0  0  0  0  0  0  0  0
   -1.1861   -2.5842   -1.6778 H   0  0  0  0  0  0  0  0  0  0  0  0
   -1.4192   -3.6449   -0.2485 H   0  0  0  0  0  0  0  0  0  0  0  0
    0.4822   -2.5535   -0.3086 C   0  0  0  0  0  0  0  0  0  0  0  0
  1 41  2  0  0  0  0
  2 17  2  0  0  0  0
  3  7  1  0  0  0  0
  4 16  1  0  0  0  0
  5 21  1  0  0  0  0
  6 34  1  0  0  0  0
  7  8  1  0  0  0  0
  8 10  2  0  0  0  0
  9  8  1  0  0  0  0
 10 11  1  0  0  0  0
 12 10  1  0  0  0  0
 12 13  1  0  0  0  0
 14 12  2  0  0  0  0
 15 14  1  0  0  0  0
 16  7  2  0  0  0  0
 16 14  1  0  0  0  0
 17  4  1  0  0  0  0
 18 17  1  0  0  0  0
 18 19  1  0  0  0  0
 18  5  1  0  0  0  0
 20 18  1  0  0  0  0
 21 23  1  0  0  0  0
 21 24  1  0  0  0  0
 21 22  1  0  0  0  0
 25 27  1  0  0  0  0
 25 28  1  0  0  0  0
 25  5  1  0  0  0  0
 26 25  1  0  0  0  0
 28 30  1  0  0  0  0
 29 28  1  0  0  0  0
 31 32  1  0  0  0  0
 31 28  1  0  0  0  0
 31  6  1  0  0  0  0
 33 31  1  0  0  0  0
 34 36  1  0  0  0  0
 34 35  1  0  0  0  0
 34 37  1  0  0  0  0
 38 41  1  0  0  0  0
 38 40  1  0  0  0  0
 38  6  1  0  0  0  0
 39 38  1  0  0  0  0
 41  3  1  0  0  0  0
M  END
