1,3,4,5
q = -1.0

 37 38  0  0  0  0  0  0  0  0999 V2000
    1.3383   -1.2151   -0.0791 N   0  0  0  0  0  2  0  0  0  0  0  0
    1.0222   -2.1824   -0.2609 H   0  0  0  0  0  0  0  0  0  0  0  0
    1.4071    1.5936    0.0143 N   0  0  0  0  0  2  0  0  0  0  0  0
   -1.1359    1.5104   -0.3837 N   0  0  0  0  0  2  0  0  0  0  0  0
   -1.3238   -1.2208   -0.0721 N   0  0  0  0  0  2  0  0  0  0  0  0
   -1.0412   -2.2141   -0.0841 H   0  0  0  0  0  0  0  0  0  0  0  0
    2.6859   -1.1099   -0.2604 C   0  0  0  0  0  0  0  0  0  0  0  0
    3.4784   -2.2799   -0.4665 C   0  0  0  0  0  0  0  0  0  0  0  0
    2.9692   -3.2566   -0.4624 H   0  0  0  0  0  0  0  0  0  0  0  0
    4.8541   -2.2107   -0.6444 C   0  0  0  0  0  0  0  0  0  0  0  0
    5.4262   -3.1412   -0.7822 H   0  0  0  0  0  0  0  0  0  0  0  0
    5.5265   -0.9640   -0.6509 C   0  0  0  0  0  0  0  0  0  0  0  0
    6.6154   -0.9170   -0.7920 H   0  0  0  0  0  0  0  0  0  0  0  0
    4.7814    0.1949   -0.4889 C   0  0  0  0  0  0  0  0  0  0  0  0
    5.2769    1.1785   -0.5137 H   0  0  0  0  0  0  0  0  0  0  0  0
    3.3707    0.1625   -0.2895 C   0  0  0  0  0  0  0  0  0  0  0  0
    2.6827    1.4160   -0.2299 C   0  0  0  0  0  3  0  0  0  0  0  0
    3.2913    2.3193   -0.4432 H   0  0  0  0  0  0  0  0  0  0  0  0
    0.8077    2.9309   -0.0423 C   0  0  0  0  0  0  0  0  0  0  0  0
    1.4771    3.6662   -0.5386 H   0  0  0  0  0  0  0  0  0  0  0  0
    0.6307    3.2629    1.0038 H   0  0  0  0  0  0  0  0  0  0  0  0
   -0.5214    2.7807   -0.7734 C   0  0  0  0  0  0  0  0  0  0  0  0
   -1.1937    3.6372   -0.5301 H   0  0  0  0  0  0  0  0  0  0  0  0
   -0.3550    2.8184   -1.8810 H   0  0  0  0  0  0  0  0  0  0  0  0
   -2.4181    1.3334   -1.0534 C   0  0  0  0  0  0  0  0  0  0  0  0
   -2.2499    1.2614   -2.1625 H   0  0  0  0  0  0  0  0  0  0  0  0
   -3.0221    2.2628   -0.9191 H   0  0  0  0  0  0  0  0  0  0  0  0
   -3.2697    0.1616   -0.6281 C   0  0  0  0  0  0  0  0  0  0  0  0
   -4.6680    0.2653   -0.7258 C   0  0  0  0  0  0  0  0  0  0  0  0
   -5.1030    1.2390   -1.0050 H   0  0  0  0  0  0  0  0  0  0  0  0
   -5.5134   -0.8313   -0.5012 C   0  0  0  0  0  0  0  0  0  0  0  0
   -6.6042   -0.7177   -0.5850 H   0  0  0  0  0  0  0  0  0  0  0  0
   -4.9454   -2.0717   -0.1710 C   0  0  0  0  0  0  0  0  0  0  0  0
   -5.5867   -2.9490    0.0049 H   0  0  0  0  0  0  0  0  0  0  0  0
   -3.5575   -2.1935   -0.0469 C   0  0  0  0  0  0  0  0  0  0  0  0
   -3.1092   -3.1592    0.2383 H   0  0  0  0  0  0  0  0  0  0  0  0
   -2.6995   -1.0860   -0.2556 C   0  0  0  0  0  0  0  0  0  0  0  0
  2  1  1  0  0  0  0
  6  5  1  0  0  0  0
  7  1  1  0  0  0  0
  8  9  1  0  0  0  0
  8  7  2  0  0  0  0
 10  8  1  0  0  0  0
 11 10  1  0  0  0  0
 12 10  2  0  0  0  0
 12 14  1  0  0  0  0
 13 12  1  0  0  0  0
 14 16  2  0  0  0  0
 15 14  1  0  0  0  0
 16  7  1  0  0  0  0
 16 17  1  0  0  0  0
 17  3  1  0  0  0  0
 18 17  1  0  0  0  0
 19  3  1  0  0  0  0
 19 21  1  0  0  0  0
 20 19  1  0  0  0  0
 22 23  1  0  0  0  0
 22  4  1  0  0  0  0
 22 19  1  0  0  0  0
 24 22  1  0  0  0  0
 25 27  1  0  0  0  0
 25 28  1  0  0  0  0
 25  4  1  0  0  0  0
 26 25  1  0  0  0  0
 28 37  1  0  0  0  0
 29 28  2  0  0  0  0
 29 31  1  0  0  0  0
 30 29  1  0  0  0  0
 31 33  2  0  0  0  0
 32 31  1  0  0  0  0
 33 35  1  0  0  0  0
 33 34  1  0  0  0  0
 35 36  1  0  0  0  0
 37  5  1  0  0  0  0
 37 35  2  0  0  0  0
M  END
