1,2,3,4
q = 0.0, confidence = 1.0

 40 43  0  0  1  0  0  0  0  0999 V2000
    1.8488   -1.3498    0.3198 N   0  0  0  0  0  2  0  0  0  0  0  0
    1.8093    1.2870   -0.2675 N   0  0  0  0  0  2  0  0  0  0  0  0
   -1.6539    0.8837   -0.3476 N   0  0  0  0  0  2  0  0  0  0  0  0
   -0.5728   -1.1079   -1.7055 N   0  0  0  0  0  2  0  0  0  0  0  0
    1.7569   -2.6035    0.7972 C   0  0  0  0  0  3  0  0  0  0  0  0
    2.8954   -3.3432    1.1426 C   0  0  0  0  0  0  0  0  0  0  0  0
    4.1546   -2.7460    0.9899 C   0  0  0  0  0  0  0  0  0  0  0  0
    4.2390   -1.4321    0.5096 C   0  0  0  0  0  0  0  0  0  0  0  0
    3.0527   -0.7491    0.1831 C   0  0  0  0  0  0  0  0  0  0  0  0
    3.0238    0.6664   -0.2786 C   0  0  2  0  0  3  0  0  0  0  0  0
    4.1839    1.3415   -0.6924 C   0  0  0  0  0  0  0  0  0  0  0  0
    4.0944    2.6892   -1.0654 C   0  0  0  0  0  0  0  0  0  0  0  0
    2.8612    3.3386   -0.9799 C   0  0  0  0  0  0  0  0  0  0  0  0
    1.7320    2.5950   -0.5743 C   0  0  0  0  0  0  0  0  0  0  0  0
   -2.0773    1.8820    0.4353 C   0  0  2  0  0  3  0  0  0  0  0  0
   -3.4392    2.1163    0.6759 C   0  0  0  0  0  0  0  0  0  0  0  0
   -4.3646    1.2666    0.0525 C   0  0  0  0  0  0  0  0  0  0  0  0
   -3.9172    0.2573   -0.8105 C   0  0  0  0  0  0  0  0  0  0  0  0
   -2.5334    0.0894   -0.9931 C   0  0  0  0  0  0  0  0  0  0  0  0
   -1.9085   -0.9382   -1.8671 C   0  0  1  0  0  3  0  0  0  0  0  0
   -2.6242   -1.6837   -2.8185 C   0  0  0  0  0  0  0  0  0  0  0  0
   -1.9397   -2.6157   -3.6097 C   0  0  0  0  0  0  0  0  0  0  0  0
   -0.5587   -2.7785   -3.4338 C   0  0  0  0  0  0  0  0  0  0  0  0
    0.0836   -2.0001   -2.4617 C   0  0  0  0  0  0  0  0  0  0  0  0
    0.2016    3.5223   -0.5534 S   0  0  0  0  0  0  0  0  0  0  0  0
   -0.8187    2.9245    1.1691 S   0  0  0  0  0  0  0  0  0  0  0  0
    0.7335   -2.9965    0.9138 H   0  0  0  0  0  0  0  0  0  0  0  0
    2.7881   -4.3646    1.5337 H   0  0  0  0  0  0  0  0  0  0  0  0
    5.0704   -3.2929    1.2591 H   0  0  0  0  0  0  0  0  0  0  0  0
    5.2168   -0.9413    0.4201 H   0  0  0  0  0  0  0  0  0  0  0  0
    5.1488    0.8206   -0.7290 H   0  0  0  0  0  0  0  0  0  0  0  0
    4.9906    3.2385   -1.3892 H   0  0  0  0  0  0  0  0  0  0  0  0
    2.7593    4.4112   -1.1980 H   0  0  0  0  0  0  0  0  0  0  0  0
   -3.7585    2.9454    1.3220 H   0  0  0  0  0  0  0  0  0  0  0  0
   -5.4417    1.4053    0.2264 H   0  0  0  0  0  0  0  0  0  0  0  0
   -4.6364   -0.4051   -1.3093 H   0  0  0  0  0  0  0  0  0  0  0  0
   -3.7036   -1.5309   -2.9503 H   0  0  0  0  0  0  0  0  0  0  0  0
   -2.4829   -3.2082   -4.3604 H   0  0  0  0  0  0  0  0  0  0  0  0
    0.0156   -3.4982   -4.0339 H   0  0  0  0  0  0  0  0  0  0  0  0
    1.1642   -2.1005   -2.2715 H   0  0  0  0  0  0  0  0  0  0  0  0
  1  5  1  0  0  0  0
  3 15  1  0  0  0  0
  5 27  1  0  0  0  0
  5  6  1  0  0  0  0
  6 28  1  0  0  0  0
  7  6  2  0  0  0  0
  7 29  1  0  0  0  0
  8  7  1  0  0  0  0
  9  1  1  0  0  0  0
  9  8  2  0  0  0  0
 10  2  1  0  0  0  0
 10  9  1  1  0  0  0
 11 10  1  0  0  0  0
 12 13  1  0  0  0  0
 12 11  2  0  0  0  0
 13 14  2  0  0  0  0
 14 25  1  0  0  0  0
 14  2  1  0  0  0  0
 15 16  1  0  0  0  0
 15 26  1  6  0  0  0
 16 34  1  0  0  0  0
 17 35  1  0  0  0  0
 17 16  2  0  0  0  0
 18 17  1  0  0  0  0
 19 18  2  0  0  0  0
 19  3  1  0  0  0  0
 20  4  1  0  0  0  0
 20 19  1  6  0  0  0
 21 20  1  0  0  0  0
 22 23  1  0  0  0  0
 22 21  2  0  0  0  0
 23 24  2  0  0  0  0
 24 40  1  0  0  0  0
 24  4  1  0  0  0  0
 25 26  1  0  0  0  0
 30  8  1  0  0  0  0
 31 11  1  0  0  0  0
 32 12  1  0  0  0  0
 33 13  1  0  0  0  0
 36 18  1  0  0  0  0
 37 21  1  0  0  0  0
 38 22  1  0  0  0  0
 39 23  1  0  0  0  0
M  END
