35,36,37,38
q = 0.0, confidence = 1.0

 38 39  0  0  1  0  0  0  0  0999 V2000
   -1.6812    2.2717    0.3858 C   0  0  0  0  0  3  0  0  0  0  0  0
   -0.7379    2.7974    0.5805 H   0  0  0  0  0  0  0  0  0  0  0  0
   -2.9055    2.9497    0.4539 C   0  0  0  0  0  0  0  0  0  0  0  0
   -2.9147    4.0278    0.6667 H   0  0  0  0  0  0  0  0  0  0  0  0
   -4.0928    2.2325    0.2588 C   0  0  0  0  0  0  0  0  0  0  0  0
   -5.0691    2.7369    0.2976 H   0  0  0  0  0  0  0  0  0  0  0  0
   -4.0139    0.8517    0.0391 C   0  0  0  0  0  0  0  0  0  0  0  0
   -4.9236    0.2490   -0.0857 H   0  0  0  0  0  0  0  0  0  0  0  0
   -2.7537    0.2354   -0.0082 C   0  0  0  0  0  0  0  0  0  0  0  0
   -2.5375   -1.2106   -0.1494 C   0  0  1  0  0  3  0  0  0  0  0  0
   -3.6652   -2.1629   -0.3747 C   0  0  0  0  0  0  0  0  0  0  0  0
   -3.3383   -3.2166   -0.3543 H   0  0  0  0  0  0  0  0  0  0  0  0
   -4.1283   -1.9683   -1.3652 H   0  0  0  0  0  0  0  0  0  0  0  0
   -4.4545   -2.0281    0.3917 H   0  0  0  0  0  0  0  0  0  0  0  0
   -0.6964   -2.8505   -0.3141 C   0  0  0  0  0  0  0  0  0  0  0  0
   -0.6212   -2.9771   -1.4168 H   0  0  0  0  0  0  0  0  0  0  0  0
   -1.3235   -3.6661    0.0974 H   0  0  0  0  0  0  0  0  0  0  0  0
    0.6964   -2.8505    0.3143 C   0  0  0  0  0  0  0  0  0  0  0  0
    0.6213   -2.9770    1.4170 H   0  0  0  0  0  0  0  0  0  0  0  0
    1.3235   -3.6661   -0.0972 H   0  0  0  0  0  0  0  0  0  0  0  0
    2.5375   -1.2106    0.1494 C   0  0  0  0  0  0  0  0  0  0  0  0
    3.6653   -2.1628    0.3747 C   0  0  0  0  0  0  0  0  0  0  0  0
    3.3383   -3.2166    0.3548 H   0  0  0  0  0  0  0  0  0  0  0  0
    4.1287   -1.9680    1.3650 H   0  0  0  0  0  0  0  0  0  0  0  0
    4.4543   -2.0283   -0.3920 H   0  0  0  0  0  0  0  0  0  0  0  0
    2.7537    0.2354    0.0082 C   0  0  0  0  0  0  0  0  0  0  0  0
    4.0139    0.8517   -0.0392 C   0  0  0  0  0  0  0  0  0  0  0  0
    4.9236    0.2490    0.0855 H   0  0  0  0  0  0  0  0  0  0  0  0
    4.0928    2.2325   -0.2590 C   0  0  0  0  0  0  0  0  0  0  0  0
    5.0690    2.7369   -0.2978 H   0  0  0  0  0  0  0  0  0  0  0  0
    2.9055    2.9497   -0.4541 C   0  0  0  0  0  0  0  0  0  0  0  0
    2.9147    4.0278   -0.6668 H   0  0  0  0  0  0  0  0  0  0  0  0
    1.6811    2.2716   -0.3859 C   0  0  0  0  0  0  0  0  0  0  0  0
    0.7378    2.7974   -0.5806 H   0  0  0  0  0  0  0  0  0  0  0  0
   -1.5977    0.9585    0.1219 N   0  0  0  0  0  2  0  0  0  0  0  0
   -1.2765   -1.5314   -0.0828 N   0  0  0  0  0  2  0  0  0  0  0  0
    1.2765   -1.5313    0.0829 N   0  0  0  0  0  2  0  0  0  0  0  0
    1.5977    0.9585   -0.1220 N   0  0  0  0  0  2  0  0  0  0  0  0
  1  3  1  0  0  0  0
  1  2  1  0  0  0  0
  3  4  1  0  0  0  0
  5  6  1  0  0  0  0
  5  3  2  0  0  0  0
  7  5  1  0  0  0  0
  8  7  1  0  0  0  0
  9  7  2  0  0  0  0
  9 35  1  0  0  0  0
 10 36  1  6  0  0  0
 10  9  1  0  0  0  0
 11 12  1  0  0  0  0
 11 10  1  0  0  0  0
 11 14  1  0  0  0  0
 13 11  1  0  0  0  0
 15 36  1  0  0  0  0
 15 17  1  0  0  0  0
 15 18  1  0  0  0  0
 16 15  1  0  0  0  0
 18 19  1  0  0  0  0
 20 18  1  0  0  0  0
 21 22  1  0  0  0  0
 22 24  1  0  0  0  0
 23 22  1  0  0  0  0
 25 22  1  0  0  0  0
 26 21  2  0  0  0  0
 27 26  1  0  0  0  0
 27 28  1  0  0  0  0
 29 27  2  0  0  0  0
 30 29  1  0  0  0  0
 31 33  2  0  0  0  0
 31 29  1  0  0  0  0
 32 31  1  0  0  0  0
 33 38  1  0  0  0  0
 34 33  1  0  0  0  0
 35  1  1  0  0  0  0
 37 21  1  0  0  0  0
 37 18  1  0  0  0  0
 38 26  1  0  0  0  0
M  END
