2,3,4,5
q = -1.0

 83 87  0  0  0  0  0  0  0  0999 V2000
   -3.3242    0.0040   -0.3345 O   0  0  0  0  0  0  0  0  0  0  0  0
   -1.3972   -1.3977   -0.3367 N   0  0  0  0  0  2  0  0  0  0  0  0
    1.4703   -1.4399   -0.3381 N   0  0  0  0  0  0  0  0  0  0  0  0
    1.4736    1.4366   -0.3381 N   0  0  0  0  0  0  0  0  0  0  0  0
   -1.3939    1.4012   -0.3367 N   0  0  0  0  0  0  0  0  0  0  0  0
   -2.7250   -1.1907   -0.3312 C   0  0  0  0  0  0  0  0  0  0  0  0
   -3.5014   -2.4069   -0.3285 C   0  0  0  0  0  0  0  0  0  0  0  0
   -2.5563   -3.4245   -0.3340 C   0  0  0  0  0  0  0  0  0  0  0  0
   -1.2430   -2.7819   -0.3400 C   0  0  0  0  0  0  0  0  0  0  0  0
   -0.0100   -3.4161   -0.3505 C   0  0  0  0  0  0  0  0  0  0  0  0
   -0.0184   -4.5148   -0.3666 H   0  0  0  0  0  0  0  0  0  0  0  0
    1.2546   -2.7968   -0.3375 C   0  0  0  0  0  0  0  0  0  0  0  0
    2.5261   -3.5095   -0.3265 C   0  0  0  0  0  0  0  0  0  0  0  0
    3.5174   -2.5411   -0.3250 C   0  0  0  0  0  0  0  0  0  0  0  0
    2.8343   -1.2521   -0.3349 C   0  0  0  0  0  0  0  0  0  0  0  0
    3.4639   -0.0040   -0.3448 C   0  0  0  0  0  0  0  0  0  0  0  0
    4.5626   -0.0052   -0.3586 H   0  0  0  0  0  0  0  0  0  0  0  0
    2.8373    1.2457   -0.3350 C   0  0  0  0  0  3  0  0  0  0  0  0
    3.5233    2.5330   -0.3251 C   0  0  0  0  0  0  0  0  0  0  0  0
    2.5343    3.5038   -0.3267 C   0  0  0  0  0  0  0  0  0  0  0  0
    1.2611    2.7940   -0.3376 C   0  0  0  0  0  0  0  0  0  0  0  0
   -0.0020    3.4164   -0.3505 C   0  0  0  0  0  0  0  0  0  0  0  0
   -0.0078    4.5151   -0.3665 H   0  0  0  0  0  0  0  0  0  0  0  0
   -1.2364    2.7850   -0.3399 C   0  0  0  0  0  0  0  0  0  0  0  0
   -2.5482    3.4307   -0.3337 C   0  0  0  0  0  0  0  0  0  0  0  0
   -3.4957    2.4154   -0.3281 C   0  0  0  0  0  0  0  0  0  0  0  0
   -2.7222    1.1973   -0.3310 C   0  0  0  0  0  0  0  0  0  0  0  0
   -4.9970   -2.4700   -0.2661 C   0  0  0  0  0  0  0  0  0  0  0  0
   -5.3304   -3.4532   -0.6559 H   0  0  0  0  0  0  0  0  0  0  0  0
   -5.4221   -1.7050   -0.9497 H   0  0  0  0  0  0  0  0  0  0  0  0
   -5.5544   -2.2563    1.1520 C   0  0  0  0  0  0  0  0  0  0  0  0
   -6.6606   -2.3128    1.1515 H   0  0  0  0  0  0  0  0  0  0  0  0
   -5.2667   -1.2636    1.5536 H   0  0  0  0  0  0  0  0  0  0  0  0
   -5.1725   -3.0252    1.8527 H   0  0  0  0  0  0  0  0  0  0  0  0
   -2.7919   -4.9020   -0.2684 C   0  0  0  0  0  0  0  0  0  0  0  0
   -2.0768   -5.4245   -0.9387 H   0  0  0  0  0  0  0  0  0  0  0  0
   -3.8010   -5.1230   -0.6722 H   0  0  0  0  0  0  0  0  0  0  0  0
   -2.6740   -5.4695    1.1583 C   0  0  0  0  0  0  0  0  0  0  0  0
   -2.8631   -6.5609    1.1626 H   0  0  0  0  0  0  0  0  0  0  0  0
   -3.4070   -4.9920    1.8384 H   0  0  0  0  0  0  0  0  0  0  0  0
   -1.6644   -5.2952    1.5826 H   0  0  0  0  0  0  0  0  0  0  0  0
    2.6795   -4.9996   -0.2570 C   0  0  0  0  0  0  0  0  0  0  0  0
    3.6819   -5.2753   -0.6439 H   0  0  0  0  0  0  0  0  0  0  0  0
    1.9530   -5.4850   -0.9434 H   0  0  0  0  0  0  0  0  0  0  0  0
    2.5068   -5.5651    1.1639 C   0  0  0  0  0  0  0  0  0  0  0  0
    2.6364   -6.6653    1.1702 H   0  0  0  0  0  0  0  0  0  0  0  0
    1.5013   -5.3378    1.5737 H   0  0  0  0  0  0  0  0  0  0  0  0
    3.2514   -5.1288    1.8590 H   0  0  0  0  0  0  0  0  0  0  0  0
    5.0027   -2.7283   -0.2520 C   0  0  0  0  0  0  0  0  0  0  0  0
    5.5057   -2.0064   -0.9303 H   0  0  0  0  0  0  0  0  0  0  0  0
    5.2582   -3.7338   -0.6446 H   0  0  0  0  0  0  0  0  0  0  0  0
    5.5654   -2.5772    1.1729 C   0  0  0  0  0  0  0  0  0  0  0  0
    6.6624   -2.7315    1.1821 H   0  0  0  0  0  0  0  0  0  0  0  0
    5.1098   -3.3164    1.8613 H   0  0  0  0  0  0  0  0  0  0  0  0
    5.3586   -1.5692    1.5869 H   0  0  0  0  0  0  0  0  0  0  0  0
    5.0091    2.7168   -0.2523 C   0  0  0  0  0  0  0  0  0  0  0  0
    5.2669    3.7218   -0.6445 H   0  0  0  0  0  0  0  0  0  0  0  0
    5.5103    1.9940   -0.9310 H   0  0  0  0  0  0  0  0  0  0  0  0
    5.5718    2.5638    1.1724 C   0  0  0  0  0  0  0  0  0  0  0  0
    6.6690    2.7155    1.1815 H   0  0  0  0  0  0  0  0  0  0  0  0
    5.3627    1.5561    1.5861 H   0  0  0  0  0  0  0  0  0  0  0  0
    5.1180    3.3038    1.8612 H   0  0  0  0  0  0  0  0  0  0  0  0
    2.6913    4.9936   -0.2572 C   0  0  0  0  0  0  0  0  0  0  0  0
    1.9656    5.4806   -0.9434 H   0  0  0  0  0  0  0  0  0  0  0  0
    3.6941    5.2669   -0.6446 H   0  0  0  0  0  0  0  0  0  0  0  0
    2.5204    5.5594    1.1638 C   0  0  0  0  0  0  0  0  0  0  0  0
    2.6527    6.6592    1.1700 H   0  0  0  0  0  0  0  0  0  0  0  0
    3.2643    5.1212    1.8585 H   0  0  0  0  0  0  0  0  0  0  0  0
    1.5146    5.3343    1.5739 H   0  0  0  0  0  0  0  0  0  0  0  0
   -2.7803    4.9088   -0.2678 C   0  0  0  0  0  0  0  0  0  0  0  0
   -3.7886    5.1323   -0.6723 H   0  0  0  0  0  0  0  0  0  0  0  0
   -2.0635    5.4297   -0.9374 H   0  0  0  0  0  0  0  0  0  0  0  0
   -2.6622    5.4755    1.1592 C   0  0  0  0  0  0  0  0  0  0  0  0
   -2.8487    6.5673    1.1637 H   0  0  0  0  0  0  0  0  0  0  0  0
   -1.6534    5.2986    1.5842 H   0  0  0  0  0  0  0  0  0  0  0  0
   -3.3968    4.9994    1.8385 H   0  0  0  0  0  0  0  0  0  0  0  0
   -4.9911    2.4820   -0.2657 C   0  0  0  0  0  0  0  0  0  0  0  0
   -5.4181    1.7196   -0.9511 H   0  0  0  0  0  0  0  0  0  0  0  0
   -5.3221    3.4668   -0.6533 H   0  0  0  0  0  0  0  0  0  0  0  0
   -5.5492    2.2665    1.1519 C   0  0  0  0  0  0  0  0  0  0  0  0
   -6.6553    2.3257    1.1514 H   0  0  0  0  0  0  0  0  0  0  0  0
   -5.1655    3.0328    1.8544 H   0  0  0  0  0  0  0  0  0  0  0  0
   -5.2641    1.2721    1.5513 H   0  0  0  0  0  0  0  0  0  0  0  0
  1  6  2  0  0  0  0
  1 27  1  0  0  0  0
  2  6  1  0  0  0  0
  3 12  2  0  0  0  0
  3 15  1  0  0  0  0
  4 21  2  0  0  0  0
  4 18  1  0  0  0  0
  5 27  2  0  0  0  0
  6  7  1  0  0  0  0
  7 28  1  0  0  0  0
  8  7  2  0  0  0  0
  8 35  1  0  0  0  0
  9  2  1  0  0  0  0
  9  8  1  0  0  0  0
 10  9  2  0  0  0  0
 10 12  1  0  0  0  0
 11 10  1  0  0  0  0
 12 13  1  0  0  0  0
 13 14  2  0  0  0  0
 13 42  1  0  0  0  0
 14 49  1  0  0  0  0
 15 14  1  0  0  0  0
 16 18  1  0  0  0  0
 16 15  2  0  0  0  0
 17 16  1  0  0  0  0
 18 19  1  0  0  0  0
 19 56  1  0  0  0  0
 20 19  2  0  0  0  0
 20 63  1  0  0  0  0
 21 20  1  0  0  0  0
 22 24  2  0  0  0  0
 22 21  1  0  0  0  0
 23 22  1  0  0  0  0
 24  5  1  0  0  0  0
 24 25  1  0  0  0  0
 25 26  2  0  0  0  0
 25 70  1  0  0  0  0
 26 77  1  0  0  0  0
 27 26  1  0  0  0  0
 28 31  1  0  0  0  0
 29 28  1  0  0  0  0
 30 28  1  0  0  0  0
 31 33  1  0  0  0  0
 31 34  1  0  0  0  0
 32 31  1  0  0  0  0
 35 38  1  0  0  0  0
 36 35  1  0  0  0  0
 37 35  1  0  0  0  0
 38 39  1  0  0  0  0
 38 41  1  0  0  0  0
 38 40  1  0  0  0  0
 42 45  1  0  0  0  0
 43 42  1  0  0  0  0
 44 42  1  0  0  0  0
 45 46  1  0  0  0  0
 45 47  1  0  0  0  0
 45 48  1  0  0  0  0
 49 52  1  0  0  0  0
 50 49  1  0  0  0  0
 51 49  1  0  0  0  0
 52 53  1  0  0  0  0
 52 55  1  0  0  0  0
 52 54  1  0  0  0  0
 56 59  1  0  0  0  0
 57 56  1  0  0  0  0
 58 56  1  0  0  0  0
 59 60  1  0  0  0  0
 59 61  1  0  0  0  0
 59 62  1  0  0  0  0
 63 66  1  0  0  0  0
 64 63  1  0  0  0  0
 65 63  1  0  0  0  0
 66 67  1  0  0  0  0
 66 69  1  0  0  0  0
 66 68  1  0  0  0  0
 70 73  1  0  0  0  0
 71 70  1  0  0  0  0
 72 70  1  0  0  0  0
 73 74  1  0  0  0  0
 73 75  1  0  0  0  0
 73 76  1  0  0  0  0
 77 80  1  0  0  0  0
 78 77  1  0  0  0  0
 79 77  1  0  0  0  0
 80 83  1  0  0  0  0
 80 82  1  0  0  0  0
 81 80  1  0  0  0  0
M  END
