2,3,4,7
q = -1.0

 60 66  0  0  1  0  0  0  0  0999 V2000
    2.0335   -0.0714    0.0360 P   0  0  0  0  0  4  0  0  0  0  0  0
   -1.5175    0.6571    0.8909 N   0  0  0  0  0  2  0  0  0  0  0  0
   -1.9826    1.3919   -1.5409 N   0  0  0  0  0  2  0  0  0  0  0  0
   -1.7087   -2.3177   -0.7708 N   0  0  0  0  0  1  0  0  0  0  0  0
   -2.5341    1.4837    1.2610 N   0  0  2  0  0  0  0  0  0  0  0  0
   -3.0168    2.1709   -1.0724 N   0  0  1  0  0  0  0  0  0  0  0  0
   -4.0347    0.0375   -0.2157 N   0  0  0  0  0  2  0  0  0  0  0  0
   -3.7293    1.4719    0.1705 B   0  0  1  0  0  0  0  0  0  0  0  0
    0.6449    1.0688   -0.1137 C   0  0  0  0  0  0  0  0  0  0  0  0
   -0.3343    1.3314    1.0087 C   0  0  1  0  0  3  0  0  0  0  0  0
   -0.5714    2.5705    1.6519 C   0  0  0  0  0  3  0  0  0  0  0  0
   -1.9796    2.6876    1.7167 C   0  0  1  0  0  3  0  0  0  0  0  0
   -2.6917    3.8726    1.3579 C   0  0  0  0  0  3  0  0  0  0  0  0
   -3.5039   -3.7031    0.3610 C   0  0  0  0  0  2  0  0  0  0  0  0
   -2.5290   -3.0491   -0.2617 C   0  0  0  0  0  2  0  0  0  0  0  0
   -4.7896   -3.5017    0.7918 C   0  0  0  0  0  0  0  0  0  0  0  0
   -4.5478   -0.9788    0.2734 C   0  0  0  0  0  2  0  0  0  0  0  0
   -4.9884   -2.1252    0.6811 C   0  0  0  0  0  3  0  0  0  0  0  0
    0.4225    1.4993   -1.4000 C   0  0  0  0  0  3  0  0  0  0  0  0
   -0.8553    2.1654   -1.6172 C   0  0  2  0  0  3  0  0  0  0  0  0
   -1.2157    3.5261   -1.4502 C   0  0  0  0  0  3  0  0  0  0  0  0
   -2.5424    3.4793   -0.9705 C   0  0  2  0  0  3  0  0  0  0  0  0
   -2.9975    4.2000    0.1823 C   0  0  0  0  0  3  0  0  0  0  0  0
    2.2473   -0.5686    1.7677 C   0  0  0  0  0  0  0  0  0  0  0  0
    1.1222   -1.1003    2.4390 C   0  0  0  0  0  0  0  0  0  0  0  0
    1.2288   -1.4495    3.7923 C   0  0  0  0  0  0  0  0  0  0  0  0
    2.4423   -1.2684    4.4759 C   0  0  0  0  0  0  0  0  0  0  0  0
    3.5567   -0.7356    3.8082 C   0  0  0  0  0  0  0  0  0  0  0  0
    3.4630   -0.3817    2.4540 C   0  0  0  0  0  0  0  0  0  0  0  0
    1.6989   -1.5782   -0.9338 C   0  0  0  0  0  0  0  0  0  0  0  0
    1.3043   -1.4239   -2.2799 C   0  0  0  0  0  0  0  0  0  0  0  0
    1.0008   -2.5589   -3.0415 C   0  0  0  0  0  0  0  0  0  0  0  0
    1.0921   -3.8395   -2.4720 C   0  0  0  0  0  0  0  0  0  0  0  0
    1.4937   -3.9889   -1.1361 C   0  0  0  0  0  0  0  0  0  0  0  0
    1.8012   -2.8604   -0.3613 C   0  0  0  0  0  0  0  0  0  0  0  0
    3.5832    0.6533   -0.5690 C   0  0  0  0  0  0  0  0  0  0  0  0
    3.7403    2.0524   -0.5992 C   0  0  0  0  0  0  0  0  0  0  0  0
    4.9656    2.6009   -1.0025 C   0  0  0  0  0  0  0  0  0  0  0  0
    6.0272    1.7597   -1.3761 C   0  0  0  0  0  0  0  0  0  0  0  0
    5.8660    0.3650   -1.3522 C   0  0  0  0  0  0  0  0  0  0  0  0
    4.6433   -0.1935   -0.9516 C   0  0  0  0  0  0  0  0  0  0  0  0
    0.1469    3.3747    1.8396 H   0  0  0  0  0  0  0  0  0  0  0  0
   -5.4802   -4.2439    1.2180 H   0  0  0  0  0  0  0  0  0  0  0  0
   -0.5416    4.3852   -1.3902 H   0  0  0  0  0  0  0  0  0  0  0  0
    0.1684   -1.2395    1.9073 H   0  0  0  0  0  0  0  0  0  0  0  0
    0.3532   -1.8615    4.3158 H   0  0  0  0  0  0  0  0  0  0  0  0
    2.5191   -1.5424    5.5391 H   0  0  0  0  0  0  0  0  0  0  0  0
    4.5065   -0.5920    4.3447 H   0  0  0  0  0  0  0  0  0  0  0  0
    4.3328    0.0411    1.9293 H   0  0  0  0  0  0  0  0  0  0  0  0
    1.2064   -0.4048   -2.6935 H   0  0  0  0  0  0  0  0  0  0  0  0
    0.6801   -2.4406   -4.0874 H   0  0  0  0  0  0  0  0  0  0  0  0
    0.8430   -4.7274   -3.0726 H   0  0  0  0  0  0  0  0  0  0  0  0
    1.5597   -4.9909   -0.6865 H   0  0  0  0  0  0  0  0  0  0  0  0
    2.1045   -2.9791    0.6891 H   0  0  0  0  0  0  0  0  0  0  0  0
    2.8930    2.6992   -0.3289 H   0  0  0  0  0  0  0  0  0  0  0  0
    5.0900    3.6937   -1.0330 H   0  0  0  0  0  0  0  0  0  0  0  0
    6.9855    2.1955   -1.6971 H   0  0  0  0  0  0  0  0  0  0  0  0
    6.6941   -0.2931   -1.6550 H   0  0  0  0  0  0  0  0  0  0  0  0
    4.5059   -1.2858   -0.9455 H   0  0  0  0  0  0  0  0  0  0  0  0
   -4.7289    2.0573    0.5470 H   0  0  0  0  0  0  0  0  0  0  0  0
  1 24  1  0  0  0  0
  2 10  1  0  0  0  0
  4 15  1  0  0  0  0
  5  2  1  6  0  0  0
  5 12  1  0  0  0  0
  6  3  1  1  0  0  0
  6 22  1  0  0  0  0
  6  8  1  0  0  0  0
  7  8  1  0  0  0  0
  7 17  1  0  0  0  0
  8 60  1  1  0  0  0
  8  5  1  0  0  0  0
  9  1  1  0  0  0  0
 10  9  1  6  0  0  0
 10 11  1  0  0  0  0
 11 12  1  0  0  0  0
 11 42  1  0  0  0  0
 12 13  1  6  0  0  0
 14 16  1  0  0  0  0
 15 14  1  0  0  0  0
 16 43  1  0  0  0  0
 17 18  1  0  0  0  0
 18 16  2  0  0  0  0
 19  9  2  0  0  0  0
 20  3  1  0  0  0  0
 20 21  1  0  0  0  0
 20 19  1  1  0  0  0
 21 44  1  0  0  0  0
 21 22  1  0  0  0  0
 22 23  1  1  0  0  0
 23 13  2  0  0  0  0
 24 25  2  0  0  0  0
 24 29  1  0  0  0  0
 25 26  1  0  0  0  0
 26 46  1  0  0  0  0
 26 27  2  0  0  0  0
 27 47  1  0  0  0  0
 28 48  1  0  0  0  0
 28 27  1  0  0  0  0
 29 28  2  0  0  0  0
 30 35  1  0  0  0  0
 30  1  1  0  0  0  0
 31 30  2  0  0  0  0
 32 33  2  0  0  0  0
 32 31  1  0  0  0  0
 33 34  1  0  0  0  0
 34 53  1  0  0  0  0
 34 35  2  0  0  0  0
 35 54  1  0  0  0  0
 36  1  1  0  0  0  0
 37 36  1  0  0  0  0
 37 55  1  0  0  0  0
 38 37  2  0  0  0  0
 39 40  2  0  0  0  0
 39 38  1  0  0  0  0
 40 41  1  0  0  0  0
 41 59  1  0  0  0  0
 41 36  2  0  0  0  0
 45 25  1  0  0  0  0
 49 29  1  0  0  0  0
 50 31  1  0  0  0  0
 51 32  1  0  0  0  0
 52 33  1  0  0  0  0
 56 38  1  0  0  0  0
 57 39  1  0  0  0  0
 58 40  1  0  0  0  0
M  END
