2,3,4,5
q = -1.0

 36 36  0  0  0  0  0  0  0  0999 V2000
    2.8159   -1.2809    1.2671 O   0  0  0  0  0  0  0  0  0  0  0  0
    1.3279   -1.3564   -0.5045 N   0  0  0  0  0  2  0  0  0  0  0  0
   -1.2482   -1.5884    0.1335 N   0  0  0  0  0  0  0  0  0  0  0  0
   -1.4561    1.3917    0.5119 N   0  0  0  0  0  0  0  0  0  0  0  0
    1.1710    1.8376   -0.3564 N   0  0  0  0  0  0  0  0  0  0  0  0
    0.8689   -2.7075   -0.1310 C   0  0  0  0  0  0  0  0  0  0  0  0
   -0.6194   -2.8172   -0.4250 C   0  0  0  0  0  0  0  0  0  0  0  0
   -2.7187   -1.4866    0.0011 C   0  0  0  0  0  0  0  0  0  0  0  0
   -3.2963   -0.2947    0.7711 C   0  0  0  0  0  0  0  0  0  0  0  0
   -2.9018    1.1092    0.3038 C   0  0  0  0  0  0  0  0  0  0  0  0
   -1.0404    2.7915    0.2258 C   0  0  0  0  0  0  0  0  0  0  0  0
    0.4651    2.8930    0.4307 C   0  0  0  0  0  0  0  0  0  0  0  0
    2.5847    1.6273    0.0856 C   0  0  0  0  0  0  0  0  0  0  0  0
    3.1269    0.3283   -0.4952 C   0  0  0  0  0  0  0  0  0  0  0  0
    2.4285   -0.8689    0.1508 C   0  0  0  0  0  0  0  0  0  0  0  0
   -0.9834   -1.5421    1.1414 H   0  0  0  0  0  0  0  0  0  0  0  0
   -1.2264    1.1886    1.5012 H   0  0  0  0  0  0  0  0  0  0  0  0
    1.2027    2.1367   -1.3436 H   0  0  0  0  0  0  0  0  0  0  0  0
    1.4289   -3.4678   -0.7154 H   0  0  0  0  0  0  0  0  0  0  0  0
    1.0744   -2.9166    0.9421 H   0  0  0  0  0  0  0  0  0  0  0  0
   -1.0619   -3.7308    0.0274 H   0  0  0  0  0  0  0  0  0  0  0  0
   -0.8205   -2.8310   -1.5146 H   0  0  0  0  0  0  0  0  0  0  0  0
   -3.1855   -2.4215    0.3823 H   0  0  0  0  0  0  0  0  0  0  0  0
   -2.9565   -1.4143   -1.0797 H   0  0  0  0  0  0  0  0  0  0  0  0
   -4.4010   -0.3618    0.7060 H   0  0  0  0  0  0  0  0  0  0  0  0
   -3.0642   -0.4036    1.8554 H   0  0  0  0  0  0  0  0  0  0  0  0
   -3.5050    1.8619    0.8579 H   0  0  0  0  0  0  0  0  0  0  0  0
   -3.1105    1.2406   -0.7770 H   0  0  0  0  0  0  0  0  0  0  0  0
   -1.3221    3.0152   -0.8233 H   0  0  0  0  0  0  0  0  0  0  0  0
   -1.5710    3.5174    0.8804 H   0  0  0  0  0  0  0  0  0  0  0  0
    0.8337    3.9080    0.1727 H   0  0  0  0  0  0  0  0  0  0  0  0
    0.7125    2.7194    1.4988 H   0  0  0  0  0  0  0  0  0  0  0  0
    3.2017    2.5083   -0.1942 H   0  0  0  0  0  0  0  0  0  0  0  0
    2.5811    1.5598    1.1926 H   0  0  0  0  0  0  0  0  0  0  0  0
    4.2035    0.2503   -0.2473 H   0  0  0  0  0  0  0  0  0  0  0  0
    3.0139    0.3090   -1.5979 H   0  0  0  0  0  0  0  0  0  0  0  0
  2  6  1  0  0  0  0
  2 15  1  0  0  0  0
  3 16  1  0  0  0  0
  4 17  1  0  0  0  0
  5 13  1  0  0  0  0
  5 12  1  0  0  0  0
  6 20  1  0  0  0  0
  7  6  1  0  0  0  0
  7 21  1  0  0  0  0
  7  3  1  0  0  0  0
  8  3  1  0  0  0  0
  8 23  1  0  0  0  0
  8  9  1  0  0  0  0
  9 26  1  0  0  0  0
 10  4  1  0  0  0  0
 10  9  1  0  0  0  0
 10 27  1  0  0  0  0
 11 12  1  0  0  0  0
 11  4  1  0  0  0  0
 11 30  1  0  0  0  0
 12 32  1  0  0  0  0
 13 34  1  0  0  0  0
 14 35  1  0  0  0  0
 14 13  1  0  0  0  0
 14 15  1  0  0  0  0
 15  1  2  0  0  0  0
 18  5  1  0  0  0  0
 19  6  1  0  0  0  0
 22  7  1  0  0  0  0
 24  8  1  0  0  0  0
 25  9  1  0  0  0  0
 28 10  1  0  0  0  0
 29 11  1  0  0  0  0
 31 12  1  0  0  0  0
 33 13  1  0  0  0  0
 36 14  1  0  0  0  0
M  END
