1,15,24,33
q = 0.0, confidence = 0.91

 44 47  0  0  1  0  0  0  0  0999 V2000
    1.7830   -1.1319    0.1578 N   0  0  0  0  0  2  0  0  0  0  0  0
    2.0252   -2.4153    0.5938 C   0  0  2  0  0  3  0  0  0  0  0  0
    0.9171   -3.1576    1.2924 C   0  0  0  0  0  0  0  0  0  0  0  0
    1.1556   -3.2164    2.3758 H   0  0  0  0  0  0  0  0  0  0  0  0
    0.8138   -4.1953    0.9213 H   0  0  0  0  0  0  0  0  0  0  0  0
   -0.0498   -2.6339    1.2005 H   0  0  0  0  0  0  0  0  0  0  0  0
    3.2965   -2.9803    0.4967 C   0  0  0  0  0  0  0  0  0  0  0  0
    3.4382   -4.0171    0.8349 H   0  0  0  0  0  0  0  0  0  0  0  0
    4.3938   -2.2184    0.0245 C   0  0  0  0  0  0  0  0  0  0  0  0
    5.3907   -2.6700   -0.0776 H   0  0  0  0  0  0  0  0  0  0  0  0
    4.1912   -0.8687   -0.2359 C   0  0  0  0  0  0  0  0  0  0  0  0
    5.0296   -0.2152   -0.5159 H   0  0  0  0  0  0  0  0  0  0  0  0
    2.9013   -0.3096   -0.1235 C   0  0  0  0  0  0  0  0  0  0  0  0
    2.6151    1.1034   -0.2093 C   0  0  1  0  0  3  0  0  0  0  0  0
    1.2677    1.3786   -0.0812 N   0  0  0  0  0  2  0  0  0  0  0  0
    0.7273    2.6622   -0.0539 C   0  0  0  0  0  0  0  0  0  0  0  0
    1.6027    3.7431   -0.1578 C   0  0  0  0  0  0  0  0  0  0  0  0
    1.2101    4.7695   -0.1396 H   0  0  0  0  0  0  0  0  0  0  0  0
    2.9901    3.5034   -0.3052 C   0  0  0  0  0  0  0  0  0  0  0  0
    3.6815    4.3534   -0.3903 H   0  0  0  0  0  0  0  0  0  0  0  0
    3.4941    2.1904   -0.3392 C   0  0  0  0  0  0  0  0  0  0  0  0
    4.5731    2.0139   -0.4522 H   0  0  0  0  0  0  0  0  0  0  0  0
   -0.7277    2.6621    0.0540 C   0  0  1  0  0  3  0  0  0  0  0  0
   -1.2680    1.3784    0.0815 N   0  0  0  0  0  2  0  0  0  0  0  0
   -2.6153    1.1030    0.2092 C   0  0  0  0  0  0  0  0  0  0  0  0
   -3.4946    2.1898    0.3389 C   0  0  0  0  0  0  0  0  0  0  0  0
   -4.5736    2.0131    0.4516 H   0  0  0  0  0  0  0  0  0  0  0  0
   -2.9907    3.5029    0.3049 C   0  0  0  0  0  0  0  0  0  0  0  0
   -3.6823    4.3528    0.3898 H   0  0  0  0  0  0  0  0  0  0  0  0
   -1.6033    3.7428    0.1577 C   0  0  0  0  0  0  0  0  0  0  0  0
   -1.2110    4.7693    0.1394 H   0  0  0  0  0  0  0  0  0  0  0  0
   -2.9013   -0.3100    0.1233 C   0  0  2  0  0  3  0  0  0  0  0  0
   -1.7828   -1.1322   -0.1577 N   0  0  0  0  0  2  0  0  0  0  0  0
   -2.0248   -2.4157   -0.5938 C   0  0  0  0  0  0  0  0  0  0  0  0
   -0.9161   -3.1584   -1.2912 C   0  0  0  0  0  0  0  0  0  0  0  0
    0.0499   -2.6326   -1.2019 H   0  0  0  0  0  0  0  0  0  0  0  0
   -1.1557   -3.2214   -2.3741 H   0  0  0  0  0  0  0  0  0  0  0  0
   -0.8104   -4.1946   -0.9167 H   0  0  0  0  0  0  0  0  0  0  0  0
   -3.2961   -2.9806   -0.4976 C   0  0  0  0  0  0  0  0  0  0  0  0
   -3.4376   -4.0174   -0.8360 H   0  0  0  0  0  0  0  0  0  0  0  0
   -4.3936   -2.2188   -0.0258 C   0  0  0  0  0  0  0  0  0  0  0  0
   -5.3906   -2.6705    0.0757 H   0  0  0  0  0  0  0  0  0  0  0  0
   -4.1912   -0.8693    0.2350 C   0  0  0  0  0  0  0  0  0  0  0  0
   -5.0297   -0.2158    0.5148 H   0  0  0  0  0  0  0  0  0  0  0  0
  1  2  1  0  0  0  0
  2  3  1  1  0  0  0
  3  4  1  0  0  0  0
  5  3  1  0  0  0  0
  6  3  1  0  0  0  0
  7  2  1  0  0  0  0
  7  8  1  0  0  0  0
  9  7  2  0  0  0  0
 10  9  1  0  0  0  0
 11 13  2  0  0  0  0
 11  9  1  0  0  0  0
 12 11  1  0  0  0  0
 13  1  1  0  0  0  0
 14 13  1  1  0  0  0
 14 15  1  0  0  0  0
 15 16  1  0  0  0  0
 17 18  1  0  0  0  0
 17 16  2  0  0  0  0
 19 17  1  0  0  0  0
 20 19  1  0  0  0  0
 21 19  2  0  0  0  0
 21 14  1  0  0  0  0
 22 21  1  0  0  0  0
 23 16  1  1  0  0  0
 23 24  1  0  0  0  0
 23 30  1  0  0  0  0
 24 25  1  0  0  0  0
 25 26  2  0  0  0  0
 26 27  1  0  0  0  0
 28 26  1  0  0  0  0
 28 29  1  0  0  0  0
 30 28  2  0  0  0  0
 31 30  1  0  0  0  0
 32 25  1  6  0  0  0
 32 43  1  0  0  0  0
 33 32  1  0  0  0  0
 34 39  2  0  0  0  0
 34 33  1  0  0  0  0
 35 36  1  0  0  0  0
 35 38  1  0  0  0  0
 35 34  1  0  0  0  0
 37 35  1  0  0  0  0
 39 41  1  0  0  0  0
 40 39  1  0  0  0  0
 41 42  1  0  0  0  0
 41 43  2  0  0  0  0
 43 44  1  0  0  0  0
M  END
