7,8,14,21
q = 0.0, confidence = 1.0

 48 50  0  0  1  0  0  0  0  0999 V2000
   -1.0594    1.6499   -1.9555 C   0  0  0  0  0  0  0  0  0  0  0  0
    0.3390    1.1345   -2.3230 C   0  0  0  0  0  0  0  0  0  0  0  0
    1.5451    1.5947   -1.4905 C   0  0  0  0  0  0  0  0  0  0  0  0
    1.1522    2.6640    0.7176 C   0  0  0  0  0  0  0  0  0  0  0  0
   -0.0468    3.4386    0.1883 C   0  0  0  0  0  0  0  0  0  0  0  0
   -1.3706    2.6919    0.2797 C   0  0  0  0  0  0  0  0  0  0  0  0
   -1.4218    1.4385   -0.5225 N   0  0  0  0  0  0  0  0  0  0  0  0
    1.4057    1.3807   -0.0027 N   0  0  0  0  0  0  0  0  0  0  0  0
   -2.7521    0.8050   -0.3305 C   0  0  0  0  0  0  0  0  0  0  0  0
   -2.5840   -0.6717   -0.1946 C   0  0  1  0  0  3  0  0  0  0  0  0
   -1.5899   -2.5271    0.4313 C   0  0  0  0  0  0  0  0  0  0  0  0
   -2.9240   -2.8226    0.2245 C   0  0  0  0  0  0  0  0  0  0  0  0
   -4.9602   -1.4587   -0.4291 C   0  0  0  0  0  0  0  0  0  0  0  0
   -1.4007   -1.1901    0.1612 N   0  0  0  0  0  2  0  0  0  0  0  0
   -3.5390   -1.6440   -0.1692 N   0  0  0  0  0  0  0  0  0  0  0  0
    2.6100    0.7238    0.5939 C   0  0  0  0  0  0  0  0  0  0  0  0
    2.6075   -0.6708    0.0747 C   0  0  2  0  0  3  0  0  0  0  0  0
    1.6607   -2.4988   -0.6657 C   0  0  0  0  0  0  0  0  0  0  0  0
    3.0257   -2.7225   -0.6372 C   0  0  0  0  0  0  0  0  0  0  0  0
    5.0339   -1.3536    0.0824 C   0  0  0  0  0  0  0  0  0  0  0  0
    1.4167   -1.2177   -0.2139 N   0  0  0  0  0  2  0  0  0  0  0  0
    3.6142   -1.5553   -0.1746 N   0  0  0  0  0  0  0  0  0  0  0  0
   -1.7862    1.0995   -2.5853 H   0  0  0  0  0  0  0  0  0  0  0  0
   -1.1781    2.7252   -2.2136 H   0  0  0  0  0  0  0  0  0  0  0  0
    0.5412    1.4230   -3.3779 H   0  0  0  0  0  0  0  0  0  0  0  0
    0.3080    0.0273   -2.2917 H   0  0  0  0  0  0  0  0  0  0  0  0
    1.7857    2.6625   -1.6728 H   0  0  0  0  0  0  0  0  0  0  0  0
    2.4209    1.0098   -1.8341 H   0  0  0  0  0  0  0  0  0  0  0  0
    0.9786    2.3853    1.7772 H   0  0  0  0  0  0  0  0  0  0  0  0
    2.0696    3.2899    0.6361 H   0  0  0  0  0  0  0  0  0  0  0  0
    0.1344    3.8152   -0.8405 H   0  0  0  0  0  0  0  0  0  0  0  0
   -0.1440    4.3496    0.8129 H   0  0  0  0  0  0  0  0  0  0  0  0
   -2.1971    3.3678   -0.0432 H   0  0  0  0  0  0  0  0  0  0  0  0
   -1.5334    2.3802    1.3331 H   0  0  0  0  0  0  0  0  0  0  0  0
   -3.4705    1.0916   -1.1314 H   0  0  0  0  0  0  0  0  0  0  0  0
   -3.1687    1.1870    0.6263 H   0  0  0  0  0  0  0  0  0  0  0  0
   -0.7799   -3.1741    0.7793 H   0  0  0  0  0  0  0  0  0  0  0  0
   -3.4818   -3.7591    0.3211 H   0  0  0  0  0  0  0  0  0  0  0  0
   -5.4521   -0.9373    0.4167 H   0  0  0  0  0  0  0  0  0  0  0  0
   -5.1096   -0.8718   -1.3554 H   0  0  0  0  0  0  0  0  0  0  0  0
   -5.4352   -2.4469   -0.5618 H   0  0  0  0  0  0  0  0  0  0  0  0
    2.4391    0.7229    1.6936 H   0  0  0  0  0  0  0  0  0  0  0  0
    3.5415    1.2891    0.3689 H   0  0  0  0  0  0  0  0  0  0  0  0
    0.8615   -3.1685   -0.9978 H   0  0  0  0  0  0  0  0  0  0  0  0
    3.6229   -3.5985   -0.9090 H   0  0  0  0  0  0  0  0  0  0  0  0
    5.3148   -0.3081   -0.1445 H   0  0  0  0  0  0  0  0  0  0  0  0
    5.2817   -1.5727    1.1404 H   0  0  0  0  0  0  0  0  0  0  0  0
    5.6214   -2.0230   -0.5714 H   0  0  0  0  0  0  0  0  0  0  0  0
  1  7  1  0  0  0  0
  2 26  1  0  0  0  0
  2  1  1  0  0  0  0
  2  3  1  0  0  0  0
  3  8  1  0  0  0  0
  4 29  1  0  0  0  0
  5  6  1  0  0  0  0
  5  4  1  0  0  0  0
  5 32  1  0  0  0  0
  6 34  1  0  0  0  0
  7  9  1  0  0  0  0
  7  6  1  0  0  0  0
  8 16  1  0  0  0  0
  8  4  1  0  0  0  0
  9 36  1  0  0  0  0
 10  9  1  1  0  0  0
 10 15  1  0  0  0  0
 10 14  1  0  0  0  0
 11 37  1  0  0  0  0
 12 38  1  0  0  0  0
 12 11  2  0  0  0  0
 13 15  1  0  0  0  0
 13 39  1  0  0  0  0
 14 11  1  0  0  0  0
 15 12  1  0  0  0  0
 16 42  1  0  0  0  0
 17 16  1  1  0  0  0
 18 19  2  0  0  0  0
 18 21  1  0  0  0  0
 19 22  1  0  0  0  0
 20 47  1  0  0  0  0
 21 17  1  0  0  0  0
 22 17  1  0  0  0  0
 22 20  1  0  0  0  0
 23  1  1  0  0  0  0
 24  1  1  0  0  0  0
 25  2  1  0  0  0  0
 27  3  1  0  0  0  0
 28  3  1  0  0  0  0
 30  4  1  0  0  0  0
 31  5  1  0  0  0  0
 33  6  1  0  0  0  0
 35  9  1  0  0  0  0
 40 13  1  0  0  0  0
 41 13  1  0  0  0  0
 43 16  1  0  0  0  0
 44 18  1  0  0  0  0
 45 19  1  0  0  0  0
 46 20  1  0  0  0  0
 48 20  1  0  0  0  0
M  END
