1,5,9,16
q = -1.0, confidence = 0.074

 59 60  0  0  0  0  0  0  0  0999 V2000
   -2.3841    1.6477   -0.2287 N   0  0  0  0  0  0  0  0  0  0  0  0
   -2.8489    2.1824    1.0874 C   0  0  0  0  0  0  0  0  0  0  0  0
   -3.4365    1.1732    2.0831 C   0  0  0  0  0  0  0  0  0  0  0  0
   -2.4777    0.1611    2.7271 C   0  0  0  0  0  0  0  0  0  0  0  0
   -1.9846   -0.8853    1.7942 N   0  0  0  0  0  0  0  0  0  0  0  0
   -3.0297   -1.8492    1.3715 C   0  0  0  0  0  0  0  0  0  0  0  0
   -2.5355   -3.0306    0.5273 C   0  0  0  0  0  0  0  0  0  0  0  0
   -1.6043   -2.7568   -0.6760 C   0  0  0  0  0  0  0  0  0  0  0  0
   -1.7133   -1.3999   -1.2720 N   0  0  0  0  0  0  0  0  0  0  0  0
   -2.9652   -1.1314   -2.0136 C   0  0  0  0  0  0  0  0  0  0  0  0
   -3.1985    0.3564   -2.2939 C   0  0  0  0  0  0  0  0  0  0  0  0
   -3.5409    1.2414   -1.0836 C   0  0  0  0  0  0  0  0  0  0  0  0
   -1.5969    2.7092   -0.9451 C   0  0  0  0  0  0  0  0  0  0  0  0
   -0.1771    2.9925   -0.4429 C   0  0  0  0  0  0  0  0  0  0  0  0
    0.8728    1.9260   -0.7683 C   0  0  0  0  0  0  0  0  0  0  0  0
    0.6458    0.7421    0.0626 N   0  0  0  0  0  2  0  0  0  0  0  0
    1.4555   -0.6395   -0.3342 S   0  0  0  0  0  0  0  0  0  0  0  0
    3.1902   -0.3386   -0.0769 C   0  0  0  0  0  0  0  0  0  0  0  0
    4.0723   -0.4134   -1.1633 C   0  0  0  0  0  0  0  0  0  0  0  0
    5.4346   -0.1673   -0.9432 C   0  0  0  0  0  0  0  0  0  0  0  0
    5.9240    0.1496    0.3405 C   0  0  0  0  0  0  0  0  0  0  0  0
    5.0035    0.2181    1.4127 C   0  0  0  0  0  0  0  0  0  0  0  0
    3.6415   -0.0251    1.2172 C   0  0  0  0  0  0  0  0  0  0  0  0
    0.9525   -1.6236    0.6856 O   0  0  0  0  0  0  0  0  0  0  0  0
    1.2600   -1.0127   -1.7756 O   0  0  0  0  0  0  0  0  0  0  0  0
    7.3906    0.3902    0.5788 C   0  0  0  0  0  0  0  0  0  0  0  0
   -1.9754    2.6780    1.5562 H   0  0  0  0  0  0  0  0  0  0  0  0
   -3.6011    2.9827    0.8946 H   0  0  0  0  0  0  0  0  0  0  0  0
   -3.8562    1.7787    2.9124 H   0  0  0  0  0  0  0  0  0  0  0  0
   -4.3186    0.6537    1.6533 H   0  0  0  0  0  0  0  0  0  0  0  0
   -1.5858    0.6884    3.1249 H   0  0  0  0  0  0  0  0  0  0  0  0
   -2.9901   -0.3177    3.5916 H   0  0  0  0  0  0  0  0  0  0  0  0
   -1.1993   -1.3953    2.2296 H   0  0  0  0  0  0  0  0  0  0  0  0
   -3.7885   -1.2737    0.8042 H   0  0  0  0  0  0  0  0  0  0  0  0
   -3.5576   -2.2491    2.2666 H   0  0  0  0  0  0  0  0  0  0  0  0
   -2.0082   -3.7543    1.1834 H   0  0  0  0  0  0  0  0  0  0  0  0
   -3.4537   -3.5586    0.1965 H   0  0  0  0  0  0  0  0  0  0  0  0
   -0.5487   -2.8438   -0.3565 H   0  0  0  0  0  0  0  0  0  0  0  0
   -1.7832   -3.5299   -1.4549 H   0  0  0  0  0  0  0  0  0  0  0  0
   -0.8925   -1.2983   -1.9023 H   0  0  0  0  0  0  0  0  0  0  0  0
   -2.9696   -1.6985   -2.9706 H   0  0  0  0  0  0  0  0  0  0  0  0
   -3.8112   -1.5307   -1.4163 H   0  0  0  0  0  0  0  0  0  0  0  0
   -4.0552    0.4279   -2.9947 H   0  0  0  0  0  0  0  0  0  0  0  0
   -2.3356    0.7726   -2.8573 H   0  0  0  0  0  0  0  0  0  0  0  0
   -4.2678    0.7064   -0.4401 H   0  0  0  0  0  0  0  0  0  0  0  0
   -4.0555    2.1669   -1.4311 H   0  0  0  0  0  0  0  0  0  0  0  0
   -1.5325    2.4052   -2.0084 H   0  0  0  0  0  0  0  0  0  0  0  0
   -2.2037    3.6440   -0.9212 H   0  0  0  0  0  0  0  0  0  0  0  0
   -0.1657    3.1936    0.6498 H   0  0  0  0  0  0  0  0  0  0  0  0
    0.1312    3.9438   -0.9233 H   0  0  0  0  0  0  0  0  0  0  0  0
    1.8842    2.3464   -0.5663 H   0  0  0  0  0  0  0  0  0  0  0  0
    0.8392    1.6903   -1.8606 H   0  0  0  0  0  0  0  0  0  0  0  0
    3.6840   -0.6668   -2.1599 H   0  0  0  0  0  0  0  0  0  0  0  0
    6.1359   -0.2244   -1.7898 H   0  0  0  0  0  0  0  0  0  0  0  0
    5.3685    0.4645    2.4219 H   0  0  0  0  0  0  0  0  0  0  0  0
    2.9298    0.0244    2.0538 H   0  0  0  0  0  0  0  0  0  0  0  0
    7.9462    0.5195   -0.3691 H   0  0  0  0  0  0  0  0  0  0  0  0
    7.5568    1.2883    1.2069 H   0  0  0  0  0  0  0  0  0  0  0  0
    7.8447   -0.4672    1.1196 H   0  0  0  0  0  0  0  0  0  0  0  0
  1  2  1  0  0  0  0
  2 27  1  0  0  0  0
  2  3  1  0  0  0  0
  3  4  1  0  0  0  0
  3 29  1  0  0  0  0
  4 31  1  0  0  0  0
  4 32  1  0  0  0  0
  5 33  1  0  0  0  0
  5  4  1  0  0  0  0
  6  5  1  0  0  0  0
  6 35  1  0  0  0  0
  7 36  1  0  0  0  0
  7  6  1  0  0  0  0
  8 38  1  0  0  0  0
  8  7  1  0  0  0  0
  9  8  1  0  0  0  0
 10 42  1  0  0  0  0
 10  9  1  0  0  0  0
 11 10  1  0  0  0  0
 11 12  1  0  0  0  0
 12 45  1  0  0  0  0
 12  1  1  0  0  0  0
 13 48  1  0  0  0  0
 13 14  1  0  0  0  0
 13  1  1  0  0  0  0
 14 49  1  0  0  0  0
 15 51  1  0  0  0  0
 15 14  1  0  0  0  0
 15 16  1  0  0  0  0
 17 18  1  0  0  0  0
 17 16  1  0  0  0  0
 17 24  2  0  0  0  0
 18 23  1  0  0  0  0
 19 20  1  0  0  0  0
 19 18  2  0  0  0  0
 20 21  2  0  0  0  0
 21 26  1  0  0  0  0
 21 22  1  0  0  0  0
 22 55  1  0  0  0  0
 23 22  2  0  0  0  0
 23 56  1  0  0  0  0
 25 17  2  0  0  0  0
 26 59  1  0  0  0  0
 26 58  1  0  0  0  0
 28  2  1  0  0  0  0
 30  3  1  0  0  0  0
 34  6  1  0  0  0  0
 37  7  1  0  0  0  0
 39  8  1  0  0  0  0
 40  9  1  0  0  0  0
 41 10  1  0  0  0  0
 43 11  1  0  0  0  0
 44 11  1  0  0  0  0
 46 12  1  0  0  0  0
 47 13  1  0  0  0  0
 50 14  1  0  0  0  0
 52 15  1  0  0  0  0
 53 19  1  0  0  0  0
 54 20  1  0  0  0  0
 57 26  1  0  0  0  0
M  END
