2,4,6,7
q = 0.0, confidence = 0.984

 52 57  0  0  1  0  0  0  0  0999 V2000
   -3.7739   -1.4877    1.1959 N   0  0  0  0  0  0  0  0  0  0  0  0
   -2.0821   -0.7470   -0.0436 N   0  0  0  0  0  2  0  0  0  0  0  0
    3.5787   -1.7615    1.1739 N   0  0  0  0  0  0  0  0  0  0  0  0
    1.9409   -0.9240   -0.0763 N   0  0  0  0  0  2  0  0  0  0  0  0
    0.2281    2.1126    2.6700 N   0  0  0  0  0  0  0  0  0  0  0  0
    0.0577    1.0618    0.7148 N   0  0  0  0  0  2  0  0  0  0  0  0
   -0.0958   -1.5321    1.6764 N   0  0  0  0  0  0  0  0  0  0  0  0
   -1.3796   -2.3087    1.7207 C   0  0  0  0  0  0  0  0  0  0  0  0
   -2.4233   -1.5074    1.0020 C   0  0  2  0  0  3  0  0  0  0  0  0
   -4.3373   -0.6708    0.2164 C   0  0  0  0  0  0  0  0  0  0  0  0
   -5.6626   -0.2995   -0.0568 C   0  0  0  0  0  0  0  0  0  0  0  0
   -5.8562    0.5633   -1.1415 C   0  0  0  0  0  0  0  0  0  0  0  0
   -4.7726    1.0364   -1.9248 C   0  0  0  0  0  0  0  0  0  0  0  0
   -3.4519    0.6685   -1.6557 C   0  0  0  0  0  0  0  0  0  0  0  0
   -3.2440   -0.1966   -0.5666 C   0  0  0  0  0  0  0  0  0  0  0  0
    1.1332   -2.3911    1.7241 C   0  0  0  0  0  0  0  0  0  0  0  0
    2.2293   -1.6829    0.9858 C   0  0  1  0  0  3  0  0  0  0  0  0
    4.1965   -1.0108    0.1744 C   0  0  0  0  0  0  0  0  0  0  0  0
    5.5445   -0.7455   -0.1113 C   0  0  0  0  0  0  0  0  0  0  0  0
    5.7965    0.0775   -1.2148 C   0  0  0  0  0  0  0  0  0  0  0  0
    4.7473    0.6140   -2.0041 C   0  0  0  0  0  0  0  0  0  0  0  0
    3.4042    0.3513   -1.7228 C   0  0  0  0  0  0  0  0  0  0  0  0
    3.1379   -0.4728   -0.6149 C   0  0  0  0  0  0  0  0  0  0  0  0
   -0.0715   -0.4260    2.6934 C   0  0  0  0  0  0  0  0  0  0  0  0
    0.0823    0.9111    2.0384 C   0  0  2  0  0  3  0  0  0  0  0  0
    0.3041    3.1039    1.6928 C   0  0  0  0  0  0  0  0  0  0  0  0
    0.4554    4.4958    1.7755 C   0  0  0  0  0  0  0  0  0  0  0  0
    0.4967    5.1909    0.5614 C   0  0  0  0  0  0  0  0  0  0  0  0
    0.3914    4.5222   -0.6836 C   0  0  0  0  0  0  0  0  0  0  0  0
    0.2407    3.1351   -0.7671 C   0  0  0  0  0  0  0  0  0  0  0  0
    0.1972    2.4237    0.4454 C   0  0  0  0  0  0  0  0  0  0  0  0
   -4.2867   -2.0169    1.9017 H   0  0  0  0  0  0  0  0  0  0  0  0
    4.0542   -2.3127    1.8888 H   0  0  0  0  0  0  0  0  0  0  0  0
    0.2683    2.2637    3.6782 H   0  0  0  0  0  0  0  0  0  0  0  0
   -1.6700   -2.5777    2.7592 H   0  0  0  0  0  0  0  0  0  0  0  0
   -1.1997   -3.2312    1.1261 H   0  0  0  0  0  0  0  0  0  0  0  0
   -6.5067   -0.6670    0.5437 H   0  0  0  0  0  0  0  0  0  0  0  0
   -6.8787    0.8786   -1.3958 H   0  0  0  0  0  0  0  0  0  0  0  0
   -4.9815    1.7054   -2.7723 H   0  0  0  0  0  0  0  0  0  0  0  0
   -2.5964    1.0011   -2.2595 H   0  0  0  0  0  0  0  0  0  0  0  0
    0.8850   -3.3091    1.1476 H   0  0  0  0  0  0  0  0  0  0  0  0
    1.4117   -2.6639    2.7648 H   0  0  0  0  0  0  0  0  0  0  0  0
    6.3618   -1.1627    0.4938 H   0  0  0  0  0  0  0  0  0  0  0  0
    6.8383    0.3100   -1.4793 H   0  0  0  0  0  0  0  0  0  0  0  0
    5.0013    1.2478   -2.8662 H   0  0  0  0  0  0  0  0  0  0  0  0
    2.5723    0.7347   -2.3295 H   0  0  0  0  0  0  0  0  0  0  0  0
    0.7487   -0.6053    3.4213 H   0  0  0  0  0  0  0  0  0  0  0  0
   -1.0174   -0.4536    3.2756 H   0  0  0  0  0  0  0  0  0  0  0  0
    0.5372    5.0164    2.7402 H   0  0  0  0  0  0  0  0  0  0  0  0
    0.6138    6.2843    0.5760 H   0  0  0  0  0  0  0  0  0  0  0  0
    0.4290    5.1133   -1.6102 H   0  0  0  0  0  0  0  0  0  0  0  0
    0.1571    2.5913   -1.7182 H   0  0  0  0  0  0  0  0  0  0  0  0
  1 32  1  0  0  0  0
  2  9  1  0  0  0  0
  3 33  1  0  0  0  0
  4 17  1  0  0  0  0
  5 34  1  0  0  0  0
  6 25  1  0  0  0  0
  7  8  1  0  0  0  0
  7 16  1  0  0  0  0
  7 24  1  0  0  0  0
  8 35  1  0  0  0  0
  9  1  1  0  0  0  0
  9  8  1  6  0  0  0
 10  1  1  0  0  0  0
 11 10  1  0  0  0  0
 11 37  1  0  0  0  0
 12 11  2  0  0  0  0
 13 14  2  0  0  0  0
 13 12  1  0  0  0  0
 14 15  1  0  0  0  0
 15  2  1  0  0  0  0
 15 10  2  0  0  0  0
 16 42  1  0  0  0  0
 17  3  1  0  0  0  0
 17 16  1  6  0  0  0
 18  3  1  0  0  0  0
 19 18  1  0  0  0  0
 19 43  1  0  0  0  0
 20 19  2  0  0  0  0
 21 22  2  0  0  0  0
 21 20  1  0  0  0  0
 22 23  1  0  0  0  0
 23  4  1  0  0  0  0
 23 18  2  0  0  0  0
 24 48  1  0  0  0  0
 24 47  1  0  0  0  0
 25  5  1  0  0  0  0
 25 24  1  1  0  0  0
 26 27  1  0  0  0  0
 26  5  1  0  0  0  0
 27 49  1  0  0  0  0
 28 50  1  0  0  0  0
 28 27  2  0  0  0  0
 29 28  1  0  0  0  0
 30 29  2  0  0  0  0
 30 31  1  0  0  0  0
 31  6  1  0  0  0  0
 31 26  2  0  0  0  0
 36  8  1  0  0  0  0
 38 12  1  0  0  0  0
 39 13  1  0  0  0  0
 40 14  1  0  0  0  0
 41 16  1  0  0  0  0
 44 20  1  0  0  0  0
 45 21  1  0  0  0  0
 46 22  1  0  0  0  0
 51 29  1  0  0  0  0
 52 30  1  0  0  0  0
M  END
