3,4,5,6
q = -2.0, confidence = 0.906

 31 31  0  0  0  0  0  0  0  0999 V2000
    2.9202   -2.3052    0.0699 O   0  0  0  0  0  0  0  0  0  0  0  0
    2.7877    2.3958    0.3765 O   0  0  0  0  0  0  0  0  0  0  0  0
    0.8462   -1.3666   -0.1249 N   0  0  0  0  0  2  0  0  0  0  0  0
   -1.7537   -1.3772   -0.2366 N   0  0  0  0  0  0  0  0  0  0  0  0
   -1.7997    1.2791    0.2541 N   0  0  0  0  0  0  0  0  0  0  0  0
    0.7802    1.4088   -0.0726 N   0  0  0  0  0  2  0  0  0  0  0  0
    0.2505   -2.7009   -0.0722 C   0  0  0  0  0  0  0  0  0  0  0  0
   -1.1750   -2.5586    0.4550 C   0  0  0  0  0  0  0  0  0  0  0  0
   -3.0297   -0.7977    0.2371 C   0  0  0  0  0  0  0  0  0  0  0  0
   -3.0615    0.6687   -0.2107 C   0  0  0  0  0  0  0  0  0  0  0  0
   -1.3134    2.5613   -0.3125 C   0  0  0  0  0  0  0  0  0  0  0  0
    0.1281    2.6926    0.1738 C   0  0  0  0  0  0  0  0  0  0  0  0
    2.1377    1.3834    0.0744 C   0  0  0  0  0  0  0  0  0  0  0  0
    2.8462    0.0751   -0.2698 C   0  0  0  0  0  0  0  0  0  0  0  0
    2.2077   -1.2985   -0.0663 C   0  0  0  0  0  0  0  0  0  0  0  0
    0.2280   -3.1768   -1.0856 H   0  0  0  0  0  0  0  0  0  0  0  0
    0.8574   -3.3806    0.5629 H   0  0  0  0  0  0  0  0  0  0  0  0
   -1.1662   -2.3265    1.5395 H   0  0  0  0  0  0  0  0  0  0  0  0
   -1.7859   -3.4761    0.2935 H   0  0  0  0  0  0  0  0  0  0  0  0
   -3.9204   -1.3579   -0.1250 H   0  0  0  0  0  0  0  0  0  0  0  0
   -3.0349   -0.8556    1.3458 H   0  0  0  0  0  0  0  0  0  0  0  0
   -3.9659    1.1936    0.1726 H   0  0  0  0  0  0  0  0  0  0  0  0
   -3.0840    0.7348   -1.3182 H   0  0  0  0  0  0  0  0  0  0  0  0
   -1.3425    2.4672   -1.4171 H   0  0  0  0  0  0  0  0  0  0  0  0
   -1.9526    3.4209   -0.0087 H   0  0  0  0  0  0  0  0  0  0  0  0
    0.1382    2.9705    1.2588 H   0  0  0  0  0  0  0  0  0  0  0  0
    0.6621    3.5196   -0.3415 H   0  0  0  0  0  0  0  0  0  0  0  0
    3.0858    0.1356   -1.3560 H   0  0  0  0  0  0  0  0  0  0  0  0
    3.8250    0.0716    0.2446 H   0  0  0  0  0  0  0  0  0  0  0  0
   -1.8288   -1.5937   -1.2443 H   0  0  0  0  0  0  0  0  0  0  0  0
   -1.8351    1.3810    1.2826 H   0  0  0  0  0  0  0  0  0  0  0  0
  3  7  1  0  0  0  0
  3 15  1  0  0  0  0
  4  9  1  0  0  0  0
  4  8  1  0  0  0  0
  5 31  1  0  0  0  0
  6 13  1  0  0  0  0
  6 12  1  0  0  0  0
  7  8  1  0  0  0  0
  7 17  1  0  0  0  0
  8 18  1  0  0  0  0
  9 21  1  0  0  0  0
 10 22  1  0  0  0  0
 10  9  1  0  0  0  0
 10  5  1  0  0  0  0
 11 25  1  0  0  0  0
 11 12  1  0  0  0  0
 11  5  1  0  0  0  0
 12 26  1  0  0  0  0
 13  2  2  0  0  0  0
 14 15  1  0  0  0  0
 14 13  1  0  0  0  0
 14 29  1  0  0  0  0
 15  1  2  0  0  0  0
 16  7  1  0  0  0  0
 19  8  1  0  0  0  0
 20  9  1  0  0  0  0
 23 10  1  0  0  0  0
 24 11  1  0  0  0  0
 27 12  1  0  0  0  0
 28 14  1  0  0  0  0
 30  4  1  0  0  0  0
M  END
