1,4,7,10
q = 0.0, confidence = 0.926

 56 59  0  0  0  0  0  0  0  0999 V2000
   -0.5652   -2.1953    1.0105 N   0  0  0  0  0  0  0  0  0  0  0  0
   -1.7440   -2.6395    1.7880 C   0  0  0  0  0  0  0  0  0  0  0  0
   -2.4394   -1.4610    2.4826 C   0  0  0  0  0  0  0  0  0  0  0  0
   -2.8401   -0.4486    1.4928 N   0  0  0  0  0  0  0  0  0  0  0  0
   -4.2126   -0.5882    0.9715 C   0  0  0  0  0  0  0  0  0  0  0  0
   -4.4112    0.3147   -0.2480 C   0  0  0  0  0  0  0  0  0  0  0  0
   -3.3728    0.0528   -1.2531 N   0  0  0  0  0  0  0  0  0  0  0  0
   -3.5774   -1.0665   -2.1778 C   0  0  0  0  0  0  0  0  0  0  0  0
   -2.2310   -1.4504   -2.8073 C   0  0  0  0  0  0  0  0  0  0  0  0
   -1.2270   -1.7320   -1.7726 N   0  0  0  0  0  0  0  0  0  0  0  0
   -1.1562   -3.1035   -1.2700 C   0  0  0  0  0  0  0  0  0  0  0  0
   -0.2123   -3.1477   -0.0719 C   0  0  0  0  0  0  0  0  0  0  0  0
    0.5971    0.9180    2.5163 C   0  0  0  0  0  0  0  0  0  0  0  0
    0.5812    2.2774    2.7638 C   0  0  0  0  0  0  0  0  0  0  0  0
    1.5504    3.1342    2.1650 C   0  0  0  0  0  0  0  0  0  0  0  0
    2.5148    2.6090    1.3299 C   0  0  0  0  0  0  0  0  0  0  0  0
    2.5678    1.2033    1.0539 C   0  0  0  0  0  0  0  0  0  0  0  0
    4.7365   -1.0076   -0.8120 C   0  0  0  0  0  0  0  0  0  0  0  0
    4.9669   -2.3518   -1.0154 C   0  0  0  0  0  0  0  0  0  0  0  0
    4.1381   -3.3226   -0.3769 C   0  0  0  0  0  0  0  0  0  0  0  0
    3.0766   -2.9332    0.4183 C   0  0  0  0  0  0  0  0  0  0  0  0
    2.7752   -1.5464    0.6325 C   0  0  0  0  0  0  0  0  0  0  0  0
    1.6739   -1.0709    1.3948 C   0  0  0  0  0  0  0  0  0  0  0  0
    1.5837    0.3218    1.6656 C   0  0  0  0  0  0  0  0  0  0  0  0
    3.5336    0.7615    0.2275 N   0  0  0  0  0  0  0  0  0  0  0  0
    3.6628   -0.5615    0.0275 C   0  0  0  0  0  0  0  0  0  0  0  0
    0.6126   -2.0073    1.9247 C   0  0  0  0  0  0  0  0  0  0  0  0
   -1.4672   -3.4193    2.5340 H   0  0  0  0  0  0  0  0  0  0  0  0
   -2.4606   -3.1155    1.0873 H   0  0  0  0  0  0  0  0  0  0  0  0
   -1.7559   -0.9879    3.2143 H   0  0  0  0  0  0  0  0  0  0  0  0
   -3.3077   -1.8337    3.0675 H   0  0  0  0  0  0  0  0  0  0  0  0
   -2.6865    0.5241    1.8108 H   0  0  0  0  0  0  0  0  0  0  0  0
   -4.9724   -0.3455    1.7468 H   0  0  0  0  0  0  0  0  0  0  0  0
   -4.3691   -1.6538    0.6971 H   0  0  0  0  0  0  0  0  0  0  0  0
   -4.2936    1.3705    0.0662 H   0  0  0  0  0  0  0  0  0  0  0  0
   -5.4424    0.1845   -0.6459 H   0  0  0  0  0  0  0  0  0  0  0  0
   -3.1620    0.9134   -1.7723 H   0  0  0  0  0  0  0  0  0  0  0  0
   -4.3231   -0.8446   -2.9745 H   0  0  0  0  0  0  0  0  0  0  0  0
   -3.9816   -1.9251   -1.6002 H   0  0  0  0  0  0  0  0  0  0  0  0
   -2.3628   -2.3061   -3.5052 H   0  0  0  0  0  0  0  0  0  0  0  0
   -1.8527   -0.6001   -3.4122 H   0  0  0  0  0  0  0  0  0  0  0  0
   -0.2880   -1.3589   -2.0463 H   0  0  0  0  0  0  0  0  0  0  0  0
   -2.1797   -3.4421   -0.9989 H   0  0  0  0  0  0  0  0  0  0  0  0
   -0.7845   -3.8209   -2.0370 H   0  0  0  0  0  0  0  0  0  0  0  0
    0.7968   -2.8673   -0.4297 H   0  0  0  0  0  0  0  0  0  0  0  0
   -0.1416   -4.1874    0.3234 H   0  0  0  0  0  0  0  0  0  0  0  0
   -0.1574    0.2881    3.0052 H   0  0  0  0  0  0  0  0  0  0  0  0
   -0.1869    2.7039    3.4248 H   0  0  0  0  0  0  0  0  0  0  0  0
    1.5260    4.2137    2.3753 H   0  0  0  0  0  0  0  0  0  0  0  0
    3.2820    3.2377    0.8558 H   0  0  0  0  0  0  0  0  0  0  0  0
    5.3736   -0.2317   -1.2596 H   0  0  0  0  0  0  0  0  0  0  0  0
    5.8019   -2.6828   -1.6506 H   0  0  0  0  0  0  0  0  0  0  0  0
    4.3563   -4.3929   -0.5093 H   0  0  0  0  0  0  0  0  0  0  0  0
    2.4760   -3.7080    0.9154 H   0  0  0  0  0  0  0  0  0  0  0  0
    0.2272   -1.6155    2.8822 H   0  0  0  0  0  0  0  0  0  0  0  0
    1.0396   -3.0066    2.1603 H   0  0  0  0  0  0  0  0  0  0  0  0
  1  2  1  0  0  0  0
  1 27  1  0  0  0  0
  2  3  1  0  0  0  0
  2 28  1  0  0  0  0
  3 31  1  0  0  0  0
  3 30  1  0  0  0  0
  4 32  1  0  0  0  0
  4  3  1  0  0  0  0
  5  4  1  0  0  0  0
  5 33  1  0  0  0  0
  6 35  1  0  0  0  0
  6  5  1  0  0  0  0
  7  6  1  0  0  0  0
  8 39  1  0  0  0  0
  8  7  1  0  0  0  0
  9  8  1  0  0  0  0
  9 10  1  0  0  0  0
 10 11  1  0  0  0  0
 11 43  1  0  0  0  0
 11 12  1  0  0  0  0
 12 46  1  0  0  0  0
 12  1  1  0  0  0  0
 13 14  1  0  0  0  0
 13 47  1  0  0  0  0
 14 48  1  0  0  0  0
 15 49  1  0  0  0  0
 15 14  2  0  0  0  0
 16 15  1  0  0  0  0
 17 16  2  0  0  0  0
 17 24  1  0  0  0  0
 18 26  1  0  0  0  0
 19 18  2  0  0  0  0
 19 20  1  0  0  0  0
 20 21  2  0  0  0  0
 21 22  1  0  0  0  0
 21 54  1  0  0  0  0
 22 23  2  0  0  0  0
 23 24  1  0  0  0  0
 23 27  1  0  0  0  0
 24 13  2  0  0  0  0
 25 17  1  0  0  0  0
 26 25  2  0  0  0  0
 26 22  1  0  0  0  0
 27 56  1  0  0  0  0
 27 55  1  0  0  0  0
 29  2  1  0  0  0  0
 34  5  1  0  0  0  0
 36  6  1  0  0  0  0
 37  7  1  0  0  0  0
 38  8  1  0  0  0  0
 40  9  1  0  0  0  0
 41  9  1  0  0  0  0
 42 10  1  0  0  0  0
 44 11  1  0  0  0  0
 45 12  1  0  0  0  0
 50 16  1  0  0  0  0
 51 18  1  0  0  0  0
 52 19  1  0  0  0  0
 53 20  1  0  0  0  0
M  END
