1,2,3,4
q = -3.0, confidence = 0.436

 53 53  0  0  1  0  0  0  0  0999 V2000
   -0.3833   -0.8642   -0.4845 N   0  0  0  0  0  2  0  0  0  0  0  0
    0.3070    1.5341    0.0109 N   0  0  0  0  0  2  0  0  0  0  0  0
    3.0082    0.7955    0.1546 N   0  0  0  0  0  2  0  0  0  0  0  0
    2.3960   -1.5877   -0.4318 N   0  0  0  0  0  2  0  0  0  0  0  0
   -0.4987   -2.1523   -0.6950 O   0  0  0  0  0  1  0  0  0  0  0  0
   -1.3742   -0.0331   -0.7194 C   0  0  2  0  0  3  0  0  0  0  0  0
   -1.1151    1.4205   -0.3989 C   0  0  0  0  0  0  0  0  0  0  0  0
    0.8227    2.8937    0.0907 C   0  0  0  0  0  0  0  0  0  0  0  0
    2.1153    2.9794    0.8930 C   0  0  0  0  0  0  0  0  0  0  0  0
    3.2668    2.2249    0.2401 C   0  0  0  0  0  0  0  0  0  0  0  0
    4.1882   -0.0450   -0.1500 C   0  0  0  0  0  0  0  0  0  0  0  0
    3.6892   -1.4249   -0.5174 C   0  0  1  0  0  3  0  0  0  0  0  0
    1.8831   -2.7781   -0.7763 O   0  0  0  0  0  0  0  0  0  0  0  0
   -2.0431    1.8389    0.7706 C   0  0  0  0  0  0  0  0  0  0  0  0
   -1.4183    2.2792   -1.6489 C   0  0  0  0  0  0  0  0  0  0  0  0
    5.0864   -0.1709    1.1069 C   0  0  0  0  0  0  0  0  0  0  0  0
    4.9981    0.5140   -1.3438 C   0  0  0  0  0  0  0  0  0  0  0  0
    4.5610   -2.5555   -0.9458 C   0  0  0  0  0  0  0  0  0  0  0  0
   -2.6732   -0.5710   -1.2527 C   0  0  0  0  0  0  0  0  0  0  0  0
   -3.5815   -1.0165   -0.1799 N   0  0  0  0  0  0  0  0  0  0  0  0
   -4.8451   -0.5795    0.1839 C   0  0  0  0  0  0  0  0  0  0  0  0
   -5.3546   -1.2699    1.1919 N   0  0  0  0  0  0  0  0  0  0  0  0
   -4.4000   -2.1870    1.5124 C   0  0  0  0  0  0  0  0  0  0  0  0
   -3.2924   -2.0569    0.6736 C   0  0  0  0  0  0  0  0  0  0  0  0
   -5.5489    0.5250   -0.4378 N   0  0  0  0  0  0  0  0  0  0  0  0
   -6.7372    0.6534   -0.1791 O   0  0  0  0  0  0  0  0  0  0  0  0
   -4.8960    1.2806   -1.1872 O   0  0  0  0  0  0  0  0  0  0  0  0
    0.8101   -2.6147   -0.7248 H   0  0  0  0  0  0  0  0  0  0  0  0
    0.9981    3.3233   -0.9256 H   0  0  0  0  0  0  0  0  0  0  0  0
    0.0642    3.5510    0.5753 H   0  0  0  0  0  0  0  0  0  0  0  0
    1.9435    2.5845    1.9169 H   0  0  0  0  0  0  0  0  0  0  0  0
    2.4017    4.0470    0.9912 H   0  0  0  0  0  0  0  0  0  0  0  0
    4.1910    2.4052    0.8382 H   0  0  0  0  0  0  0  0  0  0  0  0
    3.4611    2.6681   -0.7673 H   0  0  0  0  0  0  0  0  0  0  0  0
   -1.8677    1.1906    1.6511 H   0  0  0  0  0  0  0  0  0  0  0  0
   -1.8424    2.8895    1.0607 H   0  0  0  0  0  0  0  0  0  0  0  0
   -3.1059    1.7771    0.4680 H   0  0  0  0  0  0  0  0  0  0  0  0
   -2.4725    2.1551   -1.9623 H   0  0  0  0  0  0  0  0  0  0  0  0
   -1.2759    3.3544   -1.4303 H   0  0  0  0  0  0  0  0  0  0  0  0
   -0.7511    1.9983   -2.4878 H   0  0  0  0  0  0  0  0  0  0  0  0
    4.4986   -0.5809    1.9512 H   0  0  0  0  0  0  0  0  0  0  0  0
    5.9610   -0.8262    0.9232 H   0  0  0  0  0  0  0  0  0  0  0  0
    5.4732    0.8251    1.4007 H   0  0  0  0  0  0  0  0  0  0  0  0
    5.4536    1.4895   -1.0879 H   0  0  0  0  0  0  0  0  0  0  0  0
    5.8232   -0.1697   -1.6223 H   0  0  0  0  0  0  0  0  0  0  0  0
    4.3412    0.6522   -2.2253 H   0  0  0  0  0  0  0  0  0  0  0  0
    4.3582   -3.4446   -0.3133 H   0  0  0  0  0  0  0  0  0  0  0  0
    4.2997   -2.8610   -1.9810 H   0  0  0  0  0  0  0  0  0  0  0  0
    5.6347   -2.3027   -0.8995 H   0  0  0  0  0  0  0  0  0  0  0  0
   -2.4322   -1.4572   -1.8729 H   0  0  0  0  0  0  0  0  0  0  0  0
   -3.2144    0.1842   -1.8428 H   0  0  0  0  0  0  0  0  0  0  0  0
   -4.5398   -2.9039    2.3310 H   0  0  0  0  0  0  0  0  0  0  0  0
   -2.3359   -2.5878    0.5825 H   0  0  0  0  0  0  0  0  0  0  0  0
  2  8  1  0  0  0  0
  3 10  1  0  0  0  0
  5  1  1  0  0  0  0
  6  1  1  1  0  0  0
  6  7  1  0  0  0  0
  7  2  1  0  0  0  0
  7 14  1  0  0  0  0
  8 30  1  0  0  0  0
  8  9  1  0  0  0  0
  9 32  1  0  0  0  0
  9 31  1  0  0  0  0
 10 33  1  0  0  0  0
 10  9  1  0  0  0  0
 11  3  1  0  0  0  0
 11 16  1  0  0  0  0
 12  4  1  1  0  0  0
 12 11  1  0  0  0  0
 13 28  1  0  0  0  0
 13  4  1  0  0  0  0
 14 36  1  0  0  0  0
 14 35  1  0  0  0  0
 15 39  1  0  0  0  0
 15  7  1  0  0  0  0
 16 43  1  0  0  0  0
 16 41  1  0  0  0  0
 17 44  1  0  0  0  0
 17 11  1  0  0  0  0
 18 49  1  0  0  0  0
 18 12  1  0  0  0  0
 18 47  1  0  0  0  0
 19  6  1  0  0  0  0
 19 20  1  0  0  0  0
 20 21  1  0  0  0  0
 20 24  1  0  0  0  0
 21 22  2  0  0  0  0
 22 23  1  0  0  0  0
 23 52  1  0  0  0  0
 24 23  2  0  0  0  0
 25 26  2  0  0  0  0
 25 21  1  0  0  0  0
 27 25  2  0  0  0  0
 29  8  1  0  0  0  0
 34 10  1  0  0  0  0
 37 14  1  0  0  0  0
 38 15  1  0  0  0  0
 40 15  1  0  0  0  0
 42 16  1  0  0  0  0
 45 17  1  0  0  0  0
 46 17  1  0  0  0  0
 48 18  1  0  0  0  0
 50 19  1  0  0  0  0
 51 19  1  0  0  0  0
 53 24  1  0  0  0  0
M  END
