1,2,3,4
q = -2.0, confidence = 0.882

 63 66  0  0  1  0  0  0  0  0999 V2000
    0.1984   -1.1730    0.0557 N   0  0  0  0  0  2  0  0  0  0  0  0
   -0.9745    1.0232    0.2344 N   0  0  0  0  0  2  0  0  0  0  0  0
   -3.4384   -0.1228    0.3312 N   0  0  0  0  0  2  0  0  0  0  0  0
   -2.1038   -2.6030    0.1237 N   0  0  0  0  0  2  0  0  0  0  0  0
    4.1992    0.5882    2.4408 N   0  0  0  0  0  0  0  0  0  0  0  0
    4.7252   -0.5269    2.3663 O   0  0  0  0  0  0  0  0  0  0  0  0
    4.7228    1.5762    2.9658 O   0  0  0  0  0  0  0  0  0  0  0  0
    0.9772   -0.1959    0.6916 C   0  0  0  0  0  0  0  0  0  0  0  0
    2.2598   -0.3514    1.2321 C   0  0  0  0  0  0  0  0  0  0  0  0
    2.8077   -1.2993    1.1924 H   0  0  0  0  0  0  0  0  0  0  0  0
    2.8580    0.7530    1.8592 C   0  0  0  0  0  0  0  0  0  0  0  0
    2.2124    1.9959    1.9707 C   0  0  0  0  0  0  0  0  0  0  0  0
    2.7242    2.8131    2.4942 H   0  0  0  0  0  0  0  0  0  0  0  0
    0.9299    2.1475    1.4352 C   0  0  0  0  0  0  0  0  0  0  0  0
    0.4029    3.1052    1.5329 H   0  0  0  0  0  0  0  0  0  0  0  0
    0.3044    1.0587    0.7909 C   0  0  0  0  0  0  0  0  0  0  0  0
   -1.5864    2.0783   -0.3473 C   0  0  1  0  0  3  0  0  0  0  0  0
   -0.8030    3.2741   -0.7802 C   0  0  0  0  0  0  0  0  0  0  0  0
    0.3822    3.1110   -1.5311 C   0  0  0  0  0  0  0  0  0  0  0  0
    0.7314    2.0956   -1.7700 H   0  0  0  0  0  0  0  0  0  0  0  0
    1.1016    4.2261   -1.9764 C   0  0  0  0  0  0  0  0  0  0  0  0
    2.0203    4.0831   -2.5652 H   0  0  0  0  0  0  0  0  0  0  0  0
    0.6537    5.5232   -1.6737 C   0  0  0  0  0  0  0  0  0  0  0  0
    1.2250    6.3989   -2.0171 H   0  0  0  0  0  0  0  0  0  0  0  0
   -0.5254    5.6967   -0.9327 C   0  0  0  0  0  0  0  0  0  0  0  0
   -0.8809    6.7097   -0.6901 H   0  0  0  0  0  0  0  0  0  0  0  0
   -1.2516    4.5797   -0.4927 C   0  0  0  0  0  0  0  0  0  0  0  0
   -2.1685    4.7125    0.1013 H   0  0  0  0  0  0  0  0  0  0  0  0
   -2.9558    2.0524   -0.6289 C   0  0  0  0  0  0  0  0  0  0  0  0
   -3.3814    2.9114   -1.1617 H   0  0  0  0  0  0  0  0  0  0  0  0
   -3.8464    1.0455   -0.1732 C   0  0  0  0  0  0  0  0  0  0  0  0
   -5.3229    1.3731   -0.2272 C   0  0  0  0  0  0  0  0  0  0  0  0
   -5.9113    0.5541   -0.6893 H   0  0  0  0  0  0  0  0  0  0  0  0
   -5.4952    2.2994   -0.8035 H   0  0  0  0  0  0  0  0  0  0  0  0
   -5.7395    1.5284    0.7909 H   0  0  0  0  0  0  0  0  0  0  0  0
   -4.4456   -0.9095    1.0413 C   0  0  0  0  0  0  0  0  0  0  0  0
   -5.2065   -1.3101    0.3286 H   0  0  0  0  0  0  0  0  0  0  0  0
   -5.0012   -0.2579    1.7516 H   0  0  0  0  0  0  0  0  0  0  0  0
   -3.8382   -2.0699    1.8055 C   0  0  0  0  0  0  0  0  0  0  0  0
   -3.0602   -1.7003    2.5078 H   0  0  0  0  0  0  0  0  0  0  0  0
   -4.6318   -2.5473    2.4169 H   0  0  0  0  0  0  0  0  0  0  0  0
   -3.2508   -3.1111    0.8729 C   0  0  0  0  0  0  0  0  0  0  0  0
   -2.9505   -4.0030    1.4671 H   0  0  0  0  0  0  0  0  0  0  0  0
   -4.0540   -3.4584    0.1785 H   0  0  0  0  0  0  0  0  0  0  0  0
   -1.3978   -3.5063   -0.5666 C   0  0  2  0  0  3  0  0  0  0  0  0
   -1.9520   -4.8998   -0.7714 C   0  0  0  0  0  0  0  0  0  0  0  0
   -2.9914   -4.8787   -1.1584 H   0  0  0  0  0  0  0  0  0  0  0  0
   -1.9792   -5.4674    0.1831 H   0  0  0  0  0  0  0  0  0  0  0  0
   -1.3232   -5.4676   -1.4799 H   0  0  0  0  0  0  0  0  0  0  0  0
   -0.1032   -3.2553   -1.0843 C   0  0  0  0  0  0  0  0  0  0  0  0
    0.3418   -4.0049   -1.7498 H   0  0  0  0  0  0  0  0  0  0  0  0
    0.6965   -2.1721   -0.6992 C   0  0  0  0  0  0  0  0  0  0  0  0
    2.1033   -2.1229   -1.1994 C   0  0  0  0  0  0  0  0  0  0  0  0
    2.5815   -0.9668   -1.8546 C   0  0  0  0  0  0  0  0  0  0  0  0
    1.9109   -0.1032   -1.9768 H   0  0  0  0  0  0  0  0  0  0  0  0
    3.8899   -0.9200   -2.3495 C   0  0  0  0  0  0  0  0  0  0  0  0
    4.2483   -0.0141   -2.8614 H   0  0  0  0  0  0  0  0  0  0  0  0
    4.7444   -2.0243   -2.1919 C   0  0  0  0  0  0  0  0  0  0  0  0
    5.7771   -1.9816   -2.5696 H   0  0  0  0  0  0  0  0  0  0  0  0
    4.2766   -3.1802   -1.5488 C   0  0  0  0  0  0  0  0  0  0  0  0
    4.9425   -4.0465   -1.4177 H   0  0  0  0  0  0  0  0  0  0  0  0
    2.9624   -3.2317   -1.0604 C   0  0  0  0  0  0  0  0  0  0  0  0
    2.5975   -4.1302   -0.5402 H   0  0  0  0  0  0  0  0  0  0  0  0
  1  8  1  0  0  0  0
  2 16  1  0  0  0  0
  3 36  1  0  0  0  0
  4 42  1  0  0  0  0
  5  7  2  0  0  0  0
  6  5  2  0  0  0  0
  8 16  2  0  0  0  0
  8  9  1  0  0  0  0
  9 11  2  0  0  0  0
 10  9  1  0  0  0  0
 11 12  1  0  0  0  0
 11  5  1  0  0  0  0
 12 13  1  0  0  0  0
 14 15  1  0  0  0  0
 14 12  2  0  0  0  0
 16 14  1  0  0  0  0
 17 18  1  6  0  0  0
 17  2  1  0  0  0  0
 18 27  1  0  0  0  0
 19 18  2  0  0  0  0
 20 19  1  0  0  0  0
 21 23  2  0  0  0  0
 21 19  1  0  0  0  0
 22 21  1  0  0  0  0
 23 25  1  0  0  0  0
 24 23  1  0  0  0  0
 25 26  1  0  0  0  0
 25 27  2  0  0  0  0
 27 28  1  0  0  0  0
 29 17  1  0  0  0  0
 29 31  2  0  0  0  0
 30 29  1  0  0  0  0
 31  3  1  0  0  0  0
 32 31  1  0  0  0  0
 32 35  1  0  0  0  0
 33 32  1  0  0  0  0
 34 32  1  0  0  0  0
 36 38  1  0  0  0  0
 36 39  1  0  0  0  0
 37 36  1  0  0  0  0
 39 41  1  0  0  0  0
 39 40  1  0  0  0  0
 42 43  1  0  0  0  0
 42 39  1  0  0  0  0
 44 42  1  0  0  0  0
 45 46  1  1  0  0  0
 45  4  1  0  0  0  0
 46 48  1  0  0  0  0
 47 46  1  0  0  0  0
 49 46  1  0  0  0  0
 50 52  2  0  0  0  0
 50 45  1  0  0  0  0
 51 50  1  0  0  0  0
 52  1  1  0  0  0  0
 53 62  1  0  0  0  0
 53 52  1  0  0  0  0
 54 53  2  0  0  0  0
 55 54  1  0  0  0  0
 56 58  2  0  0  0  0
 56 54  1  0  0  0  0
 57 56  1  0  0  0  0
 58 60  1  0  0  0  0
 59 58  1  0  0  0  0
 60 61  1  0  0  0  0
 60 62  2  0  0  0  0
 62 63  1  0  0  0  0
M  END
