1,18,27,44
q = 0.0, confidence = 0.986

 52 55  0  0  1  0  0  0  0  0999 V2000
   -1.3926   -1.1706   -0.3958 N   0  0  0  0  0  2  0  0  0  0  0  0
   -2.3978   -0.8959   -1.2705 N   0  0  0  0  0  0  0  0  0  0  0  0
   -3.4611   -1.7464   -1.1216 C   0  0  1  0  0  3  0  0  0  0  0  0
   -3.1067   -2.6190   -0.0965 C   0  0  0  0  0  0  0  0  0  0  0  0
   -3.7236   -3.4140    0.3332 H   0  0  0  0  0  0  0  0  0  0  0  0
   -1.8151   -2.2355    0.3356 C   0  0  0  0  0  0  0  0  0  0  0  0
   -2.2475    0.1785   -2.2224 C   0  0  0  0  0  0  0  0  0  0  0  0
   -3.1318    0.1779   -2.8822 H   0  0  0  0  0  0  0  0  0  0  0  0
   -1.3411   -0.0190   -2.8376 H   0  0  0  0  0  0  0  0  0  0  0  0
   -4.7042   -1.6590   -1.9429 C   0  0  0  0  0  0  0  0  0  0  0  0
   -5.2029   -0.6725   -1.8404 H   0  0  0  0  0  0  0  0  0  0  0  0
   -5.4208   -2.4292   -1.6044 H   0  0  0  0  0  0  0  0  0  0  0  0
   -4.5113   -1.8321   -3.0228 H   0  0  0  0  0  0  0  0  0  0  0  0
   -1.0439   -2.8954    1.4328 C   0  0  0  0  0  0  0  0  0  0  0  0
   -0.2721   -2.2295    1.8484 H   0  0  0  0  0  0  0  0  0  0  0  0
   -0.5459   -3.8176    1.0669 H   0  0  0  0  0  0  0  0  0  0  0  0
   -1.7441   -3.1884    2.2399 H   0  0  0  0  0  0  0  0  0  0  0  0
   -1.0575    1.6699   -0.6960 N   0  0  0  0  0  2  0  0  0  0  0  0
   -0.6106    2.9329   -0.3987 C   0  0  0  0  0  0  0  0  0  0  0  0
   -1.2715    4.0826   -0.8648 C   0  0  0  0  0  0  0  0  0  0  0  0
   -0.8999    5.0775   -0.5855 H   0  0  0  0  0  0  0  0  0  0  0  0
   -2.3885    3.9446   -1.6905 C   0  0  0  0  0  0  0  0  0  0  0  0
   -2.9368    4.8268   -2.0499 H   0  0  0  0  0  0  0  0  0  0  0  0
   -2.7588    2.6507   -2.0945 C   0  0  0  0  0  0  0  0  0  0  0  0
   -3.5795    2.4946   -2.8095 H   0  0  0  0  0  0  0  0  0  0  0  0
   -2.0560    1.5422   -1.6101 C   0  0  0  0  0  0  0  0  0  0  0  0
    1.3926   -1.1703    0.3966 N   0  0  0  0  0  2  0  0  0  0  0  0
    2.3981   -0.8948    1.2707 N   0  0  0  0  0  0  0  0  0  0  0  0
    3.4614   -1.7452    1.1220 C   0  0  1  0  0  3  0  0  0  0  0  0
    3.1068   -2.6186    0.0977 C   0  0  0  0  0  0  0  0  0  0  0  0
    3.7236   -3.4139   -0.3316 H   0  0  0  0  0  0  0  0  0  0  0  0
    1.8150   -2.2357   -0.3342 C   0  0  0  0  0  0  0  0  0  0  0  0
    2.2478    0.1800    2.2221 C   0  0  0  0  0  0  0  0  0  0  0  0
    3.1323    0.1800    2.8816 H   0  0  0  0  0  0  0  0  0  0  0  0
    1.3415   -0.0173    2.8376 H   0  0  0  0  0  0  0  0  0  0  0  0
    4.7047   -1.6571    1.9429 C   0  0  0  0  0  0  0  0  0  0  0  0
    5.2032   -0.6706    1.8397 H   0  0  0  0  0  0  0  0  0  0  0  0
    5.4214   -2.4274    1.6047 H   0  0  0  0  0  0  0  0  0  0  0  0
    4.5122   -1.8296    3.0230 H   0  0  0  0  0  0  0  0  0  0  0  0
    1.0434   -2.8967   -1.4305 C   0  0  0  0  0  0  0  0  0  0  0  0
    0.2720   -2.2309   -1.8470 H   0  0  0  0  0  0  0  0  0  0  0  0
    0.5448   -3.8180   -1.0633 H   0  0  0  0  0  0  0  0  0  0  0  0
    1.7435   -3.1911   -2.2371 H   0  0  0  0  0  0  0  0  0  0  0  0
    1.0575    1.6705    0.6950 N   0  0  0  0  0  2  0  0  0  0  0  0
    0.6102    2.9333    0.3972 C   0  0  0  0  0  0  0  0  0  0  0  0
    1.2708    4.0833    0.8627 C   0  0  0  0  0  0  0  0  0  0  0  0
    0.8988    5.0780    0.5831 H   0  0  0  0  0  0  0  0  0  0  0  0
    2.3878    3.9460    1.6885 C   0  0  0  0  0  0  0  0  0  0  0  0
    2.9358    4.8284    2.0476 H   0  0  0  0  0  0  0  0  0  0  0  0
    2.7585    2.6524    2.0931 C   0  0  0  0  0  0  0  0  0  0  0  0
    3.5792    2.4968    2.8082 H   0  0  0  0  0  0  0  0  0  0  0  0
    2.0559    1.5435    1.6091 C   0  0  0  0  0  0  0  0  0  0  0  0
  1  6  1  0  0  0  0
  2  3  1  0  0  0  0
  2  1  1  0  0  0  0
  3 10  1  1  0  0  0
  3  4  1  0  0  0  0
  4  5  1  0  0  0  0
  4  6  2  0  0  0  0
  6 14  1  0  0  0  0
  7 26  1  0  0  0  0
  7  2  1  0  0  0  0
  8  7  1  0  0  0  0
  9  7  1  0  0  0  0
 10 11  1  0  0  0  0
 10 12  1  0  0  0  0
 13 10  1  0  0  0  0
 14 15  1  0  0  0  0
 14 17  1  0  0  0  0
 16 14  1  0  0  0  0
 18 19  1  0  0  0  0
 19 45  2  0  0  0  0
 20 21  1  0  0  0  0
 20 19  1  0  0  0  0
 22 20  2  0  0  0  0
 23 22  1  0  0  0  0
 24 22  1  0  0  0  0
 24 26  2  0  0  0  0
 25 24  1  0  0  0  0
 26 18  1  0  0  0  0
 27 28  1  0  0  0  0
 28 33  1  0  0  0  0
 29 28  1  0  0  0  0
 29 36  1  6  0  0  0
 30 29  1  0  0  0  0
 31 30  1  0  0  0  0
 32 30  2  0  0  0  0
 32 27  1  0  0  0  0
 33 35  1  0  0  0  0
 33 34  1  0  0  0  0
 36 39  1  0  0  0  0
 37 36  1  0  0  0  0
 38 36  1  0  0  0  0
 40 42  1  0  0  0  0
 40 32  1  0  0  0  0
 41 40  1  0  0  0  0
 43 40  1  0  0  0  0
 44 52  1  0  0  0  0
 45 44  1  0  0  0  0
 45 46  1  0  0  0  0
 46 48  2  0  0  0  0
 47 46  1  0  0  0  0
 48 49  1  0  0  0  0
 48 50  1  0  0  0  0
 50 51  1  0  0  0  0
 52 50  2  0  0  0  0
 52 33  1  0  0  0  0
M  END
