2,3,5,7
q = -1.0

 46 47  0  0  1  0  0  0  0  0999 V2000
    0.8513   -3.5959   -1.4182 O   0  0  0  0  0  0  0  0  0  0  0  0
    1.6195   -0.6296    0.4021 N   0  0  0  0  0  2  0  0  0  0  0  0
   -2.1064   -0.0997    0.8181 N   0  0  0  0  0  2  0  0  0  0  0  0
    0.8940    1.8504    1.1365 N   0  0  0  0  0  0  0  0  0  0  0  0
   -0.3688   -1.6423   -1.0384 N   0  0  0  0  0  2  0  0  0  0  0  0
   -3.7753   -0.5952    2.1660 N   0  0  0  0  0  0  0  0  0  0  0  0
   -0.2391    1.6218   -1.5183 N   0  0  0  0  0  0  0  0  0  0  0  0
   -4.0624   -1.1992    0.9569 C   0  0  0  0  0  0  0  0  0  0  0  0
    0.7210   -2.4436   -0.9820 C   0  0  0  0  0  0  0  0  0  0  0  0
    3.1413   -2.3935   -0.1226 C   0  0  0  0  0  0  0  0  0  0  0  0
   -3.0126   -0.8902    0.1080 C   0  0  0  0  0  0  0  0  0  0  0  0
    0.6111    3.8966   -2.0963 C   0  0  0  0  0  0  0  0  0  0  0  0
   -1.1075    3.5415   -0.2775 C   0  0  0  0  0  0  0  0  0  0  0  0
    3.8309   -0.5256    1.2794 C   0  0  0  0  0  0  0  0  0  0  0  0
   -2.7874   -1.2925   -1.3193 C   0  0  0  0  0  0  0  0  0  0  0  0
    1.2831    2.7292    0.0234 C   0  0  0  0  0  0  0  0  0  0  0  0
    1.8774   -1.7957   -0.2265 C   0  0  2  0  0  3  0  0  0  0  0  0
    4.1262   -1.7404    0.6335 C   0  0  0  0  0  0  0  0  0  0  0  0
   -1.5881   -2.2350   -1.5434 C   0  0  0  0  0  0  0  0  0  0  0  0
    2.0394    1.2578    1.8468 C   0  0  0  0  0  0  0  0  0  0  0  0
    2.5389    0.0037    1.1449 C   0  0  0  0  0  0  0  0  0  0  0  0
    0.1305    2.9651   -0.9772 C   0  0  0  0  0  0  0  0  0  0  0  0
   -2.5919    0.0564    2.0519 C   0  0  0  0  0  3  0  0  0  0  0  0
   -4.9705   -1.7879    0.7968 H   0  0  0  0  0  0  0  0  0  0  0  0
    3.3072   -3.3509   -0.6365 H   0  0  0  0  0  0  0  0  0  0  0  0
    4.5892   -0.0039    1.8816 H   0  0  0  0  0  0  0  0  0  0  0  0
    5.1327   -2.1760    0.7255 H   0  0  0  0  0  0  0  0  0  0  0  0
   -2.1223    0.6131    2.8705 H   0  0  0  0  0  0  0  0  0  0  0  0
   -4.3566   -0.6322    3.0059 H   0  0  0  0  0  0  0  0  0  0  0  0
    1.5072    3.4857   -2.6059 H   0  0  0  0  0  0  0  0  0  0  0  0
   -0.1829    4.0419   -2.8559 H   0  0  0  0  0  0  0  0  0  0  0  0
    0.8792    4.8947   -1.6969 H   0  0  0  0  0  0  0  0  0  0  0  0
   -0.8607    4.4898    0.2385 H   0  0  0  0  0  0  0  0  0  0  0  0
   -1.9060    3.7648   -1.0140 H   0  0  0  0  0  0  0  0  0  0  0  0
   -1.5267    2.8277    0.4602 H   0  0  0  0  0  0  0  0  0  0  0  0
   -3.7102   -1.7704   -1.7022 H   0  0  0  0  0  0  0  0  0  0  0  0
   -2.6423   -0.3726   -1.9300 H   0  0  0  0  0  0  0  0  0  0  0  0
   -1.5166   -2.4677   -2.6316 H   0  0  0  0  0  0  0  0  0  0  0  0
   -1.7769   -3.2173   -1.0508 H   0  0  0  0  0  0  0  0  0  0  0  0
    2.8771    1.9779    1.9868 H   0  0  0  0  0  0  0  0  0  0  0  0
    1.6996    0.9713    2.8654 H   0  0  0  0  0  0  0  0  0  0  0  0
    1.6689    3.7117    0.3783 H   0  0  0  0  0  0  0  0  0  0  0  0
    2.1216    2.2383   -0.5156 H   0  0  0  0  0  0  0  0  0  0  0  0
    0.4530    1.3146   -2.2196 H   0  0  0  0  0  0  0  0  0  0  0  0
   -1.1324    1.6776   -2.0288 H   0  0  0  0  0  0  0  0  0  0  0  0
    0.3192    2.3769    1.8033 H   0  0  0  0  0  0  0  0  0  0  0  0
  1  9  2  0  0  0  0
  2 21  1  0  0  0  0
  3 23  1  0  0  0  0
  4 46  1  0  0  0  0
  4 20  1  0  0  0  0
  5  9  1  0  0  0  0
  6 29  1  0  0  0  0
  7 22  1  0  0  0  0
  8  6  1  0  0  0  0
 10 18  2  0  0  0  0
 11  3  1  0  0  0  0
 11  8  2  0  0  0  0
 12 32  1  0  0  0  0
 12 22  1  0  0  0  0
 13 33  1  0  0  0  0
 13 35  1  0  0  0  0
 14 26  1  0  0  0  0
 15 11  1  0  0  0  0
 16 42  1  0  0  0  0
 16  4  1  0  0  0  0
 17  9  1  1  0  0  0
 17 10  1  0  0  0  0
 17  2  1  0  0  0  0
 18 27  1  0  0  0  0
 18 14  1  0  0  0  0
 19 15  1  0  0  0  0
 19 39  1  0  0  0  0
 19  5  1  0  0  0  0
 20 40  1  0  0  0  0
 20 41  1  0  0  0  0
 21 14  2  0  0  0  0
 21 20  1  0  0  0  0
 22 13  1  0  0  0  0
 22 16  1  0  0  0  0
 23  6  1  0  0  0  0
 23 28  1  0  0  0  0
 24  8  1  0  0  0  0
 25 10  1  0  0  0  0
 30 12  1  0  0  0  0
 31 12  1  0  0  0  0
 34 13  1  0  0  0  0
 36 15  1  0  0  0  0
 37 15  1  0  0  0  0
 38 19  1  0  0  0  0
 43 16  1  0  0  0  0
 44  7  1  0  0  0  0
 45  7  1  0  0  0  0
M  END
