37,38,39,40
q = -1.0

 64 71  0  0  1  0  0  0  0  0999 V2000
   -4.8841   -1.4719    2.3726 Br  0  0  0  0  0  0  0  0  0  0  0  0
   -4.2134   -1.5516   -3.3358 Br  0  0  0  0  0  0  0  0  0  0  0  0
    4.8509   -1.4636    2.7212 Br  0  0  0  0  0  0  0  0  0  0  0  0
    4.6731   -1.0868   -3.0141 Br  0  0  0  0  0  0  0  0  0  0  0  0
   -0.9545    3.7690    1.7065 F   0  0  0  0  0  0  0  0  0  0  0  0
   -1.1138    6.4844    1.7962 F   0  0  0  0  0  0  0  0  0  0  0  0
   -0.2580    7.9768   -0.3359 F   0  0  0  0  0  0  0  0  0  0  0  0
    0.7453    6.7431   -2.5633 F   0  0  0  0  0  0  0  0  0  0  0  0
    0.8843    4.0293   -2.6723 F   0  0  0  0  0  0  0  0  0  0  0  0
   -0.5460   -3.6929    0.0277 C   0  0  0  0  0  0  0  0  0  0  0  0
   -1.6122   -4.6432   -0.0975 C   0  0  0  0  0  0  0  0  0  0  0  0
   -1.5057   -5.7337   -0.1155 H   0  0  0  0  0  0  0  0  0  0  0  0
   -2.7879   -3.9125   -0.2283 C   0  0  0  0  0  0  0  0  0  0  0  0
   -3.8037   -4.3076   -0.3495 H   0  0  0  0  0  0  0  0  0  0  0  0
   -2.4454   -2.5052   -0.1820 C   0  0  0  0  0  0  0  0  0  0  0  0
   -3.2410   -1.3563   -0.3428 C   0  0  1  0  0  3  0  0  0  0  0  0
   -2.6917   -0.0524   -0.4295 C   0  0  0  0  0  0  0  0  0  0  0  0
   -3.4413    1.1665   -0.5992 C   0  0  0  0  0  0  0  0  0  0  0  0
   -4.5335    1.2246   -0.6723 H   0  0  0  0  0  0  0  0  0  0  0  0
   -2.5340    2.2072   -0.6695 C   0  0  0  0  0  0  0  0  0  0  0  0
   -2.7495    3.2722   -0.8113 H   0  0  0  0  0  0  0  0  0  0  0  0
   -1.2180    1.6305   -0.5455 C   0  0  0  0  0  0  0  0  0  0  0  0
    0.0109    2.3266   -0.5199 C   0  0  2  0  0  3  0  0  0  0  0  0
    1.2759    1.7015   -0.4451 C   0  0  0  0  0  0  0  0  0  0  0  0
    2.5637    2.3490   -0.4321 C   0  0  0  0  0  0  0  0  0  0  0  0
    2.7345    3.4272   -0.5245 H   0  0  0  0  0  0  0  0  0  0  0  0
    3.5190    1.3556   -0.3058 C   0  0  0  0  0  0  0  0  0  0  0  0
    4.6081    1.4760   -0.2780 H   0  0  0  0  0  0  0  0  0  0  0  0
    2.8290    0.0971   -0.2195 C   0  0  0  0  0  0  0  0  0  0  0  0
    3.4407   -1.1760   -0.1059 C   0  0  1  0  0  3  0  0  0  0  0  0
    2.6998   -2.3687   -0.0081 C   0  0  0  0  0  0  0  0  0  0  0  0
    3.1196   -3.7550   -0.0390 C   0  0  0  0  0  0  0  0  0  0  0  0
    4.1604   -4.0950   -0.0986 H   0  0  0  0  0  0  0  0  0  0  0  0
    1.9779   -4.5470    0.0115 C   0  0  0  0  0  0  0  0  0  0  0  0
    1.9308   -5.6415   -0.0184 H   0  0  0  0  0  0  0  0  0  0  0  0
    0.8569   -3.6559    0.0708 C   0  0  0  0  0  0  0  0  0  0  0  0
   -1.0887   -2.4003    0.0058 N   0  0  0  0  0  2  0  0  0  0  0  0
   -1.3297    0.2541   -0.4102 N   0  0  0  0  0  2  0  0  0  0  0  0
    1.4508    0.3299   -0.3061 N   0  0  0  0  0  2  0  0  0  0  0  0
    1.3303   -2.3355    0.0867 N   0  0  0  0  0  2  0  0  0  0  0  0
   -4.7140   -1.5202   -0.5039 C   0  0  0  0  0  0  0  0  0  0  0  0
   -5.5903   -1.5899    0.6042 C   0  0  0  0  0  0  0  0  0  0  0  0
   -6.9779   -1.7438    0.4613 C   0  0  0  0  0  0  0  0  0  0  0  0
   -7.6173   -1.7906    1.3533 H   0  0  0  0  0  0  0  0  0  0  0  0
   -7.5239   -1.8350   -0.8259 C   0  0  0  0  0  0  0  0  0  0  0  0
   -8.6104   -1.9559   -0.9504 H   0  0  0  0  0  0  0  0  0  0  0  0
   -6.6967   -1.7749   -1.9551 C   0  0  0  0  0  0  0  0  0  0  0  0
   -7.1149   -1.8486   -2.9683 H   0  0  0  0  0  0  0  0  0  0  0  0
   -5.3120   -1.6199   -1.7844 C   0  0  0  0  0  0  0  0  0  0  0  0
   -0.0452    3.8130   -0.4943 C   0  0  0  0  0  0  0  0  0  0  0  0
   -0.5504    4.4789    0.6397 C   0  0  0  0  0  0  0  0  0  0  0  0
   -0.6330    5.8780    0.7061 C   0  0  0  0  0  0  0  0  0  0  0  0
   -0.1895    6.6451   -0.3855 C   0  0  0  0  0  0  0  0  0  0  0  0
    0.3279    6.0098   -1.5273 C   0  0  0  0  0  0  0  0  0  0  0  0
    0.3940    4.6065   -1.5704 C   0  0  0  0  0  0  0  0  0  0  0  0
    4.9278   -1.2618   -0.1532 C   0  0  0  0  0  0  0  0  0  0  0  0
    5.6364   -1.2280   -1.3798 C   0  0  0  0  0  0  0  0  0  0  0  0
    7.0366   -1.3096   -1.4387 C   0  0  0  0  0  0  0  0  0  0  0  0
    7.5422   -1.2797   -2.4134 H   0  0  0  0  0  0  0  0  0  0  0  0
    7.7669   -1.4336   -0.2495 C   0  0  0  0  0  0  0  0  0  0  0  0
    8.8647   -1.4980   -0.2867 H   0  0  0  0  0  0  0  0  0  0  0  0
    7.1096   -1.4793    0.9872 C   0  0  0  0  0  0  0  0  0  0  0  0
    7.6724   -1.5781    1.9253 H   0  0  0  0  0  0  0  0  0  0  0  0
    5.7093   -1.3949    1.0186 C   0  0  0  0  0  0  0  0  0  0  0  0
  2 49  1  0  0  0  0
  4 57  1  0  0  0  0
  8 54  1  0  0  0  0
  9 55  1  0  0  0  0
 10 36  1  0  0  0  0
 11 10  2  0  0  0  0
 12 11  1  0  0  0  0
 13 15  2  0  0  0  0
 13 11  1  0  0  0  0
 14 13  1  0  0  0  0
 15 37  1  0  0  0  0
 16 41  1  6  0  0  0
 16 15  1  0  0  0  0
 17 38  1  0  0  0  0
 17 16  1  0  0  0  0
 18 17  2  0  0  0  0
 19 18  1  0  0  0  0
 20 18  1  0  0  0  0
 20 22  2  0  0  0  0
 21 20  1  0  0  0  0
 22 23  1  0  0  0  0
 22 38  1  0  0  0  0
 23 50  1  1  0  0  0
 23 24  1  0  0  0  0
 24 25  2  0  0  0  0
 24 39  1  0  0  0  0
 25 27  1  0  0  0  0
 26 25  1  0  0  0  0
 27 28  1  0  0  0  0
 27 29  2  0  0  0  0
 29 30  1  0  0  0  0
 30 56  1  6  0  0  0
 30 31  1  0  0  0  0
 31 40  1  0  0  0  0
 32 31  2  0  0  0  0
 32 34  1  0  0  0  0
 33 32  1  0  0  0  0
 34 36  2  0  0  0  0
 35 34  1  0  0  0  0
 36 40  1  0  0  0  0
 37 10  1  0  0  0  0
 39 29  1  0  0  0  0
 41 42  1  0  0  0  0
 42  1  1  0  0  0  0
 43 42  2  0  0  0  0
 43 44  1  0  0  0  0
 45 43  1  0  0  0  0
 46 45  1  0  0  0  0
 47 49  1  0  0  0  0
 47 45  2  0  0  0  0
 48 47  1  0  0  0  0
 49 41  2  0  0  0  0
 50 51  1  0  0  0  0
 51 52  2  0  0  0  0
 51  5  1  0  0  0  0
 52  6  1  0  0  0  0
 53  7  1  0  0  0  0
 53 52  1  0  0  0  0
 54 53  2  0  0  0  0
 55 54  1  0  0  0  0
 55 50  2  0  0  0  0
 56 64  1  0  0  0  0
 57 56  2  0  0  0  0
 58 57  1  0  0  0  0
 58 60  2  0  0  0  0
 59 58  1  0  0  0  0
 60 62  1  0  0  0  0
 61 60  1  0  0  0  0
 62 64  2  0  0  0  0
 62 63  1  0  0  0  0
 64  3  1  0  0  0  0
M  END
