6,7,8,9
q = -1.0

 33 33  0  0  1  0  0  0  0  0999 V2000
    1.2778    3.0798   -0.5499 O   0  0  0  0  0  0  0  0  0  0  0  0
    3.8322   -0.6925    0.4523 O   0  0  0  0  0  0  0  0  0  0  0  0
   -3.2477   -1.3797   -1.0942 O   0  0  0  0  0  0  0  0  0  0  0  0
   -1.1967    2.8123   -0.8723 O   0  0  0  0  0  1  0  0  0  0  0  0
    0.0285   -2.4059    1.1434 O   0  0  0  0  0  0  0  0  0  0  0  0
    1.5986    1.7919   -0.5621 N   0  0  0  0  0  2  0  0  0  0  0  0
    1.8299   -0.7613   -0.7476 N   0  0  0  0  0  2  0  0  0  0  0  0
   -0.9522   -1.0159   -1.3151 N   0  0  0  0  0  2  0  0  0  0  0  0
   -1.2817    1.5298   -1.0197 N   0  0  0  0  0  2  0  0  0  0  0  0
    1.6732   -2.1117   -0.6093 N   0  0  0  0  0  0  0  0  0  0  0  0
   -0.6422   -2.3419   -1.1571 N   0  0  0  0  0  0  0  0  0  0  0  0
    3.8820    2.2514    0.2542 C   0  0  0  0  0  0  0  0  0  0  0  0
    3.4938    3.0561    0.9105 H   0  0  0  0  0  0  0  0  0  0  0  0
    4.3663    2.7461   -0.6143 H   0  0  0  0  0  0  0  0  0  0  0  0
    4.6355    1.6387    0.7827 H   0  0  0  0  0  0  0  0  0  0  0  0
    2.7702    1.3699   -0.1896 C   0  0  1  0  0  3  0  0  0  0  0  0
    2.8904   -0.1360   -0.1172 C   0  0  0  0  0  0  0  0  0  0  0  0
    1.3821   -2.6216    0.7327 C   0  0  0  0  0  0  0  0  0  0  0  0
    1.5993   -3.7160    0.7171 H   0  0  0  0  0  0  0  0  0  0  0  0
    2.0416   -2.1116    1.4563 H   0  0  0  0  0  0  0  0  0  0  0  0
   -0.8837   -2.9075    0.1694 C   0  0  0  0  0  0  0  0  0  0  0  0
   -1.9069   -2.6404    0.4896 H   0  0  0  0  0  0  0  0  0  0  0  0
   -0.7875   -4.0153    0.0755 H   0  0  0  0  0  0  0  0  0  0  0  0
    0.7239   -2.6468   -1.5882 C   0  0  0  0  0  0  0  0  0  0  0  0
    0.8383   -3.7479   -1.6313 H   0  0  0  0  0  0  0  0  0  0  0  0
    0.9186   -2.1923   -2.5759 H   0  0  0  0  0  0  0  0  0  0  0  0
   -2.2756   -0.6224   -1.1824 C   0  0  0  0  0  0  0  0  0  0  0  0
   -2.4099    0.8730   -1.1491 C   0  0  1  0  0  3  0  0  0  0  0  0
   -3.7431    1.5317   -1.2027 C   0  0  0  0  0  0  0  0  0  0  0  0
   -3.8586    2.2616   -0.3744 H   0  0  0  0  0  0  0  0  0  0  0  0
   -4.5286    0.7556   -1.1453 H   0  0  0  0  0  0  0  0  0  0  0  0
   -3.8644    2.1067   -2.1451 H   0  0  0  0  0  0  0  0  0  0  0  0
    0.2149    3.0795   -0.7201 H   0  0  0  0  0  0  0  0  0  0  0  0
  6  1  1  0  0  0  0
  7 10  1  0  0  0  0
  7 17  1  0  0  0  0
  8 27  1  0  0  0  0
  8 11  1  0  0  0  0
  9  4  1  0  0  0  0
 10 18  1  0  0  0  0
 11 21  1  0  0  0  0
 12 15  1  0  0  0  0
 12 13  1  0  0  0  0
 14 12  1  0  0  0  0
 16  6  1  1  0  0  0
 16 17  1  0  0  0  0
 16 12  1  0  0  0  0
 17  2  2  0  0  0  0
 18  5  1  0  0  0  0
 18 20  1  0  0  0  0
 19 18  1  0  0  0  0
 21 22  1  0  0  0  0
 21  5  1  0  0  0  0
 23 21  1  0  0  0  0
 24 11  1  0  0  0  0
 24 10  1  0  0  0  0
 25 24  1  0  0  0  0
 26 24  1  0  0  0  0
 27  3  2  0  0  0  0
 28 27  1  1  0  0  0
 28  9  1  0  0  0  0
 29 28  1  0  0  0  0
 29 31  1  0  0  0  0
 29 30  1  0  0  0  0
 32 29  1  0  0  0  0
 33  1  1  0  0  0  0
M  END
