1,2,3,24
q = -2.0, confidence = 0.868

 78 80  0  0  1  0  0  0  0  0999 V2000
   -1.8103   -1.6158   -0.1428 N   0  0  0  0  0  2  0  0  0  0  0  0
   -2.2368    0.8605    0.5719 N   0  0  0  0  0  2  0  0  0  0  0  0
    0.3458    2.0570    0.6495 N   0  0  0  0  0  2  0  0  0  0  0  0
   -4.5747   -0.6831   -2.6985 C   0  0  0  0  0  0  0  0  0  0  0  0
   -3.8337   -0.3516   -3.4588 H   0  0  0  0  0  0  0  0  0  0  0  0
   -5.3878   -1.1954   -3.2532 H   0  0  0  0  0  0  0  0  0  0  0  0
   -3.9006   -1.6640   -1.7264 C   0  0  0  0  0  0  0  0  0  0  0  0
   -4.6722   -2.0672   -1.0411 H   0  0  0  0  0  0  0  0  0  0  0  0
   -3.4610   -2.5241   -2.2728 H   0  0  0  0  0  0  0  0  0  0  0  0
   -2.7977   -0.9160   -0.9647 C   0  0  1  0  0  0  0  0  0  0  0  0
   -2.1769   -0.4475   -1.7643 H   0  0  0  0  0  0  0  0  0  0  0  0
   -3.3736   -3.3506    0.7666 C   0  0  0  0  0  0  0  0  0  0  0  0
   -3.7478   -3.8826   -0.1305 H   0  0  0  0  0  0  0  0  0  0  0  0
   -4.1123   -2.5690    1.0274 H   0  0  0  0  0  0  0  0  0  0  0  0
   -3.3355   -4.0812    1.5952 H   0  0  0  0  0  0  0  0  0  0  0  0
   -1.9958   -2.7581    0.5403 C   0  0  0  0  0  0  0  0  0  0  0  0
   -0.9115   -3.4928    1.0663 C   0  0  0  0  0  0  0  0  0  0  0  0
   -1.1665   -4.4202    1.5957 H   0  0  0  0  0  0  0  0  0  0  0  0
    0.4610   -3.2786    0.7987 C   0  0  1  0  0  3  0  0  0  0  0  0
    1.4002   -4.4484    0.9913 C   0  0  0  0  0  0  0  0  0  0  0  0
    1.8012   -4.7847    0.0132 H   0  0  0  0  0  0  0  0  0  0  0  0
    0.8825   -5.3018    1.4649 H   0  0  0  0  0  0  0  0  0  0  0  0
    2.2755   -4.1683    1.6081 H   0  0  0  0  0  0  0  0  0  0  0  0
    0.9371   -2.1107    0.3442 N   0  0  0  0  0  2  0  0  0  0  0  0
    2.2745   -2.0740   -0.1769 C   0  0  0  0  0  0  0  0  0  0  0  0
    2.4701   -2.3900   -1.5512 C   0  0  0  0  0  0  0  0  0  0  0  0
    3.7547   -2.2314   -2.0983 C   0  0  0  0  0  0  0  0  0  0  0  0
    3.9066   -2.4480   -3.1673 H   0  0  0  0  0  0  0  0  0  0  0  0
    4.8319   -1.8075   -1.3079 C   0  0  0  0  0  0  0  0  0  0  0  0
    5.8278   -1.6735   -1.7570 H   0  0  0  0  0  0  0  0  0  0  0  0
    4.6408   -1.5811    0.0591 C   0  0  0  0  0  0  0  0  0  0  0  0
    5.4943   -1.2977    0.6957 H   0  0  0  0  0  0  0  0  0  0  0  0
    3.3706   -1.7238    0.6552 C   0  0  0  0  0  0  0  0  0  0  0  0
    3.2308   -1.6108    2.1528 C   0  0  0  0  0  0  0  0  0  0  0  0
    3.9968   -0.9360    2.5799 H   0  0  0  0  0  0  0  0  0  0  0  0
    3.3849   -2.6048    2.6281 H   0  0  0  0  0  0  0  0  0  0  0  0
    2.2309   -1.2603    2.4694 H   0  0  0  0  0  0  0  0  0  0  0  0
    1.3426   -2.9423   -2.3843 C   0  0  0  0  0  0  0  0  0  0  0  0
    1.1738   -4.0173   -2.1533 H   0  0  0  0  0  0  0  0  0  0  0  0
    1.5732   -2.8667   -3.4638 H   0  0  0  0  0  0  0  0  0  0  0  0
    0.3922   -2.4126   -2.1884 H   0  0  0  0  0  0  0  0  0  0  0  0
   -5.1255    0.5435   -1.9573 C   0  0  0  0  0  0  0  0  0  0  0  0
   -5.9498    0.2198   -1.2822 H   0  0  0  0  0  0  0  0  0  0  0  0
   -5.5771    1.2586   -2.6759 H   0  0  0  0  0  0  0  0  0  0  0  0
   -4.0439    1.2483   -1.1271 C   0  0  0  0  0  0  0  0  0  0  0  0
   -4.4739    2.1110   -0.5792 H   0  0  0  0  0  0  0  0  0  0  0  0
   -3.2561    1.6628   -1.7928 H   0  0  0  0  0  0  0  0  0  0  0  0
   -3.3614    0.2676   -0.1552 C   0  0  2  0  0  0  0  0  0  0  0  0
   -4.1248   -0.1326    0.5542 H   0  0  0  0  0  0  0  0  0  0  0  0
   -3.8649    1.7787    2.2074 C   0  0  0  0  0  0  0  0  0  0  0  0
   -3.8734    2.4647    3.0728 H   0  0  0  0  0  0  0  0  0  0  0  0
   -4.1659    0.7701    2.5608 H   0  0  0  0  0  0  0  0  0  0  0  0
   -4.6425    2.1176    1.4948 H   0  0  0  0  0  0  0  0  0  0  0  0
   -2.4871    1.7222    1.5809 C   0  0  0  0  0  0  0  0  0  0  0  0
   -1.5112    2.5888    2.1091 C   0  0  0  0  0  0  0  0  0  0  0  0
   -1.8267    3.2289    2.9430 H   0  0  0  0  0  0  0  0  0  0  0  0
   -0.2442    2.8650    1.5454 C   0  0  2  0  0  3  0  0  0  0  0  0
    0.4314    4.1582    1.9440 C   0  0  0  0  0  0  0  0  0  0  0  0
    0.4457    4.8710    1.0940 H   0  0  0  0  0  0  0  0  0  0  0  0
    1.4898    3.9840    2.2206 H   0  0  0  0  0  0  0  0  0  0  0  0
   -0.0936    4.6363    2.7907 H   0  0  0  0  0  0  0  0  0  0  0  0
    1.3857    2.6312   -0.1571 C   0  0  0  0  0  0  0  0  0  0  0  0
    1.0000    3.4031   -1.2885 C   0  0  0  0  0  0  0  0  0  0  0  0
    2.0056    3.9196   -2.1207 C   0  0  0  0  0  0  0  0  0  0  0  0
    1.7142    4.5068   -3.0058 H   0  0  0  0  0  0  0  0  0  0  0  0
    3.3621    3.6850   -1.8487 C   0  0  0  0  0  0  0  0  0  0  0  0
    4.1368    4.0850   -2.5204 H   0  0  0  0  0  0  0  0  0  0  0  0
    3.7246    2.9424   -0.7216 C   0  0  0  0  0  0  0  0  0  0  0  0
    4.7879    2.7630   -0.4966 H   0  0  0  0  0  0  0  0  0  0  0  0
    2.7485    2.4136    0.1482 C   0  0  0  0  0  0  0  0  0  0  0  0
    3.1735    1.6893    1.3979 C   0  0  0  0  0  0  0  0  0  0  0  0
    2.3546    1.0947    1.8440 H   0  0  0  0  0  0  0  0  0  0  0  0
    3.5046    2.4091    2.1782 H   0  0  0  0  0  0  0  0  0  0  0  0
    4.0267    1.0161    1.1912 H   0  0  0  0  0  0  0  0  0  0  0  0
   -0.4566    3.6306   -1.5963 C   0  0  0  0  0  0  0  0  0  0  0  0
   -0.9826    4.1665   -0.7783 H   0  0  0  0  0  0  0  0  0  0  0  0
   -0.9766    2.6590   -1.7211 H   0  0  0  0  0  0  0  0  0  0  0  0
   -0.5779    4.2196   -2.5251 H   0  0  0  0  0  0  0  0  0  0  0  0
  1 16  1  0  0  0  0
  2 54  1  0  0  0  0
  4 42  1  0  0  0  0
  4  7  1  0  0  0  0
  5  4  1  0  0  0  0
  6  4  1  0  0  0  0
  7  8  1  0  0  0  0
  7 10  1  0  0  0  0
  9  7  1  0  0  0  0
 10 11  1  6  0  0  0
 10 48  1  0  0  0  0
 10  1  1  0  0  0  0
 12 14  1  0  0  0  0
 12 15  1  0  0  0  0
 13 12  1  0  0  0  0
 16 12  1  0  0  0  0
 16 17  2  0  0  0  0
 17 18  1  0  0  0  0
 19 24  1  6  0  0  0
 19 20  1  0  0  0  0
 19 17  1  0  0  0  0
 20 22  1  0  0  0  0
 20 23  1  0  0  0  0
 21 20  1  0  0  0  0
 25 24  1  0  0  0  0
 25 33  1  0  0  0  0
 26 25  2  0  0  0  0
 27 26  1  0  0  0  0
 27 29  2  0  0  0  0
 28 27  1  0  0  0  0
 29 31  1  0  0  0  0
 30 29  1  0  0  0  0
 31 33  2  0  0  0  0
 31 32  1  0  0  0  0
 33 34  1  0  0  0  0
 34 37  1  0  0  0  0
 34 35  1  0  0  0  0
 34 36  1  0  0  0  0
 38 41  1  0  0  0  0
 38 39  1  0  0  0  0
 38 26  1  0  0  0  0
 40 38  1  0  0  0  0
 42 43  1  0  0  0  0
 42 45  1  0  0  0  0
 44 42  1  0  0  0  0
 45 46  1  0  0  0  0
 45 48  1  0  0  0  0
 47 45  1  0  0  0  0
 48 49  1  1  0  0  0
 48  2  1  0  0  0  0
 50 52  1  0  0  0  0
 50 51  1  0  0  0  0
 53 50  1  0  0  0  0
 54 55  2  0  0  0  0
 54 50  1  0  0  0  0
 55 56  1  0  0  0  0
 57  3  1  6  0  0  0
 57 58  1  0  0  0  0
 57 55  1  0  0  0  0
 58 60  1  0  0  0  0
 58 61  1  0  0  0  0
 59 58  1  0  0  0  0
 62 70  1  0  0  0  0
 62  3  1  0  0  0  0
 63 62  2  0  0  0  0
 64 66  2  0  0  0  0
 64 63  1  0  0  0  0
 65 64  1  0  0  0  0
 66 68  1  0  0  0  0
 67 66  1  0  0  0  0
 68 69  1  0  0  0  0
 68 70  2  0  0  0  0
 70 71  1  0  0  0  0
 71 72  1  0  0  0  0
 71 73  1  0  0  0  0
 74 71  1  0  0  0  0
 75 63  1  0  0  0  0
 75 76  1  0  0  0  0
 77 75  1  0  0  0  0
 78 75  1  0  0  0  0
M  END
