1,2,3,4
q = -3.0

 55 57  0  0  0  0  0  0  0  0999 V2000
   -1.2451   -2.4754   -0.3163 N   0  0  0  0  0  2  0  0  0  0  0  0
   -0.2111    0.3256   -1.2376 N   0  0  0  0  0  2  0  0  0  0  0  0
    2.3786   -1.4081   -0.4540 N   0  0  0  0  0  2  0  0  0  0  0  0
    0.6349   -2.2691   -2.2404 N   0  0  0  0  0  0  0  0  0  0  0  0
   -6.0794   -0.6931   -0.9609 Cl  0  0  0  0  0  0  0  0  0  0  0  0
   -3.4829   -0.3709    3.7968 Cl  0  0  0  0  0  0  0  0  0  0  0  0
   -3.8256    2.9785    1.2899 Cl  0  0  0  0  0  0  0  0  0  0  0  0
   -0.2128    5.4633   -1.9220 Cl  0  0  0  0  0  0  0  0  0  0  0  0
    3.4947    3.5398    0.3558 Cl  0  0  0  0  0  0  0  0  0  0  0  0
    6.9179   -0.4146    1.8458 Cl  0  0  0  0  0  0  0  0  0  0  0  0
   -1.3892   -3.3880   -1.4379 C   0  0  0  0  0  0  0  0  0  0  0  0
   -2.1221   -3.0098   -2.1867 H   0  0  0  0  0  0  0  0  0  0  0  0
   -1.7815   -4.3769   -1.1071 H   0  0  0  0  0  0  0  0  0  0  0  0
   -0.0425   -3.5725   -2.1163 C   0  0  0  0  0  0  0  0  0  0  0  0
    0.6099   -4.2192   -1.4924 H   0  0  0  0  0  0  0  0  0  0  0  0
   -0.1588   -4.0754   -3.1049 H   0  0  0  0  0  0  0  0  0  0  0  0
    0.2410    0.1374   -2.6241 C   0  0  0  0  0  0  0  0  0  0  0  0
    1.3314    0.3542   -2.7476 H   0  0  0  0  0  0  0  0  0  0  0  0
   -0.2900    0.8392   -3.3031 H   0  0  0  0  0  0  0  0  0  0  0  0
   -0.0503   -1.2837   -3.1051 C   0  0  0  0  0  0  0  0  0  0  0  0
    0.2530   -1.4164   -4.1695 H   0  0  0  0  0  0  0  0  0  0  0  0
   -1.1410   -1.4556   -3.0427 H   0  0  0  0  0  0  0  0  0  0  0  0
    2.8543   -2.5179   -1.2685 C   0  0  0  0  0  0  0  0  0  0  0  0
    2.6982   -3.5028   -0.7690 H   0  0  0  0  0  0  0  0  0  0  0  0
    3.9429   -2.4335   -1.4671 H   0  0  0  0  0  0  0  0  0  0  0  0
    2.0650   -2.4333   -2.5746 C   0  0  0  0  0  0  0  0  0  0  0  0
    2.4026   -1.5348   -3.1260 H   0  0  0  0  0  0  0  0  0  0  0  0
    2.2228   -3.3162   -3.2341 H   0  0  0  0  0  0  0  0  0  0  0  0
   -2.4309   -1.9479    0.2347 C   0  0  0  0  0  0  0  0  0  0  0  0
   -3.5881   -1.6856   -0.5454 C   0  0  0  0  0  0  0  0  0  0  0  0
   -3.6402   -1.9516   -1.6075 H   0  0  0  0  0  0  0  0  0  0  0  0
   -4.6810   -1.0273    0.0292 C   0  0  0  0  0  0  0  0  0  0  0  0
   -4.6828   -0.5999    1.3677 C   0  0  0  0  0  0  0  0  0  0  0  0
   -5.5359   -0.0575    1.7914 H   0  0  0  0  0  0  0  0  0  0  0  0
   -3.5450   -0.8877    2.1334 C   0  0  0  0  0  0  0  0  0  0  0  0
   -2.4466   -1.5769    1.6009 C   0  0  0  0  0  0  0  0  0  0  0  0
   -1.5939   -1.8253    2.2407 H   0  0  0  0  0  0  0  0  0  0  0  0
   -0.7895    1.5741   -0.9769 C   0  0  0  0  0  0  0  0  0  0  0  0
   -1.9032    1.6618   -0.1066 C   0  0  0  0  0  0  0  0  0  0  0  0
   -2.3243    0.7485    0.3257 H   0  0  0  0  0  0  0  0  0  0  0  0
   -2.4608    2.9058    0.1978 C   0  0  0  0  0  0  0  0  0  0  0  0
   -1.9683    4.1009   -0.3532 C   0  0  0  0  0  0  0  0  0  0  0  0
   -2.4194    5.0707   -0.1115 H   0  0  0  0  0  0  0  0  0  0  0  0
   -0.8743    4.0012   -1.2252 C   0  0  0  0  0  0  0  0  0  0  0  0
   -0.2817    2.7715   -1.5433 C   0  0  0  0  0  0  0  0  0  0  0  0
    0.5986    2.7607   -2.1992 H   0  0  0  0  0  0  0  0  0  0  0  0
    3.3109   -0.4729    0.0411 C   0  0  0  0  0  0  0  0  0  0  0  0
    3.0124    0.9056   -0.0532 C   0  0  0  0  0  0  0  0  0  0  0  0
    2.0780    1.2303   -0.5285 H   0  0  0  0  0  0  0  0  0  0  0  0
    3.9051    1.8487    0.4669 C   0  0  0  0  0  0  0  0  0  0  0  0
    5.1220    1.4675    1.0555 C   0  0  0  0  0  0  0  0  0  0  0  0
    5.8209    2.2147    1.4508 H   0  0  0  0  0  0  0  0  0  0  0  0
    5.4148    0.0954    1.1177 C   0  0  0  0  0  0  0  0  0  0  0  0
    4.5305   -0.8784    0.6316 C   0  0  0  0  0  0  0  0  0  0  0  0
    4.7794   -1.9423    0.7380 H   0  0  0  0  0  0  0  0  0  0  0  0
  1 29  1  0  0  0  0
  2 38  1  0  0  0  0
  3 47  1  0  0  0  0
  4 14  1  0  0  0  0
  5 32  1  0  0  0  0
  8 44  1  0  0  0  0
  9 50  1  0  0  0  0
 11 13  1  0  0  0  0
 11  1  1  0  0  0  0
 12 11  1  0  0  0  0
 14 15  1  0  0  0  0
 14 11  1  0  0  0  0
 16 14  1  0  0  0  0
 17  2  1  0  0  0  0
 18 17  1  0  0  0  0
 19 17  1  0  0  0  0
 20 22  1  0  0  0  0
 20 17  1  0  0  0  0
 20  4  1  0  0  0  0
 21 20  1  0  0  0  0
 23 24  1  0  0  0  0
 23  3  1  0  0  0  0
 25 23  1  0  0  0  0
 26  4  1  0  0  0  0
 26 23  1  0  0  0  0
 27 26  1  0  0  0  0
 28 26  1  0  0  0  0
 29 36  1  0  0  0  0
 30 32  1  0  0  0  0
 30 29  2  0  0  0  0
 31 30  1  0  0  0  0
 32 33  2  0  0  0  0
 33 34  1  0  0  0  0
 33 35  1  0  0  0  0
 35  6  1  0  0  0  0
 36 35  2  0  0  0  0
 36 37  1  0  0  0  0
 38 39  1  0  0  0  0
 39 41  2  0  0  0  0
 39 40  1  0  0  0  0
 41  7  1  0  0  0  0
 42 43  1  0  0  0  0
 42 41  1  0  0  0  0
 44 42  2  0  0  0  0
 45 44  1  0  0  0  0
 45 38  2  0  0  0  0
 46 45  1  0  0  0  0
 47 54  1  0  0  0  0
 48 47  2  0  0  0  0
 48 50  1  0  0  0  0
 49 48  1  0  0  0  0
 50 51  2  0  0  0  0
 51 53  1  0  0  0  0
 51 52  1  0  0  0  0
 53 10  1  0  0  0  0
 54 55  1  0  0  0  0
 54 53  2  0  0  0  0
M  END
