8,9,10,11
q = -2.0, confidence = 0.934

 52 52  0  0  1  0  0  0  0  0999 V2000
   -3.8776   -2.0271    0.2869 O   0  0  0  0  0  0  0  0  0  0  0  0
   -1.9603   -1.5077   -0.8694 O   0  0  0  0  0  0  0  0  0  0  0  0
    2.2025   -2.4960   -0.8898 O   0  0  0  0  0  0  0  0  0  0  0  0
    5.6540   -1.5203   -0.2798 O   0  0  0  0  0  0  0  0  0  0  0  0
    1.7376    3.1847   -0.1011 O   0  0  0  0  0  0  0  0  0  0  0  0
   -1.7080    2.4437   -0.2062 O   0  0  0  0  0  0  0  0  0  0  0  0
   -1.9012   -2.1571    1.3289 N   0  0  0  0  0  0  0  0  0  0  0  0
    1.3724   -1.7801   -0.0180 N   0  0  0  0  0  2  0  0  0  0  0  0
    3.7991   -0.1958    0.0163 N   0  0  0  0  0  2  0  0  0  0  0  0
    2.5112    2.0566    0.0301 N   0  0  0  0  0  2  0  0  0  0  0  0
   -0.0841    0.8040   -0.2020 N   0  0  0  0  0  2  0  0  0  0  0  0
   -6.4067    2.2922    0.1829 C   0  0  0  0  0  0  0  0  0  0  0  0
   -5.0301    2.1702   -0.0697 C   0  0  0  0  0  0  0  0  0  0  0  0
   -4.4846    0.9260   -0.4131 C   0  0  0  0  0  0  0  0  0  0  0  0
   -5.3074   -0.2165   -0.4898 C   0  0  0  0  0  0  0  0  0  0  0  0
   -6.6850   -0.0881   -0.2287 C   0  0  0  0  0  0  0  0  0  0  0  0
   -7.2349    1.1614    0.0987 C   0  0  0  0  0  0  0  0  0  0  0  0
   -4.7056   -1.5599   -0.8155 C   0  0  0  0  0  0  0  0  0  0  0  0
   -2.5445   -1.8539    0.1553 C   0  0  0  0  0  0  0  0  0  0  0  0
   -0.5015   -1.8168    1.5001 C   0  0  0  0  0  0  0  0  0  0  0  0
    0.1684   -3.9148    0.1265 C   0  0  0  0  0  0  0  0  0  0  0  0
    0.3944   -2.4801    0.4798 C   0  0  2  0  0  3  0  0  0  0  0  0
    3.5426   -2.6195   -0.3695 C   0  0  0  0  0  0  0  0  0  0  0  0
    4.4239   -1.3654   -0.2172 C   0  0  0  0  0  0  0  0  0  0  0  0
    4.6305    0.9885    0.0834 C   0  0  0  0  0  0  0  0  0  0  0  0
    4.4292    3.5914   -0.0441 C   0  0  0  0  0  0  0  0  0  0  0  0
    3.8058    2.2372    0.0257 C   0  0  1  0  0  3  0  0  0  0  0  0
    0.4647    3.0656    0.5730 C   0  0  0  0  0  0  0  0  0  0  0  0
   -0.5421    2.0513   -0.0117 C   0  0  0  0  0  0  0  0  0  0  0  0
   -2.4856   -2.2856    2.1554 H   0  0  0  0  0  0  0  0  0  0  0  0
   -6.8373    3.2708    0.4460 H   0  0  0  0  0  0  0  0  0  0  0  0
   -4.3527    3.0349   -0.0077 H   0  0  0  0  0  0  0  0  0  0  0  0
   -3.4024    0.8799   -0.6106 H   0  0  0  0  0  0  0  0  0  0  0  0
   -7.3340   -0.9773   -0.2833 H   0  0  0  0  0  0  0  0  0  0  0  0
   -0.7704    0.1642   -0.6311 H   0  0  0  0  0  0  0  0  0  0  0  0
   -8.3145    1.2502    0.2953 H   0  0  0  0  0  0  0  0  0  0  0  0
   -5.4881   -2.3317   -0.9449 H   0  0  0  0  0  0  0  0  0  0  0  0
   -4.0688   -1.5160   -1.7212 H   0  0  0  0  0  0  0  0  0  0  0  0
   -0.1849   -2.2059    2.4922 H   0  0  0  0  0  0  0  0  0  0  0  0
   -0.3201   -0.7200    1.4853 H   0  0  0  0  0  0  0  0  0  0  0  0
   -0.4778   -4.4028    0.8784 H   0  0  0  0  0  0  0  0  0  0  0  0
    1.1211   -4.4603    0.0038 H   0  0  0  0  0  0  0  0  0  0  0  0
   -0.3597   -3.9551   -0.8499 H   0  0  0  0  0  0  0  0  0  0  0  0
    4.0517   -3.2717   -1.1031 H   0  0  0  0  0  0  0  0  0  0  0  0
    3.5133   -3.1558    0.6080 H   0  0  0  0  0  0  0  0  0  0  0  0
    5.3867    0.9942   -0.7388 H   0  0  0  0  0  0  0  0  0  0  0  0
    5.2502    1.0241    1.0153 H   0  0  0  0  0  0  0  0  0  0  0  0
    3.8355    4.3257    0.5330 H   0  0  0  0  0  0  0  0  0  0  0  0
    4.4472    3.9508   -1.0955 H   0  0  0  0  0  0  0  0  0  0  0  0
    5.4713    3.5630    0.3251 H   0  0  0  0  0  0  0  0  0  0  0  0
    0.0181    4.0696    0.4645 H   0  0  0  0  0  0  0  0  0  0  0  0
    0.6434    2.8560    1.6522 H   0  0  0  0  0  0  0  0  0  0  0  0
  2 19  2  0  0  0  0
  3 23  1  0  0  0  0
  3  8  1  0  0  0  0
  4 24  2  0  0  0  0
  5 10  1  0  0  0  0
  5 28  1  0  0  0  0
  6 29  2  0  0  0  0
  7 20  1  0  0  0  0
  7 30  1  0  0  0  0
  9 25  1  0  0  0  0
 11 29  1  0  0  0  0
 12 31  1  0  0  0  0
 13 32  1  0  0  0  0
 13 12  2  0  0  0  0
 14 13  1  0  0  0  0
 15 14  2  0  0  0  0
 15 16  1  0  0  0  0
 16 17  2  0  0  0  0
 17 12  1  0  0  0  0
 17 36  1  0  0  0  0
 18 15  1  0  0  0  0
 18  1  1  0  0  0  0
 19  1  1  0  0  0  0
 19  7  1  0  0  0  0
 20 39  1  0  0  0  0
 21 22  1  0  0  0  0
 21 41  1  0  0  0  0
 22  8  1  1  0  0  0
 22 20  1  0  0  0  0
 23 24  1  0  0  0  0
 23 45  1  0  0  0  0
 24  9  1  0  0  0  0
 25 47  1  0  0  0  0
 26 27  1  0  0  0  0
 26 50  1  0  0  0  0
 26 48  1  0  0  0  0
 27 10  1  6  0  0  0
 27 25  1  0  0  0  0
 28 52  1  0  0  0  0
 29 28  1  0  0  0  0
 33 14  1  0  0  0  0
 34 16  1  0  0  0  0
 35 11  1  0  0  0  0
 37 18  1  0  0  0  0
 38 18  1  0  0  0  0
 40 20  1  0  0  0  0
 42 21  1  0  0  0  0
 43 21  1  0  0  0  0
 44 23  1  0  0  0  0
 46 25  1  0  0  0  0
 49 26  1  0  0  0  0
 51 28  1  0  0  0  0
M  END
