1,3,5,7
q = 0.0, confidence = 1.0

 53 54  0  0  0  0  0  0  0  0999 V2000
   -0.9443    1.7782   -0.3681 N   0  0  0  0  0  0  0  0  0  0  0  0
   -0.7852    1.6686   -1.3872 H   0  0  0  0  0  0  0  0  0  0  0  0
   -3.4886    0.8294   -0.0731 N   0  0  0  0  0  0  0  0  0  0  0  0
   -3.6589    0.9692    0.9407 H   0  0  0  0  0  0  0  0  0  0  0  0
   -2.4215   -1.8408    0.4235 N   0  0  0  0  0  0  0  0  0  0  0  0
   -2.5812   -1.7321    1.4428 H   0  0  0  0  0  0  0  0  0  0  0  0
    0.1124   -0.8739    0.1273 N   0  0  0  0  0  0  0  0  0  0  0  0
    0.2916   -1.0145   -0.8846 H   0  0  0  0  0  0  0  0  0  0  0  0
    7.2752   -1.5897   -0.6413 N   0  0  0  0  0  0  0  0  0  0  0  0
    7.7429   -1.4968   -1.5421 H   0  0  0  0  0  0  0  0  0  0  0  0
    7.8815   -1.8803    0.1248 H   0  0  0  0  0  0  0  0  0  0  0  0
    0.3175    2.1987    0.2768 C   0  0  0  0  0  0  0  0  0  0  0  0
    0.1201    2.2883    1.3645 H   0  0  0  0  0  0  0  0  0  0  0  0
    0.5870    3.2089   -0.1043 H   0  0  0  0  0  0  0  0  0  0  0  0
   -2.0344    2.7594   -0.1633 C   0  0  0  0  0  0  0  0  0  0  0  0
   -1.7993    3.7277   -0.6544 H   0  0  0  0  0  0  0  0  0  0  0  0
   -2.1186    2.9381    0.9281 H   0  0  0  0  0  0  0  0  0  0  0  0
   -3.3103    2.1539   -0.7098 C   0  0  0  0  0  0  0  0  0  0  0  0
   -4.1866    2.8110   -0.5239 H   0  0  0  0  0  0  0  0  0  0  0  0
   -3.2298    1.9873   -1.8035 H   0  0  0  0  0  0  0  0  0  0  0  0
   -4.6126    0.0696   -0.6594 C   0  0  0  0  0  0  0  0  0  0  0  0
   -4.3866   -0.0685   -1.7359 H   0  0  0  0  0  0  0  0  0  0  0  0
   -5.5371    0.6827   -0.5804 H   0  0  0  0  0  0  0  0  0  0  0  0
   -4.8181   -1.2796    0.0164 C   0  0  0  0  0  0  0  0  0  0  0  0
   -5.7498   -1.7265   -0.3844 H   0  0  0  0  0  0  0  0  0  0  0  0
   -4.9924   -1.1473    1.1080 H   0  0  0  0  0  0  0  0  0  0  0  0
   -3.6800   -2.2613   -0.2277 C   0  0  0  0  0  0  0  0  0  0  0  0
   -3.9564   -3.2700    0.1506 H   0  0  0  0  0  0  0  0  0  0  0  0
   -3.4720   -2.3499   -1.3131 H   0  0  0  0  0  0  0  0  0  0  0  0
   -1.3263   -2.8162    0.2180 C   0  0  0  0  0  0  0  0  0  0  0  0
   -1.2413   -2.9941   -0.8735 H   0  0  0  0  0  0  0  0  0  0  0  0
   -1.5551   -3.7859    0.7094 H   0  0  0  0  0  0  0  0  0  0  0  0
   -0.0550   -2.2006    0.7633 C   0  0  0  0  0  0  0  0  0  0  0  0
   -0.1339   -2.0359    1.8572 H   0  0  0  0  0  0  0  0  0  0  0  0
    0.8280   -2.8475    0.5746 H   0  0  0  0  0  0  0  0  0  0  0  0
    1.2339   -0.1126    0.7133 C   0  0  0  0  0  0  0  0  0  0  0  0
    2.1594   -0.7253    0.6407 H   0  0  0  0  0  0  0  0  0  0  0  0
    1.0068    0.0410    1.7880 H   0  0  0  0  0  0  0  0  0  0  0  0
    1.4695    1.2293    0.0274 C   0  0  0  0  0  0  0  0  0  0  0  0
    1.5600    1.0538   -1.0711 H   0  0  0  0  0  0  0  0  0  0  0  0
    2.8079    1.8474    0.5030 C   0  0  0  0  0  0  0  0  0  0  0  0
    2.9226    2.8353    0.0074 H   0  0  0  0  0  0  0  0  0  0  0  0
    2.7412    2.0520    1.5932 H   0  0  0  0  0  0  0  0  0  0  0  0
    4.0078    0.9755    0.2159 C   0  0  0  0  0  0  0  0  0  0  0  0
    4.4841    0.8087   -1.1022 C   0  0  0  0  0  0  0  0  0  0  0  0
    4.0054    1.3586   -1.9296 H   0  0  0  0  0  0  0  0  0  0  0  0
    5.5672   -0.0243   -1.3909 C   0  0  0  0  0  0  0  0  0  0  0  0
    5.9201   -0.1241   -2.4293 H   0  0  0  0  0  0  0  0  0  0  0  0
    6.2326   -0.7360   -0.3581 C   0  0  0  0  0  0  0  0  0  0  0  0
    5.7608   -0.5665    0.9684 C   0  0  0  0  0  0  0  0  0  0  0  0
    6.2635   -1.0950    1.7933 H   0  0  0  0  0  0  0  0  0  0  0  0
    4.6739    0.2705    1.2395 C   0  0  0  0  0  0  0  0  0  0  0  0
    4.3414    0.3892    2.2837 H   0  0  0  0  0  0  0  0  0  0  0  0
  1 15  1  0  0  0  0
  1 12  1  0  0  0  0
  2  1  1  0  0  0  0
  3  4  1  0  0  0  0
  5  6  1  0  0  0  0
  7 36  1  0  0  0  0
  7 33  1  0  0  0  0
  8  7  1  0  0  0  0
  9 49  1  0  0  0  0
  9 11  1  0  0  0  0
 10  9  1  0  0  0  0
 12 13  1  0  0  0  0
 14 12  1  0  0  0  0
 15 17  1  0  0  0  0
 16 15  1  0  0  0  0
 18 19  1  0  0  0  0
 18 15  1  0  0  0  0
 18  3  1  0  0  0  0
 20 18  1  0  0  0  0
 21 23  1  0  0  0  0
 21  3  1  0  0  0  0
 21 24  1  0  0  0  0
 22 21  1  0  0  0  0
 24 26  1  0  0  0  0
 25 24  1  0  0  0  0
 27 24  1  0  0  0  0
 27 28  1  0  0  0  0
 27  5  1  0  0  0  0
 29 27  1  0  0  0  0
 30  5  1  0  0  0  0
 30 32  1  0  0  0  0
 30 33  1  0  0  0  0
 31 30  1  0  0  0  0
 33 34  1  0  0  0  0
 35 33  1  0  0  0  0
 36 38  1  0  0  0  0
 37 36  1  0  0  0  0
 39 12  1  0  0  0  0
 39 41  1  0  0  0  0
 39 36  1  0  0  0  0
 40 39  1  0  0  0  0
 41 43  1  0  0  0  0
 42 41  1  0  0  0  0
 44 41  1  0  0  0  0
 44 52  1  0  0  0  0
 45 44  2  0  0  0  0
 46 45  1  0  0  0  0
 47 45  1  0  0  0  0
 47 49  2  0  0  0  0
 48 47  1  0  0  0  0
 49 50  1  0  0  0  0
 50 52  2  0  0  0  0
 50 51  1  0  0  0  0
 52 53  1  0  0  0  0
M  END
