13,14,15,16
q = -3.0

 76 78  0  0  0  0  0  0  0  0999 V2000
   -1.4247   -2.9410   -1.4482 S   0  0  0  0  0  0  0  0  0  0  0  0
    3.0296   -1.5733   -0.5233 S   0  0  0  0  0  0  0  0  0  0  0  0
    0.2349    2.4122    0.6451 S   0  0  0  0  0  0  0  0  0  0  0  0
   -1.1935   -2.1592   -2.7132 O   0  0  0  0  0  0  0  0  0  0  0  0
   -1.8262   -4.3691   -1.5800 O   0  0  0  0  0  0  0  0  0  0  0  0
    2.5372   -1.4973   -1.9387 O   0  0  0  0  0  0  0  0  0  0  0  0
    3.5468   -2.8923   -0.0416 O   0  0  0  0  0  0  0  0  0  0  0  0
    1.2625    2.3889   -0.4281 O   0  0  0  0  0  0  0  0  0  0  0  0
    0.4181    3.3261    1.8151 O   0  0  0  0  0  0  0  0  0  0  0  0
   -5.7445   -0.0479    1.4853 O   0  0  0  0  0  0  0  0  0  0  0  0
    7.6907    2.1556   -0.3032 O   0  0  0  0  0  0  0  0  0  0  0  0
   -5.2342    3.3712   -1.4839 O   0  0  0  0  0  0  0  0  0  0  0  0
   -0.0565   -1.5854    2.0339 N   0  0  0  0  0  0  0  0  0  0  0  0
   -0.1354   -2.6856   -0.4838 N   0  0  0  0  0  2  0  0  0  0  0  0
    1.9214   -0.8363    0.4134 N   0  0  0  0  0  2  0  0  0  0  0  0
   -0.1139    0.8960    1.1550 N   0  0  0  0  0  2  0  0  0  0  0  0
   -0.6267   -2.9526    1.8975 C   0  0  0  0  0  0  0  0  0  0  0  0
   -1.7215   -2.8472    1.7635 H   0  0  0  0  0  0  0  0  0  0  0  0
   -0.4491   -3.5501    2.8243 H   0  0  0  0  0  0  0  0  0  0  0  0
   -0.0187   -3.6024    0.6503 C   0  0  0  0  0  0  0  0  0  0  0  0
    1.0642   -3.8089    0.7991 H   0  0  0  0  0  0  0  0  0  0  0  0
   -0.5123   -4.5770    0.4445 H   0  0  0  0  0  0  0  0  0  0  0  0
   -2.7739   -2.0746   -0.6261 C   0  0  0  0  0  0  0  0  0  0  0  0
   -4.0096   -2.6795   -0.3597 C   0  0  0  0  0  0  0  0  0  0  0  0
   -4.1839   -3.7043   -0.7213 H   0  0  0  0  0  0  0  0  0  0  0  0
   -4.9847   -1.9772    0.3598 C   0  0  0  0  0  0  0  0  0  0  0  0
   -5.9712   -2.4149    0.5726 H   0  0  0  0  0  0  0  0  0  0  0  0
   -4.7223   -0.6621    0.8172 C   0  0  0  0  0  0  0  0  0  0  0  0
   -3.4660   -0.0704    0.5779 C   0  0  0  0  0  0  0  0  0  0  0  0
   -3.2306    0.9504    0.9089 H   0  0  0  0  0  0  0  0  0  0  0  0
   -2.4809   -0.7941   -0.1229 C   0  0  0  0  0  0  0  0  0  0  0  0
   -1.5999   -0.1901   -0.4880 H   0  0  0  0  0  0  0  0  0  0  0  0
   -5.5728    1.3106    1.8443 C   0  0  0  0  0  0  0  0  0  0  0  0
   -6.4995    1.6157    2.3669 H   0  0  0  0  0  0  0  0  0  0  0  0
   -5.4245    1.9577    0.9521 H   0  0  0  0  0  0  0  0  0  0  0  0
   -4.7071    1.4598    2.5290 H   0  0  0  0  0  0  0  0  0  0  0  0
    1.3364   -1.6597    2.5900 C   0  0  0  0  0  0  0  0  0  0  0  0
    1.7031   -2.6927    2.4406 H   0  0  0  0  0  0  0  0  0  0  0  0
    1.3138   -1.4549    3.6841 H   0  0  0  0  0  0  0  0  0  0  0  0
    2.2652   -0.7242    1.8228 C   0  0  0  0  0  0  0  0  0  0  0  0
    2.1400    0.3329    2.1391 H   0  0  0  0  0  0  0  0  0  0  0  0
    3.3206   -1.0109    2.0286 H   0  0  0  0  0  0  0  0  0  0  0  0
    4.4290   -0.4299   -0.4178 C   0  0  0  0  0  0  0  0  0  0  0  0
    4.1785    0.9496   -0.4636 C   0  0  0  0  0  0  0  0  0  0  0  0
    3.1408    1.3285   -0.5014 H   0  0  0  0  0  0  0  0  0  0  0  0
    5.2566    1.8468   -0.4265 C   0  0  0  0  0  0  0  0  0  0  0  0
    5.0433    2.9240   -0.4517 H   0  0  0  0  0  0  0  0  0  0  0  0
    6.5784    1.3594   -0.3467 C   0  0  0  0  0  0  0  0  0  0  0  0
    6.8143   -0.0320   -0.2971 C   0  0  0  0  0  0  0  0  0  0  0  0
    7.8545   -0.3832   -0.2264 H   0  0  0  0  0  0  0  0  0  0  0  0
    5.7398   -0.9254   -0.3305 C   0  0  0  0  0  0  0  0  0  0  0  0
    5.8912   -2.0138   -0.2785 H   0  0  0  0  0  0  0  0  0  0  0  0
    7.5048    3.5541   -0.3472 C   0  0  0  0  0  0  0  0  0  0  0  0
    8.5135    4.0080   -0.3056 H   0  0  0  0  0  0  0  0  0  0  0  0
    6.9063    3.9257    0.5157 H   0  0  0  0  0  0  0  0  0  0  0  0
    7.0005    3.8811   -1.2852 H   0  0  0  0  0  0  0  0  0  0  0  0
   -0.9139   -0.6647    2.8098 C   0  0  0  0  0  0  0  0  0  0  0  0
   -0.8841   -0.9096    3.8997 H   0  0  0  0  0  0  0  0  0  0  0  0
   -1.9493   -0.8161    2.4520 H   0  0  0  0  0  0  0  0  0  0  0  0
   -0.4808    0.7818    2.5643 C   0  0  0  0  0  0  0  0  0  0  0  0
   -1.3258    1.4547    2.8541 H   0  0  0  0  0  0  0  0  0  0  0  0
    0.3599    1.0595    3.2442 H   0  0  0  0  0  0  0  0  0  0  0  0
   -1.3117    2.9020   -0.1438 C   0  0  0  0  0  0  0  0  0  0  0  0
   -1.6664    2.3297   -1.3774 C   0  0  0  0  0  0  0  0  0  0  0  0
   -0.9225    1.7238   -1.9202 H   0  0  0  0  0  0  0  0  0  0  0  0
   -2.9711    2.4852   -1.8679 C   0  0  0  0  0  0  0  0  0  0  0  0
   -3.2445    1.9984   -2.8137 H   0  0  0  0  0  0  0  0  0  0  0  0
   -3.9178    3.2239   -1.1276 C   0  0  0  0  0  0  0  0  0  0  0  0
   -3.5348    3.8489    0.0793 C   0  0  0  0  0  0  0  0  0  0  0  0
   -4.2838    4.4488    0.6182 H   0  0  0  0  0  0  0  0  0  0  0  0
   -2.2383    3.6812    0.5748 C   0  0  0  0  0  0  0  0  0  0  0  0
   -1.9172    4.1383    1.5225 H   0  0  0  0  0  0  0  0  0  0  0  0
   -5.6934    2.6510   -2.6100 C   0  0  0  0  0  0  0  0  0  0  0  0
   -6.7785    2.8529   -2.6920 H   0  0  0  0  0  0  0  0  0  0  0  0
   -5.5345    1.5550   -2.4935 H   0  0  0  0  0  0  0  0  0  0  0  0
   -5.1955    2.9805   -3.5505 H   0  0  0  0  0  0  0  0  0  0  0  0
  1 23  1  0  0  0  0
  1 14  1  0  0  0  0
  2 43  1  0  0  0  0
  2  7  2  0  0  0  0
  2 15  1  0  0  0  0
  3 16  1  0  0  0  0
  3  9  2  0  0  0  0
  4  1  2  0  0  0  0
  5  1  2  0  0  0  0
  6  2  2  0  0  0  0
  8  3  2  0  0  0  0
 10 33  1  0  0  0  0
 12 68  1  0  0  0  0
 13 37  1  0  0  0  0
 13 57  1  0  0  0  0
 14 20  1  0  0  0  0
 15 40  1  0  0  0  0
 16 60  1  0  0  0  0
 17 13  1  0  0  0  0
 17 19  1  0  0  0  0
 18 17  1  0  0  0  0
 20 21  1  0  0  0  0
 20 17  1  0  0  0  0
 22 20  1  0  0  0  0
 23 24  2  0  0  0  0
 23 31  1  0  0  0  0
 24 26  1  0  0  0  0
 25 24  1  0  0  0  0
 26 27  1  0  0  0  0
 26 28  2  0  0  0  0
 28 10  1  0  0  0  0
 29 28  1  0  0  0  0
 29 30  1  0  0  0  0
 31 29  2  0  0  0  0
 32 31  1  0  0  0  0
 33 34  1  0  0  0  0
 33 36  1  0  0  0  0
 35 33  1  0  0  0  0
 37 39  1  0  0  0  0
 38 37  1  0  0  0  0
 40 42  1  0  0  0  0
 40 41  1  0  0  0  0
 40 37  1  0  0  0  0
 43 51  1  0  0  0  0
 44 46  1  0  0  0  0
 44 43  2  0  0  0  0
 45 44  1  0  0  0  0
 46 48  2  0  0  0  0
 47 46  1  0  0  0  0
 48 11  1  0  0  0  0
 48 49  1  0  0  0  0
 49 50  1  0  0  0  0
 51 49  2  0  0  0  0
 51 52  1  0  0  0  0
 53 54  1  0  0  0  0
 53 11  1  0  0  0  0
 53 55  1  0  0  0  0
 56 53  1  0  0  0  0
 57 58  1  0  0  0  0
 59 57  1  0  0  0  0
 60 57  1  0  0  0  0
 60 61  1  0  0  0  0
 60 62  1  0  0  0  0
 63 71  1  0  0  0  0
 63  3  1  0  0  0  0
 64 63  2  0  0  0  0
 65 64  1  0  0  0  0
 66 64  1  0  0  0  0
 66 68  2  0  0  0  0
 67 66  1  0  0  0  0
 68 69  1  0  0  0  0
 69 71  2  0  0  0  0
 69 70  1  0  0  0  0
 71 72  1  0  0  0  0
 73 75  1  0  0  0  0
 73 12  1  0  0  0  0
 74 73  1  0  0  0  0
 76 73  1  0  0  0  0
M  END
