1,3,7,9
q = 0.0, confidence = 0.998

 36 37  0  0  1  0  0  0  0  0999 V2000
    2.3553    0.0459    0.4166 N   0  0  0  0  0  0  0  0  0  0  0  0
    2.5325    0.4579    1.3464 H   0  0  0  0  0  0  0  0  0  0  0  0
   -1.5012    0.3326    0.0715 N   0  0  0  0  0  2  0  0  0  0  0  0
    0.0207   -0.6580   -2.3111 C   0  0  0  0  0  0  0  0  0  0  0  0
    0.3150   -0.8320   -3.3725 H   0  0  0  0  0  0  0  0  0  0  0  0
   -1.0573   -0.4125   -2.3014 H   0  0  0  0  0  0  0  0  0  0  0  0
    0.7438    0.4685   -1.6934 N   0  0  0  0  0  0  0  0  0  0  0  0
    0.3325    1.3910   -1.9126 H   0  0  0  0  0  0  0  0  0  0  0  0
    0.2362   -1.6392   -0.0142 N   0  0  0  0  0  0  0  0  0  0  0  0
   -2.0709   -0.9197    0.1673 C   0  0  1  0  0  3  0  0  0  0  0  0
    2.6490   -1.4124    0.4156 C   0  0  0  0  0  0  0  0  0  0  0  0
    3.4461   -1.6683    1.1457 H   0  0  0  0  0  0  0  0  0  0  0  0
    3.0482   -1.6855   -0.5830 H   0  0  0  0  0  0  0  0  0  0  0  0
   -4.2697   -0.0581   -0.3691 C   0  0  0  0  0  0  0  0  0  0  0  0
   -5.3442   -0.2092   -0.5457 H   0  0  0  0  0  0  0  0  0  0  0  0
    2.2113    0.5011   -1.9644 C   0  0  0  0  0  0  0  0  0  0  0  0
    2.4535    1.2461   -2.7504 H   0  0  0  0  0  0  0  0  0  0  0  0
    2.5090   -0.4885   -2.3689 H   0  0  0  0  0  0  0  0  0  0  0  0
   -1.0841   -1.9699    0.5867 C   0  0  0  0  0  0  0  0  0  0  0  0
   -0.9377   -1.8728    1.6855 H   0  0  0  0  0  0  0  0  0  0  0  0
   -1.4239   -3.0009    0.3362 H   0  0  0  0  0  0  0  0  0  0  0  0
    2.9775    0.8143   -0.6756 C   0  0  0  0  0  0  0  0  0  0  0  0
    4.0637    0.5963   -0.8024 H   0  0  0  0  0  0  0  0  0  0  0  0
    2.8349    1.8829   -0.4214 H   0  0  0  0  0  0  0  0  0  0  0  0
   -3.6921    1.2218   -0.4365 C   0  0  0  0  0  0  0  0  0  0  0  0
   -4.3032    2.1091   -0.6591 H   0  0  0  0  0  0  0  0  0  0  0  0
    0.2943   -1.9220   -1.4836 C   0  0  0  0  0  0  0  0  0  0  0  0
   -0.4221   -2.7262   -1.7570 H   0  0  0  0  0  0  0  0  0  0  0  0
    1.3053   -2.3104   -1.7187 H   0  0  0  0  0  0  0  0  0  0  0  0
   -2.3227    1.3838   -0.2164 C   0  0  0  0  0  0  0  0  0  0  0  0
   -1.8145    2.3612   -0.2448 H   0  0  0  0  0  0  0  0  0  0  0  0
    1.3830   -2.2101    0.7367 C   0  0  0  0  0  0  0  0  0  0  0  0
    1.5284   -3.2957    0.5246 H   0  0  0  0  0  0  0  0  0  0  0  0
    1.1412   -2.0635    1.8083 H   0  0  0  0  0  0  0  0  0  0  0  0
   -3.4287   -1.1431   -0.0609 C   0  0  0  0  0  0  0  0  0  0  0  0
   -3.8249   -2.1670    0.0147 H   0  0  0  0  0  0  0  0  0  0  0  0
  1  2  1  0  0  0  0
  3 10  1  0  0  0  0
  4  6  1  0  0  0  0
  4  7  1  0  0  0  0
  4 27  1  0  0  0  0
  5  4  1  0  0  0  0
  8  7  1  0  0  0  0
  9 19  1  0  0  0  0
  9 32  1  0  0  0  0
 10 19  1  1  0  0  0
 11  1  1  0  0  0  0
 11 32  1  0  0  0  0
 11 12  1  0  0  0  0
 13 11  1  0  0  0  0
 14 35  2  0  0  0  0
 15 14  1  0  0  0  0
 16  7  1  0  0  0  0
 16 22  1  0  0  0  0
 17 16  1  0  0  0  0
 18 16  1  0  0  0  0
 19 20  1  0  0  0  0
 21 19  1  0  0  0  0
 22 24  1  0  0  0  0
 22  1  1  0  0  0  0
 23 22  1  0  0  0  0
 25 14  1  0  0  0  0
 25 30  2  0  0  0  0
 26 25  1  0  0  0  0
 27  9  1  0  0  0  0
 28 27  1  0  0  0  0
 29 27  1  0  0  0  0
 30  3  1  0  0  0  0
 31 30  1  0  0  0  0
 32 34  1  0  0  0  0
 33 32  1  0  0  0  0
 35 36  1  0  0  0  0
 35 10  1  0  0  0  0
M  END
