7,8,9,10
q = 0.0, confidence = 1.0

 61 64  0  0  1  0  0  0  0  0999 V2000
    0.1951    2.9560   -1.0951 O   0  0  0  0  0  0  0  0  0  0  0  0
   -0.1645    3.1646    1.1996 O   0  0  0  0  0  0  0  0  0  0  0  0
    3.3431    2.2976   -0.5758 O   0  0  0  0  0  0  0  0  0  0  0  0
    2.5096    3.1777    1.3231 O   0  0  0  0  0  0  0  0  0  0  0  0
   -2.5275    3.0917   -0.9632 O   0  0  0  0  0  0  0  0  0  0  0  0
   -3.3925    2.0971    0.8734 O   0  0  0  0  0  0  0  0  0  0  0  0
    0.1263   -0.2559   -1.2760 N   0  0  0  0  0  0  0  0  0  0  0  0
   -0.0772   -0.2036    1.7234 N   0  0  0  0  0  0  0  0  0  0  0  0
    2.0410   -1.7598   -0.1259 N   0  0  0  0  0  2  0  0  0  0  0  0
   -2.0004   -1.7106   -0.4620 N   0  0  0  0  0  2  0  0  0  0  0  0
    1.3961    0.4421   -0.9513 C   0  0  1  0  0  0  0  0  0  0  0  0
    1.2806    1.3687    0.2988 C   0  0  2  0  0  0  0  0  0  0  0  0
    1.1467    0.6254    1.6446 C   0  0  0  0  0  0  0  0  0  0  0  0
   -1.2870    0.6128    1.4742 C   0  0  0  0  0  0  0  0  0  0  0  0
   -1.2300    1.3616    0.1318 C   0  0  2  0  0  0  0  0  0  0  0  0
   -1.1540    0.4645   -1.1404 C   0  0  2  0  0  0  0  0  0  0  0  0
    0.0200    2.2965    0.1254 C   0  0  0  0  0  0  0  0  0  0  0  0
    0.2171   -0.8433   -2.6258 C   0  0  0  0  0  0  0  0  0  0  0  0
    2.4582   -0.6497   -0.7736 C   0  0  2  0  0  3  0  0  0  0  0  0
    2.8821   -2.7848    0.1059 C   0  0  0  0  0  0  0  0  0  0  0  0
    4.2142   -2.7479   -0.3241 C   0  0  0  0  0  0  0  0  0  0  0  0
    4.6579   -1.6169   -1.0242 C   0  0  0  0  0  0  0  0  0  0  0  0
    3.7714   -0.5528   -1.2542 C   0  0  0  0  0  0  0  0  0  0  0  0
    2.4505    2.3597    0.4133 C   0  0  0  0  0  0  0  0  0  0  0  0
    4.3899    3.2959   -0.5454 C   0  0  0  0  0  0  0  0  0  0  0  0
    3.9480    4.3059   -0.6420 H   0  0  0  0  0  0  0  0  0  0  0  0
    5.0429    3.0716   -1.4058 H   0  0  0  0  0  0  0  0  0  0  0  0
    4.9512    3.2351    0.4062 H   0  0  0  0  0  0  0  0  0  0  0  0
   -0.1639   -0.8354    3.0588 C   0  0  0  0  0  0  0  0  0  0  0  0
   -2.4481    2.2816   -0.0475 C   0  0  0  0  0  0  0  0  0  0  0  0
   -4.5485    2.9597    0.7858 C   0  0  0  0  0  0  0  0  0  0  0  0
   -4.2381    4.0187    0.8690 H   0  0  0  0  0  0  0  0  0  0  0  0
   -5.2003    2.6730    1.6280 H   0  0  0  0  0  0  0  0  0  0  0  0
   -5.0648    2.8104   -0.1821 H   0  0  0  0  0  0  0  0  0  0  0  0
   -2.2799   -0.5631   -1.1140 C   0  0  2  0  0  3  0  0  0  0  0  0
   -2.9378   -2.6671   -0.3273 C   0  0  0  0  0  0  0  0  0  0  0  0
   -4.2256   -2.5061   -0.8555 C   0  0  0  0  0  0  0  0  0  0  0  0
   -4.5298   -1.3184   -1.5377 C   0  0  0  0  0  0  0  0  0  0  0  0
   -3.5432   -0.3282   -1.6719 C   0  0  0  0  0  0  0  0  0  0  0  0
   -0.6744    3.3834   -1.2982 H   0  0  0  0  0  0  0  0  0  0  0  0
    0.7187    3.5490    1.4286 H   0  0  0  0  0  0  0  0  0  0  0  0
    1.6927    1.0999   -1.7938 H   0  0  0  0  0  0  0  0  0  0  0  0
    1.1397    1.3865    2.4541 H   0  0  0  0  0  0  0  0  0  0  0  0
    2.0203   -0.0334    1.8134 H   0  0  0  0  0  0  0  0  0  0  0  0
   -2.1694   -0.0519    1.5182 H   0  0  0  0  0  0  0  0  0  0  0  0
   -1.4023    1.3718    2.2761 H   0  0  0  0  0  0  0  0  0  0  0  0
   -1.3065    1.1470   -2.0049 H   0  0  0  0  0  0  0  0  0  0  0  0
   -0.6713   -1.4693   -2.8287 H   0  0  0  0  0  0  0  0  0  0  0  0
    0.2819   -0.0508   -3.4055 H   0  0  0  0  0  0  0  0  0  0  0  0
    1.1125   -1.4875   -2.7011 H   0  0  0  0  0  0  0  0  0  0  0  0
    2.4376   -3.6432    0.6395 H   0  0  0  0  0  0  0  0  0  0  0  0
    4.8809   -3.5993   -0.1274 H   0  0  0  0  0  0  0  0  0  0  0  0
    5.6906   -1.5643   -1.4006 H   0  0  0  0  0  0  0  0  0  0  0  0
    4.0861    0.3426   -1.8039 H   0  0  0  0  0  0  0  0  0  0  0  0
    0.7202   -1.4798    3.2191 H   0  0  0  0  0  0  0  0  0  0  0  0
   -1.0535   -1.4907    3.0978 H   0  0  0  0  0  0  0  0  0  0  0  0
   -0.2224   -0.0660    3.8603 H   0  0  0  0  0  0  0  0  0  0  0  0
   -2.6123   -3.5671    0.2230 H   0  0  0  0  0  0  0  0  0  0  0  0
   -4.9720   -3.3040   -0.7369 H   0  0  0  0  0  0  0  0  0  0  0  0
   -5.5291   -1.1658   -1.9725 H   0  0  0  0  0  0  0  0  0  0  0  0
   -3.7412    0.6116   -2.2085 H   0  0  0  0  0  0  0  0  0  0  0  0
  1 17  1  0  0  0  0
  2 41  1  0  0  0  0
  3 25  1  0  0  0  0
  3 24  1  0  0  0  0
  5 30  2  0  0  0  0
  7 16  1  0  0  0  0
  7 11  1  0  0  0  0
  8 29  1  0  0  0  0
  9 20  1  0  0  0  0
 10 36  1  0  0  0  0
 11 42  1  6  0  0  0
 11 19  1  0  0  0  0
 11 12  1  0  0  0  0
 12 24  1  1  0  0  0
 12 13  1  0  0  0  0
 13  8  1  0  0  0  0
 13 44  1  0  0  0  0
 13 43  1  0  0  0  0
 14 45  1  0  0  0  0
 14  8  1  0  0  0  0
 14 46  1  0  0  0  0
 15 30  1  6  0  0  0
 15 14  1  0  0  0  0
 16 47  1  6  0  0  0
 16 35  1  0  0  0  0
 16 15  1  0  0  0  0
 17 15  1  0  0  0  0
 17 12  1  0  0  0  0
 17  2  1  0  0  0  0
 18  7  1  0  0  0  0
 19 23  1  6  0  0  0
 19  9  1  0  0  0  0
 20 51  1  0  0  0  0
 21 52  1  0  0  0  0
 21 20  2  0  0  0  0
 22 21  1  0  0  0  0
 23 22  2  0  0  0  0
 24  4  2  0  0  0  0
 25 28  1  0  0  0  0
 26 25  1  0  0  0  0
 27 25  1  0  0  0  0
 29 56  1  0  0  0  0
 29 55  1  0  0  0  0
 29 57  1  0  0  0  0
 30  6  1  0  0  0  0
 31 32  1  0  0  0  0
 31  6  1  0  0  0  0
 31 33  1  0  0  0  0
 34 31  1  0  0  0  0
 35 39  1  1  0  0  0
 35 10  1  0  0  0  0
 36 58  1  0  0  0  0
 37 59  1  0  0  0  0
 37 36  2  0  0  0  0
 38 37  1  0  0  0  0
 39 38  2  0  0  0  0
 40  1  1  0  0  0  0
 48 18  1  0  0  0  0
 49 18  1  0  0  0  0
 50 18  1  0  0  0  0
 53 22  1  0  0  0  0
 54 23  1  0  0  0  0
 60 38  1  0  0  0  0
 61 39  1  0  0  0  0
M  END
