1,2,3,4
q = -2.0, confidence = 0.528

 70 81  0  0  0  0  0  0  0  0999 V2000
   -0.1713   -2.3070    0.0075 N   0  0  0  0  0  0  0  0  0  0  0  0
   -1.8098    0.0214   -0.0463 N   0  0  0  0  0  2  0  0  0  0  0  0
    0.2118    2.0195   -0.0402 N   0  0  0  0  0  0  0  0  0  0  0  0
    2.0007   -0.2379    0.0562 N   0  0  0  0  0  0  0  0  0  0  0  0
    0.8622   -3.2200    0.0079 C   0  0  0  0  0  0  0  0  0  0  0  0
    0.3158   -4.5685    0.0069 C   0  0  0  0  0  0  0  0  0  0  0  0
    0.8886   -5.5012    0.0086 H   0  0  0  0  0  0  0  0  0  0  0  0
   -1.0557   -4.4449    0.0094 C   0  0  0  0  0  0  0  0  0  0  0  0
   -1.7895   -5.2581    0.0091 H   0  0  0  0  0  0  0  0  0  0  0  0
   -1.3556   -3.0234    0.0062 C   0  0  0  0  0  0  0  0  0  0  0  0
   -2.6176   -2.3709   -0.0038 C   0  0  0  0  0  0  0  0  0  0  0  0
   -2.7232   -0.9706   -0.0276 C   0  0  0  0  0  0  0  0  0  0  0  0
   -4.0930   -0.4735   -0.0173 C   0  0  0  0  0  0  0  0  0  0  0  0
   -3.9667    0.9220   -0.0258 C   0  0  0  0  0  0  0  0  0  0  0  0
   -2.5326    1.1660   -0.0426 C   0  0  0  0  0  0  0  0  0  0  0  0
   -2.1780    2.5215   -0.0266 C   0  0  0  0  0  0  0  0  0  0  0  0
   -0.8180    2.9448   -0.0052 C   0  0  0  0  0  0  0  0  0  0  0  0
   -0.2615    4.2784    0.0771 C   0  0  0  0  0  0  0  0  0  0  0  0
   -0.8286    5.2138    0.1333 H   0  0  0  0  0  0  0  0  0  0  0  0
    1.1111    4.1389    0.0950 C   0  0  0  0  0  0  0  0  0  0  0  0
    1.8581    4.9356    0.1765 H   0  0  0  0  0  0  0  0  0  0  0  0
    1.3965    2.7133    0.0131 C   0  0  0  0  0  0  0  0  0  0  0  0
    2.7072    2.1291    0.0225 C   0  0  0  0  0  0  0  0  0  0  0  0
    2.9848    0.7378    0.0289 C   0  0  0  0  0  3  0  0  0  0  0  0
    4.2981    0.0789   -0.0244 C   0  0  0  0  0  0  0  0  0  0  0  0
    5.2555    0.6084   -0.0770 H   0  0  0  0  0  0  0  0  0  0  0  0
    4.0546   -1.2857   -0.0172 C   0  0  0  0  0  0  0  0  0  0  0  0
    2.6233   -1.4377    0.0261 C   0  0  0  0  0  0  0  0  0  0  0  0
    2.2153   -2.7967    0.0087 C   0  0  0  0  0  0  0  0  0  0  0  0
   -4.0390   -2.8326    0.0149 C   0  0  0  0  0  0  0  0  0  0  0  0
   -4.9255   -1.6815    0.0080 C   0  0  0  0  0  0  0  0  0  0  0  0
   -6.3112   -1.8574    0.0253 C   0  0  0  0  0  0  0  0  0  0  0  0
   -6.9788   -0.9826    0.0203 H   0  0  0  0  0  0  0  0  0  0  0  0
   -6.8442   -3.1641    0.0495 C   0  0  0  0  0  0  0  0  0  0  0  0
   -7.9349   -3.3082    0.0632 H   0  0  0  0  0  0  0  0  0  0  0  0
   -5.9926   -4.2765    0.0567 C   0  0  0  0  0  0  0  0  0  0  0  0
   -6.4188   -5.2909    0.0760 H   0  0  0  0  0  0  0  0  0  0  0  0
   -4.5884   -4.1166    0.0399 C   0  0  0  0  0  0  0  0  0  0  0  0
   -3.9425   -5.0056    0.0473 H   0  0  0  0  0  0  0  0  0  0  0  0
   -3.4936    3.2333   -0.0121 C   0  0  0  0  0  0  0  0  0  0  0  0
   -4.5719    2.2611   -0.0111 C   0  0  0  0  0  0  0  0  0  0  0  0
   -5.9018    2.6839    0.0014 C   0  0  0  0  0  0  0  0  0  0  0  0
   -6.7172    1.9449    0.0025 H   0  0  0  0  0  0  0  0  0  0  0  0
   -6.1897    4.0673    0.0117 C   0  0  0  0  0  0  0  0  0  0  0  0
   -7.2367    4.4056    0.0217 H   0  0  0  0  0  0  0  0  0  0  0  0
   -5.1527    5.0074    0.0078 C   0  0  0  0  0  0  0  0  0  0  0  0
   -5.3885    6.0822    0.0141 H   0  0  0  0  0  0  0  0  0  0  0  0
   -3.7995    4.5952   -0.0049 C   0  0  0  0  0  0  0  0  0  0  0  0
   -3.0021    5.3512   -0.0117 H   0  0  0  0  0  0  0  0  0  0  0  0
    3.8756    3.0564    0.0280 C   0  0  0  0  0  0  0  0  0  0  0  0
    4.0797    3.9680   -1.0318 C   0  0  0  0  0  0  0  0  0  0  0  0
    3.3680    3.9807   -1.8709 H   0  0  0  0  0  0  0  0  0  0  0  0
    5.1831    4.8331   -1.0285 C   0  0  0  0  0  0  0  0  0  0  0  0
    5.3310    5.5308   -1.8669 H   0  0  0  0  0  0  0  0  0  0  0  0
    6.0999    4.8052    0.0346 C   0  0  0  0  0  0  0  0  0  0  0  0
    6.9649    5.4856    0.0371 H   0  0  0  0  0  0  0  0  0  0  0  0
    5.9070    3.9050    1.0944 C   0  0  0  0  0  0  0  0  0  0  0  0
    6.6167    3.8820    1.9355 H   0  0  0  0  0  0  0  0  0  0  0  0
    4.8057    3.0369    1.0912 C   0  0  0  0  0  0  0  0  0  0  0  0
    4.6462    2.3410    1.9284 H   0  0  0  0  0  0  0  0  0  0  0  0
    3.4963   -3.5633   -0.0319 C   0  0  0  0  0  0  0  0  0  0  0  0
    4.6113   -2.6424   -0.0515 C   0  0  0  0  0  0  0  0  0  0  0  0
    5.9249   -3.1131   -0.0956 C   0  0  0  0  0  0  0  0  0  0  0  0
    6.7671   -2.4051   -0.1112 H   0  0  0  0  0  0  0  0  0  0  0  0
    6.1586   -4.5044   -0.1204 C   0  0  0  0  0  0  0  0  0  0  0  0
    7.1906   -4.8846   -0.1551 H   0  0  0  0  0  0  0  0  0  0  0  0
    5.0831   -5.4027   -0.1014 C   0  0  0  0  0  0  0  0  0  0  0  0
    5.2753   -6.4860   -0.1211 H   0  0  0  0  0  0  0  0  0  0  0  0
    3.7503   -4.9390   -0.0579 C   0  0  0  0  0  0  0  0  0  0  0  0
    2.9290   -5.6679   -0.0453 H   0  0  0  0  0  0  0  0  0  0  0  0
  1  5  1  0  0  0  0
  2 15  1  0  0  0  0
  2 12  1  0  0  0  0
  3 17  2  0  0  0  0
  3 22  1  0  0  0  0
  5 29  2  0  0  0  0
  6  5  1  0  0  0  0
  6  7  1  0  0  0  0
  6  8  2  0  0  0  0
  9  8  1  0  0  0  0
 10  1  2  0  0  0  0
 10  8  1  0  0  0  0
 11 10  1  0  0  0  0
 11 30  1  0  0  0  0
 12 13  1  0  0  0  0
 12 11  2  0  0  0  0
 13 31  1  0  0  0  0
 14 13  2  0  0  0  0
 14 41  1  0  0  0  0
 15 16  2  0  0  0  0
 15 14  1  0  0  0  0
 16 40  1  0  0  0  0
 16 17  1  0  0  0  0
 17 18  1  0  0  0  0
 18 20  2  0  0  0  0
 18 19  1  0  0  0  0
 20 21  1  0  0  0  0
 22 23  2  0  0  0  0
 22 20  1  0  0  0  0
 23 50  1  0  0  0  0
 23 24  1  0  0  0  0
 24  4  1  0  0  0  0
 25 27  2  0  0  0  0
 25 24  1  0  0  0  0
 26 25  1  0  0  0  0
 27 28  1  0  0  0  0
 28  4  2  0  0  0  0
 29 28  1  0  0  0  0
 30 38  1  0  0  0  0
 31 30  2  0  0  0  0
 31 32  1  0  0  0  0
 32 34  2  0  0  0  0
 33 32  1  0  0  0  0
 34 36  1  0  0  0  0
 34 35  1  0  0  0  0
 36 37  1  0  0  0  0
 38 39  1  0  0  0  0
 38 36  2  0  0  0  0
 40 41  2  0  0  0  0
 40 48  1  0  0  0  0
 41 42  1  0  0  0  0
 42 43  1  0  0  0  0
 42 44  2  0  0  0  0
 44 45  1  0  0  0  0
 46 44  1  0  0  0  0
 46 47  1  0  0  0  0
 48 46  2  0  0  0  0
 49 48  1  0  0  0  0
 50 59  1  0  0  0  0
 51 53  1  0  0  0  0
 51 50  2  0  0  0  0
 52 51  1  0  0  0  0
 53 55  2  0  0  0  0
 54 53  1  0  0  0  0
 55 56  1  0  0  0  0
 55 57  1  0  0  0  0
 57 58  1  0  0  0  0
 59 57  2  0  0  0  0
 59 60  1  0  0  0  0
 61 29  1  0  0  0  0
 62 61  1  0  0  0  0
 62 27  1  0  0  0  0
 63 62  2  0  0  0  0
 64 63  1  0  0  0  0
 65 67  2  0  0  0  0
 65 63  1  0  0  0  0
 66 65  1  0  0  0  0
 67 69  1  0  0  0  0
 68 67  1  0  0  0  0
 69 70  1  0  0  0  0
 69 61  2  0  0  0  0
M  END
