1,16,24
q = 0.0, confidence = 1.0

 39 40  0  0  1  0  0  0  0  0999 V2000
   -0.3935   -1.9752   -0.0017 N   0  0  0  0  0  0  0  0  0  0  0  0
    0.5420   -2.4108   -0.0021 H   0  0  0  0  0  0  0  0  0  0  0  0
   -1.1117   -2.2958    1.2733 C   0  0  0  0  0  0  0  0  0  0  0  0
   -0.7068   -3.2198    1.7323 H   0  0  0  0  0  0  0  0  0  0  0  0
   -2.1723   -2.5021    1.0354 H   0  0  0  0  0  0  0  0  0  0  0  0
   -0.9677   -1.1284    2.2542 C   0  0  0  0  0  0  0  0  0  0  0  0
   -1.7024   -1.2134    3.0839 H   0  0  0  0  0  0  0  0  0  0  0  0
    0.0501   -1.1411    2.6830 H   0  0  0  0  0  0  0  0  0  0  0  0
   -1.1161    0.1848    1.5440 N   0  0  2  0  0  0  0  0  0  0  0  0
   -0.4068    1.2999    2.2620 C   0  0  0  0  0  0  0  0  0  0  0  0
    0.5407    0.8808    2.6444 H   0  0  0  0  0  0  0  0  0  0  0  0
   -1.0122    1.6699    3.1178 H   0  0  0  0  0  0  0  0  0  0  0  0
   -0.0998    2.4212    1.2692 C   0  0  0  0  0  0  0  0  0  0  0  0
   -1.0081    3.0100    1.0287 H   0  0  0  0  0  0  0  0  0  0  0  0
    0.6280    3.1285    1.7165 H   0  0  0  0  0  0  0  0  0  0  0  0
    0.4324    1.8364    0.0015 N   0  0  0  0  0  0  0  0  0  0  0  0
    1.4909    1.8579    0.0019 H   0  0  0  0  0  0  0  0  0  0  0  0
   -0.0988    2.4232   -1.2656 C   0  0  0  0  0  0  0  0  0  0  0  0
    0.6298    3.1305   -1.7116 H   0  0  0  0  0  0  0  0  0  0  0  0
   -1.0067    3.0126   -1.0247 H   0  0  0  0  0  0  0  0  0  0  0  0
   -0.4063    1.3035   -2.2601 C   0  0  0  0  0  0  0  0  0  0  0  0
   -1.0117    1.6750   -3.1152 H   0  0  0  0  0  0  0  0  0  0  0  0
    0.5410    0.8848   -2.6432 H   0  0  0  0  0  0  0  0  0  0  0  0
   -1.1159    0.1875   -1.5438 N   0  0  2  0  0  0  0  0  0  0  0  0
   -0.9679   -1.1246   -2.2560 C   0  0  0  0  0  0  0  0  0  0  0  0
    0.0500   -1.1367   -2.6850 H   0  0  0  0  0  0  0  0  0  0  0  0
   -1.7026   -1.2081   -3.0858 H   0  0  0  0  0  0  0  0  0  0  0  0
   -1.1118   -2.2936   -1.2771 C   0  0  0  0  0  0  0  0  0  0  0  0
   -2.1724   -2.5004   -1.0395 H   0  0  0  0  0  0  0  0  0  0  0  0
   -0.7069   -3.2169   -1.7377 H   0  0  0  0  0  0  0  0  0  0  0  0
   -2.5401    0.5510    1.2824 C   0  0  0  0  0  0  0  0  0  0  0  0
   -2.5954    1.6564    1.2373 H   0  0  0  0  0  0  0  0  0  0  0  0
   -3.1459    0.2438    2.1619 H   0  0  0  0  0  0  0  0  0  0  0  0
   -3.1555   -0.0026   -0.0002 C   0  0  0  0  0  0  0  0  0  0  0  0
   -3.1841   -1.1067   -0.0014 H   0  0  0  0  0  0  0  0  0  0  0  0
   -4.2217    0.3059   -0.0000 H   0  0  0  0  0  0  0  0  0  0  0  0
   -2.5397    0.5538   -1.2815 C   0  0  0  0  0  0  0  0  0  0  0  0
   -3.1455    0.2489   -2.1618 H   0  0  0  0  0  0  0  0  0  0  0  0
   -2.5944    1.6591   -1.2338 H   0  0  0  0  0  0  0  0  0  0  0  0
  1  3  1  0  0  0  0
  2  1  1  0  0  0  0
  3  4  1  0  0  0  0
  3  6  1  0  0  0  0
  5  3  1  0  0  0  0
  6  8  1  0  0  0  0
  6  7  1  0  0  0  0
  9 31  1  1  0  0  0
  9  6  1  0  0  0  0
  9 10  1  0  0  0  0
 10 11  1  0  0  0  0
 10 12  1  0  0  0  0
 13 15  1  0  0  0  0
 13 10  1  0  0  0  0
 14 13  1  0  0  0  0
 16 17  1  0  0  0  0
 16 13  1  0  0  0  0
 18 20  1  0  0  0  0
 18 16  1  0  0  0  0
 19 18  1  0  0  0  0
 21 18  1  0  0  0  0
 22 21  1  0  0  0  0
 23 21  1  0  0  0  0
 24 21  1  6  0  0  0
 24 37  1  0  0  0  0
 25 24  1  0  0  0  0
 25 28  1  0  0  0  0
 26 25  1  0  0  0  0
 27 25  1  0  0  0  0
 28 29  1  0  0  0  0
 28  1  1  0  0  0  0
 30 28  1  0  0  0  0
 31 33  1  0  0  0  0
 32 31  1  0  0  0  0
 34 36  1  0  0  0  0
 34 31  1  0  0  0  0
 35 34  1  0  0  0  0
 37 39  1  0  0  0  0
 37 34  1  0  0  0  0
 38 37  1  0  0  0  0
M  END
