1,3,5,7
q = 0.0, confidence = 0.988

 64 66  0  0  1  0  0  0  0  0999 V2000
    1.9775   -0.9244   -0.2970 N   0  0  0  0  0  0  0  0  0  0  0  0
    2.0687   -1.9545   -0.1996 H   0  0  0  0  0  0  0  0  0  0  0  0
   -0.1899   -0.7247   -1.9752 N   0  0  0  0  0  0  0  0  0  0  0  0
   -0.2795    0.2957   -2.1326 H   0  0  0  0  0  0  0  0  0  0  0  0
   -1.9542   -0.6359    0.3772 N   0  0  0  0  0  0  0  0  0  0  0  0
   -2.0911    0.3894    0.3191 H   0  0  0  0  0  0  0  0  0  0  0  0
    0.2286   -0.8463    2.0331 N   0  0  0  0  0  0  0  0  0  0  0  0
    0.3357   -1.8752    2.1292 H   0  0  0  0  0  0  0  0  0  0  0  0
    2.2132   -0.5638   -1.7116 C   0  0  0  0  0  0  0  0  0  0  0  0
    3.2093   -0.9125   -2.0523 H   0  0  0  0  0  0  0  0  0  0  0  0
    2.1977    0.5437   -1.7794 H   0  0  0  0  0  0  0  0  0  0  0  0
    1.1059   -1.1714   -2.5364 C   0  0  0  0  0  0  0  0  0  0  0  0
    1.2123   -0.8809   -3.6007 H   0  0  0  0  0  0  0  0  0  0  0  0
    1.1286   -2.2786   -2.4720 H   0  0  0  0  0  0  0  0  0  0  0  0
   -1.3620   -1.4030   -2.6032 C   0  0  1  0  0  0  0  0  0  0  0  0
   -1.2532   -2.4764   -2.3401 H   0  0  0  0  0  0  0  0  0  0  0  0
   -2.6608   -0.8753   -1.9980 C   0  0  0  0  0  0  0  0  0  0  0  0
   -3.5024   -1.2666   -2.6019 H   0  0  0  0  0  0  0  0  0  0  0  0
   -2.7104    0.2326   -2.1012 H   0  0  0  0  0  0  0  0  0  0  0  0
   -2.9221   -1.2900   -0.5514 C   0  0  2  0  0  0  0  0  0  0  0  0
   -2.7334   -2.3789   -0.4552 H   0  0  0  0  0  0  0  0  0  0  0  0
   -2.1707   -1.0557    1.7794 C   0  0  0  0  0  0  0  0  0  0  0  0
   -2.1205   -2.1634    1.8019 H   0  0  0  0  0  0  0  0  0  0  0  0
   -3.1733   -0.7468    2.1391 H   0  0  0  0  0  0  0  0  0  0  0  0
   -1.0723   -0.4535    2.6200 C   0  0  0  0  0  0  0  0  0  0  0  0
   -1.1222    0.6552    2.6065 H   0  0  0  0  0  0  0  0  0  0  0  0
   -1.1638   -0.7907    3.6720 H   0  0  0  0  0  0  0  0  0  0  0  0
    1.3897   -0.1696    2.6792 C   0  0  2  0  0  0  0  0  0  0  0  0
    1.2712    0.9095    2.4417 H   0  0  0  0  0  0  0  0  0  0  0  0
    2.6975   -0.6681    2.0689 C   0  0  0  0  0  0  0  0  0  0  0  0
    3.5320   -0.2553    2.6681 H   0  0  0  0  0  0  0  0  0  0  0  0
    2.7733   -1.7739    2.1765 H   0  0  0  0  0  0  0  0  0  0  0  0
    2.9455   -0.2575    0.6187 C   0  0  1  0  0  0  0  0  0  0  0  0
    2.7481    0.8301    0.5190 H   0  0  0  0  0  0  0  0  0  0  0  0
   -1.3741   -1.2356   -4.1274 C   0  0  0  0  0  0  0  0  0  0  0  0
   -0.5017   -1.7056   -4.6183 H   0  0  0  0  0  0  0  0  0  0  0  0
   -1.4071   -0.1638   -4.4158 H   0  0  0  0  0  0  0  0  0  0  0  0
   -2.2778   -1.7202   -4.5443 H   0  0  0  0  0  0  0  0  0  0  0  0
   -4.3548   -0.9895   -0.1359 C   0  0  0  0  0  0  0  0  0  0  0  0
   -5.2228   -2.0357    0.2272 C   0  0  0  0  0  0  0  0  0  0  0  0
   -4.8566   -3.0747    0.2119 H   0  0  0  0  0  0  0  0  0  0  0  0
   -6.5471   -1.7648    0.6054 C   0  0  0  0  0  0  0  0  0  0  0  0
   -7.2165   -2.5925    0.8835 H   0  0  0  0  0  0  0  0  0  0  0  0
   -7.0141   -0.4420    0.6314 C   0  0  0  0  0  0  0  0  0  0  0  0
   -8.0512   -0.2284    0.9299 H   0  0  0  0  0  0  0  0  0  0  0  0
   -6.1544    0.6097    0.2736 C   0  0  0  0  0  0  0  0  0  0  0  0
   -6.5175    1.6482    0.2882 H   0  0  0  0  0  0  0  0  0  0  0  0
   -4.8337    0.3372   -0.1108 C   0  0  0  0  0  0  0  0  0  0  0  0
   -4.1762    1.1750   -0.3988 H   0  0  0  0  0  0  0  0  0  0  0  0
    1.4023   -0.3691    4.1998 C   0  0  0  0  0  0  0  0  0  0  0  0
    2.3041    0.1097    4.6272 H   0  0  0  0  0  0  0  0  0  0  0  0
    1.4394   -1.4468    4.4645 H   0  0  0  0  0  0  0  0  0  0  0  0
    0.5277    0.0861    4.7005 H   0  0  0  0  0  0  0  0  0  0  0  0
    4.3813   -0.5421    0.2025 C   0  0  0  0  0  0  0  0  0  0  0  0
    5.2430    0.5163   -0.1391 C   0  0  0  0  0  0  0  0  0  0  0  0
    4.8683    1.5521   -0.1094 H   0  0  0  0  0  0  0  0  0  0  0  0
    6.5719    0.2622   -0.5128 C   0  0  0  0  0  0  0  0  0  0  0  0
    7.2366    1.0993   -0.7737 H   0  0  0  0  0  0  0  0  0  0  0  0
    7.0496   -1.0563   -0.5561 C   0  0  0  0  0  0  0  0  0  0  0  0
    8.0902   -1.2572   -0.8513 H   0  0  0  0  0  0  0  0  0  0  0  0
    6.1959   -2.1201   -0.2202 C   0  0  0  0  0  0  0  0  0  0  0  0
    6.5667   -3.1555   -0.2499 H   0  0  0  0  0  0  0  0  0  0  0  0
    4.8707   -1.8643    0.1600 C   0  0  0  0  0  0  0  0  0  0  0  0
    4.2174   -2.7116    0.4279 H   0  0  0  0  0  0  0  0  0  0  0  0
  1  2  1  0  0  0  0
  1 33  1  0  0  0  0
  4  3  1  0  0  0  0
  5 22  1  0  0  0  0
  6  5  1  0  0  0  0
  7  8  1  0  0  0  0
  7 25  1  0  0  0  0
  7 28  1  0  0  0  0
  9  1  1  0  0  0  0
 10  9  1  0  0  0  0
 11  9  1  0  0  0  0
 12 14  1  0  0  0  0
 12  3  1  0  0  0  0
 12  9  1  0  0  0  0
 13 12  1  0  0  0  0
 15 16  1  1  0  0  0
 15 17  1  0  0  0  0
 15  3  1  0  0  0  0
 17 20  1  0  0  0  0
 18 17  1  0  0  0  0
 19 17  1  0  0  0  0
 20 21  1  1  0  0  0
 20 39  1  0  0  0  0
 20  5  1  0  0  0  0
 22 23  1  0  0  0  0
 22 24  1  0  0  0  0
 22 25  1  0  0  0  0
 25 27  1  0  0  0  0
 26 25  1  0  0  0  0
 28 29  1  6  0  0  0
 28 50  1  0  0  0  0
 30 32  1  0  0  0  0
 30 31  1  0  0  0  0
 30 28  1  0  0  0  0
 33 34  1  6  0  0  0
 33 30  1  0  0  0  0
 35 15  1  0  0  0  0
 36 35  1  0  0  0  0
 37 35  1  0  0  0  0
 38 35  1  0  0  0  0
 39 48  2  0  0  0  0
 39 40  1  0  0  0  0
 40 42  2  0  0  0  0
 41 40  1  0  0  0  0
 42 44  1  0  0  0  0
 42 43  1  0  0  0  0
 44 45  1  0  0  0  0
 46 47  1  0  0  0  0
 46 44  2  0  0  0  0
 48 46  1  0  0  0  0
 49 48  1  0  0  0  0
 50 52  1  0  0  0  0
 50 51  1  0  0  0  0
 50 53  1  0  0  0  0
 54 33  1  0  0  0  0
 55 56  1  0  0  0  0
 55 54  2  0  0  0  0
 57 55  1  0  0  0  0
 58 57  1  0  0  0  0
 59 57  2  0  0  0  0
 59 61  1  0  0  0  0
 60 59  1  0  0  0  0
 61 63  2  0  0  0  0
 62 61  1  0  0  0  0
 63 54  1  0  0  0  0
 63 64  1  0  0  0  0
M  END
