3,4,5,6
q = -2.0, confidence = 0.854

 63 64  0  0  1  0  0  0  0  0999 V2000
   -1.7664   -1.0124    2.5242 Si  0  0  0  0  0  0  0  0  0  0  0  0
    1.7989    2.4780    1.6515 Si  0  0  0  0  0  0  0  0  0  0  0  0
   -0.9966   -1.1405    0.9365 N   0  0  0  0  0  2  0  0  0  0  0  0
   -0.7068   -1.8136   -1.2243 N   0  0  0  0  0  2  0  0  0  0  0  0
    1.2798    1.3635    0.3827 N   0  0  0  0  0  2  0  0  0  0  0  0
    0.6635    0.6508   -1.6904 N   0  0  0  0  0  2  0  0  0  0  0  0
   -1.5427   -1.4220   -0.2596 C   0  0  2  0  0  3  0  0  0  0  0  0
    0.6029    1.6026   -0.7621 C   0  0  1  0  0  3  0  0  0  0  0  0
   -1.0738   -1.7997   -2.6265 C   0  0  0  0  0  0  0  0  0  0  0  0
   -2.1499   -1.5461   -2.7619 H   0  0  0  0  0  0  0  0  0  0  0  0
   -0.9362   -2.8172   -3.0613 H   0  0  0  0  0  0  0  0  0  0  0  0
   -0.2215   -0.8121   -3.4470 C   0  0  0  0  0  0  0  0  0  0  0  0
   -0.6225   -0.7845   -4.4824 H   0  0  0  0  0  0  0  0  0  0  0  0
    0.8224   -1.1899   -3.5201 H   0  0  0  0  0  0  0  0  0  0  0  0
   -0.1702    0.6133   -2.8791 C   0  0  0  0  0  0  0  0  0  0  0  0
    0.2395    1.2899   -3.6649 H   0  0  0  0  0  0  0  0  0  0  0  0
   -1.2063    0.9794   -2.6795 H   0  0  0  0  0  0  0  0  0  0  0  0
   -3.0169   -1.2547   -0.5164 C   0  0  0  0  0  0  0  0  0  0  0  0
   -3.5670    0.0307   -0.6913 C   0  0  0  0  0  0  0  0  0  0  0  0
   -2.9091    0.9110   -0.6443 H   0  0  0  0  0  0  0  0  0  0  0  0
   -4.9407    0.1884   -0.9269 C   0  0  0  0  0  0  0  0  0  0  0  0
   -5.3569    1.1978   -1.0672 H   0  0  0  0  0  0  0  0  0  0  0  0
   -5.7807   -0.9357   -0.9811 C   0  0  0  0  0  0  0  0  0  0  0  0
   -6.8598   -0.8113   -1.1584 H   0  0  0  0  0  0  0  0  0  0  0  0
   -5.2380   -2.2199   -0.8135 C   0  0  0  0  0  0  0  0  0  0  0  0
   -5.8914   -3.1047   -0.8580 H   0  0  0  0  0  0  0  0  0  0  0  0
   -3.8615   -2.3798   -0.5923 C   0  0  0  0  0  0  0  0  0  0  0  0
   -3.4315   -3.3856   -0.4688 H   0  0  0  0  0  0  0  0  0  0  0  0
   -0.2326    2.8356   -0.9533 C   0  0  0  0  0  0  0  0  0  0  0  0
    0.0668    3.7637   -1.9706 C   0  0  0  0  0  0  0  0  0  0  0  0
    0.9350    3.5880   -2.6242 H   0  0  0  0  0  0  0  0  0  0  0  0
   -0.7202    4.9130   -2.1359 C   0  0  0  0  0  0  0  0  0  0  0  0
   -0.4681    5.6408   -2.9223 H   0  0  0  0  0  0  0  0  0  0  0  0
   -1.8285    5.1351   -1.3019 C   0  0  0  0  0  0  0  0  0  0  0  0
   -2.4487    6.0342   -1.4366 H   0  0  0  0  0  0  0  0  0  0  0  0
   -2.1420    4.2068   -0.2961 C   0  0  0  0  0  0  0  0  0  0  0  0
   -3.0111    4.3721    0.3591 H   0  0  0  0  0  0  0  0  0  0  0  0
   -1.3432    3.0675   -0.1173 C   0  0  0  0  0  0  0  0  0  0  0  0
   -1.5740    2.3422    0.6762 H   0  0  0  0  0  0  0  0  0  0  0  0
   -2.7649   -2.5819    2.8841 C   0  0  0  0  0  0  0  0  0  0  0  0
   -3.6357   -2.6747    2.2043 H   0  0  0  0  0  0  0  0  0  0  0  0
   -3.1447   -2.5742    3.9271 H   0  0  0  0  0  0  0  0  0  0  0  0
   -2.1288   -3.4823    2.7591 H   0  0  0  0  0  0  0  0  0  0  0  0
   -2.9164    0.4887    2.6909 C   0  0  0  0  0  0  0  0  0  0  0  0
   -2.3730    1.4364    2.4981 H   0  0  0  0  0  0  0  0  0  0  0  0
   -3.3130    0.5411    3.7267 H   0  0  0  0  0  0  0  0  0  0  0  0
   -3.7776    0.4337    1.9963 H   0  0  0  0  0  0  0  0  0  0  0  0
   -0.3768   -0.8522    3.7864 C   0  0  0  0  0  0  0  0  0  0  0  0
    0.3178   -1.7131    3.7208 H   0  0  0  0  0  0  0  0  0  0  0  0
   -0.7903   -0.7969    4.8145 H   0  0  0  0  0  0  0  0  0  0  0  0
    0.2258    0.0623    3.6140 H   0  0  0  0  0  0  0  0  0  0  0  0
    2.5625    4.0332    0.8762 C   0  0  0  0  0  0  0  0  0  0  0  0
    3.4009    3.7789    0.1951 H   0  0  0  0  0  0  0  0  0  0  0  0
    2.9615    4.7049    1.6647 H   0  0  0  0  0  0  0  0  0  0  0  0
    1.8097    4.6020    0.2933 H   0  0  0  0  0  0  0  0  0  0  0  0
    3.1102    1.5356    2.6275 C   0  0  0  0  0  0  0  0  0  0  0  0
    2.7259    0.5559    2.9796 H   0  0  0  0  0  0  0  0  0  0  0  0
    3.4496    2.1169    3.5092 H   0  0  0  0  0  0  0  0  0  0  0  0
    3.9963    1.3226    1.9948 H   0  0  0  0  0  0  0  0  0  0  0  0
    0.4236    3.0344    2.8322 C   0  0  0  0  0  0  0  0  0  0  0  0
   -0.2770    3.7379    2.3404 H   0  0  0  0  0  0  0  0  0  0  0  0
    0.8709    3.5544    3.7052 H   0  0  0  0  0  0  0  0  0  0  0  0
   -0.1606    2.1747    3.2164 H   0  0  0  0  0  0  0  0  0  0  0  0
  1 44  1  0  0  0  0
  1 40  1  0  0  0  0
  1 48  1  0  0  0  0
  2 56  1  0  0  0  0
  2 60  1  0  0  0  0
  3  1  1  0  0  0  0
  5  2  1  0  0  0  0
  7  4  1  6  0  0  0
  7  3  1  0  0  0  0
  8  6  1  1  0  0  0
  8  5  1  0  0  0  0
  9  4  1  0  0  0  0
 10  9  1  0  0  0  0
 11  9  1  0  0  0  0
 12 15  1  0  0  0  0
 12  9  1  0  0  0  0
 13 12  1  0  0  0  0
 14 12  1  0  0  0  0
 15 17  1  0  0  0  0
 15  6  1  0  0  0  0
 16 15  1  0  0  0  0
 18  7  1  0  0  0  0
 19 20  1  0  0  0  0
 19 18  2  0  0  0  0
 21 19  1  0  0  0  0
 22 21  1  0  0  0  0
 23 21  2  0  0  0  0
 23 25  1  0  0  0  0
 24 23  1  0  0  0  0
 25 27  2  0  0  0  0
 26 25  1  0  0  0  0
 27 18  1  0  0  0  0
 27 28  1  0  0  0  0
 29  8  1  0  0  0  0
 29 38  1  0  0  0  0
 30 29  2  0  0  0  0
 31 30  1  0  0  0  0
 32 30  1  0  0  0  0
 32 34  2  0  0  0  0
 33 32  1  0  0  0  0
 34 36  1  0  0  0  0
 35 34  1  0  0  0  0
 36 38  2  0  0  0  0
 36 37  1  0  0  0  0
 38 39  1  0  0  0  0
 40 42  1  0  0  0  0
 41 40  1  0  0  0  0
 43 40  1  0  0  0  0
 44 46  1  0  0  0  0
 45 44  1  0  0  0  0
 47 44  1  0  0  0  0
 48 50  1  0  0  0  0
 49 48  1  0  0  0  0
 51 48  1  0  0  0  0
 52  2  1  0  0  0  0
 52 54  1  0  0  0  0
 53 52  1  0  0  0  0
 55 52  1  0  0  0  0
 56 57  1  0  0  0  0
 56 58  1  0  0  0  0
 59 56  1  0  0  0  0
 60 63  1  0  0  0  0
 60 62  1  0  0  0  0
 61 60  1  0  0  0  0
M  END
