1,2,3
q = -1.0, confidence = 0.0

 47 48  0  0  0  0  0  0  0  0999 V2000
    2.2511    0.6071   -1.7602 N   0  0  0  0  0  0  0  0  0  0  0  0
    2.1188    1.3424    0.9538 N   0  0  0  0  0  0  0  0  0  0  0  0
   -0.1629    2.1268   -0.6095 N   0  0  0  0  0  2  0  0  0  0  0  0
   -1.9883    0.8799    1.2333 N   0  0  0  0  0  0  0  0  0  0  0  0
    2.4684   -0.1177   -3.0225 C   0  0  0  0  0  0  0  0  0  0  0  0
    3.5180    0.6259   -0.9973 C   0  0  0  0  0  0  0  0  0  0  0  0
    3.3383    0.6526    0.5205 C   0  0  0  0  0  0  0  0  0  0  0  0
    2.0433    1.3165    2.4171 C   0  0  0  0  0  0  0  0  0  0  0  0
    1.9981    2.7099    0.4063 C   0  0  0  0  0  0  0  0  0  0  0  0
    1.1279    2.7551   -0.8860 C   0  0  0  0  0  0  0  0  0  0  0  0
    1.0217    4.2246   -1.3453 C   0  0  0  0  0  0  0  0  0  0  0  0
    1.7975    1.9883   -2.0522 C   0  0  0  0  0  0  0  0  0  0  0  0
   -1.1380    2.9289    0.0820 C   0  0  0  0  0  0  0  0  0  0  0  0
   -2.3577    2.0823    0.4435 C   0  0  0  0  0  0  0  0  0  0  0  0
   -1.6244    1.2184    2.6306 C   0  0  0  0  0  0  0  0  0  0  0  0
   -2.9553    1.3445    3.4183 C   0  0  0  0  0  0  0  0  0  0  0  0
   -3.9809    0.5498    2.5683 C   0  0  0  0  0  0  0  0  0  0  0  0
   -3.1334   -0.0449    1.4227 C   0  0  0  0  0  0  0  0  0  0  0  0
    3.2982    0.3352   -3.6187 H   0  0  0  0  0  0  0  0  0  0  0  0
    1.5482   -0.1030   -3.6312 H   0  0  0  0  0  0  0  0  0  0  0  0
    2.7216   -1.1733   -2.8057 H   0  0  0  0  0  0  0  0  0  0  0  0
    4.1371    1.4877   -1.3452 H   0  0  0  0  0  0  0  0  0  0  0  0
    4.0893   -0.2917   -1.2378 H   0  0  0  0  0  0  0  0  0  0  0  0
    3.2894   -0.3835    0.9086 H   0  0  0  0  0  0  0  0  0  0  0  0
    4.2487    1.1174    0.9794 H   0  0  0  0  0  0  0  0  0  0  0  0
    2.0787    0.2672    2.7711 H   0  0  0  0  0  0  0  0  0  0  0  0
    1.0963    1.7730    2.7573 H   0  0  0  0  0  0  0  0  0  0  0  0
    2.8912    1.8703    2.8911 H   0  0  0  0  0  0  0  0  0  0  0  0
    3.0063    3.1692    0.2589 H   0  0  0  0  0  0  0  0  0  0  0  0
    1.4806    3.3374    1.1602 H   0  0  0  0  0  0  0  0  0  0  0  0
    0.3810    4.2972   -2.2472 H   0  0  0  0  0  0  0  0  0  0  0  0
    2.0171    4.6474   -1.5909 H   0  0  0  0  0  0  0  0  0  0  0  0
    0.5728    4.8620   -0.5590 H   0  0  0  0  0  0  0  0  0  0  0  0
    1.0348    1.9292   -2.8534 H   0  0  0  0  0  0  0  0  0  0  0  0
    2.6655    2.5754   -2.4456 H   0  0  0  0  0  0  0  0  0  0  0  0
   -1.5288    3.7893   -0.5222 H   0  0  0  0  0  0  0  0  0  0  0  0
   -0.7479    3.4158    1.0240 H   0  0  0  0  0  0  0  0  0  0  0  0
   -3.1131    2.7105    0.9730 H   0  0  0  0  0  0  0  0  0  0  0  0
   -2.8264    1.7130   -0.4921 H   0  0  0  0  0  0  0  0  0  0  0  0
   -1.0103    2.1386    2.6561 H   0  0  0  0  0  0  0  0  0  0  0  0
   -1.0123    0.3830    3.0273 H   0  0  0  0  0  0  0  0  0  0  0  0
   -2.8452    0.9381    4.4426 H   0  0  0  0  0  0  0  0  0  0  0  0
   -3.2585    2.4047    3.5262 H   0  0  0  0  0  0  0  0  0  0  0  0
   -4.4949   -0.2438    3.1442 H   0  0  0  0  0  0  0  0  0  0  0  0
   -4.7693    1.2187    2.1687 H   0  0  0  0  0  0  0  0  0  0  0  0
   -2.7201   -1.0295    1.7209 H   0  0  0  0  0  0  0  0  0  0  0  0
   -3.6790   -0.1886    0.4726 H   0  0  0  0  0  0  0  0  0  0  0  0
  1  6  1  0  0  0  0
  2  8  1  0  0  0  0
  3 13  1  0  0  0  0
  4 18  1  0  0  0  0
  4 15  1  0  0  0  0
  5 21  1  0  0  0  0
  5  1  1  0  0  0  0
  6  7  1  0  0  0  0
  7 24  1  0  0  0  0
  7  2  1  0  0  0  0
  7 25  1  0  0  0  0
  8 27  1  0  0  0  0
  8 26  1  0  0  0  0
  8 28  1  0  0  0  0
  9  2  1  0  0  0  0
  9 30  1  0  0  0  0
 10  3  1  0  0  0  0
 10  9  1  0  0  0  0
 11 10  1  0  0  0  0
 11 33  1  0  0  0  0
 12  1  1  0  0  0  0
 12 10  1  0  0  0  0
 13 14  1  0  0  0  0
 13 37  1  0  0  0  0
 14 38  1  0  0  0  0
 14  4  1  0  0  0  0
 15 40  1  0  0  0  0
 15 41  1  0  0  0  0
 15 16  1  0  0  0  0
 16 43  1  0  0  0  0
 16 42  1  0  0  0  0
 17 44  1  0  0  0  0
 17 16  1  0  0  0  0
 18 46  1  0  0  0  0
 18 17  1  0  0  0  0
 19  5  1  0  0  0  0
 20  5  1  0  0  0  0
 22  6  1  0  0  0  0
 23  6  1  0  0  0  0
 29  9  1  0  0  0  0
 31 11  1  0  0  0  0
 32 11  1  0  0  0  0
 34 12  1  0  0  0  0
 35 12  1  0  0  0  0
 36 13  1  0  0  0  0
 39 14  1  0  0  0  0
 45 17  1  0  0  0  0
 47 18  1  0  0  0  0
M  END
