5,6,7,11
q = -2.0, confidence = 0.924

 52 56  0  0  0  0  0  0  0  0999 V2000
   -5.5015   -1.5141   -0.2710 Cl  0  0  0  0  0  0  0  0  0  0  0  0
   -5.4373    1.5909   -1.0169 Cl  0  0  0  0  0  0  0  0  0  0  0  0
    5.5016   -1.5145   -0.2705 Cl  0  0  0  0  0  0  0  0  0  0  0  0
    5.4376    1.5908   -1.0149 Cl  0  0  0  0  0  0  0  0  0  0  0  0
   -1.5343   -1.2817   -0.4717 N   0  0  0  0  0  0  0  0  0  0  0  0
    1.5345   -1.2816   -0.4715 N   0  0  0  0  0  0  0  0  0  0  0  0
   -1.5378    1.3455   -0.2781 N   0  0  0  0  0  0  0  0  0  0  0  0
   -2.7720   -0.6822   -0.4715 C   0  0  0  0  0  3  0  0  0  0  0  0
   -2.7677    0.7544   -0.4476 C   0  0  0  0  0  0  0  0  0  0  0  0
   -3.5333   -4.2192   -0.4674 O   0  0  0  0  0  0  0  0  0  0  0  0
    1.5378    1.3456   -0.2779 N   0  0  0  0  0  0  0  0  0  0  0  0
   -3.0986    3.0127   -0.4520 C   0  0  0  0  0  0  0  0  0  0  0  0
   -1.6844    2.6993   -0.2714 C   0  0  0  0  0  3  0  0  0  0  0  0
   -3.7706    1.7936   -0.5826 C   0  0  0  0  0  0  0  0  0  0  0  0
   -3.7901   -1.7156   -0.4630 C   0  0  0  0  0  0  0  0  0  0  0  0
    2.7677    0.7546   -0.4472 C   0  0  0  0  0  0  0  0  0  0  0  0
   -0.6995   -3.6491   -0.4990 C   0  0  0  0  0  0  0  0  0  0  0  0
   -1.1543   -4.6526   -0.5186 H   0  0  0  0  0  0  0  0  0  0  0  0
    3.7902   -1.7155   -0.4628 C   0  0  0  0  0  0  0  0  0  0  0  0
    0.6996    3.7085   -0.1489 C   0  0  0  0  0  0  0  0  0  0  0  0
    1.1535    4.7113   -0.0990 H   0  0  0  0  0  0  0  0  0  0  0  0
   -3.4953    4.2984   -0.5013 O   0  0  0  0  0  0  0  0  0  0  0  0
    0.6997   -3.6491   -0.4990 C   0  0  0  0  0  0  0  0  0  0  0  0
    1.1546   -4.6525   -0.5186 H   0  0  0  0  0  0  0  0  0  0  0  0
   -0.6997    3.7084   -0.1491 C   0  0  0  0  0  0  0  0  0  0  0  0
   -1.1537    4.7112   -0.0994 H   0  0  0  0  0  0  0  0  0  0  0  0
    2.7721   -0.6820   -0.4712 C   0  0  0  0  0  3  0  0  0  0  0  0
   -1.6869   -2.6349   -0.4836 C   0  0  0  0  0  0  0  0  0  0  0  0
    3.4950    4.2987   -0.4996 O   0  0  0  0  0  0  0  0  0  0  0  0
   -3.1144   -2.9390   -0.4795 C   0  0  0  0  0  0  0  0  0  0  0  0
    1.6844    2.6994   -0.2709 C   0  0  0  0  0  3  0  0  0  0  0  0
    3.0986    3.0129   -0.4510 C   0  0  0  0  0  0  0  0  0  0  0  0
    3.7707    1.7939   -0.5817 C   0  0  0  0  0  0  0  0  0  0  0  0
    1.6870   -2.6347   -0.4835 C   0  0  0  0  0  0  0  0  0  0  0  0
    3.5337   -4.2189   -0.4673 O   0  0  0  0  0  0  0  0  0  0  0  0
    3.1146   -2.9388   -0.4795 C   0  0  0  0  0  0  0  0  0  0  0  0
   -4.8691    4.6382   -0.3383 C   0  0  0  0  0  0  0  0  0  0  0  0
   -5.4712    4.3585   -1.2259 H   0  0  0  0  0  0  0  0  0  0  0  0
   -4.8956    5.7361   -0.2043 H   0  0  0  0  0  0  0  0  0  0  0  0
   -5.3034    4.1445    0.5566 H   0  0  0  0  0  0  0  0  0  0  0  0
   -4.8274   -4.5532   -0.9636 C   0  0  0  0  0  0  0  0  0  0  0  0
   -5.6294   -4.2642   -0.2552 H   0  0  0  0  0  0  0  0  0  0  0  0
   -4.8286   -5.6517   -1.0964 H   0  0  0  0  0  0  0  0  0  0  0  0
   -5.0205   -4.0619   -1.9408 H   0  0  0  0  0  0  0  0  0  0  0  0
    4.8693    4.6388   -0.3420 C   0  0  0  0  0  0  0  0  0  0  0  0
    5.3070    4.1459    0.5516 H   0  0  0  0  0  0  0  0  0  0  0  0
    4.8961    5.7368   -0.2091 H   0  0  0  0  0  0  0  0  0  0  0  0
    5.4680    4.3584   -1.2316 H   0  0  0  0  0  0  0  0  0  0  0  0
    4.8268   -4.5528   -0.9663 C   0  0  0  0  0  0  0  0  0  0  0  0
    5.0180   -4.0610   -1.9436 H   0  0  0  0  0  0  0  0  0  0  0  0
    4.8276   -5.6513   -1.0996 H   0  0  0  0  0  0  0  0  0  0  0  0
    5.6302   -4.2642   -0.2594 H   0  0  0  0  0  0  0  0  0  0  0  0
  2 14  1  0  0  0  0
  4 33  1  0  0  0  0
  5  8  1  0  0  0  0
  6 27  1  0  0  0  0
  7 13  1  0  0  0  0
  8 15  1  0  0  0  0
  8  9  1  0  0  0  0
  9  7  2  0  0  0  0
 11 31  1  0  0  0  0
 12 13  1  0  0  0  0
 13 25  1  0  0  0  0
 14 12  2  0  0  0  0
 14  9  1  0  0  0  0
 15  1  1  0  0  0  0
 16 11  2  0  0  0  0
 17 23  2  0  0  0  0
 17 28  1  0  0  0  0
 18 17  1  0  0  0  0
 19  3  1  0  0  0  0
 20 21  1  0  0  0  0
 22 12  1  0  0  0  0
 22 37  1  0  0  0  0
 23 34  1  0  0  0  0
 24 23  1  0  0  0  0
 25 20  2  0  0  0  0
 25 26  1  0  0  0  0
 27 19  1  0  0  0  0
 27 16  1  0  0  0  0
 28 30  1  0  0  0  0
 28  5  2  0  0  0  0
 29 32  1  0  0  0  0
 29 45  1  0  0  0  0
 30 10  1  0  0  0  0
 30 15  2  0  0  0  0
 31 20  1  0  0  0  0
 32 31  1  0  0  0  0
 33 32  2  0  0  0  0
 33 16  1  0  0  0  0
 34 36  1  0  0  0  0
 34  6  2  0  0  0  0
 36 35  1  0  0  0  0
 36 19  2  0  0  0  0
 37 39  1  0  0  0  0
 37 40  1  0  0  0  0
 38 37  1  0  0  0  0
 41 10  1  0  0  0  0
 41 42  1  0  0  0  0
 43 41  1  0  0  0  0
 44 41  1  0  0  0  0
 45 47  1  0  0  0  0
 45 46  1  0  0  0  0
 48 45  1  0  0  0  0
 49 35  1  0  0  0  0
 49 52  1  0  0  0  0
 50 49  1  0  0  0  0
 51 49  1  0  0  0  0
M  END
