6,7,9,10
q = -2.0, confidence = 0.87

 52 56  0  0  0  0  0  0  0  0999 V2000
   -3.7862    4.5588   -0.5209 Cl  0  0  0  0  0  0  0  0  0  0  0  0
    3.8878    4.4869   -0.4261 Cl  0  0  0  0  0  0  0  0  0  0  0  0
    3.8792   -4.4802   -0.6923 Cl  0  0  0  0  0  0  0  0  0  0  0  0
   -3.7801   -4.5664   -0.5031 Cl  0  0  0  0  0  0  0  0  0  0  0  0
    5.0812   -1.4781   -0.8862 O   0  0  0  0  0  0  0  0  0  0  0  0
    1.5070    1.3334   -0.3808 N   0  0  0  0  0  0  0  0  0  0  0  0
   -1.5215   -1.3305   -0.3568 N   0  0  0  0  0  0  0  0  0  0  0  0
    5.1140    1.4927   -0.4725 O   0  0  0  0  0  0  0  0  0  0  0  0
   -1.5240    1.3263   -0.3558 N   0  0  0  0  0  0  0  0  0  0  0  0
    1.5110   -1.3330   -0.3732 N   0  0  0  0  0  0  0  0  0  0  0  0
   -0.7067    3.6909   -0.3154 C   0  0  0  0  0  0  0  0  0  0  0  0
   -1.1548    4.6976   -0.3026 H   0  0  0  0  0  0  0  0  0  0  0  0
    3.7761    1.7130   -0.4752 C   0  0  0  0  0  0  0  0  0  0  0  0
   -3.7928    1.7216   -0.5268 C   0  0  0  0  0  0  0  0  0  0  0  0
    0.7007   -3.6978   -0.3506 C   0  0  0  0  0  0  0  0  0  0  0  0
    1.1463   -4.7064   -0.3544 H   0  0  0  0  0  0  0  0  0  0  0  0
   -1.6981    2.6786   -0.3727 C   0  0  0  0  0  3  0  0  0  0  0  0
    2.7264    0.7165   -0.4631 C   0  0  0  0  0  0  0  0  0  0  0  0
    3.7662   -1.7059   -0.6461 C   0  0  0  0  0  0  0  0  0  0  0  0
    1.6868    2.6877   -0.3605 C   0  0  0  0  0  3  0  0  0  0  0  0
   -2.7433   -0.7173   -0.4439 C   0  0  0  0  0  0  0  0  0  0  0  0
   -5.0842    1.3747   -0.6322 O   0  0  0  0  0  0  0  0  0  0  0  0
    1.6899   -2.6868   -0.4150 C   0  0  0  0  0  3  0  0  0  0  0  0
    2.7254   -0.7124   -0.4933 C   0  0  0  0  0  0  0  0  0  0  0  0
   -5.0828   -1.3844   -0.6179 O   0  0  0  0  0  0  0  0  0  0  0  0
   -0.7002   -3.6941   -0.3279 C   0  0  0  0  0  0  0  0  0  0  0  0
   -1.1468   -4.7015   -0.3131 H   0  0  0  0  0  0  0  0  0  0  0  0
   -1.6938   -2.6831   -0.3704 C   0  0  0  0  0  3  0  0  0  0  0  0
    3.1162   -2.9367   -0.5704 C   0  0  0  0  0  0  0  0  0  0  0  0
   -2.7445    0.7112   -0.4452 C   0  0  0  0  0  0  0  0  0  0  0  0
    0.6945    3.6964   -0.3073 C   0  0  0  0  0  0  0  0  0  0  0  0
    1.1388    4.7052   -0.2829 H   0  0  0  0  0  0  0  0  0  0  0  0
    3.1196    2.9413   -0.4209 C   0  0  0  0  0  0  0  0  0  0  0  0
   -3.7905   -1.7293   -0.5177 C   0  0  0  0  0  0  0  0  0  0  0  0
   -3.1274    2.9504   -0.4723 C   0  0  0  0  0  0  0  0  0  0  0  0
   -3.1232   -2.9571   -0.4614 C   0  0  0  0  0  0  0  0  0  0  0  0
   -6.0828   -2.3857   -0.7557 C   0  0  0  0  0  0  0  0  0  0  0  0
   -5.9202   -3.0046   -1.6625 H   0  0  0  0  0  0  0  0  0  0  0  0
   -7.0413   -1.8414   -0.8481 H   0  0  0  0  0  0  0  0  0  0  0  0
   -6.1209   -3.0538    0.1296 H   0  0  0  0  0  0  0  0  0  0  0  0
   -6.0846    2.3741   -0.7798 C   0  0  0  0  0  0  0  0  0  0  0  0
   -6.1284    3.0460    0.1024 H   0  0  0  0  0  0  0  0  0  0  0  0
   -7.0419    1.8284   -0.8754 H   0  0  0  0  0  0  0  0  0  0  0  0
   -5.9175    2.9894   -1.6883 H   0  0  0  0  0  0  0  0  0  0  0  0
    5.9341   -1.5581    0.2568 C   0  0  0  0  0  0  0  0  0  0  0  0
    5.7013   -0.7494    0.9823 H   0  0  0  0  0  0  0  0  0  0  0  0
    6.9693   -1.4233   -0.1099 H   0  0  0  0  0  0  0  0  0  0  0  0
    5.8492   -2.5497    0.7522 H   0  0  0  0  0  0  0  0  0  0  0  0
    5.7436    1.5516   -1.7548 C   0  0  0  0  0  0  0  0  0  0  0  0
    5.3860    0.7291   -2.4100 H   0  0  0  0  0  0  0  0  0  0  0  0
    6.8290    1.4259   -1.5807 H   0  0  0  0  0  0  0  0  0  0  0  0
    5.5633    2.5334   -2.2437 H   0  0  0  0  0  0  0  0  0  0  0  0
  1 35  1  0  0  0  0
  2 33  1  0  0  0  0
  3 29  1  0  0  0  0
  4 36  1  0  0  0  0
  5 19  1  0  0  0  0
  5 45  1  0  0  0  0
  6 20  1  0  0  0  0
 11 31  2  0  0  0  0
 11 12  1  0  0  0  0
 13  8  1  0  0  0  0
 13 18  1  0  0  0  0
 13 33  2  0  0  0  0
 14 35  2  0  0  0  0
 14 30  1  0  0  0  0
 15 26  2  0  0  0  0
 16 15  1  0  0  0  0
 17  9  1  0  0  0  0
 17 11  1  0  0  0  0
 18  6  2  0  0  0  0
 19 29  2  0  0  0  0
 19 24  1  0  0  0  0
 20 31  1  0  0  0  0
 21  7  2  0  0  0  0
 22 14  1  0  0  0  0
 23 10  1  0  0  0  0
 23 15  1  0  0  0  0
 24 18  1  0  0  0  0
 24 10  2  0  0  0  0
 25 34  1  0  0  0  0
 26 27  1  0  0  0  0
 28  7  1  0  0  0  0
 28 26  1  0  0  0  0
 29 23  1  0  0  0  0
 30 21  1  0  0  0  0
 30  9  2  0  0  0  0
 31 32  1  0  0  0  0
 33 20  1  0  0  0  0
 34 36  2  0  0  0  0
 34 21  1  0  0  0  0
 35 17  1  0  0  0  0
 36 28  1  0  0  0  0
 37 25  1  0  0  0  0
 37 40  1  0  0  0  0
 38 37  1  0  0  0  0
 39 37  1  0  0  0  0
 41 22  1  0  0  0  0
 41 42  1  0  0  0  0
 43 41  1  0  0  0  0
 44 41  1  0  0  0  0
 45 48  1  0  0  0  0
 45 46  1  0  0  0  0
 47 45  1  0  0  0  0
 49 51  1  0  0  0  0
 49  8  1  0  0  0  0
 50 49  1  0  0  0  0
 52 49  1  0  0  0  0
M  END
