2,3,4,5
q = -2.0, confidence = 0.908

 72 79  0  0  0  0  0  0  0  0999 V2000
    0.0951   -5.3007   -1.9498 Cl  0  0  0  0  0  0  0  0  0  0  0  0
   -1.3429   -1.8635   -0.4296 N   0  0  0  0  0  2  0  0  0  0  0  0
   -1.3982    0.8625   -0.1386 N   0  0  0  0  0  0  0  0  0  0  0  0
    1.3431    0.9166   -0.1007 N   0  0  0  0  0  0  0  0  0  0  0  0
    1.4044   -1.7916   -0.4684 N   0  0  0  0  0  0  0  0  0  0  0  0
   -1.1613   -3.1671   -0.8615 C   0  0  0  0  0  0  0  0  0  0  0  0
   -2.3741   -3.9318   -0.7142 C   0  0  0  0  0  0  0  0  0  0  0  0
   -2.4756   -4.9897   -0.9757 H   0  0  0  0  0  0  0  0  0  0  0  0
   -3.2969   -3.0925   -0.1440 C   0  0  0  0  0  0  0  0  0  0  0  0
   -4.3252   -3.3197    0.1534 H   0  0  0  0  0  0  0  0  0  0  0  0
   -2.6691   -1.7956   -0.0264 C   0  0  0  0  0  0  0  0  0  0  0  0
   -3.3557   -0.6105    0.2796 C   0  0  0  0  0  0  0  0  0  0  0  0
   -2.7434    0.6413    0.1020 C   0  0  0  0  0  0  0  0  0  0  0  0
   -3.4858    1.8768   -0.0100 C   0  0  0  0  0  0  0  0  0  0  0  0
   -4.5703    1.9625    0.1131 H   0  0  0  0  0  0  0  0  0  0  0  0
   -2.5854    2.8509   -0.3560 C   0  0  0  0  0  0  0  0  0  0  0  0
   -2.7758    3.9083   -0.5643 H   0  0  0  0  0  0  0  0  0  0  0  0
   -1.2820    2.2253   -0.3761 C   0  0  0  0  0  0  0  0  0  0  0  0
   -0.0704    2.9273   -0.4558 C   0  0  0  0  0  0  0  0  0  0  0  0
    1.1528    2.2832   -0.2051 C   0  0  0  0  0  0  0  0  0  0  0  0
    2.3659    2.9900    0.1393 C   0  0  0  0  0  0  0  0  0  0  0  0
    2.4667    4.0800    0.1549 H   0  0  0  0  0  0  0  0  0  0  0  0
    3.2911    2.0414    0.4912 C   0  0  0  0  0  0  0  0  0  0  0  0
    4.3159    2.1906    0.8447 H   0  0  0  0  0  0  0  0  0  0  0  0
    2.6676    0.7536    0.2839 C   0  0  0  0  0  3  0  0  0  0  0  0
    3.3549   -0.4690    0.3105 C   0  0  0  0  0  0  0  0  0  0  0  0
    2.7455   -1.6456   -0.1572 C   0  0  0  0  0  0  0  0  0  0  0  0
    3.4806   -2.8364   -0.5191 C   0  0  0  0  0  0  0  0  0  0  0  0
    4.5589   -2.9666   -0.3818 H   0  0  0  0  0  0  0  0  0  0  0  0
    2.5828   -3.7038   -1.0872 C   0  0  0  0  0  0  0  0  0  0  0  0
    2.7551   -4.7065   -1.4903 H   0  0  0  0  0  0  0  0  0  0  0  0
    1.2934   -3.0632   -1.0118 C   0  0  0  0  0  0  0  0  0  0  0  0
    0.0714   -3.6953   -1.2623 C   0  0  0  0  0  0  0  0  0  0  0  0
   -4.7917   -0.6487    0.6738 C   0  0  0  0  0  0  0  0  0  0  0  0
   -5.1946   -0.1429    1.9277 C   0  0  0  0  0  0  0  0  0  0  0  0
   -4.4321    0.2581    2.6125 H   0  0  0  0  0  0  0  0  0  0  0  0
   -6.5437   -0.1521    2.3066 C   0  0  0  0  0  0  0  0  0  0  0  0
   -6.8309    0.2444    3.2936 H   0  0  0  0  0  0  0  0  0  0  0  0
   -7.5407   -0.6596    1.4497 C   0  0  0  0  0  0  0  0  0  0  0  0
   -7.1359   -1.1501    0.1906 C   0  0  0  0  0  0  0  0  0  0  0  0
   -7.8957   -1.5331   -0.5095 H   0  0  0  0  0  0  0  0  0  0  0  0
   -5.7891   -1.1469   -0.1928 C   0  0  0  0  0  0  0  0  0  0  0  0
   -5.5005   -1.5125   -1.1896 H   0  0  0  0  0  0  0  0  0  0  0  0
   -8.9883   -0.7000    1.8688 C   0  0  0  0  0  0  0  0  0  0  0  0
   -9.6663   -0.4945    1.0164 H   0  0  0  0  0  0  0  0  0  0  0  0
   -9.2039    0.0353    2.6684 H   0  0  0  0  0  0  0  0  0  0  0  0
   -9.2604   -1.7031    2.2629 H   0  0  0  0  0  0  0  0  0  0  0  0
   -0.0626    4.4006   -0.6808 C   0  0  0  0  0  0  0  0  0  0  0  0
    0.5834    4.9338   -1.8177 C   0  0  0  0  0  0  0  0  0  0  0  0
    1.0557    4.2451   -2.5344 H   0  0  0  0  0  0  0  0  0  0  0  0
    0.6167    6.3182   -2.0389 C   0  0  0  0  0  0  0  0  0  0  0  0
    1.1181    6.7157   -2.9345 H   0  0  0  0  0  0  0  0  0  0  0  0
    0.0104    7.1937   -1.1242 C   0  0  0  0  0  0  0  0  0  0  0  0
    0.0375    8.2804   -1.2970 H   0  0  0  0  0  0  0  0  0  0  0  0
   -0.6260    6.6762    0.0153 C   0  0  0  0  0  0  0  0  0  0  0  0
   -1.0919    7.3568    0.7442 H   0  0  0  0  0  0  0  0  0  0  0  0
   -0.6619    5.2917    0.2363 C   0  0  0  0  0  0  0  0  0  0  0  0
   -1.1424    4.8876    1.1398 H   0  0  0  0  0  0  0  0  0  0  0  0
    4.7858   -0.5244    0.7206 C   0  0  0  0  0  0  0  0  0  0  0  0
    5.7917    0.1603    0.0065 C   0  0  0  0  0  0  0  0  0  0  0  0
    5.5151    0.7471   -0.8822 H   0  0  0  0  0  0  0  0  0  0  0  0
    7.1344    0.0755    0.3990 C   0  0  0  0  0  0  0  0  0  0  0  0
    7.9021    0.6105   -0.1826 H   0  0  0  0  0  0  0  0  0  0  0  0
    7.5243   -0.6918    1.5151 C   0  0  0  0  0  0  0  0  0  0  0  0
    6.5173   -1.3843    2.2190 C   0  0  0  0  0  0  0  0  0  0  0  0
    6.7923   -1.9982    3.0916 H   0  0  0  0  0  0  0  0  0  0  0  0
    5.1744   -1.3061    1.8303 C   0  0  0  0  0  0  0  0  0  0  0  0
    4.4041   -1.8538    2.3941 H   0  0  0  0  0  0  0  0  0  0  0  0
    8.9641   -0.7552    1.9577 C   0  0  0  0  0  0  0  0  0  0  0  0
    9.2345   -1.7651    2.3258 H   0  0  0  0  0  0  0  0  0  0  0  0
    9.1550   -0.0462    2.7923 H   0  0  0  0  0  0  0  0  0  0  0  0
    9.6573   -0.4886    1.1362 H   0  0  0  0  0  0  0  0  0  0  0  0
  1 33  1  0  0  0  0
  2 11  1  0  0  0  0
  3 13  2  0  0  0  0
  4 25  1  0  0  0  0
  5 27  1  0  0  0  0
  6  7  1  0  0  0  0
  6  2  1  0  0  0  0
  7  9  2  0  0  0  0
  8  7  1  0  0  0  0
  9 11  1  0  0  0  0
  9 10  1  0  0  0  0
 11 12  2  0  0  0  0
 12 34  1  0  0  0  0
 13 12  1  0  0  0  0
 14 13  1  0  0  0  0
 14 15  1  0  0  0  0
 16 14  2  0  0  0  0
 17 16  1  0  0  0  0
 18 16  1  0  0  0  0
 18  3  1  0  0  0  0
 19 18  2  0  0  0  0
 19 20  1  0  0  0  0
 20  4  2  0  0  0  0
 20 21  1  0  0  0  0
 21 22  1  0  0  0  0
 21 23  2  0  0  0  0
 23 24  1  0  0  0  0
 25 26  1  0  0  0  0
 25 23  1  0  0  0  0
 26 59  1  0  0  0  0
 27 26  2  0  0  0  0
 28 29  1  0  0  0  0
 28 27  1  0  0  0  0
 30 32  1  0  0  0  0
 30 28  2  0  0  0  0
 31 30  1  0  0  0  0
 32  5  2  0  0  0  0
 33 32  1  0  0  0  0
 33  6  2  0  0  0  0
 34 35  1  0  0  0  0
 35 37  2  0  0  0  0
 35 36  1  0  0  0  0
 37 38  1  0  0  0  0
 39 44  1  0  0  0  0
 39 37  1  0  0  0  0
 40 39  2  0  0  0  0
 41 40  1  0  0  0  0
 42 40  1  0  0  0  0
 42 34  2  0  0  0  0
 43 42  1  0  0  0  0
 44 47  1  0  0  0  0
 44 46  1  0  0  0  0
 45 44  1  0  0  0  0
 48 19  1  0  0  0  0
 48 57  1  0  0  0  0
 49 48  2  0  0  0  0
 50 49  1  0  0  0  0
 51 49  1  0  0  0  0
 51 53  2  0  0  0  0
 52 51  1  0  0  0  0
 53 55  1  0  0  0  0
 54 53  1  0  0  0  0
 55 57  2  0  0  0  0
 55 56  1  0  0  0  0
 57 58  1  0  0  0  0
 59 67  1  0  0  0  0
 60 62  1  0  0  0  0
 60 59  2  0  0  0  0
 61 60  1  0  0  0  0
 62 64  2  0  0  0  0
 63 62  1  0  0  0  0
 64 69  1  0  0  0  0
 64 65  1  0  0  0  0
 65 66  1  0  0  0  0
 67 65  2  0  0  0  0
 67 68  1  0  0  0  0
 69 70  1  0  0  0  0
 69 71  1  0  0  0  0
 72 69  1  0  0  0  0
M  END
