3,4,5,6
q = -1.0

 45 45  0  0  1  0  0  0  0  0999 V2000
    3.4247   -0.2120    0.0778 O   0  0  0  0  0  1  0  0  0  0  0  0
    2.6995    2.0945    0.0696 O   0  0  0  0  0  0  0  0  0  0  0  0
    2.2524   -0.8054   -0.0636 N   0  0  0  0  0  2  0  0  0  0  0  0
    1.3984    1.9061   -0.0734 N   0  0  0  0  0  2  0  0  0  0  0  0
   -0.1666   -1.5340   -0.3793 N   0  0  0  0  0  2  0  0  0  0  0  0
   -0.9974    1.1121   -0.3957 N   0  0  0  0  0  2  0  0  0  0  0  0
    2.1910   -2.0631   -0.4315 C   0  0  2  0  0  3  0  0  0  0  0  0
    0.6280    2.8994   -0.4472 C   0  0  1  0  0  3  0  0  0  0  0  0
    0.8005   -2.6212   -0.5360 C   0  0  1  0  0  0  0  0  0  0  0  0
   -0.8302    2.5569   -0.5563 C   0  0  2  0  0  0  0  0  0  0  0  0
    3.4318   -2.8515   -0.6747 C   0  0  0  0  0  0  0  0  0  0  0  0
    1.1918    4.2564   -0.6943 C   0  0  0  0  0  0  0  0  0  0  0  0
    0.5839   -3.7420    0.5042 C   0  0  0  0  0  0  0  0  0  0  0  0
   -1.6565    3.3506    0.4792 C   0  0  0  0  0  0  0  0  0  0  0  0
   -1.4733   -1.8174   -0.9427 C   0  0  0  0  0  0  0  0  0  0  0  0
   -2.2207    0.5875   -0.9716 C   0  0  0  0  0  0  0  0  0  0  0  0
   -2.5483   -0.8303   -0.5042 C   0  0  0  0  0  0  0  0  0  0  0  0
   -4.0053   -1.2268   -0.8923 C   0  0  0  0  0  0  0  0  0  0  0  0
   -2.9745   -0.8796    0.9974 C   0  0  0  0  0  0  0  0  0  0  0  0
   -4.4610   -0.9135    0.5571 C   0  0  0  0  0  0  0  0  0  0  0  0
    0.6963   -3.0705   -1.5571 H   0  0  0  0  0  0  0  0  0  0  0  0
   -1.1691    2.8626   -1.5794 H   0  0  0  0  0  0  0  0  0  0  0  0
    3.2246   -3.7913   -1.2194 H   0  0  0  0  0  0  0  0  0  0  0  0
    3.9336   -3.1009    0.2859 H   0  0  0  0  0  0  0  0  0  0  0  0
    4.1544   -2.2293   -1.2408 H   0  0  0  0  0  0  0  0  0  0  0  0
    0.4825    4.9058   -1.2403 H   0  0  0  0  0  0  0  0  0  0  0  0
    1.4605    4.7507    0.2648 H   0  0  0  0  0  0  0  0  0  0  0  0
    2.1401    4.1602   -1.2611 H   0  0  0  0  0  0  0  0  0  0  0  0
    0.6950   -3.3246    1.5247 H   0  0  0  0  0  0  0  0  0  0  0  0
   -0.4338   -4.1696    0.4094 H   0  0  0  0  0  0  0  0  0  0  0  0
    1.3107   -4.5685    0.3718 H   0  0  0  0  0  0  0  0  0  0  0  0
   -2.7340    3.1117    0.3824 H   0  0  0  0  0  0  0  0  0  0  0  0
   -1.3271    3.0766    1.5012 H   0  0  0  0  0  0  0  0  0  0  0  0
   -1.5400    4.4448    0.3443 H   0  0  0  0  0  0  0  0  0  0  0  0
   -1.8010   -2.8376   -0.6287 H   0  0  0  0  0  0  0  0  0  0  0  0
   -1.4351   -1.8404   -2.0630 H   0  0  0  0  0  0  0  0  0  0  0  0
   -3.0758    1.2502   -0.6954 H   0  0  0  0  0  0  0  0  0  0  0  0
   -2.1782    0.5968   -2.0913 H   0  0  0  0  0  0  0  0  0  0  0  0
   -2.6426   -1.8170    1.4861 H   0  0  0  0  0  0  0  0  0  0  0  0
   -2.6386   -0.0330    1.6268 H   0  0  0  0  0  0  0  0  0  0  0  0
   -4.4723   -0.6479   -1.7161 H   0  0  0  0  0  0  0  0  0  0  0  0
   -4.0850   -2.3047   -1.1411 H   0  0  0  0  0  0  0  0  0  0  0  0
   -5.1137   -1.6632    1.0462 H   0  0  0  0  0  0  0  0  0  0  0  0
   -4.9567    0.0740    0.6441 H   0  0  0  0  0  0  0  0  0  0  0  0
    3.1474    0.9732    0.1226 H   0  0  0  0  0  0  0  0  0  0  0  0
  2 45  1  0  0  0  0
  3  1  1  0  0  0  0
  4  2  1  0  0  0  0
  7  3  1  1  0  0  0
  8  4  1  1  0  0  0
  9 21  1  6  0  0  0
  9  7  1  0  0  0  0
  9  5  1  0  0  0  0
  9 13  1  0  0  0  0
 10 22  1  6  0  0  0
 10  8  1  0  0  0  0
 10  6  1  0  0  0  0
 10 14  1  0  0  0  0
 11  7  1  0  0  0  0
 11 24  1  0  0  0  0
 12  8  1  0  0  0  0
 12 27  1  0  0  0  0
 13 29  1  0  0  0  0
 14 33  1  0  0  0  0
 15 35  1  0  0  0  0
 15 17  1  0  0  0  0
 15  5  1  0  0  0  0
 16 37  1  0  0  0  0
 16 17  1  0  0  0  0
 16  6  1  0  0  0  0
 17 19  1  0  0  0  0
 18 17  1  0  0  0  0
 18 20  1  0  0  0  0
 19 39  1  0  0  0  0
 19 40  1  0  0  0  0
 20 44  1  0  0  0  0
 20 19  1  0  0  0  0
 20 43  1  0  0  0  0
 23 11  1  0  0  0  0
 25 11  1  0  0  0  0
 26 12  1  0  0  0  0
 28 12  1  0  0  0  0
 30 13  1  0  0  0  0
 31 13  1  0  0  0  0
 32 14  1  0  0  0  0
 34 14  1  0  0  0  0
 36 15  1  0  0  0  0
 38 16  1  0  0  0  0
 41 18  1  0  0  0  0
 42 18  1  0  0  0  0
M  END
