1,3,4,5
q = 0.0, confidence = 0.992

 52 55  0  0  0  0  0  0  0  0999 V2000
   -0.5483    0.8807    0.2623 N   0  0  0  0  0  2  0  0  0  0  0  0
   -1.5159    1.3297   -0.4899 N   0  0  0  0  0  2  0  0  0  0  0  0
    2.4942   -1.2833   -0.3912 N   0  0  0  0  0  2  0  0  0  0  0  0
    1.8469    1.3462   -1.0200 N   0  0  0  0  0  2  0  0  0  0  0  0
    1.4816    0.3477    1.8256 N   0  0  0  0  0  0  0  0  0  0  0  0
    2.7174    2.2080   -0.4517 N   0  0  0  0  0  0  0  0  0  0  0  0
    2.9305   -2.1101    0.5861 N   0  0  0  0  0  0  0  0  0  0  0  0
   -2.4924    1.6752    0.3526 N   0  0  0  0  0  0  0  0  0  0  0  0
   -0.8651    0.9289    1.5909 C   0  0  0  0  0  0  0  0  0  0  0  0
    2.3568    2.9586   -2.5097 C   0  0  0  0  0  0  0  0  0  0  0  0
    2.3839    3.5564   -3.4259 H   0  0  0  0  0  0  0  0  0  0  0  0
   -4.8257   -1.6975   -0.8688 C   0  0  0  0  0  0  0  0  0  0  0  0
   -4.3786   -2.5832   -1.3438 H   0  0  0  0  0  0  0  0  0  0  0  0
    1.6062    1.7872   -2.2675 C   0  0  0  0  0  3  0  0  0  0  0  0
    0.9004    1.2331   -2.8986 H   0  0  0  0  0  0  0  0  0  0  0  0
   -4.1055   -0.4962   -0.8659 C   0  0  0  0  0  0  0  0  0  0  0  0
   -3.1189   -0.4668   -1.3533 H   0  0  0  0  0  0  0  0  0  0  0  0
    4.1021   -2.6192   -1.2304 C   0  0  0  0  0  0  0  0  0  0  0  0
    4.8080   -3.0871   -1.9232 H   0  0  0  0  0  0  0  0  0  0  0  0
   -6.0916   -1.7601   -0.2621 C   0  0  0  0  0  0  0  0  0  0  0  0
   -6.6593   -2.7027   -0.2674 H   0  0  0  0  0  0  0  0  0  0  0  0
   -4.6376    0.6475   -0.2362 C   0  0  0  0  0  0  0  0  0  0  0  0
    3.1867   -1.5832   -1.5052 C   0  0  0  0  0  3  0  0  0  0  0  0
    2.9728   -1.0526   -2.4389 H   0  0  0  0  0  0  0  0  0  0  0  0
   -5.9016    0.5791    0.3775 C   0  0  0  0  0  0  0  0  0  0  0  0
   -6.3232    1.4688    0.8725 H   0  0  0  0  0  0  0  0  0  0  0  0
   -3.8336    1.9337   -0.1961 C   0  0  0  0  0  0  0  0  0  0  0  0
   -3.6628    2.3582   -1.2046 H   0  0  0  0  0  0  0  0  0  0  0  0
   -4.3212    2.7035    0.4313 H   0  0  0  0  0  0  0  0  0  0  0  0
    0.1430    0.3149    2.5063 C   0  0  0  0  0  0  0  0  0  0  0  0
   -0.1250   -0.7514    2.6502 H   0  0  0  0  0  0  0  0  0  0  0  0
    0.1917    0.8065    3.5023 H   0  0  0  0  0  0  0  0  0  0  0  0
    3.9100   -2.9315    0.1156 C   0  0  0  0  0  0  0  0  0  0  0  0
    4.3855   -3.6740    0.7659 H   0  0  0  0  0  0  0  0  0  0  0  0
   -2.1482    1.4493    1.6597 C   0  0  0  0  0  0  0  0  0  0  0  0
   -2.8368    1.6348    2.4891 H   0  0  0  0  0  0  0  0  0  0  0  0
   -6.6310   -0.6206    0.3544 C   0  0  0  0  0  0  0  0  0  0  0  0
   -7.6225   -0.6653    0.8292 H   0  0  0  0  0  0  0  0  0  0  0  0
    3.0549    3.1999   -1.3280 C   0  0  0  0  0  0  0  0  0  0  0  0
    3.7610    3.9891   -1.0467 H   0  0  0  0  0  0  0  0  0  0  0  0
    3.1889    1.9785    0.9022 C   0  0  0  0  0  0  0  0  0  0  0  0
    3.7387    2.8867    1.2123 H   0  0  0  0  0  0  0  0  0  0  0  0
    3.9190    1.1407    0.9019 H   0  0  0  0  0  0  0  0  0  0  0  0
    2.0520    1.7242    1.8943 C   0  0  0  0  0  0  0  0  0  0  0  0
    2.4201    1.9172    2.9269 H   0  0  0  0  0  0  0  0  0  0  0  0
    1.2340    2.4443    1.6967 H   0  0  0  0  0  0  0  0  0  0  0  0
    2.3275   -2.0437    1.9076 C   0  0  0  0  0  0  0  0  0  0  0  0
    2.8935   -2.7315    2.5630 H   0  0  0  0  0  0  0  0  0  0  0  0
    1.2796   -2.3996    1.8271 H   0  0  0  0  0  0  0  0  0  0  0  0
    2.4062   -0.6287    2.4779 C   0  0  0  0  0  0  0  0  0  0  0  0
    2.1975   -0.6535    3.5697 H   0  0  0  0  0  0  0  0  0  0  0  0
    3.4438   -0.2614    2.3602 H   0  0  0  0  0  0  0  0  0  0  0  0
  1  9  1  0  0  0  0
  2  1  1  0  0  0  0
  2  8  1  0  0  0  0
  3  7  1  0  0  0  0
  4  6  1  0  0  0  0
  5 44  1  0  0  0  0
  5 50  1  0  0  0  0
  5 30  1  0  0  0  0
  6 41  1  0  0  0  0
  7 47  1  0  0  0  0
  8 35  1  0  0  0  0
  9 35  2  0  0  0  0
  9 30  1  0  0  0  0
 10 14  1  0  0  0  0
 10 39  2  0  0  0  0
 11 10  1  0  0  0  0
 12 16  2  0  0  0  0
 12 20  1  0  0  0  0
 13 12  1  0  0  0  0
 14  4  1  0  0  0  0
 15 14  1  0  0  0  0
 16 22  1  0  0  0  0
 17 16  1  0  0  0  0
 18 33  2  0  0  0  0
 19 18  1  0  0  0  0
 20 37  2  0  0  0  0
 21 20  1  0  0  0  0
 22 27  1  0  0  0  0
 22 25  2  0  0  0  0
 23 18  1  0  0  0  0
 23  3  1  0  0  0  0
 24 23  1  0  0  0  0
 25 26  1  0  0  0  0
 27  8  1  0  0  0  0
 27 29  1  0  0  0  0
 28 27  1  0  0  0  0
 30 31  1  0  0  0  0
 30 32  1  0  0  0  0
 33  7  1  0  0  0  0
 33 34  1  0  0  0  0
 35 36  1  0  0  0  0
 37 25  1  0  0  0  0
 37 38  1  0  0  0  0
 39 40  1  0  0  0  0
 39  6  1  0  0  0  0
 41 42  1  0  0  0  0
 41 44  1  0  0  0  0
 43 41  1  0  0  0  0
 44 45  1  0  0  0  0
 46 44  1  0  0  0  0
 47 50  1  0  0  0  0
 47 48  1  0  0  0  0
 49 47  1  0  0  0  0
 50 51  1  0  0  0  0
 52 50  1  0  0  0  0
M  END
