2,3,7,9
q = 0.0, confidence = 0.99

 48 51  0  0  0  0  0  0  0  0999 V2000
    3.6987   -1.0468    0.1573 N   0  0  0  0  0  0  0  0  0  0  0  0
    2.8584   -0.2937   -0.5884 N   0  0  0  0  0  2  0  0  0  0  0  0
   -0.8385   -0.2559    0.2565 N   0  0  0  0  0  2  0  0  0  0  0  0
   -5.1655   -0.4291    1.0645 N   0  0  0  0  0  0  0  0  0  0  0  0
   -2.9279   -0.3156    0.4568 N   0  0  0  0  0  0  0  0  0  0  0  0
   -1.9393   -0.0229   -0.4003 N   0  0  0  0  0  2  0  0  0  0  0  0
    0.9249    1.6932   -0.5403 N   0  0  0  0  0  2  0  0  0  0  0  0
    1.2811    2.6552    0.3381 N   0  0  0  0  0  0  0  0  0  0  0  0
    1.2553   -0.1531    1.8492 N   0  0  0  0  0  0  0  0  0  0  0  0
   -1.0810   -0.6931    1.5331 C   0  0  0  0  0  0  0  0  0  0  0  0
   -6.9525   -0.0443   -0.5086 C   0  0  0  0  0  0  0  0  0  0  0  0
   -8.0339    0.0074   -0.6989 H   0  0  0  0  0  0  0  0  0  0  0  0
   -6.4739   -0.3523    0.7755 C   0  0  0  0  0  0  0  0  0  0  0  0
   -7.1711   -0.5459    1.6077 H   0  0  0  0  0  0  0  0  0  0  0  0
    4.9407   -1.0723   -0.4008 C   0  0  0  0  0  3  0  0  0  0  0  0
    5.7571   -1.6362    0.0637 H   0  0  0  0  0  0  0  0  0  0  0  0
   -2.4561   -0.7306    1.6790 C   0  0  0  0  0  0  0  0  0  0  0  0
   -3.1451   -1.0075    2.4814 H   0  0  0  0  0  0  0  0  0  0  0  0
   -4.3079   -0.2026    0.0726 C   0  0  0  0  0  0  0  0  0  0  0  0
   -4.6522    0.1083   -1.2511 C   0  0  0  0  0  0  0  0  0  0  0  0
   -3.8792    0.2678   -2.0140 H   0  0  0  0  0  0  0  0  0  0  0  0
    0.5020    3.7101   -1.4533 C   0  0  0  0  0  0  0  0  0  0  0  0
    0.1888    4.4880   -2.1563 H   0  0  0  0  0  0  0  0  0  0  0  0
    4.8885   -0.3051   -1.5649 C   0  0  0  0  0  0  0  0  0  0  0  0
    5.7049   -0.1143   -2.2679 H   0  0  0  0  0  0  0  0  0  0  0  0
    1.8730    2.2932    1.6140 C   0  0  0  0  0  0  0  0  0  0  0  0
    2.9219    1.9627    1.4535 H   0  0  0  0  0  0  0  0  0  0  0  0
    1.9131    3.2142    2.2252 H   0  0  0  0  0  0  0  0  0  0  0  0
   -6.0225    0.1879   -1.5340 C   0  0  0  0  0  0  0  0  0  0  0  0
   -6.3591    0.4245   -2.5541 H   0  0  0  0  0  0  0  0  0  0  0  0
    2.5682   -0.6993    2.3107 C   0  0  0  0  0  0  0  0  0  0  0  0
    3.2709    0.1456    2.4447 H   0  0  0  0  0  0  0  0  0  0  0  0
    2.4355   -1.1664    3.3108 H   0  0  0  0  0  0  0  0  0  0  0  0
    3.2024   -1.7067    1.3542 C   0  0  0  0  0  0  0  0  0  0  0  0
    2.4827   -2.4911    1.0412 H   0  0  0  0  0  0  0  0  0  0  0  0
    4.0675   -2.1843    1.8506 H   0  0  0  0  0  0  0  0  0  0  0  0
    0.4415    2.3107   -1.6328 C   0  0  0  0  0  3  0  0  0  0  0  0
    0.0806    1.7000   -2.4694 H   0  0  0  0  0  0  0  0  0  0  0  0
    1.0433    3.8952   -0.1824 C   0  0  0  0  0  0  0  0  0  0  0  0
    1.2790    4.8029    0.3843 H   0  0  0  0  0  0  0  0  0  0  0  0
    0.1366   -1.0334    2.3251 C   0  0  0  0  0  0  0  0  0  0  0  0
    0.4245   -2.0799    2.0977 H   0  0  0  0  0  0  0  0  0  0  0  0
   -0.0153   -0.9327    3.4216 H   0  0  0  0  0  0  0  0  0  0  0  0
    3.5597    0.1576   -1.6447 C   0  0  0  0  0  0  0  0  0  0  0  0
    3.0635    0.7670   -2.4071 H   0  0  0  0  0  0  0  0  0  0  0  0
    1.0656    1.2331    2.3655 C   0  0  0  0  0  0  0  0  0  0  0  0
   -0.0113    1.4829    2.2938 H   0  0  0  0  0  0  0  0  0  0  0  0
    1.3386    1.2638    3.4440 H   0  0  0  0  0  0  0  0  0  0  0  0
  1 34  1  0  0  0  0
  2  1  1  0  0  0  0
  3 10  1  0  0  0  0
  5 17  1  0  0  0  0
  6  3  1  0  0  0  0
  6  5  1  0  0  0  0
  7  8  1  0  0  0  0
  8 26  1  0  0  0  0
  9 31  1  0  0  0  0
  9 41  1  0  0  0  0
  9 46  1  0  0  0  0
 10 17  2  0  0  0  0
 10 41  1  0  0  0  0
 11 13  2  0  0  0  0
 12 11  1  0  0  0  0
 13  4  1  0  0  0  0
 13 14  1  0  0  0  0
 15 16  1  0  0  0  0
 15  1  1  0  0  0  0
 17 18  1  0  0  0  0
 19  5  1  0  0  0  0
 19  4  2  0  0  0  0
 20 19  1  0  0  0  0
 21 20  1  0  0  0  0
 22 39  2  0  0  0  0
 23 22  1  0  0  0  0
 24 15  1  0  0  0  0
 25 24  1  0  0  0  0
 26 28  1  0  0  0  0
 26 46  1  0  0  0  0
 27 26  1  0  0  0  0
 29 20  2  0  0  0  0
 29 11  1  0  0  0  0
 30 29  1  0  0  0  0
 31 32  1  0  0  0  0
 31 33  1  0  0  0  0
 34 36  1  0  0  0  0
 34 31  1  0  0  0  0
 35 34  1  0  0  0  0
 37 22  1  0  0  0  0
 37  7  1  0  0  0  0
 38 37  1  0  0  0  0
 39  8  1  0  0  0  0
 39 40  1  0  0  0  0
 41 43  1  0  0  0  0
 42 41  1  0  0  0  0
 44 24  2  0  0  0  0
 44  2  1  0  0  0  0
 45 44  1  0  0  0  0
 46 48  1  0  0  0  0
 47 46  1  0  0  0  0
M  END
