4,5,6,7
q = -3.0

 70 69  0  0  0  0  0  0  0  0999 V2000
   -0.8058    3.1238   -0.7947 Si  0  0  0  0  0  0  0  0  0  0  0  0
    3.1083   -0.8640   -0.7954 Si  0  0  0  0  0  0  0  0  0  0  0  0
   -2.3033   -2.2588   -0.7949 Si  0  0  0  0  0  0  0  0  0  0  0  0
   -0.9958    1.6235    0.1549 N   0  0  0  0  0  2  0  0  0  0  0  0
    1.9044    0.0509    0.1544 N   0  0  0  0  0  2  0  0  0  0  0  0
   -0.9086   -1.6743    0.1548 N   0  0  0  0  0  2  0  0  0  0  0  0
    0.0007   -0.0006    2.3556 N   0  0  0  0  0  0  0  0  0  0  0  0
   -2.2686    1.5163    0.8764 C   0  0  0  0  0  0  0  0  0  0  0  0
   -2.0991    1.4508    2.3955 C   0  0  0  0  0  0  0  0  0  0  0  0
   -1.3828    0.1853    2.8596 C   0  0  0  0  0  0  0  0  0  0  0  0
    0.9205    3.3265   -1.5325 C   0  0  0  0  0  0  0  0  0  0  0  0
   -2.0852    3.1192   -2.1873 C   0  0  0  0  0  0  0  0  0  0  0  0
   -1.1194    4.5980    0.3621 C   0  0  0  0  0  0  0  0  0  0  0  0
    2.4480    1.2069    0.8755 C   0  0  0  0  0  0  0  0  0  0  0  0
    2.3073    1.0929    2.3947 C   0  0  0  0  0  0  0  0  0  0  0  0
    0.8535    1.1045    2.8597 C   0  0  0  0  0  0  0  0  0  0  0  0
    2.4203   -2.4609   -1.5318 C   0  0  0  0  0  0  0  0  0  0  0  0
    4.5426   -1.3288    0.3608 C   0  0  0  0  0  0  0  0  0  0  0  0
    3.7434    0.2452   -2.1890 C   0  0  0  0  0  0  0  0  0  0  0  0
   -0.1791   -2.7235    0.8752 C   0  0  0  0  0  0  0  0  0  0  0  0
   -0.2064   -2.5447    2.3945 C   0  0  0  0  0  0  0  0  0  0  0  0
    0.5314   -1.2918    2.8591 C   0  0  0  0  0  0  0  0  0  0  0  0
   -3.3423   -0.8643   -1.5308 C   0  0  0  0  0  0  0  0  0  0  0  0
   -1.6601   -3.3632   -2.1886 C   0  0  0  0  0  0  0  0  0  0  0  0
   -3.4232   -3.2681    0.3614 C   0  0  0  0  0  0  0  0  0  0  0  0
   -2.9445    2.3678    0.6300 H   0  0  0  0  0  0  0  0  0  0  0  0
   -2.8260    0.6084    0.5544 H   0  0  0  0  0  0  0  0  0  0  0  0
   -1.5969    2.3709    2.7601 H   0  0  0  0  0  0  0  0  0  0  0  0
   -3.1042    1.4414    2.8696 H   0  0  0  0  0  0  0  0  0  0  0  0
   -1.9707   -0.6847    2.5090 H   0  0  0  0  0  0  0  0  0  0  0  0
   -1.3648    0.1465    3.9781 H   0  0  0  0  0  0  0  0  0  0  0  0
    1.6649    3.6741   -0.7891 H   0  0  0  0  0  0  0  0  0  0  0  0
    1.2811    2.3909   -2.0018 H   0  0  0  0  0  0  0  0  0  0  0  0
    0.8590    4.1008   -2.3256 H   0  0  0  0  0  0  0  0  0  0  0  0
   -1.8384    2.3070   -2.9006 H   0  0  0  0  0  0  0  0  0  0  0  0
   -3.1107    2.9421   -1.8042 H   0  0  0  0  0  0  0  0  0  0  0  0
   -2.0871    4.0834   -2.7365 H   0  0  0  0  0  0  0  0  0  0  0  0
   -1.0230    5.5512   -0.1986 H   0  0  0  0  0  0  0  0  0  0  0  0
   -2.1318    4.5806    0.8145 H   0  0  0  0  0  0  0  0  0  0  0  0
   -0.3768    4.6148    1.1868 H   0  0  0  0  0  0  0  0  0  0  0  0
    3.5232    1.3668    0.6287 H   0  0  0  0  0  0  0  0  0  0  0  0
    1.9400    2.1434    0.5535 H   0  0  0  0  0  0  0  0  0  0  0  0
    2.8537    0.1982    2.7590 H   0  0  0  0  0  0  0  0  0  0  0  0
    2.8016    1.9683    2.8685 H   0  0  0  0  0  0  0  0  0  0  0  0
    0.3936    2.0489    2.5104 H   0  0  0  0  0  0  0  0  0  0  0  0
    0.8118    1.1074    3.9783 H   0  0  0  0  0  0  0  0  0  0  0  0
   -0.5788   -3.7344    0.6286 H   0  0  0  0  0  0  0  0  0  0  0  0
    0.8857   -2.7523    0.5525 H   0  0  0  0  0  0  0  0  0  0  0  0
   -1.2542   -2.5701    2.7593 H   0  0  0  0  0  0  0  0  0  0  0  0
    0.3045   -3.4107    2.8679 H   0  0  0  0  0  0  0  0  0  0  0  0
    1.5789   -1.3659    2.5087 H   0  0  0  0  0  0  0  0  0  0  0  0
    0.5558   -1.2573    3.9776 H   0  0  0  0  0  0  0  0  0  0  0  0
   -2.7130   -0.0829   -1.9986 H   0  0  0  0  0  0  0  0  0  0  0  0
   -3.9816   -1.3038   -2.3248 H   0  0  0  0  0  0  0  0  0  0  0  0
   -4.0162   -0.3953   -0.7867 H   0  0  0  0  0  0  0  0  0  0  0  0
   -0.9944   -4.1635   -1.8064 H   0  0  0  0  0  0  0  0  0  0  0  0
   -2.4943   -3.8459   -2.7386 H   0  0  0  0  0  0  0  0  0  0  0  0
   -1.0798   -2.7426   -2.9009 H   0  0  0  0  0  0  0  0  0  0  0  0
   -3.8084   -2.6336    1.1867 H   0  0  0  0  0  0  0  0  0  0  0  0
   -4.2973   -3.6602   -0.1994 H   0  0  0  0  0  0  0  0  0  0  0  0
   -2.9022   -4.1368    0.8129 H   0  0  0  0  0  0  0  0  0  0  0  0
    3.1201   -2.7943   -2.3265 H   0  0  0  0  0  0  0  0  0  0  0  0
    2.3515   -3.2794   -0.7882 H   0  0  0  0  0  0  0  0  0  0  0  0
    1.4287   -2.3062   -1.9989 H   0  0  0  0  0  0  0  0  0  0  0  0
    5.0342   -0.4429    0.8121 H   0  0  0  0  0  0  0  0  0  0  0  0
    4.1864   -1.9796    1.1864 H   0  0  0  0  0  0  0  0  0  0  0  0
    5.3194   -1.8894   -0.2000 H   0  0  0  0  0  0  0  0  0  0  0  0
    4.5791   -0.2358   -2.7382 H   0  0  0  0  0  0  0  0  0  0  0  0
    2.9163    0.4370   -2.9020 H   0  0  0  0  0  0  0  0  0  0  0  0
    4.1031    1.2221   -1.8068 H   0  0  0  0  0  0  0  0  0  0  0  0
  1  4  1  0  0  0  0
  1 13  1  0  0  0  0
  2  5  1  0  0  0  0
  2 18  1  0  0  0  0
  3  6  1  0  0  0  0
  3 25  1  0  0  0  0
  4  8  1  0  0  0  0
  5 14  1  0  0  0  0
  6 20  1  0  0  0  0
  7 22  1  0  0  0  0
  7 10  1  0  0  0  0
  7 16  1  0  0  0  0
  8  9  1  0  0  0  0
  9 28  1  0  0  0  0
  9 10  1  0  0  0  0
  9 29  1  0  0  0  0
 10 31  1  0  0  0  0
 11  1  1  0  0  0  0
 11 32  1  0  0  0  0
 12 36  1  0  0  0  0
 12  1  1  0  0  0  0
 13 39  1  0  0  0  0
 13 40  1  0  0  0  0
 14 15  1  0  0  0  0
 15 43  1  0  0  0  0
 15 16  1  0  0  0  0
 15 44  1  0  0  0  0
 16 46  1  0  0  0  0
 17  2  1  0  0  0  0
 17 63  1  0  0  0  0
 18 65  1  0  0  0  0
 18 66  1  0  0  0  0
 19 70  1  0  0  0  0
 19  2  1  0  0  0  0
 20 21  1  0  0  0  0
 21 49  1  0  0  0  0
 21 22  1  0  0  0  0
 21 50  1  0  0  0  0
 22 52  1  0  0  0  0
 23  3  1  0  0  0  0
 23 55  1  0  0  0  0
 24 56  1  0  0  0  0
 24  3  1  0  0  0  0
 25 61  1  0  0  0  0
 25 59  1  0  0  0  0
 26  8  1  0  0  0  0
 27  8  1  0  0  0  0
 30 10  1  0  0  0  0
 33 11  1  0  0  0  0
 34 11  1  0  0  0  0
 35 12  1  0  0  0  0
 37 12  1  0  0  0  0
 38 13  1  0  0  0  0
 41 14  1  0  0  0  0
 42 14  1  0  0  0  0
 45 16  1  0  0  0  0
 47 20  1  0  0  0  0
 48 20  1  0  0  0  0
 51 22  1  0  0  0  0
 53 23  1  0  0  0  0
 54 23  1  0  0  0  0
 57 24  1  0  0  0  0
 58 24  1  0  0  0  0
 60 25  1  0  0  0  0
 62 17  1  0  0  0  0
 64 17  1  0  0  0  0
 67 18  1  0  0  0  0
 68 19  1  0  0  0  0
 69 19  1  0  0  0  0
M  END
