1,2,3,4
q = -2.0, confidence = 0.682

 72 77  0  0  1  0  0  0  0  0999 V2000
   -2.2275   -0.0373    0.1286 P   0  0  0  0  0  0  0  0  0  0  0  0
    2.2085   -0.0725    0.1094 P   0  0  0  0  0  0  0  0  0  0  0  0
   -0.0692   -1.8337    0.2085 O   0  0  0  0  0  1  0  0  0  0  0  0
    0.0007    0.0395   -1.6642 O   0  0  0  0  0  1  0  0  0  0  0  0
    0.2466   -2.2764   -1.0685 C   0  0  1  0  0  0  0  0  0  0  0  0
   -0.2395   -3.2676   -1.2454 H   0  0  0  0  0  0  0  0  0  0  0  0
   -0.3277   -1.2314   -2.1108 C   0  0  1  0  0  0  0  0  0  0  0  0
    0.1506   -1.4222   -3.1035 H   0  0  0  0  0  0  0  0  0  0  0  0
   -1.8171   -1.4656   -2.2829 C   0  0  0  0  0  0  0  0  0  0  0  0
   -2.2869   -2.2035   -3.3886 C   0  0  0  0  0  0  0  0  0  0  0  0
   -1.5552   -2.5610   -4.1315 H   0  0  0  0  0  0  0  0  0  0  0  0
   -3.6493   -2.4776   -3.5608 C   0  0  0  0  0  0  0  0  0  0  0  0
   -3.9892   -3.0471   -4.4397 H   0  0  0  0  0  0  0  0  0  0  0  0
   -4.5802   -2.0215   -2.6120 C   0  0  0  0  0  0  0  0  0  0  0  0
   -5.6530   -2.2345   -2.7345 H   0  0  0  0  0  0  0  0  0  0  0  0
   -4.1327   -1.2932   -1.5031 C   0  0  0  0  0  0  0  0  0  0  0  0
   -4.8565   -0.9464   -0.7494 H   0  0  0  0  0  0  0  0  0  0  0  0
   -2.7612   -1.0065   -1.3353 C   0  0  0  0  0  0  0  0  0  0  0  0
   -3.0182    1.6034   -0.0875 C   0  0  0  0  0  0  0  0  0  0  0  0
   -3.1182    2.4775    1.0180 C   0  0  0  0  0  0  0  0  0  0  0  0
   -2.8440    2.1209    2.0234 H   0  0  0  0  0  0  0  0  0  0  0  0
   -3.5517    3.7986    0.8404 C   0  0  0  0  0  0  0  0  0  0  0  0
   -3.6396    4.4658    1.7117 H   0  0  0  0  0  0  0  0  0  0  0  0
   -3.8680    4.2717   -0.4457 C   0  0  0  0  0  0  0  0  0  0  0  0
   -4.2116    5.3084   -0.5841 H   0  0  0  0  0  0  0  0  0  0  0  0
   -3.7435    3.4152   -1.5515 C   0  0  0  0  0  0  0  0  0  0  0  0
   -3.9826    3.7803   -2.5623 H   0  0  0  0  0  0  0  0  0  0  0  0
   -3.3187    2.0884   -1.3760 C   0  0  0  0  0  0  0  0  0  0  0  0
   -3.2119    1.4215   -2.2443 H   0  0  0  0  0  0  0  0  0  0  0  0
   -3.1362   -0.8496    1.5060 C   0  0  0  0  0  0  0  0  0  0  0  0
   -2.5417   -2.0035    2.0631 C   0  0  0  0  0  0  0  0  0  0  0  0
   -1.5728   -2.3455    1.6597 H   0  0  0  0  0  0  0  0  0  0  0  0
   -3.1918   -2.6903    3.0975 C   0  0  0  0  0  0  0  0  0  0  0  0
   -2.7233   -3.5872    3.5310 H   0  0  0  0  0  0  0  0  0  0  0  0
   -4.4303   -2.2388    3.5837 C   0  0  0  0  0  0  0  0  0  0  0  0
   -4.9347   -2.7801    4.3988 H   0  0  0  0  0  0  0  0  0  0  0  0
   -5.0238   -1.0953    3.0276 C   0  0  0  0  0  0  0  0  0  0  0  0
   -5.9955   -0.7383    3.4023 H   0  0  0  0  0  0  0  0  0  0  0  0
   -4.3820   -0.4012    1.9893 C   0  0  0  0  0  0  0  0  0  0  0  0
   -4.8546    0.4937    1.5574 H   0  0  0  0  0  0  0  0  0  0  0  0
    1.7293   -2.4496   -1.3471 C   0  0  0  0  0  0  0  0  0  0  0  0
    2.1663   -3.5448   -2.1206 C   0  0  0  0  0  0  0  0  0  0  0  0
    1.4223   -4.2922   -2.4415 H   0  0  0  0  0  0  0  0  0  0  0  0
    3.5105   -3.6981   -2.4813 C   0  0  0  0  0  0  0  0  0  0  0  0
    3.8241   -4.5690   -3.0775 H   0  0  0  0  0  0  0  0  0  0  0  0
    4.4566   -2.7382   -2.0828 C   0  0  0  0  0  0  0  0  0  0  0  0
    5.5140   -2.8433   -2.3690 H   0  0  0  0  0  0  0  0  0  0  0  0
    4.0433   -1.6427   -1.3154 C   0  0  0  0  0  0  0  0  0  0  0  0
    4.7774   -0.8825   -1.0058 H   0  0  0  0  0  0  0  0  0  0  0  0
    2.6914   -1.4980   -0.9351 C   0  0  0  0  0  0  0  0  0  0  0  0
    3.1285   -0.3105    1.6820 C   0  0  0  0  0  0  0  0  0  0  0  0
    3.7407   -1.5335    2.0184 C   0  0  0  0  0  0  0  0  0  0  0  0
    3.7381   -2.3621    1.2957 H   0  0  0  0  0  0  0  0  0  0  0  0
    4.3475   -1.6975    3.2740 C   0  0  0  0  0  0  0  0  0  0  0  0
    4.8208   -2.6585    3.5269 H   0  0  0  0  0  0  0  0  0  0  0  0
    4.3494   -0.6463    4.2027 C   0  0  0  0  0  0  0  0  0  0  0  0
    4.8263   -0.7778    5.1859 H   0  0  0  0  0  0  0  0  0  0  0  0
    3.7281    0.5716    3.8785 C   0  0  0  0  0  0  0  0  0  0  0  0
    3.7118    1.3955    4.6082 H   0  0  0  0  0  0  0  0  0  0  0  0
    3.1125    0.7355    2.6313 C   0  0  0  0  0  0  0  0  0  0  0  0
    2.6040    1.6828    2.3922 H   0  0  0  0  0  0  0  0  0  0  0  0
    3.0572    1.3444   -0.7140 C   0  0  0  0  0  0  0  0  0  0  0  0
    2.4674    1.8309   -1.9036 C   0  0  0  0  0  0  0  0  0  0  0  0
    1.5456    1.3433   -2.2678 H   0  0  0  0  0  0  0  0  0  0  0  0
    3.0468    2.9160   -2.5761 C   0  0  0  0  0  0  0  0  0  0  0  0
    2.5856    3.2879   -3.5048 H   0  0  0  0  0  0  0  0  0  0  0  0
    4.2124    3.5247   -2.0770 C   0  0  0  0  0  0  0  0  0  0  0  0
    4.6655    4.3749   -2.6100 H   0  0  0  0  0  0  0  0  0  0  0  0
    4.8010    3.0385   -0.9001 C   0  0  0  0  0  0  0  0  0  0  0  0
    5.7180    3.5042   -0.5070 H   0  0  0  0  0  0  0  0  0  0  0  0
    4.2276    1.9516   -0.2184 C   0  0  0  0  0  0  0  0  0  0  0  0
    4.6968    1.5767    0.7032 H   0  0  0  0  0  0  0  0  0  0  0  0
  1 30  1  0  0  0  0
  2 51  1  0  0  0  0
  5  6  1  6  0  0  0
  5  3  1  0  0  0  0
  7  8  1  6  0  0  0
  7  4  1  0  0  0  0
  7  5  1  0  0  0  0
  9  7  1  0  0  0  0
  9 18  1  0  0  0  0
 10  9  2  0  0  0  0
 11 10  1  0  0  0  0
 12 10  1  0  0  0  0
 12 14  2  0  0  0  0
 13 12  1  0  0  0  0
 14 16  1  0  0  0  0
 15 14  1  0  0  0  0
 16 18  2  0  0  0  0
 16 17  1  0  0  0  0
 18  1  1  0  0  0  0
 19  1  1  0  0  0  0
 19 20  1  0  0  0  0
 20 21  1  0  0  0  0
 22 20  2  0  0  0  0
 22 23  1  0  0  0  0
 24 22  1  0  0  0  0
 25 24  1  0  0  0  0
 26 28  1  0  0  0  0
 26 24  2  0  0  0  0
 27 26  1  0  0  0  0
 28 19  2  0  0  0  0
 29 28  1  0  0  0  0
 30 39  2  0  0  0  0
 30 31  1  0  0  0  0
 31 33  2  0  0  0  0
 32 31  1  0  0  0  0
 33 34  1  0  0  0  0
 33 35  1  0  0  0  0
 35 36  1  0  0  0  0
 37 38  1  0  0  0  0
 37 35  2  0  0  0  0
 39 37  1  0  0  0  0
 40 39  1  0  0  0  0
 41  5  1  0  0  0  0
 41 50  1  0  0  0  0
 42 41  2  0  0  0  0
 43 42  1  0  0  0  0
 44 42  1  0  0  0  0
 44 46  2  0  0  0  0
 45 44  1  0  0  0  0
 46 48  1  0  0  0  0
 47 46  1  0  0  0  0
 48 49  1  0  0  0  0
 48 50  2  0  0  0  0
 50  2  1  0  0  0  0
 51 52  2  0  0  0  0
 51 60  1  0  0  0  0
 52 54  1  0  0  0  0
 53 52  1  0  0  0  0
 54 55  1  0  0  0  0
 54 56  2  0  0  0  0
 56 57  1  0  0  0  0
 58 56  1  0  0  0  0
 58 59  1  0  0  0  0
 60 58  2  0  0  0  0
 61 60  1  0  0  0  0
 62 71  1  0  0  0  0
 62  2  1  0  0  0  0
 63 62  2  0  0  0  0
 64 63  1  0  0  0  0
 65 67  2  0  0  0  0
 65 63  1  0  0  0  0
 66 65  1  0  0  0  0
 67 69  1  0  0  0  0
 68 67  1  0  0  0  0
 69 70  1  0  0  0  0
 69 71  2  0  0  0  0
 71 72  1  0  0  0  0
M  END
