1,2,15,17
q = 0.0, confidence = 0.966

 82 89  0  0  0  0  0  0  0  0999 V2000
   -1.3969   -0.5111   -0.8548 P   0  0  1  0  0  0  0  0  0  0  0  0
    1.4265    0.0295   -0.8873 P   0  0  2  0  0  0  0  0  0  0  0  0
    3.0229    0.9512   -0.5042 C   0  0  0  0  0  0  0  0  0  0  0  0
    3.6804    0.8604   -1.3923 H   0  0  0  0  0  0  0  0  0  0  0  0
   -3.1714    0.1267   -0.7099 C   0  0  0  0  0  0  0  0  0  0  0  0
   -3.7720   -0.4122   -1.4697 H   0  0  0  0  0  0  0  0  0  0  0  0
    3.6323    0.1646    0.6364 C   0  0  0  0  0  0  0  0  0  0  0  0
   -3.6621   -0.2620    0.6658 C   0  0  0  0  0  0  0  0  0  0  0  0
    2.9062   -0.0405    1.8460 C   0  0  0  0  0  0  0  0  0  0  0  0
   -3.0086    0.1842    1.8557 C   0  0  0  0  0  0  0  0  0  0  0  0
   -1.9127    1.1597    1.8852 C   0  0  0  0  0  3  0  0  0  0  0  0
   -1.5259    1.3566    2.8999 H   0  0  0  0  0  0  0  0  0  0  0  0
    1.6533    0.6546    2.1830 C   0  0  0  0  0  3  0  0  0  0  0  0
    1.1829    0.2854    3.1112 H   0  0  0  0  0  0  0  0  0  0  0  0
    1.2544    1.9474    1.7889 C   0  0  0  0  0  3  0  0  0  0  0  0
    0.5908    2.4645    2.5013 H   0  0  0  0  0  0  0  0  0  0  0  0
   -1.5915    2.1395    0.9129 C   0  0  0  0  0  3  0  0  0  0  0  0
   -0.9938    2.9854    1.2823 H   0  0  0  0  0  0  0  0  0  0  0  0
   -2.3124    2.4927   -0.3190 C   0  0  0  0  0  0  0  0  0  0  0  0
    1.8953    2.8479    0.8201 C   0  0  0  0  0  0  0  0  0  0  0  0
   -3.1395    1.5945   -1.0504 C   0  0  0  0  0  0  0  0  0  0  0  0
    2.7367    2.4136   -0.2471 C   0  0  0  0  0  0  0  0  0  0  0  0
   -2.1890    3.8257   -0.7836 C   0  0  0  0  0  0  0  0  0  0  0  0
   -1.5334    4.5173   -0.2321 H   0  0  0  0  0  0  0  0  0  0  0  0
    3.4345   -0.9373    2.8059 C   0  0  0  0  0  0  0  0  0  0  0  0
    2.8754   -1.1027    3.7399 H   0  0  0  0  0  0  0  0  0  0  0  0
   -2.8879    4.2757   -1.9077 C   0  0  0  0  0  0  0  0  0  0  0  0
   -2.7807    5.3185   -2.2406 H   0  0  0  0  0  0  0  0  0  0  0  0
    4.6539   -1.5900    2.6008 C   0  0  0  0  0  0  0  0  0  0  0  0
    5.0451   -2.2756    3.3669 H   0  0  0  0  0  0  0  0  0  0  0  0
    5.3747   -1.3641    1.4174 C   0  0  0  0  0  0  0  0  0  0  0  0
    6.3328   -1.8754    1.2430 H   0  0  0  0  0  0  0  0  0  0  0  0
   -3.7280    3.3920   -2.6046 C   0  0  0  0  0  0  0  0  0  0  0  0
   -4.2858    3.7343   -3.4887 H   0  0  0  0  0  0  0  0  0  0  0  0
    4.8568   -0.4985    0.4447 C   0  0  0  0  0  0  0  0  0  0  0  0
    5.4031   -0.3471   -0.4991 H   0  0  0  0  0  0  0  0  0  0  0  0
   -3.8399    2.0608   -2.1781 C   0  0  0  0  0  0  0  0  0  0  0  0
   -4.4795    1.3591   -2.7364 H   0  0  0  0  0  0  0  0  0  0  0  0
   -4.7225   -1.1819    0.7653 C   0  0  0  0  0  0  0  0  0  0  0  0
   -5.2119   -1.5286   -0.1580 H   0  0  0  0  0  0  0  0  0  0  0  0
    3.2854    3.3700   -1.1209 C   0  0  0  0  0  0  0  0  0  0  0  0
    3.9348    3.0284   -1.9423 H   0  0  0  0  0  0  0  0  0  0  0  0
   -5.1488   -1.6786    2.0036 C   0  0  0  0  0  0  0  0  0  0  0  0
   -5.9778   -2.3997    2.0510 H   0  0  0  0  0  0  0  0  0  0  0  0
    3.0204    4.7389   -0.9720 C   0  0  0  0  0  0  0  0  0  0  0  0
    3.4607    5.4632   -1.6728 H   0  0  0  0  0  0  0  0  0  0  0  0
    2.1901    5.1731    0.0726 C   0  0  0  0  0  0  0  0  0  0  0  0
    1.9773    6.2440    0.2060 H   0  0  0  0  0  0  0  0  0  0  0  0
   -4.4982   -1.2617    3.1763 C   0  0  0  0  0  0  0  0  0  0  0  0
   -4.8169   -1.6479    4.1558 H   0  0  0  0  0  0  0  0  0  0  0  0
   -3.4454   -0.3465    3.0965 C   0  0  0  0  0  0  0  0  0  0  0  0
   -2.9453   -0.0078    4.0171 H   0  0  0  0  0  0  0  0  0  0  0  0
    1.6386    4.2352    0.9512 C   0  0  0  0  0  0  0  0  0  0  0  0
    1.0014    4.5769    1.7821 H   0  0  0  0  0  0  0  0  0  0  0  0
   -1.5030   -2.3303   -0.7231 C   0  0  0  0  0  0  0  0  0  0  0  0
   -1.4578   -3.1967   -1.8334 C   0  0  0  0  0  0  0  0  0  0  0  0
   -1.3807   -2.8023   -2.8570 H   0  0  0  0  0  0  0  0  0  0  0  0
   -1.5031   -4.5854   -1.6431 C   0  0  0  0  0  0  0  0  0  0  0  0
   -1.4582   -5.2549   -2.5148 H   0  0  0  0  0  0  0  0  0  0  0  0
   -1.6056   -5.1186   -0.3485 C   0  0  0  0  0  0  0  0  0  0  0  0
   -1.6404   -6.2088   -0.2042 H   0  0  0  0  0  0  0  0  0  0  0  0
   -1.6642   -4.2595    0.7607 C   0  0  0  0  0  0  0  0  0  0  0  0
   -1.7497   -4.6717    1.7771 H   0  0  0  0  0  0  0  0  0  0  0  0
   -1.6062   -2.8715    0.5788 C   0  0  0  0  0  0  0  0  0  0  0  0
   -1.6324   -2.1995    1.4502 H   0  0  0  0  0  0  0  0  0  0  0  0
    1.9229   -1.6908   -1.2535 C   0  0  0  0  0  0  0  0  0  0  0  0
    1.7918   -2.6591   -0.2364 C   0  0  0  0  0  0  0  0  0  0  0  0
    1.4030   -2.3600    0.7486 H   0  0  0  0  0  0  0  0  0  0  0  0
    2.1388   -3.9931   -0.4861 C   0  0  0  0  0  0  0  0  0  0  0  0
    2.0280   -4.7437    0.3102 H   0  0  0  0  0  0  0  0  0  0  0  0
    2.6139   -4.3700   -1.7525 C   0  0  0  0  0  0  0  0  0  0  0  0
    2.8792   -5.4192   -1.9512 H   0  0  0  0  0  0  0  0  0  0  0  0
    2.7500   -3.4095   -2.7684 C   0  0  0  0  0  0  0  0  0  0  0  0
    3.1250   -3.7040   -3.7600 H   0  0  0  0  0  0  0  0  0  0  0  0
    2.4080   -2.0717   -2.5218 C   0  0  0  0  0  0  0  0  0  0  0  0
    2.5224   -1.3284   -3.3262 H   0  0  0  0  0  0  0  0  0  0  0  0
   -0.7490   -0.0653   -2.5610 C   0  0  0  0  0  0  0  0  0  0  0  0
   -0.6522   -0.9912   -3.1589 H   0  0  0  0  0  0  0  0  0  0  0  0
   -1.5006    0.5807   -3.0572 H   0  0  0  0  0  0  0  0  0  0  0  0
    0.6126    0.6531   -2.4372 C   0  0  0  0  0  0  0  0  0  0  0  0
    0.4739    1.7411   -2.2743 H   0  0  0  0  0  0  0  0  0  0  0  0
    1.2376    0.5187   -3.3434 H   0  0  0  0  0  0  0  0  0  0  0  0
  1 77  1  6  0  0  0
  1 55  1  0  0  0  0
  1  5  1  0  0  0  0
  2 80  1  6  0  0  0
  2  3  1  0  0  0  0
  3 22  1  0  0  0  0
  3  7  1  0  0  0  0
  4  3  1  0  0  0  0
  5  8  1  0  0  0  0
  6  5  1  0  0  0  0
  7  9  1  0  0  0  0
  8 39  2  0  0  0  0
  8 10  1  0  0  0  0
  9 13  1  0  0  0  0
  9 25  2  0  0  0  0
 10 11  1  0  0  0  0
 10 51  2  0  0  0  0
 11 12  1  0  0  0  0
 13 14  1  0  0  0  0
 15 13  1  0  0  0  0
 15 16  1  0  0  0  0
 17 18  1  0  0  0  0
 17 11  1  0  0  0  0
 19 17  1  0  0  0  0
 20 53  1  0  0  0  0
 20 15  1  0  0  0  0
 21  5  1  0  0  0  0
 21 19  2  0  0  0  0
 22 20  2  0  0  0  0
 23 19  1  0  0  0  0
 23 24  1  0  0  0  0
 25 26  1  0  0  0  0
 27 23  2  0  0  0  0
 28 27  1  0  0  0  0
 29 25  1  0  0  0  0
 29 30  1  0  0  0  0
 31 29  2  0  0  0  0
 32 31  1  0  0  0  0
 33 37  2  0  0  0  0
 33 27  1  0  0  0  0
 34 33  1  0  0  0  0
 35  7  2  0  0  0  0
 35 31  1  0  0  0  0
 36 35  1  0  0  0  0
 37 21  1  0  0  0  0
 38 37  1  0  0  0  0
 39 43  1  0  0  0  0
 40 39  1  0  0  0  0
 41 45  2  0  0  0  0
 41 22  1  0  0  0  0
 42 41  1  0  0  0  0
 43 44  1  0  0  0  0
 43 49  2  0  0  0  0
 45 47  1  0  0  0  0
 46 45  1  0  0  0  0
 47 48  1  0  0  0  0
 47 53  2  0  0  0  0
 49 50  1  0  0  0  0
 51 49  1  0  0  0  0
 51 52  1  0  0  0  0
 53 54  1  0  0  0  0
 55 64  1  0  0  0  0
 56 58  1  0  0  0  0
 56 55  2  0  0  0  0
 57 56  1  0  0  0  0
 58 60  2  0  0  0  0
 59 58  1  0  0  0  0
 60 61  1  0  0  0  0
 60 62  1  0  0  0  0
 62 63  1  0  0  0  0
 64 62  2  0  0  0  0
 64 65  1  0  0  0  0
 66  2  1  0  0  0  0
 66 67  1  0  0  0  0
 67 68  1  0  0  0  0
 69 67  2  0  0  0  0
 69 70  1  0  0  0  0
 71 69  1  0  0  0  0
 72 71  1  0  0  0  0
 73 75  1  0  0  0  0
 73 71  2  0  0  0  0
 74 73  1  0  0  0  0
 75 66  2  0  0  0  0
 76 75  1  0  0  0  0
 77 80  1  0  0  0  0
 78 77  1  0  0  0  0
 79 77  1  0  0  0  0
 80 81  1  0  0  0  0
 82 80  1  0  0  0  0
M  END
