3,19,25
q = -1.0, confidence = 0.0

 35 37  0  0  1  0  0  0  0  0999 V2000
   -3.0642    0.0001   -0.8218 C   0  0  2  0  0  0  0  0  0  0  0  0
   -3.9934    0.0002   -1.4217 H   0  0  0  0  0  0  0  0  0  0  0  0
   -1.1533   -0.0000    1.5481 O   0  5  0  0  0  0  0  0  0  0  0  0
   -2.4706   -0.0001    1.6829 C   0  0  0  0  0  0  0  0  0  0  0  0
   -3.4465   -0.0000    0.6347 C   0  0  0  0  0  0  0  0  0  0  0  0
   -4.8227   -0.0001    0.9481 C   0  0  0  0  0  0  0  0  0  0  0  0
   -5.5511   -0.0001    0.1196 H   0  0  0  0  0  0  0  0  0  0  0  0
   -5.2814   -0.0003    2.2671 C   0  0  0  0  0  0  0  0  0  0  0  0
   -6.3582   -0.0003    2.4856 H   0  0  0  0  0  0  0  0  0  0  0  0
   -4.3304   -0.0004    3.3050 C   0  0  0  0  0  0  0  0  0  0  0  0
   -4.6614   -0.0005    4.3550 H   0  0  0  0  0  0  0  0  0  0  0  0
   -2.9651   -0.0003    3.0217 C   0  0  0  0  0  0  0  0  0  0  0  0
   -2.2178   -0.0003    3.8293 H   0  0  0  0  0  0  0  0  0  0  0  0
   -0.7425   -2.6620   -1.4141 N   0  0  0  0  0  0  0  0  0  0  0  0
    0.5279   -3.3750   -1.3562 C   0  0  0  0  0  0  0  0  0  0  0  0
    1.3514   -2.6656   -1.5539 H   0  0  0  0  0  0  0  0  0  0  0  0
    0.5308   -4.1560   -2.1377 H   0  0  0  0  0  0  0  0  0  0  0  0
    0.6621   -3.8475   -0.3632 H   0  0  0  0  0  0  0  0  0  0  0  0
   -0.9875   -1.3837   -0.9891 C   0  0  0  0  0  2  0  0  0  0  0  0
   -2.3184   -1.1940   -1.2342 N   0  0  0  0  0  0  0  0  0  0  0  0
   -2.9067   -2.3241   -1.7838 C   0  0  0  0  0  0  0  0  0  0  0  0
   -3.9689   -2.3728   -2.0397 H   0  0  0  0  0  0  0  0  0  0  0  0
   -1.9073   -3.2498   -1.8984 C   0  0  0  0  0  0  0  0  0  0  0  0
   -1.9200   -4.2698   -2.2932 H   0  0  0  0  0  0  0  0  0  0  0  0
   -0.9875    1.3840   -0.9889 C   0  0  0  0  0  2  0  0  0  0  0  0
   -0.7425    2.6623   -1.4138 N   0  0  0  0  0  0  0  0  0  0  0  0
    0.5279    3.3753   -1.3558 C   0  0  0  0  0  0  0  0  0  0  0  0
    1.3514    2.6660   -1.5540 H   0  0  0  0  0  0  0  0  0  0  0  0
    0.6622    3.8474   -0.3627 H   0  0  0  0  0  0  0  0  0  0  0  0
    0.5306    4.1566   -2.1371 H   0  0  0  0  0  0  0  0  0  0  0  0
   -1.9073    3.2502   -1.8980 C   0  0  0  0  0  0  0  0  0  0  0  0
   -1.9200    4.2701   -2.2928 H   0  0  0  0  0  0  0  0  0  0  0  0
   -2.9067    2.3244   -1.7835 C   0  0  0  0  0  0  0  0  0  0  0  0
   -3.9689    2.3731   -2.0394 H   0  0  0  0  0  0  0  0  0  0  0  0
   -2.3184    1.1943   -1.2340 N   0  0  0  0  0  0  0  0  0  0  0  0
  1  2  1  6  0  0  0
  1  5  1  0  0  0  0
  3  4  1  0  0  0  0
  4 12  1  0  0  0  0
  5  6  1  0  0  0  0
  5  4  2  0  0  0  0
  6  8  2  0  0  0  0
  7  6  1  0  0  0  0
  8  9  1  0  0  0  0
  8 10  1  0  0  0  0
 10 11  1  0  0  0  0
 12 10  2  0  0  0  0
 12 13  1  0  0  0  0
 14 15  1  0  0  0  0
 14 19  1  0  0  0  0
 15 18  1  0  0  0  0
 16 15  1  0  0  0  0
 17 15  1  0  0  0  0
 20 19  1  0  0  0  0
 20  1  1  0  0  0  0
 21 20  1  0  0  0  0
 22 21  1  0  0  0  0
 23 21  2  0  0  0  0
 23 14  1  0  0  0  0
 24 23  1  0  0  0  0
 26 27  1  0  0  0  0
 26 25  1  0  0  0  0
 27 29  1  0  0  0  0
 28 27  1  0  0  0  0
 30 27  1  0  0  0  0
 31 33  2  0  0  0  0
 31 26  1  0  0  0  0
 32 31  1  0  0  0  0
 33 35  1  0  0  0  0
 34 33  1  0  0  0  0
 35 25  1  0  0  0  0
 35  1  1  0  0  0  0
M  CHG  1   3  -1
M  END
