1,8,10
q = -2.0, confidence = 0.908

 50 52  0  0  1  0  0  0  0  0999 V2000
    0.3349    1.0449   -0.1112 O   0  5  0  0  0  0  0  0  0  0  0  0
   -0.9070    0.5183   -0.0209 C   0  0  0  0  0  0  0  0  0  0  0  0
   -1.0010   -0.8165    0.4557 C   0  0  0  0  0  0  0  0  0  0  0  0
   -2.2454   -1.4485    0.5866 C   0  0  0  0  0  0  0  0  0  0  0  0
   -3.4279   -0.7646    0.2500 C   0  0  0  0  0  0  0  0  0  0  0  0
   -3.3039    0.5615   -0.2217 C   0  0  0  0  0  0  0  0  0  0  0  0
   -2.0809    1.2407   -0.3738 C   0  0  0  0  0  0  0  0  0  0  0  0
    0.3185   -1.4289    0.7415 C   0  0  2  0  0  3  0  0  0  0  0  0
    1.0564   -1.3773    1.9560 C   0  0  0  0  0  3  0  0  0  0  0  0
    2.4173   -1.7255    1.6987 C   0  0  0  0  0  3  0  0  0  0  0  0
    2.5248   -2.1098    0.3183 C   0  0  0  0  0  0  0  0  0  0  0  0
    3.6124   -2.5591   -0.4873 C   0  0  0  0  0  0  0  0  0  0  0  0
    3.3903   -2.8070   -1.8342 C   0  0  0  0  0  0  0  0  0  0  0  0
    2.1080   -2.5956   -2.4264 C   0  0  0  0  0  0  0  0  0  0  0  0
    1.0326   -2.1407   -1.6761 C   0  0  0  0  0  0  0  0  0  0  0  0
    1.2187   -1.9152   -0.2833 C   0  0  0  0  0  0  0  0  0  0  0  0
   -4.8251   -1.3997    0.3734 C   0  0  0  0  0  0  0  0  0  0  0  0
   -4.7577   -2.8434    0.9003 C   0  0  0  0  0  0  0  0  0  0  0  0
   -5.6834   -0.5655    1.3515 C   0  0  0  0  0  0  0  0  0  0  0  0
   -5.5032   -1.4213   -1.0155 C   0  0  0  0  0  0  0  0  0  0  0  0
   -2.0006    2.6909   -0.8819 C   0  0  0  0  0  0  0  0  0  0  0  0
   -1.3617    3.5796    0.2112 C   0  0  0  0  0  0  0  0  0  0  0  0
   -3.3891    3.2645   -1.2147 C   0  0  0  0  0  0  0  0  0  0  0  0
   -1.1402    2.7409   -2.1662 C   0  0  0  0  0  0  0  0  0  0  0  0
   -2.2694   -2.4832    0.9538 H   0  0  0  0  0  0  0  0  0  0  0  0
   -4.2242    1.0996   -0.4856 H   0  0  0  0  0  0  0  0  0  0  0  0
    0.6558   -1.0151    2.9110 H   0  0  0  0  0  0  0  0  0  0  0  0
    3.2305   -1.7672    2.4328 H   0  0  0  0  0  0  0  0  0  0  0  0
    4.6039   -2.7200   -0.0378 H   0  0  0  0  0  0  0  0  0  0  0  0
    4.2169   -3.1687   -2.4643 H   0  0  0  0  0  0  0  0  0  0  0  0
    1.9771   -2.7941   -3.5009 H   0  0  0  0  0  0  0  0  0  0  0  0
    0.0431   -1.9729   -2.1271 H   0  0  0  0  0  0  0  0  0  0  0  0
   -4.3009   -2.8924    1.9093 H   0  0  0  0  0  0  0  0  0  0  0  0
   -4.1731   -3.5010    0.2257 H   0  0  0  0  0  0  0  0  0  0  0  0
   -5.7801   -3.2659    0.9753 H   0  0  0  0  0  0  0  0  0  0  0  0
   -6.6989   -1.0028    1.4512 H   0  0  0  0  0  0  0  0  0  0  0  0
   -5.7998    0.4808    1.0055 H   0  0  0  0  0  0  0  0  0  0  0  0
   -5.2190   -0.5370    2.3580 H   0  0  0  0  0  0  0  0  0  0  0  0
   -6.5164   -1.8701   -0.9489 H   0  0  0  0  0  0  0  0  0  0  0  0
   -4.9077   -2.0179   -1.7359 H   0  0  0  0  0  0  0  0  0  0  0  0
   -5.6138   -0.4012   -1.4341 H   0  0  0  0  0  0  0  0  0  0  0  0
   -1.2826    4.6284   -0.1438 H   0  0  0  0  0  0  0  0  0  0  0  0
   -0.3486    3.2212    0.4720 H   0  0  0  0  0  0  0  0  0  0  0  0
   -1.9814    3.5747    1.1310 H   0  0  0  0  0  0  0  0  0  0  0  0
   -4.0531    3.2891   -0.3269 H   0  0  0  0  0  0  0  0  0  0  0  0
   -3.8981    2.6850   -2.0117 H   0  0  0  0  0  0  0  0  0  0  0  0
   -3.2808    4.3065   -1.5777 H   0  0  0  0  0  0  0  0  0  0  0  0
   -1.0754    3.7824   -2.5447 H   0  0  0  0  0  0  0  0  0  0  0  0
   -1.5889    2.1141   -2.9638 H   0  0  0  0  0  0  0  0  0  0  0  0
   -0.1145    2.3771   -1.9704 H   0  0  0  0  0  0  0  0  0  0  0  0
  1  2  1  0  0  0  0
  2  3  1  0  0  0  0
  3  4  2  0  0  0  0
  4 25  1  0  0  0  0
  5 17  1  0  0  0  0
  5  4  1  0  0  0  0
  6  5  2  0  0  0  0
  7  6  1  0  0  0  0
  7  2  2  0  0  0  0
  8  3  1  6  0  0  0
  8  9  1  0  0  0  0
  9 27  1  0  0  0  0
 10  9  1  0  0  0  0
 10 28  1  0  0  0  0
 11 10  1  0  0  0  0
 12 29  1  0  0  0  0
 12 11  2  0  0  0  0
 13 12  1  0  0  0  0
 14 13  2  0  0  0  0
 14 15  1  0  0  0  0
 15 16  2  0  0  0  0
 16 11  1  0  0  0  0
 16  8  1  0  0  0  0
 17 18  1  0  0  0  0
 17 19  1  0  0  0  0
 18 35  1  0  0  0  0
 18 33  1  0  0  0  0
 19 36  1  0  0  0  0
 19 38  1  0  0  0  0
 20 39  1  0  0  0  0
 20 17  1  0  0  0  0
 21  7  1  0  0  0  0
 21 22  1  0  0  0  0
 22 43  1  0  0  0  0
 22 44  1  0  0  0  0
 23 21  1  0  0  0  0
 23 45  1  0  0  0  0
 24 50  1  0  0  0  0
 24 21  1  0  0  0  0
 26  6  1  0  0  0  0
 30 13  1  0  0  0  0
 31 14  1  0  0  0  0
 32 15  1  0  0  0  0
 34 18  1  0  0  0  0
 37 19  1  0  0  0  0
 40 20  1  0  0  0  0
 41 20  1  0  0  0  0
 42 22  1  0  0  0  0
 46 23  1  0  0  0  0
 47 23  1  0  0  0  0
 48 24  1  0  0  0  0
 49 24  1  0  0  0  0
M  CHG  1   1  -1
M  END
