4,8,12
 OpenBabel05122313063D

 40 41  0  0  1  0  0  0  0  0999 V2000
   -6.8216    0.9004    0.5056 F   0  0  0  0  0  0  0  0  0  0  0  0
   -6.5446   -0.4046   -1.2160 F   0  0  0  0  0  0  0  0  0  0  0  0
   -7.3205   -1.2181    0.6535 F   0  0  0  0  0  0  0  0  0  0  0  0
    0.9907    0.3285   -0.5641 O   0  0  0  0  0  1  0  0  0  0  0  0
   -5.2173   -0.6807    0.5849 O   0  0  0  0  0  0  0  0  0  0  0  0
    3.7331    0.3790    1.4508 C   0  0  0  0  0  0  0  0  0  0  0  0
    3.3657    0.6546    2.4433 H   0  0  0  0  0  0  0  0  0  0  0  0
    4.4441   -0.8219    1.1444 C   0  0  0  0  0  3  0  0  0  0  0  0
    4.7297   -1.5978    1.8653 H   0  0  0  0  0  0  0  0  0  0  0  0
    4.7316   -0.8129   -0.2469 C   0  0  0  0  0  3  0  0  0  0  0  0
    5.3058   -1.5692   -0.7926 H   0  0  0  0  0  0  0  0  0  0  0  0
    4.1311    0.3463   -0.8122 C   0  0  0  0  0  3  0  0  0  0  0  0
    4.1643    0.6240   -1.8732 H   0  0  0  0  0  0  0  0  0  0  0  0
    3.5430    1.1146    0.2527 C   0  0  0  0  0  0  0  0  0  0  0  0
    2.9186    2.4944    0.1256 C   0  0  0  0  0  0  0  0  0  0  0  0
    4.0417    3.5008   -0.2075 C   0  0  0  0  0  0  0  0  0  0  0  0
    4.8107    3.4974    0.5893 H   0  0  0  0  0  0  0  0  0  0  0  0
    3.6318    4.5282   -0.2845 H   0  0  0  0  0  0  0  0  0  0  0  0
    4.5414    3.2538   -1.1650 H   0  0  0  0  0  0  0  0  0  0  0  0
    2.2156    2.9032    1.4321 C   0  0  0  0  0  0  0  0  0  0  0  0
    2.9481    3.0189    2.2540 H   0  0  0  0  0  0  0  0  0  0  0  0
    1.4657    2.1526    1.7549 H   0  0  0  0  0  0  0  0  0  0  0  0
    1.7050    3.8791    1.3103 H   0  0  0  0  0  0  0  0  0  0  0  0
    1.8904    2.5070   -1.0469 C   0  0  0  0  0  0  0  0  0  0  0  0
    1.5204    3.5395   -1.2027 H   0  0  0  0  0  0  0  0  0  0  0  0
    2.3860    2.1902   -1.9883 H   0  0  0  0  0  0  0  0  0  0  0  0
    0.7630    1.5602   -0.7658 C   0  0  2  0  0  3  0  0  0  0  0  0
   -1.6834    1.3282   -0.3645 C   0  0  0  0  0  0  0  0  0  0  0  0
   -2.8900    1.7917   -0.9204 C   0  0  0  0  0  0  0  0  0  0  0  0
   -2.8905    2.6595   -1.5981 H   0  0  0  0  0  0  0  0  0  0  0  0
   -4.1027    1.1566   -0.6334 C   0  0  0  0  0  0  0  0  0  0  0  0
   -5.0290    1.5357   -1.0810 H   0  0  0  0  0  0  0  0  0  0  0  0
   -4.1019    0.0392    0.2227 C   0  0  0  0  0  0  0  0  0  0  0  0
   -2.8982   -0.4181    0.7911 C   0  0  0  0  0  0  0  0  0  0  0  0
   -2.9312   -1.2769    1.4762 H   0  0  0  0  0  0  0  0  0  0  0  0
   -1.6900    0.2200    0.5079 C   0  0  0  0  0  0  0  0  0  0  0  0
   -0.7668   -0.1390    0.9824 H   0  0  0  0  0  0  0  0  0  0  0  0
   -6.4731   -0.3448    0.1288 C   0  0  0  0  0  0  0  0  0  0  0  0
   -0.4901    2.0344   -0.6875 N   0  0  0  0  0  0  0  0  0  0  0  0
   -0.6082    3.0215   -0.9313 H   0  0  0  0  0  0  0  0  0  0  0  0
  2 38  1  0  0  0  0
  6  7  1  0  0  0  0
  8  6  1  0  0  0  0
  8  9  1  0  0  0  0
 10  8  1  0  0  0  0
 11 10  1  0  0  0  0
 12 10  1  0  0  0  0
 12 14  1  0  0  0  0
 13 12  1  0  0  0  0
 14  6  2  0  0  0  0
 15 14  1  0  0  0  0
 15 20  1  0  0  0  0
 16 15  1  0  0  0  0
 16 17  1  0  0  0  0
 18 16  1  0  0  0  0
 19 16  1  0  0  0  0
 20 22  1  0  0  0  0
 20 21  1  0  0  0  0
 23 20  1  0  0  0  0
 24 27  1  0  0  0  0
 24 15  1  0  0  0  0
 25 24  1  0  0  0  0
 26 24  1  0  0  0  0
 27 39  1  0  0  0  0
 27  4  1  1  0  0  0
 28 36  1  0  0  0  0
 29 31  1  0  0  0  0
 29 28  2  0  0  0  0
 30 29  1  0  0  0  0
 31 33  2  0  0  0  0
 32 31  1  0  0  0  0
 33  5  1  0  0  0  0
 33 34  1  0  0  0  0
 34 35  1  0  0  0  0
 36 34  2  0  0  0  0
 36 37  1  0  0  0  0
 38  1  1  0  0  0  0
 38  5  1  0  0  0  0
 38  3  1  0  0  0  0
 39 28  1  0  0  0  0
 40 39  1  0  0  0  0
M  END
