1,7,9
 OpenBabel05122313063D

 21 21  0  0  0  0  0  0  0  0999 V2000
    0.3283   -0.0480    1.6391 O   0  0  0  0  0  1  0  0  0  0  0  0
    1.2705   -0.0324   -2.5108 C   0  0  0  0  0  3  0  0  0  0  0  0
    2.3896    1.2707   -0.7002 C   0  0  0  0  0  3  0  0  0  0  0  0
    2.8372    0.0652   -0.0722 C   0  0  0  0  0  0  0  0  0  0  0  0
    1.3264    0.3674    2.5244 C   0  0  0  0  0  0  0  0  0  0  0  0
    2.6671   -0.3711    2.4252 C   0  0  0  0  0  0  0  0  0  0  0  0
    1.5782    1.2109   -1.8870 C   0  0  0  0  0  3  0  0  0  0  0  0
    3.5466    0.1133    1.2535 C   0  0  0  0  0  0  0  0  0  0  0  0
    1.6612   -1.2247   -1.8397 C   0  0  0  0  0  3  0  0  0  0  0  0
    2.4499   -1.1923   -0.6401 C   0  0  0  0  0  0  0  0  0  0  0  0
    1.5172    1.4736    2.4518 H   0  0  0  0  0  0  0  0  0  0  0  0
    0.9150    0.1939    3.5464 H   0  0  0  0  0  0  0  0  0  0  0  0
    3.2387   -0.2246    3.3651 H   0  0  0  0  0  0  0  0  0  0  0  0
    2.4662   -1.4613    2.3456 H   0  0  0  0  0  0  0  0  0  0  0  0
    4.4635   -0.5087    1.1868 H   0  0  0  0  0  0  0  0  0  0  0  0
    3.8768    1.1532    1.4498 H   0  0  0  0  0  0  0  0  0  0  0  0
    0.6474   -0.0713   -3.4147 H   0  0  0  0  0  0  0  0  0  0  0  0
    2.6297    2.2403   -0.2410 H   0  0  0  0  0  0  0  0  0  0  0  0
    1.1861    2.1431   -2.3217 H   0  0  0  0  0  0  0  0  0  0  0  0
    1.3220   -2.1951   -2.2337 H   0  0  0  0  0  0  0  0  0  0  0  0
    2.7279   -2.1289   -0.1368 H   0  0  0  0  0  0  0  0  0  0  0  0
  1  5  1  0  0  0  0
  2  7  1  0  0  0  0
  2  9  1  0  0  0  0
  3 18  1  0  0  0  0
  3  4  1  0  0  0  0
  4  8  1  0  0  0  0
  5 12  1  0  0  0  0
  6  5  1  0  0  0  0
  6 13  1  0  0  0  0
  7  3  1  0  0  0  0
  8 16  1  0  0  0  0
  8  6  1  0  0  0  0
  9 10  1  0  0  0  0
 10 21  1  0  0  0  0
 10  4  2  0  0  0  0
 11  5  1  0  0  0  0
 14  6  1  0  0  0  0
 15  8  1  0  0  0  0
 17  2  1  0  0  0  0
 19  7  1  0  0  0  0
 20  9  1  0  0  0  0
M  END
