1,8,18
 OpenBabel05122313063D

 45 47  0  0  1  0  0  0  0  0999 V2000
    0.8247    1.3579    0.0452 O   0  0  0  0  0  1  0  0  0  0  0  0
    4.1957   -1.9666    0.4872 O   0  0  0  0  0  0  0  0  0  0  0  0
    4.3100   -0.3780   -1.1234 O   0  0  0  0  0  0  0  0  0  0  0  0
    2.6681    1.1551    1.4261 O   0  0  0  0  0  0  0  0  0  0  0  0
    2.2074   -0.6577   -0.0545 C   0  0  1  0  0  0  0  0  0  0  0  0
    1.3767   -0.9782   -1.3237 C   0  0  0  0  0  0  0  0  0  0  0  0
   -0.0361   -1.1671   -0.7880 C   0  0  2  0  0  3  0  0  0  0  0  0
   -1.1993   -0.8580   -1.5650 C   0  0  0  0  0  3  0  0  0  0  0  0
   -2.5064   -1.6397   -1.4997 C   0  0  0  0  0  0  0  0  0  0  0  0
   -3.0537   -1.8927   -0.0736 C   0  0  2  0  0  0  0  0  0  0  0  0
   -2.1106   -2.7813    0.7848 C   0  0  0  0  0  0  0  0  0  0  0  0
   -1.1224   -1.8077    1.4542 C   0  0  1  0  0  0  0  0  0  0  0  0
    0.0393   -1.4360    0.5803 C   0  0  1  0  0  3  0  0  0  0  0  0
    1.4601   -1.3997    1.0715 C   0  0  0  0  0  0  0  0  0  0  0  0
   -4.4718   -2.4747   -0.1539 C   0  0  0  0  0  0  0  0  0  0  0  0
   -2.9808   -0.5703    0.6692 C   0  0  0  0  0  3  0  0  0  0  0  0
   -1.9369   -0.5097    1.5872 C   0  0  2  0  0  3  0  0  0  0  0  0
   -1.3854    0.6828    2.1522 C   0  0  0  0  0  3  0  0  0  0  0  0
    3.6604   -1.0885   -0.1622 C   0  0  0  0  0  0  0  0  0  0  0  0
    5.6904   -0.7123   -1.3027 C   0  0  0  0  0  0  0  0  0  0  0  0
    2.1146    0.8791    0.1590 C   0  0  1  0  0  0  0  0  0  0  0  0
    2.7501    2.5360    1.7179 C   0  0  0  0  0  0  0  0  0  0  0  0
    1.7053   -1.9351   -1.7862 H   0  0  0  0  0  0  0  0  0  0  0  0
    1.4581   -0.1916   -2.1004 H   0  0  0  0  0  0  0  0  0  0  0  0
   -0.9489   -0.5666   -2.6014 H   0  0  0  0  0  0  0  0  0  0  0  0
   -2.4025   -2.6137   -2.0390 H   0  0  0  0  0  0  0  0  0  0  0  0
   -3.2793   -1.0712   -2.0615 H   0  0  0  0  0  0  0  0  0  0  0  0
   -1.5979   -3.5660    0.1931 H   0  0  0  0  0  0  0  0  0  0  0  0
   -2.7141   -3.2823    1.5697 H   0  0  0  0  0  0  0  0  0  0  0  0
   -0.7610   -2.1630    2.4393 H   0  0  0  0  0  0  0  0  0  0  0  0
    1.5790   -0.8827    2.0445 H   0  0  0  0  0  0  0  0  0  0  0  0
    1.8778   -2.4237    1.2031 H   0  0  0  0  0  0  0  0  0  0  0  0
   -5.1513   -1.7996   -0.7145 H   0  0  0  0  0  0  0  0  0  0  0  0
   -4.4703   -3.4548   -0.6743 H   0  0  0  0  0  0  0  0  0  0  0  0
   -4.8989   -2.6259    0.8580 H   0  0  0  0  0  0  0  0  0  0  0  0
   -3.7720    0.1829    0.5791 H   0  0  0  0  0  0  0  0  0  0  0  0
   -2.0702    1.4758    2.4845 H   0  0  0  0  0  0  0  0  0  0  0  0
   -0.4663    0.5880    2.7517 H   0  0  0  0  0  0  0  0  0  0  0  0
    6.0634   -0.0576   -2.1105 H   0  0  0  0  0  0  0  0  0  0  0  0
    6.2622   -0.5386   -0.3688 H   0  0  0  0  0  0  0  0  0  0  0  0
    5.8062   -1.7787   -1.5833 H   0  0  0  0  0  0  0  0  0  0  0  0
    2.7378    1.3779   -0.6298 H   0  0  0  0  0  0  0  0  0  0  0  0
    3.2446    2.6346    2.7033 H   0  0  0  0  0  0  0  0  0  0  0  0
    3.3564    3.0812    0.9547 H   0  0  0  0  0  0  0  0  0  0  0  0
    1.7439    3.0077    1.7638 H   0  0  0  0  0  0  0  0  0  0  0  0
  1 21  1  0  0  0  0
  3 19  1  0  0  0  0
  4 22  1  0  0  0  0
  5 19  1  6  0  0  0
  5 21  1  0  0  0  0
  5 14  1  0  0  0  0
  6  7  1  0  0  0  0
  6  5  1  0  0  0  0
  7  8  1  1  0  0  0
  7 13  1  0  0  0  0
  8  9  1  0  0  0  0
  9 10  1  0  0  0  0
 10 15  1  6  0  0  0
 10 16  1  0  0  0  0
 10 11  1  0  0  0  0
 11 12  1  0  0  0  0
 11 29  1  0  0  0  0
 12 17  1  0  0  0  0
 12 30  1  1  0  0  0
 13 14  1  6  0  0  0
 13 12  1  0  0  0  0
 14 32  1  0  0  0  0
 14 31  1  0  0  0  0
 15 35  1  0  0  0  0
 16 17  1  0  0  0  0
 17 18  1  6  0  0  0
 18 37  1  0  0  0  0
 18 38  1  0  0  0  0
 19  2  2  0  0  0  0
 20  3  1  0  0  0  0
 20 40  1  0  0  0  0
 21 42  1  6  0  0  0
 21  4  1  0  0  0  0
 22 45  1  0  0  0  0
 22 43  1  0  0  0  0
 23  6  1  0  0  0  0
 24  6  1  0  0  0  0
 25  8  1  0  0  0  0
 26  9  1  0  0  0  0
 27  9  1  0  0  0  0
 28 11  1  0  0  0  0
 33 15  1  0  0  0  0
 34 15  1  0  0  0  0
 36 16  1  0  0  0  0
 39 20  1  0  0  0  0
 41 20  1  0  0  0  0
 44 22  1  0  0  0  0
M  END
