2,4,7
 OpenBabel05122313063D

 40 41  0  0  0  0  0  0  0  0999 V2000
   -0.1230   -3.2402    0.1908 O   0  0  0  0  0  0  0  0  0  0  0  0
    3.4462    0.1087   -0.1944 O   0  5  0  0  0  0  0  0  0  0  0  0
    1.6253    3.9396   -0.3985 O   0  0  0  0  0  0  0  0  0  0  0  0
    0.1024   -2.0504    0.0966 C   0  0  0  0  0  3  0  0  0  0  0  0
   -0.9935   -1.0043    0.0658 C   0  0  0  0  0  0  0  0  0  0  0  0
   -0.5523    0.3128    0.0302 C   0  0  0  0  0  0  0  0  0  0  0  0
    0.8917    0.4616    0.0390 C   0  0  0  0  0  2  0  0  0  0  0  0
    1.6746    1.6116    0.0968 C   0  0  0  0  0  0  0  0  0  0  0  0
    3.0909    1.3210   -0.1013 C   0  0  0  0  0  0  0  0  0  0  0  0
    1.2398    3.0373    0.3373 C   0  0  0  0  0  0  0  0  0  0  0  0
    4.1427    2.3863   -0.1911 C   0  0  0  0  0  0  0  0  0  0  0  0
    0.4409    3.3350    1.5941 C   0  0  0  0  0  0  0  0  0  0  0  0
   -2.3973   -1.4477    0.0034 C   0  0  0  0  0  0  0  0  0  0  0  0
   -2.8589   -2.4985    0.8327 C   0  0  0  0  0  0  0  0  0  0  0  0
   -4.1929   -2.9215    0.7669 C   0  0  0  0  0  0  0  0  0  0  0  0
   -5.0820   -2.3259   -0.1413 C   0  0  0  0  0  0  0  0  0  0  0  0
   -4.6292   -1.2993   -0.9874 C   0  0  0  0  0  0  0  0  0  0  0  0
   -3.3034   -0.8597   -0.9133 C   0  0  0  0  0  0  0  0  0  0  0  0
   -1.4676    1.4816   -0.0362 C   0  0  0  0  0  0  0  0  0  0  0  0
   -1.3341    2.4245   -1.0786 C   0  0  0  0  0  0  0  0  0  0  0  0
   -2.1848    3.5378   -1.1429 C   0  0  0  0  0  0  0  0  0  0  0  0
   -3.1736    3.7264   -0.1651 C   0  0  0  0  0  0  0  0  0  0  0  0
   -3.3168    2.7888    0.8729 C   0  0  0  0  0  0  0  0  0  0  0  0
   -2.4759    1.6714    0.9343 C   0  0  0  0  0  0  0  0  0  0  0  0
   -2.1637   -2.9766    1.5347 H   0  0  0  0  0  0  0  0  0  0  0  0
   -4.5391   -3.7302    1.4282 H   0  0  0  0  0  0  0  0  0  0  0  0
   -6.1273   -2.6663   -0.1961 H   0  0  0  0  0  0  0  0  0  0  0  0
   -5.3154   -0.8384   -1.7139 H   0  0  0  0  0  0  0  0  0  0  0  0
   -2.9536   -0.0631   -1.5847 H   0  0  0  0  0  0  0  0  0  0  0  0
   -0.5580    2.2795   -1.8444 H   0  0  0  0  0  0  0  0  0  0  0  0
   -2.0676    4.2653   -1.9599 H   0  0  0  0  0  0  0  0  0  0  0  0
   -3.8359    4.6039   -0.2114 H   0  0  0  0  0  0  0  0  0  0  0  0
   -4.0912    2.9314    1.6417 H   0  0  0  0  0  0  0  0  0  0  0  0
   -2.5883    0.9361    1.7447 H   0  0  0  0  0  0  0  0  0  0  0  0
    3.8726    3.1144   -0.9804 H   0  0  0  0  0  0  0  0  0  0  0  0
    5.1259    1.9243   -0.3892 H   0  0  0  0  0  0  0  0  0  0  0  0
    4.1860    2.9661    0.7544 H   0  0  0  0  0  0  0  0  0  0  0  0
    0.0916    2.4287    2.1182 H   0  0  0  0  0  0  0  0  0  0  0  0
    1.1060    3.9073    2.2752 H   0  0  0  0  0  0  0  0  0  0  0  0
   -0.4189    3.9886    1.3501 H   0  0  0  0  0  0  0  0  0  0  0  0
  2  9  1  0  0  0  0
  3 10  2  0  0  0  0
  4  1  2  0  0  0  0
  5  4  1  0  0  0  0
  6  7  1  0  0  0  0
  6  5  2  0  0  0  0
  7  8  1  0  0  0  0
  8 10  1  0  0  0  0
  9  8  2  0  0  0  0
 10 12  1  0  0  0  0
 11  9  1  0  0  0  0
 11 37  1  0  0  0  0
 12 38  1  0  0  0  0
 12 39  1  0  0  0  0
 13  5  1  0  0  0  0
 13 14  1  0  0  0  0
 14 25  1  0  0  0  0
 15 14  2  0  0  0  0
 15 26  1  0  0  0  0
 16 15  1  0  0  0  0
 17 18  1  0  0  0  0
 17 16  2  0  0  0  0
 18 13  2  0  0  0  0
 19  6  1  0  0  0  0
 19 24  1  0  0  0  0
 20 19  2  0  0  0  0
 21 20  1  0  0  0  0
 21 22  2  0  0  0  0
 22 23  1  0  0  0  0
 23 24  2  0  0  0  0
 23 33  1  0  0  0  0
 24 34  1  0  0  0  0
 27 16  1  0  0  0  0
 28 17  1  0  0  0  0
 29 18  1  0  0  0  0
 30 20  1  0  0  0  0
 31 21  1  0  0  0  0
 32 22  1  0  0  0  0
 35 11  1  0  0  0  0
 36 11  1  0  0  0  0
 40 12  1  0  0  0  0
M  CHG  1   2  -1
M  END
