1,2,13,32
 OpenBabel05122313063D

 66 65  0  0  1  0  0  0  0  0999 V2000
   -0.3535   -0.0266    1.5423 S   0  0  0  0  0  0  0  0  0  0  0  0
    0.3693   -0.1172   -1.6052 S   0  0  0  0  0  0  0  0  0  0  0  0
   -3.5134   -0.9138   -1.8110 O   0  0  0  0  0  0  0  0  0  0  0  0
   -3.7427   -2.7724   -0.5182 O   0  0  0  0  0  0  0  0  0  0  0  0
   -2.7841    1.8428    1.9990 O   0  0  0  0  0  0  0  0  0  0  0  0
   -4.2636    0.5638    0.8389 O   0  0  0  0  0  0  0  0  0  0  0  0
    3.1778    1.1073   -2.0430 O   0  0  0  0  0  0  0  0  0  0  0  0
    4.2733   -0.3767   -0.7101 O   0  0  0  0  0  0  0  0  0  0  0  0
    3.3246   -3.4972    0.0965 O   0  0  0  0  0  0  0  0  0  0  0  0
    2.9652   -2.0464    1.8168 O   0  0  0  0  0  0  0  0  0  0  0  0
    0.6421    2.5087    1.4184 N   0  0  0  0  0  0  0  0  0  0  0  0
   -0.0492    2.5717   -1.4954 N   0  0  0  0  0  0  0  0  0  0  0  0
   -2.0802   -1.2120    0.0574 C   0  0  0  0  0  3  0  0  0  0  0  0
   -3.1974   -1.5767   -0.8343 C   0  0  0  0  0  0  0  0  0  0  0  0
   -4.7508   -3.2397   -1.4228 C   0  0  0  0  0  0  0  0  0  0  0  0
   -2.0433   -0.1611    0.9172 C   0  0  0  0  0  0  0  0  0  0  0  0
   -3.0322    0.8497    1.3238 C   0  0  0  0  0  0  0  0  0  0  0  0
   -5.2755    1.5369    1.1103 C   0  0  0  0  0  0  0  0  0  0  0  0
    0.2009    1.4467    0.6641 C   0  0  2  0  0  3  0  0  0  0  0  0
    0.1290    2.8356    2.7517 C   0  0  0  0  0  0  0  0  0  0  0  0
   -0.6392    4.1569    2.7998 C   0  0  0  0  0  0  0  0  0  0  0  0
    1.8790    3.1801    1.0041 C   0  0  0  0  0  0  0  0  0  0  0  0
    3.1320    2.4333    1.4675 C   0  0  0  0  0  0  0  0  0  0  0  0
    0.1565    1.4466   -0.7342 C   0  0  1  0  0  3  0  0  0  0  0  0
   -1.1331    3.4787   -1.0977 C   0  0  0  0  0  0  0  0  0  0  0  0
   -2.5031    2.9952   -1.5799 C   0  0  0  0  0  0  0  0  0  0  0  0
    0.5337    2.7734   -2.8252 C   0  0  0  0  0  0  0  0  0  0  0  0
    1.5853    3.8830   -2.8645 C   0  0  0  0  0  0  0  0  0  0  0  0
    1.9649   -0.6477   -0.9535 C   0  0  0  0  0  0  0  0  0  0  0  0
    3.1653    0.1226   -1.3132 C   0  0  0  0  0  0  0  0  0  0  0  0
    5.4951    0.3075   -0.9999 C   0  0  0  0  0  0  0  0  0  0  0  0
    1.7454   -1.7159   -0.1431 C   0  0  0  0  0  3  0  0  0  0  0  0
    2.7750   -2.5117    0.5529 C   0  0  0  0  0  0  0  0  0  0  0  0
    3.8912   -2.8025    2.6049 C   0  0  0  0  0  0  0  0  0  0  0  0
   -5.1118   -4.1981   -1.0097 H   0  0  0  0  0  0  0  0  0  0  0  0
   -4.3259   -3.3927   -2.4356 H   0  0  0  0  0  0  0  0  0  0  0  0
   -5.5839   -2.5121   -1.5004 H   0  0  0  0  0  0  0  0  0  0  0  0
   -6.2087    1.1345    0.6785 H   0  0  0  0  0  0  0  0  0  0  0  0
   -5.0225    2.5077    0.6367 H   0  0  0  0  0  0  0  0  0  0  0  0
   -5.3884    1.6996    2.2010 H   0  0  0  0  0  0  0  0  0  0  0  0
    0.9849    2.8557    3.4630 H   0  0  0  0  0  0  0  0  0  0  0  0
   -0.5433    2.0187    3.0718 H   0  0  0  0  0  0  0  0  0  0  0  0
   -0.9007    4.4068    3.8482 H   0  0  0  0  0  0  0  0  0  0  0  0
   -1.5828    4.0661    2.2289 H   0  0  0  0  0  0  0  0  0  0  0  0
   -0.0452    5.0007    2.3925 H   0  0  0  0  0  0  0  0  0  0  0  0
    1.8618    4.2104    1.4160 H   0  0  0  0  0  0  0  0  0  0  0  0
    1.8735    3.2871   -0.0980 H   0  0  0  0  0  0  0  0  0  0  0  0
    4.0458    2.9336    1.0875 H   0  0  0  0  0  0  0  0  0  0  0  0
    3.1311    1.3877    1.1005 H   0  0  0  0  0  0  0  0  0  0  0  0
    3.2005    2.4003    2.5741 H   0  0  0  0  0  0  0  0  0  0  0  0
   -0.9032    4.4849   -1.5060 H   0  0  0  0  0  0  0  0  0  0  0  0
   -1.1209    3.5810    0.0051 H   0  0  0  0  0  0  0  0  0  0  0  0
   -2.7090    1.9609   -1.2380 H   0  0  0  0  0  0  0  0  0  0  0  0
   -2.5693    2.9946   -2.6869 H   0  0  0  0  0  0  0  0  0  0  0  0
   -3.3054    3.6571   -1.1950 H   0  0  0  0  0  0  0  0  0  0  0  0
   -0.2904    2.9894   -3.5405 H   0  0  0  0  0  0  0  0  0  0  0  0
    1.0025    1.8242   -3.1444 H   0  0  0  0  0  0  0  0  0  0  0  0
    1.9011    4.0718   -3.9107 H   0  0  0  0  0  0  0  0  0  0  0  0
    2.4817    3.5753   -2.2926 H   0  0  0  0  0  0  0  0  0  0  0  0
    1.1989    4.8379   -2.4526 H   0  0  0  0  0  0  0  0  0  0  0  0
    6.2929   -0.2671   -0.4970 H   0  0  0  0  0  0  0  0  0  0  0  0
    5.4653    1.3462   -0.6112 H   0  0  0  0  0  0  0  0  0  0  0  0
    5.6768    0.3493   -2.0925 H   0  0  0  0  0  0  0  0  0  0  0  0
    3.8995   -2.3317    3.6041 H   0  0  0  0  0  0  0  0  0  0  0  0
    4.9058   -2.7748    2.1576 H   0  0  0  0  0  0  0  0  0  0  0  0
    3.5737   -3.8622    2.6793 H   0  0  0  0  0  0  0  0  0  0  0  0
  2 29  1  0  0  0  0
  3 14  2  0  0  0  0
  6 18  1  0  0  0  0
  6 17  1  0  0  0  0
  7 30  2  0  0  0  0
  9 33  2  0  0  0  0
 10 34  1  0  0  0  0
 11 20  1  0  0  0  0
 12 25  1  0  0  0  0
 12 24  1  0  0  0  0
 13 16  2  0  0  0  0
 14  4  1  0  0  0  0
 14 13  1  0  0  0  0
 15 35  1  0  0  0  0
 15  4  1  0  0  0  0
 16 17  1  0  0  0  0
 16  1  1  0  0  0  0
 17  5  2  0  0  0  0
 18 40  1  0  0  0  0
 19 11  1  0  0  0  0
 19  1  1  1  0  0  0
 20 21  1  0  0  0  0
 20 42  1  0  0  0  0
 20 41  1  0  0  0  0
 21 43  1  0  0  0  0
 22 46  1  0  0  0  0
 22 11  1  0  0  0  0
 22 23  1  0  0  0  0
 23 50  1  0  0  0  0
 24  2  1  1  0  0  0
 24 19  1  0  0  0  0
 25 52  1  0  0  0  0
 26 53  1  0  0  0  0
 26 55  1  0  0  0  0
 26 25  1  0  0  0  0
 27 12  1  0  0  0  0
 28 27  1  0  0  0  0
 28 60  1  0  0  0  0
 28 59  1  0  0  0  0
 29 32  2  0  0  0  0
 30 29  1  0  0  0  0
 30  8  1  0  0  0  0
 31  8  1  0  0  0  0
 31 62  1  0  0  0  0
 31 61  1  0  0  0  0
 32 33  1  0  0  0  0
 33 10  1  0  0  0  0
 34 66  1  0  0  0  0
 34 64  1  0  0  0  0
 36 15  1  0  0  0  0
 37 15  1  0  0  0  0
 38 18  1  0  0  0  0
 39 18  1  0  0  0  0
 44 21  1  0  0  0  0
 45 21  1  0  0  0  0
 47 22  1  0  0  0  0
 48 23  1  0  0  0  0
 49 23  1  0  0  0  0
 51 25  1  0  0  0  0
 54 26  1  0  0  0  0
 56 27  1  0  0  0  0
 57 27  1  0  0  0  0
 58 28  1  0  0  0  0
 63 31  1  0  0  0  0
 65 34  1  0  0  0  0
M  END
