1,3,6,7,9
q = -2.0, confidence = 0.738

 32 31  0  0  0  0  0  0  0  0999 V2000
   -0.3505   -1.6351    0.7871 O   0  5  0  0  0  0  0  0  0  0  0  0
    0.0570   -2.3633    2.8922 O   0  0  0  0  0  0  0  0  0  0  0  0
    1.9293   -1.0442   -1.2545 O   0  5  0  0  0  0  0  0  0  0  0  0
    4.1885   -0.8563   -1.1980 O   0  0  0  0  0  0  0  0  0  0  0  0
   -4.2301   -0.2841   -0.2908 O   0  5  0  0  0  0  0  0  0  0  0  0
   -2.1148   -0.3541   -1.0923 O   0  0  0  0  0  0  0  0  0  0  0  0
    0.4330    1.6290   -1.4021 O   0  5  0  0  0  0  0  0  0  0  0  0
    0.3776    3.8767   -1.1217 O   0  0  0  0  0  0  0  0  0  0  0  0
    1.5953    0.3100    0.9882 N   0  0  0  0  0  0  0  0  0  0  0  0
   -1.1565    1.2619    0.8009 N   0  0  0  0  0  0  0  0  0  0  0  0
    0.3413   -1.7019    1.8991 C   0  0  0  0  0  0  0  0  0  0  0  0
    1.6529   -0.8868    1.8491 C   0  0  0  0  0  0  0  0  0  0  0  0
    1.9752   -0.6387    2.8858 H   0  0  0  0  0  0  0  0  0  0  0  0
    2.4120   -1.5785    1.4292 H   0  0  0  0  0  0  0  0  0  0  0  0
    3.0610   -0.5582   -0.8172 C   0  0  0  0  0  0  0  0  0  0  0  0
    2.8600    0.5281    0.2661 C   0  0  0  0  0  0  0  0  0  0  0  0
    3.7445    0.5597    0.9427 H   0  0  0  0  0  0  0  0  0  0  0  0
    2.7874    1.4990   -0.2668 H   0  0  0  0  0  0  0  0  0  0  0  0
    1.1355    1.5010    1.7163 C   0  0  0  0  0  0  0  0  0  0  0  0
    1.3499    2.3923    1.0943 H   0  0  0  0  0  0  0  0  0  0  0  0
    1.7001    1.6334    2.6723 H   0  0  0  0  0  0  0  0  0  0  0  0
   -0.3568    1.4203    2.0241 C   0  0  0  0  0  0  0  0  0  0  0  0
   -0.5576    0.5490    2.6794 H   0  0  0  0  0  0  0  0  0  0  0  0
   -0.6651    2.3298    2.5966 H   0  0  0  0  0  0  0  0  0  0  0  0
   -3.0318   -0.0252   -0.2186 C   0  0  0  0  0  0  0  0  0  0  0  0
   -2.4744    0.6639    1.0457 C   0  0  0  0  0  0  0  0  0  0  0  0
   -3.2181    1.3931    1.4413 H   0  0  0  0  0  0  0  0  0  0  0  0
   -2.3567   -0.1444    1.7967 H   0  0  0  0  0  0  0  0  0  0  0  0
   -0.0367    2.7428   -0.9005 C   0  0  0  0  0  0  0  0  0  0  0  0
   -1.2544    2.5107    0.0239 C   0  0  0  0  0  0  0  0  0  0  0  0
   -1.4115    3.3987    0.6783 H   0  0  0  0  0  0  0  0  0  0  0  0
   -2.1345    2.4269   -0.6466 H   0  0  0  0  0  0  0  0  0  0  0  0
  1 11  1  0  0  0  0
  3 15  1  0  0  0  0
  4 15  2  0  0  0  0
  5 25  1  0  0  0  0
  6 25  2  0  0  0  0
  7 29  1  0  0  0  0
  8 29  2  0  0  0  0
  9 19  1  0  0  0  0
  9 12  1  0  0  0  0
 10 26  1  0  0  0  0
 10 22  1  0  0  0  0
 11  2  2  0  0  0  0
 12 11  1  0  0  0  0
 12 13  1  0  0  0  0
 14 12  1  0  0  0  0
 15 16  1  0  0  0  0
 16 17  1  0  0  0  0
 16  9  1  0  0  0  0
 18 16  1  0  0  0  0
 19 22  1  0  0  0  0
 19 21  1  0  0  0  0
 20 19  1  0  0  0  0
 22 24  1  0  0  0  0
 22 23  1  0  0  0  0
 25 26  1  0  0  0  0
 26 27  1  0  0  0  0
 26 28  1  0  0  0  0
 29 30  1  0  0  0  0
 30 31  1  0  0  0  0
 30 10  1  0  0  0  0
 32 30  1  0  0  0  0
M  CHG  4   1  -1   3  -1   5  -1   7  -1
M  END
