1,2,3,4,9
q = -2.0, confidence = 0.712

 31 31  0  0  1  0  0  0  0  0999 V2000
    1.3368   -1.0824    1.4366 O   0  5  0  0  0  0  0  0  0  0  0  0
    1.3471   -1.2402   -1.2618 O   0  5  0  0  0  0  0  0  0  0  0  0
   -1.3468   -1.2400   -1.2621 O   0  5  0  0  0  0  0  0  0  0  0  0
   -1.3371   -1.0829    1.4363 O   0  5  0  0  0  0  0  0  0  0  0  0
    3.3061   -0.2547    2.1192 O   0  0  0  0  0  0  0  0  0  0  0  0
    3.3630   -0.5691   -1.9777 O   0  0  0  0  0  0  0  0  0  0  0  0
   -3.3626   -0.5689   -1.9780 O   0  0  0  0  0  0  0  0  0  0  0  0
   -3.3063   -0.2552    2.1191 O   0  0  0  0  0  0  0  0  0  0  0  0
   -0.0001    0.7621   -0.0143 N   0  0  0  0  0  2  0  0  0  0  0  0
    2.3812   -0.3261    1.3135 C   0  0  0  0  0  0  0  0  0  0  0  0
    2.4144   -0.4909   -1.2036 C   0  0  0  0  0  0  0  0  0  0  0  0
   -2.4141   -0.4908   -1.2037 C   0  0  0  0  0  0  0  0  0  0  0  0
   -2.3813   -0.3265    1.3133 C   0  0  0  0  0  0  0  0  0  0  0  0
    3.7321    1.3463   -0.0537 C   0  0  0  0  0  0  0  0  0  0  0  0
    4.5835    0.6472    0.0014 H   0  0  0  0  0  0  0  0  0  0  0  0
    3.7990    2.0287    0.8150 H   0  0  0  0  0  0  0  0  0  0  0  0
    3.8210    1.9144   -1.0000 H   0  0  0  0  0  0  0  0  0  0  0  0
    2.4377    0.5459   -0.0156 C   0  0  0  0  0  0  0  0  0  0  0  0
    1.1985    1.4020   -0.0714 C   0  0  2  0  0  3  0  0  0  0  0  0
    1.2129    2.8059   -0.1761 C   0  0  0  0  0  0  0  0  0  0  0  0
    2.1728    3.3335   -0.2187 H   0  0  0  0  0  0  0  0  0  0  0  0
   -0.0001    3.5020   -0.2249 C   0  0  0  0  0  0  0  0  0  0  0  0
   -0.0001    4.6002   -0.3055 H   0  0  0  0  0  0  0  0  0  0  0  0
   -1.2131    2.8058   -0.1759 C   0  0  0  0  0  0  0  0  0  0  0  0
   -2.1730    3.3335   -0.2183 H   0  0  0  0  0  0  0  0  0  0  0  0
   -1.1987    1.4020   -0.0712 C   0  0  0  0  0  0  0  0  0  0  0  0
   -2.4378    0.5458   -0.0156 C   0  0  0  0  0  0  0  0  0  0  0  0
   -3.7322    1.3461   -0.0537 C   0  0  0  0  0  0  0  0  0  0  0  0
   -3.8210    1.9143   -0.9999 H   0  0  0  0  0  0  0  0  0  0  0  0
   -3.7993    2.0284    0.8151 H   0  0  0  0  0  0  0  0  0  0  0  0
   -4.5836    0.6469    0.0012 H   0  0  0  0  0  0  0  0  0  0  0  0
  2 11  1  0  0  0  0
  3 12  1  0  0  0  0
  6 11  2  0  0  0  0
  7 12  2  0  0  0  0
 10  1  1  0  0  0  0
 10  5  2  0  0  0  0
 11 18  1  0  0  0  0
 12 27  1  0  0  0  0
 13  4  1  0  0  0  0
 13  8  2  0  0  0  0
 14 18  1  0  0  0  0
 14 15  1  0  0  0  0
 14 16  1  0  0  0  0
 17 14  1  0  0  0  0
 18 10  1  0  0  0  0
 19 18  1  1  0  0  0
 19  9  1  0  0  0  0
 20 19  1  0  0  0  0
 21 20  1  0  0  0  0
 22 20  2  0  0  0  0
 22 24  1  0  0  0  0
 23 22  1  0  0  0  0
 24 26  2  0  0  0  0
 25 24  1  0  0  0  0
 26 27  1  0  0  0  0
 26  9  1  0  0  0  0
 27 13  1  0  0  0  0
 28 27  1  0  0  0  0
 28 31  1  0  0  0  0
 28 30  1  0  0  0  0
 29 28  1  0  0  0  0
M  CHG  4   1  -1   2  -1   3  -1   4  -1
M  END
