1,15,25,31,42
 OpenBabel05122313063D

 42 43  0  0  1  0  0  0  0  0999 V2000
    1.5791    1.0640    0.4960 O   0  5  0  0  0  0  0  0  0  0  0  0
    2.7962    0.8628   -0.0232 C   0  0  0  0  0  0  0  0  0  0  0  0
    3.7504    1.9053   -0.0004 C   0  0  0  0  0  0  0  0  0  0  0  0
    3.4545    2.8645    0.4488 H   0  0  0  0  0  0  0  0  0  0  0  0
    5.0359    1.7004   -0.5153 C   0  0  0  0  0  0  0  0  0  0  0  0
    5.7710    2.5189   -0.4797 H   0  0  0  0  0  0  0  0  0  0  0  0
    5.3898    0.4595   -1.0717 C   0  0  0  0  0  0  0  0  0  0  0  0
    6.4003    0.2969   -1.4741 H   0  0  0  0  0  0  0  0  0  0  0  0
    4.4417   -0.5730   -1.1151 C   0  0  0  0  0  0  0  0  0  0  0  0
    4.7076   -1.5494   -1.5497 H   0  0  0  0  0  0  0  0  0  0  0  0
    3.1456   -0.3921   -0.6047 C   0  0  0  0  0  0  0  0  0  0  0  0
    2.1445   -1.5272   -0.6081 C   0  0  1  0  0  0  0  0  0  0  0  0
    2.5035   -2.3326   -1.2833 H   0  0  0  0  0  0  0  0  0  0  0  0
    2.0080   -2.1132    0.8271 C   0  0  0  0  0  0  0  0  0  0  0  0
    1.0315   -1.5251    1.4966 O   0  5  0  0  0  0  0  0  0  0  0  0
    2.7463   -2.9822    1.2487 O   0  0  0  0  0  0  0  0  0  0  0  0
    0.7921   -1.0559   -0.9818 N   0  0  0  0  0  0  0  0  0  0  0  0
    0.1350   -1.8492   -0.9565 H   0  0  0  0  0  0  0  0  0  0  0  0
    0.6744   -0.3375   -2.2583 C   0  0  0  0  0  0  0  0  0  0  0  0
    0.7909   -1.0139   -3.1341 H   0  0  0  0  0  0  0  0  0  0  0  0
    1.5019    0.3993   -2.3067 H   0  0  0  0  0  0  0  0  0  0  0  0
   -0.6763    0.3582   -2.2754 C   0  0  0  0  0  0  0  0  0  0  0  0
   -0.7835    1.0149   -3.1668 H   0  0  0  0  0  0  0  0  0  0  0  0
   -1.5004   -0.3828   -2.3187 H   0  0  0  0  0  0  0  0  0  0  0  0
   -0.8228    1.1057   -1.0158 N   0  0  0  0  0  0  0  0  0  0  0  0
   -0.2110    1.9349   -1.0240 H   0  0  0  0  0  0  0  0  0  0  0  0
   -2.2006    1.5183   -0.6588 C   0  0  2  0  0  0  0  0  0  0  0  0
   -2.5959    2.2887   -1.3537 H   0  0  0  0  0  0  0  0  0  0  0  0
   -2.1105    2.1264    0.7672 C   0  0  0  0  0  0  0  0  0  0  0  0
   -2.8865    2.9706    1.1702 O   0  5  0  0  0  0  0  0  0  0  0  0
   -1.1310    1.5723    1.4644 O   0  0  0  0  0  0  0  0  0  0  0  0
   -3.1444    0.3355   -0.6240 C   0  0  0  0  0  0  0  0  0  0  0  0
   -4.4369    0.4340   -1.1662 C   0  0  0  0  0  0  0  0  0  0  0  0
   -4.7347    1.3753   -1.6547 H   0  0  0  0  0  0  0  0  0  0  0  0
   -5.3424   -0.6336   -1.0873 C   0  0  0  0  0  0  0  0  0  0  0  0
   -6.3500   -0.5354   -1.5164 H   0  0  0  0  0  0  0  0  0  0  0  0
   -4.9471   -1.8277   -0.4601 C   0  0  0  0  0  0  0  0  0  0  0  0
   -5.6473   -2.6747   -0.3954 H   0  0  0  0  0  0  0  0  0  0  0  0
   -3.6645   -1.9503    0.0860 C   0  0  0  0  0  0  0  0  0  0  0  0
   -3.3371   -2.8740    0.5855 H   0  0  0  0  0  0  0  0  0  0  0  0
   -2.7498   -0.8719    0.0283 C   0  0  0  0  0  0  0  0  0  0  0  0
   -1.5365   -1.0064    0.5720 O   0  5  0  0  0  0  0  0  0  0  0  0
  2  3  1  0  0  0  0
  2  1  1  0  0  0  0
  3  4  1  0  0  0  0
  5  6  1  0  0  0  0
  5  3  2  0  0  0  0
  7  5  1  0  0  0  0
  8  7  1  0  0  0  0
  9  7  2  0  0  0  0
  9 11  1  0  0  0  0
 10  9  1  0  0  0  0
 11  2  2  0  0  0  0
 12 13  1  6  0  0  0
 12 11  1  0  0  0  0
 12 14  1  0  0  0  0
 14 16  2  0  0  0  0
 14 15  1  0  0  0  0
 17 18  1  0  0  0  0
 17 12  1  0  0  0  0
 19 17  1  0  0  0  0
 20 19  1  0  0  0  0
 21 19  1  0  0  0  0
 22 19  1  0  0  0  0
 22 25  1  0  0  0  0
 23 22  1  0  0  0  0
 24 22  1  0  0  0  0
 25 27  1  0  0  0  0
 26 25  1  0  0  0  0
 27 28  1  6  0  0  0
 27 32  1  0  0  0  0
 27 29  1  0  0  0  0
 29 30  1  0  0  0  0
 29 31  2  0  0  0  0
 32 41  1  0  0  0  0
 33 35  1  0  0  0  0
 33 32  2  0  0  0  0
 34 33  1  0  0  0  0
 35 37  2  0  0  0  0
 36 35  1  0  0  0  0
 37 38  1  0  0  0  0
 37 39  1  0  0  0  0
 39 40  1  0  0  0  0
 41 39  2  0  0  0  0
 41 42  1  0  0  0  0
M  CHG  4   1  -1  15  -1  30  -1  42  -1
M  END
