1,2,3,4,9
q = -1.0, confidence = 0.424

 33 32  0  0  1  0  0  0  0  0999 V2000
    2.1180   -0.2289   -1.4158 O   0  5  0  0  0  0  0  0  0  0  0  0
   -2.1189    0.0915   -1.5392 O   0  0  0  0  0  1  0  0  0  0  0  0
   -0.2634   -1.7640   -0.4485 O   0  5  0  0  0  0  0  0  0  0  0  0
    0.2665    1.8625   -0.5636 O   0  5  0  0  0  0  0  0  0  0  0  0
    4.3293   -0.0789   -0.9885 O   0  0  0  0  0  0  0  0  0  0  0  0
   -4.1229   -0.7909   -1.0172 O   0  0  0  0  0  0  0  0  0  0  0  0
   -0.5028   -3.2330    1.2452 O   0  0  0  0  0  0  0  0  0  0  0  0
   -0.0465    3.7143    0.6913 O   0  0  0  0  0  0  0  0  0  0  0  0
    1.4196   -0.2776    1.0745 N   0  0  0  0  0  0  0  0  0  0  0  0
   -1.4044    0.4315    1.0165 N   0  0  0  0  0  0  0  0  0  0  0  0
    0.7611    0.3869    2.2146 C   0  0  0  0  0  0  0  0  0  0  0  0
   -0.7269    0.0700    2.2728 C   0  0  0  0  0  0  0  0  0  0  0  0
    2.7612    0.2640    0.8203 C   0  0  0  0  0  0  0  0  0  0  0  0
    3.1712   -0.0442   -0.6249 C   0  0  0  0  0  0  0  0  0  0  0  0
   -2.6024   -0.3650    0.7705 C   0  0  0  0  0  0  0  0  0  0  0  0
   -2.9146   -0.3250   -0.7049 C   0  0  1  0  0  3  0  0  0  0  0  0
    1.4280   -1.7504    1.2154 C   0  0  0  0  0  0  0  0  0  0  0  0
    0.1157   -2.3450    0.6788 C   0  0  0  0  0  0  0  0  0  0  0  0
   -1.6167    1.8802    0.8952 C   0  0  0  0  0  0  0  0  0  0  0  0
   -0.3694    2.5956    0.3413 C   0  0  0  0  0  0  0  0  0  0  0  0
   -4.1879   -0.7800   -1.9990 H   0  0  0  0  0  0  0  0  0  0  0  0
    0.9250    1.4779    2.1159 H   0  0  0  0  0  0  0  0  0  0  0  0
    1.2351    0.0805    3.1768 H   0  0  0  0  0  0  0  0  0  0  0  0
   -0.8800   -1.0110    2.4547 H   0  0  0  0  0  0  0  0  0  0  0  0
   -1.1769    0.6054    3.1419 H   0  0  0  0  0  0  0  0  0  0  0  0
    3.5290   -0.1179    1.5277 H   0  0  0  0  0  0  0  0  0  0  0  0
    2.7199    1.3689    0.9180 H   0  0  0  0  0  0  0  0  0  0  0  0
   -2.4015   -1.4302    1.0200 H   0  0  0  0  0  0  0  0  0  0  0  0
   -3.4936   -0.0476    1.3613 H   0  0  0  0  0  0  0  0  0  0  0  0
    1.6015   -2.0715    2.2649 H   0  0  0  0  0  0  0  0  0  0  0  0
    2.2492   -2.1604    0.5928 H   0  0  0  0  0  0  0  0  0  0  0  0
   -2.4293    2.0741    0.1664 H   0  0  0  0  0  0  0  0  0  0  0  0
   -1.9090    2.3499    1.8600 H   0  0  0  0  0  0  0  0  0  0  0  0
  1 14  1  0  0  0  0
  3 18  1  0  0  0  0
  4 20  1  0  0  0  0
  5 14  2  0  0  0  0
  6 16  1  0  0  0  0
  9 17  1  0  0  0  0
  9 11  1  0  0  0  0
 10 12  1  0  0  0  0
 11 12  1  0  0  0  0
 11 23  1  0  0  0  0
 12 24  1  0  0  0  0
 12 25  1  0  0  0  0
 13 27  1  0  0  0  0
 13  9  1  0  0  0  0
 13 26  1  0  0  0  0
 14 13  1  0  0  0  0
 15 10  1  0  0  0  0
 15 28  1  0  0  0  0
 15 29  1  0  0  0  0
 16  2  1  6  0  0  0
 16 15  1  0  0  0  0
 17 30  1  0  0  0  0
 18 17  1  0  0  0  0
 18  7  2  0  0  0  0
 19 10  1  0  0  0  0
 19 33  1  0  0  0  0
 20  8  2  0  0  0  0
 20 19  1  0  0  0  0
 21  6  1  0  0  0  0
 22 11  1  0  0  0  0
 31 17  1  0  0  0  0
 32 19  1  0  0  0  0
M  CHG  3   1  -1   3  -1   4  -1
M  END
