1,12
q = -2.0, confidence = 0.794

 13 12  0  0  0  0  0  0  0  0999 V2000
   -1.9319   -0.1942    0.9702 O   0  0  0  0  0  1  0  0  0  0  0  0
   -3.0830   -0.2000   -0.2464 S   0  0  0  0  0  3  0  0  0  0  0  0
    0.0683   -3.6245   -0.4077 C   0  0  0  0  0  0  0  0  0  0  0  0
    0.8961   -3.6124   -1.1408 H   0  0  0  0  0  0  0  0  0  0  0  0
   -0.6043   -4.4668   -0.6796 H   0  0  0  0  0  0  0  0  0  0  0  0
    0.4782   -3.8785    0.5893 H   0  0  0  0  0  0  0  0  0  0  0  0
   -3.8432   -1.4892   -0.1933 O   0  0  0  0  0  1  0  0  0  0  0  0
   -0.7327   -2.3551   -0.3795 C   0  0  0  0  0  3  0  0  0  0  0  0
   -1.5107   -2.3041    0.4012 H   0  0  0  0  0  0  0  0  0  0  0  0
   -0.9692   -1.5881   -1.5520 C   0  0  0  0  0  3  0  0  0  0  0  0
   -0.4364   -1.8578   -2.4840 H   0  0  0  0  0  0  0  0  0  0  0  0
   -1.7187   -0.3728   -1.5290 C   0  0  0  0  0  3  0  0  0  0  0  0
   -1.8772    0.1865   -2.4651 H   0  0  0  0  0  0  0  0  0  0  0  0
  2  7  1  0  0  0  0
  2  1  1  0  0  0  0
  3  8  1  0  0  0  0
  3  6  1  0  0  0  0
  4  3  1  0  0  0  0
  5  3  1  0  0  0  0
  8  9  1  0  0  0  0
 10 12  1  0  0  0  0
 10  8  1  0  0  0  0
 11 10  1  0  0  0  0
 12  2  1  0  0  0  0
 13 12  1  0  0  0  0
M  END
