1,3
q = -2.0, confidence = 0.724

 19 18  0  0  1  0  0  0  0  0999 V2000
    1.2303    1.6072   -0.9771 O   0  5  0  0  0  0  0  0  0  0  0  0
    1.4559    3.7427   -1.6485 O   0  0  0  0  0  0  0  0  0  0  0  0
   -0.9493    1.9879    0.3014 C   0  0  0  0  0  2  0  0  0  0  0  0
   -0.4482    3.1121   -0.2923 C   0  0  2  0  0  3  0  0  0  0  0  0
    0.8238    2.8724   -1.0467 C   0  0  0  0  0  0  0  0  0  0  0  0
   -2.0982    2.0163    1.2775 C   0  0  0  0  0  0  0  0  0  0  0  0
   -2.7683    1.1430    1.1296 H   0  0  0  0  0  0  0  0  0  0  0  0
   -2.7275    2.9208    1.1159 H   0  0  0  0  0  0  0  0  0  0  0  0
   -1.6131    2.0060    2.7365 C   0  0  0  0  0  0  0  0  0  0  0  0
   -2.4601    1.9827    3.4545 H   0  0  0  0  0  0  0  0  0  0  0  0
   -1.0012    2.9046    2.9535 H   0  0  0  0  0  0  0  0  0  0  0  0
   -0.9690    1.1245    2.9331 H   0  0  0  0  0  0  0  0  0  0  0  0
   -0.9383    4.5341   -0.1964 C   0  0  0  0  0  0  0  0  0  0  0  0
   -2.0211    4.5648    0.0504 H   0  0  0  0  0  0  0  0  0  0  0  0
   -0.8128    4.9940   -1.2007 H   0  0  0  0  0  0  0  0  0  0  0  0
   -0.1427    5.3741    0.8155 C   0  0  0  0  0  0  0  0  0  0  0  0
   -0.4870    6.4295    0.8332 H   0  0  0  0  0  0  0  0  0  0  0  0
    0.9312    5.3679    0.5421 H   0  0  0  0  0  0  0  0  0  0  0  0
   -0.2380    4.9654    1.8431 H   0  0  0  0  0  0  0  0  0  0  0  0
  2  5  2  0  0  0  0
  3  6  1  0  0  0  0
  4 13  1  0  0  0  0
  4  3  1  1  0  0  0
  5  1  1  0  0  0  0
  5  4  1  0  0  0  0
  6  9  1  0  0  0  0
  7  6  1  0  0  0  0
  8  6  1  0  0  0  0
  9 12  1  0  0  0  0
  9 11  1  0  0  0  0
  9 10  1  0  0  0  0
 13 14  1  0  0  0  0
 13 16  1  0  0  0  0
 15 13  1  0  0  0  0
 16 17  1  0  0  0  0
 16 19  1  0  0  0  0
 18 16  1  0  0  0  0
M  CHG  1   1  -1
M  END
