1,9
q = 0.0, confidence = 0.956

 21 21  0  0  1  0  0  0  0  0999 V2000
    1.9895    0.6523    1.5921 O   0  0  0  0  0  1  0  0  0  0  0  0
   -1.9101    0.5297    0.3875 C   0  0  0  0  0  0  0  0  0  0  0  0
   -2.8089   -0.1089    1.2744 C   0  0  0  0  0  0  0  0  0  0  0  0
   -4.1419   -0.3381    0.9132 C   0  0  0  0  0  0  0  0  0  0  0  0
   -4.6106    0.0682   -0.3468 C   0  0  0  0  0  0  0  0  0  0  0  0
   -3.7317    0.7038   -1.2392 C   0  0  0  0  0  0  0  0  0  0  0  0
   -2.3975    0.9304   -0.8790 C   0  0  0  0  0  0  0  0  0  0  0  0
   -0.5189    0.7426    0.8214 C   0  0  0  0  0  3  0  0  0  0  0  0
    0.4264    1.5946    0.1552 C   0  0  0  0  0  3  0  0  0  0  0  0
    1.7769    1.5422    0.6631 C   0  0  1  0  0  3  0  0  0  0  0  0
    2.8747    2.4632    0.2073 C   0  0  0  0  0  0  0  0  0  0  0  0
   -2.4430   -0.4308    2.2621 H   0  0  0  0  0  0  0  0  0  0  0  0
   -4.8214   -0.8377    1.6204 H   0  0  0  0  0  0  0  0  0  0  0  0
   -5.6577   -0.1111   -0.6338 H   0  0  0  0  0  0  0  0  0  0  0  0
   -4.0891    1.0246   -2.2296 H   0  0  0  0  0  0  0  0  0  0  0  0
   -1.7254    1.4216   -1.5982 H   0  0  0  0  0  0  0  0  0  0  0  0
   -0.3257    0.5874    1.8962 H   0  0  0  0  0  0  0  0  0  0  0  0
    0.1780    2.2135   -0.7198 H   0  0  0  0  0  0  0  0  0  0  0  0
    3.8395    1.9240    0.1627 H   0  0  0  0  0  0  0  0  0  0  0  0
    2.9833    3.2802    0.9517 H   0  0  0  0  0  0  0  0  0  0  0  0
    2.6511    2.9209   -0.7748 H   0  0  0  0  0  0  0  0  0  0  0  0
  2  8  1  0  0  0  0
  2  3  1  0  0  0  0
  3 12  1  0  0  0  0
  4  3  2  0  0  0  0
  4 13  1  0  0  0  0
  5  4  1  0  0  0  0
  6  7  1  0  0  0  0
  6  5  2  0  0  0  0
  7  2  2  0  0  0  0
  8 17  1  0  0  0  0
  9 10  1  0  0  0  0
  9  8  1  0  0  0  0
 10  1  1  1  0  0  0
 11 10  1  0  0  0  0
 11 20  1  0  0  0  0
 14  5  1  0  0  0  0
 15  6  1  0  0  0  0
 16  7  1  0  0  0  0
 18  9  1  0  0  0  0
 19 11  1  0  0  0  0
 21 11  1  0  0  0  0
M  END
