1,8
q = -2.0, confidence = 0.942

 59 61  0  0  1  0  0  0  0  0999 V2000
   -0.0671    1.2302   -0.1332 O   0  5  0  0  0  0  0  0  0  0  0  0
    1.1310    0.6142   -0.0261 C   0  0  0  0  0  0  0  0  0  0  0  0
    2.3622    1.2525   -0.3462 C   0  0  0  0  0  0  0  0  0  0  0  0
    3.5283    0.4817   -0.1838 C   0  0  0  0  0  0  0  0  0  0  0  0
    3.5443   -0.8553    0.2738 C   0  0  0  0  0  0  0  0  0  0  0  0
    2.3077   -1.4524    0.5790 C   0  0  0  0  0  0  0  0  0  0  0  0
    1.1157   -0.7321    0.4224 C   0  0  0  0  0  0  0  0  0  0  0  0
   -0.2507   -1.2442    0.6860 C   0  0  1  0  0  3  0  0  0  0  0  0
   -0.9406   -1.1132    1.9314 C   0  0  0  0  0  0  0  0  0  0  0  0
   -2.3267   -1.3651    1.6986 C   0  0  0  0  0  0  0  0  0  0  0  0
   -2.5026   -1.7565    0.3281 C   0  0  0  0  0  0  0  0  0  0  0  0
   -3.6786   -2.1171   -0.4053 C   0  0  0  0  0  0  0  0  0  0  0  0
   -3.5057   -2.4127   -1.7529 C   0  0  0  0  0  0  0  0  0  0  0  0
   -2.2341   -2.3355   -2.3877 C   0  0  0  0  0  0  0  0  0  0  0  0
   -1.0727   -1.9553   -1.7176 C   0  0  0  0  0  0  0  0  0  0  0  0
   -1.2054   -1.6806   -0.3161 C   0  0  0  0  0  0  0  0  0  0  0  0
    2.3984    2.7100   -0.8371 C   0  0  0  0  0  0  0  0  0  0  0  0
    1.5699    2.8359   -2.1372 C   0  0  0  0  0  0  0  0  0  0  0  0
    1.8027    3.6300    0.2546 C   0  0  0  0  0  0  0  0  0  0  0  0
    3.8313    3.1847   -1.1354 C   0  0  0  0  0  0  0  0  0  0  0  0
    4.8869   -1.5958    0.4118 C   0  0  0  0  0  0  0  0  0  0  0  0
    5.7926   -0.8368    1.4082 C   0  0  0  0  0  0  0  0  0  0  0  0
    5.5801   -1.6592   -0.9683 C   0  0  0  0  0  0  0  0  0  0  0  0
    4.7016   -3.0337    0.9262 C   0  0  0  0  0  0  0  0  0  0  0  0
   -0.2945   -0.7155    3.2232 C   0  0  0  0  0  0  0  0  0  0  0  0
   -5.0101   -2.1703    0.2866 C   0  0  0  0  0  0  0  0  0  0  0  0
    0.2523   -1.8561   -2.4214 C   0  0  0  0  0  0  0  0  0  0  0  0
    4.4907    0.9524   -0.4254 H   0  0  0  0  0  0  0  0  0  0  0  0
    2.2471   -2.4906    0.9322 H   0  0  0  0  0  0  0  0  0  0  0  0
   -3.1183   -1.3438    2.4562 H   0  0  0  0  0  0  0  0  0  0  0  0
   -4.3807   -2.7117   -2.3514 H   0  0  0  0  0  0  0  0  0  0  0  0
   -2.1655   -2.5764   -3.4604 H   0  0  0  0  0  0  0  0  0  0  0  0
    1.9860    2.1834   -2.9322 H   0  0  0  0  0  0  0  0  0  0  0  0
    1.5916    3.8822   -2.5073 H   0  0  0  0  0  0  0  0  0  0  0  0
    0.5161    2.5491   -1.9649 H   0  0  0  0  0  0  0  0  0  0  0  0
    0.7620    3.3415    0.4922 H   0  0  0  0  0  0  0  0  0  0  0  0
    1.8051    4.6857   -0.0888 H   0  0  0  0  0  0  0  0  0  0  0  0
    2.4027    3.5711    1.1856 H   0  0  0  0  0  0  0  0  0  0  0  0
    4.4774    3.1491   -0.2348 H   0  0  0  0  0  0  0  0  0  0  0  0
    3.8067    4.2364   -1.4855 H   0  0  0  0  0  0  0  0  0  0  0  0
    4.3124    2.5798   -1.9307 H   0  0  0  0  0  0  0  0  0  0  0  0
    6.7703   -1.3509    1.5178 H   0  0  0  0  0  0  0  0  0  0  0  0
    5.3177   -0.7804    2.4086 H   0  0  0  0  0  0  0  0  0  0  0  0
    5.9932    0.2001    1.0726 H   0  0  0  0  0  0  0  0  0  0  0  0
    4.9498   -2.2026   -1.7012 H   0  0  0  0  0  0  0  0  0  0  0  0
    6.5550   -2.1849   -0.8932 H   0  0  0  0  0  0  0  0  0  0  0  0
    5.7735   -0.6474   -1.3768 H   0  0  0  0  0  0  0  0  0  0  0  0
    4.0805   -3.6408    0.2371 H   0  0  0  0  0  0  0  0  0  0  0  0
    4.2251   -3.0543    1.9271 H   0  0  0  0  0  0  0  0  0  0  0  0
    5.6876   -3.5331    1.0148 H   0  0  0  0  0  0  0  0  0  0  0  0
    0.1454   -1.6028    3.7263 H   0  0  0  0  0  0  0  0  0  0  0  0
   -1.0166   -0.2588    3.9250 H   0  0  0  0  0  0  0  0  0  0  0  0
    0.5342   -0.0006    3.0493 H   0  0  0  0  0  0  0  0  0  0  0  0
   -5.8217   -2.4563   -0.4095 H   0  0  0  0  0  0  0  0  0  0  0  0
   -5.2688   -1.1834    0.7279 H   0  0  0  0  0  0  0  0  0  0  0  0
   -5.0025   -2.8980    1.1261 H   0  0  0  0  0  0  0  0  0  0  0  0
    0.1665   -2.1819   -3.4759 H   0  0  0  0  0  0  0  0  0  0  0  0
    1.0281   -2.4708   -1.9216 H   0  0  0  0  0  0  0  0  0  0  0  0
    0.6427   -0.8169   -2.4097 H   0  0  0  0  0  0  0  0  0  0  0  0
  1  2  1  0  0  0  0
  2  7  1  0  0  0  0
  3  4  1  0  0  0  0
  3  2  2  0  0  0  0
  4  5  2  0  0  0  0
  5 21  1  0  0  0  0
  5  6  1  0  0  0  0
  6 29  1  0  0  0  0
  7  6  2  0  0  0  0
  8  7  1  6  0  0  0
  8  9  1  0  0  0  0
  9 25  1  0  0  0  0
 10  9  2  0  0  0  0
 10 30  1  0  0  0  0
 11 10  1  0  0  0  0
 12 26  1  0  0  0  0
 12 11  2  0  0  0  0
 13 12  1  0  0  0  0
 14 13  2  0  0  0  0
 14 15  1  0  0  0  0
 15 16  2  0  0  0  0
 16 11  1  0  0  0  0
 16  8  1  0  0  0  0
 17  3  1  0  0  0  0
 17 19  1  0  0  0  0
 18 35  1  0  0  0  0
 18 17  1  0  0  0  0
 19 36  1  0  0  0  0
 19 38  1  0  0  0  0
 20 17  1  0  0  0  0
 20 39  1  0  0  0  0
 21 24  1  0  0  0  0
 21 22  1  0  0  0  0
 22 42  1  0  0  0  0
 22 43  1  0  0  0  0
 23 46  1  0  0  0  0
 23 21  1  0  0  0  0
 24 50  1  0  0  0  0
 24 49  1  0  0  0  0
 25 51  1  0  0  0  0
 25 52  1  0  0  0  0
 26 55  1  0  0  0  0
 26 56  1  0  0  0  0
 27 59  1  0  0  0  0
 27 58  1  0  0  0  0
 27 15  1  0  0  0  0
 28  4  1  0  0  0  0
 31 13  1  0  0  0  0
 32 14  1  0  0  0  0
 33 18  1  0  0  0  0
 34 18  1  0  0  0  0
 37 19  1  0  0  0  0
 40 20  1  0  0  0  0
 41 20  1  0  0  0  0
 44 22  1  0  0  0  0
 45 23  1  0  0  0  0
 47 23  1  0  0  0  0
 48 24  1  0  0  0  0
 53 25  1  0  0  0  0
 54 26  1  0  0  0  0
 57 27  1  0  0  0  0
M  CHG  1   1  -1
M  END
