13,14
q = -2.0, confidence = 0.694

 15 15  0  0  0  0  0  0  0  0999 V2000
    1.9009    0.1838    0.1350 C   0  0  0  0  0  0  0  0  0  0  0  0
    3.3747    0.0561    0.0822 C   0  0  0  0  0  0  0  0  0  0  0  0
    3.9827   -0.6843   -0.9564 C   0  0  0  0  0  0  0  0  0  0  0  0
    3.3339   -1.1546   -1.7091 H   0  0  0  0  0  0  0  0  0  0  0  0
    5.3774   -0.8127   -1.0206 C   0  0  0  0  0  0  0  0  0  0  0  0
    5.8350   -1.3934   -1.8368 H   0  0  0  0  0  0  0  0  0  0  0  0
    4.2031    0.6646    1.0526 C   0  0  0  0  0  0  0  0  0  0  0  0
    3.7431    1.2438    1.8674 H   0  0  0  0  0  0  0  0  0  0  0  0
    6.1909   -0.2057   -0.0507 C   0  0  0  0  0  0  0  0  0  0  0  0
    7.2856   -0.3079   -0.1001 H   0  0  0  0  0  0  0  0  0  0  0  0
    5.5948    0.5345    0.9866 C   0  0  0  0  0  0  0  0  0  0  0  0
    6.2243    1.0136    1.7525 H   0  0  0  0  0  0  0  0  0  0  0  0
    1.2058   -0.5062   -0.8375 O   0  5  0  0  0  0  0  0  0  0  0  0
    1.1196    0.8678    1.0214 C   0  0  0  0  0  3  0  0  0  0  0  0
    1.4902    1.4386    1.8810 H   0  0  0  0  0  0  0  0  0  0  0  0
  1 14  2  0  0  0  0
  2  1  1  0  0  0  0
  2  7  1  0  0  0  0
  3  2  2  0  0  0  0
  4  3  1  0  0  0  0
  5  3  1  0  0  0  0
  5  9  2  0  0  0  0
  6  5  1  0  0  0  0
  7  8  1  0  0  0  0
  9 11  1  0  0  0  0
 10  9  1  0  0  0  0
 11  7  2  0  0  0  0
 11 12  1  0  0  0  0
 13  1  1  0  0  0  0
 14 15  1  0  0  0  0
M  CHG  1  13  -1
M  END
