2,3
q = -1.0, confidence = 0.0

 17 18  0  0  1  0  0  0  0  0999 V2000
   -2.0775   -1.3557    0.0033 N   0  0  0  0  0  0  0  0  0  0  0  0
   -0.8146   -1.7220   -0.0396 O   0  0  0  0  0  1  0  0  0  0  0  0
   -1.2298    0.8739    0.0212 C   0  0  0  0  0  3  0  0  0  0  0  0
   -1.5294    2.2429    0.0327 C   0  0  0  0  0  0  0  0  0  0  0  0
   -0.7124    2.9765   -0.0348 H   0  0  0  0  0  0  0  0  0  0  0  0
   -2.8658    2.7120    0.1020 C   0  0  0  0  0  0  0  0  0  0  0  0
   -3.0487    3.7981    0.1096 H   0  0  0  0  0  0  0  0  0  0  0  0
   -3.9494    1.8394    0.1501 C   0  0  0  0  0  0  0  0  0  0  0  0
   -4.9820    2.2152    0.1983 H   0  0  0  0  0  0  0  0  0  0  0  0
   -3.7236    0.4355    0.1162 C   0  0  0  0  0  0  0  0  0  0  0  0
   -2.3584    0.0030    0.0554 C   0  0  1  0  0  3  0  0  0  0  0  0
   -4.7479   -0.5541    0.1196 C   0  0  0  0  0  0  0  0  0  0  0  0
   -5.8025   -0.2437    0.1557 H   0  0  0  0  0  0  0  0  0  0  0  0
   -4.4023   -1.8997    0.0609 C   0  0  0  0  0  0  0  0  0  0  0  0
   -5.1702   -2.6858    0.0533 H   0  0  0  0  0  0  0  0  0  0  0  0
   -3.0538   -2.2924    0.0022 C   0  0  0  0  0  0  0  0  0  0  0  0
   -2.6999   -3.3294   -0.0525 H   0  0  0  0  0  0  0  0  0  0  0  0
  1 11  1  0  0  0  0
  2  1  1  0  0  0  0
  3  4  2  0  0  0  0
  4  6  1  0  0  0  0
  5  4  1  0  0  0  0
  6  7  1  0  0  0  0
  6  8  2  0  0  0  0
  8  9  1  0  0  0  0
 10 12  2  0  0  0  0
 10  8  1  0  0  0  0
 11  3  1  6  0  0  0
 11 10  1  0  0  0  0
 12 13  1  0  0  0  0
 14 12  1  0  0  0  0
 15 14  1  0  0  0  0
 16  1  1  0  0  0  0
 16 14  2  0  0  0  0
 17 16  1  0  0  0  0
M  END
