1,14
q = -2.0, confidence = 0.802

 33 33  0  0  1  0  0  0  0  0999 V2000
   -1.7426   -0.2465    1.0289 O   0  5  0  0  0  0  0  0  0  0  0  0
    1.9731   -1.4247   -2.7411 O   0  0  0  0  0  0  0  0  0  0  0  0
    2.2386   -3.0728   -1.2122 O   0  0  0  0  0  0  0  0  0  0  0  0
    3.1361   -1.3864    0.8953 O   0  0  0  0  0  0  0  0  0  0  0  0
    1.8519   -1.9698    2.6726 O   0  0  0  0  0  0  0  0  0  0  0  0
   -2.4345   -1.2023    0.4310 C   0  0  0  0  0  0  0  0  0  0  0  0
   -3.6447   -1.6914    1.0134 C   0  0  0  0  0  0  0  0  0  0  0  0
   -4.4176   -2.6066    0.2807 C   0  0  0  0  0  0  0  0  0  0  0  0
   -4.0275   -3.0582   -0.9943 C   0  0  0  0  0  0  0  0  0  0  0  0
   -2.8201   -2.6037   -1.5446 C   0  0  0  0  0  0  0  0  0  0  0  0
   -2.0075   -1.6994   -0.8336 C   0  0  0  0  0  0  0  0  0  0  0  0
   -4.0503   -1.1807    2.3687 C   0  0  0  0  0  0  0  0  0  0  0  0
   -0.6991   -1.2347   -1.3611 C   0  0  0  0  0  3  0  0  0  0  0  0
    0.5776   -1.5042   -0.7388 C   0  0  1  0  0  3  0  0  0  0  0  0
    0.7157   -1.5095    0.6912 C   0  0  0  0  0  3  0  0  0  0  0  0
    1.6798   -1.9287   -1.6653 C   0  0  0  0  0  0  0  0  0  0  0  0
    3.3312   -3.5812   -1.9803 C   0  0  0  0  0  0  0  0  0  0  0  0
    2.0216   -1.6114    1.3549 C   0  0  0  0  0  0  0  0  0  0  0  0
    3.0530   -2.0866    3.4335 C   0  0  0  0  0  0  0  0  0  0  0  0
   -5.3631   -2.9660    0.7200 H   0  0  0  0  0  0  0  0  0  0  0  0
   -4.6599   -3.7671   -1.5489 H   0  0  0  0  0  0  0  0  0  0  0  0
   -2.4869   -2.9625   -2.5322 H   0  0  0  0  0  0  0  0  0  0  0  0
   -3.2771   -1.4136    3.1322 H   0  0  0  0  0  0  0  0  0  0  0  0
   -5.0107   -1.6211    2.7001 H   0  0  0  0  0  0  0  0  0  0  0  0
   -4.1522   -0.0740    2.3717 H   0  0  0  0  0  0  0  0  0  0  0  0
   -0.6315   -1.2030   -2.4629 H   0  0  0  0  0  0  0  0  0  0  0  0
   -0.1340   -1.8349    1.3074 H   0  0  0  0  0  0  0  0  0  0  0  0
    3.0852   -3.6030   -3.0604 H   0  0  0  0  0  0  0  0  0  0  0  0
    3.5277   -4.5996   -1.6004 H   0  0  0  0  0  0  0  0  0  0  0  0
    4.2268   -2.9437   -1.8293 H   0  0  0  0  0  0  0  0  0  0  0  0
    3.7800   -2.7562    2.9314 H   0  0  0  0  0  0  0  0  0  0  0  0
    2.7577   -2.5005    4.4147 H   0  0  0  0  0  0  0  0  0  0  0  0
    3.5416   -1.0988    3.5741 H   0  0  0  0  0  0  0  0  0  0  0  0
  2 16  2  0  0  0  0
  4 18  2  0  0  0  0
  5 19  1  0  0  0  0
  6  7  1  0  0  0  0
  6  1  1  0  0  0  0
  7 12  1  0  0  0  0
  8 20  1  0  0  0  0
  8  7  2  0  0  0  0
  9  8  1  0  0  0  0
 10  9  2  0  0  0  0
 10 11  1  0  0  0  0
 11  6  2  0  0  0  0
 12 25  1  0  0  0  0
 12 24  1  0  0  0  0
 12 23  1  0  0  0  0
 13 11  1  0  0  0  0
 13 14  1  0  0  0  0
 14 16  1  1  0  0  0
 14 15  1  0  0  0  0
 15 27  1  0  0  0  0
 15 18  1  0  0  0  0
 16  3  1  0  0  0  0
 17 30  1  0  0  0  0
 17 29  1  0  0  0  0
 17  3  1  0  0  0  0
 18  5  1  0  0  0  0
 19 33  1  0  0  0  0
 19 32  1  0  0  0  0
 21  9  1  0  0  0  0
 22 10  1  0  0  0  0
 26 13  1  0  0  0  0
 28 17  1  0  0  0  0
 31 19  1  0  0  0  0
M  CHG  1   1  -1
M  END
