1,7
q = 0.0, confidence = 0.63

 19 18  0  0  1  0  0  0  0  0999 V2000
   -0.6145   -0.2577    1.5213 O   0  5  0  0  0  0  0  0  0  0  0  0
   -2.3949   -0.8956    2.7414 O   0  0  0  0  0  0  0  0  0  0  0  0
   -1.8994   -0.5055    1.6934 C   0  0  0  0  0  0  0  0  0  0  0  0
   -2.7548   -0.2233    0.4278 C   0  0  0  0  0  0  0  0  0  0  0  0
   -1.8917   -0.1818   -0.8211 C   0  0  1  0  0  3  0  0  0  0  0  0
   -2.0685   -1.3819   -1.7273 C   0  0  0  0  0  0  0  0  0  0  0  0
   -1.3647    1.0897   -1.3060 C   0  0  2  0  0  3  0  0  0  0  0  0
   -0.1698    0.9270   -2.0956 C   0  0  0  0  0  3  0  0  0  0  0  0
   -1.9006    2.4486   -0.9262 C   0  0  0  0  0  0  0  0  0  0  0  0
   -3.2789    0.7381    0.6100 H   0  0  0  0  0  0  0  0  0  0  0  0
   -3.5478   -0.9950    0.3667 H   0  0  0  0  0  0  0  0  0  0  0  0
   -3.1196   -1.4241   -2.0949 H   0  0  0  0  0  0  0  0  0  0  0  0
   -1.8950   -2.3313   -1.1783 H   0  0  0  0  0  0  0  0  0  0  0  0
   -1.4114   -1.3675   -2.6169 H   0  0  0  0  0  0  0  0  0  0  0  0
   -0.0865    0.1084   -2.8330 H   0  0  0  0  0  0  0  0  0  0  0  0
    0.3746    1.8405   -2.3951 H   0  0  0  0  0  0  0  0  0  0  0  0
   -2.7558    2.7282   -1.5814 H   0  0  0  0  0  0  0  0  0  0  0  0
   -1.1242    3.2296   -1.0545 H   0  0  0  0  0  0  0  0  0  0  0  0
   -2.2579    2.4941    0.1207 H   0  0  0  0  0  0  0  0  0  0  0  0
  1  3  1  0  0  0  0
  3  2  2  0  0  0  0
  4 10  1  0  0  0  0
  4  3  1  0  0  0  0
  5  6  1  6  0  0  0
  5  4  1  0  0  0  0
  6 13  1  0  0  0  0
  7  8  1  1  0  0  0
  7  9  1  0  0  0  0
  7  5  1  0  0  0  0
  9 19  1  0  0  0  0
 11  4  1  0  0  0  0
 12  6  1  0  0  0  0
 14  6  1  0  0  0  0
 15  8  1  0  0  0  0
 16  8  1  0  0  0  0
 17  9  1  0  0  0  0
 18  9  1  0  0  0  0
M  CHG  1   1  -1
M  END
