1,14
q = -1.0, confidence = 0.004

 18 17  0  0  1  0  0  0  0  0999 V2000
   -2.2325   -0.8962    1.0145 C   0  0  0  0  0  3  0  0  0  0  0  0
   -1.5554   -1.0293    1.8767 H   0  0  0  0  0  0  0  0  0  0  0  0
   -2.4106   -2.1463    0.2276 C   0  0  0  0  0  0  0  0  0  0  0  0
   -3.4362   -2.4551   -0.3747 O   0  0  0  0  0  0  0  0  0  0  0  0
   -1.2947   -2.9292    0.2237 O   0  0  0  0  0  0  0  0  0  0  0  0
   -1.3576   -4.0918   -0.6050 C   0  0  0  0  0  0  0  0  0  0  0  0
   -2.1577   -4.7806   -0.2654 H   0  0  0  0  0  0  0  0  0  0  0  0
   -0.3681   -4.5774   -0.5253 H   0  0  0  0  0  0  0  0  0  0  0  0
   -1.5550   -3.8163   -1.6603 H   0  0  0  0  0  0  0  0  0  0  0  0
   -3.5907   -0.2922    1.3846 C   0  0  0  0  0  0  0  0  0  0  0  0
   -4.2395   -0.9881    1.9602 H   0  0  0  0  0  0  0  0  0  0  0  0
   -3.4360    0.6115    2.0163 H   0  0  0  0  0  0  0  0  0  0  0  0
   -4.2733    0.1986    0.1363 C   0  0  2  0  0  3  0  0  0  0  0  0
   -3.5706    0.6999   -0.7626 O   0  0  0  0  0  1  0  0  0  0  0  0
   -5.7573    0.1097   -0.0192 C   0  0  0  0  0  0  0  0  0  0  0  0
   -6.0971    0.6941   -0.8926 H   0  0  0  0  0  0  0  0  0  0  0  0
   -6.2781    0.4348    0.9038 H   0  0  0  0  0  0  0  0  0  0  0  0
   -5.9986   -0.9637   -0.1723 H   0  0  0  0  0  0  0  0  0  0  0  0
  1 10  1  0  0  0  0
  1  2  1  0  0  0  0
  3  1  1  0  0  0  0
  4  3  2  0  0  0  0
  5  3  1  0  0  0  0
  6  8  1  0  0  0  0
  6  7  1  0  0  0  0
  6  5  1  0  0  0  0
  9  6  1  0  0  0  0
 10 11  1  0  0  0  0
 10 12  1  0  0  0  0
 13 14  1  1  0  0  0
 13 10  1  0  0  0  0
 15 13  1  0  0  0  0
 15 17  1  0  0  0  0
 16 15  1  0  0  0  0
 18 15  1  0  0  0  0
M  END
