1,4
q = -2.0, confidence = 0.73

 13 13  0  0  0  0  0  0  0  0999 V2000
    0.6803    0.3815    1.8612 O   0  5  0  0  0  0  0  0  0  0  0  0
    2.6704    0.3379    2.9091 O   0  0  0  0  0  0  0  0  0  0  0  0
    2.5549   -0.2516    0.5668 C   0  0  0  0  0  0  0  0  0  0  0  0
    1.6265   -0.3675   -0.4947 C   0  0  0  0  0  3  0  0  0  0  0  0
    2.1202   -0.6669   -1.7801 C   0  0  0  0  0  0  0  0  0  0  0  0
    3.4982   -0.8661   -1.9843 C   0  0  0  0  0  0  0  0  0  0  0  0
    4.4066   -0.7645   -0.9138 C   0  0  0  0  0  0  0  0  0  0  0  0
    3.9311   -0.4499    0.3667 C   0  0  0  0  0  0  0  0  0  0  0  0
    2.0007    0.1652    1.8967 C   0  0  0  0  0  0  0  0  0  0  0  0
    1.4312   -0.7335   -2.6371 H   0  0  0  0  0  0  0  0  0  0  0  0
    3.8688   -1.0996   -2.9954 H   0  0  0  0  0  0  0  0  0  0  0  0
    5.4821   -0.9240   -1.0858 H   0  0  0  0  0  0  0  0  0  0  0  0
    4.6020   -0.3430    1.2341 H   0  0  0  0  0  0  0  0  0  0  0  0
  1  9  1  0  0  0  0
  3  9  1  0  0  0  0
  4  3  2  0  0  0  0
  5  4  1  0  0  0  0
  6  5  2  0  0  0  0
  6  7  1  0  0  0  0
  7  8  2  0  0  0  0
  8  3  1  0  0  0  0
  8 13  1  0  0  0  0
  9  2  2  0  0  0  0
 10  5  1  0  0  0  0
 11  6  1  0  0  0  0
 12  7  1  0  0  0  0
M  CHG  1   1  -1
M  END
