1,2
q = -1.0, confidence = 0.002

 14 13  0  0  1  0  0  0  0  0999 V2000
   -1.5397   -0.0007   -1.3348 C   0  0  0  0  0  3  0  0  0  0  0  0
   -1.6628   -0.0006    1.3805 O   0  0  0  0  0  1  0  0  0  0  0  0
   -2.8057   -0.0001   -0.5828 N   0  0  0  0  0  0  0  0  0  0  0  0
   -1.4984   -0.9142   -1.9658 H   0  0  0  0  0  0  0  0  0  0  0  0
   -1.4984    0.9120   -1.9671 H   0  0  0  0  0  0  0  0  0  0  0  0
   -2.7670   -0.0005    0.7647 C   0  0  2  0  0  3  0  0  0  0  0  0
   -4.0167    0.0001   -1.3817 C   0  0  0  0  0  0  0  0  0  0  0  0
   -4.0384   -0.0006    1.5751 C   0  0  0  0  0  0  0  0  0  0  0  0
   -4.0470   -0.8985   -2.0347 H   0  0  0  0  0  0  0  0  0  0  0  0
   -4.0466    0.8986   -2.0348 H   0  0  0  0  0  0  0  0  0  0  0  0
   -4.9182    0.0003   -0.7450 H   0  0  0  0  0  0  0  0  0  0  0  0
   -4.6529    0.8979    1.3661 H   0  0  0  0  0  0  0  0  0  0  0  0
   -3.7561   -0.0014    2.6418 H   0  0  0  0  0  0  0  0  0  0  0  0
   -4.6537   -0.8982    1.3650 H   0  0  0  0  0  0  0  0  0  0  0  0
  1  3  1  0  0  0  0
  3  6  1  0  0  0  0
  4  1  1  0  0  0  0
  5  1  1  0  0  0  0
  6  2  1  1  0  0  0
  6  8  1  0  0  0  0
  7 11  1  0  0  0  0
  7  3  1  0  0  0  0
  8 13  1  0  0  0  0
  9  7  1  0  0  0  0
 10  7  1  0  0  0  0
 12  8  1  0  0  0  0
 14  8  1  0  0  0  0
M  END
