1,5
q = -2.0, confidence = 0.614

 10  9  0  0  0  0  0  0  0  0999 V2000
    1.5365   -0.3052    1.3709 O   0  5  0  0  0  0  0  0  0  0  0  0
    3.7476   -0.6906    1.5530 O   0  0  0  0  0  0  0  0  0  0  0  0
    2.7483   -0.4787    0.8582 C   0  0  0  0  0  0  0  0  0  0  0  0
    2.8059   -0.3930   -0.6444 C   0  0  0  0  0  0  0  0  0  0  0  0
    1.6202   -0.1578   -1.2727 C   0  0  0  0  0  3  0  0  0  0  0  0
    4.1517   -0.5721   -1.2899 C   0  0  0  0  0  0  0  0  0  0  0  0
    1.6259   -0.0897   -2.3813 H   0  0  0  0  0  0  0  0  0  0  0  0
    4.0919   -0.4963   -2.3945 H   0  0  0  0  0  0  0  0  0  0  0  0
    4.5953   -1.5552   -1.0220 H   0  0  0  0  0  0  0  0  0  0  0  0
    4.8766    0.1839   -0.9187 H   0  0  0  0  0  0  0  0  0  0  0  0
  3  1  1  0  0  0  0
  3  2  2  0  0  0  0
  4  3  1  0  0  0  0
  5  4  2  0  0  0  0
  6  9  1  0  0  0  0
  6 10  1  0  0  0  0
  6  4  1  0  0  0  0
  7  5  1  0  0  0  0
  8  6  1  0  0  0  0
M  CHG  1   1  -1
M  END
