2,3
q = 0.0, confidence = 0.764

 27 28  0  0  1  0  0  0  0  0999 V2000
    0.3131   -2.6683    0.6629 O   0  0  0  0  0  0  0  0  0  0  0  0
   -0.2123    1.0843   -0.1412 O   0  0  0  0  0  1  0  0  0  0  0  0
    0.2331   -1.4722    0.3787 C   0  0  0  0  0  3  0  0  0  0  0  0
    1.3932   -0.5870    0.1731 C   0  0  2  0  0  3  0  0  0  0  0  0
    1.0448    0.7595   -0.0261 C   0  0  2  0  0  3  0  0  0  0  0  0
    2.7556   -1.1508    0.0781 C   0  0  0  0  0  0  0  0  0  0  0  0
    3.6537   -0.7171   -0.9302 C   0  0  0  0  0  0  0  0  0  0  0  0
    3.3265    0.0582   -1.6396 H   0  0  0  0  0  0  0  0  0  0  0  0
    4.9429   -1.2533   -1.0376 C   0  0  0  0  0  0  0  0  0  0  0  0
    5.6189   -0.8902   -1.8275 H   0  0  0  0  0  0  0  0  0  0  0  0
    5.3680   -2.2590   -0.1532 C   0  0  0  0  0  0  0  0  0  0  0  0
    6.3791   -2.6855   -0.2395 H   0  0  0  0  0  0  0  0  0  0  0  0
    4.4823   -2.7220    0.8330 C   0  0  0  0  0  0  0  0  0  0  0  0
    4.7987   -3.5176    1.5259 H   0  0  0  0  0  0  0  0  0  0  0  0
    3.1944   -2.1797    0.9477 C   0  0  0  0  0  0  0  0  0  0  0  0
    2.5032   -2.5580    1.7122 H   0  0  0  0  0  0  0  0  0  0  0  0
    1.9951    1.9069   -0.0565 C   0  0  0  0  0  0  0  0  0  0  0  0
    1.6946    3.0301   -0.8578 C   0  0  0  0  0  0  0  0  0  0  0  0
    0.7814    3.0088   -1.4703 H   0  0  0  0  0  0  0  0  0  0  0  0
    2.5436    4.1450   -0.8767 C   0  0  0  0  0  0  0  0  0  0  0  0
    2.3020    5.0075   -1.5169 H   0  0  0  0  0  0  0  0  0  0  0  0
    3.6985    4.1638   -0.0780 C   0  0  0  0  0  0  0  0  0  0  0  0
    4.3649    5.0400   -0.0884 H   0  0  0  0  0  0  0  0  0  0  0  0
    3.9955    3.0604    0.7398 C   0  0  0  0  0  0  0  0  0  0  0  0
    4.8919    3.0732    1.3786 H   0  0  0  0  0  0  0  0  0  0  0  0
    3.1548    1.9399    0.7493 C   0  0  0  0  0  0  0  0  0  0  0  0
    3.3899    1.0788    1.3908 H   0  0  0  0  0  0  0  0  0  0  0  0
  3  1  2  0  0  0  0
  4  3  1  6  0  0  0
  5  2  1  1  0  0  0
  5  4  1  0  0  0  0
  6  4  1  0  0  0  0
  6 15  1  0  0  0  0
  7  6  2  0  0  0  0
  8  7  1  0  0  0  0
  9  7  1  0  0  0  0
  9 11  2  0  0  0  0
 10  9  1  0  0  0  0
 11 13  1  0  0  0  0
 12 11  1  0  0  0  0
 13 15  2  0  0  0  0
 13 14  1  0  0  0  0
 15 16  1  0  0  0  0
 17  5  1  0  0  0  0
 17 26  1  0  0  0  0
 18 17  2  0  0  0  0
 19 18  1  0  0  0  0
 20 18  1  0  0  0  0
 20 22  2  0  0  0  0
 21 20  1  0  0  0  0
 22 24  1  0  0  0  0
 23 22  1  0  0  0  0
 24 26  2  0  0  0  0
 24 25  1  0  0  0  0
 26 27  1  0  0  0  0
M  END
