3,7
q = -1.0, confidence = 0.0

 19 19  0  0  1  0  0  0  0  0999 V2000
    2.9493    1.5600    0.0004 S   0  0  0  0  0  0  0  0  0  0  0  0
    1.0085   -1.9237   -0.0005 C   0  0  2  0  0  3  0  0  0  0  0  0
   -0.2453   -2.0631   -0.0007 O   0  0  0  0  0  1  0  0  0  0  0  0
    1.5504   -0.5797   -0.0000 C   0  0  0  0  0  0  0  0  0  0  0  0
    2.8951   -0.1620    0.0002 C   0  0  0  0  0  0  0  0  0  0  0  0
    1.1913    1.7361    0.0002 C   0  0  0  0  0  0  0  0  0  0  0  0
    0.5787    0.5020    0.0001 C   0  0  0  0  0  3  0  0  0  0  0  0
    1.8548   -3.1676   -0.0008 C   0  0  0  0  0  0  0  0  0  0  0  0
    2.5138   -3.1921    0.8904 H   0  0  0  0  0  0  0  0  0  0  0  0
    2.5147   -3.1910   -0.8914 H   0  0  0  0  0  0  0  0  0  0  0  0
    1.2019   -4.0583   -0.0017 H   0  0  0  0  0  0  0  0  0  0  0  0
    4.1705   -0.9486    0.0004 C   0  0  0  0  0  0  0  0  0  0  0  0
    5.0521   -0.2798    0.0010 H   0  0  0  0  0  0  0  0  0  0  0  0
    4.2497   -1.6028   -0.8929 H   0  0  0  0  0  0  0  0  0  0  0  0
    4.2489   -1.6036    0.8932 H   0  0  0  0  0  0  0  0  0  0  0  0
    0.5972    3.1135    0.0001 C   0  0  0  0  0  0  0  0  0  0  0  0
    1.3755    3.9009    0.0004 H   0  0  0  0  0  0  0  0  0  0  0  0
   -0.0432    3.2726    0.8917 H   0  0  0  0  0  0  0  0  0  0  0  0
   -0.0426    3.2726   -0.8919 H   0  0  0  0  0  0  0  0  0  0  0  0
  2  3  1  6  0  0  0
  2  4  1  0  0  0  0
  4  7  1  0  0  0  0
  4  5  2  0  0  0  0
  5 12  1  0  0  0  0
  5  1  1  0  0  0  0
  6  1  1  0  0  0  0
  7  6  2  0  0  0  0
  8  2  1  0  0  0  0
  8  9  1  0  0  0  0
 10  8  1  0  0  0  0
 11  8  1  0  0  0  0
 12 13  1  0  0  0  0
 12 15  1  0  0  0  0
 14 12  1  0  0  0  0
 16  6  1  0  0  0  0
 16 17  1  0  0  0  0
 16 18  1  0  0  0  0
 19 16  1  0  0  0  0
M  END
