2,3
q = -1.0, confidence = 0.016

 54 56  0  0  1  0  0  0  0  0999 V2000
   -0.9417    0.4183   -0.7391 P   0  0  0  0  0  0  0  0  0  0  0  0
    1.2324   -1.6355   -0.2431 O   0  5  0  0  0  0  0  0  0  0  0  0
   -0.0675    0.7992    0.7972 C   0  0  0  0  0  3  0  0  0  0  0  0
    1.3467    1.1386    0.8389 C   0  0  1  0  0  3  0  0  0  0  0  0
    2.3432    0.4407    0.1580 C   0  0  0  0  0  0  0  0  0  0  0  0
    2.2364   -0.8649   -0.4105 C   0  0  0  0  0  0  0  0  0  0  0  0
    3.4381   -1.4666   -1.1590 C   0  0  0  0  0  0  0  0  0  0  0  0
    4.0262   -0.4405   -2.1498 C   0  0  0  0  0  0  0  0  0  0  0  0
    4.4996   -1.8424   -0.0954 C   0  0  0  0  0  0  0  0  0  0  0  0
    3.0101   -2.7301   -1.9237 C   0  0  0  0  0  0  0  0  0  0  0  0
   -2.5130    1.3214   -0.9015 C   0  0  0  0  0  0  0  0  0  0  0  0
   -3.0749    1.4945   -2.1845 C   0  0  0  0  0  0  0  0  0  0  0  0
   -4.3205    2.1243   -2.3234 C   0  0  0  0  0  0  0  0  0  0  0  0
   -5.0104    2.5860   -1.1917 C   0  0  0  0  0  0  0  0  0  0  0  0
   -4.4507    2.4202    0.0863 C   0  0  0  0  0  0  0  0  0  0  0  0
   -3.2088    1.7876    0.2354 C   0  0  0  0  0  0  0  0  0  0  0  0
    0.0326    0.7304   -2.2383 C   0  0  0  0  0  0  0  0  0  0  0  0
    0.5981    2.0000   -2.4799 C   0  0  0  0  0  0  0  0  0  0  0  0
    1.2919    2.2316   -3.6751 C   0  0  0  0  0  0  0  0  0  0  0  0
    1.4169    1.2057   -4.6286 C   0  0  0  0  0  0  0  0  0  0  0  0
    0.8596   -0.0599   -4.3851 C   0  0  0  0  0  0  0  0  0  0  0  0
    0.1725   -0.3037   -3.1858 C   0  0  0  0  0  0  0  0  0  0  0  0
    1.7276    2.3350    1.6278 C   0  0  0  0  0  0  0  0  0  0  0  0
    2.9667    2.3899    2.3109 C   0  0  0  0  0  0  0  0  0  0  0  0
    3.3288    3.5243    3.0466 C   0  0  0  0  0  0  0  0  0  0  0  0
    2.4655    4.6311    3.1085 C   0  0  0  0  0  0  0  0  0  0  0  0
    1.2337    4.5937    2.4349 C   0  0  0  0  0  0  0  0  0  0  0  0
    0.8638    3.4547    1.7091 C   0  0  0  0  0  0  0  0  0  0  0  0
   -0.6757    1.3500    1.5341 H   0  0  0  0  0  0  0  0  0  0  0  0
    3.3323    0.9126    0.0948 H   0  0  0  0  0  0  0  0  0  0  0  0
    4.8539   -0.9103   -2.7181 H   0  0  0  0  0  0  0  0  0  0  0  0
    3.2628   -0.0975   -2.8749 H   0  0  0  0  0  0  0  0  0  0  0  0
    4.4431    0.4512   -1.6423 H   0  0  0  0  0  0  0  0  0  0  0  0
    4.8506   -0.9566    0.4705 H   0  0  0  0  0  0  0  0  0  0  0  0
    5.3801   -2.2973   -0.5927 H   0  0  0  0  0  0  0  0  0  0  0  0
    4.0973   -2.5796    0.6285 H   0  0  0  0  0  0  0  0  0  0  0  0
    2.2349   -2.4961   -2.6798 H   0  0  0  0  0  0  0  0  0  0  0  0
    3.8848   -3.1611   -2.4487 H   0  0  0  0  0  0  0  0  0  0  0  0
    2.5993   -3.4993   -1.2432 H   0  0  0  0  0  0  0  0  0  0  0  0
   -2.5354    1.1413   -3.0763 H   0  0  0  0  0  0  0  0  0  0  0  0
   -4.7525    2.2579   -3.3264 H   0  0  0  0  0  0  0  0  0  0  0  0
   -5.9857    3.0820   -1.3048 H   0  0  0  0  0  0  0  0  0  0  0  0
   -4.9832    2.7913    0.9746 H   0  0  0  0  0  0  0  0  0  0  0  0
   -2.7784    1.6693    1.2408 H   0  0  0  0  0  0  0  0  0  0  0  0
    0.4967    2.8025   -1.7332 H   0  0  0  0  0  0  0  0  0  0  0  0
    1.7366    3.2194   -3.8665 H   0  0  0  0  0  0  0  0  0  0  0  0
    1.9581    1.3948   -5.5678 H   0  0  0  0  0  0  0  0  0  0  0  0
    0.9648   -0.8629   -5.1296 H   0  0  0  0  0  0  0  0  0  0  0  0
   -0.2562   -1.2958   -2.9761 H   0  0  0  0  0  0  0  0  0  0  0  0
    3.6349    1.5161    2.2877 H   0  0  0  0  0  0  0  0  0  0  0  0
    4.2888    3.5436    3.5836 H   0  0  0  0  0  0  0  0  0  0  0  0
    2.7525    5.5233    3.6847 H   0  0  0  0  0  0  0  0  0  0  0  0
    0.5587    5.4618    2.4716 H   0  0  0  0  0  0  0  0  0  0  0  0
   -0.0943    3.4447    1.1671 H   0  0  0  0  0  0  0  0  0  0  0  0
  1  3  1  0  0  0  0
  3  4  1  0  0  0  0
  3 29  1  0  0  0  0
  4  5  1  6  0  0  0
  4 23  1  0  0  0  0
  6  2  1  0  0  0  0
  6  5  2  0  0  0  0
  7  6  1  0  0  0  0
  7  9  1  0  0  0  0
  8 33  1  0  0  0  0
  8  7  1  0  0  0  0
  9 34  1  0  0  0  0
  9 36  1  0  0  0  0
 10 39  1  0  0  0  0
 10  7  1  0  0  0  0
 11  1  1  0  0  0  0
 11 16  1  0  0  0  0
 12 11  2  0  0  0  0
 13 12  1  0  0  0  0
 13 14  2  0  0  0  0
 14 15  1  0  0  0  0
 15 16  2  0  0  0  0
 15 43  1  0  0  0  0
 16 44  1  0  0  0  0
 17  1  1  0  0  0  0
 18 17  1  0  0  0  0
 18 45  1  0  0  0  0
 19 18  2  0  0  0  0
 20 21  2  0  0  0  0
 20 19  1  0  0  0  0
 21 22  1  0  0  0  0
 22 49  1  0  0  0  0
 22 17  2  0  0  0  0
 23 28  2  0  0  0  0
 23 24  1  0  0  0  0
 24 25  2  0  0  0  0
 25 26  1  0  0  0  0
 25 51  1  0  0  0  0
 26 52  1  0  0  0  0
 27 53  1  0  0  0  0
 27 26  2  0  0  0  0
 28 27  1  0  0  0  0
 30  5  1  0  0  0  0
 31  8  1  0  0  0  0
 32  8  1  0  0  0  0
 35  9  1  0  0  0  0
 37 10  1  0  0  0  0
 38 10  1  0  0  0  0
 40 12  1  0  0  0  0
 41 13  1  0  0  0  0
 42 14  1  0  0  0  0
 46 19  1  0  0  0  0
 47 20  1  0  0  0  0
 48 21  1  0  0  0  0
 50 24  1  0  0  0  0
 54 28  1  0  0  0  0
M  CHG  1   2  -1
M  END
