1,8
q = -1.0, confidence = 0.006

 28 28  0  0  0  0  0  0  0  0999 V2000
    1.4289    0.3349    0.1622 C   0  0  0  0  0  2  0  0  0  0  0  0
    2.0156   -0.8834   -0.1926 C   0  0  0  0  0  0  0  0  0  0  0  0
    3.4281   -1.0070   -0.4047 C   0  0  0  0  0  0  0  0  0  0  0  0
    4.2692    0.1502   -0.2681 C   0  0  0  0  0  0  0  0  0  0  0  0
    3.6777    1.3842    0.0124 C   0  0  0  0  0  0  0  0  0  0  0  0
    4.2982    2.2882    0.0601 H   0  0  0  0  0  0  0  0  0  0  0  0
    2.2768    1.4882    0.1976 C   0  0  0  0  0  0  0  0  0  0  0  0
    0.2857    2.6850    0.2685 O   0  5  0  0  0  0  0  0  0  0  0  0
    1.5646    2.7325    0.2698 C   0  0  0  0  0  0  0  0  0  0  0  0
    2.2153    4.0809    0.2852 C   0  0  0  0  0  0  0  0  0  0  0  0
    2.7308    4.2680   -0.6799 H   0  0  0  0  0  0  0  0  0  0  0  0
    2.9834    4.1395    1.0823 H   0  0  0  0  0  0  0  0  0  0  0  0
    1.4573    4.8685    0.4427 H   0  0  0  0  0  0  0  0  0  0  0  0
    1.2712   -2.0318   -0.3082 O   0  0  0  0  0  0  0  0  0  0  0  0
    0.8791   -2.3636   -1.6394 C   0  0  0  0  0  0  0  0  0  0  0  0
    0.2743   -3.2879   -1.5709 H   0  0  0  0  0  0  0  0  0  0  0  0
    1.7613   -2.5560   -2.2861 H   0  0  0  0  0  0  0  0  0  0  0  0
    0.2618   -1.5523   -2.0864 H   0  0  0  0  0  0  0  0  0  0  0  0
    3.8181   -2.2476   -0.7262 O   0  0  0  0  0  0  0  0  0  0  0  0
    5.1750   -2.6542   -0.9518 C   0  0  0  0  0  0  0  0  0  0  0  0
    5.1126   -3.7359   -1.1696 H   0  0  0  0  0  0  0  0  0  0  0  0
    5.8006   -2.4859   -0.0553 H   0  0  0  0  0  0  0  0  0  0  0  0
    5.6190   -2.1209   -1.8135 H   0  0  0  0  0  0  0  0  0  0  0  0
    5.6041   -0.0326   -0.4476 O   0  0  0  0  0  0  0  0  0  0  0  0
    6.4647    1.0896   -0.3286 C   0  0  0  0  0  0  0  0  0  0  0  0
    7.4903    0.7121   -0.4909 H   0  0  0  0  0  0  0  0  0  0  0  0
    6.4002    1.5479    0.6828 H   0  0  0  0  0  0  0  0  0  0  0  0
    6.2369    1.8633   -1.0947 H   0  0  0  0  0  0  0  0  0  0  0  0
  1  7  1  0  0  0  0
  2  1  1  0  0  0  0
  3  4  1  0  0  0  0
  3  2  2  0  0  0  0
  4  5  2  0  0  0  0
  5  6  1  0  0  0  0
  5  7  1  0  0  0  0
  7  9  2  0  0  0  0
  8  9  1  0  0  0  0
  9 10  1  0  0  0  0
 10 13  1  0  0  0  0
 10 12  1  0  0  0  0
 11 10  1  0  0  0  0
 14  2  1  0  0  0  0
 15 16  1  0  0  0  0
 15 14  1  0  0  0  0
 17 15  1  0  0  0  0
 18 15  1  0  0  0  0
 19  3  1  0  0  0  0
 20 19  1  0  0  0  0
 20 22  1  0  0  0  0
 21 20  1  0  0  0  0
 23 20  1  0  0  0  0
 24 25  1  0  0  0  0
 24  4  1  0  0  0  0
 25 27  1  0  0  0  0
 26 25  1  0  0  0  0
 28 25  1  0  0  0  0
M  CHG  1   8  -1
M  END
