7,9
q = -1.0, confidence = 0.08

 33 32  0  0  0  0  0  0  0  0999 V2000
    4.0608    2.4963    0.8939 O   0  0  0  0  0  0  0  0  0  0  0  0
    4.5818    0.9675   -0.7049 O   0  0  0  0  0  0  0  0  0  0  0  0
   -4.8260    2.2959   -0.0785 O   0  0  0  0  0  0  0  0  0  0  0  0
   -3.1477    3.8028    0.0028 O   0  0  0  0  0  0  0  0  0  0  0  0
   -3.2548   -2.7467   -0.0584 O   0  0  0  0  0  0  0  0  0  0  0  0
   -5.4955   -2.3604   -0.1011 O   0  0  0  0  0  0  0  0  0  0  0  0
    0.0251   -0.1074    0.0264 O   0  5  0  0  0  0  0  0  0  0  0  0
    1.2863    1.8411    0.0803 C   0  0  0  0  0  0  0  0  0  0  0  0
    2.3700    0.9908    0.0954 C   0  0  0  0  0  2  0  0  0  0  0  0
    3.7325    1.5835    0.1530 C   0  0  0  0  0  0  0  0  0  0  0  0
   -1.2250    1.9499    0.0119 C   0  0  0  0  0  0  0  0  0  0  0  0
   -2.5308    1.5007   -0.0185 C   0  0  0  0  0  0  0  0  0  0  0  0
   -3.6317    2.5367   -0.0354 C   0  0  0  0  0  0  0  0  0  0  0  0
   -2.8666    0.0866   -0.0347 C   0  0  0  0  0  0  0  0  0  0  0  0
   -4.1020   -0.4851   -0.0628 C   0  0  0  0  0  0  0  0  0  0  0  0
   -4.1942   -1.9669   -0.0730 C   0  0  0  0  0  0  0  0  0  0  0  0
    0.0108    1.1717    0.0378 C   0  0  0  0  0  0  0  0  0  0  0  0
    5.9292    1.4542   -0.6990 C   0  0  0  0  0  0  0  0  0  0  0  0
   -4.1389    4.8370   -0.0116 C   0  0  0  0  0  0  0  0  0  0  0  0
   -5.6993   -3.7763   -0.1123 C   0  0  0  0  0  0  0  0  0  0  0  0
    1.3704    2.9399    0.0987 H   0  0  0  0  0  0  0  0  0  0  0  0
   -1.0724    3.0376    0.0225 H   0  0  0  0  0  0  0  0  0  0  0  0
   -2.0056   -0.5992   -0.0214 H   0  0  0  0  0  0  0  0  0  0  0  0
   -5.0296    0.1010   -0.0784 H   0  0  0  0  0  0  0  0  0  0  0  0
    6.3965    1.2922    0.2931 H   0  0  0  0  0  0  0  0  0  0  0  0
    6.4648    0.8790   -1.4743 H   0  0  0  0  0  0  0  0  0  0  0  0
    5.9597    2.5391   -0.9256 H   0  0  0  0  0  0  0  0  0  0  0  0
   -3.5844    5.7910    0.0256 H   0  0  0  0  0  0  0  0  0  0  0  0
   -4.7536    4.7790   -0.9323 H   0  0  0  0  0  0  0  0  0  0  0  0
   -4.8148    4.7449    0.8621 H   0  0  0  0  0  0  0  0  0  0  0  0
   -6.7927   -3.9306   -0.1342 H   0  0  0  0  0  0  0  0  0  0  0  0
   -5.2241   -4.2370   -1.0023 H   0  0  0  0  0  0  0  0  0  0  0  0
   -5.2587   -4.2462    0.7907 H   0  0  0  0  0  0  0  0  0  0  0  0
  2 18  1  0  0  0  0
  2 10  1  0  0  0  0
  3 13  2  0  0  0  0
  6 16  1  0  0  0  0
  7 17  1  0  0  0  0
  8  9  1  0  0  0  0
  8 21  1  0  0  0  0
  9 10  1  0  0  0  0
 10  1  2  0  0  0  0
 11 22  1  0  0  0  0
 11 17  1  0  0  0  0
 12 11  2  0  0  0  0
 13 12  1  0  0  0  0
 13  4  1  0  0  0  0
 14 23  1  0  0  0  0
 14 12  1  0  0  0  0
 15 14  2  0  0  0  0
 16 15  1  0  0  0  0
 16  5  2  0  0  0  0
 17  8  2  0  0  0  0
 18 25  1  0  0  0  0
 19  4  1  0  0  0  0
 19 28  1  0  0  0  0
 19 30  1  0  0  0  0
 20  6  1  0  0  0  0
 20 33  1  0  0  0  0
 24 15  1  0  0  0  0
 26 18  1  0  0  0  0
 27 18  1  0  0  0  0
 29 19  1  0  0  0  0
 31 20  1  0  0  0  0
 32 20  1  0  0  0  0
M  CHG  1   7  -1
M  END
