1,20
q = -2.0, confidence = 0.75

 35 35  0  0  0  0  0  0  0  0999 V2000
    0.9334    0.1604   -0.1031 O   0  5  0  0  0  0  0  0  0  0  0  0
    2.0533   -0.5597   -0.0178 C   0  0  0  0  0  0  0  0  0  0  0  0
    2.0341   -1.9682    0.2405 C   0  0  0  0  0  0  0  0  0  0  0  0
    3.2488   -2.6643    0.3540 C   0  0  0  0  0  0  0  0  0  0  0  0
    3.2369   -3.7449    0.5561 H   0  0  0  0  0  0  0  0  0  0  0  0
    4.4798   -2.0143    0.2138 C   0  0  0  0  0  0  0  0  0  0  0  0
    5.4216   -2.5763    0.3031 H   0  0  0  0  0  0  0  0  0  0  0  0
    4.4975   -0.6385   -0.0496 C   0  0  0  0  0  0  0  0  0  0  0  0
    5.4689   -0.1385   -0.1636 H   0  0  0  0  0  0  0  0  0  0  0  0
    3.3180    0.1146   -0.1759 C   0  0  0  0  0  0  0  0  0  0  0  0
    0.6850   -2.6660    0.4264 C   0  0  0  0  0  0  0  0  0  0  0  0
    0.7876   -4.1888    0.1927 C   0  0  0  0  0  0  0  0  0  0  0  0
   -0.2161   -4.6523    0.2857 H   0  0  0  0  0  0  0  0  0  0  0  0
    1.4463   -4.6820    0.9364 H   0  0  0  0  0  0  0  0  0  0  0  0
    1.1795   -4.4161   -0.8188 H   0  0  0  0  0  0  0  0  0  0  0  0
    0.1984   -2.4317    1.8779 C   0  0  0  0  0  0  0  0  0  0  0  0
   -0.8101   -2.8724    2.0413 H   0  0  0  0  0  0  0  0  0  0  0  0
    0.1486   -1.3480    2.1052 H   0  0  0  0  0  0  0  0  0  0  0  0
    0.8931   -2.9027    2.6032 H   0  0  0  0  0  0  0  0  0  0  0  0
   -0.3289   -2.1152   -0.5876 C   0  0  0  0  0  3  0  0  0  0  0  0
   -1.2333   -2.7624   -0.6088 H   0  0  0  0  0  0  0  0  0  0  0  0
    0.1071   -2.1120   -1.6123 H   0  0  0  0  0  0  0  0  0  0  0  0
    3.3696    1.6257   -0.4696 C   0  0  0  0  0  0  0  0  0  0  0  0
    4.8090    2.1547   -0.6119 C   0  0  0  0  0  0  0  0  0  0  0  0
    5.3536    1.6631   -1.4433 H   0  0  0  0  0  0  0  0  0  0  0  0
    5.3974    2.0145    0.3174 H   0  0  0  0  0  0  0  0  0  0  0  0
    4.7817    3.2428   -0.8278 H   0  0  0  0  0  0  0  0  0  0  0  0
    2.7148    2.3957    0.7027 C   0  0  0  0  0  0  0  0  0  0  0  0
    1.7067    2.0021    0.9226 H   0  0  0  0  0  0  0  0  0  0  0  0
    2.6388    3.4803    0.4712 H   0  0  0  0  0  0  0  0  0  0  0  0
    3.3312    2.2859    1.6182 H   0  0  0  0  0  0  0  0  0  0  0  0
    2.6489    1.9060   -1.8108 C   0  0  0  0  0  0  0  0  0  0  0  0
    1.6481    1.4365   -1.8293 H   0  0  0  0  0  0  0  0  0  0  0  0
    3.2312    1.4800   -2.6527 H   0  0  0  0  0  0  0  0  0  0  0  0
    2.5469    2.9987   -1.9866 H   0  0  0  0  0  0  0  0  0  0  0  0
  1  2  1  0  0  0  0
  2  3  1  0  0  0  0
  3  4  2  0  0  0  0
  3 11  1  0  0  0  0
  4  5  1  0  0  0  0
  6  7  1  0  0  0  0
  6  4  1  0  0  0  0
  8  6  2  0  0  0  0
  9  8  1  0  0  0  0
 10  8  1  0  0  0  0
 10  2  2  0  0  0  0
 11 16  1  0  0  0  0
 12 13  1  0  0  0  0
 12 11  1  0  0  0  0
 12 14  1  0  0  0  0
 15 12  1  0  0  0  0
 16 17  1  0  0  0  0
 16 18  1  0  0  0  0
 16 19  1  0  0  0  0
 20 11  1  0  0  0  0
 21 20  1  0  0  0  0
 22 20  1  0  0  0  0
 23 10  1  0  0  0  0
 23 28  1  0  0  0  0
 24 23  1  0  0  0  0
 24 26  1  0  0  0  0
 25 24  1  0  0  0  0
 27 24  1  0  0  0  0
 28 29  1  0  0  0  0
 28 31  1  0  0  0  0
 30 28  1  0  0  0  0
 32 23  1  0  0  0  0
 33 32  1  0  0  0  0
 34 32  1  0  0  0  0
 35 32  1  0  0  0  0
M  CHG  1   1  -1
M  END
