1,5
q = 0.0, confidence = 0.918

 17 16  0  0  0  0  0  0  0  0999 V2000
    1.9345    0.8013   -1.5118 O   0  5  0  0  0  0  0  0  0  0  0  0
    2.7221    1.2948   -0.5252 C   0  0  0  0  0  0  0  0  0  0  0  0
    3.1118    0.3575    0.4361 C   0  0  0  0  0  0  0  0  0  0  0  0
    3.5322    0.7230    1.3871 H   0  0  0  0  0  0  0  0  0  0  0  0
    2.8069   -1.0616    0.2156 C   0  0  0  0  0  3  0  0  0  0  0  0
    3.0491    2.7501   -0.5417 C   0  0  0  0  0  0  0  0  0  0  0  0
    2.1166    3.3488   -0.5690 H   0  0  0  0  0  0  0  0  0  0  0  0
    3.6333    2.9778   -1.4573 H   0  0  0  0  0  0  0  0  0  0  0  0
    3.6449    3.0361    0.3442 H   0  0  0  0  0  0  0  0  0  0  0  0
    3.3692   -1.6710   -1.0741 C   0  0  0  0  0  0  0  0  0  0  0  0
    2.9298   -2.6693   -1.2756 H   0  0  0  0  0  0  0  0  0  0  0  0
    4.4646   -1.8256   -0.9562 H   0  0  0  0  0  0  0  0  0  0  0  0
    3.2143   -1.0323   -1.9628 H   0  0  0  0  0  0  0  0  0  0  0  0
    3.0621   -1.9883    1.3955 C   0  0  0  0  0  0  0  0  0  0  0  0
    2.5246   -2.9511    1.2691 H   0  0  0  0  0  0  0  0  0  0  0  0
    2.7375   -1.5485    2.3552 H   0  0  0  0  0  0  0  0  0  0  0  0
    4.1464   -2.2322    1.4633 H   0  0  0  0  0  0  0  0  0  0  0  0
  1  2  1  0  0  0  0
  2  3  2  0  0  0  0
  3  4  1  0  0  0  0
  5  3  1  0  0  0  0
  5 14  1  0  0  0  0
  6  2  1  0  0  0  0
  6  9  1  0  0  0  0
  7  6  1  0  0  0  0
  8  6  1  0  0  0  0
 10 12  1  0  0  0  0
 10  5  1  0  0  0  0
 11 10  1  0  0  0  0
 13 10  1  0  0  0  0
 14 17  1  0  0  0  0
 14 16  1  0  0  0  0
 15 14  1  0  0  0  0
M  CHG  1   1  -1
M  END
