1,3
q = -1.0, confidence = 0.0

 35 37  0  0  1  0  0  0  0  0999 V2000
    1.1210    1.0232    0.5217 O   0  0  0  0  0  1  0  0  0  0  0  0
    2.0593    0.0691    0.1087 C   0  0  0  0  0  0  0  0  0  0  0  0
    1.2959   -0.8150   -0.9224 C   0  0  1  0  0  3  0  0  0  0  0  0
    0.6637   -0.1202   -2.0119 C   0  0  0  0  0  3  0  0  0  0  0  0
    0.7953    0.9682   -2.1052 H   0  0  0  0  0  0  0  0  0  0  0  0
    0.2076   -0.8576   -3.1394 C   0  0  0  0  0  0  0  0  0  0  0  0
   -0.2203   -0.3166   -3.9977 H   0  0  0  0  0  0  0  0  0  0  0  0
    0.3416   -2.2446   -3.1806 C   0  0  0  0  0  0  0  0  0  0  0  0
    0.0048   -2.8046   -4.0670 H   0  0  0  0  0  0  0  0  0  0  0  0
    0.9218   -2.9374   -2.0897 C   0  0  0  0  0  0  0  0  0  0  0  0
    1.0222   -4.0330   -2.1256 H   0  0  0  0  0  0  0  0  0  0  0  0
    1.3817   -2.2334   -0.9750 C   0  0  0  0  0  0  0  0  0  0  0  0
    1.8551   -2.7658   -0.1370 H   0  0  0  0  0  0  0  0  0  0  0  0
    3.2592    0.7575   -0.5647 C   0  0  0  0  0  0  0  0  0  0  0  0
    4.0002    0.1457   -1.5933 C   0  0  0  0  0  0  0  0  0  0  0  0
    3.7085   -0.8531   -1.9542 H   0  0  0  0  0  0  0  0  0  0  0  0
    5.0987    0.8031   -2.1711 C   0  0  0  0  0  0  0  0  0  0  0  0
    5.6661    0.3135   -2.9779 H   0  0  0  0  0  0  0  0  0  0  0  0
    5.4672    2.0830   -1.7285 C   0  0  0  0  0  0  0  0  0  0  0  0
    6.3256    2.6007   -2.1836 H   0  0  0  0  0  0  0  0  0  0  0  0
    4.7272    2.7017   -0.7070 C   0  0  0  0  0  0  0  0  0  0  0  0
    5.0064    3.7083   -0.3580 H   0  0  0  0  0  0  0  0  0  0  0  0
    3.6305    2.0438   -0.1316 C   0  0  0  0  0  0  0  0  0  0  0  0
    3.0313    2.5191    0.6584 H   0  0  0  0  0  0  0  0  0  0  0  0
    2.5231   -0.7949    1.3054 C   0  0  0  0  0  0  0  0  0  0  0  0
    3.8241   -1.3168    1.4280 C   0  0  0  0  0  0  0  0  0  0  0  0
    4.5796   -1.0828    0.6638 H   0  0  0  0  0  0  0  0  0  0  0  0
    4.1701   -2.1295    2.5217 C   0  0  0  0  0  0  0  0  0  0  0  0
    5.1946   -2.5250    2.6023 H   0  0  0  0  0  0  0  0  0  0  0  0
    3.2209   -2.4325    3.5090 C   0  0  0  0  0  0  0  0  0  0  0  0
    3.4939   -3.0679    4.3656 H   0  0  0  0  0  0  0  0  0  0  0  0
    1.9209   -1.9100    3.3981 C   0  0  0  0  0  0  0  0  0  0  0  0
    1.1668   -2.1347    4.1689 H   0  0  0  0  0  0  0  0  0  0  0  0
    1.5818   -1.0960    2.3089 C   0  0  0  0  0  0  0  0  0  0  0  0
    0.5713   -0.6676    2.2117 H   0  0  0  0  0  0  0  0  0  0  0  0
  2  1  1  0  0  0  0
  2 25  1  0  0  0  0
  3  2  1  6  0  0  0
  4  3  1  0  0  0  0
  5  4  1  0  0  0  0
  6  4  1  0  0  0  0
  7  6  1  0  0  0  0
  8  6  2  0  0  0  0
  8 10  1  0  0  0  0
  9  8  1  0  0  0  0
 10 12  2  0  0  0  0
 11 10  1  0  0  0  0
 12  3  1  0  0  0  0
 12 13  1  0  0  0  0
 14 23  1  0  0  0  0
 14  2  1  0  0  0  0
 15 14  2  0  0  0  0
 16 15  1  0  0  0  0
 17 19  2  0  0  0  0
 17 15  1  0  0  0  0
 18 17  1  0  0  0  0
 19 21  1  0  0  0  0
 20 19  1  0  0  0  0
 21 22  1  0  0  0  0
 21 23  2  0  0  0  0
 23 24  1  0  0  0  0
 25 26  2  0  0  0  0
 25 34  1  0  0  0  0
 26 28  1  0  0  0  0
 27 26  1  0  0  0  0
 28 29  1  0  0  0  0
 28 30  2  0  0  0  0
 30 31  1  0  0  0  0
 32 30  1  0  0  0  0
 32 33  1  0  0  0  0
 34 32  2  0  0  0  0
 35 34  1  0  0  0  0
M  END
