2,9
q = -1.0, confidence = 0.03

 30 30  0  0  0  0  0  0  0  0999 V2000
   -3.6143   -0.5724   -1.7438 S   0  0  0  0  0  0  0  0  0  0  0  0
    0.2584    1.8212    0.9190 O   0  5  0  0  0  0  0  0  0  0  0  0
   -0.1185    3.5402   -0.4996 O   0  0  0  0  0  0  0  0  0  0  0  0
   -4.1103   -1.8496   -2.3035 O   0  0  0  0  0  0  0  0  0  0  0  0
   -3.5864    0.6797   -2.5372 O   0  0  0  0  0  0  0  0  0  0  0  0
   -1.8770   -0.9468   -1.1905 C   0  0  0  0  0  0  0  0  0  0  0  0
   -1.9716   -1.8973   -0.6382 H   0  0  0  0  0  0  0  0  0  0  0  0
   -1.3935   -1.1803   -2.1650 H   0  0  0  0  0  0  0  0  0  0  0  0
   -1.1595    0.1371   -0.4644 C   0  0  0  0  0  2  0  0  0  0  0  0
   -1.1459    1.4351   -0.9162 C   0  0  0  0  0  0  0  0  0  0  0  0
   -1.6730    1.7972   -1.8113 H   0  0  0  0  0  0  0  0  0  0  0  0
   -0.3091    2.2926   -0.1241 C   0  0  0  0  0  0  0  0  0  0  0  0
   -4.4772   -0.2513   -0.1937 C   0  0  0  0  0  0  0  0  0  0  0  0
   -5.0249   -1.3387    0.5046 C   0  0  0  0  0  0  0  0  0  0  0  0
   -4.9685   -2.3484    0.0713 H   0  0  0  0  0  0  0  0  0  0  0  0
   -5.6560   -1.0972    1.7345 C   0  0  0  0  0  0  0  0  0  0  0  0
   -6.0985   -1.9334    2.2961 H   0  0  0  0  0  0  0  0  0  0  0  0
   -5.7382    0.2129    2.2383 C   0  0  0  0  0  0  0  0  0  0  0  0
   -6.2388    0.3970    3.2006 H   0  0  0  0  0  0  0  0  0  0  0  0
   -5.2049    1.2916    1.5111 C   0  0  0  0  0  0  0  0  0  0  0  0
   -5.2968    2.3171    1.8993 H   0  0  0  0  0  0  0  0  0  0  0  0
   -4.5705    1.0665    0.2794 C   0  0  0  0  0  0  0  0  0  0  0  0
   -4.1634    1.8911   -0.3224 H   0  0  0  0  0  0  0  0  0  0  0  0
    0.7832    4.3753    0.2831 C   0  0  0  0  0  0  0  0  0  0  0  0
    0.3160    4.5472    1.2754 H   0  0  0  0  0  0  0  0  0  0  0  0
    1.7238    3.8096    0.4416 H   0  0  0  0  0  0  0  0  0  0  0  0
    1.0051    5.6560   -0.4874 C   0  0  0  0  0  0  0  0  0  0  0  0
    1.4763    5.4473   -1.4679 H   0  0  0  0  0  0  0  0  0  0  0  0
    1.6763    6.3239    0.0871 H   0  0  0  0  0  0  0  0  0  0  0  0
    0.0514    6.1911   -0.6614 H   0  0  0  0  0  0  0  0  0  0  0  0
  1  6  1  0  0  0  0
  1 13  1  0  0  0  0
  3 12  1  0  0  0  0
  3 24  1  0  0  0  0
  4  1  2  0  0  0  0
  5  1  2  0  0  0  0
  6  7  1  0  0  0  0
  6  9  1  0  0  0  0
  8  6  1  0  0  0  0
 10  9  1  0  0  0  0
 10 12  2  0  0  0  0
 11 10  1  0  0  0  0
 12  2  1  0  0  0  0
 13 22  2  0  0  0  0
 13 14  1  0  0  0  0
 14 16  2  0  0  0  0
 15 14  1  0  0  0  0
 16 18  1  0  0  0  0
 16 17  1  0  0  0  0
 18 19  1  0  0  0  0
 20 21  1  0  0  0  0
 20 18  2  0  0  0  0
 22 20  1  0  0  0  0
 23 22  1  0  0  0  0
 24 26  1  0  0  0  0
 24 25  1  0  0  0  0
 27 29  1  0  0  0  0
 27 24  1  0  0  0  0
 28 27  1  0  0  0  0
 30 27  1  0  0  0  0
M  CHG  1   2  -1
M  END
