1,2
q = -1.0, confidence = 0.062

 12 11  0  0  1  0  0  0  0  0999 V2000
   -3.4218   -0.9419   -0.2603 O   0  0  0  0  0  1  0  0  0  0  0  0
   -1.1367   -2.4484   -0.3538 C   0  0  0  0  0  3  0  0  0  0  0  0
   -0.9867   -2.5786   -1.4477 H   0  0  0  0  0  0  0  0  0  0  0  0
   -0.2771   -2.9104    0.1694 H   0  0  0  0  0  0  0  0  0  0  0  0
   -2.4641   -3.0757    0.1036 C   0  0  0  0  0  0  0  0  0  0  0  0
   -2.6369   -4.0973   -0.3042 H   0  0  0  0  0  0  0  0  0  0  0  0
   -2.4760   -3.2084    1.2122 H   0  0  0  0  0  0  0  0  0  0  0  0
   -3.6297   -2.1737   -0.1712 C   0  0  1  0  0  3  0  0  0  0  0  0
   -5.0146   -2.7123   -0.3131 C   0  0  0  0  0  0  0  0  0  0  0  0
   -5.7619   -1.8993   -0.2973 H   0  0  0  0  0  0  0  0  0  0  0  0
   -5.2290   -3.4609    0.4764 H   0  0  0  0  0  0  0  0  0  0  0  0
   -5.0863   -3.2550   -1.2810 H   0  0  0  0  0  0  0  0  0  0  0  0
  2  5  1  0  0  0  0
  2  4  1  0  0  0  0
  3  2  1  0  0  0  0
  5  7  1  0  0  0  0
  6  5  1  0  0  0  0
  8  1  1  1  0  0  0
  8  5  1  0  0  0  0
  9 10  1  0  0  0  0
  9  8  1  0  0  0  0
  9 11  1  0  0  0  0
 12  9  1  0  0  0  0
M  END
