1,2
q = -2.0, confidence = 0.94

 44 45  0  0  1  0  0  0  0  0999 V2000
   -0.7166   -0.6420    0.0002 O   0  5  0  0  0  0  0  0  0  0  0  0
    0.6487    1.5205    0.0019 C   0  0  2  0  0  3  0  0  0  0  0  0
    1.4444    1.2563   -1.1641 C   0  0  0  0  0  0  0  0  0  0  0  0
    2.7396    0.8253   -0.7166 C   0  0  0  0  0  0  0  0  0  0  0  0
    2.7390    0.8232    0.7204 C   0  0  0  0  0  0  0  0  0  0  0  0
    1.4433    1.2526    1.1679 C   0  0  0  0  0  0  0  0  0  0  0  0
   -0.8236    1.6940    0.0016 C   0  0  0  0  0  0  0  0  0  0  0  0
   -1.5157    0.4548    0.0007 C   0  0  0  0  0  0  0  0  0  0  0  0
   -2.9313    0.3732    0.0004 C   0  0  0  0  0  0  0  0  0  0  0  0
   -3.6115    1.6093    0.0010 C   0  0  0  0  0  0  0  0  0  0  0  0
   -4.7098    1.6108    0.0007 H   0  0  0  0  0  0  0  0  0  0  0  0
   -2.9431    2.8455    0.0019 C   0  0  0  0  0  0  0  0  0  0  0  0
   -3.5275    3.7776    0.0023 H   0  0  0  0  0  0  0  0  0  0  0  0
   -1.5407    2.8969    0.0023 C   0  0  0  0  0  0  0  0  0  0  0  0
   -1.0059    3.8583    0.0030 H   0  0  0  0  0  0  0  0  0  0  0  0
   -3.6469   -0.9863   -0.0006 C   0  0  0  0  0  0  0  0  0  0  0  0
   -3.2425   -1.7757   -1.2690 C   0  0  0  0  0  0  0  0  0  0  0  0
   -3.5465   -1.2284   -2.1846 H   0  0  0  0  0  0  0  0  0  0  0  0
   -3.7476   -2.7636   -1.2779 H   0  0  0  0  0  0  0  0  0  0  0  0
   -2.1506   -1.9470   -1.3135 H   0  0  0  0  0  0  0  0  0  0  0  0
   -3.2431   -1.7772    1.2670 C   0  0  0  0  0  0  0  0  0  0  0  0
   -3.7484   -2.7651    1.2745 H   0  0  0  0  0  0  0  0  0  0  0  0
   -3.5475   -1.2310    2.1831 H   0  0  0  0  0  0  0  0  0  0  0  0
   -2.1512   -1.9487    1.3118 H   0  0  0  0  0  0  0  0  0  0  0  0
   -5.1769   -0.8246   -0.0009 C   0  0  0  0  0  0  0  0  0  0  0  0
   -5.5378   -0.2840   -0.8994 H   0  0  0  0  0  0  0  0  0  0  0  0
   -5.5383   -0.2852    0.8982 H   0  0  0  0  0  0  0  0  0  0  0  0
   -5.6531   -1.8255   -0.0017 H   0  0  0  0  0  0  0  0  0  0  0  0
    0.9882    1.3927   -2.5833 C   0  0  0  0  0  0  0  0  0  0  0  0
    1.3483    0.5513   -3.2063 H   0  0  0  0  0  0  0  0  0  0  0  0
    1.3711    2.3359   -3.0282 H   0  0  0  0  0  0  0  0  0  0  0  0
   -0.1170    1.4210   -2.6411 H   0  0  0  0  0  0  0  0  0  0  0  0
    3.8996    0.4958   -1.6035 C   0  0  0  0  0  0  0  0  0  0  0  0
    4.4516    1.4203   -1.8782 H   0  0  0  0  0  0  0  0  0  0  0  0
    3.5652    0.0062   -2.5377 H   0  0  0  0  0  0  0  0  0  0  0  0
    4.6163   -0.1855   -1.1067 H   0  0  0  0  0  0  0  0  0  0  0  0
    3.8983    0.4909    1.6070 C   0  0  0  0  0  0  0  0  0  0  0  0
    3.5629    0.0044    2.5425 H   0  0  0  0  0  0  0  0  0  0  0  0
    4.4541    1.4139    1.8796 H   0  0  0  0  0  0  0  0  0  0  0  0
    4.6121   -0.1941    1.1111 H   0  0  0  0  0  0  0  0  0  0  0  0
    0.9853    1.3841    2.5870 C   0  0  0  0  0  0  0  0  0  0  0  0
    1.3660    2.3266    3.0353 H   0  0  0  0  0  0  0  0  0  0  0  0
    1.3460    0.5413    3.2079 H   0  0  0  0  0  0  0  0  0  0  0  0
   -0.1200    1.4104    2.6436 H   0  0  0  0  0  0  0  0  0  0  0  0
  1  8  1  0  0  0  0
  2  7  1  6  0  0  0
  2  6  1  0  0  0  0
  3  4  2  0  0  0  0
  3  2  1  0  0  0  0
  4  5  1  0  0  0  0
  5  6  2  0  0  0  0
  5 37  1  0  0  0  0
  6 41  1  0  0  0  0
  7 14  1  0  0  0  0
  8  7  2  0  0  0  0
  9  8  1  0  0  0  0
  9 10  2  0  0  0  0
 10 12  1  0  0  0  0
 11 10  1  0  0  0  0
 12 14  2  0  0  0  0
 12 13  1  0  0  0  0
 14 15  1  0  0  0  0
 16  9  1  0  0  0  0
 16 21  1  0  0  0  0
 17 16  1  0  0  0  0
 18 17  1  0  0  0  0
 19 17  1  0  0  0  0
 20 17  1  0  0  0  0
 21 22  1  0  0  0  0
 21 24  1  0  0  0  0
 21 23  1  0  0  0  0
 25 16  1  0  0  0  0
 25 27  1  0  0  0  0
 26 25  1  0  0  0  0
 28 25  1  0  0  0  0
 29  3  1  0  0  0  0
 30 29  1  0  0  0  0
 31 29  1  0  0  0  0
 32 29  1  0  0  0  0
 33 36  1  0  0  0  0
 33  4  1  0  0  0  0
 34 33  1  0  0  0  0
 35 33  1  0  0  0  0
 37 39  1  0  0  0  0
 37 38  1  0  0  0  0
 40 37  1  0  0  0  0
 41 44  1  0  0  0  0
 41 42  1  0  0  0  0
 41 43  1  0  0  0  0
M  CHG  1   1  -1
M  END
