2,13
q = 0.0, confidence = 0.738

 33 33  0  0  1  0  0  0  0  0999 V2000
    0.0176    2.4163   -0.0515 O   0  0  0  0  0  0  0  0  0  0  0  0
    2.2941    1.1161    0.1481 O   0  0  0  0  0  1  0  0  0  0  0  0
    3.5343    2.9838    0.5423 N   0  0  0  0  0  0  0  0  0  0  0  0
   -1.2607    2.9143   -0.0667 C   0  0  0  0  0  0  0  0  0  0  0  0
   -2.2461    1.8886   -0.1202 C   0  0  0  0  0  0  0  0  0  0  0  0
   -3.6031    2.2768   -0.1251 C   0  0  0  0  0  0  0  0  0  0  0  0
   -4.3645    1.4804   -0.1687 H   0  0  0  0  0  0  0  0  0  0  0  0
   -3.9933    3.6282   -0.0712 C   0  0  0  0  0  0  0  0  0  0  0  0
   -2.9796    4.6064   -0.0261 C   0  0  0  0  0  0  0  0  0  0  0  0
   -3.2591    5.6713    0.0063 H   0  0  0  0  0  0  0  0  0  0  0  0
   -1.6134    4.2646   -0.0265 C   0  0  0  0  0  0  0  0  0  0  0  0
   -0.8519    5.0561    0.0022 H   0  0  0  0  0  0  0  0  0  0  0  0
   -1.8213    0.4936   -0.1670 C   0  0  0  0  0  2  0  0  0  0  0  0
   -2.6544   -0.2124   -0.3253 H   0  0  0  0  0  0  0  0  0  0  0  0
   -5.4531    4.0097   -0.0442 C   0  0  0  0  0  0  0  0  0  0  0  0
   -6.0398    3.4226   -0.7795 H   0  0  0  0  0  0  0  0  0  0  0  0
   -5.5999    5.0840   -0.2693 H   0  0  0  0  0  0  0  0  0  0  0  0
   -5.9008    3.8155    0.9541 H   0  0  0  0  0  0  0  0  0  0  0  0
    1.1751    3.2377   -0.2180 C   0  0  2  0  0  0  0  0  0  0  0  0
    1.0771    4.0970    0.4792 H   0  0  0  0  0  0  0  0  0  0  0  0
    1.3162    3.6906   -1.6733 C   0  0  0  0  0  0  0  0  0  0  0  0
    1.3723    2.7890   -2.3148 H   0  0  0  0  0  0  0  0  0  0  0  0
    2.2259    4.3067   -1.8123 H   0  0  0  0  0  0  0  0  0  0  0  0
    0.4370    4.2880   -1.9826 H   0  0  0  0  0  0  0  0  0  0  0  0
    2.3714    2.3492    0.1940 C   0  0  1  0  0  3  0  0  0  0  0  0
    4.7114    2.1723    0.8149 C   0  0  0  0  0  0  0  0  0  0  0  0
    5.0569    2.3282    1.8593 H   0  0  0  0  0  0  0  0  0  0  0  0
    5.5392    2.4502    0.1273 H   0  0  0  0  0  0  0  0  0  0  0  0
    4.4510    1.1083    0.6707 H   0  0  0  0  0  0  0  0  0  0  0  0
    3.7351    4.4181    0.6193 C   0  0  0  0  0  0  0  0  0  0  0  0
    4.3938    4.7800   -0.2020 H   0  0  0  0  0  0  0  0  0  0  0  0
    4.2233    4.6784    1.5827 H   0  0  0  0  0  0  0  0  0  0  0  0
    2.7828    4.9717    0.5659 H   0  0  0  0  0  0  0  0  0  0  0  0
  3 30  1  0  0  0  0
  3 26  1  0  0  0  0
  4  1  1  0  0  0  0
  4 11  1  0  0  0  0
  5  4  2  0  0  0  0
  6  5  1  0  0  0  0
  6  8  2  0  0  0  0
  7  6  1  0  0  0  0
  8 15  1  0  0  0  0
  8  9  1  0  0  0  0
  9 10  1  0  0  0  0
 11  9  2  0  0  0  0
 11 12  1  0  0  0  0
 13  5  1  0  0  0  0
 14 13  1  0  0  0  0
 15 18  1  0  0  0  0
 16 15  1  0  0  0  0
 17 15  1  0  0  0  0
 19  1  1  0  0  0  0
 19 25  1  0  0  0  0
 19 20  1  1  0  0  0
 21 19  1  0  0  0  0
 22 21  1  0  0  0  0
 23 21  1  0  0  0  0
 24 21  1  0  0  0  0
 25  2  1  6  0  0  0
 25  3  1  0  0  0  0
 26 27  1  0  0  0  0
 28 26  1  0  0  0  0
 29 26  1  0  0  0  0
 30 32  1  0  0  0  0
 31 30  1  0  0  0  0
 33 30  1  0  0  0  0
M  END
