10,13
q = -2.0, confidence = 0.96

 26 26  0  0  0  0  0  0  0  0999 V2000
   -1.3814   -1.0654   -1.8689 C   0  0  0  0  0  0  0  0  0  0  0  0
   -2.0327   -0.6521   -0.5619 C   0  0  0  0  0  0  0  0  0  0  0  0
   -3.4999   -0.7791   -0.4095 C   0  0  0  0  0  0  0  0  0  0  0  0
   -4.1967   -1.8873   -0.9494 C   0  0  0  0  0  0  0  0  0  0  0  0
   -5.5775   -2.0204   -0.7739 C   0  0  0  0  0  0  0  0  0  0  0  0
   -6.3295   -1.0554   -0.0707 C   0  0  0  0  0  0  0  0  0  0  0  0
   -5.6391    0.0567    0.4484 C   0  0  0  0  0  0  0  0  0  0  0  0
   -4.2551    0.1949    0.2813 C   0  0  0  0  0  0  0  0  0  0  0  0
   -7.8189   -1.2131    0.1042 C   0  0  0  0  0  0  0  0  0  0  0  0
   -1.1808   -0.1410    0.3768 C   0  0  0  0  0  3  0  0  0  0  0  0
   -1.5856    0.2445    1.7409 C   0  0  0  0  0  0  0  0  0  0  0  0
   -1.8873    2.0436    3.2516 C   0  0  0  0  0  0  0  0  0  0  0  0
   -0.0693   -0.8636   -1.9123 O   0  5  0  0  0  0  0  0  0  0  0  0
   -2.0017   -1.5413   -2.8183 O   0  0  0  0  0  0  0  0  0  0  0  0
   -1.8120   -0.5182    2.6694 O   0  0  0  0  0  0  0  0  0  0  0  0
   -1.5999    1.6084    1.9158 O   0  0  0  0  0  0  0  0  0  0  0  0
   -3.6376   -2.6375   -1.5233 H   0  0  0  0  0  0  0  0  0  0  0  0
   -6.0909   -2.8984   -1.1986 H   0  0  0  0  0  0  0  0  0  0  0  0
   -6.2004    0.8369    0.9873 H   0  0  0  0  0  0  0  0  0  0  0  0
   -3.7534    1.0912    0.6746 H   0  0  0  0  0  0  0  0  0  0  0  0
   -8.2568   -0.3670    0.6688 H   0  0  0  0  0  0  0  0  0  0  0  0
   -8.0645   -2.1480    0.6507 H   0  0  0  0  0  0  0  0  0  0  0  0
   -8.3376   -1.2719   -0.8758 H   0  0  0  0  0  0  0  0  0  0  0  0
   -1.8597    3.1482    3.2264 H   0  0  0  0  0  0  0  0  0  0  0  0
   -1.1296    1.6546    3.9609 H   0  0  0  0  0  0  0  0  0  0  0  0
   -2.8865    1.6898    3.5761 H   0  0  0  0  0  0  0  0  0  0  0  0
  1  2  1  0  0  0  0
  2  3  1  0  0  0  0
  2 10  2  0  0  0  0
  3  8  1  0  0  0  0
  4  5  1  0  0  0  0
  4  3  2  0  0  0  0
  5  6  2  0  0  0  0
  6  9  1  0  0  0  0
  6  7  1  0  0  0  0
  7 19  1  0  0  0  0
  8  7  2  0  0  0  0
  8 20  1  0  0  0  0
  9 22  1  0  0  0  0
  9 21  1  0  0  0  0
 10 11  1  0  0  0  0
 11 16  1  0  0  0  0
 11 15  2  0  0  0  0
 12 26  1  0  0  0  0
 12 25  1  0  0  0  0
 13  1  1  0  0  0  0
 14  1  2  0  0  0  0
 16 12  1  0  0  0  0
 17  4  1  0  0  0  0
 18  5  1  0  0  0  0
 23  9  1  0  0  0  0
 24 12  1  0  0  0  0
M  CHG  1  13  -1
M  END
