2,7
q = -2.0, confidence = 0.672

  9  8  0  0  0  0  0  0  0  0999 V2000
   -3.2999   -2.1264   -0.0177 O   0  5  0  0  0  0  0  0  0  0  0  0
   -1.0843   -1.6811   -0.0123 O   0  0  0  0  0  0  0  0  0  0  0  0
   -1.4216    2.2693    0.0141 F   0  0  0  0  0  0  0  0  0  0  0  0
   -1.6910    0.9830   -1.7530 F   0  0  0  0  0  0  0  0  0  0  0  0
   -2.4727    0.4159    1.6471 F   0  0  0  0  0  0  0  0  0  0  0  0
   -3.8019    0.5838   -0.1084 F   0  0  0  0  0  0  0  0  0  0  0  0
   -1.4442    0.9656   -0.4007 C   0  0  0  0  0  0  0  0  0  0  0  0
   -2.5765    0.1782    0.2929 C   0  0  0  0  0  0  0  0  0  0  0  0
   -2.3725   -1.3501    0.0541 C   0  0  0  0  0  0  0  0  0  0  0  0
  1  9  1  0  0  0  0
  2  9  2  0  0  0  0
  4  7  1  0  0  0  0
  6  8  1  0  0  0  0
  7  3  1  0  0  0  0
  7  8  1  0  0  0  0
  8  5  1  0  0  0  0
  9  8  1  0  0  0  0
M  CHG  1   1  -1
M  END
