1,4
q = -2.0, confidence = 0.678

  6  5  0  0  0  0  0  0  0  0999 V2000
    2.4521   -1.1459    0.5647 O   0  5  0  0  0  0  0  0  0  0  0  0
    4.3454   -1.4235   -0.6609 O   0  0  0  0  0  0  0  0  0  0  0  0
    3.2828   -0.8693   -0.4612 C   0  0  0  0  0  0  0  0  0  0  0  0
    2.5764    0.2158   -1.2759 C   0  0  0  0  0  3  0  0  0  0  0  0
    2.2920   -0.1233   -2.2920 H   0  0  0  0  0  0  0  0  0  0  0  0
    3.1967    1.1281   -1.3684 H   0  0  0  0  0  0  0  0  0  0  0  0
  2  3  2  0  0  0  0
  3  1  1  0  0  0  0
  4  3  1  0  0  0  0
  5  4  1  0  0  0  0
  6  4  1  0  0  0  0
M  CHG  1   1  -1
M  END
