1,5
q = -2.0, confidence = 0.914

 31 31  0  0  1  0  0  0  0  0999 V2000
    1.4223    0.5991    1.3892 O   0  0  0  0  0  1  0  0  0  0  0  0
    0.2912   -1.2205   -1.1756 C   0  0  0  0  0  0  0  0  0  0  0  0
   -1.1206   -0.9456   -1.1804 C   0  0  0  0  0  0  0  0  0  0  0  0
   -1.2986    0.4679   -1.3029 C   0  0  0  0  0  0  0  0  0  0  0  0
    0.0049    1.0760   -1.3378 C   0  0  1  0  0  3  0  0  0  0  0  0
    0.9872    0.0265   -1.2858 C   0  0  0  0  0  0  0  0  0  0  0  0
    0.8911   -2.5938   -1.1406 C   0  0  0  0  0  0  0  0  0  0  0  0
   -2.1936   -1.9880   -1.1321 C   0  0  0  0  0  0  0  0  0  0  0  0
   -2.6011    1.1899   -1.4491 C   0  0  0  0  0  0  0  0  0  0  0  0
    0.2639    2.5506   -1.4284 C   0  0  0  0  0  0  0  0  0  0  0  0
    2.4830    0.2005   -1.3590 C   0  0  0  0  0  0  0  0  0  0  0  0
    3.2514   -0.0654   -0.0514 C   0  0  0  0  0  0  0  0  0  0  0  0
    2.7785    0.8135    1.1026 C   0  0  0  0  0  0  0  0  0  0  0  0
    1.9967   -2.5640   -1.1586 H   0  0  0  0  0  0  0  0  0  0  0  0
    0.5555   -3.1850   -2.0187 H   0  0  0  0  0  0  0  0  0  0  0  0
    0.5783   -3.1430   -0.2295 H   0  0  0  0  0  0  0  0  0  0  0  0
   -1.9688   -2.7532   -0.3635 H   0  0  0  0  0  0  0  0  0  0  0  0
   -3.1806   -1.5491   -0.8928 H   0  0  0  0  0  0  0  0  0  0  0  0
   -2.2838   -2.5031   -2.1129 H   0  0  0  0  0  0  0  0  0  0  0  0
   -2.8564    1.3071   -2.5246 H   0  0  0  0  0  0  0  0  0  0  0  0
   -3.4302    0.6422   -0.9626 H   0  0  0  0  0  0  0  0  0  0  0  0
   -2.5608    2.1968   -0.9930 H   0  0  0  0  0  0  0  0  0  0  0  0
    1.3049    2.8052   -1.1525 H   0  0  0  0  0  0  0  0  0  0  0  0
   -0.4067    3.1124   -0.7485 H   0  0  0  0  0  0  0  0  0  0  0  0
    0.0900    2.9255   -2.4598 H   0  0  0  0  0  0  0  0  0  0  0  0
    2.8748   -0.4784   -2.1463 H   0  0  0  0  0  0  0  0  0  0  0  0
    2.7093    1.2297   -1.7065 H   0  0  0  0  0  0  0  0  0  0  0  0
    4.3357    0.1094   -0.2160 H   0  0  0  0  0  0  0  0  0  0  0  0
    3.1391   -1.1283    0.2521 H   0  0  0  0  0  0  0  0  0  0  0  0
    3.3676    0.5934    2.0215 H   0  0  0  0  0  0  0  0  0  0  0  0
    2.9367    1.8922    0.8626 H   0  0  0  0  0  0  0  0  0  0  0  0
  2  7  1  0  0  0  0
  3  2  1  0  0  0  0
  3  8  1  0  0  0  0
  4  3  2  0  0  0  0
  5 10  1  6  0  0  0
  5  4  1  0  0  0  0
  5  6  1  0  0  0  0
  6  2  2  0  0  0  0
  7 16  1  0  0  0  0
  8 18  1  0  0  0  0
  8 17  1  0  0  0  0
  9  4  1  0  0  0  0
  9 22  1  0  0  0  0
  9 21  1  0  0  0  0
 10 23  1  0  0  0  0
 10 24  1  0  0  0  0
 11  6  1  0  0  0  0
 11 12  1  0  0  0  0
 12 29  1  0  0  0  0
 12 13  1  0  0  0  0
 13  1  1  0  0  0  0
 13 30  1  0  0  0  0
 14  7  1  0  0  0  0
 15  7  1  0  0  0  0
 19  8  1  0  0  0  0
 20  9  1  0  0  0  0
 25 10  1  0  0  0  0
 26 11  1  0  0  0  0
 27 11  1  0  0  0  0
 28 12  1  0  0  0  0
 31 13  1  0  0  0  0
M  END
