3,10
q = 0.0, confidence = 0.98

 30 29  0  0  1  0  0  0  0  0999 V2000
   -1.4842   -2.0060    0.8739 O   0  0  0  0  0  0  0  0  0  0  0  0
    3.4668   -2.2775   -0.2232 O   0  0  0  0  0  0  0  0  0  0  0  0
    2.6356   -0.1989   -0.0606 O   0  0  0  0  0  1  0  0  0  0  0  0
   -2.2245   -0.4281   -0.6085 O   0  0  0  0  0  0  0  0  0  0  0  0
    2.4522   -1.4267   -0.1615 C   0  0  2  0  0  3  0  0  0  0  0  0
    1.0798   -2.0043   -0.1962 C   0  0  0  0  0  0  0  0  0  0  0  0
    0.0852   -0.9182   -0.5638 C   0  0  2  0  0  3  0  0  0  0  0  0
   -1.2758   -1.1831   -0.0128 C   0  0  0  0  0  0  0  0  0  0  0  0
    4.7911   -1.7130   -0.1437 C   0  0  0  0  0  0  0  0  0  0  0  0
    0.3371   -0.0674   -1.6984 C   0  0  0  0  0  3  0  0  0  0  0  0
   -3.6273   -0.4461   -0.1496 C   0  0  0  0  0  0  0  0  0  0  0  0
   -4.2951    0.5840   -1.0631 C   0  0  0  0  0  0  0  0  0  0  0  0
   -3.7011   -0.0063    1.3167 C   0  0  0  0  0  0  0  0  0  0  0  0
   -4.2230   -1.8411   -0.3675 C   0  0  0  0  0  0  0  0  0  0  0  0
    0.8301   -2.3921    0.8175 H   0  0  0  0  0  0  0  0  0  0  0  0
    1.0485   -2.8848   -0.8742 H   0  0  0  0  0  0  0  0  0  0  0  0
    5.4852   -2.5677   -0.2146 H   0  0  0  0  0  0  0  0  0  0  0  0
    4.9581   -1.0020   -0.9763 H   0  0  0  0  0  0  0  0  0  0  0  0
    4.9258   -1.1776    0.8164 H   0  0  0  0  0  0  0  0  0  0  0  0
   -0.5243    0.3581   -2.2332 H   0  0  0  0  0  0  0  0  0  0  0  0
    1.2137   -0.2763   -2.3363 H   0  0  0  0  0  0  0  0  0  0  0  0
   -4.1978    0.2822   -2.1248 H   0  0  0  0  0  0  0  0  0  0  0  0
   -5.3724    0.6666   -0.8193 H   0  0  0  0  0  0  0  0  0  0  0  0
   -3.8240    1.5775   -0.9358 H   0  0  0  0  0  0  0  0  0  0  0  0
   -3.2361    0.9906    1.4443 H   0  0  0  0  0  0  0  0  0  0  0  0
   -4.7626    0.0666    1.6272 H   0  0  0  0  0  0  0  0  0  0  0  0
   -3.1888   -0.7325    1.9736 H   0  0  0  0  0  0  0  0  0  0  0  0
   -4.1027   -2.1493   -1.4253 H   0  0  0  0  0  0  0  0  0  0  0  0
   -3.7303   -2.5868    0.2820 H   0  0  0  0  0  0  0  0  0  0  0  0
   -5.3069   -1.8224   -0.1361 H   0  0  0  0  0  0  0  0  0  0  0  0
  2  5  1  0  0  0  0
  2  9  1  0  0  0  0
  4 11  1  0  0  0  0
  4  8  1  0  0  0  0
  5  3  1  1  0  0  0
  6  5  1  0  0  0  0
  6 15  1  0  0  0  0
  7 10  1  6  0  0  0
  7  6  1  0  0  0  0
  7  8  1  0  0  0  0
  8  1  2  0  0  0  0
  9 19  1  0  0  0  0
 11 13  1  0  0  0  0
 12 24  1  0  0  0  0
 12 23  1  0  0  0  0
 12 11  1  0  0  0  0
 13 25  1  0  0  0  0
 13 26  1  0  0  0  0
 13 27  1  0  0  0  0
 14 11  1  0  0  0  0
 14 30  1  0  0  0  0
 14 29  1  0  0  0  0
 16  6  1  0  0  0  0
 17  9  1  0  0  0  0
 18  9  1  0  0  0  0
 20 10  1  0  0  0  0
 21 10  1  0  0  0  0
 22 12  1  0  0  0  0
 28 14  1  0  0  0  0
M  END
