1,7
q = -2.0, confidence = 0.52

 23 24  0  0  0  0  0  0  0  0999 V2000
   -0.2620    0.5877   -1.8474 O   0  5  0  0  0  0  0  0  0  0  0  0
    0.6630    2.5166   -2.4878 O   0  0  0  0  0  0  0  0  0  0  0  0
    0.5479    1.6102   -1.6634 C   0  0  0  0  0  0  0  0  0  0  0  0
    1.2767    1.7217   -0.3251 C   0  0  0  0  0  0  0  0  0  0  0  0
    1.9619    0.6647    0.3417 C   0  0  0  0  0  0  0  0  0  0  0  0
    1.9876   -0.7311   -0.1744 C   0  0  0  0  0  0  0  0  0  0  0  0
    0.7787   -1.3758   -0.5420 C   0  0  0  0  0  3  0  0  0  0  0  0
    0.8381   -2.6903   -1.0465 C   0  0  0  0  0  0  0  0  0  0  0  0
    2.0604   -3.3823   -1.1315 C   0  0  0  0  0  0  0  0  0  0  0  0
    3.2487   -2.7561   -0.7260 C   0  0  0  0  0  0  0  0  0  0  0  0
    3.2095   -1.4354   -0.2549 C   0  0  0  0  0  0  0  0  0  0  0  0
    2.6567    0.9618    1.5370 C   0  0  0  0  0  0  0  0  0  0  0  0
    2.6637    2.2509    2.0874 C   0  0  0  0  0  0  0  0  0  0  0  0
    1.9976    3.2912    1.4214 C   0  0  0  0  0  0  0  0  0  0  0  0
    1.3397    3.0239    0.2142 C   0  0  0  0  0  0  0  0  0  0  0  0
   -0.0799   -3.1926   -1.3952 H   0  0  0  0  0  0  0  0  0  0  0  0
    2.0822   -4.4104   -1.5267 H   0  0  0  0  0  0  0  0  0  0  0  0
    4.2100   -3.2874   -0.7966 H   0  0  0  0  0  0  0  0  0  0  0  0
    4.1434   -0.9244    0.0283 H   0  0  0  0  0  0  0  0  0  0  0  0
    3.1876    0.1447    2.0499 H   0  0  0  0  0  0  0  0  0  0  0  0
    3.1971    2.4428    3.0313 H   0  0  0  0  0  0  0  0  0  0  0  0
    2.0089    4.3132    1.8305 H   0  0  0  0  0  0  0  0  0  0  0  0
    0.8667    3.8338   -0.3612 H   0  0  0  0  0  0  0  0  0  0  0  0
  1  3  1  0  0  0  0
  2  3  2  0  0  0  0
  3  4  1  0  0  0  0
  4 15  2  0  0  0  0
  4  5  1  0  0  0  0
  5 12  2  0  0  0  0
  6  5  1  0  0  0  0
  7  6  2  0  0  0  0
  8  7  1  0  0  0  0
  9  8  2  0  0  0  0
  9 10  1  0  0  0  0
 10 11  2  0  0  0  0
 11  6  1  0  0  0  0
 11 19  1  0  0  0  0
 12 20  1  0  0  0  0
 12 13  1  0  0  0  0
 13 21  1  0  0  0  0
 14 22  1  0  0  0  0
 14 13  2  0  0  0  0
 15 14  1  0  0  0  0
 16  8  1  0  0  0  0
 17  9  1  0  0  0  0
 18 10  1  0  0  0  0
 23 15  1  0  0  0  0
M  CHG  1   1  -1
M  END
