1,2
q = -2.0, confidence = 0.564

 17 17  0  0  0  0  0  0  0  0999 V2000
    1.8510    0.9629    0.1615 O   0  5  0  0  0  0  0  0  0  0  0  0
    1.5450   -1.9456    0.1305 C   0  0  0  0  0  3  0  0  0  0  0  0
    2.8634   -1.6807    0.8644 C   0  0  0  0  0  0  0  0  0  0  0  0
    3.7191   -0.5934    0.2638 C   0  0  0  0  0  0  0  0  0  0  0  0
    3.1462    0.6823   -0.0221 C   0  0  0  0  0  0  0  0  0  0  0  0
    3.9822    1.7234   -0.5001 C   0  0  0  0  0  0  0  0  0  0  0  0
    5.3476    1.5097   -0.7165 C   0  0  0  0  0  0  0  0  0  0  0  0
    5.9126    0.2491   -0.4612 C   0  0  0  0  0  0  0  0  0  0  0  0
    5.0915   -0.7809    0.0265 C   0  0  0  0  0  0  0  0  0  0  0  0
    1.0200   -2.7864    0.6383 H   0  0  0  0  0  0  0  0  0  0  0  0
    1.7461   -2.2620   -0.9203 H   0  0  0  0  0  0  0  0  0  0  0  0
    3.4677   -2.6141    0.9110 H   0  0  0  0  0  0  0  0  0  0  0  0
    2.6330   -1.4162    1.9231 H   0  0  0  0  0  0  0  0  0  0  0  0
    3.5168    2.6992   -0.7058 H   0  0  0  0  0  0  0  0  0  0  0  0
    5.9741    2.3323   -1.0959 H   0  0  0  0  0  0  0  0  0  0  0  0
    6.9833    0.0683   -0.6382 H   0  0  0  0  0  0  0  0  0  0  0  0
    5.5280   -1.7701    0.2428 H   0  0  0  0  0  0  0  0  0  0  0  0
  2 10  1  0  0  0  0
  2  3  1  0  0  0  0
  3 12  1  0  0  0  0
  3 13  1  0  0  0  0
  4  3  1  0  0  0  0
  5  1  1  0  0  0  0
  5  4  2  0  0  0  0
  6  5  1  0  0  0  0
  7  6  2  0  0  0  0
  7  8  1  0  0  0  0
  8  9  2  0  0  0  0
  9 17  1  0  0  0  0
  9  4  1  0  0  0  0
 11  2  1  0  0  0  0
 14  6  1  0  0  0  0
 15  7  1  0  0  0  0
 16  8  1  0  0  0  0
M  CHG  1   1  -1
M  END
