1,5
q = -2.0, confidence = 0.794

 29 29  0  0  0  0  0  0  0  0999 V2000
    0.5788   -1.2001    1.4679 O   0  5  0  0  0  0  0  0  0  0  0  0
    2.1750   -0.0143    2.4483 O   0  0  0  0  0  0  0  0  0  0  0  0
   -0.3351    1.8646    1.0995 O   0  5  0  0  0  0  0  0  0  0  0  0
   -0.2461    1.6188   -1.1528 O   0  0  0  0  0  0  0  0  0  0  0  0
    0.3800   -2.4693   -1.1017 C   0  0  0  0  0  3  0  0  0  0  0  0
    1.0839   -2.9774   -0.4215 H   0  0  0  0  0  0  0  0  0  0  0  0
   -0.2268   -3.1259   -1.7470 H   0  0  0  0  0  0  0  0  0  0  0  0
    0.6159   -1.1235   -1.4784 C   0  0  0  0  0  3  0  0  0  0  0  0
    0.0859   -0.7320   -2.3651 H   0  0  0  0  0  0  0  0  0  0  0  0
    1.7893   -0.2683   -1.0472 C   0  0  0  0  0  0  0  0  0  0  0  0
    2.0474    0.3861   -1.9023 H   0  0  0  0  0  0  0  0  0  0  0  0
    2.6690   -0.9099   -0.8371 H   0  0  0  0  0  0  0  0  0  0  0  0
    1.5526    0.6621    0.1769 C   0  0  0  0  0  0  0  0  0  0  0  0
    1.4666   -0.1915    1.4690 C   0  0  0  0  0  0  0  0  0  0  0  0
    0.2009    1.4599    0.0100 C   0  0  0  0  0  0  0  0  0  0  0  0
    2.6891    1.7192    0.2964 C   0  0  0  0  0  0  0  0  0  0  0  0
    2.4480    2.5400   -0.4093 H   0  0  0  0  0  0  0  0  0  0  0  0
    2.6305    2.1265    1.3240 H   0  0  0  0  0  0  0  0  0  0  0  0
    4.0864    1.2229   -0.0073 C   0  0  0  0  0  0  0  0  0  0  0  0
    4.8194    0.4469    0.9176 C   0  0  0  0  0  0  0  0  0  0  0  0
    4.3567    0.2137    1.8875 H   0  0  0  0  0  0  0  0  0  0  0  0
    6.1012   -0.0249    0.5983 C   0  0  0  0  0  0  0  0  0  0  0  0
    6.6573   -0.6260    1.3346 H   0  0  0  0  0  0  0  0  0  0  0  0
    6.6796    0.2675   -0.6481 C   0  0  0  0  0  0  0  0  0  0  0  0
    7.6867   -0.1031   -0.8944 H   0  0  0  0  0  0  0  0  0  0  0  0
    5.9653    1.0432   -1.5738 C   0  0  0  0  0  0  0  0  0  0  0  0
    6.4100    1.2875   -2.5511 H   0  0  0  0  0  0  0  0  0  0  0  0
    4.6832    1.5150   -1.2521 C   0  0  0  0  0  0  0  0  0  0  0  0
    4.1304    2.1323   -1.9793 H   0  0  0  0  0  0  0  0  0  0  0  0
  1 14  1  0  0  0  0
  4 15  2  0  0  0  0
  5  6  1  0  0  0  0
  7  5  1  0  0  0  0
  8  5  1  0  0  0  0
  8 10  1  0  0  0  0
  9  8  1  0  0  0  0
 10 12  1  0  0  0  0
 10 13  1  0  0  0  0
 11 10  1  0  0  0  0
 13 16  1  0  0  0  0
 13 14  1  0  0  0  0
 14  2  2  0  0  0  0
 15 13  1  0  0  0  0
 15  3  1  0  0  0  0
 16 18  1  0  0  0  0
 17 16  1  0  0  0  0
 19 16  1  0  0  0  0
 19 20  1  0  0  0  0
 20 21  1  0  0  0  0
 22 20  2  0  0  0  0
 22 23  1  0  0  0  0
 24 22  1  0  0  0  0
 25 24  1  0  0  0  0
 26 28  1  0  0  0  0
 26 24  2  0  0  0  0
 27 26  1  0  0  0  0
 28 19  2  0  0  0  0
 29 28  1  0  0  0  0
M  CHG  2   1  -1   3  -1
M  END
