1,2
q = -2.0, confidence = 0.858

 22 21  0  0  0  0  0  0  0  0999 V2000
   -0.4268   -1.8979    1.0711 O   0  0  0  0  0  1  0  0  0  0  0  0
   -0.1756    0.2551    2.4886 C   0  0  0  0  0  3  0  0  0  0  0  0
   -1.2194   -0.7513    3.0218 C   0  0  0  0  0  0  0  0  0  0  0  0
   -1.1219   -2.1274    2.3092 C   0  0  0  0  0  0  0  0  0  0  0  0
   -0.5827    1.6713    2.8915 C   0  0  0  0  0  0  0  0  0  0  0  0
    1.2467   -0.0377    2.9863 C   0  0  0  0  0  0  0  0  0  0  0  0
   -2.5126   -2.6807    1.9701 C   0  0  0  0  0  0  0  0  0  0  0  0
   -0.3195   -3.1598    3.1136 C   0  0  0  0  0  0  0  0  0  0  0  0
   -1.1220   -0.8654    4.1277 H   0  0  0  0  0  0  0  0  0  0  0  0
   -2.2290   -0.3259    2.8432 H   0  0  0  0  0  0  0  0  0  0  0  0
   -0.5828    1.7757    4.0024 H   0  0  0  0  0  0  0  0  0  0  0  0
   -1.5984    1.9301    2.5310 H   0  0  0  0  0  0  0  0  0  0  0  0
    0.1257    2.4240    2.4958 H   0  0  0  0  0  0  0  0  0  0  0  0
    1.9441    0.7761    2.7055 H   0  0  0  0  0  0  0  0  0  0  0  0
    1.6658   -0.9835    2.5858 H   0  0  0  0  0  0  0  0  0  0  0  0
    1.2586   -0.1197    4.0981 H   0  0  0  0  0  0  0  0  0  0  0  0
   -3.0542   -1.9717    1.3125 H   0  0  0  0  0  0  0  0  0  0  0  0
   -3.1129   -2.8364    2.8897 H   0  0  0  0  0  0  0  0  0  0  0  0
   -2.4267   -3.6509    1.4407 H   0  0  0  0  0  0  0  0  0  0  0  0
   -0.1922   -4.0870    2.5197 H   0  0  0  0  0  0  0  0  0  0  0  0
   -0.8439   -3.4182    4.0557 H   0  0  0  0  0  0  0  0  0  0  0  0
    0.6846   -2.7736    3.3711 H   0  0  0  0  0  0  0  0  0  0  0  0
  1  4  1  0  0  0  0
  2  5  1  0  0  0  0
  2  6  1  0  0  0  0
  2  3  1  0  0  0  0
  3  9  1  0  0  0  0
  4  3  1  0  0  0  0
  4  8  1  0  0  0  0
  5 11  1  0  0  0  0
  6 16  1  0  0  0  0
  7  4  1  0  0  0  0
  7 18  1  0  0  0  0
  8 22  1  0  0  0  0
  8 21  1  0  0  0  0
 10  3  1  0  0  0  0
 12  5  1  0  0  0  0
 13  5  1  0  0  0  0
 14  6  1  0  0  0  0
 15  6  1  0  0  0  0
 17  7  1  0  0  0  0
 19  7  1  0  0  0  0
 20  8  1  0  0  0  0
M  END
