1,3
q = -2.0, confidence = 0.892

 48 50  0  0  1  0  0  0  0  0999 V2000
   -0.0846    0.2960    0.4419 O   0  0  0  0  0  1  0  0  0  0  0  0
   -0.0739   -1.2800   -1.4971 C   0  0  0  0  0  0  0  0  0  0  0  0
    1.0551   -0.8272   -2.2450 C   0  0  0  0  0  3  0  0  0  0  0  0
    1.0501    0.0305   -2.9268 H   0  0  0  0  0  0  0  0  0  0  0  0
    2.1592   -1.6908   -1.9661 C   0  0  0  0  0  0  0  0  0  0  0  0
    3.1646   -1.6230   -2.3934 H   0  0  0  0  0  0  0  0  0  0  0  0
    1.7219   -2.6616   -1.0353 C   0  0  0  0  0  0  0  0  0  0  0  0
    2.3401   -3.4371   -0.5699 H   0  0  0  0  0  0  0  0  0  0  0  0
    0.3495   -2.4106   -0.7416 C   0  0  0  0  0  0  0  0  0  0  0  0
   -0.2439   -2.9513    0.0009 H   0  0  0  0  0  0  0  0  0  0  0  0
   -1.3795   -0.5278   -1.4281 C   0  0  2  0  0  0  0  0  0  0  0  0
   -1.2379    0.3049   -2.1450 H   0  0  0  0  0  0  0  0  0  0  0  0
   -1.4335    0.1965   -0.0029 C   0  0  0  0  0  0  0  0  0  0  0  0
   -2.5788   -1.3549   -2.0323 C   0  0  0  0  0  0  0  0  0  0  0  0
   -3.8360   -0.4805   -2.1985 C   0  0  0  0  0  0  0  0  0  0  0  0
   -4.1949   -0.0649   -1.2407 H   0  0  0  0  0  0  0  0  0  0  0  0
   -4.6585   -1.0891   -2.6269 H   0  0  0  0  0  0  0  0  0  0  0  0
   -3.6570    0.3645   -2.8932 H   0  0  0  0  0  0  0  0  0  0  0  0
   -2.1403   -1.7973   -3.4476 C   0  0  0  0  0  0  0  0  0  0  0  0
   -1.2871   -2.5032   -3.4111 H   0  0  0  0  0  0  0  0  0  0  0  0
   -1.8356   -0.9288   -4.0687 H   0  0  0  0  0  0  0  0  0  0  0  0
   -2.9804   -2.3038   -3.9654 H   0  0  0  0  0  0  0  0  0  0  0  0
   -2.9447   -2.6255   -1.2402 C   0  0  0  0  0  0  0  0  0  0  0  0
   -3.3285   -2.4062   -0.2284 H   0  0  0  0  0  0  0  0  0  0  0  0
   -2.0805   -3.3099   -1.1453 H   0  0  0  0  0  0  0  0  0  0  0  0
   -3.7371   -3.1766   -1.7877 H   0  0  0  0  0  0  0  0  0  0  0  0
   -1.9247    1.6642   -0.0671 C   0  0  0  0  0  0  0  0  0  0  0  0
   -2.2686    2.3646   -1.2344 C   0  0  0  0  0  0  0  0  0  0  0  0
   -2.2789    1.8597   -2.2086 H   0  0  0  0  0  0  0  0  0  0  0  0
   -2.6014    3.7310   -1.1904 C   0  0  0  0  0  0  0  0  0  0  0  0
   -2.8680    4.2529   -2.1222 H   0  0  0  0  0  0  0  0  0  0  0  0
   -2.5902    4.4243    0.0259 C   0  0  0  0  0  0  0  0  0  0  0  0
   -2.8466    5.4940    0.0597 H   0  0  0  0  0  0  0  0  0  0  0  0
   -2.2512    3.7359    1.2044 C   0  0  0  0  0  0  0  0  0  0  0  0
   -2.2392    4.2649    2.1697 H   0  0  0  0  0  0  0  0  0  0  0  0
   -1.9272    2.3757    1.1547 C   0  0  0  0  0  0  0  0  0  0  0  0
   -1.6576    1.8408    2.0768 H   0  0  0  0  0  0  0  0  0  0  0  0
   -2.2569   -0.5478    1.0661 C   0  0  0  0  0  0  0  0  0  0  0  0
   -1.6451   -1.5018    1.8999 C   0  0  0  0  0  0  0  0  0  0  0  0
   -0.5614   -1.6686    1.8355 H   0  0  0  0  0  0  0  0  0  0  0  0
   -2.4002   -2.2208    2.8400 C   0  0  0  0  0  0  0  0  0  0  0  0
   -1.8963   -2.9639    3.4772 H   0  0  0  0  0  0  0  0  0  0  0  0
   -3.7763   -1.9876    2.9783 C   0  0  0  0  0  0  0  0  0  0  0  0
   -4.3678   -2.5539    3.7138 H   0  0  0  0  0  0  0  0  0  0  0  0
   -4.3857   -0.9987    2.1892 C   0  0  0  0  0  0  0  0  0  0  0  0
   -5.4570   -0.7760    2.3095 H   0  0  0  0  0  0  0  0  0  0  0  0
   -3.6293   -0.2782    1.2541 C   0  0  0  0  0  0  0  0  0  0  0  0
   -4.1142    0.5187    0.6726 H   0  0  0  0  0  0  0  0  0  0  0  0
  2 11  1  0  0  0  0
  2  9  2  0  0  0  0
  3  5  1  0  0  0  0
  3  2  1  0  0  0  0
  4  3  1  0  0  0  0
  5  7  2  0  0  0  0
  6  5  1  0  0  0  0
  7  9  1  0  0  0  0
  7  8  1  0  0  0  0
  9 10  1  0  0  0  0
 11 12  1  6  0  0  0
 11 13  1  0  0  0  0
 13  1  1  0  0  0  0
 13 38  1  0  0  0  0
 14 11  1  0  0  0  0
 14 23  1  0  0  0  0
 15 14  1  0  0  0  0
 15 16  1  0  0  0  0
 17 15  1  0  0  0  0
 18 15  1  0  0  0  0
 19 20  1  0  0  0  0
 19 14  1  0  0  0  0
 21 19  1  0  0  0  0
 22 19  1  0  0  0  0
 23 25  1  0  0  0  0
 23 24  1  0  0  0  0
 26 23  1  0  0  0  0
 27 13  1  0  0  0  0
 27 36  1  0  0  0  0
 28 30  1  0  0  0  0
 28 27  2  0  0  0  0
 29 28  1  0  0  0  0
 30 32  2  0  0  0  0
 31 30  1  0  0  0  0
 32 33  1  0  0  0  0
 32 34  1  0  0  0  0
 34 35  1  0  0  0  0
 36 34  2  0  0  0  0
 36 37  1  0  0  0  0
 38 47  2  0  0  0  0
 38 39  1  0  0  0  0
 39 41  2  0  0  0  0
 40 39  1  0  0  0  0
 41 43  1  0  0  0  0
 41 42  1  0  0  0  0
 43 44  1  0  0  0  0
 45 46  1  0  0  0  0
 45 43  2  0  0  0  0
 47 45  1  0  0  0  0
 48 47  1  0  0  0  0
M  END
