2,4
q = -2.0, confidence = 0.792

 19 19  0  0  1  0  0  0  0  0999 V2000
   -3.4021    2.0479   -0.5160 O   0  0  0  0  0  0  0  0  0  0  0  0
    1.1847    1.9829   -0.3734 O   0  0  0  0  0  1  0  0  0  0  0  0
   -2.2609    2.3763   -0.1463 C   0  0  0  0  0  0  0  0  0  0  0  0
   -1.0525    2.0541   -0.9008 C   0  0  0  0  0  3  0  0  0  0  0  0
   -1.2883    1.7419   -1.9357 H   0  0  0  0  0  0  0  0  0  0  0  0
    0.2070    2.9345   -0.7807 C   0  0  1  0  0  0  0  0  0  0  0  0
    0.0789    4.0205    0.3053 C   0  0  0  0  0  0  0  0  0  0  0  0
    1.1070    4.3542    0.5590 H   0  0  0  0  0  0  0  0  0  0  0  0
   -0.4643    4.9005   -0.1060 H   0  0  0  0  0  0  0  0  0  0  0  0
   -0.6640    3.4975    1.5338 C   0  0  0  0  0  0  0  0  0  0  0  0
   -0.6325    4.2301    2.3667 H   0  0  0  0  0  0  0  0  0  0  0  0
   -0.1497    2.5806    1.8992 H   0  0  0  0  0  0  0  0  0  0  0  0
   -2.1092    3.1765    1.1526 C   0  0  0  0  0  0  0  0  0  0  0  0
   -2.6544    2.6297    1.9509 H   0  0  0  0  0  0  0  0  0  0  0  0
   -2.6885    4.1133    0.9967 H   0  0  0  0  0  0  0  0  0  0  0  0
    0.6149    3.5483   -2.1219 C   0  0  0  0  0  0  0  0  0  0  0  0
    1.5866    4.0757   -2.0213 H   0  0  0  0  0  0  0  0  0  0  0  0
   -0.1449    4.2705   -2.4851 H   0  0  0  0  0  0  0  0  0  0  0  0
    0.7339    2.7511   -2.8837 H   0  0  0  0  0  0  0  0  0  0  0  0
  1  3  2  0  0  0  0
  3 13  1  0  0  0  0
  4  6  1  0  0  0  0
  4  3  1  0  0  0  0
  5  4  1  0  0  0  0
  6  2  1  1  0  0  0
  6  7  1  0  0  0  0
  7  8  1  0  0  0  0
  7 10  1  0  0  0  0
  9  7  1  0  0  0  0
 10 12  1  0  0  0  0
 10 11  1  0  0  0  0
 13 10  1  0  0  0  0
 13 14  1  0  0  0  0
 15 13  1  0  0  0  0
 16 17  1  0  0  0  0
 16  6  1  0  0  0  0
 18 16  1  0  0  0  0
 19 16  1  0  0  0  0
M  END
