2,10
q = -1.0, confidence = 0.104

 42 44  0  0  0  0  0  0  0  0999 V2000
    3.1620    1.1118    0.0207 N   0  0  0  0  0  0  0  0  0  0  0  0
    0.5323    0.1618   -0.5544 C   0  0  0  0  0  2  0  0  0  0  0  0
    1.5869   -0.6273   -0.7512 O   0  0  0  0  0  0  0  0  0  0  0  0
    2.8890   -0.2871   -0.0712 C   0  0  0  0  0  0  0  0  0  0  0  0
    2.1394    1.9076    0.1250 C   0  0  0  0  0  0  0  0  0  0  0  0
    0.7734    1.4596   -0.0001 C   0  0  0  0  0  0  0  0  0  0  0  0
    2.4749    3.3606    0.3924 C   0  0  0  0  0  0  0  0  0  0  0  0
    3.0213    3.7508    1.4059 O   0  0  0  0  0  0  0  0  0  0  0  0
   -0.4267    2.2080    0.2000 C   0  0  0  0  0  0  0  0  0  0  0  0
   -1.5632    1.7337   -0.1160 O   0  5  0  0  0  0  0  0  0  0  0  0
    2.3310    5.5519   -0.4367 C   0  0  0  0  0  0  0  0  0  0  0  0
    1.7315    5.9259    0.4187 H   0  0  0  0  0  0  0  0  0  0  0  0
    2.0203    6.0499   -1.3722 H   0  0  0  0  0  0  0  0  0  0  0  0
    3.4002    5.7534   -0.2250 H   0  0  0  0  0  0  0  0  0  0  0  0
    2.1011    4.1527   -0.6335 O   0  0  0  0  0  0  0  0  0  0  0  0
   -1.5663    4.1455    0.9245 C   0  0  0  0  0  0  0  0  0  0  0  0
   -2.0540    4.3216   -0.0553 H   0  0  0  0  0  0  0  0  0  0  0  0
   -1.2888    5.1061    1.3938 H   0  0  0  0  0  0  0  0  0  0  0  0
   -2.2729    3.5909    1.5742 H   0  0  0  0  0  0  0  0  0  0  0  0
   -0.3426    3.4219    0.7647 O   0  0  0  0  0  0  0  0  0  0  0  0
    2.7718   -0.9130    1.3344 C   0  0  0  0  0  0  0  0  0  0  0  0
    2.9328   -0.1418    2.4999 C   0  0  0  0  0  0  0  0  0  0  0  0
    3.1821    0.9253    2.4124 H   0  0  0  0  0  0  0  0  0  0  0  0
    2.7782   -0.7348    3.7647 C   0  0  0  0  0  0  0  0  0  0  0  0
    2.9093   -0.1213    4.6693 H   0  0  0  0  0  0  0  0  0  0  0  0
    2.4652   -2.0981    3.8767 C   0  0  0  0  0  0  0  0  0  0  0  0
    2.3544   -2.5626    4.8689 H   0  0  0  0  0  0  0  0  0  0  0  0
    2.3054   -2.8715    2.7130 C   0  0  0  0  0  0  0  0  0  0  0  0
    2.0608   -3.9420    2.7891 H   0  0  0  0  0  0  0  0  0  0  0  0
    2.4620   -2.2841    1.4506 C   0  0  0  0  0  0  0  0  0  0  0  0
    2.3315   -2.8901    0.5425 H   0  0  0  0  0  0  0  0  0  0  0  0
    3.9641   -0.9938   -0.8957 C   0  0  0  0  0  0  0  0  0  0  0  0
    5.3020   -0.5831   -0.7492 C   0  0  0  0  0  0  0  0  0  0  0  0
    5.5225    0.2680   -0.0895 H   0  0  0  0  0  0  0  0  0  0  0  0
    6.3224   -1.2386   -1.4517 C   0  0  0  0  0  0  0  0  0  0  0  0
    7.3657   -0.9079   -1.3325 H   0  0  0  0  0  0  0  0  0  0  0  0
    6.0160   -2.3071   -2.3103 C   0  0  0  0  0  0  0  0  0  0  0  0
    6.8174   -2.8200   -2.8639 H   0  0  0  0  0  0  0  0  0  0  0  0
    4.6815   -2.7117   -2.4642 C   0  0  0  0  0  0  0  0  0  0  0  0
    4.4303   -3.5403   -3.1439 H   0  0  0  0  0  0  0  0  0  0  0  0
    3.6557   -2.0604   -1.7606 C   0  0  0  0  0  0  0  0  0  0  0  0
    2.6094   -2.3675   -1.8959 H   0  0  0  0  0  0  0  0  0  0  0  0
  1  5  2  0  0  0  0
  2  6  1  0  0  0  0
  3  2  1  0  0  0  0
  3  4  1  0  0  0  0
  4  1  1  0  0  0  0
  4 21  1  0  0  0  0
  5  7  1  0  0  0  0
  6  5  1  0  0  0  0
  6  9  2  0  0  0  0
  7  8  2  0  0  0  0
  9 20  1  0  0  0  0
 10  9  1  0  0  0  0
 11 14  1  0  0  0  0
 11 12  1  0  0  0  0
 13 11  1  0  0  0  0
 15 11  1  0  0  0  0
 15  7  1  0  0  0  0
 16 18  1  0  0  0  0
 16 19  1  0  0  0  0
 17 16  1  0  0  0  0
 20 16  1  0  0  0  0
 21 30  2  0  0  0  0
 21 22  1  0  0  0  0
 22 24  2  0  0  0  0
 23 22  1  0  0  0  0
 24 26  1  0  0  0  0
 24 25  1  0  0  0  0
 26 27  1  0  0  0  0
 28 29  1  0  0  0  0
 28 26  2  0  0  0  0
 30 28  1  0  0  0  0
 31 30  1  0  0  0  0
 32 33  1  0  0  0  0
 32  4  1  0  0  0  0
 33 34  1  0  0  0  0
 35 36  1  0  0  0  0
 35 33  2  0  0  0  0
 37 35  1  0  0  0  0
 38 37  1  0  0  0  0
 39 37  2  0  0  0  0
 39 41  1  0  0  0  0
 40 39  1  0  0  0  0
 41 32  2  0  0  0  0
 42 41  1  0  0  0  0
M  CHG  1  10  -1
M  END
