1,2
q = -1.0, confidence = 0.004

 16 16  0  0  1  0  0  0  0  0999 V2000
   -0.6485    0.3795    1.6762 O   0  0  0  0  0  1  0  0  0  0  0  0
   -1.9447   -0.0599   -0.5037 C   0  0  0  0  0  3  0  0  0  0  0  0
   -2.5880    0.7657    0.4864 C   0  0  0  0  0  0  0  0  0  0  0  0
   -1.8017    0.9491    1.6643 C   0  0  2  0  0  3  0  0  0  0  0  0
   -2.1965    1.7505    2.8619 C   0  0  0  0  0  0  0  0  0  0  0  0
   -1.4248    1.6749    3.6484 H   0  0  0  0  0  0  0  0  0  0  0  0
   -3.1689    1.4018    3.2646 H   0  0  0  0  0  0  0  0  0  0  0  0
   -2.3293    2.8170    2.5837 H   0  0  0  0  0  0  0  0  0  0  0  0
   -3.8817    1.3203    0.2818 C   0  0  0  0  0  0  0  0  0  0  0  0
   -4.3398    1.9511    1.0587 H   0  0  0  0  0  0  0  0  0  0  0  0
   -4.5616    1.0540   -0.8997 C   0  0  0  0  0  0  0  0  0  0  0  0
   -5.5620    1.4741   -1.0761 H   0  0  0  0  0  0  0  0  0  0  0  0
   -3.9540    0.2294   -1.8780 C   0  0  0  0  0  0  0  0  0  0  0  0
   -4.4946    0.0169   -2.8136 H   0  0  0  0  0  0  0  0  0  0  0  0
   -2.6795   -0.3139   -1.6878 C   0  0  0  0  0  0  0  0  0  0  0  0
   -2.2397   -0.9327   -2.4844 H   0  0  0  0  0  0  0  0  0  0  0  0
  2  3  1  0  0  0  0
  3  4  1  0  0  0  0
  4  1  1  6  0  0  0
  4  5  1  0  0  0  0
  5  7  1  0  0  0  0
  5  6  1  0  0  0  0
  8  5  1  0  0  0  0
  9  3  2  0  0  0  0
  9 10  1  0  0  0  0
 11  9  1  0  0  0  0
 12 11  1  0  0  0  0
 13 15  1  0  0  0  0
 13 11  2  0  0  0  0
 14 13  1  0  0  0  0
 15  2  2  0  0  0  0
 16 15  1  0  0  0  0
M  END
