1,4
q = -1.0, confidence = 0.0

 32 34  0  0  0  0  0  0  0  0999 V2000
   -1.5928    0.7274   -1.4875 O   0  5  0  0  0  0  0  0  0  0  0  0
   -0.0188    2.2281    0.3478 N   0  0  0  0  0  0  0  0  0  0  0  0
    1.7327    0.9978    0.7479 N   0  0  0  0  0  0  0  0  0  0  0  0
    0.4297    0.9275    0.3359 C   0  0  0  0  0  2  0  0  0  0  0  0
    2.0974    2.3125    1.0127 C   0  0  0  0  0  0  0  0  0  0  0  0
    3.1142    2.5807    1.3120 H   0  0  0  0  0  0  0  0  0  0  0  0
    0.9995    3.0875    0.7585 C   0  0  0  0  0  0  0  0  0  0  0  0
    0.8678    4.1714    0.7883 H   0  0  0  0  0  0  0  0  0  0  0  0
    2.6423   -0.1483    0.8548 C   0  0  0  0  0  0  0  0  0  0  0  0
    2.1421   -0.9715    0.3077 H   0  0  0  0  0  0  0  0  0  0  0  0
    2.7448   -0.4293    1.9246 H   0  0  0  0  0  0  0  0  0  0  0  0
    3.9989    0.1466    0.2571 C   0  0  0  0  0  0  0  0  0  0  0  0
    5.1314    0.3079    1.0767 C   0  0  0  0  0  0  0  0  0  0  0  0
    5.0315    0.1984    2.1691 H   0  0  0  0  0  0  0  0  0  0  0  0
    6.3840    0.6006    0.5127 C   0  0  0  0  0  0  0  0  0  0  0  0
    7.2641    0.7218    1.1625 H   0  0  0  0  0  0  0  0  0  0  0  0
    6.5090    0.7377   -0.8779 C   0  0  0  0  0  0  0  0  0  0  0  0
    7.4892    0.9680   -1.3229 H   0  0  0  0  0  0  0  0  0  0  0  0
    5.3811    0.5756   -1.7012 C   0  0  0  0  0  0  0  0  0  0  0  0
    5.4783    0.6745   -2.7932 H   0  0  0  0  0  0  0  0  0  0  0  0
    4.1312    0.2807   -1.1407 C   0  0  0  0  0  0  0  0  0  0  0  0
    3.2403    0.1342   -1.7739 H   0  0  0  0  0  0  0  0  0  0  0  0
   -2.0495    1.8524   -0.9827 C   0  0  0  0  0  0  0  0  0  0  0  0
   -3.3153    2.3606   -1.3952 C   0  0  0  0  0  0  0  0  0  0  0  0
   -3.8570    1.7844   -2.1600 H   0  0  0  0  0  0  0  0  0  0  0  0
   -3.8467    3.5386   -0.8630 C   0  0  0  0  0  0  0  0  0  0  0  0
   -4.8311    3.8917   -1.2077 H   0  0  0  0  0  0  0  0  0  0  0  0
   -3.1452    4.2638    0.1178 C   0  0  0  0  0  0  0  0  0  0  0  0
   -3.5708    5.1773    0.5569 H   0  0  0  0  0  0  0  0  0  0  0  0
   -1.8886    3.8035    0.5331 C   0  0  0  0  0  0  0  0  0  0  0  0
   -1.3300    4.3547    1.3047 H   0  0  0  0  0  0  0  0  0  0  0  0
   -1.3344    2.6372   -0.0190 C   0  0  0  0  0  0  0  0  0  0  0  0
  1 23  1  0  0  0  0
  2  7  1  0  0  0  0
  3  9  1  0  0  0  0
  3  5  1  0  0  0  0
  4  2  1  0  0  0  0
  4  3  1  0  0  0  0
  5  6  1  0  0  0  0
  7  8  1  0  0  0  0
  7  5  2  0  0  0  0
  9 11  1  0  0  0  0
 10  9  1  0  0  0  0
 12  9  1  0  0  0  0
 12 13  1  0  0  0  0
 13 14  1  0  0  0  0
 15 13  2  0  0  0  0
 15 16  1  0  0  0  0
 17 15  1  0  0  0  0
 18 17  1  0  0  0  0
 19 21  1  0  0  0  0
 19 17  2  0  0  0  0
 20 19  1  0  0  0  0
 21 12  2  0  0  0  0
 22 21  1  0  0  0  0
 23 32  1  0  0  0  0
 24 23  2  0  0  0  0
 24 26  1  0  0  0  0
 25 24  1  0  0  0  0
 26 28  2  0  0  0  0
 27 26  1  0  0  0  0
 28 30  1  0  0  0  0
 28 29  1  0  0  0  0
 30 31  1  0  0  0  0
 32  2  1  0  0  0  0
 32 30  2  0  0  0  0
M  CHG  1   1  -1
M  END
