4,7
q = -1.0, confidence = 0.022

 35 37  0  0  0  0  0  0  0  0999 V2000
    7.0364   -0.8488    0.9586 F   0  0  0  0  0  0  0  0  0  0  0  0
    7.4873    1.1396    0.1894 F   0  0  0  0  0  0  0  0  0  0  0  0
    6.4759    0.9250    2.1093 F   0  0  0  0  0  0  0  0  0  0  0  0
   -3.2189    0.1181   -0.7583 O   0  5  0  0  0  0  0  0  0  0  0  0
    0.4464    1.4699   -1.5050 N   0  0  0  0  0  0  0  0  0  0  0  0
   -1.3763    2.2610   -0.6185 N   0  0  0  0  0  0  0  0  0  0  0  0
   -0.6780    1.0921   -0.8151 C   0  0  0  0  0  2  0  0  0  0  0  0
    0.4507    2.8429   -1.7325 C   0  0  0  0  0  0  0  0  0  0  0  0
    1.2541    3.3374   -2.2857 H   0  0  0  0  0  0  0  0  0  0  0  0
   -0.6963    3.3407   -1.1786 C   0  0  0  0  0  0  0  0  0  0  0  0
   -1.1091    4.3522   -1.1717 H   0  0  0  0  0  0  0  0  0  0  0  0
    1.4615    0.5605   -2.0099 C   0  0  0  0  0  0  0  0  0  0  0  0
    1.6587    0.8256   -3.0704 H   0  0  0  0  0  0  0  0  0  0  0  0
    0.9908   -0.4467   -2.0394 H   0  0  0  0  0  0  0  0  0  0  0  0
    2.7619    0.5564   -1.2369 C   0  0  0  0  0  0  0  0  0  0  0  0
    3.7461   -0.3924   -1.5868 C   0  0  0  0  0  0  0  0  0  0  0  0
    3.5445   -1.1056   -2.4013 H   0  0  0  0  0  0  0  0  0  0  0  0
    4.9631   -0.4515   -0.9016 C   0  0  0  0  0  0  0  0  0  0  0  0
    5.7161   -1.2054   -1.1728 H   0  0  0  0  0  0  0  0  0  0  0  0
    5.2208    0.4460    0.1513 C   0  0  0  0  0  0  0  0  0  0  0  0
    4.2515    1.3962    0.5063 C   0  0  0  0  0  0  0  0  0  0  0  0
    4.4479    2.0909    1.3353 H   0  0  0  0  0  0  0  0  0  0  0  0
    3.0320    1.4497   -0.1847 C   0  0  0  0  0  0  0  0  0  0  0  0
    2.2753    2.1908    0.1106 H   0  0  0  0  0  0  0  0  0  0  0  0
   -3.5576    1.2405   -0.1646 C   0  0  0  0  0  0  0  0  0  0  0  0
   -4.8737    1.4210    0.3514 C   0  0  0  0  0  0  0  0  0  0  0  0
   -5.5874    0.5977    0.1987 H   0  0  0  0  0  0  0  0  0  0  0  0
   -5.2478    2.5895    1.0214 C   0  0  0  0  0  0  0  0  0  0  0  0
   -6.2733    2.6827    1.4117 H   0  0  0  0  0  0  0  0  0  0  0  0
   -4.3267    3.6354    1.2174 C   0  0  0  0  0  0  0  0  0  0  0  0
   -4.6127    4.5440    1.7658 H   0  0  0  0  0  0  0  0  0  0  0  0
   -3.0311    3.5036    0.6993 C   0  0  0  0  0  0  0  0  0  0  0  0
   -2.2950    4.3098    0.8411 H   0  0  0  0  0  0  0  0  0  0  0  0
   -2.6579    2.3447    0.0014 C   0  0  0  0  0  0  0  0  0  0  0  0
    6.5547    0.4139    0.8573 C   0  0  0  0  0  0  0  0  0  0  0  0
  2 35  1  0  0  0  0
  4 25  1  0  0  0  0
  5  7  1  0  0  0  0
  6 34  1  0  0  0  0
  7  6  1  0  0  0  0
  8  5  1  0  0  0  0
  8 10  2  0  0  0  0
  9  8  1  0  0  0  0
 10 11  1  0  0  0  0
 10  6  1  0  0  0  0
 12  5  1  0  0  0  0
 12 15  1  0  0  0  0
 13 12  1  0  0  0  0
 14 12  1  0  0  0  0
 15 23  1  0  0  0  0
 16 15  2  0  0  0  0
 16 18  1  0  0  0  0
 17 16  1  0  0  0  0
 18 20  2  0  0  0  0
 19 18  1  0  0  0  0
 20 21  1  0  0  0  0
 20 35  1  0  0  0  0
 21 22  1  0  0  0  0
 23 24  1  0  0  0  0
 23 21  2  0  0  0  0
 25 34  2  0  0  0  0
 25 26  1  0  0  0  0
 26 28  2  0  0  0  0
 27 26  1  0  0  0  0
 28 30  1  0  0  0  0
 28 29  1  0  0  0  0
 30 31  1  0  0  0  0
 32 33  1  0  0  0  0
 32 30  2  0  0  0  0
 34 32  1  0  0  0  0
 35  1  1  0  0  0  0
 35  3  1  0  0  0  0
M  CHG  1   4  -1
M  END
