1,5
q = 0.0, confidence = 0.92

 49 52  0  0  1  0  0  0  0  0999 V2000
   -3.0616    0.1672   -0.4242 O   0  0  0  0  0  1  0  0  0  0  0  0
   -0.9012    0.8525   -0.7942 N   0  0  0  0  0  0  0  0  0  0  0  0
   -2.5363    2.3748   -1.0339 N   0  0  0  0  0  0  0  0  0  0  0  0
    1.8027   -0.9177    0.6640 N   0  0  0  0  0  0  0  0  0  0  0  0
   -0.4557   -0.3406   -0.2739 C   0  0  0  0  0  2  0  0  0  0  0  0
   -2.2760    1.0720   -0.7446 C   0  0  2  0  0  3  0  0  0  0  0  0
   -1.3219    3.0765   -1.4772 C   0  0  2  0  0  0  0  0  0  0  0  0
   -0.1690    2.1222   -0.9996 C   0  0  1  0  0  0  0  0  0  0  0  0
   -3.8753    2.8817   -1.2241 C   0  0  0  0  0  0  0  0  0  0  0  0
   -1.2269    4.5114   -0.9766 C   0  0  0  0  0  0  0  0  0  0  0  0
   -0.0717    2.4986    1.5201 C   0  0  0  0  0  0  0  0  0  0  0  0
    0.6412    2.8046    2.6873 C   0  0  0  0  0  0  0  0  0  0  0  0
    2.0082    3.1219    2.6163 C   0  0  0  0  0  0  0  0  0  0  0  0
    2.6581    3.1297    1.3726 C   0  0  0  0  0  0  0  0  0  0  0  0
    1.9424    2.8246    0.2047 C   0  0  0  0  0  0  0  0  0  0  0  0
    0.5735    2.5103    0.2660 C   0  0  0  0  0  0  0  0  0  0  0  0
    0.9852   -0.5152   -0.3951 C   0  0  0  0  0  0  0  0  0  0  0  0
    1.7453   -0.4662   -1.5811 C   0  0  0  0  0  0  0  0  0  0  0  0
    3.0814   -0.8482   -1.2218 C   0  0  0  0  0  0  0  0  0  0  0  0
    4.2841   -0.9916   -1.9513 C   0  0  0  0  0  0  0  0  0  0  0  0
    5.4496   -1.3454   -1.2668 C   0  0  0  0  0  0  0  0  0  0  0  0
    5.4366   -1.5650    0.1345 C   0  0  0  0  0  0  0  0  0  0  0  0
    4.2601   -1.4425    0.8823 C   0  0  0  0  0  0  0  0  0  0  0  0
    3.0850   -1.0972    0.1900 C   0  0  0  0  0  0  0  0  0  0  0  0
    1.4582   -0.9364    2.0717 C   0  0  0  0  0  0  0  0  0  0  0  0
    1.2571   -0.2077   -2.9723 C   0  0  0  0  0  0  0  0  0  0  0  0
   -1.3136    3.0878   -2.5937 H   0  0  0  0  0  0  0  0  0  0  0  0
    0.5644    2.0152   -1.8182 H   0  0  0  0  0  0  0  0  0  0  0  0
   -4.5852    2.0991   -0.8965 H   0  0  0  0  0  0  0  0  0  0  0  0
   -4.0704    3.1188   -2.2937 H   0  0  0  0  0  0  0  0  0  0  0  0
   -4.0475    3.7969   -0.6223 H   0  0  0  0  0  0  0  0  0  0  0  0
   -2.0261    5.1393   -1.4170 H   0  0  0  0  0  0  0  0  0  0  0  0
   -0.2537    4.9483   -1.2741 H   0  0  0  0  0  0  0  0  0  0  0  0
   -1.2959    4.5606    0.1267 H   0  0  0  0  0  0  0  0  0  0  0  0
   -1.1346    2.2206    1.5933 H   0  0  0  0  0  0  0  0  0  0  0  0
    0.1280    2.7820    3.6604 H   0  0  0  0  0  0  0  0  0  0  0  0
    2.5695    3.3522    3.5343 H   0  0  0  0  0  0  0  0  0  0  0  0
    3.7329    3.3566    1.3107 H   0  0  0  0  0  0  0  0  0  0  0  0
    2.4611    2.7963   -0.7664 H   0  0  0  0  0  0  0  0  0  0  0  0
    4.3010   -0.8199   -3.0386 H   0  0  0  0  0  0  0  0  0  0  0  0
    6.3945   -1.4573   -1.8194 H   0  0  0  0  0  0  0  0  0  0  0  0
    6.3706   -1.8466    0.6440 H   0  0  0  0  0  0  0  0  0  0  0  0
    4.2536   -1.6267    1.9661 H   0  0  0  0  0  0  0  0  0  0  0  0
    2.1328   -0.2634    2.6400 H   0  0  0  0  0  0  0  0  0  0  0  0
    1.5264   -1.9647    2.4792 H   0  0  0  0  0  0  0  0  0  0  0  0
    0.4232   -0.5812    2.1963 H   0  0  0  0  0  0  0  0  0  0  0  0
    0.1534   -0.1449   -3.0216 H   0  0  0  0  0  0  0  0  0  0  0  0
    1.5686   -1.0219   -3.6594 H   0  0  0  0  0  0  0  0  0  0  0  0
    1.6753    0.7336   -3.3953 H   0  0  0  0  0  0  0  0  0  0  0  0
  2  6  1  0  0  0  0
  2  5  1  0  0  0  0
  3  6  1  0  0  0  0
  4 25  1  0  0  0  0
  6  1  1  1  0  0  0
  7 27  1  6  0  0  0
  7  3  1  0  0  0  0
  7  8  1  0  0  0  0
  7 10  1  0  0  0  0
  8 28  1  6  0  0  0
  8  2  1  0  0  0  0
  8 16  1  0  0  0  0
  9  3  1  0  0  0  0
  9 29  1  0  0  0  0
  9 31  1  0  0  0  0
 10 34  1  0  0  0  0
 11 35  1  0  0  0  0
 11 12  1  0  0  0  0
 12 36  1  0  0  0  0
 13 12  2  0  0  0  0
 13 37  1  0  0  0  0
 14 13  1  0  0  0  0
 15 16  1  0  0  0  0
 15 14  2  0  0  0  0
 16 11  2  0  0  0  0
 17  5  1  0  0  0  0
 17  4  1  0  0  0  0
 18 19  1  0  0  0  0
 18 17  2  0  0  0  0
 19 24  1  0  0  0  0
 20 21  1  0  0  0  0
 20 19  2  0  0  0  0
 21 22  2  0  0  0  0
 22 42  1  0  0  0  0
 22 23  1  0  0  0  0
 23 43  1  0  0  0  0
 24  4  1  0  0  0  0
 24 23  2  0  0  0  0
 25 46  1  0  0  0  0
 25 45  1  0  0  0  0
 25 44  1  0  0  0  0
 26 18  1  0  0  0  0
 30  9  1  0  0  0  0
 32 10  1  0  0  0  0
 33 10  1  0  0  0  0
 38 14  1  0  0  0  0
 39 15  1  0  0  0  0
 40 20  1  0  0  0  0
 41 21  1  0  0  0  0
 47 26  1  0  0  0  0
 48 26  1  0  0  0  0
 49 26  1  0  0  0  0
M  END
