1,36
q = -1.0, confidence = 0.02

 38 39  0  0  0  0  0  0  0  0999 V2000
   -0.6056   -0.7894    0.1458 C   0  0  0  0  0  2  0  0  0  0  0  0
   -1.4739    0.1346   -0.3558 C   0  0  0  0  0  0  0  0  0  0  0  0
   -0.9678    1.4465   -0.8656 C   0  0  0  0  0  0  0  0  0  0  0  0
   -0.2135    2.3325   -0.0504 C   0  0  0  0  0  0  0  0  0  0  0  0
    0.1957    3.5897   -0.5439 C   0  0  0  0  0  0  0  0  0  0  0  0
    0.7736    4.2672    0.1043 H   0  0  0  0  0  0  0  0  0  0  0  0
   -0.1103    3.9695   -1.8576 C   0  0  0  0  0  0  0  0  0  0  0  0
    0.2268    4.9436   -2.2412 H   0  0  0  0  0  0  0  0  0  0  0  0
   -0.8602    3.1044   -2.6704 C   0  0  0  0  0  0  0  0  0  0  0  0
   -1.1171    3.3993   -3.6988 H   0  0  0  0  0  0  0  0  0  0  0  0
   -1.2980    1.8704   -2.1700 C   0  0  0  0  0  0  0  0  0  0  0  0
   -1.9182    1.2096   -2.7942 H   0  0  0  0  0  0  0  0  0  0  0  0
    0.1595    1.9698    1.3516 C   0  0  0  0  0  0  0  0  0  0  0  0
   -1.0306   -2.0760    0.7523 C   0  0  0  0  0  0  0  0  0  0  0  0
   -2.1695   -3.0803    2.5603 C   0  0  0  0  0  0  0  0  0  0  0  0
   -2.9566   -3.5449    1.9331 H   0  0  0  0  0  0  0  0  0  0  0  0
   -2.5924   -2.7532    3.5258 H   0  0  0  0  0  0  0  0  0  0  0  0
   -1.3576   -3.8176    2.7156 H   0  0  0  0  0  0  0  0  0  0  0  0
   -0.0037    2.5957    3.7405 C   0  0  0  0  0  0  0  0  0  0  0  0
    0.4086    1.5819    3.8896 H   0  0  0  0  0  0  0  0  0  0  0  0
   -0.9348    2.7014    4.3295 H   0  0  0  0  0  0  0  0  0  0  0  0
    0.7338    3.3428    4.1005 H   0  0  0  0  0  0  0  0  0  0  0  0
   -2.9447   -0.0835   -0.4550 C   0  0  0  0  0  0  0  0  0  0  0  0
   -3.4899   -1.3433   -0.7951 C   0  0  0  0  0  0  0  0  0  0  0  0
   -2.8210   -2.1811   -1.0395 H   0  0  0  0  0  0  0  0  0  0  0  0
   -4.8779   -1.5299   -0.8537 C   0  0  0  0  0  0  0  0  0  0  0  0
   -5.2826   -2.5156   -1.1285 H   0  0  0  0  0  0  0  0  0  0  0  0
   -5.7489   -0.4632   -0.5813 C   0  0  0  0  0  0  0  0  0  0  0  0
   -6.8380   -0.6107   -0.6315 H   0  0  0  0  0  0  0  0  0  0  0  0
   -5.2211    0.7974   -0.2578 C   0  0  0  0  0  0  0  0  0  0  0  0
   -5.8966    1.6404   -0.0480 H   0  0  0  0  0  0  0  0  0  0  0  0
   -3.8345    0.9870   -0.2022 C   0  0  0  0  0  0  0  0  0  0  0  0
   -3.4297    1.9781    0.0537 H   0  0  0  0  0  0  0  0  0  0  0  0
   -0.2897    2.7762    2.3264 N   0  0  0  0  0  0  0  0  0  0  0  0
   -0.8950    3.5476    2.0377 H   0  0  0  0  0  0  0  0  0  0  0  0
    0.9139    0.9889    1.6357 O   0  5  0  0  0  0  0  0  0  0  0  0
   -0.8088   -3.1884    0.2768 O   0  0  0  0  0  0  0  0  0  0  0  0
   -1.6686   -1.8910    1.9252 O   0  0  0  0  0  0  0  0  0  0  0  0
  1 14  1  0  0  0  0
  2  1  1  0  0  0  0
  3  2  2  0  0  0  0
  3  4  1  0  0  0  0
  4 13  2  0  0  0  0
  5  4  1  0  0  0  0
  5  6  1  0  0  0  0
  7  5  2  0  0  0  0
  8  7  1  0  0  0  0
  9 11  2  0  0  0  0
  9  7  1  0  0  0  0
 10  9  1  0  0  0  0
 11  3  1  0  0  0  0
 12 11  1  0  0  0  0
 13 36  1  0  0  0  0
 13 34  1  0  0  0  0
 14 38  1  0  0  0  0
 15 18  1  0  0  0  0
 15 17  1  0  0  0  0
 16 15  1  0  0  0  0
 19 20  1  0  0  0  0
 19 22  1  0  0  0  0
 19 21  1  0  0  0  0
 23  2  1  0  0  0  0
 23 32  1  0  0  0  0
 24 23  2  0  0  0  0
 25 24  1  0  0  0  0
 26 24  1  0  0  0  0
 26 28  2  0  0  0  0
 27 26  1  0  0  0  0
 28 30  1  0  0  0  0
 29 28  1  0  0  0  0
 30 32  2  0  0  0  0
 30 31  1  0  0  0  0
 32 33  1  0  0  0  0
 34 19  1  0  0  0  0
 35 34  1  0  0  0  0
 37 14  2  0  0  0  0
 38 15  1  0  0  0  0
M  CHG  1  36  -1
M  END
