1,23
q = -1.0, confidence = 0.022

 33 33  0  0  0  0  0  0  0  0999 V2000
   -1.3438   -0.9328   -0.3376 O   0  5  0  0  0  0  0  0  0  0  0  0
   -7.3918   -2.5014    0.1882 O   0  0  0  0  0  0  0  0  0  0  0  0
   -3.8730    2.5664   -0.9926 O   0  0  0  0  0  0  0  0  0  0  0  0
   -2.3518    3.4764    0.4399 O   0  0  0  0  0  0  0  0  0  0  0  0
    0.1084    3.6951   -1.1269 O   0  0  0  0  0  0  0  0  0  0  0  0
    0.7499    2.9577    0.9208 O   0  0  0  0  0  0  0  0  0  0  0  0
   -2.3049   -0.0691   -0.3228 C   0  0  0  0  0  0  0  0  0  0  0  0
   -3.6637   -0.6245   -0.1889 C   0  0  0  0  0  0  0  0  0  0  0  0
   -3.8973   -1.9507   -0.6367 C   0  0  0  0  0  0  0  0  0  0  0  0
   -3.0701   -2.5019   -1.1045 H   0  0  0  0  0  0  0  0  0  0  0  0
   -5.1462   -2.5474   -0.5056 C   0  0  0  0  0  0  0  0  0  0  0  0
   -5.3370   -3.5678   -0.8674 H   0  0  0  0  0  0  0  0  0  0  0  0
   -6.2098   -1.8412    0.1027 C   0  0  0  0  0  0  0  0  0  0  0  0
   -5.9890   -0.5301    0.5761 C   0  0  0  0  0  0  0  0  0  0  0  0
   -6.7910    0.0370    1.0663 H   0  0  0  0  0  0  0  0  0  0  0  0
   -4.7320    0.0652    0.4227 C   0  0  0  0  0  0  0  0  0  0  0  0
   -4.5889    1.0815    0.8079 H   0  0  0  0  0  0  0  0  0  0  0  0
   -8.4976   -1.8387    0.7756 C   0  0  0  0  0  0  0  0  0  0  0  0
   -8.3036   -1.5732    1.8388 H   0  0  0  0  0  0  0  0  0  0  0  0
   -9.3455   -2.5466    0.7307 H   0  0  0  0  0  0  0  0  0  0  0  0
   -8.7673   -0.9133    0.2197 H   0  0  0  0  0  0  0  0  0  0  0  0
   -1.9105    1.3154   -0.3426 C   0  0  0  0  0  0  0  0  0  0  0  0
   -0.5115    1.4798   -0.3927 C   0  0  0  0  0  2  0  0  0  0  0  0
   -2.8358    2.4739   -0.3580 C   0  0  0  0  0  0  0  0  0  0  0  0
   -2.9489    4.7657    0.2855 C   0  0  0  0  0  0  0  0  0  0  0  0
   -2.4145    5.3210   -0.5138 H   0  0  0  0  0  0  0  0  0  0  0  0
   -2.8301    5.2939    1.2495 H   0  0  0  0  0  0  0  0  0  0  0  0
   -4.0186    4.6708    0.0154 H   0  0  0  0  0  0  0  0  0  0  0  0
    0.1051    2.8315   -0.2612 C   0  0  0  0  0  0  0  0  0  0  0  0
    1.4618    4.1849    1.1054 C   0  0  0  0  0  0  0  0  0  0  0  0
    2.2441    4.3032    0.3284 H   0  0  0  0  0  0  0  0  0  0  0  0
    1.9211    4.1208    2.1077 H   0  0  0  0  0  0  0  0  0  0  0  0
    0.7757    5.0543    1.0478 H   0  0  0  0  0  0  0  0  0  0  0  0
  1  7  1  0  0  0  0
  2 18  1  0  0  0  0
  3 24  2  0  0  0  0
  5 29  2  0  0  0  0
  6 30  1  0  0  0  0
  7  8  1  0  0  0  0
  8 16  1  0  0  0  0
  9 11  1  0  0  0  0
  9  8  2  0  0  0  0
 10  9  1  0  0  0  0
 11 13  2  0  0  0  0
 12 11  1  0  0  0  0
 13  2  1  0  0  0  0
 13 14  1  0  0  0  0
 14 15  1  0  0  0  0
 16 14  2  0  0  0  0
 16 17  1  0  0  0  0
 18 19  1  0  0  0  0
 20 18  1  0  0  0  0
 21 18  1  0  0  0  0
 22  7  2  0  0  0  0
 23 22  1  0  0  0  0
 23 29  1  0  0  0  0
 24 22  1  0  0  0  0
 24  4  1  0  0  0  0
 25  4  1  0  0  0  0
 25 27  1  0  0  0  0
 26 25  1  0  0  0  0
 28 25  1  0  0  0  0
 29  6  1  0  0  0  0
 30 32  1  0  0  0  0
 31 30  1  0  0  0  0
 33 30  1  0  0  0  0
M  CHG  1   1  -1
M  END
