1,2
q = -2.0, confidence = 0.524

 23 23  0  0  0  0  0  0  0  0999 V2000
    1.3545    1.2585   -0.1298 O   0  5  0  0  0  0  0  0  0  0  0  0
   -1.4695    1.4315   -0.0673 C   0  0  0  0  0  3  0  0  0  0  0  0
   -1.6123    1.7490   -1.1259 H   0  0  0  0  0  0  0  0  0  0  0  0
   -2.4218    0.9914    0.2945 H   0  0  0  0  0  0  0  0  0  0  0  0
   -1.0828    2.6344    0.8083 C   0  0  0  0  0  0  0  0  0  0  0  0
   -2.3149    3.5651    0.8549 C   0  0  0  0  0  0  0  0  0  0  0  0
   -2.5625    3.9628   -0.1498 H   0  0  0  0  0  0  0  0  0  0  0  0
   -2.1609    4.4240    1.5395 H   0  0  0  0  0  0  0  0  0  0  0  0
   -3.1942    3.0008    1.2258 H   0  0  0  0  0  0  0  0  0  0  0  0
   -0.7711    2.1780    2.2551 C   0  0  0  0  0  0  0  0  0  0  0  0
   -0.5623    3.0521    2.9045 H   0  0  0  0  0  0  0  0  0  0  0  0
    0.1110    1.5078    2.2801 H   0  0  0  0  0  0  0  0  0  0  0  0
   -1.6355    1.6267    2.6827 H   0  0  0  0  0  0  0  0  0  0  0  0
    0.1493    3.3498    0.2435 C   0  0  0  0  0  0  0  0  0  0  0  0
    1.2974    2.5837   -0.1498 C   0  0  0  0  0  0  0  0  0  0  0  0
    2.4746    3.2605   -0.5769 C   0  0  0  0  0  0  0  0  0  0  0  0
    3.3358    2.6363   -0.8588 H   0  0  0  0  0  0  0  0  0  0  0  0
    2.5266    4.6536   -0.6418 C   0  0  0  0  0  0  0  0  0  0  0  0
    3.4469    5.1531   -0.9829 H   0  0  0  0  0  0  0  0  0  0  0  0
    1.4008    5.4093   -0.2756 C   0  0  0  0  0  0  0  0  0  0  0  0
    1.4226    6.5082   -0.3265 H   0  0  0  0  0  0  0  0  0  0  0  0
    0.2396    4.7504    0.1634 C   0  0  0  0  0  0  0  0  0  0  0  0
   -0.6264    5.3599    0.4578 H   0  0  0  0  0  0  0  0  0  0  0  0
  2  4  1  0  0  0  0
  2  5  1  0  0  0  0
  3  2  1  0  0  0  0
  5  6  1  0  0  0  0
  5 10  1  0  0  0  0
  6  9  1  0  0  0  0
  6  8  1  0  0  0  0
  7  6  1  0  0  0  0
 10 12  1  0  0  0  0
 10 13  1  0  0  0  0
 10 11  1  0  0  0  0
 14  5  1  0  0  0  0
 15  1  1  0  0  0  0
 15 14  2  0  0  0  0
 16 15  1  0  0  0  0
 17 16  1  0  0  0  0
 18 16  2  0  0  0  0
 18 20  1  0  0  0  0
 19 18  1  0  0  0  0
 20 22  2  0  0  0  0
 21 20  1  0  0  0  0
 22 14  1  0  0  0  0
 22 23  1  0  0  0  0
M  CHG  1   1  -1
M  END
