1,3
q = -1.0, confidence = 0.0

 14 14  0  0  0  0  0  0  0  0999 V2000
    1.8773   -0.7712   -1.4067 O   0  0  0  0  0  1  0  0  0  0  0  0
    2.6044   -1.2139   -0.3653 N   0  0  0  0  0  0  0  0  0  0  0  0
    1.9366   -0.9223    0.8094 C   0  0  0  0  0  2  0  0  0  0  0  0
    2.5402   -1.3945    1.9862 C   0  0  0  0  0  0  0  0  0  0  0  0
    2.0470   -1.2179    2.9522 H   0  0  0  0  0  0  0  0  0  0  0  0
    3.7604   -2.0878    1.9176 C   0  0  0  0  0  0  0  0  0  0  0  0
    4.2367   -2.4552    2.8393 H   0  0  0  0  0  0  0  0  0  0  0  0
    4.3855   -2.3154    0.6780 C   0  0  0  0  0  0  0  0  0  0  0  0
    5.3444   -2.8477    0.6122 H   0  0  0  0  0  0  0  0  0  0  0  0
    3.7877   -1.8664   -0.5086 C   0  0  0  0  0  0  0  0  0  0  0  0
    4.3067   -2.0387   -1.8969 C   0  0  0  0  0  0  0  0  0  0  0  0
    5.2926   -2.5374   -1.8877 H   0  0  0  0  0  0  0  0  0  0  0  0
    4.3920   -1.0549   -2.4026 H   0  0  0  0  0  0  0  0  0  0  0  0
    3.6003   -2.6379   -2.5086 H   0  0  0  0  0  0  0  0  0  0  0  0
  1  2  1  0  0  0  0
  2  3  1  0  0  0  0
  3  4  1  0  0  0  0
  4  5  1  0  0  0  0
  6  4  2  0  0  0  0
  6  7  1  0  0  0  0
  8  6  1  0  0  0  0
  9  8  1  0  0  0  0
 10  2  1  0  0  0  0
 10  8  2  0  0  0  0
 11 12  1  0  0  0  0
 11 10  1  0  0  0  0
 13 11  1  0  0  0  0
 14 11  1  0  0  0  0
M  END
