1,5
q = 0.0, confidence = 0.814

 14 13  0  0  0  0  0  0  0  0999 V2000
    0.0002   -0.3025   -1.8373 C   0  0  0  0  0  3  0  0  0  0  0  0
    0.0003   -1.2323   -2.6474 O   0  0  0  0  0  0  0  0  0  0  0  0
    0.0003    1.0938   -2.1711 C   0  0  0  0  0  0  0  0  0  0  0  0
    0.0002    1.9735   -1.0886 C   0  0  0  0  0  0  0  0  0  0  0  0
    0.0001    1.5579    0.1295 O   0  5  0  0  0  0  0  0  0  0  0  0
    0.0002    3.3089   -1.3141 O   0  0  0  0  0  0  0  0  0  0  0  0
    0.0001    4.1745   -0.1675 C   0  0  0  0  0  0  0  0  0  0  0  0
    0.0001    5.6035   -0.6734 C   0  0  0  0  0  0  0  0  0  0  0  0
    0.0004    1.4365   -3.2155 H   0  0  0  0  0  0  0  0  0  0  0  0
    0.8916    3.9629    0.4618 H   0  0  0  0  0  0  0  0  0  0  0  0
   -0.8914    3.9628    0.4617 H   0  0  0  0  0  0  0  0  0  0  0  0
    0.0000    6.3112    0.1792 H   0  0  0  0  0  0  0  0  0  0  0  0
    0.8967    5.8039   -1.2930 H   0  0  0  0  0  0  0  0  0  0  0  0
   -0.8965    5.8038   -1.2931 H   0  0  0  0  0  0  0  0  0  0  0  0
  2  1  2  0  0  0  0
  3  1  1  0  0  0  0
  3  4  2  0  0  0  0
  4  5  1  0  0  0  0
  6  4  1  0  0  0  0
  6  7  1  0  0  0  0
  7 11  1  0  0  0  0
  7 10  1  0  0  0  0
  8  7  1  0  0  0  0
  8 12  1  0  0  0  0
  9  3  1  0  0  0  0
 13  8  1  0  0  0  0
 14  8  1  0  0  0  0
M  CHG  1   5  -1
M  END
