3,15
q = 0.0, confidence = 0.936

 39 41  0  0  1  0  0  0  0  0999 V2000
    0.2908    0.7920   -0.8116 N   0  0  0  0  0  0  0  0  0  0  0  0
    0.5920    3.0174   -0.7098 N   0  0  0  0  0  0  0  0  0  0  0  0
   -1.4860    2.0862   -0.1366 O   0  0  0  0  0  1  0  0  0  0  0  0
    0.4236   -2.5396    0.2976 C   0  0  0  0  0  0  0  0  0  0  0  0
    0.0483   -2.3033    1.3028 H   0  0  0  0  0  0  0  0  0  0  0  0
    1.0981   -3.7423    0.0561 C   0  0  0  0  0  0  0  0  0  0  0  0
    1.2470   -4.4544    0.8817 H   0  0  0  0  0  0  0  0  0  0  0  0
    1.5698   -4.0479   -1.2310 C   0  0  0  0  0  0  0  0  0  0  0  0
    2.0852   -5.0017   -1.4196 H   0  0  0  0  0  0  0  0  0  0  0  0
    1.3644   -3.1378   -2.2808 C   0  0  0  0  0  0  0  0  0  0  0  0
    1.7064   -3.3814   -3.2984 H   0  0  0  0  0  0  0  0  0  0  0  0
    0.7191   -1.9184   -2.0383 C   0  0  0  0  0  0  0  0  0  0  0  0
    0.5414   -1.2156   -2.8673 H   0  0  0  0  0  0  0  0  0  0  0  0
    0.2447   -1.5998   -0.7426 C   0  0  0  0  0  0  0  0  0  0  0  0
   -0.4380   -0.3210   -0.4846 C   0  0  0  0  0  2  0  0  0  0  0  0
    2.1431    0.6166    1.4435 C   0  0  0  0  0  0  0  0  0  0  0  0
    1.2214    1.1755    1.6639 H   0  0  0  0  0  0  0  0  0  0  0  0
    2.8840    0.0747    2.5023 C   0  0  0  0  0  0  0  0  0  0  0  0
    2.5411    0.2258    3.5367 H   0  0  0  0  0  0  0  0  0  0  0  0
    4.0437   -0.6735    2.2412 C   0  0  0  0  0  0  0  0  0  0  0  0
    4.6194   -1.1072    3.0728 H   0  0  0  0  0  0  0  0  0  0  0  0
    4.4558   -0.8805    0.9161 C   0  0  0  0  0  0  0  0  0  0  0  0
    5.3536   -1.4800    0.7032 H   0  0  0  0  0  0  0  0  0  0  0  0
    3.7095   -0.3424   -0.1431 C   0  0  0  0  0  0  0  0  0  0  0  0
    4.0148   -0.5342   -1.1840 H   0  0  0  0  0  0  0  0  0  0  0  0
    2.5502    0.4116    0.1101 C   0  0  0  0  0  0  0  0  0  0  0  0
    1.7416    0.9619   -1.0500 C   0  0  2  0  0  0  0  0  0  0  0  0
    2.0443    0.4311   -1.9712 H   0  0  0  0  0  0  0  0  0  0  0  0
    1.8411    2.5115   -1.2980 C   0  0  2  0  0  0  0  0  0  0  0  0
    1.8066    2.6873   -2.4000 H   0  0  0  0  0  0  0  0  0  0  0  0
    3.0901    3.1763   -0.7355 C   0  0  0  0  0  0  0  0  0  0  0  0
    3.1251    4.2494   -1.0076 H   0  0  0  0  0  0  0  0  0  0  0  0
    3.9944    2.6931   -1.1538 H   0  0  0  0  0  0  0  0  0  0  0  0
    3.1346    3.0801    0.3662 H   0  0  0  0  0  0  0  0  0  0  0  0
    0.2410    4.4165   -0.6348 C   0  0  0  0  0  0  0  0  0  0  0  0
    0.9212    4.9657    0.0473 H   0  0  0  0  0  0  0  0  0  0  0  0
   -0.7916    4.4870   -0.2441 H   0  0  0  0  0  0  0  0  0  0  0  0
    0.2794    4.8972   -1.6374 H   0  0  0  0  0  0  0  0  0  0  0  0
   -0.3127    2.0203   -0.5307 C   0  0  2  0  0  3  0  0  0  0  0  0
  1 39  1  0  0  0  0
  1 15  1  0  0  0  0
  2 35  1  0  0  0  0
  2 39  1  0  0  0  0
  4  5  1  0  0  0  0
  6  4  1  0  0  0  0
  6  7  1  0  0  0  0
  8  6  2  0  0  0  0
  9  8  1  0  0  0  0
 10 12  2  0  0  0  0
 10  8  1  0  0  0  0
 11 10  1  0  0  0  0
 12 14  1  0  0  0  0
 13 12  1  0  0  0  0
 14 15  1  0  0  0  0
 14  4  2  0  0  0  0
 16 17  1  0  0  0  0
 16 18  1  0  0  0  0
 18 19  1  0  0  0  0
 20 18  2  0  0  0  0
 20 21  1  0  0  0  0
 22 20  1  0  0  0  0
 23 22  1  0  0  0  0
 24 26  1  0  0  0  0
 24 22  2  0  0  0  0
 25 24  1  0  0  0  0
 26 16  2  0  0  0  0
 27 28  1  6  0  0  0
 27  1  1  0  0  0  0
 27 26  1  0  0  0  0
 29 30  1  6  0  0  0
 29 27  1  0  0  0  0
 29 31  1  0  0  0  0
 29  2  1  0  0  0  0
 31 34  1  0  0  0  0
 32 31  1  0  0  0  0
 33 31  1  0  0  0  0
 35 37  1  0  0  0  0
 35 36  1  0  0  0  0
 38 35  1  0  0  0  0
 39  3  1  1  0  0  0
M  END
