1,12
q = 0.0, confidence = 0.524

 15 15  0  0  0  0  0  0  0  0999 V2000
   -0.6365   -0.1168   -1.5965 O   0  5  0  0  0  0  0  0  0  0  0  0
   -1.1254    0.0420    2.3660 O   0  0  0  0  0  0  0  0  0  0  0  0
   -6.0875    0.1200    1.4856 O   0  0  0  0  0  0  0  0  0  0  0  0
   -6.8118    0.0164   -0.5760 O   0  0  0  0  0  0  0  0  0  0  0  0
   -5.9041    0.0512    0.2651 N   0  0  0  0  0  0  0  0  0  0  0  0
   -1.8735   -0.0762   -1.1794 C   0  0  0  0  0  0  0  0  0  0  0  0
   -2.9782   -0.1119   -2.0894 C   0  0  0  0  0  0  0  0  0  0  0  0
   -4.2820   -0.0692   -1.6108 C   0  0  0  0  0  0  0  0  0  0  0  0
   -4.5233    0.0077   -0.2186 C   0  0  0  0  0  0  0  0  0  0  0  0
   -3.4652    0.0415    0.6985 C   0  0  0  0  0  0  0  0  0  0  0  0
   -2.1479    0.0033    0.2261 C   0  0  0  0  0  0  0  0  0  0  0  0
   -0.9516    0.0351    1.1386 C   0  0  0  0  0  3  0  0  0  0  0  0
   -2.7700   -0.1740   -3.1682 H   0  0  0  0  0  0  0  0  0  0  0  0
   -5.1490   -0.0939   -2.2850 H   0  0  0  0  0  0  0  0  0  0  0  0
   -3.6609    0.0976    1.7786 H   0  0  0  0  0  0  0  0  0  0  0  0
  1  6  1  0  0  0  0
  4  5  2  0  0  0  0
  5  3  2  0  0  0  0
  6 11  1  0  0  0  0
  7  8  1  0  0  0  0
  7  6  2  0  0  0  0
  8  9  2  0  0  0  0
  9  5  1  0  0  0  0
  9 10  1  0  0  0  0
 10 15  1  0  0  0  0
 11 10  2  0  0  0  0
 11 12  1  0  0  0  0
 12  2  2  0  0  0  0
 13  7  1  0  0  0  0
 14  8  1  0  0  0  0
M  CHG  1   1  -1
M  END
