1,14
q = -2.0, confidence = 0.688

 14 14  0  0  0  0  0  0  0  0999 V2000
   -0.8757    2.8861    0.0662 C   0  0  0  0  0  3  0  0  0  0  0  0
   -1.5988    2.9624   -0.7761 H   0  0  0  0  0  0  0  0  0  0  0  0
   -1.4799    2.9644    0.9993 H   0  0  0  0  0  0  0  0  0  0  0  0
    0.1870    3.9569    0.0061 C   0  0  0  0  0  0  0  0  0  0  0  0
    1.5322    3.5142    0.0401 C   0  0  0  0  0  0  0  0  0  0  0  0
    2.5888    4.4549    0.0186 C   0  0  0  0  0  0  0  0  0  0  0  0
    3.6252    4.0861    0.0454 H   0  0  0  0  0  0  0  0  0  0  0  0
    2.2969    5.8238   -0.0483 C   0  0  0  0  0  0  0  0  0  0  0  0
    3.1227    6.5528   -0.0705 H   0  0  0  0  0  0  0  0  0  0  0  0
    0.9641    6.2730   -0.0928 C   0  0  0  0  0  0  0  0  0  0  0  0
    0.7415    7.3493   -0.1487 H   0  0  0  0  0  0  0  0  0  0  0  0
   -0.0818    5.3345   -0.0644 C   0  0  0  0  0  0  0  0  0  0  0  0
   -1.1307    5.6744   -0.0948 H   0  0  0  0  0  0  0  0  0  0  0  0
    1.7883    2.1933    0.0822 O   0  5  0  0  0  0  0  0  0  0  0  0
  1  3  1  0  0  0  0
  2  1  1  0  0  0  0
  4  5  1  0  0  0  0
  4  1  1  0  0  0  0
  5 14  1  0  0  0  0
  6  5  2  0  0  0  0
  6  7  1  0  0  0  0
  8  6  1  0  0  0  0
  9  8  1  0  0  0  0
 10 12  1  0  0  0  0
 10  8  2  0  0  0  0
 11 10  1  0  0  0  0
 12  4  2  0  0  0  0
 13 12  1  0  0  0  0
M  CHG  1  14  -1
M  END
