1,8
q = -2.0, confidence = 0.584

 20 20  0  0  0  0  0  0  0  0999 V2000
    1.2439    0.5069   -1.1925 O   0  5  0  0  0  0  0  0  0  0  0  0
    2.4336    0.4123   -0.5857 C   0  0  0  0  0  0  0  0  0  0  0  0
    2.4530    0.2385    0.8224 C   0  0  0  0  0  0  0  0  0  0  0  0
    3.6927    0.0981    1.4724 C   0  0  0  0  0  0  0  0  0  0  0  0
    4.9095    0.1391    0.7650 C   0  0  0  0  0  0  0  0  0  0  0  0
    4.8551    0.3281   -0.6348 C   0  0  0  0  0  0  0  0  0  0  0  0
    3.6444    0.4716   -1.3299 C   0  0  0  0  0  0  0  0  0  0  0  0
    1.1154    0.2168    1.5437 C   0  0  0  0  0  3  0  0  0  0  0  0
    6.2372    0.0117    1.4733 C   0  0  0  0  0  0  0  0  0  0  0  0
    3.5769    0.6560   -2.8212 C   0  0  0  0  0  0  0  0  0  0  0  0
    3.7071   -0.0511    2.5660 H   0  0  0  0  0  0  0  0  0  0  0  0
    5.7969    0.3578   -1.2094 H   0  0  0  0  0  0  0  0  0  0  0  0
    1.1383   -0.5841    2.3163 H   0  0  0  0  0  0  0  0  0  0  0  0
    1.0018    1.1677    2.1060 H   0  0  0  0  0  0  0  0  0  0  0  0
    6.9086   -0.7118    0.9644 H   0  0  0  0  0  0  0  0  0  0  0  0
    6.1078   -0.3287    2.5199 H   0  0  0  0  0  0  0  0  0  0  0  0
    6.7829    0.9803    1.5080 H   0  0  0  0  0  0  0  0  0  0  0  0
    4.5868    0.7109   -3.2723 H   0  0  0  0  0  0  0  0  0  0  0  0
    3.0227    1.5817   -3.0872 H   0  0  0  0  0  0  0  0  0  0  0  0
    3.0238   -0.1759   -3.3094 H   0  0  0  0  0  0  0  0  0  0  0  0
  1  2  1  0  0  0  0
  2  3  1  0  0  0  0
  3  4  2  0  0  0  0
  3  8  1  0  0  0  0
  4 11  1  0  0  0  0
  5  4  1  0  0  0  0
  5  9  1  0  0  0  0
  6  5  2  0  0  0  0
  7  6  1  0  0  0  0
  7  2  2  0  0  0  0
  8 14  1  0  0  0  0
  8 13  1  0  0  0  0
  9 17  1  0  0  0  0
  9 16  1  0  0  0  0
 10  7  1  0  0  0  0
 12  6  1  0  0  0  0
 15  9  1  0  0  0  0
 18 10  1  0  0  0  0
 19 10  1  0  0  0  0
 20 10  1  0  0  0  0
M  CHG  1   1  -1
M  END
