3,16
q = -2.0, confidence = 0.896

 41 42  0  0  0  0  0  0  0  0999 V2000
    3.2197    2.6878   -0.6141 F   0  0  0  0  0  0  0  0  0  0  0  0
    5.2582   -1.5030    0.0184 F   0  0  0  0  0  0  0  0  0  0  0  0
   -1.1159    0.7512   -0.4930 O   0  5  0  0  0  0  0  0  0  0  0  0
    0.8526    1.8720    0.0599 N   0  0  0  0  0  0  0  0  0  0  0  0
    1.7493   -0.5075    0.3812 C   0  0  0  0  0  0  0  0  0  0  0  0
    2.9313   -1.2862    0.3674 C   0  0  0  0  0  0  0  0  0  0  0  0
    2.9041   -2.3410    0.6673 H   0  0  0  0  0  0  0  0  0  0  0  0
   -1.3943   -1.9111    1.8844 C   0  0  0  0  0  0  0  0  0  0  0  0
   -2.2722   -1.9096    2.5400 H   0  0  0  0  0  0  0  0  0  0  0  0
    0.5231   -1.2363    0.7866 C   0  0  0  0  0  0  0  0  0  0  0  0
   -0.4227   -0.8711    1.8136 C   0  0  0  0  0  0  0  0  0  0  0  0
   -0.4104    1.8429   -0.1716 C   0  0  0  0  0  0  0  0  0  0  0  0
    0.1373   -2.5282    0.2611 C   0  0  0  0  0  0  0  0  0  0  0  0
    3.1183    1.3930   -0.2937 C   0  0  0  0  0  0  0  0  0  0  0  0
    1.8239    0.8870    0.0477 C   0  0  0  0  0  0  0  0  0  0  0  0
   -1.0594   -2.9166    0.9355 C   0  0  0  0  0  3  0  0  0  0  0  0
   -1.6445   -3.8185    0.7148 H   0  0  0  0  0  0  0  0  0  0  0  0
   -0.3609    0.3088    2.7332 C   0  0  0  0  0  0  0  0  0  0  0  0
    0.1653    1.1731    2.2907 H   0  0  0  0  0  0  0  0  0  0  0  0
    0.1905    0.0279    3.6556 H   0  0  0  0  0  0  0  0  0  0  0  0
   -1.3762    0.6291    3.0372 H   0  0  0  0  0  0  0  0  0  0  0  0
    4.2753    0.6198   -0.3327 C   0  0  0  0  0  0  0  0  0  0  0  0
    5.2391    1.0644   -0.6127 H   0  0  0  0  0  0  0  0  0  0  0  0
    4.1591   -0.7297    0.0150 C   0  0  0  0  0  0  0  0  0  0  0  0
    0.8418   -3.3446   -0.7785 C   0  0  0  0  0  0  0  0  0  0  0  0
    1.3915   -2.7105   -1.4984 H   0  0  0  0  0  0  0  0  0  0  0  0
    0.1170   -3.9595   -1.3442 H   0  0  0  0  0  0  0  0  0  0  0  0
    1.5728   -4.0308   -0.3008 H   0  0  0  0  0  0  0  0  0  0  0  0
   -1.2549    3.1202   -0.1480 C   0  0  0  0  0  0  0  0  0  0  0  0
   -1.8564    3.3072   -1.5604 C   0  0  0  0  0  0  0  0  0  0  0  0
   -1.0582    3.4255   -2.3206 H   0  0  0  0  0  0  0  0  0  0  0  0
   -2.4884    4.2180   -1.5804 H   0  0  0  0  0  0  0  0  0  0  0  0
   -2.4845    2.4410   -1.8452 H   0  0  0  0  0  0  0  0  0  0  0  0
   -2.3976    2.9457    0.8774 C   0  0  0  0  0  0  0  0  0  0  0  0
   -3.0181    2.0565    0.6501 H   0  0  0  0  0  0  0  0  0  0  0  0
   -3.0539    3.8392    0.8620 H   0  0  0  0  0  0  0  0  0  0  0  0
   -1.9971    2.8395    1.9058 H   0  0  0  0  0  0  0  0  0  0  0  0
   -0.3807    4.3246    0.2218 C   0  0  0  0  0  0  0  0  0  0  0  0
    0.4677    4.4324   -0.4803 H   0  0  0  0  0  0  0  0  0  0  0  0
    0.0497    4.2104    1.2358 H   0  0  0  0  0  0  0  0  0  0  0  0
   -0.9896    5.2510    0.1998 H   0  0  0  0  0  0  0  0  0  0  0  0
  1 14  1  0  0  0  0
  3 12  1  0  0  0  0
  5 10  1  0  0  0  0
  6  5  1  0  0  0  0
  6  7  1  0  0  0  0
  8  9  1  0  0  0  0
 10 11  1  0  0  0  0
 11  8  2  0  0  0  0
 11 18  1  0  0  0  0
 12 29  1  0  0  0  0
 12  4  2  0  0  0  0
 13 10  2  0  0  0  0
 13 16  1  0  0  0  0
 14 15  1  0  0  0  0
 15  4  1  0  0  0  0
 15  5  2  0  0  0  0
 16  8  1  0  0  0  0
 17 16  1  0  0  0  0
 18 21  1  0  0  0  0
 18 20  1  0  0  0  0
 19 18  1  0  0  0  0
 22 14  2  0  0  0  0
 22 24  1  0  0  0  0
 23 22  1  0  0  0  0
 24  2  1  0  0  0  0
 24  6  2  0  0  0  0
 25 28  1  0  0  0  0
 25 13  1  0  0  0  0
 26 25  1  0  0  0  0
 27 25  1  0  0  0  0
 29 38  1  0  0  0  0
 29 34  1  0  0  0  0
 30 29  1  0  0  0  0
 31 30  1  0  0  0  0
 32 30  1  0  0  0  0
 33 30  1  0  0  0  0
 34 37  1  0  0  0  0
 35 34  1  0  0  0  0
 36 34  1  0  0  0  0
 38 40  1  0  0  0  0
 39 38  1  0  0  0  0
 41 38  1  0  0  0  0
M  CHG  1   3  -1
M  END
