1,9
q = 0.0, confidence = 0.568

 17 17  0  0  0  0  0  0  0  0999 V2000
    1.2767   -0.7824   -0.3705 O   0  5  0  0  0  0  0  0  0  0  0  0
    2.2834   -0.2779   -1.1344 C   0  0  0  0  0  0  0  0  0  0  0  0
    3.5165   -0.9441   -1.3011 C   0  0  0  0  0  0  0  0  0  0  0  0
    4.5019   -0.2670   -2.0500 C   0  0  0  0  0  0  0  0  0  0  0  0
    4.2679    1.0036   -2.6031 C   0  0  0  0  0  0  0  0  0  0  0  0
    3.0199    1.6306   -2.4413 C   0  0  0  0  0  0  0  0  0  0  0  0
    2.0072    0.9858   -1.7117 C   0  0  0  0  0  0  0  0  0  0  0  0
    3.7565   -2.2916   -0.6753 C   0  0  0  0  0  0  0  0  0  0  0  0
    0.6089    1.4318   -1.4502 C   0  0  0  0  0  3  0  0  0  0  0  0
    5.4811   -0.7519   -2.1913 H   0  0  0  0  0  0  0  0  0  0  0  0
    5.0653    1.5048   -3.1725 H   0  0  0  0  0  0  0  0  0  0  0  0
    2.8283    2.6198   -2.8864 H   0  0  0  0  0  0  0  0  0  0  0  0
    4.7322   -2.7106   -0.9874 H   0  0  0  0  0  0  0  0  0  0  0  0
    2.9606   -3.0143   -0.9479 H   0  0  0  0  0  0  0  0  0  0  0  0
    3.7507   -2.2310    0.4339 H   0  0  0  0  0  0  0  0  0  0  0  0
   -0.0540    0.9241   -2.1909 H   0  0  0  0  0  0  0  0  0  0  0  0
    0.4416    2.5201   -1.5674 H   0  0  0  0  0  0  0  0  0  0  0  0
  2  1  1  0  0  0  0
  3  2  1  0  0  0  0
  3  8  1  0  0  0  0
  4  3  2  0  0  0  0
  5  6  2  0  0  0  0
  5  4  1  0  0  0  0
  6  7  1  0  0  0  0
  7  9  1  0  0  0  0
  7  2  2  0  0  0  0
  8 15  1  0  0  0  0
 10  4  1  0  0  0  0
 11  5  1  0  0  0  0
 12  6  1  0  0  0  0
 13  8  1  0  0  0  0
 14  8  1  0  0  0  0
 16  9  1  0  0  0  0
 17  9  1  0  0  0  0
M  CHG  1   1  -1
M  END
