1,12
q = -1.0, confidence = 0.014

 22 22  0  0  0  0  0  0  0  0999 V2000
    1.6893   -1.0474   -0.1558 O   0  5  0  0  0  0  0  0  0  0  0  0
    2.9336   -0.5669   -0.0495 C   0  0  0  0  0  0  0  0  0  0  0  0
    4.0546   -1.4277   -0.2205 C   0  0  0  0  0  0  0  0  0  0  0  0
    5.3369   -0.8598   -0.1741 C   0  0  0  0  0  0  0  0  0  0  0  0
    6.2049   -1.5244   -0.3256 H   0  0  0  0  0  0  0  0  0  0  0  0
    5.5626    0.5195    0.0374 C   0  0  0  0  0  0  0  0  0  0  0  0
    4.4394    1.3434    0.2302 C   0  0  0  0  0  0  0  0  0  0  0  0
    4.5773    2.4219    0.4161 H   0  0  0  0  0  0  0  0  0  0  0  0
    3.1402    0.8087    0.2129 C   0  0  0  0  0  0  0  0  0  0  0  0
    1.9233    1.6128    0.5184 C   0  0  0  0  0  3  0  0  0  0  0  0
    1.9093    2.6364    0.1151 H   0  0  0  0  0  0  0  0  0  0  0  0
    1.1080    1.3110    1.6439 C   0  0  0  0  0  3  0  0  0  0  0  0
    0.4322    2.0760    2.0621 H   0  0  0  0  0  0  0  0  0  0  0  0
    1.4458    0.5444    2.3556 H   0  0  0  0  0  0  0  0  0  0  0  0
    3.8226   -2.8919   -0.4753 C   0  0  0  0  0  0  0  0  0  0  0  0
    4.7778   -3.4470   -0.5501 H   0  0  0  0  0  0  0  0  0  0  0  0
    3.2521   -3.0536   -1.4151 H   0  0  0  0  0  0  0  0  0  0  0  0
    3.2103   -3.3508    0.3295 H   0  0  0  0  0  0  0  0  0  0  0  0
    6.9653    1.0777    0.0527 C   0  0  0  0  0  0  0  0  0  0  0  0
    7.5978    0.5835    0.8207 H   0  0  0  0  0  0  0  0  0  0  0  0
    6.9670    2.1644    0.2690 H   0  0  0  0  0  0  0  0  0  0  0  0
    7.4781    0.9320   -0.9225 H   0  0  0  0  0  0  0  0  0  0  0  0
  1  2  1  0  0  0  0
  2  9  1  0  0  0  0
  3  4  1  0  0  0  0
  3  2  2  0  0  0  0
  4  6  2  0  0  0  0
  5  4  1  0  0  0  0
  6 19  1  0  0  0  0
  6  7  1  0  0  0  0
  7  8  1  0  0  0  0
  9  7  2  0  0  0  0
  9 10  1  0  0  0  0
 10 12  1  0  0  0  0
 11 10  1  0  0  0  0
 12 13  1  0  0  0  0
 12 14  1  0  0  0  0
 15  3  1  0  0  0  0
 15 18  1  0  0  0  0
 16 15  1  0  0  0  0
 17 15  1  0  0  0  0
 19 21  1  0  0  0  0
 19 20  1  0  0  0  0
 22 19  1  0  0  0  0
M  CHG  1   1  -1
M  END
