1,6
 OpenBabel05122313053D

 16 16  0  0  0  0  0  0  0  0999 V2000
    0.5213   -0.0550   -1.7549 O   0  5  0  0  0  0  0  0  0  0  0  0
    2.5959   -0.2368   -2.4942 O   0  0  0  0  0  0  0  0  0  0  0  0
    4.9041   -0.4091   -1.5916 O   0  0  0  0  0  0  0  0  0  0  0  0
    3.9574   -0.3412   -2.0082 H   0  0  0  0  0  0  0  0  0  0  0  0
    5.9106   -0.3649    0.3886 O   0  0  0  0  0  0  0  0  0  0  0  0
    1.0837    0.0398    0.7902 C   0  0  0  0  0  3  0  0  0  0  0  0
    1.2902    0.1867    2.1738 C   0  0  0  0  0  0  0  0  0  0  0  0
    0.4283    0.3208    2.8469 H   0  0  0  0  0  0  0  0  0  0  0  0
    2.5908    0.1646    2.6998 C   0  0  0  0  0  0  0  0  0  0  0  0
    2.7505    0.2775    3.7841 H   0  0  0  0  0  0  0  0  0  0  0  0
    3.6872   -0.0029    1.8486 C   0  0  0  0  0  0  0  0  0  0  0  0
    4.7182   -0.0371    2.2284 H   0  0  0  0  0  0  0  0  0  0  0  0
    3.5328   -0.1366    0.4528 C   0  0  0  0  0  0  0  0  0  0  0  0
    2.2061   -0.1054   -0.0796 C   0  0  0  0  0  0  0  0  0  0  0  0
    1.8081   -0.1520   -1.5291 C   0  0  0  0  0  0  0  0  0  0  0  0
    4.8825   -0.3153   -0.2750 C   0  0  0  0  0  0  0  0  0  0  0  0
  1 15  1  0  0  0  0
  2 15  2  0  0  0  0
  3 16  1  0  0  0  0
  4  3  1  0  0  0  0
  6  7  1  0  0  0  0
  7  9  2  0  0  0  0
  7  8  1  0  0  0  0
  9 10  1  0  0  0  0
 11 12  1  0  0  0  0
 11  9  1  0  0  0  0
 13 11  2  0  0  0  0
 14 13  1  0  0  0  0
 14  6  2  0  0  0  0
 15 14  1  0  0  0  0
 16  5  2  0  0  0  0
 16 13  1  0  0  0  0
M  CHG  1   1  -1
M  END
