1,9
 OpenBabel05122313053D

 50 52  0  0  1  0  0  0  0  0999 V2000
   -0.4927    0.5060    0.3417 O   0  5  0  0  0  0  0  0  0  0  0  0
   -1.6621    1.1728    0.2201 C   0  0  0  0  0  0  0  0  0  0  0  0
   -2.8448    0.3897    0.3115 C   0  0  0  0  0  0  0  0  0  0  0  0
   -4.1080    0.9733    0.1828 C   0  0  0  0  0  0  0  0  0  0  0  0
   -4.2327    2.3590   -0.0451 C   0  0  0  0  0  0  0  0  0  0  0  0
   -3.0457    3.1127   -0.1294 C   0  0  0  0  0  0  0  0  0  0  0  0
   -1.7483    2.5727   -0.0024 C   0  0  0  0  0  0  0  0  0  0  0  0
   -2.5851   -1.0503    0.4917 C   0  0  2  0  0  3  0  0  0  0  0  0
   -2.1868   -1.7024    1.6974 C   0  0  0  0  0  3  0  0  0  0  0  0
   -1.7329   -3.0187    1.3879 C   0  0  0  0  0  3  0  0  0  0  0  0
   -1.9685   -3.2445   -0.0156 C   0  0  0  0  0  0  0  0  0  0  0  0
   -1.7421   -4.3676   -0.8650 C   0  0  0  0  0  0  0  0  0  0  0  0
   -2.1044   -4.2644   -2.1967 C   0  0  0  0  0  0  0  0  0  0  0  0
   -2.6834   -3.0682   -2.7286 C   0  0  0  0  0  0  0  0  0  0  0  0
   -2.8895   -1.9509   -1.9381 C   0  0  0  0  0  0  0  0  0  0  0  0
   -2.5246   -2.0285   -0.5690 C   0  0  0  0  0  0  0  0  0  0  0  0
   -5.6300    2.9855   -0.1994 C   0  0  0  0  0  0  0  0  0  0  0  0
   -6.3488    2.3336   -1.4029 C   0  0  0  0  0  0  0  0  0  0  0  0
   -6.4474    2.7317    1.0878 C   0  0  0  0  0  0  0  0  0  0  0  0
   -5.5644    4.5037   -0.4395 C   0  0  0  0  0  0  0  0  0  0  0  0
   -0.4921    3.4572   -0.0750 C   0  0  0  0  0  0  0  0  0  0  0  0
    0.4755    2.9218   -1.1567 C   0  0  0  0  0  0  0  0  0  0  0  0
    0.1775    3.4540    1.3199 C   0  0  0  0  0  0  0  0  0  0  0  0
   -0.8259    4.9171   -0.4326 C   0  0  0  0  0  0  0  0  0  0  0  0
   -4.9974    0.3296    0.2561 H   0  0  0  0  0  0  0  0  0  0  0  0
   -3.1290    4.1900   -0.3085 H   0  0  0  0  0  0  0  0  0  0  0  0
   -2.1555   -1.2289    2.6837 H   0  0  0  0  0  0  0  0  0  0  0  0
   -1.3389   -3.7496    2.1015 H   0  0  0  0  0  0  0  0  0  0  0  0
   -1.2917   -5.2837   -0.4599 H   0  0  0  0  0  0  0  0  0  0  0  0
   -1.9468   -5.1209   -2.8691 H   0  0  0  0  0  0  0  0  0  0  0  0
   -2.9598   -3.0411   -3.7934 H   0  0  0  0  0  0  0  0  0  0  0  0
   -3.3072   -1.0182   -2.3427 H   0  0  0  0  0  0  0  0  0  0  0  0
   -6.4619    1.2392   -1.2707 H   0  0  0  0  0  0  0  0  0  0  0  0
   -5.7816    2.5033   -2.3406 H   0  0  0  0  0  0  0  0  0  0  0  0
   -7.3640    2.7638   -1.5305 H   0  0  0  0  0  0  0  0  0  0  0  0
   -5.9524    3.1910    1.9671 H   0  0  0  0  0  0  0  0  0  0  0  0
   -6.5640    1.6492    1.2945 H   0  0  0  0  0  0  0  0  0  0  0  0
   -7.4639    3.1680    0.9960 H   0  0  0  0  0  0  0  0  0  0  0  0
   -6.5899    4.9118   -0.5435 H   0  0  0  0  0  0  0  0  0  0  0  0
   -5.0113    4.7516   -1.3678 H   0  0  0  0  0  0  0  0  0  0  0  0
   -5.0783    5.0341    0.4040 H   0  0  0  0  0  0  0  0  0  0  0  0
    1.3947    3.5434   -1.1872 H   0  0  0  0  0  0  0  0  0  0  0  0
   -0.0006    2.9674   -2.1571 H   0  0  0  0  0  0  0  0  0  0  0  0
    0.7668    1.8732   -0.9710 H   0  0  0  0  0  0  0  0  0  0  0  0
    0.3419    2.4247    1.6869 H   0  0  0  0  0  0  0  0  0  0  0  0
   -0.4671    3.9695    2.0601 H   0  0  0  0  0  0  0  0  0  0  0  0
    1.1547    3.9803    1.2884 H   0  0  0  0  0  0  0  0  0  0  0  0
    0.1120    5.5067   -0.4779 H   0  0  0  0  0  0  0  0  0  0  0  0
   -1.4804    5.3967    0.3228 H   0  0  0  0  0  0  0  0  0  0  0  0
   -1.3192    4.9979   -1.4223 H   0  0  0  0  0  0  0  0  0  0  0  0
  2  3  1  0  0  0  0
  2  1  1  0  0  0  0
  4 25  1  0  0  0  0
  4  3  2  0  0  0  0
  5  4  1  0  0  0  0
  6  5  2  0  0  0  0
  6  7  1  0  0  0  0
  7  2  2  0  0  0  0
  8  3  1  6  0  0  0
  8  9  1  0  0  0  0
  9 27  1  0  0  0  0
 10  9  1  0  0  0  0
 10 28  1  0  0  0  0
 11 10  1  0  0  0  0
 12 29  1  0  0  0  0
 12 11  2  0  0  0  0
 13 12  1  0  0  0  0
 14 13  2  0  0  0  0
 14 15  1  0  0  0  0
 15 16  2  0  0  0  0
 16 11  1  0  0  0  0
 16  8  1  0  0  0  0
 17  5  1  0  0  0  0
 17 19  1  0  0  0  0
 18 33  1  0  0  0  0
 18 17  1  0  0  0  0
 19 37  1  0  0  0  0
 19 36  1  0  0  0  0
 20 17  1  0  0  0  0
 20 41  1  0  0  0  0
 21  7  1  0  0  0  0
 21 23  1  0  0  0  0
 22 44  1  0  0  0  0
 22 21  1  0  0  0  0
 23 45  1  0  0  0  0
 23 46  1  0  0  0  0
 24 21  1  0  0  0  0
 24 49  1  0  0  0  0
 26  6  1  0  0  0  0
 30 13  1  0  0  0  0
 31 14  1  0  0  0  0
 32 15  1  0  0  0  0
 34 18  1  0  0  0  0
 35 18  1  0  0  0  0
 38 19  1  0  0  0  0
 39 20  1  0  0  0  0
 40 20  1  0  0  0  0
 42 22  1  0  0  0  0
 43 22  1  0  0  0  0
 47 23  1  0  0  0  0
 48 24  1  0  0  0  0
 50 24  1  0  0  0  0
M  CHG  1   1  -1
M  END
