1,8
 OpenBabel05122313053D

 53 55  0  0  1  0  0  0  0  0999 V2000
   -0.3060    1.1123   -0.1017 O   0  5  0  0  0  0  0  0  0  0  0  0
    0.9385    0.5861   -0.0653 C   0  0  0  0  0  0  0  0  0  0  0  0
    1.0340   -0.7909    0.2822 C   0  0  0  0  0  0  0  0  0  0  0  0
    2.2786   -1.4227    0.3570 C   0  0  0  0  0  0  0  0  0  0  0  0
    3.4640   -0.7072    0.0864 C   0  0  0  0  0  0  0  0  0  0  0  0
    3.3386    0.6534   -0.2575 C   0  0  0  0  0  0  0  0  0  0  0  0
    2.1084    1.3399   -0.3446 C   0  0  0  0  0  0  0  0  0  0  0  0
   -0.2825   -1.4220    0.5354 C   0  0  1  0  0  3  0  0  0  0  0  0
   -0.9844   -1.4414    1.7806 C   0  0  0  0  0  0  0  0  0  0  0  0
   -2.3476   -1.7870    1.5178 C   0  0  0  0  0  0  0  0  0  0  0  0
   -2.4851   -2.0991    0.1217 C   0  0  0  0  0  0  0  0  0  0  0  0
   -3.5856   -2.5149   -0.6823 C   0  0  0  0  0  0  0  0  0  0  0  0
   -3.3901   -2.6980   -2.0447 C   0  0  0  0  0  0  0  0  0  0  0  0
   -2.1214   -2.4544   -2.6507 C   0  0  0  0  0  0  0  0  0  0  0  0
   -1.0335   -2.0271   -1.9005 C   0  0  0  0  0  0  0  0  0  0  0  0
   -1.1937   -1.8647   -0.4965 C   0  0  0  0  0  0  0  0  0  0  0  0
   -0.3743   -1.0931    3.1036 C   0  0  0  0  0  0  0  0  0  0  0  0
    4.8250   -1.4220    0.1729 C   0  0  0  0  0  0  0  0  0  0  0  0
    4.8508   -2.5937   -0.8350 C   0  0  0  0  0  0  0  0  0  0  0  0
    5.0230   -1.9712    1.6042 C   0  0  0  0  0  0  0  0  0  0  0  0
    5.9994   -0.4819   -0.1496 C   0  0  0  0  0  0  0  0  0  0  0  0
    2.0255    2.8330   -0.7083 C   0  0  0  0  0  0  0  0  0  0  0  0
    1.3868    3.6082    0.4682 C   0  0  0  0  0  0  0  0  0  0  0  0
    3.4126    3.4393   -0.9849 C   0  0  0  0  0  0  0  0  0  0  0  0
    1.1629    3.0091   -1.9799 C   0  0  0  0  0  0  0  0  0  0  0  0
    2.3117   -2.4890    0.6283 H   0  0  0  0  0  0  0  0  0  0  0  0
    4.2517    1.2207   -0.4690 H   0  0  0  0  0  0  0  0  0  0  0  0
   -3.1406   -1.8899    2.2680 H   0  0  0  0  0  0  0  0  0  0  0  0
   -4.5670   -2.7040   -0.2213 H   0  0  0  0  0  0  0  0  0  0  0  0
   -4.2277   -3.0351   -2.6738 H   0  0  0  0  0  0  0  0  0  0  0  0
   -2.0094   -2.6046   -3.7352 H   0  0  0  0  0  0  0  0  0  0  0  0
   -0.0537   -1.8352   -2.3631 H   0  0  0  0  0  0  0  0  0  0  0  0
   -1.1295   -0.7443    3.8318 H   0  0  0  0  0  0  0  0  0  0  0  0
    0.3999   -0.3086    2.9893 H   0  0  0  0  0  0  0  0  0  0  0  0
    0.1283   -1.9811    3.5428 H   0  0  0  0  0  0  0  0  0  0  0  0
    5.8202   -3.1323   -0.7844 H   0  0  0  0  0  0  0  0  0  0  0  0
    4.7144   -2.2247   -1.8718 H   0  0  0  0  0  0  0  0  0  0  0  0
    4.0464   -3.3281   -0.6311 H   0  0  0  0  0  0  0  0  0  0  0  0
    5.0118   -1.1482    2.3472 H   0  0  0  0  0  0  0  0  0  0  0  0
    5.9950   -2.5007    1.6892 H   0  0  0  0  0  0  0  0  0  0  0  0
    4.2244   -2.6871    1.8831 H   0  0  0  0  0  0  0  0  0  0  0  0
    6.0512    0.3708    0.5571 H   0  0  0  0  0  0  0  0  0  0  0  0
    5.9302   -0.0731   -1.1779 H   0  0  0  0  0  0  0  0  0  0  0  0
    6.9566   -1.0364   -0.0747 H   0  0  0  0  0  0  0  0  0  0  0  0
    0.3747    3.2239    0.6939 H   0  0  0  0  0  0  0  0  0  0  0  0
    1.3050    4.6870    0.2191 H   0  0  0  0  0  0  0  0  0  0  0  0
    2.0079    3.5137    1.3822 H   0  0  0  0  0  0  0  0  0  0  0  0
    4.0780    3.3787   -0.0999 H   0  0  0  0  0  0  0  0  0  0  0  0
    3.3015    4.5116   -1.2442 H   0  0  0  0  0  0  0  0  0  0  0  0
    3.9217    2.9418   -1.8352 H   0  0  0  0  0  0  0  0  0  0  0  0
    1.6104    2.4646   -2.8364 H   0  0  0  0  0  0  0  0  0  0  0  0
    1.0970    4.0829   -2.2536 H   0  0  0  0  0  0  0  0  0  0  0  0
    0.1378    2.6268   -1.8200 H   0  0  0  0  0  0  0  0  0  0  0  0
  1  2  1  0  0  0  0
  2  3  1  0  0  0  0
  3  4  2  0  0  0  0
  4 26  1  0  0  0  0
  5 18  1  0  0  0  0
  5  4  1  0  0  0  0
  6  5  2  0  0  0  0
  7  6  1  0  0  0  0
  7  2  2  0  0  0  0
  8  3  1  6  0  0  0
  8  9  1  0  0  0  0
  9 17  1  0  0  0  0
 10  9  2  0  0  0  0
 10 28  1  0  0  0  0
 11 10  1  0  0  0  0
 12 29  1  0  0  0  0
 12 11  2  0  0  0  0
 13 12  1  0  0  0  0
 14 13  2  0  0  0  0
 14 15  1  0  0  0  0
 15 16  2  0  0  0  0
 16 11  1  0  0  0  0
 16  8  1  0  0  0  0
 17 35  1  0  0  0  0
 17 33  1  0  0  0  0
 18 20  1  0  0  0  0
 19 36  1  0  0  0  0
 19 38  1  0  0  0  0
 19 18  1  0  0  0  0
 20 40  1  0  0  0  0
 20 41  1  0  0  0  0
 20 39  1  0  0  0  0
 21 44  1  0  0  0  0
 21 18  1  0  0  0  0
 21 42  1  0  0  0  0
 22  7  1  0  0  0  0
 22 23  1  0  0  0  0
 23 45  1  0  0  0  0
 23 47  1  0  0  0  0
 24 22  1  0  0  0  0
 24 48  1  0  0  0  0
 25 53  1  0  0  0  0
 25 22  1  0  0  0  0
 27  6  1  0  0  0  0
 30 13  1  0  0  0  0
 31 14  1  0  0  0  0
 32 15  1  0  0  0  0
 34 17  1  0  0  0  0
 37 19  1  0  0  0  0
 43 21  1  0  0  0  0
 46 23  1  0  0  0  0
 49 24  1  0  0  0  0
 50 24  1  0  0  0  0
 51 25  1  0  0  0  0
 52 25  1  0  0  0  0
M  CHG  1   1  -1
M  END
