1,3
 OpenBabel05122313053D

  9  8  0  0  0  0  0  0  0  0999 V2000
   -1.7052   -1.9832    0.0113 O   0  5  0  0  0  0  0  0  0  0  0  0
   -2.6671   -4.0043    0.2000 O   0  0  0  0  0  0  0  0  0  0  0  0
    0.7042   -2.7518   -0.3538 C   0  0  0  0  0  3  0  0  0  0  0  0
    0.7704   -2.8347   -1.4645 H   0  0  0  0  0  0  0  0  0  0  0  0
    1.7324   -2.7850    0.0638 H   0  0  0  0  0  0  0  0  0  0  0  0
   -0.2204   -3.8147    0.2245 C   0  0  0  0  0  0  0  0  0  0  0  0
   -0.1352   -4.8155   -0.2518 H   0  0  0  0  0  0  0  0  0  0  0  0
   -0.0117   -3.9726    1.3057 H   0  0  0  0  0  0  0  0  0  0  0  0
   -1.6637   -3.3117    0.1326 C   0  0  0  0  0  0  0  0  0  0  0  0
  1  9  1  0  0  0  0
  3  5  1  0  0  0  0
  3  6  1  0  0  0  0
  4  3  1  0  0  0  0
  6  8  1  0  0  0  0
  7  6  1  0  0  0  0
  9  2  2  0  0  0  0
  9  6  1  0  0  0  0
M  CHG  1   1  -1
M  END
