1,6
 OpenBabel05122313053D

 23 22  0  0  0  0  0  0  0  0999 V2000
   -0.0594    1.5557    0.0763 C   0  0  0  0  0  2  0  0  0  0  0  0
    0.4669    2.9593   -0.0458 C   0  0  0  0  0  0  0  0  0  0  0  0
   -1.4468    1.3613    0.1841 C   0  0  0  0  0  0  0  0  0  0  0  0
   -2.4213    2.5057    0.3330 C   0  0  0  0  0  0  0  0  0  0  0  0
   -1.8141   -0.0180    0.1458 C   0  0  0  0  0  0  0  0  0  0  0  0
   -0.8400   -0.8743    0.1236 O   0  5  0  0  0  0  0  0  0  0  0  0
   -3.1799   -0.5994    0.1245 C   0  0  0  0  0  0  0  0  0  0  0  0
   -3.3090   -1.9332    0.8162 C   0  0  0  0  0  0  0  0  0  0  0  0
   -4.1862    0.0243   -0.5489 C   0  0  0  0  0  0  0  0  0  0  0  0
   -5.6032   -0.4300   -0.7035 C   0  0  0  0  0  0  0  0  0  0  0  0
    1.5252    2.9929   -0.3673 H   0  0  0  0  0  0  0  0  0  0  0  0
    0.4221    3.4764    0.9400 H   0  0  0  0  0  0  0  0  0  0  0  0
   -0.1335    3.5734   -0.7511 H   0  0  0  0  0  0  0  0  0  0  0  0
   -3.3731    2.1715    0.7879 H   0  0  0  0  0  0  0  0  0  0  0  0
   -2.6714    2.9894   -0.6374 H   0  0  0  0  0  0  0  0  0  0  0  0
   -1.9983    3.2993    0.9812 H   0  0  0  0  0  0  0  0  0  0  0  0
   -2.5924   -2.6558    0.3769 H   0  0  0  0  0  0  0  0  0  0  0  0
   -4.3279   -2.3542    0.7451 H   0  0  0  0  0  0  0  0  0  0  0  0
   -3.0392   -1.8477    1.8896 H   0  0  0  0  0  0  0  0  0  0  0  0
   -3.9396    0.9614   -1.0746 H   0  0  0  0  0  0  0  0  0  0  0  0
   -5.8487   -0.6049   -1.7739 H   0  0  0  0  0  0  0  0  0  0  0  0
   -6.3074    0.3576   -0.3570 H   0  0  0  0  0  0  0  0  0  0  0  0
   -5.8312   -1.3580   -0.1467 H   0  0  0  0  0  0  0  0  0  0  0  0
  1  3  1  0  0  0  0
  2  1  1  0  0  0  0
  2 12  1  0  0  0  0
  3  4  1  0  0  0  0
  4 14  1  0  0  0  0
  4 16  1  0  0  0  0
  5  3  2  0  0  0  0
  6  5  1  0  0  0  0
  7  5  1  0  0  0  0
  7  8  1  0  0  0  0
  8 19  1  0  0  0  0
  9  7  2  0  0  0  0
 10  9  1  0  0  0  0
 10 22  1  0  0  0  0
 10 23  1  0  0  0  0
 11  2  1  0  0  0  0
 13  2  1  0  0  0  0
 15  4  1  0  0  0  0
 17  8  1  0  0  0  0
 18  8  1  0  0  0  0
 20  9  1  0  0  0  0
 21 10  1  0  0  0  0
M  CHG  1   6  -1
M  END
