1,4
q = -1.0, confidence = 0.0

 30 30  0  0  0  0  0  0  0  0999 V2000
    1.0306    1.5422    0.3812 O   0  0  0  0  0  1  0  0  0  0  0  0
   -1.8336    2.0692    0.3308 N   0  0  0  0  0  0  0  0  0  0  0  0
   -2.8150    0.1630    0.1376 N   0  0  0  0  0  0  0  0  0  0  0  0
   -1.5766    0.7393    0.1531 C   0  0  0  0  0  2  0  0  0  0  0  0
   -3.1951    2.3226    0.4159 C   0  0  0  0  0  0  0  0  0  0  0  0
   -3.6015    3.3274    0.5664 H   0  0  0  0  0  0  0  0  0  0  0  0
   -3.8203    1.1077    0.2874 C   0  0  0  0  0  0  0  0  0  0  0  0
   -4.8828    0.8519    0.3049 H   0  0  0  0  0  0  0  0  0  0  0  0
   -3.0217   -1.2838   -0.0887 C   0  0  0  0  0  0  0  0  0  0  0  0
   -2.0932   -1.7382    0.3109 H   0  0  0  0  0  0  0  0  0  0  0  0
   -4.2172   -1.8073    0.7036 C   0  0  0  0  0  0  0  0  0  0  0  0
   -4.1437   -1.5360    1.7756 H   0  0  0  0  0  0  0  0  0  0  0  0
   -4.2429   -2.9124    0.6333 H   0  0  0  0  0  0  0  0  0  0  0  0
   -5.1858   -1.4347    0.3090 H   0  0  0  0  0  0  0  0  0  0  0  0
   -3.1103   -1.5756   -1.5882 C   0  0  0  0  0  0  0  0  0  0  0  0
   -2.1884   -1.2235   -2.0913 H   0  0  0  0  0  0  0  0  0  0  0  0
   -3.9938   -1.0821   -2.0454 H   0  0  0  0  0  0  0  0  0  0  0  0
   -3.1999   -2.6678   -1.7545 H   0  0  0  0  0  0  0  0  0  0  0  0
   -0.7970    3.0966    0.3946 C   0  0  0  0  0  0  0  0  0  0  0  0
   -1.2260    3.9776    0.9118 H   0  0  0  0  0  0  0  0  0  0  0  0
   -0.5245    3.3994   -0.6386 H   0  0  0  0  0  0  0  0  0  0  0  0
    0.4872    2.6127    1.1068 C   0  0  0  0  0  0  0  0  0  0  0  0
    0.2005    2.1822    2.5563 C   0  0  0  0  0  0  0  0  0  0  0  0
   -0.5071    1.3301    2.5789 H   0  0  0  0  0  0  0  0  0  0  0  0
   -0.2181    3.0128    3.1608 H   0  0  0  0  0  0  0  0  0  0  0  0
    1.1462    1.8482    3.0267 H   0  0  0  0  0  0  0  0  0  0  0  0
    1.5008    3.7705    1.0822 C   0  0  0  0  0  0  0  0  0  0  0  0
    1.7200    4.0657    0.0367 H   0  0  0  0  0  0  0  0  0  0  0  0
    2.4481    3.4328    1.5453 H   0  0  0  0  0  0  0  0  0  0  0  0
    1.1327    4.6576    1.6371 H   0  0  0  0  0  0  0  0  0  0  0  0
  1 22  1  0  0  0  0
  2 19  1  0  0  0  0
  2  5  1  0  0  0  0
  3  4  1  0  0  0  0
  3  7  1  0  0  0  0
  4  2  1  0  0  0  0
  5  6  1  0  0  0  0
  7  8  1  0  0  0  0
  7  5  2  0  0  0  0
  9  3  1  0  0  0  0
  9 10  1  0  0  0  0
  9 11  1  0  0  0  0
 11 12  1  0  0  0  0
 13 11  1  0  0  0  0
 14 11  1  0  0  0  0
 15  9  1  0  0  0  0
 16 15  1  0  0  0  0
 17 15  1  0  0  0  0
 18 15  1  0  0  0  0
 19 20  1  0  0  0  0
 19 22  1  0  0  0  0
 21 19  1  0  0  0  0
 22 23  1  0  0  0  0
 23 24  1  0  0  0  0
 23 26  1  0  0  0  0
 23 25  1  0  0  0  0
 27 22  1  0  0  0  0
 27 29  1  0  0  0  0
 27 30  1  0  0  0  0
 28 27  1  0  0  0  0
M  END
