1,5
 OpenBabel05122313053D

 50 53  0  0  0  0  0  0  0  0999 V2000
   -0.9086   -1.3768   -0.8000 O   0  5  0  0  0  0  0  0  0  0  0  0
   -0.2493    0.6350   -0.0105 O   0  0  0  0  0  0  0  0  0  0  0  0
   -1.2917   -0.1955   -0.3574 C   0  0  0  0  0  0  0  0  0  0  0  0
   -2.5910    0.2583   -0.1971 C   0  0  0  0  0  0  0  0  0  0  0  0
    1.0250    0.0645   -0.0144 C   0  0  0  0  0  3  0  0  0  0  0  0
    2.0399    0.9904   -0.1308 C   0  0  0  0  0  0  0  0  0  0  0  0
   -2.7730    1.6205    0.3852 C   0  0  0  0  0  0  0  0  0  0  0  0
   -3.4989    1.7820    1.5888 C   0  0  0  0  0  0  0  0  0  0  0  0
   -3.6419    3.0445    2.1816 C   0  0  0  0  0  0  0  0  0  0  0  0
   -3.0576    4.1747    1.5867 C   0  0  0  0  0  0  0  0  0  0  0  0
   -2.3368    4.0301    0.3907 C   0  0  0  0  0  0  0  0  0  0  0  0
   -2.2033    2.7691   -0.2056 C   0  0  0  0  0  0  0  0  0  0  0  0
   -3.7760   -0.5596   -0.5138 C   0  0  0  0  0  0  0  0  0  0  0  0
   -3.7313   -1.9600   -0.7637 C   0  0  0  0  0  0  0  0  0  0  0  0
   -4.8923   -2.6849   -1.0579 C   0  0  0  0  0  0  0  0  0  0  0  0
   -6.1433   -2.0497   -1.1197 C   0  0  0  0  0  0  0  0  0  0  0  0
   -6.2094   -0.6662   -0.8896 C   0  0  0  0  0  0  0  0  0  0  0  0
   -5.0521    0.0635   -0.5947 C   0  0  0  0  0  0  0  0  0  0  0  0
    1.7132    2.4136   -0.4539 C   0  0  0  0  0  0  0  0  0  0  0  0
    1.0677    2.7519   -1.6634 C   0  0  0  0  0  0  0  0  0  0  0  0
    0.7757    4.0875   -1.9743 C   0  0  0  0  0  0  0  0  0  0  0  0
    1.1167    5.1118   -1.0757 C   0  0  0  0  0  0  0  0  0  0  0  0
    1.7619    4.7896    0.1293 C   0  0  0  0  0  0  0  0  0  0  0  0
    2.0635    3.4543    0.4330 C   0  0  0  0  0  0  0  0  0  0  0  0
    3.4656    0.6499    0.0286 C   0  0  0  0  0  0  0  0  0  0  0  0
    3.9106   -0.4002    0.8695 C   0  0  0  0  0  0  0  0  0  0  0  0
    5.2679   -0.7333    0.9691 C   0  0  0  0  0  0  0  0  0  0  0  0
    6.2301   -0.0151    0.2415 C   0  0  0  0  0  0  0  0  0  0  0  0
    5.8134    1.0466   -0.5801 C   0  0  0  0  0  0  0  0  0  0  0  0
    4.4572    1.3784   -0.6808 C   0  0  0  0  0  0  0  0  0  0  0  0
   -3.9517    0.8970    2.0625 H   0  0  0  0  0  0  0  0  0  0  0  0
   -4.2071    3.1447    3.1213 H   0  0  0  0  0  0  0  0  0  0  0  0
   -3.1628    5.1650    2.0559 H   0  0  0  0  0  0  0  0  0  0  0  0
   -1.8640    4.9034   -0.0844 H   0  0  0  0  0  0  0  0  0  0  0  0
   -1.6343    2.6664   -1.1393 H   0  0  0  0  0  0  0  0  0  0  0  0
   -2.7643   -2.4750   -0.7381 H   0  0  0  0  0  0  0  0  0  0  0  0
   -4.8168   -3.7684   -1.2417 H   0  0  0  0  0  0  0  0  0  0  0  0
   -7.0534   -2.6244   -1.3487 H   0  0  0  0  0  0  0  0  0  0  0  0
   -7.1766   -0.1429   -0.9463 H   0  0  0  0  0  0  0  0  0  0  0  0
   -5.1276    1.1478   -0.4317 H   0  0  0  0  0  0  0  0  0  0  0  0
    0.7993    1.9483   -2.3660 H   0  0  0  0  0  0  0  0  0  0  0  0
    0.2770    4.3311   -2.9252 H   0  0  0  0  0  0  0  0  0  0  0  0
    0.8852    6.1605   -1.3172 H   0  0  0  0  0  0  0  0  0  0  0  0
    2.0321    5.5858    0.8399 H   0  0  0  0  0  0  0  0  0  0  0  0
    2.5727    3.2037    1.3762 H   0  0  0  0  0  0  0  0  0  0  0  0
    3.1699   -0.9485    1.4632 H   0  0  0  0  0  0  0  0  0  0  0  0
    5.5803   -1.5508    1.6381 H   0  0  0  0  0  0  0  0  0  0  0  0
    7.2972   -0.2706    0.3243 H   0  0  0  0  0  0  0  0  0  0  0  0
    6.5563    1.6229   -1.1527 H   0  0  0  0  0  0  0  0  0  0  0  0
    4.1437    2.2081   -1.3314 H   0  0  0  0  0  0  0  0  0  0  0  0
  1  3  1  0  0  0  0
  3  4  2  0  0  0  0
  3  2  1  0  0  0  0
  4  7  1  0  0  0  0
  5  2  1  0  0  0  0
  6  5  2  0  0  0  0
  6 25  1  0  0  0  0
  7  8  1  0  0  0  0
  8 31  1  0  0  0  0
  8  9  2  0  0  0  0
  9 32  1  0  0  0  0
 10 33  1  0  0  0  0
 10  9  1  0  0  0  0
 11 10  2  0  0  0  0
 12  7  2  0  0  0  0
 12 11  1  0  0  0  0
 13  4  1  0  0  0  0
 14 36  1  0  0  0  0
 14 13  2  0  0  0  0
 15 14  1  0  0  0  0
 16 15  2  0  0  0  0
 16 17  1  0  0  0  0
 17 18  2  0  0  0  0
 18 13  1  0  0  0  0
 18 40  1  0  0  0  0
 19  6  1  0  0  0  0
 19 24  1  0  0  0  0
 20 19  2  0  0  0  0
 21 20  1  0  0  0  0
 21 22  2  0  0  0  0
 22 23  1  0  0  0  0
 23 24  2  0  0  0  0
 23 44  1  0  0  0  0
 24 45  1  0  0  0  0
 25 26  1  0  0  0  0
 26 27  2  0  0  0  0
 26 46  1  0  0  0  0
 27 47  1  0  0  0  0
 28 48  1  0  0  0  0
 28 27  1  0  0  0  0
 29 28  2  0  0  0  0
 30 29  1  0  0  0  0
 30 25  2  0  0  0  0
 34 11  1  0  0  0  0
 35 12  1  0  0  0  0
 37 15  1  0  0  0  0
 38 16  1  0  0  0  0
 39 17  1  0  0  0  0
 41 20  1  0  0  0  0
 42 21  1  0  0  0  0
 43 22  1  0  0  0  0
 49 29  1  0  0  0  0
 50 30  1  0  0  0  0
M  CHG  1   1  -1
M  END
