1,5
 OpenBabel05122313053D

 23 22  0  0  0  0  0  0  0  0999 V2000
    0.8878    0.3519   -1.7171 O   0  5  0  0  0  0  0  0  0  0  0  0
    2.6733   -0.8902   -2.1739 O   0  0  0  0  0  0  0  0  0  0  0  0
    0.5982   -2.2769    0.2618 O   0  5  0  0  0  0  0  0  0  0  0  0
    0.6993   -0.8936    2.0583 O   0  0  0  0  0  0  0  0  0  0  0  0
    0.4187    2.5680    0.0414 C   0  0  0  0  0  3  0  0  0  0  0  0
    1.0138    1.6676    0.9536 C   0  0  0  0  0  3  0  0  0  0  0  0
    2.3384    0.9499    0.7883 C   0  0  0  0  0  0  0  0  0  0  0  0
    2.2320   -0.4861    0.1992 C   0  0  0  0  0  0  0  0  0  0  0  0
    1.9519   -0.3849   -1.3295 C   0  0  0  0  0  0  0  0  0  0  0  0
    1.0679   -1.2912    0.9140 C   0  0  0  0  0  0  0  0  0  0  0  0
    3.5427   -1.2803    0.4431 C   0  0  0  0  0  0  0  0  0  0  0  0
    4.7928   -0.5873   -0.0156 C   0  0  0  0  0  0  0  0  0  0  0  0
    5.7779   -0.1657    0.7982 C   0  0  0  0  0  0  0  0  0  0  0  0
    0.9290    2.8172   -0.9042 H   0  0  0  0  0  0  0  0  0  0  0  0
   -0.3304    3.2960    0.3941 H   0  0  0  0  0  0  0  0  0  0  0  0
    0.6335    1.6697    1.9892 H   0  0  0  0  0  0  0  0  0  0  0  0
    3.0283    1.5480    0.1590 H   0  0  0  0  0  0  0  0  0  0  0  0
    2.7976    0.8597    1.7922 H   0  0  0  0  0  0  0  0  0  0  0  0
    3.4229   -2.2436   -0.0947 H   0  0  0  0  0  0  0  0  0  0  0  0
    3.6069   -1.5010    1.5296 H   0  0  0  0  0  0  0  0  0  0  0  0
    4.8675   -0.4254   -1.1045 H   0  0  0  0  0  0  0  0  0  0  0  0
    5.7268   -0.3206    1.8900 H   0  0  0  0  0  0  0  0  0  0  0  0
    6.6765    0.3365    0.4061 H   0  0  0  0  0  0  0  0  0  0  0  0
  1  9  1  0  0  0  0
  2  9  2  0  0  0  0
  3 10  1  0  0  0  0
  5 15  1  0  0  0  0
  5  6  1  0  0  0  0
  6 16  1  0  0  0  0
  7  6  1  0  0  0  0
  7 18  1  0  0  0  0
  8 11  1  0  0  0  0
  8  7  1  0  0  0  0
  8 10  1  0  0  0  0
  9  8  1  0  0  0  0
 10  4  2  0  0  0  0
 11 20  1  0  0  0  0
 12 11  1  0  0  0  0
 12 13  2  0  0  0  0
 13 22  1  0  0  0  0
 14  5  1  0  0  0  0
 17  7  1  0  0  0  0
 19 11  1  0  0  0  0
 21 12  1  0  0  0  0
 23 13  1  0  0  0  0
M  CHG  2   1  -1   3  -1
M  END
