1,13
 OpenBabel05122313053D

 21 22  0  0  1  0  0  0  0  0999 V2000
    0.6031    1.7342   -0.8406 O   0  0  0  0  0  1  0  0  0  0  0  0
    1.7690    1.8453   -0.3917 C   0  0  1  0  0  3  0  0  0  0  0  0
    2.3430    0.7655    0.4651 C   0  0  2  0  0  0  0  0  0  0  0  0
    2.5779    1.2385    1.4446 H   0  0  0  0  0  0  0  0  0  0  0  0
    3.6784    0.1362   -0.1327 C   0  0  1  0  0  0  0  0  0  0  0  0
    4.3893    0.8807   -0.5352 H   0  0  0  0  0  0  0  0  0  0  0  0
    4.2070   -0.7866    0.9522 C   0  0  0  0  0  0  0  0  0  0  0  0
    5.0548   -0.5582    1.6129 H   0  0  0  0  0  0  0  0  0  0  0  0
    3.3682   -1.8452    1.0156 C   0  0  0  0  0  0  0  0  0  0  0  0
    3.3876   -2.6678    1.7447 H   0  0  0  0  0  0  0  0  0  0  0  0
    2.2686   -1.6258   -0.0174 C   0  0  1  0  0  0  0  0  0  0  0  0
    1.7004   -2.5258   -0.3140 H   0  0  0  0  0  0  0  0  0  0  0  0
    1.3978   -0.4760    0.5865 C   0  0  0  0  0  3  0  0  0  0  0  0
    1.1478   -0.6902    1.6408 H   0  0  0  0  0  0  0  0  0  0  0  0
    3.0654   -0.8849   -1.1152 C   0  0  0  0  0  0  0  0  0  0  0  0
    3.8326   -1.5232   -1.5926 H   0  0  0  0  0  0  0  0  0  0  0  0
    2.4347   -0.4212   -1.9026 H   0  0  0  0  0  0  0  0  0  0  0  0
    2.5634    3.0602   -0.7456 C   0  0  0  0  0  0  0  0  0  0  0  0
    1.9050    3.8788   -1.0878 H   0  0  0  0  0  0  0  0  0  0  0  0
    3.2460    2.7967   -1.5833 H   0  0  0  0  0  0  0  0  0  0  0  0
    3.2039    3.3871    0.0961 H   0  0  0  0  0  0  0  0  0  0  0  0
  2  1  1  6  0  0  0
  2  3  1  0  0  0  0
  3 13  1  0  0  0  0
  3  4  1  1  0  0  0
  5  6  1  6  0  0  0
  5  3  1  0  0  0  0
  5  7  1  0  0  0  0
  7  9  2  0  0  0  0
  7  8  1  0  0  0  0
  9 10  1  0  0  0  0
 11 12  1  6  0  0  0
 11 13  1  0  0  0  0
 11  9  1  0  0  0  0
 13 14  1  0  0  0  0
 15  5  1  0  0  0  0
 15 11  1  0  0  0  0
 16 15  1  0  0  0  0
 17 15  1  0  0  0  0
 18  2  1  0  0  0  0
 18 21  1  0  0  0  0
 19 18  1  0  0  0  0
 20 18  1  0  0  0  0
M  END
