1,6
 OpenBabel05122313053D

 40 41  0  0  1  0  0  0  0  0999 V2000
    0.8011   -0.9582   -0.5716 O   0  0  0  0  0  1  0  0  0  0  0  0
    0.4132    1.4423   -1.4250 C   0  0  2  0  0  3  0  0  0  0  0  0
    0.4098    2.0861   -0.1477 C   0  0  0  0  0  0  0  0  0  0  0  0
   -0.9430    2.4315    0.1671 C   0  0  0  0  0  0  0  0  0  0  0  0
   -1.7854    1.9965   -0.8996 C   0  0  2  0  0  3  0  0  0  0  0  0
   -0.9565    1.3252   -1.8904 C   0  0  2  0  0  3  0  0  0  0  0  0
   -1.4224    0.0795   -2.4592 C   0  0  0  0  0  3  0  0  0  0  0  0
   -3.2376    2.3139   -1.0905 C   0  0  0  0  0  0  0  0  0  0  0  0
   -1.3298    3.2735    1.3441 C   0  0  0  0  0  0  0  0  0  0  0  0
    1.5923    2.5256    0.6636 C   0  0  0  0  0  0  0  0  0  0  0  0
    1.5837    0.7628   -2.0732 C   0  0  0  0  0  0  0  0  0  0  0  0
    1.9442   -0.5514   -1.2910 C   0  0  2  0  0  0  0  0  0  0  0  0
    2.3035   -1.6836   -2.2724 C   0  0  0  0  0  0  0  0  0  0  0  0
    3.1228   -0.3202   -0.3311 C   0  0  0  0  0  0  0  0  0  0  0  0
    2.9724   -0.5015    1.0543 C   0  0  0  0  0  0  0  0  0  0  0  0
    4.0442   -0.2764    1.9322 C   0  0  0  0  0  0  0  0  0  0  0  0
    5.2897    0.1375    1.4372 C   0  0  0  0  0  0  0  0  0  0  0  0
    5.4536    0.3199    0.0541 C   0  0  0  0  0  0  0  0  0  0  0  0
    4.3808    0.0904   -0.8197 C   0  0  0  0  0  0  0  0  0  0  0  0
   -0.7509   -0.4789   -3.1319 H   0  0  0  0  0  0  0  0  0  0  0  0
   -2.4885   -0.0036   -2.7232 H   0  0  0  0  0  0  0  0  0  0  0  0
   -3.3472    3.1377   -1.8283 H   0  0  0  0  0  0  0  0  0  0  0  0
   -3.7256    2.6445   -0.1562 H   0  0  0  0  0  0  0  0  0  0  0  0
   -3.8105    1.4547   -1.4907 H   0  0  0  0  0  0  0  0  0  0  0  0
   -2.4235    3.2946    1.5085 H   0  0  0  0  0  0  0  0  0  0  0  0
   -0.8470    2.9233    2.2783 H   0  0  0  0  0  0  0  0  0  0  0  0
   -1.0017    4.3257    1.1934 H   0  0  0  0  0  0  0  0  0  0  0  0
    1.6139    3.6344    0.7465 H   0  0  0  0  0  0  0  0  0  0  0  0
    2.5485    2.1977    0.2185 H   0  0  0  0  0  0  0  0  0  0  0  0
    1.5636    2.1257    1.6974 H   0  0  0  0  0  0  0  0  0  0  0  0
    2.4564    1.4447   -2.1304 H   0  0  0  0  0  0  0  0  0  0  0  0
    1.3139    0.5053   -3.1162 H   0  0  0  0  0  0  0  0  0  0  0  0
    3.1645   -1.4101   -2.9143 H   0  0  0  0  0  0  0  0  0  0  0  0
    2.5615   -2.6041   -1.7132 H   0  0  0  0  0  0  0  0  0  0  0  0
    1.4310   -1.8962   -2.9219 H   0  0  0  0  0  0  0  0  0  0  0  0
    1.9891   -0.8071    1.4316 H   0  0  0  0  0  0  0  0  0  0  0  0
    3.9017   -0.4214    3.0146 H   0  0  0  0  0  0  0  0  0  0  0  0
    6.1306    0.3181    2.1240 H   0  0  0  0  0  0  0  0  0  0  0  0
    6.4257    0.6440   -0.3485 H   0  0  0  0  0  0  0  0  0  0  0  0
    4.5279    0.2417   -1.9010 H   0  0  0  0  0  0  0  0  0  0  0  0
  2 11  1  1  0  0  0
  2  3  1  0  0  0  0
  3  4  2  0  0  0  0
  3 10  1  0  0  0  0
  4  9  1  0  0  0  0
  5  8  1  6  0  0  0
  5  4  1  0  0  0  0
  6  7  1  1  0  0  0
  6  2  1  0  0  0  0
  6  5  1  0  0  0  0
  8 23  1  0  0  0  0
  9 25  1  0  0  0  0
  9 26  1  0  0  0  0
 10 28  1  0  0  0  0
 10 30  1  0  0  0  0
 11 12  1  0  0  0  0
 12  1  1  1  0  0  0
 12 14  1  0  0  0  0
 13 34  1  0  0  0  0
 13 12  1  0  0  0  0
 14 15  1  0  0  0  0
 15 36  1  0  0  0  0
 15 16  2  0  0  0  0
 16 37  1  0  0  0  0
 17 16  1  0  0  0  0
 17 38  1  0  0  0  0
 18 17  2  0  0  0  0
 19 14  2  0  0  0  0
 19 18  1  0  0  0  0
 20  7  1  0  0  0  0
 21  7  1  0  0  0  0
 22  8  1  0  0  0  0
 24  8  1  0  0  0  0
 27  9  1  0  0  0  0
 29 10  1  0  0  0  0
 31 11  1  0  0  0  0
 32 11  1  0  0  0  0
 33 13  1  0  0  0  0
 35 13  1  0  0  0  0
 39 18  1  0  0  0  0
 40 19  1  0  0  0  0
M  END
