1,4
 OpenBabel05122313053D

 34 35  0  0  0  0  0  0  0  0999 V2000
   -1.1308   -1.9715    0.1130 O   0  0  0  0  0  1  0  0  0  0  0  0
    0.2534   -2.2834    0.1487 C   0  0  0  0  0  0  0  0  0  0  0  0
    0.9805   -0.9364    0.0129 C   0  0  0  0  0  0  0  0  0  0  0  0
    0.1939    0.1762   -0.0958 C   0  0  0  0  0  3  0  0  0  0  0  0
    0.5936   -3.2064   -1.0358 C   0  0  0  0  0  0  0  0  0  0  0  0
    0.5397   -3.0054    1.4789 C   0  0  0  0  0  0  0  0  0  0  0  0
    2.4683   -0.9000   -0.0909 C   0  0  0  0  0  0  0  0  0  0  0  0
    3.0669   -0.4238   -1.2803 C   0  0  0  0  0  0  0  0  0  0  0  0
    4.4598   -0.3571   -1.4163 C   0  0  0  0  0  0  0  0  0  0  0  0
    5.2919   -0.7653   -0.3618 C   0  0  0  0  0  0  0  0  0  0  0  0
    4.7160   -1.2345    0.8291 C   0  0  0  0  0  0  0  0  0  0  0  0
    3.3213   -1.3024    0.9627 C   0  0  0  0  0  0  0  0  0  0  0  0
    0.7649    1.5401   -0.0606 C   0  0  0  0  0  0  0  0  0  0  0  0
    0.5231    2.5204   -1.0535 C   0  0  0  0  0  0  0  0  0  0  0  0
    1.0471    3.8168   -0.9443 C   0  0  0  0  0  0  0  0  0  0  0  0
    1.8185    4.1830    0.1695 C   0  0  0  0  0  0  0  0  0  0  0  0
    2.0699    3.2283    1.1683 C   0  0  0  0  0  0  0  0  0  0  0  0
    1.5553    1.9309    1.0522 C   0  0  0  0  0  0  0  0  0  0  0  0
   -0.0059   -4.1371   -0.9805 H   0  0  0  0  0  0  0  0  0  0  0  0
    0.3770   -2.6971   -1.9950 H   0  0  0  0  0  0  0  0  0  0  0  0
    1.6691   -3.4725   -1.0268 H   0  0  0  0  0  0  0  0  0  0  0  0
    1.5797   -3.3801    1.5263 H   0  0  0  0  0  0  0  0  0  0  0  0
    0.3625   -2.3310    2.3393 H   0  0  0  0  0  0  0  0  0  0  0  0
   -0.1444   -3.8732    1.5681 H   0  0  0  0  0  0  0  0  0  0  0  0
    2.4141   -0.0980   -2.1041 H   0  0  0  0  0  0  0  0  0  0  0  0
    4.8998    0.0186   -2.3530 H   0  0  0  0  0  0  0  0  0  0  0  0
    6.3864   -0.7125   -0.4654 H   0  0  0  0  0  0  0  0  0  0  0  0
    5.3590   -1.5427    1.6681 H   0  0  0  0  0  0  0  0  0  0  0  0
    2.8869   -1.6430    1.9133 H   0  0  0  0  0  0  0  0  0  0  0  0
   -0.0701    2.2619   -1.9401 H   0  0  0  0  0  0  0  0  0  0  0  0
    0.8494    4.5497   -1.7421 H   0  0  0  0  0  0  0  0  0  0  0  0
    2.2229    5.2027    0.2573 H   0  0  0  0  0  0  0  0  0  0  0  0
    2.6784    3.4948    2.0465 H   0  0  0  0  0  0  0  0  0  0  0  0
    1.7658    1.1874    1.8352 H   0  0  0  0  0  0  0  0  0  0  0  0
  1  2  1  0  0  0  0
  2  6  1  0  0  0  0
  3  2  1  0  0  0  0
  4 13  1  0  0  0  0
  4  3  2  0  0  0  0
  5 21  1  0  0  0  0
  5 19  1  0  0  0  0
  5  2  1  0  0  0  0
  6 22  1  0  0  0  0
  6 24  1  0  0  0  0
  6 23  1  0  0  0  0
  7  3  1  0  0  0  0
  7 12  1  0  0  0  0
  8  7  2  0  0  0  0
  9  8  1  0  0  0  0
  9 10  2  0  0  0  0
 10 11  1  0  0  0  0
 11 12  2  0  0  0  0
 11 28  1  0  0  0  0
 12 29  1  0  0  0  0
 13 18  1  0  0  0  0
 14 15  1  0  0  0  0
 14 13  2  0  0  0  0
 15 16  2  0  0  0  0
 16 32  1  0  0  0  0
 16 17  1  0  0  0  0
 17 33  1  0  0  0  0
 18 17  2  0  0  0  0
 18 34  1  0  0  0  0
 20  5  1  0  0  0  0
 25  8  1  0  0  0  0
 26  9  1  0  0  0  0
 27 10  1  0  0  0  0
 30 14  1  0  0  0  0
 31 15  1  0  0  0  0
M  END
