1,4
 OpenBabel05122313053D

 18 18  0  0  1  0  0  0  0  0999 V2000
    0.9295   -1.5503   -2.8069 O   0  0  0  0  0  1  0  0  0  0  0  0
    2.9958   -2.1672   -2.0100 N   0  0  0  0  0  0  0  0  0  0  0  0
    3.9111   -2.5079   -2.3085 H   0  0  0  0  0  0  0  0  0  0  0  0
    1.6913   -1.5246    0.0292 C   0  0  0  0  0  2  0  0  0  0  0  0
    1.6506   -1.6807    1.4377 C   0  0  0  0  0  0  0  0  0  0  0  0
    0.8531   -1.1809    2.0052 H   0  0  0  0  0  0  0  0  0  0  0  0
    2.5731   -2.4413    2.1700 C   0  0  0  0  0  0  0  0  0  0  0  0
    2.4677   -2.5259    3.2627 H   0  0  0  0  0  0  0  0  0  0  0  0
    3.6369   -3.0710    1.5079 C   0  0  0  0  0  0  0  0  0  0  0  0
    4.3804   -3.6645    2.0599 H   0  0  0  0  0  0  0  0  0  0  0  0
    3.7405   -2.9272    0.1226 C   0  0  0  0  0  0  0  0  0  0  0  0
    4.5651   -3.4201   -0.4201 H   0  0  0  0  0  0  0  0  0  0  0  0
    2.7835   -2.1817   -0.6056 C   0  0  1  0  0  3  0  0  0  0  0  0
    2.1055   -1.9267   -3.0005 C   0  0  2  0  0  3  0  0  0  0  0  0
    2.5813   -2.1291   -4.4190 C   0  0  0  0  0  0  0  0  0  0  0  0
    2.5516   -1.1551   -4.9468 H   0  0  0  0  0  0  0  0  0  0  0  0
    1.8688   -2.7982   -4.9390 H   0  0  0  0  0  0  0  0  0  0  0  0
    3.6013   -2.5518   -4.4897 H   0  0  0  0  0  0  0  0  0  0  0  0
  3  2  1  0  0  0  0
  4  5  1  0  0  0  0
  5  6  1  0  0  0  0
  5  7  2  0  0  0  0
  7  8  1  0  0  0  0
  9 10  1  0  0  0  0
  9  7  1  0  0  0  0
 11  9  2  0  0  0  0
 12 11  1  0  0  0  0
 13  2  1  6  0  0  0
 13  4  1  0  0  0  0
 13 11  1  0  0  0  0
 14  1  1  6  0  0  0
 14  2  1  0  0  0  0
 15 14  1  0  0  0  0
 16 15  1  0  0  0  0
 17 15  1  0  0  0  0
 18 15  1  0  0  0  0
M  END
