1,4
 OpenBabel05122313053D

 13 12  0  0  0  0  0  0  0  0999 V2000
   -1.7689    1.0045   -0.4002 O   0  5  0  0  0  0  0  0  0  0  0  0
   -3.9941    0.8537   -0.6295 O   0  0  0  0  0  0  0  0  0  0  0  0
    0.1479    0.8188   -2.3674 C   0  0  0  0  0  3  0  0  0  0  0  0
   -0.0488   -0.5923   -2.3765 C   0  0  0  0  0  3  0  0  0  0  0  0
   -1.1689   -1.2257   -1.7693 C   0  0  0  0  0  3  0  0  0  0  0  0
   -2.5817   -0.6947   -1.8632 C   0  0  0  0  0  0  0  0  0  0  0  0
   -2.8564    0.4722   -0.9011 C   0  0  0  0  0  0  0  0  0  0  0  0
   -0.7119    1.5020   -2.4533 H   0  0  0  0  0  0  0  0  0  0  0  0
    1.0905    1.1984   -2.7974 H   0  0  0  0  0  0  0  0  0  0  0  0
    0.7665   -1.2424   -2.7405 H   0  0  0  0  0  0  0  0  0  0  0  0
   -1.0885   -2.3239   -1.6910 H   0  0  0  0  0  0  0  0  0  0  0  0
   -3.3346   -1.4855   -1.6740 H   0  0  0  0  0  0  0  0  0  0  0  0
   -2.7983   -0.3179   -2.8879 H   0  0  0  0  0  0  0  0  0  0  0  0
  4  3  1  0  0  0  0
  4  5  1  0  0  0  0
  5 11  1  0  0  0  0
  6  5  1  0  0  0  0
  6 12  1  0  0  0  0
  6  7  1  0  0  0  0
  7  2  2  0  0  0  0
  7  1  1  0  0  0  0
  8  3  1  0  0  0  0
  9  3  1  0  0  0  0
 10  4  1  0  0  0  0
 13  6  1  0  0  0  0
M  CHG  1   1  -1
M  END
