1,2
 OpenBabel05122313053D

 20 20  0  0  0  0  0  0  0  0999 V2000
    0.0174   -1.7519    0.1046 O   0  5  0  0  0  0  0  0  0  0  0  0
   -0.7672    0.5657   -0.4391 C   0  0  0  0  0  2  0  0  0  0  0  0
   -1.7893   -0.3511   -0.1810 C   0  0  0  0  0  0  0  0  0  0  0  0
   -1.2590   -1.6442    0.1310 C   0  0  0  0  0  0  0  0  0  0  0  0
   -3.2305    0.0018   -0.1483 C   0  0  0  0  0  0  0  0  0  0  0  0
   -3.6639    1.1831    0.4977 C   0  0  0  0  0  0  0  0  0  0  0  0
   -5.0184    1.5414    0.5191 C   0  0  0  0  0  0  0  0  0  0  0  0
   -5.9763    0.7232   -0.1016 C   0  0  0  0  0  0  0  0  0  0  0  0
   -5.5636   -0.4519   -0.7489 C   0  0  0  0  0  0  0  0  0  0  0  0
   -4.2071   -0.8070   -0.7744 C   0  0  0  0  0  0  0  0  0  0  0  0
   -2.0529   -2.8555    0.5318 C   0  0  0  0  0  0  0  0  0  0  0  0
   -1.0829    1.6111   -0.6240 H   0  0  0  0  0  0  0  0  0  0  0  0
   -2.9191    1.8182    1.0016 H   0  0  0  0  0  0  0  0  0  0  0  0
   -5.3308    2.4638    1.0326 H   0  0  0  0  0  0  0  0  0  0  0  0
   -7.0408    1.0019   -0.0826 H   0  0  0  0  0  0  0  0  0  0  0  0
   -6.3041   -1.0946   -1.2495 H   0  0  0  0  0  0  0  0  0  0  0  0
   -3.8935   -1.7136   -1.3131 H   0  0  0  0  0  0  0  0  0  0  0  0
   -3.0002   -2.5796    1.0327 H   0  0  0  0  0  0  0  0  0  0  0  0
   -2.3145   -3.4589   -0.3639 H   0  0  0  0  0  0  0  0  0  0  0  0
   -1.4399   -3.4975    1.1927 H   0  0  0  0  0  0  0  0  0  0  0  0
  1  4  1  0  0  0  0
  2  3  1  0  0  0  0
  3  5  1  0  0  0  0
  3  4  2  0  0  0  0
  4 11  1  0  0  0  0
  5  6  1  0  0  0  0
  6  7  2  0  0  0  0
  6 13  1  0  0  0  0
  7 14  1  0  0  0  0
  8 15  1  0  0  0  0
  8  7  1  0  0  0  0
  9  8  2  0  0  0  0
 10  9  1  0  0  0  0
 10  5  2  0  0  0  0
 11 18  1  0  0  0  0
 11 20  1  0  0  0  0
 12  2  1  0  0  0  0
 16  9  1  0  0  0  0
 17 10  1  0  0  0  0
 19 11  1  0  0  0  0
M  CHG  1   1  -1
M  END
