5,7
 OpenBabel05122313053D

 13 13  0  0  0  0  0  0  0  0999 V2000
   -5.1827   -2.4470   -0.1640 F   0  0  0  0  0  0  0  0  0  0  0  0
   -6.2618    0.0212    0.0292 F   0  0  0  0  0  0  0  0  0  0  0  0
   -4.6463    2.2069    0.3353 F   0  0  0  0  0  0  0  0  0  0  0  0
   -1.9854    1.9608    0.4379 F   0  0  0  0  0  0  0  0  0  0  0  0
   -0.9620   -2.8402    0.0727 O   0  5  0  0  0  0  0  0  0  0  0  0
   -2.8802   -3.9811   -0.1370 O   0  0  0  0  0  0  0  0  0  0  0  0
   -2.0974   -0.4256    0.1211 C   0  0  0  0  0  0  0  0  0  0  0  0
   -2.9552   -1.5599   -0.0025 C   0  0  0  0  0  0  0  0  0  0  0  0
   -4.3517   -1.4090   -0.0403 C   0  0  0  0  0  0  0  0  0  0  0  0
   -4.9311   -0.1307    0.0641 C   0  0  0  0  0  0  0  0  0  0  0  0
   -4.1026    0.9888    0.2164 C   0  0  0  0  0  0  0  0  0  0  0  0
   -2.7050    0.8260    0.2548 C   0  0  0  0  0  0  0  0  0  0  0  0
   -2.2908   -2.9164   -0.0384 C   0  0  0  0  0  0  0  0  0  0  0  0
  1  9  1  0  0  0  0
  2 10  1  0  0  0  0
  6 13  2  0  0  0  0
  7 12  1  0  0  0  0
  8  7  2  0  0  0  0
  9  8  1  0  0  0  0
  9 10  2  0  0  0  0
 10 11  1  0  0  0  0
 11 12  2  0  0  0  0
 11  3  1  0  0  0  0
 12  4  1  0  0  0  0
 13  8  1  0  0  0  0
 13  5  1  0  0  0  0
M  CHG  1   5  -1
M  END
