1,8
 OpenBabel05122313053D

 35 37  0  0  1  0  0  0  0  0999 V2000
   -0.1416    0.4105   -0.6746 O   0  0  0  0  0  1  0  0  0  0  0  0
   -4.3312    2.7368   -0.5985 O   0  0  0  0  0  0  0  0  0  0  0  0
   -4.9086    2.4374    0.1330 H   0  0  0  0  0  0  0  0  0  0  0  0
    0.1456    2.2942    0.6376 N   0  0  0  0  0  0  0  0  0  0  0  0
   -0.3448    3.0522    1.1170 H   0  0  0  0  0  0  0  0  0  0  0  0
   -1.9638    1.6140   -0.0433 N   0  0  0  0  0  0  0  0  0  0  0  0
   -2.3670    2.5146    0.2472 H   0  0  0  0  0  0  0  0  0  0  0  0
    2.4106    1.4431    0.0440 C   0  0  0  0  0  2  0  0  0  0  0  0
    3.7497    1.8085   -0.1996 C   0  0  0  0  0  3  0  0  0  0  0  0
    4.4509    1.0722   -0.6167 H   0  0  0  0  0  0  0  0  0  0  0  0
    4.2453    3.0965    0.0605 C   0  0  0  0  0  0  0  0  0  0  0  0
    5.3015    3.3283   -0.1413 H   0  0  0  0  0  0  0  0  0  0  0  0
    3.3864    4.0766    0.5756 C   0  0  0  0  0  0  0  0  0  0  0  0
    3.7561    5.0871    0.8021 H   0  0  0  0  0  0  0  0  0  0  0  0
    2.0372    3.7683    0.7685 C   0  0  0  0  0  0  0  0  0  0  0  0
    1.3419    4.5450    1.1272 H   0  0  0  0  0  0  0  0  0  0  0  0
    1.5437    2.4768    0.4815 C   0  0  0  0  0  0  0  0  0  0  0  0
   -0.6266    1.4088   -0.0507 C   0  0  2  0  0  3  0  0  0  0  0  0
   -2.9338    0.7458   -0.6767 C   0  0  1  0  0  0  0  0  0  0  0  0
   -2.3996    0.1091   -1.4139 H   0  0  0  0  0  0  0  0  0  0  0  0
   -3.7673   -0.1131    0.2624 C   0  0  0  0  0  0  0  0  0  0  0  0
   -3.3960   -0.7509    1.4514 C   0  0  0  0  0  0  0  0  0  0  0  0
   -2.3785   -0.6366    1.8576 H   0  0  0  0  0  0  0  0  0  0  0  0
   -4.3579   -1.5145    2.1373 C   0  0  0  0  0  0  0  0  0  0  0  0
   -4.0901   -2.0177    3.0785 H   0  0  0  0  0  0  0  0  0  0  0  0
   -5.6669   -1.6256    1.6358 C   0  0  0  0  0  0  0  0  0  0  0  0
   -6.4111   -2.2208    2.1859 H   0  0  0  0  0  0  0  0  0  0  0  0
   -6.0419   -0.9669    0.4508 C   0  0  0  0  0  0  0  0  0  0  0  0
   -7.0746   -1.0407    0.0768 H   0  0  0  0  0  0  0  0  0  0  0  0
   -5.0858   -0.2044   -0.2332 C   0  0  0  0  0  0  0  0  0  0  0  0
   -5.2202    0.6185   -1.4997 C   0  0  0  0  0  0  0  0  0  0  0  0
   -6.1855    1.1544   -1.6008 H   0  0  0  0  0  0  0  0  0  0  0  0
   -5.1109   -0.0208   -2.4037 H   0  0  0  0  0  0  0  0  0  0  0  0
   -4.0321    1.5940   -1.3946 C   0  0  1  0  0  0  0  0  0  0  0  0
   -3.6837    1.9824   -2.3716 H   0  0  0  0  0  0  0  0  0  0  0  0
  2  3  1  0  0  0  0
  4  5  1  0  0  0  0
  6  7  1  0  0  0  0
  8 17  1  0  0  0  0
  9  8  1  0  0  0  0
  9 11  1  0  0  0  0
 10  9  1  0  0  0  0
 11 13  2  0  0  0  0
 12 11  1  0  0  0  0
 13 15  1  0  0  0  0
 13 14  1  0  0  0  0
 15 16  1  0  0  0  0
 17  4  1  0  0  0  0
 17 15  2  0  0  0  0
 18  1  1  1  0  0  0
 18  6  1  0  0  0  0
 18  4  1  0  0  0  0
 19 20  1  6  0  0  0
 19  6  1  0  0  0  0
 19 21  1  0  0  0  0
 21 22  1  0  0  0  0
 22 23  1  0  0  0  0
 22 24  2  0  0  0  0
 24 25  1  0  0  0  0
 26 24  1  0  0  0  0
 26 27  1  0  0  0  0
 28 26  2  0  0  0  0
 29 28  1  0  0  0  0
 30 21  2  0  0  0  0
 30 28  1  0  0  0  0
 31 34  1  0  0  0  0
 31 30  1  0  0  0  0
 32 31  1  0  0  0  0
 33 31  1  0  0  0  0
 34 35  1  6  0  0  0
 34 19  1  0  0  0  0
 34  2  1  0  0  0  0
M  END
