1,23
 OpenBabel05122313053D

 34 35  0  0  1  0  0  0  0  0999 V2000
    0.4590    1.5291    0.0983 O   0  0  0  0  0  1  0  0  0  0  0  0
   -0.8100    1.4703    0.7044 C   0  0  1  0  0  0  0  0  0  0  0  0
   -0.7095    1.7283    1.7859 H   0  0  0  0  0  0  0  0  0  0  0  0
   -1.8438    2.4575    0.0493 C   0  0  0  0  0  0  0  0  0  0  0  0
   -2.6108    1.5432   -0.9421 C   0  0  0  0  0  0  0  0  0  0  0  0
   -3.5916    1.9546   -1.2559 H   0  0  0  0  0  0  0  0  0  0  0  0
   -1.9960    1.4159   -1.8633 H   0  0  0  0  0  0  0  0  0  0  0  0
   -2.7089    0.2258   -0.2167 C   0  0  0  0  0  0  0  0  0  0  0  0
   -3.7515   -0.6323   -0.1958 C   0  0  0  0  0  0  0  0  0  0  0  0
   -4.6508   -0.3973   -0.7932 H   0  0  0  0  0  0  0  0  0  0  0  0
   -3.7153   -1.9392    0.5478 C   0  0  0  0  0  0  0  0  0  0  0  0
   -4.7272   -2.1994    0.9246 H   0  0  0  0  0  0  0  0  0  0  0  0
   -3.0724   -1.8251    1.4475 H   0  0  0  0  0  0  0  0  0  0  0  0
   -3.1831   -3.1293   -0.2819 C   0  0  0  0  0  0  0  0  0  0  0  0
   -3.0565   -3.9961    0.4046 H   0  0  0  0  0  0  0  0  0  0  0  0
   -3.9585   -3.4384   -1.0172 H   0  0  0  0  0  0  0  0  0  0  0  0
   -1.8732   -2.8912   -1.0502 C   0  0  0  0  0  0  0  0  0  0  0  0
   -2.0659   -2.1928   -1.8932 H   0  0  0  0  0  0  0  0  0  0  0  0
   -1.5963   -3.8592   -1.5212 H   0  0  0  0  0  0  0  0  0  0  0  0
   -0.6544   -2.3577   -0.2492 C   0  0  0  0  0  0  0  0  0  0  0  0
   -0.7178   -2.7131    0.8047 H   0  0  0  0  0  0  0  0  0  0  0  0
    0.2520   -2.8534   -0.6604 H   0  0  0  0  0  0  0  0  0  0  0  0
   -0.4167   -0.8453   -0.2982 C   0  0  0  0  0  3  0  0  0  0  0  0
   -0.5413   -0.5305   -1.3538 H   0  0  0  0  0  0  0  0  0  0  0  0
   -1.4003    0.0282    0.5263 C   0  0  1  0  0  0  0  0  0  0  0  0
   -1.5803   -0.4437    1.5140 H   0  0  0  0  0  0  0  0  0  0  0  0
   -2.8120    2.9400    1.1424 C   0  0  0  0  0  0  0  0  0  0  0  0
   -2.2778    3.5288    1.9165 H   0  0  0  0  0  0  0  0  0  0  0  0
   -3.3128    2.0861    1.6437 H   0  0  0  0  0  0  0  0  0  0  0  0
   -3.6052    3.5845    0.7100 H   0  0  0  0  0  0  0  0  0  0  0  0
   -1.1668    3.6464   -0.6320 C   0  0  0  0  0  0  0  0  0  0  0  0
   -1.9205    4.2971   -1.1220 H   0  0  0  0  0  0  0  0  0  0  0  0
   -0.4433    3.3037   -1.3967 H   0  0  0  0  0  0  0  0  0  0  0  0
   -0.6084    4.2646    0.1008 H   0  0  0  0  0  0  0  0  0  0  0  0
  1  2  1  0  0  0  0
  2  3  1  1  0  0  0
  4  2  1  0  0  0  0
  4 27  1  0  0  0  0
  5  8  1  0  0  0  0
  5  4  1  0  0  0  0
  6  5  1  0  0  0  0
  7  5  1  0  0  0  0
  8  9  2  0  0  0  0
  8 25  1  0  0  0  0
  9 11  1  0  0  0  0
 10  9  1  0  0  0  0
 11 12  1  0  0  0  0
 11 13  1  0  0  0  0
 14 15  1  0  0  0  0
 14 11  1  0  0  0  0
 16 14  1  0  0  0  0
 17 14  1  0  0  0  0
 17 20  1  0  0  0  0
 18 17  1  0  0  0  0
 19 17  1  0  0  0  0
 20 21  1  0  0  0  0
 22 20  1  0  0  0  0
 23 20  1  0  0  0  0
 23 25  1  0  0  0  0
 24 23  1  0  0  0  0
 25  2  1  0  0  0  0
 25 26  1  1  0  0  0
 27 29  1  0  0  0  0
 27 28  1  0  0  0  0
 30 27  1  0  0  0  0
 31  4  1  0  0  0  0
 31 34  1  0  0  0  0
 32 31  1  0  0  0  0
 33 31  1  0  0  0  0
M  END
