1,15
 OpenBabel05122313053D

 29 30  0  0  1  0  0  0  0  0999 V2000
    2.0752   -1.4634    0.1299 C   0  0  0  0  0  3  0  0  0  0  0  0
    2.4877   -0.1124    0.4199 C   0  0  0  0  0  0  0  0  0  0  0  0
    3.8159    0.1796    0.8297 C   0  0  0  0  0  0  0  0  0  0  0  0
    4.0904    1.2041    1.1207 H   0  0  0  0  0  0  0  0  0  0  0  0
    4.7653   -0.8352    0.9017 C   0  0  0  0  0  0  0  0  0  0  0  0
    5.7921   -0.6080    1.2291 H   0  0  0  0  0  0  0  0  0  0  0  0
    4.4144   -2.1696    0.5642 C   0  0  0  0  0  0  0  0  0  0  0  0
    3.0872   -2.4523    0.1951 C   0  0  0  0  0  0  0  0  0  0  0  0
    2.8272   -3.4996   -0.0335 H   0  0  0  0  0  0  0  0  0  0  0  0
    5.4546   -3.2580    0.6253 C   0  0  0  0  0  0  0  0  0  0  0  0
    5.0238   -4.2504    0.3907 H   0  0  0  0  0  0  0  0  0  0  0  0
    5.9219   -3.3128    1.6310 H   0  0  0  0  0  0  0  0  0  0  0  0
    6.2784   -3.0635   -0.0940 H   0  0  0  0  0  0  0  0  0  0  0  0
    1.4176    0.8685    0.3232 C   0  0  2  0  0  3  0  0  0  0  0  0
    0.2378    0.4375    0.1339 O   0  0  0  0  0  1  0  0  0  0  0  0
    1.5737    2.3398    0.4062 C   0  0  0  0  0  0  0  0  0  0  0  0
    0.5040    3.0975    0.9356 C   0  0  0  0  0  0  0  0  0  0  0  0
   -0.3756    2.5645    1.3230 H   0  0  0  0  0  0  0  0  0  0  0  0
    0.5709    4.4910    0.9696 C   0  0  0  0  0  0  0  0  0  0  0  0
   -0.2673    5.0629    1.3991 H   0  0  0  0  0  0  0  0  0  0  0  0
    1.6911    5.1829    0.4559 C   0  0  0  0  0  0  0  0  0  0  0  0
    2.7401    4.4224   -0.0970 C   0  0  0  0  0  0  0  0  0  0  0  0
    3.6095    4.9399   -0.5326 H   0  0  0  0  0  0  0  0  0  0  0  0
    2.6895    3.0224   -0.1210 C   0  0  0  0  0  0  0  0  0  0  0  0
    3.4978    2.4577   -0.6053 H   0  0  0  0  0  0  0  0  0  0  0  0
    1.7553    6.6874    0.5069 C   0  0  0  0  0  0  0  0  0  0  0  0
    2.5797    7.0853   -0.1159 H   0  0  0  0  0  0  0  0  0  0  0  0
    1.9200    7.0435    1.5464 H   0  0  0  0  0  0  0  0  0  0  0  0
    0.8066    7.1458    0.1602 H   0  0  0  0  0  0  0  0  0  0  0  0
  1  8  2  0  0  0  0
  1  2  1  0  0  0  0
  2  3  2  0  0  0  0
  3  5  1  0  0  0  0
  3  4  1  0  0  0  0
  5  6  1  0  0  0  0
  7 10  1  0  0  0  0
  7  5  2  0  0  0  0
  8  7  1  0  0  0  0
  9  8  1  0  0  0  0
 10 12  1  0  0  0  0
 11 10  1  0  0  0  0
 13 10  1  0  0  0  0
 14 15  1  6  0  0  0
 14 16  1  0  0  0  0
 14  2  1  0  0  0  0
 16 17  1  0  0  0  0
 17 19  2  0  0  0  0
 17 18  1  0  0  0  0
 19 20  1  0  0  0  0
 21 26  1  0  0  0  0
 21 19  1  0  0  0  0
 22 21  2  0  0  0  0
 23 22  1  0  0  0  0
 24 22  1  0  0  0  0
 24 16  2  0  0  0  0
 25 24  1  0  0  0  0
 26 28  1  0  0  0  0
 27 26  1  0  0  0  0
 29 26  1  0  0  0  0
M  END
