1,3
 OpenBabel05122313053D

 28 28  0  0  0  0  0  0  0  0999 V2000
    0.4137    0.7548    0.0001 O   0  5  0  0  0  0  0  0  0  0  0  0
   -0.1099   -3.1210    0.0012 O   0  0  0  0  0  0  0  0  0  0  0  0
    0.1096   -1.9110    0.0007 C   0  0  0  0  0  3  0  0  0  0  0  0
    1.4750   -1.3397    0.0005 C   0  0  0  0  0  0  0  0  0  0  0  0
    2.6357   -2.1430    0.0007 C   0  0  0  0  0  0  0  0  0  0  0  0
    2.5095   -3.2378    0.0010 H   0  0  0  0  0  0  0  0  0  0  0  0
    3.8984   -1.5492    0.0006 C   0  0  0  0  0  0  0  0  0  0  0  0
    3.9610   -0.1280    0.0004 C   0  0  0  0  0  0  0  0  0  0  0  0
    4.9623    0.3289    0.0004 H   0  0  0  0  0  0  0  0  0  0  0  0
    2.8425    0.7141    0.0002 C   0  0  0  0  0  0  0  0  0  0  0  0
    1.5439    0.0836    0.0002 C   0  0  0  0  0  0  0  0  0  0  0  0
    5.1692   -2.3638    0.0001 C   0  0  0  0  0  0  0  0  0  0  0  0
    5.8008   -2.1433    0.8876 H   0  0  0  0  0  0  0  0  0  0  0  0
    4.9521   -3.4499    0.0059 H   0  0  0  0  0  0  0  0  0  0  0  0
    5.7947   -2.1518   -0.8938 H   0  0  0  0  0  0  0  0  0  0  0  0
    2.9626    2.2462   -0.0000 C   0  0  0  0  0  0  0  0  0  0  0  0
    4.4243    2.7241   -0.0001 C   0  0  0  0  0  0  0  0  0  0  0  0
    4.4531    3.8329   -0.0002 H   0  0  0  0  0  0  0  0  0  0  0  0
    4.9742    2.3753   -0.8978 H   0  0  0  0  0  0  0  0  0  0  0  0
    4.9741    2.3756    0.8978 H   0  0  0  0  0  0  0  0  0  0  0  0
    2.2721    2.8072   -1.2651 C   0  0  0  0  0  0  0  0  0  0  0  0
    2.2959    3.9174   -1.2664 H   0  0  0  0  0  0  0  0  0  0  0  0
    1.2197    2.4693   -1.3041 H   0  0  0  0  0  0  0  0  0  0  0  0
    2.7851    2.4501   -2.1813 H   0  0  0  0  0  0  0  0  0  0  0  0
    2.2720    2.8075    1.2649 C   0  0  0  0  0  0  0  0  0  0  0  0
    2.2959    3.9178    1.2659 H   0  0  0  0  0  0  0  0  0  0  0  0
    2.7850    2.4507    2.1812 H   0  0  0  0  0  0  0  0  0  0  0  0
    1.2197    2.4697    1.3039 H   0  0  0  0  0  0  0  0  0  0  0  0
  1 11  1  0  0  0  0
  3  2  2  0  0  0  0
  4  3  1  0  0  0  0
  4  5  1  0  0  0  0
  5  6  1  0  0  0  0
  7  5  2  0  0  0  0
  8  9  1  0  0  0  0
  8  7  1  0  0  0  0
 10 11  1  0  0  0  0
 10  8  2  0  0  0  0
 11  4  2  0  0  0  0
 12  7  1  0  0  0  0
 12 14  1  0  0  0  0
 12 13  1  0  0  0  0
 15 12  1  0  0  0  0
 16 10  1  0  0  0  0
 16 25  1  0  0  0  0
 17 16  1  0  0  0  0
 17 20  1  0  0  0  0
 18 17  1  0  0  0  0
 19 17  1  0  0  0  0
 21 16  1  0  0  0  0
 22 21  1  0  0  0  0
 23 21  1  0  0  0  0
 24 21  1  0  0  0  0
 25 26  1  0  0  0  0
 25 28  1  0  0  0  0
 25 27  1  0  0  0  0
M  CHG  1   1  -1
M  END
