2,13
 OpenBabel05122313053D

 17 17  0  0  0  0  0  0  0  0999 V2000
   -1.1663    0.1283   -2.9692 O   0  0  0  0  0  0  0  0  0  0  0  0
   -0.7905   -0.0485    0.9098 O   0  5  0  0  0  0  0  0  0  0  0  0
   -2.9931    0.0254    2.7887 O   0  0  0  0  0  0  0  0  0  0  0  0
   -2.3332   -0.0093   -0.8795 C   0  0  0  0  0  0  0  0  0  0  0  0
   -3.6607    0.0336   -1.3781 C   0  0  0  0  0  0  0  0  0  0  0  0
   -3.8210    0.0751   -2.4652 H   0  0  0  0  0  0  0  0  0  0  0  0
   -4.7143    0.0370   -0.4697 C   0  0  0  0  0  0  0  0  0  0  0  0
   -5.7561    0.0698   -0.8212 H   0  0  0  0  0  0  0  0  0  0  0  0
   -4.4480   -0.0047    0.9211 C   0  0  0  0  0  0  0  0  0  0  0  0
   -5.2708    0.0069    1.6519 H   0  0  0  0  0  0  0  0  0  0  0  0
   -3.1474   -0.0414    1.4348 C   0  0  0  0  0  0  0  0  0  0  0  0
   -2.0367   -0.0500    0.5160 C   0  0  0  0  0  0  0  0  0  0  0  0
   -1.1621    0.0639   -1.7573 C   0  0  0  0  0  3  0  0  0  0  0  0
   -2.0025   -0.7963    3.4074 C   0  0  0  0  0  0  0  0  0  0  0  0
   -2.1897   -1.8732    3.1909 H   0  0  0  0  0  0  0  0  0  0  0  0
   -2.1080   -0.6332    4.4968 H   0  0  0  0  0  0  0  0  0  0  0  0
   -0.9778   -0.5353    3.0770 H   0  0  0  0  0  0  0  0  0  0  0  0
  1 13  2  0  0  0  0
  3 14  1  0  0  0  0
  4 12  1  0  0  0  0
  5  4  2  0  0  0  0
  5  7  1  0  0  0  0
  6  5  1  0  0  0  0
  7  9  2  0  0  0  0
  8  7  1  0  0  0  0
  9 11  1  0  0  0  0
  9 10  1  0  0  0  0
 11  3  1  0  0  0  0
 12  2  1  0  0  0  0
 12 11  2  0  0  0  0
 13  4  1  0  0  0  0
 14 16  1  0  0  0  0
 15 14  1  0  0  0  0
 17 14  1  0  0  0  0
M  CHG  1   2  -1
M  END
