1,13
 OpenBabel05122313053D

 25 26  0  0  0  0  0  0  0  0999 V2000
   -0.4717    1.9845    0.0526 O   0  5  0  0  0  0  0  0  0  0  0  0
   -1.7543    2.2645   -0.0584 C   0  0  0  0  0  0  0  0  0  0  0  0
   -2.1012    3.6461   -0.1191 C   0  0  0  0  0  0  0  0  0  0  0  0
   -1.2770    4.3721   -0.0544 H   0  0  0  0  0  0  0  0  0  0  0  0
   -3.4217    4.0616   -0.2659 C   0  0  0  0  0  0  0  0  0  0  0  0
   -3.6528    5.1373   -0.3150 H   0  0  0  0  0  0  0  0  0  0  0  0
   -4.4548    3.1061   -0.3623 C   0  0  0  0  0  0  0  0  0  0  0  0
   -5.4995    3.4232   -0.4971 H   0  0  0  0  0  0  0  0  0  0  0  0
   -4.1391    1.7493   -0.2900 C   0  0  0  0  0  3  0  0  0  0  0  0
   -4.9443    1.0055   -0.3738 H   0  0  0  0  0  0  0  0  0  0  0  0
   -2.8080    1.2824   -0.1209 C   0  0  0  0  0  0  0  0  0  0  0  0
   -2.5160   -0.1503   -0.0347 C   0  0  0  0  0  0  0  0  0  0  0  0
   -1.2625   -0.7080    0.0028 C   0  0  0  0  0  2  0  0  0  0  0  0
   -1.2272   -1.8124    0.0911 H   0  0  0  0  0  0  0  0  0  0  0  0
   -3.6628   -1.1130    0.0440 C   0  0  0  0  0  0  0  0  0  0  0  0
   -4.5637   -1.0856    1.1327 C   0  0  0  0  0  0  0  0  0  0  0  0
   -4.4373   -0.3171    1.9105 H   0  0  0  0  0  0  0  0  0  0  0  0
   -5.5979   -2.0267    1.2323 C   0  0  0  0  0  0  0  0  0  0  0  0
   -6.2845   -1.9933    2.0925 H   0  0  0  0  0  0  0  0  0  0  0  0
   -5.7568   -3.0125    0.2438 C   0  0  0  0  0  0  0  0  0  0  0  0
   -6.5714   -3.7488    0.3214 H   0  0  0  0  0  0  0  0  0  0  0  0
   -4.8708   -3.0495   -0.8439 C   0  0  0  0  0  0  0  0  0  0  0  0
   -4.9910   -3.8137   -1.6276 H   0  0  0  0  0  0  0  0  0  0  0  0
   -3.8338   -2.1087   -0.9415 C   0  0  0  0  0  0  0  0  0  0  0  0
   -3.1434   -2.1281   -1.7988 H   0  0  0  0  0  0  0  0  0  0  0  0
  2  1  1  0  0  0  0
  3  2  2  0  0  0  0
  3  4  1  0  0  0  0
  5  3  1  0  0  0  0
  6  5  1  0  0  0  0
  7  9  1  0  0  0  0
  7  5  2  0  0  0  0
  8  7  1  0  0  0  0
  9 11  1  0  0  0  0
 10  9  1  0  0  0  0
 11  2  1  0  0  0  0
 11 12  2  0  0  0  0
 12 13  1  0  0  0  0
 12 15  1  0  0  0  0
 13 14  1  0  0  0  0
 15 16  1  0  0  0  0
 16 18  2  0  0  0  0
 16 17  1  0  0  0  0
 18 19  1  0  0  0  0
 20 21  1  0  0  0  0
 20 18  1  0  0  0  0
 22 20  2  0  0  0  0
 23 22  1  0  0  0  0
 24 22  1  0  0  0  0
 24 15  2  0  0  0  0
 25 24  1  0  0  0  0
M  CHG  1   1  -1
M  END
