2,3
 OpenBabel05122313053D

 51 53  0  0  1  0  0  0  0  0999 V2000
   -0.2867    0.9447    0.1203 P   0  0  0  0  0  0  0  0  0  0  0  0
   -0.6279   -1.5355    1.4467 O   0  0  0  0  0  1  0  0  0  0  0  0
    1.0153   -1.2702   -0.7081 C   0  0  0  0  0  3  0  0  0  0  0  0
    1.8002   -0.6652    0.2276 C   0  0  0  0  0  0  0  0  0  0  0  0
    1.0343    0.1695    1.2931 C   0  0  2  0  0  0  0  0  0  0  0  0
    0.2854   -0.9041    2.0432 C   0  0  2  0  0  3  0  0  0  0  0  0
    1.8513    1.1373    2.1346 C   0  0  0  0  0  0  0  0  0  0  0  0
    0.6476   -1.2762    3.4486 C   0  0  0  0  0  0  0  0  0  0  0  0
   -0.1391   -2.4456    4.0292 C   0  0  0  0  0  0  0  0  0  0  0  0
   -1.4409    2.0190    1.0515 C   0  0  0  0  0  0  0  0  0  0  0  0
   -1.9490    1.5821    2.2961 C   0  0  0  0  0  0  0  0  0  0  0  0
   -2.9085    2.3433    2.9765 C   0  0  0  0  0  0  0  0  0  0  0  0
   -3.3864    3.5403    2.4173 C   0  0  0  0  0  0  0  0  0  0  0  0
   -2.9007    3.9727    1.1738 C   0  0  0  0  0  0  0  0  0  0  0  0
   -1.9326    3.2196    0.4921 C   0  0  0  0  0  0  0  0  0  0  0  0
    0.6751    2.0610   -0.9559 C   0  0  0  0  0  0  0  0  0  0  0  0
    1.1502    3.3012   -0.4731 C   0  0  0  0  0  0  0  0  0  0  0  0
    1.9687    4.1007   -1.2841 C   0  0  0  0  0  0  0  0  0  0  0  0
    2.3127    3.6746   -2.5778 C   0  0  0  0  0  0  0  0  0  0  0  0
    1.8369    2.4461   -3.0634 C   0  0  0  0  0  0  0  0  0  0  0  0
    1.0232    1.6393   -2.2554 C   0  0  0  0  0  0  0  0  0  0  0  0
    3.2809   -0.7584    0.3204 C   0  0  0  0  0  0  0  0  0  0  0  0
    4.0949    0.2962   -0.1515 C   0  0  0  0  0  0  0  0  0  0  0  0
    5.4915    0.2086   -0.0642 C   0  0  0  0  0  0  0  0  0  0  0  0
    6.0948   -0.9290    0.4967 C   0  0  0  0  0  0  0  0  0  0  0  0
    5.2960   -1.9842    0.9641 C   0  0  0  0  0  0  0  0  0  0  0  0
    3.8979   -1.8997    0.8772 C   0  0  0  0  0  0  0  0  0  0  0  0
    1.5052   -1.8441   -1.5162 H   0  0  0  0  0  0  0  0  0  0  0  0
    2.3806    1.8618    1.4893 H   0  0  0  0  0  0  0  0  0  0  0  0
    1.2063    1.7012    2.8373 H   0  0  0  0  0  0  0  0  0  0  0  0
    2.6302    0.6056    2.7152 H   0  0  0  0  0  0  0  0  0  0  0  0
    0.5525   -0.3605    4.0754 H   0  0  0  0  0  0  0  0  0  0  0  0
    1.7440   -1.4785    3.4437 H   0  0  0  0  0  0  0  0  0  0  0  0
   -0.0015   -3.3607    3.4211 H   0  0  0  0  0  0  0  0  0  0  0  0
   -1.2245   -2.2264    4.0569 H   0  0  0  0  0  0  0  0  0  0  0  0
    0.1953   -2.6621    5.0612 H   0  0  0  0  0  0  0  0  0  0  0  0
   -1.6058    0.6358    2.7390 H   0  0  0  0  0  0  0  0  0  0  0  0
   -3.2876    1.9991    3.9503 H   0  0  0  0  0  0  0  0  0  0  0  0
   -4.1400    4.1364    2.9530 H   0  0  0  0  0  0  0  0  0  0  0  0
   -3.2746    4.9071    0.7293 H   0  0  0  0  0  0  0  0  0  0  0  0
   -1.5587    3.5701   -0.4809 H   0  0  0  0  0  0  0  0  0  0  0  0
    0.8812    3.6457    0.5363 H   0  0  0  0  0  0  0  0  0  0  0  0
    2.3395    5.0636   -0.9025 H   0  0  0  0  0  0  0  0  0  0  0  0
    2.9537    4.3057   -3.2113 H   0  0  0  0  0  0  0  0  0  0  0  0
    2.1060    2.1113   -4.0761 H   0  0  0  0  0  0  0  0  0  0  0  0
    0.6629    0.6645   -2.6139 H   0  0  0  0  0  0  0  0  0  0  0  0
    3.6232    1.1809   -0.6068 H   0  0  0  0  0  0  0  0  0  0  0  0
    6.1151    1.0327   -0.4424 H   0  0  0  0  0  0  0  0  0  0  0  0
    7.1910   -0.9952    0.5645 H   0  0  0  0  0  0  0  0  0  0  0  0
    5.7644   -2.8813    1.3962 H   0  0  0  0  0  0  0  0  0  0  0  0
    3.2683   -2.7295    1.2347 H   0  0  0  0  0  0  0  0  0  0  0  0
  1 10  1  0  0  0  0
  1  5  1  0  0  0  0
  3  4  2  0  0  0  0
  4 22  1  0  0  0  0
  5  4  1  6  0  0  0
  5  6  1  0  0  0  0
  5  7  1  0  0  0  0
  6  2  1  6  0  0  0
  6  8  1  0  0  0  0
  7 31  1  0  0  0  0
  7 30  1  0  0  0  0
  8  9  1  0  0  0  0
  8 32  1  0  0  0  0
  9 35  1  0  0  0  0
  9 36  1  0  0  0  0
 10 11  1  0  0  0  0
 11 37  1  0  0  0  0
 11 12  2  0  0  0  0
 12 38  1  0  0  0  0
 13 39  1  0  0  0  0
 13 12  1  0  0  0  0
 14 13  2  0  0  0  0
 15 10  2  0  0  0  0
 15 14  1  0  0  0  0
 16 17  1  0  0  0  0
 16  1  1  0  0  0  0
 17 42  1  0  0  0  0
 18 43  1  0  0  0  0
 18 17  2  0  0  0  0
 19 18  1  0  0  0  0
 20 19  2  0  0  0  0
 20 21  1  0  0  0  0
 21 16  2  0  0  0  0
 22 27  1  0  0  0  0
 23 24  1  0  0  0  0
 23 22  2  0  0  0  0
 24 25  2  0  0  0  0
 25 49  1  0  0  0  0
 25 26  1  0  0  0  0
 26 50  1  0  0  0  0
 27 26  2  0  0  0  0
 27 51  1  0  0  0  0
 28  3  1  0  0  0  0
 29  7  1  0  0  0  0
 33  8  1  0  0  0  0
 34  9  1  0  0  0  0
 40 14  1  0  0  0  0
 41 15  1  0  0  0  0
 44 19  1  0  0  0  0
 45 20  1  0  0  0  0
 46 21  1  0  0  0  0
 47 23  1  0  0  0  0
 48 24  1  0  0  0  0
M  END
