1,6
 OpenBabel05122313053D

 28 29  0  0  0  0  0  0  0  0999 V2000
    0.5655    0.1634   -2.1592 O   0  5  0  0  0  0  0  0  0  0  0  0
    2.6075    0.8829   -2.8219 O   0  0  0  0  0  0  0  0  0  0  0  0
    3.5141    2.1191    1.7249 O   0  0  0  0  0  0  0  0  0  0  0  0
    1.5867    1.7717   -0.9483 N   0  0  0  0  0  0  0  0  0  0  0  0
    1.6429    0.9172   -2.0519 C   0  0  0  0  0  0  0  0  0  0  0  0
    0.4903    1.5955   -0.0267 C   0  0  0  0  0  3  0  0  0  0  0  0
    0.8596    1.7291    1.0114 H   0  0  0  0  0  0  0  0  0  0  0  0
   -0.7152    2.4600   -0.2584 C   0  0  0  0  0  0  0  0  0  0  0  0
   -1.2429    2.6634   -1.5591 C   0  0  0  0  0  0  0  0  0  0  0  0
   -0.7428    2.1866   -2.4140 H   0  0  0  0  0  0  0  0  0  0  0  0
   -2.3949    3.4348   -1.7555 C   0  0  0  0  0  0  0  0  0  0  0  0
   -2.7871    3.5713   -2.7752 H   0  0  0  0  0  0  0  0  0  0  0  0
   -3.0520    4.0330   -0.6655 C   0  0  0  0  0  0  0  0  0  0  0  0
   -3.9571    4.6386   -0.8246 H   0  0  0  0  0  0  0  0  0  0  0  0
   -2.5287    3.8624    0.6263 C   0  0  0  0  0  0  0  0  0  0  0  0
   -3.0131    4.3485    1.4877 H   0  0  0  0  0  0  0  0  0  0  0  0
   -1.3756    3.0883    0.8233 C   0  0  0  0  0  0  0  0  0  0  0  0
   -0.9596    2.9874    1.8370 H   0  0  0  0  0  0  0  0  0  0  0  0
    2.7641    2.5405   -0.5827 C   0  0  0  0  0  0  0  0  0  0  0  0
    2.4625    3.5241   -0.1666 H   0  0  0  0  0  0  0  0  0  0  0  0
    3.3236    2.7031   -1.5253 H   0  0  0  0  0  0  0  0  0  0  0  0
    3.6584    1.8313    0.3876 C   0  0  0  0  0  0  0  0  0  0  0  0
    4.5945    0.8313    0.2310 C   0  0  0  0  0  0  0  0  0  0  0  0
    4.8969    0.4007   -0.7297 H   0  0  0  0  0  0  0  0  0  0  0  0
    5.0569    0.4914    1.5468 C   0  0  0  0  0  0  0  0  0  0  0  0
    5.8129   -0.2545    1.8167 H   0  0  0  0  0  0  0  0  0  0  0  0
    4.3694    1.3064    2.4158 C   0  0  0  0  0  0  0  0  0  0  0  0
    4.3813    1.4369    3.5025 H   0  0  0  0  0  0  0  0  0  0  0  0
  1  5  1  0  0  0  0
  2  5  2  0  0  0  0
  3 27  1  0  0  0  0
  4 19  1  0  0  0  0
  4  6  1  0  0  0  0
  5  4  1  0  0  0  0
  6  7  1  0  0  0  0
  8  6  1  0  0  0  0
  8 17  1  0  0  0  0
  9  8  2  0  0  0  0
 10  9  1  0  0  0  0
 11  9  1  0  0  0  0
 11 13  2  0  0  0  0
 12 11  1  0  0  0  0
 13 15  1  0  0  0  0
 14 13  1  0  0  0  0
 15 17  2  0  0  0  0
 15 16  1  0  0  0  0
 17 18  1  0  0  0  0
 19 20  1  0  0  0  0
 19 22  1  0  0  0  0
 21 19  1  0  0  0  0
 22  3  1  0  0  0  0
 23 22  2  0  0  0  0
 23 25  1  0  0  0  0
 24 23  1  0  0  0  0
 25 26  1  0  0  0  0
 25 27  2  0  0  0  0
 27 28  1  0  0  0  0
M  CHG  1   1  -1
M  END
