2,3
 OpenBabel05122313053D

 62 63  0  0  1  0  0  0  0  0999 V2000
   -0.6005    2.3881    0.0810 Si  0  0  0  0  0  0  0  0  0  0  0  0
   -0.8246   -0.8221    0.0879 O   0  5  0  0  0  0  0  0  0  0  0  0
    1.0126    1.4406    0.4325 C   0  0  1  0  0  3  0  0  0  0  0  0
    2.2468    1.3409   -0.3227 C   0  0  0  0  0  0  0  0  0  0  0  0
    3.1520    0.4968    0.3990 C   0  0  0  0  0  0  0  0  0  0  0  0
    2.5079    0.0790    1.6125 C   0  0  0  0  0  0  0  0  0  0  0  0
    1.1962    0.6604    1.6399 C   0  0  0  0  0  0  0  0  0  0  0  0
    2.6135    2.0414   -1.5943 C   0  0  0  0  0  0  0  0  0  0  0  0
    3.2620    1.4058   -2.2266 H   0  0  0  0  0  0  0  0  0  0  0  0
    3.1758    2.9701   -1.3580 H   0  0  0  0  0  0  0  0  0  0  0  0
    1.7258    2.3078   -2.1896 H   0  0  0  0  0  0  0  0  0  0  0  0
    4.5649    0.1940    0.0180 C   0  0  0  0  0  0  0  0  0  0  0  0
    4.6886    0.1432   -1.0794 H   0  0  0  0  0  0  0  0  0  0  0  0
    4.9009   -0.7731    0.4358 H   0  0  0  0  0  0  0  0  0  0  0  0
    5.2382    0.9890    0.4052 H   0  0  0  0  0  0  0  0  0  0  0  0
    3.1468   -0.7239    2.6989 C   0  0  0  0  0  0  0  0  0  0  0  0
    3.8277   -1.4942    2.2906 H   0  0  0  0  0  0  0  0  0  0  0  0
    2.3947   -1.2387    3.3237 H   0  0  0  0  0  0  0  0  0  0  0  0
    3.7425   -0.0533    3.3551 H   0  0  0  0  0  0  0  0  0  0  0  0
    0.2075    0.4842    2.7544 C   0  0  0  0  0  0  0  0  0  0  0  0
   -0.8319    0.6444    2.4129 H   0  0  0  0  0  0  0  0  0  0  0  0
    0.4139    1.2136    3.5660 H   0  0  0  0  0  0  0  0  0  0  0  0
    0.2672   -0.5337    3.1847 H   0  0  0  0  0  0  0  0  0  0  0  0
   -2.0854    1.2086    0.0739 C   0  0  0  0  0  0  0  0  0  0  0  0
   -2.0288   -0.2099    0.0583 C   0  0  0  0  0  0  0  0  0  0  0  0
   -3.2151   -1.0086    0.0245 C   0  0  0  0  0  0  0  0  0  0  0  0
   -4.4386   -0.3197    0.0054 C   0  0  0  0  0  0  0  0  0  0  0  0
   -5.3714   -0.8990   -0.0249 H   0  0  0  0  0  0  0  0  0  0  0  0
   -4.5429    1.0861    0.0263 C   0  0  0  0  0  0  0  0  0  0  0  0
   -3.3533    1.8270    0.0652 C   0  0  0  0  0  0  0  0  0  0  0  0
   -3.4216    2.9286    0.0820 H   0  0  0  0  0  0  0  0  0  0  0  0
   -5.8941    1.7543   -0.0027 C   0  0  0  0  0  0  0  0  0  0  0  0
   -6.5396    1.4014    0.8285 H   0  0  0  0  0  0  0  0  0  0  0  0
   -6.4361    1.5281   -0.9453 H   0  0  0  0  0  0  0  0  0  0  0  0
   -5.8073    2.8552    0.0789 H   0  0  0  0  0  0  0  0  0  0  0  0
   -3.1652   -2.5488    0.0280 C   0  0  0  0  0  0  0  0  0  0  0  0
   -4.5768   -3.1651   -0.0150 C   0  0  0  0  0  0  0  0  0  0  0  0
   -5.1872   -2.8758    0.8643 H   0  0  0  0  0  0  0  0  0  0  0  0
   -4.4901   -4.2699   -0.0082 H   0  0  0  0  0  0  0  0  0  0  0  0
   -5.1299   -2.8815   -0.9333 H   0  0  0  0  0  0  0  0  0  0  0  0
   -2.4836   -3.0351    1.3284 C   0  0  0  0  0  0  0  0  0  0  0  0
   -1.4424   -2.6743    1.4126 H   0  0  0  0  0  0  0  0  0  0  0  0
   -2.4564   -4.1441    1.3503 H   0  0  0  0  0  0  0  0  0  0  0  0
   -3.0505   -2.6892    2.2172 H   0  0  0  0  0  0  0  0  0  0  0  0
   -2.4010   -3.0652   -1.2143 C   0  0  0  0  0  0  0  0  0  0  0  0
   -1.3508   -2.7266   -1.2360 H   0  0  0  0  0  0  0  0  0  0  0  0
   -2.8889   -2.7181   -2.1472 H   0  0  0  0  0  0  0  0  0  0  0  0
   -2.3978   -4.1743   -1.2192 H   0  0  0  0  0  0  0  0  0  0  0  0
   -0.8205    3.6020    1.5435 C   0  0  0  0  0  0  0  0  0  0  0  0
   -1.5609    4.3667    1.2186 H   0  0  0  0  0  0  0  0  0  0  0  0
   -1.3092    3.0556    2.3773 H   0  0  0  0  0  0  0  0  0  0  0  0
    0.4686    4.2786    2.0294 C   0  0  0  0  0  0  0  0  0  0  0  0
    0.9682    4.8506    1.2214 H   0  0  0  0  0  0  0  0  0  0  0  0
    1.2048    3.5331    2.3947 H   0  0  0  0  0  0  0  0  0  0  0  0
    0.2748    4.9874    2.8613 H   0  0  0  0  0  0  0  0  0  0  0  0
   -0.6370    3.3644   -1.5485 C   0  0  0  0  0  0  0  0  0  0  0  0
   -0.3500    2.6728   -2.3680 H   0  0  0  0  0  0  0  0  0  0  0  0
   -1.7199    3.5599   -1.7138 H   0  0  0  0  0  0  0  0  0  0  0  0
    0.1412    4.6845   -1.6056 C   0  0  0  0  0  0  0  0  0  0  0  0
   -0.2149    5.4026   -0.8390 H   0  0  0  0  0  0  0  0  0  0  0  0
    0.0282    5.1804   -2.5919 H   0  0  0  0  0  0  0  0  0  0  0  0
    1.2277    4.5421   -1.4375 H   0  0  0  0  0  0  0  0  0  0  0  0
  1 49  1  0  0  0  0
  3  1  1  1  0  0  0
  3  7  1  0  0  0  0
  4  5  2  0  0  0  0
  4  3  1  0  0  0  0
  5  6  1  0  0  0  0
  6  7  2  0  0  0  0
  6 16  1  0  0  0  0
  7 20  1  0  0  0  0
  8 10  1  0  0  0  0
  8  4  1  0  0  0  0
  9  8  1  0  0  0  0
 11  8  1  0  0  0  0
 12  5  1  0  0  0  0
 12 15  1  0  0  0  0
 12 14  1  0  0  0  0
 13 12  1  0  0  0  0
 16 18  1  0  0  0  0
 16 19  1  0  0  0  0
 17 16  1  0  0  0  0
 20 23  1  0  0  0  0
 20 22  1  0  0  0  0
 21 20  1  0  0  0  0
 24  1  1  0  0  0  0
 25 24  2  0  0  0  0
 25  2  1  0  0  0  0
 26 36  1  0  0  0  0
 26 25  1  0  0  0  0
 27 26  2  0  0  0  0
 27 29  1  0  0  0  0
 28 27  1  0  0  0  0
 29 30  2  0  0  0  0
 30 24  1  0  0  0  0
 30 31  1  0  0  0  0
 32 29  1  0  0  0  0
 32 35  1  0  0  0  0
 32 33  1  0  0  0  0
 34 32  1  0  0  0  0
 36 41  1  0  0  0  0
 37 39  1  0  0  0  0
 37 36  1  0  0  0  0
 37 38  1  0  0  0  0
 40 37  1  0  0  0  0
 41 43  1  0  0  0  0
 41 42  1  0  0  0  0
 41 44  1  0  0  0  0
 45 36  1  0  0  0  0
 46 45  1  0  0  0  0
 47 45  1  0  0  0  0
 48 45  1  0  0  0  0
 49 52  1  0  0  0  0
 49 51  1  0  0  0  0
 50 49  1  0  0  0  0
 52 54  1  0  0  0  0
 52 55  1  0  0  0  0
 53 52  1  0  0  0  0
 56  1  1  0  0  0  0
 57 56  1  0  0  0  0
 58 56  1  0  0  0  0
 59 56  1  0  0  0  0
 59 62  1  0  0  0  0
 59 60  1  0  0  0  0
 61 59  1  0  0  0  0
M  CHG  1   2  -1
M  END
