1,3
 OpenBabel05122313053D

 29 30  0  0  1  0  0  0  0  0999 V2000
   -1.4494   -0.1215   -0.3444 O   0  0  0  0  0  1  0  0  0  0  0  0
   -2.9748    0.9869    1.0286 O   0  0  0  0  0  0  0  0  0  0  0  0
    0.0330    2.0209   -0.1293 C   0  0  0  0  0  3  0  0  0  0  0  0
   -1.3738    2.2465   -0.1810 C   0  0  0  0  0  0  0  0  0  0  0  0
   -1.9143    3.5417   -0.1852 C   0  0  0  0  0  0  0  0  0  0  0  0
   -3.0085    3.6708   -0.1933 H   0  0  0  0  0  0  0  0  0  0  0  0
   -1.0717    4.6632   -0.1848 C   0  0  0  0  0  0  0  0  0  0  0  0
   -1.4963    5.6790   -0.1932 H   0  0  0  0  0  0  0  0  0  0  0  0
    0.3175    4.4723   -0.1823 C   0  0  0  0  0  0  0  0  0  0  0  0
    0.9961    5.3405   -0.1971 H   0  0  0  0  0  0  0  0  0  0  0  0
    0.8515    3.1715   -0.1499 C   0  0  0  0  0  0  0  0  0  0  0  0
    1.9463    3.0802   -0.1373 H   0  0  0  0  0  0  0  0  0  0  0  0
   -2.2370    1.0050   -0.2492 C   0  0  1  0  0  0  0  0  0  0  0  0
   -3.2583    1.0115   -1.4213 C   0  0  2  0  0  0  0  0  0  0  0  0
   -3.9305    1.8831   -1.2604 H   0  0  0  0  0  0  0  0  0  0  0  0
   -4.1079   -0.2640   -1.3376 C   0  0  0  0  0  0  0  0  0  0  0  0
   -4.9529   -0.1966   -2.0574 H   0  0  0  0  0  0  0  0  0  0  0  0
   -3.4866   -1.1286   -1.6762 H   0  0  0  0  0  0  0  0  0  0  0  0
   -4.6096   -0.4820    0.0586 C   0  0  0  0  0  0  0  0  0  0  0  0
   -5.4532   -1.1641    0.2418 H   0  0  0  0  0  0  0  0  0  0  0  0
   -4.0415    0.1405    1.1217 C   0  0  0  0  0  0  0  0  0  0  0  0
   -2.5556    1.1512   -2.7710 C   0  0  0  0  0  0  0  0  0  0  0  0
   -3.2849    1.0988   -3.6054 H   0  0  0  0  0  0  0  0  0  0  0  0
   -1.8204    0.3307   -2.8960 H   0  0  0  0  0  0  0  0  0  0  0  0
   -2.0070    2.1105   -2.8495 H   0  0  0  0  0  0  0  0  0  0  0  0
   -4.4796   -0.0198    2.5470 C   0  0  0  0  0  0  0  0  0  0  0  0
   -4.6645    0.9725    3.0089 H   0  0  0  0  0  0  0  0  0  0  0  0
   -3.6778   -0.5042    3.1451 H   0  0  0  0  0  0  0  0  0  0  0  0
   -5.3997   -0.6290    2.6208 H   0  0  0  0  0  0  0  0  0  0  0  0
  2 21  1  0  0  0  0
  4  3  2  0  0  0  0
  5  7  2  0  0  0  0
  5  4  1  0  0  0  0
  6  5  1  0  0  0  0
  7  9  1  0  0  0  0
  8  7  1  0  0  0  0
  9 11  2  0  0  0  0
 10  9  1  0  0  0  0
 11 12  1  0  0  0  0
 11  3  1  0  0  0  0
 13  1  1  6  0  0  0
 13  4  1  0  0  0  0
 13  2  1  0  0  0  0
 14 16  1  0  0  0  0
 14 15  1  1  0  0  0
 14 13  1  0  0  0  0
 16 19  1  0  0  0  0
 17 16  1  0  0  0  0
 18 16  1  0  0  0  0
 19 20  1  0  0  0  0
 19 21  2  0  0  0  0
 21 26  1  0  0  0  0
 22 14  1  0  0  0  0
 23 22  1  0  0  0  0
 24 22  1  0  0  0  0
 25 22  1  0  0  0  0
 26 29  1  0  0  0  0
 26 27  1  0  0  0  0
 26 28  1  0  0  0  0
M  END
