1,42
 OpenBabel05122313053D

 46 47  0  0  0  0  0  0  0  0999 V2000
   -0.2893    1.0086   -0.8295 O   0  5  0  0  0  0  0  0  0  0  0  0
   -0.5510   -1.8434   -0.7629 N   0  0  0  0  0  0  0  0  0  0  0  0
    1.3699   -2.6634   -1.3925 N   0  0  0  0  0  0  0  0  0  0  0  0
   -1.4263    0.4541   -0.4764 C   0  0  0  0  0  0  0  0  0  0  0  0
   -2.6075    1.2555   -0.2296 C   0  0  0  0  0  0  0  0  0  0  0  0
   -3.7758    0.6294    0.2195 C   0  0  0  0  0  0  0  0  0  0  0  0
   -4.6521    1.2600    0.4202 H   0  0  0  0  0  0  0  0  0  0  0  0
   -3.8968   -0.7593    0.4561 C   0  0  0  0  0  0  0  0  0  0  0  0
   -2.7759   -1.5415    0.1643 C   0  0  0  0  0  0  0  0  0  0  0  0
   -2.7983   -2.6278    0.3234 H   0  0  0  0  0  0  0  0  0  0  0  0
   -1.5906   -0.9628   -0.3233 C   0  0  0  0  0  0  0  0  0  0  0  0
   -2.5571    2.7825   -0.4295 C   0  0  0  0  0  0  0  0  0  0  0  0
   -2.0949    3.1125   -1.8682 C   0  0  0  0  0  0  0  0  0  0  0  0
   -2.8283    2.7285   -2.6066 H   0  0  0  0  0  0  0  0  0  0  0  0
   -1.1142    2.6503   -2.0829 H   0  0  0  0  0  0  0  0  0  0  0  0
   -2.0169    4.2118   -2.0052 H   0  0  0  0  0  0  0  0  0  0  0  0
   -1.5760    3.3825    0.6036 C   0  0  0  0  0  0  0  0  0  0  0  0
   -1.4393    4.4718    0.4357 H   0  0  0  0  0  0  0  0  0  0  0  0
   -0.5953    2.8809    0.5250 H   0  0  0  0  0  0  0  0  0  0  0  0
   -1.9574    3.2363    1.6346 H   0  0  0  0  0  0  0  0  0  0  0  0
   -3.9274    3.4517   -0.2185 C   0  0  0  0  0  0  0  0  0  0  0  0
   -4.6910    3.0627   -0.9223 H   0  0  0  0  0  0  0  0  0  0  0  0
   -3.8340    4.5426   -0.3952 H   0  0  0  0  0  0  0  0  0  0  0  0
   -4.3075    3.3164    0.8144 H   0  0  0  0  0  0  0  0  0  0  0  0
   -5.2095   -1.3381    1.0096 C   0  0  0  0  0  0  0  0  0  0  0  0
   -5.1390   -2.8650    1.1815 C   0  0  0  0  0  0  0  0  0  0  0  0
   -4.9526   -3.3788    0.2163 H   0  0  0  0  0  0  0  0  0  0  0  0
   -6.1002   -3.2467    1.5814 H   0  0  0  0  0  0  0  0  0  0  0  0
   -4.3407   -3.1626    1.8914 H   0  0  0  0  0  0  0  0  0  0  0  0
   -5.5060   -0.7073    2.3894 C   0  0  0  0  0  0  0  0  0  0  0  0
   -4.6933   -0.9342    3.1087 H   0  0  0  0  0  0  0  0  0  0  0  0
   -6.4579   -1.0993    2.8057 H   0  0  0  0  0  0  0  0  0  0  0  0
   -5.5955    0.3953    2.3220 H   0  0  0  0  0  0  0  0  0  0  0  0
   -6.3667   -1.0123    0.0381 C   0  0  0  0  0  0  0  0  0  0  0  0
   -6.4877    0.0802   -0.1026 H   0  0  0  0  0  0  0  0  0  0  0  0
   -7.3284   -1.4105    0.4248 H   0  0  0  0  0  0  0  0  0  0  0  0
   -6.1820   -1.4603   -0.9593 H   0  0  0  0  0  0  0  0  0  0  0  0
   -0.8018   -3.0909   -1.3323 C   0  0  0  0  0  0  0  0  0  0  0  0
   -1.8148   -3.4813   -1.4501 H   0  0  0  0  0  0  0  0  0  0  0  0
    0.4049   -3.6048   -1.7207 C   0  0  0  0  0  0  0  0  0  0  0  0
    0.6529   -4.5441   -2.2232 H   0  0  0  0  0  0  0  0  0  0  0  0
    0.7961   -1.5725   -0.7861 C   0  0  0  0  0  2  0  0  0  0  0  0
    2.7693   -2.7987   -1.7657 C   0  0  0  0  0  0  0  0  0  0  0  0
    3.2731   -1.8357   -1.5762 H   0  0  0  0  0  0  0  0  0  0  0  0
    2.8417   -3.0568   -2.8406 H   0  0  0  0  0  0  0  0  0  0  0  0
    3.2678   -3.5837   -1.1637 H   0  0  0  0  0  0  0  0  0  0  0  0
  1  4  1  0  0  0  0
  2 11  1  0  0  0  0
  3 42  1  0  0  0  0
  4 11  2  0  0  0  0
  4  5  1  0  0  0  0
  5  6  2  0  0  0  0
  6  7  1  0  0  0  0
  6  8  1  0  0  0  0
  8 25  1  0  0  0  0
  9 10  1  0  0  0  0
  9  8  2  0  0  0  0
 11  9  1  0  0  0  0
 12  5  1  0  0  0  0
 12 21  1  0  0  0  0
 12 17  1  0  0  0  0
 13 12  1  0  0  0  0
 14 13  1  0  0  0  0
 15 13  1  0  0  0  0
 16 13  1  0  0  0  0
 17 20  1  0  0  0  0
 18 17  1  0  0  0  0
 19 17  1  0  0  0  0
 21 24  1  0  0  0  0
 22 21  1  0  0  0  0
 23 21  1  0  0  0  0
 25 26  1  0  0  0  0
 25 30  1  0  0  0  0
 26 28  1  0  0  0  0
 26 29  1  0  0  0  0
 27 26  1  0  0  0  0
 30 32  1  0  0  0  0
 30 31  1  0  0  0  0
 33 30  1  0  0  0  0
 34 36  1  0  0  0  0
 34 25  1  0  0  0  0
 35 34  1  0  0  0  0
 37 34  1  0  0  0  0
 38  2  1  0  0  0  0
 39 38  1  0  0  0  0
 40  3  1  0  0  0  0
 40 38  2  0  0  0  0
 41 40  1  0  0  0  0
 42  2  1  0  0  0  0
 43 44  1  0  0  0  0
 43  3  1  0  0  0  0
 43 46  1  0  0  0  0
 45 43  1  0  0  0  0
M  CHG  1   1  -1
M  END
