1,38
 OpenBabel05122313053D

 62 64  0  0  0  0  0  0  0  0999 V2000
   -1.3084    1.1864   -0.7289 O   0  5  0  0  0  0  0  0  0  0  0  0
   -0.9384   -1.6252   -0.4766 N   0  0  0  0  0  0  0  0  0  0  0  0
    1.1844   -2.0251   -0.7644 N   0  0  0  0  0  0  0  0  0  0  0  0
   -2.3307    0.4172   -0.4322 C   0  0  0  0  0  0  0  0  0  0  0  0
   -3.6704    0.9456   -0.3279 C   0  0  0  0  0  0  0  0  0  0  0  0
   -4.7213    0.0892    0.0363 C   0  0  0  0  0  0  0  0  0  0  0  0
   -5.7237    0.5225    0.1228 H   0  0  0  0  0  0  0  0  0  0  0  0
   -4.5637   -1.2839    0.3176 C   0  0  0  0  0  0  0  0  0  0  0  0
   -3.2700   -1.8060    0.1797 C   0  0  0  0  0  0  0  0  0  0  0  0
   -3.0761   -2.8689    0.3898 H   0  0  0  0  0  0  0  0  0  0  0  0
   -2.1951   -0.9953   -0.2112 C   0  0  0  0  0  0  0  0  0  0  0  0
   -3.9245    2.4435   -0.5839 C   0  0  0  0  0  0  0  0  0  0  0  0
   -5.4159    2.8142   -0.4947 C   0  0  0  0  0  0  0  0  0  0  0  0
   -6.0257    2.2617   -1.2382 H   0  0  0  0  0  0  0  0  0  0  0  0
   -5.5381    3.8971   -0.7009 H   0  0  0  0  0  0  0  0  0  0  0  0
   -5.8380    2.6196    0.5121 H   0  0  0  0  0  0  0  0  0  0  0  0
   -3.4331    2.8262   -1.9998 C   0  0  0  0  0  0  0  0  0  0  0  0
   -2.3661    2.5685   -2.1286 H   0  0  0  0  0  0  0  0  0  0  0  0
   -3.5681    3.9146   -2.1747 H   0  0  0  0  0  0  0  0  0  0  0  0
   -4.0163    2.2824   -2.7709 H   0  0  0  0  0  0  0  0  0  0  0  0
   -3.1710    3.2635    0.4893 C   0  0  0  0  0  0  0  0  0  0  0  0
   -3.5896    3.0640    1.4967 H   0  0  0  0  0  0  0  0  0  0  0  0
   -3.2574    4.3525    0.2884 H   0  0  0  0  0  0  0  0  0  0  0  0
   -2.1025    2.9826    0.4995 H   0  0  0  0  0  0  0  0  0  0  0  0
   -5.7214   -2.1937    0.7653 C   0  0  0  0  0  0  0  0  0  0  0  0
   -7.0601   -1.4374    0.8236 C   0  0  0  0  0  0  0  0  0  0  0  0
   -7.3430   -1.0251   -0.1659 H   0  0  0  0  0  0  0  0  0  0  0  0
   -7.0278   -0.5992    1.5483 H   0  0  0  0  0  0  0  0  0  0  0  0
   -7.8686   -2.1254    1.1440 H   0  0  0  0  0  0  0  0  0  0  0  0
   -5.8735   -3.3671   -0.2293 C   0  0  0  0  0  0  0  0  0  0  0  0
   -6.7011   -4.0402    0.0788 H   0  0  0  0  0  0  0  0  0  0  0  0
   -4.9503   -3.9783   -0.2864 H   0  0  0  0  0  0  0  0  0  0  0  0
   -6.0931   -2.9930   -1.2498 H   0  0  0  0  0  0  0  0  0  0  0  0
   -5.4184   -2.7533    2.1740 C   0  0  0  0  0  0  0  0  0  0  0  0
   -6.2371   -3.4197    2.5185 H   0  0  0  0  0  0  0  0  0  0  0  0
   -5.3088   -1.9303    2.9088 H   0  0  0  0  0  0  0  0  0  0  0  0
   -4.4780   -3.3402    2.1869 H   0  0  0  0  0  0  0  0  0  0  0  0
    0.3057   -1.0718   -0.2941 C   0  0  0  0  0  2  0  0  0  0  0  0
    0.4995   -3.1472   -1.2203 C   0  0  0  0  0  0  0  0  0  0  0  0
    1.0218   -4.0063   -1.6494 H   0  0  0  0  0  0  0  0  0  0  0  0
   -0.8324   -2.8953   -1.0442 C   0  0  0  0  0  0  0  0  0  0  0  0
   -1.7137   -3.4841   -1.3081 H   0  0  0  0  0  0  0  0  0  0  0  0
    2.6122   -1.8840   -0.8401 C   0  0  0  0  0  0  0  0  0  0  0  0
    3.1641   -0.9751   -1.7715 C   0  0  0  0  0  0  0  0  0  0  0  0
    4.5560   -0.7890   -1.7532 C   0  0  0  0  0  0  0  0  0  0  0  0
    5.0000   -0.0654   -2.4557 H   0  0  0  0  0  0  0  0  0  0  0  0
    5.3927   -1.4887   -0.8643 C   0  0  0  0  0  0  0  0  0  0  0  0
    4.8078   -2.4390   -0.0104 C   0  0  0  0  0  0  0  0  0  0  0  0
    5.4479   -3.0082    0.6824 H   0  0  0  0  0  0  0  0  0  0  0  0
    3.4198   -2.6555    0.0230 C   0  0  0  0  0  0  0  0  0  0  0  0
    2.8257   -3.6629    0.9741 C   0  0  0  0  0  0  0  0  0  0  0  0
    1.8498   -3.3279    1.3765 H   0  0  0  0  0  0  0  0  0  0  0  0
    3.5079   -3.8489    1.8255 H   0  0  0  0  0  0  0  0  0  0  0  0
    2.6468   -4.6397    0.4757 H   0  0  0  0  0  0  0  0  0  0  0  0
    2.2947   -0.2172   -2.7378 C   0  0  0  0  0  0  0  0  0  0  0  0
    1.6737    0.5315   -2.1939 H   0  0  0  0  0  0  0  0  0  0  0  0
    1.5794   -0.8859   -3.2587 H   0  0  0  0  0  0  0  0  0  0  0  0
    2.9052    0.3066   -3.4974 H   0  0  0  0  0  0  0  0  0  0  0  0
    6.8674   -1.1893   -0.7922 C   0  0  0  0  0  0  0  0  0  0  0  0
    7.0567   -0.3954   -0.0372 H   0  0  0  0  0  0  0  0  0  0  0  0
    7.2625   -0.8238   -1.7604 H   0  0  0  0  0  0  0  0  0  0  0  0
    7.4549   -2.0778   -0.4876 H   0  0  0  0  0  0  0  0  0  0  0  0
  1  4  1  0  0  0  0
  2 38  1  0  0  0  0
  2 11  1  0  0  0  0
  3 38  1  0  0  0  0
  4  5  2  0  0  0  0
  4 11  1  0  0  0  0
  5  6  1  0  0  0  0
  6  7  1  0  0  0  0
  6  8  2  0  0  0  0
  8 25  1  0  0  0  0
  9  8  1  0  0  0  0
  9 10  1  0  0  0  0
 11  9  2  0  0  0  0
 12 13  1  0  0  0  0
 12  5  1  0  0  0  0
 12 21  1  0  0  0  0
 13 16  1  0  0  0  0
 14 13  1  0  0  0  0
 15 13  1  0  0  0  0
 17 12  1  0  0  0  0
 18 17  1  0  0  0  0
 19 17  1  0  0  0  0
 20 17  1  0  0  0  0
 21 24  1  0  0  0  0
 21 22  1  0  0  0  0
 23 21  1  0  0  0  0
 25 26  1  0  0  0  0
 25 34  1  0  0  0  0
 26 29  1  0  0  0  0
 26 28  1  0  0  0  0
 27 26  1  0  0  0  0
 30 31  1  0  0  0  0
 30 25  1  0  0  0  0
 32 30  1  0  0  0  0
 33 30  1  0  0  0  0
 34 37  1  0  0  0  0
 34 35  1  0  0  0  0
 34 36  1  0  0  0  0
 39 41  2  0  0  0  0
 39  3  1  0  0  0  0
 40 39  1  0  0  0  0
 41  2  1  0  0  0  0
 42 41  1  0  0  0  0
 43  3  1  0  0  0  0
 43 50  1  0  0  0  0
 44 45  1  0  0  0  0
 44 43  2  0  0  0  0
 45 47  2  0  0  0  0
 46 45  1  0  0  0  0
 47 59  1  0  0  0  0
 47 48  1  0  0  0  0
 48 50  2  0  0  0  0
 48 49  1  0  0  0  0
 50 51  1  0  0  0  0
 51 52  1  0  0  0  0
 51 53  1  0  0  0  0
 54 51  1  0  0  0  0
 55 56  1  0  0  0  0
 55 44  1  0  0  0  0
 57 55  1  0  0  0  0
 58 55  1  0  0  0  0
 59 62  1  0  0  0  0
 59 60  1  0  0  0  0
 61 59  1  0  0  0  0
M  CHG  1   1  -1
M  END
