1,42
 OpenBabel05122313053D

 53 55  0  0  0  0  0  0  0  0999 V2000
   -0.9373    1.0856   -0.8162 O   0  5  0  0  0  0  0  0  0  0  0  0
   -0.6886   -1.7382   -0.4095 N   0  0  0  0  0  0  0  0  0  0  0  0
    1.4038   -2.2583   -0.7453 N   0  0  0  0  0  0  0  0  0  0  0  0
   -1.9849    0.3691   -0.4827 C   0  0  0  0  0  0  0  0  0  0  0  0
   -1.9083   -1.0292   -0.1700 C   0  0  0  0  0  0  0  0  0  0  0  0
   -3.0148   -1.7660    0.2900 C   0  0  0  0  0  0  0  0  0  0  0  0
   -2.8603   -2.8139    0.5791 H   0  0  0  0  0  0  0  0  0  0  0  0
   -4.2799   -1.1822    0.3959 C   0  0  0  0  0  0  0  0  0  0  0  0
   -4.3842    0.1735    0.0070 C   0  0  0  0  0  0  0  0  0  0  0  0
   -5.3734    0.6467    0.0647 H   0  0  0  0  0  0  0  0  0  0  0  0
   -3.3074    0.9573   -0.4216 C   0  0  0  0  0  0  0  0  0  0  0  0
   -3.5059    2.4408   -0.7877 C   0  0  0  0  0  0  0  0  0  0  0  0
   -2.9773    2.7095   -2.2162 C   0  0  0  0  0  0  0  0  0  0  0  0
   -1.9152    2.4173   -2.3049 H   0  0  0  0  0  0  0  0  0  0  0  0
   -3.0810    3.7859   -2.4691 H   0  0  0  0  0  0  0  0  0  0  0  0
   -3.5603    2.1277   -2.9592 H   0  0  0  0  0  0  0  0  0  0  0  0
   -4.9857    2.8643   -0.7546 C   0  0  0  0  0  0  0  0  0  0  0  0
   -5.0684    3.9317   -1.0441 H   0  0  0  0  0  0  0  0  0  0  0  0
   -5.4307    2.7613    0.2558 H   0  0  0  0  0  0  0  0  0  0  0  0
   -5.6008    2.2761   -1.4658 H   0  0  0  0  0  0  0  0  0  0  0  0
   -2.7455    3.3075    0.2426 C   0  0  0  0  0  0  0  0  0  0  0  0
   -1.6890    2.9897    0.2964 H   0  0  0  0  0  0  0  0  0  0  0  0
   -3.1916    3.1947    1.2515 H   0  0  0  0  0  0  0  0  0  0  0  0
   -2.7860    4.3818   -0.0359 H   0  0  0  0  0  0  0  0  0  0  0  0
   -5.5179   -1.9372    0.9073 C   0  0  0  0  0  0  0  0  0  0  0  0
   -6.0604   -1.2350    2.1731 C   0  0  0  0  0  0  0  0  0  0  0  0
   -6.3388   -0.1823    1.9671 H   0  0  0  0  0  0  0  0  0  0  0  0
   -5.2973   -1.2288    2.9775 H   0  0  0  0  0  0  0  0  0  0  0  0
   -6.9640   -1.7550    2.5554 H   0  0  0  0  0  0  0  0  0  0  0  0
   -6.6097   -1.9365   -0.1867 C   0  0  0  0  0  0  0  0  0  0  0  0
   -6.9076   -0.9066   -0.4668 H   0  0  0  0  0  0  0  0  0  0  0  0
   -7.5196   -2.4661    0.1659 H   0  0  0  0  0  0  0  0  0  0  0  0
   -6.2482   -2.4423   -1.1049 H   0  0  0  0  0  0  0  0  0  0  0  0
   -5.1949   -3.3978    1.2661 C   0  0  0  0  0  0  0  0  0  0  0  0
   -6.1087   -3.9102    1.6292 H   0  0  0  0  0  0  0  0  0  0  0  0
   -4.4332   -3.4654    2.0692 H   0  0  0  0  0  0  0  0  0  0  0  0
   -4.8227   -3.9638    0.3877 H   0  0  0  0  0  0  0  0  0  0  0  0
   -0.6538   -3.0733   -0.8143 C   0  0  0  0  0  0  0  0  0  0  0  0
   -1.5648   -3.6545   -0.9712 H   0  0  0  0  0  0  0  0  0  0  0  0
    0.6566   -3.4022   -1.0153 C   0  0  0  0  0  0  0  0  0  0  0  0
    1.1198   -4.3225   -1.3806 H   0  0  0  0  0  0  0  0  0  0  0  0
    0.5821   -1.2219   -0.3497 C   0  0  0  0  0  2  0  0  0  0  0  0
    2.8151   -2.1876   -0.9526 C   0  0  0  0  0  0  0  0  0  0  0  0
    3.6411   -3.1885   -0.4154 C   0  0  0  0  0  0  0  0  0  0  0  0
    3.1968   -4.0008    0.1786 H   0  0  0  0  0  0  0  0  0  0  0  0
    5.0284   -3.1147   -0.6020 C   0  0  0  0  0  0  0  0  0  0  0  0
    5.6769   -3.8904   -0.1682 H   0  0  0  0  0  0  0  0  0  0  0  0
    5.5884   -2.0432   -1.3143 C   0  0  0  0  0  0  0  0  0  0  0  0
    6.6788   -1.9779   -1.4448 H   0  0  0  0  0  0  0  0  0  0  0  0
    4.7535   -1.0558   -1.8615 C   0  0  0  0  0  0  0  0  0  0  0  0
    5.1873   -0.2187   -2.4286 H   0  0  0  0  0  0  0  0  0  0  0  0
    3.3649   -1.1285   -1.6936 C   0  0  0  0  0  0  0  0  0  0  0  0
    2.6948   -0.3640   -2.1107 H   0  0  0  0  0  0  0  0  0  0  0  0
  1  4  1  0  0  0  0
  2 42  1  0  0  0  0
  2  5  1  0  0  0  0
  3 42  1  0  0  0  0
  4 11  2  0  0  0  0
  4  5  1  0  0  0  0
  5  6  2  0  0  0  0
  6  8  1  0  0  0  0
  6  7  1  0  0  0  0
  8 25  1  0  0  0  0
  9 10  1  0  0  0  0
  9  8  2  0  0  0  0
 11  9  1  0  0  0  0
 12 17  1  0  0  0  0
 12 11  1  0  0  0  0
 12 21  1  0  0  0  0
 13 12  1  0  0  0  0
 14 13  1  0  0  0  0
 15 13  1  0  0  0  0
 16 13  1  0  0  0  0
 17 19  1  0  0  0  0
 18 17  1  0  0  0  0
 20 17  1  0  0  0  0
 21 22  1  0  0  0  0
 21 23  1  0  0  0  0
 24 21  1  0  0  0  0
 25 34  1  0  0  0  0
 25 26  1  0  0  0  0
 26 29  1  0  0  0  0
 26 28  1  0  0  0  0
 27 26  1  0  0  0  0
 30 32  1  0  0  0  0
 30 25  1  0  0  0  0
 31 30  1  0  0  0  0
 33 30  1  0  0  0  0
 34 35  1  0  0  0  0
 34 36  1  0  0  0  0
 37 34  1  0  0  0  0
 38  2  1  0  0  0  0
 39 38  1  0  0  0  0
 40 38  2  0  0  0  0
 40  3  1  0  0  0  0
 41 40  1  0  0  0  0
 43  3  1  0  0  0  0
 43 44  1  0  0  0  0
 44 45  1  0  0  0  0
 46 44  2  0  0  0  0
 46 47  1  0  0  0  0
 48 46  1  0  0  0  0
 49 48  1  0  0  0  0
 50 52  1  0  0  0  0
 50 48  2  0  0  0  0
 51 50  1  0  0  0  0
 52 43  2  0  0  0  0
 53 52  1  0  0  0  0
M  CHG  1   1  -1
M  END
