1,2
 OpenBabel05122313053D

 59 63  0  0  1  0  0  0  0  0999 V2000
    0.1226   -0.2934    0.0006 O   0  5  0  0  0  0  0  0  0  0  0  0
    2.0515    1.3846   -0.0005 C   0  0  1  0  0  3  0  0  0  0  0  0
    2.7353    0.8989    1.1652 C   0  0  0  0  0  0  0  0  0  0  0  0
    3.8505    0.1117    0.7177 C   0  0  0  0  0  0  0  0  0  0  0  0
    3.8498    0.1110   -0.7193 C   0  0  0  0  0  0  0  0  0  0  0  0
    2.7341    0.8978   -1.1665 C   0  0  0  0  0  0  0  0  0  0  0  0
    0.6913    1.9748   -0.0003 C   0  0  0  0  0  0  0  0  0  0  0  0
    2.3353    1.1585    2.5843 C   0  0  0  0  0  0  0  0  0  0  0  0
    2.9726    1.9504    3.0323 H   0  0  0  0  0  0  0  0  0  0  0  0
    2.4359    0.2476    3.2056 H   0  0  0  0  0  0  0  0  0  0  0  0
    1.2848    1.5038    2.6401 H   0  0  0  0  0  0  0  0  0  0  0  0
    4.8652   -0.5405    1.6042 C   0  0  0  0  0  0  0  0  0  0  0  0
    5.3510   -1.4024    1.1083 H   0  0  0  0  0  0  0  0  0  0  0  0
    4.4041   -0.9094    2.5399 H   0  0  0  0  0  0  0  0  0  0  0  0
    5.6638    0.1829    1.8763 H   0  0  0  0  0  0  0  0  0  0  0  0
    4.8636   -0.5424   -1.6061 C   0  0  0  0  0  0  0  0  0  0  0  0
    5.6650    0.1789   -1.8753 H   0  0  0  0  0  0  0  0  0  0  0  0
    4.4026   -0.9075   -2.5433 H   0  0  0  0  0  0  0  0  0  0  0  0
    5.3458   -1.4072   -1.1117 H   0  0  0  0  0  0  0  0  0  0  0  0
    2.3326    1.1560   -2.5854 C   0  0  0  0  0  0  0  0  0  0  0  0
    2.4317    0.2443   -3.2058 H   0  0  0  0  0  0  0  0  0  0  0  0
    2.9700    1.9470   -3.0352 H   0  0  0  0  0  0  0  0  0  0  0  0
    1.2823    1.5021   -2.6404 H   0  0  0  0  0  0  0  0  0  0  0  0
   -0.3246    0.9885    0.0002 C   0  0  0  0  0  0  0  0  0  0  0  0
   -1.7020    1.3263    0.0001 C   0  0  0  0  0  0  0  0  0  0  0  0
   -1.9916    2.7045   -0.0003 C   0  0  0  0  0  0  0  0  0  0  0  0
   -3.0444    3.0213   -0.0004 H   0  0  0  0  0  0  0  0  0  0  0  0
   -1.0042    3.7146   -0.0006 C   0  0  0  0  0  0  0  0  0  0  0  0
    0.3509    3.3335   -0.0006 C   0  0  0  0  0  0  0  0  0  0  0  0
    1.1442    4.0968   -0.0010 H   0  0  0  0  0  0  0  0  0  0  0  0
   -1.4082    5.1685   -0.0006 C   0  0  0  0  0  0  0  0  0  0  0  0
   -2.0252    5.4180   -0.8892 H   0  0  0  0  0  0  0  0  0  0  0  0
   -0.5263    5.8379   -0.0041 H   0  0  0  0  0  0  0  0  0  0  0  0
   -2.0189    5.4196    0.8920 H   0  0  0  0  0  0  0  0  0  0  0  0
   -2.7765    0.2415    0.0002 C   0  0  2  0  0  0  0  0  0  0  0  0
   -2.6314   -0.6532   -1.2671 C   0  0  0  0  0  0  0  0  0  0  0  0
   -2.7557   -0.0177   -2.1706 H   0  0  0  0  0  0  0  0  0  0  0  0
   -1.6119   -1.0841   -1.3085 H   0  0  0  0  0  0  0  0  0  0  0  0
   -3.6803   -1.7798   -1.2588 C   0  0  2  0  0  0  0  0  0  0  0  0
   -3.5428   -2.4057   -2.1663 H   0  0  0  0  0  0  0  0  0  0  0  0
   -5.0931   -1.1689   -1.2569 C   0  0  0  0  0  0  0  0  0  0  0  0
   -5.2456   -0.5570   -2.1723 H   0  0  0  0  0  0  0  0  0  0  0  0
   -5.8616   -1.9717   -1.2721 H   0  0  0  0  0  0  0  0  0  0  0  0
   -5.2660   -0.2957   -0.0001 C   0  0  2  0  0  0  0  0  0  0  0  0
   -6.2773    0.1645   -0.0004 H   0  0  0  0  0  0  0  0  0  0  0  0
   -4.2094    0.8259   -0.0002 C   0  0  0  0  0  0  0  0  0  0  0  0
   -4.3530    1.4715    0.8932 H   0  0  0  0  0  0  0  0  0  0  0  0
   -4.3527    1.4711   -0.8940 H   0  0  0  0  0  0  0  0  0  0  0  0
   -3.4898   -2.6475    0.0007 C   0  0  0  0  0  0  0  0  0  0  0  0
   -2.4753   -3.1004    0.0010 H   0  0  0  0  0  0  0  0  0  0  0  0
   -4.2200   -3.4854    0.0008 H   0  0  0  0  0  0  0  0  0  0  0  0
   -3.6807   -1.7792    1.2598 C   0  0  2  0  0  0  0  0  0  0  0  0
   -3.5436   -2.4047    2.1676 H   0  0  0  0  0  0  0  0  0  0  0  0
   -5.0935   -1.1683    1.2571 C   0  0  0  0  0  0  0  0  0  0  0  0
   -5.2463   -0.5560    2.1722 H   0  0  0  0  0  0  0  0  0  0  0  0
   -5.8621   -1.9711    1.2724 H   0  0  0  0  0  0  0  0  0  0  0  0
   -2.6318   -0.6527    1.2679 C   0  0  0  0  0  0  0  0  0  0  0  0
   -1.6123   -1.0835    1.3099 H   0  0  0  0  0  0  0  0  0  0  0  0
   -2.7565   -0.0167    2.1711 H   0  0  0  0  0  0  0  0  0  0  0  0
  2  7  1  1  0  0  0
  2  3  1  0  0  0  0
  3  8  1  0  0  0  0
  4  3  2  0  0  0  0
  4 12  1  0  0  0  0
  5  4  1  0  0  0  0
  6  5  2  0  0  0  0
  6  2  1  0  0  0  0
  7 24  1  0  0  0  0
  8 11  1  0  0  0  0
  8  9  1  0  0  0  0
  8 10  1  0  0  0  0
 12 15  1  0  0  0  0
 12 14  1  0  0  0  0
 13 12  1  0  0  0  0
 16 19  1  0  0  0  0
 16  5  1  0  0  0  0
 17 16  1  0  0  0  0
 18 16  1  0  0  0  0
 20  6  1  0  0  0  0
 21 20  1  0  0  0  0
 22 20  1  0  0  0  0
 23 20  1  0  0  0  0
 24  1  1  0  0  0  0
 25 24  2  0  0  0  0
 26 25  1  0  0  0  0
 27 26  1  0  0  0  0
 28 31  1  0  0  0  0
 28 26  2  0  0  0  0
 29 28  1  0  0  0  0
 29  7  2  0  0  0  0
 30 29  1  0  0  0  0
 31 34  1  0  0  0  0
 32 31  1  0  0  0  0
 33 31  1  0  0  0  0
 35 25  1  6  0  0  0
 35 57  1  0  0  0  0
 36 39  1  0  0  0  0
 36 35  1  0  0  0  0
 37 36  1  0  0  0  0
 38 36  1  0  0  0  0
 39 40  1  6  0  0  0
 39 41  1  0  0  0  0
 39 49  1  0  0  0  0
 41 44  1  0  0  0  0
 42 41  1  0  0  0  0
 43 41  1  0  0  0  0
 44 45  1  6  0  0  0
 44 54  1  0  0  0  0
 46 44  1  0  0  0  0
 46 35  1  0  0  0  0
 46 47  1  0  0  0  0
 48 46  1  0  0  0  0
 49 51  1  0  0  0  0
 49 50  1  0  0  0  0
 49 52  1  0  0  0  0
 52 57  1  0  0  0  0
 52 53  1  1  0  0  0
 54 52  1  0  0  0  0
 54 56  1  0  0  0  0
 54 55  1  0  0  0  0
 57 58  1  0  0  0  0
 57 59  1  0  0  0  0
M  CHG  1   1  -1
M  END
