1,5
 OpenBabel05122313053D

 33 33  0  0  1  0  0  0  0  0999 V2000
    1.9479    0.1732   -0.0207 O   0  0  0  0  0  1  0  0  0  0  0  0
    2.4902   -2.0603   -0.1113 O   0  0  0  0  0  0  0  0  0  0  0  0
    0.3252   -1.3920   -0.0761 N   0  0  0  0  0  0  0  0  0  0  0  0
    0.0762   -2.3849   -0.1704 H   0  0  0  0  0  0  0  0  0  0  0  0
   -0.5982   -0.3689   -0.0587 C   0  0  0  0  0  2  0  0  0  0  0  0
   -1.9865   -0.8421   -0.0596 C   0  0  0  0  0  0  0  0  0  0  0  0
   -2.9916   -0.1252   -0.7545 C   0  0  0  0  0  0  0  0  0  0  0  0
   -2.7131    0.7817   -1.3068 H   0  0  0  0  0  0  0  0  0  0  0  0
   -4.3124   -0.5761   -0.7676 C   0  0  0  0  0  0  0  0  0  0  0  0
   -5.0682   -0.0076   -1.3321 H   0  0  0  0  0  0  0  0  0  0  0  0
   -4.7023   -1.7374   -0.0641 C   0  0  0  0  0  0  0  0  0  0  0  0
   -3.7066   -2.4443    0.6406 C   0  0  0  0  0  0  0  0  0  0  0  0
   -3.9850   -3.3448    1.2106 H   0  0  0  0  0  0  0  0  0  0  0  0
   -2.3745   -2.0173    0.6343 C   0  0  0  0  0  0  0  0  0  0  0  0
   -1.6321   -2.5782    1.2244 H   0  0  0  0  0  0  0  0  0  0  0  0
   -6.1407   -2.1824   -0.0494 C   0  0  0  0  0  0  0  0  0  0  0  0
   -6.7597   -1.4988    0.5704 H   0  0  0  0  0  0  0  0  0  0  0  0
   -6.2521   -3.2026    0.3656 H   0  0  0  0  0  0  0  0  0  0  0  0
   -6.5779   -2.1716   -1.0686 H   0  0  0  0  0  0  0  0  0  0  0  0
    1.6572   -1.0303   -0.0648 C   0  0  2  0  0  3  0  0  0  0  0  0
    3.9691   -1.8513   -0.1225 C   0  0  0  0  0  0  0  0  0  0  0  0
    4.3554   -1.0585   -1.3727 C   0  0  0  0  0  0  0  0  0  0  0  0
    5.4595   -0.9987   -1.4391 H   0  0  0  0  0  0  0  0  0  0  0  0
    3.9506   -0.0305   -1.3402 H   0  0  0  0  0  0  0  0  0  0  0  0
    3.9842   -1.5654   -2.2853 H   0  0  0  0  0  0  0  0  0  0  0  0
    4.5012   -3.2819   -0.1824 C   0  0  0  0  0  0  0  0  0  0  0  0
    5.6080   -3.2695   -0.1964 H   0  0  0  0  0  0  0  0  0  0  0  0
    4.1450   -3.7955   -1.0967 H   0  0  0  0  0  0  0  0  0  0  0  0
    4.1683   -3.8619    0.7004 H   0  0  0  0  0  0  0  0  0  0  0  0
    4.3879   -1.1528    1.1726 C   0  0  0  0  0  0  0  0  0  0  0  0
    5.4935   -1.0985    1.2160 H   0  0  0  0  0  0  0  0  0  0  0  0
    4.0382   -1.7255    2.0543 H   0  0  0  0  0  0  0  0  0  0  0  0
    3.9842   -0.1253    1.2259 H   0  0  0  0  0  0  0  0  0  0  0  0
  2 20  1  0  0  0  0
  3 20  1  0  0  0  0
  3  5  1  0  0  0  0
  4  3  1  0  0  0  0
  6  5  1  0  0  0  0
  6 14  1  0  0  0  0
  7  6  2  0  0  0  0
  8  7  1  0  0  0  0
  9  7  1  0  0  0  0
  9 11  2  0  0  0  0
 10  9  1  0  0  0  0
 11 16  1  0  0  0  0
 11 12  1  0  0  0  0
 12 13  1  0  0  0  0
 14 12  2  0  0  0  0
 14 15  1  0  0  0  0
 16 18  1  0  0  0  0
 16 17  1  0  0  0  0
 19 16  1  0  0  0  0
 20  1  1  6  0  0  0
 21  2  1  0  0  0  0
 21 30  1  0  0  0  0
 22 24  1  0  0  0  0
 22 21  1  0  0  0  0
 23 22  1  0  0  0  0
 25 22  1  0  0  0  0
 26 21  1  0  0  0  0
 26 29  1  0  0  0  0
 27 26  1  0  0  0  0
 28 26  1  0  0  0  0
 30 31  1  0  0  0  0
 30 33  1  0  0  0  0
 30 32  1  0  0  0  0
M  END
