2,3
 OpenBabel05122313053D

  9  9  0  0  0  0  0  0  0  0999 V2000
    0.1195    1.2743   -2.6216 O   0  0  0  0  0  0  0  0  0  0  0  0
   -0.0716    1.1503    1.3322 O   0  0  0  0  0  0  0  0  0  0  0  0
    0.0769    1.2769   -1.3957 C   0  0  0  0  0  0  0  0  0  0  0  0
    0.0381    2.5221   -0.6018 C   0  0  0  0  0  0  0  0  0  0  0  0
    0.1294    3.8329   -1.0657 C   0  0  0  0  0  0  0  0  0  0  0  0
   -0.0309    4.8867   -0.3388 C   0  0  0  0  0  0  0  0  0  0  0  0
    0.0102    4.6481    0.9828 C   0  0  0  0  0  0  0  0  0  0  0  0
   -0.1316    3.5689    1.6724 C   0  0  0  0  0  0  0  0  0  0  0  0
   -0.0689    2.3720    0.8912 C   0  0  0  0  0  0  0  0  0  0  0  0
  1  3  2  0  0  0  0
  3  4  1  0  0  0  0
  4  9  1  0  0  0  0
  5  4  2  0  0  0  0
  5  6  1  0  0  0  0
  6  7  2  0  0  0  0
  7  8  1  0  0  0  0
  9  2  1  0  0  0  0
  9  8  2  0  0  0  0
M  END
