4,7
 OpenBabel05122313053D

 40 42  0  0  0  0  0  0  0  0999 V2000
   -3.9258   -0.4501   -0.1800 S   0  0  0  0  0  0  0  0  0  0  0  0
   -2.2755    1.8068    0.1169 N   0  0  0  0  0  0  0  0  0  0  0  0
   -0.1308    2.0834   -0.0716 N   0  0  0  0  0  0  0  0  0  0  0  0
   -2.8895   -0.8018   -1.2764 O   0  0  0  0  0  1  0  0  0  0  0  0
   -3.6445   -1.1334    1.1133 O   0  0  0  0  0  1  0  0  0  0  0  0
   -5.3113   -0.4866   -0.6880 O   0  0  0  0  0  1  0  0  0  0  0  0
   -1.0946    1.1026   -0.0359 C   0  0  0  0  0  2  0  0  0  0  0  0
   -3.5838    1.3249    0.0920 C   0  0  0  0  0  0  0  0  0  0  0  0
   -4.6297    2.2027    0.2288 C   0  0  0  0  0  0  0  0  0  0  0  0
   -5.6426    1.7824    0.1666 H   0  0  0  0  0  0  0  0  0  0  0  0
   -4.4037    3.6054    0.4064 C   0  0  0  0  0  0  0  0  0  0  0  0
   -5.2628    4.2805    0.5276 H   0  0  0  0  0  0  0  0  0  0  0  0
   -3.1200    4.1048    0.3974 C   0  0  0  0  0  0  0  0  0  0  0  0
   -2.9085    5.1777    0.5035 H   0  0  0  0  0  0  0  0  0  0  0  0
   -2.0290    3.2060    0.2272 C   0  0  0  0  0  0  0  0  0  0  0  0
   -0.6589    3.3535    0.1061 C   0  0  0  0  0  0  0  0  0  0  0  0
   -0.0405    4.2531    0.0721 H   0  0  0  0  0  0  0  0  0  0  0  0
    1.2609    1.8397   -0.2905 C   0  0  0  0  0  0  0  0  0  0  0  0
    1.6676    0.9324   -1.2770 C   0  0  0  0  0  0  0  0  0  0  0  0
    0.9112    0.4533   -1.9139 H   0  0  0  0  0  0  0  0  0  0  0  0
    3.0253    0.6130   -1.4043 C   0  0  0  0  0  0  0  0  0  0  0  0
    3.3146   -0.1219   -2.1666 H   0  0  0  0  0  0  0  0  0  0  0  0
    4.0035    1.1947   -0.5739 C   0  0  0  0  0  0  0  0  0  0  0  0
    3.5689    2.1562    0.3657 C   0  0  0  0  0  0  0  0  0  0  0  0
    4.2993    2.6429    1.0288 H   0  0  0  0  0  0  0  0  0  0  0  0
    2.2170    2.4776    0.5156 C   0  0  0  0  0  0  0  0  0  0  0  0
    1.8963    3.1809    1.2982 H   0  0  0  0  0  0  0  0  0  0  0  0
    5.4882    0.8017   -0.6348 C   0  0  0  0  0  0  0  0  0  0  0  0
    5.9030    0.2358    0.7438 C   0  0  0  0  0  0  0  0  0  0  0  0
    5.7939    0.9904    1.5479 H   0  0  0  0  0  0  0  0  0  0  0  0
    6.9651   -0.0849    0.7245 H   0  0  0  0  0  0  0  0  0  0  0  0
    5.2751   -0.6362    1.0165 H   0  0  0  0  0  0  0  0  0  0  0  0
    6.3391    2.0477   -0.9671 C   0  0  0  0  0  0  0  0  0  0  0  0
    6.0605    2.4673   -1.9550 H   0  0  0  0  0  0  0  0  0  0  0  0
    7.4161    1.7827   -0.9966 H   0  0  0  0  0  0  0  0  0  0  0  0
    6.2115    2.8481   -0.2114 H   0  0  0  0  0  0  0  0  0  0  0  0
    5.7577   -0.2755   -1.6994 C   0  0  0  0  0  0  0  0  0  0  0  0
    5.1915   -1.2059   -1.4922 H   0  0  0  0  0  0  0  0  0  0  0  0
    6.8353   -0.5346   -1.7049 H   0  0  0  0  0  0  0  0  0  0  0  0
    5.4943    0.0735   -2.7184 H   0  0  0  0  0  0  0  0  0  0  0  0
  1  8  1  0  0  0  0
  1  5  1  0  0  0  0
  2 15  1  0  0  0  0
  3  7  1  0  0  0  0
  3 16  1  0  0  0  0
  4  1  1  0  0  0  0
  6  1  1  0  0  0  0
  7  2  1  0  0  0  0
  8  2  1  0  0  0  0
  8  9  2  0  0  0  0
  9 11  1  0  0  0  0
 10  9  1  0  0  0  0
 11 12  1  0  0  0  0
 13 11  2  0  0  0  0
 13 14  1  0  0  0  0
 15 13  1  0  0  0  0
 16 15  2  0  0  0  0
 17 16  1  0  0  0  0
 18  3  1  0  0  0  0
 18 26  1  0  0  0  0
 19 18  2  0  0  0  0
 20 19  1  0  0  0  0
 21 19  1  0  0  0  0
 21 23  2  0  0  0  0
 22 21  1  0  0  0  0
 23 24  1  0  0  0  0
 24 26  2  0  0  0  0
 24 25  1  0  0  0  0
 26 27  1  0  0  0  0
 28 23  1  0  0  0  0
 28 29  1  0  0  0  0
 29 32  1  0  0  0  0
 29 30  1  0  0  0  0
 31 29  1  0  0  0  0
 33 28  1  0  0  0  0
 33 36  1  0  0  0  0
 34 33  1  0  0  0  0
 35 33  1  0  0  0  0
 37 38  1  0  0  0  0
 37 28  1  0  0  0  0
 39 37  1  0  0  0  0
 40 37  1  0  0  0  0
M  END
