4,5
 OpenBabel05122313053D

 45 46  0  0  1  0  0  0  0  0999 V2000
    1.2724    1.5954   -1.2945 N   0  0  0  0  0  0  0  0  0  0  0  0
   -0.8919    1.5990   -1.1209 N   0  0  0  0  0  0  0  0  0  0  0  0
    4.3915   -0.1997   -1.4533 O   0  5  0  0  0  0  0  0  0  0  0  0
    2.3848   -1.0366   -0.9202 O   0  0  0  0  0  0  0  0  0  0  0  0
    0.2298    0.8615   -0.7856 C   0  0  0  0  0  2  0  0  0  0  0  0
    0.8205    2.7285   -1.9571 C   0  0  0  0  0  0  0  0  0  0  0  0
    1.5075    3.4264   -2.4433 H   0  0  0  0  0  0  0  0  0  0  0  0
   -0.5414    2.7350   -1.8471 C   0  0  0  0  0  0  0  0  0  0  0  0
   -1.2969    3.4374   -2.2093 H   0  0  0  0  0  0  0  0  0  0  0  0
   -2.2211    1.4507   -0.5880 C   0  0  0  0  0  0  0  0  0  0  0  0
   -2.4910    2.0985    0.6410 C   0  0  0  0  0  0  0  0  0  0  0  0
   -3.7872    1.9924    1.1761 C   0  0  0  0  0  0  0  0  0  0  0  0
   -4.0052    2.4792    2.1404 H   0  0  0  0  0  0  0  0  0  0  0  0
   -4.8115    1.3020    0.5005 C   0  0  0  0  0  0  0  0  0  0  0  0
   -4.5196    0.7465   -0.7580 C   0  0  0  0  0  0  0  0  0  0  0  0
   -5.3196    0.2414   -1.3225 H   0  0  0  0  0  0  0  0  0  0  0  0
   -3.2367    0.8139   -1.3356 C   0  0  0  0  0  0  0  0  0  0  0  0
   -1.4394    2.9401    1.3193 C   0  0  0  0  0  0  0  0  0  0  0  0
   -1.3059    3.9039    0.7833 H   0  0  0  0  0  0  0  0  0  0  0  0
   -0.4498    2.4448    1.3260 H   0  0  0  0  0  0  0  0  0  0  0  0
   -1.7228    3.1734    2.3628 H   0  0  0  0  0  0  0  0  0  0  0  0
   -6.1813    1.1564    1.1131 C   0  0  0  0  0  0  0  0  0  0  0  0
   -6.9688    1.0747    0.3385 H   0  0  0  0  0  0  0  0  0  0  0  0
   -6.4288    2.0111    1.7730 H   0  0  0  0  0  0  0  0  0  0  0  0
   -6.2391    0.2367    1.7345 H   0  0  0  0  0  0  0  0  0  0  0  0
   -2.9750    0.2574   -2.7036 C   0  0  0  0  0  0  0  0  0  0  0  0
   -2.5851    1.0406   -3.3867 H   0  0  0  0  0  0  0  0  0  0  0  0
   -3.8995   -0.1581   -3.1465 H   0  0  0  0  0  0  0  0  0  0  0  0
   -2.1908   -0.5316   -2.6712 H   0  0  0  0  0  0  0  0  0  0  0  0
    2.6898    1.3860   -0.9747 C   0  0  1  0  0  0  0  0  0  0  0  0
    3.2673    2.0022   -1.6892 H   0  0  0  0  0  0  0  0  0  0  0  0
    2.9838    1.8304    0.4712 C   0  0  0  0  0  0  0  0  0  0  0  0
    2.3940    1.1673    1.1373 H   0  0  0  0  0  0  0  0  0  0  0  0
    4.0553    1.6101    0.6634 H   0  0  0  0  0  0  0  0  0  0  0  0
    2.6817    3.2995    0.8106 C   0  0  0  0  0  0  0  0  0  0  0  0
    1.6380    3.5175    0.4876 H   0  0  0  0  0  0  0  0  0  0  0  0
    3.6172    4.2696    0.0797 C   0  0  0  0  0  0  0  0  0  0  0  0
    3.3658    5.3245    0.3116 H   0  0  0  0  0  0  0  0  0  0  0  0
    4.6726    4.0999    0.3808 H   0  0  0  0  0  0  0  0  0  0  0  0
    3.5689    4.1522   -1.0220 H   0  0  0  0  0  0  0  0  0  0  0  0
    2.7441    3.5096    2.3289 C   0  0  0  0  0  0  0  0  0  0  0  0
    2.5143    4.5590    2.6047 H   0  0  0  0  0  0  0  0  0  0  0  0
    2.0206    2.8542    2.8576 H   0  0  0  0  0  0  0  0  0  0  0  0
    3.7561    3.2733    2.7210 H   0  0  0  0  0  0  0  0  0  0  0  0
    3.2058   -0.0581   -1.1640 C   0  0  0  0  0  0  0  0  0  0  0  0
  1 30  1  0  0  0  0
  1  5  1  0  0  0  0
  2  5  1  0  0  0  0
  2 10  1  0  0  0  0
  3 45  1  0  0  0  0
  6  8  2  0  0  0  0
  6  1  1  0  0  0  0
  7  6  1  0  0  0  0
  8  2  1  0  0  0  0
  9  8  1  0  0  0  0
 10 11  1  0  0  0  0
 11 12  2  0  0  0  0
 11 18  1  0  0  0  0
 12 13  1  0  0  0  0
 14 22  1  0  0  0  0
 14 12  1  0  0  0  0
 15 14  2  0  0  0  0
 16 15  1  0  0  0  0
 17 15  1  0  0  0  0
 17 10  2  0  0  0  0
 18 20  1  0  0  0  0
 18 21  1  0  0  0  0
 19 18  1  0  0  0  0
 22 25  1  0  0  0  0
 22 24  1  0  0  0  0
 23 22  1  0  0  0  0
 26 29  1  0  0  0  0
 26 17  1  0  0  0  0
 27 26  1  0  0  0  0
 28 26  1  0  0  0  0
 30 31  1  6  0  0  0
 30 32  1  0  0  0  0
 32 34  1  0  0  0  0
 32 35  1  0  0  0  0
 32 33  1  0  0  0  0
 35 41  1  0  0  0  0
 36 35  1  0  0  0  0
 37 38  1  0  0  0  0
 37 39  1  0  0  0  0
 37 35  1  0  0  0  0
 40 37  1  0  0  0  0
 41 42  1  0  0  0  0
 41 44  1  0  0  0  0
 41 43  1  0  0  0  0
 45 30  1  0  0  0  0
 45  4  2  0  0  0  0
M  CHG  1   3  -1
M  END
