1,2
q = -2.0, confidence = 0.618

 17 18  0  0  0  0  0  0  0  0999 V2000
   -0.1387    1.5523   -1.6029 O   0  5  0  0  0  0  0  0  0  0  0  0
   -0.1822    1.0218    1.1028 C   0  0  0  0  0  3  0  0  0  0  0  0
   -0.1971    0.7876    2.4784 C   0  0  0  0  0  0  0  0  0  0  0  0
   -0.0785   -0.2356    2.8668 H   0  0  0  0  0  0  0  0  0  0  0  0
   -0.3937    1.8689    3.3850 C   0  0  0  0  0  0  0  0  0  0  0  0
   -0.4067    1.6608    4.4671 H   0  0  0  0  0  0  0  0  0  0  0  0
   -0.5729    3.1688    2.9328 C   0  0  0  0  0  0  0  0  0  0  0  0
   -0.7265    3.9930    3.6470 H   0  0  0  0  0  0  0  0  0  0  0  0
   -0.7549    4.7695    0.9999 C   0  0  0  0  0  0  0  0  0  0  0  0
   -0.9105    5.6131    1.6895 H   0  0  0  0  0  0  0  0  0  0  0  0
   -0.7478    4.9680   -0.3795 C   0  0  0  0  0  0  0  0  0  0  0  0
   -0.8997    5.9836   -0.7793 H   0  0  0  0  0  0  0  0  0  0  0  0
   -0.5504    3.9025   -1.2885 C   0  0  0  0  0  0  0  0  0  0  0  0
   -0.5421    4.0753   -2.3750 H   0  0  0  0  0  0  0  0  0  0  0  0
   -0.3526    2.5960   -0.8075 C   0  0  0  0  0  0  0  0  0  0  0  0
   -0.3660    2.3680    0.6182 C   0  0  0  0  0  0  0  0  0  0  0  0
   -0.5659    3.4611    1.5331 C   0  0  0  0  0  0  0  0  0  0  0  0
  1 15  1  0  0  0  0
  2  3  1  0  0  0  0
  3  4  1  0  0  0  0
  3  5  2  0  0  0  0
  5  6  1  0  0  0  0
  7  5  1  0  0  0  0
  7  8  1  0  0  0  0
  9 17  1  0  0  0  0
  9 10  1  0  0  0  0
 11  9  2  0  0  0  0
 12 11  1  0  0  0  0
 13 15  2  0  0  0  0
 13 11  1  0  0  0  0
 14 13  1  0  0  0  0
 15 16  1  0  0  0  0
 16  2  2  0  0  0  0
 16 17  1  0  0  0  0
 17  7  2  0  0  0  0
M  CHG  1   1  -1
M  END
