1,3
 OpenBabel05122313053D

 27 28  0  0  0  0  0  0  0  0999 V2000
    1.6434   -1.5788   -0.0582 O   0  5  0  0  0  0  0  0  0  0  0  0
    1.1462    2.1802    0.7061 O   0  0  0  0  0  0  0  0  0  0  0  0
    1.3670    1.0094    0.3907 C   0  0  0  0  0  3  0  0  0  0  0  0
    2.7167    0.4787    0.1917 C   0  0  0  0  0  0  0  0  0  0  0  0
    3.8726    1.3971    0.0951 C   0  0  0  0  0  0  0  0  0  0  0  0
    4.0425    2.4789    0.9918 C   0  0  0  0  0  0  0  0  0  0  0  0
    3.3013    2.6326    1.7872 H   0  0  0  0  0  0  0  0  0  0  0  0
    5.1338    3.3508    0.8691 C   0  0  0  0  0  0  0  0  0  0  0  0
    5.2462    4.1823    1.5823 H   0  0  0  0  0  0  0  0  0  0  0  0
    6.0807    3.1702   -0.1516 C   0  0  0  0  0  0  0  0  0  0  0  0
    6.9366    3.8560   -0.2446 H   0  0  0  0  0  0  0  0  0  0  0  0
    5.9181    2.1111   -1.0602 C   0  0  0  0  0  0  0  0  0  0  0  0
    6.6450    1.9645   -1.8740 H   0  0  0  0  0  0  0  0  0  0  0  0
    4.8243    1.2442   -0.9437 C   0  0  0  0  0  0  0  0  0  0  0  0
    4.6996    0.4239   -1.6672 H   0  0  0  0  0  0  0  0  0  0  0  0
    2.7563   -0.9167    0.0377 C   0  0  0  0  0  0  0  0  0  0  0  0
    3.9895   -1.7528    0.0302 C   0  0  0  0  0  0  0  0  0  0  0  0
    5.1296   -1.4179    0.7939 C   0  0  0  0  0  0  0  0  0  0  0  0
    5.1298   -0.4970    1.3935 H   0  0  0  0  0  0  0  0  0  0  0  0
    6.2510   -2.2574    0.7967 C   0  0  0  0  0  0  0  0  0  0  0  0
    7.1303   -1.9882    1.4015 H   0  0  0  0  0  0  0  0  0  0  0  0
    6.2556   -3.4375    0.0341 C   0  0  0  0  0  0  0  0  0  0  0  0
    7.1416   -4.0907    0.0328 H   0  0  0  0  0  0  0  0  0  0  0  0
    5.1220   -3.7844   -0.7189 C   0  0  0  0  0  0  0  0  0  0  0  0
    5.1162   -4.7120   -1.3116 H   0  0  0  0  0  0  0  0  0  0  0  0
    3.9933   -2.9543   -0.7118 C   0  0  0  0  0  0  0  0  0  0  0  0
    3.0915   -3.2227   -1.2805 H   0  0  0  0  0  0  0  0  0  0  0  0
  1 16  1  0  0  0  0
  3  2  2  0  0  0  0
  4  3  1  0  0  0  0
  5  4  1  0  0  0  0
  5  6  1  0  0  0  0
  6  7  1  0  0  0  0
  8  6  2  0  0  0  0
  8  9  1  0  0  0  0
 10  8  1  0  0  0  0
 11 10  1  0  0  0  0
 12 14  1  0  0  0  0
 12 10  2  0  0  0  0
 13 12  1  0  0  0  0
 14  5  2  0  0  0  0
 15 14  1  0  0  0  0
 16  4  2  0  0  0  0
 17 16  1  0  0  0  0
 17 18  1  0  0  0  0
 18 20  2  0  0  0  0
 18 19  1  0  0  0  0
 20 21  1  0  0  0  0
 22 20  1  0  0  0  0
 23 22  1  0  0  0  0
 24 26  1  0  0  0  0
 24 22  2  0  0  0  0
 25 24  1  0  0  0  0
 26 17  2  0  0  0  0
 27 26  1  0  0  0  0
M  CHG  1   1  -1
M  END
