1,16
 OpenBabel05122313053D

 46 51  0  0  1  0  0  0  0  0999 V2000
   -1.3903   -1.7490   -0.7548 O   0  5  0  0  0  0  0  0  0  0  0  0
    0.0941   -0.6111    2.1320 O   0  0  0  0  0  0  0  0  0  0  0  0
    0.7938   -0.0609    1.2687 C   0  0  0  0  0  0  0  0  0  0  0  0
    2.2182    0.2941    1.5623 C   0  0  0  0  0  0  0  0  0  0  0  0
    2.7811   -0.2105    2.7514 C   0  0  0  0  0  0  0  0  0  0  0  0
    4.0974    0.0887    3.1075 C   0  0  0  0  0  0  0  0  0  0  0  0
    4.8595    0.9264    2.2705 C   0  0  0  0  0  0  0  0  0  0  0  0
    4.3056    1.4442    1.0955 C   0  0  0  0  0  0  0  0  0  0  0  0
    2.9775    1.1387    0.7040 C   0  0  0  0  0  0  0  0  0  0  0  0
    2.3854    1.6549   -0.5442 C   0  0  0  0  0  0  0  0  0  0  0  0
    3.0959    2.5261   -1.4049 C   0  0  0  0  0  0  0  0  0  0  0  0
    2.5309    3.0130   -2.5864 C   0  0  0  0  0  0  0  0  0  0  0  0
    1.2209    2.6383   -2.9408 C   0  0  0  0  0  0  0  0  0  0  0  0
    0.5016    1.7796   -2.1105 C   0  0  0  0  0  0  0  0  0  0  0  0
    1.0607    1.2709   -0.9138 C   0  0  0  0  0  0  0  0  0  0  0  0
    0.2559    0.3360   -0.0900 C   0  0  2  0  0  3  0  0  0  0  0  0
   -1.9933   -0.6274   -0.3710 C   0  0  0  0  0  0  0  0  0  0  0  0
   -3.4406   -0.6187   -0.2615 C   0  0  0  0  0  0  0  0  0  0  0  0
   -4.1854   -1.7930   -0.5356 C   0  0  0  0  0  0  0  0  0  0  0  0
   -5.5741   -1.7909   -0.4441 C   0  0  0  0  0  0  0  0  0  0  0  0
   -6.2447   -0.6002   -0.0852 C   0  0  0  0  0  0  0  0  0  0  0  0
   -5.5242    0.5628    0.1791 C   0  0  0  0  0  0  0  0  0  0  0  0
   -4.1058    0.5949    0.1057 C   0  0  0  0  0  0  0  0  0  0  0  0
   -3.3195    1.7917    0.3995 C   0  0  0  0  0  0  0  0  0  0  0  0
   -3.9243    3.0117    0.7958 C   0  0  0  0  0  0  0  0  0  0  0  0
   -3.1704    4.1368    1.1212 C   0  0  0  0  0  0  0  0  0  0  0  0
   -1.7612    4.0679    1.0749 C   0  0  0  0  0  0  0  0  0  0  0  0
   -1.1338    2.8891    0.6860 C   0  0  0  0  0  0  0  0  0  0  0  0
   -1.8811    1.7340    0.3167 C   0  0  0  0  0  0  0  0  0  0  0  0
   -1.2444    0.5093   -0.1034 C   0  0  0  0  0  0  0  0  0  0  0  0
    2.1344   -0.8418    3.3786 H   0  0  0  0  0  0  0  0  0  0  0  0
    4.5316   -0.3161    4.0340 H   0  0  0  0  0  0  0  0  0  0  0  0
    5.8942    1.1863    2.5429 H   0  0  0  0  0  0  0  0  0  0  0  0
    4.9236    2.1038    0.4702 H   0  0  0  0  0  0  0  0  0  0  0  0
    4.1134    2.8461   -1.1395 H   0  0  0  0  0  0  0  0  0  0  0  0
    3.1088    3.6930   -3.2302 H   0  0  0  0  0  0  0  0  0  0  0  0
    0.7642    3.0204   -3.8661 H   0  0  0  0  0  0  0  0  0  0  0  0
   -0.5221    1.4723   -2.3712 H   0  0  0  0  0  0  0  0  0  0  0  0
   -3.6318   -2.6950   -0.8344 H   0  0  0  0  0  0  0  0  0  0  0  0
   -6.1474   -2.7059   -0.6579 H   0  0  0  0  0  0  0  0  0  0  0  0
   -7.3432   -0.5865   -0.0161 H   0  0  0  0  0  0  0  0  0  0  0  0
   -6.0752    1.4730    0.4536 H   0  0  0  0  0  0  0  0  0  0  0  0
   -5.0197    3.0756    0.8580 H   0  0  0  0  0  0  0  0  0  0  0  0
   -3.6725    5.0671    1.4261 H   0  0  0  0  0  0  0  0  0  0  0  0
   -1.1548    4.9437    1.3523 H   0  0  0  0  0  0  0  0  0  0  0  0
   -0.0362    2.8476    0.6660 H   0  0  0  0  0  0  0  0  0  0  0  0
  1 17  1  0  0  0  0
  3  4  1  0  0  0  0
  3  2  2  0  0  0  0
  4  5  1  0  0  0  0
  5  6  2  0  0  0  0
  5 31  1  0  0  0  0
  6 32  1  0  0  0  0
  7 33  1  0  0  0  0
  7  6  1  0  0  0  0
  8  7  2  0  0  0  0
  9  8  1  0  0  0  0
  9  4  2  0  0  0  0
 10  9  1  0  0  0  0
 11 35  1  0  0  0  0
 11 10  2  0  0  0  0
 12 11  1  0  0  0  0
 13 12  2  0  0  0  0
 13 14  1  0  0  0  0
 14 15  2  0  0  0  0
 15 10  1  0  0  0  0
 15 16  1  0  0  0  0
 16 30  1  1  0  0  0
 16  3  1  0  0  0  0
 17 18  2  0  0  0  0
 17 30  1  0  0  0  0
 18 23  1  0  0  0  0
 19 20  2  0  0  0  0
 19 18  1  0  0  0  0
 20 21  1  0  0  0  0
 21 41  1  0  0  0  0
 21 22  2  0  0  0  0
 22 42  1  0  0  0  0
 23 22  1  0  0  0  0
 23 24  2  0  0  0  0
 24 25  1  0  0  0  0
 25 43  1  0  0  0  0
 25 26  2  0  0  0  0
 26 44  1  0  0  0  0
 27 26  1  0  0  0  0
 27 45  1  0  0  0  0
 28 27  2  0  0  0  0
 29 24  1  0  0  0  0
 29 28  1  0  0  0  0
 30 29  2  0  0  0  0
 34  8  1  0  0  0  0
 36 12  1  0  0  0  0
 37 13  1  0  0  0  0
 38 14  1  0  0  0  0
 39 19  1  0  0  0  0
 40 20  1  0  0  0  0
 46 28  1  0  0  0  0
M  CHG  1   1  -1
M  END
