1,3
 OpenBabel05122313053D

 13 12  0  0  0  0  0  0  0  0999 V2000
    0.0000    2.0487   -0.7679 O   0  0  0  0  0  1  0  0  0  0  0  0
   -0.0000    2.7793    0.4609 C   0  0  0  0  0  0  0  0  0  0  0  0
   -0.0001    1.6543    1.5262 C   0  0  0  0  0  3  0  0  0  0  0  0
   -1.2385    3.6910    0.5414 C   0  0  0  0  0  0  0  0  0  0  0  0
    1.2385    3.6910    0.5415 C   0  0  0  0  0  0  0  0  0  0  0  0
    0.9011    1.6376    2.1728 H   0  0  0  0  0  0  0  0  0  0  0  0
   -0.9014    1.6375    2.1725 H   0  0  0  0  0  0  0  0  0  0  0  0
   -1.2690    4.2589    1.4952 H   0  0  0  0  0  0  0  0  0  0  0  0
   -2.1742    3.1096    0.4558 H   0  0  0  0  0  0  0  0  0  0  0  0
   -1.2247    4.4174   -0.2972 H   0  0  0  0  0  0  0  0  0  0  0  0
    1.2687    4.2590    1.4953 H   0  0  0  0  0  0  0  0  0  0  0  0
    1.2249    4.4172   -0.2971 H   0  0  0  0  0  0  0  0  0  0  0  0
    2.1742    3.1095    0.4563 H   0  0  0  0  0  0  0  0  0  0  0  0
  1  2  1  0  0  0  0
  2  4  1  0  0  0  0
  2  5  1  0  0  0  0
  2  3  1  0  0  0  0
  3  7  1  0  0  0  0
  3  6  1  0  0  0  0
  4  8  1  0  0  0  0
  5 11  1  0  0  0  0
  9  4  1  0  0  0  0
 10  4  1  0  0  0  0
 12  5  1  0  0  0  0
 13  5  1  0  0  0  0
M  END
