1,9
 OpenBabel05122313053D

 32 32  0  0  1  0  0  0  0  0999 V2000
   -0.8152    0.1721   -1.6939 O   0  0  0  0  0  1  0  0  0  0  0  0
   -0.0044    2.7935    2.5095 O   0  0  0  0  0  0  0  0  0  0  0  0
    1.4697    3.2143    0.8355 O   0  0  0  0  0  0  0  0  0  0  0  0
   -1.3774    4.4465    0.2299 O   0  0  0  0  0  0  0  0  0  0  0  0
   -3.0682    3.5897   -1.0260 O   0  0  0  0  0  0  0  0  0  0  0  0
   -6.8390   -2.9054   -0.4131 O   0  0  0  0  0  0  0  0  0  0  0  0
   -6.3442   -2.3056    1.6326 O   0  0  0  0  0  0  0  0  0  0  0  0
   -6.2119   -2.2311    0.4033 N   0  0  0  0  0  0  0  0  0  0  0  0
   -0.2890    1.7235    0.3697 C   0  0  0  0  0  3  0  0  0  0  0  0
   -1.3538    2.1171   -0.3930 C   0  0  0  0  0  0  0  0  0  0  0  0
   -1.8472    1.1003   -1.4013 C   0  0  2  0  0  0  0  0  0  0  0  0
   -2.1139    1.6355   -2.3474 H   0  0  0  0  0  0  0  0  0  0  0  0
    0.3571    2.6369    1.3542 C   0  0  0  0  0  0  0  0  0  0  0  0
    2.1495    4.1178    1.7113 C   0  0  0  0  0  0  0  0  0  0  0  0
    1.4982    4.9816    1.9548 H   0  0  0  0  0  0  0  0  0  0  0  0
    3.0487    4.4542    1.1647 H   0  0  0  0  0  0  0  0  0  0  0  0
    2.4344    3.6128    2.6565 H   0  0  0  0  0  0  0  0  0  0  0  0
   -1.8907    3.4886   -0.3349 C   0  0  0  0  0  0  0  0  0  0  0  0
   -3.6541    4.8922   -1.0417 C   0  0  0  0  0  0  0  0  0  0  0  0
   -3.8734    5.2419   -0.0121 H   0  0  0  0  0  0  0  0  0  0  0  0
   -4.5879    4.8038   -1.6256 H   0  0  0  0  0  0  0  0  0  0  0  0
   -2.9722    5.6297   -1.5127 H   0  0  0  0  0  0  0  0  0  0  0  0
   -3.1080    0.3523   -0.9578 C   0  0  0  0  0  0  0  0  0  0  0  0
   -3.6172   -0.6591   -1.8006 C   0  0  0  0  0  0  0  0  0  0  0  0
   -3.1454   -0.8187   -2.7816 H   0  0  0  0  0  0  0  0  0  0  0  0
   -4.6708   -1.4792   -1.3892 C   0  0  0  0  0  0  0  0  0  0  0  0
   -5.0730   -2.2837   -2.0198 H   0  0  0  0  0  0  0  0  0  0  0  0
   -5.2046   -1.2870   -0.1049 C   0  0  0  0  0  0  0  0  0  0  0  0
   -4.7631   -0.2515    0.7319 C   0  0  0  0  0  0  0  0  0  0  0  0
   -5.2303   -0.1221    1.7178 H   0  0  0  0  0  0  0  0  0  0  0  0
   -3.7240    0.5733    0.2902 C   0  0  0  0  0  0  0  0  0  0  0  0
   -3.3496    1.3766    0.9404 H   0  0  0  0  0  0  0  0  0  0  0  0
  1 11  1  0  0  0  0
  3 13  1  0  0  0  0
  3 14  1  0  0  0  0
  5 18  1  0  0  0  0
  6  8  2  0  0  0  0
  8  7  2  0  0  0  0
  9 13  1  0  0  0  0
 10 18  1  0  0  0  0
 10  9  2  0  0  0  0
 11 12  1  6  0  0  0
 11 23  1  0  0  0  0
 11 10  1  0  0  0  0
 13  2  2  0  0  0  0
 14 15  1  0  0  0  0
 14 17  1  0  0  0  0
 16 14  1  0  0  0  0
 18  4  2  0  0  0  0
 19  5  1  0  0  0  0
 19 20  1  0  0  0  0
 21 19  1  0  0  0  0
 22 19  1  0  0  0  0
 23 31  1  0  0  0  0
 24 26  1  0  0  0  0
 24 23  2  0  0  0  0
 25 24  1  0  0  0  0
 26 28  2  0  0  0  0
 27 26  1  0  0  0  0
 28  8  1  0  0  0  0
 28 29  1  0  0  0  0
 29 30  1  0  0  0  0
 31 29  2  0  0  0  0
 31 32  1  0  0  0  0
M  END
