1,12
 OpenBabel05122313053D

 27 27  0  0  1  0  0  0  0  0999 V2000
   -0.2765    0.5463   -1.2484 O   0  0  0  0  0  1  0  0  0  0  0  0
    1.0069   -0.0270   -1.1956 C   0  0  2  0  0  0  0  0  0  0  0  0
    1.0596   -0.8737   -1.9212 H   0  0  0  0  0  0  0  0  0  0  0  0
    1.3071   -0.5447    0.2591 C   0  0  1  0  0  0  0  0  0  0  0  0
    1.3561   -1.6540    0.2387 H   0  0  0  0  0  0  0  0  0  0  0  0
    2.7223    0.0122    0.6151 C   0  0  2  0  0  0  0  0  0  0  0  0
    2.5741    0.9636    1.1720 H   0  0  0  0  0  0  0  0  0  0  0  0
    3.3664    0.4176   -0.7600 C   0  0  0  0  0  0  0  0  0  0  0  0
    2.1329    0.9705   -1.5060 C   0  0  0  0  0  0  0  0  0  0  0  0
    1.8464    1.9529   -1.0734 H   0  0  0  0  0  0  0  0  0  0  0  0
    2.3081    1.1174   -2.5914 H   0  0  0  0  0  0  0  0  0  0  0  0
    0.1831   -0.0871    1.2025 C   0  0  0  0  0  3  0  0  0  0  0  0
    0.3859    0.9544    1.5213 H   0  0  0  0  0  0  0  0  0  0  0  0
    0.1272   -0.7017    2.1243 H   0  0  0  0  0  0  0  0  0  0  0  0
    3.5434   -0.9018    1.4694 C   0  0  0  0  0  0  0  0  0  0  0  0
    3.6861   -1.9279    1.0813 H   0  0  0  0  0  0  0  0  0  0  0  0
    4.0945   -0.5790    2.6539 C   0  0  0  0  0  0  0  0  0  0  0  0
    3.9695    0.4288    3.0847 H   0  0  0  0  0  0  0  0  0  0  0  0
    4.6839   -1.3042    3.2367 H   0  0  0  0  0  0  0  0  0  0  0  0
    3.9538   -0.7987   -1.5004 C   0  0  0  0  0  0  0  0  0  0  0  0
    3.2299   -1.6339   -1.5894 H   0  0  0  0  0  0  0  0  0  0  0  0
    4.8509   -1.1887   -0.9787 H   0  0  0  0  0  0  0  0  0  0  0  0
    4.2617   -0.5120   -2.5271 H   0  0  0  0  0  0  0  0  0  0  0  0
    4.4605    1.4724   -0.5709 C   0  0  0  0  0  0  0  0  0  0  0  0
    4.9003    1.7735   -1.5444 H   0  0  0  0  0  0  0  0  0  0  0  0
    5.2792    1.0804    0.0675 H   0  0  0  0  0  0  0  0  0  0  0  0
    4.0565    2.3839   -0.0836 H   0  0  0  0  0  0  0  0  0  0  0  0
  1  2  1  0  0  0  0
  2  3  1  6  0  0  0
  2  4  1  0  0  0  0
  4  5  1  6  0  0  0
  4  6  1  0  0  0  0
  4 12  1  0  0  0  0
  6  7  1  1  0  0  0
  6 15  1  0  0  0  0
  8 24  1  0  0  0  0
  8  6  1  0  0  0  0
  9  2  1  0  0  0  0
  9 10  1  0  0  0  0
  9  8  1  0  0  0  0
 11  9  1  0  0  0  0
 12 13  1  0  0  0  0
 12 14  1  0  0  0  0
 15 17  2  0  0  0  0
 16 15  1  0  0  0  0
 17 18  1  0  0  0  0
 17 19  1  0  0  0  0
 20 22  1  0  0  0  0
 20  8  1  0  0  0  0
 21 20  1  0  0  0  0
 23 20  1  0  0  0  0
 24 27  1  0  0  0  0
 24 26  1  0  0  0  0
 25 24  1  0  0  0  0
M  END
