2,4
 OpenBabel05122313053D

 57 59  0  0  1  0  0  0  0  0999 V2000
   -2.9268    0.2247    0.5454 Si  0  0  0  0  0  0  0  0  0  0  0  0
    2.5254    0.9180   -0.4280 O   0  0  0  0  0  1  0  0  0  0  0  0
   -1.4246   -0.5195    0.3006 O   0  0  0  0  0  0  0  0  0  0  0  0
    2.8421   -1.6331   -0.5766 C   0  0  0  0  0  3  0  0  0  0  0  0
    2.8145   -1.6416   -1.6845 H   0  0  0  0  0  0  0  0  0  0  0  0
    3.1547   -2.6466   -0.2514 H   0  0  0  0  0  0  0  0  0  0  0  0
    1.4560   -1.2465   -0.0427 C   0  0  1  0  0  0  0  0  0  0  0  0
    1.3460   -1.5701    1.0125 H   0  0  0  0  0  0  0  0  0  0  0  0
    1.2955    0.3186   -0.1051 C   0  0  2  0  0  0  0  0  0  0  0  0
    0.9345    0.7000    0.8783 H   0  0  0  0  0  0  0  0  0  0  0  0
    0.1973    0.5694   -1.1513 C   0  0  0  0  0  0  0  0  0  0  0  0
    0.6477    0.5191   -2.1647 H   0  0  0  0  0  0  0  0  0  0  0  0
   -0.3137    1.5451   -1.0450 H   0  0  0  0  0  0  0  0  0  0  0  0
   -0.7377   -0.6264   -0.9470 C   0  0  1  0  0  0  0  0  0  0  0  0
   -1.4632   -0.7602   -1.7822 H   0  0  0  0  0  0  0  0  0  0  0  0
    0.2484   -1.8217   -0.8582 C   0  0  2  0  0  0  0  0  0  0  0  0
    0.5946   -2.0239   -1.8945 H   0  0  0  0  0  0  0  0  0  0  0  0
   -0.3344   -3.0738   -0.2838 C   0  0  0  0  0  0  0  0  0  0  0  0
   -0.7655   -2.9660    0.7280 H   0  0  0  0  0  0  0  0  0  0  0  0
   -0.3471   -4.2786   -0.8836 C   0  0  0  0  0  0  0  0  0  0  0  0
    0.0772   -4.4212   -1.8919 H   0  0  0  0  0  0  0  0  0  0  0  0
   -0.7774   -5.1647   -0.3909 H   0  0  0  0  0  0  0  0  0  0  0  0
   -3.1588    0.1103    2.4453 C   0  0  0  0  0  0  0  0  0  0  0  0
   -3.3896   -1.3756    2.7905 C   0  0  0  0  0  0  0  0  0  0  0  0
   -4.2991   -1.7797    2.3021 H   0  0  0  0  0  0  0  0  0  0  0  0
   -3.5120   -1.4962    3.8898 H   0  0  0  0  0  0  0  0  0  0  0  0
   -2.5306   -2.0044    2.4780 H   0  0  0  0  0  0  0  0  0  0  0  0
   -4.3882    0.9363    2.8649 C   0  0  0  0  0  0  0  0  0  0  0  0
   -5.3092    0.5889    2.3516 H   0  0  0  0  0  0  0  0  0  0  0  0
   -4.2647    2.0156    2.6405 H   0  0  0  0  0  0  0  0  0  0  0  0
   -4.5651    0.8383    3.9591 H   0  0  0  0  0  0  0  0  0  0  0  0
   -1.8949    0.5970    3.1805 C   0  0  0  0  0  0  0  0  0  0  0  0
   -0.9957    0.0443    2.8414 H   0  0  0  0  0  0  0  0  0  0  0  0
   -2.0053    0.4356    4.2760 H   0  0  0  0  0  0  0  0  0  0  0  0
   -1.7023    1.6783    3.0300 H   0  0  0  0  0  0  0  0  0  0  0  0
   -4.2550   -0.7770   -0.3519 C   0  0  0  0  0  0  0  0  0  0  0  0
   -4.0001   -2.1085   -0.7532 C   0  0  0  0  0  0  0  0  0  0  0  0
   -3.0040   -2.5491   -0.5876 H   0  0  0  0  0  0  0  0  0  0  0  0
   -4.9993   -2.8821   -1.3646 C   0  0  0  0  0  0  0  0  0  0  0  0
   -4.7777   -3.9151   -1.6750 H   0  0  0  0  0  0  0  0  0  0  0  0
   -6.2766   -2.3406   -1.5797 C   0  0  0  0  0  0  0  0  0  0  0  0
   -7.0613   -2.9474   -2.0576 H   0  0  0  0  0  0  0  0  0  0  0  0
   -6.5498   -1.0204   -1.1861 C   0  0  0  0  0  0  0  0  0  0  0  0
   -7.5492   -0.5901   -1.3546 H   0  0  0  0  0  0  0  0  0  0  0  0
   -5.5461   -0.2471   -0.5822 C   0  0  0  0  0  0  0  0  0  0  0  0
   -5.7710    0.7927   -0.2927 H   0  0  0  0  0  0  0  0  0  0  0  0
   -2.9223    1.9769   -0.1790 C   0  0  0  0  0  0  0  0  0  0  0  0
   -3.3213    2.1685   -1.5233 C   0  0  0  0  0  0  0  0  0  0  0  0
   -3.7050    1.3138   -2.1032 H   0  0  0  0  0  0  0  0  0  0  0  0
   -3.2364    3.4278   -2.1374 C   0  0  0  0  0  0  0  0  0  0  0  0
   -3.5490    3.5492   -3.1861 H   0  0  0  0  0  0  0  0  0  0  0  0
   -2.7542    4.5302   -1.4150 C   0  0  0  0  0  0  0  0  0  0  0  0
   -2.6875    5.5195   -1.8934 H   0  0  0  0  0  0  0  0  0  0  0  0
   -2.3574    4.3652   -0.0783 C   0  0  0  0  0  0  0  0  0  0  0  0
   -1.9787    5.2255    0.4949 H   0  0  0  0  0  0  0  0  0  0  0  0
   -2.4393    3.1026    0.5282 C   0  0  0  0  0  0  0  0  0  0  0  0
   -2.1100    2.9957    1.5727 H   0  0  0  0  0  0  0  0  0  0  0  0
  1 23  1  0  0  0  0
  2  9  1  0  0  0  0
  3  1  1  0  0  0  0
  4  6  1  0  0  0  0
  4  7  1  0  0  0  0
  5  4  1  0  0  0  0
  7  8  1  1  0  0  0
  9  7  1  0  0  0  0
  9 10  1  1  0  0  0
 11 13  1  0  0  0  0
 11 14  1  0  0  0  0
 11  9  1  0  0  0  0
 12 11  1  0  0  0  0
 14 15  1  6  0  0  0
 14 16  1  0  0  0  0
 14  3  1  0  0  0  0
 16 17  1  6  0  0  0
 16 18  1  0  0  0  0
 16  7  1  0  0  0  0
 18 19  1  0  0  0  0
 20 22  1  0  0  0  0
 20 18  2  0  0  0  0
 21 20  1  0  0  0  0
 23 24  1  0  0  0  0
 23 28  1  0  0  0  0
 23 32  1  0  0  0  0
 24 26  1  0  0  0  0
 25 24  1  0  0  0  0
 27 24  1  0  0  0  0
 28 31  1  0  0  0  0
 29 28  1  0  0  0  0
 30 28  1  0  0  0  0
 32 34  1  0  0  0  0
 33 32  1  0  0  0  0
 35 32  1  0  0  0  0
 36  1  1  0  0  0  0
 37 38  1  0  0  0  0
 37 36  2  0  0  0  0
 39 37  1  0  0  0  0
 40 39  1  0  0  0  0
 41 39  2  0  0  0  0
 41 43  1  0  0  0  0
 42 41  1  0  0  0  0
 43 45  2  0  0  0  0
 44 43  1  0  0  0  0
 45 36  1  0  0  0  0
 45 46  1  0  0  0  0
 47 56  1  0  0  0  0
 47  1  1  0  0  0  0
 48 47  2  0  0  0  0
 49 48  1  0  0  0  0
 50 48  1  0  0  0  0
 50 52  2  0  0  0  0
 51 50  1  0  0  0  0
 52 54  1  0  0  0  0
 53 52  1  0  0  0  0
 54 55  1  0  0  0  0
 54 56  2  0  0  0  0
 56 57  1  0  0  0  0
M  END
