1,15
 OpenBabel05122313053D

 18 18  0  0  1  0  0  0  0  0999 V2000
    0.8341   -0.1585   -1.1679 O   0  0  0  0  0  1  0  0  0  0  0  0
    1.8577   -1.0291   -0.7246 C   0  0  2  0  0  0  0  0  0  0  0  0
    1.5867   -2.0935   -0.9292 H   0  0  0  0  0  0  0  0  0  0  0  0
    2.0390   -0.7478    0.7912 C   0  0  1  0  0  0  0  0  0  0  0  0
    2.5056   -1.6302    1.2852 H   0  0  0  0  0  0  0  0  0  0  0  0
    3.0593    0.4451    0.8332 C   0  0  0  0  0  0  0  0  0  0  0  0
    3.8965    0.1946    1.5149 H   0  0  0  0  0  0  0  0  0  0  0  0
    2.5835    1.3549    1.2486 H   0  0  0  0  0  0  0  0  0  0  0  0
    3.5580    0.6623   -0.6169 C   0  0  0  0  0  0  0  0  0  0  0  0
    3.0110    1.5041   -1.0881 H   0  0  0  0  0  0  0  0  0  0  0  0
    4.6379    0.9055   -0.6710 H   0  0  0  0  0  0  0  0  0  0  0  0
    3.1962   -0.6361   -1.3556 C   0  0  0  0  0  0  0  0  0  0  0  0
    3.9399   -1.4344   -1.1424 H   0  0  0  0  0  0  0  0  0  0  0  0
    3.1229   -0.5245   -2.4558 H   0  0  0  0  0  0  0  0  0  0  0  0
    0.6926   -0.4395    1.4328 C   0  0  0  0  0  3  0  0  0  0  0  0
    0.5185   -0.5358    2.7662 C   0  0  0  0  0  0  0  0  0  0  0  0
    1.3319   -0.8631    3.4448 H   0  0  0  0  0  0  0  0  0  0  0  0
   -0.4375   -0.2849    3.2595 H   0  0  0  0  0  0  0  0  0  0  0  0
  1  2  1  0  0  0  0
  2  3  1  6  0  0  0
  2  4  1  0  0  0  0
  4  6  1  0  0  0  0
  4  5  1  1  0  0  0
  4 15  1  0  0  0  0
  6  8  1  0  0  0  0
  6  7  1  0  0  0  0
  9  6  1  0  0  0  0
 10  9  1  0  0  0  0
 11  9  1  0  0  0  0
 12 13  1  0  0  0  0
 12  2  1  0  0  0  0
 12  9  1  0  0  0  0
 14 12  1  0  0  0  0
 15 16  2  0  0  0  0
 16 18  1  0  0  0  0
 16 17  1  0  0  0  0
M  END
