1,4
 OpenBabel05122313053D

 18 19  0  0  1  0  0  0  0  0999 V2000
   -1.5917   -1.8117   -0.6266 O   0  0  0  0  0  1  0  0  0  0  0  0
   -2.8160   -1.0628   -0.6724 C   0  0  2  0  0  0  0  0  0  0  0  0
   -3.3369   -1.2101   -1.6487 H   0  0  0  0  0  0  0  0  0  0  0  0
   -2.2993    0.3788   -0.4153 C   0  0  0  0  0  3  0  0  0  0  0  0
   -2.4870    1.1209   -1.2157 H   0  0  0  0  0  0  0  0  0  0  0  0
   -2.8769    0.7418    0.9581 C   0  0  1  0  0  0  0  0  0  0  0  0
   -2.3252    1.5294    1.5058 H   0  0  0  0  0  0  0  0  0  0  0  0
   -4.3697    1.0637    0.6693 C   0  0  0  0  0  0  0  0  0  0  0  0
   -4.4950    1.8113   -0.1405 H   0  0  0  0  0  0  0  0  0  0  0  0
   -4.8477    1.4830    1.5781 H   0  0  0  0  0  0  0  0  0  0  0  0
   -4.9653   -0.3359    0.3025 C   0  0  0  0  0  0  0  0  0  0  0  0
   -5.8071   -0.6058    0.9703 H   0  0  0  0  0  0  0  0  0  0  0  0
   -5.3525   -0.3739   -0.7374 H   0  0  0  0  0  0  0  0  0  0  0  0
   -3.7701   -1.3003    0.5134 C   0  0  2  0  0  0  0  0  0  0  0  0
   -4.0465   -2.3639    0.6480 H   0  0  0  0  0  0  0  0  0  0  0  0
   -3.0158   -0.6242    1.6710 C   0  0  0  0  0  0  0  0  0  0  0  0
   -2.0482   -1.0988    1.9050 H   0  0  0  0  0  0  0  0  0  0  0  0
   -3.6219   -0.5513    2.5972 H   0  0  0  0  0  0  0  0  0  0  0  0
  2  3  1  6  0  0  0
  2  1  1  0  0  0  0
  2  4  1  0  0  0  0
  2 14  1  0  0  0  0
  4  6  1  0  0  0  0
  5  4  1  0  0  0  0
  6  7  1  1  0  0  0
  6 16  1  0  0  0  0
  8  6  1  0  0  0  0
  8 10  1  0  0  0  0
  9  8  1  0  0  0  0
 11 14  1  0  0  0  0
 11  8  1  0  0  0  0
 11 12  1  0  0  0  0
 13 11  1  0  0  0  0
 14 15  1  1  0  0  0
 14 16  1  0  0  0  0
 16 17  1  0  0  0  0
 16 18  1  0  0  0  0
M  END
