1,5
 OpenBabel05122313053D

 32 31  0  0  0  0  0  0  0  0999 V2000
    1.0512   -1.2310   -0.3245 O   0  0  0  0  0  1  0  0  0  0  0  0
    2.3257   -0.7891    0.0813 C   0  0  0  0  0  0  0  0  0  0  0  0
    2.4397    0.7336   -0.4197 C   0  0  0  0  0  0  0  0  0  0  0  0
    1.1520    1.3734    0.0506 C   0  0  0  0  0  3  0  0  0  0  0  0
    0.0625    1.6924   -0.7610 C   0  0  0  0  0  3  0  0  0  0  0  0
   -1.2536    1.9637   -0.2321 C   0  0  0  0  0  3  0  0  0  0  0  0
   -1.4399    2.6915    1.0885 C   0  0  0  0  0  0  0  0  0  0  0  0
   -2.2878    2.3904   -1.2600 C   0  0  0  0  0  0  0  0  0  0  0  0
    2.4960   -0.8957    1.6090 C   0  0  0  0  0  0  0  0  0  0  0  0
    3.3570   -1.7131   -0.5874 C   0  0  0  0  0  0  0  0  0  0  0  0
    2.5666    0.7684   -1.9521 C   0  0  0  0  0  0  0  0  0  0  0  0
    3.6397    1.4699    0.2042 C   0  0  0  0  0  0  0  0  0  0  0  0
    1.1429    1.7223    1.0948 H   0  0  0  0  0  0  0  0  0  0  0  0
    0.1525    1.5581   -1.8528 H   0  0  0  0  0  0  0  0  0  0  0  0
   -2.3943    2.3977    1.5707 H   0  0  0  0  0  0  0  0  0  0  0  0
   -0.6356    2.4977    1.8204 H   0  0  0  0  0  0  0  0  0  0  0  0
   -1.4881    3.7909    0.9129 H   0  0  0  0  0  0  0  0  0  0  0  0
   -3.3243    2.2877   -0.8802 H   0  0  0  0  0  0  0  0  0  0  0  0
   -2.1499    3.4690   -1.5006 H   0  0  0  0  0  0  0  0  0  0  0  0
   -2.2085    1.8277   -2.2104 H   0  0  0  0  0  0  0  0  0  0  0  0
    2.2007   -1.9172    1.9203 H   0  0  0  0  0  0  0  0  0  0  0  0
    3.5483   -0.7352    1.9150 H   0  0  0  0  0  0  0  0  0  0  0  0
    1.8568   -0.1842    2.1631 H   0  0  0  0  0  0  0  0  0  0  0  0
    3.2955   -2.7213   -0.1321 H   0  0  0  0  0  0  0  0  0  0  0  0
    3.1540   -1.8183   -1.6692 H   0  0  0  0  0  0  0  0  0  0  0  0
    4.3925   -1.3402   -0.4508 H   0  0  0  0  0  0  0  0  0  0  0  0
    2.4568    1.8049   -2.3302 H   0  0  0  0  0  0  0  0  0  0  0  0
    3.5605    0.4029   -2.2749 H   0  0  0  0  0  0  0  0  0  0  0  0
    1.7985    0.1331   -2.4348 H   0  0  0  0  0  0  0  0  0  0  0  0
    3.7347    2.4890   -0.2230 H   0  0  0  0  0  0  0  0  0  0  0  0
    3.5392    1.5756    1.3019 H   0  0  0  0  0  0  0  0  0  0  0  0
    4.5870    0.9313   -0.0030 H   0  0  0  0  0  0  0  0  0  0  0  0
  1  2  1  0  0  0  0
  2  9  1  0  0  0  0
  3  4  1  0  0  0  0
  3  2  1  0  0  0  0
  3 12  1  0  0  0  0
  4 13  1  0  0  0  0
  5  6  1  0  0  0  0
  5  4  1  0  0  0  0
  6  7  1  0  0  0  0
  7 15  1  0  0  0  0
  7 16  1  0  0  0  0
  8 18  1  0  0  0  0
  8  6  1  0  0  0  0
  9 22  1  0  0  0  0
  9 21  1  0  0  0  0
  9 23  1  0  0  0  0
 10 26  1  0  0  0  0
 10 24  1  0  0  0  0
 10  2  1  0  0  0  0
 11  3  1  0  0  0  0
 12 31  1  0  0  0  0
 14  5  1  0  0  0  0
 17  7  1  0  0  0  0
 19  8  1  0  0  0  0
 20  8  1  0  0  0  0
 25 10  1  0  0  0  0
 27 11  1  0  0  0  0
 28 11  1  0  0  0  0
 29 11  1  0  0  0  0
 30 12  1  0  0  0  0
 32 12  1  0  0  0  0
M  END
