1,8
 OpenBabel05122313053D

 18 17  0  0  1  0  0  0  0  0999 V2000
   -2.8318   -1.8841   -1.8119 O   0  0  0  0  0  1  0  0  0  0  0  0
   -3.9402   -1.4963   -1.3848 C   0  0  1  0  0  3  0  0  0  0  0  0
   -5.2250   -2.1416   -1.8156 C   0  0  0  0  0  0  0  0  0  0  0  0
   -5.1177   -2.5339   -2.8425 H   0  0  0  0  0  0  0  0  0  0  0  0
   -6.0737   -1.4389   -1.7409 H   0  0  0  0  0  0  0  0  0  0  0  0
   -5.4249   -3.0018   -1.1437 H   0  0  0  0  0  0  0  0  0  0  0  0
   -4.0730   -0.5315   -0.5013 O   0  0  0  0  0  0  0  0  0  0  0  0
   -2.8119    0.1990   -0.1416 C   0  0  0  0  0  3  0  0  0  0  0  0
   -2.9433    0.4000    0.9392 H   0  0  0  0  0  0  0  0  0  0  0  0
   -2.8205    1.5085   -0.9196 C   0  0  0  0  0  0  0  0  0  0  0  0
   -1.7782    1.8561   -1.0952 H   0  0  0  0  0  0  0  0  0  0  0  0
   -3.2319    1.3589   -1.9408 H   0  0  0  0  0  0  0  0  0  0  0  0
   -3.5538    2.6618   -0.2290 C   0  0  0  0  0  0  0  0  0  0  0  0
   -3.7272    3.9181   -1.0595 C   0  0  0  0  0  0  0  0  0  0  0  0
   -4.2305    4.7003   -0.4629 H   0  0  0  0  0  0  0  0  0  0  0  0
   -4.3159    3.7041   -1.9756 H   0  0  0  0  0  0  0  0  0  0  0  0
   -2.7327    4.2810   -1.3939 H   0  0  0  0  0  0  0  0  0  0  0  0
   -3.9244    2.5941    0.9328 O   0  0  0  0  0  0  0  0  0  0  0  0
  2  1  1  1  0  0  0
  2  7  1  0  0  0  0
  3  5  1  0  0  0  0
  3  2  1  0  0  0  0
  3  6  1  0  0  0  0
  4  3  1  0  0  0  0
  7  8  1  0  0  0  0
  8  9  1  0  0  0  0
 10 13  1  0  0  0  0
 10  8  1  0  0  0  0
 11 10  1  0  0  0  0
 12 10  1  0  0  0  0
 13 18  2  0  0  0  0
 14 15  1  0  0  0  0
 14 13  1  0  0  0  0
 16 14  1  0  0  0  0
 17 14  1  0  0  0  0
M  END
