1,7
 OpenBabel05122313053D

 29 29  0  0  1  0  0  0  0  0999 V2000
   -1.2121   -2.1770   -0.2261 O   0  0  0  0  0  1  0  0  0  0  0  0
    0.4705   -3.6676   -0.2369 O   0  0  0  0  0  0  0  0  0  0  0  0
    5.2160   -1.9388    0.0771 O   0  0  0  0  0  0  0  0  0  0  0  0
    5.4900    0.3143    0.0950 O   0  0  0  0  0  0  0  0  0  0  0  0
    0.0112    2.7655   -1.0956 O   0  0  0  0  0  0  0  0  0  0  0  0
    1.6648    3.3424    0.3401 O   0  0  0  0  0  0  0  0  0  0  0  0
    0.4404   -0.0282   -0.0954 C   0  0  0  0  0  3  0  0  0  0  0  0
    1.0035   -1.3411   -0.0981 C   0  0  0  0  0  0  0  0  0  0  0  0
    2.3860   -1.5959   -0.0634 C   0  0  0  0  0  0  0  0  0  0  0  0
    3.2791   -0.5171   -0.0123 C   0  0  0  0  0  0  0  0  0  0  0  0
    2.7654    0.7955   -0.0464 C   0  0  0  0  0  0  0  0  0  0  0  0
    1.3803    1.0356   -0.1272 C   0  0  0  0  0  0  0  0  0  0  0  0
    0.0186   -2.4206   -0.1837 C   0  0  1  0  0  3  0  0  0  0  0  0
    4.7395   -0.8160    0.0565 C   0  0  0  0  0  0  0  0  0  0  0  0
    0.9206    2.4432   -0.3495 C   0  0  0  0  0  0  0  0  0  0  0  0
   -0.5109   -4.7140   -0.3464 C   0  0  0  0  0  0  0  0  0  0  0  0
    6.9039    0.1048    0.1652 C   0  0  0  0  0  0  0  0  0  0  0  0
    1.2932    4.7134    0.1400 C   0  0  0  0  0  0  0  0  0  0  0  0
    2.7813   -2.6221   -0.0696 H   0  0  0  0  0  0  0  0  0  0  0  0
    3.4617    1.6449   -0.0294 H   0  0  0  0  0  0  0  0  0  0  0  0
    0.0606   -5.6575   -0.3735 H   0  0  0  0  0  0  0  0  0  0  0  0
   -1.1066   -4.5911   -1.2721 H   0  0  0  0  0  0  0  0  0  0  0  0
   -1.1955   -4.6963    0.5242 H   0  0  0  0  0  0  0  0  0  0  0  0
    7.1733   -0.4687    1.0751 H   0  0  0  0  0  0  0  0  0  0  0  0
    7.2633   -0.4620   -0.7175 H   0  0  0  0  0  0  0  0  0  0  0  0
    7.3622    1.1093    0.1919 H   0  0  0  0  0  0  0  0  0  0  0  0
    0.2304    4.8703    0.4130 H   0  0  0  0  0  0  0  0  0  0  0  0
    1.9562    5.3083    0.7926 H   0  0  0  0  0  0  0  0  0  0  0  0
    1.4255    5.0075   -0.9208 H   0  0  0  0  0  0  0  0  0  0  0  0
  2 13  1  0  0  0  0
  4 17  1  0  0  0  0
  5 15  2  0  0  0  0
  8  7  1  0  0  0  0
  8  9  2  0  0  0  0
  9 10  1  0  0  0  0
 10 14  1  0  0  0  0
 11 20  1  0  0  0  0
 11 10  2  0  0  0  0
 12  7  2  0  0  0  0
 12 11  1  0  0  0  0
 13  1  1  6  0  0  0
 13  8  1  0  0  0  0
 14  3  2  0  0  0  0
 14  4  1  0  0  0  0
 15 12  1  0  0  0  0
 15  6  1  0  0  0  0
 16  2  1  0  0  0  0
 16 23  1  0  0  0  0
 17 26  1  0  0  0  0
 17 24  1  0  0  0  0
 18  6  1  0  0  0  0
 18 27  1  0  0  0  0
 18 28  1  0  0  0  0
 19  9  1  0  0  0  0
 21 16  1  0  0  0  0
 22 16  1  0  0  0  0
 25 17  1  0  0  0  0
 29 18  1  0  0  0  0
M  END
