2,4
 OpenBabel05122313053D

 45 44  0  0  0  0  0  0  0  0999 V2000
    2.9309   -0.3321   -0.2419 Si  0  0  0  0  0  0  0  0  0  0  0  0
   -0.9069    1.6796    1.0723 O   0  5  0  0  0  0  0  0  0  0  0  0
   -0.4874    3.6644    0.0289 N   0  0  0  0  0  0  0  0  0  0  0  0
    1.2764    0.4665    0.2696 C   0  0  0  0  0  2  0  0  0  0  0  0
    1.1471    1.8045   -0.0253 C   0  0  0  0  0  0  0  0  0  0  0  0
    1.9028    2.3845   -0.5768 H   0  0  0  0  0  0  0  0  0  0  0  0
   -0.1131    2.4026    0.3619 C   0  0  0  0  0  0  0  0  0  0  0  0
   -1.8469    4.0925    0.3206 C   0  0  0  0  0  0  0  0  0  0  0  0
   -2.1938    3.5985    1.2452 H   0  0  0  0  0  0  0  0  0  0  0  0
   -2.5408    3.8195   -0.5057 H   0  0  0  0  0  0  0  0  0  0  0  0
   -1.8694    5.1910    0.4611 H   0  0  0  0  0  0  0  0  0  0  0  0
    0.2580    4.4188   -0.9688 C   0  0  0  0  0  0  0  0  0  0  0  0
    1.3404    4.4196   -0.7396 H   0  0  0  0  0  0  0  0  0  0  0  0
   -0.0885    5.4692   -0.9561 H   0  0  0  0  0  0  0  0  0  0  0  0
    0.1093    4.0036   -1.9895 H   0  0  0  0  0  0  0  0  0  0  0  0
    3.2876    0.2717   -2.0377 C   0  0  0  0  0  0  0  0  0  0  0  0
    3.3969    1.3745   -1.9109 H   0  0  0  0  0  0  0  0  0  0  0  0
    4.3016    0.4060    0.9101 C   0  0  0  0  0  0  0  0  0  0  0  0
    5.2299   -0.1118    0.5752 H   0  0  0  0  0  0  0  0  0  0  0  0
    3.0010   -2.2441   -0.0563 C   0  0  0  0  0  0  0  0  0  0  0  0
    2.5196   -2.4426    0.9260 H   0  0  0  0  0  0  0  0  0  0  0  0
    2.1378    0.0407   -3.0311 C   0  0  0  0  0  0  0  0  0  0  0  0
    1.9695   -1.0375   -3.2220 H   0  0  0  0  0  0  0  0  0  0  0  0
    2.3710    0.5146   -4.0101 H   0  0  0  0  0  0  0  0  0  0  0  0
    1.1745    0.4535   -2.6734 H   0  0  0  0  0  0  0  0  0  0  0  0
    4.6247   -0.2566   -2.5818 C   0  0  0  0  0  0  0  0  0  0  0  0
    5.4751   -0.0702   -1.8932 H   0  0  0  0  0  0  0  0  0  0  0  0
    4.8743    0.2224   -3.5539 H   0  0  0  0  0  0  0  0  0  0  0  0
    4.5806   -1.3498   -2.7675 H   0  0  0  0  0  0  0  0  0  0  0  0
    4.5225    1.9144    0.7402 C   0  0  0  0  0  0  0  0  0  0  0  0
    4.7489    2.1944   -0.3087 H   0  0  0  0  0  0  0  0  0  0  0  0
    5.3718    2.2659    1.3662 H   0  0  0  0  0  0  0  0  0  0  0  0
    3.6267    2.4889    1.0566 H   0  0  0  0  0  0  0  0  0  0  0  0
    4.0724    0.0583    2.3884 C   0  0  0  0  0  0  0  0  0  0  0  0
    3.1495    0.5450    2.7689 H   0  0  0  0  0  0  0  0  0  0  0  0
    4.9136    0.4127    3.0236 H   0  0  0  0  0  0  0  0  0  0  0  0
    3.9755   -1.0343    2.5583 H   0  0  0  0  0  0  0  0  0  0  0  0
    2.1927   -2.9832   -1.1360 C   0  0  0  0  0  0  0  0  0  0  0  0
    1.1718   -2.5713   -1.2716 H   0  0  0  0  0  0  0  0  0  0  0  0
    2.1064   -4.0655   -0.8927 H   0  0  0  0  0  0  0  0  0  0  0  0
    2.7018   -2.9204   -2.1203 H   0  0  0  0  0  0  0  0  0  0  0  0
    4.4340   -2.7988    0.0353 C   0  0  0  0  0  0  0  0  0  0  0  0
    5.0165   -2.5937   -0.8859 H   0  0  0  0  0  0  0  0  0  0  0  0
    4.4149   -3.9030    0.1646 H   0  0  0  0  0  0  0  0  0  0  0  0
    5.0053   -2.3792    0.8878 H   0  0  0  0  0  0  0  0  0  0  0  0
  1 20  1  0  0  0  0
  1  4  1  0  0  0  0
  1 18  1  0  0  0  0
  3  8  1  0  0  0  0
  3  7  1  0  0  0  0
  5  4  1  0  0  0  0
  5  7  2  0  0  0  0
  6  5  1  0  0  0  0
  7  2  1  0  0  0  0
  8 11  1  0  0  0  0
  8  9  1  0  0  0  0
 10  8  1  0  0  0  0
 12 14  1  0  0  0  0
 12 13  1  0  0  0  0
 12  3  1  0  0  0  0
 15 12  1  0  0  0  0
 16 17  1  0  0  0  0
 16  1  1  0  0  0  0
 18 34  1  0  0  0  0
 19 18  1  0  0  0  0
 20 42  1  0  0  0  0
 20 21  1  0  0  0  0
 22 25  1  0  0  0  0
 22 16  1  0  0  0  0
 23 22  1  0  0  0  0
 24 22  1  0  0  0  0
 26 16  1  0  0  0  0
 26 27  1  0  0  0  0
 28 26  1  0  0  0  0
 29 26  1  0  0  0  0
 30 18  1  0  0  0  0
 30 33  1  0  0  0  0
 30 32  1  0  0  0  0
 31 30  1  0  0  0  0
 34 37  1  0  0  0  0
 34 35  1  0  0  0  0
 34 36  1  0  0  0  0
 38 40  1  0  0  0  0
 38 20  1  0  0  0  0
 39 38  1  0  0  0  0
 41 38  1  0  0  0  0
 42 44  1  0  0  0  0
 42 45  1  0  0  0  0
 43 42  1  0  0  0  0
M  CHG  1   2  -1
M  END
