2,4
 OpenBabel05122313053D

 27 26  0  0  0  0  0  0  0  0999 V2000
    1.5188    2.3821    0.5623 Si  0  0  0  0  0  0  0  0  0  0  0  0
   -0.5101   -1.5878    0.9725 O   0  5  0  0  0  0  0  0  0  0  0  0
   -2.3579   -0.9292    2.1350 N   0  0  0  0  0  0  0  0  0  0  0  0
    0.6080    0.7348    0.7891 C   0  0  0  0  0  2  0  0  0  0  0  0
   -0.5731    0.6791    1.4931 C   0  0  0  0  0  0  0  0  0  0  0  0
   -1.0699    1.5610    1.9266 H   0  0  0  0  0  0  0  0  0  0  0  0
   -1.1661   -0.6423    1.5444 C   0  0  0  0  0  0  0  0  0  0  0  0
   -2.9374   -2.2550    1.9955 C   0  0  0  0  0  0  0  0  0  0  0  0
   -3.8388   -2.2232    1.3443 H   0  0  0  0  0  0  0  0  0  0  0  0
   -3.2376   -2.6525    2.9878 H   0  0  0  0  0  0  0  0  0  0  0  0
   -2.1899   -2.9253    1.5374 H   0  0  0  0  0  0  0  0  0  0  0  0
   -3.2128    0.1057    2.6899 C   0  0  0  0  0  0  0  0  0  0  0  0
   -2.6132    0.9059    3.1594 H   0  0  0  0  0  0  0  0  0  0  0  0
   -3.8563   -0.3394    3.4740 H   0  0  0  0  0  0  0  0  0  0  0  0
   -3.8654    0.5595    1.9103 H   0  0  0  0  0  0  0  0  0  0  0  0
    2.0900    2.6310   -1.2284 C   0  0  0  0  0  0  0  0  0  0  0  0
    3.1774    2.8459   -1.2741 H   0  0  0  0  0  0  0  0  0  0  0  0
    1.5646    3.4923   -1.6898 H   0  0  0  0  0  0  0  0  0  0  0  0
    1.8750    1.7336   -1.8453 H   0  0  0  0  0  0  0  0  0  0  0  0
    3.0151    2.4449    1.7339 C   0  0  0  0  0  0  0  0  0  0  0  0
    2.7290    2.1755    2.7709 H   0  0  0  0  0  0  0  0  0  0  0  0
    3.4233    3.4773    1.7503 H   0  0  0  0  0  0  0  0  0  0  0  0
    3.8334    1.7709    1.4119 H   0  0  0  0  0  0  0  0  0  0  0  0
    0.3416    3.7891    1.0603 C   0  0  0  0  0  0  0  0  0  0  0  0
   -0.5860    3.7627    0.4521 H   0  0  0  0  0  0  0  0  0  0  0  0
    0.8292    4.7727    0.8977 H   0  0  0  0  0  0  0  0  0  0  0  0
    0.0529    3.7300    2.1299 H   0  0  0  0  0  0  0  0  0  0  0  0
  1  4  1  0  0  0  0
  1 24  1  0  0  0  0
  1 20  1  0  0  0  0
  2  7  1  0  0  0  0
  3 12  1  0  0  0  0
  4  5  1  0  0  0  0
  5  7  2  0  0  0  0
  5  6  1  0  0  0  0
  7  3  1  0  0  0  0
  8  3  1  0  0  0  0
  8 10  1  0  0  0  0
  9  8  1  0  0  0  0
 11  8  1  0  0  0  0
 12 13  1  0  0  0  0
 12 14  1  0  0  0  0
 15 12  1  0  0  0  0
 16  1  1  0  0  0  0
 17 16  1  0  0  0  0
 18 16  1  0  0  0  0
 19 16  1  0  0  0  0
 20 22  1  0  0  0  0
 20 21  1  0  0  0  0
 23 20  1  0  0  0  0
 24 27  1  0  0  0  0
 25 24  1  0  0  0  0
 26 24  1  0  0  0  0
M  CHG  1   2  -1
M  END
