3,5
q = -1.0, confidence = 0.0

 15 15  0  0  1  0  0  0  0  0999 V2000
   -4.3112   -2.2052   -0.8804 N   0  0  0  0  0  0  0  0  0  0  0  0
   -5.1766   -2.5762   -1.2835 H   0  0  0  0  0  0  0  0  0  0  0  0
   -2.1095   -2.7723   -0.4506 O   0  0  0  0  0  1  0  0  0  0  0  0
   -4.4249   -0.9712   -0.1848 C   0  0  2  0  0  3  0  0  0  0  0  0
   -3.2926   -0.2678    0.2947 C   0  0  0  0  0  2  0  0  0  0  0  0
   -3.5490    0.8313    1.1440 C   0  0  0  0  0  0  0  0  0  0  0  0
   -2.7080    1.3540    1.6236 H   0  0  0  0  0  0  0  0  0  0  0  0
   -4.8519    1.2752    1.4207 C   0  0  0  0  0  0  0  0  0  0  0  0
   -5.0059    2.1365    2.0878 H   0  0  0  0  0  0  0  0  0  0  0  0
   -5.9523    0.6178    0.8497 C   0  0  0  0  0  0  0  0  0  0  0  0
   -6.9771    0.9664    1.0418 H   0  0  0  0  0  0  0  0  0  0  0  0
   -5.7382   -0.5146    0.0602 C   0  0  0  0  0  0  0  0  0  0  0  0
   -6.5960   -1.0720   -0.3504 H   0  0  0  0  0  0  0  0  0  0  0  0
   -3.2540   -3.0239   -0.9086 C   0  0  0  0  0  3  0  0  0  0  0  0
   -3.4308   -4.0149   -1.3781 H   0  0  0  0  0  0  0  0  0  0  0  0
  2  1  1  0  0  0  0
  4  1  1  1  0  0  0
  4 12  1  0  0  0  0
  4  5  1  0  0  0  0
  5  6  1  0  0  0  0
  6  8  2  0  0  0  0
  6  7  1  0  0  0  0
  8  9  1  0  0  0  0
 10 11  1  0  0  0  0
 10  8  1  0  0  0  0
 12 10  2  0  0  0  0
 13 12  1  0  0  0  0
 14  1  1  0  0  0  0
 14  3  1  0  0  0  0
 15 14  1  0  0  0  0
M  END
