2,3
 OpenBabel05122313053D

 11 10  0  0  0  0  0  0  0  0999 V2000
   -0.1464    0.7170   -2.5833 O   0  0  0  0  0  0  0  0  0  0  0  0
   -0.7101    1.7201    0.7440 O   0  5  0  0  0  0  0  0  0  0  0  0
   -1.0393    1.1582   -1.8702 C   0  0  0  0  0  3  0  0  0  0  0  0
   -2.2679    3.1062    1.8540 C   0  0  0  0  0  0  0  0  0  0  0  0
   -2.9117    2.4314    2.4597 H   0  0  0  0  0  0  0  0  0  0  0  0
   -2.8727    3.9958    1.5921 H   0  0  0  0  0  0  0  0  0  0  0  0
   -1.4048    3.4009    2.4794 H   0  0  0  0  0  0  0  0  0  0  0  0
   -2.2912    1.6618   -1.7058 C   0  0  0  0  0  2  0  0  0  0  0  0
   -2.6436    2.3090   -0.5450 C   0  0  0  0  0  0  0  0  0  0  0  0
   -3.6592    2.7280   -0.4191 H   0  0  0  0  0  0  0  0  0  0  0  0
   -1.7927    2.3744    0.6257 C   0  0  0  0  0  0  0  0  0  0  0  0
  1  3  2  0  0  0  0
  3  8  1  0  0  0  0
  4  5  1  0  0  0  0
  4  7  1  0  0  0  0
  6  4  1  0  0  0  0
  8  9  1  0  0  0  0
  9 10  1  0  0  0  0
  9 11  2  0  0  0  0
 11  2  1  0  0  0  0
 11  4  1  0  0  0  0
M  CHG  1   2  -1
M  END
