1,8
 OpenBabel05122313053D

 20 20  0  0  0  0  0  0  0  0999 V2000
   -1.4269   -0.2137    0.6770 O   0  5  0  0  0  0  0  0  0  0  0  0
   -2.3900    0.1450   -0.1735 C   0  0  0  0  0  0  0  0  0  0  0  0
   -2.0579    0.5671   -1.4956 C   0  0  0  0  0  0  0  0  0  0  0  0
   -3.0900    0.9415   -2.3768 C   0  0  0  0  0  0  0  0  0  0  0  0
   -4.4355    0.9256   -1.9747 C   0  0  0  0  0  0  0  0  0  0  0  0
   -4.7512    0.5265   -0.6644 C   0  0  0  0  0  0  0  0  0  0  0  0
   -3.7578    0.1357    0.2489 C   0  0  0  0  0  0  0  0  0  0  0  0
   -0.5911    0.6004   -1.8701 C   0  0  0  0  0  3  0  0  0  0  0  0
   -4.1098   -0.3190    1.6465 C   0  0  0  0  0  0  0  0  0  0  0  0
   -4.3727   -1.8295    1.7478 C   0  0  0  0  0  0  0  0  0  0  0  0
   -2.8226    1.2632   -3.3980 H   0  0  0  0  0  0  0  0  0  0  0  0
   -5.2314    1.2299   -2.6714 H   0  0  0  0  0  0  0  0  0  0  0  0
   -5.8031    0.5244   -0.3313 H   0  0  0  0  0  0  0  0  0  0  0  0
   -0.3234    1.6061   -2.2653 H   0  0  0  0  0  0  0  0  0  0  0  0
   -0.4126   -0.0756   -2.7327 H   0  0  0  0  0  0  0  0  0  0  0  0
   -5.0114    0.2292    1.9953 H   0  0  0  0  0  0  0  0  0  0  0  0
   -3.2792   -0.0530    2.3339 H   0  0  0  0  0  0  0  0  0  0  0  0
   -3.4830   -2.4103    1.4315 H   0  0  0  0  0  0  0  0  0  0  0  0
   -5.2123   -2.1309    1.0884 H   0  0  0  0  0  0  0  0  0  0  0  0
   -4.6244   -2.1346    2.7853 H   0  0  0  0  0  0  0  0  0  0  0  0
  2  7  1  0  0  0  0
  2  1  1  0  0  0  0
  3  2  2  0  0  0  0
  4  5  2  0  0  0  0
  4  3  1  0  0  0  0
  5  6  1  0  0  0  0
  6 13  1  0  0  0  0
  6  7  2  0  0  0  0
  7  9  1  0  0  0  0
  8  3  1  0  0  0  0
  9 10  1  0  0  0  0
  9 16  1  0  0  0  0
  9 17  1  0  0  0  0
 10 20  1  0  0  0  0
 11  4  1  0  0  0  0
 12  5  1  0  0  0  0
 14  8  1  0  0  0  0
 15  8  1  0  0  0  0
 18 10  1  0  0  0  0
 19 10  1  0  0  0  0
M  CHG  1   1  -1
M  END
