4,7
 OpenBabel05122313053D

 29 30  0  0  0  0  0  0  0  0999 V2000
    3.8926   -2.9269    0.2253 O   0  0  0  0  0  0  0  0  0  0  0  0
   -5.0094   -3.2294    1.3907 O   0  0  0  0  0  0  0  0  0  0  0  0
   -5.3039   -4.0039    0.8738 H   0  0  0  0  0  0  0  0  0  0  0  0
    0.2129   -1.0534   -2.5350 O   0  5  0  0  0  0  0  0  0  0  0  0
    1.3881   -2.8797   -3.1773 O   0  0  0  0  0  0  0  0  0  0  0  0
    1.0037   -2.4507   -0.9352 N   0  0  0  0  0  0  0  0  0  0  0  0
    0.2588   -1.6234   -0.0239 C   0  0  0  0  0  3  0  0  0  0  0  0
    0.8798   -1.3261    0.8481 H   0  0  0  0  0  0  0  0  0  0  0  0
    1.6572   -3.6684   -0.4836 C   0  0  0  0  0  0  0  0  0  0  0  0
    2.1161   -4.1075   -1.3950 H   0  0  0  0  0  0  0  0  0  0  0  0
    0.9143   -4.3975   -0.0837 H   0  0  0  0  0  0  0  0  0  0  0  0
    2.6725   -3.4405    0.5870 C   0  0  0  0  0  0  0  0  0  0  0  0
    2.6306   -3.5972    1.9566 C   0  0  0  0  0  0  0  0  0  0  0  0
    1.7791   -3.9830    2.5282 H   0  0  0  0  0  0  0  0  0  0  0  0
    3.8993   -3.1538    2.4630 C   0  0  0  0  0  0  0  0  0  0  0  0
    4.2324   -3.1295    3.5063 H   0  0  0  0  0  0  0  0  0  0  0  0
    4.6240   -2.7576    1.3646 C   0  0  0  0  0  0  0  0  0  0  0  0
    5.6228   -2.3292    1.2354 H   0  0  0  0  0  0  0  0  0  0  0  0
   -1.0453   -2.1931    0.4330 C   0  0  0  0  0  0  0  0  0  0  0  0
   -1.7060   -3.2195   -0.2819 C   0  0  0  0  0  0  0  0  0  0  0  0
   -1.2133   -3.6617   -1.1609 H   0  0  0  0  0  0  0  0  0  0  0  0
   -2.9890   -3.6521    0.0816 C   0  0  0  0  0  0  0  0  0  0  0  0
   -3.4994   -4.4264   -0.5161 H   0  0  0  0  0  0  0  0  0  0  0  0
   -3.6604   -3.0336    1.1507 C   0  0  0  0  0  0  0  0  0  0  0  0
   -2.9866   -2.0883    1.9420 C   0  0  0  0  0  0  0  0  0  0  0  0
   -3.5072   -1.6489    2.8060 H   0  0  0  0  0  0  0  0  0  0  0  0
   -1.6885   -1.7001    1.5953 C   0  0  0  0  0  0  0  0  0  0  0  0
   -1.1566   -0.9699    2.2249 H   0  0  0  0  0  0  0  0  0  0  0  0
    0.8978   -2.1695   -2.3025 C   0  0  0  0  0  0  0  0  0  0  0  0
  1 12  1  0  0  0  0
  1 17  1  0  0  0  0
  3  2  1  0  0  0  0
  4 29  1  0  0  0  0
  5 29  2  0  0  0  0
  6  9  1  0  0  0  0
  6  7  1  0  0  0  0
  7 19  1  0  0  0  0
  7  8  1  0  0  0  0
  9 11  1  0  0  0  0
  9 12  1  0  0  0  0
 10  9  1  0  0  0  0
 12 13  2  0  0  0  0
 13 15  1  0  0  0  0
 13 14  1  0  0  0  0
 15 16  1  0  0  0  0
 17 15  2  0  0  0  0
 18 17  1  0  0  0  0
 19 27  1  0  0  0  0
 20 22  1  0  0  0  0
 20 19  2  0  0  0  0
 21 20  1  0  0  0  0
 22 24  2  0  0  0  0
 23 22  1  0  0  0  0
 24  2  1  0  0  0  0
 24 25  1  0  0  0  0
 25 26  1  0  0  0  0
 27 25  2  0  0  0  0
 27 28  1  0  0  0  0
 29  6  1  0  0  0  0
M  CHG  1   4  -1
M  END
