3,15
 OpenBabel05122313053D

 44 44  0  0  1  0  0  0  0  0999 V2000
    2.9583    1.1876   -0.6499 C   0  0  0  0  0  0  0  0  0  0  0  0
    3.6197    1.7694    0.0006 H   0  0  0  0  0  0  0  0  0  0  0  0
    3.3384    0.0121   -1.3741 C   0  0  0  0  0  3  0  0  0  0  0  0
    4.3322   -0.4492   -1.3841 H   0  0  0  0  0  0  0  0  0  0  0  0
    2.2234   -0.3949   -2.1564 C   0  0  0  0  0  0  0  0  0  0  0  0
    2.1847   -1.2677   -2.8163 H   0  0  0  0  0  0  0  0  0  0  0  0
    1.1450    0.4841   -1.8781 C   0  0  0  0  0  0  0  0  0  0  0  0
    0.1247    0.3874   -2.2699 H   0  0  0  0  0  0  0  0  0  0  0  0
    1.6042    1.4955   -0.9651 C   0  0  0  0  0  0  0  0  0  0  0  0
    0.8142    2.7157   -0.4940 C   0  0  0  0  0  0  0  0  0  0  0  0
    0.1090    2.4354    0.8781 C   0  0  0  0  0  0  0  0  0  0  0  0
    0.8796    2.3057    1.6659 H   0  0  0  0  0  0  0  0  0  0  0  0
   -0.5167    3.3073    1.1527 H   0  0  0  0  0  0  0  0  0  0  0  0
   -0.6933    1.1740    0.8227 C   0  0  2  0  0  3  0  0  0  0  0  0
   -0.1051    0.0557    0.7081 O   0  0  0  0  0  1  0  0  0  0  0  0
   -2.0270    1.2066    0.8489 N   0  0  0  0  0  0  0  0  0  0  0  0
   -2.4822    2.1219    0.8818 H   0  0  0  0  0  0  0  0  0  0  0  0
   -2.8606    0.0336    0.5881 C   0  0  2  0  0  0  0  0  0  0  0  0
   -2.5990   -0.7639    1.3152 H   0  0  0  0  0  0  0  0  0  0  0  0
   -2.5282   -0.5034   -0.8167 C   0  0  0  0  0  0  0  0  0  0  0  0
   -2.1367    0.1930   -1.7389 O   0  0  0  0  0  0  0  0  0  0  0  0
   -2.7508   -1.8157   -0.8809 O   0  0  0  0  0  0  0  0  0  0  0  0
   -2.5380   -2.4427   -2.1643 C   0  0  0  0  0  0  0  0  0  0  0  0
   -3.0824   -1.8948   -2.9572 H   0  0  0  0  0  0  0  0  0  0  0  0
   -2.9205   -3.4722   -2.0611 H   0  0  0  0  0  0  0  0  0  0  0  0
   -1.4547   -2.4557   -2.3923 H   0  0  0  0  0  0  0  0  0  0  0  0
   -4.3544    0.4192    0.7584 C   0  0  0  0  0  0  0  0  0  0  0  0
   -4.5258    1.2931    0.0868 H   0  0  0  0  0  0  0  0  0  0  0  0
   -5.3027   -0.7022    0.3213 C   0  0  0  0  0  0  0  0  0  0  0  0
   -6.3495   -0.4022    0.5214 H   0  0  0  0  0  0  0  0  0  0  0  0
   -5.1048   -1.6379    0.8826 H   0  0  0  0  0  0  0  0  0  0  0  0
   -5.2215   -0.9312   -0.7580 H   0  0  0  0  0  0  0  0  0  0  0  0
   -4.6335    0.8376    2.2091 C   0  0  0  0  0  0  0  0  0  0  0  0
   -3.9734    1.6553    2.5630 H   0  0  0  0  0  0  0  0  0  0  0  0
   -4.4968   -0.0230    2.8960 H   0  0  0  0  0  0  0  0  0  0  0  0
   -5.6781    1.1895    2.3145 H   0  0  0  0  0  0  0  0  0  0  0  0
    1.7678    3.9076   -0.2838 C   0  0  0  0  0  0  0  0  0  0  0  0
    2.3132    4.1374   -1.2196 H   0  0  0  0  0  0  0  0  0  0  0  0
    2.5134    3.7129    0.5125 H   0  0  0  0  0  0  0  0  0  0  0  0
    1.1959    4.8104    0.0084 H   0  0  0  0  0  0  0  0  0  0  0  0
   -0.2555    3.0842   -1.5414 C   0  0  0  0  0  0  0  0  0  0  0  0
    0.2157    3.2735   -2.5254 H   0  0  0  0  0  0  0  0  0  0  0  0
   -0.7791    4.0133   -1.2374 H   0  0  0  0  0  0  0  0  0  0  0  0
   -1.0108    2.2847   -1.6731 H   0  0  0  0  0  0  0  0  0  0  0  0
  1  2  1  0  0  0  0
  3  1  1  0  0  0  0
  4  3  1  0  0  0  0
  5  7  2  0  0  0  0
  5  3  1  0  0  0  0
  6  5  1  0  0  0  0
  7  9  1  0  0  0  0
  8  7  1  0  0  0  0
  9  1  2  0  0  0  0
  9 10  1  0  0  0  0
 10 37  1  0  0  0  0
 10 11  1  0  0  0  0
 11 13  1  0  0  0  0
 11 12  1  0  0  0  0
 14 15  1  6  0  0  0
 14 16  1  0  0  0  0
 14 11  1  0  0  0  0
 16 17  1  0  0  0  0
 18 27  1  0  0  0  0
 18 16  1  0  0  0  0
 18 19  1  1  0  0  0
 20 18  1  0  0  0  0
 21 20  2  0  0  0  0
 22 20  1  0  0  0  0
 23 25  1  0  0  0  0
 23 22  1  0  0  0  0
 24 23  1  0  0  0  0
 26 23  1  0  0  0  0
 27 33  1  0  0  0  0
 28 27  1  0  0  0  0
 29 30  1  0  0  0  0
 29 27  1  0  0  0  0
 29 31  1  0  0  0  0
 32 29  1  0  0  0  0
 33 36  1  0  0  0  0
 33 34  1  0  0  0  0
 33 35  1  0  0  0  0
 37 40  1  0  0  0  0
 37 39  1  0  0  0  0
 38 37  1  0  0  0  0
 41 43  1  0  0  0  0
 41 10  1  0  0  0  0
 42 41  1  0  0  0  0
 44 41  1  0  0  0  0
M  END
