1,13
 OpenBabel05122313053D

 38 39  0  0  1  0  0  0  0  0999 V2000
    0.2567   -0.4232    0.8652 O   0  0  0  0  0  1  0  0  0  0  0  0
    1.5861    0.0258    0.9990 C   0  0  2  0  0  0  0  0  0  0  0  0
    1.8014    0.1500    2.0873 H   0  0  0  0  0  0  0  0  0  0  0  0
    1.6442    1.4848    0.3822 C   0  0  2  0  0  0  0  0  0  0  0  0
    1.2677    2.1170    1.2156 H   0  0  0  0  0  0  0  0  0  0  0  0
    0.5684    1.5727   -0.6683 C   0  0  0  0  0  0  0  0  0  0  0  0
    0.4443    0.8359   -1.8801 C   0  0  0  0  0  0  0  0  0  0  0  0
    1.1805    0.1381   -2.2894 H   0  0  0  0  0  0  0  0  0  0  0  0
   -0.8466    1.0881   -2.4316 C   0  0  0  0  0  0  0  0  0  0  0  0
   -1.2532    0.6230   -3.3362 H   0  0  0  0  0  0  0  0  0  0  0  0
   -1.5304    1.9758   -1.5676 C   0  0  0  0  0  0  0  0  0  0  0  0
   -2.5406    2.3679   -1.7237 H   0  0  0  0  0  0  0  0  0  0  0  0
   -0.6628    2.2682   -0.4704 C   0  0  0  0  0  3  0  0  0  0  0  0
   -0.8777    2.9266    0.3782 H   0  0  0  0  0  0  0  0  0  0  0  0
    3.0036    2.1513   -0.0152 C   0  0  0  0  0  0  0  0  0  0  0  0
    3.7141    1.4602   -1.1934 C   0  0  0  0  0  0  0  0  0  0  0  0
    3.9760    0.4095   -0.9712 H   0  0  0  0  0  0  0  0  0  0  0  0
    4.6542    2.0009   -1.4284 H   0  0  0  0  0  0  0  0  0  0  0  0
    3.0890    1.4771   -2.1076 H   0  0  0  0  0  0  0  0  0  0  0  0
    3.9388    2.1873    1.2081 C   0  0  0  0  0  0  0  0  0  0  0  0
    4.2769    1.1769    1.5012 H   0  0  0  0  0  0  0  0  0  0  0  0
    3.4395    2.6550    2.0827 H   0  0  0  0  0  0  0  0  0  0  0  0
    4.8451    2.7849    0.9795 H   0  0  0  0  0  0  0  0  0  0  0  0
    2.6947    3.6078   -0.4230 C   0  0  0  0  0  0  0  0  0  0  0  0
    2.1875    4.1592    0.3964 H   0  0  0  0  0  0  0  0  0  0  0  0
    2.0389    3.6495   -1.3157 H   0  0  0  0  0  0  0  0  0  0  0  0
    3.6336    4.1477   -0.6631 H   0  0  0  0  0  0  0  0  0  0  0  0
    2.5582   -1.0444    0.5162 C   0  0  0  0  0  0  0  0  0  0  0  0
    3.7295   -1.3099    1.2548 C   0  0  0  0  0  0  0  0  0  0  0  0
    3.9120   -0.7643    2.1943 H   0  0  0  0  0  0  0  0  0  0  0  0
    4.6588   -2.2672    0.8222 C   0  0  0  0  0  0  0  0  0  0  0  0
    5.5706   -2.4507    1.4113 H   0  0  0  0  0  0  0  0  0  0  0  0
    4.4141   -3.0017   -0.3486 C   0  0  0  0  0  0  0  0  0  0  0  0
    5.1388   -3.7558   -0.6918 H   0  0  0  0  0  0  0  0  0  0  0  0
    3.2205   -2.7899   -1.0569 C   0  0  0  0  0  0  0  0  0  0  0  0
    2.9956   -3.3900   -1.9521 H   0  0  0  0  0  0  0  0  0  0  0  0
    2.2954   -1.8279   -0.6253 C   0  0  0  0  0  0  0  0  0  0  0  0
    1.3406   -1.7148   -1.1577 H   0  0  0  0  0  0  0  0  0  0  0  0
  1  2  1  0  0  0  0
  2  3  1  1  0  0  0
  4  2  1  0  0  0  0
  4  5  1  1  0  0  0
  6 13  1  0  0  0  0
  6  4  1  0  0  0  0
  7  6  2  0  0  0  0
  8  7  1  0  0  0  0
  9  7  1  0  0  0  0
  9 11  2  0  0  0  0
 10  9  1  0  0  0  0
 11 13  1  0  0  0  0
 12 11  1  0  0  0  0
 13 14  1  0  0  0  0
 15  4  1  0  0  0  0
 15 20  1  0  0  0  0
 16 17  1  0  0  0  0
 16 15  1  0  0  0  0
 18 16  1  0  0  0  0
 19 16  1  0  0  0  0
 20 21  1  0  0  0  0
 20 22  1  0  0  0  0
 23 20  1  0  0  0  0
 24 15  1  0  0  0  0
 24 25  1  0  0  0  0
 26 24  1  0  0  0  0
 27 24  1  0  0  0  0
 28  2  1  0  0  0  0
 28 29  1  0  0  0  0
 29 30  1  0  0  0  0
 31 29  2  0  0  0  0
 31 32  1  0  0  0  0
 33 31  1  0  0  0  0
 34 33  1  0  0  0  0
 35 37  1  0  0  0  0
 35 33  2  0  0  0  0
 36 35  1  0  0  0  0
 37 28  2  0  0  0  0
 38 37  1  0  0  0  0
M  END
