1,9
 OpenBabel05122313053D

 34 34  0  0  1  0  0  0  0  0999 V2000
   -0.4065    1.1968    0.2793 O   0  0  0  0  0  1  0  0  0  0  0  0
   -1.4342   -1.0955   -0.0455 C   0  0  0  0  0  0  0  0  0  0  0  0
   -1.0224   -1.3562   -1.3820 C   0  0  0  0  0  0  0  0  0  0  0  0
   -1.4394   -0.9143   -2.2904 H   0  0  0  0  0  0  0  0  0  0  0  0
    0.1117   -2.2230   -1.3490 C   0  0  0  0  0  0  0  0  0  0  0  0
    0.6776   -2.5648   -2.2233 H   0  0  0  0  0  0  0  0  0  0  0  0
    0.3990   -2.5171    0.0053 C   0  0  0  0  0  0  0  0  0  0  0  0
    1.2004   -3.1715    0.3616 H   0  0  0  0  0  0  0  0  0  0  0  0
   -0.5345   -1.8036    0.8137 C   0  0  0  0  0  3  0  0  0  0  0  0
   -0.5785   -1.7947    1.9088 H   0  0  0  0  0  0  0  0  0  0  0  0
   -2.4327   -0.0779    0.4488 C   0  0  1  0  0  0  0  0  0  0  0  0
   -2.3884   -0.1462    1.5574 H   0  0  0  0  0  0  0  0  0  0  0  0
   -1.8211    1.3532    0.1513 C   0  0  0  0  0  0  0  0  0  0  0  0
   -2.0986    1.9258   -1.2452 C   0  0  0  0  0  0  0  0  0  0  0  0
   -1.7611    1.2423   -2.0447 H   0  0  0  0  0  0  0  0  0  0  0  0
   -1.5141    2.8601   -1.3601 H   0  0  0  0  0  0  0  0  0  0  0  0
   -3.1699    2.1668   -1.3868 H   0  0  0  0  0  0  0  0  0  0  0  0
   -2.2277    2.3828    1.2198 C   0  0  0  0  0  0  0  0  0  0  0  0
   -2.0235    1.9902    2.2358 H   0  0  0  0  0  0  0  0  0  0  0  0
   -3.2957    2.6595    1.1572 H   0  0  0  0  0  0  0  0  0  0  0  0
   -1.6245    3.3012    1.0781 H   0  0  0  0  0  0  0  0  0  0  0  0
   -3.9221   -0.4411    0.0971 C   0  0  0  0  0  0  0  0  0  0  0  0
   -4.2373   -1.7646    0.8294 C   0  0  0  0  0  0  0  0  0  0  0  0
   -3.5526   -2.5753    0.5085 H   0  0  0  0  0  0  0  0  0  0  0  0
   -5.2762   -2.0900    0.6162 H   0  0  0  0  0  0  0  0  0  0  0  0
   -4.1370   -1.6503    1.9289 H   0  0  0  0  0  0  0  0  0  0  0  0
   -4.1818   -0.6656   -1.4057 C   0  0  0  0  0  0  0  0  0  0  0  0
   -3.6148   -1.5342   -1.7914 H   0  0  0  0  0  0  0  0  0  0  0  0
   -3.9247    0.2164   -2.0204 H   0  0  0  0  0  0  0  0  0  0  0  0
   -5.2585   -0.8807   -1.5655 H   0  0  0  0  0  0  0  0  0  0  0  0
   -4.9001    0.6283    0.6176 C   0  0  0  0  0  0  0  0  0  0  0  0
   -4.7401    0.8406    1.6942 H   0  0  0  0  0  0  0  0  0  0  0  0
   -5.9436    0.2710    0.4982 H   0  0  0  0  0  0  0  0  0  0  0  0
   -4.8157    1.5822    0.0613 H   0  0  0  0  0  0  0  0  0  0  0  0
  2 11  1  0  0  0  0
  2  9  1  0  0  0  0
  3  5  1  0  0  0  0
  3  2  2  0  0  0  0
  4  3  1  0  0  0  0
  5  7  2  0  0  0  0
  6  5  1  0  0  0  0
  7  8  1  0  0  0  0
  7  9  1  0  0  0  0
  9 10  1  0  0  0  0
 11 12  1  1  0  0  0
 13  1  1  0  0  0  0
 13 11  1  0  0  0  0
 13 18  1  0  0  0  0
 14 13  1  0  0  0  0
 15 14  1  0  0  0  0
 16 14  1  0  0  0  0
 17 14  1  0  0  0  0
 18 19  1  0  0  0  0
 20 18  1  0  0  0  0
 21 18  1  0  0  0  0
 22 11  1  0  0  0  0
 22 31  1  0  0  0  0
 22 23  1  0  0  0  0
 23 26  1  0  0  0  0
 24 23  1  0  0  0  0
 25 23  1  0  0  0  0
 27 22  1  0  0  0  0
 28 27  1  0  0  0  0
 29 27  1  0  0  0  0
 30 27  1  0  0  0  0
 31 32  1  0  0  0  0
 33 31  1  0  0  0  0
 34 31  1  0  0  0  0
M  END
