3,6
 OpenBabel05122313053D

 28 29  0  0  0  0  0  0  0  0999 V2000
    3.4127    0.4013    1.1343 S   0  0  0  0  0  0  0  0  0  0  0  0
    4.5292   -1.7377   -0.6267 S   0  0  0  0  0  0  0  0  0  0  0  0
    0.7164    0.1437    1.1977 O   0  5  0  0  0  0  0  0  0  0  0  0
    1.8393   -1.4248   -0.2412 C   0  0  0  0  0  0  0  0  0  0  0  0
    0.6470   -0.8454    0.3370 C   0  0  0  0  0  0  0  0  0  0  0  0
   -0.6989   -1.2346   -0.0261 C   0  0  0  0  0  3  0  0  0  0  0  0
   -1.7490   -0.6546    0.7649 C   0  0  0  0  0  3  0  0  0  0  0  0
    3.0979   -0.9658    0.0608 C   0  0  0  0  0  3  0  0  0  0  0  0
    5.2479    0.2081    1.0972 C   0  0  0  0  0  0  0  0  0  0  0  0
    5.6507   -0.3349   -0.2621 C   0  0  0  0  0  0  0  0  0  0  0  0
   -3.1878   -0.8529    0.5173 C   0  0  0  0  0  0  0  0  0  0  0  0
   -3.6994   -1.4107   -0.6781 C   0  0  0  0  0  0  0  0  0  0  0  0
   -5.0778   -1.5786   -0.8604 C   0  0  0  0  0  0  0  0  0  0  0  0
   -5.9803   -1.1899    0.1432 C   0  0  0  0  0  0  0  0  0  0  0  0
   -5.4890   -0.6316    1.3347 C   0  0  0  0  0  0  0  0  0  0  0  0
   -4.1108   -0.4670    1.5179 C   0  0  0  0  0  0  0  0  0  0  0  0
    1.7225   -2.2386   -0.9713 H   0  0  0  0  0  0  0  0  0  0  0  0
   -0.8734   -1.9333   -0.8575 H   0  0  0  0  0  0  0  0  0  0  0  0
   -1.4771   -0.4280    1.8095 H   0  0  0  0  0  0  0  0  0  0  0  0
    5.5510   -0.4787    1.9141 H   0  0  0  0  0  0  0  0  0  0  0  0
    5.6816    1.2104    1.2887 H   0  0  0  0  0  0  0  0  0  0  0  0
    5.5443    0.4301   -1.0584 H   0  0  0  0  0  0  0  0  0  0  0  0
    6.6867   -0.7288   -0.2703 H   0  0  0  0  0  0  0  0  0  0  0  0
   -3.0125   -1.7130   -1.4825 H   0  0  0  0  0  0  0  0  0  0  0  0
   -5.4524   -2.0152   -1.7989 H   0  0  0  0  0  0  0  0  0  0  0  0
   -7.0630   -1.3203   -0.0040 H   0  0  0  0  0  0  0  0  0  0  0  0
   -6.1863   -0.3223    2.1281 H   0  0  0  0  0  0  0  0  0  0  0  0
   -3.7283   -0.0266    2.4522 H   0  0  0  0  0  0  0  0  0  0  0  0
  2 10  1  0  0  0  0
  2  8  1  0  0  0  0
  4  8  1  0  0  0  0
  4  5  2  0  0  0  0
  5  3  1  0  0  0  0
  6  5  1  0  0  0  0
  6  7  1  0  0  0  0
  7 19  1  0  0  0  0
  8  1  1  0  0  0  0
  9  1  1  0  0  0  0
  9 21  1  0  0  0  0
  9 20  1  0  0  0  0
 10  9  1  0  0  0  0
 11  7  1  0  0  0  0
 11 16  1  0  0  0  0
 12 11  2  0  0  0  0
 13 12  1  0  0  0  0
 13 14  2  0  0  0  0
 14 15  1  0  0  0  0
 15 16  2  0  0  0  0
 15 27  1  0  0  0  0
 16 28  1  0  0  0  0
 17  4  1  0  0  0  0
 18  6  1  0  0  0  0
 22 10  1  0  0  0  0
 23 10  1  0  0  0  0
 24 12  1  0  0  0  0
 25 13  1  0  0  0  0
 26 14  1  0  0  0  0
M  CHG  1   3  -1
M  END
