1,6
 OpenBabel05122313053D

 16 16  0  0  1  0  0  0  0  0999 V2000
    0.6175    2.0132   -0.1361 O   0  0  0  0  0  1  0  0  0  0  0  0
   -0.7846   -2.5901    0.0782 F   0  0  0  0  0  0  0  0  0  0  0  0
   -3.4786   -2.5844    0.0351 F   0  0  0  0  0  0  0  0  0  0  0  0
   -4.8922   -0.2662   -0.0286 F   0  0  0  0  0  0  0  0  0  0  0  0
   -3.5951    2.1301   -0.0864 F   0  0  0  0  0  0  0  0  0  0  0  0
   -0.6901   -0.1952    0.0608 C   0  0  0  0  0  3  0  0  0  0  0  0
   -1.4562    1.0201   -0.0116 C   0  0  0  0  0  0  0  0  0  0  0  0
   -2.8748    0.9947   -0.0327 C   0  0  0  0  0  0  0  0  0  0  0  0
   -3.5562   -0.2202   -0.0105 C   0  0  0  0  0  0  0  0  0  0  0  0
   -2.8162   -1.4260    0.0271 C   0  0  0  0  0  0  0  0  0  0  0  0
   -1.4154   -1.3958    0.0547 C   0  0  0  0  0  0  0  0  0  0  0  0
   -0.6443    2.2016   -0.1388 C   0  0  2  0  0  3  0  0  0  0  0  0
   -1.1560    3.6014   -0.2969 C   0  0  0  0  0  0  0  0  0  0  0  0
   -1.8539    3.6784   -1.1544 H   0  0  0  0  0  0  0  0  0  0  0  0
   -0.3038    4.2899   -0.4381 H   0  0  0  0  0  0  0  0  0  0  0  0
   -1.7330    3.9061    0.6001 H   0  0  0  0  0  0  0  0  0  0  0  0
  4  9  1  0  0  0  0
  5  8  1  0  0  0  0
  7  6  2  0  0  0  0
  8  7  1  0  0  0  0
  8  9  2  0  0  0  0
  9 10  1  0  0  0  0
 10  3  1  0  0  0  0
 10 11  2  0  0  0  0
 11  6  1  0  0  0  0
 11  2  1  0  0  0  0
 12  1  1  6  0  0  0
 12  7  1  0  0  0  0
 13 12  1  0  0  0  0
 13 16  1  0  0  0  0
 14 13  1  0  0  0  0
 15 13  1  0  0  0  0
M  END
