2,16
 OpenBabel05122313053D

 72 74  0  0  1  0  0  0  0  0999 V2000
    5.2638   -1.0978    0.3022 Si  0  0  0  0  0  0  0  0  0  0  0  0
   -4.1266    0.3736   -0.2551 O   0  0  0  0  0  1  0  0  0  0  0  0
    0.0472   -0.5391   -2.2824 O   0  0  0  0  0  0  0  0  0  0  0  0
    3.8650   -2.0304   -0.0230 O   0  0  0  0  0  0  0  0  0  0  0  0
   -3.4257    2.4457   -1.1036 N   0  0  0  0  0  0  0  0  0  0  0  0
   -1.9025    0.9285   -0.4362 N   0  0  0  0  0  0  0  0  0  0  0  0
   -3.2644    1.2029   -0.5760 C   0  0  2  0  0  3  0  0  0  0  0  0
   -2.1496    2.9668   -1.6173 C   0  0  2  0  0  0  0  0  0  0  0  0
   -1.0855    2.0855   -0.8695 C   0  0  1  0  0  0  0  0  0  0  0  0
    0.4659   -1.1605    1.3999 C   0  0  2  0  0  0  0  0  0  0  0  0
    2.0014   -1.2133    1.3298 C   0  0  0  0  0  0  0  0  0  0  0  0
    2.5489   -1.6717    0.0061 C   0  0  0  0  0  0  0  0  0  0  0  0
    1.7829   -1.7707   -1.1033 C   0  0  0  0  0  0  0  0  0  0  0  0
    0.3345   -1.3759   -1.1442 C   0  0  1  0  0  0  0  0  0  0  0  0
   -0.0712   -0.5381    0.0901 C   0  0  1  0  0  0  0  0  0  0  0  0
   -1.5628   -0.3058    0.0312 C   0  0  0  0  0  2  0  0  0  0  0  0
   -4.7139    2.9352   -1.5394 C   0  0  0  0  0  0  0  0  0  0  0  0
   -1.9945    4.4711   -1.4459 C   0  0  0  0  0  0  0  0  0  0  0  0
    0.9314    3.2199    0.1436 C   0  0  0  0  0  0  0  0  0  0  0  0
    1.5960    3.8514    1.2058 C   0  0  0  0  0  0  0  0  0  0  0  0
    0.9396    4.0373    2.4324 C   0  0  0  0  0  0  0  0  0  0  0  0
   -0.3819    3.5879    2.5906 C   0  0  0  0  0  0  0  0  0  0  0  0
   -1.0436    2.9540    1.5291 C   0  0  0  0  0  0  0  0  0  0  0  0
   -0.3917    2.7653    0.2949 C   0  0  0  0  0  0  0  0  0  0  0  0
    0.0409   -0.3680    2.6375 C   0  0  0  0  0  0  0  0  0  0  0  0
    0.0135   -1.2211   -3.5193 C   0  0  0  0  0  0  0  0  0  0  0  0
    6.6619   -2.2732   -0.1360 C   0  0  0  0  0  0  0  0  0  0  0  0
    5.3650   -0.6417    2.1326 C   0  0  0  0  0  0  0  0  0  0  0  0
    5.2535    0.4686   -0.8118 C   0  0  0  0  0  0  0  0  0  0  0  0
    5.1386    0.0395   -2.2868 C   0  0  0  0  0  0  0  0  0  0  0  0
    4.0635    1.3802   -0.4543 C   0  0  0  0  0  0  0  0  0  0  0  0
    6.5731    1.2334   -0.5889 C   0  0  0  0  0  0  0  0  0  0  0  0
   -2.0908    2.7216   -2.7051 H   0  0  0  0  0  0  0  0  0  0  0  0
   -0.3327    1.7243   -1.5950 H   0  0  0  0  0  0  0  0  0  0  0  0
    0.0811   -2.1975    1.4770 H   0  0  0  0  0  0  0  0  0  0  0  0
    2.3954   -1.8809    2.1258 H   0  0  0  0  0  0  0  0  0  0  0  0
    2.4124   -0.2020    1.5590 H   0  0  0  0  0  0  0  0  0  0  0  0
    2.2415   -2.1626   -2.0240 H   0  0  0  0  0  0  0  0  0  0  0  0
   -0.3178   -2.2804   -1.2012 H   0  0  0  0  0  0  0  0  0  0  0  0
    0.4743    0.4242   -0.0273 H   0  0  0  0  0  0  0  0  0  0  0  0
   -5.4909    2.2587   -1.1365 H   0  0  0  0  0  0  0  0  0  0  0  0
   -4.8997    3.9624   -1.1662 H   0  0  0  0  0  0  0  0  0  0  0  0
   -4.7874    2.9419   -2.6499 H   0  0  0  0  0  0  0  0  0  0  0  0
   -2.7405    5.0161   -2.0572 H   0  0  0  0  0  0  0  0  0  0  0  0
   -2.1092    4.7699   -0.3865 H   0  0  0  0  0  0  0  0  0  0  0  0
   -0.9883    4.7888   -1.7815 H   0  0  0  0  0  0  0  0  0  0  0  0
    1.4548    3.0559   -0.8115 H   0  0  0  0  0  0  0  0  0  0  0  0
    2.6355    4.1882    1.0755 H   0  0  0  0  0  0  0  0  0  0  0  0
    1.4604    4.5255    3.2698 H   0  0  0  0  0  0  0  0  0  0  0  0
   -0.8984    3.7208    3.5530 H   0  0  0  0  0  0  0  0  0  0  0  0
   -2.0686    2.5792    1.6721 H   0  0  0  0  0  0  0  0  0  0  0  0
   -1.0567   -0.3307    2.7496 H   0  0  0  0  0  0  0  0  0  0  0  0
    0.4571   -0.8291    3.5562 H   0  0  0  0  0  0  0  0  0  0  0  0
    0.4157    0.6756    2.5835 H   0  0  0  0  0  0  0  0  0  0  0  0
   -0.3010   -0.4877   -4.2878 H   0  0  0  0  0  0  0  0  0  0  0  0
    1.0104   -1.6233   -3.8161 H   0  0  0  0  0  0  0  0  0  0  0  0
   -0.7194   -2.0592   -3.5082 H   0  0  0  0  0  0  0  0  0  0  0  0
    6.5959   -3.1863    0.4897 H   0  0  0  0  0  0  0  0  0  0  0  0
    6.6088   -2.5869   -1.1973 H   0  0  0  0  0  0  0  0  0  0  0  0
    7.6523   -1.8080    0.0424 H   0  0  0  0  0  0  0  0  0  0  0  0
    4.6055    0.1053    2.4358 H   0  0  0  0  0  0  0  0  0  0  0  0
    5.2213   -1.5463    2.7581 H   0  0  0  0  0  0  0  0  0  0  0  0
    6.3658   -0.2248    2.3689 H   0  0  0  0  0  0  0  0  0  0  0  0
    5.1452    0.9327   -2.9511 H   0  0  0  0  0  0  0  0  0  0  0  0
    5.9832   -0.6085   -2.5990 H   0  0  0  0  0  0  0  0  0  0  0  0
    4.1970   -0.5138   -2.4773 H   0  0  0  0  0  0  0  0  0  0  0  0
    4.0940    2.3067   -1.0724 H   0  0  0  0  0  0  0  0  0  0  0  0
    3.0918    0.8835   -0.6519 H   0  0  0  0  0  0  0  0  0  0  0  0
    4.0768    1.6982    0.6089 H   0  0  0  0  0  0  0  0  0  0  0  0
    6.6064    2.1414   -1.2320 H   0  0  0  0  0  0  0  0  0  0  0  0
    6.6868    1.5722    0.4621 H   0  0  0  0  0  0  0  0  0  0  0  0
    7.4612    0.6189   -0.8446 H   0  0  0  0  0  0  0  0  0  0  0  0
  1 28  1  0  0  0  0
  3 14  1  0  0  0  0
  4 12  1  0  0  0  0
  4  1  1  0  0  0  0
  5  7  1  0  0  0  0
  6 16  1  0  0  0  0
  7  6  1  0  0  0  0
  7  2  1  6  0  0  0
  8 33  1  6  0  0  0
  8 18  1  0  0  0  0
  8  5  1  0  0  0  0
  8  9  1  0  0  0  0
  9 34  1  6  0  0  0
  9  6  1  0  0  0  0
  9 24  1  0  0  0  0
 10 35  1  1  0  0  0
 10 25  1  0  0  0  0
 11 10  1  0  0  0  0
 11 37  1  0  0  0  0
 11 36  1  0  0  0  0
 12 11  1  0  0  0  0
 13 12  2  0  0  0  0
 14 39  1  6  0  0  0
 14 13  1  0  0  0  0
 14 15  1  0  0  0  0
 15 40  1  6  0  0  0
 15 10  1  0  0  0  0
 16 15  1  0  0  0  0
 17 42  1  0  0  0  0
 17 41  1  0  0  0  0
 17  5  1  0  0  0  0
 18 45  1  0  0  0  0
 19 24  2  0  0  0  0
 19 20  1  0  0  0  0
 20 21  2  0  0  0  0
 21 22  1  0  0  0  0
 21 49  1  0  0  0  0
 22 50  1  0  0  0  0
 23 51  1  0  0  0  0
 23 22  2  0  0  0  0
 24 23  1  0  0  0  0
 25 52  1  0  0  0  0
 25 53  1  0  0  0  0
 26 57  1  0  0  0  0
 26  3  1  0  0  0  0
 27 60  1  0  0  0  0
 27  1  1  0  0  0  0
 27 58  1  0  0  0  0
 28 63  1  0  0  0  0
 28 61  1  0  0  0  0
 28 62  1  0  0  0  0
 29 32  1  0  0  0  0
 29 31  1  0  0  0  0
 29  1  1  0  0  0  0
 30 29  1  0  0  0  0
 31 69  1  0  0  0  0
 32 71  1  0  0  0  0
 38 13  1  0  0  0  0
 43 17  1  0  0  0  0
 44 18  1  0  0  0  0
 46 18  1  0  0  0  0
 47 19  1  0  0  0  0
 48 20  1  0  0  0  0
 54 25  1  0  0  0  0
 55 26  1  0  0  0  0
 56 26  1  0  0  0  0
 59 27  1  0  0  0  0
 64 30  1  0  0  0  0
 65 30  1  0  0  0  0
 66 30  1  0  0  0  0
 67 31  1  0  0  0  0
 68 31  1  0  0  0  0
 70 32  1  0  0  0  0
 72 32  1  0  0  0  0
M  END
