1,6
 OpenBabel05122313053D

 17 17  0  0  1  0  0  0  0  0999 V2000
    1.4951    2.2493   -1.2848 C   0  0  0  0  0  3  0  0  0  0  0  0
    1.2236    2.1354   -2.3549 H   0  0  0  0  0  0  0  0  0  0  0  0
    2.0030    3.2320   -1.1913 H   0  0  0  0  0  0  0  0  0  0  0  0
    2.5625    1.2532   -1.0654 O   0  0  0  0  0  0  0  0  0  0  0  0
    2.4100    0.3990   -0.0611 C   0  0  2  0  0  3  0  0  0  0  0  0
    1.4305    0.3859    0.7036 O   0  0  0  0  0  1  0  0  0  0  0  0
    3.5356   -0.5665    0.0805 C   0  0  0  0  0  0  0  0  0  0  0  0
    4.6487   -0.5382   -0.7850 C   0  0  0  0  0  0  0  0  0  0  0  0
    4.6853    0.2160   -1.5831 H   0  0  0  0  0  0  0  0  0  0  0  0
    5.6855   -1.4652   -0.6181 C   0  0  0  0  0  0  0  0  0  0  0  0
    6.5540   -1.4431   -1.2936 H   0  0  0  0  0  0  0  0  0  0  0  0
    5.6177   -2.4216    0.4091 C   0  0  0  0  0  0  0  0  0  0  0  0
    6.4342   -3.1486    0.5374 H   0  0  0  0  0  0  0  0  0  0  0  0
    4.5094   -2.4516    1.2726 C   0  0  0  0  0  0  0  0  0  0  0  0
    4.4568   -3.2012    2.0765 H   0  0  0  0  0  0  0  0  0  0  0  0
    3.4704   -1.5272    1.1101 C   0  0  0  0  0  0  0  0  0  0  0  0
    2.5910   -1.5278    1.7701 H   0  0  0  0  0  0  0  0  0  0  0  0
  1  3  1  0  0  0  0
  1  4  1  0  0  0  0
  2  1  1  0  0  0  0
  4  5  1  0  0  0  0
  5  7  1  0  0  0  0
  5  6  1  1  0  0  0
  7 16  1  0  0  0  0
  8 10  1  0  0  0  0
  8  7  2  0  0  0  0
  9  8  1  0  0  0  0
 10 12  2  0  0  0  0
 11 10  1  0  0  0  0
 12 13  1  0  0  0  0
 12 14  1  0  0  0  0
 14 15  1  0  0  0  0
 16 14  2  0  0  0  0
 16 17  1  0  0  0  0
M  END
