1,6
 OpenBabel05122313053D

 34 34  0  0  1  0  0  0  0  0999 V2000
    0.4777    1.3266   -0.2821 O   0  0  0  0  0  1  0  0  0  0  0  0
    2.4953    0.9570    1.2424 C   0  0  2  0  0  3  0  0  0  0  0  0
    3.5407    0.4276    0.4359 C   0  0  0  0  0  0  0  0  0  0  0  0
    3.4867   -1.0080    0.5367 C   0  0  0  0  0  0  0  0  0  0  0  0
    2.4715   -1.3501    1.4849 C   0  0  2  0  0  3  0  0  0  0  0  0
    1.8156   -0.1374    1.8824 C   0  0  1  0  0  3  0  0  0  0  0  0
    4.6006    1.1870   -0.2938 C   0  0  0  0  0  0  0  0  0  0  0  0
    4.6090    0.9206   -1.3703 H   0  0  0  0  0  0  0  0  0  0  0  0
    5.5986    0.9452    0.1296 H   0  0  0  0  0  0  0  0  0  0  0  0
    4.4519    2.2802   -0.2145 H   0  0  0  0  0  0  0  0  0  0  0  0
    4.4213   -1.9385   -0.1733 C   0  0  0  0  0  0  0  0  0  0  0  0
    4.0885   -2.9923   -0.1071 H   0  0  0  0  0  0  0  0  0  0  0  0
    5.4462   -1.8848    0.2537 H   0  0  0  0  0  0  0  0  0  0  0  0
    4.4887   -1.6688   -1.2466 H   0  0  0  0  0  0  0  0  0  0  0  0
    2.2685   -2.6967    2.1089 C   0  0  0  0  0  0  0  0  0  0  0  0
    1.2041   -2.9287    2.3068 H   0  0  0  0  0  0  0  0  0  0  0  0
    2.7933   -2.7338    3.0879 H   0  0  0  0  0  0  0  0  0  0  0  0
    2.6869   -3.5123    1.4892 H   0  0  0  0  0  0  0  0  0  0  0  0
    0.7272    0.0104    2.9049 C   0  0  0  0  0  0  0  0  0  0  0  0
   -0.1091    0.6320    2.5284 H   0  0  0  0  0  0  0  0  0  0  0  0
    1.1133    0.4980    3.8262 H   0  0  0  0  0  0  0  0  0  0  0  0
    0.3087   -0.9685    3.2058 H   0  0  0  0  0  0  0  0  0  0  0  0
    2.0119    2.3712    1.2871 C   0  0  0  0  0  0  0  0  0  0  0  0
    2.8508    3.0869    1.1799 H   0  0  0  0  0  0  0  0  0  0  0  0
    1.5423    2.5722    2.2706 H   0  0  0  0  0  0  0  0  0  0  0  0
    0.9550    2.5980    0.1413 C   0  0  0  0  0  0  0  0  0  0  0  0
   -0.2381    3.4158    0.6556 C   0  0  0  0  0  0  0  0  0  0  0  0
   -0.9824    3.5638   -0.1518 H   0  0  0  0  0  0  0  0  0  0  0  0
    0.0914    4.4123    1.0139 H   0  0  0  0  0  0  0  0  0  0  0  0
   -0.7372    2.8921    1.4961 H   0  0  0  0  0  0  0  0  0  0  0  0
    1.5955    3.2917   -1.0692 C   0  0  0  0  0  0  0  0  0  0  0  0
    2.4182    2.6760   -1.4793 H   0  0  0  0  0  0  0  0  0  0  0  0
    1.9834    4.2932   -0.7934 H   0  0  0  0  0  0  0  0  0  0  0  0
    0.8416    3.4115   -1.8723 H   0  0  0  0  0  0  0  0  0  0  0  0
  1 26  1  0  0  0  0
  2 23  1  6  0  0  0
  2  6  1  0  0  0  0
  3  4  2  0  0  0  0
  3  2  1  0  0  0  0
  4  5  1  0  0  0  0
  5  6  1  0  0  0  0
  5 15  1  1  0  0  0
  6 19  1  1  0  0  0
  7 10  1  0  0  0  0
  7  9  1  0  0  0  0
  7  3  1  0  0  0  0
  8  7  1  0  0  0  0
 11 12  1  0  0  0  0
 11 13  1  0  0  0  0
 11  4  1  0  0  0  0
 14 11  1  0  0  0  0
 15 16  1  0  0  0  0
 15 17  1  0  0  0  0
 18 15  1  0  0  0  0
 19 22  1  0  0  0  0
 19 21  1  0  0  0  0
 20 19  1  0  0  0  0
 23 25  1  0  0  0  0
 24 23  1  0  0  0  0
 26 27  1  0  0  0  0
 26 23  1  0  0  0  0
 27 29  1  0  0  0  0
 27 30  1  0  0  0  0
 28 27  1  0  0  0  0
 31 33  1  0  0  0  0
 31 26  1  0  0  0  0
 32 31  1  0  0  0  0
 34 31  1  0  0  0  0
M  END
