2,21
 OpenBabel05122313053D

 35 37  0  0  1  0  0  0  0  0999 V2000
    2.1276    1.4701    0.4828 N   0  0  0  0  0  0  0  0  0  0  0  0
   -0.4514   -1.7886   -0.3106 O   0  0  0  0  0  1  0  0  0  0  0  0
    2.0517    2.8314    0.9734 C   0  0  0  0  0  0  0  0  0  0  0  0
    2.8677    3.4308    0.5259 H   0  0  0  0  0  0  0  0  0  0  0  0
    2.1459    2.8748    2.0791 H   0  0  0  0  0  0  0  0  0  0  0  0
    1.0894    3.2863    0.6799 H   0  0  0  0  0  0  0  0  0  0  0  0
    1.0654    0.6497    0.1501 C   0  0  0  0  0  0  0  0  0  0  0  0
    1.5926   -0.5812   -0.3320 C   0  0  0  0  0  0  0  0  0  0  0  0
    3.0447   -0.4692   -0.3124 C   0  0  0  0  0  0  0  0  0  0  0  0
    4.1282   -1.3024   -0.6647 C   0  0  0  0  0  0  0  0  0  0  0  0
    3.9649   -2.2999   -1.0914 H   0  0  0  0  0  0  0  0  0  0  0  0
    5.4387   -0.8431   -0.4729 C   0  0  0  0  0  0  0  0  0  0  0  0
    6.2820   -1.4926   -0.7515 H   0  0  0  0  0  0  0  0  0  0  0  0
    5.6975    0.4325    0.0705 C   0  0  0  0  0  0  0  0  0  0  0  0
    6.7361    0.7647    0.2152 H   0  0  0  0  0  0  0  0  0  0  0  0
    4.6439    1.2829    0.4329 C   0  0  0  0  0  0  0  0  0  0  0  0
    4.8429    2.2727    0.8678 H   0  0  0  0  0  0  0  0  0  0  0  0
    3.3361    0.8195    0.2282 C   0  0  0  0  0  0  0  0  0  0  0  0
   -0.3092    1.1150    0.2968 C   0  0  0  0  0  3  0  0  0  0  0  0
   -0.4020    1.9259    1.0375 H   0  0  0  0  0  0  0  0  0  0  0  0
   -1.2653    1.2581   -0.7810 C   0  0  1  0  0  3  0  0  0  0  0  0
   -1.6590    0.2942   -1.7468 C   0  0  0  0  0  3  0  0  0  0  0  0
   -1.0583   -0.5471   -2.1096 H   0  0  0  0  0  0  0  0  0  0  0  0
   -2.7939    0.8426   -2.5027 C   0  0  0  0  0  0  0  0  0  0  0  0
   -3.3107    0.2949   -3.3030 H   0  0  0  0  0  0  0  0  0  0  0  0
   -3.0953    2.0921   -2.0640 C   0  0  0  0  0  0  0  0  0  0  0  0
   -3.9040    2.7369   -2.4335 H   0  0  0  0  0  0  0  0  0  0  0  0
   -2.1399    2.4912   -0.9734 C   0  0  0  0  0  0  0  0  0  0  0  0
   -2.6367    2.8504   -0.0484 H   0  0  0  0  0  0  0  0  0  0  0  0
   -1.4830    3.3266   -1.3142 H   0  0  0  0  0  0  0  0  0  0  0  0
    0.7847   -1.7431   -0.5673 C   0  0  1  0  0  3  0  0  0  0  0  0
    1.4069   -3.0156   -1.0892 C   0  0  0  0  0  0  0  0  0  0  0  0
    2.1377   -3.4157   -0.3563 H   0  0  0  0  0  0  0  0  0  0  0  0
    1.9543   -2.8359   -2.0360 H   0  0  0  0  0  0  0  0  0  0  0  0
    0.6123   -3.7654   -1.2509 H   0  0  0  0  0  0  0  0  0  0  0  0
  1  3  1  0  0  0  0
  3  5  1  0  0  0  0
  4  3  1  0  0  0  0
  6  3  1  0  0  0  0
  7 19  1  0  0  0  0
  7  1  1  0  0  0  0
  8  9  1  0  0  0  0
  8  7  2  0  0  0  0
  9 18  1  0  0  0  0
 10 12  1  0  0  0  0
 10  9  2  0  0  0  0
 11 10  1  0  0  0  0
 12 14  2  0  0  0  0
 13 12  1  0  0  0  0
 14 15  1  0  0  0  0
 14 16  1  0  0  0  0
 16 17  1  0  0  0  0
 18 16  2  0  0  0  0
 18  1  1  0  0  0  0
 19 20  1  0  0  0  0
 21 19  1  1  0  0  0
 22 21  1  0  0  0  0
 23 22  1  0  0  0  0
 24 26  2  0  0  0  0
 24 22  1  0  0  0  0
 25 24  1  0  0  0  0
 26 28  1  0  0  0  0
 27 26  1  0  0  0  0
 28 21  1  0  0  0  0
 28 29  1  0  0  0  0
 30 28  1  0  0  0  0
 31  8  1  0  0  0  0
 31  2  1  1  0  0  0
 32 31  1  0  0  0  0
 32 33  1  0  0  0  0
 34 32  1  0  0  0  0
 35 32  1  0  0  0  0
M  END
