1,5
 OpenBabel05122313053D

 15 15  0  0  0  0  0  0  0  0999 V2000
    0.5750    1.9409   -0.0134 O   0  5  0  0  0  0  0  0  0  0  0  0
    2.5679    2.9856   -0.1809 N   0  0  0  0  0  0  0  0  0  0  0  0
    2.0875    3.8868   -0.1868 H   0  0  0  0  0  0  0  0  0  0  0  0
    3.5842    2.9708   -0.2483 H   0  0  0  0  0  0  0  0  0  0  0  0
    1.5245   -0.5510    0.0238 C   0  0  0  0  0  2  0  0  0  0  0  0
    2.4651    0.5266   -0.0483 C   0  0  0  0  0  0  0  0  0  0  0  0
    3.8565    0.2972   -0.0303 C   0  0  0  0  0  0  0  0  0  0  0  0
    4.5708    1.1348   -0.0873 H   0  0  0  0  0  0  0  0  0  0  0  0
    4.3491   -1.0065    0.0760 C   0  0  0  0  0  0  0  0  0  0  0  0
    5.4325   -1.1921    0.0916 H   0  0  0  0  0  0  0  0  0  0  0  0
    3.4420   -2.0737    0.1789 C   0  0  0  0  0  0  0  0  0  0  0  0
    3.8188   -3.1029    0.2829 H   0  0  0  0  0  0  0  0  0  0  0  0
    2.0539   -1.8455    0.1544 C   0  0  0  0  0  0  0  0  0  0  0  0
    1.3967   -2.7222    0.2524 H   0  0  0  0  0  0  0  0  0  0  0  0
    1.8500    1.8575   -0.0872 C   0  0  0  0  0  0  0  0  0  0  0  0
  2 15  1  0  0  0  0
  3  2  1  0  0  0  0
  4  2  1  0  0  0  0
  5 13  1  0  0  0  0
  6  7  1  0  0  0  0
  6  5  1  0  0  0  0
  7  9  2  0  0  0  0
  8  7  1  0  0  0  0
  9 10  1  0  0  0  0
  9 11  1  0  0  0  0
 11 12  1  0  0  0  0
 13 11  2  0  0  0  0
 13 14  1  0  0  0  0
 15  6  2  0  0  0  0
 15  1  1  0  0  0  0
M  CHG  1   1  -1
M  END
