2,19
 OpenBabel05122313053D

 30 30  0  0  0  0  0  0  0  0999 V2000
   -7.1946   -3.0816    0.5536 F   0  0  0  0  0  0  0  0  0  0  0  0
   -1.3745   -1.0023   -0.1697 O   0  5  0  0  0  0  0  0  0  0  0  0
   -1.0329    2.5763    2.0182 O   0  0  0  0  0  0  0  0  0  0  0  0
    0.6900    3.2567    0.7207 O   0  0  0  0  0  0  0  0  0  0  0  0
   -4.4867    2.0132   -0.5954 O   0  0  0  0  0  0  0  0  0  0  0  0
   -2.7258    3.4407   -0.6552 O   0  0  0  0  0  0  0  0  0  0  0  0
   -2.4194   -0.1831   -0.1773 C   0  0  0  0  0  0  0  0  0  0  0  0
   -3.7139   -0.8972   -0.0226 C   0  0  0  0  0  0  0  0  0  0  0  0
   -3.8956   -2.1460   -0.6552 C   0  0  0  0  0  0  0  0  0  0  0  0
   -3.0980   -2.5416   -1.3001 H   0  0  0  0  0  0  0  0  0  0  0  0
   -5.0708   -2.8858   -0.4773 C   0  0  0  0  0  0  0  0  0  0  0  0
   -5.2301   -3.8524   -0.9760 H   0  0  0  0  0  0  0  0  0  0  0  0
   -6.0629   -2.3751    0.3682 C   0  0  0  0  0  0  0  0  0  0  0  0
   -5.9027   -1.1525    1.0324 C   0  0  0  0  0  0  0  0  0  0  0  0
   -6.6994   -0.7928    1.6989 H   0  0  0  0  0  0  0  0  0  0  0  0
   -4.7307   -0.4160    0.8300 C   0  0  0  0  0  0  0  0  0  0  0  0
   -4.5962    0.5433    1.3442 H   0  0  0  0  0  0  0  0  0  0  0  0
   -0.4395    2.5181    0.9524 C   0  0  0  0  0  0  0  0  0  0  0  0
   -0.7698    1.6696   -0.2387 C   0  0  0  0  0  3  0  0  0  0  0  0
   -0.5429    2.3080   -1.1161 H   0  0  0  0  0  0  0  0  0  0  0  0
   -2.2108    1.1936   -0.3026 C   0  0  0  0  0  0  0  0  0  0  0  0
   -3.2749    2.1824   -0.5119 C   0  0  0  0  0  0  0  0  0  0  0  0
    1.1633    4.0093    1.8363 C   0  0  0  0  0  0  0  0  0  0  0  0
    0.4059    4.7458    2.1750 H   0  0  0  0  0  0  0  0  0  0  0  0
    2.0779    4.5265    1.4930 H   0  0  0  0  0  0  0  0  0  0  0  0
    1.3983    3.3425    2.6917 H   0  0  0  0  0  0  0  0  0  0  0  0
   -3.6706    4.4897   -0.8396 C   0  0  0  0  0  0  0  0  0  0  0  0
   -4.2778    4.3317   -1.7552 H   0  0  0  0  0  0  0  0  0  0  0  0
   -3.0834    5.4225   -0.9252 H   0  0  0  0  0  0  0  0  0  0  0  0
   -4.3696    4.5551    0.0198 H   0  0  0  0  0  0  0  0  0  0  0  0
  4 18  1  0  0  0  0
  4 23  1  0  0  0  0
  5 22  2  0  0  0  0
  6 22  1  0  0  0  0
  7  2  1  0  0  0  0
  7  8  1  0  0  0  0
  8 16  1  0  0  0  0
  9 11  1  0  0  0  0
  9  8  2  0  0  0  0
 10  9  1  0  0  0  0
 11 13  2  0  0  0  0
 12 11  1  0  0  0  0
 13  1  1  0  0  0  0
 13 14  1  0  0  0  0
 14 15  1  0  0  0  0
 16 14  2  0  0  0  0
 16 17  1  0  0  0  0
 18  3  2  0  0  0  0
 19 18  1  0  0  0  0
 20 19  1  0  0  0  0
 21 19  1  0  0  0  0
 21  7  2  0  0  0  0
 22 21  1  0  0  0  0
 23 24  1  0  0  0  0
 23 26  1  0  0  0  0
 25 23  1  0  0  0  0
 27  6  1  0  0  0  0
 27 30  1  0  0  0  0
 28 27  1  0  0  0  0
 29 27  1  0  0  0  0
M  CHG  1   2  -1
M  END
