1,5
 OpenBabel05122313053D

 45 47  0  0  1  0  0  0  0  0999 V2000
    0.8455   -1.1302    1.6909 O   0  0  0  0  0  1  0  0  0  0  0  0
   -0.8401   -0.1741    2.9156 N   0  0  0  0  0  0  0  0  0  0  0  0
   -1.7210   -0.2934    3.4159 H   0  0  0  0  0  0  0  0  0  0  0  0
   -0.5684    0.7749    2.6412 H   0  0  0  0  0  0  0  0  0  0  0  0
   -0.5348    0.6513   -0.1143 C   0  0  0  0  0  2  0  0  0  0  0  0
   -1.3348   -0.4183   -0.4336 C   0  0  1  0  0  3  0  0  0  0  0  0
   -0.7077   -1.7374   -0.7905 C   0  0  0  0  0  0  0  0  0  0  0  0
   -0.8817   -2.9120   -0.0058 C   0  0  0  0  0  0  0  0  0  0  0  0
   -0.2414   -4.1005   -0.4094 C   0  0  0  0  0  0  0  0  0  0  0  0
   -0.3707   -5.0072    0.2035 H   0  0  0  0  0  0  0  0  0  0  0  0
    0.5456   -4.1600   -1.5679 C   0  0  0  0  0  0  0  0  0  0  0  0
    1.0225   -5.1068   -1.8622 H   0  0  0  0  0  0  0  0  0  0  0  0
    0.6955   -3.0114   -2.3589 C   0  0  0  0  0  0  0  0  0  0  0  0
    1.2803   -3.0487   -3.2907 H   0  0  0  0  0  0  0  0  0  0  0  0
    0.0717   -1.8190   -1.9665 C   0  0  0  0  0  0  0  0  0  0  0  0
    0.1483   -0.9235   -2.5996 H   0  0  0  0  0  0  0  0  0  0  0  0
   -1.6704   -2.9130    1.2870 C   0  0  0  0  0  0  0  0  0  0  0  0
   -2.1154   -3.9156    1.4452 H   0  0  0  0  0  0  0  0  0  0  0  0
   -2.5123   -2.1954    1.2296 H   0  0  0  0  0  0  0  0  0  0  0  0
   -0.8156   -2.5928    2.5510 C   0  0  0  0  0  0  0  0  0  0  0  0
   -1.4486   -2.6520    3.4591 H   0  0  0  0  0  0  0  0  0  0  0  0
    0.0056   -3.3291    2.6450 H   0  0  0  0  0  0  0  0  0  0  0  0
   -0.2024   -1.2293    2.3872 C   0  0  1  0  0  3  0  0  0  0  0  0
   -0.9783    2.0457    0.0501 C   0  0  0  0  0  0  0  0  0  0  0  0
   -0.5186    2.8485    1.1262 C   0  0  0  0  0  0  0  0  0  0  0  0
    0.2119    2.4250    1.8379 H   0  0  0  0  0  0  0  0  0  0  0  0
   -0.9332    4.1802    1.2745 C   0  0  0  0  0  0  0  0  0  0  0  0
   -0.5697    4.7758    2.1255 H   0  0  0  0  0  0  0  0  0  0  0  0
   -1.7978    4.7557    0.3296 C   0  0  0  0  0  0  0  0  0  0  0  0
   -2.1187    5.8022    0.4377 H   0  0  0  0  0  0  0  0  0  0  0  0
   -2.2387    3.9884   -0.7630 C   0  0  0  0  0  0  0  0  0  0  0  0
   -2.9058    4.4363   -1.5150 H   0  0  0  0  0  0  0  0  0  0  0  0
   -1.8384    2.6542   -0.9021 C   0  0  0  0  0  0  0  0  0  0  0  0
   -2.1996    2.0548   -1.7509 H   0  0  0  0  0  0  0  0  0  0  0  0
   -2.8253   -0.3780   -0.4487 C   0  0  0  0  0  0  0  0  0  0  0  0
   -3.5648    0.3605    0.5065 C   0  0  0  0  0  0  0  0  0  0  0  0
   -3.0292    0.9398    1.2720 H   0  0  0  0  0  0  0  0  0  0  0  0
   -4.9648    0.3575    0.4916 C   0  0  0  0  0  0  0  0  0  0  0  0
   -5.5200    0.9362    1.2453 H   0  0  0  0  0  0  0  0  0  0  0  0
   -5.6610   -0.3853   -0.4772 C   0  0  0  0  0  0  0  0  0  0  0  0
   -6.7610   -0.3867   -0.4886 H   0  0  0  0  0  0  0  0  0  0  0  0
   -4.9426   -1.1324   -1.4237 C   0  0  0  0  0  0  0  0  0  0  0  0
   -5.4787   -1.7208   -2.1835 H   0  0  0  0  0  0  0  0  0  0  0  0
   -3.5407   -1.1357   -1.4057 C   0  0  0  0  0  0  0  0  0  0  0  0
   -2.9848   -1.7283   -2.1476 H   0  0  0  0  0  0  0  0  0  0  0  0
  2  3  1  0  0  0  0
  4  2  1  0  0  0  0
  5 24  1  0  0  0  0
  6  5  1  1  0  0  0
  7  6  1  0  0  0  0
  7  8  1  0  0  0  0
  8 17  1  0  0  0  0
  9  8  2  0  0  0  0
  9 10  1  0  0  0  0
 11  9  1  0  0  0  0
 12 11  1  0  0  0  0
 13 15  1  0  0  0  0
 13 11  2  0  0  0  0
 14 13  1  0  0  0  0
 15  7  2  0  0  0  0
 16 15  1  0  0  0  0
 17 18  1  0  0  0  0
 17 20  1  0  0  0  0
 19 17  1  0  0  0  0
 20 22  1  0  0  0  0
 20 21  1  0  0  0  0
 23  1  1  6  0  0  0
 23 20  1  0  0  0  0
 23  2  1  0  0  0  0
 24 25  1  0  0  0  0
 25 27  2  0  0  0  0
 25 26  1  0  0  0  0
 27 28  1  0  0  0  0
 29 30  1  0  0  0  0
 29 27  1  0  0  0  0
 31 29  2  0  0  0  0
 32 31  1  0  0  0  0
 33 31  1  0  0  0  0
 33 24  2  0  0  0  0
 34 33  1  0  0  0  0
 35  6  1  0  0  0  0
 35 36  1  0  0  0  0
 36 37  1  0  0  0  0
 38 36  2  0  0  0  0
 38 39  1  0  0  0  0
 40 38  1  0  0  0  0
 41 40  1  0  0  0  0
 42 44  1  0  0  0  0
 42 40  2  0  0  0  0
 43 42  1  0  0  0  0
 44 35  2  0  0  0  0
 45 44  1  0  0  0  0
M  END
