1,9
 OpenBabel05122313053D

 31 33  0  0  0  0  0  0  0  0999 V2000
    1.8403   -0.1433   -0.5277 O   0  5  0  0  0  0  0  0  0  0  0  0
    2.7739   -0.8497   -1.1949 C   0  0  0  0  0  0  0  0  0  0  0  0
    2.3758   -1.9584   -1.9963 C   0  0  0  0  0  0  0  0  0  0  0  0
    3.4293   -2.7460   -2.5284 C   0  0  0  0  0  0  0  0  0  0  0  0
    4.7749   -2.4364   -2.3187 C   0  0  0  0  0  0  0  0  0  0  0  0
    5.1337   -1.3003   -1.5771 C   0  0  0  0  0  0  0  0  0  0  0  0
    4.1371   -0.4838   -1.0170 C   0  0  0  0  0  0  0  0  0  0  0  0
    0.9503   -2.2684   -2.2488 C   0  0  0  0  0  0  0  0  0  0  0  0
   -0.1227   -1.6536   -1.5124 C   0  0  0  0  0  3  0  0  0  0  0  0
   -1.4470   -2.0898   -1.8311 C   0  0  0  0  0  0  0  0  0  0  0  0
   -1.7210   -3.0356   -2.8202 C   0  0  0  0  0  0  0  0  0  0  0  0
   -0.6652   -3.5899   -3.5666 C   0  0  0  0  0  0  0  0  0  0  0  0
    0.6411   -3.2035   -3.2754 C   0  0  0  0  0  0  0  0  0  0  0  0
    4.5029    0.7420   -0.2613 C   0  0  0  0  0  0  0  0  0  0  0  0
    3.9788    2.0013   -0.6313 C   0  0  0  0  0  0  0  0  0  0  0  0
    4.3431    3.1636    0.0602 C   0  0  0  0  0  0  0  0  0  0  0  0
    5.2403    3.0919    1.1389 C   0  0  0  0  0  0  0  0  0  0  0  0
    5.7729    1.8487    1.5147 C   0  0  0  0  0  0  0  0  0  0  0  0
    5.4089    0.6844    0.8195 C   0  0  0  0  0  0  0  0  0  0  0  0
    3.1848   -3.6484   -3.1040 H   0  0  0  0  0  0  0  0  0  0  0  0
    5.5553   -3.0845   -2.7446 H   0  0  0  0  0  0  0  0  0  0  0  0
    6.1906   -1.0270   -1.4394 H   0  0  0  0  0  0  0  0  0  0  0  0
   -2.3033   -1.6817   -1.2731 H   0  0  0  0  0  0  0  0  0  0  0  0
   -2.7630   -3.3340   -3.0172 H   0  0  0  0  0  0  0  0  0  0  0  0
   -0.8618   -4.3140   -4.3715 H   0  0  0  0  0  0  0  0  0  0  0  0
    1.4519   -3.6286   -3.8834 H   0  0  0  0  0  0  0  0  0  0  0  0
    3.2934    2.0581   -1.4897 H   0  0  0  0  0  0  0  0  0  0  0  0
    3.9262    4.1355   -0.2457 H   0  0  0  0  0  0  0  0  0  0  0  0
    5.5251    4.0048    1.6838 H   0  0  0  0  0  0  0  0  0  0  0  0
    6.4781    1.7824    2.3576 H   0  0  0  0  0  0  0  0  0  0  0  0
    5.8184   -0.2916    1.1218 H   0  0  0  0  0  0  0  0  0  0  0  0
  2  7  1  0  0  0  0
  2  1  1  0  0  0  0
  3  2  2  0  0  0  0
  4  5  2  0  0  0  0
  4  3  1  0  0  0  0
  5  6  1  0  0  0  0
  6 22  1  0  0  0  0
  6  7  2  0  0  0  0
  7 14  1  0  0  0  0
  8  3  1  0  0  0  0
  8  9  1  0  0  0  0
 10  9  2  0  0  0  0
 10 23  1  0  0  0  0
 11 10  1  0  0  0  0
 12 13  1  0  0  0  0
 12 11  2  0  0  0  0
 13  8  2  0  0  0  0
 14 19  1  0  0  0  0
 15 14  2  0  0  0  0
 15 16  1  0  0  0  0
 16 17  2  0  0  0  0
 17 18  1  0  0  0  0
 17 29  1  0  0  0  0
 18 30  1  0  0  0  0
 19 31  1  0  0  0  0
 19 18  2  0  0  0  0
 20  4  1  0  0  0  0
 21  5  1  0  0  0  0
 24 11  1  0  0  0  0
 25 12  1  0  0  0  0
 26 13  1  0  0  0  0
 27 15  1  0  0  0  0
 28 16  1  0  0  0  0
M  CHG  1   1  -1
M  END
