1,27
 OpenBabel05122313053D

 47 49  0  0  1  0  0  0  0  0999 V2000
   -0.9035    0.0193   -0.0509 O   0  0  0  0  0  1  0  0  0  0  0  0
    1.3607    1.4182    0.9905 N   0  0  0  0  0  0  0  0  0  0  0  0
   -2.1488    1.6821    0.8658 N   0  0  0  0  0  0  0  0  0  0  0  0
   -2.1929    2.3824    1.6115 H   0  0  0  0  0  0  0  0  0  0  0  0
    2.9922    0.9692   -0.3967 N   0  0  0  0  0  0  0  0  0  0  0  0
    3.1604    4.6836    1.4486 C   0  0  0  0  0  0  0  0  0  0  0  0
    3.1490    5.6526    1.9680 H   0  0  0  0  0  0  0  0  0  0  0  0
   -4.5259    1.1458    0.7848 C   0  0  0  0  0  0  0  0  0  0  0  0
   -3.3346    1.4651    0.0865 C   0  0  0  0  0  0  0  0  0  0  0  0
    3.8621    0.3202   -1.3789 C   0  0  0  0  0  0  0  0  0  0  0  0
    4.0706    1.0680   -2.1709 H   0  0  0  0  0  0  0  0  0  0  0  0
    3.2563   -0.4697   -1.8568 H   0  0  0  0  0  0  0  0  0  0  0  0
    4.2696    3.1708   -0.1367 C   0  0  0  0  0  0  0  0  0  0  0  0
    5.0855    2.9534   -0.8391 H   0  0  0  0  0  0  0  0  0  0  0  0
   -4.4957    1.3734   -2.0199 C   0  0  0  0  0  0  0  0  0  0  0  0
   -4.4885    1.4793   -3.1161 H   0  0  0  0  0  0  0  0  0  0  0  0
    4.2081    4.3934    0.5471 C   0  0  0  0  0  0  0  0  0  0  0  0
    4.9937    5.1434    0.3766 H   0  0  0  0  0  0  0  0  0  0  0  0
   -2.0478    2.0070   -2.0562 C   0  0  0  0  0  0  0  0  0  0  0  0
   -1.4439    2.7352   -1.4775 H   0  0  0  0  0  0  0  0  0  0  0  0
   -2.2987    2.4682   -3.0296 H   0  0  0  0  0  0  0  0  0  0  0  0
   -1.3889    1.1338   -2.2521 H   0  0  0  0  0  0  0  0  0  0  0  0
    0.1200    1.2816    1.7262 C   0  0  0  0  0  0  0  0  0  0  0  0
   -0.0623    2.2119    2.2936 H   0  0  0  0  0  0  0  0  0  0  0  0
    0.1989    0.4440    2.4539 H   0  0  0  0  0  0  0  0  0  0  0  0
    3.2434    2.2479    0.1128 C   0  0  0  0  0  0  0  0  0  0  0  0
    1.8391    0.4569    0.1268 C   0  0  0  0  0  2  0  0  0  0  0  0
    2.1905    2.5445    1.0068 C   0  0  0  0  0  0  0  0  0  0  0  0
   -1.0209    0.9569    0.7749 C   0  0  1  0  0  3  0  0  0  0  0  0
   -4.5375    1.0498    2.2896 C   0  0  0  0  0  0  0  0  0  0  0  0
   -3.7413    0.3755    2.6673 H   0  0  0  0  0  0  0  0  0  0  0  0
   -5.5081    0.6671    2.6562 H   0  0  0  0  0  0  0  0  0  0  0  0
   -4.3813    2.0408    2.7709 H   0  0  0  0  0  0  0  0  0  0  0  0
   -5.6951    1.0317   -1.3731 C   0  0  0  0  0  0  0  0  0  0  0  0
   -3.2958    1.6069   -1.3196 C   0  0  0  0  0  0  0  0  0  0  0  0
   -5.6899    0.9323    0.0337 C   0  0  0  0  0  0  0  0  0  0  0  0
   -6.6224    0.6781    0.5623 H   0  0  0  0  0  0  0  0  0  0  0  0
    5.1593   -0.2086   -0.7735 C   0  0  0  0  0  0  0  0  0  0  0  0
    5.7720   -0.6870   -1.5625 H   0  0  0  0  0  0  0  0  0  0  0  0
    4.9631   -0.9642    0.0129 H   0  0  0  0  0  0  0  0  0  0  0  0
    5.7684    0.5962   -0.3170 H   0  0  0  0  0  0  0  0  0  0  0  0
    2.1306    3.7636    1.6952 C   0  0  0  0  0  0  0  0  0  0  0  0
    1.3197    4.0029    2.3980 H   0  0  0  0  0  0  0  0  0  0  0  0
   -6.9628    0.7889   -2.1497 C   0  0  0  0  0  0  0  0  0  0  0  0
   -7.7690    1.4786   -1.8252 H   0  0  0  0  0  0  0  0  0  0  0  0
   -7.3397   -0.2419   -1.9855 H   0  0  0  0  0  0  0  0  0  0  0  0
   -6.8119    0.9272   -3.2369 H   0  0  0  0  0  0  0  0  0  0  0  0
  2 28  1  0  0  0  0
  2 23  1  0  0  0  0
  3  4  1  0  0  0  0
  5 26  1  0  0  0  0
  5 27  1  0  0  0  0
  6 42  1  0  0  0  0
  6  7  1  0  0  0  0
  8 30  1  0  0  0  0
  9  8  1  0  0  0  0
  9  3  1  0  0  0  0
 10 38  1  0  0  0  0
 10  5  1  0  0  0  0
 11 10  1  0  0  0  0
 12 10  1  0  0  0  0
 13 26  2  0  0  0  0
 13 17  1  0  0  0  0
 14 13  1  0  0  0  0
 15 34  2  0  0  0  0
 15 35  1  0  0  0  0
 16 15  1  0  0  0  0
 17  6  2  0  0  0  0
 18 17  1  0  0  0  0
 19 20  1  0  0  0  0
 19 35  1  0  0  0  0
 21 19  1  0  0  0  0
 22 19  1  0  0  0  0
 23 24  1  0  0  0  0
 23 25  1  0  0  0  0
 26 28  1  0  0  0  0
 27  2  1  0  0  0  0
 28 42  2  0  0  0  0
 29  1  1  1  0  0  0
 29  3  1  0  0  0  0
 29 23  1  0  0  0  0
 30 32  1  0  0  0  0
 30 31  1  0  0  0  0
 30 33  1  0  0  0  0
 34 36  1  0  0  0  0
 35  9  2  0  0  0  0
 36 37  1  0  0  0  0
 36  8  2  0  0  0  0
 38 41  1  0  0  0  0
 38 40  1  0  0  0  0
 39 38  1  0  0  0  0
 42 43  1  0  0  0  0
 44 46  1  0  0  0  0
 44 45  1  0  0  0  0
 44 34  1  0  0  0  0
 47 44  1  0  0  0  0
M  END
