1,16
 OpenBabel05122313053D

 56 58  0  0  1  0  0  0  0  0999 V2000
    0.7267    0.0738   -0.1014 O   0  0  0  0  0  1  0  0  0  0  0  0
   -1.6560   -1.0936   -1.1815 N   0  0  0  0  0  0  0  0  0  0  0  0
    1.7591   -1.7915   -0.8446 N   0  0  0  0  0  0  0  0  0  0  0  0
    1.7593   -2.5531   -1.5285 H   0  0  0  0  0  0  0  0  0  0  0  0
    0.7490   -0.9094   -0.8789 C   0  0  1  0  0  3  0  0  0  0  0  0
   -3.2550   -0.4496    0.1703 N   0  0  0  0  0  0  0  0  0  0  0  0
   -2.6476   -2.0762   -1.2743 C   0  0  0  0  0  0  0  0  0  0  0  0
   -0.3804   -1.1209   -1.8742 C   0  0  0  0  0  0  0  0  0  0  0  0
   -0.3304   -0.3029   -2.6259 H   0  0  0  0  0  0  0  0  0  0  0  0
   -0.2866   -2.0841   -2.4073 H   0  0  0  0  0  0  0  0  0  0  0  0
    5.0412   -1.4275    1.7751 C   0  0  0  0  0  0  0  0  0  0  0  0
    5.8987   -1.3320    2.4579 H   0  0  0  0  0  0  0  0  0  0  0  0
   -3.6813   -1.6514   -0.4088 C   0  0  0  0  0  0  0  0  0  0  0  0
    5.2011   -1.1373    0.4148 C   0  0  0  0  0  0  0  0  0  0  0  0
    6.1816   -0.8115    0.0407 H   0  0  0  0  0  0  0  0  0  0  0  0
   -2.0260   -0.0938   -0.3083 C   0  0  0  0  0  2  0  0  0  0  0  0
   -2.7542   -3.2523   -2.0290 C   0  0  0  0  0  0  0  0  0  0  0  0
   -1.9589   -3.5875   -2.7099 H   0  0  0  0  0  0  0  0  0  0  0  0
    3.7971   -1.8320    2.2762 C   0  0  0  0  0  0  0  0  0  0  0  0
    3.6918   -2.0459    3.3483 H   0  0  0  0  0  0  0  0  0  0  0  0
    4.2631   -0.9510   -1.9630 C   0  0  0  0  0  0  0  0  0  0  0  0
    3.2907   -0.5331   -2.3073 H   0  0  0  0  0  0  0  0  0  0  0  0
    4.1166   -1.2457   -0.4745 C   0  0  0  0  0  0  0  0  0  0  0  0
   -3.9374   -3.9922   -1.8884 C   0  0  0  0  0  0  0  0  0  0  0  0
   -4.0598   -4.9219   -2.4625 H   0  0  0  0  0  0  0  0  0  0  0  0
   -4.8689   -2.3869   -0.2795 C   0  0  0  0  0  0  0  0  0  0  0  0
   -5.6834   -2.0589    0.3799 H   0  0  0  0  0  0  0  0  0  0  0  0
    2.8775   -1.6735    0.0600 C   0  0  0  0  0  0  0  0  0  0  0  0
    2.6795   -1.9688    1.4323 C   0  0  0  0  0  0  0  0  0  0  0  0
   -4.0073    0.2449    1.2220 C   0  0  0  0  0  0  0  0  0  0  0  0
   -5.0179    0.4663    0.8175 H   0  0  0  0  0  0  0  0  0  0  0  0
   -3.4800    1.1998    1.3953 H   0  0  0  0  0  0  0  0  0  0  0  0
    1.3315   -2.4548    1.9562 C   0  0  0  0  0  0  0  0  0  0  0  0
    0.5460   -1.8353    1.4763 H   0  0  0  0  0  0  0  0  0  0  0  0
   -4.9765   -3.5645   -1.0328 C   0  0  0  0  0  0  0  0  0  0  0  0
   -5.8925   -4.1679   -0.9564 H   0  0  0  0  0  0  0  0  0  0  0  0
    4.5158   -2.2536   -2.7485 C   0  0  0  0  0  0  0  0  0  0  0  0
    5.4762   -2.7124   -2.4377 H   0  0  0  0  0  0  0  0  0  0  0  0
    4.5662   -2.0592   -3.8389 H   0  0  0  0  0  0  0  0  0  0  0  0
    3.7271   -3.0159   -2.5756 H   0  0  0  0  0  0  0  0  0  0  0  0
    5.3401    0.0933   -2.2818 C   0  0  0  0  0  0  0  0  0  0  0  0
    5.1959    1.0216   -1.6941 H   0  0  0  0  0  0  0  0  0  0  0  0
    5.3117    0.3571   -3.3577 H   0  0  0  0  0  0  0  0  0  0  0  0
    6.3596   -0.2882   -2.0712 H   0  0  0  0  0  0  0  0  0  0  0  0
    1.1480   -2.2536    3.4641 C   0  0  0  0  0  0  0  0  0  0  0  0
    1.8249   -2.9003    4.0591 H   0  0  0  0  0  0  0  0  0  0  0  0
    0.1103   -2.5142    3.7513 H   0  0  0  0  0  0  0  0  0  0  0  0
    1.3170   -1.1980    3.7527 H   0  0  0  0  0  0  0  0  0  0  0  0
   -4.0858   -0.5480    2.5239 C   0  0  0  0  0  0  0  0  0  0  0  0
   -3.0656   -0.7228    2.9142 H   0  0  0  0  0  0  0  0  0  0  0  0
   -4.6015   -1.5195    2.3998 H   0  0  0  0  0  0  0  0  0  0  0  0
   -4.6479    0.0411    3.2745 H   0  0  0  0  0  0  0  0  0  0  0  0
    1.0990   -3.9278    1.5663 C   0  0  0  0  0  0  0  0  0  0  0  0
    1.1639   -4.0881    0.4708 H   0  0  0  0  0  0  0  0  0  0  0  0
    0.0964   -4.2661    1.8979 H   0  0  0  0  0  0  0  0  0  0  0  0
    1.8548   -4.5846    2.0430 H   0  0  0  0  0  0  0  0  0  0  0  0
  2 16  1  0  0  0  0
  3 28  1  0  0  0  0
  4  3  1  0  0  0  0
  5  3  1  0  0  0  0
  5  1  1  1  0  0  0
  6 30  1  0  0  0  0
  7  2  1  0  0  0  0
  7 13  1  0  0  0  0
  8  2  1  0  0  0  0
  8  5  1  0  0  0  0
  9  8  1  0  0  0  0
 10  8  1  0  0  0  0
 11 19  1  0  0  0  0
 11 12  1  0  0  0  0
 13 26  2  0  0  0  0
 13  6  1  0  0  0  0
 14 11  2  0  0  0  0
 15 14  1  0  0  0  0
 16  6  1  0  0  0  0
 17 24  1  0  0  0  0
 17  7  2  0  0  0  0
 18 17  1  0  0  0  0
 19 20  1  0  0  0  0
 21 23  1  0  0  0  0
 22 21  1  0  0  0  0
 23 28  2  0  0  0  0
 23 14  1  0  0  0  0
 24 35  2  0  0  0  0
 25 24  1  0  0  0  0
 26 27  1  0  0  0  0
 28 29  1  0  0  0  0
 29 33  1  0  0  0  0
 29 19  2  0  0  0  0
 30 32  1  0  0  0  0
 30 49  1  0  0  0  0
 31 30  1  0  0  0  0
 33 45  1  0  0  0  0
 34 33  1  0  0  0  0
 35 36  1  0  0  0  0
 35 26  1  0  0  0  0
 37 40  1  0  0  0  0
 37 38  1  0  0  0  0
 37 21  1  0  0  0  0
 39 37  1  0  0  0  0
 41 44  1  0  0  0  0
 41 21  1  0  0  0  0
 41 42  1  0  0  0  0
 43 41  1  0  0  0  0
 45 47  1  0  0  0  0
 45 48  1  0  0  0  0
 45 46  1  0  0  0  0
 49 50  1  0  0  0  0
 49 52  1  0  0  0  0
 51 49  1  0  0  0  0
 53 55  1  0  0  0  0
 53 33  1  0  0  0  0
 53 56  1  0  0  0  0
 54 53  1  0  0  0  0
M  END
