2,4
 OpenBabel05122313053D

 56 59  0  0  1  0  0  0  0  0999 V2000
    1.7560    4.0588   -0.3255 S   0  0  0  0  0  0  0  0  0  0  0  0
    0.1393   -0.0536    0.8982 O   0  0  0  0  0  1  0  0  0  0  0  0
   -1.4892   -0.6855   -0.8873 C   0  0  0  0  0  0  0  0  0  0  0  0
   -1.4156   -2.0893   -0.6008 C   0  0  0  0  0  3  0  0  0  0  0  0
   -1.8872   -2.5954    0.2468 H   0  0  0  0  0  0  0  0  0  0  0  0
   -0.6496   -2.7223   -1.6258 C   0  0  0  0  0  0  0  0  0  0  0  0
   -0.4416   -3.7929   -1.7111 H   0  0  0  0  0  0  0  0  0  0  0  0
   -0.1946   -1.7180   -2.5110 C   0  0  0  0  0  0  0  0  0  0  0  0
    0.4653   -1.8594   -3.3743 H   0  0  0  0  0  0  0  0  0  0  0  0
   -0.7190   -0.4687   -2.0612 C   0  0  0  0  0  0  0  0  0  0  0  0
   -0.5103    0.4984   -2.5289 H   0  0  0  0  0  0  0  0  0  0  0  0
   -2.1182    0.3891   -0.0078 C   0  0  1  0  0  0  0  0  0  0  0  0
   -2.8422    1.4468   -0.9124 C   0  0  2  0  0  0  0  0  0  0  0  0
   -2.0958    1.9592   -1.5484 H   0  0  0  0  0  0  0  0  0  0  0  0
   -3.5969    2.4966   -0.0697 C   0  0  0  0  0  0  0  0  0  0  0  0
   -2.9038    3.0451    0.6002 H   0  0  0  0  0  0  0  0  0  0  0  0
   -4.0367    3.2557   -0.7517 H   0  0  0  0  0  0  0  0  0  0  0  0
   -4.7084    1.8235    0.7566 C   0  0  2  0  0  0  0  0  0  0  0  0
   -5.2358    2.5895    1.3641 H   0  0  0  0  0  0  0  0  0  0  0  0
   -4.0713    0.7791    1.6884 C   0  0  0  0  0  0  0  0  0  0  0  0
   -4.8682    0.2312    2.2365 H   0  0  0  0  0  0  0  0  0  0  0  0
   -3.4627    1.2815    2.4566 H   0  0  0  0  0  0  0  0  0  0  0  0
   -3.2570   -0.2521    0.8692 C   0  0  1  0  0  0  0  0  0  0  0  0
   -2.8032   -0.9922    1.5634 H   0  0  0  0  0  0  0  0  0  0  0  0
   -3.8649    0.7459   -1.8353 C   0  0  0  0  0  0  0  0  0  0  0  0
   -4.3267    1.5044   -2.5037 H   0  0  0  0  0  0  0  0  0  0  0  0
   -3.3562    0.0094   -2.4892 H   0  0  0  0  0  0  0  0  0  0  0  0
   -5.7060    1.1232   -0.1809 C   0  0  0  0  0  0  0  0  0  0  0  0
   -6.1830    1.8606   -0.8623 H   0  0  0  0  0  0  0  0  0  0  0  0
   -6.5203    0.6542    0.4127 H   0  0  0  0  0  0  0  0  0  0  0  0
   -4.2912   -0.9611   -0.0471 C   0  0  0  0  0  0  0  0  0  0  0  0
   -3.8259   -1.7689   -0.6427 H   0  0  0  0  0  0  0  0  0  0  0  0
   -5.0634   -1.4406    0.5925 H   0  0  0  0  0  0  0  0  0  0  0  0
   -4.9543    0.0572   -0.9955 C   0  0  2  0  0  0  0  0  0  0  0  0
   -5.6628   -0.4742   -1.6661 H   0  0  0  0  0  0  0  0  0  0  0  0
   -0.8374    0.9780    0.8186 C   0  0  2  0  0  0  0  0  0  0  0  0
   -0.1962    2.1740    0.0630 C   0  0  0  0  0  0  0  0  0  0  0  0
   -0.0442    1.8994   -0.9981 H   0  0  0  0  0  0  0  0  0  0  0  0
   -0.8908    3.0382    0.0843 H   0  0  0  0  0  0  0  0  0  0  0  0
    1.1662    2.5990    0.6080 C   0  0  0  0  0  0  0  0  0  0  0  0
    1.8831    1.7672    0.4723 H   0  0  0  0  0  0  0  0  0  0  0  0
    1.1219    2.8634    1.6847 H   0  0  0  0  0  0  0  0  0  0  0  0
   -1.0992    1.3786    2.2792 C   0  0  0  0  0  0  0  0  0  0  0  0
   -1.5615    0.5516    2.8481 H   0  0  0  0  0  0  0  0  0  0  0  0
   -1.7272    2.2843    2.3699 H   0  0  0  0  0  0  0  0  0  0  0  0
   -0.1242    1.5965    2.7543 H   0  0  0  0  0  0  0  0  0  0  0  0
    3.5327    4.0656    0.1844 C   0  0  0  0  0  0  0  0  0  0  0  0
    3.5348    3.8634    1.2784 H   0  0  0  0  0  0  0  0  0  0  0  0
    4.0819    5.4718   -0.0624 C   0  0  0  0  0  0  0  0  0  0  0  0
    4.0226    5.7332   -1.1398 H   0  0  0  0  0  0  0  0  0  0  0  0
    5.1491    5.5280    0.2366 H   0  0  0  0  0  0  0  0  0  0  0  0
    3.5151    6.2346    0.5068 H   0  0  0  0  0  0  0  0  0  0  0  0
    4.3403    2.9886   -0.5398 C   0  0  0  0  0  0  0  0  0  0  0  0
    3.8960    1.9811   -0.4183 H   0  0  0  0  0  0  0  0  0  0  0  0
    5.3834    2.9597   -0.1561 H   0  0  0  0  0  0  0  0  0  0  0  0
    4.3753    3.1982   -1.6282 H   0  0  0  0  0  0  0  0  0  0  0  0
  1 47  1  0  0  0  0
  1 40  1  0  0  0  0
  3  4  1  0  0  0  0
  3 12  1  0  0  0  0
  4  5  1  0  0  0  0
  6  4  1  0  0  0  0
  7  6  1  0  0  0  0
  8 10  1  0  0  0  0
  8  6  2  0  0  0  0
  9  8  1  0  0  0  0
 10  3  2  0  0  0  0
 11 10  1  0  0  0  0
 12 36  1  1  0  0  0
 12 23  1  0  0  0  0
 13 14  1  6  0  0  0
 13 15  1  0  0  0  0
 13 12  1  0  0  0  0
 15 16  1  0  0  0  0
 15 18  1  0  0  0  0
 17 15  1  0  0  0  0
 18 19  1  1  0  0  0
 18 20  1  0  0  0  0
 20 21  1  0  0  0  0
 20 22  1  0  0  0  0
 23 24  1  1  0  0  0
 23 20  1  0  0  0  0
 25 34  1  0  0  0  0
 25 13  1  0  0  0  0
 26 25  1  0  0  0  0
 27 25  1  0  0  0  0
 28 30  1  0  0  0  0
 28 18  1  0  0  0  0
 29 28  1  0  0  0  0
 31 33  1  0  0  0  0
 31 23  1  0  0  0  0
 32 31  1  0  0  0  0
 34 35  1  6  0  0  0
 34 28  1  0  0  0  0
 34 31  1  0  0  0  0
 36  2  1  1  0  0  0
 36 43  1  0  0  0  0
 37 39  1  0  0  0  0
 37 40  1  0  0  0  0
 37 36  1  0  0  0  0
 38 37  1  0  0  0  0
 40 42  1  0  0  0  0
 41 40  1  0  0  0  0
 43 45  1  0  0  0  0
 43 46  1  0  0  0  0
 43 44  1  0  0  0  0
 47 48  1  0  0  0  0
 49 47  1  0  0  0  0
 49 51  1  0  0  0  0
 49 52  1  0  0  0  0
 50 49  1  0  0  0  0
 53 54  1  0  0  0  0
 53 55  1  0  0  0  0
 53 47  1  0  0  0  0
 56 53  1  0  0  0  0
M  END
