2,21
 OpenBabel05122313053D

 43 44  0  0  0  0  0  0  0  0999 V2000
   -1.2410    1.1676    1.8695 S   0  0  0  0  0  0  0  0  0  0  0  0
   -0.3304   -0.1094    1.8936 O   0  0  0  0  0  1  0  0  0  0  0  0
   -0.4988    2.4375    1.7058 O   0  0  0  0  0  1  0  0  0  0  0  0
   -2.2302    1.0445    2.9615 O   0  0  0  0  0  1  0  0  0  0  0  0
    1.8677    2.0782   -0.8533 N   0  0  0  0  0  0  0  0  0  0  0  0
   -0.2408    1.6321   -1.0630 N   0  0  0  0  0  0  0  0  0  0  0  0
    4.1496    2.1053   -1.8043 C   0  0  0  0  0  0  0  0  0  0  0  0
    3.8256    1.3480   -2.5463 H   0  0  0  0  0  0  0  0  0  0  0  0
    5.2114    1.9110   -1.5558 H   0  0  0  0  0  0  0  0  0  0  0  0
    4.1009    3.1022   -2.2894 H   0  0  0  0  0  0  0  0  0  0  0  0
    3.6527    3.1285    0.4844 C   0  0  0  0  0  0  0  0  0  0  0  0
    3.4973    4.1444    0.0647 H   0  0  0  0  0  0  0  0  0  0  0  0
    4.7167    3.0383    0.7795 H   0  0  0  0  0  0  0  0  0  0  0  0
    3.0304    3.0040    1.3904 H   0  0  0  0  0  0  0  0  0  0  0  0
    3.3069    2.0372   -0.5286 C   0  0  0  0  0  0  0  0  0  0  0  0
    3.4469    1.0605   -0.0291 H   0  0  0  0  0  0  0  0  0  0  0  0
    1.3056    3.1138   -1.5913 C   0  0  0  0  0  0  0  0  0  0  0  0
    1.8938    3.9640   -1.9456 H   0  0  0  0  0  0  0  0  0  0  0  0
   -0.0230    2.8368   -1.7255 C   0  0  0  0  0  0  0  0  0  0  0  0
   -0.8401    3.3943   -2.1899 H   0  0  0  0  0  0  0  0  0  0  0  0
    0.9238    1.1556   -0.4897 C   0  0  0  0  0  2  0  0  0  0  0  0
   -1.5478    1.0731   -0.9368 C   0  0  0  0  0  0  0  0  0  0  0  0
   -2.2832    0.7803   -2.0952 C   0  0  0  0  0  0  0  0  0  0  0  0
   -1.8142    0.9327   -3.0793 H   0  0  0  0  0  0  0  0  0  0  0  0
   -3.5943    0.2888   -2.0023 C   0  0  0  0  0  0  0  0  0  0  0  0
   -4.1353    0.0644   -2.9311 H   0  0  0  0  0  0  0  0  0  0  0  0
   -4.2103    0.0834   -0.7510 C   0  0  0  0  0  0  0  0  0  0  0  0
   -3.4566    0.3932    0.4010 C   0  0  0  0  0  0  0  0  0  0  0  0
   -3.8694    0.2692    1.4135 H   0  0  0  0  0  0  0  0  0  0  0  0
   -2.1488    0.8789    0.3209 C   0  0  0  0  0  0  0  0  0  0  0  0
   -5.6388   -0.4623   -0.5964 C   0  0  0  0  0  0  0  0  0  0  0  0
   -5.5816   -1.7932    0.1886 C   0  0  0  0  0  0  0  0  0  0  0  0
   -4.9828   -2.5510   -0.3569 H   0  0  0  0  0  0  0  0  0  0  0  0
   -6.6033   -2.2013    0.3311 H   0  0  0  0  0  0  0  0  0  0  0  0
   -5.1280   -1.6598    1.1906 H   0  0  0  0  0  0  0  0  0  0  0  0
   -6.4895    0.5634    0.1867 C   0  0  0  0  0  0  0  0  0  0  0  0
   -6.0719    0.7625    1.1931 H   0  0  0  0  0  0  0  0  0  0  0  0
   -7.5233    0.1835    0.3190 H   0  0  0  0  0  0  0  0  0  0  0  0
   -6.5435    1.5295   -0.3544 H   0  0  0  0  0  0  0  0  0  0  0  0
   -6.3105   -0.7226   -1.9552 C   0  0  0  0  0  0  0  0  0  0  0  0
   -6.3960    0.2042   -2.5579 H   0  0  0  0  0  0  0  0  0  0  0  0
   -7.3360   -1.1122   -1.7973 H   0  0  0  0  0  0  0  0  0  0  0  0
   -5.7582   -1.4760   -2.5528 H   0  0  0  0  0  0  0  0  0  0  0  0
  1  2  1  0  0  0  0
  1  4  1  0  0  0  0
  3  1  1  0  0  0  0
  5 15  1  0  0  0  0
  5 21  1  0  0  0  0
  6 22  1  0  0  0  0
  6 21  1  0  0  0  0
  7  9  1  0  0  0  0
  7 15  1  0  0  0  0
  8  7  1  0  0  0  0
 10  7  1  0  0  0  0
 11 13  1  0  0  0  0
 11 14  1  0  0  0  0
 12 11  1  0  0  0  0
 15 16  1  0  0  0  0
 15 11  1  0  0  0  0
 17  5  1  0  0  0  0
 18 17  1  0  0  0  0
 19 17  2  0  0  0  0
 19  6  1  0  0  0  0
 20 19  1  0  0  0  0
 22 30  1  0  0  0  0
 23 25  1  0  0  0  0
 23 22  2  0  0  0  0
 24 23  1  0  0  0  0
 25 27  2  0  0  0  0
 26 25  1  0  0  0  0
 27 31  1  0  0  0  0
 27 28  1  0  0  0  0
 28 29  1  0  0  0  0
 30 28  2  0  0  0  0
 30  1  1  0  0  0  0
 31 36  1  0  0  0  0
 31 32  1  0  0  0  0
 32 34  1  0  0  0  0
 32 35  1  0  0  0  0
 33 32  1  0  0  0  0
 36 38  1  0  0  0  0
 36 37  1  0  0  0  0
 39 36  1  0  0  0  0
 40 42  1  0  0  0  0
 40 31  1  0  0  0  0
 41 40  1  0  0  0  0
 43 40  1  0  0  0  0
M  END
