2,15
 OpenBabel05122313053D

 21 22  0  0  0  0  0  0  0  0999 V2000
    2.6870    0.2943    0.0851 S   0  0  0  0  0  0  0  0  0  0  0  0
    1.6381    0.2160    1.1991 O   0  0  0  0  0  1  0  0  0  0  0  0
    3.8427    1.2120    0.2748 O   0  0  0  0  0  1  0  0  0  0  0  0
    3.3435   -1.3707   -0.1041 C   0  0  0  0  0  0  0  0  0  0  0  0
    2.5553   -2.4792    0.2404 C   0  0  0  0  0  0  0  0  0  0  0  0
    1.5465   -2.3436    0.6504 H   0  0  0  0  0  0  0  0  0  0  0  0
    3.0916   -3.7614    0.0525 C   0  0  0  0  0  0  0  0  0  0  0  0
    2.4873   -4.6407    0.3214 H   0  0  0  0  0  0  0  0  0  0  0  0
    4.3867   -3.9219   -0.4680 C   0  0  0  0  0  0  0  0  0  0  0  0
    4.7980   -4.9324   -0.6127 H   0  0  0  0  0  0  0  0  0  0  0  0
    5.1635   -2.7983   -0.7969 C   0  0  0  0  0  0  0  0  0  0  0  0
    6.1826   -2.9260   -1.1921 H   0  0  0  0  0  0  0  0  0  0  0  0
    4.6453   -1.5082   -0.6122 C   0  0  0  0  0  0  0  0  0  0  0  0
    5.2382   -0.6093   -0.8355 H   0  0  0  0  0  0  0  0  0  0  0  0
    1.6351    0.7211   -1.2590 C   0  0  0  0  0  3  0  0  0  0  0  0
    1.7891    0.0903   -2.6222 C   0  0  0  0  0  0  0  0  0  0  0  0
    0.8492   -0.1376   -3.1511 H   0  0  0  0  0  0  0  0  0  0  0  0
    2.5853   -0.6593   -2.7707 H   0  0  0  0  0  0  0  0  0  0  0  0
    2.2006    1.5217   -2.4083 C   0  0  0  0  0  0  0  0  0  0  0  0
    1.5690    2.3375   -2.7983 H   0  0  0  0  0  0  0  0  0  0  0  0
    3.2789    1.7545   -2.3854 H   0  0  0  0  0  0  0  0  0  0  0  0
  1  3  1  0  0  0  0
  1  2  1  0  0  0  0
  4  1  1  0  0  0  0
  4  5  1  0  0  0  0
  5  6  1  0  0  0  0
  7  5  2  0  0  0  0
  7  8  1  0  0  0  0
  9  7  1  0  0  0  0
 10  9  1  0  0  0  0
 11 13  1  0  0  0  0
 11  9  2  0  0  0  0
 12 11  1  0  0  0  0
 13  4  2  0  0  0  0
 14 13  1  0  0  0  0
 15  1  1  0  0  0  0
 16 19  1  0  0  0  0
 16 15  1  0  0  0  0
 17 16  1  0  0  0  0
 18 16  1  0  0  0  0
 19 21  1  0  0  0  0
 19 15  1  0  0  0  0
 20 19  1  0  0  0  0
M  END
