1,3
 OpenBabel05122313053D

 25 26  0  0  1  0  0  0  0  0999 V2000
    0.4544   -1.6240   -0.6202 O   0  0  0  0  0  1  0  0  0  0  0  0
    1.4750   -0.7678   -0.2497 C   0  0  1  0  0  3  0  0  0  0  0  0
    1.1073    0.5133    0.1149 C   0  0  0  0  0  2  0  0  0  0  0  0
    1.5412    2.7474    1.1625 C   0  0  0  0  0  0  0  0  0  0  0  0
    2.2730    3.9367    1.2666 C   0  0  0  0  0  0  0  0  0  0  0  0
    3.4116    4.1435    0.4705 C   0  0  0  0  0  0  0  0  0  0  0  0
    3.7993    3.1394   -0.4342 C   0  0  0  0  0  0  0  0  0  0  0  0
    3.0721    1.9476   -0.5330 C   0  0  0  0  0  0  0  0  0  0  0  0
    1.9233    1.7055    0.2746 C   0  0  0  0  0  0  0  0  0  0  0  0
    3.0530   -2.5369   -1.0587 C   0  0  0  0  0  0  0  0  0  0  0  0
    4.3018   -3.1737   -1.0522 C   0  0  0  0  0  0  0  0  0  0  0  0
    5.3297   -2.7057   -0.2181 C   0  0  0  0  0  0  0  0  0  0  0  0
    5.0959   -1.5973    0.6150 C   0  0  0  0  0  0  0  0  0  0  0  0
    3.8523   -0.9546    0.6050 C   0  0  0  0  0  0  0  0  0  0  0  0
    2.8153   -1.4082   -0.2423 C   0  0  0  0  0  0  0  0  0  0  0  0
    0.6362    2.6094    1.7711 H   0  0  0  0  0  0  0  0  0  0  0  0
    1.9443    4.7170    1.9710 H   0  0  0  0  0  0  0  0  0  0  0  0
    3.9833    5.0808    0.5443 H   0  0  0  0  0  0  0  0  0  0  0  0
    4.6798    3.2902   -1.0786 H   0  0  0  0  0  0  0  0  0  0  0  0
    3.3848    1.1784   -1.2544 H   0  0  0  0  0  0  0  0  0  0  0  0
    2.2346   -2.9051   -1.6937 H   0  0  0  0  0  0  0  0  0  0  0  0
    4.4734   -4.0470   -1.7005 H   0  0  0  0  0  0  0  0  0  0  0  0
    6.3089   -3.2084   -0.2088 H   0  0  0  0  0  0  0  0  0  0  0  0
    5.8900   -1.2347    1.2857 H   0  0  0  0  0  0  0  0  0  0  0  0
    3.6710   -0.0945    1.2653 H   0  0  0  0  0  0  0  0  0  0  0  0
  2  1  1  1  0  0  0
  2 15  1  0  0  0  0
  2  3  1  0  0  0  0
  3  9  1  0  0  0  0
  4  5  1  0  0  0  0
  4 16  1  0  0  0  0
  5 17  1  0  0  0  0
  6 18  1  0  0  0  0
  6  5  2  0  0  0  0
  7  6  1  0  0  0  0
  8  7  2  0  0  0  0
  8  9  1  0  0  0  0
  9  4  2  0  0  0  0
 10 11  2  0  0  0  0
 10 15  1  0  0  0  0
 11 12  1  0  0  0  0
 12 23  1  0  0  0  0
 12 13  2  0  0  0  0
 13 24  1  0  0  0  0
 14 13  1  0  0  0  0
 14 25  1  0  0  0  0
 15 14  2  0  0  0  0
 19  7  1  0  0  0  0
 20  8  1  0  0  0  0
 21 10  1  0  0  0  0
 22 11  1  0  0  0  0
M  END
