1,5
 OpenBabel05122313053D

 41 43  0  0  0  0  0  0  0  0999 V2000
    1.1188    0.1669    1.3422 O   0  0  0  0  0  1  0  0  0  0  0  0
    1.5490    0.0336   -0.1543 P   0  0  0  0  0  4  0  0  0  0  0  0
    0.0623    0.0706   -1.1143 C   0  0  0  0  0  0  0  0  0  0  0  0
    0.0633    0.0788   -2.2186 H   0  0  0  0  0  0  0  0  0  0  0  0
   -1.0659    0.0198   -0.3307 C   0  0  0  0  0  3  0  0  0  0  0  0
   -2.3902    0.0445   -0.9890 C   0  0  0  0  0  0  0  0  0  0  0  0
   -3.3767   -0.9328   -0.7157 C   0  0  0  0  0  0  0  0  0  0  0  0
   -3.1449   -1.7399   -0.0054 H   0  0  0  0  0  0  0  0  0  0  0  0
   -4.6208   -0.8963   -1.3535 C   0  0  0  0  0  0  0  0  0  0  0  0
   -5.3617   -1.6826   -1.1349 H   0  0  0  0  0  0  0  0  0  0  0  0
   -4.9512    0.1292   -2.2668 C   0  0  0  0  0  0  0  0  0  0  0  0
   -3.9733    1.1071   -2.5304 C   0  0  0  0  0  0  0  0  0  0  0  0
   -4.2024    1.9217   -3.2365 H   0  0  0  0  0  0  0  0  0  0  0  0
   -2.7144    1.0631   -1.9138 C   0  0  0  0  0  0  0  0  0  0  0  0
   -1.9648    1.8389   -2.1345 H   0  0  0  0  0  0  0  0  0  0  0  0
   -6.3089    0.1725   -2.9215 C   0  0  0  0  0  0  0  0  0  0  0  0
   -6.3727    0.9789   -3.6776 H   0  0  0  0  0  0  0  0  0  0  0  0
   -7.1127    0.3477   -2.1749 H   0  0  0  0  0  0  0  0  0  0  0  0
   -6.5467   -0.7873   -3.4257 H   0  0  0  0  0  0  0  0  0  0  0  0
    2.6912    1.3886   -0.5797 C   0  0  0  0  0  0  0  0  0  0  0  0
    3.2743    1.4908   -1.8591 C   0  0  0  0  0  0  0  0  0  0  0  0
    3.0860    0.7145   -2.6177 H   0  0  0  0  0  0  0  0  0  0  0  0
    4.1027    2.5807   -2.1618 C   0  0  0  0  0  0  0  0  0  0  0  0
    4.5569    2.6630   -3.1609 H   0  0  0  0  0  0  0  0  0  0  0  0
    4.3555    3.5642   -1.1900 C   0  0  0  0  0  0  0  0  0  0  0  0
    5.0085    4.4172   -1.4301 H   0  0  0  0  0  0  0  0  0  0  0  0
    3.7792    3.4591    0.0860 C   0  0  0  0  0  0  0  0  0  0  0  0
    3.9820    4.2273    0.8477 H   0  0  0  0  0  0  0  0  0  0  0  0
    2.9439    2.3741    0.3930 C   0  0  0  0  0  0  0  0  0  0  0  0
    2.4812    2.2661    1.3859 H   0  0  0  0  0  0  0  0  0  0  0  0
    2.4660   -1.5110   -0.4777 C   0  0  0  0  0  0  0  0  0  0  0  0
    1.7336   -2.6833   -0.7594 C   0  0  0  0  0  0  0  0  0  0  0  0
    0.6375   -2.6317   -0.8480 H   0  0  0  0  0  0  0  0  0  0  0  0
    2.4021   -3.9050   -0.9186 C   0  0  0  0  0  0  0  0  0  0  0  0
    1.8268   -4.8177   -1.1354 H   0  0  0  0  0  0  0  0  0  0  0  0
    3.8006   -3.9631   -0.8017 C   0  0  0  0  0  0  0  0  0  0  0  0
    4.3238   -4.9229   -0.9311 H   0  0  0  0  0  0  0  0  0  0  0  0
    4.5329   -2.7983   -0.5195 C   0  0  0  0  0  0  0  0  0  0  0  0
    5.6287   -2.8440   -0.4262 H   0  0  0  0  0  0  0  0  0  0  0  0
    3.8693   -1.5740   -0.3547 C   0  0  0  0  0  0  0  0  0  0  0  0
    4.4428   -0.6611   -0.1319 H   0  0  0  0  0  0  0  0  0  0  0  0
  2  1  1  0  0  0  0
  3  5  2  0  0  0  0
  3  2  1  0  0  0  0
  4  3  1  0  0  0  0
  6  7  1  0  0  0  0
  6  5  1  0  0  0  0
  7  8  1  0  0  0  0
  9 10  1  0  0  0  0
  9  7  2  0  0  0  0
 11  9  1  0  0  0  0
 12 11  2  0  0  0  0
 12 14  1  0  0  0  0
 13 12  1  0  0  0  0
 14  6  2  0  0  0  0
 15 14  1  0  0  0  0
 16 11  1  0  0  0  0
 16 18  1  0  0  0  0
 17 16  1  0  0  0  0
 19 16  1  0  0  0  0
 20  2  1  0  0  0  0
 20 29  1  0  0  0  0
 21 20  2  0  0  0  0
 22 21  1  0  0  0  0
 23 21  1  0  0  0  0
 23 25  2  0  0  0  0
 24 23  1  0  0  0  0
 25 27  1  0  0  0  0
 26 25  1  0  0  0  0
 27 29  2  0  0  0  0
 27 28  1  0  0  0  0
 29 30  1  0  0  0  0
 31 40  1  0  0  0  0
 31  2  1  0  0  0  0
 32 31  2  0  0  0  0
 33 32  1  0  0  0  0
 34 36  2  0  0  0  0
 34 32  1  0  0  0  0
 35 34  1  0  0  0  0
 36 38  1  0  0  0  0
 37 36  1  0  0  0  0
 38 39  1  0  0  0  0
 38 40  2  0  0  0  0
 40 41  1  0  0  0  0
M  END
