2,8
 OpenBabel05122313053D

 26 26  0  0  0  0  0  0  0  0999 V2000
   -2.4981    0.1711    2.0769 Cl  0  0  0  0  0  0  0  0  0  0  0  0
    1.0498   -2.1836   -0.1980 O   0  5  0  0  0  0  0  0  0  0  0  0
   -3.0866   -2.9472   -0.2807 O   0  0  0  0  0  0  0  0  0  0  0  0
   -3.3237   -0.8153   -1.0061 O   0  0  0  0  0  0  0  0  0  0  0  0
   -0.4432   -4.0374   -0.2758 C   0  0  0  0  0  0  0  0  0  0  0  0
   -0.1651   -2.5662   -0.2945 C   0  0  0  0  0  0  0  0  0  0  0  0
   -1.1499   -1.5241   -0.4122 C   0  0  0  0  0  0  0  0  0  0  0  0
   -0.5708   -0.2423   -0.3378 C   0  0  0  0  0  2  0  0  0  0  0  0
   -1.3542    1.0010   -0.2922 C   0  0  0  0  0  0  0  0  0  0  0  0
   -2.2453    1.3123    0.7661 C   0  0  0  0  0  0  0  0  0  0  0  0
   -2.9284    2.5340    0.8312 C   0  0  0  0  0  0  0  0  0  0  0  0
   -2.7520    3.4856   -0.1831 C   0  0  0  0  0  0  0  0  0  0  0  0
   -1.8849    3.2051   -1.2512 C   0  0  0  0  0  0  0  0  0  0  0  0
   -1.1914    1.9897   -1.2922 C   0  0  0  0  0  0  0  0  0  0  0  0
   -2.5876   -1.8589   -0.5402 C   0  0  0  0  0  0  0  0  0  0  0  0
   -4.7352   -1.0245   -1.0306 C   0  0  0  0  0  0  0  0  0  0  0  0
    0.5102   -4.5940   -0.2213 H   0  0  0  0  0  0  0  0  0  0  0  0
   -1.0987   -4.2907    0.5803 H   0  0  0  0  0  0  0  0  0  0  0  0
   -1.0161   -4.3385   -1.1753 H   0  0  0  0  0  0  0  0  0  0  0  0
   -3.5946    2.7279    1.6837 H   0  0  0  0  0  0  0  0  0  0  0  0
   -3.2914    4.4431   -0.1334 H   0  0  0  0  0  0  0  0  0  0  0  0
   -1.7413    3.9402   -2.0572 H   0  0  0  0  0  0  0  0  0  0  0  0
   -0.5101    1.7741   -2.1269 H   0  0  0  0  0  0  0  0  0  0  0  0
   -5.1236   -1.1904   -0.0043 H   0  0  0  0  0  0  0  0  0  0  0  0
   -4.9993   -1.9069   -1.6477 H   0  0  0  0  0  0  0  0  0  0  0  0
   -5.1724   -0.1048   -1.4593 H   0  0  0  0  0  0  0  0  0  0  0  0
  4 15  1  0  0  0  0
  5 17  1  0  0  0  0
  5 18  1  0  0  0  0
  6  5  1  0  0  0  0
  6  2  1  0  0  0  0
  7  8  1  0  0  0  0
  7  6  2  0  0  0  0
  8  9  1  0  0  0  0
  9 10  1  0  0  0  0
 10 11  2  0  0  0  0
 10  1  1  0  0  0  0
 11 20  1  0  0  0  0
 12 21  1  0  0  0  0
 12 11  1  0  0  0  0
 13 12  2  0  0  0  0
 14 13  1  0  0  0  0
 14  9  2  0  0  0  0
 15  7  1  0  0  0  0
 15  3  2  0  0  0  0
 16  4  1  0  0  0  0
 16 24  1  0  0  0  0
 19  5  1  0  0  0  0
 22 13  1  0  0  0  0
 23 14  1  0  0  0  0
 25 16  1  0  0  0  0
 26 16  1  0  0  0  0
M  CHG  1   2  -1
M  END
