1,4
 OpenBabel05122313053D

 29 29  0  0  1  0  0  0  0  0999 V2000
   -0.2067    1.7428   -0.0587 O   0  0  0  0  0  1  0  0  0  0  0  0
    1.0217    3.5629    0.4172 O   0  0  0  0  0  0  0  0  0  0  0  0
    5.8306    0.1447   -1.7525 O   0  0  0  0  0  0  0  0  0  0  0  0
    1.0035   -0.4301   -1.3107 C   0  0  0  0  0  2  0  0  0  0  0  0
    1.2162   -1.3551   -1.8932 H   0  0  0  0  0  0  0  0  0  0  0  0
    2.1711    0.4179   -1.1083 C   0  0  0  0  0  0  0  0  0  0  0  0
    3.4116   -0.1037   -1.5497 C   0  0  0  0  0  0  0  0  0  0  0  0
    3.4015   -1.0937   -2.0230 H   0  0  0  0  0  0  0  0  0  0  0  0
    4.6104    0.6019   -1.3702 C   0  0  0  0  0  0  0  0  0  0  0  0
    4.5901    1.8743   -0.7492 C   0  0  0  0  0  0  0  0  0  0  0  0
    5.5384    2.4148   -0.6219 H   0  0  0  0  0  0  0  0  0  0  0  0
    3.3783    2.4170   -0.3386 C   0  0  0  0  0  0  0  0  0  0  0  0
    3.3511    3.4122    0.1252 H   0  0  0  0  0  0  0  0  0  0  0  0
    2.1604    1.7137   -0.5032 C   0  0  0  0  0  0  0  0  0  0  0  0
    0.9070    2.3108   -0.0527 C   0  0  1  0  0  3  0  0  0  0  0  0
   -0.1864    4.2733    0.8302 C   0  0  0  0  0  0  0  0  0  0  0  0
   -1.0320    3.8427    0.2556 H   0  0  0  0  0  0  0  0  0  0  0  0
   -0.4048    4.0545    2.3222 C   0  0  0  0  0  0  0  0  0  0  0  0
   -0.5300    2.9796    2.5525 H   0  0  0  0  0  0  0  0  0  0  0  0
   -1.3213    4.5819    2.6535 H   0  0  0  0  0  0  0  0  0  0  0  0
    0.4536    4.4453    2.9052 H   0  0  0  0  0  0  0  0  0  0  0  0
    0.0294    5.7290    0.4474 C   0  0  0  0  0  0  0  0  0  0  0  0
    0.9035    6.1537    0.9815 H   0  0  0  0  0  0  0  0  0  0  0  0
   -0.8645    6.3264    0.7143 H   0  0  0  0  0  0  0  0  0  0  0  0
    0.2001    5.8270   -0.6420 H   0  0  0  0  0  0  0  0  0  0  0  0
    5.8977   -1.0815   -2.4673 C   0  0  0  0  0  0  0  0  0  0  0  0
    5.5280   -1.9340   -1.8572 H   0  0  0  0  0  0  0  0  0  0  0  0
    6.9647   -1.2425   -2.7063 H   0  0  0  0  0  0  0  0  0  0  0  0
    5.3128   -1.0333   -3.4114 H   0  0  0  0  0  0  0  0  0  0  0  0
  2 16  1  0  0  0  0
  3  9  1  0  0  0  0
  4  6  1  0  0  0  0
  5  4  1  0  0  0  0
  6 14  1  0  0  0  0
  7  9  1  0  0  0  0
  7  6  2  0  0  0  0
  8  7  1  0  0  0  0
  9 10  2  0  0  0  0
 10 11  1  0  0  0  0
 10 12  1  0  0  0  0
 12 13  1  0  0  0  0
 14 12  2  0  0  0  0
 14 15  1  0  0  0  0
 15  1  1  1  0  0  0
 15  2  1  0  0  0  0
 16 18  1  0  0  0  0
 17 16  1  0  0  0  0
 18 19  1  0  0  0  0
 18 20  1  0  0  0  0
 18 21  1  0  0  0  0
 22 24  1  0  0  0  0
 22 16  1  0  0  0  0
 22 23  1  0  0  0  0
 25 22  1  0  0  0  0
 26 27  1  0  0  0  0
 26  3  1  0  0  0  0
 28 26  1  0  0  0  0
 29 26  1  0  0  0  0
M  END
