7,15
 OpenBabel05122313053D

 39 40  0  0  1  0  0  0  0  0999 V2000
   -1.1111    1.0625    1.8478 C   0  0  0  0  0  0  0  0  0  0  0  0
   -0.2068    0.8944    2.4402 H   0  0  0  0  0  0  0  0  0  0  0  0
   -2.4025    0.5313    2.1514 C   0  0  0  0  0  0  0  0  0  0  0  0
   -2.6492   -0.0912    3.0195 H   0  0  0  0  0  0  0  0  0  0  0  0
   -3.2932    0.9404    1.1264 C   0  0  0  0  0  0  0  0  0  0  0  0
   -4.3680    0.7347    1.0835 H   0  0  0  0  0  0  0  0  0  0  0  0
   -2.5450    1.6828    0.1635 C   0  0  0  0  0  3  0  0  0  0  0  0
   -2.9557    2.1447   -0.7424 H   0  0  0  0  0  0  0  0  0  0  0  0
   -1.1971    1.8037    0.6383 C   0  0  0  0  0  0  0  0  0  0  0  0
   -0.1019    2.6399   -0.0036 C   0  0  0  0  0  0  0  0  0  0  0  0
    0.1101    2.1860   -1.4816 C   0  0  0  0  0  0  0  0  0  0  0  0
   -0.8494    2.2418   -2.0364 H   0  0  0  0  0  0  0  0  0  0  0  0
    0.8254    2.8666   -1.9835 H   0  0  0  0  0  0  0  0  0  0  0  0
    0.5963    0.7688   -1.5077 C   0  0  2  0  0  3  0  0  0  0  0  0
   -0.1122   -0.1586   -1.0046 O   0  0  0  0  0  1  0  0  0  0  0  0
    1.7987    0.4871   -2.0108 N   0  0  0  0  0  0  0  0  0  0  0  0
    2.3621    1.2758   -2.3385 H   0  0  0  0  0  0  0  0  0  0  0  0
    2.4734   -0.8157   -1.8762 C   0  0  0  0  0  0  0  0  0  0  0  0
    3.0027   -1.0197   -2.8272 H   0  0  0  0  0  0  0  0  0  0  0  0
    1.6795   -1.5739   -1.7454 H   0  0  0  0  0  0  0  0  0  0  0  0
    3.4289   -0.8108   -0.7009 C   0  0  0  0  0  0  0  0  0  0  0  0
    4.7903   -0.5040   -0.8867 C   0  0  0  0  0  0  0  0  0  0  0  0
    5.1808   -0.3269   -1.9021 H   0  0  0  0  0  0  0  0  0  0  0  0
    5.6578   -0.4397    0.2147 C   0  0  0  0  0  0  0  0  0  0  0  0
    6.7223   -0.2086    0.0606 H   0  0  0  0  0  0  0  0  0  0  0  0
    5.1691   -0.6800    1.5084 C   0  0  0  0  0  0  0  0  0  0  0  0
    5.8507   -0.6349    2.3709 H   0  0  0  0  0  0  0  0  0  0  0  0
    3.8126   -0.9921    1.6985 C   0  0  0  0  0  0  0  0  0  0  0  0
    3.4288   -1.1992    2.7089 H   0  0  0  0  0  0  0  0  0  0  0  0
    2.9438   -1.0573    0.5998 C   0  0  0  0  0  0  0  0  0  0  0  0
    1.8842   -1.3182    0.7538 H   0  0  0  0  0  0  0  0  0  0  0  0
    1.2213    2.5165    0.7722 C   0  0  0  0  0  0  0  0  0  0  0  0
    2.0138    3.1151    0.2804 H   0  0  0  0  0  0  0  0  0  0  0  0
    1.5813    1.4702    0.8439 H   0  0  0  0  0  0  0  0  0  0  0  0
    1.1082    2.9061    1.8023 H   0  0  0  0  0  0  0  0  0  0  0  0
   -0.5642    4.1137   -0.0130 C   0  0  0  0  0  0  0  0  0  0  0  0
    0.2236    4.7623   -0.4461 H   0  0  0  0  0  0  0  0  0  0  0  0
   -0.7647    4.4610    1.0192 H   0  0  0  0  0  0  0  0  0  0  0  0
   -1.4896    4.2519   -0.6059 H   0  0  0  0  0  0  0  0  0  0  0  0
  1  3  1  0  0  0  0
  1  2  1  0  0  0  0
  3  4  1  0  0  0  0
  5  3  2  0  0  0  0
  6  5  1  0  0  0  0
  7  9  1  0  0  0  0
  7  5  1  0  0  0  0
  8  7  1  0  0  0  0
  9  1  2  0  0  0  0
 10  9  1  0  0  0  0
 10 32  1  0  0  0  0
 11 10  1  0  0  0  0
 12 11  1  0  0  0  0
 13 11  1  0  0  0  0
 14 11  1  0  0  0  0
 14 15  1  1  0  0  0
 16 18  1  0  0  0  0
 16 14  1  0  0  0  0
 17 16  1  0  0  0  0
 18 20  1  0  0  0  0
 18 21  1  0  0  0  0
 19 18  1  0  0  0  0
 21 30  1  0  0  0  0
 22 21  2  0  0  0  0
 22 24  1  0  0  0  0
 23 22  1  0  0  0  0
 24 26  2  0  0  0  0
 25 24  1  0  0  0  0
 26 28  1  0  0  0  0
 26 27  1  0  0  0  0
 28 29  1  0  0  0  0
 30 31  1  0  0  0  0
 30 28  2  0  0  0  0
 32 34  1  0  0  0  0
 32 35  1  0  0  0  0
 33 32  1  0  0  0  0
 36 10  1  0  0  0  0
 36 38  1  0  0  0  0
 37 36  1  0  0  0  0
 39 36  1  0  0  0  0
M  END
