1,9
 OpenBabel05122313053D

 38 41  0  0  1  0  0  0  0  0999 V2000
    0.1243   -0.9437    0.8896 O   0  5  0  0  0  0  0  0  0  0  0  0
   -0.8885    0.2948   -1.1222 C   0  0  0  0  0  0  0  0  0  0  0  0
   -0.2376   -0.4077   -2.1745 C   0  0  0  0  0  0  0  0  0  0  0  0
   -0.4743   -1.4277   -2.4958 H   0  0  0  0  0  0  0  0  0  0  0  0
    0.8499    0.3812   -2.6508 C   0  0  0  0  0  0  0  0  0  0  0  0
    1.5556    0.0891   -3.4371 H   0  0  0  0  0  0  0  0  0  0  0  0
    0.8826    1.5782   -1.8941 C   0  0  0  0  0  0  0  0  0  0  0  0
    1.5851    2.4058   -2.0336 H   0  0  0  0  0  0  0  0  0  0  0  0
   -0.1659    1.5157   -0.9261 C   0  0  0  0  0  3  0  0  0  0  0  0
   -0.3857    2.2820   -0.1781 H   0  0  0  0  0  0  0  0  0  0  0  0
   -1.9169   -0.3457   -0.1932 C   0  0  1  0  0  0  0  0  0  0  0  0
   -2.4172    0.6608    0.8947 C   0  0  2  0  0  0  0  0  0  0  0  0
   -1.5373    1.0112    1.4727 H   0  0  0  0  0  0  0  0  0  0  0  0
   -3.4043   -0.0451    1.8452 C   0  0  0  0  0  0  0  0  0  0  0  0
   -2.9101   -0.9116    2.3320 H   0  0  0  0  0  0  0  0  0  0  0  0
   -3.7026    0.6580    2.6523 H   0  0  0  0  0  0  0  0  0  0  0  0
   -4.6481   -0.5156    1.0641 C   0  0  2  0  0  0  0  0  0  0  0  0
   -5.3545   -1.0171    1.7594 H   0  0  0  0  0  0  0  0  0  0  0  0
   -4.2050   -1.5096   -0.0221 C   0  0  0  0  0  0  0  0  0  0  0  0
   -5.0827   -1.8306   -0.6240 H   0  0  0  0  0  0  0  0  0  0  0  0
   -3.7948   -2.4180    0.4539 H   0  0  0  0  0  0  0  0  0  0  0  0
   -3.1769   -0.8445   -0.9659 C   0  0  1  0  0  0  0  0  0  0  0  0
   -2.8539   -1.5727   -1.7392 H   0  0  0  0  0  0  0  0  0  0  0  0
   -3.1387    1.8584    0.2378 C   0  0  0  0  0  0  0  0  0  0  0  0
   -3.4723    2.5606    1.0326 H   0  0  0  0  0  0  0  0  0  0  0  0
   -2.4603    2.4282   -0.4256 H   0  0  0  0  0  0  0  0  0  0  0  0
   -5.3416    0.6817    0.3904 C   0  0  0  0  0  0  0  0  0  0  0  0
   -5.6904    1.4105    1.1540 H   0  0  0  0  0  0  0  0  0  0  0  0
   -6.2419    0.3359   -0.1623 H   0  0  0  0  0  0  0  0  0  0  0  0
   -3.8666    0.3620   -1.6398 C   0  0  0  0  0  0  0  0  0  0  0  0
   -3.1675    0.8626   -2.3425 H   0  0  0  0  0  0  0  0  0  0  0  0
   -4.7289    0.0028   -2.2415 H   0  0  0  0  0  0  0  0  0  0  0  0
   -4.3507    1.3636   -0.5700 C   0  0  2  0  0  0  0  0  0  0  0  0
   -4.8425    2.2265   -1.0679 H   0  0  0  0  0  0  0  0  0  0  0  0
   -1.0440   -1.4600    0.4232 C   0  0  0  0  0  0  0  0  0  0  0  0
   -1.2407   -2.7968    0.4215 C   0  0  0  0  0  0  0  0  0  0  0  0
   -2.1564   -3.2595    0.0400 H   0  0  0  0  0  0  0  0  0  0  0  0
   -0.4326   -3.4500    0.7800 H   0  0  0  0  0  0  0  0  0  0  0  0
  2  9  1  0  0  0  0
  2 11  1  0  0  0  0
  3  2  2  0  0  0  0
  4  3  1  0  0  0  0
  5  3  1  0  0  0  0
  5  7  2  0  0  0  0
  6  5  1  0  0  0  0
  7  9  1  0  0  0  0
  8  7  1  0  0  0  0
  9 10  1  0  0  0  0
 11 35  1  1  0  0  0
 11 12  1  0  0  0  0
 12 13  1  1  0  0  0
 12 14  1  0  0  0  0
 14 15  1  0  0  0  0
 14 16  1  0  0  0  0
 17 18  1  1  0  0  0
 17 14  1  0  0  0  0
 19 21  1  0  0  0  0
 19 17  1  0  0  0  0
 20 19  1  0  0  0  0
 22 23  1  6  0  0  0
 22 11  1  0  0  0  0
 22 19  1  0  0  0  0
 24 12  1  0  0  0  0
 24 25  1  0  0  0  0
 26 24  1  0  0  0  0
 27 17  1  0  0  0  0
 27 28  1  0  0  0  0
 29 27  1  0  0  0  0
 30 22  1  0  0  0  0
 30 33  1  0  0  0  0
 31 30  1  0  0  0  0
 32 30  1  0  0  0  0
 33 34  1  6  0  0  0
 33 24  1  0  0  0  0
 33 27  1  0  0  0  0
 35  1  1  0  0  0  0
 36 35  2  0  0  0  0
 36 38  1  0  0  0  0
 37 36  1  0  0  0  0
M  CHG  1   1  -1
M  END
