1,3
 OpenBabel05122313053D

 29 30  0  0  0  0  0  0  0  0999 V2000
    0.2108    1.0361   -0.2093 O   0  5  0  0  0  0  0  0  0  0  0  0
    0.5471   -2.5689   -0.1312 C   0  0  0  0  0  0  0  0  0  0  0  0
    0.2328   -1.2547   -0.0999 C   0  0  0  0  0  3  0  0  0  0  0  0
    1.0551   -0.0298   -0.1179 C   0  0  0  0  0  0  0  0  0  0  0  0
    2.4350    0.1277   -0.0450 C   0  0  0  0  0  0  0  0  0  0  0  0
    3.2671   -1.1155   -0.0303 C   0  0  0  0  0  0  0  0  0  0  0  0
    3.6542   -1.7277   -1.2415 C   0  0  0  0  0  0  0  0  0  0  0  0
    4.4163   -2.9056   -1.2421 C   0  0  0  0  0  0  0  0  0  0  0  0
    4.8114   -3.4891   -0.0270 C   0  0  0  0  0  0  0  0  0  0  0  0
    4.4509   -2.8793    1.1855 C   0  0  0  0  0  0  0  0  0  0  0  0
    3.6902   -1.7001    1.1814 C   0  0  0  0  0  0  0  0  0  0  0  0
    3.1531    1.4136   -0.0466 C   0  0  0  0  0  0  0  0  0  0  0  0
    2.5080    2.6844   -0.0866 C   0  0  0  0  0  0  0  0  0  0  0  0
    3.2469    3.8736   -0.0840 C   0  0  0  0  0  0  0  0  0  0  0  0
    4.6505    3.8545   -0.0423 C   0  0  0  0  0  0  0  0  0  0  0  0
    5.3077    2.6141   -0.0043 C   0  0  0  0  0  0  0  0  0  0  0  0
    4.5769    1.4209   -0.0075 C   0  0  0  0  0  0  0  0  0  0  0  0
   -0.2444   -3.3371   -0.0859 H   0  0  0  0  0  0  0  0  0  0  0  0
    1.5779   -2.9556   -0.1902 H   0  0  0  0  0  0  0  0  0  0  0  0
    3.3351   -1.2701   -2.1905 H   0  0  0  0  0  0  0  0  0  0  0  0
    4.7022   -3.3736   -2.1968 H   0  0  0  0  0  0  0  0  0  0  0  0
    5.4058   -4.4156   -0.0253 H   0  0  0  0  0  0  0  0  0  0  0  0
    4.7646   -3.3259    2.1418 H   0  0  0  0  0  0  0  0  0  0  0  0
    3.4109   -1.2183    2.1309 H   0  0  0  0  0  0  0  0  0  0  0  0
    1.4138    2.7159   -0.1170 H   0  0  0  0  0  0  0  0  0  0  0  0
    2.7119    4.8362   -0.1157 H   0  0  0  0  0  0  0  0  0  0  0  0
    5.2249    4.7934   -0.0407 H   0  0  0  0  0  0  0  0  0  0  0  0
    6.4078    2.5729    0.0273 H   0  0  0  0  0  0  0  0  0  0  0  0
    5.1166    0.4638    0.0197 H   0  0  0  0  0  0  0  0  0  0  0  0
  1  4  1  0  0  0  0
  2  3  2  0  0  0  0
  2 18  1  0  0  0  0
  4  3  1  0  0  0  0
  4  5  2  0  0  0  0
  5  6  1  0  0  0  0
  6 11  1  0  0  0  0
  7  6  2  0  0  0  0
  8  7  1  0  0  0  0
  8  9  2  0  0  0  0
  9 22  1  0  0  0  0
  9 10  1  0  0  0  0
 10 23  1  0  0  0  0
 11 10  2  0  0  0  0
 11 24  1  0  0  0  0
 12  5  1  0  0  0  0
 12 17  1  0  0  0  0
 13 14  1  0  0  0  0
 13 12  2  0  0  0  0
 14 15  2  0  0  0  0
 15 27  1  0  0  0  0
 15 16  1  0  0  0  0
 16 28  1  0  0  0  0
 17 16  2  0  0  0  0
 17 29  1  0  0  0  0
 19  2  1  0  0  0  0
 20  7  1  0  0  0  0
 21  8  1  0  0  0  0
 25 13  1  0  0  0  0
 26 14  1  0  0  0  0
M  CHG  1   1  -1
M  END
