1,40
 OpenBabel05122313053D

 40 43  0  0  0  0  0  0  0  0999 V2000
    0.1544    1.1465    0.0454 C   0  0  0  0  0  2  0  0  0  0  0  0
    1.3849    1.7677    0.0659 N   0  0  0  0  0  0  0  0  0  0  0  0
    1.2707    3.1485    0.0562 C   0  0  0  0  0  0  0  0  0  0  0  0
    2.1423    3.8069    0.0768 H   0  0  0  0  0  0  0  0  0  0  0  0
   -0.0775    3.4374    0.0146 C   0  0  0  0  0  0  0  0  0  0  0  0
   -0.8125    4.6620    0.0648 C   0  0  0  0  0  0  0  0  0  0  0  0
   -0.2559    5.6064    0.1385 H   0  0  0  0  0  0  0  0  0  0  0  0
   -2.1777    4.6151    0.0388 C   0  0  0  0  0  0  0  0  0  0  0  0
   -2.7707    5.5402    0.0952 H   0  0  0  0  0  0  0  0  0  0  0  0
   -2.8864    3.3641   -0.1179 C   0  0  0  0  0  0  0  0  0  0  0  0
   -4.2920    3.3638   -0.2693 C   0  0  0  0  0  0  0  0  0  0  0  0
   -4.8348    4.3177   -0.2016 H   0  0  0  0  0  0  0  0  0  0  0  0
   -4.9595    2.1634   -0.5356 C   0  0  0  0  0  0  0  0  0  0  0  0
   -6.0539    2.1576   -0.6586 H   0  0  0  0  0  0  0  0  0  0  0  0
   -4.2458    0.9704   -0.6648 C   0  0  0  0  0  0  0  0  0  0  0  0
   -4.7545    0.0239   -0.9010 H   0  0  0  0  0  0  0  0  0  0  0  0
   -2.8259    0.8965   -0.5130 C   0  0  0  0  0  0  0  0  0  0  0  0
   -2.1582    2.1343   -0.1936 C   0  0  0  0  0  0  0  0  0  0  0  0
   -0.7500    2.1922   -0.0348 N   0  0  0  0  0  0  0  0  0  0  0  0
    2.6604    1.1146   -0.0131 C   0  0  0  0  0  0  0  0  0  0  0  0
    3.5108    1.1329    1.1123 C   0  0  0  0  0  0  0  0  0  0  0  0
    4.7612    0.4997    0.9995 C   0  0  0  0  0  0  0  0  0  0  0  0
    5.4309    0.4934    1.8745 H   0  0  0  0  0  0  0  0  0  0  0  0
    5.1701   -0.1360   -0.1862 C   0  0  0  0  0  0  0  0  0  0  0  0
    4.2951   -0.1153   -1.2891 C   0  0  0  0  0  0  0  0  0  0  0  0
    4.6027   -0.5963   -2.2318 H   0  0  0  0  0  0  0  0  0  0  0  0
    3.0369    0.5078   -1.2324 C   0  0  0  0  0  0  0  0  0  0  0  0
    3.0810    1.7806    2.4033 C   0  0  0  0  0  0  0  0  0  0  0  0
    3.1294    2.8884    2.3482 H   0  0  0  0  0  0  0  0  0  0  0  0
    3.7283    1.4590    3.2410 H   0  0  0  0  0  0  0  0  0  0  0  0
    2.0314    1.5227    2.6507 H   0  0  0  0  0  0  0  0  0  0  0  0
    6.4966   -0.8487   -0.2684 C   0  0  0  0  0  0  0  0  0  0  0  0
    7.2157   -0.4646    0.4812 H   0  0  0  0  0  0  0  0  0  0  0  0
    6.9541   -0.7455   -1.2726 H   0  0  0  0  0  0  0  0  0  0  0  0
    6.3737   -1.9369   -0.0786 H   0  0  0  0  0  0  0  0  0  0  0  0
    2.1119    0.5078   -2.4191 C   0  0  0  0  0  0  0  0  0  0  0  0
    1.2310   -0.1402   -2.2212 H   0  0  0  0  0  0  0  0  0  0  0  0
    2.6275    0.1432   -3.3276 H   0  0  0  0  0  0  0  0  0  0  0  0
    1.7094    1.5208   -2.6239 H   0  0  0  0  0  0  0  0  0  0  0  0
   -2.2336   -0.2480   -0.6867 O   0  5  0  0  0  0  0  0  0  0  0  0
  1  2  1  0  0  0  0
  3  2  1  0  0  0  0
  3  4  1  0  0  0  0
  5  3  2  0  0  0  0
  5  6  1  0  0  0  0
  6  7  1  0  0  0  0
  8  6  2  0  0  0  0
  8  9  1  0  0  0  0
 10  8  1  0  0  0  0
 11 12  1  0  0  0  0
 11 10  2  0  0  0  0
 13 11  1  0  0  0  0
 14 13  1  0  0  0  0
 15 13  2  0  0  0  0
 15 17  1  0  0  0  0
 16 15  1  0  0  0  0
 17 18  2  0  0  0  0
 18 10  1  0  0  0  0
 18 19  1  0  0  0  0
 19  5  1  0  0  0  0
 19  1  1  0  0  0  0
 20  2  1  0  0  0  0
 20 21  1  0  0  0  0
 21 28  1  0  0  0  0
 22 21  2  0  0  0  0
 22 23  1  0  0  0  0
 24 22  1  0  0  0  0
 25 27  1  0  0  0  0
 25 24  2  0  0  0  0
 26 25  1  0  0  0  0
 27 20  2  0  0  0  0
 28 31  1  0  0  0  0
 28 30  1  0  0  0  0
 29 28  1  0  0  0  0
 32 24  1  0  0  0  0
 32 35  1  0  0  0  0
 32 33  1  0  0  0  0
 34 32  1  0  0  0  0
 36 37  1  0  0  0  0
 36 27  1  0  0  0  0
 38 36  1  0  0  0  0
 39 36  1  0  0  0  0
 40 17  1  0  0  0  0
M  CHG  1  40  -1
M  END
