1,28
 OpenBabel05122313053D

 28 29  0  0  1  0  0  0  0  0999 V2000
    0.3216   -0.3020   -0.0548 C   0  0  0  0  0  3  0  0  0  0  0  0
    0.1694   -1.3898    0.0625 H   0  0  0  0  0  0  0  0  0  0  0  0
   -0.7866    0.4786   -0.1969 C   0  0  0  0  0  0  0  0  0  0  0  0
   -2.1721   -0.0527   -0.2077 C   0  0  0  0  0  0  0  0  0  0  0  0
   -2.4248   -1.3775   -0.6912 C   0  0  0  0  0  0  0  0  0  0  0  0
   -1.5822   -1.9727   -1.0713 H   0  0  0  0  0  0  0  0  0  0  0  0
   -3.7044   -1.8984   -0.7102 C   0  0  0  0  0  0  0  0  0  0  0  0
   -3.8771   -2.9156   -1.0953 H   0  0  0  0  0  0  0  0  0  0  0  0
   -4.8237   -1.1394   -0.2535 C   0  0  0  0  0  0  0  0  0  0  0  0
   -6.1535   -1.6476   -0.2657 C   0  0  0  0  0  0  0  0  0  0  0  0
   -6.3268   -2.6664   -0.6460 H   0  0  0  0  0  0  0  0  0  0  0  0
   -7.2129   -0.8781    0.1955 C   0  0  0  0  0  0  0  0  0  0  0  0
   -8.2360   -1.2832    0.1829 H   0  0  0  0  0  0  0  0  0  0  0  0
   -6.9811    0.4341    0.6887 C   0  0  0  0  0  0  0  0  0  0  0  0
   -7.8269    1.0355    1.0550 H   0  0  0  0  0  0  0  0  0  0  0  0
   -5.6967    0.9583    0.7107 C   0  0  0  0  0  0  0  0  0  0  0  0
   -5.5163    1.9751    1.0941 H   0  0  0  0  0  0  0  0  0  0  0  0
   -4.5879    0.1948    0.2398 C   0  0  0  0  0  0  0  0  0  0  0  0
   -3.2569    0.7015    0.2503 C   0  0  0  0  0  0  0  0  0  0  0  0
   -3.1025    1.7046    0.6818 H   0  0  0  0  0  0  0  0  0  0  0  0
    0.3651    2.6926   -0.2492 C   0  0  1  0  0  3  0  0  0  0  0  0
    0.1461    4.1749   -0.4218 C   0  0  0  0  0  0  0  0  0  0  0  0
    0.7009    4.5209   -1.3165 H   0  0  0  0  0  0  0  0  0  0  0  0
    0.5800    4.7025    0.4499 H   0  0  0  0  0  0  0  0  0  0  0  0
   -0.9202    4.4510   -0.5231 H   0  0  0  0  0  0  0  0  0  0  0  0
   -0.7194    1.8925   -0.3187 N   0  0  0  0  0  0  0  0  0  0  0  0
   -1.6058    2.3509   -0.5401 H   0  0  0  0  0  0  0  0  0  0  0  0
    1.5399    2.2869   -0.0554 O   0  0  0  0  0  1  0  0  0  0  0  0
  1  2  1  0  0  0  0
  3  1  2  0  0  0  0
  4  3  1  0  0  0  0
  4 19  1  0  0  0  0
  5  4  2  0  0  0  0
  6  5  1  0  0  0  0
  7  5  1  0  0  0  0
  7  9  2  0  0  0  0
  8  7  1  0  0  0  0
  9 18  1  0  0  0  0
 10  9  1  0  0  0  0
 10 12  2  0  0  0  0
 11 10  1  0  0  0  0
 12 14  1  0  0  0  0
 13 12  1  0  0  0  0
 14 16  2  0  0  0  0
 14 15  1  0  0  0  0
 16 17  1  0  0  0  0
 18 19  2  0  0  0  0
 18 16  1  0  0  0  0
 19 20  1  0  0  0  0
 21 28  1  6  0  0  0
 22 21  1  0  0  0  0
 22 24  1  0  0  0  0
 23 22  1  0  0  0  0
 25 22  1  0  0  0  0
 26 21  1  0  0  0  0
 26  3  1  0  0  0  0
 27 26  1  0  0  0  0
M  END
