2,3
 OpenBabel05122313053D

 54 56  0  0  1  0  0  0  0  0999 V2000
    0.3164   -0.0342    0.9331 P   0  0  0  0  0  0  0  0  0  0  0  0
   -0.4140   -1.8424   -1.0612 O   0  0  0  0  0  1  0  0  0  0  0  0
   -0.7342    0.8759   -1.4335 C   0  0  0  0  0  3  0  0  0  0  0  0
   -1.7906    0.6388   -0.5952 C   0  0  0  0  0  0  0  0  0  0  0  0
   -1.4860   -0.4088    0.4813 C   0  0  1  0  0  0  0  0  0  0  0  0
   -1.3703   -1.7251   -0.2527 C   0  0  1  0  0  3  0  0  0  0  0  0
   -2.3571   -2.8572   -0.0527 C   0  0  0  0  0  0  0  0  0  0  0  0
   -2.0016   -4.0404   -0.9656 C   0  0  0  0  0  0  0  0  0  0  0  0
   -3.7732   -2.3269   -0.3850 C   0  0  0  0  0  0  0  0  0  0  0  0
   -2.2891   -3.2928    1.4330 C   0  0  0  0  0  0  0  0  0  0  0  0
    0.7992   -1.3502    2.1151 C   0  0  0  0  0  0  0  0  0  0  0  0
    0.3678   -1.2995    3.4588 C   0  0  0  0  0  0  0  0  0  0  0  0
    0.6254   -2.3784    4.3158 C   0  0  0  0  0  0  0  0  0  0  0  0
    1.3130   -3.5089    3.8420 C   0  0  0  0  0  0  0  0  0  0  0  0
    1.7457   -3.5610    2.5074 C   0  0  0  0  0  0  0  0  0  0  0  0
    1.4882   -2.4855    1.6438 C   0  0  0  0  0  0  0  0  0  0  0  0
    0.3909    1.5141    1.8907 C   0  0  0  0  0  0  0  0  0  0  0  0
    1.5387    1.7285    2.6878 C   0  0  0  0  0  0  0  0  0  0  0  0
    1.7060    2.9431    3.3675 C   0  0  0  0  0  0  0  0  0  0  0  0
    0.7299    3.9475    3.2649 C   0  0  0  0  0  0  0  0  0  0  0  0
   -0.4157    3.7330    2.4823 C   0  0  0  0  0  0  0  0  0  0  0  0
   -0.5875    2.5257    1.7896 C   0  0  0  0  0  0  0  0  0  0  0  0
   -3.1342    1.2516   -0.6741 C   0  0  0  0  0  0  0  0  0  0  0  0
   -3.6239    1.7419   -1.9097 C   0  0  0  0  0  0  0  0  0  0  0  0
   -4.8757    2.3614   -1.9954 C   0  0  0  0  0  0  0  0  0  0  0  0
   -5.6782    2.5033   -0.8507 C   0  0  0  0  0  0  0  0  0  0  0  0
   -5.2143    2.0166    0.3805 C   0  0  0  0  0  0  0  0  0  0  0  0
   -3.9606    1.3947    0.4676 C   0  0  0  0  0  0  0  0  0  0  0  0
   -0.8256    1.6581   -2.2089 H   0  0  0  0  0  0  0  0  0  0  0  0
   -2.1850   -0.4388    1.3342 H   0  0  0  0  0  0  0  0  0  0  0  0
   -2.7321   -4.8587   -0.8150 H   0  0  0  0  0  0  0  0  0  0  0  0
   -0.9907   -4.4327   -0.7406 H   0  0  0  0  0  0  0  0  0  0  0  0
   -2.0243   -3.7475   -2.0331 H   0  0  0  0  0  0  0  0  0  0  0  0
   -4.5045   -3.1475   -0.2437 H   0  0  0  0  0  0  0  0  0  0  0  0
   -3.8401   -1.9810   -1.4353 H   0  0  0  0  0  0  0  0  0  0  0  0
   -4.0757   -1.4859    0.2687 H   0  0  0  0  0  0  0  0  0  0  0  0
   -1.2755   -3.6455    1.7088 H   0  0  0  0  0  0  0  0  0  0  0  0
   -3.0008   -4.1270    1.5927 H   0  0  0  0  0  0  0  0  0  0  0  0
   -2.5721   -2.4758    2.1254 H   0  0  0  0  0  0  0  0  0  0  0  0
   -0.1672   -0.4144    3.8362 H   0  0  0  0  0  0  0  0  0  0  0  0
    0.2887   -2.3363    5.3625 H   0  0  0  0  0  0  0  0  0  0  0  0
    1.5152   -4.3521    4.5193 H   0  0  0  0  0  0  0  0  0  0  0  0
    2.2871   -4.4443    2.1368 H   0  0  0  0  0  0  0  0  0  0  0  0
    1.8084   -2.5213    0.5914 H   0  0  0  0  0  0  0  0  0  0  0  0
    2.2985    0.9380    2.7891 H   0  0  0  0  0  0  0  0  0  0  0  0
    2.6011    3.1018    3.9871 H   0  0  0  0  0  0  0  0  0  0  0  0
    0.8599    4.8984    3.8029 H   0  0  0  0  0  0  0  0  0  0  0  0
   -1.1873    4.5134    2.4056 H   0  0  0  0  0  0  0  0  0  0  0  0
   -1.4803    2.3825    1.1669 H   0  0  0  0  0  0  0  0  0  0  0  0
   -3.0177    1.6107   -2.8181 H   0  0  0  0  0  0  0  0  0  0  0  0
   -5.2360    2.7266   -2.9689 H   0  0  0  0  0  0  0  0  0  0  0  0
   -6.6650    2.9842   -0.9207 H   0  0  0  0  0  0  0  0  0  0  0  0
   -5.8337    2.1208    1.2840 H   0  0  0  0  0  0  0  0  0  0  0  0
   -3.6187    1.0334    1.4496 H   0  0  0  0  0  0  0  0  0  0  0  0
  1 17  1  0  0  0  0
  1 11  1  0  0  0  0
  3  4  2  0  0  0  0
  4  5  1  0  0  0  0
  5  1  1  0  0  0  0
  5 30  1  1  0  0  0
  6  2  1  6  0  0  0
  6  7  1  0  0  0  0
  6  5  1  0  0  0  0
  7 10  1  0  0  0  0
  8 31  1  0  0  0  0
  8 32  1  0  0  0  0
  8  7  1  0  0  0  0
  9 34  1  0  0  0  0
  9  7  1  0  0  0  0
  9 36  1  0  0  0  0
 10 38  1  0  0  0  0
 10 37  1  0  0  0  0
 10 39  1  0  0  0  0
 11 12  1  0  0  0  0
 12 40  1  0  0  0  0
 12 13  2  0  0  0  0
 13 41  1  0  0  0  0
 14 13  1  0  0  0  0
 14 42  1  0  0  0  0
 15 14  2  0  0  0  0
 16 11  2  0  0  0  0
 16 15  1  0  0  0  0
 17 18  1  0  0  0  0
 18 45  1  0  0  0  0
 18 19  2  0  0  0  0
 19 46  1  0  0  0  0
 20 19  1  0  0  0  0
 20 47  1  0  0  0  0
 21 20  2  0  0  0  0
 22 17  2  0  0  0  0
 22 21  1  0  0  0  0
 23  4  1  0  0  0  0
 23 28  1  0  0  0  0
 24 23  2  0  0  0  0
 25 24  1  0  0  0  0
 25 26  2  0  0  0  0
 26 27  1  0  0  0  0
 27 28  2  0  0  0  0
 27 53  1  0  0  0  0
 28 54  1  0  0  0  0
 29  3  1  0  0  0  0
 33  8  1  0  0  0  0
 35  9  1  0  0  0  0
 43 15  1  0  0  0  0
 44 16  1  0  0  0  0
 48 21  1  0  0  0  0
 49 22  1  0  0  0  0
 50 24  1  0  0  0  0
 51 25  1  0  0  0  0
 52 26  1  0  0  0  0
M  END
