1,3
 OpenBabel05122313053D

 30 30  0  0  1  0  0  0  0  0999 V2000
   -1.6236   -0.1749   -0.0130 O   0  0  0  0  0  1  0  0  0  0  0  0
    0.8218   -2.1747   -2.1418 C   0  0  0  0  0  3  0  0  0  0  0  0
   -0.5439   -1.9749   -2.5685 C   0  0  1  0  0  3  0  0  0  0  0  0
   -1.5418   -2.3367   -1.5930 C   0  0  1  0  0  3  0  0  0  0  0  0
   -2.8762   -1.6210   -1.4788 C   0  0  0  0  0  0  0  0  0  0  0  0
   -2.8402   -0.8605   -0.1162 C   0  0  2  0  0  0  0  0  0  0  0  0
   -0.8308   -1.1840   -3.8226 C   0  0  0  0  0  0  0  0  0  0  0  0
   -1.4333   -3.5902   -0.7498 C   0  0  0  0  0  0  0  0  0  0  0  0
   -4.0257    0.0812    0.0342 C   0  0  0  0  0  0  0  0  0  0  0  0
   -3.8682    1.4520   -0.2409 C   0  0  0  0  0  0  0  0  0  0  0  0
   -4.9583    2.3303   -0.1461 C   0  0  0  0  0  0  0  0  0  0  0  0
   -6.2249    1.8471    0.2210 C   0  0  0  0  0  0  0  0  0  0  0  0
   -6.3914    0.4796    0.4974 C   0  0  0  0  0  0  0  0  0  0  0  0
   -5.2974   -0.3943    0.4073 C   0  0  0  0  0  0  0  0  0  0  0  0
    1.1248   -3.0891   -1.6009 H   0  0  0  0  0  0  0  0  0  0  0  0
    1.6168   -1.7712   -2.7932 H   0  0  0  0  0  0  0  0  0  0  0  0
   -3.7395   -2.3209   -1.5318 H   0  0  0  0  0  0  0  0  0  0  0  0
   -3.0093   -0.8649   -2.2763 H   0  0  0  0  0  0  0  0  0  0  0  0
   -2.9421   -1.6392    0.6903 H   0  0  0  0  0  0  0  0  0  0  0  0
   -0.8902   -1.8780   -4.6896 H   0  0  0  0  0  0  0  0  0  0  0  0
   -0.0191   -0.4599   -4.0363 H   0  0  0  0  0  0  0  0  0  0  0  0
   -1.7839   -0.6261   -3.7762 H   0  0  0  0  0  0  0  0  0  0  0  0
   -2.1928   -4.3306   -1.0900 H   0  0  0  0  0  0  0  0  0  0  0  0
   -1.6509   -3.3901    0.3214 H   0  0  0  0  0  0  0  0  0  0  0  0
   -0.4433   -4.0775   -0.8144 H   0  0  0  0  0  0  0  0  0  0  0  0
   -2.8651    1.8065   -0.5170 H   0  0  0  0  0  0  0  0  0  0  0  0
   -4.8184    3.4021   -0.3586 H   0  0  0  0  0  0  0  0  0  0  0  0
   -7.0811    2.5349    0.2971 H   0  0  0  0  0  0  0  0  0  0  0  0
   -7.3797    0.0937    0.7924 H   0  0  0  0  0  0  0  0  0  0  0  0
   -5.4285   -1.4648    0.6380 H   0  0  0  0  0  0  0  0  0  0  0  0
  2 15  1  0  0  0  0
  3  2  1  1  0  0  0
  3  4  1  0  0  0  0
  4  5  1  6  0  0  0
  4  8  1  0  0  0  0
  5  6  1  0  0  0  0
  6  1  1  0  0  0  0
  6  9  1  0  0  0  0
  6 19  1  1  0  0  0
  7 22  1  0  0  0  0
  7  3  1  0  0  0  0
  8 24  1  0  0  0  0
  9 14  1  0  0  0  0
 10 11  1  0  0  0  0
 10  9  2  0  0  0  0
 11 12  2  0  0  0  0
 12 28  1  0  0  0  0
 12 13  1  0  0  0  0
 13 29  1  0  0  0  0
 14 13  2  0  0  0  0
 14 30  1  0  0  0  0
 16  2  1  0  0  0  0
 17  5  1  0  0  0  0
 18  5  1  0  0  0  0
 20  7  1  0  0  0  0
 21  7  1  0  0  0  0
 23  8  1  0  0  0  0
 25  8  1  0  0  0  0
 26 10  1  0  0  0  0
 27 11  1  0  0  0  0
M  END
