1,3
 OpenBabel05122313053D

 27 27  0  0  1  0  0  0  0  0999 V2000
    1.8840    0.8046   -0.0282 O   0  0  0  0  0  1  0  0  0  0  0  0
    0.3658   -1.9236   -2.2140 C   0  0  0  0  0  3  0  0  0  0  0  0
    1.5125   -1.1668   -2.6591 C   0  0  2  0  0  3  0  0  0  0  0  0
    2.6063   -1.1227   -1.7180 C   0  0  2  0  0  3  0  0  0  0  0  0
    3.5377    0.0763   -1.6162 C   0  0  0  0  0  0  0  0  0  0  0  0
    1.3990   -0.2884   -3.8825 C   0  0  0  0  0  0  0  0  0  0  0  0
    3.0401   -2.3562   -0.9487 C   0  0  0  0  0  0  0  0  0  0  0  0
    3.2607    0.7755   -0.2576 C   0  0  0  0  0  0  0  0  0  0  0  0
    3.9782    2.1549   -0.1184 C   0  0  0  0  0  0  0  0  0  0  0  0
    5.1230    1.4677    0.6630 C   0  0  0  0  0  0  0  0  0  0  0  0
    4.1814    0.2671    0.9171 C   0  0  0  0  0  0  0  0  0  0  0  0
   -0.5503   -1.8577   -2.8269 H   0  0  0  0  0  0  0  0  0  0  0  0
    0.4829   -2.8989   -1.7088 H   0  0  0  0  0  0  0  0  0  0  0  0
    3.3157    0.8113   -2.4144 H   0  0  0  0  0  0  0  0  0  0  0  0
    4.6074   -0.2124   -1.7262 H   0  0  0  0  0  0  0  0  0  0  0  0
    2.0181    0.6255   -3.8233 H   0  0  0  0  0  0  0  0  0  0  0  0
    0.3491    0.0205   -4.0586 H   0  0  0  0  0  0  0  0  0  0  0  0
    1.7294   -0.8595   -4.7779 H   0  0  0  0  0  0  0  0  0  0  0  0
    3.0850   -2.1804    0.1453 H   0  0  0  0  0  0  0  0  0  0  0  0
    4.0686   -2.6444   -1.2642 H   0  0  0  0  0  0  0  0  0  0  0  0
    2.3813   -3.2257   -1.1281 H   0  0  0  0  0  0  0  0  0  0  0  0
    3.3586    2.8020    0.5349 H   0  0  0  0  0  0  0  0  0  0  0  0
    4.2204    2.7086   -1.0500 H   0  0  0  0  0  0  0  0  0  0  0  0
    5.5288    1.9956    1.5490 H   0  0  0  0  0  0  0  0  0  0  0  0
    5.9739    1.1978    0.0042 H   0  0  0  0  0  0  0  0  0  0  0  0
    4.6117   -0.7537    0.8666 H   0  0  0  0  0  0  0  0  0  0  0  0
    3.6232    0.3790    1.8682 H   0  0  0  0  0  0  0  0  0  0  0  0
  2 13  1  0  0  0  0
  3  2  1  1  0  0  0
  3  4  1  0  0  0  0
  4  5  1  6  0  0  0
  4  7  1  0  0  0  0
  5  8  1  0  0  0  0
  6 16  1  0  0  0  0
  6  3  1  0  0  0  0
  7 19  1  0  0  0  0
  8  9  1  0  0  0  0
  8  1  1  0  0  0  0
  8 11  1  0  0  0  0
  9 22  1  0  0  0  0
  9 10  1  0  0  0  0
 10 11  1  0  0  0  0
 10 24  1  0  0  0  0
 11 27  1  0  0  0  0
 12  2  1  0  0  0  0
 14  5  1  0  0  0  0
 15  5  1  0  0  0  0
 17  6  1  0  0  0  0
 18  6  1  0  0  0  0
 20  7  1  0  0  0  0
 21  7  1  0  0  0  0
 23  9  1  0  0  0  0
 25 10  1  0  0  0  0
 26 11  1  0  0  0  0
M  END
