1,3
 OpenBabel05122313053D

 35 36  0  0  1  0  0  0  0  0999 V2000
    1.8706   -0.7408    0.0392 O   0  5  0  0  0  0  0  0  0  0  0  0
   -1.6773   -0.2086   -1.5182 N   0  0  0  0  0  0  0  0  0  0  0  0
   -0.4192   -0.2969   -1.0539 C   0  0  0  0  0  2  0  0  0  0  0  0
    0.5180    0.7519   -1.1138 C   0  0  0  0  0  0  0  0  0  0  0  0
    1.7395    0.4484   -0.4811 C   0  0  0  0  0  0  0  0  0  0  0  0
    2.8725    1.3808   -0.3231 C   0  0  0  0  0  0  0  0  0  0  0  0
    2.7811    2.7350   -0.7220 C   0  0  0  0  0  0  0  0  0  0  0  0
    3.8716    3.5959   -0.5563 C   0  0  0  0  0  0  0  0  0  0  0  0
    5.0668    3.1196    0.0089 C   0  0  0  0  0  0  0  0  0  0  0  0
    5.1675    1.7768    0.4103 C   0  0  0  0  0  0  0  0  0  0  0  0
    4.0795    0.9128    0.2473 C   0  0  0  0  0  0  0  0  0  0  0  0
   -2.3615    1.0320   -1.9423 C   0  0  1  0  0  0  0  0  0  0  0  0
   -3.5386    0.6741   -2.8497 C   0  0  0  0  0  0  0  0  0  0  0  0
   -2.7547    1.8501   -0.7164 C   0  0  0  0  0  0  0  0  0  0  0  0
   -2.1390    3.0863   -0.4483 C   0  0  0  0  0  0  0  0  0  0  0  0
   -2.4547    3.8084    0.7146 C   0  0  0  0  0  0  0  0  0  0  0  0
   -3.3931    3.2996    1.6248 C   0  0  0  0  0  0  0  0  0  0  0  0
   -4.0229    2.0708    1.3622 C   0  0  0  0  0  0  0  0  0  0  0  0
   -3.7049    1.3532    0.2004 C   0  0  0  0  0  0  0  0  0  0  0  0
    0.3198    1.7264   -1.5758 H   0  0  0  0  0  0  0  0  0  0  0  0
    1.8497    3.1233   -1.1580 H   0  0  0  0  0  0  0  0  0  0  0  0
    3.7907    4.6474   -0.8692 H   0  0  0  0  0  0  0  0  0  0  0  0
    5.9232    3.7986    0.1361 H   0  0  0  0  0  0  0  0  0  0  0  0
    6.1038    1.4026    0.8503 H   0  0  0  0  0  0  0  0  0  0  0  0
    4.1458   -0.1413    0.5508 H   0  0  0  0  0  0  0  0  0  0  0  0
   -1.6293    1.6193   -2.5327 H   0  0  0  0  0  0  0  0  0  0  0  0
   -4.0539    1.5935   -3.1858 H   0  0  0  0  0  0  0  0  0  0  0  0
   -3.1939    0.1182   -3.7438 H   0  0  0  0  0  0  0  0  0  0  0  0
   -4.2879    0.0523   -2.3171 H   0  0  0  0  0  0  0  0  0  0  0  0
   -1.4054    3.4943   -1.1619 H   0  0  0  0  0  0  0  0  0  0  0  0
   -1.9660    4.7750    0.9079 H   0  0  0  0  0  0  0  0  0  0  0  0
   -3.6434    3.8651    2.5347 H   0  0  0  0  0  0  0  0  0  0  0  0
   -4.7733    1.6752    2.0633 H   0  0  0  0  0  0  0  0  0  0  0  0
   -4.2158    0.3968    0.0018 H   0  0  0  0  0  0  0  0  0  0  0  0
   -2.2825   -1.0225   -1.3959 H   0  0  0  0  0  0  0  0  0  0  0  0
  2 35  1  0  0  0  0
  2  3  1  0  0  0  0
  4  3  1  0  0  0  0
  4  5  2  0  0  0  0
  5  6  1  0  0  0  0
  5  1  1  0  0  0  0
  6 11  1  0  0  0  0
  7  8  1  0  0  0  0
  7  6  2  0  0  0  0
  8  9  2  0  0  0  0
  9 23  1  0  0  0  0
  9 10  1  0  0  0  0
 10 24  1  0  0  0  0
 11 10  2  0  0  0  0
 11 25  1  0  0  0  0
 12 26  1  6  0  0  0
 12  2  1  0  0  0  0
 12 14  1  0  0  0  0
 13 29  1  0  0  0  0
 13 12  1  0  0  0  0
 14 15  2  0  0  0  0
 14 19  1  0  0  0  0
 15 16  1  0  0  0  0
 16 31  1  0  0  0  0
 16 17  2  0  0  0  0
 17 32  1  0  0  0  0
 18 17  1  0  0  0  0
 18 33  1  0  0  0  0
 19 18  2  0  0  0  0
 20  4  1  0  0  0  0
 21  7  1  0  0  0  0
 22  8  1  0  0  0  0
 27 13  1  0  0  0  0
 28 13  1  0  0  0  0
 30 15  1  0  0  0  0
 34 19  1  0  0  0  0
M  CHG  1   1  -1
M  END
