1,42
 OpenBabel05122313053D

 59 61  0  0  1  0  0  0  0  0999 V2000
    0.9970    1.5127   -0.7864 O   0  5  0  0  0  0  0  0  0  0  0  0
    0.3361   -1.1352   -1.3524 N   0  0  0  0  0  0  0  0  0  0  0  0
   -1.7973   -1.0903   -1.7814 N   0  0  0  0  0  0  0  0  0  0  0  0
    1.6339   -0.7948   -0.8693 C   0  0  0  0  0  0  0  0  0  0  0  0
    1.9234    0.5882   -0.6653 C   0  0  0  0  0  0  0  0  0  0  0  0
    3.2920    0.9230   -0.3563 C   0  0  0  0  0  0  0  0  0  0  0  0
    4.2057   -0.1224   -0.1606 C   0  0  0  0  0  0  0  0  0  0  0  0
    5.2380    0.1421    0.1046 H   0  0  0  0  0  0  0  0  0  0  0  0
    3.8848   -1.4963   -0.2664 C   0  0  0  0  0  0  0  0  0  0  0  0
    2.5756   -1.8119   -0.6504 C   0  0  0  0  0  0  0  0  0  0  0  0
    2.2583   -2.8570   -0.7647 H   0  0  0  0  0  0  0  0  0  0  0  0
    4.9469   -2.5627    0.0485 C   0  0  0  0  0  0  0  0  0  0  0  0
    5.3909   -2.4140    1.5220 C   0  0  0  0  0  0  0  0  0  0  0  0
    6.1640   -3.1682    1.7794 H   0  0  0  0  0  0  0  0  0  0  0  0
    4.5298   -2.5517    2.2076 H   0  0  0  0  0  0  0  0  0  0  0  0
    5.8180   -1.4106    1.7190 H   0  0  0  0  0  0  0  0  0  0  0  0
    4.4073   -3.9892   -0.1518 C   0  0  0  0  0  0  0  0  0  0  0  0
    4.0858   -4.1635   -1.1988 H   0  0  0  0  0  0  0  0  0  0  0  0
    3.5459   -4.2005    0.5141 H   0  0  0  0  0  0  0  0  0  0  0  0
    5.1983   -4.7302    0.0819 H   0  0  0  0  0  0  0  0  0  0  0  0
    6.1684   -2.3713   -0.8786 C   0  0  0  0  0  0  0  0  0  0  0  0
    5.8761   -2.4780   -1.9428 H   0  0  0  0  0  0  0  0  0  0  0  0
    6.9515   -3.1261   -0.6565 H   0  0  0  0  0  0  0  0  0  0  0  0
    6.6239   -1.3688   -0.7549 H   0  0  0  0  0  0  0  0  0  0  0  0
    3.7260    2.3991   -0.2888 C   0  0  0  0  0  0  0  0  0  0  0  0
    2.9416    3.1415    0.8169 C   0  0  0  0  0  0  0  0  0  0  0  0
    3.1265    2.6801    1.8098 H   0  0  0  0  0  0  0  0  0  0  0  0
    1.8592    3.1141    0.5990 H   0  0  0  0  0  0  0  0  0  0  0  0
    3.2659    4.2017    0.8699 H   0  0  0  0  0  0  0  0  0  0  0  0
    3.4386    3.0644   -1.6562 C   0  0  0  0  0  0  0  0  0  0  0  0
    3.7287    4.1358   -1.6299 H   0  0  0  0  0  0  0  0  0  0  0  0
    2.3634    2.9958   -1.9083 H   0  0  0  0  0  0  0  0  0  0  0  0
    4.0221    2.5708   -2.4600 H   0  0  0  0  0  0  0  0  0  0  0  0
    5.2276    2.5486    0.0126 C   0  0  0  0  0  0  0  0  0  0  0  0
    5.5008    2.1220    0.9996 H   0  0  0  0  0  0  0  0  0  0  0  0
    5.4933    3.6249    0.0309 H   0  0  0  0  0  0  0  0  0  0  0  0
    5.8577    2.0638   -0.7605 H   0  0  0  0  0  0  0  0  0  0  0  0
    0.0718   -2.2014   -2.2094 C   0  0  0  0  0  0  0  0  0  0  0  0
    0.8646   -2.8501   -2.5884 H   0  0  0  0  0  0  0  0  0  0  0  0
   -1.2701   -2.1743   -2.4751 C   0  0  0  0  0  0  0  0  0  0  0  0
   -1.8797   -2.8179   -3.1132 H   0  0  0  0  0  0  0  0  0  0  0  0
   -0.8144   -0.4376   -1.0823 C   0  0  0  0  0  2  0  0  0  0  0  0
   -3.2114   -0.7000   -1.7658 C   0  0  1  0  0  0  0  0  0  0  0  0
   -3.1853    0.3855   -1.5300 H   0  0  0  0  0  0  0  0  0  0  0  0
   -3.8445   -0.8472   -3.1537 C   0  0  0  0  0  0  0  0  0  0  0  0
   -3.2617   -0.2668   -3.8951 H   0  0  0  0  0  0  0  0  0  0  0  0
   -4.8746   -0.4439   -3.1299 H   0  0  0  0  0  0  0  0  0  0  0  0
   -3.9148   -1.9050   -3.4775 H   0  0  0  0  0  0  0  0  0  0  0  0
   -3.9944   -1.4250   -0.6794 C   0  0  0  0  0  0  0  0  0  0  0  0
   -3.5476   -2.6221   -0.0873 C   0  0  0  0  0  0  0  0  0  0  0  0
   -2.5956   -3.0694   -0.4105 H   0  0  0  0  0  0  0  0  0  0  0  0
   -4.2901   -3.2363    0.9346 C   0  0  0  0  0  0  0  0  0  0  0  0
   -3.9203   -4.1671    1.3912 H   0  0  0  0  0  0  0  0  0  0  0  0
   -5.4925   -2.6649    1.3777 C   0  0  0  0  0  0  0  0  0  0  0  0
   -6.0705   -3.1425    2.1830 H   0  0  0  0  0  0  0  0  0  0  0  0
   -5.9509   -1.4754    0.7875 C   0  0  0  0  0  0  0  0  0  0  0  0
   -6.8903   -1.0156    1.1305 H   0  0  0  0  0  0  0  0  0  0  0  0
   -5.2076   -0.8633   -0.2314 C   0  0  0  0  0  0  0  0  0  0  0  0
   -5.5653    0.0777   -0.6798 H   0  0  0  0  0  0  0  0  0  0  0  0
  1  5  1  0  0  0  0
  2 42  1  0  0  0  0
  2  4  1  0  0  0  0
  3 43  1  0  0  0  0
  3 42  1  0  0  0  0
  4  5  2  0  0  0  0
  4 10  1  0  0  0  0
  5  6  1  0  0  0  0
  6 25  1  0  0  0  0
  6  7  2  0  0  0  0
  7  8  1  0  0  0  0
  9  7  1  0  0  0  0
  9 12  1  0  0  0  0
 10  9  2  0  0  0  0
 11 10  1  0  0  0  0
 12 13  1  0  0  0  0
 13 16  1  0  0  0  0
 13 14  1  0  0  0  0
 13 15  1  0  0  0  0
 17 12  1  0  0  0  0
 17 20  1  0  0  0  0
 17 19  1  0  0  0  0
 18 17  1  0  0  0  0
 21 24  1  0  0  0  0
 21 23  1  0  0  0  0
 21 12  1  0  0  0  0
 22 21  1  0  0  0  0
 25 34  1  0  0  0  0
 25 26  1  0  0  0  0
 26 29  1  0  0  0  0
 26 27  1  0  0  0  0
 28 26  1  0  0  0  0
 30 31  1  0  0  0  0
 30 25  1  0  0  0  0
 32 30  1  0  0  0  0
 33 30  1  0  0  0  0
 34 36  1  0  0  0  0
 34 35  1  0  0  0  0
 37 34  1  0  0  0  0
 38  2  1  0  0  0  0
 39 38  1  0  0  0  0
 40 38  2  0  0  0  0
 40  3  1  0  0  0  0
 41 40  1  0  0  0  0
 43 44  1  1  0  0  0
 43 49  1  0  0  0  0
 45 47  1  0  0  0  0
 45 43  1  0  0  0  0
 46 45  1  0  0  0  0
 48 45  1  0  0  0  0
 49 58  2  0  0  0  0
 49 50  1  0  0  0  0
 50 52  2  0  0  0  0
 51 50  1  0  0  0  0
 52 54  1  0  0  0  0
 52 53  1  0  0  0  0
 54 55  1  0  0  0  0
 56 57  1  0  0  0  0
 56 54  2  0  0  0  0
 58 56  1  0  0  0  0
 59 58  1  0  0  0  0
M  CHG  1   1  -1
M  END
