1,4
 OpenBabel05122313053D

 25 24  0  0  0  0  0  0  0  0999 V2000
    0.7390   -0.8296    0.0004 O   0  5  0  0  0  0  0  0  0  0  0  0
   -2.0579    1.9302   -0.0007 O   0  0  0  0  0  0  0  0  0  0  0  0
    4.8391   -0.5054    0.0002 O   0  0  0  0  0  0  0  0  0  0  0  0
   -1.0304    1.0846   -0.0005 C   0  0  0  0  0  2  0  0  0  0  0  0
    0.3082    1.4710   -0.0005 C   0  0  0  0  0  0  0  0  0  0  0  0
    1.2134    0.3651   -0.0002 C   0  0  0  0  0  0  0  0  0  0  0  0
    2.6596    0.5676   -0.0002 C   0  0  0  0  0  0  0  0  0  0  0  0
    3.5034   -0.5048    0.0002 C   0  0  0  0  0  0  0  0  0  0  0  0
   -1.8217    3.3562   -0.0005 C   0  0  0  0  0  0  0  0  0  0  0  0
   -3.1680    4.0496    0.0000 C   0  0  0  0  0  0  0  0  0  0  0  0
    5.5213    0.7580   -0.0001 C   0  0  0  0  0  0  0  0  0  0  0  0
    7.0126    0.4912    0.0002 C   0  0  0  0  0  0  0  0  0  0  0  0
   -1.2216    3.6199   -0.8993 H   0  0  0  0  0  0  0  0  0  0  0  0
   -1.2210    3.6196    0.8980 H   0  0  0  0  0  0  0  0  0  0  0  0
   -3.7547    3.7701   -0.8970 H   0  0  0  0  0  0  0  0  0  0  0  0
   -3.0316    5.1491    0.0001 H   0  0  0  0  0  0  0  0  0  0  0  0
   -3.7541    3.7698    0.8973 H   0  0  0  0  0  0  0  0  0  0  0  0
    5.2084    1.3376   -0.8981 H   0  0  0  0  0  0  0  0  0  0  0  0
    5.2081    1.3382    0.8973 H   0  0  0  0  0  0  0  0  0  0  0  0
    7.3098   -0.0850    0.8982 H   0  0  0  0  0  0  0  0  0  0  0  0
    7.3101   -0.0856   -0.8974 H   0  0  0  0  0  0  0  0  0  0  0  0
    7.5694    1.4487   -0.0001 H   0  0  0  0  0  0  0  0  0  0  0  0
    0.6783    2.5066   -0.0009 H   0  0  0  0  0  0  0  0  0  0  0  0
    3.0246    1.6034   -0.0006 H   0  0  0  0  0  0  0  0  0  0  0  0
    3.0909   -1.5271    0.0005 H   0  0  0  0  0  0  0  0  0  0  0  0
  2  9  1  0  0  0  0
  2  4  1  0  0  0  0
  5  4  1  0  0  0  0
  5  6  2  0  0  0  0
  6  1  1  0  0  0  0
  7  6  1  0  0  0  0
  7  8  2  0  0  0  0
  8  3  1  0  0  0  0
  8 25  1  0  0  0  0
  9 10  1  0  0  0  0
  9 14  1  0  0  0  0
 10 16  1  0  0  0  0
 10 17  1  0  0  0  0
 11 12  1  0  0  0  0
 11  3  1  0  0  0  0
 11 19  1  0  0  0  0
 12 20  1  0  0  0  0
 13  9  1  0  0  0  0
 15 10  1  0  0  0  0
 18 11  1  0  0  0  0
 21 12  1  0  0  0  0
 22 12  1  0  0  0  0
 23  5  1  0  0  0  0
 24  7  1  0  0  0  0
M  CHG  1   1  -1
M  END
