1,29
 OpenBabel05122313053D

 34 34  0  0  0  0  0  0  0  0999 V2000
    1.8624   -0.8006   -0.3529 O   0  5  0  0  0  0  0  0  0  0  0  0
    0.3322    1.0255   -1.8391 N   0  0  0  0  0  0  0  0  0  0  0  0
   -0.5985    1.3674   -2.1081 H   0  0  0  0  0  0  0  0  0  0  0  0
    2.7345    0.2044   -0.2462 C   0  0  0  0  0  0  0  0  0  0  0  0
    4.1456    0.0141   -0.0956 C   0  0  0  0  0  0  0  0  0  0  0  0
    4.9228    1.1663    0.1253 C   0  0  0  0  0  0  0  0  0  0  0  0
    6.0067    1.0489    0.2712 H   0  0  0  0  0  0  0  0  0  0  0  0
    4.3984    2.4777    0.1844 C   0  0  0  0  0  0  0  0  0  0  0  0
    3.0214    2.6417   -0.0390 C   0  0  0  0  0  0  0  0  0  0  0  0
    2.5758    3.6506   -0.0417 H   0  0  0  0  0  0  0  0  0  0  0  0
    2.2035    1.5261   -0.2750 C   0  0  0  0  0  0  0  0  0  0  0  0
    4.7623   -1.3927   -0.1685 C   0  0  0  0  0  0  0  0  0  0  0  0
    4.1863   -2.2682    0.9674 C   0  0  0  0  0  0  0  0  0  0  0  0
    4.4496   -1.8483    1.9600 H   0  0  0  0  0  0  0  0  0  0  0  0
    4.5910   -3.3006    0.9123 H   0  0  0  0  0  0  0  0  0  0  0  0
    3.0845   -2.3122    0.8871 H   0  0  0  0  0  0  0  0  0  0  0  0
    4.4109   -2.0222   -1.5369 C   0  0  0  0  0  0  0  0  0  0  0  0
    3.3139   -2.0615   -1.6757 H   0  0  0  0  0  0  0  0  0  0  0  0
    4.8138   -3.0544   -1.6079 H   0  0  0  0  0  0  0  0  0  0  0  0
    4.8482   -1.4260   -2.3639 H   0  0  0  0  0  0  0  0  0  0  0  0
    6.2938   -1.3709   -0.0290 C   0  0  0  0  0  0  0  0  0  0  0  0
    6.7731   -0.7683   -0.8269 H   0  0  0  0  0  0  0  0  0  0  0  0
    6.6887   -2.4044   -0.1062 H   0  0  0  0  0  0  0  0  0  0  0  0
    6.6158   -0.9636    0.9509 H   0  0  0  0  0  0  0  0  0  0  0  0
    5.3012    3.6528    0.4729 C   0  0  0  0  0  0  0  0  0  0  0  0
    5.6603    3.6484    1.5252 H   0  0  0  0  0  0  0  0  0  0  0  0
    4.7792    4.6161    0.3081 H   0  0  0  0  0  0  0  0  0  0  0  0
    6.2057    3.6458   -0.1709 H   0  0  0  0  0  0  0  0  0  0  0  0
    0.7562    1.5653   -0.5639 C   0  0  0  0  0  3  0  0  0  0  0  0
    0.1886    2.4619   -0.2538 H   0  0  0  0  0  0  0  0  0  0  0  0
    1.2337    0.8155   -2.9677 C   0  0  0  0  0  0  0  0  0  0  0  0
    1.6231    1.7755   -3.3709 H   0  0  0  0  0  0  0  0  0  0  0  0
    0.6848    0.2785   -3.7655 H   0  0  0  0  0  0  0  0  0  0  0  0
    2.0920    0.1947   -2.6551 H   0  0  0  0  0  0  0  0  0  0  0  0
  1  4  1  0  0  0  0
  2 29  1  0  0  0  0
  3  2  1  0  0  0  0
  4  5  1  0  0  0  0
  5  6  2  0  0  0  0
  6  8  1  0  0  0  0
  6  7  1  0  0  0  0
  8 25  1  0  0  0  0
  9  8  2  0  0  0  0
 10  9  1  0  0  0  0
 11  4  2  0  0  0  0
 11  9  1  0  0  0  0
 12  5  1  0  0  0  0
 12 21  1  0  0  0  0
 12 13  1  0  0  0  0
 13 14  1  0  0  0  0
 15 13  1  0  0  0  0
 16 13  1  0  0  0  0
 17 12  1  0  0  0  0
 18 17  1  0  0  0  0
 19 17  1  0  0  0  0
 20 17  1  0  0  0  0
 21 24  1  0  0  0  0
 22 21  1  0  0  0  0
 23 21  1  0  0  0  0
 25 26  1  0  0  0  0
 27 25  1  0  0  0  0
 28 25  1  0  0  0  0
 29 11  1  0  0  0  0
 29 30  1  0  0  0  0
 31 34  1  0  0  0  0
 31  2  1  0  0  0  0
 32 31  1  0  0  0  0
 33 31  1  0  0  0  0
M  CHG  1   1  -1
M  END
