1,8
 OpenBabel05122313053D

 20 20  0  0  1  0  0  0  0  0999 V2000
   -0.5487   -0.5068    2.2636 O   0  0  0  0  0  1  0  0  0  0  0  0
    0.6120   -0.8533    2.6514 C   0  0  2  0  0  3  0  0  0  0  0  0
    0.8775   -0.9058    4.1284 C   0  0  0  0  0  0  0  0  0  0  0  0
    1.6103   -0.1212    4.4090 H   0  0  0  0  0  0  0  0  0  0  0  0
    1.3140   -1.8816    4.4218 H   0  0  0  0  0  0  0  0  0  0  0  0
   -0.0611   -0.7339    4.6846 H   0  0  0  0  0  0  0  0  0  0  0  0
    1.6010   -1.1535    1.6479 C   0  0  0  0  0  0  0  0  0  0  0  0
    1.1423   -0.9626    0.3040 C   0  0  0  0  0  3  0  0  0  0  0  0
    2.0602   -1.1382   -0.7446 C   0  0  0  0  0  0  0  0  0  0  0  0
    1.7452   -0.9218   -1.7728 H   0  0  0  0  0  0  0  0  0  0  0  0
    3.3890   -1.5255   -0.4736 C   0  0  0  0  0  0  0  0  0  0  0  0
    3.8238   -1.7506    0.8623 C   0  0  0  0  0  0  0  0  0  0  0  0
    4.8671   -2.0533    1.0275 H   0  0  0  0  0  0  0  0  0  0  0  0
    2.9383   -1.5526    1.9108 C   0  0  0  0  0  0  0  0  0  0  0  0
    3.2831   -1.6954    2.9468 H   0  0  0  0  0  0  0  0  0  0  0  0
    4.3358   -1.6967   -1.4263 O   0  0  0  0  0  0  0  0  0  0  0  0
    3.9997   -1.4055   -2.7747 C   0  0  0  0  0  0  0  0  0  0  0  0
    3.1999   -2.0800   -3.1533 H   0  0  0  0  0  0  0  0  0  0  0  0
    4.9195   -1.5681   -3.3657 H   0  0  0  0  0  0  0  0  0  0  0  0
    3.6646   -0.3522   -2.8934 H   0  0  0  0  0  0  0  0  0  0  0  0
  2  1  1  6  0  0  0
  2  3  1  0  0  0  0
  3  4  1  0  0  0  0
  3  5  1  0  0  0  0
  3  6  1  0  0  0  0
  7 14  1  0  0  0  0
  7  2  1  0  0  0  0
  8  7  2  0  0  0  0
  9 11  2  0  0  0  0
  9  8  1  0  0  0  0
 10  9  1  0  0  0  0
 11 12  1  0  0  0  0
 12 13  1  0  0  0  0
 12 14  2  0  0  0  0
 14 15  1  0  0  0  0
 16 11  1  0  0  0  0
 17 16  1  0  0  0  0
 18 17  1  0  0  0  0
 19 17  1  0  0  0  0
 20 17  1  0  0  0  0
M  END
