1,5
 OpenBabel05122313053D

 17 16  0  0  1  0  0  0  0  0999 V2000
   -3.1313   -0.7312   -0.1587 O   0  0  0  0  0  1  0  0  0  0  0  0
   -5.1952    0.1886   -0.0698 N   0  0  0  0  0  0  0  0  0  0  0  0
   -3.8446    0.3027   -0.0050 C   0  0  1  0  0  3  0  0  0  0  0  0
   -3.1460    1.6126    0.2765 C   0  0  0  0  0  0  0  0  0  0  0  0
   -1.7008    1.5676   -0.2641 C   0  0  0  0  0  3  0  0  0  0  0  0
   -5.8001   -1.1103   -0.3394 C   0  0  0  0  0  0  0  0  0  0  0  0
   -6.1248    1.2751    0.1800 C   0  0  0  0  0  0  0  0  0  0  0  0
   -3.1322    1.7201    1.3849 H   0  0  0  0  0  0  0  0  0  0  0  0
   -3.7133    2.4847   -0.1134 H   0  0  0  0  0  0  0  0  0  0  0  0
   -1.0914    2.3310    0.2571 H   0  0  0  0  0  0  0  0  0  0  0  0
   -1.6994    1.8315   -1.3464 H   0  0  0  0  0  0  0  0  0  0  0  0
   -5.0003   -1.8446   -0.5366 H   0  0  0  0  0  0  0  0  0  0  0  0
   -6.4725   -1.0402   -1.2201 H   0  0  0  0  0  0  0  0  0  0  0  0
   -6.3999   -1.4466    0.5331 H   0  0  0  0  0  0  0  0  0  0  0  0
   -5.5921    2.2081    0.4259 H   0  0  0  0  0  0  0  0  0  0  0  0
   -6.7925    1.0209    1.0316 H   0  0  0  0  0  0  0  0  0  0  0  0
   -6.7652    1.4555   -0.7106 H   0  0  0  0  0  0  0  0  0  0  0  0
  2  3  1  0  0  0  0
  2  7  1  0  0  0  0
  3  1  1  1  0  0  0
  3  4  1  0  0  0  0
  4  8  1  0  0  0  0
  5 10  1  0  0  0  0
  5  4  1  0  0  0  0
  6  2  1  0  0  0  0
  6 14  1  0  0  0  0
  7 15  1  0  0  0  0
  7 16  1  0  0  0  0
  9  4  1  0  0  0  0
 11  5  1  0  0  0  0
 12  6  1  0  0  0  0
 13  6  1  0  0  0  0
 17  7  1  0  0  0  0
M  END
