2,7
 OpenBabel05122313053D

 63 67  0  0  1  0  0  0  0  0999 V2000
    2.4665   -0.7801   -1.8691 S   0  0  0  0  0  0  0  0  0  0  0  0
    2.0026   -2.1319   -1.2945 O   0  0  0  0  0  1  0  0  0  0  0  0
    1.3137    0.0225   -2.3950 O   0  0  0  0  0  1  0  0  0  0  0  0
    3.6384   -0.9318   -2.7555 O   0  0  0  0  0  1  0  0  0  0  0  0
   -1.2241    0.3550   -0.0377 N   0  0  0  0  0  0  0  0  0  0  0  0
    0.8509    0.8632    0.4134 N   0  0  0  0  0  0  0  0  0  0  0  0
    0.0065   -0.1486    0.1141 C   0  0  0  0  0  2  0  0  0  0  0  0
   -1.2587    1.8463    0.0081 C   0  0  2  0  0  0  0  0  0  0  0  0
   -1.3299    2.2102   -1.0384 H   0  0  0  0  0  0  0  0  0  0  0  0
    0.1526    2.1760    0.5557 C   0  0  2  0  0  0  0  0  0  0  0  0
    0.0853    2.4245    1.6369 H   0  0  0  0  0  0  0  0  0  0  0  0
   -2.3691   -0.4305   -0.3994 C   0  0  0  0  0  0  0  0  0  0  0  0
   -3.0241   -1.1813    0.6051 C   0  0  0  0  0  0  0  0  0  0  0  0
   -4.1482   -1.9363    0.2354 C   0  0  0  0  0  0  0  0  0  0  0  0
   -4.6620   -2.5311    1.0075 H   0  0  0  0  0  0  0  0  0  0  0  0
   -4.6232   -1.9662   -1.0888 C   0  0  0  0  0  0  0  0  0  0  0  0
   -3.9336   -1.2192   -2.0594 C   0  0  0  0  0  0  0  0  0  0  0  0
   -4.2746   -1.2504   -3.1067 H   0  0  0  0  0  0  0  0  0  0  0  0
   -2.7985   -0.4488   -1.7465 C   0  0  0  0  0  0  0  0  0  0  0  0
   -2.4911   -1.2307    2.0123 C   0  0  0  0  0  0  0  0  0  0  0  0
   -1.5330   -1.7933    2.0462 H   0  0  0  0  0  0  0  0  0  0  0  0
   -3.2033   -1.7407    2.6877 H   0  0  0  0  0  0  0  0  0  0  0  0
   -2.2925   -0.2178    2.4133 H   0  0  0  0  0  0  0  0  0  0  0  0
   -5.8057   -2.8240   -1.4608 C   0  0  0  0  0  0  0  0  0  0  0  0
   -6.2560   -2.5086   -2.4219 H   0  0  0  0  0  0  0  0  0  0  0  0
   -6.5930   -2.7942   -0.6810 H   0  0  0  0  0  0  0  0  0  0  0  0
   -5.4991   -3.8864   -1.5710 H   0  0  0  0  0  0  0  0  0  0  0  0
   -2.0424    0.2808   -2.8267 C   0  0  0  0  0  0  0  0  0  0  0  0
   -2.3548   -0.0746   -3.8266 H   0  0  0  0  0  0  0  0  0  0  0  0
   -0.9457    0.1341   -2.7338 H   0  0  0  0  0  0  0  0  0  0  0  0
   -2.2315    1.3763   -2.8023 H   0  0  0  0  0  0  0  0  0  0  0  0
   -2.4381    2.3882    0.7847 C   0  0  0  0  0  0  0  0  0  0  0  0
   -2.4645    2.4175    2.1932 C   0  0  0  0  0  0  0  0  0  0  0  0
   -1.5919    2.0747    2.7708 H   0  0  0  0  0  0  0  0  0  0  0  0
   -3.5983    2.8778    2.8779 C   0  0  0  0  0  0  0  0  0  0  0  0
   -3.6022    2.8955    3.9783 H   0  0  0  0  0  0  0  0  0  0  0  0
   -4.7253    3.3126    2.1624 C   0  0  0  0  0  0  0  0  0  0  0  0
   -5.6152    3.6733    2.7000 H   0  0  0  0  0  0  0  0  0  0  0  0
   -4.7103    3.2870    0.7597 C   0  0  0  0  0  0  0  0  0  0  0  0
   -5.5889    3.6263    0.1908 H   0  0  0  0  0  0  0  0  0  0  0  0
   -3.5736    2.8285    0.0785 C   0  0  0  0  0  0  0  0  0  0  0  0
   -3.5637    2.8059   -1.0222 H   0  0  0  0  0  0  0  0  0  0  0  0
    0.8300    3.3206   -0.1619 C   0  0  0  0  0  0  0  0  0  0  0  0
    1.3758    3.1417   -1.4495 C   0  0  0  0  0  0  0  0  0  0  0  0
    1.3637    2.1439   -1.9220 H   0  0  0  0  0  0  0  0  0  0  0  0
    1.9603    4.2299   -2.1130 C   0  0  0  0  0  0  0  0  0  0  0  0
    2.3963    4.0811   -3.1125 H   0  0  0  0  0  0  0  0  0  0  0  0
    1.9966    5.4979   -1.5092 C   0  0  0  0  0  0  0  0  0  0  0  0
    2.4569    6.3477   -2.0359 H   0  0  0  0  0  0  0  0  0  0  0  0
    1.4502    5.6774   -0.2292 C   0  0  0  0  0  0  0  0  0  0  0  0
    1.4778    6.6672    0.2514 H   0  0  0  0  0  0  0  0  0  0  0  0
    0.8734    4.5894    0.4436 C   0  0  0  0  0  0  0  0  0  0  0  0
    0.4479    4.7262    1.4509 H   0  0  0  0  0  0  0  0  0  0  0  0
    2.2604    0.7814    0.5430 C   0  0  0  0  0  0  0  0  0  0  0  0
    2.8690    1.4782    1.6089 C   0  0  0  0  0  0  0  0  0  0  0  0
    2.2365    2.0238    2.3237 H   0  0  0  0  0  0  0  0  0  0  0  0
    4.2593    1.4871    1.7634 C   0  0  0  0  0  0  0  0  0  0  0  0
    4.7096    2.0370    2.6031 H   0  0  0  0  0  0  0  0  0  0  0  0
    5.0696    0.7996    0.8455 C   0  0  0  0  0  0  0  0  0  0  0  0
    6.1643    0.8078    0.9526 H   0  0  0  0  0  0  0  0  0  0  0  0
    4.4760    0.1171   -0.2234 C   0  0  0  0  0  0  0  0  0  0  0  0
    5.0791   -0.3982   -0.9854 H   0  0  0  0  0  0  0  0  0  0  0  0
    3.0805    0.1022   -0.3888 C   0  0  0  0  0  0  0  0  0  0  0  0
  1  2  1  0  0  0  0
  1 63  1  0  0  0  0
  3  1  1  0  0  0  0
  4  1  1  0  0  0  0
  5  8  1  0  0  0  0
  5  7  1  0  0  0  0
  6 54  1  0  0  0  0
  6 10  1  0  0  0  0
  7  6  1  0  0  0  0
  8  9  1  6  0  0  0
  8 10  1  0  0  0  0
  8 32  1  0  0  0  0
 10 11  1  1  0  0  0
 12  5  1  0  0  0  0
 12 13  1  0  0  0  0
 13 20  1  0  0  0  0
 14 13  2  0  0  0  0
 14 15  1  0  0  0  0
 16 14  1  0  0  0  0
 17 19  1  0  0  0  0
 17 16  2  0  0  0  0
 18 17  1  0  0  0  0
 19 12  2  0  0  0  0
 20 21  1  0  0  0  0
 20 23  1  0  0  0  0
 20 22  1  0  0  0  0
 24 16  1  0  0  0  0
 24 26  1  0  0  0  0
 25 24  1  0  0  0  0
 27 24  1  0  0  0  0
 28 31  1  0  0  0  0
 28 30  1  0  0  0  0
 28 19  1  0  0  0  0
 29 28  1  0  0  0  0
 32 33  1  0  0  0  0
 33 34  1  0  0  0  0
 33 35  2  0  0  0  0
 35 36  1  0  0  0  0
 37 38  1  0  0  0  0
 37 35  1  0  0  0  0
 39 37  2  0  0  0  0
 40 39  1  0  0  0  0
 41 39  1  0  0  0  0
 41 32  2  0  0  0  0
 42 41  1  0  0  0  0
 43 52  1  0  0  0  0
 43 10  1  0  0  0  0
 44 43  2  0  0  0  0
 45 44  1  0  0  0  0
 46 48  2  0  0  0  0
 46 44  1  0  0  0  0
 47 46  1  0  0  0  0
 48 50  1  0  0  0  0
 49 48  1  0  0  0  0
 50 51  1  0  0  0  0
 50 52  2  0  0  0  0
 52 53  1  0  0  0  0
 54 55  1  0  0  0  0
 55 57  2  0  0  0  0
 55 56  1  0  0  0  0
 57 58  1  0  0  0  0
 59 60  1  0  0  0  0
 59 57  1  0  0  0  0
 61 59  2  0  0  0  0
 62 61  1  0  0  0  0
 63 61  1  0  0  0  0
 63 54  2  0  0  0  0
M  END
