2,18
 OpenBabel05122313053D

 20 19  0  0  1  0  0  0  0  0999 V2000
   -4.2841    1.6884   -1.2744 O   0  0  0  0  0  0  0  0  0  0  0  0
   -2.0962    1.4355    0.9517 O   0  0  0  0  0  1  0  0  0  0  0  0
   -6.3974    0.8820   -0.4641 C   0  0  0  0  0  0  0  0  0  0  0  0
   -6.5312    0.4822   -1.4849 H   0  0  0  0  0  0  0  0  0  0  0  0
   -7.2611    1.5218   -0.1910 H   0  0  0  0  0  0  0  0  0  0  0  0
   -6.3819    0.0411    0.2616 H   0  0  0  0  0  0  0  0  0  0  0  0
   -5.1036    1.6498   -0.3621 C   0  0  0  0  0  0  0  0  0  0  0  0
   -4.8064    2.3589    0.9543 C   0  0  0  0  0  0  0  0  0  0  0  0
   -5.7010    2.9064    1.3151 H   0  0  0  0  0  0  0  0  0  0  0  0
   -4.6030    1.5702    1.7124 H   0  0  0  0  0  0  0  0  0  0  0  0
   -3.6008    3.2818    0.8024 C   0  0  0  0  0  0  0  0  0  0  0  0
   -3.3832    3.7899    1.7687 H   0  0  0  0  0  0  0  0  0  0  0  0
   -3.7980    4.0798    0.0609 H   0  0  0  0  0  0  0  0  0  0  0  0
   -2.3448    2.5421    0.4214 C   0  0  1  0  0  3  0  0  0  0  0  0
   -1.3647    3.1165   -0.5525 C   0  0  0  0  0  0  0  0  0  0  0  0
   -1.3924    4.2298   -0.5399 H   0  0  0  0  0  0  0  0  0  0  0  0
   -1.7925    2.8306   -1.5415 H   0  0  0  0  0  0  0  0  0  0  0  0
    0.0445    2.5431   -0.3563 C   0  0  0  0  0  3  0  0  0  0  0  0
    0.5894    3.0763    0.4528 H   0  0  0  0  0  0  0  0  0  0  0  0
    0.6530    2.6243   -1.2779 H   0  0  0  0  0  0  0  0  0  0  0  0
  1  7  2  0  0  0  0
  3  7  1  0  0  0  0
  3  5  1  0  0  0  0
  3  6  1  0  0  0  0
  4  3  1  0  0  0  0
  7  8  1  0  0  0  0
  8  9  1  0  0  0  0
  8 10  1  0  0  0  0
 11  8  1  0  0  0  0
 11 12  1  0  0  0  0
 13 11  1  0  0  0  0
 14 11  1  0  0  0  0
 14  2  1  1  0  0  0
 15 16  1  0  0  0  0
 15 18  1  0  0  0  0
 15 14  1  0  0  0  0
 17 15  1  0  0  0  0
 18 19  1  0  0  0  0
 20 18  1  0  0  0  0
M  END
