1,2
 OpenBabel05122313053D

 35 36  0  0  1  0  0  0  0  0999 V2000
    0.9629    1.1864   -0.0002 O   0  5  0  0  0  0  0  0  0  0  0  0
    0.2710   -1.2955    0.0011 C   0  0  1  0  0  3  0  0  0  0  0  0
   -0.5667   -1.2655    1.1671 C   0  0  0  0  0  0  0  0  0  0  0  0
   -1.9309   -1.2243    0.7194 C   0  0  0  0  0  0  0  0  0  0  0  0
   -1.9310   -1.2256   -0.7170 C   0  0  0  0  0  0  0  0  0  0  0  0
   -0.5668   -1.2678   -1.1648 C   0  0  0  0  0  0  0  0  0  0  0  0
    1.7304   -1.0367    0.0009 C   0  0  0  0  0  0  0  0  0  0  0  0
    2.0280    0.3493    0.0001 C   0  0  0  0  0  0  0  0  0  0  0  0
    3.3558    0.8327   -0.0003 C   0  0  0  0  0  0  0  0  0  0  0  0
    4.3787   -0.1359    0.0001 C   0  0  0  0  0  0  0  0  0  0  0  0
    5.4253    0.2078   -0.0002 H   0  0  0  0  0  0  0  0  0  0  0  0
    4.1025   -1.5140    0.0009 C   0  0  0  0  0  0  0  0  0  0  0  0
    4.9320   -2.2364    0.0012 H   0  0  0  0  0  0  0  0  0  0  0  0
    2.7740   -1.9725    0.0013 C   0  0  0  0  0  0  0  0  0  0  0  0
    2.5471   -3.0490    0.0019 H   0  0  0  0  0  0  0  0  0  0  0  0
   -0.0928   -1.2651    2.5871 C   0  0  0  0  0  0  0  0  0  0  0  0
   -0.6651   -0.5449    3.2034 H   0  0  0  0  0  0  0  0  0  0  0  0
    0.9802   -0.9988    2.6451 H   0  0  0  0  0  0  0  0  0  0  0  0
   -0.2128   -2.2725    3.0398 H   0  0  0  0  0  0  0  0  0  0  0  0
   -3.1382   -1.2430    1.6039 C   0  0  0  0  0  0  0  0  0  0  0  0
   -2.9523   -0.7022    2.5509 H   0  0  0  0  0  0  0  0  0  0  0  0
   -3.4178   -2.2892    1.8540 H   0  0  0  0  0  0  0  0  0  0  0  0
   -4.0124   -0.7716    1.1156 H   0  0  0  0  0  0  0  0  0  0  0  0
   -3.1383   -1.2458   -1.6014 C   0  0  0  0  0  0  0  0  0  0  0  0
   -4.0128   -0.7748   -1.1133 H   0  0  0  0  0  0  0  0  0  0  0  0
   -3.4171   -2.2924   -1.8508 H   0  0  0  0  0  0  0  0  0  0  0  0
   -2.9529   -0.7055   -2.5488 H   0  0  0  0  0  0  0  0  0  0  0  0
   -0.0931   -1.2704   -2.5849 C   0  0  0  0  0  0  0  0  0  0  0  0
    0.9799   -1.0042   -2.6436 H   0  0  0  0  0  0  0  0  0  0  0  0
   -0.6656   -0.5515   -3.2026 H   0  0  0  0  0  0  0  0  0  0  0  0
   -0.2132   -2.2787   -3.0353 H   0  0  0  0  0  0  0  0  0  0  0  0
    3.6188    2.3125   -0.0011 C   0  0  0  0  0  0  0  0  0  0  0  0
    4.7036    2.5300   -0.0015 H   0  0  0  0  0  0  0  0  0  0  0  0
    3.1620    2.7991    0.8854 H   0  0  0  0  0  0  0  0  0  0  0  0
    3.1615    2.7982   -0.8880 H   0  0  0  0  0  0  0  0  0  0  0  0
  1  8  1  0  0  0  0
  2  7  1  6  0  0  0
  2  3  1  0  0  0  0
  3 16  1  0  0  0  0
  4  3  2  0  0  0  0
  4 20  1  0  0  0  0
  5  4  1  0  0  0  0
  6  5  2  0  0  0  0
  6  2  1  0  0  0  0
  7 14  1  0  0  0  0
  8  7  2  0  0  0  0
  9  8  1  0  0  0  0
  9 10  2  0  0  0  0
 10 12  1  0  0  0  0
 11 10  1  0  0  0  0
 12 13  1  0  0  0  0
 12 14  2  0  0  0  0
 14 15  1  0  0  0  0
 16 18  1  0  0  0  0
 16 19  1  0  0  0  0
 16 17  1  0  0  0  0
 20 22  1  0  0  0  0
 20 21  1  0  0  0  0
 23 20  1  0  0  0  0
 24 25  1  0  0  0  0
 24  5  1  0  0  0  0
 26 24  1  0  0  0  0
 27 24  1  0  0  0  0
 28  6  1  0  0  0  0
 29 28  1  0  0  0  0
 30 28  1  0  0  0  0
 31 28  1  0  0  0  0
 32  9  1  0  0  0  0
 32 34  1  0  0  0  0
 33 32  1  0  0  0  0
 35 32  1  0  0  0  0
M  CHG  1   1  -1
M  END
