2,5
 OpenBabel05122313053D

 17 17  0  0  0  0  0  0  0  0999 V2000
    1.0538   -0.9100    2.4047 S   0  0  0  0  0  0  0  0  0  0  0  0
   -0.0150    0.1198    1.8890 O   0  0  0  0  0  1  0  0  0  0  0  0
    0.4290   -2.2303    2.7097 O   0  0  0  0  0  1  0  0  0  0  0  0
    1.8762   -0.2956    3.4804 O   0  0  0  0  0  1  0  0  0  0  0  0
    1.5840   -0.8089   -0.3127 C   0  0  0  0  0  3  0  0  0  0  0  0
    2.1038   -1.1369    0.9567 C   0  0  0  0  0  0  0  0  0  0  0  0
    3.3969   -1.6513    1.1372 C   0  0  0  0  0  0  0  0  0  0  0  0
    3.7581   -1.8561    2.1569 H   0  0  0  0  0  0  0  0  0  0  0  0
    4.2073   -1.8713    0.0177 C   0  0  0  0  0  0  0  0  0  0  0  0
    5.2255   -2.2715    0.1470 H   0  0  0  0  0  0  0  0  0  0  0  0
    3.7304   -1.5739   -1.2791 C   0  0  0  0  0  0  0  0  0  0  0  0
    2.4318   -1.0411   -1.4198 C   0  0  0  0  0  0  0  0  0  0  0  0
    2.0816   -0.7804   -2.4319 H   0  0  0  0  0  0  0  0  0  0  0  0
    4.5997   -1.8229   -2.4875 C   0  0  0  0  0  0  0  0  0  0  0  0
    4.1528   -1.3964   -3.4069 H   0  0  0  0  0  0  0  0  0  0  0  0
    4.7465   -2.9107   -2.6600 H   0  0  0  0  0  0  0  0  0  0  0  0
    5.6101   -1.3821   -2.3606 H   0  0  0  0  0  0  0  0  0  0  0  0
  1  3  1  0  0  0  0
  1  4  1  0  0  0  0
  2  1  1  0  0  0  0
  5  6  1  0  0  0  0
  6  7  2  0  0  0  0
  6  1  1  0  0  0  0
  7  8  1  0  0  0  0
  9 10  1  0  0  0  0
  9  7  1  0  0  0  0
 11  9  2  0  0  0  0
 12 11  1  0  0  0  0
 12  5  2  0  0  0  0
 13 12  1  0  0  0  0
 14 17  1  0  0  0  0
 14 11  1  0  0  0  0
 15 14  1  0  0  0  0
 16 14  1  0  0  0  0
M  END
