2,5
 OpenBabel05122313053D

 32 33  0  0  0  0  0  0  0  0999 V2000
   -7.5219   -3.3751    0.5398 F   0  0  0  0  0  0  0  0  0  0  0  0
   -1.7262   -0.9656   -0.0585 O   0  5  0  0  0  0  0  0  0  0  0  0
    0.4921    1.8953   -1.8655 N   0  0  0  0  0  0  0  0  0  0  0  0
   -1.5581    1.1223   -1.9652 N   0  0  0  0  0  0  0  0  0  0  0  0
   -0.3385    0.9338   -1.3049 C   0  0  0  0  0  2  0  0  0  0  0  0
   -0.1740    2.6381   -2.8235 C   0  0  0  0  0  0  0  0  0  0  0  0
    0.3107    3.4344   -3.3959 H   0  0  0  0  0  0  0  0  0  0  0  0
   -1.4572    2.1589   -2.8924 C   0  0  0  0  0  0  0  0  0  0  0  0
   -2.3018    2.4586   -3.5194 H   0  0  0  0  0  0  0  0  0  0  0  0
    1.8963    2.0639   -1.4718 C   0  0  0  0  0  0  0  0  0  0  0  0
    2.0637    1.2355   -0.7591 H   0  0  0  0  0  0  0  0  0  0  0  0
    2.1040    3.3915   -0.7399 C   0  0  0  0  0  0  0  0  0  0  0  0
    1.9330    4.2604   -1.4094 H   0  0  0  0  0  0  0  0  0  0  0  0
    3.1423    3.4553   -0.3584 H   0  0  0  0  0  0  0  0  0  0  0  0
    1.4159    3.4750    0.1243 H   0  0  0  0  0  0  0  0  0  0  0  0
    2.8352    1.8704   -2.6633 C   0  0  0  0  0  0  0  0  0  0  0  0
    2.6494    0.8934   -3.1508 H   0  0  0  0  0  0  0  0  0  0  0  0
    3.8879    1.8864   -2.3186 H   0  0  0  0  0  0  0  0  0  0  0  0
    2.7166    2.6710   -3.4232 H   0  0  0  0  0  0  0  0  0  0  0  0
   -2.7386    0.4273   -1.6850 C   0  0  0  0  0  0  0  0  0  0  0  0
   -3.6229    0.7733   -2.2309 H   0  0  0  0  0  0  0  0  0  0  0  0
   -2.7823   -0.6005   -0.7630 C   0  0  0  0  0  0  0  0  0  0  0  0
   -4.0447   -1.3247   -0.4653 C   0  0  0  0  0  0  0  0  0  0  0  0
   -4.1205   -2.0851    0.7241 C   0  0  0  0  0  0  0  0  0  0  0  0
   -3.2341   -2.1190    1.3729 H   0  0  0  0  0  0  0  0  0  0  0  0
   -5.2872   -2.7770    1.0706 C   0  0  0  0  0  0  0  0  0  0  0  0
   -5.3545   -3.3686    1.9951 H   0  0  0  0  0  0  0  0  0  0  0  0
   -6.3936   -2.7126    0.2158 C   0  0  0  0  0  0  0  0  0  0  0  0
   -6.3495   -1.9799   -0.9782 C   0  0  0  0  0  0  0  0  0  0  0  0
   -7.2311   -1.9676   -1.6349 H   0  0  0  0  0  0  0  0  0  0  0  0
   -5.1755   -1.2963   -1.3137 C   0  0  0  0  0  0  0  0  0  0  0  0
   -5.1359   -0.7512   -2.2681 H   0  0  0  0  0  0  0  0  0  0  0  0
  3 10  1  0  0  0  0
  3  5  1  0  0  0  0
  4 20  1  0  0  0  0
  4  5  1  0  0  0  0
  6  3  1  0  0  0  0
  7  6  1  0  0  0  0
  8  6  2  0  0  0  0
  8  4  1  0  0  0  0
  9  8  1  0  0  0  0
 10 11  1  0  0  0  0
 10 12  1  0  0  0  0
 12 14  1  0  0  0  0
 12 15  1  0  0  0  0
 13 12  1  0  0  0  0
 16 18  1  0  0  0  0
 16 10  1  0  0  0  0
 17 16  1  0  0  0  0
 19 16  1  0  0  0  0
 20 22  2  0  0  0  0
 21 20  1  0  0  0  0
 22 23  1  0  0  0  0
 22  2  1  0  0  0  0
 23 24  1  0  0  0  0
 24 26  2  0  0  0  0
 24 25  1  0  0  0  0
 26 27  1  0  0  0  0
 28  1  1  0  0  0  0
 28 26  1  0  0  0  0
 29 28  2  0  0  0  0
 30 29  1  0  0  0  0
 31 29  1  0  0  0  0
 31 23  2  0  0  0  0
 32 31  1  0  0  0  0
M  CHG  1   2  -1
M  END
