1,19
 OpenBabel05122313053D

 34 37  0  0  1  0  0  0  0  0999 V2000
   -0.0241   -2.1263    0.3854 O   0  5  0  0  0  0  0  0  0  0  0  0
   -0.8976   -0.1624   -2.6605 O   0  0  0  0  0  0  0  0  0  0  0  0
   -1.3529   -2.1018    0.2488 C   0  0  0  0  0  0  0  0  0  0  0  0
   -2.0886   -3.3116    0.4593 C   0  0  0  0  0  0  0  0  0  0  0  0
   -1.5249   -4.2199    0.7188 H   0  0  0  0  0  0  0  0  0  0  0  0
   -3.4628   -3.3157    0.3405 C   0  0  0  0  0  0  0  0  0  0  0  0
   -4.0312   -4.2444    0.5076 H   0  0  0  0  0  0  0  0  0  0  0  0
   -4.1786   -2.1299   -0.0065 C   0  0  0  0  0  0  0  0  0  0  0  0
   -5.5945   -2.1346   -0.1473 C   0  0  0  0  0  0  0  0  0  0  0  0
   -6.1330   -3.0792    0.0311 H   0  0  0  0  0  0  0  0  0  0  0  0
   -6.2883   -0.9872   -0.5063 C   0  0  0  0  0  0  0  0  0  0  0  0
   -7.3833   -1.0078   -0.6131 H   0  0  0  0  0  0  0  0  0  0  0  0
   -5.5711    0.2126   -0.7439 C   0  0  0  0  0  0  0  0  0  0  0  0
   -6.1129    1.1240   -1.0404 H   0  0  0  0  0  0  0  0  0  0  0  0
   -4.1893    0.2531   -0.6107 C   0  0  0  0  0  0  0  0  0  0  0  0
   -3.6649    1.1958   -0.8096 H   0  0  0  0  0  0  0  0  0  0  0  0
   -3.4427   -0.9035   -0.2310 C   0  0  0  0  0  0  0  0  0  0  0  0
   -2.0170   -0.9140   -0.0781 C   0  0  0  0  0  0  0  0  0  0  0  0
   -1.1806    0.3500   -0.3132 C   0  0  1  0  0  3  0  0  0  0  0  0
   -1.1270    0.7005   -1.8115 C   0  0  0  0  0  0  0  0  0  0  0  0
   -1.3837    2.1001   -2.1929 C   0  0  0  0  0  0  0  0  0  0  0  0
   -1.3429    2.3153   -3.2710 H   0  0  0  0  0  0  0  0  0  0  0  0
   -1.6982    3.0574   -1.2756 C   0  0  0  0  0  0  0  0  0  0  0  0
   -1.9093    4.0886   -1.6056 H   0  0  0  0  0  0  0  0  0  0  0  0
   -1.7766    2.7859    0.1514 C   0  0  0  0  0  0  0  0  0  0  0  0
   -2.1191    3.8109    1.0657 C   0  0  0  0  0  0  0  0  0  0  0  0
   -2.3055    4.8256    0.6797 H   0  0  0  0  0  0  0  0  0  0  0  0
   -2.2302    3.5438    2.4319 C   0  0  0  0  0  0  0  0  0  0  0  0
   -2.4971    4.3483    3.1333 H   0  0  0  0  0  0  0  0  0  0  0  0
   -2.0101    2.2350    2.9025 C   0  0  0  0  0  0  0  0  0  0  0  0
   -2.1057    2.0127    3.9760 H   0  0  0  0  0  0  0  0  0  0  0  0
   -1.6766    1.2108    2.0095 C   0  0  0  0  0  0  0  0  0  0  0  0
   -1.5207    0.1835    2.3729 H   0  0  0  0  0  0  0  0  0  0  0  0
   -1.5373    1.4640    0.6301 C   0  0  0  0  0  0  0  0  0  0  0  0
  2 20  2  0  0  0  0
  3  1  1  0  0  0  0
  3  4  1  0  0  0  0
  4  5  1  0  0  0  0
  6  4  2  0  0  0  0
  6  7  1  0  0  0  0
  8  6  1  0  0  0  0
  9  8  1  0  0  0  0
  9 10  1  0  0  0  0
 11  9  2  0  0  0  0
 12 11  1  0  0  0  0
 13 15  2  0  0  0  0
 13 11  1  0  0  0  0
 14 13  1  0  0  0  0
 15 17  1  0  0  0  0
 16 15  1  0  0  0  0
 17 18  1  0  0  0  0
 17  8  2  0  0  0  0
 18  3  2  0  0  0  0
 19 18  1  6  0  0  0
 19 34  1  0  0  0  0
 20 19  1  0  0  0  0
 21 20  1  0  0  0  0
 21 23  2  0  0  0  0
 22 21  1  0  0  0  0
 23 25  1  0  0  0  0
 24 23  1  0  0  0  0
 25 34  2  0  0  0  0
 25 26  1  0  0  0  0
 26 28  2  0  0  0  0
 27 26  1  0  0  0  0
 28 30  1  0  0  0  0
 28 29  1  0  0  0  0
 30 31  1  0  0  0  0
 32 33  1  0  0  0  0
 32 30  2  0  0  0  0
 34 32  1  0  0  0  0
M  CHG  1   1  -1
M  END
