1,14
 OpenBabel05122313053D

 28 29  0  0  0  0  0  0  0  0999 V2000
    1.1828    0.1160    1.2076 O   0  5  0  0  0  0  0  0  0  0  0  0
    2.1193    1.1517   -2.6031 O   0  0  0  0  0  0  0  0  0  0  0  0
    1.9190    1.1877    0.9976 C   0  0  0  0  0  0  0  0  0  0  0  0
    2.6005    1.7760    2.1065 C   0  0  0  0  0  0  0  0  0  0  0  0
    2.4159    1.3460    3.1030 H   0  0  0  0  0  0  0  0  0  0  0  0
    3.5032    2.8239    1.9306 C   0  0  0  0  0  0  0  0  0  0  0  0
    4.0179    3.2454    2.8090 H   0  0  0  0  0  0  0  0  0  0  0  0
    3.7736    3.3364    0.6435 C   0  0  0  0  0  0  0  0  0  0  0  0
    4.4929    4.1572    0.5075 H   0  0  0  0  0  0  0  0  0  0  0  0
    3.1082    2.7856   -0.4530 C   0  0  0  0  0  0  0  0  0  0  0  0
    3.2975    3.1481   -1.4750 H   0  0  0  0  0  0  0  0  0  0  0  0
    2.1557    1.7531   -0.3003 C   0  0  0  0  0  0  0  0  0  0  0  0
    1.4922    1.2406   -1.5310 C   0  0  0  0  0  0  0  0  0  0  0  0
    0.0593    0.8678   -1.4940 C   0  0  0  0  0  3  0  0  0  0  0  0
   -0.3086    0.5627   -2.4874 H   0  0  0  0  0  0  0  0  0  0  0  0
   -0.8595    1.2616   -0.4920 C   0  0  0  0  0  3  0  0  0  0  0  0
   -0.4536    1.8387    0.3564 H   0  0  0  0  0  0  0  0  0  0  0  0
   -2.3133    1.3949   -0.6647 C   0  0  0  0  0  0  0  0  0  0  0  0
   -3.0110    0.9547   -1.8175 C   0  0  0  0  0  0  0  0  0  0  0  0
   -2.4513    0.5258   -2.6603 H   0  0  0  0  0  0  0  0  0  0  0  0
   -4.4039    1.0710   -1.9082 C   0  0  0  0  0  0  0  0  0  0  0  0
   -4.9184    0.7194   -2.8157 H   0  0  0  0  0  0  0  0  0  0  0  0
   -5.1448    1.6381   -0.8575 C   0  0  0  0  0  0  0  0  0  0  0  0
   -6.2390    1.7266   -0.9326 H   0  0  0  0  0  0  0  0  0  0  0  0
   -4.4690    2.1123    0.2793 C   0  0  0  0  0  0  0  0  0  0  0  0
   -5.0311    2.5850    1.0994 H   0  0  0  0  0  0  0  0  0  0  0  0
   -3.0763    1.9964    0.3681 C   0  0  0  0  0  0  0  0  0  0  0  0
   -2.5514    2.3945    1.2509 H   0  0  0  0  0  0  0  0  0  0  0  0
  2 13  2  0  0  0  0
  3  1  1  0  0  0  0
  3  4  1  0  0  0  0
  4  5  1  0  0  0  0
  6  4  2  0  0  0  0
  6  7  1  0  0  0  0
  8  6  1  0  0  0  0
  9  8  1  0  0  0  0
 10 12  1  0  0  0  0
 10  8  2  0  0  0  0
 11 10  1  0  0  0  0
 12  3  2  0  0  0  0
 13 14  1  0  0  0  0
 13 12  1  0  0  0  0
 14 16  1  0  0  0  0
 15 14  1  0  0  0  0
 16 17  1  0  0  0  0
 18 16  1  0  0  0  0
 18 27  1  0  0  0  0
 19 18  2  0  0  0  0
 20 19  1  0  0  0  0
 21 19  1  0  0  0  0
 21 23  2  0  0  0  0
 22 21  1  0  0  0  0
 23 25  1  0  0  0  0
 24 23  1  0  0  0  0
 25 27  2  0  0  0  0
 25 26  1  0  0  0  0
 27 28  1  0  0  0  0
M  CHG  1   1  -1
M  END
