2,5
 OpenBabel05122313053D

 53 54  0  0  0  0  0  0  0  0999 V2000
   -1.9804   -0.2837   -0.5927 P   0  0  1  0  0  0  0  0  0  0  0  0
    0.5662    1.0217   -0.1595 O   0  0  0  0  0  1  0  0  0  0  0  0
   -0.3795    1.9945    0.2559 C   0  0  0  0  0  0  0  0  0  0  0  0
   -1.7824    1.3180    0.3660 C   0  0  0  0  0  0  0  0  0  0  0  0
    0.1986   -1.7510    0.4110 C   0  0  0  0  0  3  0  0  0  0  0  0
   -1.2011   -1.5357    0.5429 C   0  0  0  0  0  0  0  0  0  0  0  0
   -1.9544   -2.2980    1.4607 C   0  0  0  0  0  0  0  0  0  0  0  0
   -1.3311   -3.2724    2.2571 C   0  0  0  0  0  0  0  0  0  0  0  0
    0.0475   -3.4989    2.1340 C   0  0  0  0  0  0  0  0  0  0  0  0
    0.7980   -2.7421    1.2161 C   0  0  0  0  0  0  0  0  0  0  0  0
   -3.7800   -0.6189   -0.3300 C   0  0  0  0  0  0  0  0  0  0  0  0
   -4.3212   -1.7029   -1.0592 C   0  0  0  0  0  0  0  0  0  0  0  0
   -5.6746   -2.0461   -0.9462 C   0  0  0  0  0  0  0  0  0  0  0  0
   -6.5241   -1.2959   -0.1151 C   0  0  0  0  0  0  0  0  0  0  0  0
   -6.0046   -0.2100    0.6047 C   0  0  0  0  0  0  0  0  0  0  0  0
   -4.6433    0.1229    0.5041 C   0  0  0  0  0  0  0  0  0  0  0  0
    0.0612    2.4356    1.7399 C   0  0  0  0  0  0  0  0  0  0  0  0
    1.4194    3.1608    1.7664 C   0  0  0  0  0  0  0  0  0  0  0  0
   -0.9797    3.3287    2.4509 C   0  0  0  0  0  0  0  0  0  0  0  0
    0.2202    1.1606    2.6045 C   0  0  0  0  0  0  0  0  0  0  0  0
   -0.3922    3.1075   -0.9039 C   0  0  0  0  0  0  0  0  0  0  0  0
   -1.0629    2.5074   -2.1633 C   0  0  0  0  0  0  0  0  0  0  0  0
    1.0332    3.5225   -1.3322 C   0  0  0  0  0  0  0  0  0  0  0  0
   -1.1762    4.3777   -0.5299 C   0  0  0  0  0  0  0  0  0  0  0  0
   -2.0284    1.0982    1.4197 H   0  0  0  0  0  0  0  0  0  0  0  0
   -2.5700    2.0029   -0.0044 H   0  0  0  0  0  0  0  0  0  0  0  0
   -3.0383   -2.1302    1.5557 H   0  0  0  0  0  0  0  0  0  0  0  0
   -1.9290   -3.8584    2.9724 H   0  0  0  0  0  0  0  0  0  0  0  0
    0.5407   -4.2694    2.7476 H   0  0  0  0  0  0  0  0  0  0  0  0
    1.8782   -2.9414    1.1311 H   0  0  0  0  0  0  0  0  0  0  0  0
   -3.6619   -2.2844   -1.7243 H   0  0  0  0  0  0  0  0  0  0  0  0
   -6.0728   -2.8983   -1.5182 H   0  0  0  0  0  0  0  0  0  0  0  0
   -7.5902   -1.5564   -0.0324 H   0  0  0  0  0  0  0  0  0  0  0  0
   -6.6625    0.3830    1.2588 H   0  0  0  0  0  0  0  0  0  0  0  0
   -4.2586    0.9673    1.0940 H   0  0  0  0  0  0  0  0  0  0  0  0
    1.7685    3.2469    2.8157 H   0  0  0  0  0  0  0  0  0  0  0  0
    2.1902    2.6011    1.2037 H   0  0  0  0  0  0  0  0  0  0  0  0
    1.3581    4.1887    1.3621 H   0  0  0  0  0  0  0  0  0  0  0  0
   -0.6773    3.4493    3.5112 H   0  0  0  0  0  0  0  0  0  0  0  0
   -1.0536    4.3411    2.0184 H   0  0  0  0  0  0  0  0  0  0  0  0
   -1.9934    2.8825    2.4541 H   0  0  0  0  0  0  0  0  0  0  0  0
    0.5212    1.4552    3.6297 H   0  0  0  0  0  0  0  0  0  0  0  0
   -0.7109    0.5687    2.6923 H   0  0  0  0  0  0  0  0  0  0  0  0
    0.9950    0.4838    2.2044 H   0  0  0  0  0  0  0  0  0  0  0  0
   -0.9417    3.2114   -3.0112 H   0  0  0  0  0  0  0  0  0  0  0  0
   -0.6068    1.5425   -2.4475 H   0  0  0  0  0  0  0  0  0  0  0  0
   -2.1498    2.3387   -2.0362 H   0  0  0  0  0  0  0  0  0  0  0  0
    0.9705    4.1291   -2.2583 H   0  0  0  0  0  0  0  0  0  0  0  0
    1.5531    4.1352   -0.5768 H   0  0  0  0  0  0  0  0  0  0  0  0
    1.6620    2.6386   -1.5472 H   0  0  0  0  0  0  0  0  0  0  0  0
   -1.3130    4.9993   -1.4386 H   0  0  0  0  0  0  0  0  0  0  0  0
   -2.1864    4.1533   -0.1324 H   0  0  0  0  0  0  0  0  0  0  0  0
   -0.6420    5.0010    0.2117 H   0  0  0  0  0  0  0  0  0  0  0  0
  1 11  1  0  0  0  0
  1  4  1  1  0  0  0
  1  6  1  0  0  0  0
  2  3  1  0  0  0  0
  3  4  1  0  0  0  0
  3 17  1  0  0  0  0
  4 25  1  0  0  0  0
  5  6  2  0  0  0  0
  5 10  1  0  0  0  0
  6  7  1  0  0  0  0
  7 27  1  0  0  0  0
  7  8  2  0  0  0  0
  8 28  1  0  0  0  0
  9  8  1  0  0  0  0
  9 29  1  0  0  0  0
 10  9  2  0  0  0  0
 11 16  1  0  0  0  0
 12 13  1  0  0  0  0
 12 11  2  0  0  0  0
 13 14  2  0  0  0  0
 14 33  1  0  0  0  0
 14 15  1  0  0  0  0
 15 34  1  0  0  0  0
 16 15  2  0  0  0  0
 16 35  1  0  0  0  0
 17 18  1  0  0  0  0
 17 19  1  0  0  0  0
 17 20  1  0  0  0  0
 18 36  1  0  0  0  0
 19 41  1  0  0  0  0
 19 39  1  0  0  0  0
 20 43  1  0  0  0  0
 20 42  1  0  0  0  0
 21 24  1  0  0  0  0
 21  3  1  0  0  0  0
 22 47  1  0  0  0  0
 22 21  1  0  0  0  0
 23 21  1  0  0  0  0
 23 49  1  0  0  0  0
 24 52  1  0  0  0  0
 24 53  1  0  0  0  0
 26  4  1  0  0  0  0
 30 10  1  0  0  0  0
 31 12  1  0  0  0  0
 32 13  1  0  0  0  0
 37 18  1  0  0  0  0
 38 18  1  0  0  0  0
 40 19  1  0  0  0  0
 44 20  1  0  0  0  0
 45 22  1  0  0  0  0
 46 22  1  0  0  0  0
 48 23  1  0  0  0  0
 50 23  1  0  0  0  0
 51 24  1  0  0  0  0
M  END
