3,4
 OpenBabel05122313053D

 38 37  0  0  0  0  0  0  0  0999 V2000
   -0.8535    2.2980   -0.0256 Si  0  0  0  0  0  0  0  0  0  0  0  0
   -3.4046   -0.3715   -0.0454 Si  0  0  0  0  0  0  0  0  0  0  0  0
    0.4651   -1.9981    0.0329 O   0  0  0  0  0  1  0  0  0  0  0  0
   -0.5536    0.4260   -0.0105 C   0  0  0  0  0  3  0  0  0  0  0  0
   -1.4874   -0.5840    0.0654 C   0  0  0  0  0  0  0  0  0  0  0  0
   -2.1381    2.9465   -1.2790 C   0  0  0  0  0  0  0  0  0  0  0  0
    0.6854    3.3032   -0.5537 C   0  0  0  0  0  0  0  0  0  0  0  0
   -1.2332    2.9070    1.7407 C   0  0  0  0  0  0  0  0  0  0  0  0
   -4.1050    1.0438    1.0127 C   0  0  0  0  0  0  0  0  0  0  0  0
   -3.8587   -0.1581   -1.8787 C   0  0  0  0  0  0  0  0  0  0  0  0
   -4.4485   -1.8424    0.5827 C   0  0  0  0  0  0  0  0  0  0  0  0
   -0.9535   -2.0417    0.1378 C   0  0  0  0  0  0  0  0  0  0  0  0
   -1.4593   -2.8968   -1.0402 C   0  0  0  0  0  0  0  0  0  0  0  0
   -1.2888   -2.6993    1.4896 C   0  0  0  0  0  0  0  0  0  0  0  0
   -2.1402    4.0564   -1.2400 H   0  0  0  0  0  0  0  0  0  0  0  0
   -1.8318    2.6539   -2.3052 H   0  0  0  0  0  0  0  0  0  0  0  0
   -3.1753    2.5986   -1.1276 H   0  0  0  0  0  0  0  0  0  0  0  0
    0.4844    4.3663   -0.3024 H   0  0  0  0  0  0  0  0  0  0  0  0
    1.6251    3.0179   -0.0444 H   0  0  0  0  0  0  0  0  0  0  0  0
    0.8619    3.2576   -1.6468 H   0  0  0  0  0  0  0  0  0  0  0  0
   -0.3233    2.8488    2.3719 H   0  0  0  0  0  0  0  0  0  0  0  0
   -1.5588    3.9682    1.7245 H   0  0  0  0  0  0  0  0  0  0  0  0
   -2.0202    2.3105    2.2378 H   0  0  0  0  0  0  0  0  0  0  0  0
   -5.2077    1.0474    0.8824 H   0  0  0  0  0  0  0  0  0  0  0  0
   -3.8998    0.8468    2.0851 H   0  0  0  0  0  0  0  0  0  0  0  0
   -3.7358    2.0560    0.7755 H   0  0  0  0  0  0  0  0  0  0  0  0
   -4.9339    0.0916   -1.9962 H   0  0  0  0  0  0  0  0  0  0  0  0
   -3.2608    0.6350   -2.3659 H   0  0  0  0  0  0  0  0  0  0  0  0
   -3.6686   -1.1051   -2.4243 H   0  0  0  0  0  0  0  0  0  0  0  0
   -5.5088   -1.6062    0.3503 H   0  0  0  0  0  0  0  0  0  0  0  0
   -4.2210   -2.8190    0.1138 H   0  0  0  0  0  0  0  0  0  0  0  0
   -4.3762   -1.9613    1.6829 H   0  0  0  0  0  0  0  0  0  0  0  0
   -0.9736   -3.8924   -1.0062 H   0  0  0  0  0  0  0  0  0  0  0  0
   -2.5547   -3.0464   -1.0154 H   0  0  0  0  0  0  0  0  0  0  0  0
   -1.1987   -2.4102   -2.0005 H   0  0  0  0  0  0  0  0  0  0  0  0
   -0.7950   -3.6904    1.5462 H   0  0  0  0  0  0  0  0  0  0  0  0
   -0.9092   -2.0699    2.3184 H   0  0  0  0  0  0  0  0  0  0  0  0
   -2.3746   -2.8431    1.6306 H   0  0  0  0  0  0  0  0  0  0  0  0
  1  4  1  0  0  0  0
  1  8  1  0  0  0  0
  2  5  1  0  0  0  0
  2 11  1  0  0  0  0
  2  9  1  0  0  0  0
  3 12  1  0  0  0  0
  4  5  2  0  0  0  0
  5 12  1  0  0  0  0
  6 15  1  0  0  0  0
  6 17  1  0  0  0  0
  6  1  1  0  0  0  0
  7 18  1  0  0  0  0
  7 19  1  0  0  0  0
  7  1  1  0  0  0  0
  8 23  1  0  0  0  0
  8 21  1  0  0  0  0
  9 25  1  0  0  0  0
 10  2  1  0  0  0  0
 11 32  1  0  0  0  0
 12 14  1  0  0  0  0
 13 34  1  0  0  0  0
 13 33  1  0  0  0  0
 13 12  1  0  0  0  0
 14 36  1  0  0  0  0
 14 38  1  0  0  0  0
 14 37  1  0  0  0  0
 16  6  1  0  0  0  0
 20  7  1  0  0  0  0
 22  8  1  0  0  0  0
 24  9  1  0  0  0  0
 26  9  1  0  0  0  0
 27 10  1  0  0  0  0
 28 10  1  0  0  0  0
 29 10  1  0  0  0  0
 30 11  1  0  0  0  0
 31 11  1  0  0  0  0
 35 13  1  0  0  0  0
M  END
