11,13
 OpenBabel05122313053D

 22 23  0  0  0  0  0  0  0  0999 V2000
   -5.1436    1.9310   -0.4176 C   0  0  0  0  0  0  0  0  0  0  0  0
   -5.4861    2.9742   -0.5047 H   0  0  0  0  0  0  0  0  0  0  0  0
   -3.3119    0.2927   -0.4635 C   0  0  0  0  0  0  0  0  0  0  0  0
   -5.6543   -0.4150   -0.0613 C   0  0  0  0  0  0  0  0  0  0  0  0
   -6.3764   -1.2250    0.1318 H   0  0  0  0  0  0  0  0  0  0  0  0
   -3.7970    1.6334   -0.5734 C   0  0  0  0  0  0  0  0  0  0  0  0
   -3.0840    2.4429   -0.7905 H   0  0  0  0  0  0  0  0  0  0  0  0
   -4.2806   -0.7578   -0.2119 C   0  0  0  0  0  0  0  0  0  0  0  0
   -6.0867    0.9010   -0.1556 C   0  0  0  0  0  0  0  0  0  0  0  0
   -7.1527    1.1468   -0.0357 H   0  0  0  0  0  0  0  0  0  0  0  0
   -0.2164   -1.6599   -0.3599 O   0  5  0  0  0  0  0  0  0  0  0  0
   -1.9330   -0.0536   -0.5884 C   0  0  0  0  0  0  0  0  0  0  0  0
    0.0770    0.4856   -2.0085 C   0  0  0  0  0  3  0  0  0  0  0  0
    0.5480    1.2758   -2.6152 H   0  0  0  0  0  0  0  0  0  0  0  0
   -0.1649   -0.4199   -2.5936 H   0  0  0  0  0  0  0  0  0  0  0  0
   -0.8324    0.8643   -0.9446 C   0  0  0  0  0  3  0  0  0  0  0  0
   -1.0182    1.9416   -0.7808 H   0  0  0  0  0  0  0  0  0  0  0  0
   -1.5139   -1.3953   -0.4247 C   0  0  0  0  0  0  0  0  0  0  0  0
   -3.8290   -2.1093   -0.1357 C   0  0  0  0  0  0  0  0  0  0  0  0
   -4.5731   -2.9034    0.0374 H   0  0  0  0  0  0  0  0  0  0  0  0
   -2.4856   -2.4305   -0.2552 C   0  0  0  0  0  0  0  0  0  0  0  0
   -2.1345   -3.4706   -0.1722 H   0  0  0  0  0  0  0  0  0  0  0  0
  1  9  1  0  0  0  0
  2  1  1  0  0  0  0
  3  8  1  0  0  0  0
  4  5  1  0  0  0  0
  6  3  1  0  0  0  0
  6  1  2  0  0  0  0
  7  6  1  0  0  0  0
  8 19  2  0  0  0  0
  8  4  1  0  0  0  0
  9  4  2  0  0  0  0
  9 10  1  0  0  0  0
 12  3  2  0  0  0  0
 12 18  1  0  0  0  0
 13 16  1  0  0  0  0
 14 13  1  0  0  0  0
 15 13  1  0  0  0  0
 16 17  1  0  0  0  0
 16 12  1  0  0  0  0
 18 11  1  0  0  0  0
 18 21  2  0  0  0  0
 19 20  1  0  0  0  0
 21 22  1  0  0  0  0
 21 19  1  0  0  0  0
M  CHG  1  11  -1
M  END
