1,4
 OpenBabel05122313053D

 16 15  0  0  1  0  0  0  0  0999 V2000
   -1.6669   -0.4428    0.4995 O   0  0  0  0  0  1  0  0  0  0  0  0
   -2.1899    0.6786    0.0991 C   0  0  2  0  0  3  0  0  0  0  0  0
   -1.9583    1.0046   -1.2827 C   0  0  0  0  0  3  0  0  0  0  0  0
   -1.6963   -0.1036   -2.1967 C   0  0  0  0  0  3  0  0  0  0  0  0
   -2.7563    1.5243    1.0084 N   0  0  0  0  0  0  0  0  0  0  0  0
   -2.0199    2.0462   -1.6276 H   0  0  0  0  0  0  0  0  0  0  0  0
   -1.5696    0.1668   -3.2564 H   0  0  0  0  0  0  0  0  0  0  0  0
   -2.2847   -1.0258   -2.0403 H   0  0  0  0  0  0  0  0  0  0  0  0
   -3.3845    2.7641    0.6021 C   0  0  0  0  0  0  0  0  0  0  0  0
   -2.4869    1.3540    2.4241 C   0  0  0  0  0  0  0  0  0  0  0  0
   -4.2169    3.0028    1.2962 H   0  0  0  0  0  0  0  0  0  0  0  0
   -3.8040    2.6641   -0.4159 H   0  0  0  0  0  0  0  0  0  0  0  0
   -2.6710    3.6200    0.6101 H   0  0  0  0  0  0  0  0  0  0  0  0
   -3.4325    1.3104    3.0064 H   0  0  0  0  0  0  0  0  0  0  0  0
   -1.8731    2.1978    2.8114 H   0  0  0  0  0  0  0  0  0  0  0  0
   -1.9274    0.4123    2.5621 H   0  0  0  0  0  0  0  0  0  0  0  0
  2  1  1  1  0  0  0
  2  5  1  0  0  0  0
  3  2  1  0  0  0  0
  4  8  1  0  0  0  0
  4  3  1  0  0  0  0
  5 10  1  0  0  0  0
  6  3  1  0  0  0  0
  7  4  1  0  0  0  0
  9 13  1  0  0  0  0
  9  5  1  0  0  0  0
  9 11  1  0  0  0  0
 10 16  1  0  0  0  0
 10 15  1  0  0  0  0
 10 14  1  0  0  0  0
 12  9  1  0  0  0  0
M  END
