4
 OpenBabel05122313053D

 62 65  0  0  0  0  0  0  0  0999 V2000
   -3.6549    1.6577   -0.2585 S   0  0  0  0  0  0  0  0  0  0  0  0
    0.6559   -1.0677    2.3638 S   0  0  0  0  0  0  0  0  0  0  0  0
    0.1850    2.2490    0.4625 Si  0  0  0  0  0  0  0  0  0  0  0  0
    0.7627   -0.4352   -0.9507 O   0  5  0  0  0  0  0  0  0  0  0  0
   -1.0269    0.8654    0.8673 C   0  0  0  0  0  3  0  0  0  0  0  0
   -0.7302   -0.3656    1.5608 C   0  0  0  0  0  0  0  0  0  0  0  0
   -1.8391   -1.2806    1.5437 C   0  0  0  0  0  0  0  0  0  0  0  0
   -2.9012   -0.6158    0.8325 C   0  0  0  0  0  0  0  0  0  0  0  0
   -2.4097    0.6951    0.4939 C   0  0  0  0  0  0  0  0  0  0  0  0
   -0.2556   -2.5561    2.6940 C   0  0  0  0  0  0  0  0  0  0  0  0
   -1.5413   -2.5193    2.2064 C   0  0  0  0  0  0  0  0  0  0  0  0
   -2.2343   -3.3659    2.2885 H   0  0  0  0  0  0  0  0  0  0  0  0
   -4.2532   -0.8225    0.3967 C   0  0  0  0  0  0  0  0  0  0  0  0
   -4.8107   -1.7610    0.5116 H   0  0  0  0  0  0  0  0  0  0  0  0
   -4.7886    0.2974   -0.2021 C   0  0  0  0  0  0  0  0  0  0  0  0
    1.8410    1.3825    0.1617 C   0  0  0  0  0  0  0  0  0  0  0  0
    1.9115    0.1441   -0.5302 C   0  0  0  0  0  0  0  0  0  0  0  0
    3.1564   -0.5115   -0.7778 C   0  0  0  0  0  0  0  0  0  0  0  0
    4.3112    0.1438   -0.3170 C   0  0  0  0  0  0  0  0  0  0  0  0
    5.2897   -0.3245   -0.4920 H   0  0  0  0  0  0  0  0  0  0  0  0
    4.2890    1.3728    0.3733 C   0  0  0  0  0  0  0  0  0  0  0  0
    3.0409    1.9696    0.6093 C   0  0  0  0  0  0  0  0  0  0  0  0
    3.0074    2.9235    1.1596 H   0  0  0  0  0  0  0  0  0  0  0  0
    5.5732    2.0163    0.8317 C   0  0  0  0  0  0  0  0  0  0  0  0
    6.1833    1.3180    1.4417 H   0  0  0  0  0  0  0  0  0  0  0  0
    5.3812    2.9209    1.4409 H   0  0  0  0  0  0  0  0  0  0  0  0
    6.2035    2.3202   -0.0310 H   0  0  0  0  0  0  0  0  0  0  0  0
    3.2330   -1.8847   -1.4725 C   0  0  0  0  0  0  0  0  0  0  0  0
    2.5451   -2.9410   -0.5751 C   0  0  0  0  0  0  0  0  0  0  0  0
    3.0493   -3.0000    0.4114 H   0  0  0  0  0  0  0  0  0  0  0  0
    2.6039   -3.9405   -1.0536 H   0  0  0  0  0  0  0  0  0  0  0  0
    1.4767   -2.7161   -0.4077 H   0  0  0  0  0  0  0  0  0  0  0  0
    4.6912   -2.3326   -1.6883 C   0  0  0  0  0  0  0  0  0  0  0  0
    5.2387   -2.4570   -0.7322 H   0  0  0  0  0  0  0  0  0  0  0  0
    5.2563   -1.6208   -2.3238 H   0  0  0  0  0  0  0  0  0  0  0  0
    4.6975   -3.3150   -2.2014 H   0  0  0  0  0  0  0  0  0  0  0  0
    2.5547   -1.8322   -2.8622 C   0  0  0  0  0  0  0  0  0  0  0  0
    3.0457   -1.0758   -3.5078 H   0  0  0  0  0  0  0  0  0  0  0  0
    1.4808   -1.5853   -2.7946 H   0  0  0  0  0  0  0  0  0  0  0  0
    2.6478   -2.8187   -3.3612 H   0  0  0  0  0  0  0  0  0  0  0  0
    0.2920    3.4146    1.9647 C   0  0  0  0  0  0  0  0  0  0  0  0
   -0.7462    3.4850    2.3576 H   0  0  0  0  0  0  0  0  0  0  0  0
    0.8704    2.8907    2.7568 H   0  0  0  0  0  0  0  0  0  0  0  0
    0.8479    4.8239    1.7168 C   0  0  0  0  0  0  0  0  0  0  0  0
    1.8915    4.8074    1.3409 H   0  0  0  0  0  0  0  0  0  0  0  0
    0.8456    5.4333    2.6443 H   0  0  0  0  0  0  0  0  0  0  0  0
    0.2448    5.3724    0.9647 H   0  0  0  0  0  0  0  0  0  0  0  0
   -0.4135    3.1541   -1.0971 C   0  0  0  0  0  0  0  0  0  0  0  0
   -0.8857    2.3994   -1.7614 H   0  0  0  0  0  0  0  0  0  0  0  0
   -1.2285    3.8510   -0.7980 H   0  0  0  0  0  0  0  0  0  0  0  0
    0.6939    3.9009   -1.8553 C   0  0  0  0  0  0  0  0  0  0  0  0
    1.4904    3.2034   -2.1848 H   0  0  0  0  0  0  0  0  0  0  0  0
    1.1816    4.6780   -1.2319 H   0  0  0  0  0  0  0  0  0  0  0  0
    0.2973    4.4056   -2.7602 H   0  0  0  0  0  0  0  0  0  0  0  0
   -6.1395    0.4578   -0.8219 C   0  0  0  0  0  0  0  0  0  0  0  0
   -6.7628   -0.4321   -0.6116 H   0  0  0  0  0  0  0  0  0  0  0  0
   -6.0629    0.5705   -1.9240 H   0  0  0  0  0  0  0  0  0  0  0  0
   -6.6705    1.3518   -0.4342 H   0  0  0  0  0  0  0  0  0  0  0  0
    0.4455   -3.6886    3.3729 C   0  0  0  0  0  0  0  0  0  0  0  0
    1.2504   -4.1039    2.7296 H   0  0  0  0  0  0  0  0  0  0  0  0
   -0.2709   -4.5036    3.5900 H   0  0  0  0  0  0  0  0  0  0  0  0
    0.9148   -3.3750    4.3283 H   0  0  0  0  0  0  0  0  0  0  0  0
  1 15  1  0  0  0  0
  1  9  1  0  0  0  0
  2 10  1  0  0  0  0
  3  5  1  0  0  0  0
  3 41  1  0  0  0  0
  4 17  1  0  0  0  0
  5  6  1  0  0  0  0
  6  2  1  0  0  0  0
  7  6  2  0  0  0  0
  7 11  1  0  0  0  0
  8  7  1  0  0  0  0
  9  8  2  0  0  0  0
  9  5  1  0  0  0  0
 10 59  1  0  0  0  0
 11 12  1  0  0  0  0
 11 10  2  0  0  0  0
 13 14  1  0  0  0  0
 13  8  1  0  0  0  0
 15 13  2  0  0  0  0
 16  3  1  0  0  0  0
 16 22  1  0  0  0  0
 17 16  2  0  0  0  0
 18 17  1  0  0  0  0
 18 19  2  0  0  0  0
 19 21  1  0  0  0  0
 20 19  1  0  0  0  0
 21 22  2  0  0  0  0
 21 24  1  0  0  0  0
 22 23  1  0  0  0  0
 24 26  1  0  0  0  0
 24 25  1  0  0  0  0
 27 24  1  0  0  0  0
 28 18  1  0  0  0  0
 28 29  1  0  0  0  0
 29 32  1  0  0  0  0
 29 30  1  0  0  0  0
 31 29  1  0  0  0  0
 33 28  1  0  0  0  0
 33 34  1  0  0  0  0
 35 33  1  0  0  0  0
 36 33  1  0  0  0  0
 37 39  1  0  0  0  0
 37 28  1  0  0  0  0
 38 37  1  0  0  0  0
 40 37  1  0  0  0  0
 41 42  1  0  0  0  0
 41 43  1  0  0  0  0
 44 41  1  0  0  0  0
 44 46  1  0  0  0  0
 45 44  1  0  0  0  0
 47 44  1  0  0  0  0
 48 50  1  0  0  0  0
 48  3  1  0  0  0  0
 49 48  1  0  0  0  0
 51 53  1  0  0  0  0
 51 48  1  0  0  0  0
 52 51  1  0  0  0  0
 54 51  1  0  0  0  0
 55 56  1  0  0  0  0
 55 58  1  0  0  0  0
 55 15  1  0  0  0  0
 57 55  1  0  0  0  0
 59 61  1  0  0  0  0
 59 62  1  0  0  0  0
 60 59  1  0  0  0  0
M  CHG  1   4  -1
M  END
