2,3
 OpenBabel05122313053D

 36 36  0  0  0  0  0  0  0  0999 V2000
    0.7754    2.1664   -0.1135 Si  0  0  0  0  0  0  0  0  0  0  0  0
   -0.9087   -1.9584    0.0496 O   0  0  0  0  0  1  0  0  0  0  0  0
    0.1900    0.3610   -0.0753 C   0  0  0  0  0  3  0  0  0  0  0  0
    1.0707   -0.6815   -0.0065 C   0  0  0  0  0  0  0  0  0  0  0  0
    0.4959   -2.1055    0.1418 C   0  0  0  0  0  0  0  0  0  0  0  0
    0.9643   -3.0529   -0.9778 C   0  0  0  0  0  0  0  0  0  0  0  0
    0.8607   -2.7047    1.5142 C   0  0  0  0  0  0  0  0  0  0  0  0
    1.2708    2.7300    1.6364 C   0  0  0  0  0  0  0  0  0  0  0  0
   -0.5622    3.3789   -0.7246 C   0  0  0  0  0  0  0  0  0  0  0  0
    2.2615    2.4809   -1.2578 C   0  0  0  0  0  0  0  0  0  0  0  0
    2.5620   -0.5549   -0.0159 C   0  0  0  0  0  0  0  0  0  0  0  0
    3.2727   -0.2824    1.1737 C   0  0  0  0  0  0  0  0  0  0  0  0
    4.6688   -0.1404    1.1649 C   0  0  0  0  0  0  0  0  0  0  0  0
    5.3837   -0.2812   -0.0349 C   0  0  0  0  0  0  0  0  0  0  0  0
    4.6929   -0.5703   -1.2231 C   0  0  0  0  0  0  0  0  0  0  0  0
    3.2977   -0.7088   -1.2119 C   0  0  0  0  0  0  0  0  0  0  0  0
    0.4407   -4.0249   -0.8800 H   0  0  0  0  0  0  0  0  0  0  0  0
    2.0556   -3.2320   -0.9228 H   0  0  0  0  0  0  0  0  0  0  0  0
    0.7315   -2.6287   -1.9738 H   0  0  0  0  0  0  0  0  0  0  0  0
    0.3626   -3.6877    1.6360 H   0  0  0  0  0  0  0  0  0  0  0  0
    0.5296   -2.0382    2.3336 H   0  0  0  0  0  0  0  0  0  0  0  0
    1.9549   -2.8508    1.6057 H   0  0  0  0  0  0  0  0  0  0  0  0
    0.4601    2.5946    2.3800 H   0  0  0  0  0  0  0  0  0  0  0  0
    1.5424    3.8065    1.6240 H   0  0  0  0  0  0  0  0  0  0  0  0
    2.1545    2.1626    1.9893 H   0  0  0  0  0  0  0  0  0  0  0  0
   -1.5215    3.3006   -0.1780 H   0  0  0  0  0  0  0  0  0  0  0  0
   -0.7772    3.2552   -1.8051 H   0  0  0  0  0  0  0  0  0  0  0  0
   -0.1805    4.4121   -0.5853 H   0  0  0  0  0  0  0  0  0  0  0  0
    2.1022    2.0389   -2.2626 H   0  0  0  0  0  0  0  0  0  0  0  0
    3.2018    2.0614   -0.8515 H   0  0  0  0  0  0  0  0  0  0  0  0
    2.3956    3.5760   -1.3854 H   0  0  0  0  0  0  0  0  0  0  0  0
    2.7135   -0.1742    2.1153 H   0  0  0  0  0  0  0  0  0  0  0  0
    5.2019    0.0825    2.1021 H   0  0  0  0  0  0  0  0  0  0  0  0
    6.4783   -0.1669   -0.0443 H   0  0  0  0  0  0  0  0  0  0  0  0
    5.2456   -0.6798   -2.1690 H   0  0  0  0  0  0  0  0  0  0  0  0
    2.7573   -0.9133   -2.1482 H   0  0  0  0  0  0  0  0  0  0  0  0
  1  3  1  0  0  0  0
  1  8  1  0  0  0  0
  2  5  1  0  0  0  0
  3  4  2  0  0  0  0
  4  5  1  0  0  0  0
  5  7  1  0  0  0  0
  6 18  1  0  0  0  0
  6 17  1  0  0  0  0
  6  5  1  0  0  0  0
  7 22  1  0  0  0  0
  7 20  1  0  0  0  0
  7 21  1  0  0  0  0
  8 25  1  0  0  0  0
  8 23  1  0  0  0  0
  9 28  1  0  0  0  0
  9 26  1  0  0  0  0
  9  1  1  0  0  0  0
 10 30  1  0  0  0  0
 10  1  1  0  0  0  0
 11  4  1  0  0  0  0
 11 12  1  0  0  0  0
 12 32  1  0  0  0  0
 13 12  2  0  0  0  0
 13 33  1  0  0  0  0
 14 13  1  0  0  0  0
 15 16  1  0  0  0  0
 15 14  2  0  0  0  0
 16 11  2  0  0  0  0
 19  6  1  0  0  0  0
 24  8  1  0  0  0  0
 27  9  1  0  0  0  0
 29 10  1  0  0  0  0
 31 10  1  0  0  0  0
 34 14  1  0  0  0  0
 35 15  1  0  0  0  0
 36 16  1  0  0  0  0
M  END
