1,4
q = -1.0, confidence = 0.01

 25 24  0  0  0  0  0  0  0  0999 V2000
    1.3800   -1.3876    0.3786 O   0  5  0  0  0  0  0  0  0  0  0  0
    2.6700   -1.5024    0.3319 C   0  0  0  0  0  0  0  0  0  0  0  0
    3.3910   -0.3107    0.1343 C   0  0  0  0  0  0  0  0  0  0  0  0
    2.5635    0.8381    0.0484 C   0  0  0  0  0  2  0  0  0  0  0  0
    3.2583   -2.8857    0.4859 C   0  0  0  0  0  0  0  0  0  0  0  0
    2.2294   -3.9625    0.8251 C   0  0  0  0  0  0  0  0  0  0  0  0
    4.8883   -0.3268   -0.1084 C   0  0  0  0  0  0  0  0  0  0  0  0
    5.2279   -0.5361   -1.5937 C   0  0  0  0  0  0  0  0  0  0  0  0
    3.2330    2.1984   -0.0583 C   0  0  0  0  0  0  0  0  0  0  0  0
    3.9498    2.6640    1.2227 C   0  0  0  0  0  0  0  0  0  0  0  0
    4.0575   -2.8466    1.2592 H   0  0  0  0  0  0  0  0  0  0  0  0
    3.7936   -3.1440   -0.4563 H   0  0  0  0  0  0  0  0  0  0  0  0
    2.7143   -4.9532    0.9257 H   0  0  0  0  0  0  0  0  0  0  0  0
    1.7066   -3.7314    1.7741 H   0  0  0  0  0  0  0  0  0  0  0  0
    1.4488   -4.0315    0.0423 H   0  0  0  0  0  0  0  0  0  0  0  0
    5.3576   -1.1338    0.4938 H   0  0  0  0  0  0  0  0  0  0  0  0
    5.3579    0.6118    0.2421 H   0  0  0  0  0  0  0  0  0  0  0  0
    6.3240   -0.5506   -1.7654 H   0  0  0  0  0  0  0  0  0  0  0  0
    4.8127   -1.4931   -1.9713 H   0  0  0  0  0  0  0  0  0  0  0  0
    4.7944    0.2726   -2.2171 H   0  0  0  0  0  0  0  0  0  0  0  0
    2.4877    2.9680   -0.3389 H   0  0  0  0  0  0  0  0  0  0  0  0
    3.9634    2.1737   -0.8983 H   0  0  0  0  0  0  0  0  0  0  0  0
    4.4498    3.6387    1.0491 H   0  0  0  0  0  0  0  0  0  0  0  0
    3.2350    2.7954    2.0557 H   0  0  0  0  0  0  0  0  0  0  0  0
    4.7220    1.9449    1.5586 H   0  0  0  0  0  0  0  0  0  0  0  0
  2  1  1  0  0  0  0
  2  5  1  0  0  0  0
  3  2  2  0  0  0  0
  4  3  1  0  0  0  0
  5  6  1  0  0  0  0
  5 11  1  0  0  0  0
  6 13  1  0  0  0  0
  6 14  1  0  0  0  0
  7  3  1  0  0  0  0
  7 17  1  0  0  0  0
  7 16  1  0  0  0  0
  8  7  1  0  0  0  0
  9  4  1  0  0  0  0
  9 10  1  0  0  0  0
 10 25  1  0  0  0  0
 10 24  1  0  0  0  0
 12  5  1  0  0  0  0
 15  6  1  0  0  0  0
 18  8  1  0  0  0  0
 19  8  1  0  0  0  0
 20  8  1  0  0  0  0
 21  9  1  0  0  0  0
 22  9  1  0  0  0  0
 23 10  1  0  0  0  0
M  CHG  1   1  -1
M  END
