1,7
q = -2.0, confidence = 0.966

 52 55  0  0  0  0  0  0  0  0999 V2000
    2.0127    0.0206   -0.5548 O   0  5  0  0  0  0  0  0  0  0  0  0
    0.5885    0.1269    1.5706 C   0  0  0  0  0  0  0  0  0  0  0  0
   -0.1865    1.2549    1.1564 C   0  0  0  0  0  0  0  0  0  0  0  0
    0.1666    2.2933    1.1464 H   0  0  0  0  0  0  0  0  0  0  0  0
   -1.4939    0.8196    0.7748 C   0  0  0  0  0  0  0  0  0  0  0  0
   -1.5110   -0.6208    0.8931 C   0  0  0  0  0  0  0  0  0  0  0  0
   -0.2329   -1.0285    1.4050 C   0  0  0  0  0  3  0  0  0  0  0  0
    0.0891   -2.0675    1.5435 H   0  0  0  0  0  0  0  0  0  0  0  0
    2.0568    0.1517    1.7814 C   0  0  0  0  0  0  0  0  0  0  0  0
    2.7815    0.1004    0.5625 C   0  0  0  0  0  0  0  0  0  0  0  0
    4.1980    0.1217    0.5181 C   0  0  0  0  0  0  0  0  0  0  0  0
    4.8432    0.2065    1.7701 C   0  0  0  0  0  0  0  0  0  0  0  0
    5.9409    0.2253    1.8011 H   0  0  0  0  0  0  0  0  0  0  0  0
    4.1412    0.2640    2.9858 C   0  0  0  0  0  0  0  0  0  0  0  0
    4.6994    0.3280    3.9315 H   0  0  0  0  0  0  0  0  0  0  0  0
    2.7382    0.2372    3.0010 C   0  0  0  0  0  0  0  0  0  0  0  0
    2.1771    0.2808    3.9461 H   0  0  0  0  0  0  0  0  0  0  0  0
    4.9528    0.0389   -0.8178 C   0  0  0  0  0  0  0  0  0  0  0  0
    4.5471    1.2331   -1.7143 C   0  0  0  0  0  0  0  0  0  0  0  0
    5.0899    1.1823   -2.6806 H   0  0  0  0  0  0  0  0  0  0  0  0
    4.8056    2.1954   -1.2273 H   0  0  0  0  0  0  0  0  0  0  0  0
    3.4622    1.2320   -1.9294 H   0  0  0  0  0  0  0  0  0  0  0  0
    6.4770    0.0865   -0.6137 C   0  0  0  0  0  0  0  0  0  0  0  0
    6.9822    0.0244   -1.5982 H   0  0  0  0  0  0  0  0  0  0  0  0
    6.8414   -0.7619    0.0004 H   0  0  0  0  0  0  0  0  0  0  0  0
    6.8027    1.0306   -0.1315 H   0  0  0  0  0  0  0  0  0  0  0  0
    4.5985   -1.2948   -1.5191 C   0  0  0  0  0  0  0  0  0  0  0  0
    5.1274   -1.3635   -2.4921 H   0  0  0  0  0  0  0  0  0  0  0  0
    3.5125   -1.3824   -1.7108 H   0  0  0  0  0  0  0  0  0  0  0  0
    4.9113   -2.1588   -0.8982 H   0  0  0  0  0  0  0  0  0  0  0  0
   -2.6214    1.7223    0.4649 C   0  0  0  0  0  0  0  0  0  0  0  0
   -2.4048    2.9599   -0.1817 C   0  0  0  0  0  0  0  0  0  0  0  0
   -1.3975    3.2137   -0.5401 H   0  0  0  0  0  0  0  0  0  0  0  0
   -3.4680    3.8436   -0.4062 C   0  0  0  0  0  0  0  0  0  0  0  0
   -3.2815    4.7980   -0.9214 H   0  0  0  0  0  0  0  0  0  0  0  0
   -4.7655    3.5120    0.0155 C   0  0  0  0  0  0  0  0  0  0  0  0
   -5.6004    4.2064   -0.1634 H   0  0  0  0  0  0  0  0  0  0  0  0
   -4.9903    2.2911    0.6710 C   0  0  0  0  0  0  0  0  0  0  0  0
   -6.0011    2.0272    1.0170 H   0  0  0  0  0  0  0  0  0  0  0  0
   -3.9299    1.4035    0.8951 C   0  0  0  0  0  0  0  0  0  0  0  0
   -4.1126    0.4578    1.4239 H   0  0  0  0  0  0  0  0  0  0  0  0
   -2.6062   -1.5403    0.5229 C   0  0  0  0  0  0  0  0  0  0  0  0
   -3.3442   -1.3520   -0.6680 C   0  0  0  0  0  0  0  0  0  0  0  0
   -3.0916   -0.5127   -1.3334 H   0  0  0  0  0  0  0  0  0  0  0  0
   -4.3692   -2.2392   -1.0135 C   0  0  0  0  0  0  0  0  0  0  0  0
   -4.9293   -2.0848   -1.9479 H   0  0  0  0  0  0  0  0  0  0  0  0
   -4.6740   -3.3293   -0.1802 C   0  0  0  0  0  0  0  0  0  0  0  0
   -5.4800   -4.0263   -0.4553 H   0  0  0  0  0  0  0  0  0  0  0  0
   -3.9413   -3.5299    0.9994 C   0  0  0  0  0  0  0  0  0  0  0  0
   -4.1722   -4.3829    1.6553 H   0  0  0  0  0  0  0  0  0  0  0  0
   -2.9122   -2.6428    1.3479 C   0  0  0  0  0  0  0  0  0  0  0  0
   -2.3456   -2.7941    2.2792 H   0  0  0  0  0  0  0  0  0  0  0  0
  1 10  1  0  0  0  0
  2  9  1  0  0  0  0
  3  2  2  0  0  0  0
  4  3  1  0  0  0  0
  5  6  2  0  0  0  0
  5  3  1  0  0  0  0
  6  7  1  0  0  0  0
  7  8  1  0  0  0  0
  7  2  1  0  0  0  0
  9 16  1  0  0  0  0
 10  9  2  0  0  0  0
 11 10  1  0  0  0  0
 11 12  2  0  0  0  0
 12 13  1  0  0  0  0
 12 14  1  0  0  0  0
 14 16  2  0  0  0  0
 14 15  1  0  0  0  0
 16 17  1  0  0  0  0
 18 23  1  0  0  0  0
 18 11  1  0  0  0  0
 19 21  1  0  0  0  0
 19 18  1  0  0  0  0
 20 19  1  0  0  0  0
 22 19  1  0  0  0  0
 23 26  1  0  0  0  0
 23 25  1  0  0  0  0
 24 23  1  0  0  0  0
 27 30  1  0  0  0  0
 27 18  1  0  0  0  0
 28 27  1  0  0  0  0
 29 27  1  0  0  0  0
 31  5  1  0  0  0  0
 31 40  1  0  0  0  0
 32 31  2  0  0  0  0
 33 32  1  0  0  0  0
 34 32  1  0  0  0  0
 34 36  2  0  0  0  0
 35 34  1  0  0  0  0
 36 38  1  0  0  0  0
 37 36  1  0  0  0  0
 38 40  2  0  0  0  0
 38 39  1  0  0  0  0
 40 41  1  0  0  0  0
 42  6  1  0  0  0  0
 42 51  1  0  0  0  0
 43 42  2  0  0  0  0
 44 43  1  0  0  0  0
 45 43  1  0  0  0  0
 45 47  2  0  0  0  0
 46 45  1  0  0  0  0
 47 49  1  0  0  0  0
 48 47  1  0  0  0  0
 49 51  2  0  0  0  0
 49 50  1  0  0  0  0
 51 52  1  0  0  0  0
M  CHG  1   1  -1
M  END
