1,3
q = -2.0, confidence = 0.662

 24 24  0  0  1  0  0  0  0  0999 V2000
    1.6808   -0.3774   -0.2559 O   0  0  0  0  0  1  0  0  0  0  0  0
   -0.8936   -1.8322   -2.6672 C   0  0  0  0  0  3  0  0  0  0  0  0
    0.4555   -1.5733   -3.0908 C   0  0  0  0  0  3  0  0  0  0  0  0
    1.4947   -2.0966   -2.2772 C   0  0  0  0  0  3  0  0  0  0  0  0
    2.8427   -1.4576   -2.0762 C   0  0  0  0  0  0  0  0  0  0  0  0
    2.8760   -1.0448   -0.5709 C   0  0  1  0  0  0  0  0  0  0  0  0
    4.0913   -0.1932   -0.2376 C   0  0  0  0  0  0  0  0  0  0  0  0
    3.9693    1.2074   -0.1836 C   0  0  0  0  0  0  0  0  0  0  0  0
    5.0863    2.0128    0.0845 C   0  0  0  0  0  0  0  0  0  0  0  0
    6.3446    1.4268    0.2978 C   0  0  0  0  0  0  0  0  0  0  0  0
    6.4759    0.0289    0.2459 C   0  0  0  0  0  0  0  0  0  0  0  0
    5.3550   -0.7733   -0.0165 C   0  0  0  0  0  0  0  0  0  0  0  0
   -1.1677   -2.8405   -2.3022 H   0  0  0  0  0  0  0  0  0  0  0  0
   -1.7137   -1.3070   -3.1862 H   0  0  0  0  0  0  0  0  0  0  0  0
    0.6730   -0.7622   -3.8104 H   0  0  0  0  0  0  0  0  0  0  0  0
    1.3506   -3.0898   -1.8052 H   0  0  0  0  0  0  0  0  0  0  0  0
    2.9369   -0.5386   -2.6922 H   0  0  0  0  0  0  0  0  0  0  0  0
    3.6912   -2.1301   -2.3292 H   0  0  0  0  0  0  0  0  0  0  0  0
    2.9746   -2.0031    0.0103 H   0  0  0  0  0  0  0  0  0  0  0  0
    2.9724    1.6415   -0.3441 H   0  0  0  0  0  0  0  0  0  0  0  0
    4.9741    3.1078    0.1293 H   0  0  0  0  0  0  0  0  0  0  0  0
    7.2222    2.0570    0.5095 H   0  0  0  0  0  0  0  0  0  0  0  0
    7.4576   -0.4390    0.4188 H   0  0  0  0  0  0  0  0  0  0  0  0
    5.4586   -1.8709   -0.0429 H   0  0  0  0  0  0  0  0  0  0  0  0
  2 13  1  0  0  0  0
  3  2  1  0  0  0  0
  3  4  1  0  0  0  0
  4  5  1  0  0  0  0
  4 16  1  0  0  0  0
  5  6  1  0  0  0  0
  6  1  1  0  0  0  0
  6  7  1  0  0  0  0
  6 19  1  1  0  0  0
  7  8  2  0  0  0  0
  7 12  1  0  0  0  0
  8  9  1  0  0  0  0
  9 21  1  0  0  0  0
  9 10  2  0  0  0  0
 10 22  1  0  0  0  0
 11 10  1  0  0  0  0
 11 23  1  0  0  0  0
 12 11  2  0  0  0  0
 14  2  1  0  0  0  0
 15  3  1  0  0  0  0
 17  5  1  0  0  0  0
 18  5  1  0  0  0  0
 20  8  1  0  0  0  0
 24 12  1  0  0  0  0
M  END
