1,7
q = -1.0, confidence = 0.01

 22 21  0  0  0  0  0  0  0  0999 V2000
    0.7142   -0.8743    1.1289 C   0  0  0  0  0  2  0  0  0  0  0  0
    2.1984   -1.1621   -0.5106 C   0  0  0  0  0  0  0  0  0  0  0  0
    3.7097   -1.4258   -2.4210 C   0  0  0  0  0  0  0  0  0  0  0  0
    4.1067   -2.7118   -0.3472 C   0  0  0  0  0  0  0  0  0  0  0  0
   -1.1912   -0.9124    2.6812 C   0  0  0  0  0  0  0  0  0  0  0  0
    0.7903   -2.2801    3.1429 C   0  0  0  0  0  0  0  0  0  0  0  0
    1.5296   -0.3080   -1.2097 O   0  5  0  0  0  0  0  0  0  0  0  0
    0.1591   -1.2724    2.2994 N   0  0  0  0  0  0  0  0  0  0  0  0
    1.8332   -1.5132    0.7428 N   0  0  0  0  0  0  0  0  0  0  0  0
    3.2973   -1.7536   -1.0721 N   0  0  0  0  0  0  0  0  0  0  0  0
    4.6955   -0.9075   -2.4266 H   0  0  0  0  0  0  0  0  0  0  0  0
    2.9532   -0.7684   -2.8827 H   0  0  0  0  0  0  0  0  0  0  0  0
    3.8090   -2.3498   -3.0317 H   0  0  0  0  0  0  0  0  0  0  0  0
    5.1427   -2.3308   -0.2031 H   0  0  0  0  0  0  0  0  0  0  0  0
    4.1714   -3.6714   -0.9064 H   0  0  0  0  0  0  0  0  0  0  0  0
    3.6430   -2.8924    0.6376 H   0  0  0  0  0  0  0  0  0  0  0  0
   -1.8297   -1.8219    2.7280 H   0  0  0  0  0  0  0  0  0  0  0  0
   -1.6223   -0.2446    1.9218 H   0  0  0  0  0  0  0  0  0  0  0  0
   -1.2126   -0.4287    3.6827 H   0  0  0  0  0  0  0  0  0  0  0  0
    0.2892   -3.2671    3.0289 H   0  0  0  0  0  0  0  0  0  0  0  0
    0.7104   -1.9739    4.2069 H   0  0  0  0  0  0  0  0  0  0  0  0
    1.8493   -2.3839    2.8528 H   0  0  0  0  0  0  0  0  0  0  0  0
  1  8  1  0  0  0  0
  2  9  2  0  0  0  0
  3 10  1  0  0  0  0
  4 14  1  0  0  0  0
  4 16  1  0  0  0  0
  5 17  1  0  0  0  0
  5 19  1  0  0  0  0
  6 21  1  0  0  0  0
  7  2  1  0  0  0  0
  8  5  1  0  0  0  0
  8  6  1  0  0  0  0
  9  1  1  0  0  0  0
 10  2  1  0  0  0  0
 10  4  1  0  0  0  0
 11  3  1  0  0  0  0
 12  3  1  0  0  0  0
 13  3  1  0  0  0  0
 15  4  1  0  0  0  0
 18  5  1  0  0  0  0
 20  6  1  0  0  0  0
 22  6  1  0  0  0  0
M  CHG  1   7  -1
M  END
