1,4
q = 0.0, confidence = 0.55

 12 11  0  0  0  0  0  0  0  0999 V2000
    2.0729    0.5733   -0.0259 O   0  5  0  0  0  0  0  0  0  0  0  0
    4.2309    0.0110    0.2268 O   0  0  0  0  0  0  0  0  0  0  0  0
    1.3134   -2.4722   -1.3914 C   0  0  0  0  0  0  0  0  0  0  0  0
    1.1747   -2.0041    0.0543 C   0  0  0  0  0  3  0  0  0  0  0  0
    2.5212   -1.6665    0.6980 C   0  0  0  0  0  0  0  0  0  0  0  0
    3.0464   -0.2882    0.2655 C   0  0  0  0  0  0  0  0  0  0  0  0
    1.8166   -1.7082   -2.0201 H   0  0  0  0  0  0  0  0  0  0  0  0
    1.9325   -3.3988   -1.4522 H   0  0  0  0  0  0  0  0  0  0  0  0
    0.3353   -2.6980   -1.8665 H   0  0  0  0  0  0  0  0  0  0  0  0
    0.6398   -2.7649    0.6566 H   0  0  0  0  0  0  0  0  0  0  0  0
    2.4173   -1.6249    1.8046 H   0  0  0  0  0  0  0  0  0  0  0  0
    3.2993   -2.4342    0.4865 H   0  0  0  0  0  0  0  0  0  0  0  0
  1  6  1  0  0  0  0
  2  6  2  0  0  0  0
  3  4  1  0  0  0  0
  4 10  1  0  0  0  0
  4  5  1  0  0  0  0
  5 11  1  0  0  0  0
  6  5  1  0  0  0  0
  7  3  1  0  0  0  0
  8  3  1  0  0  0  0
  9  3  1  0  0  0  0
 12  5  1  0  0  0  0
M  CHG  1   1  -1
M  END
