1,3
q = -1.0, confidence = 0.016

 23 23  0  0  0  0  0  0  0  0999 V2000
   -1.1279    0.2707    1.1018 C   0  0  0  0  0  3  0  0  0  0  0  0
   -0.2668    0.2165    2.2777 C   0  0  0  0  0  0  0  0  0  0  0  0
    0.9357   -0.0357    1.9605 O   0  5  0  0  0  0  0  0  0  0  0  0
   -0.6258    0.4380    3.7307 C   0  0  0  0  0  0  0  0  0  0  0  0
    0.4997    0.0925    4.7030 C   0  0  0  0  0  0  0  0  0  0  0  0
   -2.4840    0.4490    1.2901 C   0  0  0  0  0  3  0  0  0  0  0  0
   -3.6055    0.5068    0.3648 C   0  0  0  0  0  0  0  0  0  0  0  0
   -3.4832    0.4294   -1.0473 C   0  0  0  0  0  0  0  0  0  0  0  0
   -4.6118    0.4868   -1.8716 C   0  0  0  0  0  0  0  0  0  0  0  0
   -5.8970    0.6221   -1.3183 C   0  0  0  0  0  0  0  0  0  0  0  0
   -6.0415    0.7032    0.0776 C   0  0  0  0  0  0  0  0  0  0  0  0
   -4.9140    0.6474    0.9027 C   0  0  0  0  0  0  0  0  0  0  0  0
   -0.9295    1.5044    3.8353 H   0  0  0  0  0  0  0  0  0  0  0  0
   -1.5477   -0.1398    3.9556 H   0  0  0  0  0  0  0  0  0  0  0  0
    0.1826    0.2668    5.7496 H   0  0  0  0  0  0  0  0  0  0  0  0
    1.4000    0.7054    4.5055 H   0  0  0  0  0  0  0  0  0  0  0  0
    0.8016   -0.9690    4.6036 H   0  0  0  0  0  0  0  0  0  0  0  0
   -2.8177    0.5534    2.3423 H   0  0  0  0  0  0  0  0  0  0  0  0
   -2.4930    0.3288   -1.5012 H   0  0  0  0  0  0  0  0  0  0  0  0
   -4.4843    0.4259   -2.9633 H   0  0  0  0  0  0  0  0  0  0  0  0
   -6.7816    0.6661   -1.9715 H   0  0  0  0  0  0  0  0  0  0  0  0
   -7.0419    0.8117    0.5237 H   0  0  0  0  0  0  0  0  0  0  0  0
   -5.0321    0.7121    1.9964 H   0  0  0  0  0  0  0  0  0  0  0  0
  1  6  1  0  0  0  0
  1  2  2  0  0  0  0
  2  4  1  0  0  0  0
  3  2  1  0  0  0  0
  4 13  1  0  0  0  0
  4 14  1  0  0  0  0
  4  5  1  0  0  0  0
  5 15  1  0  0  0  0
  6 18  1  0  0  0  0
  7 12  1  0  0  0  0
  7  6  1  0  0  0  0
  8  7  2  0  0  0  0
  9 10  2  0  0  0  0
  9  8  1  0  0  0  0
 10 11  1  0  0  0  0
 11 22  1  0  0  0  0
 11 12  2  0  0  0  0
 12 23  1  0  0  0  0
 16  5  1  0  0  0  0
 17  5  1  0  0  0  0
 19  8  1  0  0  0  0
 20  9  1  0  0  0  0
 21 10  1  0  0  0  0
M  CHG  1   3  -1
M  END
