2,5
q = -2.0, confidence = 0.756

 15 15  0  0  0  0  0  0  0  0999 V2000
   -7.6817   -1.4297   -0.5934 Cl  0  0  0  0  0  0  0  0  0  0  0  0
   -1.0064   -1.2395    0.0482 O   0  0  0  0  0  1  0  0  0  0  0  0
   -1.9016    0.5633    2.8554 O   0  0  0  0  0  0  0  0  0  0  0  0
   -1.9752   -0.8077    0.9689 N   0  0  0  0  0  0  0  0  0  0  0  0
   -1.3606   -0.0191    1.9247 C   0  0  0  0  0  3  0  0  0  0  0  0
   -3.3189   -0.9935    0.6514 C   0  0  0  0  0  0  0  0  0  0  0  0
   -4.3451   -0.4493    1.4616 C   0  0  0  0  0  0  0  0  0  0  0  0
   -5.6807   -0.5924    1.0758 C   0  0  0  0  0  0  0  0  0  0  0  0
   -6.0055   -1.2808   -0.1060 C   0  0  0  0  0  0  0  0  0  0  0  0
   -4.9958   -1.8518   -0.8960 C   0  0  0  0  0  0  0  0  0  0  0  0
   -3.6555   -1.7110   -0.5197 C   0  0  0  0  0  0  0  0  0  0  0  0
   -4.0699    0.0973    2.3721 H   0  0  0  0  0  0  0  0  0  0  0  0
   -6.4829   -0.1616    1.6915 H   0  0  0  0  0  0  0  0  0  0  0  0
   -5.2645   -2.4020   -1.8090 H   0  0  0  0  0  0  0  0  0  0  0  0
   -2.8488   -2.1373   -1.1290 H   0  0  0  0  0  0  0  0  0  0  0  0
  1  9  1  0  0  0  0
  2  4  1  0  0  0  0
  4  5  1  0  0  0  0
  5  3  2  0  0  0  0
  6  4  1  0  0  0  0
  6  7  1  0  0  0  0
  7 12  1  0  0  0  0
  8  7  2  0  0  0  0
  8 13  1  0  0  0  0
  9  8  1  0  0  0  0
 10 11  1  0  0  0  0
 10  9  2  0  0  0  0
 11  6  2  0  0  0  0
 14 10  1  0  0  0  0
 15 11  1  0  0  0  0
M  END
