5,7
q = -1.0, confidence = 0.0

 30 31  0  0  1  0  0  0  0  0999 V2000
   -0.4189    2.5570    0.5865 N   0  0  0  0  0  0  0  0  0  0  0  0
   -0.2152    3.4319    1.0740 H   0  0  0  0  0  0  0  0  0  0  0  0
    1.8892    2.2735    0.4238 N   0  0  0  0  0  0  0  0  0  0  0  0
    1.9785    3.1315    0.9715 H   0  0  0  0  0  0  0  0  0  0  0  0
    0.4882    0.7381   -0.5060 O   0  0  0  0  0  1  0  0  0  0  0  0
    0.6335    1.8176    0.1443 C   0  0  1  0  0  3  0  0  0  0  0  0
   -2.2887    1.1272   -0.2302 C   0  0  0  0  0  2  0  0  0  0  0  0
   -1.7711    2.3815    0.1839 C   0  0  0  0  0  0  0  0  0  0  0  0
   -2.5837    3.5351    0.2025 C   0  0  0  0  0  0  0  0  0  0  0  0
   -2.1587    4.4930    0.5444 H   0  0  0  0  0  0  0  0  0  0  0  0
   -3.9104    3.4784   -0.2346 C   0  0  0  0  0  0  0  0  0  0  0  0
   -4.5331    4.3844   -0.2154 H   0  0  0  0  0  0  0  0  0  0  0  0
   -4.4198    2.2684   -0.7246 C   0  0  0  0  0  0  0  0  0  0  0  0
   -5.4485    2.2111   -1.1102 H   0  0  0  0  0  0  0  0  0  0  0  0
   -3.6087    1.1214   -0.7219 C   0  0  0  0  0  3  0  0  0  0  0  0
   -4.0384    0.1937   -1.1268 H   0  0  0  0  0  0  0  0  0  0  0  0
    3.0876    1.5331    0.1999 C   0  0  0  0  0  0  0  0  0  0  0  0
    3.3534    0.9276   -1.0421 C   0  0  0  0  0  0  0  0  0  0  0  0
    2.6382    1.0382   -1.8678 H   0  0  0  0  0  0  0  0  0  0  0  0
    4.5359    0.1974   -1.2174 C   0  0  0  0  0  0  0  0  0  0  0  0
    4.7332   -0.2729   -2.1935 H   0  0  0  0  0  0  0  0  0  0  0  0
    5.4894    0.0715   -0.1852 C   0  0  0  0  0  0  0  0  0  0  0  0
    5.2107    0.7033    1.0450 C   0  0  0  0  0  0  0  0  0  0  0  0
    5.9353    0.6260    1.8703 H   0  0  0  0  0  0  0  0  0  0  0  0
    4.0239    1.4195    1.2439 C   0  0  0  0  0  0  0  0  0  0  0  0
    3.8193    1.8878    2.2193 H   0  0  0  0  0  0  0  0  0  0  0  0
    6.7798   -0.6744   -0.4011 C   0  0  0  0  0  0  0  0  0  0  0  0
    6.6731   -1.4667   -1.1671 H   0  0  0  0  0  0  0  0  0  0  0  0
    7.1460   -1.1394    0.5349 H   0  0  0  0  0  0  0  0  0  0  0  0
    7.5766    0.0149   -0.7541 H   0  0  0  0  0  0  0  0  0  0  0  0
  1  2  1  0  0  0  0
  3  4  1  0  0  0  0
  6  5  1  1  0  0  0
  6  3  1  0  0  0  0
  6  1  1  0  0  0  0
  7  8  1  0  0  0  0
  8  9  2  0  0  0  0
  8  1  1  0  0  0  0
  9 10  1  0  0  0  0
 11 12  1  0  0  0  0
 11  9  1  0  0  0  0
 13 15  1  0  0  0  0
 13 11  2  0  0  0  0
 14 13  1  0  0  0  0
 15  7  1  0  0  0  0
 16 15  1  0  0  0  0
 17  3  1  0  0  0  0
 17 25  1  0  0  0  0
 18 17  2  0  0  0  0
 19 18  1  0  0  0  0
 20 18  1  0  0  0  0
 20 22  2  0  0  0  0
 21 20  1  0  0  0  0
 22 23  1  0  0  0  0
 23 25  2  0  0  0  0
 23 24  1  0  0  0  0
 25 26  1  0  0  0  0
 27 22  1  0  0  0  0
 27 29  1  0  0  0  0
 28 27  1  0  0  0  0
 30 27  1  0  0  0  0
M  END
