1,8
q = -1.0, confidence = 0.09

 54 57  0  0  1  0  0  0  0  0999 V2000
   -0.3216   -0.6194   -1.7751 O   0  0  0  0  0  1  0  0  0  0  0  0
   -0.6895    1.5669   -2.3984 N   0  0  0  0  0  0  0  0  0  0  0  0
   -0.2467    2.4610   -2.6337 H   0  0  0  0  0  0  0  0  0  0  0  0
    1.4516    0.6625   -2.4728 N   0  0  0  0  0  0  0  0  0  0  0  0
    1.7529    1.6161   -2.6862 H   0  0  0  0  0  0  0  0  0  0  0  0
    0.1304    0.4910   -2.1775 C   0  0  2  0  0  3  0  0  0  0  0  0
   -0.5899    1.7470    0.4110 C   0  0  2  0  0  3  0  0  0  0  0  0
   -0.1122    0.5443    0.8551 C   0  0  0  0  0  2  0  0  0  0  0  0
   -1.9175    1.7467   -0.2972 C   0  0  0  0  0  0  0  0  0  0  0  0
   -1.9454    1.6589   -1.7109 C   0  0  0  0  0  0  0  0  0  0  0  0
   -3.1531    1.6526   -2.4211 C   0  0  0  0  0  0  0  0  0  0  0  0
   -3.1310    1.5700   -3.5175 H   0  0  0  0  0  0  0  0  0  0  0  0
   -4.3678    1.7528   -1.7237 C   0  0  0  0  0  0  0  0  0  0  0  0
   -5.3188    1.7588   -2.2763 H   0  0  0  0  0  0  0  0  0  0  0  0
   -4.3618    1.8561   -0.3236 C   0  0  0  0  0  0  0  0  0  0  0  0
   -5.3116    1.9523    0.2238 H   0  0  0  0  0  0  0  0  0  0  0  0
   -3.1470    1.8546    0.3822 C   0  0  0  0  0  0  0  0  0  0  0  0
   -3.1406    1.9646    1.4770 H   0  0  0  0  0  0  0  0  0  0  0  0
    2.5003   -0.2360   -2.1465 C   0  0  0  0  0  0  0  0  0  0  0  0
    3.7217    0.3093   -1.7029 C   0  0  0  0  0  0  0  0  0  0  0  0
    3.8403    1.4023   -1.6344 H   0  0  0  0  0  0  0  0  0  0  0  0
    4.7723   -0.5314   -1.3250 C   0  0  0  0  0  0  0  0  0  0  0  0
    5.7153   -0.0850   -0.9733 H   0  0  0  0  0  0  0  0  0  0  0  0
    4.6406   -1.9359   -1.3698 C   0  0  0  0  0  0  0  0  0  0  0  0
    3.4179   -2.4604   -1.8341 C   0  0  0  0  0  0  0  0  0  0  0  0
    3.2929   -3.5526   -1.8998 H   0  0  0  0  0  0  0  0  0  0  0  0
    2.3573   -1.6330   -2.2302 C   0  0  0  0  0  0  0  0  0  0  0  0
    1.4201   -2.0670   -2.5962 H   0  0  0  0  0  0  0  0  0  0  0  0
    5.7804   -2.8320   -0.9607 C   0  0  0  0  0  0  0  0  0  0  0  0
    6.2171   -2.5166    0.0088 H   0  0  0  0  0  0  0  0  0  0  0  0
    6.6024   -2.7970   -1.7066 H   0  0  0  0  0  0  0  0  0  0  0  0
    5.4604   -3.8874   -0.8683 H   0  0  0  0  0  0  0  0  0  0  0  0
    0.1580    3.0329    0.4009 C   0  0  0  0  0  0  0  0  0  0  0  0
    1.5741    3.0638    0.3317 C   0  0  0  0  0  0  0  0  0  0  0  0
    2.1365    2.1192    0.3312 H   0  0  0  0  0  0  0  0  0  0  0  0
    2.2629    4.2805    0.2591 C   0  0  0  0  0  0  0  0  0  0  0  0
    3.3627    4.2803    0.2090 H   0  0  0  0  0  0  0  0  0  0  0  0
    1.5595    5.4978    0.2467 C   0  0  0  0  0  0  0  0  0  0  0  0
    2.1033    6.4524    0.1904 H   0  0  0  0  0  0  0  0  0  0  0  0
    0.1574    5.4835    0.2998 C   0  0  0  0  0  0  0  0  0  0  0  0
   -0.4046    6.4296    0.2871 H   0  0  0  0  0  0  0  0  0  0  0  0
   -0.5361    4.2664    0.3693 C   0  0  0  0  0  0  0  0  0  0  0  0
   -1.6357    4.2695    0.4073 H   0  0  0  0  0  0  0  0  0  0  0  0
    1.0560    0.3004    1.7102 C   0  0  0  0  0  0  0  0  0  0  0  0
    1.2037    0.9978    2.9373 C   0  0  0  0  0  0  0  0  0  0  0  0
    0.4611    1.7643    3.2074 H   0  0  0  0  0  0  0  0  0  0  0  0
    2.2871    0.7336    3.7851 C   0  0  0  0  0  0  0  0  0  0  0  0
    2.3852    1.2851    4.7324 H   0  0  0  0  0  0  0  0  0  0  0  0
    3.2488   -0.2271    3.4277 C   0  0  0  0  0  0  0  0  0  0  0  0
    4.1001   -0.4304    4.0944 H   0  0  0  0  0  0  0  0  0  0  0  0
    3.1156   -0.9267    2.2161 C   0  0  0  0  0  0  0  0  0  0  0  0
    3.8667   -1.6758    1.9227 H   0  0  0  0  0  0  0  0  0  0  0  0
    2.0271   -0.6763    1.3707 C   0  0  0  0  0  0  0  0  0  0  0  0
    1.9257   -1.2279    0.4245 H   0  0  0  0  0  0  0  0  0  0  0  0
  2  6  1  0  0  0  0
  2 10  1  0  0  0  0
  3  2  1  0  0  0  0
  4  6  1  0  0  0  0
  4 19  1  0  0  0  0
  5  4  1  0  0  0  0
  6  1  1  6  0  0  0
  7  8  1  6  0  0  0
  8 44  1  0  0  0  0
  9 17  1  0  0  0  0
  9  7  1  0  0  0  0
 10  9  2  0  0  0  0
 11 13  2  0  0  0  0
 11 10  1  0  0  0  0
 12 11  1  0  0  0  0
 13 15  1  0  0  0  0
 14 13  1  0  0  0  0
 15 16  1  0  0  0  0
 15 17  2  0  0  0  0
 17 18  1  0  0  0  0
 19 20  1  0  0  0  0
 20 21  1  0  0  0  0
 20 22  2  0  0  0  0
 22 23  1  0  0  0  0
 24 22  1  0  0  0  0
 24 29  1  0  0  0  0
 25 24  2  0  0  0  0
 26 25  1  0  0  0  0
 27 19  2  0  0  0  0
 27 25  1  0  0  0  0
 28 27  1  0  0  0  0
 29 32  1  0  0  0  0
 29 30  1  0  0  0  0
 31 29  1  0  0  0  0
 33  7  1  0  0  0  0
 34 33  2  0  0  0  0
 35 34  1  0  0  0  0
 36 34  1  0  0  0  0
 37 36  1  0  0  0  0
 38 36  2  0  0  0  0
 38 40  1  0  0  0  0
 39 38  1  0  0  0  0
 40 42  2  0  0  0  0
 41 40  1  0  0  0  0
 42 33  1  0  0  0  0
 42 43  1  0  0  0  0
 44 45  1  0  0  0  0
 45 46  1  0  0  0  0
 45 47  2  0  0  0  0
 47 48  1  0  0  0  0
 49 47  1  0  0  0  0
 49 50  1  0  0  0  0
 51 49  2  0  0  0  0
 52 51  1  0  0  0  0
 53 44  2  0  0  0  0
 53 51  1  0  0  0  0
 54 53  1  0  0  0  0
M  END
