1,2
q = -1.0, confidence = 0.006

 23 24  0  0  1  0  0  0  0  0999 V2000
   -1.1768   -3.0164   -0.4801 O   0  0  0  0  0  1  0  0  0  0  0  0
   -2.3002   -0.5033   -0.0859 C   0  0  0  0  0  3  0  0  0  0  0  0
   -2.5987    0.1728   -0.9120 H   0  0  0  0  0  0  0  0  0  0  0  0
   -3.1832   -1.8025   -0.0582 C   0  0  2  0  0  0  0  0  0  0  0  0
   -4.0162   -1.7623   -0.7960 H   0  0  0  0  0  0  0  0  0  0  0  0
   -3.7963   -1.7756    1.3897 C   0  0  2  0  0  0  0  0  0  0  0  0
   -4.1597   -2.7601    1.7422 H   0  0  0  0  0  0  0  0  0  0  0  0
   -4.8701   -0.6656    1.4101 C   0  0  0  0  0  0  0  0  0  0  0  0
   -5.5973   -0.7720    0.5811 H   0  0  0  0  0  0  0  0  0  0  0  0
   -5.4448   -0.7193    2.3557 H   0  0  0  0  0  0  0  0  0  0  0  0
   -4.0259    0.6430    1.3295 C   0  0  0  0  0  0  0  0  0  0  0  0
   -4.1901    1.2849    2.2183 H   0  0  0  0  0  0  0  0  0  0  0  0
   -4.2566    1.2578    0.4370 H   0  0  0  0  0  0  0  0  0  0  0  0
   -2.5655    0.1212    1.3017 C   0  0  1  0  0  0  0  0  0  0  0  0
   -1.8249    0.8829    1.6081 H   0  0  0  0  0  0  0  0  0  0  0  0
   -2.6560   -1.1286    2.2009 C   0  0  0  0  0  0  0  0  0  0  0  0
   -1.7202   -1.7255    2.2163 H   0  0  0  0  0  0  0  0  0  0  0  0
   -2.9546   -0.9047    3.2447 H   0  0  0  0  0  0  0  0  0  0  0  0
   -2.4214   -3.0571   -0.3401 C   0  0  1  0  0  3  0  0  0  0  0  0
   -3.1311   -4.3668   -0.4909 C   0  0  0  0  0  0  0  0  0  0  0  0
   -3.6387   -4.3754   -1.4800 H   0  0  0  0  0  0  0  0  0  0  0  0
   -3.9258   -4.4917    0.2698 H   0  0  0  0  0  0  0  0  0  0  0  0
   -2.4172   -5.2089   -0.4545 H   0  0  0  0  0  0  0  0  0  0  0  0
  2  4  1  0  0  0  0
  2 14  1  0  0  0  0
  3  2  1  0  0  0  0
  4  5  1  6  0  0  0
  4  6  1  0  0  0  0
  6  8  1  0  0  0  0
  6  7  1  1  0  0  0
  6 16  1  0  0  0  0
  8 10  1  0  0  0  0
  9  8  1  0  0  0  0
 11  8  1  0  0  0  0
 11 12  1  0  0  0  0
 13 11  1  0  0  0  0
 14 11  1  0  0  0  0
 14 15  1  1  0  0  0
 14 16  1  0  0  0  0
 16 17  1  0  0  0  0
 16 18  1  0  0  0  0
 19  1  1  6  0  0  0
 19  4  1  0  0  0  0
 20 23  1  0  0  0  0
 20 19  1  0  0  0  0
 20 22  1  0  0  0  0
 21 20  1  0  0  0  0
M  END
