1,3
q = -1.0, confidence = 0.008

 25 25  0  0  0  0  0  0  0  0999 V2000
   -0.1450    1.1518   -1.7948 O   0  5  0  0  0  0  0  0  0  0  0  0
    7.3526   -0.1651    0.1808 N   0  0  0  0  0  0  0  0  0  0  0  0
    0.7985    0.9874    0.5725 C   0  0  0  0  0  2  0  0  0  0  0  0
    1.7489    0.8702   -0.4482 C   0  0  0  0  0  0  0  0  0  0  0  0
    1.1110    0.9294   -1.7253 C   0  0  0  0  0  0  0  0  0  0  0  0
    3.1919    0.6162   -0.2829 C   0  0  0  0  0  0  0  0  0  0  0  0
    4.1312    0.9895   -1.2722 C   0  0  0  0  0  0  0  0  0  0  0  0
    5.4956    0.7374   -1.1306 C   0  0  0  0  0  0  0  0  0  0  0  0
    6.0078    0.0884    0.0311 C   0  0  0  0  0  0  0  0  0  0  0  0
    5.0619   -0.2886    1.0305 C   0  0  0  0  0  0  0  0  0  0  0  0
    3.7016   -0.0287    0.8676 C   0  0  0  0  0  0  0  0  0  0  0  0
    8.2847    0.2197   -0.8624 C   0  0  0  0  0  0  0  0  0  0  0  0
    7.8405   -0.8143    1.3828 C   0  0  0  0  0  0  0  0  0  0  0  0
    1.1426    0.9264    1.6227 H   0  0  0  0  0  0  0  0  0  0  0  0
    1.6382    0.7450   -2.6837 H   0  0  0  0  0  0  0  0  0  0  0  0
    3.7929    1.5159   -2.1783 H   0  0  0  0  0  0  0  0  0  0  0  0
    6.1747    1.0591   -1.9298 H   0  0  0  0  0  0  0  0  0  0  0  0
    5.3944   -0.8001    1.9424 H   0  0  0  0  0  0  0  0  0  0  0  0
    3.0099   -0.3563    1.6595 H   0  0  0  0  0  0  0  0  0  0  0  0
    8.0548   -0.2774   -1.8314 H   0  0  0  0  0  0  0  0  0  0  0  0
    9.3071   -0.0747   -0.5668 H   0  0  0  0  0  0  0  0  0  0  0  0
    8.2852    1.3188   -1.0388 H   0  0  0  0  0  0  0  0  0  0  0  0
    8.9386   -0.9158    1.3241 H   0  0  0  0  0  0  0  0  0  0  0  0
    7.4121   -1.8337    1.5122 H   0  0  0  0  0  0  0  0  0  0  0  0
    7.6024   -0.2294    2.2992 H   0  0  0  0  0  0  0  0  0  0  0  0
  1  5  1  0  0  0  0
  2 13  1  0  0  0  0
  3 14  1  0  0  0  0
  4  6  1  0  0  0  0
  4  3  1  0  0  0  0
  5  4  2  0  0  0  0
  6 11  1  0  0  0  0
  7  8  1  0  0  0  0
  7  6  2  0  0  0  0
  8  9  2  0  0  0  0
  9  2  1  0  0  0  0
  9 10  1  0  0  0  0
 10 18  1  0  0  0  0
 11 10  2  0  0  0  0
 11 19  1  0  0  0  0
 12 21  1  0  0  0  0
 12  2  1  0  0  0  0
 13 24  1  0  0  0  0
 13 25  1  0  0  0  0
 15  5  1  0  0  0  0
 16  7  1  0  0  0  0
 17  8  1  0  0  0  0
 20 12  1  0  0  0  0
 22 12  1  0  0  0  0
 23 13  1  0  0  0  0
M  CHG  1   1  -1
M  END
