1,2
q = -1.0, confidence = 0.014

 31 31  0  0  0  0  0  0  0  0999 V2000
   -0.8191    0.7311   -0.1183 O   0  5  0  0  0  0  0  0  0  0  0  0
    0.4908   -0.6136   -2.1234 C   0  0  0  0  0  3  0  0  0  0  0  0
   -0.1993    0.1288   -2.5620 H   0  0  0  0  0  0  0  0  0  0  0  0
    1.2506   -0.9647   -2.8456 H   0  0  0  0  0  0  0  0  0  0  0  0
   -0.0456   -1.5746   -1.1779 C   0  0  0  0  0  3  0  0  0  0  0  0
    0.3449   -2.6078   -1.1934 H   0  0  0  0  0  0  0  0  0  0  0  0
   -1.4548   -1.4407   -0.7574 C   0  0  0  0  0  0  0  0  0  0  0  0
   -1.8152   -0.1153   -0.3700 C   0  0  0  0  0  0  0  0  0  0  0  0
   -3.1983    0.2231   -0.2331 C   0  0  0  0  0  0  0  0  0  0  0  0
   -4.1264   -0.8368   -0.3113 C   0  0  0  0  0  0  0  0  0  0  0  0
   -5.1933   -0.6155   -0.1607 H   0  0  0  0  0  0  0  0  0  0  0  0
   -3.7710   -2.1791   -0.5572 C   0  0  0  0  0  0  0  0  0  0  0  0
   -2.4136   -2.4611   -0.8070 C   0  0  0  0  0  0  0  0  0  0  0  0
   -2.1019   -3.4840   -1.0803 H   0  0  0  0  0  0  0  0  0  0  0  0
   -3.6378    1.6766    0.0146 C   0  0  0  0  0  0  0  0  0  0  0  0
   -3.0452    2.5758   -1.0957 C   0  0  0  0  0  0  0  0  0  0  0  0
   -1.9455    2.4593   -1.1415 H   0  0  0  0  0  0  0  0  0  0  0  0
   -3.2868    3.6436   -0.9087 H   0  0  0  0  0  0  0  0  0  0  0  0
   -3.4613    2.2962   -2.0849 H   0  0  0  0  0  0  0  0  0  0  0  0
   -3.1307    2.1486    1.3960 C   0  0  0  0  0  0  0  0  0  0  0  0
   -2.0316    2.0498    1.4567 H   0  0  0  0  0  0  0  0  0  0  0  0
   -3.5788    1.5371    2.2057 H   0  0  0  0  0  0  0  0  0  0  0  0
   -3.4024    3.2108    1.5751 H   0  0  0  0  0  0  0  0  0  0  0  0
   -5.1675    1.8402   -0.0101 C   0  0  0  0  0  0  0  0  0  0  0  0
   -5.4298    2.9097    0.1253 H   0  0  0  0  0  0  0  0  0  0  0  0
   -5.6603    1.2723    0.8050 H   0  0  0  0  0  0  0  0  0  0  0  0
   -5.6014    1.5048   -0.9738 H   0  0  0  0  0  0  0  0  0  0  0  0
   -4.8116   -3.2731   -0.5559 C   0  0  0  0  0  0  0  0  0  0  0  0
   -5.8183   -2.8802   -0.8046 H   0  0  0  0  0  0  0  0  0  0  0  0
   -4.8950   -3.7677    0.4380 H   0  0  0  0  0  0  0  0  0  0  0  0
   -4.5705   -4.0700   -1.2894 H   0  0  0  0  0  0  0  0  0  0  0  0
  2  5  1  0  0  0  0
  3  2  1  0  0  0  0
  4  2  1  0  0  0  0
  5  7  1  0  0  0  0
  6  5  1  0  0  0  0
  7  8  1  0  0  0  0
  8  9  2  0  0  0  0
  8  1  1  0  0  0  0
  9 15  1  0  0  0  0
 10  9  1  0  0  0  0
 10 11  1  0  0  0  0
 12 28  1  0  0  0  0
 12 10  2  0  0  0  0
 13  7  2  0  0  0  0
 13 12  1  0  0  0  0
 14 13  1  0  0  0  0
 15 20  1  0  0  0  0
 16 18  1  0  0  0  0
 16 15  1  0  0  0  0
 17 16  1  0  0  0  0
 19 16  1  0  0  0  0
 20 21  1  0  0  0  0
 20 23  1  0  0  0  0
 20 22  1  0  0  0  0
 24 15  1  0  0  0  0
 24 25  1  0  0  0  0
 24 26  1  0  0  0  0
 27 24  1  0  0  0  0
 28 30  1  0  0  0  0
 29 28  1  0  0  0  0
 31 28  1  0  0  0  0
M  CHG  1   1  -1
M  END
