1,4
q = 0.0, confidence = 0.946

 21 21  0  0  0  0  0  0  0  0999 V2000
   -0.5939    1.5728    1.7740 O   0  5  0  0  0  0  0  0  0  0  0  0
   -1.8419    1.4075    1.3770 C   0  0  0  0  0  0  0  0  0  0  0  0
   -2.0147    1.1764   -0.0123 C   0  0  0  0  0  0  0  0  0  0  0  0
   -0.8181    1.4954   -0.8300 C   0  0  0  0  0  3  0  0  0  0  0  0
   -2.8988    1.3958    2.4365 C   0  0  0  0  0  0  0  0  0  0  0  0
   -3.2855    0.7008   -0.6023 C   0  0  0  0  0  0  0  0  0  0  0  0
   -4.0694   -0.3021    0.0185 C   0  0  0  0  0  0  0  0  0  0  0  0
   -5.2698   -0.7364   -0.5609 C   0  0  0  0  0  0  0  0  0  0  0  0
   -5.7113   -0.1861   -1.7749 C   0  0  0  0  0  0  0  0  0  0  0  0
   -4.9361    0.7980   -2.4096 C   0  0  0  0  0  0  0  0  0  0  0  0
   -3.7353    1.2325   -1.8324 C   0  0  0  0  0  0  0  0  0  0  0  0
   -0.9105    1.2541   -1.9005 H   0  0  0  0  0  0  0  0  0  0  0  0
   -0.3816    2.4950   -0.6515 H   0  0  0  0  0  0  0  0  0  0  0  0
   -2.8581    0.4338    2.9882 H   0  0  0  0  0  0  0  0  0  0  0  0
   -2.6637    2.1970    3.1651 H   0  0  0  0  0  0  0  0  0  0  0  0
   -3.9146    1.5389    2.0274 H   0  0  0  0  0  0  0  0  0  0  0  0
   -3.7106   -0.7666    0.9484 H   0  0  0  0  0  0  0  0  0  0  0  0
   -5.8602   -1.5219   -0.0644 H   0  0  0  0  0  0  0  0  0  0  0  0
   -6.6532   -0.5290   -2.2293 H   0  0  0  0  0  0  0  0  0  0  0  0
   -5.2716    1.2337   -3.3633 H   0  0  0  0  0  0  0  0  0  0  0  0
   -3.1353    2.0091   -2.3301 H   0  0  0  0  0  0  0  0  0  0  0  0
  2  1  1  0  0  0  0
  2  5  1  0  0  0  0
  3  2  2  0  0  0  0
  4 13  1  0  0  0  0
  4  3  1  0  0  0  0
  5 14  1  0  0  0  0
  5 15  1  0  0  0  0
  6  3  1  0  0  0  0
  6  7  1  0  0  0  0
  7 17  1  0  0  0  0
  8 18  1  0  0  0  0
  8  7  2  0  0  0  0
  9  8  1  0  0  0  0
 10 11  1  0  0  0  0
 10  9  2  0  0  0  0
 11  6  2  0  0  0  0
 12  4  1  0  0  0  0
 16  5  1  0  0  0  0
 19  9  1  0  0  0  0
 20 10  1  0  0  0  0
 21 11  1  0  0  0  0
M  CHG  1   1  -1
M  END
