1,15
q = 0.0, confidence = 0.968

 28 29  0  0  1  0  0  0  0  0999 V2000
   -1.0215    0.3783   -1.9401 O   0  0  0  0  0  1  0  0  0  0  0  0
   -0.8204    1.4601   -1.2308 C   0  0  2  0  0  3  0  0  0  0  0  0
   -1.7945    2.6198   -1.3309 C   0  0  0  0  0  0  0  0  0  0  0  0
   -2.8382    2.2536   -1.2431 H   0  0  0  0  0  0  0  0  0  0  0  0
   -1.7022    2.9820   -2.3802 H   0  0  0  0  0  0  0  0  0  0  0  0
   -1.5156    3.7749   -0.3609 C   0  0  0  0  0  0  0  0  0  0  0  0
   -2.0643    4.6825   -0.6881 H   0  0  0  0  0  0  0  0  0  0  0  0
   -1.9054    3.5245    0.6499 H   0  0  0  0  0  0  0  0  0  0  0  0
   -0.0157    4.0521   -0.2431 C   0  0  0  0  0  0  0  0  0  0  0  0
    0.1671    4.9294    0.4118 H   0  0  0  0  0  0  0  0  0  0  0  0
    0.3925    4.3134   -1.2448 H   0  0  0  0  0  0  0  0  0  0  0  0
    0.7246    2.8256    0.3035 C   0  0  0  0  0  0  0  0  0  0  0  0
    1.8186    3.0064    0.3059 H   0  0  0  0  0  0  0  0  0  0  0  0
    0.4419    2.6723    1.3703 H   0  0  0  0  0  0  0  0  0  0  0  0
    0.4290    1.5882   -0.5174 C   0  0  2  0  0  3  0  0  0  0  0  0
    1.3356    0.4912   -0.7624 C   0  0  0  0  0  3  0  0  0  0  0  0
    1.2656    0.0992   -1.7938 H   0  0  0  0  0  0  0  0  0  0  0  0
    2.6789    0.3574   -0.1786 C   0  0  0  0  0  0  0  0  0  0  0  0
    3.7081   -0.2217   -0.9686 C   0  0  0  0  0  0  0  0  0  0  0  0
    3.4690   -0.5314   -1.9980 H   0  0  0  0  0  0  0  0  0  0  0  0
    5.0107   -0.3864   -0.4835 C   0  0  0  0  0  0  0  0  0  0  0  0
    5.7803   -0.8363   -1.1300 H   0  0  0  0  0  0  0  0  0  0  0  0
    5.3382    0.0292    0.8181 C   0  0  0  0  0  0  0  0  0  0  0  0
    6.3608   -0.0976    1.2046 H   0  0  0  0  0  0  0  0  0  0  0  0
    4.3431    0.6161    1.6149 C   0  0  0  0  0  0  0  0  0  0  0  0
    4.5840    0.9526    2.6354 H   0  0  0  0  0  0  0  0  0  0  0  0
    3.0376    0.7790    1.1293 C   0  0  0  0  0  0  0  0  0  0  0  0
    2.2827    1.2313    1.7824 H   0  0  0  0  0  0  0  0  0  0  0  0
  2  1  1  6  0  0  0
  2 15  1  0  0  0  0
  3  4  1  0  0  0  0
  3  2  1  0  0  0  0
  3  6  1  0  0  0  0
  5  3  1  0  0  0  0
  6  9  1  0  0  0  0
  6  8  1  0  0  0  0
  7  6  1  0  0  0  0
  9 12  1  0  0  0  0
  9 10  1  0  0  0  0
 11  9  1  0  0  0  0
 12 13  1  0  0  0  0
 12 14  1  0  0  0  0
 15 16  1  6  0  0  0
 15 12  1  0  0  0  0
 16 18  1  0  0  0  0
 17 16  1  0  0  0  0
 18 27  1  0  0  0  0
 19 21  1  0  0  0  0
 19 18  2  0  0  0  0
 20 19  1  0  0  0  0
 21 23  2  0  0  0  0
 22 21  1  0  0  0  0
 23 24  1  0  0  0  0
 23 25  1  0  0  0  0
 25 26  1  0  0  0  0
 27 25  2  0  0  0  0
 27 28  1  0  0  0  0
M  END
