1,7
q = -2.0, confidence = 0.896

 20 20  0  0  1  0  0  0  0  0999 V2000
   -0.6756    0.3596   -0.8888 O   0  0  0  0  0  1  0  0  0  0  0  0
   -1.8525   -0.3212   -0.5342 C   0  0  2  0  0  0  0  0  0  0  0  0
   -3.0781    0.6107   -0.4428 C   0  0  2  0  0  0  0  0  0  0  0  0
   -4.0161   -0.1958    0.4663 C   0  0  0  0  0  0  0  0  0  0  0  0
   -3.0887   -0.7250    1.5784 C   0  0  0  0  0  0  0  0  0  0  0  0
   -1.7132   -0.9712    0.8875 C   0  0  2  0  0  0  0  0  0  0  0  0
   -0.4921   -0.3450    1.5821 C   0  0  0  0  0  3  0  0  0  0  0  0
   -3.6396    1.0452   -1.7896 C   0  0  0  0  0  0  0  0  0  0  0  0
   -2.0776   -1.1068   -1.3004 H   0  0  0  0  0  0  0  0  0  0  0  0
   -2.7374    1.5101    0.1201 H   0  0  0  0  0  0  0  0  0  0  0  0
   -4.4504   -1.0403   -0.1152 H   0  0  0  0  0  0  0  0  0  0  0  0
   -4.8684    0.4018    0.8503 H   0  0  0  0  0  0  0  0  0  0  0  0
   -3.4900   -1.6282    2.0803 H   0  0  0  0  0  0  0  0  0  0  0  0
   -2.9699    0.0515    2.3632 H   0  0  0  0  0  0  0  0  0  0  0  0
   -1.5564   -2.0623    0.7653 H   0  0  0  0  0  0  0  0  0  0  0  0
   -0.1437   -0.9422    2.4505 H   0  0  0  0  0  0  0  0  0  0  0  0
   -0.7728    0.6553    1.9694 H   0  0  0  0  0  0  0  0  0  0  0  0
   -2.8602    1.5587   -2.3886 H   0  0  0  0  0  0  0  0  0  0  0  0
   -4.4975    1.7394   -1.6771 H   0  0  0  0  0  0  0  0  0  0  0  0
   -3.9905    0.1671   -2.3733 H   0  0  0  0  0  0  0  0  0  0  0  0
  1  2  1  0  0  0  0
  2  9  1  6  0  0  0
  2  3  1  0  0  0  0
  2  6  1  0  0  0  0
  3 10  1  1  0  0  0
  3  4  1  0  0  0  0
  4 12  1  0  0  0  0
  4  5  1  0  0  0  0
  5 13  1  0  0  0  0
  5 14  1  0  0  0  0
  6 15  1  6  0  0  0
  6  5  1  0  0  0  0
  6  7  1  0  0  0  0
  7 17  1  0  0  0  0
  7 16  1  0  0  0  0
  8 19  1  0  0  0  0
  8  3  1  0  0  0  0
 11  4  1  0  0  0  0
 18  8  1  0  0  0  0
 20  8  1  0  0  0  0
M  END
