1,10
q = -2.0, confidence = 0.706

 22 22  0  0  1  0  0  0  0  0999 V2000
    0.7166    0.7536   -0.1603 O   0  0  0  0  0  1  0  0  0  0  0  0
   -0.9256   -2.8736   -0.0329 O   0  0  0  0  0  0  0  0  0  0  0  0
    1.9263    0.3382    0.3865 C   0  0  2  0  0  0  0  0  0  0  0  0
    3.1418    0.9950   -0.3029 C   0  0  2  0  0  0  0  0  0  0  0  0
    4.2756    0.0201    0.0359 C   0  0  0  0  0  0  0  0  0  0  0  0
    3.6347   -1.3575   -0.2026 C   0  0  0  0  0  0  0  0  0  0  0  0
    2.1596   -1.2145    0.2625 C   0  0  2  0  0  0  0  0  0  0  0  0
    1.1639   -1.8984   -0.6847 C   0  0  0  0  0  0  0  0  0  0  0  0
    3.3524    2.4534    0.0815 C   0  0  0  0  0  0  0  0  0  0  0  0
   -0.3068   -1.8396   -0.2291 C   0  0  0  0  0  3  0  0  0  0  0  0
    1.9697    0.6089    1.4729 H   0  0  0  0  0  0  0  0  0  0  0  0
    2.9439    0.9306   -1.3978 H   0  0  0  0  0  0  0  0  0  0  0  0
    4.5618    0.1411    1.1049 H   0  0  0  0  0  0  0  0  0  0  0  0
    5.1921    0.1872   -0.5655 H   0  0  0  0  0  0  0  0  0  0  0  0
    4.1644   -2.1852    0.3092 H   0  0  0  0  0  0  0  0  0  0  0  0
    3.6571   -1.5873   -1.2892 H   0  0  0  0  0  0  0  0  0  0  0  0
    2.0432   -1.6717    1.2674 H   0  0  0  0  0  0  0  0  0  0  0  0
    1.4273   -2.9720   -0.7977 H   0  0  0  0  0  0  0  0  0  0  0  0
    1.2304   -1.4176   -1.6851 H   0  0  0  0  0  0  0  0  0  0  0  0
    2.4456    3.0497   -0.1467 H   0  0  0  0  0  0  0  0  0  0  0  0
    4.2057    2.9066   -0.4628 H   0  0  0  0  0  0  0  0  0  0  0  0
    3.5567    2.5500    1.1696 H   0  0  0  0  0  0  0  0  0  0  0  0
  1  3  1  0  0  0  0
  3 11  1  1  0  0  0
  4 12  1  6  0  0  0
  4  5  1  0  0  0  0
  4  9  1  0  0  0  0
  4  3  1  0  0  0  0
  5 13  1  0  0  0  0
  6  5  1  0  0  0  0
  6  7  1  0  0  0  0
  6 15  1  0  0  0  0
  7  3  1  0  0  0  0
  7 17  1  1  0  0  0
  8 10  1  0  0  0  0
  8  7  1  0  0  0  0
  9 22  1  0  0  0  0
 10  2  2  0  0  0  0
 14  5  1  0  0  0  0
 16  6  1  0  0  0  0
 18  8  1  0  0  0  0
 19  8  1  0  0  0  0
 20  9  1  0  0  0  0
 21  9  1  0  0  0  0
M  END
