1,2,3
q = -1.0

 24 26  0  0  0  0  0  0  0  0999 V2000
    1.5708    0.0002   -0.8885 N   0  0  0  0  0  2  0  0  0  0  0  0
    0.6716   -0.0001    1.5497 N   0  0  0  0  0  2  0  0  0  0  0  0
   -0.5124    0.0003   -2.3476 O   0  5  0  0  0  0  0  0  0  0  0  0
    0.6746    0.0005   -4.2836 O   0  0  0  0  0  0  0  0  0  0  0  0
    0.6078    0.0004   -3.0648 C   0  0  0  0  0  0  0  0  0  0  0  0
    1.8623    0.0004   -2.1991 C   0  0  0  0  0  0  0  0  0  0  0  0
    3.2129    0.0005   -2.6130 C   0  0  0  0  0  0  0  0  0  0  0  0
    3.4198    0.0006   -3.6932 H   0  0  0  0  0  0  0  0  0  0  0  0
    4.2364    0.0004   -1.6566 C   0  0  0  0  0  0  0  0  0  0  0  0
    5.2904    0.0004   -1.9723 H   0  0  0  0  0  0  0  0  0  0  0  0
    3.9183    0.0002   -0.2655 C   0  0  0  0  0  0  0  0  0  0  0  0
    2.5399    0.0001    0.0628 C   0  0  0  0  0  0  0  0  0  0  0  0
    4.8363    0.0001    0.8451 C   0  0  0  0  0  0  0  0  0  0  0  0
    5.9177    0.0001    0.6423 H   0  0  0  0  0  0  0  0  0  0  0  0
    4.3800   -0.0001    2.1498 C   0  0  0  0  0  0  0  0  0  0  0  0
    5.1023   -0.0002    2.9798 H   0  0  0  0  0  0  0  0  0  0  0  0
    2.9728   -0.0002    2.4770 C   0  0  0  0  0  0  0  0  0  0  0  0
    2.0488   -0.0001    1.3984 C   0  0  0  0  0  0  0  0  0  0  0  0
    2.4270   -0.0004    3.7874 C   0  0  0  0  0  0  0  0  0  0  0  0
    3.0906   -0.0005    4.6648 H   0  0  0  0  0  0  0  0  0  0  0  0
    1.0396   -0.0005    3.9382 C   0  0  0  0  0  0  0  0  0  0  0  0
    0.5833   -0.0007    4.9382 H   0  0  0  0  0  0  0  0  0  0  0  0
    0.1931   -0.0004    2.8092 C   0  0  0  0  0  0  0  0  0  0  0  0
   -0.9018   -0.0004    2.9157 H   0  0  0  0  0  0  0  0  0  0  0  0
  1 12  1  0  0  0  0
  2 23  1  0  0  0  0
  4  5  2  0  0  0  0
  5  3  1  0  0  0  0
  5  6  1  0  0  0  0
  6  1  1  0  0  0  0
  7  6  2  0  0  0  0
  7  9  1  0  0  0  0
  8  7  1  0  0  0  0
  9 11  2  0  0  0  0
 10  9  1  0  0  0  0
 11 12  1  0  0  0  0
 11 13  1  0  0  0  0
 12 18  2  0  0  0  0
 13 15  2  0  0  0  0
 14 13  1  0  0  0  0
 15 17  1  0  0  0  0
 15 16  1  0  0  0  0
 17 19  2  0  0  0  0
 18  2  1  0  0  0  0
 18 17  1  0  0  0  0
 19 21  1  0  0  0  0
 19 20  1  0  0  0  0
 21 22  1  0  0  0  0
 23 24  1  0  0  0  0
 23 21  2  0  0  0  0
M  CHG  1   3  -1
M  END
