2,3,4
q = -1.0

 27 28  0  0  0  0  0  0  0  0999 V2000
    6.2477    0.3126   -0.0472 Br  0  0  0  0  0  0  0  0  0  0  0  0
    0.4648   -1.5026    0.0673 O   0  5  0  0  0  0  0  0  0  0  0  0
   -2.7970    0.9181   -0.8139 N   0  0  0  0  0  0  0  0  0  0  0  0
   -0.2074    1.3824   -0.2969 N   0  0  0  0  0  2  0  0  0  0  0  0
   -2.4092    2.2940   -0.5652 C   0  0  0  0  0  0  0  0  0  0  0  0
   -3.3338    3.3432   -0.5574 C   0  0  0  0  0  0  0  0  0  0  0  0
   -4.3974    3.1305   -0.7496 H   0  0  0  0  0  0  0  0  0  0  0  0
   -2.9013    4.6544   -0.3053 C   0  0  0  0  0  0  0  0  0  0  0  0
   -3.6269    5.4802   -0.2861 H   0  0  0  0  0  0  0  0  0  0  0  0
   -1.5382    4.8972   -0.0678 C   0  0  0  0  0  0  0  0  0  0  0  0
   -1.1926    5.9192    0.1476 H   0  0  0  0  0  0  0  0  0  0  0  0
   -0.6116    3.8478   -0.0724 C   0  0  0  0  0  0  0  0  0  0  0  0
    0.4404    4.0552    0.1652 H   0  0  0  0  0  0  0  0  0  0  0  0
   -1.0329    2.5242   -0.3230 C   0  0  0  0  0  0  0  0  0  0  0  0
    1.1050    1.4559   -0.2836 C   0  0  0  0  0  3  0  0  0  0  0  0
    1.5662    2.4563   -0.3805 H   0  0  0  0  0  0  0  0  0  0  0  0
    2.0306    0.3729   -0.1504 C   0  0  0  0  0  0  0  0  0  0  0  0
    3.4139    0.7355   -0.1724 C   0  0  0  0  0  0  0  0  0  0  0  0
    3.6778    1.7940   -0.3150 H   0  0  0  0  0  0  0  0  0  0  0  0
    4.4146   -0.2075   -0.0133 C   0  0  0  0  0  0  0  0  0  0  0  0
    4.0795   -1.5717    0.1834 C   0  0  0  0  0  0  0  0  0  0  0  0
    4.8774   -2.3176    0.3113 H   0  0  0  0  0  0  0  0  0  0  0  0
    2.7488   -1.9553    0.2103 C   0  0  0  0  0  0  0  0  0  0  0  0
    2.4726   -3.0098    0.3564 H   0  0  0  0  0  0  0  0  0  0  0  0
    1.6730   -1.0228    0.0377 C   0  0  0  0  0  0  0  0  0  0  0  0
   -2.7298    0.7087   -1.8370 H   0  0  0  0  0  0  0  0  0  0  0  0
   -3.7667    0.7516   -0.5133 H   0  0  0  0  0  0  0  0  0  0  0  0
  1 20  1  0  0  0  0
  3  5  1  0  0  0  0
  3 27  1  0  0  0  0
  4 15  1  0  0  0  0
  5  6  2  0  0  0  0
  5 14  1  0  0  0  0
  6  8  1  0  0  0  0
  7  6  1  0  0  0  0
  8  9  1  0  0  0  0
  8 10  2  0  0  0  0
 10 11  1  0  0  0  0
 12 10  1  0  0  0  0
 12 13  1  0  0  0  0
 14  4  1  0  0  0  0
 14 12  2  0  0  0  0
 15 17  1  0  0  0  0
 16 15  1  0  0  0  0
 17 25  1  0  0  0  0
 18 17  2  0  0  0  0
 18 20  1  0  0  0  0
 19 18  1  0  0  0  0
 20 21  2  0  0  0  0
 21 23  1  0  0  0  0
 21 22  1  0  0  0  0
 23 24  1  0  0  0  0
 25  2  1  0  0  0  0
 25 23  2  0  0  0  0
 26  3  1  0  0  0  0
M  CHG  1   2  -1
M  END
