3,7,8
q = -1.0, confidence = 0.0

 27 28  0  0  1  0  0  0  0  0999 V2000
   -4.3060   -0.1018    2.8344 F   0  0  0  0  0  0  0  0  0  0  0  0
   -2.9851   -1.8369    2.9666 F   0  0  0  0  0  0  0  0  0  0  0  0
   -1.4190   -0.6180    0.9125 O   0  5  0  0  0  0  0  0  0  0  0  0
   -4.0111   -1.3895    1.0951 F   0  0  0  0  0  0  0  0  0  0  0  0
    1.9593    0.6176   -2.1349 C   0  0  0  0  0  0  0  0  0  0  0  0
    1.6751    3.6044    1.5682 C   0  0  0  0  0  0  0  0  0  0  0  0
    1.4171    1.0023   -0.9755 N   0  0  0  0  0  2  0  0  0  0  0  0
    0.0863    1.7077    1.0941 N   0  0  0  0  0  2  0  0  0  0  0  0
    1.2025    2.5066    0.8371 C   0  0  0  0  0  0  0  0  0  0  0  0
    1.9122    2.1101   -0.3357 C   0  0  2  0  0  3  0  0  0  0  0  0
   -2.1913    0.0098    1.7098 C   0  0  0  0  0  0  0  0  0  0  0  0
    3.0385    2.8421   -0.8189 C   0  0  0  0  0  0  0  0  0  0  0  0
    3.6225    2.3875   -2.0372 C   0  0  0  0  0  0  0  0  0  0  0  0
   -2.0321    1.3134    2.2031 C   0  0  0  0  0  0  0  0  0  0  0  0
    3.0722    1.2918   -2.6906 C   0  0  0  0  0  0  0  0  0  0  0  0
    3.4840    3.9597   -0.0557 C   0  0  0  0  0  0  0  0  0  0  0  0
   -3.3949   -0.8345    2.1545 C   0  0  0  0  0  0  0  0  0  0  0  0
    2.8125    4.3148    1.1120 C   0  0  0  0  0  0  0  0  0  0  0  0
   -0.9117    2.0960    1.8845 C   0  0  0  0  0  3  0  0  0  0  0  0
    1.4881   -0.2404   -2.6321 H   0  0  0  0  0  0  0  0  0  0  0  0
    1.1766    3.9155    2.4970 H   0  0  0  0  0  0  0  0  0  0  0  0
    4.4925    2.9175   -2.4536 H   0  0  0  0  0  0  0  0  0  0  0  0
   -2.8063    1.7343    2.8539 H   0  0  0  0  0  0  0  0  0  0  0  0
    3.4846    0.9334   -3.6444 H   0  0  0  0  0  0  0  0  0  0  0  0
    4.3625    4.5276   -0.3956 H   0  0  0  0  0  0  0  0  0  0  0  0
    3.1691    5.1727    1.7018 H   0  0  0  0  0  0  0  0  0  0  0  0
   -0.8590    3.1157    2.3095 H   0  0  0  0  0  0  0  0  0  0  0  0
  3 11  1  0  0  0  0
  4 17  1  0  0  0  0
  5  7  1  0  0  0  0
  6 21  1  0  0  0  0
  8 19  1  0  0  0  0
  9  8  1  0  0  0  0
  9  6  2  0  0  0  0
 10  7  1  6  0  0  0
 10  9  1  0  0  0  0
 11 17  1  0  0  0  0
 11 14  2  0  0  0  0
 12 10  1  0  0  0  0
 12 16  1  0  0  0  0
 13 12  2  0  0  0  0
 14 23  1  0  0  0  0
 15  5  2  0  0  0  0
 15 13  1  0  0  0  0
 16 18  2  0  0  0  0
 17  1  1  0  0  0  0
 17  2  1  0  0  0  0
 18  6  1  0  0  0  0
 18 26  1  0  0  0  0
 19 14  1  0  0  0  0
 19 27  1  0  0  0  0
 20  5  1  0  0  0  0
 22 13  1  0  0  0  0
 24 15  1  0  0  0  0
 25 16  1  0  0  0  0
M  CHG  1   3  -1
M  END
