25,27,29
q = -1.0

 29 31  0  0  0  0  0  0  0  0999 V2000
    4.1775   -2.6225    1.6848 C   0  0  0  0  0  0  0  0  0  0  0  0
    4.7474   -3.3420    2.2942 H   0  0  0  0  0  0  0  0  0  0  0  0
    4.9000   -1.8388    0.7206 C   0  0  0  0  0  0  0  0  0  0  0  0
    4.1982   -0.8852   -0.1055 C   0  0  0  0  0  0  0  0  0  0  0  0
    4.9547   -0.1346   -1.0480 C   0  0  0  0  0  0  0  0  0  0  0  0
    4.4249    0.5865   -1.6799 H   0  0  0  0  0  0  0  0  0  0  0  0
    6.3331   -0.3149   -1.1655 C   0  0  0  0  0  0  0  0  0  0  0  0
    6.8910    0.2802   -1.9049 H   0  0  0  0  0  0  0  0  0  0  0  0
    7.0181   -1.2466   -0.3559 C   0  0  0  0  0  0  0  0  0  0  0  0
    8.1053   -1.3803   -0.4589 H   0  0  0  0  0  0  0  0  0  0  0  0
    6.3018   -1.9963    0.5732 C   0  0  0  0  0  0  0  0  0  0  0  0
    6.8162   -2.7302    1.2135 H   0  0  0  0  0  0  0  0  0  0  0  0
   -1.1134    2.0885   -1.9612 C   0  0  0  0  0  3  0  0  0  0  0  0
   -2.0828    1.8678   -1.4899 H   0  0  0  0  0  0  0  0  0  0  0  0
   -0.9913    3.0223   -2.9941 C   0  0  0  0  0  0  0  0  0  0  0  0
   -1.8838    3.5541   -3.3508 H   0  0  0  0  0  0  0  0  0  0  0  0
    0.2800    3.2549   -3.5517 C   0  0  0  0  0  0  0  0  0  0  0  0
    0.4078    3.9833   -4.3661 H   0  0  0  0  0  0  0  0  0  0  0  0
    1.3808    2.5491   -3.0638 C   0  0  0  0  0  0  0  0  0  0  0  0
    2.3934    2.6881   -3.4649 H   0  0  0  0  0  0  0  0  0  0  0  0
    1.2082    1.6129   -2.0198 C   0  0  0  0  0  0  0  0  0  0  0  0
    2.8200   -2.4993    1.8636 C   0  0  0  0  0  0  0  0  0  0  0  0
    2.2666   -3.0979    2.6007 H   0  0  0  0  0  0  0  0  0  0  0  0
    2.0743   -1.5623    1.0731 C   0  0  0  0  0  0  0  0  0  0  0  0
    0.7937   -1.4336    1.2458 O   0  5  0  0  0  0  0  0  0  0  0  0
    2.7691   -0.7635    0.0887 C   0  0  0  0  0  0  0  0  0  0  0  0
    1.8885    0.0721   -0.5761 N   0  0  0  0  0  2  0  0  0  0  0  0
    2.2703    0.9040   -1.5273 N   0  0  0  0  0  2  0  0  0  0  0  0
   -0.0535    1.4024   -1.4779 N   0  0  0  0  0  2  0  0  0  0  0  0
  1 22  1  0  0  0  0
  1  2  1  0  0  0  0
  3  1  2  0  0  0  0
  4 26  2  0  0  0  0
  4  3  1  0  0  0  0
  5  4  1  0  0  0  0
  6  5  1  0  0  0  0
  7  5  2  0  0  0  0
  7  9  1  0  0  0  0
  8  7  1  0  0  0  0
  9 11  2  0  0  0  0
 10  9  1  0  0  0  0
 11  3  1  0  0  0  0
 11 12  1  0  0  0  0
 13 14  1  0  0  0  0
 13 29  1  0  0  0  0
 15 13  1  0  0  0  0
 16 15  1  0  0  0  0
 17 19  1  0  0  0  0
 17 15  2  0  0  0  0
 18 17  1  0  0  0  0
 19 21  2  0  0  0  0
 20 19  1  0  0  0  0
 21 28  1  0  0  0  0
 21 29  1  0  0  0  0
 22 23  1  0  0  0  0
 24 25  1  0  0  0  0
 24 22  2  0  0  0  0
 26 24  1  0  0  0  0
 27 26  1  0  0  0  0
 28 27  1  0  0  0  0
M  CHG  1  25  -1
M  END
