1,2,4
q = -1.0

 29 31  0  0  0  0  0  0  0  0999 V2000
    0.3434   -1.8314   -0.8655 O   0  5  0  0  0  0  0  0  0  0  0  0
    1.1898    0.5518   -0.1627 N   0  0  0  0  0  2  0  0  0  0  0  0
    1.4377    1.8059    0.1726 N   0  0  0  0  0  0  0  0  0  0  0  0
   -0.9196    1.9439   -0.1146 N   0  0  0  0  0  2  0  0  0  0  0  0
    1.6185   -1.6868   -0.6821 C   0  0  0  0  0  0  0  0  0  0  0  0
    2.5040   -2.8039   -0.8603 C   0  0  0  0  0  0  0  0  0  0  0  0
    2.0567   -3.7588   -1.1704 H   0  0  0  0  0  0  0  0  0  0  0  0
    3.8533   -2.6590   -0.6459 C   0  0  0  0  0  0  0  0  0  0  0  0
    4.5268   -3.5200   -0.7839 H   0  0  0  0  0  0  0  0  0  0  0  0
    4.4368   -1.4083   -0.2433 C   0  0  0  0  0  0  0  0  0  0  0  0
    5.8349   -1.3052   -0.0300 C   0  0  0  0  0  0  0  0  0  0  0  0
    6.4545   -2.2035   -0.1802 H   0  0  0  0  0  0  0  0  0  0  0  0
    6.4192   -0.1024    0.3580 C   0  0  0  0  0  0  0  0  0  0  0  0
    7.5058   -0.0378    0.5187 H   0  0  0  0  0  0  0  0  0  0  0  0
    5.6011    1.0337    0.5386 C   0  0  0  0  0  0  0  0  0  0  0  0
    6.0541    1.9907    0.8405 H   0  0  0  0  0  0  0  0  0  0  0  0
    4.2223    0.9682    0.3363 C   0  0  0  0  0  0  0  0  0  0  0  0
    3.5905    1.8531    0.4711 H   0  0  0  0  0  0  0  0  0  0  0  0
    3.5979   -0.2486   -0.0567 C   0  0  0  0  0  0  0  0  0  0  0  0
    2.1773   -0.4098   -0.2847 C   0  0  0  0  0  0  0  0  0  0  0  0
    0.2899    2.5539    0.1860 C   0  0  0  0  0  0  0  0  0  0  0  0
    0.3262    3.9310    0.5039 C   0  0  0  0  0  0  0  0  0  0  0  0
    1.3007    4.3802    0.7370 H   0  0  0  0  0  0  0  0  0  0  0  0
   -0.8569    4.6712    0.5059 C   0  0  0  0  0  0  0  0  0  0  0  0
   -0.8356    5.7440    0.7492 H   0  0  0  0  0  0  0  0  0  0  0  0
   -2.0724    4.0357    0.1894 C   0  0  0  0  0  0  0  0  0  0  0  0
   -3.0235    4.5852    0.1754 H   0  0  0  0  0  0  0  0  0  0  0  0
   -2.0546    2.6716   -0.1189 C   0  0  0  0  0  0  0  0  0  0  0  0
   -2.9702    2.1216   -0.3827 H   0  0  0  0  0  0  0  0  0  0  0  0
  1  5  1  0  0  0  0
  2  3  1  0  0  0  0
  3 21  2  0  0  0  0
  4 21  1  0  0  0  0
  5 20  1  0  0  0  0
  6  5  2  0  0  0  0
  6  8  1  0  0  0  0
  7  6  1  0  0  0  0
  8 10  2  0  0  0  0
  9  8  1  0  0  0  0
 10 19  1  0  0  0  0
 10 11  1  0  0  0  0
 11 13  2  0  0  0  0
 12 11  1  0  0  0  0
 13 14  1  0  0  0  0
 13 15  1  0  0  0  0
 15 16  1  0  0  0  0
 17 18  1  0  0  0  0
 17 15  2  0  0  0  0
 19 17  1  0  0  0  0
 20  2  1  0  0  0  0
 20 19  2  0  0  0  0
 21 22  1  0  0  0  0
 22 24  2  0  0  0  0
 22 23  1  0  0  0  0
 24 25  1  0  0  0  0
 26 24  1  0  0  0  0
 27 26  1  0  0  0  0
 28  4  1  0  0  0  0
 28 26  2  0  0  0  0
 29 28  1  0  0  0  0
M  CHG  1   1  -1
M  END
