1,2,5
q = -1.0, confidence = 0.0

 29 30  0  0  1  0  0  0  0  0999 V2000
   -0.2138   -2.5632   -0.9647 N   0  0  0  0  0  2  0  0  0  0  0  0
   -1.5412   -0.3391   -1.5164 N   0  0  0  0  0  2  0  0  0  0  0  0
   -2.0895    0.8666   -1.6298 N   0  0  0  0  0  0  0  0  0  0  0  0
   -3.1359    5.7284   -0.6458 N   0  0  0  0  0  0  0  0  0  0  0  0
   -0.6738    1.4013    0.1619 O   0  5  0  0  0  0  0  0  0  0  0  0
    0.4881   -3.6613   -0.6507 C   0  0  0  0  0  3  0  0  0  0  0  0
    1.1650   -3.5757    0.2158 H   0  0  0  0  0  0  0  0  0  0  0  0
    0.3872   -4.8601   -1.3688 C   0  0  0  0  0  0  0  0  0  0  0  0
    0.9851   -5.7346   -1.0775 H   0  0  0  0  0  0  0  0  0  0  0  0
   -0.4932   -4.8995   -2.4619 C   0  0  0  0  0  0  0  0  0  0  0  0
   -0.6051   -5.8190   -3.0556 H   0  0  0  0  0  0  0  0  0  0  0  0
   -1.2289   -3.7571   -2.7942 C   0  0  0  0  0  0  0  0  0  0  0  0
   -1.9210   -3.7674   -3.6467 H   0  0  0  0  0  0  0  0  0  0  0  0
   -1.0745   -2.5803   -2.0269 C   0  0  0  0  0  0  0  0  0  0  0  0
   -1.8092   -1.3382   -2.3300 C   0  0  2  0  0  3  0  0  0  0  0  0
   -2.7569   -1.2303   -3.4824 C   0  0  0  0  0  0  0  0  0  0  0  0
   -3.5803   -1.9706   -3.4073 H   0  0  0  0  0  0  0  0  0  0  0  0
   -2.2410   -1.4119   -4.4485 H   0  0  0  0  0  0  0  0  0  0  0  0
   -3.1882   -0.2133   -3.4968 H   0  0  0  0  0  0  0  0  0  0  0  0
   -1.5713    1.7122   -0.6894 C   0  0  0  0  0  0  0  0  0  0  0  0
   -2.1206    3.0950   -0.6921 C   0  0  0  0  0  0  0  0  0  0  0  0
   -3.1105    3.5049   -1.6070 C   0  0  0  0  0  0  0  0  0  0  0  0
   -3.4962    2.7962   -2.3523 H   0  0  0  0  0  0  0  0  0  0  0  0
   -3.5782    4.8258   -1.5372 C   0  0  0  0  0  0  0  0  0  0  0  0
   -4.3539    5.1740   -2.2421 H   0  0  0  0  0  0  0  0  0  0  0  0
   -2.1907    5.3312    0.2219 C   0  0  0  0  0  0  0  0  0  0  0  0
   -1.8402    6.0898    0.9445 H   0  0  0  0  0  0  0  0  0  0  0  0
   -1.6514    4.0371    0.2436 C   0  0  0  0  0  0  0  0  0  0  0  0
   -0.8772    3.7454    0.9674 H   0  0  0  0  0  0  0  0  0  0  0  0
  1  6  1  0  0  0  0
  3  2  1  0  0  0  0
  3 20  2  0  0  0  0
  4 26  1  0  0  0  0
  6  7  1  0  0  0  0
  8  9  1  0  0  0  0
  8  6  1  0  0  0  0
 10  8  2  0  0  0  0
 11 10  1  0  0  0  0
 12 10  1  0  0  0  0
 12 14  2  0  0  0  0
 13 12  1  0  0  0  0
 14  1  1  0  0  0  0
 15 14  1  0  0  0  0
 15  2  1  6  0  0  0
 16 17  1  0  0  0  0
 16 15  1  0  0  0  0
 18 16  1  0  0  0  0
 19 16  1  0  0  0  0
 20  5  1  0  0  0  0
 21 20  1  0  0  0  0
 21 28  1  0  0  0  0
 22 24  1  0  0  0  0
 22 21  2  0  0  0  0
 23 22  1  0  0  0  0
 24  4  2  0  0  0  0
 25 24  1  0  0  0  0
 26 28  2  0  0  0  0
 26 27  1  0  0  0  0
 28 29  1  0  0  0  0
M  CHG  1   5  -1
M  END
