1,2,3
q = -2.0, confidence = 0.962

 32 34  0  0  1  0  0  0  0  0999 V2000
    1.2972   -0.1967    1.1265 N   0  0  0  0  0  2  0  0  0  0  0  0
    1.7051    1.7670   -0.8009 N   0  0  0  0  0  2  0  0  0  0  0  0
    0.8901   -1.4669   -1.7455 O   0  5  0  0  0  0  0  0  0  0  0  0
   -0.9125   -2.2372   -2.8790 O   0  0  0  0  0  0  0  0  0  0  0  0
    0.9152   -2.6211    0.9348 O   0  0  0  0  0  0  0  0  0  0  0  0
    3.0755   -2.6714    0.1674 O   0  0  0  0  0  0  0  0  0  0  0  0
    1.1227   -1.3584    1.8963 C   0  0  1  0  0  0  0  0  0  0  0  0
    0.0975   -1.4107    2.3185 H   0  0  0  0  0  0  0  0  0  0  0  0
    2.1699   -1.6314    2.9106 C   0  0  0  0  0  0  0  0  0  0  0  0
    1.9653   -2.4078    3.6630 H   0  0  0  0  0  0  0  0  0  0  0  0
    3.3547   -0.9613    2.8831 C   0  0  0  0  0  0  0  0  0  0  0  0
    4.1433   -1.1836    3.6199 H   0  0  0  0  0  0  0  0  0  0  0  0
    3.5978    0.0648    1.9009 C   0  0  0  0  0  0  0  0  0  0  0  0
    4.8288    0.7662    1.8060 C   0  0  0  0  0  0  0  0  0  0  0  0
    5.6399    0.4786    2.4945 H   0  0  0  0  0  0  0  0  0  0  0  0
    5.0339    1.7815    0.8848 C   0  0  0  0  0  0  0  0  0  0  0  0
    5.9966    2.3096    0.8220 H   0  0  0  0  0  0  0  0  0  0  0  0
    3.9830    2.1424   -0.0067 C   0  0  0  0  0  0  0  0  0  0  0  0
    4.1155    3.1587   -0.9920 C   0  0  0  0  0  0  0  0  0  0  0  0
    5.0708    3.7023   -1.0676 H   0  0  0  0  0  0  0  0  0  0  0  0
    3.0646    3.4511   -1.8520 C   0  0  0  0  0  0  0  0  0  0  0  0
    3.1556    4.2242   -2.6284 H   0  0  0  0  0  0  0  0  0  0  0  0
    1.8641    2.7148   -1.7249 C   0  0  0  0  0  0  0  0  0  0  0  0
    1.0146    2.8864   -2.4078 H   0  0  0  0  0  0  0  0  0  0  0  0
    2.7156    1.4556    0.0595 C   0  0  2  0  0  3  0  0  0  0  0  0
    2.5070    0.3942    1.0372 C   0  0  0  0  0  0  0  0  0  0  0  0
    0.1658   -2.4009   -2.2309 C   0  0  0  0  0  0  0  0  0  0  0  0
    0.6363   -3.7946   -1.9386 C   0  0  0  0  0  0  0  0  0  0  0  0
    0.2911   -4.6005   -2.6059 H   0  0  0  0  0  0  0  0  0  0  0  0
    1.4030   -4.0597   -0.8561 C   0  0  0  0  0  0  0  0  0  0  0  0
    1.7359   -5.0920   -0.6504 H   0  0  0  0  0  0  0  0  0  0  0  0
    1.9093   -3.0131    0.1124 C   0  0  0  0  0  0  0  0  0  0  0  0
  1  7  1  0  0  0  0
  4 27  2  0  0  0  0
  5  7  1  0  0  0  0
  7  8  1  1  0  0  0
  7  9  1  0  0  0  0
  9 10  1  0  0  0  0
 11  9  2  0  0  0  0
 11 12  1  0  0  0  0
 13 11  1  0  0  0  0
 14 13  1  0  0  0  0
 14 15  1  0  0  0  0
 16 14  2  0  0  0  0
 17 16  1  0  0  0  0
 18 25  1  0  0  0  0
 18 16  1  0  0  0  0
 19 18  2  0  0  0  0
 20 19  1  0  0  0  0
 21 23  2  0  0  0  0
 21 19  1  0  0  0  0
 22 21  1  0  0  0  0
 23  2  1  0  0  0  0
 24 23  1  0  0  0  0
 25  2  1  6  0  0  0
 25 26  1  0  0  0  0
 26  1  1  0  0  0  0
 26 13  2  0  0  0  0
 27 28  1  0  0  0  0
 27  3  1  0  0  0  0
 28 30  2  0  0  0  0
 29 28  1  0  0  0  0
 30 31  1  0  0  0  0
 30 32  1  0  0  0  0
 32  6  2  0  0  0  0
 32  5  1  0  0  0  0
M  CHG  1   3  -1
M  END
