1,3,4
q = -2.0, confidence = 0.916

 21 20  0  0  1  0  0  0  0  0999 V2000
    1.5062    0.0812   -1.2916 N   0  0  0  0  0  0  0  0  0  0  0  0
    1.3484   -0.6067   -2.0391 H   0  0  0  0  0  0  0  0  0  0  0  0
    0.0145    1.9090   -0.0132 O   0  5  0  0  0  0  0  0  0  0  0  0
    1.4041    0.0041    1.3200 N   0  0  0  0  0  2  0  0  0  0  0  0
    1.1917    0.1111    2.6032 O   0  0  0  0  0  1  0  0  0  0  0  0
    0.8926    3.6649   -1.1201 O   0  0  0  0  0  0  0  0  0  0  0  0
    2.6320   -0.0435    0.8740 C   0  0  1  0  0  3  0  0  0  0  0  0
    1.4962    1.4531   -1.8488 C   0  0  0  0  0  0  0  0  0  0  0  0
    0.9432    1.4474   -2.8116 H   0  0  0  0  0  0  0  0  0  0  0  0
    2.5198    1.8173   -2.0727 H   0  0  0  0  0  0  0  0  0  0  0  0
    3.7952    0.0023    1.8091 C   0  0  0  0  0  0  0  0  0  0  0  0
    3.6979    0.8707    2.4924 H   0  0  0  0  0  0  0  0  0  0  0  0
    4.7541    0.0710    1.2617 H   0  0  0  0  0  0  0  0  0  0  0  0
    3.8156   -0.8995    2.4584 H   0  0  0  0  0  0  0  0  0  0  0  0
    3.0936   -1.7890   -0.8725 C   0  0  0  0  0  0  0  0  0  0  0  0
    4.0201   -2.0816   -0.3419 H   0  0  0  0  0  0  0  0  0  0  0  0
    3.2576   -1.9679   -1.9561 H   0  0  0  0  0  0  0  0  0  0  0  0
    2.2612   -2.4232   -0.5085 H   0  0  0  0  0  0  0  0  0  0  0  0
    2.7763   -0.3122   -0.5996 C   0  0  1  0  0  0  0  0  0  0  0  0
    3.6021    0.3159   -1.0072 H   0  0  0  0  0  0  0  0  0  0  0  0
    0.7788    2.4638   -0.9221 C   0  0  0  0  0  0  0  0  0  0  0  0
  1 19  1  0  0  0  0
  2  1  1  0  0  0  0
  4  5  1  0  0  0  0
  6 21  2  0  0  0  0
  7  4  1  1  0  0  0
  7 11  1  0  0  0  0
  8  1  1  0  0  0  0
  8 21  1  0  0  0  0
  9  8  1  0  0  0  0
 10  8  1  0  0  0  0
 11 14  1  0  0  0  0
 11 12  1  0  0  0  0
 13 11  1  0  0  0  0
 15 19  1  0  0  0  0
 15 18  1  0  0  0  0
 15 16  1  0  0  0  0
 17 15  1  0  0  0  0
 19 20  1  6  0  0  0
 19  7  1  0  0  0  0
 21  3  1  0  0  0  0
M  CHG  1   3  -1
M  END
