2,5,15
q = -1.0, confidence = 0.0

 24 25  0  0  1  0  0  0  0  0999 V2000
    2.4128   -0.1027    1.1520 C   0  0  2  0  0  0  0  0  0  0  0  0
    1.1848   -0.0217    1.7514 O   0  0  0  0  0  1  0  0  0  0  0  0
    3.4713   -0.1761    2.0840 O   0  0  0  0  0  0  0  0  0  0  0  0
    3.0324   -0.5035    2.8948 H   0  0  0  0  0  0  0  0  0  0  0  0
    1.5424    1.4279   -0.4914 N   0  0  0  0  0  2  0  0  0  0  0  0
    2.6288    1.1369    0.2501 C   0  0  1  0  0  3  0  0  0  0  0  0
    3.7849    1.9238    0.1981 C   0  0  0  0  0  0  0  0  0  0  0  0
    4.6436    1.6583    0.8295 H   0  0  0  0  0  0  0  0  0  0  0  0
    3.7868    3.0397   -0.6537 C   0  0  0  0  0  0  0  0  0  0  0  0
    4.6744    3.6882   -0.7147 H   0  0  0  0  0  0  0  0  0  0  0  0
    2.6511    3.3227   -1.4301 C   0  0  0  0  0  0  0  0  0  0  0  0
    2.6258    4.1840   -2.1127 H   0  0  0  0  0  0  0  0  0  0  0  0
    1.5342    2.4820   -1.3209 C   0  0  0  0  0  0  0  0  0  0  0  0
    0.6087    2.6330   -1.9003 H   0  0  0  0  0  0  0  0  0  0  0  0
    1.2720   -1.4716   -0.4873 N   0  0  0  0  0  2  0  0  0  0  0  0
    2.4186   -1.3427    0.2130 C   0  0  2  0  0  3  0  0  0  0  0  0
    3.4487   -2.2769    0.0733 C   0  0  0  0  0  0  0  0  0  0  0  0
    4.3643   -2.1443    0.6665 H   0  0  0  0  0  0  0  0  0  0  0  0
    3.2576   -3.3542   -0.8066 C   0  0  0  0  0  0  0  0  0  0  0  0
    4.0444   -4.1138   -0.9312 H   0  0  0  0  0  0  0  0  0  0  0  0
    2.0573   -3.4585   -1.5290 C   0  0  0  0  0  0  0  0  0  0  0  0
    1.8813   -4.2869   -2.2292 H   0  0  0  0  0  0  0  0  0  0  0  0
    1.0657   -2.4866   -1.3435 C   0  0  0  0  0  0  0  0  0  0  0  0
    0.0960   -2.4845   -1.8647 H   0  0  0  0  0  0  0  0  0  0  0  0
  1  2  1  1  0  0  0
  1  3  1  0  0  0  0
  3  4  1  0  0  0  0
  5  6  1  0  0  0  0
  6  1  1  1  0  0  0
  7  6  1  0  0  0  0
  7  8  1  0  0  0  0
  9  7  2  0  0  0  0
 10  9  1  0  0  0  0
 11 13  2  0  0  0  0
 11  9  1  0  0  0  0
 12 11  1  0  0  0  0
 13  5  1  0  0  0  0
 14 13  1  0  0  0  0
 15 16  1  0  0  0  0
 16  1  1  1  0  0  0
 17 16  1  0  0  0  0
 17 18  1  0  0  0  0
 19 17  2  0  0  0  0
 20 19  1  0  0  0  0
 21 23  2  0  0  0  0
 21 19  1  0  0  0  0
 22 21  1  0  0  0  0
 23 15  1  0  0  0  0
 24 23  1  0  0  0  0
M  END
