1,3,23
q = 0.0, confidence = 0.59

 23 24  0  0  1  0  0  0  0  0999 V2000
   -1.1738   -0.2764   -1.6586 O   0  5  0  0  0  0  0  0  0  0  0  0
   -3.2888   -1.0373   -2.2116 O   0  5  0  0  0  0  0  0  0  0  0  0
   -1.0646   -1.7315    0.5065 N   0  0  0  0  0  2  0  0  0  0  0  0
   -0.6070   -2.6740    1.3534 C   0  0  0  0  0  3  0  0  0  0  0  0
    0.3000   -2.4240    1.9237 H   0  0  0  0  0  0  0  0  0  0  0  0
   -1.2834   -3.8930    1.4636 C   0  0  0  0  0  0  0  0  0  0  0  0
   -0.9086   -4.6591    2.1568 H   0  0  0  0  0  0  0  0  0  0  0  0
   -2.4235   -4.1187    0.6673 C   0  0  0  0  0  0  0  0  0  0  0  0
   -2.9549   -5.0813    0.7303 H   0  0  0  0  0  0  0  0  0  0  0  0
   -2.8660   -3.1162   -0.2043 C   0  0  0  0  0  0  0  0  0  0  0  0
   -3.7262   -3.2107   -0.8854 H   0  0  0  0  0  0  0  0  0  0  0  0
   -2.1542   -1.9149   -0.2541 C   0  0  0  0  0  0  0  0  0  0  0  0
   -2.5089   -0.7368   -1.2401 C   0  0  0  0  0  0  0  0  0  0  0  0
   -3.0033    0.4339   -0.3115 C   0  0  2  0  0  3  0  0  0  0  0  0
   -4.3113    0.9264   -0.3671 C   0  0  0  0  0  0  0  0  0  0  0  0
   -4.9971    0.4410   -1.0784 H   0  0  0  0  0  0  0  0  0  0  0  0
   -4.6476    2.0115    0.4526 C   0  0  0  0  0  0  0  0  0  0  0  0
   -5.6655    2.4322    0.4355 H   0  0  0  0  0  0  0  0  0  0  0  0
   -3.6718    2.5668    1.3028 C   0  0  0  0  0  0  0  0  0  0  0  0
   -3.9038    3.4169    1.9602 H   0  0  0  0  0  0  0  0  0  0  0  0
   -2.3817    2.0219    1.2964 C   0  0  0  0  0  0  0  0  0  0  0  0
   -1.5642    2.4042    1.9291 H   0  0  0  0  0  0  0  0  0  0  0  0
   -2.0826    0.9821    0.4977 N   0  0  0  0  0  2  0  0  0  0  0  0
  1 13  1  0  0  0  0
  2 13  1  0  0  0  0
  3  4  1  0  0  0  0
  4  6  1  0  0  0  0
  4  5  1  0  0  0  0
  6  7  1  0  0  0  0
  8  9  1  0  0  0  0
  8  6  2  0  0  0  0
 10  8  1  0  0  0  0
 11 10  1  0  0  0  0
 12 10  2  0  0  0  0
 12  3  1  0  0  0  0
 13 12  1  0  0  0  0
 14 13  1  6  0  0  0
 14 23  1  0  0  0  0
 15 14  1  0  0  0  0
 15 17  2  0  0  0  0
 16 15  1  0  0  0  0
 17 19  1  0  0  0  0
 18 17  1  0  0  0  0
 19 20  1  0  0  0  0
 21 19  2  0  0  0  0
 21 22  1  0  0  0  0
 23 21  1  0  0  0  0
M  CHG  2   1  -1   2  -1
M  END
