1,2,3
q = -1.0

 14 13  0  0  1  0  0  0  0  0999 V2000
    1.6661   -0.9985    0.0370 N   0  0  0  0  0  0  0  0  0  0  0  0
   -0.5623   -1.4500    1.5160 N   0  0  0  0  0  0  0  0  0  0  0  0
   -0.6337   -1.2038   -1.0860 O   0  5  0  0  0  0  0  0  0  0  0  0
    1.1111   -2.3766    0.0120 C   0  0  1  0  0  0  0  0  0  0  0  0
    2.4064   -0.8876    0.7476 H   0  0  0  0  0  0  0  0  0  0  0  0
    2.0649   -0.7147   -0.8740 H   0  0  0  0  0  0  0  0  0  0  0  0
    0.4385   -2.5601    1.3749 C   0  0  0  0  0  0  0  0  0  0  0  0
   -1.4744   -1.7714    1.1547 H   0  0  0  0  0  0  0  0  0  0  0  0
   -0.7096   -1.2222    2.5099 H   0  0  0  0  0  0  0  0  0  0  0  0
   -0.0000   -2.3690   -1.0795 C   0  0  0  0  0  0  0  0  0  0  0  0
    1.8642   -3.1627   -0.1940 H   0  0  0  0  0  0  0  0  0  0  0  0
   -0.0354   -3.5583    1.4552 H   0  0  0  0  0  0  0  0  0  0  0  0
    1.1819   -2.4695    2.1942 H   0  0  0  0  0  0  0  0  0  0  0  0
   -0.2784   -3.3329   -1.7599 O   0  0  0  0  0  0  0  0  0  0  0  0
  1  5  1  0  0  0  0
  2  9  1  0  0  0  0
  3 10  1  0  0  0  0
  4 11  1  6  0  0  0
  4  1  1  0  0  0  0
  4  7  1  0  0  0  0
  6  1  1  0  0  0  0
  7 12  1  0  0  0  0
  7  2  1  0  0  0  0
  7 13  1  0  0  0  0
  8  2  1  0  0  0  0
 10  4  1  0  0  0  0
 14 10  2  0  0  0  0
M  CHG  1   3  -1
M  END
