1,2,3
q = -1.0

 36 38  0  0  1  0  0  0  0  0999 V2000
    2.2157    1.6080   -0.0007 O   0  5  0  0  0  0  0  0  0  0  0  0
    1.4619   -0.8964    0.0005 N   0  0  0  0  0  2  0  0  0  0  0  0
   -1.1818   -1.0236    0.0006 N   0  0  0  0  0  2  0  0  0  0  0  0
    3.1743    0.7108   -0.0004 C   0  0  0  0  0  0  0  0  0  0  0  0
    4.5544    0.9803   -0.0007 C   0  0  0  0  0  0  0  0  0  0  0  0
    4.8948    2.0252   -0.0012 H   0  0  0  0  0  0  0  0  0  0  0  0
    5.4821   -0.0872   -0.0003 C   0  0  0  0  0  0  0  0  0  0  0  0
    6.5555    0.1591   -0.0006 H   0  0  0  0  0  0  0  0  0  0  0  0
    5.1048   -1.4370    0.0003 C   0  0  0  0  0  0  0  0  0  0  0  0
    5.8641   -2.2323    0.0006 H   0  0  0  0  0  0  0  0  0  0  0  0
    3.7298   -1.7714    0.0006 C   0  0  0  0  0  0  0  0  0  0  0  0
    3.1687   -3.0865    0.0012 C   0  0  0  0  0  0  0  0  0  0  0  0
    3.8431   -3.9566    0.0014 H   0  0  0  0  0  0  0  0  0  0  0  0
    1.7921   -3.2711    0.0013 C   0  0  0  0  0  0  0  0  0  0  0  0
    1.3551   -4.2800    0.0017 H   0  0  0  0  0  0  0  0  0  0  0  0
    0.9378   -2.1307    0.0009 C   0  0  0  0  0  0  0  0  0  0  0  0
    2.7865   -0.6863    0.0003 C   0  0  2  0  0  3  0  0  0  0  0  0
   -0.5162   -2.1463    0.0009 C   0  0  0  0  0  3  0  0  0  0  0  0
   -1.0495   -3.1174    0.0013 H   0  0  0  0  0  0  0  0  0  0  0  0
   -2.6207   -1.0866    0.0004 C   0  0  0  0  0  0  0  0  0  0  0  0
   -3.3113   -1.1068    1.2398 C   0  0  0  0  0  0  0  0  0  0  0  0
   -4.7193   -1.0730    1.2099 C   0  0  0  0  0  0  0  0  0  0  0  0
   -5.2646   -1.0759    2.1664 H   0  0  0  0  0  0  0  0  0  0  0  0
   -5.4221   -1.0415   -0.0001 C   0  0  0  0  0  0  0  0  0  0  0  0
   -6.5217   -1.0051   -0.0003 H   0  0  0  0  0  0  0  0  0  0  0  0
   -4.7189   -1.0750   -1.2099 C   0  0  0  0  0  0  0  0  0  0  0  0
   -5.2639   -1.0795   -2.1666 H   0  0  0  0  0  0  0  0  0  0  0  0
   -3.3109   -1.1089   -1.2392 C   0  0  0  0  0  0  0  0  0  0  0  0
   -2.5766   -1.1930    2.5503 C   0  0  0  0  0  0  0  0  0  0  0  0
   -2.0336   -2.1576    2.6460 H   0  0  0  0  0  0  0  0  0  0  0  0
   -3.2803   -1.1213    3.4007 H   0  0  0  0  0  0  0  0  0  0  0  0
   -1.8004   -0.4077    2.6549 H   0  0  0  0  0  0  0  0  0  0  0  0
   -2.5758   -1.1976   -2.5494 C   0  0  0  0  0  0  0  0  0  0  0  0
   -2.0342   -2.1632   -2.6437 H   0  0  0  0  0  0  0  0  0  0  0  0
   -1.7986   -0.4135   -2.6547 H   0  0  0  0  0  0  0  0  0  0  0  0
   -3.2792   -1.1261   -3.4001 H   0  0  0  0  0  0  0  0  0  0  0  0
  1  4  1  0  0  0  0
  2 16  1  0  0  0  0
  3 18  1  0  0  0  0
  5  4  2  0  0  0  0
  5  7  1  0  0  0  0
  6  5  1  0  0  0  0
  7  9  2  0  0  0  0
  8  7  1  0  0  0  0
  9 10  1  0  0  0  0
  9 11  1  0  0  0  0
 11 12  2  0  0  0  0
 12 14  1  0  0  0  0
 12 13  1  0  0  0  0
 14 15  1  0  0  0  0
 16 18  1  0  0  0  0
 16 14  2  0  0  0  0
 17  4  1  6  0  0  0
 17  2  1  0  0  0  0
 17 11  1  0  0  0  0
 18 19  1  0  0  0  0
 20  3  1  0  0  0  0
 20 21  1  0  0  0  0
 21 29  1  0  0  0  0
 22 21  2  0  0  0  0
 22 23  1  0  0  0  0
 24 22  1  0  0  0  0
 25 24  1  0  0  0  0
 26 24  2  0  0  0  0
 27 26  1  0  0  0  0
 28 26  1  0  0  0  0
 28 20  2  0  0  0  0
 29 30  1  0  0  0  0
 29 32  1  0  0  0  0
 29 31  1  0  0  0  0
 33 28  1  0  0  0  0
 34 33  1  0  0  0  0
 35 33  1  0  0  0  0
 36 33  1  0  0  0  0
M  CHG  1   1  -1
M  END
