1,6,8
q = -1.0, confidence = 0.056

 37 39  0  0  0  0  0  0  0  0999 V2000
    0.4917    0.1701   -0.9247 O   0  5  0  0  0  0  0  0  0  0  0  0
    2.0761    1.3186    1.0280 N   0  0  0  0  0  0  0  0  0  0  0  0
    3.2647   -0.3981   -0.0172 N   0  0  0  0  0  0  0  0  0  0  0  0
    4.4714   -0.9990   -0.0994 N   0  0  0  0  0  0  0  0  0  0  0  0
   -0.1025   -1.6902    0.3104 N   0  0  0  0  0  0  0  0  0  0  0  0
   -1.3087   -1.1029    0.1228 N   0  0  0  0  0  2  0  0  0  0  0  0
   -5.9717   -0.4818    0.5022 N   0  0  0  0  0  0  0  0  0  0  0  0
   -3.3903    0.3083   -0.2129 N   0  0  0  0  0  2  0  0  0  0  0  0
   -2.3409   -2.8429    1.3191 N   0  0  0  0  0  0  0  0  0  0  0  0
   -3.0386   -3.0547    2.0305 H   0  0  0  0  0  0  0  0  0  0  0  0
   -1.3812   -3.1708    1.4832 H   0  0  0  0  0  0  0  0  0  0  0  0
    1.9125    2.6121    1.3381 C   0  0  0  0  0  0  0  0  0  0  0  0
    0.9701    2.8701    1.8498 H   0  0  0  0  0  0  0  0  0  0  0  0
    2.8652    3.5964    1.0303 C   0  0  0  0  0  0  0  0  0  0  0  0
    2.6919    4.6453    1.3111 H   0  0  0  0  0  0  0  0  0  0  0  0
    4.0362    3.2044    0.3605 C   0  0  0  0  0  0  0  0  0  0  0  0
    4.8109    3.9435    0.1061 H   0  0  0  0  0  0  0  0  0  0  0  0
    4.2020    1.8636   -0.0040 C   0  0  0  0  0  0  0  0  0  0  0  0
    5.0838    1.4947   -0.5438 H   0  0  0  0  0  0  0  0  0  0  0  0
    3.1720    0.9732    0.3500 C   0  0  0  0  0  0  0  0  0  0  0  0
    4.2197   -2.2997   -0.3153 C   0  0  0  0  0  0  0  0  0  0  0  0
    2.8165   -2.5414   -0.3549 C   0  0  0  0  0  0  0  0  0  0  0  0
    2.2888   -3.4829   -0.5376 H   0  0  0  0  0  0  0  0  0  0  0  0
    2.2232   -1.2932   -0.1729 C   0  0  0  0  0  0  0  0  0  0  0  0
    0.8112   -0.8965   -0.2624 C   0  0  0  0  0  0  0  0  0  0  0  0
   -2.3809   -1.6538    0.6592 C   0  0  0  0  0  0  0  0  0  0  0  0
   -3.5997   -0.8795    0.4175 C   0  0  0  0  0  0  0  0  0  0  0  0
   -4.9154   -1.2624    0.7559 C   0  0  0  0  0  0  0  0  0  0  0  0
   -5.1129   -2.2387    1.2318 H   0  0  0  0  0  0  0  0  0  0  0  0
   -5.7381    0.6867   -0.1142 C   0  0  0  0  0  0  0  0  0  0  0  0
   -6.6041    1.3357   -0.3254 H   0  0  0  0  0  0  0  0  0  0  0  0
   -4.4414    1.0858   -0.4922 C   0  0  0  0  0  0  0  0  0  0  0  0
   -4.2307    2.0257   -1.0247 H   0  0  0  0  0  0  0  0  0  0  0  0
    5.3403   -3.2782   -0.4764 C   0  0  0  0  0  0  0  0  0  0  0  0
    6.3098   -2.7602   -0.3550 H   0  0  0  0  0  0  0  0  0  0  0  0
    5.3208   -3.7546   -1.4783 H   0  0  0  0  0  0  0  0  0  0  0  0
    5.2789   -4.0918    0.2750 H   0  0  0  0  0  0  0  0  0  0  0  0
  1 25  1  0  0  0  0
  2 12  1  0  0  0  0
  3 20  1  0  0  0  0
  4  3  1  0  0  0  0
  6  5  1  0  0  0  0
  6 26  1  0  0  0  0
  7 28  2  0  0  0  0
  8 27  1  0  0  0  0
  9 11  1  0  0  0  0
  9 10  1  0  0  0  0
 12 13  1  0  0  0  0
 14 15  1  0  0  0  0
 14 12  2  0  0  0  0
 16 14  1  0  0  0  0
 17 16  1  0  0  0  0
 18 20  1  0  0  0  0
 18 16  2  0  0  0  0
 19 18  1  0  0  0  0
 20  2  2  0  0  0  0
 21  4  2  0  0  0  0
 22 21  1  0  0  0  0
 22 24  2  0  0  0  0
 23 22  1  0  0  0  0
 24  3  1  0  0  0  0
 25 24  1  0  0  0  0
 25  5  2  0  0  0  0
 26  9  1  0  0  0  0
 27 26  2  0  0  0  0
 27 28  1  0  0  0  0
 28 29  1  0  0  0  0
 30  7  1  0  0  0  0
 31 30  1  0  0  0  0
 32  8  1  0  0  0  0
 32 30  2  0  0  0  0
 33 32  1  0  0  0  0
 34 35  1  0  0  0  0
 34 21  1  0  0  0  0
 34 37  1  0  0  0  0
 36 34  1  0  0  0  0
M  CHG  1   1  -1
M  END
