1,5,6
q = -1.0

 33 35  0  0  0  0  0  0  0  0999 V2000
   -1.1953   -0.0972    0.6537 O   0  5  0  0  0  0  0  0  0  0  0  0
   -5.9486    4.1111    0.8777 O   0  0  0  0  0  0  0  0  0  0  0  0
   -6.1073    2.6097   -1.5438 O   0  0  0  0  0  0  0  0  0  0  0  0
   -2.1651   -0.5219   -1.4154 N   0  0  0  0  0  0  0  0  0  0  0  0
   -1.1542   -1.3725   -1.4686 N   0  0  0  0  0  2  0  0  0  0  0  0
    0.9284   -2.7750   -1.0416 N   0  0  0  0  0  2  0  0  0  0  0  0
   -2.1172    0.1437   -0.2293 C   0  0  0  0  0  0  0  0  0  0  0  0
   -3.1330    1.1538    0.0523 C   0  0  0  0  0  0  0  0  0  0  0  0
   -3.1007    1.8646    1.2783 C   0  0  0  0  0  0  0  0  0  0  0  0
   -2.3061    1.6453    2.0039 H   0  0  0  0  0  0  0  0  0  0  0  0
   -4.0585    2.8391    1.5415 C   0  0  0  0  0  0  0  0  0  0  0  0
   -4.0506    3.4219    2.4736 H   0  0  0  0  0  0  0  0  0  0  0  0
   -5.0642    3.1257    0.5950 C   0  0  0  0  0  0  0  0  0  0  0  0
   -6.7600    4.5320   -0.2281 C   0  0  0  0  0  0  0  0  0  0  0  0
   -6.1689    5.2186   -0.8739 H   0  0  0  0  0  0  0  0  0  0  0  0
   -7.6120    5.0921    0.2021 H   0  0  0  0  0  0  0  0  0  0  0  0
   -7.2285    3.3297   -1.0272 C   0  0  0  0  0  0  0  0  0  0  0  0
   -7.8443    2.6593   -0.3852 H   0  0  0  0  0  0  0  0  0  0  0  0
   -7.8362    3.6422   -1.8978 H   0  0  0  0  0  0  0  0  0  0  0  0
   -5.1228    2.3893   -0.6252 C   0  0  0  0  0  0  0  0  0  0  0  0
   -4.1541    1.4199   -0.8901 C   0  0  0  0  0  0  0  0  0  0  0  0
   -4.1986    0.8635   -1.8356 H   0  0  0  0  0  0  0  0  0  0  0  0
   -0.8521   -2.1592   -2.4871 C   0  0  0  0  0  0  0  0  0  0  0  0
   -1.4462   -2.1631   -3.4133 H   0  0  0  0  0  0  0  0  0  0  0  0
    0.3248   -2.9641   -2.2671 C   0  0  0  0  0  0  0  0  0  0  0  0
    0.8718   -3.8810   -3.1884 C   0  0  0  0  0  0  0  0  0  0  0  0
    0.3807   -4.0219   -4.1614 H   0  0  0  0  0  0  0  0  0  0  0  0
    2.0301   -4.5863   -2.8491 C   0  0  0  0  0  0  0  0  0  0  0  0
    2.4683   -5.3021   -3.5601 H   0  0  0  0  0  0  0  0  0  0  0  0
    2.6309   -4.3694   -1.5975 C   0  0  0  0  0  0  0  0  0  0  0  0
    3.5452   -4.8990   -1.2977 H   0  0  0  0  0  0  0  0  0  0  0  0
    2.0444   -3.4497   -0.7195 C   0  0  0  0  0  0  0  0  0  0  0  0
    2.4800   -3.2356    0.2676 H   0  0  0  0  0  0  0  0  0  0  0  0
  3 17  1  0  0  0  0
  3 20  1  0  0  0  0
  4  7  2  0  0  0  0
  5  4  1  0  0  0  0
  6 32  1  0  0  0  0
  7  8  1  0  0  0  0
  7  1  1  0  0  0  0
  8  9  1  0  0  0  0
  9 11  2  0  0  0  0
  9 10  1  0  0  0  0
 11 12  1  0  0  0  0
 13  2  1  0  0  0  0
 13 11  1  0  0  0  0
 14 16  1  0  0  0  0
 14  2  1  0  0  0  0
 15 14  1  0  0  0  0
 17 18  1  0  0  0  0
 17 14  1  0  0  0  0
 19 17  1  0  0  0  0
 20 13  2  0  0  0  0
 21 20  1  0  0  0  0
 21  8  2  0  0  0  0
 22 21  1  0  0  0  0
 23 25  2  0  0  0  0
 23  5  1  0  0  0  0
 24 23  1  0  0  0  0
 25  6  1  0  0  0  0
 26 28  2  0  0  0  0
 26 25  1  0  0  0  0
 27 26  1  0  0  0  0
 28 30  1  0  0  0  0
 29 28  1  0  0  0  0
 30 31  1  0  0  0  0
 30 32  2  0  0  0  0
 32 33  1  0  0  0  0
M  CHG  1   1  -1
M  END
