1,2,4
q = -1.0

 41 44  0  0  1  0  0  0  0  0999 V2000
   -1.7704   -1.1747    0.7111 O   0  5  0  0  0  0  0  0  0  0  0  0
    1.5046   -0.6011   -0.0033 N   0  0  0  0  0  2  0  0  0  0  0  0
    3.3364   -0.0297   -1.1352 N   0  0  0  0  0  0  0  0  0  0  0  0
   -0.5258    1.3651   -0.0838 N   0  0  0  0  0  2  0  0  0  0  0  0
    2.2152   -1.7540   -0.2822 C   0  0  0  0  0  0  0  0  0  0  0  0
    1.9365   -3.0955    0.0353 C   0  0  0  0  0  0  0  0  0  0  0  0
    1.0305   -3.3566    0.6007 H   0  0  0  0  0  0  0  0  0  0  0  0
    2.8516   -4.0611   -0.3964 C   0  0  0  0  0  0  0  0  0  0  0  0
    2.6677   -5.1206   -0.1651 H   0  0  0  0  0  0  0  0  0  0  0  0
    4.0133   -3.7082   -1.1273 C   0  0  0  0  0  0  0  0  0  0  0  0
    4.7058   -4.5003   -1.4483 H   0  0  0  0  0  0  0  0  0  0  0  0
    4.3051   -2.3763   -1.4509 C   0  0  0  0  0  0  0  0  0  0  0  0
    5.2089   -2.1086   -2.0170 H   0  0  0  0  0  0  0  0  0  0  0  0
    3.3887   -1.4087   -1.0124 C   0  0  0  0  0  0  0  0  0  0  0  0
    2.1905    0.4281   -0.5157 C   0  0  2  0  0  3  0  0  0  0  0  0
    1.8461    1.8509   -0.4399 C   0  0  0  0  0  0  0  0  0  0  0  0
    2.8701    2.8154   -0.5836 C   0  0  0  0  0  0  0  0  0  0  0  0
    3.9159    2.4835   -0.6743 H   0  0  0  0  0  0  0  0  0  0  0  0
    2.5975    4.1861   -0.5691 C   0  0  0  0  0  0  0  0  0  0  0  0
    3.4180    4.9114   -0.6667 H   0  0  0  0  0  0  0  0  0  0  0  0
    1.2736    4.6235   -0.3974 C   0  0  0  0  0  0  0  0  0  0  0  0
    1.0459    5.6994   -0.3612 H   0  0  0  0  0  0  0  0  0  0  0  0
    0.2426    3.6923   -0.2401 C   0  0  0  0  0  0  0  0  0  0  0  0
   -0.7865    4.0341   -0.0579 H   0  0  0  0  0  0  0  0  0  0  0  0
    0.4964    2.3020   -0.2597 C   0  0  0  0  0  0  0  0  0  0  0  0
   -1.7052    1.5174   -0.6525 C   0  0  0  0  0  3  0  0  0  0  0  0
   -1.8573    2.4097   -1.2998 H   0  0  0  0  0  0  0  0  0  0  0  0
   -2.8133    0.6218   -0.5798 C   0  0  0  0  0  0  0  0  0  0  0  0
   -4.0054    1.0207   -1.2641 C   0  0  0  0  0  0  0  0  0  0  0  0
   -4.0093    2.0074   -1.7564 H   0  0  0  0  0  0  0  0  0  0  0  0
   -5.1295    0.2206   -1.3205 C   0  0  0  0  0  0  0  0  0  0  0  0
   -6.0323    0.5627   -1.8486 H   0  0  0  0  0  0  0  0  0  0  0  0
   -5.1172   -1.0648   -0.6949 C   0  0  0  0  0  0  0  0  0  0  0  0
   -3.9682   -1.4868   -0.0360 C   0  0  0  0  0  0  0  0  0  0  0  0
   -3.9285   -2.4714    0.4541 H   0  0  0  0  0  0  0  0  0  0  0  0
   -2.7814   -0.6871    0.0712 C   0  0  0  0  0  0  0  0  0  0  0  0
   -6.3448   -1.9343   -0.7606 C   0  0  0  0  0  0  0  0  0  0  0  0
   -6.1922   -2.9044   -0.2511 H   0  0  0  0  0  0  0  0  0  0  0  0
   -6.6321   -2.1360   -1.8142 H   0  0  0  0  0  0  0  0  0  0  0  0
   -7.2134   -1.4282   -0.2886 H   0  0  0  0  0  0  0  0  0  0  0  0
    3.9870    0.5522   -1.6608 H   0  0  0  0  0  0  0  0  0  0  0  0
  3 14  1  0  0  0  0
  3 15  1  0  0  0  0
  5  2  1  0  0  0  0
  5  6  1  0  0  0  0
  6  7  1  0  0  0  0
  8  9  1  0  0  0  0
  8  6  2  0  0  0  0
 10  8  1  0  0  0  0
 11 10  1  0  0  0  0
 12 10  2  0  0  0  0
 12 14  1  0  0  0  0
 13 12  1  0  0  0  0
 14  5  2  0  0  0  0
 15 16  1  1  0  0  0
 15  2  1  0  0  0  0
 16 25  1  0  0  0  0
 17 19  1  0  0  0  0
 17 16  2  0  0  0  0
 18 17  1  0  0  0  0
 19 21  2  0  0  0  0
 20 19  1  0  0  0  0
 21 22  1  0  0  0  0
 21 23  1  0  0  0  0
 23 24  1  0  0  0  0
 25 23  2  0  0  0  0
 25  4  1  0  0  0  0
 26 28  1  0  0  0  0
 26  4  1  0  0  0  0
 27 26  1  0  0  0  0
 28 36  1  0  0  0  0
 29 28  2  0  0  0  0
 30 29  1  0  0  0  0
 31 29  1  0  0  0  0
 31 33  2  0  0  0  0
 32 31  1  0  0  0  0
 33 34  1  0  0  0  0
 34 36  2  0  0  0  0
 34 35  1  0  0  0  0
 36  1  1  0  0  0  0
 37 33  1  0  0  0  0
 37 40  1  0  0  0  0
 37 38  1  0  0  0  0
 39 37  1  0  0  0  0
 41  3  1  0  0  0  0
M  CHG  1   1  -1
M  END
