40,41,44
q = 0.0, confidence = 0.962

 44 44  0  0  1  0  0  0  0  0999 V2000
    1.6767   -0.2208   -1.2477 C   0  0  0  0  0  0  0  0  0  0  0  0
    2.3556    0.6218   -0.2675 C   0  0  0  0  0  0  0  0  0  0  0  0
    3.6195    0.1900    0.2438 C   0  0  0  0  0  0  0  0  0  0  0  0
    4.1525    0.8237    0.9671 H   0  0  0  0  0  0  0  0  0  0  0  0
    4.2064   -0.9994   -0.1678 C   0  0  0  0  0  0  0  0  0  0  0  0
    5.1882   -1.2974    0.2265 H   0  0  0  0  0  0  0  0  0  0  0  0
    3.5479   -1.8092   -1.1342 C   0  0  0  0  0  0  0  0  0  0  0  0
    4.0249   -2.7387   -1.4806 H   0  0  0  0  0  0  0  0  0  0  0  0
    2.3212   -1.4311   -1.6570 C   0  0  0  0  0  0  0  0  0  0  0  0
    1.8071   -2.0396   -2.4158 H   0  0  0  0  0  0  0  0  0  0  0  0
    1.6888    1.7741    0.2926 C   0  0  2  0  0  3  0  0  0  0  0  0
   -0.4570    3.0979    0.1757 C   0  0  0  0  0  0  0  0  0  0  0  0
   -0.0978    3.6590    1.0579 H   0  0  0  0  0  0  0  0  0  0  0  0
   -0.6537    3.8451   -0.6230 H   0  0  0  0  0  0  0  0  0  0  0  0
   -1.7521    2.3431    0.5245 C   0  0  0  0  0  0  0  0  0  0  0  0
   -1.5051    1.5791    1.2922 H   0  0  0  0  0  0  0  0  0  0  0  0
   -2.4384    3.0630    1.0135 H   0  0  0  0  0  0  0  0  0  0  0  0
   -2.4558    1.6735   -0.6788 C   0  0  0  0  0  0  0  0  0  0  0  0
   -1.9217    1.9109   -1.6225 H   0  0  0  0  0  0  0  0  0  0  0  0
   -3.4840    2.0897   -0.8039 H   0  0  0  0  0  0  0  0  0  0  0  0
    2.1929    2.4102    1.5519 C   0  0  0  0  0  0  0  0  0  0  0  0
    1.6285    3.3119    1.8426 H   0  0  0  0  0  0  0  0  0  0  0  0
    3.2570    2.6976    1.4483 H   0  0  0  0  0  0  0  0  0  0  0  0
    2.1267    1.6615    2.3690 H   0  0  0  0  0  0  0  0  0  0  0  0
   -3.0119   -0.3387   -1.8917 C   0  0  0  0  0  0  0  0  0  0  0  0
   -3.1041   -1.4401   -1.8391 H   0  0  0  0  0  0  0  0  0  0  0  0
   -2.2841   -0.0883   -2.6875 H   0  0  0  0  0  0  0  0  0  0  0  0
   -4.0092    0.0803   -2.1641 H   0  0  0  0  0  0  0  0  0  0  0  0
   -3.4331   -0.2351    0.5061 C   0  0  0  0  0  0  0  0  0  0  0  0
   -4.4939   -0.1045    0.1834 H   0  0  0  0  0  0  0  0  0  0  0  0
   -3.2823    0.4594    1.3567 H   0  0  0  0  0  0  0  0  0  0  0  0
   -3.2159   -1.6647    1.0181 C   0  0  0  0  0  0  0  0  0  0  0  0
   -3.2487   -2.4000    0.1845 H   0  0  0  0  0  0  0  0  0  0  0  0
   -4.0939   -1.9105    1.6510 H   0  0  0  0  0  0  0  0  0  0  0  0
   -1.9568   -1.8884    1.8659 C   0  0  0  0  0  0  0  0  0  0  0  0
   -1.8184   -1.0316    2.5585 H   0  0  0  0  0  0  0  0  0  0  0  0
   -2.0956   -2.7876    2.5045 H   0  0  0  0  0  0  0  0  0  0  0  0
    0.5674    2.1841   -0.2979 N   0  0  0  0  0  0  0  0  0  0  0  0
    0.3375    1.5666   -1.1347 H   0  0  0  0  0  0  0  0  0  0  0  0
   -2.5350    0.1939   -0.5993 N   0  0  0  0  0  0  0  0  0  0  0  0
   -0.7116   -2.0112    1.0654 N   0  0  0  0  0  0  0  0  0  0  0  0
   -0.6151   -2.9737    0.7112 H   0  0  0  0  0  0  0  0  0  0  0  0
    0.1277   -1.8282    1.6600 H   0  0  0  0  0  0  0  0  0  0  0  0
    0.5084    0.1219   -1.7752 O   0  5  0  0  0  0  0  0  0  0  0  0
  1  2  1  0  0  0  0
  2  3  2  0  0  0  0
  2 11  1  0  0  0  0
  3  4  1  0  0  0  0
  5  6  1  0  0  0  0
  5  3  1  0  0  0  0
  7  5  2  0  0  0  0
  8  7  1  0  0  0  0
  9  1  2  0  0  0  0
  9  7  1  0  0  0  0
 10  9  1  0  0  0  0
 11 38  1  1  0  0  0
 11 21  1  0  0  0  0
 12 15  1  0  0  0  0
 12 13  1  0  0  0  0
 14 12  1  0  0  0  0
 15 17  1  0  0  0  0
 15 16  1  0  0  0  0
 18 40  1  0  0  0  0
 18 15  1  0  0  0  0
 19 18  1  0  0  0  0
 20 18  1  0  0  0  0
 21 22  1  0  0  0  0
 21 24  1  0  0  0  0
 23 21  1  0  0  0  0
 25 26  1  0  0  0  0
 25 40  1  0  0  0  0
 27 25  1  0  0  0  0
 28 25  1  0  0  0  0
 29 32  1  0  0  0  0
 29 31  1  0  0  0  0
 30 29  1  0  0  0  0
 32 34  1  0  0  0  0
 32 35  1  0  0  0  0
 33 32  1  0  0  0  0
 35 37  1  0  0  0  0
 35 36  1  0  0  0  0
 38 12  1  0  0  0  0
 39 38  1  0  0  0  0
 40 29  1  0  0  0  0
 41 43  1  0  0  0  0
 41 35  1  0  0  0  0
 42 41  1  0  0  0  0
 44  1  1  0  0  0  0
M  CHG  1  44  -1
M  END
