1,7,8
q = -1.0

 35 35  0  0  0  0  0  0  0  0999 V2000
   -1.1200    1.0880    0.8783 N   0  0  0  0  0  2  0  0  0  0  0  0
   -5.1058    0.9460    1.8448 O   0  0  0  0  0  0  0  0  0  0  0  0
   -5.4356    1.1227    0.9433 H   0  0  0  0  0  0  0  0  0  0  0  0
   -4.9593   -0.4653    1.9622 C   0  0  0  0  0  0  0  0  0  0  0  0
   -5.9449   -0.9868    2.0076 H   0  0  0  0  0  0  0  0  0  0  0  0
   -4.4738   -0.6288    2.9496 H   0  0  0  0  0  0  0  0  0  0  0  0
   -0.9198   -0.9123   -0.9114 O   0  5  0  0  0  0  0  0  0  0  0  0
    0.7748    2.8074   -0.2339 N   0  0  0  0  0  0  0  0  0  0  0  0
   -4.1320   -1.0943    0.8635 C   0  0  0  0  0  0  0  0  0  0  0  0
   -4.6146   -2.2029    0.1687 C   0  0  0  0  0  0  0  0  0  0  0  0
   -5.6176   -2.6008    0.4074 H   0  0  0  0  0  0  0  0  0  0  0  0
   -3.9303   -2.8530   -0.7994 N   0  0  0  0  0  0  0  0  0  0  0  0
   -2.7186   -2.4295   -1.1452 C   0  0  0  0  0  0  0  0  0  0  0  0
   -2.1158   -1.2698   -0.5306 C   0  0  0  0  0  0  0  0  0  0  0  0
   -2.8414   -0.5940    0.4989 C   0  0  0  0  0  0  0  0  0  0  0  0
   -2.2406    0.5108    1.2075 C   0  0  0  0  0  3  0  0  0  0  0  0
   -2.7840    0.8971    2.0914 H   0  0  0  0  0  0  0  0  0  0  0  0
   -0.5778    2.1501    1.7091 C   0  0  0  0  0  0  0  0  0  0  0  0
    0.3139    1.7545    2.2420 H   0  0  0  0  0  0  0  0  0  0  0  0
   -1.3090    2.4894    2.4751 H   0  0  0  0  0  0  0  0  0  0  0  0
   -0.1795    3.2970    0.7863 C   0  0  0  0  0  0  0  0  0  0  0  0
   -1.0822    3.6626    0.2581 H   0  0  0  0  0  0  0  0  0  0  0  0
    0.2544    4.1471    1.3612 H   0  0  0  0  0  0  0  0  0  0  0  0
   -1.9539   -3.1509   -2.2145 C   0  0  0  0  0  0  0  0  0  0  0  0
   -1.7262   -2.4714   -3.0621 H   0  0  0  0  0  0  0  0  0  0  0  0
   -2.5428   -4.0133   -2.5737 H   0  0  0  0  0  0  0  0  0  0  0  0
   -0.9714   -3.4958   -1.8306 H   0  0  0  0  0  0  0  0  0  0  0  0
    2.1416    2.7160    0.3218 C   0  0  0  0  0  0  0  0  0  0  0  0
    2.8174    2.2842   -0.4385 H   0  0  0  0  0  0  0  0  0  0  0  0
    2.1599    2.0551    1.2045 H   0  0  0  0  0  0  0  0  0  0  0  0
    2.5081    3.7299    0.6006 H   0  0  0  0  0  0  0  0  0  0  0  0
    0.8024    3.7030   -1.4109 C   0  0  0  0  0  0  0  0  0  0  0  0
    1.1654    4.7153   -1.1221 H   0  0  0  0  0  0  0  0  0  0  0  0
   -0.2081    3.7659   -1.8509 H   0  0  0  0  0  0  0  0  0  0  0  0
    1.4810    3.2700   -2.1689 H   0  0  0  0  0  0  0  0  0  0  0  0
  1 16  1  0  0  0  0
  1 18  1  0  0  0  0
  2  4  1  0  0  0  0
  3  2  1  0  0  0  0
  4  5  1  0  0  0  0
  4  6  1  0  0  0  0
  7 14  1  0  0  0  0
  8 28  1  0  0  0  0
  8 21  1  0  0  0  0
  9  4  1  0  0  0  0
 10 11  1  0  0  0  0
 10  9  2  0  0  0  0
 12 10  1  0  0  0  0
 13 12  2  0  0  0  0
 13 14  1  0  0  0  0
 14 15  2  0  0  0  0
 15  9  1  0  0  0  0
 15 16  1  0  0  0  0
 16 17  1  0  0  0  0
 18 19  1  0  0  0  0
 18 20  1  0  0  0  0
 21 23  1  0  0  0  0
 21 18  1  0  0  0  0
 22 21  1  0  0  0  0
 24 27  1  0  0  0  0
 24 13  1  0  0  0  0
 25 24  1  0  0  0  0
 26 24  1  0  0  0  0
 28 31  1  0  0  0  0
 28 30  1  0  0  0  0
 29 28  1  0  0  0  0
 32 33  1  0  0  0  0
 32  8  1  0  0  0  0
 34 32  1  0  0  0  0
 35 32  1  0  0  0  0
M  CHG  1   7  -1
M  END
