1,2,3
q = -1.0

 73 76  0  0  1  0  0  0  0  0999 V2000
    2.3864   -0.2973   -0.5271 O   0  0  0  0  0  1  0  0  0  0  0  0
    1.0551    2.2306    0.0182 N   0  0  0  0  0  2  0  0  0  0  0  0
   -1.4219    1.1297   -0.4578 N   0  0  0  0  0  0  0  0  0  0  0  0
   -1.4954    1.2397   -1.4794 H   0  0  0  0  0  0  0  0  0  0  0  0
    3.4035    0.3155    0.0119 C   0  0  2  0  0  3  0  0  0  0  0  0
    3.4629    1.7313    0.3108 C   0  0  0  0  0  0  0  0  0  0  0  0
    4.6647    2.2607    0.8641 C   0  0  0  0  0  0  0  0  0  0  0  0
    4.6962    3.3176    1.1639 H   0  0  0  0  0  0  0  0  0  0  0  0
    5.7763    1.4665    1.1057 C   0  0  0  0  0  0  0  0  0  0  0  0
    6.6757    1.8967    1.5693 H   0  0  0  0  0  0  0  0  0  0  0  0
    5.7245    0.0939    0.7907 C   0  0  0  0  0  0  0  0  0  0  0  0
    6.5943   -0.5447    1.0075 H   0  0  0  0  0  0  0  0  0  0  0  0
    4.5782   -0.5016    0.2559 C   0  0  0  0  0  0  0  0  0  0  0  0
    4.5796   -1.9534   -0.0678 C   0  0  0  0  0  0  0  0  0  0  0  0
    5.7507   -2.5493   -0.5929 C   0  0  0  0  0  0  0  0  0  0  0  0
    6.6228   -1.9158   -0.8162 H   0  0  0  0  0  0  0  0  0  0  0  0
    5.8095   -3.9229   -0.8653 C   0  0  0  0  0  0  0  0  0  0  0  0
    6.7310   -4.3569   -1.2832 H   0  0  0  0  0  0  0  0  0  0  0  0
    4.6925   -4.7368   -0.6219 C   0  0  0  0  0  0  0  0  0  0  0  0
    4.7319   -5.8147   -0.8419 H   0  0  0  0  0  0  0  0  0  0  0  0
    3.5200   -4.1592   -0.1089 C   0  0  0  0  0  0  0  0  0  0  0  0
    2.6309   -4.7815    0.0751 H   0  0  0  0  0  0  0  0  0  0  0  0
    3.4581   -2.7863    0.1616 C   0  0  0  0  0  0  0  0  0  0  0  0
    2.5254   -2.3537    0.5431 H   0  0  0  0  0  0  0  0  0  0  0  0
    2.3542    2.6619    0.0861 C   0  0  0  0  0  0  0  0  0  0  0  0
    2.5845    4.0649   -0.0329 C   0  0  0  0  0  0  0  0  0  0  0  0
    3.6176    4.4281   -0.0868 H   0  0  0  0  0  0  0  0  0  0  0  0
    1.5293    4.9644   -0.1172 C   0  0  0  0  0  0  0  0  0  0  0  0
    1.7296    6.0410   -0.2219 H   0  0  0  0  0  0  0  0  0  0  0  0
    0.2051    4.4869   -0.0739 C   0  0  0  0  0  0  0  0  0  0  0  0
   -0.6573    5.1669   -0.1018 H   0  0  0  0  0  0  0  0  0  0  0  0
    0.0104    3.1091   -0.0090 C   0  0  0  0  0  0  0  0  0  0  0  0
   -1.3560    2.4924    0.1421 C   0  0  0  0  0  0  0  0  0  0  0  0
   -2.1513    3.1448   -0.2763 H   0  0  0  0  0  0  0  0  0  0  0  0
   -1.5728    2.3824    1.2243 H   0  0  0  0  0  0  0  0  0  0  0  0
   -2.5903    0.3698   -0.0276 C   0  0  0  0  0  0  0  0  0  0  0  0
   -2.6416   -0.1851    1.2717 C   0  0  0  0  0  0  0  0  0  0  0  0
   -3.8141   -0.8701    1.6409 C   0  0  0  0  0  0  0  0  0  0  0  0
   -3.8713   -1.3155    2.6469 H   0  0  0  0  0  0  0  0  0  0  0  0
   -4.9035   -1.0295    0.7732 C   0  0  0  0  0  0  0  0  0  0  0  0
   -4.8061   -0.4748   -0.5157 C   0  0  0  0  0  0  0  0  0  0  0  0
   -5.6454   -0.5963   -1.2154 H   0  0  0  0  0  0  0  0  0  0  0  0
   -3.6704    0.2319   -0.9393 C   0  0  0  0  0  0  0  0  0  0  0  0
   -1.4860   -0.1176    2.2647 C   0  0  0  0  0  0  0  0  0  0  0  0
   -0.6328    0.3925    1.7655 H   0  0  0  0  0  0  0  0  0  0  0  0
   -1.8546    0.6913    3.5194 C   0  0  0  0  0  0  0  0  0  0  0  0
   -2.1909    1.7199    3.2700 H   0  0  0  0  0  0  0  0  0  0  0  0
   -0.9830    0.7723    4.2003 H   0  0  0  0  0  0  0  0  0  0  0  0
   -2.6781    0.2083    4.0851 H   0  0  0  0  0  0  0  0  0  0  0  0
   -0.9793   -1.5262    2.6185 C   0  0  0  0  0  0  0  0  0  0  0  0
   -1.7499   -2.1145    3.1581 H   0  0  0  0  0  0  0  0  0  0  0  0
   -0.0865   -1.4579    3.2734 H   0  0  0  0  0  0  0  0  0  0  0  0
   -0.6970   -2.0715    1.6963 H   0  0  0  0  0  0  0  0  0  0  0  0
   -6.1448   -1.7952    1.2067 C   0  0  0  0  0  0  0  0  0  0  0  0
   -5.9762   -2.1077    2.2604 H   0  0  0  0  0  0  0  0  0  0  0  0
   -7.4011   -0.9087    1.1792 C   0  0  0  0  0  0  0  0  0  0  0  0
   -7.6335   -0.5724    0.1472 H   0  0  0  0  0  0  0  0  0  0  0  0
   -7.2711   -0.0038    1.8059 H   0  0  0  0  0  0  0  0  0  0  0  0
   -8.2847   -1.4647    1.5540 H   0  0  0  0  0  0  0  0  0  0  0  0
   -6.3381   -3.0702    0.3683 C   0  0  0  0  0  0  0  0  0  0  0  0
   -6.5234   -2.8242   -0.6981 H   0  0  0  0  0  0  0  0  0  0  0  0
   -7.2079   -3.6546    0.7324 H   0  0  0  0  0  0  0  0  0  0  0  0
   -5.4413   -3.7196    0.4104 H   0  0  0  0  0  0  0  0  0  0  0  0
   -3.5787    0.7643   -2.3691 C   0  0  0  0  0  0  0  0  0  0  0  0
   -2.9824    1.7079   -2.3497 H   0  0  0  0  0  0  0  0  0  0  0  0
   -2.8407   -0.2491   -3.2688 C   0  0  0  0  0  0  0  0  0  0  0  0
   -1.8657   -0.5656   -2.8429 H   0  0  0  0  0  0  0  0  0  0  0  0
   -2.6772    0.1667   -4.2841 H   0  0  0  0  0  0  0  0  0  0  0  0
   -3.4505   -1.1704   -3.3669 H   0  0  0  0  0  0  0  0  0  0  0  0
   -4.9336    1.1557   -2.9739 C   0  0  0  0  0  0  0  0  0  0  0  0
   -4.7840    1.6514   -3.9537 H   0  0  0  0  0  0  0  0  0  0  0  0
   -5.4963    1.8476   -2.3158 H   0  0  0  0  0  0  0  0  0  0  0  0
   -5.5690    0.2659   -3.1582 H   0  0  0  0  0  0  0  0  0  0  0  0
  2 25  1  0  0  0  0
  3 36  1  0  0  0  0
  3 33  1  0  0  0  0
  4  3  1  0  0  0  0
  5  1  1  6  0  0  0
  5 13  1  0  0  0  0
  5  6  1  0  0  0  0
  6  7  1  0  0  0  0
  7  9  2  0  0  0  0
  7  8  1  0  0  0  0
  9 10  1  0  0  0  0
 11 12  1  0  0  0  0
 11  9  1  0  0  0  0
 13 11  2  0  0  0  0
 14 23  1  0  0  0  0
 14 13  1  0  0  0  0
 15 14  2  0  0  0  0
 16 15  1  0  0  0  0
 17 19  2  0  0  0  0
 17 15  1  0  0  0  0
 18 17  1  0  0  0  0
 19 21  1  0  0  0  0
 20 19  1  0  0  0  0
 21 22  1  0  0  0  0
 21 23  2  0  0  0  0
 23 24  1  0  0  0  0
 25  6  2  0  0  0  0
 26 25  1  0  0  0  0
 27 26  1  0  0  0  0
 28 30  1  0  0  0  0
 28 26  2  0  0  0  0
 29 28  1  0  0  0  0
 30 32  2  0  0  0  0
 31 30  1  0  0  0  0
 32  2  1  0  0  0  0
 32 33  1  0  0  0  0
 33 35  1  0  0  0  0
 34 33  1  0  0  0  0
 36 37  1  0  0  0  0
 37 38  2  0  0  0  0
 37 44  1  0  0  0  0
 38 39  1  0  0  0  0
 40 54  1  0  0  0  0
 40 38  1  0  0  0  0
 41 40  2  0  0  0  0
 42 41  1  0  0  0  0
 43 41  1  0  0  0  0
 43 36  2  0  0  0  0
 44 50  1  0  0  0  0
 44 46  1  0  0  0  0
 45 44  1  0  0  0  0
 46 49  1  0  0  0  0
 46 48  1  0  0  0  0
 47 46  1  0  0  0  0
 50 51  1  0  0  0  0
 50 52  1  0  0  0  0
 53 50  1  0  0  0  0
 54 55  1  0  0  0  0
 56 54  1  0  0  0  0
 56 59  1  0  0  0  0
 56 58  1  0  0  0  0
 57 56  1  0  0  0  0
 60 63  1  0  0  0  0
 60 62  1  0  0  0  0
 60 54  1  0  0  0  0
 61 60  1  0  0  0  0
 64 65  1  0  0  0  0
 64 43  1  0  0  0  0
 66 67  1  0  0  0  0
 66 64  1  0  0  0  0
 68 66  1  0  0  0  0
 69 66  1  0  0  0  0
 70 64  1  0  0  0  0
 70 72  1  0  0  0  0
 71 70  1  0  0  0  0
 73 70  1  0  0  0  0
M  END
