1,2,3
q = -1.0, confidence = 0.152

 71 74  0  0  0  0  0  0  0  0999 V2000
    2.3084   -0.3620    0.5029 O   0  5  0  0  0  0  0  0  0  0  0  0
    1.2630    2.3183    0.1510 N   0  0  0  0  0  2  0  0  0  0  0  0
   -1.1993    1.4293    0.1509 N   0  0  0  0  0  2  0  0  0  0  0  0
    3.4229    0.2115    0.1421 C   0  0  0  0  0  0  0  0  0  0  0  0
    3.6441    1.6423    0.0205 C   0  0  0  0  0  0  0  0  0  0  0  0
    4.9667    2.0848   -0.2857 C   0  0  0  0  0  0  0  0  0  0  0  0
    5.1601    3.1556   -0.4320 H   0  0  0  0  0  0  0  0  0  0  0  0
    6.0214    1.2048   -0.4722 C   0  0  0  0  0  0  0  0  0  0  0  0
    7.0201    1.5874   -0.7272 H   0  0  0  0  0  0  0  0  0  0  0  0
    5.7903   -0.1847   -0.3919 C   0  0  0  0  0  0  0  0  0  0  0  0
    6.6112   -0.8885   -0.5979 H   0  0  0  0  0  0  0  0  0  0  0  0
    4.5239   -0.6978   -0.1114 C   0  0  0  0  0  0  0  0  0  0  0  0
    4.2948   -2.1666   -0.0783 C   0  0  0  0  0  0  0  0  0  0  0  0
    5.2439   -3.0170    0.5319 C   0  0  0  0  0  0  0  0  0  0  0  0
    6.1169   -2.5743    1.0363 H   0  0  0  0  0  0  0  0  0  0  0  0
    5.0744   -4.4093    0.5312 C   0  0  0  0  0  0  0  0  0  0  0  0
    5.8226   -5.0504    1.0225 H   0  0  0  0  0  0  0  0  0  0  0  0
    3.9491   -4.9803   -0.0823 C   0  0  0  0  0  0  0  0  0  0  0  0
    3.8111   -6.0726   -0.0804 H   0  0  0  0  0  0  0  0  0  0  0  0
    2.9981   -4.1459   -0.6933 C   0  0  0  0  0  0  0  0  0  0  0  0
    2.1100   -4.5781   -1.1799 H   0  0  0  0  0  0  0  0  0  0  0  0
    3.1620   -2.7551   -0.6908 C   0  0  0  0  0  0  0  0  0  0  0  0
    2.3998   -2.1260   -1.1711 H   0  0  0  0  0  0  0  0  0  0  0  0
    2.5892    2.6525    0.1516 C   0  0  0  0  0  0  0  0  0  0  0  0
    2.8967    4.0448    0.2480 C   0  0  0  0  0  0  0  0  0  0  0  0
    3.9435    4.3525    0.3507 H   0  0  0  0  0  0  0  0  0  0  0  0
    1.9049    5.0206    0.2285 C   0  0  0  0  0  0  0  0  0  0  0  0
    2.1796    6.0833    0.2974 H   0  0  0  0  0  0  0  0  0  0  0  0
    0.5564    4.6378    0.1228 C   0  0  0  0  0  0  0  0  0  0  0  0
   -0.2585    5.3733    0.0766 H   0  0  0  0  0  0  0  0  0  0  0  0
    0.2699    3.2711    0.1103 C   0  0  0  0  0  0  0  0  0  0  0  0
   -1.0767    2.7292    0.0525 C   0  0  0  0  0  0  0  0  0  0  0  0
   -1.9572    3.3806   -0.0825 H   0  0  0  0  0  0  0  0  0  0  0  0
   -2.4450    0.7496    0.0083 C   0  0  0  0  0  0  0  0  0  0  0  0
   -2.9856    0.5601   -1.2875 C   0  0  0  0  0  0  0  0  0  0  0  0
   -4.1775   -0.1817   -1.3836 C   0  0  0  0  0  0  0  0  0  0  0  0
   -4.6193   -0.3472   -2.3788 H   0  0  0  0  0  0  0  0  0  0  0  0
   -4.8087   -0.7446   -0.2637 C   0  0  0  0  0  0  0  0  0  0  0  0
   -4.2136   -0.5601    0.9994 C   0  0  0  0  0  0  0  0  0  0  0  0
   -4.6820   -1.0095    1.8879 H   0  0  0  0  0  0  0  0  0  0  0  0
   -3.0265    0.1669    1.1636 C   0  0  0  0  0  0  0  0  0  0  0  0
   -2.3083    1.0942   -2.5442 C   0  0  0  0  0  0  0  0  0  0  0  0
   -1.2868    1.4201   -2.2616 H   0  0  0  0  0  0  0  0  0  0  0  0
   -2.1330    0.0025   -3.6128 C   0  0  0  0  0  0  0  0  0  0  0  0
   -1.5691    0.4079   -4.4777 H   0  0  0  0  0  0  0  0  0  0  0  0
   -3.1090   -0.3585   -3.9980 H   0  0  0  0  0  0  0  0  0  0  0  0
   -1.5656   -0.8540   -3.1978 H   0  0  0  0  0  0  0  0  0  0  0  0
   -3.0611    2.3180   -3.0965 C   0  0  0  0  0  0  0  0  0  0  0  0
   -2.5482    2.7237   -3.9926 H   0  0  0  0  0  0  0  0  0  0  0  0
   -3.1370    3.1317   -2.3457 H   0  0  0  0  0  0  0  0  0  0  0  0
   -4.0959    2.0474   -3.3929 H   0  0  0  0  0  0  0  0  0  0  0  0
   -2.4015    0.3733    2.5353 C   0  0  0  0  0  0  0  0  0  0  0  0
   -1.3316    0.6201    2.3657 H   0  0  0  0  0  0  0  0  0  0  0  0
   -2.4295   -0.8912    3.4016 C   0  0  0  0  0  0  0  0  0  0  0  0
   -1.8703   -0.7208    4.3436 H   0  0  0  0  0  0  0  0  0  0  0  0
   -1.9505   -1.7315    2.8630 H   0  0  0  0  0  0  0  0  0  0  0  0
   -3.4619   -1.1851    3.6840 H   0  0  0  0  0  0  0  0  0  0  0  0
   -3.0512    1.5747    3.2458 C   0  0  0  0  0  0  0  0  0  0  0  0
   -2.9718    2.5001    2.6388 H   0  0  0  0  0  0  0  0  0  0  0  0
   -2.5655    1.7648    4.2250 H   0  0  0  0  0  0  0  0  0  0  0  0
   -4.1305    1.3902    3.4287 H   0  0  0  0  0  0  0  0  0  0  0  0
   -6.0712   -1.5795   -0.4202 C   0  0  0  0  0  0  0  0  0  0  0  0
   -6.3742   -1.5058   -1.4875 H   0  0  0  0  0  0  0  0  0  0  0  0
   -7.2321   -1.0432    0.4325 C   0  0  0  0  0  0  0  0  0  0  0  0
   -8.1563   -1.6296    0.2525 H   0  0  0  0  0  0  0  0  0  0  0  0
   -7.4468    0.0192    0.2008 H   0  0  0  0  0  0  0  0  0  0  0  0
   -7.0030   -1.1116    1.5163 H   0  0  0  0  0  0  0  0  0  0  0  0
   -5.7892   -3.0621   -0.1181 C   0  0  0  0  0  0  0  0  0  0  0  0
   -5.4795   -3.2017    0.9386 H   0  0  0  0  0  0  0  0  0  0  0  0
   -4.9752   -3.4553   -0.7594 H   0  0  0  0  0  0  0  0  0  0  0  0
   -6.6940   -3.6812   -0.2881 H   0  0  0  0  0  0  0  0  0  0  0  0
  2 24  1  0  0  0  0
  4  1  1  0  0  0  0
  5  4  1  0  0  0  0
  5 24  1  0  0  0  0
  6  5  2  0  0  0  0
  7  6  1  0  0  0  0
  8 10  2  0  0  0  0
  8  6  1  0  0  0  0
  9  8  1  0  0  0  0
 10 12  1  0  0  0  0
 11 10  1  0  0  0  0
 12 13  1  0  0  0  0
 12  4  2  0  0  0  0
 13 14  1  0  0  0  0
 14 15  1  0  0  0  0
 16 14  2  0  0  0  0
 16 17  1  0  0  0  0
 18 19  1  0  0  0  0
 18 16  1  0  0  0  0
 20 22  1  0  0  0  0
 20 18  2  0  0  0  0
 21 20  1  0  0  0  0
 22 13  2  0  0  0  0
 23 22  1  0  0  0  0
 24 25  2  0  0  0  0
 25 26  1  0  0  0  0
 27 25  1  0  0  0  0
 27 28  1  0  0  0  0
 29 27  2  0  0  0  0
 30 29  1  0  0  0  0
 31 29  1  0  0  0  0
 31  2  1  0  0  0  0
 32 31  2  0  0  0  0
 32  3  1  0  0  0  0
 33 32  1  0  0  0  0
 34  3  1  0  0  0  0
 34 41  1  0  0  0  0
 35 34  2  0  0  0  0
 36 35  1  0  0  0  0
 36 38  2  0  0  0  0
 37 36  1  0  0  0  0
 38 39  1  0  0  0  0
 39 41  2  0  0  0  0
 39 40  1  0  0  0  0
 41 52  1  0  0  0  0
 42 43  1  0  0  0  0
 42 35  1  0  0  0  0
 44 47  1  0  0  0  0
 44 42  1  0  0  0  0
 45 44  1  0  0  0  0
 46 44  1  0  0  0  0
 48 42  1  0  0  0  0
 48 50  1  0  0  0  0
 49 48  1  0  0  0  0
 51 48  1  0  0  0  0
 52 58  1  0  0  0  0
 52 54  1  0  0  0  0
 53 52  1  0  0  0  0
 54 57  1  0  0  0  0
 54 55  1  0  0  0  0
 56 54  1  0  0  0  0
 58 61  1  0  0  0  0
 58 60  1  0  0  0  0
 59 58  1  0  0  0  0
 62 38  1  0  0  0  0
 62 68  1  0  0  0  0
 62 64  1  0  0  0  0
 63 62  1  0  0  0  0
 64 67  1  0  0  0  0
 65 64  1  0  0  0  0
 66 64  1  0  0  0  0
 68 69  1  0  0  0  0
 70 68  1  0  0  0  0
 71 68  1  0  0  0  0
M  CHG  1   1  -1
M  END
