4,7,8
q = -1.0

 26 27  0  0  1  0  0  0  0  0999 V2000
    0.0493    1.3577    1.9918 S   0  0  0  0  0  0  0  0  0  0  0  0
    2.5186   -0.3857   -1.4706 C   0  0  0  0  0  3  0  0  0  0  0  0
    2.4527   -1.4565   -1.7194 H   0  0  0  0  0  0  0  0  0  0  0  0
    1.4703    0.1166   -0.7959 N   0  0  0  0  0  2  0  0  0  0  0  0
    3.6172    0.4025   -1.8313 C   0  0  0  0  0  0  0  0  0  0  0  0
    4.4581   -0.0443   -2.3799 H   0  0  0  0  0  0  0  0  0  0  0  0
   -1.4220    0.3697   -0.7077 N   0  0  0  0  0  2  0  0  0  0  0  0
    0.3967   -0.1643    1.8714 O   0  0  0  0  0  1  0  0  0  0  0  0
    3.6167    1.7559   -1.4637 C   0  0  0  0  0  0  0  0  0  0  0  0
    4.4717    2.4037   -1.7085 H   0  0  0  0  0  0  0  0  0  0  0  0
   -1.3651    1.6092    2.3505 O   0  0  0  0  0  1  0  0  0  0  0  0
    2.5056    2.2793   -0.7915 C   0  0  0  0  0  0  0  0  0  0  0  0
    2.4630    3.3388   -0.5023 H   0  0  0  0  0  0  0  0  0  0  0  0
    1.1239    2.0635    2.7183 O   0  0  0  0  0  1  0  0  0  0  0  0
    1.4244    1.4349   -0.4823 C   0  0  0  0  0  0  0  0  0  0  0  0
    0.1868    1.9670    0.1884 C   0  0  1  0  0  0  0  0  0  0  0  0
    0.2875    3.0565    0.3391 H   0  0  0  0  0  0  0  0  0  0  0  0
   -1.1008    1.6694   -0.5279 C   0  0  2  0  0  3  0  0  0  0  0  0
   -1.9523    2.6878   -0.9875 C   0  0  0  0  0  0  0  0  0  0  0  0
   -1.6838    3.7397   -0.8158 H   0  0  0  0  0  0  0  0  0  0  0  0
   -3.1342    2.3403   -1.6539 C   0  0  0  0  0  0  0  0  0  0  0  0
   -3.8176    3.1240   -2.0139 H   0  0  0  0  0  0  0  0  0  0  0  0
   -3.4286    0.9852   -1.8639 C   0  0  0  0  0  0  0  0  0  0  0  0
   -4.3363    0.6710   -2.3980 H   0  0  0  0  0  0  0  0  0  0  0  0
   -2.5376    0.0242   -1.3741 C   0  0  0  0  0  0  0  0  0  0  0  0
   -2.6705   -1.0582   -1.5259 H   0  0  0  0  0  0  0  0  0  0  0  0
  1 11  1  0  0  0  0
  1 14  1  0  0  0  0
  2  4  1  0  0  0  0
  3  2  1  0  0  0  0
  4 15  1  0  0  0  0
  5  2  1  0  0  0  0
  5  9  2  0  0  0  0
  6  5  1  0  0  0  0
  7 18  1  0  0  0  0
  8  1  1  0  0  0  0
  9 12  1  0  0  0  0
 10  9  1  0  0  0  0
 12 13  1  0  0  0  0
 12 15  2  0  0  0  0
 15 16  1  0  0  0  0
 16 17  1  1  0  0  0
 16  1  1  0  0  0  0
 18 16  1  1  0  0  0
 19 20  1  0  0  0  0
 19 18  1  0  0  0  0
 21 19  2  0  0  0  0
 22 21  1  0  0  0  0
 23 21  1  0  0  0  0
 23 25  2  0  0  0  0
 24 23  1  0  0  0  0
 25  7  1  0  0  0  0
 26 25  1  0  0  0  0
M  END
