3,5,6
q = -1.0

 25 24  0  0  1  0  0  0  0  0999 V2000
   -0.4380   -0.6729    4.1084 O   0  0  0  0  0  0  0  0  0  0  0  0
   -2.6710   -1.2318    2.3080 O   0  0  0  0  0  0  0  0  0  0  0  0
   -0.1018    0.0186   -1.5477 O   0  5  0  0  0  0  0  0  0  0  0  0
   -1.8479   -0.4552   -2.8540 O   0  0  0  0  0  0  0  0  0  0  0  0
    0.6854   -0.0736    2.1826 N   0  0  0  0  0  2  0  0  0  0  0  0
   -1.3209   -0.2803    0.6908 N   0  0  0  0  0  2  0  0  0  0  0  0
   -0.3963   -0.4841    2.8899 C   0  0  0  0  0  0  0  0  0  0  0  0
   -1.6073   -0.7129    1.9490 C   0  0  0  0  0  0  0  0  0  0  0  0
   -2.1915   -0.5203   -0.4446 C   0  0  2  0  0  0  0  0  0  0  0  0
   -1.3665   -0.3178   -1.7331 C   0  0  0  0  0  0  0  0  0  0  0  0
   -3.4500    0.3763   -0.3991 C   0  0  0  0  0  0  0  0  0  0  0  0
   -4.5171    0.1417   -1.4836 C   0  0  0  0  0  0  0  0  0  0  0  0
   -4.9695   -1.3221   -1.5505 C   0  0  0  0  0  0  0  0  0  0  0  0
   -5.7054    1.0799   -1.2380 C   0  0  0  0  0  0  0  0  0  0  0  0
    1.5476    0.0614    2.7243 H   0  0  0  0  0  0  0  0  0  0  0  0
   -2.5410   -1.5810   -0.4350 H   0  0  0  0  0  0  0  0  0  0  0  0
   -3.9024    0.2108    0.6025 H   0  0  0  0  0  0  0  0  0  0  0  0
   -3.1204    1.4382   -0.4384 H   0  0  0  0  0  0  0  0  0  0  0  0
   -4.0616    0.3919   -2.4648 H   0  0  0  0  0  0  0  0  0  0  0  0
   -5.8213   -1.4404   -2.2516 H   0  0  0  0  0  0  0  0  0  0  0  0
   -4.1519   -1.9745   -1.9157 H   0  0  0  0  0  0  0  0  0  0  0  0
   -5.2956   -1.6919   -0.5545 H   0  0  0  0  0  0  0  0  0  0  0  0
   -5.3868    2.1430   -1.2078 H   0  0  0  0  0  0  0  0  0  0  0  0
   -6.4701    0.9800   -2.0356 H   0  0  0  0  0  0  0  0  0  0  0  0
   -6.1988    0.8528   -0.2683 H   0  0  0  0  0  0  0  0  0  0  0  0
  4 10  2  0  0  0  0
  5 15  1  0  0  0  0
  5  7  1  0  0  0  0
  6  8  1  0  0  0  0
  7  1  2  0  0  0  0
  8  2  2  0  0  0  0
  8  7  1  0  0  0  0
  9 16  1  1  0  0  0
  9 11  1  0  0  0  0
  9  6  1  0  0  0  0
 10  3  1  0  0  0  0
 10  9  1  0  0  0  0
 11 17  1  0  0  0  0
 12 14  1  0  0  0  0
 12 11  1  0  0  0  0
 13 12  1  0  0  0  0
 13 22  1  0  0  0  0
 14 23  1  0  0  0  0
 14 25  1  0  0  0  0
 18 11  1  0  0  0  0
 19 12  1  0  0  0  0
 20 13  1  0  0  0  0
 21 13  1  0  0  0  0
 24 14  1  0  0  0  0
M  CHG  1   3  -1
M  END
