1,2,33
q = -1.0

 35 35  0  0  1  0  0  0  0  0999 V2000
   -0.5109   -1.6139    0.0448 N   0  0  0  0  0  2  0  0  0  0  0  0
   -0.8266    0.9910   -0.5740 O   0  0  0  0  0  1  0  0  0  0  0  0
   -1.8394   -1.6731    0.0928 C   0  0  0  0  0  0  0  0  0  0  0  0
   -2.6580   -0.4753    0.0910 C   0  0  0  0  0  0  0  0  0  0  0  0
   -2.5071   -3.0298    0.0833 C   0  0  0  0  0  0  0  0  0  0  0  0
   -2.3405   -3.5376   -0.8906 H   0  0  0  0  0  0  0  0  0  0  0  0
   -3.5969   -2.9590    0.2199 H   0  0  0  0  0  0  0  0  0  0  0  0
   -2.0971   -3.6949    0.8698 H   0  0  0  0  0  0  0  0  0  0  0  0
   -2.0880    0.7895   -0.3304 C   0  0  2  0  0  3  0  0  0  0  0  0
   -2.9716    1.8980   -0.5298 C   0  0  0  0  0  0  0  0  0  0  0  0
   -2.5096    2.8324   -0.8793 H   0  0  0  0  0  0  0  0  0  0  0  0
   -4.3252    1.8049   -0.2452 C   0  0  0  0  0  0  0  0  0  0  0  0
   -4.9702    2.6875   -0.3791 H   0  0  0  0  0  0  0  0  0  0  0  0
   -4.0546   -0.5159    0.3851 C   0  0  0  0  0  0  0  0  0  0  0  0
   -4.4999   -1.4463    0.7649 H   0  0  0  0  0  0  0  0  0  0  0  0
   -4.8773    0.5925    0.2372 C   0  0  0  0  0  0  0  0  0  0  0  0
   -5.9447    0.5269    0.4924 H   0  0  0  0  0  0  0  0  0  0  0  0
    2.6514   -1.9114    0.0938 C   0  0  1  0  0  0  0  0  0  0  0  0
    3.1821   -2.6823    0.7017 H   0  0  0  0  0  0  0  0  0  0  0  0
    0.2561   -2.8565   -0.1381 C   0  0  0  0  0  0  0  0  0  0  0  0
   -0.3095   -3.5628   -0.7782 H   0  0  0  0  0  0  0  0  0  0  0  0
    0.3882   -3.3801    0.8400 H   0  0  0  0  0  0  0  0  0  0  0  0
    1.6114   -2.6062   -0.8022 C   0  0  0  0  0  0  0  0  0  0  0  0
    1.4369   -1.9882   -1.7086 H   0  0  0  0  0  0  0  0  0  0  0  0
    2.0275   -3.5746   -1.1494 H   0  0  0  0  0  0  0  0  0  0  0  0
    3.6855   -1.1403   -0.7339 C   0  0  0  0  0  0  0  0  0  0  0  0
    3.1416   -0.3694   -1.3213 H   0  0  0  0  0  0  0  0  0  0  0  0
    4.1174   -1.8564   -1.4648 H   0  0  0  0  0  0  0  0  0  0  0  0
    4.7972   -0.4767    0.0780 C   0  0  0  0  0  0  0  0  0  0  0  0
    4.4089    0.3534    0.7045 H   0  0  0  0  0  0  0  0  0  0  0  0
    5.5545   -0.0255   -0.5923 H   0  0  0  0  0  0  0  0  0  0  0  0
    5.3202   -1.2011    0.7370 H   0  0  0  0  0  0  0  0  0  0  0  0
    1.9389   -0.9976    1.0260 N   0  0  0  0  0  0  0  0  0  0  0  0
    2.5586   -0.2431    1.3610 H   0  0  0  0  0  0  0  0  0  0  0  0
    1.5963   -1.5065    1.8527 H   0  0  0  0  0  0  0  0  0  0  0  0
  1  3  1  0  0  0  0
  4  3  2  0  0  0  0
  4 14  1  0  0  0  0
  5  3  1  0  0  0  0
  5  7  1  0  0  0  0
  5  8  1  0  0  0  0
  6  5  1  0  0  0  0
  9  2  1  6  0  0  0
  9  4  1  0  0  0  0
 10  9  1  0  0  0  0
 10 12  2  0  0  0  0
 11 10  1  0  0  0  0
 12 16  1  0  0  0  0
 13 12  1  0  0  0  0
 14 15  1  0  0  0  0
 16 14  2  0  0  0  0
 16 17  1  0  0  0  0
 18 19  1  1  0  0  0
 18 33  1  0  0  0  0
 20  1  1  0  0  0  0
 20 22  1  0  0  0  0
 21 20  1  0  0  0  0
 23 20  1  0  0  0  0
 23 18  1  0  0  0  0
 24 23  1  0  0  0  0
 25 23  1  0  0  0  0
 26 29  1  0  0  0  0
 26 18  1  0  0  0  0
 27 26  1  0  0  0  0
 28 26  1  0  0  0  0
 29 30  1  0  0  0  0
 29 32  1  0  0  0  0
 31 29  1  0  0  0  0
 33 34  1  0  0  0  0
 33 35  1  0  0  0  0
M  END
