1,2,3
q = -1.0

 35 36  0  0  0  0  0  0  0  0999 V2000
   -0.8271    0.9949   -0.1692 N   0  0  0  0  0  2  0  0  0  0  0  0
   -3.5187    0.6898   -0.0642 N   0  0  0  0  0  0  0  0  0  0  0  0
   -0.2042   -1.6332   -0.2215 O   0  5  0  0  0  0  0  0  0  0  0  0
    1.4614    0.0909   -0.0892 C   0  0  0  0  0  0  0  0  0  0  0  0
    1.0409   -1.2780   -0.1635 C   0  0  0  0  0  0  0  0  0  0  0  0
    2.0362   -2.3162   -0.2024 C   0  0  0  0  0  0  0  0  0  0  0  0
    1.6721   -3.3509   -0.2710 H   0  0  0  0  0  0  0  0  0  0  0  0
    3.3746   -2.0117   -0.1462 C   0  0  0  0  0  0  0  0  0  0  0  0
    4.1238   -2.8192   -0.1703 H   0  0  0  0  0  0  0  0  0  0  0  0
    3.8411   -0.6592   -0.0499 C   0  0  0  0  0  0  0  0  0  0  0  0
    5.2314   -0.3747    0.0167 C   0  0  0  0  0  0  0  0  0  0  0  0
    5.9394   -1.2179   -0.0105 H   0  0  0  0  0  0  0  0  0  0  0  0
    5.6940    0.9315    0.1157 C   0  0  0  0  0  0  0  0  0  0  0  0
    6.7726    1.1408    0.1673 H   0  0  0  0  0  0  0  0  0  0  0  0
    4.7588    1.9910    0.1534 C   0  0  0  0  0  0  0  0  0  0  0  0
    5.1117    3.0303    0.2373 H   0  0  0  0  0  0  0  0  0  0  0  0
    3.3912    1.7375    0.0894 C   0  0  0  0  0  0  0  0  0  0  0  0
    2.7047    2.5947    0.1319 H   0  0  0  0  0  0  0  0  0  0  0  0
    2.8813    0.4133   -0.0178 C   0  0  0  0  0  0  0  0  0  0  0  0
    0.4803    1.1266   -0.1243 C   0  0  0  0  0  3  0  0  0  0  0  0
    0.8667    2.1654   -0.1231 H   0  0  0  0  0  0  0  0  0  0  0  0
   -1.6190    2.2205   -0.2176 C   0  0  0  0  0  0  0  0  0  0  0  0
   -1.7785    2.5271   -1.2763 H   0  0  0  0  0  0  0  0  0  0  0  0
   -1.1012    3.0688    0.2817 H   0  0  0  0  0  0  0  0  0  0  0  0
   -2.9542    1.9486    0.4605 C   0  0  0  0  0  0  0  0  0  0  0  0
   -2.7944    1.8016    1.5474 H   0  0  0  0  0  0  0  0  0  0  0  0
   -3.6616    2.7989    0.3190 H   0  0  0  0  0  0  0  0  0  0  0  0
   -3.9154    0.7963   -1.4825 C   0  0  0  0  0  0  0  0  0  0  0  0
   -4.2792   -0.1932   -1.8116 H   0  0  0  0  0  0  0  0  0  0  0  0
   -3.0463    1.0580   -2.1143 H   0  0  0  0  0  0  0  0  0  0  0  0
   -4.7074    1.5682   -1.6151 H   0  0  0  0  0  0  0  0  0  0  0  0
   -4.6740    0.2435    0.7414 C   0  0  0  0  0  0  0  0  0  0  0  0
   -4.3534    0.1122    1.7901 H   0  0  0  0  0  0  0  0  0  0  0  0
   -5.0036   -0.7393    0.3581 H   0  0  0  0  0  0  0  0  0  0  0  0
   -5.5069    0.9799    0.6736 H   0  0  0  0  0  0  0  0  0  0  0  0
  1 20  1  0  0  0  0
  2 25  1  0  0  0  0
  2 32  1  0  0  0  0
  3  5  1  0  0  0  0
  4 19  1  0  0  0  0
  5  4  2  0  0  0  0
  6  5  1  0  0  0  0
  6  8  2  0  0  0  0
  7  6  1  0  0  0  0
  8 10  1  0  0  0  0
  9  8  1  0  0  0  0
 10 19  2  0  0  0  0
 10 11  1  0  0  0  0
 11 13  2  0  0  0  0
 12 11  1  0  0  0  0
 13 15  1  0  0  0  0
 13 14  1  0  0  0  0
 15 16  1  0  0  0  0
 17 18  1  0  0  0  0
 17 15  2  0  0  0  0
 19 17  1  0  0  0  0
 20 21  1  0  0  0  0
 20  4  1  0  0  0  0
 22  1  1  0  0  0  0
 22 24  1  0  0  0  0
 22 25  1  0  0  0  0
 23 22  1  0  0  0  0
 25 26  1  0  0  0  0
 27 25  1  0  0  0  0
 28  2  1  0  0  0  0
 29 28  1  0  0  0  0
 30 28  1  0  0  0  0
 31 28  1  0  0  0  0
 32 33  1  0  0  0  0
 34 32  1  0  0  0  0
 35 32  1  0  0  0  0
M  CHG  1   3  -1
M  END
