1,2,3
q = -1.0

 42 44  0  0  0  0  0  0  0  0999 V2000
    0.2570    0.5510    0.7371 N   0  0  0  0  0  2  0  0  0  0  0  0
    2.8211    0.2213    0.1515 N   0  0  0  0  0  0  0  0  0  0  0  0
   -0.6430   -1.8847    0.0681 O   0  5  0  0  0  0  0  0  0  0  0  0
   -2.0761    0.0382    0.1733 C   0  0  0  0  0  0  0  0  0  0  0  0
   -1.8232   -1.3630   -0.0183 C   0  0  0  0  0  0  0  0  0  0  0  0
   -2.9344   -2.2412   -0.2791 C   0  0  0  0  0  0  0  0  0  0  0  0
   -2.7065   -3.3106   -0.3904 H   0  0  0  0  0  0  0  0  0  0  0  0
   -4.2114   -1.7482   -0.3951 C   0  0  0  0  0  0  0  0  0  0  0  0
   -5.0477   -2.4339   -0.6057 H   0  0  0  0  0  0  0  0  0  0  0  0
   -4.5011   -0.3493   -0.2624 C   0  0  0  0  0  0  0  0  0  0  0  0
   -5.8268    0.1381   -0.4113 C   0  0  0  0  0  0  0  0  0  0  0  0
   -6.6297   -0.5852   -0.6242 H   0  0  0  0  0  0  0  0  0  0  0  0
   -6.1114    1.4936   -0.2965 C   0  0  0  0  0  0  0  0  0  0  0  0
   -7.1416    1.8605   -0.4145 H   0  0  0  0  0  0  0  0  0  0  0  0
   -5.0574    2.3994   -0.0367 C   0  0  0  0  0  0  0  0  0  0  0  0
   -5.2682    3.4769    0.0415 H   0  0  0  0  0  0  0  0  0  0  0  0
   -3.7488    1.9459    0.1109 C   0  0  0  0  0  0  0  0  0  0  0  0
   -2.9563    2.6878    0.2847 H   0  0  0  0  0  0  0  0  0  0  0  0
   -3.4251    0.5639    0.0176 C   0  0  0  0  0  0  0  0  0  0  0  0
   -1.0142    0.8729    0.6290 C   0  0  0  0  0  3  0  0  0  0  0  0
   -1.2997    1.8891    0.9698 H   0  0  0  0  0  0  0  0  0  0  0  0
    1.1465    1.5376    1.3558 C   0  0  0  0  0  0  0  0  0  0  0  0
    0.8150    1.7852    2.3876 H   0  0  0  0  0  0  0  0  0  0  0  0
    1.1273    2.4902    0.7789 H   0  0  0  0  0  0  0  0  0  0  0  0
    2.5556    0.9594    1.4048 C   0  0  0  0  0  0  0  0  0  0  0  0
    3.2986    1.7628    1.6010 H   0  0  0  0  0  0  0  0  0  0  0  0
    2.6308    0.2122    2.2200 H   0  0  0  0  0  0  0  0  0  0  0  0
    2.7798    1.0665   -1.0773 C   0  0  0  0  0  0  0  0  0  0  0  0
    1.8044    1.5884   -1.1209 H   0  0  0  0  0  0  0  0  0  0  0  0
    2.7841    0.3492   -1.9228 H   0  0  0  0  0  0  0  0  0  0  0  0
    3.9538    2.0435   -1.1795 C   0  0  0  0  0  0  0  0  0  0  0  0
    3.9012    2.8011   -0.3660 H   0  0  0  0  0  0  0  0  0  0  0  0
    3.8607    2.6085   -2.1300 H   0  0  0  0  0  0  0  0  0  0  0  0
    5.2903    1.2934   -1.1147 C   0  0  0  0  0  0  0  0  0  0  0  0
    5.3925    0.6636   -2.0262 H   0  0  0  0  0  0  0  0  0  0  0  0
    6.1429    2.0034   -1.1229 H   0  0  0  0  0  0  0  0  0  0  0  0
    5.3401    0.3907    0.1242 C   0  0  0  0  0  0  0  0  0  0  0  0
    5.4115    1.0121    1.0443 H   0  0  0  0  0  0  0  0  0  0  0  0
    6.2497   -0.2446    0.1152 H   0  0  0  0  0  0  0  0  0  0  0  0
    4.1143   -0.5241    0.1936 C   0  0  0  0  0  0  0  0  0  0  0  0
    4.0863   -1.2145   -0.6740 H   0  0  0  0  0  0  0  0  0  0  0  0
    4.0981   -1.1568    1.1008 H   0  0  0  0  0  0  0  0  0  0  0  0
  1 22  1  0  0  0  0
  2 40  1  0  0  0  0
  2 25  1  0  0  0  0
  4 20  1  0  0  0  0
  5  3  1  0  0  0  0
  5  4  2  0  0  0  0
  6  5  1  0  0  0  0
  7  6  1  0  0  0  0
  8  6  2  0  0  0  0
  8 10  1  0  0  0  0
  9  8  1  0  0  0  0
 10 19  1  0  0  0  0
 11 13  1  0  0  0  0
 11 10  2  0  0  0  0
 12 11  1  0  0  0  0
 13 15  2  0  0  0  0
 14 13  1  0  0  0  0
 15 16  1  0  0  0  0
 15 17  1  0  0  0  0
 17 18  1  0  0  0  0
 19 17  2  0  0  0  0
 19  4  1  0  0  0  0
 20  1  1  0  0  0  0
 20 21  1  0  0  0  0
 22 25  1  0  0  0  0
 22 23  1  0  0  0  0
 24 22  1  0  0  0  0
 25 26  1  0  0  0  0
 25 27  1  0  0  0  0
 28  2  1  0  0  0  0
 29 28  1  0  0  0  0
 30 28  1  0  0  0  0
 31 34  1  0  0  0  0
 31 28  1  0  0  0  0
 31 32  1  0  0  0  0
 33 31  1  0  0  0  0
 34 37  1  0  0  0  0
 35 34  1  0  0  0  0
 36 34  1  0  0  0  0
 37 40  1  0  0  0  0
 37 38  1  0  0  0  0
 39 37  1  0  0  0  0
 40 42  1  0  0  0  0
 41 40  1  0  0  0  0
M  CHG  1   3  -1
M  END
