1,2,3
q = -1.0

 31 32  0  0  1  0  0  0  0  0999 V2000
   -2.0680   -1.0177   -0.1253 O   0  5  0  0  0  0  0  0  0  0  0  0
   -0.4483    1.2463   -0.1053 N   0  0  0  0  0  2  0  0  0  0  0  0
    1.8996   -0.1151   -0.1300 N   0  0  0  0  0  2  0  0  0  0  0  0
    0.7182    1.9114   -0.1164 N   0  0  0  0  0  0  0  0  0  0  0  0
    0.7612    2.9370   -0.0698 H   0  0  0  0  0  0  0  0  0  0  0  0
   -2.8759    1.2730   -0.0407 C   0  0  0  0  0  0  0  0  0  0  0  0
   -3.0715   -0.1479   -0.0763 C   0  0  0  0  0  0  0  0  0  0  0  0
   -4.3886   -0.6617   -0.0504 C   0  0  0  0  0  0  0  0  0  0  0  0
   -4.5063   -1.7541   -0.0744 H   0  0  0  0  0  0  0  0  0  0  0  0
   -5.4906    0.1943    0.0049 C   0  0  0  0  0  0  0  0  0  0  0  0
   -6.5054   -0.2314    0.0237 H   0  0  0  0  0  0  0  0  0  0  0  0
   -5.3112    1.5917    0.0400 C   0  0  0  0  0  0  0  0  0  0  0  0
   -6.1793    2.2648    0.0853 H   0  0  0  0  0  0  0  0  0  0  0  0
   -4.0183    2.1128    0.0183 C   0  0  0  0  0  0  0  0  0  0  0  0
   -3.8641    3.2032    0.0479 H   0  0  0  0  0  0  0  0  0  0  0  0
   -1.5734    1.8993   -0.0555 C   0  0  0  0  0  3  0  0  0  0  0  0
   -1.5520    3.0088   -0.0158 H   0  0  0  0  0  0  0  0  0  0  0  0
    1.9167    1.2466   -0.1151 C   0  0  1  0  0  3  0  0  0  0  0  0
    4.1960    1.4145   -0.0441 C   0  0  0  0  0  0  0  0  0  0  0  0
    5.4121    2.2942   -0.0220 C   0  0  0  0  0  0  0  0  0  0  0  0
    5.4369    2.9241   -0.9345 H   0  0  0  0  0  0  0  0  0  0  0  0
    6.3483    1.7102    0.0388 H   0  0  0  0  0  0  0  0  0  0  0  0
    5.3591    2.9898    0.8398 H   0  0  0  0  0  0  0  0  0  0  0  0
    3.1014   -0.7500   -0.0642 C   0  0  0  0  0  0  0  0  0  0  0  0
    3.1352   -2.2414   -0.0108 C   0  0  0  0  0  0  0  0  0  0  0  0
    2.6179   -2.6846   -0.8843 H   0  0  0  0  0  0  0  0  0  0  0  0
    2.5775   -2.5926    0.8813 H   0  0  0  0  0  0  0  0  0  0  0  0
    4.1760   -2.6082    0.0326 H   0  0  0  0  0  0  0  0  0  0  0  0
    3.0020    2.0260   -0.0850 N   0  0  0  0  0  0  0  0  0  0  0  0
    4.2811    0.0095   -0.0198 C   0  0  0  0  0  0  0  0  0  0  0  0
    5.2525   -0.4988    0.0340 H   0  0  0  0  0  0  0  0  0  0  0  0
  1  7  1  0  0  0  0
  2 16  1  0  0  0  0
  3 18  1  0  0  0  0
  3 24  1  0  0  0  0
  4  2  1  0  0  0  0
  4  5  1  0  0  0  0
  6 14  1  0  0  0  0
  7  8  1  0  0  0  0
  7  6  2  0  0  0  0
  8 10  2  0  0  0  0
  9  8  1  0  0  0  0
 10 11  1  0  0  0  0
 10 12  1  0  0  0  0
 12 13  1  0  0  0  0
 14 12  2  0  0  0  0
 14 15  1  0  0  0  0
 16  6  1  0  0  0  0
 16 17  1  0  0  0  0
 18  4  1  1  0  0  0
 18 29  1  0  0  0  0
 19 20  1  0  0  0  0
 19 30  1  0  0  0  0
 20 22  1  0  0  0  0
 20 23  1  0  0  0  0
 21 20  1  0  0  0  0
 24 30  2  0  0  0  0
 24 25  1  0  0  0  0
 25 28  1  0  0  0  0
 25 27  1  0  0  0  0
 26 25  1  0  0  0  0
 29 19  2  0  0  0  0
 30 31  1  0  0  0  0
M  CHG  1   1  -1
M  END
