1,2,3
q = -1.0

 30 31  0  0  1  0  0  0  0  0999 V2000
   -1.0024   -1.3575   -0.0013 O   0  5  0  0  0  0  0  0  0  0  0  0
    2.7754   -0.2260   -0.0012 N   0  0  0  0  0  2  0  0  0  0  0  0
    0.3857    0.6930    0.0001 N   0  0  0  0  0  2  0  0  0  0  0  0
   -0.9238    0.9599    0.0004 N   0  0  0  0  0  0  0  0  0  0  0  0
   -3.8144   -1.2545   -0.0006 N   0  0  0  0  0  0  0  0  0  0  0  0
   -5.0664   -0.7926   -0.0007 N   0  0  0  0  0  0  0  0  0  0  0  0
   -5.8371   -1.4637   -0.0007 H   0  0  0  0  0  0  0  0  0  0  0  0
    3.9819   -0.8111   -0.0030 C   0  0  0  0  0  3  0  0  0  0  0  0
    3.9777   -1.9115   -0.0044 H   0  0  0  0  0  0  0  0  0  0  0  0
    5.1687   -0.0644   -0.0034 C   0  0  0  0  0  0  0  0  0  0  0  0
    6.1392   -0.5792   -0.0049 H   0  0  0  0  0  0  0  0  0  0  0  0
    5.0784    1.3362   -0.0020 C   0  0  0  0  0  0  0  0  0  0  0  0
    5.9889    1.9541   -0.0023 H   0  0  0  0  0  0  0  0  0  0  0  0
    3.8182    1.9448   -0.0004 C   0  0  0  0  0  0  0  0  0  0  0  0
    3.7176    3.0385    0.0004 H   0  0  0  0  0  0  0  0  0  0  0  0
    2.6637    1.1339   -0.0000 C   0  0  0  0  0  0  0  0  0  0  0  0
    1.2953    1.6481    0.0011 C   0  0  1  0  0  3  0  0  0  0  0  0
    0.9677    3.1062    0.0027 C   0  0  0  0  0  0  0  0  0  0  0  0
   -0.1305    3.2253    0.0065 H   0  0  0  0  0  0  0  0  0  0  0  0
    1.3844    3.6134   -0.8927 H   0  0  0  0  0  0  0  0  0  0  0  0
    1.3910    3.6129    0.8952 H   0  0  0  0  0  0  0  0  0  0  0  0
   -1.5929   -0.2167   -0.0005 C   0  0  0  0  0  0  0  0  0  0  0  0
   -3.0567   -0.1384   -0.0006 C   0  0  0  0  0  0  0  0  0  0  0  0
   -3.8622    1.0405    0.0001 C   0  0  0  0  0  0  0  0  0  0  0  0
   -3.5137    2.0769    0.0007 H   0  0  0  0  0  0  0  0  0  0  0  0
   -5.1748    0.5807   -0.0004 C   0  0  0  0  0  0  0  0  0  0  0  0
   -6.4890    1.2899   -0.0022 C   0  0  0  0  0  0  0  0  0  0  0  0
   -7.1044    1.0238    0.8828 H   0  0  0  0  0  0  0  0  0  0  0  0
   -7.0865    1.0527   -0.9076 H   0  0  0  0  0  0  0  0  0  0  0  0
   -6.3295    2.3834    0.0168 H   0  0  0  0  0  0  0  0  0  0  0  0
  1 22  1  0  0  0  0
  2 16  1  0  0  0  0
  3  4  1  0  0  0  0
  5 23  2  0  0  0  0
  6  7  1  0  0  0  0
  6  5  1  0  0  0  0
  6 26  1  0  0  0  0
  8  2  1  0  0  0  0
  9  8  1  0  0  0  0
 10  8  1  0  0  0  0
 10 12  2  0  0  0  0
 11 10  1  0  0  0  0
 12 14  1  0  0  0  0
 13 12  1  0  0  0  0
 14 16  2  0  0  0  0
 14 15  1  0  0  0  0
 16 17  1  0  0  0  0
 17  3  1  6  0  0  0
 17 18  1  0  0  0  0
 18 19  1  0  0  0  0
 18 21  1  0  0  0  0
 20 18  1  0  0  0  0
 22  4  2  0  0  0  0
 23 22  1  0  0  0  0
 23 24  1  0  0  0  0
 24 25  1  0  0  0  0
 26 24  2  0  0  0  0
 27 26  1  0  0  0  0
 27 30  1  0  0  0  0
 27 28  1  0  0  0  0
 29 27  1  0  0  0  0
M  CHG  1   1  -1
M  END
