1,2,5
q = -1.0, confidence = 0.014

 29 30  0  0  0  0  0  0  0  0999 V2000
   -1.0031   -1.3504   -0.0423 O   0  5  0  0  0  0  0  0  0  0  0  0
    2.7904   -0.2047    0.0144 N   0  0  0  0  0  2  0  0  0  0  0  0
    0.9295    2.9429    0.0070 N   0  0  0  0  0  0  0  0  0  0  0  0
    1.5363    3.6290    0.4538 H   0  0  0  0  0  0  0  0  0  0  0  0
    0.4010    0.6533   -0.0218 N   0  0  0  0  0  2  0  0  0  0  0  0
   -0.9163    0.9584   -0.0057 N   0  0  0  0  0  0  0  0  0  0  0  0
   -3.8154   -1.2429   -0.0098 N   0  0  0  0  0  0  0  0  0  0  0  0
   -5.0709   -0.7842   -0.0065 N   0  0  0  0  0  0  0  0  0  0  0  0
   -5.8392   -1.4574   -0.0029 H   0  0  0  0  0  0  0  0  0  0  0  0
   -0.0827    3.0652    0.1333 H   0  0  0  0  0  0  0  0  0  0  0  0
   -6.4971    1.2952   -0.0062 C   0  0  0  0  0  0  0  0  0  0  0  0
   -7.1062    1.0408   -0.8992 H   0  0  0  0  0  0  0  0  0  0  0  0
   -6.3396    2.3892   -0.0092 H   0  0  0  0  0  0  0  0  0  0  0  0
   -7.1013    1.0448    0.8913 H   0  0  0  0  0  0  0  0  0  0  0  0
   -5.1816    0.5877   -0.0082 C   0  0  0  0  0  0  0  0  0  0  0  0
   -3.8698    1.0503   -0.0130 C   0  0  0  0  0  0  0  0  0  0  0  0
   -3.5266    2.0885   -0.0177 H   0  0  0  0  0  0  0  0  0  0  0  0
   -3.0604   -0.1262   -0.0140 C   0  0  0  0  0  0  0  0  0  0  0  0
   -1.5947   -0.2021   -0.0203 C   0  0  0  0  0  0  0  0  0  0  0  0
    1.2896    1.6268    0.0161 C   0  0  0  0  0  0  0  0  0  0  0  0
    2.6763    1.1522   -0.0016 C   0  0  0  0  0  0  0  0  0  0  0  0
    3.8163    1.9763   -0.0435 C   0  0  0  0  0  0  0  0  0  0  0  0
    3.7108    3.0694   -0.0915 H   0  0  0  0  0  0  0  0  0  0  0  0
    5.0823    1.3764   -0.0477 C   0  0  0  0  0  0  0  0  0  0  0  0
    5.9881    2.0002   -0.0797 H   0  0  0  0  0  0  0  0  0  0  0  0
    5.1816   -0.0224   -0.0201 C   0  0  0  0  0  0  0  0  0  0  0  0
    6.1564   -0.5292   -0.0243 H   0  0  0  0  0  0  0  0  0  0  0  0
    4.0000   -0.7800    0.0033 C   0  0  0  0  0  0  0  0  0  0  0  0
    4.0025   -1.8804    0.0094 H   0  0  0  0  0  0  0  0  0  0  0  0
  1 19  1  0  0  0  0
  3 20  1  0  0  0  0
  3 10  1  0  0  0  0
  3  4  1  0  0  0  0
  5  6  1  0  0  0  0
  5 20  1  0  0  0  0
  7  8  1  0  0  0  0
  8  9  1  0  0  0  0
 11 14  1  0  0  0  0
 12 11  1  0  0  0  0
 13 11  1  0  0  0  0
 15  8  1  0  0  0  0
 15 11  1  0  0  0  0
 16 15  2  0  0  0  0
 17 16  1  0  0  0  0
 18 16  1  0  0  0  0
 18  7  2  0  0  0  0
 19 18  1  0  0  0  0
 19  6  2  0  0  0  0
 21  2  1  0  0  0  0
 21 20  2  0  0  0  0
 22 21  1  0  0  0  0
 23 22  1  0  0  0  0
 24 22  2  0  0  0  0
 24 26  1  0  0  0  0
 25 24  1  0  0  0  0
 26 28  2  0  0  0  0
 27 26  1  0  0  0  0
 28 29  1  0  0  0  0
 28  2  1  0  0  0  0
M  CHG  1   1  -1
M  END
