6,17,19
q = -2.0, confidence = 0.906

 27 27  0  0  0  0  0  0  0  0999 V2000
    2.4546    3.3332    0.6715 O   0  0  0  0  0  0  0  0  0  0  0  0
    2.6444    4.2784    0.5263 H   0  0  0  0  0  0  0  0  0  0  0  0
    1.4639   -0.8721   -0.0260 C   0  0  0  0  0  0  0  0  0  0  0  0
   -1.8202    1.9832   -0.1535 N   0  0  0  0  0  0  0  0  0  0  0  0
    2.6708   -1.6512    0.0368 C   0  0  0  0  0  0  0  0  0  0  0  0
   -0.8371    1.0548   -0.1192 N   0  0  0  0  0  2  0  0  0  0  0  0
    3.9804    0.2520   -0.0998 C   0  0  0  0  0  0  0  0  0  0  0  0
    5.0055    0.6617   -0.1234 H   0  0  0  0  0  0  0  0  0  0  0  0
   -4.1088    2.2339    0.0882 N   0  0  0  0  0  0  0  0  0  0  0  0
   -3.9333    3.2290   -0.0562 H   0  0  0  0  0  0  0  0  0  0  0  0
   -5.0296    1.8966   -0.1892 H   0  0  0  0  0  0  0  0  0  0  0  0
    2.8887    1.1189   -0.1715 C   0  0  0  0  0  0  0  0  0  0  0  0
    3.8748   -1.0866   -0.0022 N   0  0  0  0  0  0  0  0  0  0  0  0
    1.5730    0.5518   -0.1249 C   0  0  0  0  0  0  0  0  0  0  0  0
    0.4278    1.4303   -0.1544 C   0  0  0  0  0  3  0  0  0  0  0  0
    0.6068    2.5186   -0.1406 H   0  0  0  0  0  0  0  0  0  0  0  0
   -3.1330    0.0600   -0.0375 N   0  0  0  0  0  2  0  0  0  0  0  0
   -4.0379   -0.3293    0.2451 H   0  0  0  0  0  0  0  0  0  0  0  0
    0.3159   -1.5343    0.0097 O   0  5  0  0  0  0  0  0  0  0  0  0
   -3.0269    1.4073   -0.0418 C   0  0  0  0  0  0  0  0  0  0  0  0
    2.5756   -3.1470    0.1471 C   0  0  0  0  0  0  0  0  0  0  0  0
    2.0058   -3.4505    1.0510 H   0  0  0  0  0  0  0  0  0  0  0  0
    3.5932   -3.5728    0.2003 H   0  0  0  0  0  0  0  0  0  0  0  0
    2.0444   -3.5842   -0.7249 H   0  0  0  0  0  0  0  0  0  0  0  0
    3.1270    2.5989   -0.3484 C   0  0  0  0  0  0  0  0  0  0  0  0
    4.2266    2.7769   -0.3273 H   0  0  0  0  0  0  0  0  0  0  0  0
    2.7722    2.9042   -1.3658 H   0  0  0  0  0  0  0  0  0  0  0  0
  2  1  1  0  0  0  0
  3 19  1  0  0  0  0
  3  5  1  0  0  0  0
  4  6  1  0  0  0  0
  4 20  2  0  0  0  0
  5 21  1  0  0  0  0
  7 13  1  0  0  0  0
  8  7  1  0  0  0  0
 10  9  1  0  0  0  0
 11  9  1  0  0  0  0
 12 14  1  0  0  0  0
 12  7  2  0  0  0  0
 13  5  2  0  0  0  0
 14  3  2  0  0  0  0
 15 16  1  0  0  0  0
 15 14  1  0  0  0  0
 15  6  1  0  0  0  0
 17 18  1  0  0  0  0
 20 17  1  0  0  0  0
 20  9  1  0  0  0  0
 21 23  1  0  0  0  0
 21 22  1  0  0  0  0
 24 21  1  0  0  0  0
 25 26  1  0  0  0  0
 25 12  1  0  0  0  0
 25  1  1  0  0  0  0
 27 25  1  0  0  0  0
M  CHG  1  19  -1
M  END
