2,5,6
q = -2.0, confidence = 0.954

 36 36  0  0  0  0  0  0  0  0999 V2000
    2.8024   -0.7858    0.3274 S   0  0  0  0  0  0  0  0  0  0  0  0
   -1.8982   -1.8420   -0.3902 O   0  0  0  0  0  1  0  0  0  0  0  0
    1.9845   -0.7993    1.5913 O   0  0  0  0  0  0  0  0  0  0  0  0
    3.8850   -1.7877    0.1592 O   0  0  0  0  0  0  0  0  0  0  0  0
    0.0343   -2.4148   -2.1205 N   0  0  0  0  0  0  0  0  0  0  0  0
    1.6424   -0.8669   -0.8142 N   0  0  0  0  0  2  0  0  0  0  0  0
   -2.2068   -2.8340   -1.3223 C   0  0  0  0  0  0  0  0  0  0  0  0
   -3.2920   -2.8087   -1.5819 H   0  0  0  0  0  0  0  0  0  0  0  0
   -1.9938   -3.8523   -0.9094 H   0  0  0  0  0  0  0  0  0  0  0  0
   -1.3610   -2.5692   -2.5655 C   0  0  0  0  0  0  0  0  0  0  0  0
   -1.4691   -3.3655   -3.3390 H   0  0  0  0  0  0  0  0  0  0  0  0
   -1.6825   -1.6032   -3.0010 H   0  0  0  0  0  0  0  0  0  0  0  0
    0.8155   -1.4875   -2.9616 C   0  0  0  0  0  0  0  0  0  0  0  0
    0.1844   -0.6011   -3.1460 H   0  0  0  0  0  0  0  0  0  0  0  0
    1.0847   -1.9574   -3.9370 H   0  0  0  0  0  0  0  0  0  0  0  0
    2.0616   -1.0584   -2.1945 C   0  0  0  0  0  0  0  0  0  0  0  0
    2.8731   -1.8183   -2.2595 H   0  0  0  0  0  0  0  0  0  0  0  0
    2.4600   -0.1180   -2.6403 H   0  0  0  0  0  0  0  0  0  0  0  0
    0.7220   -3.7093   -1.9865 C   0  0  0  0  0  0  0  0  0  0  0  0
    0.9151   -4.1535   -2.9908 H   0  0  0  0  0  0  0  0  0  0  0  0
    0.1085   -4.4025   -1.3862 H   0  0  0  0  0  0  0  0  0  0  0  0
    1.6757   -3.5744   -1.4449 H   0  0  0  0  0  0  0  0  0  0  0  0
    3.5645    0.8336    0.1847 C   0  0  0  0  0  0  0  0  0  0  0  0
    2.7436    1.9699    0.0961 C   0  0  0  0  0  0  0  0  0  0  0  0
    1.6486    1.8809    0.0795 H   0  0  0  0  0  0  0  0  0  0  0  0
    3.3434    3.2281   -0.0098 C   0  0  0  0  0  0  0  0  0  0  0  0
    2.6967    4.1157   -0.0952 H   0  0  0  0  0  0  0  0  0  0  0  0
    4.7492    3.3741   -0.0191 C   0  0  0  0  0  0  0  0  0  0  0  0
    5.5430    2.2128    0.0705 C   0  0  0  0  0  0  0  0  0  0  0  0
    6.6405    2.3065    0.0577 H   0  0  0  0  0  0  0  0  0  0  0  0
    4.9610    0.9402    0.1686 C   0  0  0  0  0  0  0  0  0  0  0  0
    5.5694    0.0261    0.2261 H   0  0  0  0  0  0  0  0  0  0  0  0
    5.3730    4.7418   -0.1300 C   0  0  0  0  0  0  0  0  0  0  0  0
    6.4785    4.6889   -0.1540 H   0  0  0  0  0  0  0  0  0  0  0  0
    5.0810    5.3853    0.7262 H   0  0  0  0  0  0  0  0  0  0  0  0
    5.0347    5.2634   -1.0495 H   0  0  0  0  0  0  0  0  0  0  0  0
  1  3  2  0  0  0  0
  4  1  2  0  0  0  0
  5 19  1  0  0  0  0
  6  1  1  0  0  0  0
  7  9  1  0  0  0  0
  7  2  1  0  0  0  0
  8  7  1  0  0  0  0
 10  5  1  0  0  0  0
 10  7  1  0  0  0  0
 11 10  1  0  0  0  0
 12 10  1  0  0  0  0
 13 16  1  0  0  0  0
 13  5  1  0  0  0  0
 14 13  1  0  0  0  0
 15 13  1  0  0  0  0
 16  6  1  0  0  0  0
 17 16  1  0  0  0  0
 18 16  1  0  0  0  0
 19 22  1  0  0  0  0
 19 21  1  0  0  0  0
 20 19  1  0  0  0  0
 23  1  1  0  0  0  0
 24 23  2  0  0  0  0
 25 24  1  0  0  0  0
 26 24  1  0  0  0  0
 27 26  1  0  0  0  0
 28 26  2  0  0  0  0
 28 29  1  0  0  0  0
 29 31  2  0  0  0  0
 30 29  1  0  0  0  0
 31 23  1  0  0  0  0
 31 32  1  0  0  0  0
 33 28  1  0  0  0  0
 33 35  1  0  0  0  0
 34 33  1  0  0  0  0
 36 33  1  0  0  0  0
M  END
