1,2,4
q = -1.0

 35 38  0  0  0  0  0  0  0  0999 V2000
    0.8589   -0.6457    1.0762 O   0  5  0  0  0  0  0  0  0  0  0  0
    1.6417    0.7343   -0.8977 N   0  0  0  0  0  2  0  0  0  0  0  0
    1.8364    1.5395   -1.9210 N   0  0  0  0  0  0  0  0  0  0  0  0
   -0.3820    2.0610   -1.3327 N   0  0  0  0  0  2  0  0  0  0  0  0
    2.0630   -0.8745    0.6814 C   0  0  0  0  0  0  0  0  0  0  0  0
    2.8870   -1.8674    1.3524 C   0  0  0  0  0  0  0  0  0  0  0  0
    2.3498   -2.5952    2.4410 C   0  0  0  0  0  0  0  0  0  0  0  0
    1.3138   -2.3798    2.7390 H   0  0  0  0  0  0  0  0  0  0  0  0
    3.1190   -3.5495    3.1005 C   0  0  0  0  0  0  0  0  0  0  0  0
    2.7004   -4.1158    3.9458 H   0  0  0  0  0  0  0  0  0  0  0  0
    4.4426   -3.7844    2.6716 C   0  0  0  0  0  0  0  0  0  0  0  0
    5.0611   -4.5371    3.1840 H   0  0  0  0  0  0  0  0  0  0  0  0
    4.9801   -3.0714    1.5991 C   0  0  0  0  0  0  0  0  0  0  0  0
    6.0135   -3.2838    1.2940 H   0  0  0  0  0  0  0  0  0  0  0  0
    4.2251   -2.0923    0.9046 C   0  0  0  0  0  0  0  0  0  0  0  0
    4.7651   -1.3267   -0.2285 C   0  0  0  0  0  0  0  0  0  0  0  0
    6.0890   -1.5275   -0.6866 C   0  0  0  0  0  0  0  0  0  0  0  0
    6.7280   -2.2679   -0.1867 H   0  0  0  0  0  0  0  0  0  0  0  0
    6.6156   -0.8109   -1.7617 C   0  0  0  0  0  0  0  0  0  0  0  0
    7.6497   -0.9949   -2.0897 H   0  0  0  0  0  0  0  0  0  0  0  0
    5.8152    0.1416   -2.4187 C   0  0  0  0  0  0  0  0  0  0  0  0
    6.2185    0.7112   -3.2699 H   0  0  0  0  0  0  0  0  0  0  0  0
    4.5053    0.3691   -1.9973 C   0  0  0  0  0  0  0  0  0  0  0  0
    3.8692    1.1057   -2.5011 H   0  0  0  0  0  0  0  0  0  0  0  0
    3.9513   -0.3483   -0.9027 C   0  0  0  0  0  0  0  0  0  0  0  0
    2.5950   -0.1379   -0.4280 C   0  0  0  0  0  0  0  0  0  0  0  0
    0.7046    2.2703   -2.1599 C   0  0  0  0  0  0  0  0  0  0  0  0
    0.6316    3.2101   -3.2123 C   0  0  0  0  0  0  0  0  0  0  0  0
    1.5170    3.3465   -3.8473 H   0  0  0  0  0  0  0  0  0  0  0  0
   -0.5518    3.9233   -3.4121 C   0  0  0  0  0  0  0  0  0  0  0  0
   -0.6230    4.6560   -4.2297 H   0  0  0  0  0  0  0  0  0  0  0  0
   -1.6495    3.6957   -2.5608 C   0  0  0  0  0  0  0  0  0  0  0  0
   -2.5977    4.2360   -2.6858 H   0  0  0  0  0  0  0  0  0  0  0  0
   -1.5204    2.7550   -1.5333 C   0  0  0  0  0  0  0  0  0  0  0  0
   -2.3460    2.5424   -0.8375 H   0  0  0  0  0  0  0  0  0  0  0  0
  2 26  1  0  0  0  0
  3  2  1  0  0  0  0
  5  1  1  0  0  0  0
  5  6  1  0  0  0  0
  6  7  1  0  0  0  0
  7  8  1  0  0  0  0
  7  9  2  0  0  0  0
  9 10  1  0  0  0  0
 11  9  1  0  0  0  0
 11 12  1  0  0  0  0
 13 11  2  0  0  0  0
 14 13  1  0  0  0  0
 15  6  2  0  0  0  0
 15 13  1  0  0  0  0
 16 15  1  0  0  0  0
 17 16  1  0  0  0  0
 17 18  1  0  0  0  0
 19 17  2  0  0  0  0
 20 19  1  0  0  0  0
 21 23  2  0  0  0  0
 21 19  1  0  0  0  0
 22 21  1  0  0  0  0
 23 25  1  0  0  0  0
 24 23  1  0  0  0  0
 25 26  1  0  0  0  0
 25 16  2  0  0  0  0
 26  5  2  0  0  0  0
 27  3  2  0  0  0  0
 27  4  1  0  0  0  0
 28 27  1  0  0  0  0
 29 28  1  0  0  0  0
 30 28  2  0  0  0  0
 30 32  1  0  0  0  0
 31 30  1  0  0  0  0
 32 34  2  0  0  0  0
 33 32  1  0  0  0  0
 34  4  1  0  0  0  0
 34 35  1  0  0  0  0
M  CHG  1   1  -1
M  END
