3,4,7
q = -1.0

 32 33  0  0  1  0  0  0  0  0999 V2000
    3.1236    1.8786   -1.5881 Cl  0  0  0  0  0  0  0  0  0  0  0  0
   -0.2861    6.1176   -1.5829 Cl  0  0  0  0  0  0  0  0  0  0  0  0
   -1.1259   -2.6959   -1.0360 N   0  0  0  0  0  2  0  0  0  0  0  0
   -2.1062    0.0264   -0.9409 N   0  0  0  0  0  2  0  0  0  0  0  0
   -0.1454   -3.5451   -1.4438 O   0  0  0  0  0  0  0  0  0  0  0  0
    0.6552   -3.1944   -0.9205 H   0  0  0  0  0  0  0  0  0  0  0  0
    0.6739    0.2884   -1.4039 O   0  5  0  0  0  0  0  0  0  0  0  0
   -2.4885   -3.9474   -2.6172 C   0  0  0  0  0  0  0  0  0  0  0  0
   -1.6511   -3.9027   -3.3422 H   0  0  0  0  0  0  0  0  0  0  0  0
   -3.4505   -3.8473   -3.1488 H   0  0  0  0  0  0  0  0  0  0  0  0
   -2.4283   -4.9547   -2.1527 H   0  0  0  0  0  0  0  0  0  0  0  0
   -2.2978   -2.8691   -1.5901 C   0  0  1  0  0  3  0  0  0  0  0  0
   -3.4304   -2.0369   -1.1115 C   0  0  0  0  0  0  0  0  0  0  0  0
   -3.3289   -0.6474   -0.7772 C   0  0  0  0  0  0  0  0  0  0  0  0
   -4.4633    0.0112   -0.2475 C   0  0  0  0  0  0  0  0  0  0  0  0
   -4.3619    1.0585    0.0726 H   0  0  0  0  0  0  0  0  0  0  0  0
   -5.6858   -0.6501   -0.0872 C   0  0  0  0  0  0  0  0  0  0  0  0
   -6.5465   -0.1122    0.3389 H   0  0  0  0  0  0  0  0  0  0  0  0
   -5.8047   -1.9966   -0.4643 C   0  0  0  0  0  0  0  0  0  0  0  0
   -6.7600   -2.5289   -0.3479 H   0  0  0  0  0  0  0  0  0  0  0  0
   -4.6868   -2.6687   -0.9712 C   0  0  0  0  0  0  0  0  0  0  0  0
   -4.7778   -3.7315   -1.2400 H   0  0  0  0  0  0  0  0  0  0  0  0
   -2.0875    1.2971   -1.2749 C   0  0  0  0  0  3  0  0  0  0  0  0
   -3.0539    1.8132   -1.4677 H   0  0  0  0  0  0  0  0  0  0  0  0
   -0.9174    2.1123   -1.4177 C   0  0  0  0  0  0  0  0  0  0  0  0
    0.4239    1.5401   -1.4612 C   0  0  0  0  0  0  0  0  0  0  0  0
    1.5009    2.5066   -1.5702 C   0  0  0  0  0  0  0  0  0  0  0  0
    1.2853    3.8780   -1.6088 C   0  0  0  0  0  0  0  0  0  0  0  0
    2.1393    4.5669   -1.6623 H   0  0  0  0  0  0  0  0  0  0  0  0
   -0.0383    4.3847   -1.5691 C   0  0  0  0  0  0  0  0  0  0  0  0
   -1.1188    3.5199   -1.4992 C   0  0  0  0  0  0  0  0  0  0  0  0
   -2.1418    3.9226   -1.4616 H   0  0  0  0  0  0  0  0  0  0  0  0
  1 27  1  0  0  0  0
  2 30  1  0  0  0  0
  4 14  1  0  0  0  0
  5  3  1  0  0  0  0
  5  6  1  0  0  0  0
  8 11  1  0  0  0  0
  8 12  1  0  0  0  0
  9  8  1  0  0  0  0
 10  8  1  0  0  0  0
 12 13  1  0  0  0  0
 12  3  1  1  0  0  0
 13 21  2  0  0  0  0
 13 14  1  0  0  0  0
 14 15  2  0  0  0  0
 15 17  1  0  0  0  0
 15 16  1  0  0  0  0
 17 18  1  0  0  0  0
 19 20  1  0  0  0  0
 19 17  2  0  0  0  0
 21 19  1  0  0  0  0
 22 21  1  0  0  0  0
 23  4  1  0  0  0  0
 24 23  1  0  0  0  0
 25 23  1  0  0  0  0
 26 25  1  0  0  0  0
 26  7  1  0  0  0  0
 27 26  2  0  0  0  0
 28 27  1  0  0  0  0
 28 30  2  0  0  0  0
 29 28  1  0  0  0  0
 30 31  1  0  0  0  0
 31 32  1  0  0  0  0
 31 25  2  0  0  0  0
M  CHG  1   7  -1
M  END
