2,4,5
q = -2.0, confidence = 0.644

 38 40  0  0  1  0  0  0  0  0999 V2000
    2.0814    0.2517    0.0418 N   0  0  0  0  0  0  0  0  0  0  0  0
    0.7973    0.1922    0.0106 N   0  0  0  0  0  2  0  0  0  0  0  0
   -1.2750    1.1820    0.0132 N   0  0  0  0  0  0  0  0  0  0  0  0
   -1.6382   -0.0835    0.0425 N   0  0  0  0  0  2  0  0  0  0  0  0
    1.1173   -2.5167   -0.1504 O   0  0  0  0  0  1  0  0  0  0  0  0
    0.0381    1.3798   -0.0026 C   0  0  0  0  0  0  0  0  0  0  0  0
    0.5557    2.7619    0.0178 C   0  0  0  0  0  0  0  0  0  0  0  0
    1.8990    3.1229   -0.2466 C   0  0  0  0  0  0  0  0  0  0  0  0
    2.2919    4.4695   -0.2385 C   0  0  0  0  0  0  0  0  0  0  0  0
    1.3675    5.4875    0.0339 C   0  0  0  0  0  0  0  0  0  0  0  0
    0.0301    5.1426    0.2968 C   0  0  0  0  0  0  0  0  0  0  0  0
   -0.3710    3.8044    0.2885 C   0  0  0  0  0  0  0  0  0  0  0  0
    2.8718   -0.8564    0.0711 C   0  0  0  0  0  0  0  0  0  0  0  0
    2.3843   -2.2202   -0.0234 C   0  0  2  0  0  3  0  0  0  0  0  0
    3.3445   -3.2725    0.0077 C   0  0  0  0  0  0  0  0  0  0  0  0
    4.7054   -3.0117    0.1244 C   0  0  0  0  0  0  0  0  0  0  0  0
    5.1817   -1.6786    0.2110 C   0  0  0  0  0  0  0  0  0  0  0  0
    4.2776   -0.6280    0.1799 C   0  0  0  0  0  0  0  0  0  0  0  0
   -3.0235   -0.3301    0.0769 C   0  0  0  0  0  0  0  0  0  0  0  0
   -3.9329    0.4707   -0.6521 C   0  0  0  0  0  0  0  0  0  0  0  0
   -5.3033    0.1891   -0.6121 C   0  0  0  0  0  0  0  0  0  0  0  0
   -5.7963   -0.8866    0.1484 C   0  0  0  0  0  0  0  0  0  0  0  0
   -4.9001   -1.6682    0.8956 C   0  0  0  0  0  0  0  0  0  0  0  0
   -3.5258   -1.3904    0.8691 C   0  0  0  0  0  0  0  0  0  0  0  0
    2.6315    2.3359   -0.4556 H   0  0  0  0  0  0  0  0  0  0  0  0
    3.3426    4.7219   -0.4497 H   0  0  0  0  0  0  0  0  0  0  0  0
    1.6841    6.5416    0.0437 H   0  0  0  0  0  0  0  0  0  0  0  0
   -0.7101    5.9278    0.5156 H   0  0  0  0  0  0  0  0  0  0  0  0
   -1.4155    3.5325    0.4940 H   0  0  0  0  0  0  0  0  0  0  0  0
    2.9610   -4.3011   -0.0634 H   0  0  0  0  0  0  0  0  0  0  0  0
    5.4176   -3.8509    0.1481 H   0  0  0  0  0  0  0  0  0  0  0  0
    6.2594   -1.4802    0.3027 H   0  0  0  0  0  0  0  0  0  0  0  0
    4.6091    0.4183    0.2489 H   0  0  0  0  0  0  0  0  0  0  0  0
   -3.5346    1.3082   -1.2415 H   0  0  0  0  0  0  0  0  0  0  0  0
   -5.9997    0.8160   -1.1902 H   0  0  0  0  0  0  0  0  0  0  0  0
   -6.8743   -1.1040    0.1701 H   0  0  0  0  0  0  0  0  0  0  0  0
   -5.2761   -2.4875    1.5278 H   0  0  0  0  0  0  0  0  0  0  0  0
   -2.8271   -1.9468    1.5135 H   0  0  0  0  0  0  0  0  0  0  0  0
  1 13  2  0  0  0  0
  2  1  1  0  0  0  0
  3  4  1  0  0  0  0
  4 19  1  0  0  0  0
  6  2  1  0  0  0  0
  6  3  2  0  0  0  0
  6  7  1  0  0  0  0
  7 12  1  0  0  0  0
  8  9  1  0  0  0  0
  8  7  2  0  0  0  0
  9 10  2  0  0  0  0
 10 27  1  0  0  0  0
 10 11  1  0  0  0  0
 11 28  1  0  0  0  0
 12 11  2  0  0  0  0
 12 29  1  0  0  0  0
 13 18  1  0  0  0  0
 14  5  1  6  0  0  0
 14 15  1  0  0  0  0
 14 13  1  0  0  0  0
 15 16  2  0  0  0  0
 16 31  1  0  0  0  0
 16 17  1  0  0  0  0
 17 32  1  0  0  0  0
 18 17  2  0  0  0  0
 18 33  1  0  0  0  0
 19 24  1  0  0  0  0
 20 21  1  0  0  0  0
 20 19  2  0  0  0  0
 21 22  2  0  0  0  0
 22 36  1  0  0  0  0
 22 23  1  0  0  0  0
 23 37  1  0  0  0  0
 24 23  2  0  0  0  0
 24 38  1  0  0  0  0
 25  8  1  0  0  0  0
 26  9  1  0  0  0  0
 30 15  1  0  0  0  0
 34 20  1  0  0  0  0
 35 21  1  0  0  0  0
M  END
