1,4,5
q = -2.0, confidence = 0.754

 41 43  0  0  0  0  0  0  0  0999 V2000
    0.4176    1.6000   -0.1416 N   0  0  0  0  0  2  0  0  0  0  0  0
    1.6339    1.1947   -0.0512 N   0  0  0  0  0  0  0  0  0  0  0  0
    1.0848   -1.1295   -0.2888 N   0  0  0  0  0  2  0  0  0  0  0  0
   -0.2026   -0.9511   -0.3810 N   0  0  0  0  0  2  0  0  0  0  0  0
   -2.0439    2.2476    0.0123 O   0  5  0  0  0  0  0  0  0  0  0  0
    1.9437   -0.1242   -0.0626 C   0  0  0  0  0  0  0  0  0  0  0  0
    3.3728   -0.4777    0.1123 C   0  0  0  0  0  0  0  0  0  0  0  0
    4.3289    0.5093    0.4299 C   0  0  0  0  0  0  0  0  0  0  0  0
    5.6772    0.1702    0.5994 C   0  0  0  0  0  0  0  0  0  0  0  0
    6.1249   -1.1582    0.4586 C   0  0  0  0  0  0  0  0  0  0  0  0
    5.1625   -2.1402    0.1380 C   0  0  0  0  0  0  0  0  0  0  0  0
    3.8144   -1.8122   -0.0310 C   0  0  0  0  0  0  0  0  0  0  0  0
    0.1669    2.9715   -0.2879 C   0  0  0  0  0  0  0  0  0  0  0  0
   -1.2276    3.2622   -0.1846 C   0  0  0  0  0  0  0  0  0  0  0  0
   -1.6449    4.6129   -0.2965 C   0  0  0  0  0  0  0  0  0  0  0  0
   -0.6897    5.6117   -0.5023 C   0  0  0  0  0  0  0  0  0  0  0  0
    0.6901    5.3052   -0.5997 C   0  0  0  0  0  0  0  0  0  0  0  0
    1.1273    3.9835   -0.4922 C   0  0  0  0  0  0  0  0  0  0  0  0
   -0.9111   -2.1309   -0.7589 C   0  0  0  0  0  0  0  0  0  0  0  0
   -0.5104   -3.4047   -0.3014 C   0  0  0  0  0  0  0  0  0  0  0  0
   -1.2552   -4.5370   -0.6515 C   0  0  0  0  0  0  0  0  0  0  0  0
   -2.3948   -4.4187   -1.4667 C   0  0  0  0  0  0  0  0  0  0  0  0
   -2.7761   -3.1540   -1.9436 C   0  0  0  0  0  0  0  0  0  0  0  0
   -2.0368   -2.0154   -1.5989 C   0  0  0  0  0  0  0  0  0  0  0  0
    7.5742   -1.5284    0.6482 C   0  0  0  0  0  0  0  0  0  0  0  0
    3.9975    1.5511    0.5444 H   0  0  0  0  0  0  0  0  0  0  0  0
    6.4047    0.9594    0.8486 H   0  0  0  0  0  0  0  0  0  0  0  0
    5.4816   -3.1881    0.0154 H   0  0  0  0  0  0  0  0  0  0  0  0
    3.0783   -2.5871   -0.2881 H   0  0  0  0  0  0  0  0  0  0  0  0
   -2.7170    4.8442   -0.2173 H   0  0  0  0  0  0  0  0  0  0  0  0
   -1.0174    6.6592   -0.5910 H   0  0  0  0  0  0  0  0  0  0  0  0
    1.4198    6.1120   -0.7630 H   0  0  0  0  0  0  0  0  0  0  0  0
    2.1890    3.7113   -0.5652 H   0  0  0  0  0  0  0  0  0  0  0  0
    0.3815   -3.4777    0.3363 H   0  0  0  0  0  0  0  0  0  0  0  0
   -0.9454   -5.5255   -0.2789 H   0  0  0  0  0  0  0  0  0  0  0  0
   -2.9765   -5.3121   -1.7386 H   0  0  0  0  0  0  0  0  0  0  0  0
   -3.6517   -3.0527   -2.6028 H   0  0  0  0  0  0  0  0  0  0  0  0
   -2.3134   -1.0241   -1.9858 H   0  0  0  0  0  0  0  0  0  0  0  0
    7.7094   -2.1982    1.5242 H   0  0  0  0  0  0  0  0  0  0  0  0
    7.9730   -2.0729   -0.2331 H   0  0  0  0  0  0  0  0  0  0  0  0
    8.2069   -0.6341    0.8096 H   0  0  0  0  0  0  0  0  0  0  0  0
  1  2  1  0  0  0  0
  3  6  1  0  0  0  0
  4  3  1  0  0  0  0
  6  2  2  0  0  0  0
  6  7  1  0  0  0  0
  7  8  1  0  0  0  0
  8 26  1  0  0  0  0
  8  9  2  0  0  0  0
  9 27  1  0  0  0  0
 10  9  1  0  0  0  0
 10 25  1  0  0  0  0
 11 10  2  0  0  0  0
 12  7  2  0  0  0  0
 12 11  1  0  0  0  0
 13 14  1  0  0  0  0
 13  1  1  0  0  0  0
 14  5  1  0  0  0  0
 15 30  1  0  0  0  0
 15 14  2  0  0  0  0
 16 15  1  0  0  0  0
 17 16  2  0  0  0  0
 17 18  1  0  0  0  0
 18 13  2  0  0  0  0
 19  4  1  0  0  0  0
 19 20  1  0  0  0  0
 20 34  1  0  0  0  0
 21 20  2  0  0  0  0
 21 35  1  0  0  0  0
 22 21  1  0  0  0  0
 23 24  1  0  0  0  0
 23 22  2  0  0  0  0
 24 19  2  0  0  0  0
 25 41  1  0  0  0  0
 25 39  1  0  0  0  0
 28 11  1  0  0  0  0
 29 12  1  0  0  0  0
 31 16  1  0  0  0  0
 32 17  1  0  0  0  0
 33 18  1  0  0  0  0
 36 22  1  0  0  0  0
 37 23  1  0  0  0  0
 38 24  1  0  0  0  0
 40 25  1  0  0  0  0
M  CHG  1   5  -1
M  END
