3,11,12
q = -1.0

 27 27  0  0  1  0  0  0  0  0999 V2000
   -3.1077    2.7354   -0.5627 C   0  0  0  0  0  0  0  0  0  0  0  0
   -4.1814    2.9525   -0.4774 H   0  0  0  0  0  0  0  0  0  0  0  0
   -1.3513    1.0919   -0.5404 N   0  0  0  0  0  2  0  0  0  0  0  0
   -0.4339    2.0722   -0.7455 C   0  0  2  0  0  3  0  0  0  0  0  0
   -2.1683    3.7552   -0.7683 C   0  0  0  0  0  0  0  0  0  0  0  0
   -2.4870    4.8050   -0.8473 H   0  0  0  0  0  0  0  0  0  0  0  0
   -2.6588    1.4169   -0.4447 C   0  0  0  0  0  0  0  0  0  0  0  0
   -3.3536    0.5857   -0.2584 H   0  0  0  0  0  0  0  0  0  0  0  0
   -0.8115    3.4171   -0.8550 C   0  0  0  0  0  0  0  0  0  0  0  0
   -0.0395    4.1862   -0.9990 H   0  0  0  0  0  0  0  0  0  0  0  0
   -0.7307    0.0623    1.9000 O   0  5  0  0  0  0  0  0  0  0  0  0
    1.3207    0.5145    0.0683 N   0  0  0  0  0  0  0  0  0  0  0  0
    2.5301   -0.2151   -0.3627 C   0  0  0  0  0  0  0  0  0  0  0  0
    2.3624   -0.6429   -1.3734 H   0  0  0  0  0  0  0  0  0  0  0  0
    2.6851   -1.0850    0.3047 H   0  0  0  0  0  0  0  0  0  0  0  0
    0.1097    0.9949    2.2736 C   0  0  0  0  0  0  0  0  0  0  0  0
    1.4372    1.0207    1.4724 C   0  0  0  0  0  0  0  0  0  0  0  0
    2.1291    0.3464    2.0168 H   0  0  0  0  0  0  0  0  0  0  0  0
    1.8777    2.0353    1.4940 H   0  0  0  0  0  0  0  0  0  0  0  0
    0.9918    1.6147   -0.8866 C   0  0  0  0  0  0  0  0  0  0  0  0
    1.6999    2.4584   -0.7688 H   0  0  0  0  0  0  0  0  0  0  0  0
    1.1199    1.2036   -1.9117 H   0  0  0  0  0  0  0  0  0  0  0  0
   -0.0315    1.7658    3.2116 O   0  0  0  0  0  0  0  0  0  0  0  0
    3.8113    0.6119   -0.3950 C   0  0  0  0  0  0  0  0  0  0  0  0
    3.8961    1.8152   -0.2344 O   0  0  0  0  0  0  0  0  0  0  0  0
    4.8697   -0.1852   -0.6477 O   0  0  0  0  0  0  0  0  0  0  0  0
    5.6580    0.4012   -0.6746 H   0  0  0  0  0  0  0  0  0  0  0  0
  1  2  1  0  0  0  0
  1  7  2  0  0  0  0
  3  7  1  0  0  0  0
  4 20  1  6  0  0  0
  4  3  1  0  0  0  0
  5  1  1  0  0  0  0
  6  5  1  0  0  0  0
  7  8  1  0  0  0  0
  9  5  2  0  0  0  0
  9  4  1  0  0  0  0
 10  9  1  0  0  0  0
 11 16  1  0  0  0  0
 12 17  1  0  0  0  0
 13 12  1  0  0  0  0
 13 15  1  0  0  0  0
 14 13  1  0  0  0  0
 16 23  2  0  0  0  0
 17 19  1  0  0  0  0
 17 18  1  0  0  0  0
 17 16  1  0  0  0  0
 20 21  1  0  0  0  0
 20 12  1  0  0  0  0
 22 20  1  0  0  0  0
 24 13  1  0  0  0  0
 24 25  2  0  0  0  0
 26 24  1  0  0  0  0
 27 26  1  0  0  0  0
M  CHG  1  11  -1
M  END
