1,2,3
q = -1.0

 24 25  0  0  0  0  0  0  0  0999 V2000
   -1.0014   -1.9671   -0.3054 O   0  5  0  0  0  0  0  0  0  0  0  0
   -2.6065    0.1908   -0.0306 N   0  0  0  0  0  2  0  0  0  0  0  0
   -0.7642    2.1108   -0.2203 N   0  0  0  0  0  2  0  0  0  0  0  0
   -2.2800   -2.1524   -0.1408 C   0  0  0  0  0  0  0  0  0  0  0  0
   -2.8343   -3.4723   -0.1071 C   0  0  0  0  0  0  0  0  0  0  0  0
   -2.1422   -4.3187   -0.2241 H   0  0  0  0  0  0  0  0  0  0  0  0
   -4.1982   -3.6640    0.0694 C   0  0  0  0  0  0  0  0  0  0  0  0
   -4.5970   -4.6905    0.0924 H   0  0  0  0  0  0  0  0  0  0  0  0
   -5.0959   -2.5701    0.2212 C   0  0  0  0  0  0  0  0  0  0  0  0
   -6.1710   -2.7552    0.3590 H   0  0  0  0  0  0  0  0  0  0  0  0
   -4.6036   -1.2716    0.1942 C   0  0  0  0  0  0  0  0  0  0  0  0
   -5.2853   -0.4149    0.3100 H   0  0  0  0  0  0  0  0  0  0  0  0
   -3.2146   -1.0422    0.0159 C   0  0  0  0  0  0  0  0  0  0  0  0
   -3.0661    1.4162    0.0696 C   0  0  0  0  0  0  0  0  0  0  0  0
   -4.1327    1.6638    0.2222 H   0  0  0  0  0  0  0  0  0  0  0  0
   -2.0845    2.4856   -0.0330 C   0  0  0  0  0  0  0  0  0  0  0  0
   -2.4291    3.8505    0.0463 C   0  0  0  0  0  0  0  0  0  0  0  0
   -3.4832    4.1246    0.1970 H   0  0  0  0  0  0  0  0  0  0  0  0
   -1.4363    4.8302   -0.0679 C   0  0  0  0  0  0  0  0  0  0  0  0
   -1.6992    5.8967   -0.0065 H   0  0  0  0  0  0  0  0  0  0  0  0
   -0.1068    4.4307   -0.2640 C   0  0  0  0  0  0  0  0  0  0  0  0
    0.7078    5.1614   -0.3628 H   0  0  0  0  0  0  0  0  0  0  0  0
    0.1799    3.0588   -0.3348 C   0  0  0  0  0  0  0  0  0  0  0  0
    1.2062    2.6959   -0.4911 H   0  0  0  0  0  0  0  0  0  0  0  0
  1  4  1  0  0  0  0
  2 13  1  0  0  0  0
  2 14  1  0  0  0  0
  3 16  1  0  0  0  0
  4  5  2  0  0  0  0
  4 13  1  0  0  0  0
  5  7  1  0  0  0  0
  6  5  1  0  0  0  0
  7  8  1  0  0  0  0
  7  9  2  0  0  0  0
  9 10  1  0  0  0  0
 11  9  1  0  0  0  0
 11 12  1  0  0  0  0
 13 11  2  0  0  0  0
 14 15  1  0  0  0  0
 16 17  1  0  0  0  0
 16 14  2  0  0  0  0
 17 18  1  0  0  0  0
 19 20  1  0  0  0  0
 19 17  2  0  0  0  0
 21 19  1  0  0  0  0
 22 21  1  0  0  0  0
 23 21  2  0  0  0  0
 23  3  1  0  0  0  0
 24 23  1  0  0  0  0
M  CHG  1   1  -1
M  END
