1,2,3
q = -1.0, confidence = 0.0

 30 31  0  0  1  0  0  0  0  0999 V2000
   -0.7966    2.5304   -0.9793 O   0  5  0  0  0  0  0  0  0  0  0  0
    1.6066    1.2895    0.2059 N   0  0  0  0  0  2  0  0  0  0  0  0
    0.9388   -0.7324   -1.4233 N   0  0  0  0  0  2  0  0  0  0  0  0
   -0.2534    3.5715   -0.4709 C   0  0  0  0  0  0  0  0  0  0  0  0
    0.9678    3.6148    0.2526 C   0  0  0  0  0  0  0  0  0  0  0  0
    1.2929    4.6157    0.5668 H   0  0  0  0  0  0  0  0  0  0  0  0
    1.9063    2.5729    0.4643 C   0  0  2  0  0  3  0  0  0  0  0  0
    2.4729    0.2045    0.1942 C   0  0  0  0  0  0  0  0  0  0  0  0
    2.1002   -0.8683   -0.7164 C   0  0  1  0  0  3  0  0  0  0  0  0
    0.5410   -1.6982   -2.2465 C   0  0  0  0  0  0  0  0  0  0  0  0
   -0.4258   -1.5451   -2.7533 H   0  0  0  0  0  0  0  0  0  0  0  0
    1.2932   -2.8779   -2.4567 C   0  0  0  0  0  0  0  0  0  0  0  0
    0.9271   -3.6412   -3.1578 H   0  0  0  0  0  0  0  0  0  0  0  0
    2.4709   -3.0521   -1.7455 C   0  0  0  0  0  0  0  0  0  0  0  0
    3.0705   -3.9685   -1.8603 H   0  0  0  0  0  0  0  0  0  0  0  0
    2.9088   -2.0507   -0.8335 C   0  0  0  0  0  0  0  0  0  0  0  0
    4.0727   -2.1858   -0.0260 C   0  0  0  0  0  0  0  0  0  0  0  0
    4.6881   -3.0933   -0.1133 H   0  0  0  0  0  0  0  0  0  0  0  0
    4.3882   -1.1859    0.8817 C   0  0  0  0  0  0  0  0  0  0  0  0
    5.2634   -1.3007    1.5391 H   0  0  0  0  0  0  0  0  0  0  0  0
    3.6044   -0.0124    0.9996 C   0  0  0  0  0  0  0  0  0  0  0  0
    3.8774    0.7192    1.7668 H   0  0  0  0  0  0  0  0  0  0  0  0
    3.2810    3.0022    0.9305 C   0  0  0  0  0  0  0  0  0  0  0  0
    3.4428    2.7491    1.9990 H   0  0  0  0  0  0  0  0  0  0  0  0
    3.4038    4.0945    0.8213 H   0  0  0  0  0  0  0  0  0  0  0  0
    4.0780    2.4962    0.3497 H   0  0  0  0  0  0  0  0  0  0  0  0
   -0.9856    4.8703   -0.7323 C   0  0  0  0  0  0  0  0  0  0  0  0
   -1.0743    5.0234   -1.8276 H   0  0  0  0  0  0  0  0  0  0  0  0
   -0.4939    5.7504   -0.2790 H   0  0  0  0  0  0  0  0  0  0  0  0
   -2.0207    4.7852   -0.3427 H   0  0  0  0  0  0  0  0  0  0  0  0
  1  4  1  0  0  0  0
  4  5  2  0  0  0  0
  5  7  1  0  0  0  0
  5  6  1  0  0  0  0
  7  2  1  6  0  0  0
  7 23  1  0  0  0  0
  8  2  1  0  0  0  0
  8 21  2  0  0  0  0
  9  3  1  1  0  0  0
  9  8  1  0  0  0  0
 10  3  1  0  0  0  0
 11 10  1  0  0  0  0
 12 10  2  0  0  0  0
 12 14  1  0  0  0  0
 13 12  1  0  0  0  0
 14 16  2  0  0  0  0
 15 14  1  0  0  0  0
 16  9  1  0  0  0  0
 16 17  1  0  0  0  0
 17 19  2  0  0  0  0
 18 17  1  0  0  0  0
 19 21  1  0  0  0  0
 19 20  1  0  0  0  0
 21 22  1  0  0  0  0
 23 24  1  0  0  0  0
 25 23  1  0  0  0  0
 26 23  1  0  0  0  0
 27  4  1  0  0  0  0
 27 30  1  0  0  0  0
 27 29  1  0  0  0  0
 28 27  1  0  0  0  0
M  CHG  1   1  -1
M  END
