1,2,3
q = -1.0

 40 42  0  0  1  0  0  0  0  0999 V2000
    0.1626    0.0007    2.6484 O   0  5  0  0  0  0  0  0  0  0  0  0
    2.2575   -0.8417    0.7134 N   0  0  0  0  0  2  0  0  0  0  0  0
    0.1759   -2.0220   -0.4425 N   0  0  0  0  0  2  0  0  0  0  0  0
    1.2144    0.0934    3.3865 C   0  0  0  0  0  0  0  0  0  0  0  0
    2.5499   -0.1922    3.0105 C   0  0  0  0  0  0  0  0  0  0  0  0
    3.2949   -0.0777    3.8092 H   0  0  0  0  0  0  0  0  0  0  0  0
    3.0449   -0.7182    1.7858 C   0  0  1  0  0  3  0  0  0  0  0  0
    2.5257   -1.4735   -0.4909 C   0  0  0  0  0  0  0  0  0  0  0  0
    3.7337   -1.5157   -1.2042 C   0  0  0  0  0  0  0  0  0  0  0  0
    4.6105   -0.9812   -0.8217 H   0  0  0  0  0  0  0  0  0  0  0  0
    3.8358   -2.2008   -2.4395 C   0  0  0  0  0  0  0  0  0  0  0  0
    4.8021   -2.1968   -2.9659 H   0  0  0  0  0  0  0  0  0  0  0  0
    2.7523   -2.8706   -2.9934 C   0  0  0  0  0  3  0  0  0  0  0  0
    2.8452   -3.4140   -3.9452 H   0  0  0  0  0  0  0  0  0  0  0  0
    1.4969   -2.8415   -2.3265 C   0  0  0  0  0  0  0  0  0  0  0  0
    1.3713   -2.1192   -1.0946 C   0  0  0  0  0  0  0  0  0  0  0  0
    0.3242   -3.4938   -2.8045 C   0  0  0  0  0  0  0  0  0  0  0  0
    0.3748   -4.0629   -3.7458 H   0  0  0  0  0  0  0  0  0  0  0  0
   -0.8548   -3.4361   -2.0830 C   0  0  0  0  0  0  0  0  0  0  0  0
   -1.7444   -3.9843   -2.4201 H   0  0  0  0  0  0  0  0  0  0  0  0
   -0.9106   -2.6769   -0.8757 C   0  0  0  0  0  0  0  0  0  0  0  0
   -2.1258   -2.6285   -0.0334 C   0  0  0  0  0  0  0  0  0  0  0  0
   -3.4148   -2.7951   -0.5870 C   0  0  0  0  0  0  0  0  0  0  0  0
   -3.5335   -2.9119   -1.6740 H   0  0  0  0  0  0  0  0  0  0  0  0
   -4.5505   -2.7677    0.2316 C   0  0  0  0  0  0  0  0  0  0  0  0
   -5.5484   -2.8821   -0.2174 H   0  0  0  0  0  0  0  0  0  0  0  0
   -4.4189   -2.5769    1.6169 C   0  0  0  0  0  0  0  0  0  0  0  0
   -5.3129   -2.5526    2.2579 H   0  0  0  0  0  0  0  0  0  0  0  0
   -3.1430   -2.4123    2.1788 C   0  0  0  0  0  0  0  0  0  0  0  0
   -3.0286   -2.2603    3.2622 H   0  0  0  0  0  0  0  0  0  0  0  0
   -2.0060   -2.4396    1.3631 C   0  0  0  0  0  0  0  0  0  0  0  0
   -1.0090   -2.3382    1.8165 H   0  0  0  0  0  0  0  0  0  0  0  0
    0.9415    0.5323    4.8079 C   0  0  0  0  0  0  0  0  0  0  0  0
    0.1837   -0.1402    5.2592 H   0  0  0  0  0  0  0  0  0  0  0  0
    0.4902    1.5459    4.7900 H   0  0  0  0  0  0  0  0  0  0  0  0
    1.8461    0.5479    5.4426 H   0  0  0  0  0  0  0  0  0  0  0  0
    4.4872   -1.1723    1.7716 C   0  0  0  0  0  0  0  0  0  0  0  0
    4.6001   -2.1380    1.2397 H   0  0  0  0  0  0  0  0  0  0  0  0
    4.8743   -1.2833    2.8005 H   0  0  0  0  0  0  0  0  0  0  0  0
    5.1283   -0.4328    1.2475 H   0  0  0  0  0  0  0  0  0  0  0  0
  1  4  1  0  0  0  0
  4 33  1  0  0  0  0
  5  4  2  0  0  0  0
  5  6  1  0  0  0  0
  7  2  1  1  0  0  0
  7  5  1  0  0  0  0
  8  2  1  0  0  0  0
  9 10  1  0  0  0  0
  9  8  1  0  0  0  0
 11  9  2  0  0  0  0
 12 11  1  0  0  0  0
 13 11  1  0  0  0  0
 13 15  1  0  0  0  0
 14 13  1  0  0  0  0
 15 16  1  0  0  0  0
 16  8  2  0  0  0  0
 16  3  1  0  0  0  0
 17 15  2  0  0  0  0
 17 19  1  0  0  0  0
 18 17  1  0  0  0  0
 19 21  2  0  0  0  0
 20 19  1  0  0  0  0
 21  3  1  0  0  0  0
 21 22  1  0  0  0  0
 22 31  1  0  0  0  0
 23 22  2  0  0  0  0
 23 25  1  0  0  0  0
 24 23  1  0  0  0  0
 25 27  2  0  0  0  0
 26 25  1  0  0  0  0
 27 29  1  0  0  0  0
 27 28  1  0  0  0  0
 29 30  1  0  0  0  0
 31 32  1  0  0  0  0
 31 29  2  0  0  0  0
 33 34  1  0  0  0  0
 33 36  1  0  0  0  0
 35 33  1  0  0  0  0
 37  7  1  0  0  0  0
 37 39  1  0  0  0  0
 38 37  1  0  0  0  0
 40 37  1  0  0  0  0
M  CHG  1   1  -1
M  END
