1,5,6
q = -1.0

 44 46  0  0  0  0  0  0  0  0999 V2000
   -0.1375    0.3724   -0.1368 O   0  5  0  0  0  0  0  0  0  0  0  0
   -2.6936   -0.5075    0.7806 N   0  0  0  0  0  0  0  0  0  0  0  0
   -2.9049    0.6446    0.1408 N   0  0  0  0  0  0  0  0  0  0  0  0
   -4.0096    0.7473   -0.6092 N   0  0  0  0  0  0  0  0  0  0  0  0
    2.3479    1.6251   -0.1960 N   0  0  0  0  0  2  0  0  0  0  0  0
    3.9222   -0.7309   -0.3902 N   0  0  0  0  0  0  0  0  0  0  0  0
   -0.6072    1.5458    0.1349 C   0  0  0  0  0  0  0  0  0  0  0  0
   -2.0214    1.7539    0.2793 C   0  0  0  0  0  0  0  0  0  0  0  0
   -2.5718    3.0163    0.4996 C   0  0  0  0  0  0  0  0  0  0  0  0
   -3.6674    3.0899    0.5669 H   0  0  0  0  0  0  0  0  0  0  0  0
   -1.7628    4.1676    0.6279 C   0  0  0  0  0  0  0  0  0  0  0  0
   -0.3816    3.9892    0.5119 C   0  0  0  0  0  0  0  0  0  0  0  0
    0.2840    4.8640    0.6027 H   0  0  0  0  0  0  0  0  0  0  0  0
    0.2129    2.7268    0.2627 C   0  0  0  0  0  0  0  0  0  0  0  0
   -3.7602   -1.2603    0.4142 C   0  0  0  0  0  0  0  0  0  0  0  0
   -4.1159   -2.5902    0.7561 C   0  0  0  0  0  0  0  0  0  0  0  0
   -3.4802   -3.1911    1.4208 H   0  0  0  0  0  0  0  0  0  0  0  0
   -5.2935   -3.0866    0.2107 C   0  0  0  0  0  0  0  0  0  0  0  0
   -5.6075   -4.1144    0.4482 H   0  0  0  0  0  0  0  0  0  0  0  0
   -6.1168   -2.3022   -0.6578 C   0  0  0  0  0  0  0  0  0  0  0  0
   -7.0367   -2.7525   -1.0607 H   0  0  0  0  0  0  0  0  0  0  0  0
   -5.7871   -0.9975   -1.0042 C   0  0  0  0  0  0  0  0  0  0  0  0
   -6.4165   -0.3925   -1.6719 H   0  0  0  0  0  0  0  0  0  0  0  0
   -4.5903   -0.4690   -0.4566 C   0  0  0  0  0  0  0  0  0  0  0  0
   -2.3829    5.5183    0.8811 C   0  0  0  0  0  0  0  0  0  0  0  0
   -1.6135    6.3123    0.9411 H   0  0  0  0  0  0  0  0  0  0  0  0
   -2.9559    5.5321    1.8320 H   0  0  0  0  0  0  0  0  0  0  0  0
   -3.0935    5.7965    0.0748 H   0  0  0  0  0  0  0  0  0  0  0  0
    1.6487    2.6787    0.0885 C   0  0  0  0  0  3  0  0  0  0  0  0
    2.1697    3.6591    0.1872 H   0  0  0  0  0  0  0  0  0  0  0  0
    3.7715    1.7495   -0.4334 C   0  0  0  0  0  0  0  0  0  0  0  0
    4.1983    2.6827    0.0018 H   0  0  0  0  0  0  0  0  0  0  0  0
    3.9415    1.8012   -1.5330 H   0  0  0  0  0  0  0  0  0  0  0  0
    4.4840    0.5310    0.1431 C   0  0  0  0  0  0  0  0  0  0  0  0
    5.5807    0.5849   -0.0549 H   0  0  0  0  0  0  0  0  0  0  0  0
    4.3311    0.5158    1.2393 H   0  0  0  0  0  0  0  0  0  0  0  0
    4.3693   -0.9897   -1.7714 C   0  0  0  0  0  0  0  0  0  0  0  0
    5.4730   -1.1434   -1.8062 H   0  0  0  0  0  0  0  0  0  0  0  0
    4.0841   -0.1507   -2.4293 H   0  0  0  0  0  0  0  0  0  0  0  0
    3.8547   -1.8912   -2.1508 H   0  0  0  0  0  0  0  0  0  0  0  0
    4.3165   -1.8559    0.4788 C   0  0  0  0  0  0  0  0  0  0  0  0
    5.4255   -1.9170    0.5732 H   0  0  0  0  0  0  0  0  0  0  0  0
    3.9349   -2.7960    0.0430 H   0  0  0  0  0  0  0  0  0  0  0  0
    3.8535   -1.7158    1.4729 H   0  0  0  0  0  0  0  0  0  0  0  0
  1  7  1  0  0  0  0
  3  8  1  0  0  0  0
  3  2  1  0  0  0  0
  4 24  2  0  0  0  0
  4  3  1  0  0  0  0
  5 29  1  0  0  0  0
  6 34  1  0  0  0  0
  6 41  1  0  0  0  0
  7 14  2  0  0  0  0
  7  8  1  0  0  0  0
  8  9  2  0  0  0  0
  9 10  1  0  0  0  0
  9 11  1  0  0  0  0
 11 25  1  0  0  0  0
 12 13  1  0  0  0  0
 12 11  2  0  0  0  0
 14 12  1  0  0  0  0
 15 16  1  0  0  0  0
 15  2  2  0  0  0  0
 16 17  1  0  0  0  0
 18 19  1  0  0  0  0
 18 16  2  0  0  0  0
 20 18  1  0  0  0  0
 21 20  1  0  0  0  0
 22 20  2  0  0  0  0
 22 24  1  0  0  0  0
 23 22  1  0  0  0  0
 24 15  1  0  0  0  0
 25 26  1  0  0  0  0
 25 27  1  0  0  0  0
 28 25  1  0  0  0  0
 29 30  1  0  0  0  0
 29 14  1  0  0  0  0
 31  5  1  0  0  0  0
 31 32  1  0  0  0  0
 31 34  1  0  0  0  0
 33 31  1  0  0  0  0
 34 36  1  0  0  0  0
 35 34  1  0  0  0  0
 37  6  1  0  0  0  0
 38 37  1  0  0  0  0
 39 37  1  0  0  0  0
 40 37  1  0  0  0  0
 41 42  1  0  0  0  0
 41 44  1  0  0  0  0
 43 41  1  0  0  0  0
M  CHG  1   1  -1
M  END
