1,3,5
q = -1.0, confidence = 0.01

 19 19  0  0  1  0  0  0  0  0999 V2000
   -0.7844   -0.5057    1.5882 O   0  5  0  0  0  0  0  0  0  0  0  0
   -2.7132   -1.0634    2.6062 O   0  0  0  0  0  0  0  0  0  0  0  0
   -1.3724    0.8054   -0.6935 N   0  0  0  0  0  2  0  0  0  0  0  0
   -2.4060    2.6646   -1.2552 N   0  0  0  0  0  0  0  0  0  0  0  0
   -1.1452   -1.9754   -0.4822 N   0  0  0  0  0  0  0  0  0  0  0  0
   -1.9666   -1.0824    1.6449 C   0  0  0  0  0  0  0  0  0  0  0  0
   -2.3813   -1.7457    0.3045 C   0  0  1  0  0  0  0  0  0  0  0  0
   -3.3271   -0.8151   -0.4598 C   0  0  0  0  0  0  0  0  0  0  0  0
   -2.7369    0.5389   -0.7432 C   0  0  0  0  0  0  0  0  0  0  0  0
   -3.3877    1.7106   -1.0955 C   0  0  0  0  0  0  0  0  0  0  0  0
   -1.2010    2.0962   -1.0020 C   0  0  0  0  0  3  0  0  0  0  0  0
   -2.5597    3.6444   -1.5027 H   0  0  0  0  0  0  0  0  0  0  0  0
   -2.9043   -2.6993    0.5192 H   0  0  0  0  0  0  0  0  0  0  0  0
   -4.2449   -0.6962    0.1494 H   0  0  0  0  0  0  0  0  0  0  0  0
   -4.4506    1.9298   -1.2351 H   0  0  0  0  0  0  0  0  0  0  0  0
   -0.2480    2.6346   -1.0122 H   0  0  0  0  0  0  0  0  0  0  0  0
   -0.5769   -2.7435   -0.0830 H   0  0  0  0  0  0  0  0  0  0  0  0
   -3.6470   -1.3016   -1.4097 H   0  0  0  0  0  0  0  0  0  0  0  0
   -1.3651   -2.2241   -1.4594 H   0  0  0  0  0  0  0  0  0  0  0  0
  1  6  1  0  0  0  0
  4 10  1  0  0  0  0
  4 11  1  0  0  0  0
  5 17  1  0  0  0  0
  5  7  1  0  0  0  0
  6  2  2  0  0  0  0
  7 13  1  1  0  0  0
  7  6  1  0  0  0  0
  8 14  1  0  0  0  0
  8  7  1  0  0  0  0
  9  3  1  0  0  0  0
  9  8  1  0  0  0  0
 10  9  2  0  0  0  0
 11  3  1  0  0  0  0
 12  4  1  0  0  0  0
 15 10  1  0  0  0  0
 16 11  1  0  0  0  0
 18  8  1  0  0  0  0
 19  5  1  0  0  0  0
M  CHG  1   1  -1
M  END
