1,2,3
q = -1.0

 22 22  0  0  1  0  0  0  0  0999 V2000
   -1.3840    1.2608    0.5716 N   0  0  0  0  0  2  0  0  0  0  0  0
    0.7509    1.1439    1.8706 O   0  5  0  0  0  0  0  0  0  0  0  0
   -1.0909   -0.8454   -0.8154 N   0  0  0  0  0  2  0  0  0  0  0  0
   -1.2554    2.2701    1.4213 N   0  0  0  0  0  0  0  0  0  0  0  0
    0.2306    3.0389    3.0208 N   0  0  0  0  0  0  0  0  0  0  0  0
   -0.4310    3.7846    3.2300 H   0  0  0  0  0  0  0  0  0  0  0  0
    1.0847    2.9394    3.5666 H   0  0  0  0  0  0  0  0  0  0  0  0
   -2.4267    1.0491   -0.2208 C   0  0  1  0  0  3  0  0  0  0  0  0
   -0.8376   -1.9822   -1.4855 C   0  0  0  0  0  3  0  0  0  0  0  0
    0.1121   -2.4861   -1.2538 H   0  0  0  0  0  0  0  0  0  0  0  0
   -0.0760    2.1149    2.0897 C   0  0  0  0  0  0  0  0  0  0  0  0
   -2.2642   -0.1533   -1.0213 C   0  0  0  0  0  0  0  0  0  0  0  0
   -3.6250    1.9385   -0.2566 C   0  0  0  0  0  0  0  0  0  0  0  0
   -3.4891    2.7648    0.4641 H   0  0  0  0  0  0  0  0  0  0  0  0
   -4.5464    1.3818    0.0137 H   0  0  0  0  0  0  0  0  0  0  0  0
   -3.7831    2.3689   -1.2677 H   0  0  0  0  0  0  0  0  0  0  0  0
   -1.7396   -2.5048   -2.4199 C   0  0  0  0  0  0  0  0  0  0  0  0
   -1.4974   -3.4382   -2.9460 H   0  0  0  0  0  0  0  0  0  0  0  0
   -2.9401   -1.8150   -2.6558 C   0  0  0  0  0  0  0  0  0  0  0  0
   -3.6694   -2.1994   -3.3839 H   0  0  0  0  0  0  0  0  0  0  0  0
   -3.2058   -0.6351   -1.9538 C   0  0  0  0  0  0  0  0  0  0  0  0
   -4.1389   -0.0779   -2.1135 H   0  0  0  0  0  0  0  0  0  0  0  0
  1  4  1  0  0  0  0
  2 11  1  0  0  0  0
  4 11  2  0  0  0  0
  5  6  1  0  0  0  0
  5  7  1  0  0  0  0
  8  1  1  1  0  0  0
  9 10  1  0  0  0  0
  9  3  1  0  0  0  0
 11  5  1  0  0  0  0
 12  3  1  0  0  0  0
 12  8  1  0  0  0  0
 13  8  1  0  0  0  0
 13 15  1  0  0  0  0
 13 14  1  0  0  0  0
 16 13  1  0  0  0  0
 17  9  1  0  0  0  0
 18 17  1  0  0  0  0
 19 17  2  0  0  0  0
 19 21  1  0  0  0  0
 20 19  1  0  0  0  0
 21 12  2  0  0  0  0
 22 21  1  0  0  0  0
M  CHG  1   2  -1
M  END
