1,3,4
q = -1.0, confidence = 0.02

 30 30  0  0  0  0  0  0  0  0999 V2000
   -1.1685   -1.1790    0.7163 O   0  5  0  0  0  0  0  0  0  0  0  0
    2.4910    3.7683   -0.3773 O   0  0  0  0  0  0  0  0  0  0  0  0
   -1.3884    0.4119   -1.3981 N   0  0  0  0  0  2  0  0  0  0  0  0
    0.9665    1.6575   -1.1872 N   0  0  0  0  0  0  0  0  0  0  0  0
   -2.2451   -1.8402    0.3271 C   0  0  0  0  0  0  0  0  0  0  0  0
   -2.7177   -2.9455    1.0754 C   0  0  0  0  0  0  0  0  0  0  0  0
   -3.8652   -3.6217    0.6671 C   0  0  0  0  0  0  0  0  0  0  0  0
   -4.5729   -3.2159   -0.4934 C   0  0  0  0  0  0  0  0  0  0  0  0
   -4.1175   -2.1397   -1.2425 C   0  0  0  0  0  0  0  0  0  0  0  0
   -2.9402   -1.4274   -0.8641 C   0  0  0  0  0  0  0  0  0  0  0  0
   -2.4696   -0.3357   -1.6470 C   0  0  0  0  0  3  0  0  0  0  0  0
   -1.2033    1.6039   -2.2261 C   0  0  0  0  0  0  0  0  0  0  0  0
    0.2810    1.7497   -2.4915 C   0  0  0  0  0  0  0  0  0  0  0  0
    2.4465    1.6032   -1.3012 C   0  0  0  0  0  0  0  0  0  0  0  0
    3.0334    3.0022   -1.4513 C   0  0  0  0  0  0  0  0  0  0  0  0
    0.7921    2.5426   -0.6760 H   0  0  0  0  0  0  0  0  0  0  0  0
    2.7856    4.6924   -0.4651 H   0  0  0  0  0  0  0  0  0  0  0  0
   -2.1581   -3.2452    1.9729 H   0  0  0  0  0  0  0  0  0  0  0  0
   -4.2258   -4.4802    1.2532 H   0  0  0  0  0  0  0  0  0  0  0  0
   -5.4801   -3.7563   -0.7992 H   0  0  0  0  0  0  0  0  0  0  0  0
   -4.6621   -1.8191   -2.1444 H   0  0  0  0  0  0  0  0  0  0  0  0
   -3.0620   -0.0791   -2.5464 H   0  0  0  0  0  0  0  0  0  0  0  0
   -1.7731    1.5265   -3.1764 H   0  0  0  0  0  0  0  0  0  0  0  0
   -1.6002    2.4956   -1.6838 H   0  0  0  0  0  0  0  0  0  0  0  0
    0.6355    0.9049   -3.1155 H   0  0  0  0  0  0  0  0  0  0  0  0
    0.5081    2.6980   -3.0263 H   0  0  0  0  0  0  0  0  0  0  0  0
    2.7269    0.9513   -2.1502 H   0  0  0  0  0  0  0  0  0  0  0  0
    2.8514    1.1420   -0.3825 H   0  0  0  0  0  0  0  0  0  0  0  0
    2.7676    3.4459   -2.4400 H   0  0  0  0  0  0  0  0  0  0  0  0
    4.1442    2.9336   -1.4042 H   0  0  0  0  0  0  0  0  0  0  0  0
  4 16  1  0  0  0  0
  5  1  1  0  0  0  0
  5  6  1  0  0  0  0
  6 18  1  0  0  0  0
  7  6  2  0  0  0  0
  7 19  1  0  0  0  0
  8  7  1  0  0  0  0
  9 10  1  0  0  0  0
  9  8  2  0  0  0  0
 10  5  2  0  0  0  0
 11  3  1  0  0  0  0
 11 10  1  0  0  0  0
 12 24  1  0  0  0  0
 12  3  1  0  0  0  0
 13 12  1  0  0  0  0
 13  4  1  0  0  0  0
 14  4  1  0  0  0  0
 14 28  1  0  0  0  0
 15 30  1  0  0  0  0
 15 14  1  0  0  0  0
 15  2  1  0  0  0  0
 17  2  1  0  0  0  0
 20  8  1  0  0  0  0
 21  9  1  0  0  0  0
 22 11  1  0  0  0  0
 23 12  1  0  0  0  0
 25 13  1  0  0  0  0
 26 13  1  0  0  0  0
 27 14  1  0  0  0  0
 29 15  1  0  0  0  0
M  CHG  1   1  -1
M  END
