2,3,4
q = -2.0, confidence = 0.838

 37 39  0  0  1  0  0  0  0  0999 V2000
    1.2163    0.5975   -1.3586 N   0  0  0  0  0  0  0  0  0  0  0  0
    1.3440   -0.6439   -0.9640 N   0  0  0  0  0  2  0  0  0  0  0  0
    0.9989   -3.0194   -0.2621 N   0  0  0  0  0  2  0  0  0  0  0  0
   -0.9828   -0.0767   -1.5066 O   0  5  0  0  0  0  0  0  0  0  0  0
    1.7846    3.1203   -2.1110 O   0  0  0  0  0  0  0  0  0  0  0  0
   -1.3584    4.9223   -2.1504 C   0  0  0  0  0  0  0  0  0  0  0  0
   -2.3101    3.8668   -1.9930 C   0  0  0  0  0  0  0  0  0  0  0  0
   -1.8603    2.5641   -1.8637 C   0  0  0  0  0  0  0  0  0  0  0  0
   -0.4721    2.2417   -1.8659 C   0  0  1  0  0  3  0  0  0  0  0  0
    0.5493    3.3091   -2.0555 C   0  0  0  0  0  0  0  0  0  0  0  0
   -0.0054    4.6605   -2.1769 C   0  0  0  0  0  0  0  0  0  0  0  0
   -0.0857    0.8906   -1.5951 C   0  0  0  0  0  0  0  0  0  0  0  0
    2.5060   -1.1964   -0.5479 C   0  0  1  0  0  3  0  0  0  0  0  0
    3.7254   -0.4093   -0.3060 C   0  0  0  0  0  0  0  0  0  0  0  0
    4.5826   -0.7632    0.7707 C   0  0  0  0  0  0  0  0  0  0  0  0
    5.7144    0.0031    1.0727 C   0  0  0  0  0  0  0  0  0  0  0  0
    6.0149    1.1499    0.3177 C   0  0  0  0  0  0  0  0  0  0  0  0
    5.1574    1.5282   -0.7268 C   0  0  0  0  0  0  0  0  0  0  0  0
    4.0221    0.7691   -1.0404 C   0  0  0  0  0  0  0  0  0  0  0  0
    2.3199   -2.5994   -0.2396 C   0  0  2  0  0  3  0  0  0  0  0  0
    3.3387   -3.5436    0.0272 C   0  0  0  0  0  0  0  0  0  0  0  0
    3.0065   -4.8596    0.3494 C   0  0  0  0  0  0  0  0  0  0  0  0
    1.6519   -5.2378    0.4088 C   0  0  0  0  0  0  0  0  0  0  0  0
    0.6864   -4.2820    0.0851 C   0  0  0  0  0  0  0  0  0  0  0  0
   -1.7161    5.9605   -2.2537 H   0  0  0  0  0  0  0  0  0  0  0  0
   -3.3870    4.0907   -1.9663 H   0  0  0  0  0  0  0  0  0  0  0  0
   -2.5705    1.7378   -1.7233 H   0  0  0  0  0  0  0  0  0  0  0  0
    0.7368    5.4634   -2.3049 H   0  0  0  0  0  0  0  0  0  0  0  0
    4.3152   -1.6045    1.4243 H   0  0  0  0  0  0  0  0  0  0  0  0
    6.3540   -0.2861    1.9209 H   0  0  0  0  0  0  0  0  0  0  0  0
    6.9027    1.7550    0.5579 H   0  0  0  0  0  0  0  0  0  0  0  0
    5.3555    2.4438   -1.3043 H   0  0  0  0  0  0  0  0  0  0  0  0
    3.3300    1.1302   -1.8118 H   0  0  0  0  0  0  0  0  0  0  0  0
    4.3870   -3.2263   -0.0345 H   0  0  0  0  0  0  0  0  0  0  0  0
    3.8010   -5.5917    0.5567 H   0  0  0  0  0  0  0  0  0  0  0  0
    1.3439   -6.2546    0.6877 H   0  0  0  0  0  0  0  0  0  0  0  0
   -0.3854   -4.5276    0.1028 H   0  0  0  0  0  0  0  0  0  0  0  0
  1  2  1  0  0  0  0
  3 20  1  0  0  0  0
  3 24  1  0  0  0  0
  5 10  2  0  0  0  0
  6  7  1  0  0  0  0
  7 26  1  0  0  0  0
  7  8  2  0  0  0  0
  8 27  1  0  0  0  0
  9  8  1  0  0  0  0
  9 12  1  1  0  0  0
 10  9  1  0  0  0  0
 11  6  2  0  0  0  0
 11 10  1  0  0  0  0
 12  4  1  0  0  0  0
 12  1  2  0  0  0  0
 13  2  1  1  0  0  0
 13 14  1  0  0  0  0
 14 15  1  0  0  0  0
 15 16  2  0  0  0  0
 15 29  1  0  0  0  0
 16 30  1  0  0  0  0
 17 31  1  0  0  0  0
 17 16  1  0  0  0  0
 18 17  2  0  0  0  0
 19 18  1  0  0  0  0
 19 14  2  0  0  0  0
 20 13  1  6  0  0  0
 20 21  1  0  0  0  0
 21 22  2  0  0  0  0
 22 23  1  0  0  0  0
 22 35  1  0  0  0  0
 23 36  1  0  0  0  0
 24 37  1  0  0  0  0
 24 23  2  0  0  0  0
 25  6  1  0  0  0  0
 28 11  1  0  0  0  0
 32 18  1  0  0  0  0
 33 19  1  0  0  0  0
 34 21  1  0  0  0  0
M  CHG  1   4  -1
M  END
