1,2,3
q = -1.0, confidence = 0.282

 54 55  0  0  1  0  0  0  0  0999 V2000
   -1.4296   -2.6520    0.1509 O   0  0  0  0  0  1  0  0  0  0  0  0
   -2.8212   -0.5422   -0.0826 N   0  0  0  0  0  2  0  0  0  0  0  0
   -1.0056    1.3044    0.1015 N   0  0  0  0  0  2  0  0  0  0  0  0
   -2.8057   -2.9356   -0.0576 C   0  0  0  0  0  0  0  0  0  0  0  0
   -3.5949   -1.6243   -0.1660 C   0  0  1  0  0  3  0  0  0  0  0  0
   -4.9862   -1.4694   -0.3282 C   0  0  0  0  0  0  0  0  0  0  0  0
   -5.5141   -0.1712   -0.3821 C   0  0  0  0  0  0  0  0  0  0  0  0
   -4.6667    0.9468   -0.2752 C   0  0  0  0  0  0  0  0  0  0  0  0
   -3.2899    0.7176   -0.1222 C   0  0  0  0  0  0  0  0  0  0  0  0
   -2.2273    1.7474   -0.0141 C   0  0  1  0  0  3  0  0  0  0  0  0
   -2.9188   -3.7190   -1.3781 C   0  0  0  0  0  0  0  0  0  0  0  0
   -3.2998   -3.7417    1.1567 C   0  0  0  0  0  0  0  0  0  0  0  0
   -2.6137    3.1952   -0.0276 C   0  0  0  0  0  0  0  0  0  0  0  0
    0.1136    2.2084    0.0751 C   0  0  0  0  0  0  0  0  0  0  0  0
    0.7439    2.5704    1.2977 C   0  0  0  0  0  0  0  0  0  0  0  0
    1.9167    3.3455    1.2424 C   0  0  0  0  0  0  0  0  0  0  0  0
    2.4539    3.7725    0.0243 C   0  0  0  0  0  0  0  0  0  0  0  0
    1.7834    3.4625   -1.1620 C   0  0  0  0  0  0  0  0  0  0  0  0
    0.6021    2.6950   -1.1738 C   0  0  0  0  0  0  0  0  0  0  0  0
    0.1624    2.2139    2.6572 C   0  0  0  0  0  0  0  0  0  0  0  0
   -0.2624    3.4808    3.4204 C   0  0  0  0  0  0  0  0  0  0  0  0
    1.1234    1.3456    3.4823 C   0  0  0  0  0  0  0  0  0  0  0  0
   -0.1010    2.4843   -2.5117 C   0  0  0  0  0  0  0  0  0  0  0  0
    0.8232    1.8459   -3.5616 C   0  0  0  0  0  0  0  0  0  0  0  0
   -0.6743    3.8132   -3.0410 C   0  0  0  0  0  0  0  0  0  0  0  0
   -5.6429   -2.3477   -0.4060 H   0  0  0  0  0  0  0  0  0  0  0  0
   -6.5975   -0.0243   -0.5053 H   0  0  0  0  0  0  0  0  0  0  0  0
   -5.0744    1.9661   -0.3106 H   0  0  0  0  0  0  0  0  0  0  0  0
   -3.9734   -3.9657   -1.6157 H   0  0  0  0  0  0  0  0  0  0  0  0
   -2.4856   -3.1131   -2.1973 H   0  0  0  0  0  0  0  0  0  0  0  0
   -2.3429   -4.6604   -1.2883 H   0  0  0  0  0  0  0  0  0  0  0  0
   -4.3715   -4.0089    1.0585 H   0  0  0  0  0  0  0  0  0  0  0  0
   -2.7067   -4.6733    1.2342 H   0  0  0  0  0  0  0  0  0  0  0  0
   -3.1505   -3.1468    2.0784 H   0  0  0  0  0  0  0  0  0  0  0  0
   -3.3258    3.3945    0.8000 H   0  0  0  0  0  0  0  0  0  0  0  0
   -1.7307    3.8465    0.0954 H   0  0  0  0  0  0  0  0  0  0  0  0
   -3.1277    3.4600   -0.9738 H   0  0  0  0  0  0  0  0  0  0  0  0
    2.4119    3.6234    2.1853 H   0  0  0  0  0  0  0  0  0  0  0  0
    3.3803    4.3660    0.0005 H   0  0  0  0  0  0  0  0  0  0  0  0
    2.1807    3.8307   -2.1200 H   0  0  0  0  0  0  0  0  0  0  0  0
   -0.7432    1.5995    2.4945 H   0  0  0  0  0  0  0  0  0  0  0  0
   -0.9779    4.0901    2.8305 H   0  0  0  0  0  0  0  0  0  0  0  0
   -0.7538    3.2080    4.3768 H   0  0  0  0  0  0  0  0  0  0  0  0
    0.6050    4.1300    3.6628 H   0  0  0  0  0  0  0  0  0  0  0  0
    1.3447    0.4021    2.9470 H   0  0  0  0  0  0  0  0  0  0  0  0
    2.0793    1.8697    3.6936 H   0  0  0  0  0  0  0  0  0  0  0  0
    0.6593    1.0724    4.4510 H   0  0  0  0  0  0  0  0  0  0  0  0
   -0.9332    1.7697   -2.3581 H   0  0  0  0  0  0  0  0  0  0  0  0
    1.6855    2.5004   -3.8061 H   0  0  0  0  0  0  0  0  0  0  0  0
    1.1992    0.8678   -3.2078 H   0  0  0  0  0  0  0  0  0  0  0  0
    0.2634    1.6655   -4.5018 H   0  0  0  0  0  0  0  0  0  0  0  0
    0.1356    4.5347   -3.2768 H   0  0  0  0  0  0  0  0  0  0  0  0
   -1.2499    3.6421   -3.9740 H   0  0  0  0  0  0  0  0  0  0  0  0
   -1.3457    4.3042   -2.3095 H   0  0  0  0  0  0  0  0  0  0  0  0
  4  1  1  0  0  0  0
  4 12  1  0  0  0  0
  5  2  1  0  0  0  0
  5  4  1  1  0  0  0
  6  5  1  0  0  0  0
  7  6  2  0  0  0  0
  7  8  1  0  0  0  0
  8  9  2  0  0  0  0
  9  2  1  0  0  0  0
  9 10  1  0  0  0  0
 10  3  1  1  0  0  0
 11 31  1  0  0  0  0
 11  4  1  0  0  0  0
 12 33  1  0  0  0  0
 12 34  1  0  0  0  0
 13 10  1  0  0  0  0
 13 36  1  0  0  0  0
 13 35  1  0  0  0  0
 14  3  1  0  0  0  0
 14 15  1  0  0  0  0
 15 20  1  0  0  0  0
 16 15  2  0  0  0  0
 16 38  1  0  0  0  0
 17 16  1  0  0  0  0
 18 17  2  0  0  0  0
 19 18  1  0  0  0  0
 19 14  2  0  0  0  0
 20 21  1  0  0  0  0
 20 22  1  0  0  0  0
 21 44  1  0  0  0  0
 21 43  1  0  0  0  0
 22 46  1  0  0  0  0
 22 47  1  0  0  0  0
 23 48  1  0  0  0  0
 23 19  1  0  0  0  0
 24 50  1  0  0  0  0
 24 23  1  0  0  0  0
 25 23  1  0  0  0  0
 25 54  1  0  0  0  0
 26  6  1  0  0  0  0
 27  7  1  0  0  0  0
 28  8  1  0  0  0  0
 29 11  1  0  0  0  0
 30 11  1  0  0  0  0
 32 12  1  0  0  0  0
 37 13  1  0  0  0  0
 39 17  1  0  0  0  0
 40 18  1  0  0  0  0
 41 20  1  0  0  0  0
 42 21  1  0  0  0  0
 45 22  1  0  0  0  0
 49 24  1  0  0  0  0
 51 24  1  0  0  0  0
 52 25  1  0  0  0  0
 53 25  1  0  0  0  0
M  END
