1,2,3
q = -1.0

 46 48  0  0  0  0  0  0  0  0999 V2000
   -0.6154    1.0397   -0.1559 N   0  0  0  0  0  2  0  0  0  0  0  0
    1.9919    1.1450   -0.0156 N   0  0  0  0  0  2  0  0  0  0  0  0
    2.1901   -1.7747    0.0434 O   0  5  0  0  0  0  0  0  0  0  0  0
   -2.0005    0.7531   -0.2831 C   0  0  0  0  0  0  0  0  0  0  0  0
   -2.4455    0.0340   -1.4072 C   0  0  0  0  0  0  0  0  0  0  0  0
   -1.7186   -0.2665   -2.1742 H   0  0  0  0  0  0  0  0  0  0  0  0
   -3.8019   -0.2907   -1.5280 C   0  0  0  0  0  0  0  0  0  0  0  0
   -4.1449   -0.8452   -2.4157 H   0  0  0  0  0  0  0  0  0  0  0  0
   -4.7331    0.0521   -0.5277 C   0  0  0  0  0  0  0  0  0  0  0  0
   -4.2603    0.7472    0.6059 C   0  0  0  0  0  0  0  0  0  0  0  0
   -4.9541    1.0037    1.4212 H   0  0  0  0  0  0  0  0  0  0  0  0
   -2.9126    1.0948    0.7346 C   0  0  0  0  0  0  0  0  0  0  0  0
   -2.5452    1.5855    1.6465 H   0  0  0  0  0  0  0  0  0  0  0  0
   -0.1376    2.2603   -0.0159 C   0  0  0  0  0  0  0  0  0  0  0  0
   -0.9783    3.5026   -0.0386 C   0  0  0  0  0  0  0  0  0  0  0  0
   -1.9896    3.2877   -0.4275 H   0  0  0  0  0  0  0  0  0  0  0  0
   -0.5075    4.2806   -0.6709 H   0  0  0  0  0  0  0  0  0  0  0  0
   -1.0925    3.9280    0.9805 H   0  0  0  0  0  0  0  0  0  0  0  0
    1.3221    2.3405    0.1193 C   0  0  0  0  0  0  0  0  0  0  0  0
    2.0033    3.5345    0.3714 C   0  0  0  0  0  0  0  0  0  0  0  0
    1.4514    4.4763    0.4846 H   0  0  0  0  0  0  0  0  0  0  0  0
    3.3999    3.4856    0.5150 C   0  0  0  0  0  0  0  0  0  0  0  0
    3.9673    4.3959    0.7574 H   0  0  0  0  0  0  0  0  0  0  0  0
    4.0600    2.2720    0.3639 C   0  0  0  0  0  0  0  0  0  0  0  0
    5.1456    2.2303    0.5077 H   0  0  0  0  0  0  0  0  0  0  0  0
    3.3555    1.0684    0.0604 C   0  0  0  0  0  0  0  0  0  0  0  0
    4.0757   -0.1905   -0.1501 C   0  0  0  0  0  0  0  0  0  0  0  0
    3.4577   -1.5041   -0.1152 C   0  0  0  0  0  0  0  0  0  0  0  0
    4.3108   -2.6502   -0.2470 C   0  0  0  0  0  0  0  0  0  0  0  0
    3.8115   -3.6279   -0.1901 H   0  0  0  0  0  0  0  0  0  0  0  0
    5.6750   -2.5387   -0.4529 C   0  0  0  0  0  0  0  0  0  0  0  0
    6.2869   -3.4478   -0.5616 H   0  0  0  0  0  0  0  0  0  0  0  0
    6.2755   -1.2605   -0.5438 C   0  0  0  0  0  0  0  0  0  0  0  0
    7.3514   -1.1570   -0.7448 H   0  0  0  0  0  0  0  0  0  0  0  0
    5.4835   -0.1322   -0.3908 C   0  0  0  0  0  0  0  0  0  0  0  0
    5.9654    0.8491   -0.4999 H   0  0  0  0  0  0  0  0  0  0  0  0
   -6.1915   -0.3635   -0.6453 C   0  0  0  0  0  0  0  0  0  0  0  0
   -6.3136   -0.8211   -1.6513 H   0  0  0  0  0  0  0  0  0  0  0  0
   -6.5438   -1.4367    0.4003 C   0  0  0  0  0  0  0  0  0  0  0  0
   -6.4465   -1.0370    1.4310 H   0  0  0  0  0  0  0  0  0  0  0  0
   -5.8721   -2.3146    0.3193 H   0  0  0  0  0  0  0  0  0  0  0  0
   -7.5886   -1.7866    0.2712 H   0  0  0  0  0  0  0  0  0  0  0  0
   -7.1462    0.8385   -0.5609 C   0  0  0  0  0  0  0  0  0  0  0  0
   -7.0904    1.3305    0.4323 H   0  0  0  0  0  0  0  0  0  0  0  0
   -8.1968    0.5162   -0.7113 H   0  0  0  0  0  0  0  0  0  0  0  0
   -6.9061    1.6009   -1.3287 H   0  0  0  0  0  0  0  0  0  0  0  0
  1 14  1  0  0  0  0
  2 26  1  0  0  0  0
  2 19  1  0  0  0  0
  4  1  1  0  0  0  0
  4 12  1  0  0  0  0
  5  4  2  0  0  0  0
  6  5  1  0  0  0  0
  7  5  1  0  0  0  0
  7  9  2  0  0  0  0
  8  7  1  0  0  0  0
  9 10  1  0  0  0  0
 10 12  2  0  0  0  0
 10 11  1  0  0  0  0
 12 13  1  0  0  0  0
 14 19  2  0  0  0  0
 15 14  1  0  0  0  0
 15 18  1  0  0  0  0
 16 15  1  0  0  0  0
 17 15  1  0  0  0  0
 19 20  1  0  0  0  0
 20 21  1  0  0  0  0
 20 22  2  0  0  0  0
 22 23  1  0  0  0  0
 24 25  1  0  0  0  0
 24 22  1  0  0  0  0
 26 24  2  0  0  0  0
 27 28  1  0  0  0  0
 27 26  1  0  0  0  0
 28  3  1  0  0  0  0
 29 30  1  0  0  0  0
 29 28  2  0  0  0  0
 31 29  1  0  0  0  0
 32 31  1  0  0  0  0
 33 31  2  0  0  0  0
 33 35  1  0  0  0  0
 34 33  1  0  0  0  0
 35 27  2  0  0  0  0
 36 35  1  0  0  0  0
 37 43  1  0  0  0  0
 37  9  1  0  0  0  0
 37 39  1  0  0  0  0
 38 37  1  0  0  0  0
 39 40  1  0  0  0  0
 41 39  1  0  0  0  0
 42 39  1  0  0  0  0
 43 44  1  0  0  0  0
 45 43  1  0  0  0  0
 46 43  1  0  0  0  0
M  CHG  1   3  -1
M  END
