1,2,3
q = -1.0, confidence = 0.01

 27 28  0  0  0  0  0  0  0  0999 V2000
   -1.2256   -1.7619    0.0000 O   0  5  0  0  0  0  0  0  0  0  0  0
    1.9944    0.6819   -0.0000 N   0  0  0  0  0  2  0  0  0  0  0  0
   -0.6147    0.8388   -0.0000 N   0  0  0  0  0  2  0  0  0  0  0  0
    0.0061    2.0143   -0.0000 C   0  0  0  0  0  0  0  0  0  0  0  0
   -0.5396    2.9694   -0.0001 H   0  0  0  0  0  0  0  0  0  0  0  0
    1.4494    1.9589   -0.0000 C   0  0  0  0  0  0  0  0  0  0  0  0
    2.3023    3.0804   -0.0000 C   0  0  0  0  0  0  0  0  0  0  0  0
    1.8604    4.0868   -0.0000 H   0  0  0  0  0  0  0  0  0  0  0  0
    3.6902    2.8967    0.0000 C   0  0  0  0  0  0  0  0  0  0  0  0
    4.3614    3.7683    0.0000 H   0  0  0  0  0  0  0  0  0  0  0  0
    4.2132    1.5942    0.0000 C   0  0  0  0  0  0  0  0  0  0  0  0
    5.2960    1.4086    0.0000 H   0  0  0  0  0  0  0  0  0  0  0  0
    3.3282    0.5067   -0.0000 C   0  0  0  0  0  0  0  0  0  0  0  0
    3.6523   -0.5471   -0.0000 H   0  0  0  0  0  0  0  0  0  0  0  0
   -1.9689    0.5258    0.0000 C   0  0  0  0  0  0  0  0  0  0  0  0
   -2.2141   -0.8983    0.0000 C   0  0  0  0  0  0  0  0  0  0  0  0
   -3.5751   -1.3204   -0.0000 C   0  0  0  0  0  0  0  0  0  0  0  0
   -3.7807   -2.4001   -0.0000 H   0  0  0  0  0  0  0  0  0  0  0  0
   -4.5971   -0.3803    0.0000 C   0  0  0  0  0  0  0  0  0  0  0  0
   -5.6417   -0.7317    0.0000 H   0  0  0  0  0  0  0  0  0  0  0  0
   -4.3546    1.0285    0.0000 C   0  0  0  0  0  0  0  0  0  0  0  0
   -3.0297    1.4626    0.0000 C   0  0  0  0  0  0  0  0  0  0  0  0
   -2.8083    2.5411    0.0001 H   0  0  0  0  0  0  0  0  0  0  0  0
   -5.5110    1.9948   -0.0000 C   0  0  0  0  0  0  0  0  0  0  0  0
   -5.1655    3.0467    0.0007 H   0  0  0  0  0  0  0  0  0  0  0  0
   -6.1593    1.8515    0.8903 H   0  0  0  0  0  0  0  0  0  0  0  0
   -6.1584    1.8524   -0.8911 H   0  0  0  0  0  0  0  0  0  0  0  0
  2 13  1  0  0  0  0
  3 15  1  0  0  0  0
  4  6  2  0  0  0  0
  4  3  1  0  0  0  0
  5  4  1  0  0  0  0
  6  2  1  0  0  0  0
  6  7  1  0  0  0  0
  7  9  2  0  0  0  0
  8  7  1  0  0  0  0
  9 11  1  0  0  0  0
  9 10  1  0  0  0  0
 11 12  1  0  0  0  0
 13 11  2  0  0  0  0
 14 13  1  0  0  0  0
 15 22  1  0  0  0  0
 16 15  2  0  0  0  0
 16  1  1  0  0  0  0
 17 19  2  0  0  0  0
 17 16  1  0  0  0  0
 18 17  1  0  0  0  0
 19 21  1  0  0  0  0
 20 19  1  0  0  0  0
 21 22  2  0  0  0  0
 22 23  1  0  0  0  0
 24 21  1  0  0  0  0
 24 25  1  0  0  0  0
 24 26  1  0  0  0  0
 27 24  1  0  0  0  0
M  CHG  1   1  -1
M  END
