1,2,3
q = -1.0

 37 38  0  0  0  0  0  0  0  0999 V2000
    0.9429   -0.6845   -1.6651 N   0  0  0  0  0  2  0  0  0  0  0  0
   -1.1998   -2.0984   -0.8966 N   0  0  0  0  0  0  0  0  0  0  0  0
    1.0842    0.6310    0.7882 O   0  5  0  0  0  0  0  0  0  0  0  0
    2.1716    2.4612    2.2434 O   0  0  0  0  0  0  0  0  0  0  0  0
    2.2698    1.3162   -1.2311 C   0  0  0  0  0  0  0  0  0  0  0  0
    1.8989    1.4282    0.1478 C   0  0  0  0  0  0  0  0  0  0  0  0
    2.5166    2.4730    0.9289 C   0  0  0  0  0  0  0  0  0  0  0  0
    3.3990    3.3731    0.3284 C   0  0  0  0  0  0  0  0  0  0  0  0
    3.8520    4.1764    0.9252 H   0  0  0  0  0  0  0  0  0  0  0  0
    3.7246    3.2691   -1.0482 C   0  0  0  0  0  0  0  0  0  0  0  0
    4.4179    3.9955   -1.4950 H   0  0  0  0  0  0  0  0  0  0  0  0
    3.1772    2.2540   -1.8125 C   0  0  0  0  0  0  0  0  0  0  0  0
    3.4336    2.1514   -2.8778 H   0  0  0  0  0  0  0  0  0  0  0  0
    1.7692    0.2527   -2.0442 C   0  0  0  0  0  3  0  0  0  0  0  0
    2.1307    0.2221   -3.0919 H   0  0  0  0  0  0  0  0  0  0  0  0
    0.4524   -1.6812   -2.6042 C   0  0  0  0  0  0  0  0  0  0  0  0
    0.9734   -2.6522   -2.4280 H   0  0  0  0  0  0  0  0  0  0  0  0
    0.6531   -1.3932   -3.6572 H   0  0  0  0  0  0  0  0  0  0  0  0
   -1.0407   -1.8268   -2.3529 C   0  0  0  0  0  0  0  0  0  0  0  0
   -1.5407   -0.8649   -2.5678 H   0  0  0  0  0  0  0  0  0  0  0  0
   -1.5042   -2.6347   -2.9565 H   0  0  0  0  0  0  0  0  0  0  0  0
   -2.5554   -2.1789   -0.3952 C   0  0  0  0  0  0  0  0  0  0  0  0
   -2.8764   -3.2189    0.4959 C   0  0  0  0  0  0  0  0  0  0  0  0
   -2.1217   -3.9846    0.7434 H   0  0  0  0  0  0  0  0  0  0  0  0
   -4.1580   -3.2967    1.0576 C   0  0  0  0  0  0  0  0  0  0  0  0
   -4.4005   -4.1158    1.7506 H   0  0  0  0  0  0  0  0  0  0  0  0
   -5.1284   -2.3393    0.7231 C   0  0  0  0  0  0  0  0  0  0  0  0
   -6.1349   -2.3967    1.1623 H   0  0  0  0  0  0  0  0  0  0  0  0
   -4.8117   -1.3191   -0.1871 C   0  0  0  0  0  0  0  0  0  0  0  0
   -5.5683   -0.5698   -0.4624 H   0  0  0  0  0  0  0  0  0  0  0  0
   -3.5323   -1.2341   -0.7535 C   0  0  0  0  0  0  0  0  0  0  0  0
   -3.2964   -0.4242   -1.4543 H   0  0  0  0  0  0  0  0  0  0  0  0
    2.7098    3.4722    3.0792 C   0  0  0  0  0  0  0  0  0  0  0  0
    3.8211    3.4253    3.1220 H   0  0  0  0  0  0  0  0  0  0  0  0
    2.3016    3.2927    4.0905 H   0  0  0  0  0  0  0  0  0  0  0  0
    2.4075    4.4882    2.7413 H   0  0  0  0  0  0  0  0  0  0  0  0
   -0.7660   -3.0163   -0.7122 H   0  0  0  0  0  0  0  0  0  0  0  0
  2 37  1  0  0  0  0
  2 22  1  0  0  0  0
  4 33  1  0  0  0  0
  5  6  1  0  0  0  0
  6  3  1  0  0  0  0
  6  7  2  0  0  0  0
  7  4  1  0  0  0  0
  8  9  1  0  0  0  0
  8  7  1  0  0  0  0
 10  8  2  0  0  0  0
 11 10  1  0  0  0  0
 12  5  2  0  0  0  0
 12 10  1  0  0  0  0
 13 12  1  0  0  0  0
 14  1  1  0  0  0  0
 14  5  1  0  0  0  0
 15 14  1  0  0  0  0
 16 17  1  0  0  0  0
 16 19  1  0  0  0  0
 16  1  1  0  0  0  0
 18 16  1  0  0  0  0
 19  2  1  0  0  0  0
 20 19  1  0  0  0  0
 21 19  1  0  0  0  0
 22 23  1  0  0  0  0
 23 24  1  0  0  0  0
 23 25  2  0  0  0  0
 25 26  1  0  0  0  0
 27 25  1  0  0  0  0
 27 28  1  0  0  0  0
 29 27  2  0  0  0  0
 30 29  1  0  0  0  0
 31 22  2  0  0  0  0
 31 29  1  0  0  0  0
 32 31  1  0  0  0  0
 33 34  1  0  0  0  0
 33 35  1  0  0  0  0
 36 33  1  0  0  0  0
M  CHG  1   3  -1
M  END
