1,2,3
q = -1.0

 29 30  0  0  0  0  0  0  0  0999 V2000
   -0.5935   -0.2377   -1.2885 O   0  5  0  0  0  0  0  0  0  0  0  0
   -0.6404    1.2307    0.9601 N   0  0  0  0  0  2  0  0  0  0  0  0
    1.4486    2.8160    0.3979 N   0  0  0  0  0  0  0  0  0  0  0  0
    1.6625    3.6261   -0.1958 H   0  0  0  0  0  0  0  0  0  0  0  0
    2.3350    2.3720    0.6746 H   0  0  0  0  0  0  0  0  0  0  0  0
   -1.8143   -0.5807   -1.0041 C   0  0  0  0  0  0  0  0  0  0  0  0
   -2.4547   -1.5413   -1.8627 C   0  0  0  0  0  0  0  0  0  0  0  0
   -1.8691   -1.9137   -2.7150 H   0  0  0  0  0  0  0  0  0  0  0  0
   -3.7422   -1.9579   -1.6227 C   0  0  0  0  0  0  0  0  0  0  0  0
   -4.2186   -2.6869   -2.2976 H   0  0  0  0  0  0  0  0  0  0  0  0
   -4.5039   -1.4629   -0.5138 C   0  0  0  0  0  0  0  0  0  0  0  0
   -5.8413   -1.8901   -0.2966 C   0  0  0  0  0  0  0  0  0  0  0  0
   -6.2790   -2.6178   -0.9979 H   0  0  0  0  0  0  0  0  0  0  0  0
   -6.5863   -1.4034    0.7705 C   0  0  0  0  0  0  0  0  0  0  0  0
   -7.6213   -1.7403    0.9291 H   0  0  0  0  0  0  0  0  0  0  0  0
   -6.0022   -0.4591    1.6464 C   0  0  0  0  0  0  0  0  0  0  0  0
   -6.5885   -0.0555    2.4860 H   0  0  0  0  0  0  0  0  0  0  0  0
   -4.6942   -0.0229    1.4531 C   0  0  0  0  0  0  0  0  0  0  0  0
   -4.2889    0.7336    2.1401 H   0  0  0  0  0  0  0  0  0  0  0  0
   -3.8969   -0.5143    0.3820 C   0  0  0  0  0  0  0  0  0  0  0  0
   -2.5246   -0.0947    0.1438 C   0  0  0  0  0  0  0  0  0  0  0  0
   -1.8262    0.6945    1.1096 C   0  0  0  0  0  3  0  0  0  0  0  0
   -2.3134    0.8278    2.0970 H   0  0  0  0  0  0  0  0  0  0  0  0
    0.0078    1.8789    2.0877 C   0  0  0  0  0  0  0  0  0  0  0  0
    0.8117    1.2069    2.4645 H   0  0  0  0  0  0  0  0  0  0  0  0
   -0.6990    2.0735    2.9248 H   0  0  0  0  0  0  0  0  0  0  0  0
    0.6332    3.1726    1.5723 C   0  0  0  0  0  0  0  0  0  0  0  0
   -0.1652    3.8628    1.2336 H   0  0  0  0  0  0  0  0  0  0  0  0
    1.2223    3.6819    2.3652 H   0  0  0  0  0  0  0  0  0  0  0  0
  1  6  1  0  0  0  0
  2 22  1  0  0  0  0
  2 24  1  0  0  0  0
  3  5  1  0  0  0  0
  3 27  1  0  0  0  0
  4  3  1  0  0  0  0
  6 21  1  0  0  0  0
  7  9  1  0  0  0  0
  7  6  2  0  0  0  0
  8  7  1  0  0  0  0
  9 11  2  0  0  0  0
 10  9  1  0  0  0  0
 11 12  1  0  0  0  0
 11 20  1  0  0  0  0
 12 14  2  0  0  0  0
 13 12  1  0  0  0  0
 14 15  1  0  0  0  0
 14 16  1  0  0  0  0
 16 17  1  0  0  0  0
 18 16  2  0  0  0  0
 18 19  1  0  0  0  0
 20 18  1  0  0  0  0
 21 20  2  0  0  0  0
 21 22  1  0  0  0  0
 22 23  1  0  0  0  0
 24 25  1  0  0  0  0
 24 26  1  0  0  0  0
 27 24  1  0  0  0  0
 27 29  1  0  0  0  0
 28 27  1  0  0  0  0
M  CHG  1   1  -1
M  END
