2,4,9
q = -2.0, confidence = 0.814

 24 24  0  0  1  0  0  0  0  0999 V2000
   -4.2790    0.5336   -0.7692 S   0  0  0  0  0  0  0  0  0  0  0  0
   -1.7925   -0.0119   -0.3144 N   0  0  0  0  0  2  0  0  0  0  0  0
   -2.1445    2.0839   -1.3726 N   0  0  0  0  0  0  0  0  0  0  0  0
    0.1578    1.4249   -1.3259 N   0  0  0  0  0  2  0  0  0  0  0  0
    1.0884    1.6147   -1.7104 H   0  0  0  0  0  0  0  0  0  0  0  0
   -0.5711    3.3874   -2.3816 N   0  0  0  0  0  0  0  0  0  0  0  0
    0.3652    3.6525   -2.6818 H   0  0  0  0  0  0  0  0  0  0  0  0
   -1.3744    3.8965   -2.7514 H   0  0  0  0  0  0  0  0  0  0  0  0
   -0.3739   -1.3452    1.2703 O   0  5  0  0  0  0  0  0  0  0  0  0
   -2.0322   -2.7693    1.8702 O   0  0  0  0  0  0  0  0  0  0  0  0
   -3.9318   -1.0188    0.2490 C   0  0  0  0  0  0  0  0  0  0  0  0
   -2.4134   -1.2412    0.0167 C   0  0  2  0  0  0  0  0  0  0  0  0
   -2.2200   -1.9858   -0.7982 H   0  0  0  0  0  0  0  0  0  0  0  0
   -1.5595   -1.8705    1.1955 C   0  0  0  0  0  0  0  0  0  0  0  0
   -4.7670   -2.1879   -0.2670 C   0  0  0  0  0  0  0  0  0  0  0  0
   -4.4858   -3.0949    0.3058 H   0  0  0  0  0  0  0  0  0  0  0  0
   -4.5878   -2.3779   -1.3427 H   0  0  0  0  0  0  0  0  0  0  0  0
   -5.8488   -2.0092   -0.1135 H   0  0  0  0  0  0  0  0  0  0  0  0
   -4.2525   -0.6797    1.7124 C   0  0  0  0  0  0  0  0  0  0  0  0
   -5.3076   -0.3606    1.8101 H   0  0  0  0  0  0  0  0  0  0  0  0
   -3.6082    0.1389    2.0917 H   0  0  0  0  0  0  0  0  0  0  0  0
   -4.0869   -1.5756    2.3420 H   0  0  0  0  0  0  0  0  0  0  0  0
   -2.5729    0.9725   -0.8246 C   0  0  0  0  0  0  0  0  0  0  0  0
   -0.8168    2.2637   -1.6646 C   0  0  1  0  0  3  0  0  0  0  0  0
  1 11  1  0  0  0  0
  2 12  1  0  0  0  0
  3 23  2  0  0  0  0
  5  4  1  0  0  0  0
  6 24  1  0  0  0  0
  7  6  1  0  0  0  0
  8  6  1  0  0  0  0
 11 19  1  0  0  0  0
 12 13  1  6  0  0  0
 12 11  1  0  0  0  0
 12 14  1  0  0  0  0
 14  9  1  0  0  0  0
 14 10  2  0  0  0  0
 15 18  1  0  0  0  0
 15 11  1  0  0  0  0
 15 16  1  0  0  0  0
 17 15  1  0  0  0  0
 19 20  1  0  0  0  0
 19 21  1  0  0  0  0
 19 22  1  0  0  0  0
 23  1  1  0  0  0  0
 23  2  1  0  0  0  0
 24  3  1  6  0  0  0
 24  4  1  0  0  0  0
M  CHG  1   9  -1
M  END
