1,2,5
q = -1.0

 52 54  0  0  1  0  0  0  0  0999 V2000
   -1.5548    0.5205   -0.3335 O   0  5  0  0  0  0  0  0  0  0  0  0
    1.2181    1.1599    0.3859 N   0  0  0  0  0  2  0  0  0  0  0  0
   -1.0750   -2.8890    0.3957 N   0  0  0  0  0  0  0  0  0  0  0  0
   -1.8319   -1.8020    0.0024 N   0  0  0  0  0  0  0  0  0  0  0  0
    0.2818    3.3284   -1.1399 N   0  0  0  0  0  0  0  0  0  0  0  0
    0.2514   -1.0279    0.3552 C   0  0  0  0  0  0  0  0  0  0  0  0
    6.6977   -2.4966   -0.3838 C   0  0  0  0  0  0  0  0  0  0  0  0
    7.4916   -1.8826    0.0851 H   0  0  0  0  0  0  0  0  0  0  0  0
    6.9542   -2.6411   -1.4517 H   0  0  0  0  0  0  0  0  0  0  0  0
    6.7329   -3.4977    0.0978 H   0  0  0  0  0  0  0  0  0  0  0  0
    2.7439   -0.7466    0.1335 C   0  0  0  0  0  0  0  0  0  0  0  0
    1.3817   -0.1557    0.3138 C   0  0  1  0  0  3  0  0  0  0  0  0
    4.3137   -2.0916   -1.1630 C   0  0  0  0  0  0  0  0  0  0  0  0
    4.5246   -2.7067   -2.0523 H   0  0  0  0  0  0  0  0  0  0  0  0
    3.0342   -1.5493   -0.9878 C   0  0  0  0  0  0  0  0  0  0  0  0
    2.2415   -1.7429   -1.7266 H   0  0  0  0  0  0  0  0  0  0  0  0
    0.1571   -2.4500    0.5930 C   0  0  0  0  0  0  0  0  0  0  0  0
   -4.0443   -0.9155   -0.6504 C   0  0  0  0  0  0  0  0  0  0  0  0
   -3.6174    0.0894   -0.7402 H   0  0  0  0  0  0  0  0  0  0  0  0
    2.2000    2.0984   -0.1264 C   0  0  0  0  0  0  0  0  0  0  0  0
    3.1754    1.6306   -0.3762 H   0  0  0  0  0  0  0  0  0  0  0  0
    2.3995    2.8874    0.6333 H   0  0  0  0  0  0  0  0  0  0  0  0
    5.3371   -1.8697   -0.2180 C   0  0  0  0  0  0  0  0  0  0  0  0
   -3.2089   -1.9898   -0.2709 C   0  0  0  0  0  0  0  0  0  0  0  0
    3.7662   -0.5057    1.0741 C   0  0  0  0  0  0  0  0  0  0  0  0
    3.5503    0.1191    1.9545 H   0  0  0  0  0  0  0  0  0  0  0  0
   -1.0882   -0.6251   -0.0140 C   0  0  0  0  0  0  0  0  0  0  0  0
   -3.7495   -3.2896   -0.1558 C   0  0  0  0  0  0  0  0  0  0  0  0
   -3.0799   -4.1058    0.1423 H   0  0  0  0  0  0  0  0  0  0  0  0
    1.6064    2.7260   -1.4008 C   0  0  0  0  0  0  0  0  0  0  0  0
    2.3059    3.4728   -1.8469 H   0  0  0  0  0  0  0  0  0  0  0  0
    1.4704    1.9138   -2.1427 H   0  0  0  0  0  0  0  0  0  0  0  0
    1.2078   -3.4032    1.0721 C   0  0  0  0  0  0  0  0  0  0  0  0
    0.7230   -4.3512    1.3721 H   0  0  0  0  0  0  0  0  0  0  0  0
    1.7648   -2.9892    1.9364 H   0  0  0  0  0  0  0  0  0  0  0  0
    1.9600   -3.6249    0.2880 H   0  0  0  0  0  0  0  0  0  0  0  0
    5.0380   -1.0662    0.9024 C   0  0  0  0  0  0  0  0  0  0  0  0
    5.8200   -0.8776    1.6551 H   0  0  0  0  0  0  0  0  0  0  0  0
   -5.9457   -2.4434   -0.7908 C   0  0  0  0  0  0  0  0  0  0  0  0
   -7.0130   -2.6189   -0.9925 H   0  0  0  0  0  0  0  0  0  0  0  0
   -5.4025   -1.1547   -0.9039 C   0  0  0  0  0  0  0  0  0  0  0  0
   -6.0453   -0.3098   -1.1960 H   0  0  0  0  0  0  0  0  0  0  0  0
    0.3969    4.7041   -0.6448 C   0  0  0  0  0  0  0  0  0  0  0  0
    0.8135    5.3906   -1.4206 H   0  0  0  0  0  0  0  0  0  0  0  0
    1.0570    4.7335    0.2436 H   0  0  0  0  0  0  0  0  0  0  0  0
   -0.5983    5.0727   -0.3309 H   0  0  0  0  0  0  0  0  0  0  0  0
   -5.1075   -3.5062   -0.4156 C   0  0  0  0  0  0  0  0  0  0  0  0
   -5.5157   -4.5244   -0.3211 H   0  0  0  0  0  0  0  0  0  0  0  0
   -0.6172    3.2415   -2.2956 C   0  0  0  0  0  0  0  0  0  0  0  0
   -0.2152    3.7783   -3.1881 H   0  0  0  0  0  0  0  0  0  0  0  0
   -1.5958    3.6883   -2.0309 H   0  0  0  0  0  0  0  0  0  0  0  0
   -0.7883    2.1775   -2.5498 H   0  0  0  0  0  0  0  0  0  0  0  0
  1 27  1  0  0  0  0
  3 17  2  0  0  0  0
  4  3  1  0  0  0  0
  5 43  1  0  0  0  0
  6 17  1  0  0  0  0
  7 23  1  0  0  0  0
  7  8  1  0  0  0  0
  7 10  1  0  0  0  0
  9  7  1  0  0  0  0
 11 12  1  0  0  0  0
 11 25  1  0  0  0  0
 12  6  1  0  0  0  0
 12  2  1  6  0  0  0
 13 15  1  0  0  0  0
 13 23  2  0  0  0  0
 14 13  1  0  0  0  0
 15 11  2  0  0  0  0
 16 15  1  0  0  0  0
 17 33  1  0  0  0  0
 18 24  1  0  0  0  0
 19 18  1  0  0  0  0
 20  2  1  0  0  0  0
 20 22  1  0  0  0  0
 21 20  1  0  0  0  0
 23 37  1  0  0  0  0
 24 28  2  0  0  0  0
 24  4  1  0  0  0  0
 25 26  1  0  0  0  0
 27  4  1  0  0  0  0
 27  6  2  0  0  0  0
 28 29  1  0  0  0  0
 30  5  1  0  0  0  0
 30 20  1  0  0  0  0
 31 30  1  0  0  0  0
 32 30  1  0  0  0  0
 33 34  1  0  0  0  0
 33 35  1  0  0  0  0
 36 33  1  0  0  0  0
 37 25  2  0  0  0  0
 37 38  1  0  0  0  0
 39 47  2  0  0  0  0
 40 39  1  0  0  0  0
 41 39  1  0  0  0  0
 41 18  2  0  0  0  0
 42 41  1  0  0  0  0
 43 46  1  0  0  0  0
 43 45  1  0  0  0  0
 44 43  1  0  0  0  0
 47 48  1  0  0  0  0
 47 28  1  0  0  0  0
 49 51  1  0  0  0  0
 49  5  1  0  0  0  0
 50 49  1  0  0  0  0
 52 49  1  0  0  0  0
M  CHG  1   1  -1
M  END
