2,3,5
q = -2.0, confidence = 0.84

 29 30  0  0  0  0  0  0  0  0999 V2000
   -3.5186   -3.0139    0.3692 S   0  0  0  0  0  0  0  0  0  0  0  0
    0.5041    1.5920   -0.1201 O   0  5  0  0  0  0  0  0  0  0  0  0
   -0.2619   -1.0177    0.1273 N   0  0  0  0  0  2  0  0  0  0  0  0
   -1.1030   -2.0394    0.4418 N   0  0  0  0  0  0  0  0  0  0  0  0
   -2.6458   -0.5328   -0.4710 N   0  0  0  0  0  2  0  0  0  0  0  0
   -3.6190   -0.3497   -0.7210 H   0  0  0  0  0  0  0  0  0  0  0  0
    1.0201   -1.2074    0.3553 C   0  0  0  0  0  3  0  0  0  0  0  0
    1.2807   -2.2063    0.7444 H   0  0  0  0  0  0  0  0  0  0  0  0
    1.7609    1.1315   -0.0877 C   0  0  0  0  0  0  0  0  0  0  0  0
   -2.3356   -1.7320    0.0736 C   0  0  0  0  0  0  0  0  0  0  0  0
    3.4578   -0.6428    0.2114 C   0  0  0  0  0  0  0  0  0  0  0  0
    4.4921    0.3517    0.0670 C   0  0  0  0  0  0  0  0  0  0  0  0
    2.8006    2.0936   -0.2319 C   0  0  0  0  0  0  0  0  0  0  0  0
    2.5045    3.1383   -0.4023 H   0  0  0  0  0  0  0  0  0  0  0  0
    2.0629   -0.2377    0.1399 C   0  0  0  0  0  0  0  0  0  0  0  0
    4.1251    1.7134   -0.1535 C   0  0  0  0  0  0  0  0  0  0  0  0
    4.9227    2.4641   -0.2658 H   0  0  0  0  0  0  0  0  0  0  0  0
    5.8608   -0.0343    0.1369 C   0  0  0  0  0  0  0  0  0  0  0  0
    6.6300    0.7456    0.0238 H   0  0  0  0  0  0  0  0  0  0  0  0
    6.2227   -1.3579    0.3379 C   0  0  0  0  0  0  0  0  0  0  0  0
    7.2835   -1.6446    0.3895 H   0  0  0  0  0  0  0  0  0  0  0  0
    3.8681   -1.9935    0.4037 C   0  0  0  0  0  0  0  0  0  0  0  0
    3.1166   -2.7896    0.4924 H   0  0  0  0  0  0  0  0  0  0  0  0
    5.2122   -2.3418    0.4688 C   0  0  0  0  0  0  0  0  0  0  0  0
    5.4909   -3.3959    0.6183 H   0  0  0  0  0  0  0  0  0  0  0  0
   -5.0629   -2.2355   -0.1905 C   0  0  0  0  0  0  0  0  0  0  0  0
   -5.8518   -2.9935   -0.0264 H   0  0  0  0  0  0  0  0  0  0  0  0
   -5.0335   -1.9920   -1.2715 H   0  0  0  0  0  0  0  0  0  0  0  0
   -5.3135   -1.3359    0.4069 H   0  0  0  0  0  0  0  0  0  0  0  0
  2  9  1  0  0  0  0
  3  7  1  0  0  0  0
  3  4  1  0  0  0  0
  5 10  1  0  0  0  0
  6  5  1  0  0  0  0
  7  8  1  0  0  0  0
  9 15  1  0  0  0  0
 10  1  1  0  0  0  0
 10  4  2  0  0  0  0
 11 22  1  0  0  0  0
 12 18  1  0  0  0  0
 12 11  1  0  0  0  0
 13 16  1  0  0  0  0
 13  9  2  0  0  0  0
 14 13  1  0  0  0  0
 15 11  2  0  0  0  0
 15  7  1  0  0  0  0
 16 12  2  0  0  0  0
 17 16  1  0  0  0  0
 18 20  2  0  0  0  0
 19 18  1  0  0  0  0
 20 21  1  0  0  0  0
 20 24  1  0  0  0  0
 22 24  2  0  0  0  0
 22 23  1  0  0  0  0
 24 25  1  0  0  0  0
 26 27  1  0  0  0  0
 26  1  1  0  0  0  0
 26 29  1  0  0  0  0
 28 26  1  0  0  0  0
M  CHG  1   2  -1
M  END
