36,37,40
q = -1.0

 40 43  0  0  1  0  0  0  0  0999 V2000
   -3.5939   -1.7459   -0.5125 C   0  0  0  0  0  0  0  0  0  0  0  0
   -3.0732   -2.7134   -0.6121 H   0  0  0  0  0  0  0  0  0  0  0  0
   -5.0058   -1.6491   -0.5667 C   0  0  0  0  0  0  0  0  0  0  0  0
   -5.6060   -2.5562   -0.7243 H   0  0  0  0  0  0  0  0  0  0  0  0
   -5.6000   -0.4051   -0.4156 C   0  0  0  0  0  0  0  0  0  0  0  0
   -6.6950   -0.2944   -0.4515 H   0  0  0  0  0  0  0  0  0  0  0  0
   -4.7957    0.7514   -0.2062 C   0  0  0  0  0  0  0  0  0  0  0  0
   -5.3259    2.0601   -0.0345 C   0  0  0  0  0  0  0  0  0  0  0  0
   -6.4151    2.2102   -0.0634 H   0  0  0  0  0  0  0  0  0  0  0  0
   -4.4583    3.1254    0.1703 C   0  0  0  0  0  0  0  0  0  0  0  0
   -4.8621    4.1400    0.3067 H   0  0  0  0  0  0  0  0  0  0  0  0
   -3.0562    2.9422    0.2112 C   0  0  0  0  0  0  0  0  0  0  0  0
   -2.4198    3.8220    0.3794 H   0  0  0  0  0  0  0  0  0  0  0  0
   -2.4780    1.6753    0.0459 C   0  0  0  0  0  0  0  0  0  0  0  0
   -3.3727    0.5578   -0.1670 C   0  0  1  0  0  3  0  0  0  0  0  0
   -0.1826    2.3119    0.2055 C   0  0  0  0  0  3  0  0  0  0  0  0
   -0.4934    3.3677    0.3374 H   0  0  0  0  0  0  0  0  0  0  0  0
    1.1968    2.0719    0.1938 C   0  0  0  0  0  0  0  0  0  0  0  0
    2.2791    3.0207    0.3376 C   0  0  0  0  0  0  0  0  0  0  0  0
    1.8501    0.7934   -0.0023 C   0  0  0  0  0  0  0  0  0  0  0  0
    2.1772    4.4939    0.5651 C   0  0  0  0  0  0  0  0  0  0  0  0
    3.1916    4.9297    0.6247 H   0  0  0  0  0  0  0  0  0  0  0  0
    1.6405    4.7229    1.5094 H   0  0  0  0  0  0  0  0  0  0  0  0
    1.6264    4.9958   -0.2578 H   0  0  0  0  0  0  0  0  0  0  0  0
    4.3013    0.1858   -0.0936 C   0  0  0  0  0  0  0  0  0  0  0  0
    5.5888    0.7245   -0.2998 C   0  0  0  0  0  0  0  0  0  0  0  0
    5.7010    1.8155   -0.3341 H   0  0  0  0  0  0  0  0  0  0  0  0
    6.6853   -0.1334   -0.4443 C   0  0  0  0  0  0  0  0  0  0  0  0
    7.6860    0.2961   -0.6049 H   0  0  0  0  0  0  0  0  0  0  0  0
    6.5173   -1.5265   -0.3869 C   0  0  0  0  0  0  0  0  0  0  0  0
    7.3823   -2.1965   -0.5023 H   0  0  0  0  0  0  0  0  0  0  0  0
    5.2347   -2.0545   -0.1743 C   0  0  0  0  0  0  0  0  0  0  0  0
    5.0897   -3.1441   -0.1151 H   0  0  0  0  0  0  0  0  0  0  0  0
    4.1235   -1.2131   -0.0238 C   0  0  0  0  0  0  0  0  0  0  0  0
    3.1234   -1.6253    0.1517 H   0  0  0  0  0  0  0  0  0  0  0  0
   -2.8214   -0.6787   -0.3244 N   0  0  0  0  0  2  0  0  0  0  0  0
   -1.1171    1.3734    0.0624 N   0  0  0  0  0  2  0  0  0  0  0  0
    3.4522    2.4251    0.2503 N   0  0  0  0  0  0  0  0  0  0  0  0
    3.2065    1.0742    0.0526 N   0  0  0  0  0  0  0  0  0  0  0  0
    1.3484   -0.3561   -0.2038 O   0  5  0  0  0  0  0  0  0  0  0  0
  1 36  1  0  0  0  0
  2  1  1  0  0  0  0
  3  1  2  0  0  0  0
  3  5  1  0  0  0  0
  4  3  1  0  0  0  0
  5  7  2  0  0  0  0
  6  5  1  0  0  0  0
  7 15  1  0  0  0  0
  7  8  1  0  0  0  0
  8 10  2  0  0  0  0
  9  8  1  0  0  0  0
 10 12  1  0  0  0  0
 10 11  1  0  0  0  0
 12 13  1  0  0  0  0
 14 37  1  0  0  0  0
 14 12  2  0  0  0  0
 15 36  1  1  0  0  0
 15 14  1  0  0  0  0
 16 17  1  0  0  0  0
 18 16  1  0  0  0  0
 18 19  1  0  0  0  0
 19 21  1  0  0  0  0
 20 39  1  0  0  0  0
 20 18  2  0  0  0  0
 21 22  1  0  0  0  0
 21 23  1  0  0  0  0
 24 21  1  0  0  0  0
 25 34  1  0  0  0  0
 25 39  1  0  0  0  0
 26 25  2  0  0  0  0
 27 26  1  0  0  0  0
 28 30  2  0  0  0  0
 28 26  1  0  0  0  0
 29 28  1  0  0  0  0
 30 32  1  0  0  0  0
 31 30  1  0  0  0  0
 32 33  1  0  0  0  0
 32 34  2  0  0  0  0
 34 35  1  0  0  0  0
 37 16  1  0  0  0  0
 38 19  2  0  0  0  0
 39 38  1  0  0  0  0
 40 20  1  0  0  0  0
M  CHG  1  40  -1
M  END
