1,2,3
q = -1.0, confidence = 0.006

 42 44  0  0  0  0  0  0  0  0999 V2000
   -0.5151    1.2695    0.1037 O   0  5  0  0  0  0  0  0  0  0  0  0
   -0.0910   -1.3819    0.1322 N   0  0  0  0  0  2  0  0  0  0  0  0
    2.5282   -1.0412   -0.1478 N   0  0  0  0  0  0  0  0  0  0  0  0
   -2.3086   -0.3675    0.0527 C   0  0  0  0  0  0  0  0  0  0  0  0
   -1.7755    0.9674    0.0613 C   0  0  0  0  0  0  0  0  0  0  0  0
   -2.6919    2.0813    0.0403 C   0  0  0  0  0  0  0  0  0  0  0  0
   -2.2415    3.0841    0.0576 H   0  0  0  0  0  0  0  0  0  0  0  0
   -4.0489    1.8827    0.0012 C   0  0  0  0  0  0  0  0  0  0  0  0
   -4.7305    2.7482   -0.0136 H   0  0  0  0  0  0  0  0  0  0  0  0
   -4.6224    0.5665   -0.0266 C   0  0  0  0  0  0  0  0  0  0  0  0
   -6.0296    0.3853   -0.0774 C   0  0  0  0  0  3  0  0  0  0  0  0
   -6.6717    1.2802   -0.0902 H   0  0  0  0  0  0  0  0  0  0  0  0
   -6.5919   -0.8859   -0.1125 C   0  0  0  0  0  0  0  0  0  0  0  0
   -7.6838   -1.0134   -0.1520 H   0  0  0  0  0  0  0  0  0  0  0  0
   -5.7415   -2.0146   -0.1020 C   0  0  0  0  0  0  0  0  0  0  0  0
   -6.1731   -3.0267   -0.1366 H   0  0  0  0  0  0  0  0  0  0  0  0
   -4.3577   -1.8618   -0.0536 C   0  0  0  0  0  0  0  0  0  0  0  0
   -3.7350   -2.7679   -0.0601 H   0  0  0  0  0  0  0  0  0  0  0  0
   -3.7499   -0.5769   -0.0074 C   0  0  0  0  0  0  0  0  0  0  0  0
   -1.4091   -1.4639    0.1366 C   0  0  0  0  0  0  0  0  0  0  0  0
   -1.8333   -2.4807    0.2288 H   0  0  0  0  0  0  0  0  0  0  0  0
    0.7034   -2.5872    0.3470 C   0  0  0  0  0  0  0  0  0  0  0  0
    0.1673   -3.5027    0.0133 H   0  0  0  0  0  0  0  0  0  0  0  0
    0.9131   -2.7160    1.4336 H   0  0  0  0  0  0  0  0  0  0  0  0
    1.9928   -2.4030   -0.4295 C   0  0  0  0  0  0  0  0  0  0  0  0
    2.7323   -3.1972   -0.1959 H   0  0  0  0  0  0  0  0  0  0  0  0
    1.7770   -2.4473   -1.5154 H   0  0  0  0  0  0  0  0  0  0  0  0
    3.2348   -0.9502    1.1695 C   0  0  0  0  0  0  0  0  0  0  0  0
    3.3873    0.1338    1.3432 H   0  0  0  0  0  0  0  0  0  0  0  0
    2.5463   -1.3130    1.9578 H   0  0  0  0  0  0  0  0  0  0  0  0
    4.5723   -1.6968    1.2025 C   0  0  0  0  0  0  0  0  0  0  0  0
    4.4099   -2.7955    1.1366 H   0  0  0  0  0  0  0  0  0  0  0  0
    5.0424   -1.5185    2.1915 H   0  0  0  0  0  0  0  0  0  0  0  0
    5.4903   -1.2348    0.0646 C   0  0  0  0  0  0  0  0  0  0  0  0
    6.4307   -1.8231    0.0549 H   0  0  0  0  0  0  0  0  0  0  0  0
    5.7791   -0.1749    0.2384 H   0  0  0  0  0  0  0  0  0  0  0  0
    4.7648   -1.3395   -1.2822 C   0  0  0  0  0  0  0  0  0  0  0  0
    5.3828   -0.9141   -2.0994 H   0  0  0  0  0  0  0  0  0  0  0  0
    4.5990   -2.4078   -1.5459 H   0  0  0  0  0  0  0  0  0  0  0  0
    3.4376   -0.5783   -1.2410 C   0  0  0  0  0  0  0  0  0  0  0  0
    3.6051    0.5004   -1.0535 H   0  0  0  0  0  0  0  0  0  0  0  0
    2.8794   -0.6616   -2.1944 H   0  0  0  0  0  0  0  0  0  0  0  0
  2 20  1  0  0  0  0
  2 22  1  0  0  0  0
  3 28  1  0  0  0  0
  4  5  1  0  0  0  0
  4 20  2  0  0  0  0
  5  1  1  0  0  0  0
  6  7  1  0  0  0  0
  6  5  2  0  0  0  0
  8  6  1  0  0  0  0
  9  8  1  0  0  0  0
 10 19  1  0  0  0  0
 10  8  2  0  0  0  0
 11 10  1  0  0  0  0
 12 11  1  0  0  0  0
 13 15  2  0  0  0  0
 13 11  1  0  0  0  0
 14 13  1  0  0  0  0
 15 17  1  0  0  0  0
 16 15  1  0  0  0  0
 17 19  2  0  0  0  0
 18 17  1  0  0  0  0
 19  4  1  0  0  0  0
 20 21  1  0  0  0  0
 22 24  1  0  0  0  0
 23 22  1  0  0  0  0
 25 26  1  0  0  0  0
 25  3  1  0  0  0  0
 25 22  1  0  0  0  0
 27 25  1  0  0  0  0
 28 31  1  0  0  0  0
 28 29  1  0  0  0  0
 28 30  1  0  0  0  0
 31 33  1  0  0  0  0
 32 31  1  0  0  0  0
 34 36  1  0  0  0  0
 34 31  1  0  0  0  0
 35 34  1  0  0  0  0
 37 40  1  0  0  0  0
 37 34  1  0  0  0  0
 38 37  1  0  0  0  0
 39 37  1  0  0  0  0
 40 41  1  0  0  0  0
 40  3  1  0  0  0  0
 42 40  1  0  0  0  0
M  CHG  1   1  -1
M  END
