1,2,3
q = -1.0, confidence = 0.066

 73 75  0  0  0  0  0  0  0  0999 V2000
   -0.2672   -0.7549    0.2520 O   0  5  0  0  0  0  0  0  0  0  0  0
    2.9474    0.0022   -0.2207 N   0  0  0  0  0  0  0  0  0  0  0  0
    0.5659    1.9128    0.0294 N   0  0  0  0  0  2  0  0  0  0  0  0
    2.7755   -1.3943   -0.7391 C   0  0  0  0  0  0  0  0  0  0  0  0
    1.7885   -1.3731   -1.2530 H   0  0  0  0  0  0  0  0  0  0  0  0
    2.6577   -2.4148    0.4035 C   0  0  0  0  0  0  0  0  0  0  0  0
    3.6126   -2.4570    0.9712 H   0  0  0  0  0  0  0  0  0  0  0  0
    1.8737   -2.0914    1.1195 H   0  0  0  0  0  0  0  0  0  0  0  0
    2.3351   -3.8158   -0.1311 C   0  0  0  0  0  0  0  0  0  0  0  0
    2.2776   -4.5322    0.7141 H   0  0  0  0  0  0  0  0  0  0  0  0
    1.3258   -3.8020   -0.5951 H   0  0  0  0  0  0  0  0  0  0  0  0
    3.3690   -4.2760   -1.1648 C   0  0  0  0  0  0  0  0  0  0  0  0
    3.0935   -5.2701   -1.5747 H   0  0  0  0  0  0  0  0  0  0  0  0
    4.3567   -4.4046   -0.6669 H   0  0  0  0  0  0  0  0  0  0  0  0
    3.5065   -3.2511   -2.2966 C   0  0  0  0  0  0  0  0  0  0  0  0
    2.5496   -3.2028   -2.8631 H   0  0  0  0  0  0  0  0  0  0  0  0
    4.2832   -3.5690   -3.0230 H   0  0  0  0  0  0  0  0  0  0  0  0
    3.8367   -1.8511   -1.7567 C   0  0  0  0  0  0  0  0  0  0  0  0
    4.8360   -1.8748   -1.2684 H   0  0  0  0  0  0  0  0  0  0  0  0
    3.9091   -1.1343   -2.6002 H   0  0  0  0  0  0  0  0  0  0  0  0
    4.1735    0.2098    0.5642 C   0  0  0  0  0  0  0  0  0  0  0  0
    4.1748    1.2419    0.9628 H   0  0  0  0  0  0  0  0  0  0  0  0
    4.1977   -0.4814    1.4250 H   0  0  0  0  0  0  0  0  0  0  0  0
    5.0961    0.0704   -0.0447 H   0  0  0  0  0  0  0  0  0  0  0  0
    2.8513    1.0046   -1.3152 C   0  0  0  0  0  0  0  0  0  0  0  0
    1.9480    0.7400   -1.9034 H   0  0  0  0  0  0  0  0  0  0  0  0
    3.7313    0.9243   -1.9931 H   0  0  0  0  0  0  0  0  0  0  0  0
    2.7412    2.4386   -0.8430 C   0  0  0  0  0  0  0  0  0  0  0  0
    3.7708    3.3663   -1.0707 C   0  0  0  0  0  0  0  0  0  0  0  0
    4.6948    3.0242   -1.5643 H   0  0  0  0  0  0  0  0  0  0  0  0
    3.6368    4.7119   -0.6920 C   0  0  0  0  0  0  0  0  0  0  0  0
    4.4588    5.4201   -0.8733 H   0  0  0  0  0  0  0  0  0  0  0  0
    2.4510    5.1449   -0.0781 C   0  0  0  0  0  0  0  0  0  0  0  0
    2.3407    6.1954    0.2313 H   0  0  0  0  0  0  0  0  0  0  0  0
    1.4075    4.2394    0.1578 C   0  0  0  0  0  0  0  0  0  0  0  0
    0.4877    4.5647    0.6662 H   0  0  0  0  0  0  0  0  0  0  0  0
    1.5428    2.8868   -0.2188 C   0  0  0  0  0  0  0  0  0  0  0  0
   -0.7099    2.1065   -0.2161 C   0  0  0  0  0  3  0  0  0  0  0  0
   -1.0241    3.1032   -0.6007 H   0  0  0  0  0  0  0  0  0  0  0  0
   -1.7465    1.1245   -0.1055 C   0  0  0  0  0  0  0  0  0  0  0  0
   -3.0826    1.5842   -0.3043 C   0  0  0  0  0  0  0  0  0  0  0  0
   -3.2272    2.6676   -0.4313 H   0  0  0  0  0  0  0  0  0  0  0  0
   -4.1633    0.7170   -0.3353 C   0  0  0  0  0  0  0  0  0  0  0  0
   -3.8687   -0.6724   -0.2081 C   0  0  0  0  0  0  0  0  0  0  0  0
   -4.7148   -1.3720   -0.2509 H   0  0  0  0  0  0  0  0  0  0  0  0
   -2.5929   -1.2062   -0.0419 C   0  0  0  0  0  0  0  0  0  0  0  0
   -1.4648   -0.2956    0.0602 C   0  0  0  0  0  0  0  0  0  0  0  0
   -5.6208    1.1709   -0.5129 C   0  0  0  0  0  0  0  0  0  0  0  0
   -5.7335    2.6990   -0.6450 C   0  0  0  0  0  0  0  0  0  0  0  0
   -6.7961    2.9913   -0.7664 H   0  0  0  0  0  0  0  0  0  0  0  0
   -5.3442    3.2182    0.2541 H   0  0  0  0  0  0  0  0  0  0  0  0
   -5.1802    3.0769   -1.5286 H   0  0  0  0  0  0  0  0  0  0  0  0
   -6.2097    0.5270   -1.7889 C   0  0  0  0  0  0  0  0  0  0  0  0
   -7.2674    0.8334   -1.9291 H   0  0  0  0  0  0  0  0  0  0  0  0
   -5.6377    0.8366   -2.6869 H   0  0  0  0  0  0  0  0  0  0  0  0
   -6.1857   -0.5800   -1.7401 H   0  0  0  0  0  0  0  0  0  0  0  0
   -6.4468    0.7253    0.7155 C   0  0  0  0  0  0  0  0  0  0  0  0
   -7.5083    1.0307    0.6050 H   0  0  0  0  0  0  0  0  0  0  0  0
   -6.4260   -0.3751    0.8469 H   0  0  0  0  0  0  0  0  0  0  0  0
   -6.0497    1.1821    1.6445 H   0  0  0  0  0  0  0  0  0  0  0  0
   -2.3626   -2.7274    0.0364 C   0  0  0  0  0  0  0  0  0  0  0  0
   -3.6770   -3.5208   -0.0765 C   0  0  0  0  0  0  0  0  0  0  0  0
   -3.4559   -4.6061   -0.0260 H   0  0  0  0  0  0  0  0  0  0  0  0
   -4.3772   -3.2863    0.7512 H   0  0  0  0  0  0  0  0  0  0  0  0
   -4.1993   -3.3325   -1.0367 H   0  0  0  0  0  0  0  0  0  0  0  0
   -1.7024   -3.1021    1.3842 C   0  0  0  0  0  0  0  0  0  0  0  0
   -1.5313   -4.1980    1.4342 H   0  0  0  0  0  0  0  0  0  0  0  0
   -0.7352   -2.5849    1.5105 H   0  0  0  0  0  0  0  0  0  0  0  0
   -2.3592   -2.8206    2.2325 H   0  0  0  0  0  0  0  0  0  0  0  0
   -1.4524   -3.1542   -1.1399 C   0  0  0  0  0  0  0  0  0  0  0  0
   -1.2421   -4.2433   -1.0904 H   0  0  0  0  0  0  0  0  0  0  0  0
   -1.9442   -2.9438   -2.1115 H   0  0  0  0  0  0  0  0  0  0  0  0
   -0.4932   -2.6061   -1.1060 H   0  0  0  0  0  0  0  0  0  0  0  0
  2 21  1  0  0  0  0
  4  2  1  0  0  0  0
  4  6  1  0  0  0  0
  5  4  1  0  0  0  0
  6  7  1  0  0  0  0
  6  8  1  0  0  0  0
  9  6  1  0  0  0  0
  9 10  1  0  0  0  0
 11  9  1  0  0  0  0
 12 14  1  0  0  0  0
 12  9  1  0  0  0  0
 13 12  1  0  0  0  0
 15 18  1  0  0  0  0
 15 12  1  0  0  0  0
 16 15  1  0  0  0  0
 17 15  1  0  0  0  0
 18 19  1  0  0  0  0
 18  4  1  0  0  0  0
 20 18  1  0  0  0  0
 21 22  1  0  0  0  0
 21 23  1  0  0  0  0
 24 21  1  0  0  0  0
 25 28  1  0  0  0  0
 25  2  1  0  0  0  0
 26 25  1  0  0  0  0
 27 25  1  0  0  0  0
 28 37  1  0  0  0  0
 29 28  2  0  0  0  0
 29 31  1  0  0  0  0
 30 29  1  0  0  0  0
 31 33  2  0  0  0  0
 32 31  1  0  0  0  0
 33 35  1  0  0  0  0
 33 34  1  0  0  0  0
 35 36  1  0  0  0  0
 37  3  1  0  0  0  0
 37 35  2  0  0  0  0
 38 40  1  0  0  0  0
 38  3  1  0  0  0  0
 39 38  1  0  0  0  0
 40 47  1  0  0  0  0
 41 40  2  0  0  0  0
 42 41  1  0  0  0  0
 43 41  1  0  0  0  0
 43 44  2  0  0  0  0
 44 46  1  0  0  0  0
 45 44  1  0  0  0  0
 46 61  1  0  0  0  0
 46 47  2  0  0  0  0
 47  1  1  0  0  0  0
 48 43  1  0  0  0  0
 48 57  1  0  0  0  0
 49 48  1  0  0  0  0
 49 51  1  0  0  0  0
 50 49  1  0  0  0  0
 52 49  1  0  0  0  0
 53 56  1  0  0  0  0
 53 48  1  0  0  0  0
 54 53  1  0  0  0  0
 55 53  1  0  0  0  0
 57 59  1  0  0  0  0
 57 60  1  0  0  0  0
 58 57  1  0  0  0  0
 61 66  1  0  0  0  0
 62 63  1  0  0  0  0
 62 61  1  0  0  0  0
 62 64  1  0  0  0  0
 65 62  1  0  0  0  0
 66 67  1  0  0  0  0
 66 68  1  0  0  0  0
 66 69  1  0  0  0  0
 70 73  1  0  0  0  0
 70 71  1  0  0  0  0
 70 61  1  0  0  0  0
 72 70  1  0  0  0  0
M  CHG  1   1  -1
M  END
