1,12,25
q = -1.0, confidence = 0.038

 51 52  0  0  1  0  0  0  0  0999 V2000
    0.1030    0.7362   -0.1537 O   0  0  0  0  0  1  0  0  0  0  0  0
   -1.0644    0.1697   -0.0829 C   0  0  2  0  0  3  0  0  0  0  0  0
   -2.2469    1.0020   -0.1495 C   0  0  0  0  0  0  0  0  0  0  0  0
   -3.4861    0.3679   -0.1163 C   0  0  0  0  0  0  0  0  0  0  0  0
   -4.3834    0.9985   -0.1763 H   0  0  0  0  0  0  0  0  0  0  0  0
   -3.6808   -1.0422   -0.0014 C   0  0  0  0  0  0  0  0  0  0  0  0
   -2.5432   -1.8283    0.0954 C   0  0  0  0  0  0  0  0  0  0  0  0
   -2.6170   -2.9203    0.2037 H   0  0  0  0  0  0  0  0  0  0  0  0
   -1.2372   -1.2551    0.0623 C   0  0  0  0  0  0  0  0  0  0  0  0
   -0.1077   -2.1109    0.2007 C   0  0  0  0  0  0  0  0  0  0  0  0
   -0.3150   -3.1889    0.3586 H   0  0  0  0  0  0  0  0  0  0  0  0
    1.1543   -1.7335    0.1731 N   0  0  0  0  0  2  0  0  0  0  0  0
    2.1986   -2.7215    0.4264 C   0  0  0  0  0  0  0  0  0  0  0  0
    2.0336   -3.6555   -0.1567 H   0  0  0  0  0  0  0  0  0  0  0  0
    2.1979   -3.0126    1.5026 H   0  0  0  0  0  0  0  0  0  0  0  0
    3.5288   -2.1150    0.0852 C   0  0  2  0  0  3  0  0  0  0  0  0
    4.7384   -2.8170    0.0553 C   0  0  0  0  0  0  0  0  0  0  0  0
    4.7465   -3.8936    0.2802 H   0  0  0  0  0  0  0  0  0  0  0  0
    5.9199   -2.1329   -0.2639 C   0  0  0  0  0  0  0  0  0  0  0  0
    6.8819   -2.6650   -0.2941 H   0  0  0  0  0  0  0  0  0  0  0  0
    5.8476   -0.7598   -0.5500 C   0  0  0  0  0  0  0  0  0  0  0  0
    6.7458   -0.1829   -0.8123 H   0  0  0  0  0  0  0  0  0  0  0  0
    4.6111   -0.1148   -0.5044 C   0  0  0  0  0  0  0  0  0  0  0  0
    4.4656    0.9529   -0.7268 H   0  0  0  0  0  0  0  0  0  0  0  0
    3.4725   -0.7803   -0.1855 N   0  0  0  0  0  2  0  0  0  0  0  0
   -2.1084    2.5336   -0.2216 C   0  0  0  0  0  0  0  0  0  0  0  0
   -1.4167    3.0387    1.0691 C   0  0  0  0  0  0  0  0  0  0  0  0
   -1.2932    4.1413    1.0235 H   0  0  0  0  0  0  0  0  0  0  0  0
   -0.4193    2.5840    1.2153 H   0  0  0  0  0  0  0  0  0  0  0  0
   -2.0369    2.8052    1.9588 H   0  0  0  0  0  0  0  0  0  0  0  0
   -1.2807    2.9475   -1.4630 C   0  0  0  0  0  0  0  0  0  0  0  0
   -1.7591    2.5808   -2.3947 H   0  0  0  0  0  0  0  0  0  0  0  0
   -0.2519    2.5478   -1.4142 H   0  0  0  0  0  0  0  0  0  0  0  0
   -1.2272    4.0548   -1.5231 H   0  0  0  0  0  0  0  0  0  0  0  0
   -3.4814    3.2230   -0.3238 C   0  0  0  0  0  0  0  0  0  0  0  0
   -4.0331    2.9209   -1.2378 H   0  0  0  0  0  0  0  0  0  0  0  0
   -3.3369    4.3210   -0.3700 H   0  0  0  0  0  0  0  0  0  0  0  0
   -4.1231    3.0118    0.5559 H   0  0  0  0  0  0  0  0  0  0  0  0
   -5.1103   -1.6067    0.0208 C   0  0  0  0  0  0  0  0  0  0  0  0
   -5.1209   -3.1388    0.1528 C   0  0  0  0  0  0  0  0  0  0  0  0
   -4.5993   -3.6276   -0.6950 H   0  0  0  0  0  0  0  0  0  0  0  0
   -6.1654   -3.5106    0.1615 H   0  0  0  0  0  0  0  0  0  0  0  0
   -4.6401   -3.4735    1.0943 H   0  0  0  0  0  0  0  0  0  0  0  0
   -5.8796   -1.0089    1.2210 C   0  0  0  0  0  0  0  0  0  0  0  0
   -5.3853   -1.2726    2.1777 H   0  0  0  0  0  0  0  0  0  0  0  0
   -6.9195   -1.3960    1.2497 H   0  0  0  0  0  0  0  0  0  0  0  0
   -5.9351    0.0966    1.1652 H   0  0  0  0  0  0  0  0  0  0  0  0
   -5.8300   -1.2255   -1.2931 C   0  0  0  0  0  0  0  0  0  0  0  0
   -5.8793   -0.1270   -1.4310 H   0  0  0  0  0  0  0  0  0  0  0  0
   -6.8707   -1.6113   -1.2942 H   0  0  0  0  0  0  0  0  0  0  0  0
   -5.3020   -1.6510   -2.1704 H   0  0  0  0  0  0  0  0  0  0  0  0
  2  1  1  1  0  0  0
  2  9  1  0  0  0  0
  3  4  2  0  0  0  0
  3  2  1  0  0  0  0
  4  6  1  0  0  0  0
  5  4  1  0  0  0  0
  6 39  1  0  0  0  0
  6  7  2  0  0  0  0
  7  8  1  0  0  0  0
  9  7  1  0  0  0  0
  9 10  2  0  0  0  0
 10 11  1  0  0  0  0
 12 10  1  0  0  0  0
 12 13  1  0  0  0  0
 13 15  1  0  0  0  0
 14 13  1  0  0  0  0
 16 13  1  1  0  0  0
 17 16  1  0  0  0  0
 17 18  1  0  0  0  0
 19 17  2  0  0  0  0
 20 19  1  0  0  0  0
 21 23  2  0  0  0  0
 21 19  1  0  0  0  0
 22 21  1  0  0  0  0
 23 25  1  0  0  0  0
 24 23  1  0  0  0  0
 25 16  1  0  0  0  0
 26  3  1  0  0  0  0
 26 27  1  0  0  0  0
 27 29  1  0  0  0  0
 27 30  1  0  0  0  0
 28 27  1  0  0  0  0
 31 33  1  0  0  0  0
 31 26  1  0  0  0  0
 32 31  1  0  0  0  0
 34 31  1  0  0  0  0
 35 26  1  0  0  0  0
 35 38  1  0  0  0  0
 36 35  1  0  0  0  0
 37 35  1  0  0  0  0
 39 40  1  0  0  0  0
 39 44  1  0  0  0  0
 40 42  1  0  0  0  0
 40 43  1  0  0  0  0
 41 40  1  0  0  0  0
 44 46  1  0  0  0  0
 44 45  1  0  0  0  0
 47 44  1  0  0  0  0
 48 39  1  0  0  0  0
 49 48  1  0  0  0  0
 50 48  1  0  0  0  0
 51 48  1  0  0  0  0
M  END
