7,8,9
q = -1.0, confidence = 0.0

 30 31  0  0  1  0  0  0  0  0999 V2000
   -4.3311    0.6606    1.1094 F   0  0  0  0  0  0  0  0  0  0  0  0
   -3.7338    0.2560    3.1710 F   0  0  0  0  0  0  0  0  0  0  0  0
   -4.8222   -1.2576    2.0357 F   0  0  0  0  0  0  0  0  0  0  0  0
   -2.9677   -4.2478   -0.7021 F   0  0  0  0  0  0  0  0  0  0  0  0
   -1.3261   -5.1102    0.4304 F   0  0  0  0  0  0  0  0  0  0  0  0
   -0.9744   -4.2587   -1.5595 F   0  0  0  0  0  0  0  0  0  0  0  0
   -1.5676    0.0029    1.5366 O   0  5  0  0  0  0  0  0  0  0  0  0
   -0.1846   -2.1323    0.1183 N   0  0  0  0  0  2  0  0  0  0  0  0
    1.5220   -0.5903   -1.2766 N   0  0  0  0  0  2  0  0  0  0  0  0
   -3.8687   -0.2989    1.9553 C   0  0  0  0  0  0  0  0  0  0  0  0
   -2.5152   -0.8240    1.4269 C   0  0  0  0  0  0  0  0  0  0  0  0
   -2.5059   -2.0963    0.8164 C   0  0  0  0  0  0  0  0  0  0  0  0
   -3.4537   -2.6426    0.7885 H   0  0  0  0  0  0  0  0  0  0  0  0
   -1.3784   -2.7075    0.2197 C   0  0  1  0  0  3  0  0  0  0  0  0
   -1.6579   -4.0930   -0.4049 C   0  0  0  0  0  0  0  0  0  0  0  0
    1.0199   -2.7114   -0.2599 C   0  0  0  0  0  0  0  0  0  0  0  0
    1.4784   -3.9843    0.1075 C   0  0  0  0  0  0  0  0  0  0  0  0
    0.8427   -4.6277    0.7272 H   0  0  0  0  0  0  0  0  0  0  0  0
    2.7555   -4.4475   -0.2892 C   0  0  0  0  0  0  0  0  0  0  0  0
    3.0695   -5.4548    0.0231 H   0  0  0  0  0  0  0  0  0  0  0  0
    3.6089   -3.6651   -1.0555 C   0  0  0  0  0  3  0  0  0  0  0  0
    4.5938   -4.0386   -1.3724 H   0  0  0  0  0  0  0  0  0  0  0  0
    3.2094   -2.3501   -1.4223 C   0  0  0  0  0  0  0  0  0  0  0  0
    4.0199   -1.4612   -2.1834 C   0  0  0  0  0  0  0  0  0  0  0  0
    5.0111   -1.8003   -2.5225 H   0  0  0  0  0  0  0  0  0  0  0  0
    3.5641   -0.1863   -2.4836 C   0  0  0  0  0  0  0  0  0  0  0  0
    4.1715    0.5173   -3.0701 H   0  0  0  0  0  0  0  0  0  0  0  0
    2.3023    0.2198   -1.9845 C   0  0  0  0  0  0  0  0  0  0  0  0
    1.9228    1.2404   -2.1569 H   0  0  0  0  0  0  0  0  0  0  0  0
    1.9259   -1.8639   -1.0029 C   0  0  0  0  0  0  0  0  0  0  0  0
  1 10  1  0  0  0  0
  4 15  1  0  0  0  0
  6 15  1  0  0  0  0
  9 30  1  0  0  0  0
 10  3  1  0  0  0  0
 10  2  1  0  0  0  0
 11  7  1  0  0  0  0
 11 10  1  0  0  0  0
 12 11  2  0  0  0  0
 13 12  1  0  0  0  0
 14  8  1  6  0  0  0
 14 12  1  0  0  0  0
 15 14  1  0  0  0  0
 15  5  1  0  0  0  0
 16 17  1  0  0  0  0
 16  8  1  0  0  0  0
 17 18  1  0  0  0  0
 19 20  1  0  0  0  0
 19 17  2  0  0  0  0
 21 19  1  0  0  0  0
 22 21  1  0  0  0  0
 23 21  1  0  0  0  0
 23 30  1  0  0  0  0
 24 23  2  0  0  0  0
 25 24  1  0  0  0  0
 26 24  1  0  0  0  0
 26 28  2  0  0  0  0
 27 26  1  0  0  0  0
 28  9  1  0  0  0  0
 29 28  1  0  0  0  0
 30 16  2  0  0  0  0
M  CHG  1   7  -1
M  END
