4,5,6
q = -1.0

 40 42  0  0  1  0  0  0  0  0999 V2000
    0.0298   -4.4536   -1.4474 F   0  0  0  0  0  0  0  0  0  0  0  0
    0.4715   -5.2158    0.5570 F   0  0  0  0  0  0  0  0  0  0  0  0
    2.0875   -4.7263   -0.8161 F   0  0  0  0  0  0  0  0  0  0  0  0
    1.5740   -0.2547    1.3280 O   0  5  0  0  0  0  0  0  0  0  0  0
   -0.1826   -2.0982    0.0579 N   0  0  0  0  0  2  0  0  0  0  0  0
   -1.6682   -0.4466   -1.4609 N   0  0  0  0  0  2  0  0  0  0  0  0
    0.8962   -2.8793    0.1471 C   0  0  1  0  0  3  0  0  0  0  0  0
    0.8617   -4.3245   -0.3912 C   0  0  0  0  0  0  0  0  0  0  0  0
    2.1443   -2.4652    0.6430 C   0  0  0  0  0  0  0  0  0  0  0  0
    2.9700   -3.1760    0.5433 H   0  0  0  0  0  0  0  0  0  0  0  0
    2.4227   -1.1936    1.2331 C   0  0  0  0  0  0  0  0  0  0  0  0
    3.8096   -0.9036    1.7303 C   0  0  0  0  0  0  0  0  0  0  0  0
    4.7974   -1.8941    1.9242 C   0  0  0  0  0  0  0  0  0  0  0  0
    4.5611   -2.9537    1.7500 H   0  0  0  0  0  0  0  0  0  0  0  0
    6.0815   -1.5438    2.3622 C   0  0  0  0  0  0  0  0  0  0  0  0
    6.8388   -2.3278    2.5159 H   0  0  0  0  0  0  0  0  0  0  0  0
    6.4016   -0.1981    2.6085 C   0  0  0  0  0  0  0  0  0  0  0  0
    7.4128    0.0749    2.9474 H   0  0  0  0  0  0  0  0  0  0  0  0
    5.4241    0.7943    2.4264 C   0  0  0  0  0  0  0  0  0  0  0  0
    5.6654    1.8513    2.6169 H   0  0  0  0  0  0  0  0  0  0  0  0
    4.1383    0.4436    1.9991 C   0  0  0  0  0  0  0  0  0  0  0  0
    3.3584    1.2044    1.8541 H   0  0  0  0  0  0  0  0  0  0  0  0
   -1.4954   -2.4709   -0.1671 C   0  0  0  0  0  0  0  0  0  0  0  0
   -2.2895   -1.5586   -0.9617 C   0  0  1  0  0  3  0  0  0  0  0  0
   -3.6783   -1.8233   -1.1964 C   0  0  0  0  0  0  0  0  0  0  0  0
   -4.2843   -2.9739   -0.6203 C   0  0  0  0  0  0  0  0  0  0  0  0
   -5.3519   -3.1683   -0.8005 H   0  0  0  0  0  0  0  0  0  0  0  0
   -3.5190   -3.8230    0.1697 C   0  0  0  0  0  0  0  0  0  0  0  0
   -3.9838   -4.7052    0.6358 H   0  0  0  0  0  0  0  0  0  0  0  0
   -2.1447   -3.5803    0.3986 C   0  0  0  0  0  0  0  0  0  0  0  0
   -1.5751   -4.2601    1.0444 H   0  0  0  0  0  0  0  0  0  0  0  0
   -4.3782   -0.8843   -2.0064 C   0  0  0  0  0  0  0  0  0  0  0  0
   -5.4505   -1.0410   -2.2023 H   0  0  0  0  0  0  0  0  0  0  0  0
   -3.7135    0.2051   -2.5376 C   0  0  0  0  0  0  0  0  0  0  0  0
   -4.2370    0.9320   -3.1757 H   0  0  0  0  0  0  0  0  0  0  0  0
   -2.3322    0.4094   -2.2410 C   0  0  0  0  0  0  0  0  0  0  0  0
   -1.5976    1.5839   -2.8229 C   0  0  0  0  0  0  0  0  0  0  0  0
   -0.5462    1.5967   -2.4874 H   0  0  0  0  0  0  0  0  0  0  0  0
   -2.0808    2.5380   -2.5324 H   0  0  0  0  0  0  0  0  0  0  0  0
   -1.6185    1.5337   -3.9317 H   0  0  0  0  0  0  0  0  0  0  0  0
  1  8  1  0  0  0  0
  3  8  1  0  0  0  0
  7  5  1  6  0  0  0
  7  9  1  0  0  0  0
  8  7  1  0  0  0  0
  8  2  1  0  0  0  0
  9 11  2  0  0  0  0
 10  9  1  0  0  0  0
 11  4  1  0  0  0  0
 11 12  1  0  0  0  0
 12 13  2  0  0  0  0
 12 21  1  0  0  0  0
 13 15  1  0  0  0  0
 14 13  1  0  0  0  0
 15 16  1  0  0  0  0
 15 17  2  0  0  0  0
 17 18  1  0  0  0  0
 19 17  1  0  0  0  0
 19 20  1  0  0  0  0
 21 19  2  0  0  0  0
 22 21  1  0  0  0  0
 23  5  1  0  0  0  0
 23 30  2  0  0  0  0
 24  6  1  1  0  0  0
 24 23  1  0  0  0  0
 25 24  1  0  0  0  0
 25 26  1  0  0  0  0
 26 28  2  0  0  0  0
 27 26  1  0  0  0  0
 28 30  1  0  0  0  0
 28 29  1  0  0  0  0
 30 31  1  0  0  0  0
 32 25  2  0  0  0  0
 33 32  1  0  0  0  0
 34 36  2  0  0  0  0
 34 32  1  0  0  0  0
 35 34  1  0  0  0  0
 36  6  1  0  0  0  0
 37 39  1  0  0  0  0
 37 38  1  0  0  0  0
 37 36  1  0  0  0  0
 40 37  1  0  0  0  0
M  CHG  1   4  -1
M  END
