4,5,6
q = -1.0

 39 40  0  0  1  0  0  0  0  0999 V2000
   -3.9083   -3.3929   -0.8003 F   0  0  0  0  0  0  0  0  0  0  0  0
   -1.9801   -3.8343   -1.6910 F   0  0  0  0  0  0  0  0  0  0  0  0
   -2.4996   -4.6470    0.2778 F   0  0  0  0  0  0  0  0  0  0  0  0
   -1.5445    0.3270    1.5048 O   0  5  0  0  0  0  0  0  0  0  0  0
    1.3266   -0.8737   -1.3607 N   0  0  0  0  0  2  0  0  0  0  0  0
   -0.6961   -2.0026    0.0026 N   0  0  0  0  0  2  0  0  0  0  0  0
    0.3337   -2.8374   -0.3888 C   0  0  0  0  0  0  0  0  0  0  0  0
    0.4886   -4.1917   -0.0499 C   0  0  0  0  0  0  0  0  0  0  0  0
   -0.2750   -4.6816    0.5657 H   0  0  0  0  0  0  0  0  0  0  0  0
    1.6156   -4.9335   -0.4754 C   0  0  0  0  0  0  0  0  0  0  0  0
    1.6859   -5.9931   -0.1856 H   0  0  0  0  0  0  0  0  0  0  0  0
    2.6203   -4.3630   -1.2473 C   0  0  0  0  0  3  0  0  0  0  0  0
    3.4814   -4.9543   -1.5923 H   0  0  0  0  0  0  0  0  0  0  0  0
    2.5373   -2.9832   -1.5844 C   0  0  0  0  0  0  0  0  0  0  0  0
    1.4129   -2.2135   -1.1288 C   0  0  0  0  0  0  0  0  0  0  0  0
    2.2650   -0.2538   -2.0670 C   0  0  0  0  0  0  0  0  0  0  0  0
    2.1420    0.8337   -2.1997 H   0  0  0  0  0  0  0  0  0  0  0  0
    3.3796   -0.9391   -2.6120 C   0  0  0  0  0  0  0  0  0  0  0  0
    4.1260   -0.3873   -3.2008 H   0  0  0  0  0  0  0  0  0  0  0  0
    3.5192   -2.2948   -2.3537 C   0  0  0  0  0  0  0  0  0  0  0  0
    4.3907   -2.8537   -2.7296 H   0  0  0  0  0  0  0  0  0  0  0  0
   -1.9933   -2.2885    0.1408 C   0  0  1  0  0  3  0  0  0  0  0  0
   -2.9343   -1.4769    0.8019 C   0  0  0  0  0  0  0  0  0  0  0  0
   -3.9697   -1.8264    0.7788 H   0  0  0  0  0  0  0  0  0  0  0  0
   -2.6709   -0.2513    1.4848 C   0  0  0  0  0  0  0  0  0  0  0  0
   -3.8069    0.4868    2.2351 C   0  0  0  0  0  0  0  0  0  0  0  0
   -5.1366   -0.2799    2.2680 C   0  0  0  0  0  0  0  0  0  0  0  0
   -5.8855    0.2956    2.8497 H   0  0  0  0  0  0  0  0  0  0  0  0
   -5.0297   -1.2720    2.7512 H   0  0  0  0  0  0  0  0  0  0  0  0
   -5.5553   -0.4309    1.2524 H   0  0  0  0  0  0  0  0  0  0  0  0
   -3.3173    0.7383    3.6769 C   0  0  0  0  0  0  0  0  0  0  0  0
   -2.3428    1.2622    3.6644 H   0  0  0  0  0  0  0  0  0  0  0  0
   -3.1891   -0.2166    4.2268 H   0  0  0  0  0  0  0  0  0  0  0  0
   -4.0522    1.3586    4.2296 H   0  0  0  0  0  0  0  0  0  0  0  0
   -4.0061    1.8391    1.5140 C   0  0  0  0  0  0  0  0  0  0  0  0
   -4.3493    1.6886    0.4698 H   0  0  0  0  0  0  0  0  0  0  0  0
   -3.0568    2.4080    1.4829 H   0  0  0  0  0  0  0  0  0  0  0  0
   -4.7676    2.4490    2.0423 H   0  0  0  0  0  0  0  0  0  0  0  0
   -2.5931   -3.5495   -0.5192 C   0  0  0  0  0  0  0  0  0  0  0  0
  1 39  1  0  0  0  0
  2 39  1  0  0  0  0
  5 15  1  0  0  0  0
  7  8  1  0  0  0  0
  7  6  1  0  0  0  0
  8  9  1  0  0  0  0
 10 11  1  0  0  0  0
 10  8  2  0  0  0  0
 12 10  1  0  0  0  0
 13 12  1  0  0  0  0
 14 12  1  0  0  0  0
 14 15  1  0  0  0  0
 15  7  2  0  0  0  0
 16  5  1  0  0  0  0
 17 16  1  0  0  0  0
 18 20  1  0  0  0  0
 18 16  2  0  0  0  0
 19 18  1  0  0  0  0
 20 14  2  0  0  0  0
 21 20  1  0  0  0  0
 22  6  1  6  0  0  0
 22 23  1  0  0  0  0
 23 25  2  0  0  0  0
 24 23  1  0  0  0  0
 25  4  1  0  0  0  0
 25 26  1  0  0  0  0
 26 27  1  0  0  0  0
 26 31  1  0  0  0  0
 27 29  1  0  0  0  0
 27 28  1  0  0  0  0
 30 27  1  0  0  0  0
 31 33  1  0  0  0  0
 31 34  1  0  0  0  0
 32 31  1  0  0  0  0
 35 38  1  0  0  0  0
 35 26  1  0  0  0  0
 36 35  1  0  0  0  0
 37 35  1  0  0  0  0
 39 22  1  0  0  0  0
 39  3  1  0  0  0  0
M  CHG  1   4  -1
M  END
