7,8,9
q = -1.0

 33 34  0  0  1  0  0  0  0  0999 V2000
    4.5116    2.1316   -2.0248 F   0  0  0  0  0  0  0  0  0  0  0  0
    4.3995    0.1062   -1.2140 F   0  0  0  0  0  0  0  0  0  0  0  0
    3.6780    0.5156   -3.2333 F   0  0  0  0  0  0  0  0  0  0  0  0
   -0.0526    4.4956    1.2704 F   0  0  0  0  0  0  0  0  0  0  0  0
    0.3476    5.2384   -0.7510 F   0  0  0  0  0  0  0  0  0  0  0  0
    1.9908    4.7846    0.6026 F   0  0  0  0  0  0  0  0  0  0  0  0
    1.5674    0.2600   -1.4849 O   0  5  0  0  0  0  0  0  0  0  0  0
   -0.2305    2.1039   -0.2074 N   0  0  0  0  0  2  0  0  0  0  0  0
   -1.6602    0.4049    1.3264 N   0  0  0  0  0  2  0  0  0  0  0  0
    3.7472    1.0134   -1.9861 C   0  0  0  0  0  0  0  0  0  0  0  0
    2.3337    1.2599   -1.4122 C   0  0  0  0  0  0  0  0  0  0  0  0
    2.0679    2.5237   -0.8428 C   0  0  0  0  0  0  0  0  0  0  0  0
    2.8823    3.2545   -0.8279 H   0  0  0  0  0  0  0  0  0  0  0  0
    0.8161    2.9146   -0.3158 C   0  0  2  0  0  3  0  0  0  0  0  0
    0.7638    4.3682    0.2026 C   0  0  0  0  0  0  0  0  0  0  0  0
   -1.5501    2.4483    0.0541 C   0  0  0  0  0  0  0  0  0  0  0  0
   -2.2272    3.5484   -0.4906 C   0  0  0  0  0  0  0  0  0  0  0  0
   -1.6878    4.2330   -1.1570 H   0  0  0  0  0  0  0  0  0  0  0  0
   -3.5947    3.7775   -0.2152 C   0  0  0  0  0  0  0  0  0  0  0  0
   -4.0861    4.6521   -0.6671 H   0  0  0  0  0  0  0  0  0  0  0  0
   -4.3184    2.9233    0.6064 C   0  0  0  0  0  3  0  0  0  0  0  0
   -5.3790    3.1108    0.8305 H   0  0  0  0  0  0  0  0  0  0  0  0
   -3.6826    1.7780    1.1583 C   0  0  0  0  0  0  0  0  0  0  0  0
   -4.3427    0.8386    1.9992 C   0  0  0  0  0  0  0  0  0  0  0  0
   -5.4045    0.9941    2.2463 H   0  0  0  0  0  0  0  0  0  0  0  0
   -3.6517   -0.2485    2.5000 C   0  0  0  0  0  0  0  0  0  0  0  0
   -4.1420   -0.9750    3.1643 H   0  0  0  0  0  0  0  0  0  0  0  0
   -2.2881   -0.4549    2.1334 C   0  0  0  0  0  0  0  0  0  0  0  0
   -1.5359   -1.6407    2.6672 C   0  0  0  0  0  0  0  0  0  0  0  0
   -0.4817   -1.6215    2.3421 H   0  0  0  0  0  0  0  0  0  0  0  0
   -1.9995   -2.5886    2.3269 H   0  0  0  0  0  0  0  0  0  0  0  0
   -1.5696   -1.6454    3.7763 H   0  0  0  0  0  0  0  0  0  0  0  0
   -2.3045    1.5205    0.8631 C   0  0  0  0  0  0  0  0  0  0  0  0
  1 10  1  0  0  0  0
  3 10  1  0  0  0  0
  5 15  1  0  0  0  0
  7 11  1  0  0  0  0
  8 16  1  0  0  0  0
  9 28  1  0  0  0  0
 10 11  1  0  0  0  0
 10  2  1  0  0  0  0
 11 12  2  0  0  0  0
 12 13  1  0  0  0  0
 14 12  1  1  0  0  0
 14  8  1  0  0  0  0
 14 15  1  0  0  0  0
 15  6  1  0  0  0  0
 15  4  1  0  0  0  0
 16 33  2  0  0  0  0
 17 19  2  0  0  0  0
 17 16  1  0  0  0  0
 18 17  1  0  0  0  0
 19 21  1  0  0  0  0
 20 19  1  0  0  0  0
 21 22  1  0  0  0  0
 21 23  1  0  0  0  0
 23 24  2  0  0  0  0
 24 25  1  0  0  0  0
 24 26  1  0  0  0  0
 26 27  1  0  0  0  0
 28 26  2  0  0  0  0
 28 29  1  0  0  0  0
 29 32  1  0  0  0  0
 30 29  1  0  0  0  0
 31 29  1  0  0  0  0
 33 23  1  0  0  0  0
 33  9  1  0  0  0  0
M  CHG  1   7  -1
M  END
