1,2,3
q = -1.0, confidence = 0.0

 29 29  0  0  0  0  0  0  0  0999 V2000
    0.5998    0.5831    1.6287 O   0  5  0  0  0  0  0  0  0  0  0  0
   -0.5900    2.2983   -0.5124 N   0  0  0  0  0  2  0  0  0  0  0  0
   -2.3965    0.4959   -1.9374 N   0  0  0  0  0  0  0  0  0  0  0  0
    1.6674    1.2573    1.3488 C   0  0  0  0  0  0  0  0  0  0  0  0
    2.8947    0.9402    2.0237 C   0  0  0  0  0  0  0  0  0  0  0  0
    2.8506    0.1258    2.7615 H   0  0  0  0  0  0  0  0  0  0  0  0
    4.0771    1.6177    1.7678 C   0  0  0  0  0  0  0  0  0  0  0  0
    4.9909    1.3346    2.3136 H   0  0  0  0  0  0  0  0  0  0  0  0
    4.1292    2.6715    0.8167 C   0  0  0  0  0  0  0  0  0  0  0  0
    5.0695    3.2083    0.6287 H   0  0  0  0  0  0  0  0  0  0  0  0
    2.9698    3.0212    0.1464 C   0  0  0  0  0  0  0  0  0  0  0  0
    2.9853    3.8484   -0.5826 H   0  0  0  0  0  0  0  0  0  0  0  0
    1.7263    2.3401    0.3639 C   0  0  0  0  0  0  0  0  0  0  0  0
    0.6114    2.8119   -0.4149 C   0  0  0  0  0  3  0  0  0  0  0  0
    0.8322    3.7082   -1.0413 H   0  0  0  0  0  0  0  0  0  0  0  0
   -1.5084    2.8108   -1.5101 C   0  0  0  0  0  0  0  0  0  0  0  0
   -2.4497    3.1433   -1.0190 H   0  0  0  0  0  0  0  0  0  0  0  0
   -1.0936    3.6960   -2.0436 H   0  0  0  0  0  0  0  0  0  0  0  0
   -1.8013    1.7104   -2.5405 C   0  0  0  0  0  0  0  0  0  0  0  0
   -2.4596    2.1059   -3.3503 H   0  0  0  0  0  0  0  0  0  0  0  0
   -0.8427    1.4149   -3.0127 H   0  0  0  0  0  0  0  0  0  0  0  0
   -2.1695   -0.6779   -2.7953 C   0  0  0  0  0  0  0  0  0  0  0  0
   -2.6368   -0.5531   -3.8000 H   0  0  0  0  0  0  0  0  0  0  0  0
   -2.6051   -1.5779   -2.3198 H   0  0  0  0  0  0  0  0  0  0  0  0
   -1.0831   -0.8447   -2.9202 H   0  0  0  0  0  0  0  0  0  0  0  0
   -3.8345    0.6864   -1.6993 C   0  0  0  0  0  0  0  0  0  0  0  0
   -4.0082    1.5376   -1.0135 H   0  0  0  0  0  0  0  0  0  0  0  0
   -4.2659   -0.2221   -1.2398 H   0  0  0  0  0  0  0  0  0  0  0  0
   -4.3831    0.8867   -2.6499 H   0  0  0  0  0  0  0  0  0  0  0  0
  2 14  1  0  0  0  0
  3 26  1  0  0  0  0
  4  1  1  0  0  0  0
  4  5  1  0  0  0  0
  5  6  1  0  0  0  0
  7  5  2  0  0  0  0
  7  8  1  0  0  0  0
  9  7  1  0  0  0  0
 10  9  1  0  0  0  0
 11 13  1  0  0  0  0
 11  9  2  0  0  0  0
 12 11  1  0  0  0  0
 13  4  2  0  0  0  0
 14 13  1  0  0  0  0
 15 14  1  0  0  0  0
 16 17  1  0  0  0  0
 16  2  1  0  0  0  0
 18 16  1  0  0  0  0
 19  3  1  0  0  0  0
 19 16  1  0  0  0  0
 20 19  1  0  0  0  0
 21 19  1  0  0  0  0
 22 24  1  0  0  0  0
 22  3  1  0  0  0  0
 23 22  1  0  0  0  0
 25 22  1  0  0  0  0
 26 28  1  0  0  0  0
 26 27  1  0  0  0  0
 29 26  1  0  0  0  0
M  CHG  1   1  -1
M  END
