2,4,7
q = -1.0

 25 24  0  0  0  0  0  0  0  0999 V2000
   -1.8566   -1.0553   -0.1501 P   0  0  2  0  0  0  0  0  0  0  0  0
   -0.4810    1.1835   -0.2920 N   0  0  0  0  0  0  0  0  0  0  0  0
   -0.6893    1.1252   -1.3049 H   0  0  0  0  0  0  0  0  0  0  0  0
    2.3073    1.3599   -0.1300 N   0  0  0  0  0  0  0  0  0  0  0  0
    3.1059    1.1273   -0.7395 H   0  0  0  0  0  0  0  0  0  0  0  0
    2.6969    1.5064    0.8139 H   0  0  0  0  0  0  0  0  0  0  0  0
   -0.4411   -1.6471    0.2127 O   0  0  0  0  0  1  0  0  0  0  0  0
   -3.1150   -1.7462    0.2945 O   0  0  0  0  0  0  0  0  0  0  0  0
   -1.8456   -0.7707   -1.8077 O   0  0  0  0  0  0  0  0  0  0  0  0
   -2.6279   -1.2189   -2.1842 H   0  0  0  0  0  0  0  0  0  0  0  0
   -1.7393    0.7483    0.4092 C   0  0  0  0  0  0  0  0  0  0  0  0
   -1.5787    0.7723    1.9287 C   0  0  0  0  0  0  0  0  0  0  0  0
   -1.5701    1.8072    2.3312 H   0  0  0  0  0  0  0  0  0  0  0  0
   -0.6557    0.2445    2.2420 H   0  0  0  0  0  0  0  0  0  0  0  0
   -2.4392    0.2412    2.3797 H   0  0  0  0  0  0  0  0  0  0  0  0
   -2.9581    1.5438   -0.0560 C   0  0  0  0  0  0  0  0  0  0  0  0
   -2.9266    2.5971    0.2948 H   0  0  0  0  0  0  0  0  0  0  0  0
   -3.8708    1.0692    0.3549 H   0  0  0  0  0  0  0  0  0  0  0  0
   -3.0459    1.5285   -1.1607 H   0  0  0  0  0  0  0  0  0  0  0  0
    0.1304    2.4977    0.0171 C   0  0  0  0  0  0  0  0  0  0  0  0
    0.1970    2.5953    1.1189 H   0  0  0  0  0  0  0  0  0  0  0  0
   -0.4852    3.3442   -0.3591 H   0  0  0  0  0  0  0  0  0  0  0  0
    1.5290    2.5354   -0.6015 C   0  0  0  0  0  0  0  0  0  0  0  0
    1.4536    2.4621   -1.7056 H   0  0  0  0  0  0  0  0  0  0  0  0
    2.0380    3.4942   -0.3638 H   0  0  0  0  0  0  0  0  0  0  0  0
  1  7  1  1  0  0  0
  1  8  2  0  0  0  0
  1 11  1  0  0  0  0
  2 20  1  0  0  0  0
  2 11  1  0  0  0  0
  3  2  1  0  0  0  0
  4  6  1  0  0  0  0
  5  4  1  0  0  0  0
  9  1  1  0  0  0  0
 10  9  1  0  0  0  0
 11 12  1  0  0  0  0
 12 14  1  0  0  0  0
 12 13  1  0  0  0  0
 12 15  1  0  0  0  0
 16 17  1  0  0  0  0
 16 18  1  0  0  0  0
 16 11  1  0  0  0  0
 19 16  1  0  0  0  0
 20 21  1  0  0  0  0
 22 20  1  0  0  0  0
 23 25  1  0  0  0  0
 23  4  1  0  0  0  0
 23 20  1  0  0  0  0
 24 23  1  0  0  0  0
M  END
