1,2,3
q = -1.0

 33 33  0  0  0  0  0  0  0  0999 V2000
    0.7854   -1.8537   -0.1634 N   0  0  0  0  0  2  0  0  0  0  0  0
    3.0214   -0.5160   -0.2921 N   0  0  0  0  0  0  0  0  0  0  0  0
   -0.6085    0.4873    0.0596 O   0  5  0  0  0  0  0  0  0  0  0  0
   -5.3601    0.1820    0.2101 O   0  0  0  0  0  0  0  0  0  0  0  0
   -1.6393   -1.7125   -0.0476 C   0  0  0  0  0  0  0  0  0  0  0  0
   -1.6672   -0.2680    0.0454 C   0  0  0  0  0  0  0  0  0  0  0  0
   -2.9371    0.3781    0.1318 C   0  0  0  0  0  0  0  0  0  0  0  0
   -2.9182    1.4728    0.1978 H   0  0  0  0  0  0  0  0  0  0  0  0
   -4.1206   -0.3619    0.1298 C   0  0  0  0  0  0  0  0  0  0  0  0
   -4.0921   -1.7879    0.0382 C   0  0  0  0  0  0  0  0  0  0  0  0
   -5.0456   -2.3328    0.0391 H   0  0  0  0  0  0  0  0  0  0  0  0
   -2.8741   -2.4305   -0.0489 C   0  0  0  0  0  3  0  0  0  0  0  0
   -2.8400   -3.5296   -0.1204 H   0  0  0  0  0  0  0  0  0  0  0  0
   -0.4087   -2.4146   -0.1385 C   0  0  0  0  0  0  0  0  0  0  0  0
   -0.4578   -3.5210   -0.1948 H   0  0  0  0  0  0  0  0  0  0  0  0
    1.9831   -2.6936   -0.1913 C   0  0  0  0  0  0  0  0  0  0  0  0
    1.8059   -3.6520   -0.7261 H   0  0  0  0  0  0  0  0  0  0  0  0
    2.2883   -2.9555    0.8480 H   0  0  0  0  0  0  0  0  0  0  0  0
    3.0742   -1.8784   -0.8722 C   0  0  0  0  0  0  0  0  0  0  0  0
    4.0764   -2.3456   -0.7632 H   0  0  0  0  0  0  0  0  0  0  0  0
    2.8512   -1.7853   -1.9533 H   0  0  0  0  0  0  0  0  0  0  0  0
    3.7091   -0.3215    1.0112 C   0  0  0  0  0  0  0  0  0  0  0  0
    3.2735   -1.0387    1.7359 H   0  0  0  0  0  0  0  0  0  0  0  0
    3.4168    0.6934    1.3453 H   0  0  0  0  0  0  0  0  0  0  0  0
    5.2278   -0.4540    0.9469 C   0  0  0  0  0  0  0  0  0  0  0  0
    5.5610   -1.4702    0.6532 H   0  0  0  0  0  0  0  0  0  0  0  0
    5.6641   -0.2405    1.9427 H   0  0  0  0  0  0  0  0  0  0  0  0
    5.6640    0.2738    0.2318 H   0  0  0  0  0  0  0  0  0  0  0  0
   -5.4716    1.5927    0.3020 C   0  0  0  0  0  0  0  0  0  0  0  0
   -4.9688    1.9855    1.2131 H   0  0  0  0  0  0  0  0  0  0  0  0
   -6.5527    1.8174    0.3567 H   0  0  0  0  0  0  0  0  0  0  0  0
   -5.0366    2.0977   -0.5884 H   0  0  0  0  0  0  0  0  0  0  0  0
    3.3865    0.1876   -0.9516 H   0  0  0  0  0  0  0  0  0  0  0  0
  1 14  1  0  0  0  0
  2 22  1  0  0  0  0
  4 29  1  0  0  0  0
  5  6  1  0  0  0  0
  6  3  1  0  0  0  0
  6  7  2  0  0  0  0
  7  8  1  0  0  0  0
  9  7  1  0  0  0  0
  9  4  1  0  0  0  0
 10 11  1  0  0  0  0
 10  9  2  0  0  0  0
 12  5  1  0  0  0  0
 12 10  1  0  0  0  0
 13 12  1  0  0  0  0
 14  5  2  0  0  0  0
 15 14  1  0  0  0  0
 16  1  1  0  0  0  0
 16 18  1  0  0  0  0
 17 16  1  0  0  0  0
 19 20  1  0  0  0  0
 19  2  1  0  0  0  0
 19 16  1  0  0  0  0
 21 19  1  0  0  0  0
 22 24  1  0  0  0  0
 22 23  1  0  0  0  0
 25 22  1  0  0  0  0
 25 27  1  0  0  0  0
 26 25  1  0  0  0  0
 28 25  1  0  0  0  0
 29 31  1  0  0  0  0
 29 30  1  0  0  0  0
 32 29  1  0  0  0  0
 33  2  1  0  0  0  0
M  CHG  1   3  -1
M  END
