1,4,5
q = -1.0

 27 27  0  0  1  0  0  0  0  0999 V2000
    1.5169   -1.5949    0.5544 O   0  5  0  0  0  0  0  0  0  0  0  0
    5.8696   -2.8839   -0.1094 O   0  0  0  0  0  0  0  0  0  0  0  0
    6.5838   -2.6390   -0.7272 H   0  0  0  0  0  0  0  0  0  0  0  0
   -0.8042    1.3035   -1.4357 N   0  0  0  0  0  2  0  0  0  0  0  0
    1.5488    0.0959   -1.3837 N   0  0  0  0  0  2  0  0  0  0  0  0
    2.6897   -0.5633   -1.1973 N   0  0  0  0  0  0  0  0  0  0  0  0
    4.8337   -2.0631   -0.5296 N   0  0  0  0  0  0  0  0  0  0  0  0
   -2.0235    1.8508   -1.4317 C   0  0  0  0  0  3  0  0  0  0  0  0
   -2.7037    1.5076   -0.6323 H   0  0  0  0  0  0  0  0  0  0  0  0
   -2.4319    2.8017   -2.3805 C   0  0  0  0  0  0  0  0  0  0  0  0
   -3.4455    3.2249   -2.3428 H   0  0  0  0  0  0  0  0  0  0  0  0
   -1.5077    3.1860   -3.3652 C   0  0  0  0  0  0  0  0  0  0  0  0
   -1.7821    3.9307   -4.1280 H   0  0  0  0  0  0  0  0  0  0  0  0
   -0.2321    2.6120   -3.3747 C   0  0  0  0  0  0  0  0  0  0  0  0
    0.5043    2.8951   -4.1391 H   0  0  0  0  0  0  0  0  0  0  0  0
    0.1030    1.6523   -2.3895 C   0  0  0  0  0  0  0  0  0  0  0  0
    1.4155    0.9933   -2.3389 C   0  0  1  0  0  3  0  0  0  0  0  0
    2.5154    1.3210   -3.3024 C   0  0  0  0  0  0  0  0  0  0  0  0
    2.8018    2.3928   -3.2502 H   0  0  0  0  0  0  0  0  0  0  0  0
    2.2144    1.1137   -4.3511 H   0  0  0  0  0  0  0  0  0  0  0  0
    3.3933    0.6974   -3.0501 H   0  0  0  0  0  0  0  0  0  0  0  0
    2.5605   -1.4335   -0.1496 C   0  0  0  0  0  0  0  0  0  0  0  0
    3.7644   -2.2554    0.1856 C   0  0  0  0  0  0  0  0  0  0  0  0
    3.6817   -3.2412    1.3128 C   0  0  0  0  0  0  0  0  0  0  0  0
    3.9221   -4.2607    0.9471 H   0  0  0  0  0  0  0  0  0  0  0  0
    2.6724   -3.2260    1.7578 H   0  0  0  0  0  0  0  0  0  0  0  0
    4.4420   -3.0051    2.0859 H   0  0  0  0  0  0  0  0  0  0  0  0
  3  2  1  0  0  0  0
  4  8  1  0  0  0  0
  5  6  1  0  0  0  0
  6 22  2  0  0  0  0
  7  2  1  0  0  0  0
  7 23  2  0  0  0  0
  8  9  1  0  0  0  0
 10 11  1  0  0  0  0
 10  8  1  0  0  0  0
 12 10  2  0  0  0  0
 13 12  1  0  0  0  0
 14 12  1  0  0  0  0
 14 16  2  0  0  0  0
 15 14  1  0  0  0  0
 16 17  1  0  0  0  0
 16  4  1  0  0  0  0
 17  5  1  1  0  0  0
 18 19  1  0  0  0  0
 18 21  1  0  0  0  0
 18 17  1  0  0  0  0
 20 18  1  0  0  0  0
 22 23  1  0  0  0  0
 22  1  1  0  0  0  0
 23 24  1  0  0  0  0
 24 26  1  0  0  0  0
 24 27  1  0  0  0  0
 25 24  1  0  0  0  0
M  CHG  1   1  -1
M  END
