1,2,3
q = -1.0

 30 31  0  0  0  0  0  0  0  0999 V2000
   -0.7211   -1.0819   -0.0023 O   0  5  0  0  0  0  0  0  0  0  0  0
    3.0962   -0.0726   -0.0006 N   0  0  0  0  0  2  0  0  0  0  0  0
    0.7170    0.9162    0.0003 N   0  0  0  0  0  2  0  0  0  0  0  0
   -0.5759    1.2301    0.0009 N   0  0  0  0  0  0  0  0  0  0  0  0
    4.2920   -0.6807   -0.0019 C   0  0  0  0  0  3  0  0  0  0  0  0
    4.2682   -1.7809   -0.0026 H   0  0  0  0  0  0  0  0  0  0  0  0
    5.4924    0.0435   -0.0025 C   0  0  0  0  0  0  0  0  0  0  0  0
    6.4526   -0.4903   -0.0035 H   0  0  0  0  0  0  0  0  0  0  0  0
    5.4314    1.4469   -0.0018 C   0  0  0  0  0  0  0  0  0  0  0  0
    6.3551    2.0448   -0.0023 H   0  0  0  0  0  0  0  0  0  0  0  0
    4.1846    2.0808   -0.0007 C   0  0  0  0  0  0  0  0  0  0  0  0
    4.0985    3.1768   -0.0003 H   0  0  0  0  0  0  0  0  0  0  0  0
    3.0158    1.2913   -0.0001 C   0  0  0  0  0  0  0  0  0  0  0  0
    1.6665    1.8207    0.0007 C   0  0  0  0  0  3  0  0  0  0  0  0
    1.4439    2.9013    0.0015 H   0  0  0  0  0  0  0  0  0  0  0  0
   -1.2874    0.0752   -0.0004 C   0  0  0  0  0  0  0  0  0  0  0  0
   -2.7575    0.1611    0.0001 C   0  0  0  0  0  0  0  0  0  0  0  0
   -3.4153    1.4104    0.0020 C   0  0  0  0  0  0  0  0  0  0  0  0
   -2.8081    2.3263    0.0035 H   0  0  0  0  0  0  0  0  0  0  0  0
   -4.8124    1.4657    0.0031 C   0  0  0  0  0  0  0  0  0  0  0  0
   -5.3179    2.4441    0.0056 H   0  0  0  0  0  0  0  0  0  0  0  0
   -5.5907    0.2883    0.0020 C   0  0  0  0  0  0  0  0  0  0  0  0
   -4.9200   -0.9561    0.0011 C   0  0  0  0  0  0  0  0  0  0  0  0
   -5.5098   -1.8865    0.0020 H   0  0  0  0  0  0  0  0  0  0  0  0
   -3.5258   -1.0246   -0.0001 C   0  0  0  0  0  0  0  0  0  0  0  0
   -3.0007   -1.9905   -0.0004 H   0  0  0  0  0  0  0  0  0  0  0  0
   -7.0956    0.3447   -0.0055 C   0  0  0  0  0  0  0  0  0  0  0  0
   -7.4694    1.3831    0.0777 H   0  0  0  0  0  0  0  0  0  0  0  0
   -7.5239   -0.2443    0.8318 H   0  0  0  0  0  0  0  0  0  0  0  0
   -7.5053   -0.0901   -0.9417 H   0  0  0  0  0  0  0  0  0  0  0  0
  1 16  1  0  0  0  0
  2 13  1  0  0  0  0
  3 14  1  0  0  0  0
  3  4  1  0  0  0  0
  5  2  1  0  0  0  0
  6  5  1  0  0  0  0
  7  5  1  0  0  0  0
  7  9  2  0  0  0  0
  8  7  1  0  0  0  0
  9 11  1  0  0  0  0
 10  9  1  0  0  0  0
 11 12  1  0  0  0  0
 11 13  2  0  0  0  0
 13 14  1  0  0  0  0
 14 15  1  0  0  0  0
 16 17  1  0  0  0  0
 16  4  2  0  0  0  0
 17 18  1  0  0  0  0
 18 20  2  0  0  0  0
 18 19  1  0  0  0  0
 20 21  1  0  0  0  0
 22 20  1  0  0  0  0
 23 22  2  0  0  0  0
 23 24  1  0  0  0  0
 25 17  2  0  0  0  0
 25 23  1  0  0  0  0
 26 25  1  0  0  0  0
 27 22  1  0  0  0  0
 27 28  1  0  0  0  0
 27 29  1  0  0  0  0
 30 27  1  0  0  0  0
M  CHG  1   1  -1
M  END
