1,2,3
q = -1.0, confidence = 0.024

 35 36  0  0  0  0  0  0  0  0999 V2000
   -0.0114   -1.1182    0.0004 O   0  5  0  0  0  0  0  0  0  0  0  0
    3.7830   -0.0476   -0.0017 N   0  0  0  0  0  2  0  0  0  0  0  0
    1.3878    0.9049    0.0006 N   0  0  0  0  0  2  0  0  0  0  0  0
    0.0940    1.1979    0.0010 N   0  0  0  0  0  0  0  0  0  0  0  0
   -6.2932    0.2152   -0.0013 N   0  0  0  0  0  0  0  0  0  0  0  0
    4.9879   -0.6376   -0.0038 C   0  0  0  0  0  3  0  0  0  0  0  0
    4.9792   -1.7382   -0.0058 H   0  0  0  0  0  0  0  0  0  0  0  0
    6.1778    0.1027   -0.0038 C   0  0  0  0  0  0  0  0  0  0  0  0
    7.1457   -0.4169   -0.0055 H   0  0  0  0  0  0  0  0  0  0  0  0
    6.0953    1.5060   -0.0015 C   0  0  0  0  0  0  0  0  0  0  0  0
    7.0102    2.1175   -0.0013 H   0  0  0  0  0  0  0  0  0  0  0  0
    4.8406    2.1216    0.0005 C   0  0  0  0  0  0  0  0  0  0  0  0
    4.7390    3.2162    0.0021 H   0  0  0  0  0  0  0  0  0  0  0  0
    3.6807    1.3159    0.0002 C   0  0  0  0  0  0  0  0  0  0  0  0
    2.3269    1.8248    0.0015 C   0  0  0  0  0  3  0  0  0  0  0  0
    2.0881    2.9018    0.0028 H   0  0  0  0  0  0  0  0  0  0  0  0
   -0.6039    0.0295    0.0005 C   0  0  0  0  0  0  0  0  0  0  0  0
   -2.0631    0.0917    0.0002 C   0  0  0  0  0  0  0  0  0  0  0  0
   -2.7526    1.3282    0.0003 C   0  0  0  0  0  0  0  0  0  0  0  0
   -2.1629    2.2557    0.0008 H   0  0  0  0  0  0  0  0  0  0  0  0
   -4.1421    1.3755   -0.0001 C   0  0  0  0  0  0  0  0  0  0  0  0
   -4.6375    2.3544    0.0001 H   0  0  0  0  0  0  0  0  0  0  0  0
   -4.9171    0.1753   -0.0008 C   0  0  0  0  0  0  0  0  0  0  0  0
   -4.2137   -1.0680   -0.0008 C   0  0  0  0  0  0  0  0  0  0  0  0
   -4.7650   -2.0165   -0.0012 H   0  0  0  0  0  0  0  0  0  0  0  0
   -2.8239   -1.1009   -0.0004 C   0  0  0  0  0  0  0  0  0  0  0  0
   -2.2882   -2.0611   -0.0005 H   0  0  0  0  0  0  0  0  0  0  0  0
   -7.0585   -1.0177   -0.0010 C   0  0  0  0  0  0  0  0  0  0  0  0
   -6.8461   -1.6404   -0.8984 H   0  0  0  0  0  0  0  0  0  0  0  0
   -8.1368   -0.7786   -0.0019 H   0  0  0  0  0  0  0  0  0  0  0  0
   -6.8472   -1.6395    0.8973 H   0  0  0  0  0  0  0  0  0  0  0  0
   -6.9855    1.4901   -0.0006 C   0  0  0  0  0  0  0  0  0  0  0  0
   -6.7388    2.0984    0.8981 H   0  0  0  0  0  0  0  0  0  0  0  0
   -8.0760    1.3141   -0.0017 H   0  0  0  0  0  0  0  0  0  0  0  0
   -6.7373    2.0999   -0.8978 H   0  0  0  0  0  0  0  0  0  0  0  0
  1 17  1  0  0  0  0
  2 14  1  0  0  0  0
  3  4  1  0  0  0  0
  3 15  1  0  0  0  0
  5 28  1  0  0  0  0
  5 23  1  0  0  0  0
  5 32  1  0  0  0  0
  6  8  1  0  0  0  0
  6  2  1  0  0  0  0
  7  6  1  0  0  0  0
  8 10  2  0  0  0  0
  9  8  1  0  0  0  0
 10 11  1  0  0  0  0
 10 12  1  0  0  0  0
 12 13  1  0  0  0  0
 14 12  2  0  0  0  0
 14 15  1  0  0  0  0
 15 16  1  0  0  0  0
 17  4  2  0  0  0  0
 18 19  1  0  0  0  0
 18 17  1  0  0  0  0
 19 20  1  0  0  0  0
 21 22  1  0  0  0  0
 21 19  2  0  0  0  0
 23 21  1  0  0  0  0
 24 23  2  0  0  0  0
 24 26  1  0  0  0  0
 25 24  1  0  0  0  0
 26 18  2  0  0  0  0
 27 26  1  0  0  0  0
 28 31  1  0  0  0  0
 29 28  1  0  0  0  0
 30 28  1  0  0  0  0
 32 33  1  0  0  0  0
 34 32  1  0  0  0  0
 35 32  1  0  0  0  0
M  CHG  1   1  -1
M  END
