1,2,3
q = -1.0

 30 30  0  0  1  0  0  0  0  0999 V2000
   -0.2912    0.1727    1.4112 O   0  5  0  0  0  0  0  0  0  0  0  0
    1.7777    0.5347   -0.1960 N   0  0  0  0  0  2  0  0  0  0  0  0
   -0.8532    0.8870   -1.0096 N   0  0  0  0  0  0  0  0  0  0  0  0
   -1.5173    0.5671   -1.7271 H   0  0  0  0  0  0  0  0  0  0  0  0
   -0.9263    2.1407    2.3275 O   0  0  0  0  0  0  0  0  0  0  0  0
   -0.8851    1.3599    1.3955 C   0  0  0  0  0  0  0  0  0  0  0  0
   -1.6030    1.6038    0.0513 C   0  0  2  0  0  0  0  0  0  0  0  0
   -1.5998    2.6956   -0.1619 H   0  0  0  0  0  0  0  0  0  0  0  0
   -3.0747    1.1112    0.1586 C   0  0  0  0  0  0  0  0  0  0  0  0
   -3.0449    0.0994    0.6189 H   0  0  0  0  0  0  0  0  0  0  0  0
    0.2168    1.6779   -1.6799 C   0  0  0  0  0  0  0  0  0  0  0  0
    0.4177    1.1741   -2.6485 H   0  0  0  0  0  0  0  0  0  0  0  0
   -0.1166    2.7154   -1.8903 H   0  0  0  0  0  0  0  0  0  0  0  0
    1.4899    1.6858   -0.8695 C   0  0  2  0  0  3  0  0  0  0  0  0
    2.8843    0.4586    0.5768 C   0  0  0  0  0  0  0  0  0  0  0  0
    3.0221   -0.5033    1.0980 H   0  0  0  0  0  0  0  0  0  0  0  0
    2.3452    2.7911   -0.7978 C   0  0  0  0  0  0  0  0  0  0  0  0
    2.0890    3.7124   -1.3404 H   0  0  0  0  0  0  0  0  0  0  0  0
    3.7763    1.5283    0.6864 C   0  0  0  0  0  0  0  0  0  0  0  0
    4.6688    1.4273    1.3196 H   0  0  0  0  0  0  0  0  0  0  0  0
    3.5066    2.7125   -0.0147 C   0  0  0  0  0  0  0  0  0  0  0  0
    4.1846    3.5755    0.0594 H   0  0  0  0  0  0  0  0  0  0  0  0
   -3.8679    2.0587    1.0659 C   0  0  0  0  0  0  0  0  0  0  0  0
   -3.3626    2.2122    2.0380 H   0  0  0  0  0  0  0  0  0  0  0  0
   -4.8796    1.6498    1.2567 H   0  0  0  0  0  0  0  0  0  0  0  0
   -3.9890    3.0545    0.5882 H   0  0  0  0  0  0  0  0  0  0  0  0
   -3.7434    0.9662   -1.2147 C   0  0  0  0  0  0  0  0  0  0  0  0
   -3.3269    0.1245   -1.8085 H   0  0  0  0  0  0  0  0  0  0  0  0
   -3.6822    1.9025   -1.8105 H   0  0  0  0  0  0  0  0  0  0  0  0
   -4.8176    0.7290   -1.0830 H   0  0  0  0  0  0  0  0  0  0  0  0
  2 15  1  0  0  0  0
  3  7  1  0  0  0  0
  4  3  1  0  0  0  0
  6  1  1  0  0  0  0
  6  5  2  0  0  0  0
  7  8  1  6  0  0  0
  7  9  1  0  0  0  0
  7  6  1  0  0  0  0
  9 10  1  0  0  0  0
  9 23  1  0  0  0  0
 11  3  1  0  0  0  0
 12 11  1  0  0  0  0
 13 11  1  0  0  0  0
 14 11  1  6  0  0  0
 14 17  1  0  0  0  0
 14  2  1  0  0  0  0
 15 19  2  0  0  0  0
 15 16  1  0  0  0  0
 17 21  2  0  0  0  0
 18 17  1  0  0  0  0
 19 20  1  0  0  0  0
 21 22  1  0  0  0  0
 21 19  1  0  0  0  0
 23 25  1  0  0  0  0
 23 24  1  0  0  0  0
 26 23  1  0  0  0  0
 27 30  1  0  0  0  0
 27  9  1  0  0  0  0
 28 27  1  0  0  0  0
 29 27  1  0  0  0  0
M  CHG  1   1  -1
M  END
