2,4,5
q = -1.0, confidence = 0.004

 26 27  0  0  1  0  0  0  0  0999 V2000
    4.2245    0.0000   -1.0920 O   0  0  0  0  0  0  0  0  0  0  0  0
    0.7150   -0.0000   -1.7813 O   0  5  0  0  0  0  0  0  0  0  0  0
    2.5768   -0.0001   -3.0566 O   0  0  0  0  0  0  0  0  0  0  0  0
    1.2752    1.3442    0.5707 N   0  0  0  0  0  2  0  0  0  0  0  0
    1.2752   -1.3442    0.5707 N   0  0  0  0  0  2  0  0  0  0  0  0
    0.9147    2.3774    1.3654 C   0  0  0  0  0  3  0  0  0  0  0  0
    1.8302    3.3643    1.7362 C   0  0  0  0  0  0  0  0  0  0  0  0
    3.1511    3.2781    1.2680 C   0  0  0  0  0  0  0  0  0  0  0  0
    3.5188    2.1946    0.4613 C   0  0  0  0  0  0  0  0  0  0  0  0
    2.5519    1.2338    0.1397 C   0  0  0  0  0  0  0  0  0  0  0  0
    2.9002   -0.0000   -0.6889 C   0  0  2  0  0  0  0  0  0  0  0  0
    2.5519   -1.2338    0.1397 C   0  0  1  0  0  3  0  0  0  0  0  0
    3.5188   -2.1946    0.4613 C   0  0  0  0  0  0  0  0  0  0  0  0
    3.1511   -3.2781    1.2680 C   0  0  0  0  0  0  0  0  0  0  0  0
    1.8302   -3.3643    1.7362 C   0  0  0  0  0  0  0  0  0  0  0  0
    0.9147   -2.3774    1.3654 C   0  0  0  0  0  0  0  0  0  0  0  0
    1.9920    0.0000   -1.9775 C   0  0  0  0  0  0  0  0  0  0  0  0
    4.1460    0.0000   -2.0882 H   0  0  0  0  0  0  0  0  0  0  0  0
   -0.1274    2.3888    1.7110 H   0  0  0  0  0  0  0  0  0  0  0  0
    1.5026    4.1877    2.3859 H   0  0  0  0  0  0  0  0  0  0  0  0
    3.8918    4.0450    1.5395 H   0  0  0  0  0  0  0  0  0  0  0  0
    4.5358    2.0507    0.0723 H   0  0  0  0  0  0  0  0  0  0  0  0
    4.5358   -2.0507    0.0723 H   0  0  0  0  0  0  0  0  0  0  0  0
    3.8918   -4.0450    1.5395 H   0  0  0  0  0  0  0  0  0  0  0  0
    1.5026   -4.1877    2.3859 H   0  0  0  0  0  0  0  0  0  0  0  0
   -0.1274   -2.3888    1.7111 H   0  0  0  0  0  0  0  0  0  0  0  0
  1 11  1  0  0  0  0
  3 17  2  0  0  0  0
  4  6  1  0  0  0  0
  5 16  1  0  0  0  0
  6 19  1  0  0  0  0
  6  7  1  0  0  0  0
  7 20  1  0  0  0  0
  8 21  1  0  0  0  0
  8  7  2  0  0  0  0
  9  8  1  0  0  0  0
 10  9  2  0  0  0  0
 10  4  1  0  0  0  0
 11 17  1  6  0  0  0
 11 10  1  0  0  0  0
 12 11  1  1  0  0  0
 12 13  1  0  0  0  0
 12  5  1  0  0  0  0
 13 14  2  0  0  0  0
 14 24  1  0  0  0  0
 14 15  1  0  0  0  0
 15 25  1  0  0  0  0
 16 26  1  0  0  0  0
 16 15  2  0  0  0  0
 17  2  1  0  0  0  0
 18  1  1  0  0  0  0
 22  9  1  0  0  0  0
 23 13  1  0  0  0  0
M  CHG  1   2  -1
M  END
