1,2,5
q = -1.0

 41 43  0  0  1  0  0  0  0  0999 V2000
    1.5081   -1.7182    0.0000 O   0  5  0  0  0  0  0  0  0  0  0  0
    0.5383    0.6005   -1.4547 N   0  0  0  0  0  2  0  0  0  0  0  0
    1.7103    1.2489   -1.2040 N   0  0  0  0  0  0  0  0  0  0  0  0
    1.7102    1.2489    1.2041 N   0  0  0  0  0  0  0  0  0  0  0  0
    0.5382    0.6005    1.4547 N   0  0  0  0  0  2  0  0  0  0  0  0
    2.7990   -1.5281    0.0000 C   0  0  0  0  0  0  0  0  0  0  0  0
    3.6989   -2.6348   -0.0000 C   0  0  0  0  0  0  0  0  0  0  0  0
    3.2559   -3.6416   -0.0001 H   0  0  0  0  0  0  0  0  0  0  0  0
    5.0820   -2.4494   -0.0000 C   0  0  0  0  0  0  0  0  0  0  0  0
    5.7445   -3.3294   -0.0001 H   0  0  0  0  0  0  0  0  0  0  0  0
    5.6402   -1.1555    0.0000 C   0  0  0  0  0  0  0  0  0  0  0  0
    6.7300   -1.0108    0.0001 H   0  0  0  0  0  0  0  0  0  0  0  0
    4.7763   -0.0541    0.0001 C   0  0  0  0  0  0  0  0  0  0  0  0
    5.1960    0.9673    0.0001 H   0  0  0  0  0  0  0  0  0  0  0  0
    3.3762   -0.2175    0.0001 C   0  0  0  0  0  0  0  0  0  0  0  0
    2.5170    1.0249    0.0001 C   0  0  1  0  0  0  0  0  0  0  0  0
    3.2229    1.8723    0.0001 H   0  0  0  0  0  0  0  0  0  0  0  0
    2.0506    2.0933   -2.2304 C   0  0  2  0  0  3  0  0  0  0  0  0
    1.0305    1.9835   -3.1732 C   0  0  0  0  0  0  0  0  0  0  0  0
    0.9641    2.5153   -4.1275 H   0  0  0  0  0  0  0  0  0  0  0  0
    0.1026    1.0497   -2.6545 C   0  0  0  0  0  0  0  0  0  0  0  0
   -1.1822    0.6010   -3.2667 C   0  0  0  0  0  0  0  0  0  0  0  0
   -1.1891   -0.4930   -3.4376 H   0  0  0  0  0  0  0  0  0  0  0  0
   -1.3386    1.1107   -4.2354 H   0  0  0  0  0  0  0  0  0  0  0  0
   -2.0386    0.8246   -2.5993 H   0  0  0  0  0  0  0  0  0  0  0  0
    3.3050    2.9023   -2.2480 C   0  0  0  0  0  0  0  0  0  0  0  0
    3.3527    3.4885   -3.1836 H   0  0  0  0  0  0  0  0  0  0  0  0
    4.2097    2.2611   -2.2017 H   0  0  0  0  0  0  0  0  0  0  0  0
    3.3567    3.6226   -1.4036 H   0  0  0  0  0  0  0  0  0  0  0  0
    2.0504    2.0932    2.2305 C   0  0  1  0  0  3  0  0  0  0  0  0
    1.0302    1.9835    3.1732 C   0  0  0  0  0  0  0  0  0  0  0  0
    0.9638    2.5153    4.1276 H   0  0  0  0  0  0  0  0  0  0  0  0
    0.1023    1.0498    2.6544 C   0  0  0  0  0  0  0  0  0  0  0  0
   -1.1826    0.6013    3.2665 C   0  0  0  0  0  0  0  0  0  0  0  0
   -2.0389    0.8254    2.5992 H   0  0  0  0  0  0  0  0  0  0  0  0
   -1.3388    1.1108    4.2353 H   0  0  0  0  0  0  0  0  0  0  0  0
   -1.1898   -0.4928    3.4370 H   0  0  0  0  0  0  0  0  0  0  0  0
    3.3048    2.9022    2.2483 C   0  0  0  0  0  0  0  0  0  0  0  0
    3.3567    3.6225    1.4038 H   0  0  0  0  0  0  0  0  0  0  0  0
    4.2096    2.2610    2.2021 H   0  0  0  0  0  0  0  0  0  0  0  0
    3.3525    3.4885    3.1839 H   0  0  0  0  0  0  0  0  0  0  0  0
  2  3  1  0  0  0  0
  3 16  1  0  0  0  0
  4  5  1  0  0  0  0
  4 30  1  0  0  0  0
  5 33  1  0  0  0  0
  6  1  1  0  0  0  0
  6 15  1  0  0  0  0
  7  9  1  0  0  0  0
  7  6  2  0  0  0  0
  8  7  1  0  0  0  0
  9 11  2  0  0  0  0
 10  9  1  0  0  0  0
 11 12  1  0  0  0  0
 11 13  1  0  0  0  0
 13 14  1  0  0  0  0
 15 13  2  0  0  0  0
 15 16  1  0  0  0  0
 16 17  1  1  0  0  0
 16  4  1  0  0  0  0
 18 26  1  6  0  0  0
 18  3  1  0  0  0  0
 19 21  2  0  0  0  0
 19 18  1  0  0  0  0
 20 19  1  0  0  0  0
 21  2  1  0  0  0  0
 22 21  1  0  0  0  0
 22 25  1  0  0  0  0
 23 22  1  0  0  0  0
 24 22  1  0  0  0  0
 26 28  1  0  0  0  0
 26 29  1  0  0  0  0
 27 26  1  0  0  0  0
 30 38  1  1  0  0  0
 30 31  1  0  0  0  0
 31 32  1  0  0  0  0
 33 31  2  0  0  0  0
 33 34  1  0  0  0  0
 34 37  1  0  0  0  0
 34 36  1  0  0  0  0
 35 34  1  0  0  0  0
 38 41  1  0  0  0  0
 39 38  1  0  0  0  0
 40 38  1  0  0  0  0
M  CHG  1   1  -1
M  END
