2,5,7
q = -1.0

 65 67  0  0  1  0  0  0  0  0999 V2000
   -0.3747   -0.1513   -2.4984 S   0  0  0  0  0  0  0  0  0  0  0  0
    1.1130    0.0748   -2.2269 O   0  0  0  0  0  1  0  0  0  0  0  0
   -0.7056   -1.5358   -2.9083 O   0  0  0  0  0  1  0  0  0  0  0  0
   -1.0105    0.9843   -3.2019 O   0  0  0  0  0  1  0  0  0  0  0  0
    0.5832    1.4606    0.2669 N   0  0  0  0  0  2  0  0  0  0  0  0
   -0.7112    1.2382   -0.1019 N   0  0  0  0  0  0  0  0  0  0  0  0
    0.6429   -1.4502    0.2852 N   0  0  0  0  0  2  0  0  0  0  0  0
   -0.6802   -1.1887    0.0846 N   0  0  0  0  0  0  0  0  0  0  0  0
   -3.2829    0.1271    0.3790 N   0  0  0  0  0  0  0  0  0  0  0  0
   -2.5660   -0.0612   -0.7696 N   0  0  0  0  0  0  0  0  0  0  0  0
   -1.4552    2.3765    0.0048 C   0  0  0  0  0  3  0  0  0  0  0  0
   -2.5165    2.3874   -0.2502 H   0  0  0  0  0  0  0  0  0  0  0  0
   -0.6140    3.3616    0.4991 C   0  0  0  0  0  0  0  0  0  0  0  0
   -0.8887    4.3940    0.7283 H   0  0  0  0  0  0  0  0  0  0  0  0
    0.6580    2.7536    0.6542 C   0  0  0  0  0  0  0  0  0  0  0  0
    1.9463    3.3908    1.1460 C   0  0  0  0  0  0  0  0  0  0  0  0
    1.6254    4.7485    1.7990 C   0  0  0  0  0  0  0  0  0  0  0  0
    1.1873    5.4615    1.0719 H   0  0  0  0  0  0  0  0  0  0  0  0
    2.5586    5.2029    2.1863 H   0  0  0  0  0  0  0  0  0  0  0  0
    0.9216    4.6382    2.6488 H   0  0  0  0  0  0  0  0  0  0  0  0
    2.8830    3.6215   -0.0630 C   0  0  0  0  0  0  0  0  0  0  0  0
    2.3989    4.2714   -0.8191 H   0  0  0  0  0  0  0  0  0  0  0  0
    3.1660    2.6673   -0.5480 H   0  0  0  0  0  0  0  0  0  0  0  0
    3.8184    4.1136    0.2727 H   0  0  0  0  0  0  0  0  0  0  0  0
    2.6221    2.4765    2.1893 C   0  0  0  0  0  0  0  0  0  0  0  0
    1.9510    2.2913    3.0521 H   0  0  0  0  0  0  0  0  0  0  0  0
    3.5487    2.9554    2.5644 H   0  0  0  0  0  0  0  0  0  0  0  0
    2.9170    1.5033    1.7517 H   0  0  0  0  0  0  0  0  0  0  0  0
   -1.4511   -2.2402    0.4886 C   0  0  0  0  0  3  0  0  0  0  0  0
   -2.5395   -2.2173    0.3992 H   0  0  0  0  0  0  0  0  0  0  0  0
   -0.5899   -3.2004    0.9972 C   0  0  0  0  0  0  0  0  0  0  0  0
   -0.8728   -4.1668    1.4209 H   0  0  0  0  0  0  0  0  0  0  0  0
    0.7188   -2.6734    0.8538 C   0  0  0  0  0  0  0  0  0  0  0  0
    2.0394   -3.3168    1.2398 C   0  0  0  0  0  0  0  0  0  0  0  0
    2.7846   -2.4076    2.2416 C   0  0  0  0  0  0  0  0  0  0  0  0
    3.0409   -1.4288    1.7919 H   0  0  0  0  0  0  0  0  0  0  0  0
    3.7378   -2.8848    2.5463 H   0  0  0  0  0  0  0  0  0  0  0  0
    2.1753   -2.2348    3.1516 H   0  0  0  0  0  0  0  0  0  0  0  0
    2.8872   -3.5338   -0.0342 C   0  0  0  0  0  0  0  0  0  0  0  0
    2.3497   -4.1725   -0.7631 H   0  0  0  0  0  0  0  0  0  0  0  0
    3.8428   -4.0305    0.2292 H   0  0  0  0  0  0  0  0  0  0  0  0
    3.1401   -2.5751   -0.5268 H   0  0  0  0  0  0  0  0  0  0  0  0
    1.7681   -4.6799    1.9024 C   0  0  0  0  0  0  0  0  0  0  0  0
    1.2471   -5.3744    1.2129 H   0  0  0  0  0  0  0  0  0  0  0  0
    1.1580   -4.5752    2.8224 H   0  0  0  0  0  0  0  0  0  0  0  0
    2.7294   -5.1507    2.1876 H   0  0  0  0  0  0  0  0  0  0  0  0
   -3.3697   -0.3903   -1.8409 C   0  0  0  0  0  0  0  0  0  0  0  0
   -2.9534   -0.5942   -2.8309 H   0  0  0  0  0  0  0  0  0  0  0  0
   -4.6662   -0.3919   -1.3557 C   0  0  0  0  0  0  0  0  0  0  0  0
   -5.5714   -0.5996   -1.9333 H   0  0  0  0  0  0  0  0  0  0  0  0
   -4.5617   -0.0619    0.0316 C   0  0  0  0  0  0  0  0  0  0  0  0
   -5.6577    0.0878    1.0761 C   0  0  0  0  0  0  0  0  0  0  0  0
   -7.0330   -0.1874    0.4469 C   0  0  0  0  0  0  0  0  0  0  0  0
   -7.2552    0.5247   -0.3736 H   0  0  0  0  0  0  0  0  0  0  0  0
   -7.8295   -0.0807    1.2102 H   0  0  0  0  0  0  0  0  0  0  0  0
   -7.0948   -1.2159    0.0370 H   0  0  0  0  0  0  0  0  0  0  0  0
   -5.6167    1.5271    1.6349 C   0  0  0  0  0  0  0  0  0  0  0  0
   -5.8055    2.2699    0.8332 H   0  0  0  0  0  0  0  0  0  0  0  0
   -4.6255    1.7443    2.0790 H   0  0  0  0  0  0  0  0  0  0  0  0
   -6.3907    1.6620    2.4180 H   0  0  0  0  0  0  0  0  0  0  0  0
   -5.3942   -0.9172    2.2188 C   0  0  0  0  0  0  0  0  0  0  0  0
   -5.4291   -1.9611    1.8453 H   0  0  0  0  0  0  0  0  0  0  0  0
   -6.1604   -0.8115    3.0140 H   0  0  0  0  0  0  0  0  0  0  0  0
   -4.3958   -0.7452    2.6662 H   0  0  0  0  0  0  0  0  0  0  0  0
   -1.1346   -0.0304   -0.6849 C   0  0  2  0  0  0  0  0  0  0  0  0
  1  2  1  0  0  0  0
  3  1  1  0  0  0  0
  4  1  1  0  0  0  0
  5 15  1  0  0  0  0
  6 11  1  0  0  0  0
  6  5  1  0  0  0  0
  7 33  1  0  0  0  0
  8  7  1  0  0  0  0
  8 29  1  0  0  0  0
 10 65  1  0  0  0  0
 10  9  1  0  0  0  0
 11 13  1  0  0  0  0
 12 11  1  0  0  0  0
 13 15  2  0  0  0  0
 13 14  1  0  0  0  0
 15 16  1  0  0  0  0
 16 17  1  0  0  0  0
 16 25  1  0  0  0  0
 17 19  1  0  0  0  0
 17 20  1  0  0  0  0
 18 17  1  0  0  0  0
 21 24  1  0  0  0  0
 21 16  1  0  0  0  0
 22 21  1  0  0  0  0
 23 21  1  0  0  0  0
 25 27  1  0  0  0  0
 25 26  1  0  0  0  0
 28 25  1  0  0  0  0
 29 31  1  0  0  0  0
 30 29  1  0  0  0  0
 31 32  1  0  0  0  0
 33 31  2  0  0  0  0
 33 34  1  0  0  0  0
 34 43  1  0  0  0  0
 34 35  1  0  0  0  0
 35 37  1  0  0  0  0
 35 38  1  0  0  0  0
 36 35  1  0  0  0  0
 39 41  1  0  0  0  0
 39 34  1  0  0  0  0
 40 39  1  0  0  0  0
 42 39  1  0  0  0  0
 43 46  1  0  0  0  0
 43 45  1  0  0  0  0
 44 43  1  0  0  0  0
 47 49  2  0  0  0  0
 47 10  1  0  0  0  0
 48 47  1  0  0  0  0
 49 51  1  0  0  0  0
 50 49  1  0  0  0  0
 51  9  2  0  0  0  0
 51 52  1  0  0  0  0
 52 57  1  0  0  0  0
 52 61  1  0  0  0  0
 53 52  1  0  0  0  0
 53 55  1  0  0  0  0
 54 53  1  0  0  0  0
 56 53  1  0  0  0  0
 57 59  1  0  0  0  0
 57 60  1  0  0  0  0
 58 57  1  0  0  0  0
 61 64  1  0  0  0  0
 61 63  1  0  0  0  0
 62 61  1  0  0  0  0
 65  1  1  6  0  0  0
 65  6  1  0  0  0  0
 65  8  1  0  0  0  0
M  END
