1,2,3
q = -1.0

 27 28  0  0  0  0  0  0  0  0999 V2000
   -0.3517    1.8746   -0.7985 O   0  5  0  0  0  0  0  0  0  0  0  0
   -1.6520    0.3967    0.7737 N   0  0  0  0  0  2  0  0  0  0  0  0
    0.0952   -1.0736    1.5828 N   0  0  0  0  0  2  0  0  0  0  0  0
   -2.4169    1.3083    0.1320 C   0  0  0  0  0  0  0  0  0  0  0  0
   -1.6410    2.1223   -0.7553 C   0  0  0  0  0  0  0  0  0  0  0  0
   -2.3628    3.0969   -1.4829 C   0  0  0  0  0  0  0  0  0  0  0  0
   -1.8361    3.7637   -2.1801 H   0  0  0  0  0  0  0  0  0  0  0  0
   -3.7621    3.1918   -1.3014 C   0  0  0  0  0  0  0  0  0  0  0  0
   -4.3033    3.9554   -1.8824 H   0  0  0  0  0  0  0  0  0  0  0  0
   -4.5025    2.3734   -0.4284 C   0  0  0  0  0  3  0  0  0  0  0  0
   -5.5908    2.4980   -0.3323 H   0  0  0  0  0  0  0  0  0  0  0  0
   -3.8268    1.3858    0.3302 C   0  0  0  0  0  0  0  0  0  0  0  0
   -4.3748    0.4432    1.2713 C   0  0  0  0  0  0  0  0  0  0  0  0
   -5.4566    0.4557    1.4736 H   0  0  0  0  0  0  0  0  0  0  0  0
   -3.5602   -0.4747    1.9283 C   0  0  0  0  0  0  0  0  0  0  0  0
   -3.9867   -1.1817    2.6556 H   0  0  0  0  0  0  0  0  0  0  0  0
   -2.1573   -0.4998    1.6633 C   0  0  0  0  0  0  0  0  0  0  0  0
   -1.0856   -1.3389    2.1220 C   0  0  0  0  0  3  0  0  0  0  0  0
   -1.2027   -2.1587    2.8501 H   0  0  0  0  0  0  0  0  0  0  0  0
    1.2054   -1.9585    1.8456 C   0  0  0  0  0  0  0  0  0  0  0  0
    1.1426   -2.3443    2.8869 H   0  0  0  0  0  0  0  0  0  0  0  0
    2.1587   -1.4042    1.7394 H   0  0  0  0  0  0  0  0  0  0  0  0
    1.1718   -3.1617    0.8686 C   0  0  0  0  0  0  0  0  0  0  0  0
    1.3751   -2.7910   -0.1594 H   0  0  0  0  0  0  0  0  0  0  0  0
    2.0128   -3.8337    1.1500 H   0  0  0  0  0  0  0  0  0  0  0  0
   -0.0264   -3.8840    0.9527 O   0  0  0  0  0  0  0  0  0  0  0  0
   -0.6819   -3.4996    0.3203 H   0  0  0  0  0  0  0  0  0  0  0  0
  1  5  1  0  0  0  0
  2 17  1  0  0  0  0
  3 20  1  0  0  0  0
  3 18  1  0  0  0  0
  4 12  1  0  0  0  0
  4  2  1  0  0  0  0
  5  4  2  0  0  0  0
  6  8  2  0  0  0  0
  6  5  1  0  0  0  0
  7  6  1  0  0  0  0
  8 10  1  0  0  0  0
  9  8  1  0  0  0  0
 10 11  1  0  0  0  0
 10 12  1  0  0  0  0
 12 13  2  0  0  0  0
 13 14  1  0  0  0  0
 13 15  1  0  0  0  0
 15 16  1  0  0  0  0
 17 15  2  0  0  0  0
 17 18  1  0  0  0  0
 18 19  1  0  0  0  0
 20 21  1  0  0  0  0
 22 20  1  0  0  0  0
 23 26  1  0  0  0  0
 23 25  1  0  0  0  0
 23 20  1  0  0  0  0
 24 23  1  0  0  0  0
 27 26  1  0  0  0  0
M  CHG  1   1  -1
M  END
