1,2,4
q = -1.0, confidence = 0.0

 27 28  0  0  1  0  0  0  0  0999 V2000
   -1.1880    0.0084   -1.4979 O   0  0  0  0  0  1  0  0  0  0  0  0
   -1.0811   -1.4770    0.5795 N   0  0  0  0  0  2  0  0  0  0  0  0
   -3.5148   -0.2490   -1.6920 O   0  0  0  0  0  0  0  0  0  0  0  0
   -1.3009    1.1723    0.7766 N   0  0  0  0  0  2  0  0  0  0  0  0
   -0.7406   -2.4849    1.4021 C   0  0  0  0  0  3  0  0  0  0  0  0
    0.2588   -2.4154    1.8575 H   0  0  0  0  0  0  0  0  0  0  0  0
   -1.6404   -3.5300    1.6452 C   0  0  0  0  0  0  0  0  0  0  0  0
   -1.3520   -4.3488    2.3192 H   0  0  0  0  0  0  0  0  0  0  0  0
   -2.8991   -3.5115    1.0201 C   0  0  0  0  0  0  0  0  0  0  0  0
   -3.6133   -4.3307    1.1920 H   0  0  0  0  0  0  0  0  0  0  0  0
   -3.2433   -2.4381    0.1818 C   0  0  0  0  0  0  0  0  0  0  0  0
   -4.2142   -2.3671   -0.3273 H   0  0  0  0  0  0  0  0  0  0  0  0
   -2.2966   -1.4319   -0.0116 C   0  0  0  0  0  0  0  0  0  0  0  0
   -2.4078   -0.1548   -0.8555 C   0  0  1  0  0  0  0  0  0  0  0  0
   -3.5551    0.7191   -2.7411 C   0  0  0  0  0  0  0  0  0  0  0  0
   -4.5048    0.5515   -3.2809 H   0  0  0  0  0  0  0  0  0  0  0  0
   -2.7011    0.5924   -3.4358 H   0  0  0  0  0  0  0  0  0  0  0  0
   -3.5418    1.7597   -2.3449 H   0  0  0  0  0  0  0  0  0  0  0  0
   -2.5042    0.9874    0.1892 C   0  0  1  0  0  3  0  0  0  0  0  0
   -3.6233    1.7248    0.5800 C   0  0  0  0  0  0  0  0  0  0  0  0
   -4.5930    1.5326    0.0993 H   0  0  0  0  0  0  0  0  0  0  0  0
   -3.4608    2.6904    1.5875 C   0  0  0  0  0  0  0  0  0  0  0  0
   -4.3161    3.3017    1.9124 H   0  0  0  0  0  0  0  0  0  0  0  0
   -2.2027    2.8602    2.1900 C   0  0  0  0  0  0  0  0  0  0  0  0
   -2.0513    3.5938    2.9942 H   0  0  0  0  0  0  0  0  0  0  0  0
   -1.1283    2.0693    1.7640 C   0  0  0  0  0  0  0  0  0  0  0  0
   -0.1200    2.1127    2.2032 H   0  0  0  0  0  0  0  0  0  0  0  0
  2  5  1  0  0  0  0
  3 14  1  0  0  0  0
  4 26  1  0  0  0  0
  5  7  1  0  0  0  0
  5  6  1  0  0  0  0
  7  8  1  0  0  0  0
  9 10  1  0  0  0  0
  9  7  2  0  0  0  0
 11  9  1  0  0  0  0
 12 11  1  0  0  0  0
 13 11  2  0  0  0  0
 13  2  1  0  0  0  0
 14  1  1  6  0  0  0
 14 13  1  0  0  0  0
 15 18  1  0  0  0  0
 15  3  1  0  0  0  0
 16 15  1  0  0  0  0
 17 15  1  0  0  0  0
 19 14  1  1  0  0  0
 19 20  1  0  0  0  0
 19  4  1  0  0  0  0
 20 22  2  0  0  0  0
 21 20  1  0  0  0  0
 22 23  1  0  0  0  0
 22 24  1  0  0  0  0
 24 25  1  0  0  0  0
 26 24  2  0  0  0  0
 26 27  1  0  0  0  0
M  END
