1,6,12
q = -1.0, confidence = 0.102

 65 68  0  0  1  0  0  0  0  0999 V2000
   -0.8921   -1.0332    2.0935 O   0  5  0  0  0  0  0  0  0  0  0  0
    0.5929    0.4800    0.9119 C   0  0  2  0  0  0  0  0  0  0  0  0
    1.4365    1.1341    1.1762 H   0  0  0  0  0  0  0  0  0  0  0  0
    0.7633   -0.0043    3.2531 O   0  0  0  0  0  0  0  0  0  0  0  0
    0.1116   -0.2439    2.2384 C   0  0  0  0  0  0  0  0  0  0  0  0
   -1.6536    0.7897    0.0229 N   0  0  0  0  0  2  0  0  0  0  0  0
   -2.4577    1.8185   -0.2973 C   0  0  0  0  0  3  0  0  0  0  0  0
   -3.4919    1.6158   -0.5976 H   0  0  0  0  0  0  0  0  0  0  0  0
   -1.7629    3.0443   -0.1751 C   0  0  0  0  0  0  0  0  0  0  0  0
   -0.4427    1.3240    0.3343 N   0  0  0  0  0  0  0  0  0  0  0  0
   -0.4685    2.6928    0.2264 C   0  0  0  0  0  0  0  0  0  0  0  0
    0.1947   -1.3861   -0.5828 N   0  0  0  0  0  2  0  0  0  0  0  0
    0.9102   -2.1991   -1.3819 C   0  0  0  0  0  3  0  0  0  0  0  0
    0.3973   -2.9955   -1.9327 H   0  0  0  0  0  0  0  0  0  0  0  0
    1.0758   -0.5028   -0.0460 N   0  0  0  0  0  0  0  0  0  0  0  0
    2.2798   -1.8529   -1.3379 C   0  0  0  0  0  0  0  0  0  0  0  0
    2.3588   -0.7683   -0.4522 C   0  0  0  0  0  0  0  0  0  0  0  0
   -2.2216    4.4696   -0.3417 C   0  0  1  0  0  0  0  0  0  0  0  0
   -2.7568    4.7509    0.5957 H   0  0  0  0  0  0  0  0  0  0  0  0
   -0.9879    5.3852   -0.4664 C   0  0  0  0  0  0  0  0  0  0  0  0
   -1.3058    6.4412   -0.3426 H   0  0  0  0  0  0  0  0  0  0  0  0
   -0.5923    5.3019   -1.4989 H   0  0  0  0  0  0  0  0  0  0  0  0
    0.1158    5.0652    0.5555 C   0  0  0  0  0  0  0  0  0  0  0  0
   -0.2942    5.2183    1.5765 H   0  0  0  0  0  0  0  0  0  0  0  0
    0.9485    5.7898    0.4523 H   0  0  0  0  0  0  0  0  0  0  0  0
    0.6811    3.6216    0.4750 C   0  0  2  0  0  0  0  0  0  0  0  0
    1.1085    3.3824    1.4752 H   0  0  0  0  0  0  0  0  0  0  0  0
   -3.1961    4.6515   -1.5107 C   0  0  0  0  0  0  0  0  0  0  0  0
   -3.5154    5.7097   -1.5959 H   0  0  0  0  0  0  0  0  0  0  0  0
   -4.1095    4.0368   -1.3829 H   0  0  0  0  0  0  0  0  0  0  0  0
   -2.7214    4.3578   -2.4696 H   0  0  0  0  0  0  0  0  0  0  0  0
    1.8501    3.4082   -0.5421 C   0  0  0  0  0  0  0  0  0  0  0  0
    2.0412    2.3128   -0.5475 H   0  0  0  0  0  0  0  0  0  0  0  0
    1.5217    3.7913   -1.9885 C   0  0  0  0  0  0  0  0  0  0  0  0
    0.5758    3.3275   -2.3336 H   0  0  0  0  0  0  0  0  0  0  0  0
    2.3302    3.4512   -2.6667 H   0  0  0  0  0  0  0  0  0  0  0  0
    1.4335    4.8898   -2.1128 H   0  0  0  0  0  0  0  0  0  0  0  0
    3.1387    4.0816   -0.0578 C   0  0  0  0  0  0  0  0  0  0  0  0
    3.4144    3.7493    0.9645 H   0  0  0  0  0  0  0  0  0  0  0  0
    3.0405    5.1867   -0.0360 H   0  0  0  0  0  0  0  0  0  0  0  0
    3.9858    3.8420   -0.7318 H   0  0  0  0  0  0  0  0  0  0  0  0
    3.4751   -2.4281   -2.0523 C   0  0  1  0  0  0  0  0  0  0  0  0
    3.5132   -1.9589   -3.0640 H   0  0  0  0  0  0  0  0  0  0  0  0
    4.7537   -2.0119   -1.2991 C   0  0  0  0  0  0  0  0  0  0  0  0
    5.6375   -2.2334   -1.9327 H   0  0  0  0  0  0  0  0  0  0  0  0
    4.8523   -2.6468   -0.3952 H   0  0  0  0  0  0  0  0  0  0  0  0
    4.7669   -0.5259   -0.9068 C   0  0  0  0  0  0  0  0  0  0  0  0
    4.7133    0.0831   -1.8352 H   0  0  0  0  0  0  0  0  0  0  0  0
    5.7338   -0.2684   -0.4310 H   0  0  0  0  0  0  0  0  0  0  0  0
    3.6072   -0.0877    0.0276 C   0  0  2  0  0  0  0  0  0  0  0  0
    3.4849    1.0107   -0.1066 H   0  0  0  0  0  0  0  0  0  0  0  0
    3.3822   -3.9459   -2.2417 C   0  0  0  0  0  0  0  0  0  0  0  0
    4.2780   -4.3320   -2.7684 H   0  0  0  0  0  0  0  0  0  0  0  0
    2.4942   -4.2319   -2.8404 H   0  0  0  0  0  0  0  0  0  0  0  0
    3.3107   -4.4617   -1.2621 H   0  0  0  0  0  0  0  0  0  0  0  0
    3.8527   -0.2862    1.5624 C   0  0  0  0  0  0  0  0  0  0  0  0
    2.9306    0.0567    2.0805 H   0  0  0  0  0  0  0  0  0  0  0  0
    4.0509   -1.7432    1.9940 C   0  0  0  0  0  0  0  0  0  0  0  0
    4.0150   -1.8164    3.0990 H   0  0  0  0  0  0  0  0  0  0  0  0
    5.0316   -2.1457    1.6665 H   0  0  0  0  0  0  0  0  0  0  0  0
    3.2546   -2.4033    1.5944 H   0  0  0  0  0  0  0  0  0  0  0  0
    4.9932    0.6090    2.0592 C   0  0  0  0  0  0  0  0  0  0  0  0
    5.0683    0.5613    3.1637 H   0  0  0  0  0  0  0  0  0  0  0  0
    4.8330    1.6712    1.7783 H   0  0  0  0  0  0  0  0  0  0  0  0
    5.9770    0.2976    1.6502 H   0  0  0  0  0  0  0  0  0  0  0  0
  1  5  1  0  0  0  0
  2  3  1  1  0  0  0
  2  5  1  0  0  0  0
  5  4  2  0  0  0  0
  6 10  1  0  0  0  0
  7  9  1  0  0  0  0
  7  6  1  0  0  0  0
  8  7  1  0  0  0  0
  9 11  2  0  0  0  0
 10  2  1  0  0  0  0
 11 10  1  0  0  0  0
 11 26  1  0  0  0  0
 12 15  1  0  0  0  0
 13 16  1  0  0  0  0
 13 12  1  0  0  0  0
 14 13  1  0  0  0  0
 15  2  1  0  0  0  0
 16 17  2  0  0  0  0
 17 15  1  0  0  0  0
 17 50  1  0  0  0  0
 18  9  1  0  0  0  0
 18 19  1  1  0  0  0
 20 21  1  0  0  0  0
 20 18  1  0  0  0  0
 20 23  1  0  0  0  0
 22 20  1  0  0  0  0
 23 24  1  0  0  0  0
 25 23  1  0  0  0  0
 26 23  1  0  0  0  0
 26 27  1  1  0  0  0
 28 30  1  0  0  0  0
 28 18  1  0  0  0  0
 29 28  1  0  0  0  0
 31 28  1  0  0  0  0
 32 38  1  0  0  0  0
 32 26  1  0  0  0  0
 33 32  1  0  0  0  0
 34 32  1  0  0  0  0
 35 34  1  0  0  0  0
 36 34  1  0  0  0  0
 37 34  1  0  0  0  0
 38 40  1  0  0  0  0
 38 39  1  0  0  0  0
 41 38  1  0  0  0  0
 42 43  1  6  0  0  0
 42 16  1  0  0  0  0
 42 44  1  0  0  0  0
 44 47  1  0  0  0  0
 44 46  1  0  0  0  0
 45 44  1  0  0  0  0
 47 49  1  0  0  0  0
 47 50  1  0  0  0  0
 48 47  1  0  0  0  0
 50 51  1  6  0  0  0
 50 56  1  0  0  0  0
 52 42  1  0  0  0  0
 52 55  1  0  0  0  0
 53 52  1  0  0  0  0
 54 52  1  0  0  0  0
 56 58  1  0  0  0  0
 56 62  1  0  0  0  0
 56 57  1  0  0  0  0
 58 59  1  0  0  0  0
 60 58  1  0  0  0  0
 61 58  1  0  0  0  0
 62 63  1  0  0  0  0
 64 62  1  0  0  0  0
 65 62  1  0  0  0  0
M  CHG  1   1  -1
M  END
