1,2,35
q = -1.0

 38 40  0  0  1  0  0  0  0  0999 V2000
   -1.4929    0.0934   -0.0746 N   0  0  0  0  0  0  0  0  0  0  0  0
    0.5931    0.7039   -1.4526 N   0  0  0  0  0  2  0  0  0  0  0  0
    0.6860    0.4154    1.5815 N   0  0  0  0  0  0  0  0  0  0  0  0
    1.4694    0.8282   -2.4766 C   0  0  0  0  0  3  0  0  0  0  0  0
    2.0311   -0.0846   -2.7247 H   0  0  0  0  0  0  0  0  0  0  0  0
    1.6349    2.0434   -3.1477 C   0  0  0  0  0  0  0  0  0  0  0  0
    2.3530    2.1047   -3.9777 H   0  0  0  0  0  0  0  0  0  0  0  0
    0.8792    3.1614   -2.7563 C   0  0  0  0  0  0  0  0  0  0  0  0
    0.9887    4.1231   -3.2784 H   0  0  0  0  0  0  0  0  0  0  0  0
   -0.0178    3.0321   -1.6834 C   0  0  0  0  0  0  0  0  0  0  0  0
   -0.6345    3.8668   -1.3237 H   0  0  0  0  0  0  0  0  0  0  0  0
   -0.1287    1.7905   -1.0599 C   0  0  0  0  0  0  0  0  0  0  0  0
   -0.9910    1.4912    0.1588 C   0  0  2  0  0  0  0  0  0  0  0  0
   -0.0482    1.5198    1.3833 C   0  0  0  0  0  0  0  0  0  0  0  0
    0.0990    2.6825    2.1574 C   0  0  0  0  0  0  0  0  0  0  0  0
   -0.5124    3.5735    1.9553 H   0  0  0  0  0  0  0  0  0  0  0  0
    1.0663    2.6757    3.1757 C   0  0  0  0  0  0  0  0  0  0  0  0
    1.2151    3.5674    3.8031 H   0  0  0  0  0  0  0  0  0  0  0  0
    1.8478    1.5276    3.3692 C   0  0  0  0  0  0  0  0  0  0  0  0
    2.6253    1.4915    4.1462 H   0  0  0  0  0  0  0  0  0  0  0  0
    1.6172    0.4119    2.5465 C   0  0  0  0  0  0  0  0  0  0  0  0
    2.2032   -0.5174    2.6501 H   0  0  0  0  0  0  0  0  0  0  0  0
   -2.4488    0.0053   -1.2516 C   0  0  0  0  0  0  0  0  0  0  0  0
   -1.9292   -0.4624   -2.1086 H   0  0  0  0  0  0  0  0  0  0  0  0
   -2.7766    1.0333   -1.5034 H   0  0  0  0  0  0  0  0  0  0  0  0
   -3.6227   -0.8470   -0.7583 C   0  0  0  0  0  0  0  0  0  0  0  0
   -4.5660   -0.5864   -1.2755 H   0  0  0  0  0  0  0  0  0  0  0  0
   -3.4161   -1.9181   -0.9574 H   0  0  0  0  0  0  0  0  0  0  0  0
   -3.6532   -0.5889    0.7523 C   0  0  0  0  0  0  0  0  0  0  0  0
   -4.1650   -1.3765    1.3376 H   0  0  0  0  0  0  0  0  0  0  0  0
   -4.1248    0.3907    0.9806 H   0  0  0  0  0  0  0  0  0  0  0  0
   -2.1622   -0.5779    1.0882 C   0  0  1  0  0  0  0  0  0  0  0  0
   -1.9170   -0.0502    2.0306 H   0  0  0  0  0  0  0  0  0  0  0  0
   -1.6129   -2.0318    1.2113 C   0  0  0  0  0  0  0  0  0  0  0  0
   -0.5560   -2.2924    0.4778 O   0  5  0  0  0  0  0  0  0  0  0  0
   -2.1804   -2.8334    1.9389 O   0  0  0  0  0  0  0  0  0  0  0  0
   -2.0075    2.4526    0.2566 O   0  0  0  0  0  0  0  0  0  0  0  0
   -2.4122    2.3707    1.1421 H   0  0  0  0  0  0  0  0  0  0  0  0
  1 13  1  0  0  0  0
  1 32  1  0  0  0  0
  2 12  1  0  0  0  0
  3 21  1  0  0  0  0
  4  2  1  0  0  0  0
  5  4  1  0  0  0  0
  6  8  2  0  0  0  0
  6  4  1  0  0  0  0
  7  6  1  0  0  0  0
  8 10  1  0  0  0  0
  9  8  1  0  0  0  0
 10 11  1  0  0  0  0
 10 12  2  0  0  0  0
 12 13  1  0  0  0  0
 13 37  1  1  0  0  0
 13 14  1  0  0  0  0
 14  3  2  0  0  0  0
 14 15  1  0  0  0  0
 15 17  2  0  0  0  0
 16 15  1  0  0  0  0
 17 19  1  0  0  0  0
 17 18  1  0  0  0  0
 19 20  1  0  0  0  0
 21 22  1  0  0  0  0
 21 19  2  0  0  0  0
 23 26  1  0  0  0  0
 23  1  1  0  0  0  0
 24 23  1  0  0  0  0
 25 23  1  0  0  0  0
 26 29  1  0  0  0  0
 27 26  1  0  0  0  0
 28 26  1  0  0  0  0
 29 31  1  0  0  0  0
 29 32  1  0  0  0  0
 29 30  1  0  0  0  0
 32 34  1  0  0  0  0
 32 33  1  1  0  0  0
 34 36  2  0  0  0  0
 35 34  1  0  0  0  0
 37 38  1  0  0  0  0
M  CHG  1  35  -1
M  END
