2,4,22
q = -1.0

 23 24  0  0  0  0  0  0  0  0999 V2000
   -5.4746    3.6240    0.4681 Cl  0  0  0  0  0  0  0  0  0  0  0  0
   -1.5244   -0.3556   -1.2533 N   0  0  0  0  0  2  0  0  0  0  0  0
   -1.5299   -1.1278   -2.2921 N   0  0  0  0  0  0  0  0  0  0  0  0
    0.5813   -1.7642   -1.3718 N   0  0  0  0  0  2  0  0  0  0  0  0
   -0.3826   -1.8934   -2.3595 C   0  0  0  0  0  0  0  0  0  0  0  0
   -3.6915    0.7704   -1.6846 C   0  0  0  0  0  0  0  0  0  0  0  0
   -3.8605    0.1893   -2.6016 H   0  0  0  0  0  0  0  0  0  0  0  0
   -4.3175    2.4503   -0.0438 C   0  0  0  0  0  0  0  0  0  0  0  0
   -3.1629    2.2540    0.7110 C   0  0  0  0  0  0  0  0  0  0  0  0
   -2.9689    2.8321    1.6236 H   0  0  0  0  0  0  0  0  0  0  0  0
   -2.5057    0.5451   -0.9334 C   0  0  0  0  0  0  0  0  0  0  0  0
   -0.1833   -2.7935   -3.4250 C   0  0  0  0  0  0  0  0  0  0  0  0
   -0.9665   -2.8689   -4.1911 H   0  0  0  0  0  0  0  0  0  0  0  0
    0.9935   -3.5457   -3.4773 C   0  0  0  0  0  0  0  0  0  0  0  0
    1.1608   -4.2488   -4.3064 H   0  0  0  0  0  0  0  0  0  0  0  0
    1.7145   -2.4881   -1.4292 C   0  0  0  0  0  0  0  0  0  0  0  0
    2.4386   -2.3276   -0.6166 H   0  0  0  0  0  0  0  0  0  0  0  0
    1.9598   -3.3937   -2.4684 C   0  0  0  0  0  0  0  0  0  0  0  0
    2.8981   -3.9645   -2.4790 H   0  0  0  0  0  0  0  0  0  0  0  0
   -4.5953    1.7165   -1.2435 C   0  0  0  0  0  0  0  0  0  0  0  0
   -5.5225    1.9236   -1.7942 H   0  0  0  0  0  0  0  0  0  0  0  0
   -1.1132    1.0685    0.9560 O   0  5  0  0  0  0  0  0  0  0  0  0
   -2.2138    1.2884    0.2824 C   0  0  0  0  0  0  0  0  0  0  0  0
  2 11  1  0  0  0  0
  3  2  1  0  0  0  0
  5  3  2  0  0  0  0
  5  4  1  0  0  0  0
  6 20  2  0  0  0  0
  6 11  1  0  0  0  0
  7  6  1  0  0  0  0
  8  1  1  0  0  0  0
  8  9  2  0  0  0  0
  9 10  1  0  0  0  0
 11 23  2  0  0  0  0
 12  5  1  0  0  0  0
 13 12  1  0  0  0  0
 14 12  2  0  0  0  0
 14 18  1  0  0  0  0
 15 14  1  0  0  0  0
 16  4  1  0  0  0  0
 16 17  1  0  0  0  0
 18 16  2  0  0  0  0
 19 18  1  0  0  0  0
 20  8  1  0  0  0  0
 21 20  1  0  0  0  0
 23  9  1  0  0  0  0
 23 22  1  0  0  0  0
M  CHG  1  22  -1
M  END
