11,13,16
q = -1.0, confidence = 0.004

 17 16  0  0  0  0  0  0  0  0999 V2000
    2.3227   -1.1837    0.2429 C   0  0  0  0  0  0  0  0  0  0  0  0
    2.3022   -0.5176   -1.1579 C   0  0  0  0  0  0  0  0  0  0  0  0
    3.3224   -0.1658   -1.4175 H   0  0  0  0  0  0  0  0  0  0  0  0
    2.0055   -1.2952   -1.8908 H   0  0  0  0  0  0  0  0  0  0  0  0
    1.7959    1.8892   -0.7362 C   0  0  0  0  0  0  0  0  0  0  0  0
    1.0785    2.6633   -1.0789 H   0  0  0  0  0  0  0  0  0  0  0  0
    2.7928    2.1299   -1.1681 H   0  0  0  0  0  0  0  0  0  0  0  0
    1.8835    1.8934    0.7874 C   0  0  0  0  0  0  0  0  0  0  0  0
    2.6482    1.1686    1.1272 H   0  0  0  0  0  0  0  0  0  0  0  0
    2.2078    2.8947    1.1402 H   0  0  0  0  0  0  0  0  0  0  0  0
    1.3029    0.5792   -1.2321 N   0  0  0  0  0  0  0  0  0  0  0  0
    0.9906    0.6979   -2.2027 H   0  0  0  0  0  0  0  0  0  0  0  0
    0.5761    1.4979    1.3731 N   0  0  0  0  0  0  0  0  0  0  0  0
   -0.0252    2.3157    1.5373 H   0  0  0  0  0  0  0  0  0  0  0  0
    0.7209    1.0385    2.2832 H   0  0  0  0  0  0  0  0  0  0  0  0
    1.1676   -1.1358    0.8633 O   0  5  0  0  0  0  0  0  0  0  0  0
    3.3508   -1.6936    0.6643 O   0  0  0  0  0  0  0  0  0  0  0  0
  1 17  2  0  0  0  0
  1 16  1  0  0  0  0
  2  1  1  0  0  0  0
  3  2  1  0  0  0  0
  4  2  1  0  0  0  0
  5  8  1  0  0  0  0
  6  5  1  0  0  0  0
  7  5  1  0  0  0  0
  8  9  1  0  0  0  0
  8 10  1  0  0  0  0
  8 13  1  0  0  0  0
 11  2  1  0  0  0  0
 11  5  1  0  0  0  0
 12 11  1  0  0  0  0
 13 14  1  0  0  0  0
 13 15  1  0  0  0  0
M  CHG  1  16  -1
M  END
