1,4,6
q = -1.0

 34 35  0  0  1  0  0  0  0  0999 V2000
   -0.4059   -1.7681   -0.0004 O   0  5  0  0  0  0  0  0  0  0  0  0
    4.1893   -0.6893    0.0006 O   0  0  0  0  0  0  0  0  0  0  0  0
    3.7881   -1.6376    0.0005 H   0  0  0  0  0  0  0  0  0  0  0  0
    0.3905    1.0019   -0.0002 N   0  0  0  0  0  2  0  0  0  0  0  0
    0.9931    2.2005   -0.0003 N   0  0  0  0  0  2  0  0  0  0  0  0
    3.0935    0.0987    0.0002 N   0  0  0  0  0  2  0  0  0  0  0  0
   -1.6065   -1.2954   -0.0002 C   0  0  0  0  0  0  0  0  0  0  0  0
   -2.6675   -2.2731   -0.0000 C   0  0  0  0  0  0  0  0  0  0  0  0
   -2.3616   -3.3285   -0.0001 H   0  0  0  0  0  0  0  0  0  0  0  0
   -3.9825   -1.8905    0.0001 C   0  0  0  0  0  0  0  0  0  0  0  0
   -4.7772   -2.6533    0.0002 H   0  0  0  0  0  0  0  0  0  0  0  0
   -4.3706   -0.5065    0.0001 C   0  0  0  0  0  0  0  0  0  0  0  0
   -5.7431   -0.1459    0.0003 C   0  0  0  0  0  0  0  0  0  0  0  0
   -6.4952   -0.9501    0.0003 H   0  0  0  0  0  0  0  0  0  0  0  0
   -6.1361    1.1881    0.0003 C   0  0  0  0  0  0  0  0  0  0  0  0
   -7.2027    1.4571    0.0004 H   0  0  0  0  0  0  0  0  0  0  0  0
   -5.1461    2.1937    0.0002 C   0  0  0  0  0  0  0  0  0  0  0  0
   -5.4399    3.2543    0.0002 H   0  0  0  0  0  0  0  0  0  0  0  0
   -3.7921    1.8607    0.0001 C   0  0  0  0  0  0  0  0  0  0  0  0
   -3.0621    2.6815    0.0000 H   0  0  0  0  0  0  0  0  0  0  0  0
   -3.3557    0.5094    0.0000 C   0  0  1  0  0  3  0  0  0  0  0  0
   -1.9407    0.1100   -0.0001 C   0  0  0  0  0  0  0  0  0  0  0  0
   -0.9512    1.1107   -0.0003 C   0  0  0  0  0  0  0  0  0  0  0  0
   -1.2705    2.1630   -0.0004 H   0  0  0  0  0  0  0  0  0  0  0  0
    2.2932    2.3881   -0.0002 C   0  0  0  0  0  0  0  0  0  0  0  0
    2.6851    3.8491   -0.0002 C   0  0  0  0  0  0  0  0  0  0  0  0
    1.7646    4.4585   -0.0005 H   0  0  0  0  0  0  0  0  0  0  0  0
    3.2856    4.1160   -0.8944 H   0  0  0  0  0  0  0  0  0  0  0  0
    3.2851    4.1162    0.8942 H   0  0  0  0  0  0  0  0  0  0  0  0
    3.3609    1.3933    0.0001 C   0  0  0  0  0  0  0  0  0  0  0  0
    4.8113    1.7895    0.0004 C   0  0  0  0  0  0  0  0  0  0  0  0
    5.3203    1.3534    0.8843 H   0  0  0  0  0  0  0  0  0  0  0  0
    4.9536    2.8808    0.0003 H   0  0  0  0  0  0  0  0  0  0  0  0
    5.3208    1.3532   -0.8830 H   0  0  0  0  0  0  0  0  0  0  0  0
  1  7  1  0  0  0  0
  3  2  1  0  0  0  0
  5  4  1  0  0  0  0
  5 25  1  0  0  0  0
  6  2  1  0  0  0  0
  7 22  1  0  0  0  0
  7  8  2  0  0  0  0
  8 10  1  0  0  0  0
  9  8  1  0  0  0  0
 10 12  2  0  0  0  0
 10 11  1  0  0  0  0
 12 13  1  0  0  0  0
 13 15  2  0  0  0  0
 13 14  1  0  0  0  0
 15 16  1  0  0  0  0
 17 18  1  0  0  0  0
 17 15  1  0  0  0  0
 19 17  2  0  0  0  0
 20 19  1  0  0  0  0
 21 22  1  1  0  0  0
 21 19  1  0  0  0  0
 21 12  1  0  0  0  0
 23  4  1  0  0  0  0
 23 22  2  0  0  0  0
 24 23  1  0  0  0  0
 25 30  2  0  0  0  0
 26 25  1  0  0  0  0
 26 29  1  0  0  0  0
 27 26  1  0  0  0  0
 28 26  1  0  0  0  0
 30  6  1  0  0  0  0
 30 31  1  0  0  0  0
 31 32  1  0  0  0  0
 33 31  1  0  0  0  0
 34 31  1  0  0  0  0
M  CHG  1   1  -1
M  END
