1,2,5
q = -2.0, confidence = 0.84

 31 31  0  0  0  0  0  0  0  0999 V2000
    2.3341   -0.3300    1.0462 N   0  0  0  0  0  2  0  0  0  0  0  0
   -0.0167   -1.0508    1.0604 N   0  0  0  0  0  2  0  0  0  0  0  0
   -1.3583   -1.1899    0.9338 N   0  0  0  0  0  0  0  0  0  0  0  0
    3.5252    0.1335    0.8388 O   0  0  0  0  0  1  0  0  0  0  0  0
   -1.0864    0.9553    0.1109 O   0  5  0  0  0  0  0  0  0  0  0  0
   -7.3892    0.4421   -0.6190 O   0  0  0  0  0  0  0  0  0  0  0  0
    3.3406   -2.3417    2.0354 C   0  0  0  0  0  0  0  0  0  0  0  0
    2.1626   -1.5347    1.6018 C   0  0  0  0  0  0  0  0  0  0  0  0
    0.7728   -1.9394    1.6522 C   0  0  0  0  0  0  0  0  0  0  0  0
    0.2666   -3.2143    2.2402 C   0  0  0  0  0  0  0  0  0  0  0  0
   -1.8458   -0.0654    0.4087 C   0  0  0  0  0  0  0  0  0  0  0  0
   -3.2963    0.0338    0.1552 C   0  0  0  0  0  0  0  0  0  0  0  0
   -3.8442    1.2211   -0.3833 C   0  0  0  0  0  0  0  0  0  0  0  0
   -5.2110    1.3285   -0.6302 C   0  0  0  0  0  0  0  0  0  0  0  0
   -6.0724    0.2450   -0.3443 C   0  0  0  0  0  0  0  0  0  0  0  0
   -5.5378   -0.9467    0.1942 C   0  0  0  0  0  0  0  0  0  0  0  0
   -4.1633   -1.0416    0.4388 C   0  0  0  0  0  0  0  0  0  0  0  0
   -8.2993   -0.6092   -0.3548 C   0  0  0  0  0  0  0  0  0  0  0  0
    3.0471   -3.3721    2.3043 H   0  0  0  0  0  0  0  0  0  0  0  0
    3.8505   -1.8728    2.9040 H   0  0  0  0  0  0  0  0  0  0  0  0
    4.0866   -2.3779    1.2160 H   0  0  0  0  0  0  0  0  0  0  0  0
   -0.8290   -3.1496    2.3692 H   0  0  0  0  0  0  0  0  0  0  0  0
    0.7467   -3.4274    3.2158 H   0  0  0  0  0  0  0  0  0  0  0  0
    0.4846   -4.0641    1.5543 H   0  0  0  0  0  0  0  0  0  0  0  0
   -3.1677    2.0588   -0.6027 H   0  0  0  0  0  0  0  0  0  0  0  0
   -5.6510    2.2453   -1.0486 H   0  0  0  0  0  0  0  0  0  0  0  0
   -6.1855   -1.8029    0.4251 H   0  0  0  0  0  0  0  0  0  0  0  0
   -3.7352   -1.9632    0.8577 H   0  0  0  0  0  0  0  0  0  0  0  0
   -8.0629   -1.5215   -0.9472 H   0  0  0  0  0  0  0  0  0  0  0  0
   -9.2989   -0.2391   -0.6487 H   0  0  0  0  0  0  0  0  0  0  0  0
   -8.3175   -0.8812    0.7244 H   0  0  0  0  0  0  0  0  0  0  0  0
  1  8  1  0  0  0  0
  2  9  1  0  0  0  0
  3  2  1  0  0  0  0
  4  1  1  0  0  0  0
  5 11  1  0  0  0  0
  6 18  1  0  0  0  0
  6 15  1  0  0  0  0
  7 19  1  0  0  0  0
  7 20  1  0  0  0  0
  8  9  2  0  0  0  0
  8  7  1  0  0  0  0
  9 10  1  0  0  0  0
 10 22  1  0  0  0  0
 10 23  1  0  0  0  0
 11  3  2  0  0  0  0
 12 11  1  0  0  0  0
 12 17  1  0  0  0  0
 13 12  2  0  0  0  0
 14 13  1  0  0  0  0
 14 15  2  0  0  0  0
 15 16  1  0  0  0  0
 16 27  1  0  0  0  0
 16 17  2  0  0  0  0
 17 28  1  0  0  0  0
 18 31  1  0  0  0  0
 21  7  1  0  0  0  0
 24 10  1  0  0  0  0
 25 13  1  0  0  0  0
 26 14  1  0  0  0  0
 29 18  1  0  0  0  0
 30 18  1  0  0  0  0
M  CHG  1   5  -1
M  END
