1,4,15
q = -1.0, confidence = 0.024

 37 39  0  0  1  0  0  0  0  0999 V2000
   -1.2745    1.1853    0.9124 O   0  0  0  0  0  1  0  0  0  0  0  0
   -2.4597    1.1587    0.4741 C   0  0  2  0  0  3  0  0  0  0  0  0
   -2.8790    0.1638   -0.5205 C   0  0  1  0  0  3  0  0  0  0  0  0
   -1.8335   -0.5066   -1.0305 N   0  0  0  0  0  2  0  0  0  0  0  0
   -1.9613   -1.4433   -1.9276 N   0  0  0  0  0  0  0  0  0  0  0  0
   -0.7542   -2.0589   -2.2277 C   0  0  0  0  0  0  0  0  0  0  0  0
   -0.7298   -3.0259   -3.2647 C   0  0  0  0  0  0  0  0  0  0  0  0
   -1.6685   -3.2415   -3.7935 H   0  0  0  0  0  0  0  0  0  0  0  0
    0.4721   -3.6607   -3.5727 C   0  0  0  0  0  0  0  0  0  0  0  0
    0.5096   -4.4122   -4.3762 H   0  0  0  0  0  0  0  0  0  0  0  0
    1.6364   -3.3352   -2.8472 C   0  0  0  0  0  0  0  0  0  0  0  0
    2.6008   -3.8189   -3.0557 H   0  0  0  0  0  0  0  0  0  0  0  0
    1.5321   -2.3759   -1.8332 C   0  0  0  0  0  0  0  0  0  0  0  0
    2.4066   -2.0923   -1.2217 H   0  0  0  0  0  0  0  0  0  0  0  0
    0.3786   -1.7596   -1.5347 N   0  0  0  0  0  2  0  0  0  0  0  0
   -3.4023    2.1905    0.9981 C   0  0  0  0  0  0  0  0  0  0  0  0
   -3.1902    2.6775    2.3068 C   0  0  0  0  0  0  0  0  0  0  0  0
   -2.3613    2.2538    2.8921 H   0  0  0  0  0  0  0  0  0  0  0  0
   -4.0170    3.6752    2.8361 C   0  0  0  0  0  0  0  0  0  0  0  0
   -3.8530    4.0365    3.8628 H   0  0  0  0  0  0  0  0  0  0  0  0
   -5.0488    4.2210    2.0536 C   0  0  0  0  0  0  0  0  0  0  0  0
   -5.6960    5.0100    2.4665 H   0  0  0  0  0  0  0  0  0  0  0  0
   -5.2467    3.7656    0.7398 C   0  0  0  0  0  0  0  0  0  0  0  0
   -6.0409    4.2046    0.1172 H   0  0  0  0  0  0  0  0  0  0  0  0
   -4.4352    2.7515    0.2147 C   0  0  0  0  0  0  0  0  0  0  0  0
   -4.5922    2.4033   -0.8154 H   0  0  0  0  0  0  0  0  0  0  0  0
   -4.2868   -0.1576   -0.8453 C   0  0  0  0  0  0  0  0  0  0  0  0
   -5.2338   -0.3177    0.1940 C   0  0  0  0  0  0  0  0  0  0  0  0
   -4.9143   -0.1870    1.2389 H   0  0  0  0  0  0  0  0  0  0  0  0
   -6.5677   -0.6361   -0.0916 C   0  0  0  0  0  0  0  0  0  0  0  0
   -7.2885   -0.7547    0.7318 H   0  0  0  0  0  0  0  0  0  0  0  0
   -6.9822   -0.8061   -1.4224 C   0  0  0  0  0  0  0  0  0  0  0  0
   -8.0303   -1.0547   -1.6487 H   0  0  0  0  0  0  0  0  0  0  0  0
   -6.0487   -0.6648   -2.4623 C   0  0  0  0  0  0  0  0  0  0  0  0
   -6.3651   -0.8029   -3.5077 H   0  0  0  0  0  0  0  0  0  0  0  0
   -4.7121   -0.3518   -2.1800 C   0  0  0  0  0  0  0  0  0  0  0  0
   -3.9820   -0.2559   -2.9939 H   0  0  0  0  0  0  0  0  0  0  0  0
  2  1  1  6  0  0  0
  2 16  1  0  0  0  0
  3  4  1  1  0  0  0
  3  2  1  0  0  0  0
  5  4  1  0  0  0  0
  6  5  2  0  0  0  0
  6 15  1  0  0  0  0
  7  6  1  0  0  0  0
  8  7  1  0  0  0  0
  9  7  2  0  0  0  0
  9 11  1  0  0  0  0
 10  9  1  0  0  0  0
 11 13  2  0  0  0  0
 12 11  1  0  0  0  0
 13 15  1  0  0  0  0
 13 14  1  0  0  0  0
 16 17  1  0  0  0  0
 17 19  2  0  0  0  0
 17 18  1  0  0  0  0
 19 20  1  0  0  0  0
 21 22  1  0  0  0  0
 21 19  1  0  0  0  0
 23 21  2  0  0  0  0
 24 23  1  0  0  0  0
 25 23  1  0  0  0  0
 25 16  2  0  0  0  0
 26 25  1  0  0  0  0
 27  3  1  0  0  0  0
 27 28  1  0  0  0  0
 28 29  1  0  0  0  0
 30 28  2  0  0  0  0
 30 31  1  0  0  0  0
 32 30  1  0  0  0  0
 33 32  1  0  0  0  0
 34 36  1  0  0  0  0
 34 32  2  0  0  0  0
 35 34  1  0  0  0  0
 36 27  2  0  0  0  0
 37 36  1  0  0  0  0
M  END
