4,5,6
q = -1.0, confidence = 0.0

 33 34  0  0  1  0  0  0  0  0999 V2000
   -3.6602    2.7745   -0.0228 F   0  0  0  0  0  0  0  0  0  0  0  0
   -2.8057    4.5681    0.8841 F   0  0  0  0  0  0  0  0  0  0  0  0
   -2.7694    4.3162   -1.2854 F   0  0  0  0  0  0  0  0  0  0  0  0
   -1.1704    2.0340   -0.9493 O   0  5  0  0  0  0  0  0  0  0  0  0
    1.4229    1.8971    0.2132 N   0  0  0  0  0  2  0  0  0  0  0  0
    1.6961   -0.3472   -1.2751 N   0  0  0  0  0  2  0  0  0  0  0  0
    0.9859    2.8745    1.0225 C   0  0  2  0  0  3  0  0  0  0  0  0
    1.8581    3.5527    2.0527 C   0  0  0  0  0  0  0  0  0  0  0  0
    2.5796    2.8438    2.5029 H   0  0  0  0  0  0  0  0  0  0  0  0
    1.2288    3.9831    2.8534 H   0  0  0  0  0  0  0  0  0  0  0  0
    2.4357    4.3907    1.6081 H   0  0  0  0  0  0  0  0  0  0  0  0
   -0.3642    3.3116    0.9386 C   0  0  0  0  0  0  0  0  0  0  0  0
   -0.6904    4.0778    1.6521 H   0  0  0  0  0  0  0  0  0  0  0  0
   -1.2927    2.9285   -0.0485 C   0  0  0  0  0  0  0  0  0  0  0  0
   -2.6482    3.6625   -0.1102 C   0  0  0  0  0  0  0  0  0  0  0  0
    2.7169    1.5225   -0.0949 C   0  0  0  0  0  0  0  0  0  0  0  0
    3.9090    2.2152    0.1943 C   0  0  0  0  0  0  0  0  0  0  0  0
    3.8698    3.1724    0.7224 H   0  0  0  0  0  0  0  0  0  0  0  0
    5.1738    1.7202   -0.1951 C   0  0  0  0  0  0  0  0  0  0  0  0
    6.0707    2.3016    0.0662 H   0  0  0  0  0  0  0  0  0  0  0  0
    5.3011    0.5226   -0.8842 C   0  0  0  0  0  3  0  0  0  0  0  0
    6.2874    0.1261   -1.1663 H   0  0  0  0  0  0  0  0  0  0  0  0
    4.1313   -0.2002   -1.2445 C   0  0  0  0  0  0  0  0  0  0  0  0
    2.8393    0.3039   -0.8820 C   0  0  0  0  0  0  0  0  0  0  0  0
    1.7423   -1.4999   -1.9575 C   0  0  0  0  0  0  0  0  0  0  0  0
    2.9986   -2.0739   -2.3069 C   0  0  0  0  0  0  0  0  0  0  0  0
    3.0129   -3.0247   -2.8581 H   0  0  0  0  0  0  0  0  0  0  0  0
    4.1705   -1.4284   -1.9644 C   0  0  0  0  0  0  0  0  0  0  0  0
    5.1481   -1.8514   -2.2434 H   0  0  0  0  0  0  0  0  0  0  0  0
    0.4647   -2.1845   -2.3248 C   0  0  0  0  0  0  0  0  0  0  0  0
    0.2681   -3.0348   -1.6346 H   0  0  0  0  0  0  0  0  0  0  0  0
    0.5123   -2.5932   -3.3531 H   0  0  0  0  0  0  0  0  0  0  0  0
   -0.4010   -1.5031   -2.2471 H   0  0  0  0  0  0  0  0  0  0  0  0
  3 15  1  0  0  0  0
  4 14  1  0  0  0  0
  6 24  1  0  0  0  0
  7  5  1  1  0  0  0
  7  8  1  0  0  0  0
  8  9  1  0  0  0  0
  8 10  1  0  0  0  0
 11  8  1  0  0  0  0
 12  7  1  0  0  0  0
 12 13  1  0  0  0  0
 14 12  2  0  0  0  0
 15 14  1  0  0  0  0
 15  1  1  0  0  0  0
 15  2  1  0  0  0  0
 16 17  1  0  0  0  0
 16  5  1  0  0  0  0
 17 18  1  0  0  0  0
 19 20  1  0  0  0  0
 19 17  2  0  0  0  0
 21 19  1  0  0  0  0
 22 21  1  0  0  0  0
 23 21  1  0  0  0  0
 23 24  1  0  0  0  0
 24 16  2  0  0  0  0
 25  6  1  0  0  0  0
 26 28  1  0  0  0  0
 26 25  2  0  0  0  0
 27 26  1  0  0  0  0
 28 23  2  0  0  0  0
 29 28  1  0  0  0  0
 30 33  1  0  0  0  0
 30 25  1  0  0  0  0
 30 31  1  0  0  0  0
 32 30  1  0  0  0  0
M  CHG  1   4  -1
M  END
