4,5,6
q = -1.0

 42 43  0  0  1  0  0  0  0  0999 V2000
   -3.9557    1.5267    1.7288 F   0  0  0  0  0  0  0  0  0  0  0  0
   -4.2948    2.8490    0.0391 F   0  0  0  0  0  0  0  0  0  0  0  0
   -4.7514    0.7375   -0.1591 F   0  0  0  0  0  0  0  0  0  0  0  0
    0.2372    1.5089   -1.5568 O   0  5  0  0  0  0  0  0  0  0  0  0
   -0.8573   -2.0306   -1.2969 N   0  0  0  0  0  2  0  0  0  0  0  0
   -1.9246    0.0927   -0.0685 N   0  0  0  0  0  2  0  0  0  0  0  0
    1.3484    3.7206   -2.4930 C   0  0  0  0  0  0  0  0  0  0  0  0
    1.7572    4.7136   -2.7670 H   0  0  0  0  0  0  0  0  0  0  0  0
    1.1560    3.1523   -3.4238 H   0  0  0  0  0  0  0  0  0  0  0  0
    2.1172    3.1663   -1.9218 H   0  0  0  0  0  0  0  0  0  0  0  0
    0.3882    4.6724   -0.3702 C   0  0  0  0  0  0  0  0  0  0  0  0
    0.8319    5.6580   -0.6209 H   0  0  0  0  0  0  0  0  0  0  0  0
    1.1177    4.1143    0.2506 H   0  0  0  0  0  0  0  0  0  0  0  0
   -0.5169    4.8508    0.2435 H   0  0  0  0  0  0  0  0  0  0  0  0
   -0.9778    4.6787   -2.5032 C   0  0  0  0  0  0  0  0  0  0  0  0
   -0.5514    5.6540   -2.8153 H   0  0  0  0  0  0  0  0  0  0  0  0
   -1.9052    4.8888   -1.9349 H   0  0  0  0  0  0  0  0  0  0  0  0
   -1.2571    4.1204   -3.4195 H   0  0  0  0  0  0  0  0  0  0  0  0
    0.0621    3.8997   -1.6710 C   0  0  0  0  0  0  0  0  0  0  0  0
   -0.4869    2.5179   -1.2574 C   0  0  0  0  0  0  0  0  0  0  0  0
   -1.7353    2.4595   -0.5746 C   0  0  0  0  0  0  0  0  0  0  0  0
   -2.2558    3.4154   -0.4615 H   0  0  0  0  0  0  0  0  0  0  0  0
   -2.4321    1.3274   -0.1061 C   0  0  1  0  0  3  0  0  0  0  0  0
   -3.8690    1.6134    0.3704 C   0  0  0  0  0  0  0  0  0  0  0  0
   -2.4927   -1.1369    0.2515 C   0  0  0  0  0  0  0  0  0  0  0  0
   -3.4746   -1.4209    1.2126 C   0  0  0  0  0  0  0  0  0  0  0  0
   -3.8737   -0.6153    1.8366 H   0  0  0  0  0  0  0  0  0  0  0  0
   -3.9548   -2.7364    1.4111 C   0  0  0  0  0  0  0  0  0  0  0  0
   -4.7296   -2.9025    2.1745 H   0  0  0  0  0  0  0  0  0  0  0  0
   -3.4766   -3.8066    0.6677 C   0  0  0  0  0  0  0  0  0  0  0  0
   -3.8691   -4.8239    0.8123 H   0  0  0  0  0  0  0  0  0  0  0  0
   -2.4398   -3.5873   -0.2799 C   0  0  0  0  0  0  0  0  0  0  0  0
   -1.8568   -4.6219   -1.0650 C   0  0  0  0  0  0  0  0  0  0  0  0
   -2.2351   -5.6506   -0.9581 H   0  0  0  0  0  0  0  0  0  0  0  0
   -0.8259   -4.3374   -1.9425 C   0  0  0  0  0  0  0  0  0  0  0  0
   -0.3723   -5.1263   -2.5592 H   0  0  0  0  0  0  0  0  0  0  0  0
   -0.3171   -3.0097   -2.0296 C   0  0  0  0  0  0  0  0  0  0  0  0
   -1.9184   -2.2644   -0.4615 C   0  0  2  0  0  3  0  0  0  0  0  0
    0.8010   -2.6658   -2.9674 C   0  0  0  0  0  0  0  0  0  0  0  0
    1.3044   -1.7300   -2.6644 H   0  0  0  0  0  0  0  0  0  0  0  0
    0.4023   -2.5266   -3.9953 H   0  0  0  0  0  0  0  0  0  0  0  0
    1.5589   -3.4707   -3.0081 H   0  0  0  0  0  0  0  0  0  0  0  0
  2 24  1  0  0  0  0
  3 24  1  0  0  0  0
  4 20  1  0  0  0  0
  6 25  1  0  0  0  0
  7 10  1  0  0  0  0
  7 19  1  0  0  0  0
  8  7  1  0  0  0  0
  9  7  1  0  0  0  0
 11 14  1  0  0  0  0
 11 13  1  0  0  0  0
 12 11  1  0  0  0  0
 15 17  1  0  0  0  0
 15 19  1  0  0  0  0
 16 15  1  0  0  0  0
 18 15  1  0  0  0  0
 19 20  1  0  0  0  0
 19 11  1  0  0  0  0
 20 21  2  0  0  0  0
 21 22  1  0  0  0  0
 23 21  1  6  0  0  0
 23  6  1  0  0  0  0
 23 24  1  0  0  0  0
 24  1  1  0  0  0  0
 25 26  2  0  0  0  0
 26 28  1  0  0  0  0
 26 27  1  0  0  0  0
 28 29  1  0  0  0  0
 30 31  1  0  0  0  0
 30 28  2  0  0  0  0
 32 30  1  0  0  0  0
 33 34  1  0  0  0  0
 33 32  2  0  0  0  0
 35 33  1  0  0  0  0
 36 35  1  0  0  0  0
 37 35  2  0  0  0  0
 37  5  1  0  0  0  0
 38  5  1  1  0  0  0
 38 32  1  0  0  0  0
 38 25  1  0  0  0  0
 39 40  1  0  0  0  0
 39 37  1  0  0  0  0
 41 39  1  0  0  0  0
 42 39  1  0  0  0  0
M  CHG  1   4  -1
M  END
