1,2,3
q = -1.0

 42 43  0  0  1  0  0  0  0  0999 V2000
   -1.1511    0.9375   -1.6011 O   0  0  0  0  0  1  0  0  0  0  0  0
    1.2487    0.9845   -0.1399 N   0  0  0  0  0  2  0  0  0  0  0  0
    1.6500   -1.5273   -0.9894 N   0  0  0  0  0  2  0  0  0  0  0  0
   -1.3480    2.0653   -1.0526 C   0  0  1  0  0  3  0  0  0  0  0  0
   -0.5418    2.5868    0.0146 C   0  0  0  0  0  0  0  0  0  0  0  0
   -0.9041    3.4797    0.5358 H   0  0  0  0  0  0  0  0  0  0  0  0
    0.7194    2.1040    0.3820 C   0  0  0  0  0  0  0  0  0  0  0  0
    2.5622    0.6099   -0.3133 C   0  0  0  0  0  0  0  0  0  0  0  0
    2.7571   -0.7623   -0.7479 C   0  0  2  0  0  3  0  0  0  0  0  0
    1.7545   -2.8210   -1.3238 C   0  0  0  0  0  0  0  0  0  0  0  0
    3.0357   -3.4263   -1.4544 C   0  0  0  0  0  0  0  0  0  0  0  0
    3.0986   -4.4925   -1.7147 H   0  0  0  0  0  0  0  0  0  0  0  0
    4.1784   -2.6656   -1.2776 C   0  0  0  0  0  0  0  0  0  0  0  0
    5.1764   -3.1140   -1.4033 H   0  0  0  0  0  0  0  0  0  0  0  0
    4.0796   -1.2903   -0.9264 C   0  0  0  0  0  0  0  0  0  0  0  0
    5.2064   -0.4421   -0.7470 C   0  0  0  0  0  0  0  0  0  0  0  0
    6.2181   -0.8524   -0.8802 H   0  0  0  0  0  0  0  0  0  0  0  0
    5.0038    0.8929   -0.4208 C   0  0  0  0  0  0  0  0  0  0  0  0
    5.8674    1.5666   -0.3122 H   0  0  0  0  0  0  0  0  0  0  0  0
    3.7095    1.4187   -0.2116 C   0  0  0  0  0  0  0  0  0  0  0  0
    3.6064    2.4828    0.0266 H   0  0  0  0  0  0  0  0  0  0  0  0
   -2.5043    2.9394   -1.5857 C   0  0  0  0  0  0  0  0  0  0  0  0
   -3.4483    3.3231   -0.4244 C   0  0  0  0  0  0  0  0  0  0  0  0
   -4.3080    3.9009   -0.8211 H   0  0  0  0  0  0  0  0  0  0  0  0
   -2.9493    3.9519    0.3387 H   0  0  0  0  0  0  0  0  0  0  0  0
   -3.8488    2.4224    0.0830 H   0  0  0  0  0  0  0  0  0  0  0  0
   -1.8995    4.2166   -2.2123 C   0  0  0  0  0  0  0  0  0  0  0  0
   -1.2148    3.9647   -3.0472 H   0  0  0  0  0  0  0  0  0  0  0  0
   -1.3297    4.8104   -1.4704 H   0  0  0  0  0  0  0  0  0  0  0  0
   -2.7096    4.8588   -2.6156 H   0  0  0  0  0  0  0  0  0  0  0  0
   -3.2961    2.1651   -2.6498 C   0  0  0  0  0  0  0  0  0  0  0  0
   -2.6450    1.8528   -3.4884 H   0  0  0  0  0  0  0  0  0  0  0  0
   -4.1068    2.8048   -3.0523 H   0  0  0  0  0  0  0  0  0  0  0  0
   -3.7528    1.2499   -2.2258 H   0  0  0  0  0  0  0  0  0  0  0  0
    1.4457    2.9122    1.4728 C   0  0  0  0  0  0  0  0  0  0  0  0
    0.5632    3.5192    2.2982 F   0  0  0  0  0  0  0  0  0  0  0  0
    2.2300    3.8978    0.9529 F   0  0  0  0  0  0  0  0  0  0  0  0
    2.2280    2.1220    2.2368 F   0  0  0  0  0  0  0  0  0  0  0  0
    0.4872   -3.5873   -1.5519 C   0  0  0  0  0  0  0  0  0  0  0  0
   -0.2547   -3.3085   -0.7710 H   0  0  0  0  0  0  0  0  0  0  0  0
    0.6640   -4.6786   -1.5401 H   0  0  0  0  0  0  0  0  0  0  0  0
    0.0429   -3.3250   -2.5355 H   0  0  0  0  0  0  0  0  0  0  0  0
  2  7  1  0  0  0  0
  4  1  1  6  0  0  0
  4  5  1  0  0  0  0
  5  7  2  0  0  0  0
  5  6  1  0  0  0  0
  7 35  1  0  0  0  0
  8 20  2  0  0  0  0
  8  2  1  0  0  0  0
  9  3  1  6  0  0  0
  9  8  1  0  0  0  0
 10  3  1  0  0  0  0
 11 10  2  0  0  0  0
 11 13  1  0  0  0  0
 12 11  1  0  0  0  0
 13 15  2  0  0  0  0
 14 13  1  0  0  0  0
 15  9  1  0  0  0  0
 15 16  1  0  0  0  0
 16 18  2  0  0  0  0
 17 16  1  0  0  0  0
 18 19  1  0  0  0  0
 18 20  1  0  0  0  0
 20 21  1  0  0  0  0
 22  4  1  0  0  0  0
 22 23  1  0  0  0  0
 23 26  1  0  0  0  0
 23 25  1  0  0  0  0
 24 23  1  0  0  0  0
 27 22  1  0  0  0  0
 27 29  1  0  0  0  0
 28 27  1  0  0  0  0
 30 27  1  0  0  0  0
 31 34  1  0  0  0  0
 31 22  1  0  0  0  0
 32 31  1  0  0  0  0
 33 31  1  0  0  0  0
 35 38  1  0  0  0  0
 35 36  1  0  0  0  0
 37 35  1  0  0  0  0
 39 41  1  0  0  0  0
 39 10  1  0  0  0  0
 39 40  1  0  0  0  0
 42 39  1  0  0  0  0
M  END
