2,3,4
q = -1.0

 27 28  0  0  1  0  0  0  0  0999 V2000
    6.7737   -2.2778   -0.4519 Br  0  0  0  0  0  0  0  0  0  0  0  0
    1.0167    0.6090   -1.6048 N   0  0  0  0  0  2  0  0  0  0  0  0
   -1.0643    1.9572   -0.9158 N   0  0  0  0  0  2  0  0  0  0  0  0
    1.0695   -0.7044    0.8558 O   0  5  0  0  0  0  0  0  0  0  0  0
    2.2975   -0.9900    0.5159 C   0  0  0  0  0  0  0  0  0  0  0  0
    3.0846   -1.7472    1.4378 C   0  0  0  0  0  0  0  0  0  0  0  0
    2.6155   -2.0364    2.3890 H   0  0  0  0  0  0  0  0  0  0  0  0
    4.3900   -2.1194    1.1490 C   0  0  0  0  0  0  0  0  0  0  0  0
    4.9702   -2.7012    1.8802 H   0  0  0  0  0  0  0  0  0  0  0  0
    4.9867   -1.7593   -0.0877 C   0  0  0  0  0  0  0  0  0  0  0  0
    4.2558   -1.0391   -1.0202 C   0  0  0  0  0  0  0  0  0  0  0  0
    4.7062   -0.7714   -1.9876 H   0  0  0  0  0  0  0  0  0  0  0  0
    2.9157   -0.6363   -0.7419 C   0  0  0  0  0  0  0  0  0  0  0  0
    2.1866    0.0465   -1.7639 C   0  0  0  0  0  3  0  0  0  0  0  0
    2.6517    0.0956   -2.7697 H   0  0  0  0  0  0  0  0  0  0  0  0
    0.2446    1.0862   -2.7423 C   0  0  0  0  0  0  0  0  0  0  0  0
   -0.2816    0.2208   -3.2068 H   0  0  0  0  0  0  0  0  0  0  0  0
    0.8859    1.5459   -3.5253 H   0  0  0  0  0  0  0  0  0  0  0  0
   -0.7977    2.0483   -2.2441 C   0  0  1  0  0  3  0  0  0  0  0  0
   -1.4858    2.9558   -3.0600 C   0  0  0  0  0  0  0  0  0  0  0  0
   -1.2494    3.0105   -4.1325 H   0  0  0  0  0  0  0  0  0  0  0  0
   -2.4662    3.7791   -2.4915 C   0  0  0  0  0  0  0  0  0  0  0  0
   -3.0196    4.4968   -3.1147 H   0  0  0  0  0  0  0  0  0  0  0  0
   -2.7262    3.6769   -1.1166 C   0  0  0  0  0  0  0  0  0  0  0  0
   -3.4847    4.3042   -0.6280 H   0  0  0  0  0  0  0  0  0  0  0  0
   -2.0010    2.7539   -0.3595 C   0  0  0  0  0  0  0  0  0  0  0  0
   -2.1641    2.6316    0.7198 H   0  0  0  0  0  0  0  0  0  0  0  0
  1 10  1  0  0  0  0
  3 26  1  0  0  0  0
  5  4  1  0  0  0  0
  5  6  1  0  0  0  0
  6  7  1  0  0  0  0
  8  6  2  0  0  0  0
  8  9  1  0  0  0  0
 10  8  1  0  0  0  0
 11 13  1  0  0  0  0
 11 10  2  0  0  0  0
 12 11  1  0  0  0  0
 13  5  2  0  0  0  0
 14  2  1  0  0  0  0
 14 13  1  0  0  0  0
 15 14  1  0  0  0  0
 16  2  1  0  0  0  0
 17 16  1  0  0  0  0
 18 16  1  0  0  0  0
 19 16  1  6  0  0  0
 19  3  1  0  0  0  0
 20 22  2  0  0  0  0
 20 19  1  0  0  0  0
 21 20  1  0  0  0  0
 22 24  1  0  0  0  0
 23 22  1  0  0  0  0
 24 25  1  0  0  0  0
 24 26  2  0  0  0  0
 26 27  1  0  0  0  0
M  CHG  1   4  -1
M  END
