1,2,4
q = -1.0, confidence = 0.024

 31 32  0  0  0  0  0  0  0  0999 V2000
    3.0594   -0.4990    0.0678 N   0  0  0  0  0  2  0  0  0  0  0  0
    0.8034   -0.2755   -1.0214 N   0  0  0  0  0  2  0  0  0  0  0  0
   -0.4787   -0.1922   -1.3106 N   0  0  0  0  0  0  0  0  0  0  0  0
   -0.6527   -0.3748    0.9833 O   0  5  0  0  0  0  0  0  0  0  0  0
   -6.8241    0.0647   -0.6069 O   0  0  0  0  0  0  0  0  0  0  0  0
    4.1818   -0.6474    0.7850 C   0  0  0  0  0  3  0  0  0  0  0  0
    4.0504   -0.7691    1.8703 H   0  0  0  0  0  0  0  0  0  0  0  0
    5.4410   -0.6591    0.1741 C   0  0  0  0  0  0  0  0  0  0  0  0
    6.3428   -0.7803    0.7892 H   0  0  0  0  0  0  0  0  0  0  0  0
    5.5164   -0.5170   -1.2236 C   0  0  0  0  0  0  0  0  0  0  0  0
    6.4932   -0.5220   -1.7294 H   0  0  0  0  0  0  0  0  0  0  0  0
    4.3439   -0.3727   -1.9693 C   0  0  0  0  0  0  0  0  0  0  0  0
    4.3681   -0.2643   -3.0626 H   0  0  0  0  0  0  0  0  0  0  0  0
    3.1013   -0.3672   -1.3000 C   0  0  0  0  0  0  0  0  0  0  0  0
    1.8028   -0.2446   -1.8982 C   0  0  0  0  0  3  0  0  0  0  0  0
    1.5986   -0.1430   -2.9726 H   0  0  0  0  0  0  0  0  0  0  0  0
   -1.2111   -0.2520   -0.1666 C   0  0  0  0  0  0  0  0  0  0  0  0
   -2.6726   -0.1730   -0.2711 C   0  0  0  0  0  0  0  0  0  0  0  0
   -3.3132   -0.0274   -1.5262 C   0  0  0  0  0  0  0  0  0  0  0  0
   -2.6963    0.0250   -2.4343 H   0  0  0  0  0  0  0  0  0  0  0  0
   -4.6994    0.0489   -1.6047 C   0  0  0  0  0  0  0  0  0  0  0  0
   -5.2163    0.1627   -2.5682 H   0  0  0  0  0  0  0  0  0  0  0  0
   -5.4845   -0.0187   -0.4283 C   0  0  0  0  0  0  0  0  0  0  0  0
   -4.8536   -0.1649    0.8286 C   0  0  0  0  0  0  0  0  0  0  0  0
   -5.4425   -0.2201    1.7535 H   0  0  0  0  0  0  0  0  0  0  0  0
   -3.4599   -0.2404    0.8968 C   0  0  0  0  0  0  0  0  0  0  0  0
   -2.9532   -0.3543    1.8658 H   0  0  0  0  0  0  0  0  0  0  0  0
   -7.6701    0.0060    0.5298 C   0  0  0  0  0  0  0  0  0  0  0  0
   -8.7051    0.0930    0.1517 H   0  0  0  0  0  0  0  0  0  0  0  0
   -7.4698    0.8420    1.2358 H   0  0  0  0  0  0  0  0  0  0  0  0
   -7.5622   -0.9581    1.0743 H   0  0  0  0  0  0  0  0  0  0  0  0
  1  6  1  0  0  0  0
  3  2  1  0  0  0  0
  3 17  2  0  0  0  0
  5 23  1  0  0  0  0
  5 28  1  0  0  0  0
  6  7  1  0  0  0  0
  8  6  1  0  0  0  0
  8  9  1  0  0  0  0
 10  8  2  0  0  0  0
 11 10  1  0  0  0  0
 12 14  2  0  0  0  0
 12 10  1  0  0  0  0
 13 12  1  0  0  0  0
 14  1  1  0  0  0  0
 15 14  1  0  0  0  0
 15  2  1  0  0  0  0
 16 15  1  0  0  0  0
 17  4  1  0  0  0  0
 18 17  1  0  0  0  0
 18 26  1  0  0  0  0
 19 18  2  0  0  0  0
 20 19  1  0  0  0  0
 21 19  1  0  0  0  0
 21 23  2  0  0  0  0
 22 21  1  0  0  0  0
 23 24  1  0  0  0  0
 24 26  2  0  0  0  0
 24 25  1  0  0  0  0
 26 27  1  0  0  0  0
 28 31  1  0  0  0  0
 28 30  1  0  0  0  0
 29 28  1  0  0  0  0
M  CHG  1   4  -1
M  END
