1,2,4
q = -1.0

 23 23  0  0  1  0  0  0  0  0999 V2000
   -0.4363    0.5558    1.6120 O   0  0  0  0  0  1  0  0  0  0  0  0
    0.5214    1.8821   -0.4771 N   0  0  0  0  0  0  0  0  0  0  0  0
    0.0548    2.4410   -1.1984 H   0  0  0  0  0  0  0  0  0  0  0  0
    1.2221   -0.8058    0.0021 N   0  0  0  0  0  2  0  0  0  0  0  0
    3.4014   -0.4489   -0.0941 N   0  0  0  0  0  0  0  0  0  0  0  0
    0.5001    1.5241    1.9408 C   0  0  0  0  0  0  0  0  0  0  0  0
    1.5193    1.0741    2.0663 H   0  0  0  0  0  0  0  0  0  0  0  0
    0.2456    2.0106    2.9102 H   0  0  0  0  0  0  0  0  0  0  0  0
    0.5188    2.5775    0.8205 C   0  0  0  0  0  0  0  0  0  0  0  0
   -0.4227    3.1592    0.8635 H   0  0  0  0  0  0  0  0  0  0  0  0
    1.3797    3.2776    0.9227 H   0  0  0  0  0  0  0  0  0  0  0  0
    1.8278    1.3994   -0.9745 C   0  0  0  0  0  0  0  0  0  0  0  0
    1.7218    1.2600   -2.0715 H   0  0  0  0  0  0  0  0  0  0  0  0
    2.6408    2.1415   -0.8050 H   0  0  0  0  0  0  0  0  0  0  0  0
    2.1669    0.0749   -0.3520 C   0  0  1  0  0  3  0  0  0  0  0  0
    1.8471   -1.9184    0.5155 C   0  0  0  0  0  0  0  0  0  0  0  0
    1.2605   -2.7689    0.8796 H   0  0  0  0  0  0  0  0  0  0  0  0
    3.2113   -1.7126    0.4566 C   0  0  0  0  0  0  0  0  0  0  0  0
    4.0591   -2.3393    0.7500 H   0  0  0  0  0  0  0  0  0  0  0  0
    4.6831    0.1772   -0.3735 C   0  0  0  0  0  0  0  0  0  0  0  0
    5.4823   -0.4027    0.1218 H   0  0  0  0  0  0  0  0  0  0  0  0
    4.7066    1.2107    0.0242 H   0  0  0  0  0  0  0  0  0  0  0  0
    4.8878    0.2058   -1.4628 H   0  0  0  0  0  0  0  0  0  0  0  0
  1  6  1  0  0  0  0
  2  9  1  0  0  0  0
  3  2  1  0  0  0  0
  4 16  1  0  0  0  0
  5 18  1  0  0  0  0
  6  7  1  0  0  0  0
  6  8  1  0  0  0  0
  9 10  1  0  0  0  0
  9 11  1  0  0  0  0
  9  6  1  0  0  0  0
 12 14  1  0  0  0  0
 12  2  1  0  0  0  0
 13 12  1  0  0  0  0
 15 12  1  6  0  0  0
 15  5  1  0  0  0  0
 15  4  1  0  0  0  0
 16 17  1  0  0  0  0
 18 16  2  0  0  0  0
 18 19  1  0  0  0  0
 20  5  1  0  0  0  0
 20 22  1  0  0  0  0
 20 21  1  0  0  0  0
 23 20  1  0  0  0  0
M  END
