1,5,14
q = -1.0

 44 45  0  0  0  0  0  0  0  0999 V2000
   -0.6811   -0.5758   -0.2320 O   0  5  0  0  0  0  0  0  0  0  0  0
    3.2581    1.3073    0.6369 C   0  0  0  0  0  0  0  0  0  0  0  0
    4.3092    1.6445    0.5027 H   0  0  0  0  0  0  0  0  0  0  0  0
    3.0359    1.3252    1.7202 H   0  0  0  0  0  0  0  0  0  0  0  0
    0.9666    1.5692   -0.0300 N   0  0  0  0  0  2  0  0  0  0  0  0
    5.1686   -0.2378   -1.3128 C   0  0  0  0  0  0  0  0  0  0  0  0
    5.4509   -0.4019   -2.3715 H   0  0  0  0  0  0  0  0  0  0  0  0
    5.6827   -1.0147   -0.7138 H   0  0  0  0  0  0  0  0  0  0  0  0
    5.5747    0.7514   -1.0182 H   0  0  0  0  0  0  0  0  0  0  0  0
    3.6476   -0.3227   -1.1926 C   0  0  0  0  0  0  0  0  0  0  0  0
    3.1688    0.4055   -1.8776 H   0  0  0  0  0  0  0  0  0  0  0  0
    3.2798   -1.3242   -1.4914 H   0  0  0  0  0  0  0  0  0  0  0  0
   -1.6416    0.2854   -0.0992 C   0  0  0  0  0  0  0  0  0  0  0  0
    3.0718   -0.0877    0.1693 N   0  0  0  0  0  0  0  0  0  0  0  0
   -2.9941   -0.2664   -0.0432 C   0  0  0  0  0  0  0  0  0  0  0  0
    2.2775    2.2186   -0.0764 C   0  0  0  0  0  0  0  0  0  0  0  0
    2.2822    3.2087    0.4243 H   0  0  0  0  0  0  0  0  0  0  0  0
    2.5902    2.3980   -1.1319 H   0  0  0  0  0  0  0  0  0  0  0  0
   -1.4603    1.7090   -0.0405 C   0  0  0  0  0  0  0  0  0  0  0  0
   -4.1221    0.6065    0.1003 C   0  0  0  0  0  0  0  0  0  0  0  0
    3.6137   -1.0686    1.1586 C   0  0  0  0  0  0  0  0  0  0  0  0
    4.6701   -0.7995    1.3833 H   0  0  0  0  0  0  0  0  0  0  0  0
    3.6006   -2.0499    0.6483 H   0  0  0  0  0  0  0  0  0  0  0  0
   -3.2003   -1.6683   -0.1282 C   0  0  0  0  0  3  0  0  0  0  0  0
   -2.3275   -2.3271   -0.2432 H   0  0  0  0  0  0  0  0  0  0  0  0
   -5.4231    0.0371    0.1572 C   0  0  0  0  0  0  0  0  0  0  0  0
   -6.2887    0.7090    0.2687 H   0  0  0  0  0  0  0  0  0  0  0  0
   -4.4869   -2.1966   -0.0721 C   0  0  0  0  0  0  0  0  0  0  0  0
   -4.6328   -3.2852   -0.1411 H   0  0  0  0  0  0  0  0  0  0  0  0
   -3.9029    2.0202    0.1851 C   0  0  0  0  0  0  0  0  0  0  0  0
   -4.7671    2.6884    0.3167 H   0  0  0  0  0  0  0  0  0  0  0  0
    2.7969   -1.1721    2.4390 C   0  0  0  0  0  0  0  0  0  0  0  0
    3.2707   -1.9142    3.1123 H   0  0  0  0  0  0  0  0  0  0  0  0
    1.7701   -1.5173    2.2092 H   0  0  0  0  0  0  0  0  0  0  0  0
    2.7346   -0.2174    2.9988 H   0  0  0  0  0  0  0  0  0  0  0  0
   -5.6044   -1.3398    0.0728 C   0  0  0  0  0  0  0  0  0  0  0  0
   -6.6195   -1.7639    0.1183 H   0  0  0  0  0  0  0  0  0  0  0  0
   -2.6312    2.5356    0.1092 C   0  0  0  0  0  0  0  0  0  0  0  0
   -2.5072    3.6234    0.1993 H   0  0  0  0  0  0  0  0  0  0  0  0
   -0.1437    2.2996   -0.1252 C   0  0  0  0  0  0  0  0  0  0  0  0
   -0.0121    3.7953   -0.3279 C   0  0  0  0  0  0  0  0  0  0  0  0
    0.7796    4.0274   -1.0663 H   0  0  0  0  0  0  0  0  0  0  0  0
    0.2532    4.3188    0.6160 H   0  0  0  0  0  0  0  0  0  0  0  0
   -0.9474    4.2394   -0.7047 H   0  0  0  0  0  0  0  0  0  0  0  0
  1 13  1  0  0  0  0
  2  4  1  0  0  0  0
  3  2  1  0  0  0  0
  6 10  1  0  0  0  0
  6  9  1  0  0  0  0
  6  8  1  0  0  0  0
  7  6  1  0  0  0  0
 10 14  1  0  0  0  0
 11 10  1  0  0  0  0
 12 10  1  0  0  0  0
 13 15  2  0  0  0  0
 13 19  1  0  0  0  0
 14  2  1  0  0  0  0
 14 21  1  0  0  0  0
 15 20  1  0  0  0  0
 16  5  1  0  0  0  0
 16 17  1  0  0  0  0
 16  2  1  0  0  0  0
 18 16  1  0  0  0  0
 19 38  1  0  0  0  0
 20 26  2  0  0  0  0
 20 30  1  0  0  0  0
 21 22  1  0  0  0  0
 21 32  1  0  0  0  0
 23 21  1  0  0  0  0
 24 28  1  0  0  0  0
 24 15  1  0  0  0  0
 25 24  1  0  0  0  0
 26 27  1  0  0  0  0
 28 36  2  0  0  0  0
 29 28  1  0  0  0  0
 30 31  1  0  0  0  0
 32 35  1  0  0  0  0
 32 33  1  0  0  0  0
 34 32  1  0  0  0  0
 36 37  1  0  0  0  0
 36 26  1  0  0  0  0
 38 30  2  0  0  0  0
 38 39  1  0  0  0  0
 40 19  2  0  0  0  0
 40  5  1  0  0  0  0
 41 40  1  0  0  0  0
 41 43  1  0  0  0  0
 42 41  1  0  0  0  0
 44 41  1  0  0  0  0
M  CHG  1   1  -1
M  END
