2,16,23
q = -1.0

 29 29  0  0  1  0  0  0  0  0999 V2000
    2.6699   -0.4203   -0.7715 C   0  0  0  0  0  0  0  0  0  0  0  0
    1.4190   -0.5353   -1.1645 O   0  5  0  0  0  0  0  0  0  0  0  0
    3.6161   -1.3802   -1.2317 C   0  0  0  0  0  0  0  0  0  0  0  0
    3.2606   -2.1465   -1.9362 H   0  0  0  0  0  0  0  0  0  0  0  0
    4.9358   -1.3651   -0.7855 C   0  0  0  0  0  0  0  0  0  0  0  0
    5.6370   -2.1354   -1.1415 H   0  0  0  0  0  0  0  0  0  0  0  0
    5.3731   -0.3830    0.1296 C   0  0  0  0  0  0  0  0  0  0  0  0
    6.4059   -0.3896    0.5049 H   0  0  0  0  0  0  0  0  0  0  0  0
    4.4860    0.6106    0.5344 C   0  0  0  0  0  0  0  0  0  0  0  0
    4.8413    1.3846    1.2300 H   0  0  0  0  0  0  0  0  0  0  0  0
    3.1341    0.6380    0.0914 C   0  0  0  0  0  0  0  0  0  0  0  0
    2.2605    1.7825    0.3617 C   0  0  2  0  0  3  0  0  0  0  0  0
    0.0847    2.8454    0.3414 C   0  0  0  0  0  0  0  0  0  0  0  0
    0.6093    3.7193    0.7683 H   0  0  0  0  0  0  0  0  0  0  0  0
   -0.7727    2.6075    1.0003 H   0  0  0  0  0  0  0  0  0  0  0  0
    0.9488    1.6658    0.3078 N   0  0  0  0  0  2  0  0  0  0  0  0
   -0.4123    3.1792   -1.0728 C   0  0  0  0  0  0  0  0  0  0  0  0
   -0.9453    4.1513   -1.0475 H   0  0  0  0  0  0  0  0  0  0  0  0
    0.4607    3.3166   -1.7482 H   0  0  0  0  0  0  0  0  0  0  0  0
   -1.3663    2.1349   -1.6419 C   0  0  0  0  0  0  0  0  0  0  0  0
   -2.2952    2.0979   -1.0394 H   0  0  0  0  0  0  0  0  0  0  0  0
   -1.6607    2.4133   -2.6767 H   0  0  0  0  0  0  0  0  0  0  0  0
   -0.7849    0.7739   -1.6465 N   0  0  0  0  0  0  0  0  0  0  0  0
    0.0293    0.7071   -2.2806 H   0  0  0  0  0  0  0  0  0  0  0  0
   -1.4860    0.1026   -1.9941 H   0  0  0  0  0  0  0  0  0  0  0  0
    2.9001    3.1295    0.6227 C   0  0  0  0  0  0  0  0  0  0  0  0
    2.6399    3.8408   -0.1873 H   0  0  0  0  0  0  0  0  0  0  0  0
    3.9987    3.0610    0.6473 H   0  0  0  0  0  0  0  0  0  0  0  0
    2.5522    3.5750    1.5762 H   0  0  0  0  0  0  0  0  0  0  0  0
  1 11  1  0  0  0  0
  2  1  1  0  0  0  0
  3  5  1  0  0  0  0
  3  1  2  0  0  0  0
  4  3  1  0  0  0  0
  5  7  2  0  0  0  0
  6  5  1  0  0  0  0
  7  8  1  0  0  0  0
  7  9  1  0  0  0  0
  9 10  1  0  0  0  0
 11 12  1  0  0  0  0
 11  9  2  0  0  0  0
 12 16  1  6  0  0  0
 12 26  1  0  0  0  0
 13 14  1  0  0  0  0
 13 15  1  0  0  0  0
 16 13  1  0  0  0  0
 17 18  1  0  0  0  0
 17 13  1  0  0  0  0
 19 17  1  0  0  0  0
 20 17  1  0  0  0  0
 20 21  1  0  0  0  0
 22 20  1  0  0  0  0
 23 20  1  0  0  0  0
 24 23  1  0  0  0  0
 25 23  1  0  0  0  0
 26 28  1  0  0  0  0
 26 29  1  0  0  0  0
 27 26  1  0  0  0  0
M  CHG  1   2  -1
M  END
