1,13,23
q = -1.0

 32 34  0  0  1  0  0  0  0  0999 V2000
    0.7796    1.4070    1.0448 N   0  0  0  0  0  2  0  0  0  0  0  0
    2.1141    1.2205    0.8192 C   0  0  2  0  0  3  0  0  0  0  0  0
    3.0686    2.0785    1.3768 C   0  0  0  0  0  0  0  0  0  0  0  0
    2.6373    3.1708    2.1441 C   0  0  0  0  0  0  0  0  0  0  0  0
    1.2617    3.3713    2.3426 C   0  0  0  0  0  0  0  0  0  0  0  0
    0.3608    2.4650    1.7778 C   0  0  0  0  0  0  0  0  0  0  0  0
    4.8167   -0.0001   -0.0025 N   0  0  0  0  0  0  0  0  0  0  0  0
    3.7200    0.0000   -0.7834 C   0  0  0  0  0  0  0  0  0  0  0  0
    3.7826    0.0001   -2.1880 C   0  0  0  0  0  0  0  0  0  0  0  0
    5.0443    0.0000   -2.7985 C   0  0  0  0  0  0  0  0  0  0  0  0
    6.1909   -0.0001   -1.9912 C   0  0  0  0  0  0  0  0  0  0  0  0
    6.0218   -0.0001   -0.5984 C   0  0  0  0  0  0  0  0  0  0  0  0
    1.3228    0.0000   -1.0587 O   0  0  0  0  0  1  0  0  0  0  0  0
    2.3509    0.0000   -0.1008 C   0  0  2  0  0  0  0  0  0  0  0  0
    4.1321    1.8635    1.2079 H   0  0  0  0  0  0  0  0  0  0  0  0
    3.3712    3.8621    2.5845 H   0  0  0  0  0  0  0  0  0  0  0  0
    0.8844    4.2177    2.9332 H   0  0  0  0  0  0  0  0  0  0  0  0
   -0.7278    2.5655    1.9045 H   0  0  0  0  0  0  0  0  0  0  0  0
    2.8453    0.0001   -2.7590 H   0  0  0  0  0  0  0  0  0  0  0  0
    5.1320    0.0000   -3.8957 H   0  0  0  0  0  0  0  0  0  0  0  0
    7.2002   -0.0001   -2.4282 H   0  0  0  0  0  0  0  0  0  0  0  0
    6.8986   -0.0002    0.0723 H   0  0  0  0  0  0  0  0  0  0  0  0
    0.7796   -1.4070    1.0449 N   0  0  0  0  0  2  0  0  0  0  0  0
    2.1141   -1.2204    0.8192 C   0  0  1  0  0  3  0  0  0  0  0  0
    0.3609   -2.4649    1.7779 C   0  0  0  0  0  0  0  0  0  0  0  0
    3.0686   -2.0783    1.3769 C   0  0  0  0  0  0  0  0  0  0  0  0
    1.2618   -3.3712    2.3427 C   0  0  0  0  0  0  0  0  0  0  0  0
   -0.7278   -2.5655    1.9046 H   0  0  0  0  0  0  0  0  0  0  0  0
    2.6374   -3.1706    2.1442 C   0  0  0  0  0  0  0  0  0  0  0  0
    4.1321   -1.8633    1.2080 H   0  0  0  0  0  0  0  0  0  0  0  0
    0.8845   -4.2176    2.9334 H   0  0  0  0  0  0  0  0  0  0  0  0
    3.3713   -3.8618    2.5846 H   0  0  0  0  0  0  0  0  0  0  0  0
  1  6  1  0  0  0  0
  2 14  1  6  0  0  0
  2  1  1  0  0  0  0
  2  3  1  0  0  0  0
  3  4  2  0  0  0  0
  4  5  1  0  0  0  0
  4 16  1  0  0  0  0
  5 17  1  0  0  0  0
  6 18  1  0  0  0  0
  6  5  2  0  0  0  0
  8 14  1  0  0  0  0
  8  7  2  0  0  0  0
  9  8  1  0  0  0  0
 10  9  2  0  0  0  0
 10 11  1  0  0  0  0
 11 12  2  0  0  0  0
 12  7  1  0  0  0  0
 12 22  1  0  0  0  0
 14 13  1  6  0  0  0
 15  3  1  0  0  0  0
 19  9  1  0  0  0  0
 20 10  1  0  0  0  0
 21 11  1  0  0  0  0
 23 25  1  0  0  0  0
 24 14  1  6  0  0  0
 24 23  1  0  0  0  0
 24 26  1  0  0  0  0
 25 28  1  0  0  0  0
 25 27  2  0  0  0  0
 26 29  2  0  0  0  0
 27 31  1  0  0  0  0
 29 27  1  0  0  0  0
 29 32  1  0  0  0  0
 30 26  1  0  0  0  0
M  END
