1,2,3
q = -1.0

 32 31  0  0  1  0  0  0  0  0999 V2000
    1.8273   -0.7889   -1.5688 O   0  5  0  0  0  0  0  0  0  0  0  0
    1.2819   -0.1761    1.2963 N   0  0  0  0  0  2  0  0  0  0  0  0
    1.1313    2.3098   -0.5005 N   0  0  0  0  0  0  0  0  0  0  0  0
    2.1724   -1.1459    1.4706 C   0  0  1  0  0  3  0  0  0  0  0  0
    2.7408   -1.8818    0.3846 C   0  0  0  0  0  0  0  0  0  0  0  0
    3.4328   -2.6857    0.6692 H   0  0  0  0  0  0  0  0  0  0  0  0
    2.5842   -1.6688   -1.0009 C   0  0  0  0  0  0  0  0  0  0  0  0
    2.6294   -1.5024    2.8686 C   0  0  0  0  0  0  0  0  0  0  0  0
    3.1618   -0.6506    3.3425 H   0  0  0  0  0  0  0  0  0  0  0  0
    3.3122   -2.3704    2.8625 H   0  0  0  0  0  0  0  0  0  0  0  0
    1.7631   -1.7369    3.5208 H   0  0  0  0  0  0  0  0  0  0  0  0
    3.3697   -2.5329   -1.9639 C   0  0  0  0  0  0  0  0  0  0  0  0
    2.6619   -3.0964   -2.6067 H   0  0  0  0  0  0  0  0  0  0  0  0
    4.0472   -3.2455   -1.4588 H   0  0  0  0  0  0  0  0  0  0  0  0
    3.9593   -1.8828   -2.6425 H   0  0  0  0  0  0  0  0  0  0  0  0
    0.7879    0.6457    2.3899 C   0  0  0  0  0  0  0  0  0  0  0  0
    1.5982    0.8705    3.1219 H   0  0  0  0  0  0  0  0  0  0  0  0
   -0.0106    0.1166    2.9619 H   0  0  0  0  0  0  0  0  0  0  0  0
    0.2300    1.9713    1.8450 C   0  0  0  0  0  0  0  0  0  0  0  0
   -0.0446    2.6206    2.7009 H   0  0  0  0  0  0  0  0  0  0  0  0
   -0.7099    1.7810    1.2818 H   0  0  0  0  0  0  0  0  0  0  0  0
    1.2289    2.7064    0.9356 C   0  0  0  0  0  0  0  0  0  0  0  0
    1.1015    3.8111    1.0096 H   0  0  0  0  0  0  0  0  0  0  0  0
    2.2620    2.4834    1.2729 H   0  0  0  0  0  0  0  0  0  0  0  0
    0.0915    3.0931   -1.1914 C   0  0  0  0  0  0  0  0  0  0  0  0
    0.3367    4.1811   -1.1805 H   0  0  0  0  0  0  0  0  0  0  0  0
   -0.8885    2.9154   -0.7143 H   0  0  0  0  0  0  0  0  0  0  0  0
    0.0061    2.7489   -2.2392 H   0  0  0  0  0  0  0  0  0  0  0  0
    2.4301    2.4458   -1.1773 C   0  0  0  0  0  0  0  0  0  0  0  0
    2.3317    2.1290   -2.2329 H   0  0  0  0  0  0  0  0  0  0  0  0
    3.1716    1.7835   -0.6905 H   0  0  0  0  0  0  0  0  0  0  0  0
    2.8026    3.4968   -1.1504 H   0  0  0  0  0  0  0  0  0  0  0  0
  1  7  1  0  0  0  0
  2  4  1  0  0  0  0
  2 16  1  0  0  0  0
  3 22  1  0  0  0  0
  4  5  1  6  0  0  0
  4  8  1  0  0  0  0
  5  6  1  0  0  0  0
  7  5  2  0  0  0  0
  8  9  1  0  0  0  0
  8 11  1  0  0  0  0
 10  8  1  0  0  0  0
 12 14  1  0  0  0  0
 12  7  1  0  0  0  0
 13 12  1  0  0  0  0
 15 12  1  0  0  0  0
 16 18  1  0  0  0  0
 16 17  1  0  0  0  0
 19 16  1  0  0  0  0
 19 20  1  0  0  0  0
 21 19  1  0  0  0  0
 22 23  1  0  0  0  0
 22 24  1  0  0  0  0
 22 19  1  0  0  0  0
 25 26  1  0  0  0  0
 25 27  1  0  0  0  0
 25  3  1  0  0  0  0
 28 25  1  0  0  0  0
 29 32  1  0  0  0  0
 29 31  1  0  0  0  0
 29  3  1  0  0  0  0
 30 29  1  0  0  0  0
M  CHG  1   1  -1
M  END
