1,2,6
q = -2.0, confidence = 0.744

 28 29  0  0  0  0  0  0  0  0999 V2000
   -1.1878   -1.7313    0.0083 O   0  5  0  0  0  0  0  0  0  0  0  0
   -2.6227    0.5510   -0.0127 N   0  0  0  0  0  2  0  0  0  0  0  0
   -2.5067   -1.8365   -0.0038 C   0  0  0  0  0  0  0  0  0  0  0  0
   -3.2738    1.6515   -0.0323 N   0  0  0  0  0  0  0  0  0  0  0  0
   -4.5417   -3.2158   -0.0142 C   0  0  0  0  0  0  0  0  0  0  0  0
   -0.3044    2.1651    0.0257 N   0  0  0  0  0  2  0  0  0  0  0  0
    0.6587    2.5169    0.0550 H   0  0  0  0  0  0  0  0  0  0  0  0
   -5.3323   -2.0318   -0.0203 C   0  0  0  0  0  0  0  0  0  0  0  0
   -6.4302   -2.1160   -0.0266 H   0  0  0  0  0  0  0  0  0  0  0  0
   -4.7378   -0.7734   -0.0187 C   0  0  0  0  0  0  0  0  0  0  0  0
   -5.3323    0.1502   -0.0246 H   0  0  0  0  0  0  0  0  0  0  0  0
   -3.3294   -0.6668   -0.0112 C   0  0  0  0  0  0  0  0  0  0  0  0
   -2.6699    2.8732   -0.0278 C   0  0  0  0  0  0  0  0  0  0  0  0
   -3.5738    3.9813   -0.0545 C   0  0  0  0  0  3  0  0  0  0  0  0
   -4.6440    3.7300   -0.0781 H   0  0  0  0  0  0  0  0  0  0  0  0
   -3.1360    5.2935   -0.0500 C   0  0  0  0  0  0  0  0  0  0  0  0
   -3.8562    6.1239   -0.0708 H   0  0  0  0  0  0  0  0  0  0  0  0
   -1.7386    5.5528   -0.0171 C   0  0  0  0  0  0  0  0  0  0  0  0
   -1.3726    6.5913   -0.0125 H   0  0  0  0  0  0  0  0  0  0  0  0
   -0.8264    4.5122    0.0094 C   0  0  0  0  0  0  0  0  0  0  0  0
    0.2555    4.7211    0.0340 H   0  0  0  0  0  0  0  0  0  0  0  0
   -1.2339    3.1344    0.0036 C   0  0  0  0  0  0  0  0  0  0  0  0
   -5.2131   -4.5663   -0.0149 C   0  0  0  0  0  0  0  0  0  0  0  0
   -5.8621   -4.6920   -0.9075 H   0  0  0  0  0  0  0  0  0  0  0  0
   -5.8689   -4.6895    0.8729 H   0  0  0  0  0  0  0  0  0  0  0  0
   -4.4760   -5.3921   -0.0107 H   0  0  0  0  0  0  0  0  0  0  0  0
   -3.1471   -3.1041   -0.0063 C   0  0  0  0  0  0  0  0  0  0  0  0
   -2.5075   -3.9998    0.0023 H   0  0  0  0  0  0  0  0  0  0  0  0
  2 12  1  0  0  0  0
  3  1  1  0  0  0  0
  4 13  2  0  0  0  0
  4  2  1  0  0  0  0
  5 27  2  0  0  0  0
  6  7  1  0  0  0  0
  8 10  2  0  0  0  0
  8  5  1  0  0  0  0
  9  8  1  0  0  0  0
 10 12  1  0  0  0  0
 11 10  1  0  0  0  0
 12  3  2  0  0  0  0
 13 22  1  0  0  0  0
 14 16  1  0  0  0  0
 14 13  1  0  0  0  0
 15 14  1  0  0  0  0
 16 18  2  0  0  0  0
 17 16  1  0  0  0  0
 18 19  1  0  0  0  0
 18 20  1  0  0  0  0
 20 21  1  0  0  0  0
 22 20  2  0  0  0  0
 22  6  1  0  0  0  0
 23  5  1  0  0  0  0
 23 26  1  0  0  0  0
 23 25  1  0  0  0  0
 24 23  1  0  0  0  0
 27  3  1  0  0  0  0
 27 28  1  0  0  0  0
M  CHG  1   1  -1
M  END
