1,2,3
q = -1.0, confidence = 0.0

 29 29  0  0  0  0  0  0  0  0999 V2000
   -1.4064    1.8880   -0.7756 N   0  0  0  0  0  2  0  0  0  0  0  0
   -2.9510   -0.2533   -1.6979 N   0  0  0  0  0  0  0  0  0  0  0  0
    0.0155    0.4580    1.3051 O   0  5  0  0  0  0  0  0  0  0  0  0
    0.8597    2.3686    0.0469 C   0  0  0  0  0  0  0  0  0  0  0  0
    0.9661    1.2980    1.0301 C   0  0  0  0  0  0  0  0  0  0  0  0
    2.2185    1.1936    1.7180 C   0  0  0  0  0  0  0  0  0  0  0  0
    2.3086    0.3850    2.4582 H   0  0  0  0  0  0  0  0  0  0  0  0
    3.2709    2.0592    1.4664 C   0  0  0  0  0  0  0  0  0  0  0  0
    4.2135    1.9313    2.0238 H   0  0  0  0  0  0  0  0  0  0  0  0
    3.1776    3.1158    0.5109 C   0  0  0  0  0  0  0  0  0  0  0  0
    1.9735    3.2436   -0.1684 C   0  0  0  0  0  0  0  0  0  0  0  0
    1.8557    4.0529   -0.9091 H   0  0  0  0  0  0  0  0  0  0  0  0
    4.3417    4.0432    0.2780 C   0  0  0  0  0  0  0  0  0  0  0  0
    4.1177    4.7935   -0.5044 H   0  0  0  0  0  0  0  0  0  0  0  0
    5.2494    3.4863   -0.0356 H   0  0  0  0  0  0  0  0  0  0  0  0
    4.6109    4.5929    1.2043 H   0  0  0  0  0  0  0  0  0  0  0  0
   -0.3146    2.6164   -0.7383 C   0  0  0  0  0  3  0  0  0  0  0  0
   -0.2648    3.5095   -1.4029 H   0  0  0  0  0  0  0  0  0  0  0  0
   -2.4518    2.1742   -1.7368 C   0  0  0  0  0  0  0  0  0  0  0  0
   -2.1972    3.0265   -2.4061 H   0  0  0  0  0  0  0  0  0  0  0  0
   -3.3885    2.4539   -1.2023 H   0  0  0  0  0  0  0  0  0  0  0  0
   -2.6898    0.9078   -2.5749 C   0  0  0  0  0  0  0  0  0  0  0  0
   -3.5175    1.0695   -3.3021 H   0  0  0  0  0  0  0  0  0  0  0  0
   -1.7731    0.6906   -3.1592 H   0  0  0  0  0  0  0  0  0  0  0  0
   -4.3713   -0.4362   -1.3794 C   0  0  0  0  0  0  0  0  0  0  0  0
   -4.7479    0.4339   -0.8042 H   0  0  0  0  0  0  0  0  0  0  0  0
   -4.5074   -1.3453   -0.7616 H   0  0  0  0  0  0  0  0  0  0  0  0
   -5.0103   -0.5374   -2.2853 H   0  0  0  0  0  0  0  0  0  0  0  0
   -2.5940   -1.1039   -2.1500 H   0  0  0  0  0  0  0  0  0  0  0  0
  1 17  1  0  0  0  0
  2 25  1  0  0  0  0
  4  5  1  0  0  0  0
  5  3  1  0  0  0  0
  5  6  2  0  0  0  0
  6  7  1  0  0  0  0
  8  6  1  0  0  0  0
  8  9  1  0  0  0  0
 10  8  2  0  0  0  0
 11  4  2  0  0  0  0
 11 10  1  0  0  0  0
 12 11  1  0  0  0  0
 13 10  1  0  0  0  0
 13 16  1  0  0  0  0
 14 13  1  0  0  0  0
 15 13  1  0  0  0  0
 17  4  1  0  0  0  0
 18 17  1  0  0  0  0
 19 21  1  0  0  0  0
 19  1  1  0  0  0  0
 20 19  1  0  0  0  0
 22 19  1  0  0  0  0
 22  2  1  0  0  0  0
 23 22  1  0  0  0  0
 24 22  1  0  0  0  0
 25 26  1  0  0  0  0
 25 27  1  0  0  0  0
 28 25  1  0  0  0  0
 29  2  1  0  0  0  0
M  CHG  1   3  -1
M  END
