1,2,4
q = -1.0

 37 39  0  0  0  0  0  0  0  0999 V2000
    0.4178    1.6992    1.2861 O   0  5  0  0  0  0  0  0  0  0  0  0
   -0.5456   -1.2351   -1.3129 N   0  0  0  0  0  2  0  0  0  0  0  0
    0.1895   -1.9905   -2.0483 N   0  0  0  0  0  2  0  0  0  0  0  0
    1.8450    0.2558   -0.8603 N   0  0  0  0  0  2  0  0  0  0  0  0
    1.3039    2.6213    1.0487 C   0  0  0  0  0  0  0  0  0  0  0  0
    1.2787    3.8029    1.8558 C   0  0  0  0  0  0  0  0  0  0  0  0
    0.5062    3.8502    2.6368 H   0  0  0  0  0  0  0  0  0  0  0  0
    2.1667    4.8477    1.6446 C   0  0  0  0  0  0  0  0  0  0  0  0
    2.1053    5.7474    2.2769 H   0  0  0  0  0  0  0  0  0  0  0  0
    3.1450    4.7743    0.6189 C   0  0  0  0  0  0  0  0  0  0  0  0
    3.8442    5.6069    0.4557 H   0  0  0  0  0  0  0  0  0  0  0  0
    3.2085    3.6365   -0.1699 C   0  0  0  0  0  0  0  0  0  0  0  0
    3.9703    3.5580   -0.9626 H   0  0  0  0  0  0  0  0  0  0  0  0
    2.3149    2.5343    0.0088 C   0  0  0  0  0  0  0  0  0  0  0  0
    2.5371    1.3903   -0.8156 C   0  0  0  0  0  3  0  0  0  0  0  0
    3.4135    1.4645   -1.4859 H   0  0  0  0  0  0  0  0  0  0  0  0
    2.3967   -0.8516   -1.5103 C   0  0  0  0  0  0  0  0  0  0  0  0
    3.8028   -1.0131   -1.6046 C   0  0  0  0  0  0  0  0  0  0  0  0
    4.4505   -0.2757   -1.1119 H   0  0  0  0  0  0  0  0  0  0  0  0
    4.3819   -2.1193   -2.2250 C   0  0  0  0  0  0  0  0  0  0  0  0
    5.4781   -2.2126   -2.2483 H   0  0  0  0  0  0  0  0  0  0  0  0
    3.5693   -3.1229   -2.7909 C   0  0  0  0  0  0  0  0  0  0  0  0
    4.0196   -3.9962   -3.2849 H   0  0  0  0  0  0  0  0  0  0  0  0
    2.1880   -2.9995   -2.7023 C   0  0  0  0  0  0  0  0  0  0  0  0
    1.5102   -3.7552   -3.1239 H   0  0  0  0  0  0  0  0  0  0  0  0
    1.5666   -1.9002   -2.0443 C   0  0  0  0  0  0  0  0  0  0  0  0
   -1.9480   -1.5421   -1.4903 C   0  0  0  0  0  0  0  0  0  0  0  0
   -2.8387   -0.5338   -1.8919 C   0  0  0  0  0  0  0  0  0  0  0  0
   -2.4528    0.4722   -2.1009 H   0  0  0  0  0  0  0  0  0  0  0  0
   -4.2014   -0.8369   -2.0270 C   0  0  0  0  0  0  0  0  0  0  0  0
   -4.8991   -0.0496   -2.3504 H   0  0  0  0  0  0  0  0  0  0  0  0
   -4.6728   -2.1313   -1.7535 C   0  0  0  0  0  0  0  0  0  0  0  0
   -5.7450   -2.3598   -1.8489 H   0  0  0  0  0  0  0  0  0  0  0  0
   -3.7721   -3.1343   -1.3582 C   0  0  0  0  0  0  0  0  0  0  0  0
   -4.1356   -4.1488   -1.1361 H   0  0  0  0  0  0  0  0  0  0  0  0
   -2.4064   -2.8467   -1.2377 C   0  0  0  0  0  0  0  0  0  0  0  0
   -1.6839   -3.6152   -0.9294 H   0  0  0  0  0  0  0  0  0  0  0  0
  3 26  1  0  0  0  0
  3  2  1  0  0  0  0
  4 15  1  0  0  0  0
  5  1  1  0  0  0  0
  5  6  1  0  0  0  0
  6  7  1  0  0  0  0
  8  6  2  0  0  0  0
  8  9  1  0  0  0  0
 10  8  1  0  0  0  0
 11 10  1  0  0  0  0
 12 14  1  0  0  0  0
 12 10  2  0  0  0  0
 13 12  1  0  0  0  0
 14  5  2  0  0  0  0
 15 14  1  0  0  0  0
 16 15  1  0  0  0  0
 17  4  1  0  0  0  0
 18 17  1  0  0  0  0
 18 19  1  0  0  0  0
 20 18  2  0  0  0  0
 21 20  1  0  0  0  0
 22 24  2  0  0  0  0
 22 20  1  0  0  0  0
 23 22  1  0  0  0  0
 24 26  1  0  0  0  0
 25 24  1  0  0  0  0
 26 17  2  0  0  0  0
 27  2  1  0  0  0  0
 27 36  1  0  0  0  0
 28 27  2  0  0  0  0
 29 28  1  0  0  0  0
 30 28  1  0  0  0  0
 30 32  2  0  0  0  0
 31 30  1  0  0  0  0
 32 34  1  0  0  0  0
 33 32  1  0  0  0  0
 34 36  2  0  0  0  0
 34 35  1  0  0  0  0
 36 37  1  0  0  0  0
M  CHG  1   1  -1
M  END
