1,2,3
q = -1.0

 15 14  0  0  0  0  0  0  0  0999 V2000
   -1.2714   -0.0001   -1.4038 O   0  0  0  0  0  1  0  0  0  0  0  0
   -1.1518   -1.3415    0.8721 N   0  0  0  0  0  0  0  0  0  0  0  0
   -1.1517    1.3413    0.8722 N   0  0  0  0  0  0  0  0  0  0  0  0
   -2.4597    0.0001   -0.6832 C   0  0  0  0  0  0  0  0  0  0  0  0
   -2.4835   -1.2798    0.1831 C   0  0  0  0  0  0  0  0  0  0  0  0
   -1.2148   -1.1311    1.8797 H   0  0  0  0  0  0  0  0  0  0  0  0
   -0.7605   -2.2934    0.8469 H   0  0  0  0  0  0  0  0  0  0  0  0
   -2.4832    1.2802    0.1828 C   0  0  0  0  0  0  0  0  0  0  0  0
   -1.2151    1.1304    1.8797 H   0  0  0  0  0  0  0  0  0  0  0  0
   -0.7600    2.2931    0.8477 H   0  0  0  0  0  0  0  0  0  0  0  0
   -3.3527    0.0002   -1.3544 H   0  0  0  0  0  0  0  0  0  0  0  0
   -3.3170   -1.3231    0.9146 H   0  0  0  0  0  0  0  0  0  0  0  0
   -2.5699   -2.1511   -0.4925 H   0  0  0  0  0  0  0  0  0  0  0  0
   -3.3169    1.3242    0.9139 H   0  0  0  0  0  0  0  0  0  0  0  0
   -2.5687    2.1515   -0.4931 H   0  0  0  0  0  0  0  0  0  0  0  0
  1  4  1  0  0  0  0
  2  6  1  0  0  0  0
  3  9  1  0  0  0  0
  4  8  1  0  0  0  0
  4  5  1  0  0  0  0
  5  2  1  0  0  0  0
  5 12  1  0  0  0  0
  7  2  1  0  0  0  0
  8  3  1  0  0  0  0
  8 14  1  0  0  0  0
 10  3  1  0  0  0  0
 11  4  1  0  0  0  0
 13  5  1  0  0  0  0
 15  8  1  0  0  0  0
M  END
