1,2,4
q = -1.0

 29 30  0  0  0  0  0  0  0  0999 V2000
   -0.0882   -0.8162   -1.2819 O   0  5  0  0  0  0  0  0  0  0  0  0
    0.2618   -1.0205    1.5594 N   0  0  0  0  0  0  0  0  0  0  0  0
    1.0102   -1.4092    2.1510 H   0  0  0  0  0  0  0  0  0  0  0  0
   -0.2204    1.3656    0.2510 N   0  0  0  0  0  2  0  0  0  0  0  0
   -1.3597   -1.0260   -0.9764 C   0  0  0  0  0  0  0  0  0  0  0  0
   -2.3922   -0.5923   -1.8477 C   0  0  0  0  0  0  0  0  0  0  0  0
   -2.0994   -0.0990   -2.7859 H   0  0  0  0  0  0  0  0  0  0  0  0
   -3.7340   -0.7896   -1.5061 C   0  0  0  0  0  0  0  0  0  0  0  0
   -4.5226   -0.4439   -2.1927 H   0  0  0  0  0  0  0  0  0  0  0  0
   -4.0879   -1.4201   -0.2974 C   0  0  0  0  0  0  0  0  0  0  0  0
   -5.1456   -1.5716   -0.0369 H   0  0  0  0  0  0  0  0  0  0  0  0
   -3.0756   -1.8675    0.5640 C   0  0  0  0  0  0  0  0  0  0  0  0
   -3.3358   -2.3795    1.5055 H   0  0  0  0  0  0  0  0  0  0  0  0
   -1.7217   -1.6831    0.2381 C   0  0  0  0  0  0  0  0  0  0  0  0
   -0.6000   -2.1593    1.1081 C   0  0  0  0  0  0  0  0  0  0  0  0
    0.0918   -2.8281    0.5523 H   0  0  0  0  0  0  0  0  0  0  0  0
   -0.9928   -2.6926    2.0005 H   0  0  0  0  0  0  0  0  0  0  0  0
   -0.5906    2.2784   -0.6685 C   0  0  0  0  0  3  0  0  0  0  0  0
    0.1226    2.4005   -1.5036 H   0  0  0  0  0  0  0  0  0  0  0  0
   -1.7996    2.9705   -0.5510 C   0  0  0  0  0  0  0  0  0  0  0  0
   -2.0783    3.7094   -1.3151 H   0  0  0  0  0  0  0  0  0  0  0  0
   -2.6423    2.6874    0.5344 C   0  0  0  0  0  0  0  0  0  0  0  0
   -3.6102    3.1996    0.6392 H   0  0  0  0  0  0  0  0  0  0  0  0
   -2.2496    1.7277    1.4765 C   0  0  0  0  0  0  0  0  0  0  0  0
   -2.8979    1.4624    2.3233 H   0  0  0  0  0  0  0  0  0  0  0  0
   -1.0216    1.0742    1.3103 C   0  0  0  0  0  0  0  0  0  0  0  0
   -0.4747    0.0513    2.2810 C   0  0  0  0  0  0  0  0  0  0  0  0
   -1.2901   -0.3637    2.9094 H   0  0  0  0  0  0  0  0  0  0  0  0
    0.2512    0.5535    2.9562 H   0  0  0  0  0  0  0  0  0  0  0  0
  1  5  1  0  0  0  0
  2  3  1  0  0  0  0
  2 27  1  0  0  0  0
  4 26  1  0  0  0  0
  5 14  1  0  0  0  0
  6  8  1  0  0  0  0
  6  5  2  0  0  0  0
  7  6  1  0  0  0  0
  8 10  2  0  0  0  0
  9  8  1  0  0  0  0
 10 11  1  0  0  0  0
 10 12  1  0  0  0  0
 12 13  1  0  0  0  0
 14 12  2  0  0  0  0
 14 15  1  0  0  0  0
 15  2  1  0  0  0  0
 15 17  1  0  0  0  0
 16 15  1  0  0  0  0
 18 20  1  0  0  0  0
 18  4  1  0  0  0  0
 19 18  1  0  0  0  0
 20 22  2  0  0  0  0
 21 20  1  0  0  0  0
 22 23  1  0  0  0  0
 22 24  1  0  0  0  0
 24 25  1  0  0  0  0
 26 24  2  0  0  0  0
 26 27  1  0  0  0  0
 27 28  1  0  0  0  0
 27 29  1  0  0  0  0
M  CHG  1   1  -1
M  END
