1,3,5
q = -1.0

 54 57  0  0  1  0  0  0  0  0999 V2000
   -0.0154    0.2463   -0.8638 O   0  0  0  0  0  1  0  0  0  0  0  0
    1.6413   -1.1223    1.0387 N   0  0  0  0  0  0  0  0  0  0  0  0
    0.6354   -1.9385    0.6108 N   0  0  0  0  0  2  0  0  0  0  0  0
    0.3949    0.7168    1.9097 N   0  0  0  0  0  0  0  0  0  0  0  0
   -0.8880    0.3273    1.6464 N   0  0  0  0  0  2  0  0  0  0  0  0
    4.0336   -1.2028    1.8277 C   0  0  0  0  0  0  0  0  0  0  0  0
    4.4768   -0.5909    1.0137 H   0  0  0  0  0  0  0  0  0  0  0  0
    4.7642   -1.9868    2.0977 H   0  0  0  0  0  0  0  0  0  0  0  0
    3.9028   -0.5498    2.7172 H   0  0  0  0  0  0  0  0  0  0  0  0
    2.7562   -1.8387    1.3938 C   0  0  2  0  0  3  0  0  0  0  0  0
    2.4210   -3.1792    1.2069 C   0  0  0  0  0  0  0  0  0  0  0  0
    3.0699   -4.0416    1.3896 H   0  0  0  0  0  0  0  0  0  0  0  0
    1.0902   -3.2043    0.7191 C   0  0  0  0  0  0  0  0  0  0  0  0
    0.2321   -4.3729    0.3679 C   0  0  0  0  0  0  0  0  0  0  0  0
   -0.5698   -4.5099    1.1221 H   0  0  0  0  0  0  0  0  0  0  0  0
    0.8364   -5.2974    0.3171 H   0  0  0  0  0  0  0  0  0  0  0  0
   -0.2696   -4.1916   -0.6043 H   0  0  0  0  0  0  0  0  0  0  0  0
    1.7570    1.8881    3.6965 C   0  0  0  0  0  0  0  0  0  0  0  0
    2.5533    1.1145    3.7225 H   0  0  0  0  0  0  0  0  0  0  0  0
    1.5781    2.2128    4.7378 H   0  0  0  0  0  0  0  0  0  0  0  0
    2.1537    2.7633    3.1411 H   0  0  0  0  0  0  0  0  0  0  0  0
    0.4835    1.3710    3.1165 C   0  0  2  0  0  3  0  0  0  0  0  0
   -0.8141    1.4123    3.6236 C   0  0  0  0  0  0  0  0  0  0  0  0
   -1.1269    1.8702    4.5675 H   0  0  0  0  0  0  0  0  0  0  0  0
   -1.6425    0.7552    2.6810 C   0  0  0  0  0  0  0  0  0  0  0  0
   -3.1153    0.5155    2.7334 C   0  0  0  0  0  0  0  0  0  0  0  0
   -3.3370   -0.5689    2.6754 H   0  0  0  0  0  0  0  0  0  0  0  0
   -3.6245    0.9961    1.8744 H   0  0  0  0  0  0  0  0  0  0  0  0
   -3.5393    0.9254    3.6684 H   0  0  0  0  0  0  0  0  0  0  0  0
    1.4625    0.3198    1.0071 C   0  0  2  0  0  0  0  0  0  0  0  0
    2.3973    0.7622    1.3881 H   0  0  0  0  0  0  0  0  0  0  0  0
    1.1922    0.7870   -0.4778 C   0  0  0  0  0  0  0  0  0  0  0  0
    1.1544    2.3184   -0.6088 C   0  0  0  0  0  0  0  0  0  0  0  0
    0.4318    2.8498   -1.6959 C   0  0  0  0  0  0  0  0  0  0  0  0
   -0.0717    2.1484   -2.3767 H   0  0  0  0  0  0  0  0  0  0  0  0
    0.3702    4.2324   -1.9107 C   0  0  0  0  0  0  0  0  0  0  0  0
   -0.1972    4.6263   -2.7680 H   0  0  0  0  0  0  0  0  0  0  0  0
    1.0323    5.1145   -1.0401 C   0  0  0  0  0  0  0  0  0  0  0  0
    0.9801    6.2015   -1.2038 H   0  0  0  0  0  0  0  0  0  0  0  0
    1.7670    4.5971    0.0353 C   0  0  0  0  0  0  0  0  0  0  0  0
    2.2971    5.2759    0.7210 H   0  0  0  0  0  0  0  0  0  0  0  0
    1.8305    3.2087    0.2441 C   0  0  0  0  0  0  0  0  0  0  0  0
    2.4270    2.8340    1.0880 H   0  0  0  0  0  0  0  0  0  0  0  0
    2.3521    0.2159   -1.3287 C   0  0  0  0  0  0  0  0  0  0  0  0
    3.6502    0.7588   -1.2610 C   0  0  0  0  0  0  0  0  0  0  0  0
    3.8413    1.6596   -0.6568 H   0  0  0  0  0  0  0  0  0  0  0  0
    4.7039    0.1769   -1.9829 C   0  0  0  0  0  0  0  0  0  0  0  0
    5.7128    0.6142   -1.9269 H   0  0  0  0  0  0  0  0  0  0  0  0
    4.4660   -0.9507   -2.7856 C   0  0  0  0  0  0  0  0  0  0  0  0
    5.2904   -1.4074   -3.3545 H   0  0  0  0  0  0  0  0  0  0  0  0
    3.1695   -1.4819   -2.8675 C   0  0  0  0  0  0  0  0  0  0  0  0
    2.9711   -2.3600   -3.5010 H   0  0  0  0  0  0  0  0  0  0  0  0
    2.1130   -0.9041   -2.1460 C   0  0  0  0  0  0  0  0  0  0  0  0
    1.0948   -1.3203   -2.2067 H   0  0  0  0  0  0  0  0  0  0  0  0
  1 32  1  0  0  0  0
  2 10  1  0  0  0  0
  3 13  1  0  0  0  0
  3  2  1  0  0  0  0
  4 22  1  0  0  0  0
  5  4  1  0  0  0  0
  5 25  1  0  0  0  0
  6  8  1  0  0  0  0
  6  9  1  0  0  0  0
  7  6  1  0  0  0  0
 10  6  1  6  0  0  0
 11 12  1  0  0  0  0
 11 10  1  0  0  0  0
 13 11  2  0  0  0  0
 14 13  1  0  0  0  0
 14 15  1  0  0  0  0
 16 14  1  0  0  0  0
 17 14  1  0  0  0  0
 18 19  1  0  0  0  0
 18 20  1  0  0  0  0
 21 18  1  0  0  0  0
 22 23  1  0  0  0  0
 22 18  1  1  0  0  0
 23 24  1  0  0  0  0
 25 26  1  0  0  0  0
 25 23  2  0  0  0  0
 26 29  1  0  0  0  0
 27 26  1  0  0  0  0
 28 26  1  0  0  0  0
 30  2  1  0  0  0  0
 30 31  1  1  0  0  0
 30  4  1  0  0  0  0
 32 30  1  0  0  0  0
 33 32  1  0  0  0  0
 33 42  1  0  0  0  0
 34 33  2  0  0  0  0
 35 34  1  0  0  0  0
 36 34  1  0  0  0  0
 36 38  2  0  0  0  0
 37 36  1  0  0  0  0
 38 40  1  0  0  0  0
 39 38  1  0  0  0  0
 40 42  2  0  0  0  0
 40 41  1  0  0  0  0
 42 43  1  0  0  0  0
 44 45  1  0  0  0  0
 44 32  1  0  0  0  0
 45 46  1  0  0  0  0
 47 48  1  0  0  0  0
 47 45  2  0  0  0  0
 49 47  1  0  0  0  0
 50 49  1  0  0  0  0
 51 49  2  0  0  0  0
 51 53  1  0  0  0  0
 52 51  1  0  0  0  0
 53 44  2  0  0  0  0
 54 53  1  0  0  0  0
M  END
