1,4,5
q = -1.0, confidence = 0.008

 22 22  0  0  1  0  0  0  0  0999 V2000
    1.0133   -0.6789    0.8692 O   0  5  0  0  0  0  0  0  0  0  0  0
    0.4925    1.4800   -2.5747 N   0  0  0  0  0  0  0  0  0  0  0  0
    0.5691    1.1189   -3.5320 H   0  0  0  0  0  0  0  0  0  0  0  0
    1.0533    0.7111   -1.5687 N   0  0  0  0  0  2  0  0  0  0  0  0
   -1.0327    1.9796   -0.9540 N   0  0  0  0  0  2  0  0  0  0  0  0
   -1.8307    2.5210   -0.6130 H   0  0  0  0  0  0  0  0  0  0  0  0
   -1.3172    2.8350   -3.1679 N   0  0  0  0  0  0  0  0  0  0  0  0
   -2.1867    3.3109   -2.9330 H   0  0  0  0  0  0  0  0  0  0  0  0
   -0.7991    3.2059   -3.9645 H   0  0  0  0  0  0  0  0  0  0  0  0
   -0.6696    2.1264   -2.2028 C   0  0  2  0  0  3  0  0  0  0  0  0
    2.1260   -1.1902    0.4151 C   0  0  0  0  0  0  0  0  0  0  0  0
    2.7998   -2.1368    1.2474 C   0  0  0  0  0  0  0  0  0  0  0  0
    2.3338   -2.3726    2.2147 H   0  0  0  0  0  0  0  0  0  0  0  0
    3.9857   -2.7399    0.8490 C   0  0  0  0  0  0  0  0  0  0  0  0
    4.4697   -3.4660    1.5202 H   0  0  0  0  0  0  0  0  0  0  0  0
    4.5778   -2.4407   -0.4042 C   0  0  0  0  0  0  0  0  0  0  0  0
    5.5149   -2.9268   -0.7086 H   0  0  0  0  0  0  0  0  0  0  0  0
    3.9504   -1.5312   -1.2398 C   0  0  0  0  0  0  0  0  0  0  0  0
    4.3878   -1.2897   -2.2217 H   0  0  0  0  0  0  0  0  0  0  0  0
    2.7313   -0.8877   -0.8655 C   0  0  0  0  0  0  0  0  0  0  0  0
    2.1395    0.0152   -1.7993 C   0  0  0  0  0  3  0  0  0  0  0  0
    2.6269    0.1269   -2.7875 H   0  0  0  0  0  0  0  0  0  0  0  0
  2 10  1  0  0  0  0
  2  4  1  0  0  0  0
  3  2  1  0  0  0  0
  5  6  1  0  0  0  0
  7  8  1  0  0  0  0
  7 10  1  0  0  0  0
  9  7  1  0  0  0  0
 10  5  1  6  0  0  0
 11  1  1  0  0  0  0
 11 12  1  0  0  0  0
 12 13  1  0  0  0  0
 14 12  2  0  0  0  0
 14 15  1  0  0  0  0
 16 14  1  0  0  0  0
 17 16  1  0  0  0  0
 18 20  1  0  0  0  0
 18 16  2  0  0  0  0
 19 18  1  0  0  0  0
 20 11  2  0  0  0  0
 21  4  1  0  0  0  0
 21 20  1  0  0  0  0
 22 21  1  0  0  0  0
M  CHG  1   1  -1
M  END
