3,4,5
q = -1.0

 35 35  0  0  1  0  0  0  0  0999 V2000
   -2.6462    2.4525   -0.0485 Br  0  0  0  0  0  0  0  0  0  0  0  0
   -5.3576   -2.4103    0.0930 Cl  0  0  0  0  0  0  0  0  0  0  0  0
   -0.2797    0.6032   -0.1423 O   0  0  0  0  0  1  0  0  0  0  0  0
    1.0248   -1.7872   -0.1275 N   0  0  0  0  0  2  0  0  0  0  0  0
    3.3665   -0.5583    0.1166 N   0  0  0  0  0  0  0  0  0  0  0  0
   -1.3991   -1.5518   -0.0703 C   0  0  0  0  0  0  0  0  0  0  0  0
   -1.3628   -0.1074   -0.0826 C   0  0  2  0  0  3  0  0  0  0  0  0
   -2.6384    0.5608   -0.0349 C   0  0  0  0  0  0  0  0  0  0  0  0
   -3.8394   -0.1389    0.0191 C   0  0  0  0  0  0  0  0  0  0  0  0
   -4.7918    0.4067    0.0546 H   0  0  0  0  0  0  0  0  0  0  0  0
   -3.8345   -1.5549    0.0268 C   0  0  0  0  0  0  0  0  0  0  0  0
   -2.6370   -2.2530   -0.0179 C   0  0  0  0  0  0  0  0  0  0  0  0
   -2.6396   -3.3526   -0.0126 H   0  0  0  0  0  0  0  0  0  0  0  0
   -0.1844   -2.3042   -0.1253 C   0  0  0  0  0  0  0  0  0  0  0  0
   -0.2771   -3.4078   -0.1727 H   0  0  0  0  0  0  0  0  0  0  0  0
    2.1835   -2.6654   -0.2717 C   0  0  0  0  0  0  0  0  0  0  0  0
    2.4294   -2.7834   -1.3511 H   0  0  0  0  0  0  0  0  0  0  0  0
    1.9854   -3.6840    0.1276 H   0  0  0  0  0  0  0  0  0  0  0  0
    3.3271   -2.0023    0.4747 C   0  0  0  0  0  0  0  0  0  0  0  0
    3.1351   -2.0702    1.5617 H   0  0  0  0  0  0  0  0  0  0  0  0
    4.3025   -2.4943    0.2717 H   0  0  0  0  0  0  0  0  0  0  0  0
    3.9741   -0.3150   -1.2306 C   0  0  0  0  0  0  0  0  0  0  0  0
    3.7708    0.7525   -1.4477 H   0  0  0  0  0  0  0  0  0  0  0  0
    3.3860   -0.9031   -1.9636 H   0  0  0  0  0  0  0  0  0  0  0  0
    5.4621   -0.6309   -1.3734 C   0  0  0  0  0  0  0  0  0  0  0  0
    6.0924    0.0087   -0.7253 H   0  0  0  0  0  0  0  0  0  0  0  0
    5.7669   -0.4353   -2.4204 H   0  0  0  0  0  0  0  0  0  0  0  0
    5.7065   -1.6909   -1.1571 H   0  0  0  0  0  0  0  0  0  0  0  0
    4.0607    0.2409    1.1726 C   0  0  0  0  0  0  0  0  0  0  0  0
    4.2087    1.2475    0.7385 H   0  0  0  0  0  0  0  0  0  0  0  0
    5.0583   -0.2142    1.3631 H   0  0  0  0  0  0  0  0  0  0  0  0
    3.2698    0.3767    2.4660 C   0  0  0  0  0  0  0  0  0  0  0  0
    2.3166    0.9082    2.2769 H   0  0  0  0  0  0  0  0  0  0  0  0
    3.8602    0.9717    3.1910 H   0  0  0  0  0  0  0  0  0  0  0  0
    3.0456   -0.5956    2.9490 H   0  0  0  0  0  0  0  0  0  0  0  0
  1  8  1  0  0  0  0
  4 14  1  0  0  0  0
  5 19  1  0  0  0  0
  5 29  1  0  0  0  0
  6 12  1  0  0  0  0
  7  3  1  6  0  0  0
  7  6  1  0  0  0  0
  7  8  1  0  0  0  0
  8  9  2  0  0  0  0
  9 11  1  0  0  0  0
  9 10  1  0  0  0  0
 11  2  1  0  0  0  0
 12 13  1  0  0  0  0
 12 11  2  0  0  0  0
 14  6  2  0  0  0  0
 15 14  1  0  0  0  0
 16  4  1  0  0  0  0
 16 18  1  0  0  0  0
 16 19  1  0  0  0  0
 17 16  1  0  0  0  0
 19 20  1  0  0  0  0
 21 19  1  0  0  0  0
 22  5  1  0  0  0  0
 23 22  1  0  0  0  0
 24 22  1  0  0  0  0
 25 22  1  0  0  0  0
 25 28  1  0  0  0  0
 25 26  1  0  0  0  0
 27 25  1  0  0  0  0
 29 31  1  0  0  0  0
 29 32  1  0  0  0  0
 30 29  1  0  0  0  0
 32 35  1  0  0  0  0
 32 34  1  0  0  0  0
 33 32  1  0  0  0  0
M  END
