2,3,4
q = -1.0

 29 29  0  0  0  0  0  0  0  0999 V2000
    7.3568   -0.3011    0.0299 Br  0  0  0  0  0  0  0  0  0  0  0  0
    1.4603    0.6885   -0.9535 O   0  5  0  0  0  0  0  0  0  0  0  0
    0.9354   -1.4818    0.6486 N   0  0  0  0  0  2  0  0  0  0  0  0
   -0.7442   -1.0361   -1.4751 N   0  0  0  0  0  0  0  0  0  0  0  0
    3.1751   -0.6672    0.0908 C   0  0  0  0  0  0  0  0  0  0  0  0
    2.7231    0.4418   -0.7038 C   0  0  0  0  0  0  0  0  0  0  0  0
    3.7170    1.2899   -1.2741 C   0  0  0  0  0  0  0  0  0  0  0  0
    3.3848    2.1295   -1.9019 H   0  0  0  0  0  0  0  0  0  0  0  0
    5.0734    1.0682   -1.0531 C   0  0  0  0  0  0  0  0  0  0  0  0
    5.8197    1.7421   -1.4984 H   0  0  0  0  0  0  0  0  0  0  0  0
    5.5048   -0.0225   -0.2589 C   0  0  0  0  0  0  0  0  0  0  0  0
    4.5658   -0.8864    0.2944 C   0  0  0  0  0  0  0  0  0  0  0  0
    4.8938   -1.7479    0.8950 H   0  0  0  0  0  0  0  0  0  0  0  0
    2.2351   -1.6201    0.6045 C   0  0  0  0  0  3  0  0  0  0  0  0
    2.6564   -2.5733    0.9840 H   0  0  0  0  0  0  0  0  0  0  0  0
    0.1387   -2.6667    0.9682 C   0  0  0  0  0  0  0  0  0  0  0  0
   -0.6875   -2.3661    1.6395 H   0  0  0  0  0  0  0  0  0  0  0  0
    0.7738   -3.4118    1.4921 H   0  0  0  0  0  0  0  0  0  0  0  0
   -0.4166   -3.2776   -0.3232 C   0  0  0  0  0  0  0  0  0  0  0  0
    0.4281   -3.6085   -0.9645 H   0  0  0  0  0  0  0  0  0  0  0  0
   -0.9906   -4.1930   -0.0723 H   0  0  0  0  0  0  0  0  0  0  0  0
   -1.3499   -2.3465   -1.0903 C   0  0  0  0  0  0  0  0  0  0  0  0
   -1.6945   -2.8501   -2.0197 H   0  0  0  0  0  0  0  0  0  0  0  0
   -2.2519   -2.1350   -0.4878 H   0  0  0  0  0  0  0  0  0  0  0  0
    0.2032   -1.1690   -2.6033 C   0  0  0  0  0  0  0  0  0  0  0  0
    1.0948   -1.7371   -2.2825 H   0  0  0  0  0  0  0  0  0  0  0  0
    0.5389   -0.1695   -2.9252 H   0  0  0  0  0  0  0  0  0  0  0  0
   -0.2791   -1.7028   -3.4488 H   0  0  0  0  0  0  0  0  0  0  0  0
   -1.5263   -0.4476   -1.8001 H   0  0  0  0  0  0  0  0  0  0  0  0
  2  6  1  0  0  0  0
  3 16  1  0  0  0  0
  4 22  1  0  0  0  0
  5 12  1  0  0  0  0
  5 14  1  0  0  0  0
  6  5  2  0  0  0  0
  7  9  2  0  0  0  0
  7  6  1  0  0  0  0
  8  7  1  0  0  0  0
  9 11  1  0  0  0  0
 10  9  1  0  0  0  0
 11  1  1  0  0  0  0
 11 12  2  0  0  0  0
 12 13  1  0  0  0  0
 14  3  1  0  0  0  0
 14 15  1  0  0  0  0
 16 18  1  0  0  0  0
 16 17  1  0  0  0  0
 19 21  1  0  0  0  0
 19 16  1  0  0  0  0
 20 19  1  0  0  0  0
 22 24  1  0  0  0  0
 22 19  1  0  0  0  0
 23 22  1  0  0  0  0
 25 26  1  0  0  0  0
 25  4  1  0  0  0  0
 27 25  1  0  0  0  0
 28 25  1  0  0  0  0
 29  4  1  0  0  0  0
M  CHG  1   2  -1
M  END
