1,2,10
q = -1.0

 54 56  0  0  1  0  0  0  0  0999 V2000
   -1.1536    2.2970   -0.1462 O   0  5  0  0  0  0  0  0  0  0  0  0
   -0.8858   -0.2362    0.0085 N   0  0  0  0  0  2  0  0  0  0  0  0
    3.0608   -1.1567   -2.5920 C   0  0  0  0  0  0  0  0  0  0  0  0
    3.7623   -0.7819   -3.3666 H   0  0  0  0  0  0  0  0  0  0  0  0
    2.2017   -0.4559   -2.5667 H   0  0  0  0  0  0  0  0  0  0  0  0
   -2.9154   -2.1080    0.1693 C   0  0  0  0  0  0  0  0  0  0  0  0
   -3.6906   -2.8799    0.2335 H   0  0  0  0  0  0  0  0  0  0  0  0
   -1.5866   -2.5101    0.1674 C   0  0  0  0  0  0  0  0  0  0  0  0
   -1.3225   -3.5757    0.2288 H   0  0  0  0  0  0  0  0  0  0  0  0
    1.6789   -0.7475   -0.0324 N   0  0  0  0  0  2  0  0  0  0  0  0
    3.7620   -1.1621    1.2186 C   0  0  0  0  0  0  0  0  0  0  0  0
   -5.9222   -1.7903    1.4894 C   0  0  0  0  0  0  0  0  0  0  0  0
   -6.8532   -2.3909    1.5494 H   0  0  0  0  0  0  0  0  0  0  0  0
   -5.9071   -1.0956    2.3531 H   0  0  0  0  0  0  0  0  0  0  0  0
   -5.0696   -2.4834    1.6124 H   0  0  0  0  0  0  0  0  0  0  0  0
    5.8593   -1.4670   -0.0090 C   0  0  0  0  0  0  0  0  0  0  0  0
    6.9492   -1.6189    0.0007 H   0  0  0  0  0  0  0  0  0  0  0  0
    3.0907   -1.0328   -0.0298 C   0  0  0  0  0  0  0  0  0  0  0  0
    2.9833   -1.0949    2.5151 C   0  0  0  0  0  0  0  0  0  0  0  0
    2.2916   -0.2263    2.4778 H   0  0  0  0  0  0  0  0  0  0  0  0
    2.2931   -1.9685    2.5564 H   0  0  0  0  0  0  0  0  0  0  0  0
   -2.2693    1.6135   -0.0800 C   0  0  0  0  0  0  0  0  0  0  0  0
    3.7778   -1.1689   -1.2613 C   0  0  0  0  0  0  0  0  0  0  0  0
   -5.9745   -1.9501   -1.0586 C   0  0  0  0  0  0  0  0  0  0  0  0
   -5.1251   -2.6542   -1.1294 H   0  0  0  0  0  0  0  0  0  0  0  0
   -5.9976   -1.3687   -2.0021 H   0  0  0  0  0  0  0  0  0  0  0  0
   -6.9049   -2.5521   -1.0045 H   0  0  0  0  0  0  0  0  0  0  0  0
   -4.6708    1.2583   -0.0091 C   0  0  0  0  0  0  0  0  0  0  0  0
   -5.6638    1.7258   -0.0188 H   0  0  0  0  0  0  0  0  0  0  0  0
   -0.5598   -1.5315    0.0841 C   0  0  0  0  0  0  0  0  0  0  0  0
    5.1539   -1.3678    1.1981 C   0  0  0  0  0  0  0  0  0  0  0  0
    5.6960   -1.4539    2.1500 H   0  0  0  0  0  0  0  0  0  0  0  0
   -4.5979   -0.1470    0.0793 C   0  0  0  0  0  0  0  0  0  0  0  0
    2.5474   -2.5422   -3.0135 C   0  0  0  0  0  0  0  0  0  0  0  0
    3.3675   -3.2882   -3.0543 H   0  0  0  0  0  0  0  0  0  0  0  0
    2.0709   -2.4944   -4.0132 H   0  0  0  0  0  0  0  0  0  0  0  0
    1.7839   -2.9239   -2.3054 H   0  0  0  0  0  0  0  0  0  0  0  0
   -3.5686    2.1371   -0.0876 C   0  0  0  0  0  0  0  0  0  0  0  0
   -3.7197    3.2236   -0.1543 H   0  0  0  0  0  0  0  0  0  0  0  0
   -3.2818   -0.7219    0.0891 C   0  0  0  0  0  0  0  0  0  0  0  0
    0.8692   -1.7641    0.0648 C   0  0  0  0  0  3  0  0  0  0  0  0
    1.2590   -2.7983    0.1318 H   0  0  0  0  0  0  0  0  0  0  0  0
   -5.8839   -0.9977    0.1593 C   0  0  0  0  0  0  0  0  0  0  0  0
    5.1707   -1.3822   -1.2221 C   0  0  0  0  0  0  0  0  0  0  0  0
    5.7133   -1.4785   -2.1759 H   0  0  0  0  0  0  0  0  0  0  0  0
   -7.1546   -0.1243    0.1308 C   0  0  0  0  0  0  0  0  0  0  0  0
   -8.0479   -0.7775    0.1908 H   0  0  0  0  0  0  0  0  0  0  0  0
   -7.2362    0.4631   -0.8056 H   0  0  0  0  0  0  0  0  0  0  0  0
   -7.1984    0.5765    0.9884 H   0  0  0  0  0  0  0  0  0  0  0  0
   -2.1609    0.1791    0.0093 C   0  0  1  0  0  3  0  0  0  0  0  0
    3.8060   -1.0476    3.7994 C   0  0  0  0  0  0  0  0  0  0  0  0
    4.4904   -0.1742    3.8136 H   0  0  0  0  0  0  0  0  0  0  0  0
    4.4227   -1.9583    3.9460 H   0  0  0  0  0  0  0  0  0  0  0  0
    3.1357   -0.9566    4.6764 H   0  0  0  0  0  0  0  0  0  0  0  0
  1 22  1  0  0  0  0
  2 50  1  0  0  0  0
  2 30  1  0  0  0  0
  3  5  1  0  0  0  0
  3 23  1  0  0  0  0
  4  3  1  0  0  0  0
  6  7  1  0  0  0  0
  8  6  1  0  0  0  0
  8  9  1  0  0  0  0
 10 18  1  0  0  0  0
 10 41  1  0  0  0  0
 11 19  1  0  0  0  0
 12 13  1  0  0  0  0
 12 15  1  0  0  0  0
 12 14  1  0  0  0  0
 16 17  1  0  0  0  0
 16 31  2  0  0  0  0
 18 11  2  0  0  0  0
 19 21  1  0  0  0  0
 19 51  1  0  0  0  0
 20 19  1  0  0  0  0
 23 44  2  0  0  0  0
 23 18  1  0  0  0  0
 24 27  1  0  0  0  0
 24 43  1  0  0  0  0
 25 24  1  0  0  0  0
 26 24  1  0  0  0  0
 28 33  2  0  0  0  0
 29 28  1  0  0  0  0
 30  8  2  0  0  0  0
 31 11  1  0  0  0  0
 31 32  1  0  0  0  0
 33 40  1  0  0  0  0
 33 43  1  0  0  0  0
 34  3  1  0  0  0  0
 34 37  1  0  0  0  0
 35 34  1  0  0  0  0
 36 34  1  0  0  0  0
 38 22  2  0  0  0  0
 38 28  1  0  0  0  0
 39 38  1  0  0  0  0
 40  6  2  0  0  0  0
 41 30  1  0  0  0  0
 41 42  1  0  0  0  0
 43 12  1  0  0  0  0
 44 16  1  0  0  0  0
 45 44  1  0  0  0  0
 46 43  1  0  0  0  0
 46 47  1  0  0  0  0
 46 49  1  0  0  0  0
 48 46  1  0  0  0  0
 50 22  1  6  0  0  0
 50 40  1  0  0  0  0
 51 52  1  0  0  0  0
 51 53  1  0  0  0  0
 51 54  1  0  0  0  0
M  CHG  1   1  -1
M  END
