1,2,3
q = -1.0

 30 30  0  0  1  0  0  0  0  0999 V2000
   -0.5426   -0.4680    0.1322 O   0  5  0  0  0  0  0  0  0  0  0  0
    1.5157    1.4010   -0.2227 N   0  0  0  0  0  2  0  0  0  0  0  0
    3.2960   -0.4015    0.5339 N   0  0  0  0  0  0  0  0  0  0  0  0
   -1.3209    0.5603   -0.0530 C   0  0  0  0  0  0  0  0  0  0  0  0
   -0.8528    1.8488   -0.3497 C   0  0  0  0  0  0  0  0  0  0  0  0
    0.5092    2.2374   -0.4689 C   0  0  2  0  0  3  0  0  0  0  0  0
    2.9081    1.7984   -0.3947 C   0  0  0  0  0  0  0  0  0  0  0  0
    3.7337    1.0190    0.6158 C   0  0  0  0  0  0  0  0  0  0  0  0
    0.7952    3.6584   -0.9038 C   0  0  0  0  0  0  0  0  0  0  0  0
   -2.7795    0.2695    0.0231 C   0  0  0  0  0  0  0  0  0  0  0  0
   -3.7393    1.2885    0.2211 C   0  0  0  0  0  0  0  0  0  0  0  0
   -5.1031    0.9795    0.2919 C   0  0  0  0  0  0  0  0  0  0  0  0
   -5.5358   -0.3504    0.1630 C   0  0  0  0  0  0  0  0  0  0  0  0
   -4.5926   -1.3731   -0.0284 C   0  0  0  0  0  0  0  0  0  0  0  0
   -3.2285   -1.0662   -0.0915 C   0  0  0  0  0  0  0  0  0  0  0  0
    3.7752   -0.8641   -0.2552 H   0  0  0  0  0  0  0  0  0  0  0  0
    3.5986   -0.9065    1.3805 H   0  0  0  0  0  0  0  0  0  0  0  0
   -1.5983    2.6243   -0.5551 H   0  0  0  0  0  0  0  0  0  0  0  0
    3.2576    1.5673   -1.4319 H   0  0  0  0  0  0  0  0  0  0  0  0
    3.0692    2.8857   -0.2502 H   0  0  0  0  0  0  0  0  0  0  0  0
    3.5059    1.3741    1.6388 H   0  0  0  0  0  0  0  0  0  0  0  0
    4.8240    1.1290    0.4401 H   0  0  0  0  0  0  0  0  0  0  0  0
    1.3607    4.2135   -0.1263 H   0  0  0  0  0  0  0  0  0  0  0  0
    1.4001    3.6891   -1.8333 H   0  0  0  0  0  0  0  0  0  0  0  0
   -0.1441    4.2069   -1.0916 H   0  0  0  0  0  0  0  0  0  0  0  0
   -3.4191    2.3319    0.3511 H   0  0  0  0  0  0  0  0  0  0  0  0
   -5.8352    1.7839    0.4566 H   0  0  0  0  0  0  0  0  0  0  0  0
   -6.6082   -0.5899    0.2166 H   0  0  0  0  0  0  0  0  0  0  0  0
   -4.9252   -2.4171   -0.1293 H   0  0  0  0  0  0  0  0  0  0  0  0
   -2.4881   -1.8650   -0.2391 H   0  0  0  0  0  0  0  0  0  0  0  0
  3  8  1  0  0  0  0
  3 17  1  0  0  0  0
  4 10  1  0  0  0  0
  4  1  1  0  0  0  0
  5  4  2  0  0  0  0
  6  5  1  6  0  0  0
  6  2  1  0  0  0  0
  7 20  1  0  0  0  0
  7  2  1  0  0  0  0
  7  8  1  0  0  0  0
  8 21  1  0  0  0  0
  9  6  1  0  0  0  0
  9 23  1  0  0  0  0
 10 11  1  0  0  0  0
 11 12  2  0  0  0  0
 11 26  1  0  0  0  0
 12 27  1  0  0  0  0
 13 28  1  0  0  0  0
 13 12  1  0  0  0  0
 14 13  2  0  0  0  0
 15 14  1  0  0  0  0
 15 10  2  0  0  0  0
 16  3  1  0  0  0  0
 18  5  1  0  0  0  0
 19  7  1  0  0  0  0
 22  8  1  0  0  0  0
 24  9  1  0  0  0  0
 25  9  1  0  0  0  0
 29 14  1  0  0  0  0
 30 15  1  0  0  0  0
M  CHG  1   1  -1
M  END
