26,28,31
q = -1.0

 31 32  0  0  1  0  0  0  0  0999 V2000
    2.1130    2.6722   -0.1012 C   0  0  0  0  0  3  0  0  0  0  0  0
    2.5106    2.1499    0.7817 H   0  0  0  0  0  0  0  0  0  0  0  0
    2.7460    3.7929   -0.6597 C   0  0  0  0  0  0  0  0  0  0  0  0
    3.6587    4.1986   -0.1927 H   0  0  0  0  0  0  0  0  0  0  0  0
    1.1695    3.9109   -2.3101 C   0  0  0  0  0  0  0  0  0  0  0  0
    0.7916    4.3947   -3.2273 H   0  0  0  0  0  0  0  0  0  0  0  0
    0.4769    2.8007   -1.7713 C   0  0  0  0  0  0  0  0  0  0  0  0
   -0.7328    2.2067   -2.2834 C   0  0  2  0  0  3  0  0  0  0  0  0
   -1.5127    2.7053   -3.4548 C   0  0  0  0  0  0  0  0  0  0  0  0
   -0.9259    2.6220   -4.3943 H   0  0  0  0  0  0  0  0  0  0  0  0
   -1.7914    3.7728   -3.3335 H   0  0  0  0  0  0  0  0  0  0  0  0
   -2.4318    2.1016   -3.5618 H   0  0  0  0  0  0  0  0  0  0  0  0
   -2.2416   -0.5582   -0.8585 C   0  0  0  0  0  0  0  0  0  0  0  0
   -3.3735   -1.5019   -0.8772 C   0  0  0  0  0  0  0  0  0  0  0  0
   -4.3833   -1.4412   -1.8583 C   0  0  0  0  0  0  0  0  0  0  0  0
   -4.3280   -0.6724   -2.6423 H   0  0  0  0  0  0  0  0  0  0  0  0
   -5.4286   -2.3656   -1.8058 C   0  0  0  0  0  0  0  0  0  0  0  0
   -6.2316   -2.3453   -2.5579 H   0  0  0  0  0  0  0  0  0  0  0  0
   -5.4476   -3.3337   -0.7770 C   0  0  0  0  0  0  0  0  0  0  0  0
   -3.4820   -2.5067    0.1115 C   0  0  0  0  0  0  0  0  0  0  0  0
   -2.7026   -2.5721    0.8900 H   0  0  0  0  0  0  0  0  0  0  0  0
   -6.5457   -4.3571   -0.6709 C   0  0  0  0  0  0  0  0  0  0  0  0
   -7.0411   -4.2810    0.3186 H   0  0  0  0  0  0  0  0  0  0  0  0
   -6.1182   -5.3793   -0.7269 H   0  0  0  0  0  0  0  0  0  0  0  0
   -7.3067   -4.2421   -1.4653 H   0  0  0  0  0  0  0  0  0  0  0  0
    0.9783    2.1925   -0.6355 N   0  0  0  0  0  2  0  0  0  0  0  0
    2.2787    4.4116   -1.7609 N   0  0  0  0  0  0  0  0  0  0  0  0
   -1.0838    1.1387   -1.5624 N   0  0  0  0  0  2  0  0  0  0  0  0
   -2.1860    0.4086   -1.7888 N   0  0  0  0  0  0  0  0  0  0  0  0
   -4.4803   -3.3925    0.1644 N   0  0  0  0  0  0  0  0  0  0  0  0
   -1.3420   -0.6823    0.0694 O   0  5  0  0  0  0  0  0  0  0  0  0
  1  2  1  0  0  0  0
  3  4  1  0  0  0  0
  3  1  1  0  0  0  0
  5  7  2  0  0  0  0
  5 27  1  0  0  0  0
  6  5  1  0  0  0  0
  7 26  1  0  0  0  0
  8  7  1  0  0  0  0
  8 28  1  1  0  0  0
  9 11  1  0  0  0  0
  9  8  1  0  0  0  0
 10  9  1  0  0  0  0
 12  9  1  0  0  0  0
 13 31  1  0  0  0  0
 14 13  1  0  0  0  0
 14 20  1  0  0  0  0
 15 17  1  0  0  0  0
 15 14  2  0  0  0  0
 16 15  1  0  0  0  0
 17 19  2  0  0  0  0
 18 17  1  0  0  0  0
 19 22  1  0  0  0  0
 19 30  1  0  0  0  0
 20 30  2  0  0  0  0
 20 21  1  0  0  0  0
 22 23  1  0  0  0  0
 24 22  1  0  0  0  0
 25 22  1  0  0  0  0
 26  1  1  0  0  0  0
 27  3  2  0  0  0  0
 29 28  1  0  0  0  0
 29 13  2  0  0  0  0
M  CHG  1  31  -1
M  END
