3,4,18
q = -1.0, confidence = 0.044

 36 38  0  0  1  0  0  0  0  0999 V2000
    7.7576    5.2808    0.1247 Br  0  0  0  0  0  0  0  0  0  0  0  0
    2.0368   -1.7477   -1.8573 N   0  0  0  0  0  0  0  0  0  0  0  0
    1.0192   -2.5746   -1.6239 N   0  0  0  0  0  2  0  0  0  0  0  0
    1.4000   -0.9766    0.2384 O   0  5  0  0  0  0  0  0  0  0  0  0
    3.3685    1.0015    0.2226 C   0  0  0  0  0  0  0  0  0  0  0  0
    2.6795    0.9284    1.0766 H   0  0  0  0  0  0  0  0  0  0  0  0
    4.3775    1.9957    0.2142 C   0  0  0  0  0  0  0  0  0  0  0  0
    6.2856    3.0753   -0.9296 C   0  0  0  0  0  0  0  0  0  0  0  0
    6.9697    3.1455   -1.7874 H   0  0  0  0  0  0  0  0  0  0  0  0
   -2.0138   -4.4073   -0.0633 C   0  0  0  0  0  3  0  0  0  0  0  0
   -2.2808   -4.0280    0.9340 H   0  0  0  0  0  0  0  0  0  0  0  0
    2.1732   -0.9089   -0.8046 C   0  0  0  0  0  0  0  0  0  0  0  0
    5.5316    3.8843    1.2616 C   0  0  0  0  0  0  0  0  0  0  0  0
    5.6539    4.5959    2.0900 H   0  0  0  0  0  0  0  0  0  0  0  0
    6.4066    3.9542    0.1405 C   0  0  0  0  0  0  0  0  0  0  0  0
    5.2718    2.0795   -0.9177 C   0  0  0  0  0  0  0  0  0  0  0  0
   -0.5692   -4.2173   -1.9230 C   0  0  0  0  0  0  0  0  0  0  0  0
   -0.9628   -3.8252   -0.6629 N   0  0  0  0  0  2  0  0  0  0  0  0
    0.5684   -3.4904   -2.4696 C   0  0  1  0  0  3  0  0  0  0  0  0
    1.1495   -3.7211   -3.8239 C   0  0  0  0  0  0  0  0  0  0  0  0
    1.5053   -4.7661   -3.9398 H   0  0  0  0  0  0  0  0  0  0  0  0
    1.9993   -3.0334   -3.9819 H   0  0  0  0  0  0  0  0  0  0  0  0
    0.3947   -3.5394   -4.6173 H   0  0  0  0  0  0  0  0  0  0  0  0
   -2.3556   -5.8578   -1.9609 C   0  0  0  0  0  0  0  0  0  0  0  0
   -2.9072   -6.6603   -2.4721 H   0  0  0  0  0  0  0  0  0  0  0  0
    5.1066    1.1557   -1.9960 C   0  0  0  0  0  0  0  0  0  0  0  0
    5.7868    1.2228   -2.8586 H   0  0  0  0  0  0  0  0  0  0  0  0
    4.1143    0.1959   -1.9673 C   0  0  0  0  0  0  0  0  0  0  0  0
    3.9852   -0.5112   -2.7976 H   0  0  0  0  0  0  0  0  0  0  0  0
    4.5387    2.9207    1.2900 C   0  0  0  0  0  0  0  0  0  0  0  0
    3.8567    2.8600    2.1519 H   0  0  0  0  0  0  0  0  0  0  0  0
    3.2296    0.1089   -0.8452 C   0  0  0  0  0  0  0  0  0  0  0  0
   -2.7416   -5.4334   -0.6799 C   0  0  0  0  0  0  0  0  0  0  0  0
   -3.5975   -5.8820   -0.1575 H   0  0  0  0  0  0  0  0  0  0  0  0
   -1.2639   -5.2465   -2.5881 C   0  0  0  0  0  0  0  0  0  0  0  0
   -0.9433   -5.5524   -3.5932 H   0  0  0  0  0  0  0  0  0  0  0  0
  1 15  1  0  0  0  0
  2  3  1  0  0  0  0
  2 12  2  0  0  0  0
  5  6  1  0  0  0  0
  7  5  1  0  0  0  0
  7 30  1  0  0  0  0
  8 16  1  0  0  0  0
  8 15  2  0  0  0  0
  9  8  1  0  0  0  0
 10 11  1  0  0  0  0
 12  4  1  0  0  0  0
 13 30  2  0  0  0  0
 13 14  1  0  0  0  0
 15 13  1  0  0  0  0
 16  7  2  0  0  0  0
 17 18  1  0  0  0  0
 18 10  1  0  0  0  0
 19 17  1  0  0  0  0
 19  3  1  6  0  0  0
 20 19  1  0  0  0  0
 21 20  1  0  0  0  0
 22 20  1  0  0  0  0
 23 20  1  0  0  0  0
 24 33  2  0  0  0  0
 25 24  1  0  0  0  0
 26 28  2  0  0  0  0
 26 16  1  0  0  0  0
 27 26  1  0  0  0  0
 28 32  1  0  0  0  0
 29 28  1  0  0  0  0
 30 31  1  0  0  0  0
 32 12  1  0  0  0  0
 32  5  2  0  0  0  0
 33 34  1  0  0  0  0
 33 10  1  0  0  0  0
 35 24  1  0  0  0  0
 35 17  2  0  0  0  0
 36 35  1  0  0  0  0
M  CHG  1   4  -1
M  END
