1,4,6
q = -1.0

 28 28  0  0  0  0  0  0  0  0999 V2000
    0.1817   -1.6458    0.0001 O   0  5  0  0  0  0  0  0  0  0  0  0
   -4.4655   -0.8575   -0.0001 O   0  0  0  0  0  0  0  0  0  0  0  0
   -3.9992   -1.7771   -0.0001 H   0  0  0  0  0  0  0  0  0  0  0  0
   -0.8032    1.1035    0.0001 N   0  0  0  0  0  2  0  0  0  0  0  0
   -1.4902    2.2586    0.0002 N   0  0  0  0  0  2  0  0  0  0  0  0
   -3.4298    0.0053   -0.0001 N   0  0  0  0  0  2  0  0  0  0  0  0
    5.7634    0.6666   -0.0001 Br  0  0  0  0  0  0  0  0  0  0  0  0
    1.3464   -1.0838    0.0001 C   0  0  0  0  0  0  0  0  0  0  0  0
    2.4993   -1.9369    0.0002 C   0  0  0  0  0  0  0  0  0  0  0  0
    2.3191   -3.0210    0.0003 H   0  0  0  0  0  0  0  0  0  0  0  0
    3.7820   -1.4200    0.0001 C   0  0  0  0  0  0  0  0  0  0  0  0
    4.6518   -2.0928    0.0002 H   0  0  0  0  0  0  0  0  0  0  0  0
    3.9860   -0.0106   -0.0000 C   0  0  0  0  0  0  0  0  0  0  0  0
    2.9069    0.8524   -0.0001 C   0  0  0  0  0  3  0  0  0  0  0  0
    3.0663    1.9404   -0.0002 H   0  0  0  0  0  0  0  0  0  0  0  0
    1.5645    0.3483   -0.0000 C   0  0  0  0  0  0  0  0  0  0  0  0
    0.5212    1.3037    0.0000 C   0  0  0  0  0  0  0  0  0  0  0  0
    0.8038    2.3700    0.0000 H   0  0  0  0  0  0  0  0  0  0  0  0
   -2.8000    2.3480    0.0001 C   0  0  0  0  0  0  0  0  0  0  0  0
   -3.2989    3.7754    0.0003 C   0  0  0  0  0  0  0  0  0  0  0  0
   -3.9182    3.9949    0.8944 H   0  0  0  0  0  0  0  0  0  0  0  0
   -3.9175    3.9954   -0.8941 H   0  0  0  0  0  0  0  0  0  0  0  0
   -2.4267    4.4520    0.0008 H   0  0  0  0  0  0  0  0  0  0  0  0
   -3.7919    1.2770   -0.0002 C   0  0  0  0  0  0  0  0  0  0  0  0
   -5.2673    1.5659   -0.0005 C   0  0  0  0  0  0  0  0  0  0  0  0
   -5.7430    1.0934   -0.8841 H   0  0  0  0  0  0  0  0  0  0  0  0
   -5.4894    2.6437   -0.0007 H   0  0  0  0  0  0  0  0  0  0  0  0
   -5.7434    1.0937    0.8831 H   0  0  0  0  0  0  0  0  0  0  0  0
  1  8  1  0  0  0  0
  2  3  1  0  0  0  0
  2  6  1  0  0  0  0
  4  5  1  0  0  0  0
  7 13  1  0  0  0  0
  8  9  2  0  0  0  0
  9 10  1  0  0  0  0
 11  9  1  0  0  0  0
 11 12  1  0  0  0  0
 13 11  2  0  0  0  0
 14 16  1  0  0  0  0
 14 13  1  0  0  0  0
 15 14  1  0  0  0  0
 16 17  2  0  0  0  0
 16  8  1  0  0  0  0
 17  4  1  0  0  0  0
 18 17  1  0  0  0  0
 19  5  1  0  0  0  0
 19 20  1  0  0  0  0
 20 23  1  0  0  0  0
 20 21  1  0  0  0  0
 22 20  1  0  0  0  0
 24  6  1  0  0  0  0
 24 19  2  0  0  0  0
 25 24  1  0  0  0  0
 25 28  1  0  0  0  0
 26 25  1  0  0  0  0
 27 25  1  0  0  0  0
M  CHG  1   1  -1
M  END
