2,3,4
q = -1.0

 23 24  0  0  0  0  0  0  0  0999 V2000
   -0.9356    1.8046    3.8746 S   0  0  0  0  0  0  0  0  0  0  0  0
   -1.1890   -1.4895   -1.4742 O   0  5  0  0  0  0  0  0  0  0  0  0
    0.2394    0.7697    1.8087 N   0  0  0  0  0  2  0  0  0  0  0  0
   -1.9251   -0.2609    0.7808 N   0  0  0  0  0  2  0  0  0  0  0  0
    0.7818    2.0003    3.6974 C   0  0  0  0  0  0  0  0  0  0  0  0
    1.3707    2.5498    4.4405 H   0  0  0  0  0  0  0  0  0  0  0  0
    1.2144    1.3805    2.5402 C   0  0  0  0  0  0  0  0  0  0  0  0
    2.2556    1.3528    2.1877 H   0  0  0  0  0  0  0  0  0  0  0  0
   -2.1407    0.3986    1.8799 N   0  0  0  0  0  0  0  0  0  0  0  0
   -2.4234   -1.4901   -1.1595 C   0  0  0  0  0  0  0  0  0  0  0  0
   -2.9164   -0.8324    0.0644 C   0  0  0  0  0  0  0  0  0  0  0  0
   -4.3006   -0.8214    0.4061 C   0  0  0  0  0  0  0  0  0  0  0  0
   -4.5937   -0.3097    1.3352 H   0  0  0  0  0  0  0  0  0  0  0  0
   -0.9628    0.8958    2.3729 C   0  0  0  0  0  0  0  0  0  0  0  0
   -3.4329   -2.1236   -1.9749 C   0  0  0  0  0  0  0  0  0  0  0  0
   -3.0982   -2.6267   -2.8937 H   0  0  0  0  0  0  0  0  0  0  0  0
   -4.7622   -2.0930   -1.6066 C   0  0  0  0  0  0  0  0  0  0  0  0
   -5.5065   -2.5879   -2.2528 H   0  0  0  0  0  0  0  0  0  0  0  0
   -5.2325   -1.4420   -0.4088 C   0  0  0  0  0  0  0  0  0  0  0  0
   -6.7022   -1.4608   -0.0825 C   0  0  0  0  0  0  0  0  0  0  0  0
   -6.9177   -0.9181    0.8577 H   0  0  0  0  0  0  0  0  0  0  0  0
   -7.0775   -2.5005    0.0301 H   0  0  0  0  0  0  0  0  0  0  0  0
   -7.3029   -0.9946   -0.8925 H   0  0  0  0  0  0  0  0  0  0  0  0
  2 10  1  0  0  0  0
  3 14  1  0  0  0  0
  3  7  1  0  0  0  0
  4  9  1  0  0  0  0
  5  1  1  0  0  0  0
  5  6  1  0  0  0  0
  7  5  2  0  0  0  0
  8  7  1  0  0  0  0
  9 14  2  0  0  0  0
 10 11  1  0  0  0  0
 11 12  2  0  0  0  0
 11  4  1  0  0  0  0
 12 13  1  0  0  0  0
 14  1  1  0  0  0  0
 15 17  1  0  0  0  0
 15 10  2  0  0  0  0
 16 15  1  0  0  0  0
 17 19  2  0  0  0  0
 18 17  1  0  0  0  0
 19 20  1  0  0  0  0
 19 12  1  0  0  0  0
 20 22  1  0  0  0  0
 20 21  1  0  0  0  0
 23 20  1  0  0  0  0
M  CHG  1   2  -1
M  END
