2,3,5
q = -2.0, confidence = 0.942

 29 29  0  0  0  0  0  0  0  0999 V2000
   -1.4653    3.3194    3.2375 S   0  0  0  0  0  0  0  0  0  0  0  0
   -0.2615   -0.7947   -1.2466 O   0  5  0  0  0  0  0  0  0  0  0  0
   -1.8562    0.3034    0.8281 N   0  0  0  0  0  2  0  0  0  0  0  0
   -2.2184    1.1724    1.8098 N   0  0  0  0  0  0  0  0  0  0  0  0
   -0.0636    1.9480    1.3877 N   0  0  0  0  0  2  0  0  0  0  0  0
   -5.4869   -1.7407    0.0986 O   0  0  0  0  0  0  0  0  0  0  0  0
   -2.4229   -1.6620   -0.5116 C   0  0  0  0  0  0  0  0  0  0  0  0
   -2.0360   -3.6152   -2.5423 N   0  0  0  0  0  0  0  0  0  0  0  0
   -1.2450   -1.6449   -1.3351 C   0  0  0  0  0  0  0  0  0  0  0  0
   -1.2291    2.0389    2.0306 C   0  0  0  0  0  0  0  0  0  0  0  0
   -2.6802   -0.6669    0.4977 C   0  0  0  0  0  3  0  0  0  0  0  0
   -3.6523   -0.6765    1.0185 H   0  0  0  0  0  0  0  0  0  0  0  0
   -1.1260   -2.6625   -2.3573 C   0  0  0  0  0  0  0  0  0  0  0  0
    0.0933   -2.6359   -3.2350 C   0  0  0  0  0  0  0  0  0  0  0  0
    0.0336   -3.4552   -3.9744 H   0  0  0  0  0  0  0  0  0  0  0  0
    1.0194   -2.7408   -2.6306 H   0  0  0  0  0  0  0  0  0  0  0  0
    0.1855   -1.6596   -3.7557 H   0  0  0  0  0  0  0  0  0  0  0  0
   -3.3730   -2.7144   -0.7287 C   0  0  0  0  0  0  0  0  0  0  0  0
   -3.1259   -3.6381   -1.7459 C   0  0  0  0  0  0  0  0  0  0  0  0
   -3.8506   -4.4535   -1.9265 H   0  0  0  0  0  0  0  0  0  0  0  0
   -4.6116   -2.8677    0.1227 C   0  0  0  0  0  0  0  0  0  0  0  0
   -5.1400   -3.8009   -0.1900 H   0  0  0  0  0  0  0  0  0  0  0  0
   -4.3349   -3.0007    1.1917 H   0  0  0  0  0  0  0  0  0  0  0  0
   -3.1821    3.0023    3.7460 C   0  0  0  0  0  0  0  0  0  0  0  0
   -3.8667    3.0964    2.8832 H   0  0  0  0  0  0  0  0  0  0  0  0
   -3.4173    3.7676    4.5103 H   0  0  0  0  0  0  0  0  0  0  0  0
   -3.2763    1.9875    4.1734 H   0  0  0  0  0  0  0  0  0  0  0  0
    0.5961    2.7277    1.4530 H   0  0  0  0  0  0  0  0  0  0  0  0
   -5.5563   -1.4685   -0.8358 H   0  0  0  0  0  0  0  0  0  0  0  0
  1 24  1  0  0  0  0
  3  4  1  0  0  0  0
  4 10  2  0  0  0  0
  5 28  1  0  0  0  0
  5 10  1  0  0  0  0
  6 21  1  0  0  0  0
  7 11  1  0  0  0  0
  8 13  2  0  0  0  0
  8 19  1  0  0  0  0
  9  2  1  0  0  0  0
  9  7  2  0  0  0  0
 10  1  1  0  0  0  0
 11  3  1  0  0  0  0
 11 12  1  0  0  0  0
 13  9  1  0  0  0  0
 14 16  1  0  0  0  0
 14 13  1  0  0  0  0
 15 14  1  0  0  0  0
 17 14  1  0  0  0  0
 18  7  1  0  0  0  0
 18 21  1  0  0  0  0
 19 18  2  0  0  0  0
 20 19  1  0  0  0  0
 21 23  1  0  0  0  0
 22 21  1  0  0  0  0
 24 27  1  0  0  0  0
 24 26  1  0  0  0  0
 25 24  1  0  0  0  0
 29  6  1  0  0  0  0
M  CHG  1   2  -1
M  END
