1,14,29
q = -1.0

 30 32  0  0  0  0  0  0  0  0999 V2000
   -2.0586   -1.8601   -0.3935 O   0  5  0  0  0  0  0  0  0  0  0  0
   -3.3015   -2.0882   -0.7013 C   0  0  0  0  0  0  0  0  0  0  0  0
   -3.7103   -3.4034   -1.0688 C   0  0  0  0  0  0  0  0  0  0  0  0
   -2.9432   -4.1906   -1.0644 H   0  0  0  0  0  0  0  0  0  0  0  0
   -5.0347   -3.6717   -1.3958 C   0  0  0  0  0  0  0  0  0  0  0  0
   -5.3259   -4.7013   -1.6562 H   0  0  0  0  0  0  0  0  0  0  0  0
   -6.0164   -2.6470   -1.4006 C   0  0  0  0  0  0  0  0  0  0  0  0
   -7.0579   -2.8786   -1.6650 H   0  0  0  0  0  0  0  0  0  0  0  0
   -5.6413   -1.3513   -1.0787 C   0  0  0  0  0  0  0  0  0  0  0  0
   -6.3826   -0.5361   -1.0948 H   0  0  0  0  0  0  0  0  0  0  0  0
   -4.2963   -1.0373   -0.7222 C   0  0  0  0  0  0  0  0  0  0  0  0
   -3.9377    0.3250   -0.5043 C   0  0  0  0  0  3  0  0  0  0  0  0
   -4.7319    1.0728   -0.7031 H   0  0  0  0  0  0  0  0  0  0  0  0
   -2.7566    0.7613   -0.1147 N   0  0  0  0  0  2  0  0  0  0  0  0
   -2.4517    2.1290   -0.0989 C   0  0  0  0  0  0  0  0  0  0  0  0
   -3.1286    3.1486   -0.7747 C   0  0  0  0  0  0  0  0  0  0  0  0
   -3.9729    2.9108   -1.4369 H   0  0  0  0  0  0  0  0  0  0  0  0
   -2.7151    4.4968   -0.6365 C   0  0  0  0  0  0  0  0  0  0  0  0
   -3.2668    5.2789   -1.1791 H   0  0  0  0  0  0  0  0  0  0  0  0
   -1.6247    4.8431    0.1529 C   0  0  0  0  0  3  0  0  0  0  0  0
   -1.3066    5.8920    0.2468 H   0  0  0  0  0  0  0  0  0  0  0  0
   -0.8880    3.8301    0.8303 C   0  0  0  0  0  0  0  0  0  0  0  0
    0.2601    4.0710    1.6405 C   0  0  0  0  0  0  0  0  0  0  0  0
    0.6179    5.1030    1.7771 H   0  0  0  0  0  0  0  0  0  0  0  0
    0.9116    3.0037    2.2377 C   0  0  0  0  0  0  0  0  0  0  0  0
    1.8000    3.1543    2.8668 H   0  0  0  0  0  0  0  0  0  0  0  0
    0.4349    1.6849    2.0279 C   0  0  0  0  0  0  0  0  0  0  0  0
    0.9361    0.8146    2.4744 H   0  0  0  0  0  0  0  0  0  0  0  0
   -0.6384    1.4359    1.2767 N   0  0  0  0  0  2  0  0  0  0  0  0
   -1.3067    2.4706    0.6857 C   0  0  0  0  0  0  0  0  0  0  0  0
  2  1  1  0  0  0  0
  3  4  1  0  0  0  0
  3  2  2  0  0  0  0
  5  3  1  0  0  0  0
  6  5  1  0  0  0  0
  7  5  2  0  0  0  0
  7  9  1  0  0  0  0
  8  7  1  0  0  0  0
  9 11  2  0  0  0  0
 10  9  1  0  0  0  0
 11  2  1  0  0  0  0
 11 12  1  0  0  0  0
 12 14  1  0  0  0  0
 13 12  1  0  0  0  0
 14 15  1  0  0  0  0
 15 30  2  0  0  0  0
 16 18  2  0  0  0  0
 16 15  1  0  0  0  0
 17 16  1  0  0  0  0
 18 20  1  0  0  0  0
 19 18  1  0  0  0  0
 20 21  1  0  0  0  0
 20 22  1  0  0  0  0
 22 23  2  0  0  0  0
 23 24  1  0  0  0  0
 23 25  1  0  0  0  0
 25 26  1  0  0  0  0
 27 25  2  0  0  0  0
 27 28  1  0  0  0  0
 29 27  1  0  0  0  0
 30 22  1  0  0  0  0
 30 29  1  0  0  0  0
M  CHG  1   1  -1
M  END
