1,3,4
q = -1.0

 22 22  0  0  1  0  0  0  0  0999 V2000
    0.9253   -1.2753   -0.0005 O   0  5  0  0  0  0  0  0  0  0  0  0
   -1.6713    1.8114   -0.0004 O   0  0  0  0  0  0  0  0  0  0  0  0
   -0.5670    0.9116   -0.0003 N   0  0  0  0  0  2  0  0  0  0  0  0
   -2.8080   -0.1458    0.0001 N   0  0  0  0  0  2  0  0  0  0  0  0
    1.9567   -0.4923   -0.0002 C   0  0  0  0  0  0  0  0  0  0  0  0
    3.2735   -1.0479    0.0002 C   0  0  0  0  0  0  0  0  0  0  0  0
    4.3948   -0.2276    0.0004 C   0  0  0  0  0  0  0  0  0  0  0  0
    4.2793    1.1877    0.0003 C   0  0  0  0  0  0  0  0  0  0  0  0
    3.0170    1.7614   -0.0000 C   0  0  0  0  0  0  0  0  0  0  0  0
    1.8442    0.9509   -0.0002 C   0  0  0  0  0  0  0  0  0  0  0  0
    0.5642    1.5758   -0.0004 C   0  0  0  0  0  3  0  0  0  0  0  0
   -2.8374    1.1400    0.0001 C   0  0  2  0  0  3  0  0  0  0  0  0
   -4.0259    2.0468    0.0004 C   0  0  0  0  0  0  0  0  0  0  0  0
   -3.7125   -0.6259    0.0008 H   0  0  0  0  0  0  0  0  0  0  0  0
    3.3565   -2.1439    0.0002 H   0  0  0  0  0  0  0  0  0  0  0  0
    5.3957   -0.6871    0.0006 H   0  0  0  0  0  0  0  0  0  0  0  0
    5.1800    1.8177    0.0004 H   0  0  0  0  0  0  0  0  0  0  0  0
    2.9006    2.8571   -0.0001 H   0  0  0  0  0  0  0  0  0  0  0  0
    0.5081    2.6805   -0.0006 H   0  0  0  0  0  0  0  0  0  0  0  0
   -4.0020    2.7025    0.8935 H   0  0  0  0  0  0  0  0  0  0  0  0
   -4.9629    1.4628    0.0010 H   0  0  0  0  0  0  0  0  0  0  0  0
   -4.0028    2.7021   -0.8930 H   0  0  0  0  0  0  0  0  0  0  0  0
  1  5  1  0  0  0  0
  2  3  1  0  0  0  0
  4 12  1  0  0  0  0
  4 14  1  0  0  0  0
  5  6  1  0  0  0  0
  6 15  1  0  0  0  0
  6  7  2  0  0  0  0
  7 16  1  0  0  0  0
  8  7  1  0  0  0  0
  8 17  1  0  0  0  0
  9  8  2  0  0  0  0
 10  5  2  0  0  0  0
 10  9  1  0  0  0  0
 11  3  1  0  0  0  0
 11 10  1  0  0  0  0
 12  2  1  6  0  0  0
 12 13  1  0  0  0  0
 13 21  1  0  0  0  0
 13 20  1  0  0  0  0
 18  9  1  0  0  0  0
 19 11  1  0  0  0  0
 22 13  1  0  0  0  0
M  CHG  1   1  -1
M  END
