1,7,11
q = -1.0

 26 25  0  0  1  0  0  0  0  0999 V2000
    1.7411    0.2388    0.0009 O   0  0  0  0  0  1  0  0  0  0  0  0
    1.9042    1.5188    0.0493 C   0  0  2  0  0  3  0  0  0  0  0  0
    0.8706    2.4681    0.0269 C   0  0  0  0  0  0  0  0  0  0  0  0
   -0.5127    2.1559   -0.0262 C   0  0  0  0  0  0  0  0  0  0  0  0
    3.3491    1.9485    0.1337 C   0  0  0  0  0  0  0  0  0  0  0  0
   -1.4994    3.3020   -0.0747 C   0  0  0  0  0  0  0  0  0  0  0  0
   -0.9516    0.8941   -0.0341 N   0  0  0  0  0  2  0  0  0  0  0  0
   -2.3759    0.5950   -0.1373 C   0  0  0  0  0  0  0  0  0  0  0  0
   -2.6062   -0.8168    0.4062 C   0  0  1  0  0  0  0  0  0  0  0  0
   -3.9966   -1.3765    0.1234 C   0  0  0  0  0  0  0  0  0  0  0  0
   -1.5082   -1.6335   -0.1592 N   0  0  0  0  0  0  0  0  0  0  0  0
    1.1499    3.5292    0.0577 H   0  0  0  0  0  0  0  0  0  0  0  0
    3.4645    3.0477    0.1392 H   0  0  0  0  0  0  0  0  0  0  0  0
    3.9124    1.5200   -0.7201 H   0  0  0  0  0  0  0  0  0  0  0  0
    3.8067    1.5258    1.0517 H   0  0  0  0  0  0  0  0  0  0  0  0
   -0.9726    4.2727   -0.0796 H   0  0  0  0  0  0  0  0  0  0  0  0
   -2.1828    3.2911    0.8009 H   0  0  0  0  0  0  0  0  0  0  0  0
   -2.1370    3.2522   -0.9822 H   0  0  0  0  0  0  0  0  0  0  0  0
   -3.0112    1.3157    0.4204 H   0  0  0  0  0  0  0  0  0  0  0  0
   -2.7143    0.6370   -1.2033 H   0  0  0  0  0  0  0  0  0  0  0  0
   -2.4236   -0.7893    1.5013 H   0  0  0  0  0  0  0  0  0  0  0  0
   -4.7795   -0.7402    0.5821 H   0  0  0  0  0  0  0  0  0  0  0  0
   -4.1089   -2.3983    0.5377 H   0  0  0  0  0  0  0  0  0  0  0  0
   -4.1953   -1.4214   -0.9682 H   0  0  0  0  0  0  0  0  0  0  0  0
   -1.3486   -2.5296    0.3264 H   0  0  0  0  0  0  0  0  0  0  0  0
   -1.6875   -1.8702   -1.1493 H   0  0  0  0  0  0  0  0  0  0  0  0
  2  1  1  6  0  0  0
  2  5  1  0  0  0  0
  3  2  1  0  0  0  0
  3 12  1  0  0  0  0
  4  3  2  0  0  0  0
  5 13  1  0  0  0  0
  5 15  1  0  0  0  0
  6  4  1  0  0  0  0
  6 17  1  0  0  0  0
  7  4  1  0  0  0  0
  8  7  1  0  0  0  0
  8  9  1  0  0  0  0
  8 19  1  0  0  0  0
  9 21  1  1  0  0  0
 10  9  1  0  0  0  0
 10 23  1  0  0  0  0
 10 22  1  0  0  0  0
 11 25  1  0  0  0  0
 11  9  1  0  0  0  0
 14  5  1  0  0  0  0
 16  6  1  0  0  0  0
 18  6  1  0  0  0  0
 20  8  1  0  0  0  0
 24 10  1  0  0  0  0
 26 11  1  0  0  0  0
M  END
