1,5,6
q = -1.0

 31 32  0  0  0  0  0  0  0  0999 V2000
   -0.5208   -1.5441   -1.2048 O   0  5  0  0  0  0  0  0  0  0  0  0
    1.9049   -4.9786   -0.9201 O   0  0  0  0  0  0  0  0  0  0  0  0
    1.9289   -4.0533   -0.4679 H   0  0  0  0  0  0  0  0  0  0  0  0
    1.3196   -2.6050   -0.2349 N   0  0  0  0  0  0  0  0  0  0  0  0
    1.4719   -1.4713    0.4390 N   0  0  0  0  0  2  0  0  0  0  0  0
    1.4197    0.8487    1.6618 N   0  0  0  0  0  2  0  0  0  0  0  0
    0.2308   -2.5547   -1.0919 C   0  0  0  0  0  0  0  0  0  0  0  0
    0.0000   -3.7875   -1.8647 C   0  0  0  0  0  0  0  0  0  0  0  0
    0.8493   -4.9393   -1.7369 C   0  0  0  0  0  0  0  0  0  0  0  0
    0.5521   -6.0874   -2.5131 C   0  0  0  0  0  0  0  0  0  0  0  0
    1.2123   -6.9601   -2.4041 H   0  0  0  0  0  0  0  0  0  0  0  0
   -0.5383   -6.0995   -3.3823 C   0  0  0  0  0  0  0  0  0  0  0  0
   -0.7448   -7.0050   -3.9743 H   0  0  0  0  0  0  0  0  0  0  0  0
   -1.3748   -4.9689   -3.5120 C   0  0  0  0  0  0  0  0  0  0  0  0
   -2.2313   -4.9863   -4.2015 H   0  0  0  0  0  0  0  0  0  0  0  0
   -1.0984   -3.8314   -2.7564 C   0  0  0  0  0  0  0  0  0  0  0  0
   -1.7216   -2.9279   -2.8270 H   0  0  0  0  0  0  0  0  0  0  0  0
    2.4397   -1.3074    1.3124 C   0  0  0  0  0  0  0  0  0  0  0  0
    2.4440    0.0081    1.9773 C   0  0  0  0  0  0  0  0  0  0  0  0
    3.4423    0.4192    2.8906 C   0  0  0  0  0  0  0  0  0  0  0  0
    4.2703   -0.2543    3.1486 H   0  0  0  0  0  0  0  0  0  0  0  0
    3.3738    1.6982    3.4541 C   0  0  0  0  0  0  0  0  0  0  0  0
    4.1491    2.0289    4.1617 H   0  0  0  0  0  0  0  0  0  0  0  0
    2.3175    2.5525    3.1037 C   0  0  0  0  0  0  0  0  0  0  0  0
    2.2327    3.5673    3.5168 H   0  0  0  0  0  0  0  0  0  0  0  0
    1.3611    2.0723    2.1961 C   0  0  0  0  0  0  0  0  0  0  0  0
    0.5101    2.6987    1.8771 H   0  0  0  0  0  0  0  0  0  0  0  0
    3.4376   -2.3935    1.5749 C   0  0  0  0  0  0  0  0  0  0  0  0
    3.9903   -2.6392    0.6432 H   0  0  0  0  0  0  0  0  0  0  0  0
    4.1688   -2.1395    2.3612 H   0  0  0  0  0  0  0  0  0  0  0  0
    2.9135   -3.3273    1.8698 H   0  0  0  0  0  0  0  0  0  0  0  0
  1  7  1  0  0  0  0
  2  3  1  0  0  0  0
  4  5  1  0  0  0  0
  5 18  1  0  0  0  0
  6 19  1  0  0  0  0
  6 26  1  0  0  0  0
  7  4  2  0  0  0  0
  8  9  1  0  0  0  0
  8  7  1  0  0  0  0
  9  2  1  0  0  0  0
 10 11  1  0  0  0  0
 10  9  2  0  0  0  0
 12 10  1  0  0  0  0
 13 12  1  0  0  0  0
 14 12  2  0  0  0  0
 14 16  1  0  0  0  0
 15 14  1  0  0  0  0
 16  8  2  0  0  0  0
 17 16  1  0  0  0  0
 18 28  1  0  0  0  0
 18 19  2  0  0  0  0
 19 20  1  0  0  0  0
 20 21  1  0  0  0  0
 20 22  2  0  0  0  0
 22 23  1  0  0  0  0
 24 22  1  0  0  0  0
 24 25  1  0  0  0  0
 26 24  2  0  0  0  0
 27 26  1  0  0  0  0
 28 31  1  0  0  0  0
 28 30  1  0  0  0  0
 29 28  1  0  0  0  0
M  CHG  1   1  -1
M  END
