1,11,42
q = -1.0

 68 69  0  0  0  0  0  0  0  0999 V2000
    1.1887   -1.8547   -0.7109 N   0  0  0  0  0  0  0  0  0  0  0  0
    0.9628   -2.4141    0.6309 C   0  0  0  0  0  0  0  0  0  0  0  0
    1.4520   -3.4115    0.7332 H   0  0  0  0  0  0  0  0  0  0  0  0
   -0.1247   -2.5871    0.7596 H   0  0  0  0  0  0  0  0  0  0  0  0
    1.4057   -1.4680    1.7574 C   0  0  0  0  0  0  0  0  0  0  0  0
    0.7742   -0.5529    1.7008 H   0  0  0  0  0  0  0  0  0  0  0  0
    1.1709   -1.9513    2.7314 H   0  0  0  0  0  0  0  0  0  0  0  0
    2.8742   -1.0328    1.8054 C   0  0  0  0  0  0  0  0  0  0  0  0
    3.5486   -1.9081    1.9238 H   0  0  0  0  0  0  0  0  0  0  0  0
    3.0172   -0.4276    2.7195 H   0  0  0  0  0  0  0  0  0  0  0  0
    3.3266   -0.2122    0.6274 N   0  0  0  0  0  0  0  0  0  0  0  0
    4.1883   -1.0366   -0.2771 C   0  0  0  0  0  0  0  0  0  0  0  0
    5.1829   -1.1845    0.2135 H   0  0  0  0  0  0  0  0  0  0  0  0
    4.3635   -0.4507   -1.1988 H   0  0  0  0  0  0  0  0  0  0  0  0
    3.6388   -2.4115   -0.6665 C   0  0  0  0  0  0  0  0  0  0  0  0
    4.4091   -2.8828   -1.3119 H   0  0  0  0  0  0  0  0  0  0  0  0
    3.5764   -3.0703    0.2237 H   0  0  0  0  0  0  0  0  0  0  0  0
    2.3149   -2.4429   -1.4320 C   0  0  0  0  0  0  0  0  0  0  0  0
    2.4242   -1.8809   -2.3853 H   0  0  0  0  0  0  0  0  0  0  0  0
    2.1031   -3.5082   -1.7181 H   0  0  0  0  0  0  0  0  0  0  0  0
    4.0612    1.0251    1.0859 C   0  0  0  0  0  0  0  0  0  0  0  0
    4.8978    0.6885    1.7491 H   0  0  0  0  0  0  0  0  0  0  0  0
    3.1280    1.9508    1.8708 C   0  0  0  0  0  0  0  0  0  0  0  0
    2.6592    1.4693    2.7499 H   0  0  0  0  0  0  0  0  0  0  0  0
    2.3125    2.3077    1.2064 H   0  0  0  0  0  0  0  0  0  0  0  0
    3.6965    2.8274    2.2390 H   0  0  0  0  0  0  0  0  0  0  0  0
    4.6459    1.7999   -0.0974 C   0  0  0  0  0  0  0  0  0  0  0  0
    5.0478    2.7680    0.2585 H   0  0  0  0  0  0  0  0  0  0  0  0
    3.8337    2.0111   -0.8285 H   0  0  0  0  0  0  0  0  0  0  0  0
    5.4676    1.2700   -0.6138 H   0  0  0  0  0  0  0  0  0  0  0  0
   -0.0279   -1.7723   -1.5549 C   0  0  0  0  0  0  0  0  0  0  0  0
   -0.4293   -2.7950   -1.7673 H   0  0  0  0  0  0  0  0  0  0  0  0
    0.3038   -1.3349   -2.5213 H   0  0  0  0  0  0  0  0  0  0  0  0
   -1.1054   -0.9044   -0.9620 C   0  0  0  0  0  0  0  0  0  0  0  0
   -2.3074   -1.4757   -0.5085 C   0  0  0  0  0  0  0  0  0  0  0  0
   -2.4198   -2.5677   -0.5967 H   0  0  0  0  0  0  0  0  0  0  0  0
   -3.3431   -0.6943    0.0260 C   0  0  0  0  0  0  0  0  0  0  0  0
   -3.1206    0.7004    0.0779 C   0  0  0  0  0  0  0  0  0  0  0  0
   -3.9193    1.3310    0.4931 H   0  0  0  0  0  0  0  0  0  0  0  0
   -1.9462    1.3296   -0.3618 C   0  0  0  0  0  0  0  0  0  0  0  0
   -0.8898    0.5115   -0.9012 C   0  0  0  0  0  0  0  0  0  0  0  0
    0.2408    1.0515   -1.3503 O   0  5  0  0  0  0  0  0  0  0  0  0
   -4.6702   -1.2806    0.5385 C   0  0  0  0  0  0  0  0  0  0  0  0
   -4.8462   -0.9282    2.0333 C   0  0  0  0  0  0  0  0  0  0  0  0
   -4.0197   -1.3547    2.6376 H   0  0  0  0  0  0  0  0  0  0  0  0
   -5.8049   -1.3303    2.4243 H   0  0  0  0  0  0  0  0  0  0  0  0
   -4.8486    0.1680    2.1962 H   0  0  0  0  0  0  0  0  0  0  0  0
   -4.7177   -2.8116    0.3967 C   0  0  0  0  0  0  0  0  0  0  0  0
   -3.9092   -3.3027    0.9756 H   0  0  0  0  0  0  0  0  0  0  0  0
   -4.6230   -3.1288   -0.6616 H   0  0  0  0  0  0  0  0  0  0  0  0
   -5.6850   -3.1987    0.7773 H   0  0  0  0  0  0  0  0  0  0  0  0
   -5.8457   -0.6835   -0.2684 C   0  0  0  0  0  0  0  0  0  0  0  0
   -6.8167   -1.0844    0.0922 H   0  0  0  0  0  0  0  0  0  0  0  0
   -5.7474   -0.9286   -1.3453 H   0  0  0  0  0  0  0  0  0  0  0  0
   -5.8820    0.4205   -0.1788 H   0  0  0  0  0  0  0  0  0  0  0  0
   -1.7697    2.8576   -0.2739 C   0  0  0  0  0  0  0  0  0  0  0  0
   -2.9961    3.5564    0.3391 C   0  0  0  0  0  0  0  0  0  0  0  0
   -3.9125    3.3904   -0.2633 H   0  0  0  0  0  0  0  0  0  0  0  0
   -2.8173    4.6504    0.3781 H   0  0  0  0  0  0  0  0  0  0  0  0
   -3.1981    3.2140    1.3749 H   0  0  0  0  0  0  0  0  0  0  0  0
   -0.5455    3.1838    0.6138 C   0  0  0  0  0  0  0  0  0  0  0  0
   -0.7001    2.8109    1.6479 H   0  0  0  0  0  0  0  0  0  0  0  0
   -0.3819    4.2811    0.6654 H   0  0  0  0  0  0  0  0  0  0  0  0
    0.3619    2.7070    0.1956 H   0  0  0  0  0  0  0  0  0  0  0  0
   -1.5514    3.4315   -1.6934 C   0  0  0  0  0  0  0  0  0  0  0  0
   -2.4382    3.2375   -2.3309 H   0  0  0  0  0  0  0  0  0  0  0  0
   -0.6682    2.9614   -2.1644 H   0  0  0  0  0  0  0  0  0  0  0  0
   -1.3956    4.5305   -1.6472 H   0  0  0  0  0  0  0  0  0  0  0  0
  1  2  1  0  0  0  0
  2  3  1  0  0  0  0
  2  4  1  0  0  0  0
  2  5  1  0  0  0  0
  5  8  1  0  0  0  0
  5  7  1  0  0  0  0
  6  5  1  0  0  0  0
  8  9  1  0  0  0  0
  8 10  1  0  0  0  0
 11 21  1  0  0  0  0
 11  8  1  0  0  0  0
 12 13  1  0  0  0  0
 12 11  1  0  0  0  0
 14 12  1  0  0  0  0
 15 12  1  0  0  0  0
 15 17  1  0  0  0  0
 16 15  1  0  0  0  0
 18  1  1  0  0  0  0
 18 15  1  0  0  0  0
 19 18  1  0  0  0  0
 20 18  1  0  0  0  0
 21 22  1  0  0  0  0
 21 23  1  0  0  0  0
 23 26  1  0  0  0  0
 23 24  1  0  0  0  0
 25 23  1  0  0  0  0
 27 28  1  0  0  0  0
 27 21  1  0  0  0  0
 29 27  1  0  0  0  0
 30 27  1  0  0  0  0
 31 34  1  0  0  0  0
 31  1  1  0  0  0  0
 32 31  1  0  0  0  0
 33 31  1  0  0  0  0
 34 41  2  0  0  0  0
 34 35  1  0  0  0  0
 35 37  2  0  0  0  0
 36 35  1  0  0  0  0
 37 38  1  0  0  0  0
 37 43  1  0  0  0  0
 38 39  1  0  0  0  0
 40 56  1  0  0  0  0
 40 38  2  0  0  0  0
 41 40  1  0  0  0  0
 42 41  1  0  0  0  0
 43 44  1  0  0  0  0
 44 47  1  0  0  0  0
 44 46  1  0  0  0  0
 44 45  1  0  0  0  0
 48 43  1  0  0  0  0
 48 51  1  0  0  0  0
 48 49  1  0  0  0  0
 50 48  1  0  0  0  0
 52 55  1  0  0  0  0
 52 53  1  0  0  0  0
 52 43  1  0  0  0  0
 54 52  1  0  0  0  0
 56 57  1  0  0  0  0
 56 61  1  0  0  0  0
 57 59  1  0  0  0  0
 57 60  1  0  0  0  0
 58 57  1  0  0  0  0
 61 63  1  0  0  0  0
 61 62  1  0  0  0  0
 64 61  1  0  0  0  0
 65 68  1  0  0  0  0
 65 56  1  0  0  0  0
 66 65  1  0  0  0  0
 67 65  1  0  0  0  0
M  CHG  1  42  -1
M  END
