2,3,4
q = -1.0, confidence = 0.004

 29 29  0  0  0  0  0  0  0  0999 V2000
    5.7620   -0.5765   -0.0711 Cl  0  0  0  0  0  0  0  0  0  0  0  0
    0.1222    1.1518    0.0492 O   0  5  0  0  0  0  0  0  0  0  0  0
   -3.1513   -0.8179   -0.1330 N   0  0  0  0  0  0  0  0  0  0  0  0
   -0.5929   -1.4788    0.1027 N   0  0  0  0  0  2  0  0  0  0  0  0
    1.3447    0.7049    0.0189 C   0  0  0  0  0  0  0  0  0  0  0  0
    2.4067    1.6621   -0.0328 C   0  0  0  0  0  0  0  0  0  0  0  0
    2.1186    2.7232   -0.0484 H   0  0  0  0  0  0  0  0  0  0  0  0
    3.7370    1.2704   -0.0607 C   0  0  0  0  0  0  0  0  0  0  0  0
    4.5398    2.0208   -0.1006 H   0  0  0  0  0  0  0  0  0  0  0  0
    4.0773   -0.1073   -0.0363 C   0  0  0  0  0  0  0  0  0  0  0  0
    3.0817   -1.0714    0.0170 C   0  0  0  0  0  3  0  0  0  0  0  0
    3.3510   -2.1379    0.0389 H   0  0  0  0  0  0  0  0  0  0  0  0
    1.7081   -0.6929    0.0443 C   0  0  0  0  0  0  0  0  0  0  0  0
    0.7041   -1.7059    0.1151 C   0  0  0  0  0  0  0  0  0  0  0  0
    1.0464   -2.7576    0.1920 H   0  0  0  0  0  0  0  0  0  0  0  0
   -1.5208   -2.5934    0.2796 C   0  0  0  0  0  0  0  0  0  0  0  0
   -1.7262   -2.7422    1.3639 H   0  0  0  0  0  0  0  0  0  0  0  0
   -1.1027   -3.5499   -0.1033 H   0  0  0  0  0  0  0  0  0  0  0  0
   -2.7907   -2.2219   -0.4651 C   0  0  0  0  0  0  0  0  0  0  0  0
   -2.5977   -2.2593   -1.5552 H   0  0  0  0  0  0  0  0  0  0  0  0
   -3.6347   -2.9120   -0.2392 H   0  0  0  0  0  0  0  0  0  0  0  0
   -4.0396   -0.2500   -1.1683 C   0  0  0  0  0  0  0  0  0  0  0  0
   -5.0085   -0.7977   -1.1909 H   0  0  0  0  0  0  0  0  0  0  0  0
   -3.5490   -0.3287   -2.1564 H   0  0  0  0  0  0  0  0  0  0  0  0
   -4.1960    0.8196   -0.9382 H   0  0  0  0  0  0  0  0  0  0  0  0
   -3.7909   -0.7005    1.1954 C   0  0  0  0  0  0  0  0  0  0  0  0
   -3.9245    0.3752    1.4141 H   0  0  0  0  0  0  0  0  0  0  0  0
   -3.1413   -1.1409    1.9743 H   0  0  0  0  0  0  0  0  0  0  0  0
   -4.7763   -1.2200    1.2053 H   0  0  0  0  0  0  0  0  0  0  0  0
  1 10  1  0  0  0  0
  3 26  1  0  0  0  0
  4 14  1  0  0  0  0
  4 16  1  0  0  0  0
  5 13  1  0  0  0  0
  5  2  1  0  0  0  0
  6  5  2  0  0  0  0
  7  6  1  0  0  0  0
  8 10  2  0  0  0  0
  8  6  1  0  0  0  0
  9  8  1  0  0  0  0
 10 11  1  0  0  0  0
 11 12  1  0  0  0  0
 11 13  1  0  0  0  0
 13 14  2  0  0  0  0
 14 15  1  0  0  0  0
 16 17  1  0  0  0  0
 18 16  1  0  0  0  0
 19 21  1  0  0  0  0
 19  3  1  0  0  0  0
 19 16  1  0  0  0  0
 20 19  1  0  0  0  0
 22 25  1  0  0  0  0
 22  3  1  0  0  0  0
 23 22  1  0  0  0  0
 24 22  1  0  0  0  0
 26 29  1  0  0  0  0
 26 27  1  0  0  0  0
 26 28  1  0  0  0  0
M  CHG  1   2  -1
M  END
