2,3,4
q = -2.0, confidence = 0.73

 24 25  0  0  1  0  0  0  0  0999 V2000
    3.5226   -3.2928   -1.1651 O   0  5  0  0  0  0  0  0  0  0  0  0
    2.0878   -1.5982   -1.1480 O   0  0  0  0  0  0  0  0  0  0  0  0
    0.8992   -2.1999    1.0255 N   0  0  0  0  0  2  0  0  0  0  0  0
   -1.0966   -0.8616   -0.3562 N   0  0  0  0  0  2  0  0  0  0  0  0
   -2.6928   -2.3415    0.1475 N   0  0  0  0  0  0  0  0  0  0  0  0
    2.6675   -2.6509   -0.5928 C   0  0  0  0  0  0  0  0  0  0  0  0
    2.1431   -2.9270    0.8470 C   0  0  0  0  0  0  0  0  0  0  0  0
    2.0313   -4.0221    0.9919 H   0  0  0  0  0  0  0  0  0  0  0  0
    2.9091   -2.5603    1.5629 H   0  0  0  0  0  0  0  0  0  0  0  0
   -0.2318   -2.9800    0.5247 C   0  0  0  0  0  0  0  0  0  0  0  0
   -0.5482   -3.6814    1.3336 H   0  0  0  0  0  0  0  0  0  0  0  0
    0.0341   -3.6293   -0.3485 H   0  0  0  0  0  0  0  0  0  0  0  0
   -1.3516   -2.0725    0.1265 C   0  0  1  0  0  3  0  0  0  0  0  0
   -2.3233   -0.2895   -0.6630 C   0  0  0  0  0  0  0  0  0  0  0  0
   -3.3564   -1.2235   -0.3528 C   0  0  0  0  0  0  0  0  0  0  0  0
   -4.7136   -0.9358   -0.5598 C   0  0  0  0  0  0  0  0  0  0  0  0
   -5.5067   -1.6596   -0.3241 H   0  0  0  0  0  0  0  0  0  0  0  0
   -5.0120    0.3267   -1.0876 C   0  0  0  0  0  0  0  0  0  0  0  0
   -6.0630    0.5958   -1.2678 H   0  0  0  0  0  0  0  0  0  0  0  0
   -3.9964    1.2644   -1.3991 C   0  0  0  0  0  0  0  0  0  0  0  0
   -4.2834    2.2406   -1.8165 H   0  0  0  0  0  0  0  0  0  0  0  0
   -2.6438    0.9735   -1.1942 C   0  0  0  0  0  0  0  0  0  0  0  0
   -1.8530    1.6954   -1.4437 H   0  0  0  0  0  0  0  0  0  0  0  0
   -3.1298   -3.2075    0.4654 H   0  0  0  0  0  0  0  0  0  0  0  0
  1  6  1  0  0  0  0
  2  6  2  0  0  0  0
  4 13  1  0  0  0  0
  5 24  1  0  0  0  0
  6  7  1  0  0  0  0
  7  8  1  0  0  0  0
  7  3  1  0  0  0  0
  7  9  1  0  0  0  0
 10  3  1  0  0  0  0
 10 11  1  0  0  0  0
 12 10  1  0  0  0  0
 13  5  1  0  0  0  0
 13 10  1  6  0  0  0
 14  4  1  0  0  0  0
 14 15  1  0  0  0  0
 15  5  1  0  0  0  0
 16 15  2  0  0  0  0
 16 17  1  0  0  0  0
 18 16  1  0  0  0  0
 19 18  1  0  0  0  0
 20 22  1  0  0  0  0
 20 18  2  0  0  0  0
 21 20  1  0  0  0  0
 22 14  2  0  0  0  0
 23 22  1  0  0  0  0
M  CHG  1   1  -1
M  END
