1,5,6
q = -2.0, confidence = 0.892

 24 25  0  0  1  0  0  0  0  0999 V2000
    0.1508   -2.0862   -0.7539 O   0  5  0  0  0  0  0  0  0  0  0  0
    0.1073   -4.0571    0.3762 O   0  0  0  0  0  0  0  0  0  0  0  0
    1.7742    3.1249   -1.3675 O   0  5  0  0  0  0  0  0  0  0  0  0
   -0.3691    3.1257   -2.1416 O   0  0  0  0  0  0  0  0  0  0  0  0
   -0.2363   -0.6853    1.4340 N   0  0  0  0  0  2  0  0  0  0  0  0
   -0.1334    1.7619    0.6677 N   0  0  0  0  0  2  0  0  0  0  0  0
    0.0467   -2.8311    0.3321 C   0  0  0  0  0  0  0  0  0  0  0  0
   -0.2131   -2.0321    1.6089 C   0  0  2  0  0  3  0  0  0  0  0  0
   -0.4649   -2.5804    2.8682 C   0  0  0  0  0  0  0  0  0  0  0  0
   -0.4348   -3.6747    2.9708 H   0  0  0  0  0  0  0  0  0  0  0  0
   -0.7531   -1.7129    3.9395 C   0  0  0  0  0  0  0  0  0  0  0  0
   -0.9580   -2.1175    4.9415 H   0  0  0  0  0  0  0  0  0  0  0  0
   -0.7874   -0.3240    3.7293 C   0  0  0  0  0  0  0  0  0  0  0  0
   -1.0201    0.3591    4.5582 H   0  0  0  0  0  0  0  0  0  0  0  0
   -0.5203    0.1873    2.4470 C   0  0  0  0  0  0  0  0  0  0  0  0
   -0.4685    1.5884    2.0053 C   0  0  1  0  0  3  0  0  0  0  0  0
   -0.6936    2.6834    2.8509 C   0  0  0  0  0  0  0  0  0  0  0  0
   -0.9669    2.5117    3.9011 H   0  0  0  0  0  0  0  0  0  0  0  0
   -0.5566    3.9852    2.3462 C   0  0  0  0  0  0  0  0  0  0  0  0
   -0.7357    4.8549    2.9958 H   0  0  0  0  0  0  0  0  0  0  0  0
   -0.1746    4.1534    1.0115 C   0  0  0  0  0  0  0  0  0  0  0  0
   -0.0304    5.1533    0.5776 H   0  0  0  0  0  0  0  0  0  0  0  0
    0.0360    3.0281    0.1925 C   0  0  0  0  0  0  0  0  0  0  0  0
    0.5328    3.1310   -1.2462 C   0  0  0  0  0  0  0  0  0  0  0  0
  1  7  1  0  0  0  0
  3 24  1  0  0  0  0
  4 24  2  0  0  0  0
  5  8  1  0  0  0  0
  5 15  1  0  0  0  0
  6 16  1  0  0  0  0
  7  2  2  0  0  0  0
  8  7  1  6  0  0  0
  8  9  1  0  0  0  0
  9 10  1  0  0  0  0
  9 11  2  0  0  0  0
 11 12  1  0  0  0  0
 13 11  1  0  0  0  0
 13 14  1  0  0  0  0
 15 13  2  0  0  0  0
 16 15  1  1  0  0  0
 16 17  1  0  0  0  0
 17 18  1  0  0  0  0
 19 17  2  0  0  0  0
 19 20  1  0  0  0  0
 21 19  1  0  0  0  0
 22 21  1  0  0  0  0
 23  6  1  0  0  0  0
 23 21  2  0  0  0  0
 24 23  1  0  0  0  0
M  CHG  2   1  -1   3  -1
M  END
