1,2,5
q = -1.0

 32 33  0  0  1  0  0  0  0  0999 V2000
   -1.3397   -0.8512    1.0968 O   0  5  0  0  0  0  0  0  0  0  0  0
   -0.8654   -0.5419   -1.7237 N   0  0  0  0  0  0  0  0  0  0  0  0
   -0.0198   -0.7974   -2.2528 H   0  0  0  0  0  0  0  0  0  0  0  0
   -2.8772   -1.4973   -0.6455 C   0  0  0  0  0  0  0  0  0  0  0  0
   -1.1172    1.6318    0.0575 N   0  0  0  0  0  2  0  0  0  0  0  0
   -2.2787    3.2452    1.4322 C   0  0  0  0  0  0  0  0  0  0  0  0
   -2.7157    3.4882    2.4106 H   0  0  0  0  0  0  0  0  0  0  0  0
   -2.5904   -1.0470    0.6756 C   0  0  0  0  0  0  0  0  0  0  0  0
   -3.6743   -0.8439    1.5677 C   0  0  0  0  0  0  0  0  0  0  0  0
   -3.4523   -0.5231    2.5971 H   0  0  0  0  0  0  0  0  0  0  0  0
   -5.2712   -1.5052   -0.1508 C   0  0  0  0  0  0  0  0  0  0  0  0
   -6.3074   -1.6800   -0.4730 H   0  0  0  0  0  0  0  0  0  0  0  0
   -4.2082   -1.7082   -1.0433 C   0  0  0  0  0  0  0  0  0  0  0  0
   -4.4112   -2.0521   -2.0707 H   0  0  0  0  0  0  0  0  0  0  0  0
   -4.9923   -1.0810    1.1596 C   0  0  0  0  0  0  0  0  0  0  0  0
   -5.8153   -0.9265    1.8740 H   0  0  0  0  0  0  0  0  0  0  0  0
   -1.8258    3.7257   -0.8797 C   0  0  0  0  0  0  0  0  0  0  0  0
   -1.9025    4.3717   -1.7660 H   0  0  0  0  0  0  0  0  0  0  0  0
   -1.7166   -1.7596   -1.5586 C   0  0  0  0  0  0  0  0  0  0  0  0
   -2.0748   -2.0950   -2.5556 H   0  0  0  0  0  0  0  0  0  0  0  0
   -1.0607   -2.5551   -1.1492 H   0  0  0  0  0  0  0  0  0  0  0  0
   -1.2536    2.4485   -1.0238 C   0  0  2  0  0  3  0  0  0  0  0  0
   -1.5631    0.5019   -2.5165 C   0  0  0  0  0  0  0  0  0  0  0  0
   -1.5682    0.1873   -3.5819 H   0  0  0  0  0  0  0  0  0  0  0  0
   -2.6180    0.5248   -2.1757 H   0  0  0  0  0  0  0  0  0  0  0  0
   -0.9301    1.8864   -2.3775 C   0  0  0  0  0  0  0  0  0  0  0  0
   -1.3498    2.5547   -3.1529 H   0  0  0  0  0  0  0  0  0  0  0  0
    0.1669    1.8228   -2.5229 H   0  0  0  0  0  0  0  0  0  0  0  0
   -1.6800    2.0020    1.2331 C   0  0  0  0  0  0  0  0  0  0  0  0
   -1.6874    1.2321    2.0199 H   0  0  0  0  0  0  0  0  0  0  0  0
   -2.3156    4.1479    0.3600 C   0  0  0  0  0  0  0  0  0  0  0  0
   -2.7586    5.1479    0.4768 H   0  0  0  0  0  0  0  0  0  0  0  0
  2 19  1  0  0  0  0
  3  2  1  0  0  0  0
  4  8  1  0  0  0  0
  5 29  1  0  0  0  0
  6  7  1  0  0  0  0
  8  1  1  0  0  0  0
  8  9  2  0  0  0  0
  9 10  1  0  0  0  0
 11 15  2  0  0  0  0
 12 11  1  0  0  0  0
 13  4  2  0  0  0  0
 13 11  1  0  0  0  0
 14 13  1  0  0  0  0
 15  9  1  0  0  0  0
 15 16  1  0  0  0  0
 17 31  2  0  0  0  0
 18 17  1  0  0  0  0
 19 21  1  0  0  0  0
 19  4  1  0  0  0  0
 20 19  1  0  0  0  0
 22 26  1  6  0  0  0
 22 17  1  0  0  0  0
 22  5  1  0  0  0  0
 23 26  1  0  0  0  0
 23 25  1  0  0  0  0
 23  2  1  0  0  0  0
 24 23  1  0  0  0  0
 27 26  1  0  0  0  0
 28 26  1  0  0  0  0
 29  6  2  0  0  0  0
 29 30  1  0  0  0  0
 31 32  1  0  0  0  0
 31  6  1  0  0  0  0
M  CHG  1   1  -1
M  END
