1,4,6
q = -1.0

 51 52  0  0  1  0  0  0  0  0999 V2000
    0.0003    0.5418    2.4286 O   0  5  0  0  0  0  0  0  0  0  0  0
    0.0003    2.7832    2.8057 O   0  0  0  0  0  0  0  0  0  0  0  0
    1.2003    1.5380   -0.1170 N   0  0  0  0  0  0  0  0  0  0  0  0
    1.4710    0.2067   -0.0716 N   0  0  0  0  0  2  0  0  0  0  0  0
   -1.2001    1.5382   -0.1170 N   0  0  0  0  0  0  0  0  0  0  0  0
   -1.4712    0.2070   -0.0712 N   0  0  0  0  0  2  0  0  0  0  0  0
    0.0002    2.0564    0.5237 C   0  0  1  0  0  0  0  0  0  0  0  0
    0.0003    3.1487    0.3946 H   0  0  0  0  0  0  0  0  0  0  0  0
    0.0002    1.7839    2.0960 C   0  0  0  0  0  0  0  0  0  0  0  0
    2.2011    2.2373   -0.7354 C   0  0  2  0  0  3  0  0  0  0  0  0
    3.1523    1.2863   -1.1114 C   0  0  0  0  0  0  0  0  0  0  0  0
    4.0924    1.4889   -1.6316 H   0  0  0  0  0  0  0  0  0  0  0  0
    2.6600    0.0272   -0.6821 C   0  0  0  0  0  0  0  0  0  0  0  0
    2.1781    3.7212   -0.8935 C   0  0  0  0  0  0  0  0  0  0  0  0
    2.1451    4.2369    0.0887 H   0  0  0  0  0  0  0  0  0  0  0  0
    1.3042    4.0652   -1.4858 H   0  0  0  0  0  0  0  0  0  0  0  0
    3.0906    4.0543   -1.4202 H   0  0  0  0  0  0  0  0  0  0  0  0
    3.2906   -1.3473   -0.8282 C   0  0  0  0  0  0  0  0  0  0  0  0
    2.3234   -2.2796   -1.5915 C   0  0  0  0  0  0  0  0  0  0  0  0
    1.3941   -2.4516   -1.0143 H   0  0  0  0  0  0  0  0  0  0  0  0
    2.8001   -3.2685   -1.7482 H   0  0  0  0  0  0  0  0  0  0  0  0
    2.0609   -1.8601   -2.5837 H   0  0  0  0  0  0  0  0  0  0  0  0
    4.6095   -1.2231   -1.6113 C   0  0  0  0  0  0  0  0  0  0  0  0
    4.4450   -0.8099   -2.6272 H   0  0  0  0  0  0  0  0  0  0  0  0
    5.0720   -2.2233   -1.7251 H   0  0  0  0  0  0  0  0  0  0  0  0
    5.3387   -0.5747   -1.0847 H   0  0  0  0  0  0  0  0  0  0  0  0
    3.5781   -1.9285    0.5751 C   0  0  0  0  0  0  0  0  0  0  0  0
    2.6417   -2.0946    1.1427 H   0  0  0  0  0  0  0  0  0  0  0  0
    4.2362   -1.2549    1.1597 H   0  0  0  0  0  0  0  0  0  0  0  0
    4.0840   -2.9107    0.4788 H   0  0  0  0  0  0  0  0  0  0  0  0
   -2.2004    2.2377   -0.7359 C   0  0  1  0  0  3  0  0  0  0  0  0
   -3.1518    1.2869   -1.1120 C   0  0  0  0  0  0  0  0  0  0  0  0
   -4.0916    1.4896   -1.6324 H   0  0  0  0  0  0  0  0  0  0  0  0
   -2.6601    0.0278   -0.6820 C   0  0  0  0  0  0  0  0  0  0  0  0
   -2.1768    3.7215   -0.8947 C   0  0  0  0  0  0  0  0  0  0  0  0
   -2.1439    4.2376    0.0873 H   0  0  0  0  0  0  0  0  0  0  0  0
   -3.0889    4.0547   -1.4218 H   0  0  0  0  0  0  0  0  0  0  0  0
   -1.3025    4.0649   -1.4867 H   0  0  0  0  0  0  0  0  0  0  0  0
   -3.2911   -1.3466   -0.8279 C   0  0  0  0  0  0  0  0  0  0  0  0
   -4.6100   -1.2221   -1.6108 C   0  0  0  0  0  0  0  0  0  0  0  0
   -5.3390   -0.5733   -1.0843 H   0  0  0  0  0  0  0  0  0  0  0  0
   -5.0729   -2.2222   -1.7244 H   0  0  0  0  0  0  0  0  0  0  0  0
   -4.4456   -0.8091   -2.6269 H   0  0  0  0  0  0  0  0  0  0  0  0
   -2.3242   -2.2792   -1.5912 C   0  0  0  0  0  0  0  0  0  0  0  0
   -2.0617   -1.8599   -2.5835 H   0  0  0  0  0  0  0  0  0  0  0  0
   -2.8013   -3.2680   -1.7477 H   0  0  0  0  0  0  0  0  0  0  0  0
   -1.3949   -2.4514   -1.0141 H   0  0  0  0  0  0  0  0  0  0  0  0
   -3.5786   -1.9276    0.5756 C   0  0  0  0  0  0  0  0  0  0  0  0
   -4.2365   -1.2537    1.1601 H   0  0  0  0  0  0  0  0  0  0  0  0
   -2.6422   -2.0938    1.1430 H   0  0  0  0  0  0  0  0  0  0  0  0
   -4.0848   -2.9096    0.4793 H   0  0  0  0  0  0  0  0  0  0  0  0
  3  4  1  0  0  0  0
  3  7  1  0  0  0  0
  5  6  1  0  0  0  0
  5  7  1  0  0  0  0
  7  8  1  6  0  0  0
  7  9  1  0  0  0  0
  9  1  1  0  0  0  0
  9  2  2  0  0  0  0
 10 14  1  1  0  0  0
 10  3  1  0  0  0  0
 11 10  1  0  0  0  0
 11 13  2  0  0  0  0
 12 11  1  0  0  0  0
 13  4  1  0  0  0  0
 14 15  1  0  0  0  0
 16 14  1  0  0  0  0
 17 14  1  0  0  0  0
 18 13  1  0  0  0  0
 18 27  1  0  0  0  0
 19 20  1  0  0  0  0
 19 18  1  0  0  0  0
 21 19  1  0  0  0  0
 22 19  1  0  0  0  0
 23 26  1  0  0  0  0
 23 18  1  0  0  0  0
 24 23  1  0  0  0  0
 25 23  1  0  0  0  0
 27 28  1  0  0  0  0
 27 29  1  0  0  0  0
 30 27  1  0  0  0  0
 31 35  1  1  0  0  0
 31  5  1  0  0  0  0
 32 31  1  0  0  0  0
 32 34  2  0  0  0  0
 33 32  1  0  0  0  0
 34  6  1  0  0  0  0
 35 36  1  0  0  0  0
 37 35  1  0  0  0  0
 38 35  1  0  0  0  0
 39 34  1  0  0  0  0
 39 48  1  0  0  0  0
 40 41  1  0  0  0  0
 40 39  1  0  0  0  0
 42 40  1  0  0  0  0
 43 40  1  0  0  0  0
 44 47  1  0  0  0  0
 44 39  1  0  0  0  0
 45 44  1  0  0  0  0
 46 44  1  0  0  0  0
 48 50  1  0  0  0  0
 48 49  1  0  0  0  0
 51 48  1  0  0  0  0
M  CHG  1   1  -1
M  END
