1,2,3
q = -1.0

 31 32  0  0  0  0  0  0  0  0999 V2000
   -1.0676   -0.1174    0.9802 O   0  5  0  0  0  0  0  0  0  0  0  0
    0.0067    0.7576   -1.5005 N   0  0  0  0  0  2  0  0  0  0  0  0
    1.7023    1.0971    0.7720 N   0  0  0  0  0  2  0  0  0  0  0  0
    2.9665    2.3045    2.1153 N   0  0  0  0  0  0  0  0  0  0  0  0
   -1.2432    1.1195   -1.6799 C   0  0  0  0  0  3  0  0  0  0  0  0
   -1.4489    1.8267   -2.5140 H   0  0  0  0  0  0  0  0  0  0  0  0
    1.0366    1.5450   -2.1673 C   0  0  0  0  0  0  0  0  0  0  0  0
    0.6404    2.0008   -3.1029 H   0  0  0  0  0  0  0  0  0  0  0  0
    1.8859    0.8872   -2.4374 H   0  0  0  0  0  0  0  0  0  0  0  0
    1.5017    2.6840   -1.2420 C   0  0  0  0  0  0  0  0  0  0  0  0
    2.2837    3.2802   -1.7569 H   0  0  0  0  0  0  0  0  0  0  0  0
    0.6347    3.3669   -1.0979 H   0  0  0  0  0  0  0  0  0  0  0  0
   -2.3688    0.7519   -0.8770 C   0  0  0  0  0  0  0  0  0  0  0  0
   -2.2118    0.2135    0.4602 C   0  0  0  0  0  0  0  0  0  0  0  0
   -3.3951    0.0798    1.2534 C   0  0  0  0  0  0  0  0  0  0  0  0
   -3.2607   -0.3159    2.2715 H   0  0  0  0  0  0  0  0  0  0  0  0
   -4.6640    0.3945    0.7725 C   0  0  0  0  0  0  0  0  0  0  0  0
   -4.7994    0.9068   -0.5527 C   0  0  0  0  0  0  0  0  0  0  0  0
   -5.7972    1.1648   -0.9388 H   0  0  0  0  0  0  0  0  0  0  0  0
   -3.6746    1.0919   -1.3381 C   0  0  0  0  0  0  0  0  0  0  0  0
   -3.7746    1.5150   -2.3514 H   0  0  0  0  0  0  0  0  0  0  0  0
    2.0171    2.2823    0.1148 C   0  0  0  0  0  0  0  0  0  0  0  0
    2.2849    1.1392    1.9711 C   0  0  0  0  0  3  0  0  0  0  0  0
    2.2455    0.3460    2.7249 H   0  0  0  0  0  0  0  0  0  0  0  0
    2.8167    3.0408    0.9570 C   0  0  0  0  0  0  0  0  0  0  0  0
    3.2712    4.0270    0.8251 H   0  0  0  0  0  0  0  0  0  0  0  0
   -5.8913    0.1992    1.6243 C   0  0  0  0  0  0  0  0  0  0  0  0
   -5.6367   -0.1620    2.6388 H   0  0  0  0  0  0  0  0  0  0  0  0
   -6.5821   -0.5368    1.1609 H   0  0  0  0  0  0  0  0  0  0  0  0
   -6.4614    1.1466    1.7260 H   0  0  0  0  0  0  0  0  0  0  0  0
    3.5036    2.5788    2.9380 H   0  0  0  0  0  0  0  0  0  0  0  0
  3 23  1  0  0  0  0
  4 31  1  0  0  0  0
  5  2  1  0  0  0  0
  5 13  1  0  0  0  0
  6  5  1  0  0  0  0
  7  2  1  0  0  0  0
  7 10  1  0  0  0  0
  8  7  1  0  0  0  0
  9  7  1  0  0  0  0
 10 12  1  0  0  0  0
 10 22  1  0  0  0  0
 11 10  1  0  0  0  0
 13 14  1  0  0  0  0
 14  1  1  0  0  0  0
 14 15  2  0  0  0  0
 15 16  1  0  0  0  0
 17 15  1  0  0  0  0
 17 27  1  0  0  0  0
 18 17  2  0  0  0  0
 19 18  1  0  0  0  0
 20 13  2  0  0  0  0
 20 18  1  0  0  0  0
 21 20  1  0  0  0  0
 22  3  1  0  0  0  0
 22 25  2  0  0  0  0
 23  4  1  0  0  0  0
 23 24  1  0  0  0  0
 25  4  1  0  0  0  0
 26 25  1  0  0  0  0
 27 30  1  0  0  0  0
 27 28  1  0  0  0  0
 29 27  1  0  0  0  0
M  CHG  1   1  -1
M  END
