1,9,16
q = -1.0

 28 29  0  0  0  0  0  0  0  0999 V2000
    3.8117    0.8382    1.4482 O   0  5  0  0  0  0  0  0  0  0  0  0
    5.0328    0.9021    1.9218 C   0  0  0  0  0  0  0  0  0  0  0  0
    5.3479    1.8105    2.9683 C   0  0  0  0  0  0  0  0  0  0  0  0
    6.6408    1.8758    3.4832 C   0  0  0  0  0  0  0  0  0  0  0  0
    7.6625    1.0169    3.0127 C   0  0  0  0  0  0  0  0  0  0  0  0
    7.3643    0.0863    2.0227 C   0  0  0  0  0  0  0  0  0  0  0  0
    6.0674    0.0186    1.4482 C   0  0  0  0  0  0  0  0  0  0  0  0
    5.7332   -1.0517    0.5463 C   0  0  0  0  0  3  0  0  0  0  0  0
    4.6517   -1.1343   -0.1799 N   0  0  0  0  0  2  0  0  0  0  0  0
    4.3427   -2.4060   -0.8256 C   0  0  0  0  0  0  0  0  0  0  0  0
    4.3910   -2.3177   -2.3562 C   0  0  0  0  0  0  0  0  0  0  0  0
    3.2974   -1.4752   -2.9310 C   0  0  0  0  0  0  0  0  0  0  0  0
    2.5931   -1.6233   -4.1148 C   0  0  0  0  0  0  0  0  0  0  0  0
    1.7193   -0.5532   -4.1697 N   0  0  0  0  0  0  0  0  0  0  0  0
    1.8901    0.1994   -3.0526 C   0  0  0  0  0  3  0  0  0  0  0  0
    2.8392   -0.3402   -2.2881 N   0  0  0  0  0  2  0  0  0  0  0  0
    4.5446    2.4658    3.3333 H   0  0  0  0  0  0  0  0  0  0  0  0
    6.8681    2.6072    4.2744 H   0  0  0  0  0  0  0  0  0  0  0  0
    8.6753    1.0760    3.4360 H   0  0  0  0  0  0  0  0  0  0  0  0
    8.1376   -0.6122    1.6645 H   0  0  0  0  0  0  0  0  0  0  0  0
    6.4360   -1.9132    0.5275 H   0  0  0  0  0  0  0  0  0  0  0  0
    5.0579   -3.1834   -0.4801 H   0  0  0  0  0  0  0  0  0  0  0  0
    3.3228   -2.6904   -0.4904 H   0  0  0  0  0  0  0  0  0  0  0  0
    5.3829   -1.9151   -2.6599 H   0  0  0  0  0  0  0  0  0  0  0  0
    4.3214   -3.3403   -2.7778 H   0  0  0  0  0  0  0  0  0  0  0  0
    2.6444   -2.3830   -4.9000 H   0  0  0  0  0  0  0  0  0  0  0  0
    1.0404   -0.3671   -4.9082 H   0  0  0  0  0  0  0  0  0  0  0  0
    1.3269    1.1084   -2.8193 H   0  0  0  0  0  0  0  0  0  0  0  0
  1  2  1  0  0  0  0
  2  3  1  0  0  0  0
  3 17  1  0  0  0  0
  3  4  2  0  0  0  0
  4 18  1  0  0  0  0
  5 19  1  0  0  0  0
  5  4  1  0  0  0  0
  6  5  2  0  0  0  0
  7  2  2  0  0  0  0
  7  6  1  0  0  0  0
  8  7  1  0  0  0  0
  9  8  1  0  0  0  0
 10 23  1  0  0  0  0
 10 22  1  0  0  0  0
 10  9  1  0  0  0  0
 11 10  1  0  0  0  0
 12 11  1  0  0  0  0
 12 16  1  0  0  0  0
 13 12  2  0  0  0  0
 14 13  1  0  0  0  0
 14 15  1  0  0  0  0
 15 28  1  0  0  0  0
 15 16  1  0  0  0  0
 20  6  1  0  0  0  0
 21  8  1  0  0  0  0
 24 11  1  0  0  0  0
 25 11  1  0  0  0  0
 26 13  1  0  0  0  0
 27 14  1  0  0  0  0
M  CHG  1   1  -1
M  END
