1,3,4
q = -1.0

 39 39  0  0  0  0  0  0  0  0999 V2000
    1.1030    0.2101    0.1095 O   0  5  0  0  0  0  0  0  0  0  0  0
    3.4376    1.3701    0.0185 O   0  0  0  0  0  0  0  0  0  0  0  0
   -0.3881   -2.1221    0.2323 N   0  0  0  0  0  2  0  0  0  0  0  0
   -2.7576   -0.7434    0.0591 N   0  0  0  0  0  0  0  0  0  0  0  0
    2.0532   -2.0212    0.1937 C   0  0  0  0  0  0  0  0  0  0  0  0
    2.1298   -0.5905    0.1257 C   0  0  0  0  0  0  0  0  0  0  0  0
    3.4434    0.0046    0.0773 C   0  0  0  0  0  0  0  0  0  0  0  0
    4.5886   -0.7904    0.0966 C   0  0  0  0  0  0  0  0  0  0  0  0
    5.5825   -0.3237    0.0616 H   0  0  0  0  0  0  0  0  0  0  0  0
   -1.6093   -2.8922    0.4046 C   0  0  0  0  0  0  0  0  0  0  0  0
   -1.4917   -3.9343    0.0355 H   0  0  0  0  0  0  0  0  0  0  0  0
   -1.8459   -2.9466    1.4903 H   0  0  0  0  0  0  0  0  0  0  0  0
    0.7856   -2.6910    0.2460 C   0  0  0  0  0  3  0  0  0  0  0  0
    0.8133   -3.7976    0.3068 H   0  0  0  0  0  0  0  0  0  0  0  0
    3.2440   -2.8050    0.2047 C   0  0  0  0  0  0  0  0  0  0  0  0
    3.1521   -3.9011    0.2515 H   0  0  0  0  0  0  0  0  0  0  0  0
   -3.4212   -0.6123    1.3937 C   0  0  0  0  0  0  0  0  0  0  0  0
   -2.7648   -1.1122    2.1281 H   0  0  0  0  0  0  0  0  0  0  0  0
   -4.3871   -1.1671    1.3545 H   0  0  0  0  0  0  0  0  0  0  0  0
    4.4907   -2.2038    0.1580 C   0  0  0  0  0  0  0  0  0  0  0  0
    5.4074   -2.8103    0.1683 H   0  0  0  0  0  0  0  0  0  0  0  0
   -2.7140   -2.1733   -0.3531 C   0  0  0  0  0  0  0  0  0  0  0  0
   -3.6953   -2.6691   -0.1864 H   0  0  0  0  0  0  0  0  0  0  0  0
   -2.4793   -2.1900   -1.4351 H   0  0  0  0  0  0  0  0  0  0  0  0
    4.6823    2.0352   -0.0067 C   0  0  0  0  0  0  0  0  0  0  0  0
    4.4602    3.1189   -0.0355 H   0  0  0  0  0  0  0  0  0  0  0  0
    5.2798    1.7641   -0.9067 H   0  0  0  0  0  0  0  0  0  0  0  0
    5.2897    1.8170    0.9010 H   0  0  0  0  0  0  0  0  0  0  0  0
   -3.4441    0.0813   -0.9808 C   0  0  0  0  0  0  0  0  0  0  0  0
   -3.3150    1.1364   -0.6791 H   0  0  0  0  0  0  0  0  0  0  0  0
   -2.8484   -0.0487   -1.9043 H   0  0  0  0  0  0  0  0  0  0  0  0
   -3.6489    0.8213    1.8517 C   0  0  0  0  0  0  0  0  0  0  0  0
   -3.9412    0.8128    2.9201 H   0  0  0  0  0  0  0  0  0  0  0  0
   -4.4578    1.3287    1.2889 H   0  0  0  0  0  0  0  0  0  0  0  0
   -2.7221    1.4159    1.7543 H   0  0  0  0  0  0  0  0  0  0  0  0
   -4.9164   -0.2474   -1.2208 C   0  0  0  0  0  0  0  0  0  0  0  0
   -5.3007    0.4073   -2.0283 H   0  0  0  0  0  0  0  0  0  0  0  0
   -5.5518   -0.0744   -0.3290 H   0  0  0  0  0  0  0  0  0  0  0  0
   -5.0705   -1.2936   -1.5541 H   0  0  0  0  0  0  0  0  0  0  0  0
  1  6  1  0  0  0  0
  2  7  1  0  0  0  0
  3 13  1  0  0  0  0
  3 10  1  0  0  0  0
  4 17  1  0  0  0  0
  5 15  1  0  0  0  0
  5 13  1  0  0  0  0
  6  5  2  0  0  0  0
  7  8  2  0  0  0  0
  7  6  1  0  0  0  0
  8 20  1  0  0  0  0
  9  8  1  0  0  0  0
 10 12  1  0  0  0  0
 11 10  1  0  0  0  0
 13 14  1  0  0  0  0
 15 16  1  0  0  0  0
 17 32  1  0  0  0  0
 17 18  1  0  0  0  0
 19 17  1  0  0  0  0
 20 21  1  0  0  0  0
 20 15  2  0  0  0  0
 22 23  1  0  0  0  0
 22  4  1  0  0  0  0
 22 10  1  0  0  0  0
 24 22  1  0  0  0  0
 25  2  1  0  0  0  0
 25 28  1  0  0  0  0
 26 25  1  0  0  0  0
 27 25  1  0  0  0  0
 29 30  1  0  0  0  0
 29  4  1  0  0  0  0
 31 29  1  0  0  0  0
 32 33  1  0  0  0  0
 34 32  1  0  0  0  0
 35 32  1  0  0  0  0
 36 29  1  0  0  0  0
 36 38  1  0  0  0  0
 37 36  1  0  0  0  0
 39 36  1  0  0  0  0
M  CHG  1   1  -1
M  END
