1,2,5
q = -1.0

 52 53  0  0  1  0  0  0  0  0999 V2000
    0.0120    0.9921   -0.1213 O   0  0  0  0  0  1  0  0  0  0  0  0
   -3.7787   -0.3244    0.0000 N   0  0  0  0  0  2  0  0  0  0  0  0
   -5.9722   -0.2768   -0.0115 N   0  0  0  0  0  0  0  0  0  0  0  0
   -6.9233    0.0807   -0.1006 H   0  0  0  0  0  0  0  0  0  0  0  0
   -1.1707   -1.6464   -0.2436 N   0  0  0  0  0  2  0  0  0  0  0  0
   -4.8449    0.4572   -0.1922 C   0  0  0  0  0  3  0  0  0  0  0  0
   -4.7813    1.5301   -0.4134 H   0  0  0  0  0  0  0  0  0  0  0  0
   -5.6149   -1.5756    0.3041 C   0  0  0  0  0  0  0  0  0  0  0  0
   -6.3512   -2.3611    0.4966 H   0  0  0  0  0  0  0  0  0  0  0  0
   -4.2309   -1.5963    0.3129 C   0  0  0  0  0  0  0  0  0  0  0  0
   -3.2738   -2.7126    0.5762 C   0  0  0  0  0  0  0  0  0  0  0  0
   -3.8191   -3.6760    0.5352 H   0  0  0  0  0  0  0  0  0  0  0  0
   -2.8465   -2.6217    1.5991 H   0  0  0  0  0  0  0  0  0  0  0  0
   -2.1204   -2.7389   -0.4354 C   0  0  0  0  0  0  0  0  0  0  0  0
   -1.5835   -3.7083   -0.3507 H   0  0  0  0  0  0  0  0  0  0  0  0
   -2.5384   -2.6827   -1.4655 H   0  0  0  0  0  0  0  0  0  0  0  0
    0.1085   -1.9492   -0.2229 C   0  0  0  0  0  0  0  0  0  0  0  0
    0.3522   -3.0289   -0.3037 H   0  0  0  0  0  0  0  0  0  0  0  0
    1.2440   -1.0891   -0.1186 C   0  0  0  0  0  0  0  0  0  0  0  0
    2.5253   -1.7197   -0.0762 C   0  0  0  0  0  0  0  0  0  0  0  0
    2.5483   -2.8188   -0.1118 H   0  0  0  0  0  0  0  0  0  0  0  0
    3.6992   -0.9888    0.0059 C   0  0  0  0  0  0  0  0  0  0  0  0
    3.5698    0.4317    0.0418 C   0  0  0  0  0  0  0  0  0  0  0  0
    4.4936    1.0221    0.1073 H   0  0  0  0  0  0  0  0  0  0  0  0
    2.3626    1.1237    0.0010 C   0  0  0  0  0  0  0  0  0  0  0  0
    1.1393    0.3485   -0.0801 C   0  0  1  0  0  3  0  0  0  0  0  0
    5.0983   -1.6231    0.0574 C   0  0  0  0  0  0  0  0  0  0  0  0
    5.0350   -3.1588    0.0053 C   0  0  0  0  0  0  0  0  0  0  0  0
    6.0592   -3.5816    0.0443 H   0  0  0  0  0  0  0  0  0  0  0  0
    4.5605   -3.5186   -0.9302 H   0  0  0  0  0  0  0  0  0  0  0  0
    4.4686   -3.5758    0.8628 H   0  0  0  0  0  0  0  0  0  0  0  0
    5.9301   -1.1288   -1.1481 C   0  0  0  0  0  0  0  0  0  0  0  0
    6.0359   -0.0256   -1.1497 H   0  0  0  0  0  0  0  0  0  0  0  0
    5.4514   -1.4216   -2.1045 H   0  0  0  0  0  0  0  0  0  0  0  0
    6.9510   -1.5641   -1.1236 H   0  0  0  0  0  0  0  0  0  0  0  0
    5.8002   -1.2086    1.3708 C   0  0  0  0  0  0  0  0  0  0  0  0
    5.9023   -0.1080    1.4525 H   0  0  0  0  0  0  0  0  0  0  0  0
    6.8194   -1.6454    1.4243 H   0  0  0  0  0  0  0  0  0  0  0  0
    5.2263   -1.5589    2.2524 H   0  0  0  0  0  0  0  0  0  0  0  0
    2.3025    2.6622    0.0462 C   0  0  0  0  0  0  0  0  0  0  0  0
    3.7099    3.2806    0.1351 C   0  0  0  0  0  0  0  0  0  0  0  0
    3.6221    4.3851    0.1640 H   0  0  0  0  0  0  0  0  0  0  0  0
    4.3380    3.0207   -0.7418 H   0  0  0  0  0  0  0  0  0  0  0  0
    4.2480    2.9668    1.0532 H   0  0  0  0  0  0  0  0  0  0  0  0
    1.6268    3.2013   -1.2381 C   0  0  0  0  0  0  0  0  0  0  0  0
    1.6233    4.3112   -1.2219 H   0  0  0  0  0  0  0  0  0  0  0  0
    0.5803    2.8545   -1.3141 H   0  0  0  0  0  0  0  0  0  0  0  0
    2.1819    2.8746   -2.1415 H   0  0  0  0  0  0  0  0  0  0  0  0
    1.5011    3.1231    1.2883 C   0  0  0  0  0  0  0  0  0  0  0  0
    1.9602    2.7316    2.2195 H   0  0  0  0  0  0  0  0  0  0  0  0
    0.4493    2.7872    1.2367 H   0  0  0  0  0  0  0  0  0  0  0  0
    1.5062    4.2317    1.3458 H   0  0  0  0  0  0  0  0  0  0  0  0
  2 10  1  0  0  0  0
  3  8  1  0  0  0  0
  4  3  1  0  0  0  0
  5 17  1  0  0  0  0
  6  3  1  0  0  0  0
  6  2  1  0  0  0  0
  7  6  1  0  0  0  0
  8 10  2  0  0  0  0
  8  9  1  0  0  0  0
 10 11  1  0  0  0  0
 11 13  1  0  0  0  0
 12 11  1  0  0  0  0
 14 15  1  0  0  0  0
 14  5  1  0  0  0  0
 14 11  1  0  0  0  0
 16 14  1  0  0  0  0
 17 19  2  0  0  0  0
 18 17  1  0  0  0  0
 19 26  1  0  0  0  0
 19 20  1  0  0  0  0
 20 22  2  0  0  0  0
 21 20  1  0  0  0  0
 22 23  1  0  0  0  0
 22 27  1  0  0  0  0
 23 24  1  0  0  0  0
 25 23  2  0  0  0  0
 25 40  1  0  0  0  0
 26  1  1  6  0  0  0
 26 25  1  0  0  0  0
 27 36  1  0  0  0  0
 28 29  1  0  0  0  0
 28 27  1  0  0  0  0
 28 31  1  0  0  0  0
 30 28  1  0  0  0  0
 32 35  1  0  0  0  0
 32 27  1  0  0  0  0
 33 32  1  0  0  0  0
 34 32  1  0  0  0  0
 36 38  1  0  0  0  0
 36 37  1  0  0  0  0
 36 39  1  0  0  0  0
 40 41  1  0  0  0  0
 40 49  1  0  0  0  0
 41 42  1  0  0  0  0
 41 44  1  0  0  0  0
 43 41  1  0  0  0  0
 45 46  1  0  0  0  0
 45 40  1  0  0  0  0
 47 45  1  0  0  0  0
 48 45  1  0  0  0  0
 49 52  1  0  0  0  0
 49 50  1  0  0  0  0
 51 49  1  0  0  0  0
M  END
