1,2,4
q = -1.0

 28 28  0  0  0  0  0  0  0  0999 V2000
    2.1908    1.4591    0.1202 N   0  0  0  0  0  2  0  0  0  0  0  0
   -0.4185    1.5494    0.0547 N   0  0  0  0  0  2  0  0  0  0  0  0
   -1.7510    1.4243    0.0355 N   0  0  0  0  0  0  0  0  0  0  0  0
   -1.2822   -0.8444    0.3899 O   0  5  0  0  0  0  0  0  0  0  0  0
    3.5335    1.3305    0.1329 O   0  0  0  0  0  0  0  0  0  0  0  0
    2.5132    3.8393   -0.4402 C   0  0  0  0  0  0  0  0  0  0  0  0
    1.6747    2.6287   -0.1580 C   0  0  0  0  0  0  0  0  0  0  0  0
    0.1968    2.6849   -0.1886 C   0  0  0  0  0  0  0  0  0  0  0  0
   -0.5304    3.9589   -0.4957 C   0  0  0  0  0  0  0  0  0  0  0  0
   -2.1008    0.1251    0.2231 C   0  0  0  0  0  0  0  0  0  0  0  0
   -3.5629   -0.1637    0.2165 C   0  0  0  0  0  0  0  0  0  0  0  0
   -4.5166    0.8521   -0.0103 C   0  0  0  0  0  0  0  0  0  0  0  0
   -5.8834    0.5471   -0.0120 C   0  0  0  0  0  0  0  0  0  0  0  0
   -6.3142   -0.7722    0.2130 C   0  0  0  0  0  0  0  0  0  0  0  0
   -5.3697   -1.7869    0.4417 C   0  0  0  0  0  0  0  0  0  0  0  0
   -4.0017   -1.4851    0.4437 C   0  0  0  0  0  0  0  0  0  0  0  0
    3.5533    3.6538   -0.1166 H   0  0  0  0  0  0  0  0  0  0  0  0
    2.1160    4.7348    0.0762 H   0  0  0  0  0  0  0  0  0  0  0  0
    2.5268    4.0706   -1.5269 H   0  0  0  0  0  0  0  0  0  0  0  0
   -1.6108    3.7410   -0.5763 H   0  0  0  0  0  0  0  0  0  0  0  0
   -0.1726    4.4174   -1.4406 H   0  0  0  0  0  0  0  0  0  0  0  0
   -0.3804    4.7134    0.3060 H   0  0  0  0  0  0  0  0  0  0  0  0
   -4.1567    1.8759   -0.1827 H   0  0  0  0  0  0  0  0  0  0  0  0
   -6.6223    1.3437   -0.1897 H   0  0  0  0  0  0  0  0  0  0  0  0
   -7.3895   -1.0090    0.2118 H   0  0  0  0  0  0  0  0  0  0  0  0
   -5.7046   -2.8200    0.6225 H   0  0  0  0  0  0  0  0  0  0  0  0
   -3.2412   -2.2581    0.6263 H   0  0  0  0  0  0  0  0  0  0  0  0
    3.6410    0.3755    0.5649 H   0  0  0  0  0  0  0  0  0  0  0  0
  1  5  1  0  0  0  0
  3  2  1  0  0  0  0
  3 10  2  0  0  0  0
  5 28  1  0  0  0  0
  6  7  1  0  0  0  0
  6 17  1  0  0  0  0
  6 18  1  0  0  0  0
  7  1  1  0  0  0  0
  8  7  2  0  0  0  0
  8  2  1  0  0  0  0
  9  8  1  0  0  0  0
  9 22  1  0  0  0  0
 10  4  1  0  0  0  0
 11 10  1  0  0  0  0
 11 16  1  0  0  0  0
 12 11  2  0  0  0  0
 13 12  1  0  0  0  0
 13 14  2  0  0  0  0
 14 15  1  0  0  0  0
 15 16  2  0  0  0  0
 15 26  1  0  0  0  0
 16 27  1  0  0  0  0
 19  6  1  0  0  0  0
 20  9  1  0  0  0  0
 21  9  1  0  0  0  0
 23 12  1  0  0  0  0
 24 13  1  0  0  0  0
 25 14  1  0  0  0  0
M  CHG  1   4  -1
M  END
