3,4,11
q = -1.0, confidence = 0.078

 58 60  0  0  1  0  0  0  0  0999 V2000
   -3.3012   -0.1510    0.0932 C   0  0  0  0  0  0  0  0  0  0  0  0
   -3.6815    1.1065    0.8965 C   0  0  0  0  0  0  0  0  0  0  0  0
   -1.0107    0.4545    0.1169 O   0  5  0  0  0  0  0  0  0  0  0  0
    2.7285    0.6044   -0.5496 N   0  0  0  0  0  0  0  0  0  0  0  0
   -1.6136   -1.5482   -1.0788 C   0  0  0  0  0  0  0  0  0  0  0  0
   -2.6449   -2.4511   -1.4678 C   0  0  0  0  0  3  0  0  0  0  0  0
   -2.3729   -3.3317   -2.0732 H   0  0  0  0  0  0  0  0  0  0  0  0
   -0.2717   -1.8217   -1.4749 C   0  0  0  0  0  0  0  0  0  0  0  0
   -0.1001   -2.7533   -2.0510 H   0  0  0  0  0  0  0  0  0  0  0  0
   -1.9216   -0.3857   -0.2821 C   0  0  0  0  0  0  0  0  0  0  0  0
    0.7798   -1.0769   -1.2081 N   0  0  0  0  0  2  0  0  0  0  0  0
    3.0037   -0.3354   -1.6974 C   0  0  2  0  0  0  0  0  0  0  0  0
    4.0776   -0.6269   -1.6624 H   0  0  0  0  0  0  0  0  0  0  0  0
   -3.9639   -2.2409   -1.0975 C   0  0  0  0  0  0  0  0  0  0  0  0
   -4.2533   -1.0814   -0.3207 C   0  0  0  0  0  0  0  0  0  0  0  0
   -5.3036   -0.9190   -0.0384 H   0  0  0  0  0  0  0  0  0  0  0  0
   -5.1824    1.1316    1.2392 C   0  0  0  0  0  0  0  0  0  0  0  0
   -5.8189    1.1470    0.3312 H   0  0  0  0  0  0  0  0  0  0  0  0
   -5.4104    2.0499    1.8169 H   0  0  0  0  0  0  0  0  0  0  0  0
   -5.4834    0.2629    1.8602 H   0  0  0  0  0  0  0  0  0  0  0  0
   -3.3667    2.3628    0.0480 C   0  0  0  0  0  0  0  0  0  0  0  0
   -2.3009    2.4179   -0.2400 H   0  0  0  0  0  0  0  0  0  0  0  0
   -3.6193    3.2799    0.6212 H   0  0  0  0  0  0  0  0  0  0  0  0
   -3.9758    2.3664   -0.8791 H   0  0  0  0  0  0  0  0  0  0  0  0
    3.1314    1.9401   -1.0771 C   0  0  0  0  0  0  0  0  0  0  0  0
    2.7513    2.7313   -0.4086 H   0  0  0  0  0  0  0  0  0  0  0  0
    4.2462    1.9831   -1.0912 H   0  0  0  0  0  0  0  0  0  0  0  0
    3.4449    0.3209    0.7309 C   0  0  0  0  0  0  0  0  0  0  0  0
    3.2207    1.1930    1.3761 H   0  0  0  0  0  0  0  0  0  0  0  0
    4.5395    0.3039    0.5256 H   0  0  0  0  0  0  0  0  0  0  0  0
    2.7019    0.5076   -2.9652 C   0  0  0  0  0  0  0  0  0  0  0  0
    1.7745    0.1508   -3.4539 H   0  0  0  0  0  0  0  0  0  0  0  0
    3.5268    0.3911   -3.6953 H   0  0  0  0  0  0  0  0  0  0  0  0
   -2.8966    1.1561    2.2303 C   0  0  0  0  0  0  0  0  0  0  0  0
   -3.1062    0.2553    2.8437 H   0  0  0  0  0  0  0  0  0  0  0  0
   -3.2100    2.0453    2.8167 H   0  0  0  0  0  0  0  0  0  0  0  0
   -1.8080    1.2164    2.0524 H   0  0  0  0  0  0  0  0  0  0  0  0
    2.5486    1.9671   -2.4816 C   0  0  0  0  0  0  0  0  0  0  0  0
    3.0719    2.6958   -3.1299 H   0  0  0  0  0  0  0  0  0  0  0  0
    1.4853    2.2711   -2.4081 H   0  0  0  0  0  0  0  0  0  0  0  0
    2.1136   -1.5610   -1.5589 C   0  0  0  0  0  0  0  0  0  0  0  0
    2.4855   -2.2334   -0.7585 H   0  0  0  0  0  0  0  0  0  0  0  0
    2.1014   -2.1400   -2.5084 H   0  0  0  0  0  0  0  0  0  0  0  0
   -5.0734   -3.1837   -1.4893 C   0  0  0  0  0  0  0  0  0  0  0  0
   -4.6945   -4.0306   -2.0941 H   0  0  0  0  0  0  0  0  0  0  0  0
   -5.8559   -2.6674   -2.0854 H   0  0  0  0  0  0  0  0  0  0  0  0
   -5.5824   -3.6077   -0.5975 H   0  0  0  0  0  0  0  0  0  0  0  0
    3.8186   -2.1033    1.3896 C   0  0  0  0  0  0  0  0  0  0  0  0
    4.8004   -2.0650    0.8899 H   0  0  0  0  0  0  0  0  0  0  0  0
    1.7684   -0.9975    2.0857 C   0  0  0  0  0  0  0  0  0  0  0  0
    1.1615   -0.0824    2.1643 H   0  0  0  0  0  0  0  0  0  0  0  0
    3.0148   -0.9487    1.4239 C   0  0  0  0  0  0  0  0  0  0  0  0
    1.3224   -2.1967    2.6603 C   0  0  0  0  0  0  0  0  0  0  0  0
    0.3450   -2.2258    3.1651 H   0  0  0  0  0  0  0  0  0  0  0  0
    3.3758   -3.3020    1.9736 C   0  0  0  0  0  0  0  0  0  0  0  0
    4.0128   -4.1988    1.9382 H   0  0  0  0  0  0  0  0  0  0  0  0
    2.1191   -3.3520    2.5971 C   0  0  0  0  0  0  0  0  0  0  0  0
    1.7650   -4.2915    3.0483 H   0  0  0  0  0  0  0  0  0  0  0  0
  1  2  1  0  0  0  0
  2 17  1  0  0  0  0
  2 34  1  0  0  0  0
  4 28  1  0  0  0  0
  5 10  1  0  0  0  0
  6 14  1  0  0  0  0
  6  5  1  0  0  0  0
  7  6  1  0  0  0  0
  8 11  1  0  0  0  0
  8  5  2  0  0  0  0
  9  8  1  0  0  0  0
 10  1  2  0  0  0  0
 10  3  1  0  0  0  0
 12 13  1  1  0  0  0
 12 41  1  0  0  0  0
 12  4  1  0  0  0  0
 14 15  2  0  0  0  0
 15 16  1  0  0  0  0
 15  1  1  0  0  0  0
 17 19  1  0  0  0  0
 17 20  1  0  0  0  0
 18 17  1  0  0  0  0
 21 23  1  0  0  0  0
 21  2  1  0  0  0  0
 22 21  1  0  0  0  0
 24 21  1  0  0  0  0
 25  4  1  0  0  0  0
 25 26  1  0  0  0  0
 27 25  1  0  0  0  0
 28 29  1  0  0  0  0
 28 52  1  0  0  0  0
 30 28  1  0  0  0  0
 31 38  1  0  0  0  0
 31 12  1  0  0  0  0
 32 31  1  0  0  0  0
 33 31  1  0  0  0  0
 34 36  1  0  0  0  0
 34 35  1  0  0  0  0
 37 34  1  0  0  0  0
 38 40  1  0  0  0  0
 38 25  1  0  0  0  0
 39 38  1  0  0  0  0
 41 11  1  0  0  0  0
 41 42  1  0  0  0  0
 43 41  1  0  0  0  0
 44 14  1  0  0  0  0
 44 47  1  0  0  0  0
 45 44  1  0  0  0  0
 46 44  1  0  0  0  0
 48 52  2  0  0  0  0
 48 55  1  0  0  0  0
 49 48  1  0  0  0  0
 50 51  1  0  0  0  0
 50 53  2  0  0  0  0
 52 50  1  0  0  0  0
 53 54  1  0  0  0  0
 55 57  2  0  0  0  0
 56 55  1  0  0  0  0
 57 53  1  0  0  0  0
 57 58  1  0  0  0  0
M  CHG  1   3  -1
M  END
