1,2,3
q = -1.0, confidence = 0.004

 34 36  0  0  0  0  0  0  0  0999 V2000
    0.5511    2.5651   -0.7366 O   0  5  0  0  0  0  0  0  0  0  0  0
    0.8465   -1.3225   -1.2539 N   0  0  0  0  0  2  0  0  0  0  0  0
   -0.9609    0.4675   -0.6916 N   0  0  0  0  0  2  0  0  0  0  0  0
   -0.7019    2.7778   -0.4413 C   0  0  0  0  0  0  0  0  0  0  0  0
   -1.2051    4.0750   -0.1441 C   0  0  0  0  0  0  0  0  0  0  0  0
   -0.5031    4.9204   -0.1652 H   0  0  0  0  0  0  0  0  0  0  0  0
   -2.5560    4.2431    0.1458 C   0  0  0  0  0  0  0  0  0  0  0  0
   -2.9393    5.2520    0.3643 H   0  0  0  0  0  0  0  0  0  0  0  0
   -3.4517    3.1432    0.1527 C   0  0  0  0  0  0  0  0  0  0  0  0
   -4.5188    3.3054    0.3627 H   0  0  0  0  0  0  0  0  0  0  0  0
   -2.9866    1.8575   -0.1119 C   0  0  0  0  0  0  0  0  0  0  0  0
   -3.6848    1.0119   -0.1199 H   0  0  0  0  0  0  0  0  0  0  0  0
   -1.6121    1.6553   -0.4024 C   0  0  0  0  0  0  0  0  0  0  0  0
   -1.3407   -0.7708   -0.4688 C   0  0  0  0  0  0  0  0  0  0  0  0
   -2.5736   -1.1606    0.2677 C   0  0  0  0  0  0  0  0  0  0  0  0
   -2.5996   -0.9349    1.6609 C   0  0  0  0  0  0  0  0  0  0  0  0
   -1.7195   -0.4783    2.1398 H   0  0  0  0  0  0  0  0  0  0  0  0
   -3.7339   -1.2867    2.4038 C   0  0  0  0  0  0  0  0  0  0  0  0
   -3.7518   -1.1086    3.4896 H   0  0  0  0  0  0  0  0  0  0  0  0
   -4.8450   -1.8642    1.7659 C   0  0  0  0  0  0  0  0  0  0  0  0
   -5.7364   -2.1353    2.3516 H   0  0  0  0  0  0  0  0  0  0  0  0
   -4.8174   -2.0986    0.3820 C   0  0  0  0  0  0  0  0  0  0  0  0
   -5.6863   -2.5521   -0.1185 H   0  0  0  0  0  0  0  0  0  0  0  0
   -3.6825   -1.7524   -0.3684 C   0  0  0  0  0  0  0  0  0  0  0  0
   -3.6604   -1.9238   -1.4555 H   0  0  0  0  0  0  0  0  0  0  0  0
   -0.3595   -1.7983   -0.8289 C   0  0  0  0  0  0  0  0  0  0  0  0
   -0.5941   -3.1834   -0.7297 C   0  0  0  0  0  0  0  0  0  0  0  0
   -1.5666   -3.5388   -0.3632 H   0  0  0  0  0  0  0  0  0  0  0  0
    0.4198   -4.0764   -1.0993 C   0  0  0  0  0  0  0  0  0  0  0  0
    0.2534   -5.1616   -1.0306 H   0  0  0  0  0  0  0  0  0  0  0  0
    1.6462   -3.5687   -1.5505 C   0  0  0  0  0  0  0  0  0  0  0  0
    2.4696   -4.2317   -1.8499 H   0  0  0  0  0  0  0  0  0  0  0  0
    1.8205   -2.1777   -1.6029 C   0  0  0  0  0  0  0  0  0  0  0  0
    2.7677   -1.7210   -1.9232 H   0  0  0  0  0  0  0  0  0  0  0  0
  1  4  1  0  0  0  0
  2 26  1  0  0  0  0
  3 14  1  0  0  0  0
  3 13  1  0  0  0  0
  4 13  2  0  0  0  0
  4  5  1  0  0  0  0
  5  7  2  0  0  0  0
  6  5  1  0  0  0  0
  7  9  1  0  0  0  0
  7  8  1  0  0  0  0
  9 10  1  0  0  0  0
 11  9  2  0  0  0  0
 12 11  1  0  0  0  0
 13 11  1  0  0  0  0
 14 15  1  0  0  0  0
 15 16  1  0  0  0  0
 16 17  1  0  0  0  0
 16 18  2  0  0  0  0
 18 19  1  0  0  0  0
 20 21  1  0  0  0  0
 20 18  1  0  0  0  0
 22 20  2  0  0  0  0
 23 22  1  0  0  0  0
 24 15  2  0  0  0  0
 24 22  1  0  0  0  0
 25 24  1  0  0  0  0
 26 27  1  0  0  0  0
 26 14  2  0  0  0  0
 27 28  1  0  0  0  0
 29 30  1  0  0  0  0
 29 27  2  0  0  0  0
 31 29  1  0  0  0  0
 32 31  1  0  0  0  0
 33 31  2  0  0  0  0
 33  2  1  0  0  0  0
 34 33  1  0  0  0  0
M  CHG  1   1  -1
M  END
