3,16,17
q = -2.0, confidence = 0.836

 47 50  0  0  1  0  0  0  0  0999 V2000
   -1.6190    0.8107    0.2630 C   0  0  0  0  0  0  0  0  0  0  0  0
   -1.5423    2.1329    0.2916 N   0  0  0  0  0  0  0  0  0  0  0  0
   -0.2303    2.5059    0.2134 N   0  0  0  0  0  2  0  0  0  0  0  0
    0.0798    3.7850    0.2093 C   0  0  0  0  0  0  0  0  0  0  0  0
   -0.7740    4.4846    0.2699 H   0  0  0  0  0  0  0  0  0  0  0  0
    1.3985    4.3438    0.1242 C   0  0  0  0  0  0  0  0  0  0  0  0
    2.6183    3.5718    0.0216 C   0  0  2  0  0  3  0  0  0  0  0  0
    3.8494    4.2883   -0.0847 C   0  0  0  0  0  0  0  0  0  0  0  0
    4.7645    3.6853   -0.1780 H   0  0  0  0  0  0  0  0  0  0  0  0
    3.8942    5.6776   -0.0761 C   0  0  0  0  0  0  0  0  0  0  0  0
    4.8665    6.1881   -0.1589 H   0  0  0  0  0  0  0  0  0  0  0  0
    2.7046    6.4357    0.0348 C   0  0  0  0  0  0  0  0  0  0  0  0
    2.7392    7.5346    0.0420 H   0  0  0  0  0  0  0  0  0  0  0  0
    1.4908    5.7687    0.1294 C   0  0  0  0  0  0  0  0  0  0  0  0
    0.5541    6.3431    0.2102 H   0  0  0  0  0  0  0  0  0  0  0  0
    2.7051    2.2601    0.0149 O   0  0  0  0  0  1  0  0  0  0  0  0
   -0.5435   -0.0287    0.2106 N   0  0  0  0  0  2  0  0  0  0  0  0
   -0.9615   -1.3182    0.1993 N   0  0  0  0  0  0  0  0  0  0  0  0
   -2.2914   -1.3351    0.2325 C   0  0  0  0  0  0  0  0  0  0  0  0
   -3.0515   -2.5769    0.2300 C   0  0  0  0  0  0  0  0  0  0  0  0
   -2.3555   -3.7855   -0.1261 C   0  0  0  0  0  0  0  0  0  0  0  0
   -3.0765   -4.9974   -0.1900 C   0  0  0  0  0  0  0  0  0  0  0  0
   -2.5199   -5.9001   -0.4807 H   0  0  0  0  0  0  0  0  0  0  0  0
   -4.4370   -5.0431    0.1219 C   0  0  0  0  0  0  0  0  0  0  0  0
   -4.9737   -6.0027    0.0692 H   0  0  0  0  0  0  0  0  0  0  0  0
   -5.1149   -3.8744    0.5152 C   0  0  0  0  0  0  0  0  0  0  0  0
   -6.1816   -3.9054    0.7791 H   0  0  0  0  0  0  0  0  0  0  0  0
   -4.4247   -2.6616    0.5687 C   0  0  0  0  0  0  0  0  0  0  0  0
   -4.9552   -1.7568    0.8866 H   0  0  0  0  0  0  0  0  0  0  0  0
   -1.0427   -3.8233   -0.3992 O   0  0  0  0  0  0  0  0  0  0  0  0
   -0.6653   -2.9006   -0.2508 H   0  0  0  0  0  0  0  0  0  0  0  0
   -2.7579   -0.0057    0.2617 N   0  0  0  0  0  0  0  0  0  0  0  0
   -4.0622    0.3497    0.1198 N   0  0  0  0  0  0  0  0  0  0  0  0
   -4.4119    1.6084    0.2379 C   0  0  0  0  0  0  0  0  0  0  0  0
   -3.6585    2.3860    0.4662 H   0  0  0  0  0  0  0  0  0  0  0  0
   -5.7916    2.0015    0.0461 C   0  0  0  0  0  0  0  0  0  0  0  0
   -6.7999    1.0550   -0.3355 C   0  0  0  0  0  0  0  0  0  0  0  0
   -8.1286    1.4969   -0.5121 C   0  0  0  0  0  0  0  0  0  0  0  0
   -8.8836    0.7538   -0.8064 H   0  0  0  0  0  0  0  0  0  0  0  0
   -8.4595    2.8399   -0.3142 C   0  0  0  0  0  0  0  0  0  0  0  0
   -9.5024    3.1635   -0.4539 H   0  0  0  0  0  0  0  0  0  0  0  0
   -7.4768    3.7819    0.0571 C   0  0  0  0  0  0  0  0  0  0  0  0
   -7.7463    4.8371    0.2073 H   0  0  0  0  0  0  0  0  0  0  0  0
   -6.1597    3.3585    0.2304 C   0  0  0  0  0  0  0  0  0  0  0  0
   -5.3759    4.0767    0.5189 H   0  0  0  0  0  0  0  0  0  0  0  0
   -6.5144   -0.2390   -0.5364 O   0  0  0  0  0  0  0  0  0  0  0  0
   -5.5220   -0.3453   -0.3993 H   0  0  0  0  0  0  0  0  0  0  0  0
  1  2  2  0  0  0  0
  3  2  1  0  0  0  0
  4  3  1  0  0  0  0
  4  5  1  0  0  0  0
  6 14  1  0  0  0  0
  6  4  2  0  0  0  0
  7 16  1  6  0  0  0
  7  6  1  0  0  0  0
  8 10  2  0  0  0  0
  8  7  1  0  0  0  0
  9  8  1  0  0  0  0
 10 12  1  0  0  0  0
 11 10  1  0  0  0  0
 12 13  1  0  0  0  0
 12 14  2  0  0  0  0
 14 15  1  0  0  0  0
 17  1  1  0  0  0  0
 18 17  1  0  0  0  0
 18 19  2  0  0  0  0
 19 32  1  0  0  0  0
 20 19  1  0  0  0  0
 20 28  1  0  0  0  0
 21 20  2  0  0  0  0
 22 21  1  0  0  0  0
 22 24  2  0  0  0  0
 23 22  1  0  0  0  0
 24 26  1  0  0  0  0
 25 24  1  0  0  0  0
 26 28  2  0  0  0  0
 26 27  1  0  0  0  0
 28 29  1  0  0  0  0
 30 31  1  0  0  0  0
 30 21  1  0  0  0  0
 32  1  1  0  0  0  0
 33 34  2  0  0  0  0
 33 32  1  0  0  0  0
 34 35  1  0  0  0  0
 36 44  1  0  0  0  0
 36 34  1  0  0  0  0
 37 36  2  0  0  0  0
 38 37  1  0  0  0  0
 38 40  2  0  0  0  0
 39 38  1  0  0  0  0
 40 42  1  0  0  0  0
 41 40  1  0  0  0  0
 42 43  1  0  0  0  0
 42 44  2  0  0  0  0
 44 45  1  0  0  0  0
 46 47  1  0  0  0  0
 46 37  1  0  0  0  0
M  END
