2,3,5
q = -1.0, confidence = 0.02

 31 31  0  0  1  0  0  0  0  0999 V2000
   -4.8960    0.5409   -0.1020 S   0  0  0  0  0  0  0  0  0  0  0  0
    1.1122   -0.7569   -0.0321 O   0  5  0  0  0  0  0  0  0  0  0  0
   -0.9982    0.9435    0.0186 N   0  0  0  0  0  2  0  0  0  0  0  0
   -2.3423    1.2533    0.0588 N   0  0  0  0  0  0  0  0  0  0  0  0
   -2.5630   -0.9822   -0.1196 N   0  0  0  0  0  2  0  0  0  0  0  0
   -0.0835    1.9236    0.0974 C   0  0  1  0  0  3  0  0  0  0  0  0
   -0.5479    3.3535    0.1955 C   0  0  0  0  0  0  0  0  0  0  0  0
   -3.1744    0.1907   -0.0449 C   0  0  2  0  0  3  0  0  0  0  0  0
   -5.5940   -1.0816    0.3341 C   0  0  0  0  0  0  0  0  0  0  0  0
    1.2928    1.6221    0.0937 C   0  0  0  0  0  0  0  0  0  0  0  0
    1.8366    0.3272    0.0223 C   0  0  0  0  0  0  0  0  0  0  0  0
    3.3039    0.1062    0.0268 C   0  0  0  0  0  0  0  0  0  0  0  0
    3.8178   -1.1348    0.4684 C   0  0  0  0  0  0  0  0  0  0  0  0
    5.1973   -1.3675    0.4884 C   0  0  0  0  0  0  0  0  0  0  0  0
    6.0865   -0.3689    0.0575 C   0  0  0  0  0  0  0  0  0  0  0  0
    5.5871    0.8643   -0.3927 C   0  0  0  0  0  0  0  0  0  0  0  0
    4.2078    1.1034   -0.4070 C   0  0  0  0  0  0  0  0  0  0  0  0
   -2.6552    2.1891    0.3294 H   0  0  0  0  0  0  0  0  0  0  0  0
   -3.1579   -1.7940   -0.3045 H   0  0  0  0  0  0  0  0  0  0  0  0
    1.9831    2.4680    0.1831 H   0  0  0  0  0  0  0  0  0  0  0  0
    3.1185   -1.9073    0.8176 H   0  0  0  0  0  0  0  0  0  0  0  0
    5.5851   -2.3325    0.8475 H   0  0  0  0  0  0  0  0  0  0  0  0
    7.1712   -0.5524    0.0709 H   0  0  0  0  0  0  0  0  0  0  0  0
    6.2787    1.6447   -0.7430 H   0  0  0  0  0  0  0  0  0  0  0  0
    3.8312    2.0629   -0.7897 H   0  0  0  0  0  0  0  0  0  0  0  0
   -1.1844    3.6325   -0.6712 H   0  0  0  0  0  0  0  0  0  0  0  0
   -1.1313    3.5326    1.1255 H   0  0  0  0  0  0  0  0  0  0  0  0
    0.3144    4.0418    0.2149 H   0  0  0  0  0  0  0  0  0  0  0  0
   -5.4509   -1.8193   -0.4796 H   0  0  0  0  0  0  0  0  0  0  0  0
   -5.1844   -1.4482    1.2945 H   0  0  0  0  0  0  0  0  0  0  0  0
   -6.6797   -0.9020    0.4489 H   0  0  0  0  0  0  0  0  0  0  0  0
  1  8  1  0  0  0  0
  1  9  1  0  0  0  0
  2 11  1  0  0  0  0
  3  4  1  0  0  0  0
  4 18  1  0  0  0  0
  6  3  1  1  0  0  0
  6  7  1  0  0  0  0
  7 28  1  0  0  0  0
  7 27  1  0  0  0  0
  8  5  1  6  0  0  0
  8  4  1  0  0  0  0
  9 31  1  0  0  0  0
  9 30  1  0  0  0  0
 10  6  1  0  0  0  0
 10 20  1  0  0  0  0
 11 12  1  0  0  0  0
 11 10  2  0  0  0  0
 12 13  1  0  0  0  0
 13 14  2  0  0  0  0
 13 21  1  0  0  0  0
 14 22  1  0  0  0  0
 15 23  1  0  0  0  0
 15 14  1  0  0  0  0
 16 15  2  0  0  0  0
 17 16  1  0  0  0  0
 17 12  2  0  0  0  0
 19  5  1  0  0  0  0
 24 16  1  0  0  0  0
 25 17  1  0  0  0  0
 26  7  1  0  0  0  0
 29  9  1  0  0  0  0
M  CHG  1   2  -1
M  END
