1,2,3
q = -1.0

 31 32  0  0  1  0  0  0  0  0999 V2000
    2.5665   -1.3957   -0.1523 O   0  5  0  0  0  0  0  0  0  0  0  0
    1.3478    1.1096   -0.0190 N   0  0  0  0  0  2  0  0  0  0  0  0
   -1.0773    0.1358   -0.0014 N   0  0  0  0  0  2  0  0  0  0  0  0
   -2.2579    2.0178   -0.0125 N   0  0  0  0  0  0  0  0  0  0  0  0
   -2.4639    3.0159   -0.0192 H   0  0  0  0  0  0  0  0  0  0  0  0
    4.9201   -1.5655   -0.2142 C   0  0  0  0  0  0  0  0  0  0  0  0
    5.8407   -0.9539   -0.2148 H   0  0  0  0  0  0  0  0  0  0  0  0
    4.9431   -2.2666    0.6451 H   0  0  0  0  0  0  0  0  0  0  0  0
    4.8906   -2.1906   -1.1299 H   0  0  0  0  0  0  0  0  0  0  0  0
    3.6642   -0.7312   -0.1396 C   0  0  0  0  0  0  0  0  0  0  0  0
    3.7353    0.6670   -0.0742 C   0  0  0  0  0  0  0  0  0  0  0  0
    4.7301    1.1302   -0.0790 H   0  0  0  0  0  0  0  0  0  0  0  0
    2.6136    1.5357   -0.0308 C   0  0  1  0  0  3  0  0  0  0  0  0
    2.9138    3.0204   -0.0003 C   0  0  0  0  0  0  0  0  0  0  0  0
    2.4652    3.5405   -0.8726 H   0  0  0  0  0  0  0  0  0  0  0  0
    4.0012    3.2102   -0.0107 H   0  0  0  0  0  0  0  0  0  0  0  0
    2.4890    3.4976    0.9077 H   0  0  0  0  0  0  0  0  0  0  0  0
    0.3141    2.1344    0.0227 C   0  0  0  0  0  0  0  0  0  0  0  0
    0.3718    2.8433   -0.8395 H   0  0  0  0  0  0  0  0  0  0  0  0
    0.3880    2.7732    0.9372 H   0  0  0  0  0  0  0  0  0  0  0  0
   -1.0101    1.4548    0.0065 C   0  0  2  0  0  3  0  0  0  0  0  0
   -3.1922    0.9808   -0.0372 C   0  0  0  0  0  0  0  0  0  0  0  0
   -4.5940    0.9571   -0.0670 C   0  0  0  0  0  0  0  0  0  0  0  0
   -5.1942    1.8785   -0.0682 H   0  0  0  0  0  0  0  0  0  0  0  0
   -5.1965   -0.3087   -0.0969 C   0  0  0  0  0  0  0  0  0  0  0  0
   -6.2944   -0.3754   -0.1205 H   0  0  0  0  0  0  0  0  0  0  0  0
   -4.4319   -1.5012   -0.1019 C   0  0  0  0  0  0  0  0  0  0  0  0
   -4.9543   -2.4688   -0.1327 H   0  0  0  0  0  0  0  0  0  0  0  0
   -3.0328   -1.4777   -0.0723 C   0  0  0  0  0  0  0  0  0  0  0  0
   -2.4082   -2.3814   -0.0921 H   0  0  0  0  0  0  0  0  0  0  0  0
   -2.4205   -0.2152   -0.0344 C   0  0  0  0  0  0  0  0  0  0  0  0
  1 10  1  0  0  0  0
  2 18  1  0  0  0  0
  3 21  1  0  0  0  0
  4 21  1  0  0  0  0
  5  4  1  0  0  0  0
  6 10  1  0  0  0  0
  6  8  1  0  0  0  0
  7  6  1  0  0  0  0
  9  6  1  0  0  0  0
 10 11  2  0  0  0  0
 12 11  1  0  0  0  0
 13 11  1  6  0  0  0
 13  2  1  0  0  0  0
 13 14  1  0  0  0  0
 14 17  1  0  0  0  0
 15 14  1  0  0  0  0
 16 14  1  0  0  0  0
 18 20  1  0  0  0  0
 19 18  1  0  0  0  0
 21 18  1  6  0  0  0
 22 31  1  0  0  0  0
 22  4  1  0  0  0  0
 23 22  2  0  0  0  0
 24 23  1  0  0  0  0
 25 23  1  0  0  0  0
 26 25  1  0  0  0  0
 27 25  2  0  0  0  0
 27 29  1  0  0  0  0
 28 27  1  0  0  0  0
 29 31  2  0  0  0  0
 30 29  1  0  0  0  0
 31  3  1  0  0  0  0
M  CHG  1   1  -1
M  END
