1,2,3
q = -1.0

 32 32  0  0  0  0  0  0  0  0999 V2000
   -1.2351   -1.1981    0.2267 O   0  5  0  0  0  0  0  0  0  0  0  0
    2.6714    0.1605   -0.0312 N   0  0  0  0  0  0  0  0  0  0  0  0
   -0.1720    1.5022    0.1570 N   0  0  0  0  0  2  0  0  0  0  0  0
    3.4575   -0.6315    0.9537 C   0  0  0  0  0  0  0  0  0  0  0  0
    3.0972   -0.2126   -1.4064 C   0  0  0  0  0  0  0  0  0  0  0  0
    2.9715    1.5953    0.2166 C   0  0  0  0  0  0  0  0  0  0  0  0
    2.0085    2.5861   -0.4178 C   0  0  0  0  0  0  0  0  0  0  0  0
    0.6827    2.6744    0.3266 C   0  0  0  0  0  0  0  0  0  0  0  0
   -1.4599    1.7448    0.0503 C   0  0  0  0  0  0  0  0  0  0  0  0
   -2.5521    0.8300   -0.0219 C   0  0  0  0  0  0  0  0  0  0  0  0
   -3.8667    1.3676   -0.1700 C   0  0  0  0  0  3  0  0  0  0  0  0
   -4.9871    0.5528   -0.2036 C   0  0  0  0  0  0  0  0  0  0  0  0
   -4.8157   -0.8515   -0.0799 C   0  0  0  0  0  0  0  0  0  0  0  0
   -3.5559   -1.4130    0.0665 C   0  0  0  0  0  0  0  0  0  0  0  0
   -2.3768   -0.5976    0.0926 C   0  0  0  0  0  0  0  0  0  0  0  0
    3.2881   -1.7055    0.7611 H   0  0  0  0  0  0  0  0  0  0  0  0
    4.5371   -0.3739    0.8621 H   0  0  0  0  0  0  0  0  0  0  0  0
    3.1062   -0.3918    1.9745 H   0  0  0  0  0  0  0  0  0  0  0  0
    2.8700   -1.2837   -1.5581 H   0  0  0  0  0  0  0  0  0  0  0  0
    2.5337    0.3809   -2.1491 H   0  0  0  0  0  0  0  0  0  0  0  0
    4.1875   -0.0196   -1.5292 H   0  0  0  0  0  0  0  0  0  0  0  0
    4.0142    1.7841   -0.1285 H   0  0  0  0  0  0  0  0  0  0  0  0
    2.9655    1.7475    1.3153 H   0  0  0  0  0  0  0  0  0  0  0  0
    1.8351    2.3602   -1.4907 H   0  0  0  0  0  0  0  0  0  0  0  0
    2.4873    3.5865   -0.3827 H   0  0  0  0  0  0  0  0  0  0  0  0
    0.8938    2.8104    1.4128 H   0  0  0  0  0  0  0  0  0  0  0  0
    0.1281    3.5795   -0.0039 H   0  0  0  0  0  0  0  0  0  0  0  0
   -1.7524    2.8150    0.0246 H   0  0  0  0  0  0  0  0  0  0  0  0
   -3.9744    2.4614   -0.2541 H   0  0  0  0  0  0  0  0  0  0  0  0
   -5.9916    0.9839   -0.3200 H   0  0  0  0  0  0  0  0  0  0  0  0
   -5.6979   -1.5107   -0.1022 H   0  0  0  0  0  0  0  0  0  0  0  0
   -3.4122   -2.4987    0.1601 H   0  0  0  0  0  0  0  0  0  0  0  0
  2  6  1  0  0  0  0
  2  4  1  0  0  0  0
  3  8  1  0  0  0  0
  4 18  1  0  0  0  0
  5  2  1  0  0  0  0
  6 23  1  0  0  0  0
  7 25  1  0  0  0  0
  7  6  1  0  0  0  0
  7  8  1  0  0  0  0
  8 26  1  0  0  0  0
  9  3  1  0  0  0  0
 10  9  2  0  0  0  0
 10 15  1  0  0  0  0
 11 10  1  0  0  0  0
 12 11  1  0  0  0  0
 12 13  2  0  0  0  0
 13 14  1  0  0  0  0
 14 15  2  0  0  0  0
 14 32  1  0  0  0  0
 15  1  1  0  0  0  0
 16  4  1  0  0  0  0
 17  4  1  0  0  0  0
 19  5  1  0  0  0  0
 20  5  1  0  0  0  0
 21  5  1  0  0  0  0
 22  6  1  0  0  0  0
 24  7  1  0  0  0  0
 27  8  1  0  0  0  0
 28  9  1  0  0  0  0
 29 11  1  0  0  0  0
 30 12  1  0  0  0  0
 31 13  1  0  0  0  0
M  CHG  1   1  -1
M  END
