1,2,3
q = -1.0

 30 32  0  0  1  0  0  0  0  0999 V2000
    2.0930   -1.0559    0.0002 O   0  0  0  0  0  1  0  0  0  0  0  0
   -1.8812   -0.5476   -0.0001 N   0  0  0  0  0  2  0  0  0  0  0  0
    0.1367    1.1572    0.0001 N   0  0  0  0  0  2  0  0  0  0  0  0
   -2.8424   -1.4804   -0.0002 C   0  0  0  0  0  0  0  0  0  0  0  0
   -2.4736   -2.5203   -0.0002 H   0  0  0  0  0  0  0  0  0  0  0  0
   -4.2133   -1.1322   -0.0002 C   0  0  0  0  0  0  0  0  0  0  0  0
   -4.9609   -1.9378   -0.0003 H   0  0  0  0  0  0  0  0  0  0  0  0
   -4.5915    0.2021   -0.0002 C   0  0  0  0  0  0  0  0  0  0  0  0
   -5.6530    0.4926   -0.0003 H   0  0  0  0  0  0  0  0  0  0  0  0
   -3.8637    2.6125   -0.0001 C   0  0  0  0  0  3  0  0  0  0  0  0
   -4.9092    2.9537   -0.0001 H   0  0  0  0  0  0  0  0  0  0  0  0
   -2.8145    3.5237   -0.0000 C   0  0  0  0  0  0  0  0  0  0  0  0
   -3.0279    4.6029   -0.0000 H   0  0  0  0  0  0  0  0  0  0  0  0
   -1.4635    3.0979    0.0000 C   0  0  0  0  0  0  0  0  0  0  0  0
   -0.6681    3.8555    0.0000 H   0  0  0  0  0  0  0  0  0  0  0  0
   -1.1498    1.7359    0.0001 C   0  0  0  0  0  0  0  0  0  0  0  0
   -2.2258    0.7916   -0.0000 C   0  0  0  0  0  0  0  0  0  0  0  0
   -3.5891    1.2151   -0.0001 C   0  0  0  0  0  0  0  0  0  0  0  0
    1.2556    1.8678    0.0003 C   0  0  0  0  0  0  0  0  0  0  0  0
    1.1637    2.9688    0.0007 H   0  0  0  0  0  0  0  0  0  0  0  0
    2.5831    1.3568    0.0002 C   0  0  0  0  0  0  0  0  0  0  0  0
    2.9304   -0.0587   -0.0000 C   0  0  1  0  0  3  0  0  0  0  0  0
    4.3228   -0.3954   -0.0004 C   0  0  0  0  0  0  0  0  0  0  0  0
    4.5659   -1.4673   -0.0005 H   0  0  0  0  0  0  0  0  0  0  0  0
    5.3090    0.5772   -0.0004 C   0  0  0  0  0  0  0  0  0  0  0  0
    6.3672    0.2725   -0.0007 H   0  0  0  0  0  0  0  0  0  0  0  0
    4.9751    1.9594   -0.0002 C   0  0  0  0  0  0  0  0  0  0  0  0
    5.7652    2.7236   -0.0003 H   0  0  0  0  0  0  0  0  0  0  0  0
    3.6420    2.3247    0.0001 C   0  0  0  0  0  0  0  0  0  0  0  0
    3.3630    3.3908    0.0003 H   0  0  0  0  0  0  0  0  0  0  0  0
  2 17  1  0  0  0  0
  3 19  1  0  0  0  0
  4  2  1  0  0  0  0
  5  4  1  0  0  0  0
  6  8  1  0  0  0  0
  6  4  2  0  0  0  0
  7  6  1  0  0  0  0
  8 18  2  0  0  0  0
  9  8  1  0  0  0  0
 10 12  1  0  0  0  0
 11 10  1  0  0  0  0
 12 14  2  0  0  0  0
 13 12  1  0  0  0  0
 14 16  1  0  0  0  0
 15 14  1  0  0  0  0
 16  3  1  0  0  0  0
 17 16  2  0  0  0  0
 18 10  1  0  0  0  0
 18 17  1  0  0  0  0
 19 20  1  0  0  0  0
 21 19  2  0  0  0  0
 22 21  1  0  0  0  0
 22  1  1  1  0  0  0
 23 22  1  0  0  0  0
 24 23  1  0  0  0  0
 25 23  2  0  0  0  0
 25 27  1  0  0  0  0
 26 25  1  0  0  0  0
 27 29  2  0  0  0  0
 28 27  1  0  0  0  0
 29 21  1  0  0  0  0
 29 30  1  0  0  0  0
M  END
