1,4,7
q = -1.0

 28 29  0  0  1  0  0  0  0  0999 V2000
    0.7662   -1.4978   -0.0004 O   0  0  0  0  0  1  0  0  0  0  0  0
    5.9571    2.0704   -0.0001 O   0  0  0  0  0  0  0  0  0  0  0  0
    6.8191    0.0592    0.0008 O   0  0  0  0  0  0  0  0  0  0  0  0
   -0.2486    1.2364   -0.0003 N   0  0  0  0  0  2  0  0  0  0  0  0
   -1.2146    2.2078   -0.0009 N   0  0  0  0  0  0  0  0  0  0  0  0
   -0.9414    3.1927    0.0022 H   0  0  0  0  0  0  0  0  0  0  0  0
   -2.7309    0.4581   -0.0002 N   0  0  0  0  0  2  0  0  0  0  0  0
    5.8630    0.8387    0.0003 N   0  0  0  0  0  0  0  0  0  0  0  0
   -2.5292    1.8147   -0.0001 C   0  0  2  0  0  3  0  0  0  0  0  0
   -3.6086    2.7221    0.0003 C   0  0  0  0  0  0  0  0  0  0  0  0
   -3.4160    3.8042    0.0003 H   0  0  0  0  0  0  0  0  0  0  0  0
   -4.9048    2.2104    0.0006 C   0  0  0  0  0  0  0  0  0  0  0  0
   -5.7624    2.8988    0.0009 H   0  0  0  0  0  0  0  0  0  0  0  0
   -5.1063    0.8144    0.0003 C   0  0  0  0  0  0  0  0  0  0  0  0
   -6.1155    0.3815    0.0005 H   0  0  0  0  0  0  0  0  0  0  0  0
   -4.0002   -0.0287   -0.0001 C   0  0  0  0  0  0  0  0  0  0  0  0
   -4.0562   -1.1293   -0.0003 H   0  0  0  0  0  0  0  0  0  0  0  0
    1.0309    1.5449   -0.0003 C   0  0  0  0  0  0  0  0  0  0  0  0
    1.3083    2.6154   -0.0005 H   0  0  0  0  0  0  0  0  0  0  0  0
    2.0937    0.5797   -0.0001 C   0  0  0  0  0  0  0  0  0  0  0  0
    3.4140    1.0990    0.0000 C   0  0  0  0  0  0  0  0  0  0  0  0
    3.5933    2.1837    0.0001 H   0  0  0  0  0  0  0  0  0  0  0  0
    4.5152    0.2554    0.0001 C   0  0  0  0  0  0  0  0  0  0  0  0
    4.3577   -1.1514   -0.0001 C   0  0  0  0  0  0  0  0  0  0  0  0
    5.2560   -1.7831   -0.0000 H   0  0  0  0  0  0  0  0  0  0  0  0
    3.0834   -1.6870   -0.0003 C   0  0  0  0  0  0  0  0  0  0  0  0
    2.9183   -2.7735   -0.0004 H   0  0  0  0  0  0  0  0  0  0  0  0
    1.9068   -0.8664   -0.0002 C   0  0  2  0  0  3  0  0  0  0  0  0
  2  8  2  0  0  0  0
  5  4  1  0  0  0  0
  5  6  1  0  0  0  0
  7  9  1  0  0  0  0
  7 16  1  0  0  0  0
  8  3  2  0  0  0  0
  9  5  1  6  0  0  0
  9 10  1  0  0  0  0
 10 11  1  0  0  0  0
 10 12  2  0  0  0  0
 12 13  1  0  0  0  0
 14 15  1  0  0  0  0
 14 12  1  0  0  0  0
 16 14  2  0  0  0  0
 17 16  1  0  0  0  0
 18  4  1  0  0  0  0
 18 20  2  0  0  0  0
 19 18  1  0  0  0  0
 20 21  1  0  0  0  0
 21 23  2  0  0  0  0
 21 22  1  0  0  0  0
 23  8  1  0  0  0  0
 24 25  1  0  0  0  0
 24 23  1  0  0  0  0
 26 28  1  0  0  0  0
 26 24  2  0  0  0  0
 27 26  1  0  0  0  0
 28  1  1  6  0  0  0
 28 20  1  0  0  0  0
M  END
