1,2,4
q = -1.0

 29 30  0  0  1  0  0  0  0  0999 V2000
    1.7025   -1.2300    0.0125 O   0  5  0  0  0  0  0  0  0  0  0  0
   -2.0902    0.0109   -0.0018 N   0  0  0  0  0  2  0  0  0  0  0  0
   -0.9795    2.0617    0.0209 N   0  0  0  0  0  0  0  0  0  0  0  0
    0.1620    1.2756    0.0056 N   0  0  0  0  0  2  0  0  0  0  0  0
   -2.1844    1.3830   -0.0042 C   0  0  1  0  0  3  0  0  0  0  0  0
   -3.4524    2.0087   -0.0341 C   0  0  0  0  0  0  0  0  0  0  0  0
   -3.5399    3.1016   -0.0547 H   0  0  0  0  0  0  0  0  0  0  0  0
   -4.6006    1.2191   -0.0472 C   0  0  0  0  0  0  0  0  0  0  0  0
   -5.5884    1.7022   -0.0706 H   0  0  0  0  0  0  0  0  0  0  0  0
   -4.4869   -0.1849   -0.0361 C   0  0  0  0  0  0  0  0  0  0  0  0
   -5.3710   -0.8360   -0.0465 H   0  0  0  0  0  0  0  0  0  0  0  0
   -3.2174   -0.7492   -0.0170 C   0  0  0  0  0  0  0  0  0  0  0  0
   -3.0189   -1.8337   -0.0133 H   0  0  0  0  0  0  0  0  0  0  0  0
   -0.8531    3.5006    0.0739 C   0  0  0  0  0  0  0  0  0  0  0  0
   -0.2532    3.8060    0.9567 H   0  0  0  0  0  0  0  0  0  0  0  0
   -1.8510    3.9553    0.1688 H   0  0  0  0  0  0  0  0  0  0  0  0
   -0.3708    3.8988   -0.8441 H   0  0  0  0  0  0  0  0  0  0  0  0
    1.3731    1.8063   -0.0084 C   0  0  0  0  0  0  0  0  0  0  0  0
    1.4701    2.9028   -0.0210 H   0  0  0  0  0  0  0  0  0  0  0  0
    2.5992    1.0639   -0.0127 C   0  0  0  0  0  0  0  0  0  0  0  0
    2.7019   -0.3832   -0.0014 C   0  0  0  0  0  0  0  0  0  0  0  0
    4.0136   -0.9533   -0.0063 C   0  0  0  0  0  0  0  0  0  0  0  0
    4.0679   -2.0512    0.0025 H   0  0  0  0  0  0  0  0  0  0  0  0
    5.1551   -0.1658   -0.0218 C   0  0  0  0  0  0  0  0  0  0  0  0
    6.1451   -0.6479   -0.0250 H   0  0  0  0  0  0  0  0  0  0  0  0
    5.0590    1.2490   -0.0338 C   0  0  0  0  0  0  0  0  0  0  0  0
    5.9652    1.8712   -0.0463 H   0  0  0  0  0  0  0  0  0  0  0  0
    3.8036    1.8354   -0.0293 C   0  0  0  0  0  3  0  0  0  0  0  0
    3.7125    2.9340   -0.0381 H   0  0  0  0  0  0  0  0  0  0  0  0
  3 14  1  0  0  0  0
  4  3  1  0  0  0  0
  5  2  1  0  0  0  0
  5  3  1  6  0  0  0
  6  5  1  0  0  0  0
  7  6  1  0  0  0  0
  8 10  1  0  0  0  0
  8  6  2  0  0  0  0
  9  8  1  0  0  0  0
 10 12  2  0  0  0  0
 11 10  1  0  0  0  0
 12 13  1  0  0  0  0
 12  2  1  0  0  0  0
 14 16  1  0  0  0  0
 14 15  1  0  0  0  0
 17 14  1  0  0  0  0
 18  4  1  0  0  0  0
 19 18  1  0  0  0  0
 20 18  2  0  0  0  0
 20 21  1  0  0  0  0
 21  1  1  0  0  0  0
 22 21  2  0  0  0  0
 22 23  1  0  0  0  0
 24 22  1  0  0  0  0
 25 24  1  0  0  0  0
 26 28  1  0  0  0  0
 26 24  2  0  0  0  0
 27 26  1  0  0  0  0
 28 20  1  0  0  0  0
 29 28  1  0  0  0  0
M  CHG  1   1  -1
M  END
