1,3,6
q = -1.0

 30 31  0  0  1  0  0  0  0  0999 V2000
    0.9229   -1.5238   -0.0001 O   0  5  0  0  0  0  0  0  0  0  0  0
    6.0428    0.5947    0.0003 O   0  0  0  0  0  0  0  0  0  0  0  0
   -2.5374    0.4814   -0.0001 N   0  0  0  0  0  2  0  0  0  0  0  0
   -0.9948    2.2066   -0.0007 N   0  0  0  0  0  0  0  0  0  0  0  0
   -0.7050    3.1864    0.0003 H   0  0  0  0  0  0  0  0  0  0  0  0
   -0.0436    1.2188   -0.0002 N   0  0  0  0  0  2  0  0  0  0  0  0
   -2.3140    1.8368   -0.0001 C   0  0  1  0  0  3  0  0  0  0  0  0
   -3.3799    2.7615    0.0003 C   0  0  0  0  0  0  0  0  0  0  0  0
   -3.1692    3.8403    0.0003 H   0  0  0  0  0  0  0  0  0  0  0  0
   -4.6842    2.2721    0.0007 C   0  0  0  0  0  0  0  0  0  0  0  0
   -5.5305    2.9744    0.0009 H   0  0  0  0  0  0  0  0  0  0  0  0
   -4.9081    0.8782    0.0006 C   0  0  0  0  0  0  0  0  0  0  0  0
   -5.9242    0.4616    0.0009 H   0  0  0  0  0  0  0  0  0  0  0  0
   -3.8160    0.0177    0.0002 C   0  0  0  0  0  0  0  0  0  0  0  0
   -3.8897   -1.0819    0.0002 H   0  0  0  0  0  0  0  0  0  0  0  0
    1.2447    1.5077   -0.0006 C   0  0  0  0  0  0  0  0  0  0  0  0
    1.5292    2.5772   -0.0010 H   0  0  0  0  0  0  0  0  0  0  0  0
    2.2931    0.5355   -0.0002 C   0  0  0  0  0  0  0  0  0  0  0  0
    2.0769   -0.8972    0.0001 C   0  0  0  0  0  0  0  0  0  0  0  0
    3.2412   -1.7306    0.0004 C   0  0  0  0  0  0  0  0  0  0  0  0
    3.0659   -2.8156    0.0006 H   0  0  0  0  0  0  0  0  0  0  0  0
    4.5213   -1.2106    0.0005 C   0  0  0  0  0  0  0  0  0  0  0  0
    5.4032   -1.8680    0.0008 H   0  0  0  0  0  0  0  0  0  0  0  0
    4.7355    0.1971    0.0002 C   0  0  0  0  0  0  0  0  0  0  0  0
    3.6349    1.0457   -0.0001 C   0  0  0  0  0  3  0  0  0  0  0  0
    3.7664    2.1367   -0.0003 H   0  0  0  0  0  0  0  0  0  0  0  0
    6.3084    1.9798    0.0001 C   0  0  0  0  0  0  0  0  0  0  0  0
    7.4085    2.0932    0.0003 H   0  0  0  0  0  0  0  0  0  0  0  0
    5.8938    2.4842    0.9038 H   0  0  0  0  0  0  0  0  0  0  0  0
    5.8941    2.4839   -0.9038 H   0  0  0  0  0  0  0  0  0  0  0  0
  1 19  1  0  0  0  0
  3  7  1  0  0  0  0
  3 14  1  0  0  0  0
  4  6  1  0  0  0  0
  4  5  1  0  0  0  0
  7  4  1  6  0  0  0
  7  8  1  0  0  0  0
  8 10  2  0  0  0  0
  9  8  1  0  0  0  0
 10 11  1  0  0  0  0
 12 10  1  0  0  0  0
 12 13  1  0  0  0  0
 14 12  2  0  0  0  0
 15 14  1  0  0  0  0
 16  6  1  0  0  0  0
 16 18  2  0  0  0  0
 17 16  1  0  0  0  0
 18 25  1  0  0  0  0
 18 19  1  0  0  0  0
 19 20  2  0  0  0  0
 20 22  1  0  0  0  0
 20 21  1  0  0  0  0
 22 23  1  0  0  0  0
 24  2  1  0  0  0  0
 24 22  2  0  0  0  0
 25 24  1  0  0  0  0
 26 25  1  0  0  0  0
 27 28  1  0  0  0  0
 27  2  1  0  0  0  0
 27 29  1  0  0  0  0
 30 27  1  0  0  0  0
M  CHG  1   1  -1
M  END
