3,4,6
q = -1.0

 29 30  0  0  1  0  0  0  0  0999 V2000
   -3.3577   -2.7897    0.0061 Cl  0  0  0  0  0  0  0  0  0  0  0  0
   -5.8883    2.0135   -0.0222 Cl  0  0  0  0  0  0  0  0  0  0  0  0
   -0.9540   -1.2418    0.0102 O   0  5  0  0  0  0  0  0  0  0  0  0
    0.4763    1.3232    0.0084 N   0  0  0  0  0  2  0  0  0  0  0  0
    1.5799    2.1590    0.0191 N   0  0  0  0  0  0  0  0  0  0  0  0
    2.7813    0.1592   -0.0032 N   0  0  0  0  0  2  0  0  0  0  0  0
    2.8145    1.5337   -0.0020 C   0  0  1  0  0  3  0  0  0  0  0  0
    4.0533    2.2149   -0.0238 C   0  0  0  0  0  0  0  0  0  0  0  0
    4.0930    3.3106   -0.0360 H   0  0  0  0  0  0  0  0  0  0  0  0
    5.2352    1.4766   -0.0367 C   0  0  0  0  0  0  0  0  0  0  0  0
    6.2008    2.0028   -0.0537 H   0  0  0  0  0  0  0  0  0  0  0  0
    5.1837    0.0691   -0.0318 C   0  0  0  0  0  0  0  0  0  0  0  0
    6.0958   -0.5422   -0.0420 H   0  0  0  0  0  0  0  0  0  0  0  0
    3.9408   -0.5513   -0.0174 C   0  0  0  0  0  0  0  0  0  0  0  0
    3.7903   -1.6434   -0.0168 H   0  0  0  0  0  0  0  0  0  0  0  0
    1.3887    3.5918    0.0593 C   0  0  0  0  0  0  0  0  0  0  0  0
    0.8706    3.9539   -0.8539 H   0  0  0  0  0  0  0  0  0  0  0  0
    2.3664    4.0928    0.1255 H   0  0  0  0  0  0  0  0  0  0  0  0
    0.7939    3.8817    0.9507 H   0  0  0  0  0  0  0  0  0  0  0  0
   -0.7565    1.7999    0.0016 C   0  0  0  0  0  0  0  0  0  0  0  0
   -0.9020    2.8905   -0.0045 H   0  0  0  0  0  0  0  0  0  0  0  0
   -1.9533    1.0057   -0.0013 C   0  0  0  0  0  0  0  0  0  0  0  0
   -1.9830   -0.4426    0.0035 C   0  0  0  0  0  0  0  0  0  0  0  0
   -3.2878   -1.0570    0.0003 C   0  0  0  0  0  0  0  0  0  0  0  0
   -4.4651   -0.3195   -0.0073 C   0  0  0  0  0  0  0  0  0  0  0  0
   -5.4338   -0.8361   -0.0095 H   0  0  0  0  0  0  0  0  0  0  0  0
   -4.4028    1.0937   -0.0125 C   0  0  0  0  0  0  0  0  0  0  0  0
   -3.1782    1.7411   -0.0096 C   0  0  0  0  0  3  0  0  0  0  0  0
   -3.1471    2.8402   -0.0134 H   0  0  0  0  0  0  0  0  0  0  0  0
  2 27  1  0  0  0  0
  4  5  1  0  0  0  0
  5 16  1  0  0  0  0
  6  7  1  0  0  0  0
  7  5  1  6  0  0  0
  8  7  1  0  0  0  0
  9  8  1  0  0  0  0
 10 12  1  0  0  0  0
 10  8  2  0  0  0  0
 11 10  1  0  0  0  0
 12 14  2  0  0  0  0
 13 12  1  0  0  0  0
 14 15  1  0  0  0  0
 14  6  1  0  0  0  0
 16 18  1  0  0  0  0
 16 19  1  0  0  0  0
 17 16  1  0  0  0  0
 20  4  1  0  0  0  0
 21 20  1  0  0  0  0
 22 20  2  0  0  0  0
 22 23  1  0  0  0  0
 23  3  1  0  0  0  0
 24 23  2  0  0  0  0
 24  1  1  0  0  0  0
 25 24  1  0  0  0  0
 26 25  1  0  0  0  0
 27 28  1  0  0  0  0
 27 25  2  0  0  0  0
 28 22  1  0  0  0  0
 29 28  1  0  0  0  0
M  CHG  1   3  -1
M  END
