1,3,4
q = -1.0

 33 36  0  0  0  0  0  0  0  0999 V2000
    1.5653   -1.7310   -0.1461 O   0  5  0  0  0  0  0  0  0  0  0  0
    6.1303    1.3540    0.2299 O   0  0  0  0  0  0  0  0  0  0  0  0
   -2.2733   -0.6807    0.0565 N   0  0  0  0  0  2  0  0  0  0  0  0
    0.0040    0.7068   -0.0246 N   0  0  0  0  0  2  0  0  0  0  0  0
   -3.3780   -1.4356    0.1123 C   0  0  0  0  0  0  0  0  0  0  0  0
   -4.6640   -0.8534    0.1477 C   0  0  0  0  0  0  0  0  0  0  0  0
   -4.8043    0.5316    0.1212 C   0  0  0  0  0  0  0  0  0  0  0  0
   -3.6467    1.3510    0.0604 C   0  0  0  0  0  0  0  0  0  0  0  0
   -3.6641    2.7863    0.0205 C   0  0  0  0  0  0  0  0  0  0  0  0
   -2.4854    3.5011   -0.0446 C   0  0  0  0  0  0  0  0  0  0  0  0
   -1.2110    2.8440   -0.0673 C   0  0  0  0  0  0  0  0  0  0  0  0
    0.0485    3.5038   -0.1478 C   0  0  0  0  0  0  0  0  0  0  0  0
    1.2124    2.7636   -0.1485 C   0  0  0  0  0  0  0  0  0  0  0  0
    1.2203    1.3262   -0.0596 C   0  0  0  0  0  0  0  0  0  0  0  0
   -1.1625    1.4280   -0.0221 C   0  0  0  0  0  0  0  0  0  0  0  0
   -2.3860    0.6872    0.0328 C   0  0  0  0  0  0  0  0  0  0  0  0
    2.4688    0.5761   -0.0107 C   0  0  0  0  0  0  0  0  0  0  0  0
    3.7051    1.2987    0.0961 C   0  0  0  0  0  0  0  0  0  0  0  0
    4.9467    0.6806    0.1164 C   0  0  0  0  0  0  0  0  0  0  0  0
    5.0150   -0.7357    0.0238 C   0  0  0  0  0  0  0  0  0  0  0  0
    3.8529   -1.4727   -0.0640 C   0  0  0  0  0  0  0  0  0  0  0  0
    2.5462   -0.8732   -0.0713 C   0  0  0  0  0  0  0  0  0  0  0  0
    5.9385    2.3081    0.2826 H   0  0  0  0  0  0  0  0  0  0  0  0
   -3.1925   -2.5235    0.1226 H   0  0  0  0  0  0  0  0  0  0  0  0
   -5.5426   -1.5122    0.1939 H   0  0  0  0  0  0  0  0  0  0  0  0
   -5.8003    0.9997    0.1453 H   0  0  0  0  0  0  0  0  0  0  0  0
   -4.6346    3.3040    0.0390 H   0  0  0  0  0  0  0  0  0  0  0  0
   -2.5048    4.6010   -0.0808 H   0  0  0  0  0  0  0  0  0  0  0  0
    0.0877    4.6014   -0.2175 H   0  0  0  0  0  0  0  0  0  0  0  0
    2.1674    3.2927   -0.2353 H   0  0  0  0  0  0  0  0  0  0  0  0
    3.6901    2.3932    0.1972 H   0  0  0  0  0  0  0  0  0  0  0  0
    6.0020   -1.2211    0.0352 H   0  0  0  0  0  0  0  0  0  0  0  0
    3.8749   -2.5698   -0.1259 H   0  0  0  0  0  0  0  0  0  0  0  0
  1 22  1  0  0  0  0
  2 23  1  0  0  0  0
  3  5  1  0  0  0  0
  4 15  1  0  0  0  0
  5 24  1  0  0  0  0
  5  6  2  0  0  0  0
  6 25  1  0  0  0  0
  7 26  1  0  0  0  0
  7  6  1  0  0  0  0
  8  7  2  0  0  0  0
  9 27  1  0  0  0  0
  9  8  1  0  0  0  0
 10  9  2  0  0  0  0
 11 10  1  0  0  0  0
 11 15  1  0  0  0  0
 12 11  2  0  0  0  0
 13 12  1  0  0  0  0
 13 14  2  0  0  0  0
 14  4  1  0  0  0  0
 14 17  1  0  0  0  0
 15 16  2  0  0  0  0
 16  3  1  0  0  0  0
 16  8  1  0  0  0  0
 17 18  1  0  0  0  0
 18 19  2  0  0  0  0
 18 31  1  0  0  0  0
 19  2  1  0  0  0  0
 20 32  1  0  0  0  0
 20 19  1  0  0  0  0
 21 20  2  0  0  0  0
 22 21  1  0  0  0  0
 22 17  2  0  0  0  0
 28 10  1  0  0  0  0
 29 12  1  0  0  0  0
 30 13  1  0  0  0  0
 33 21  1  0  0  0  0
M  CHG  1   1  -1
M  END
