10,11,14
q = -1.0

 24 24  0  0  0  0  0  0  0  0999 V2000
    2.6259    2.5366    2.9027 C   0  0  0  0  0  0  0  0  0  0  0  0
   -2.0348   -1.6783    0.3151 C   0  0  0  0  0  0  0  0  0  0  0  0
    0.8033    1.0254    2.3829 C   0  0  0  0  0  0  0  0  0  0  0  0
   -0.3349    0.1611    2.6962 C   0  0  0  0  0  0  0  0  0  0  0  0
   -3.1838   -2.6512   -0.0044 C   0  0  0  0  0  0  0  0  0  0  0  0
    2.9589    2.5639    1.5410 C   0  0  0  0  0  0  0  0  0  0  0  0
    1.5398    1.7601    3.3287 C   0  0  0  0  0  0  0  0  0  0  0  0
    2.1878    1.8140    0.6415 C   0  0  0  0  0  0  0  0  0  0  0  0
   -0.8638   -0.0694    4.0708 C   0  0  0  0  0  0  0  0  0  0  0  0
    1.1434    1.0756    1.0503 N   0  0  0  0  0  2  0  0  0  0  0  0
   -0.8264   -0.4072    1.6102 N   0  0  0  0  0  2  0  0  0  0  0  0
   -1.8630   -1.2657    1.5810 N   0  0  0  0  0  0  0  0  0  0  0  0
   -3.7928   -3.1366    1.1117 N   0  0  0  0  0  0  0  0  0  0  0  0
   -1.3061   -1.2937   -0.6696 O   0  5  0  0  0  0  0  0  0  0  0  0
   -3.4717   -2.9196   -1.1590 O   0  0  0  0  0  0  0  0  0  0  0  0
    3.2127    3.1133    3.6326 H   0  0  0  0  0  0  0  0  0  0  0  0
    2.4165    1.7910   -0.4342 H   0  0  0  0  0  0  0  0  0  0  0  0
   -3.4964   -2.8362    2.0406 H   0  0  0  0  0  0  0  0  0  0  0  0
   -1.7379   -0.7427    4.0261 H   0  0  0  0  0  0  0  0  0  0  0  0
   -4.5742   -3.7839    0.9996 H   0  0  0  0  0  0  0  0  0  0  0  0
    1.2603    1.7120    4.3901 H   0  0  0  0  0  0  0  0  0  0  0  0
    3.8084    3.1519    1.1671 H   0  0  0  0  0  0  0  0  0  0  0  0
   -1.1669    0.8843    4.5504 H   0  0  0  0  0  0  0  0  0  0  0  0
   -0.0917   -0.5330    4.7199 H   0  0  0  0  0  0  0  0  0  0  0  0
  1  7  2  0  0  0  0
  1 16  1  0  0  0  0
  2 12  2  0  0  0  0
  3  4  2  0  0  0  0
  3  7  1  0  0  0  0
  4  9  1  0  0  0  0
  5  2  1  0  0  0  0
  5 13  1  0  0  0  0
  6  1  1  0  0  0  0
  7 21  1  0  0  0  0
  8 10  1  0  0  0  0
  8  6  2  0  0  0  0
  9 23  1  0  0  0  0
  9 24  1  0  0  0  0
 10  3  1  0  0  0  0
 11  4  1  0  0  0  0
 12 11  1  0  0  0  0
 13 18  1  0  0  0  0
 14  2  1  0  0  0  0
 15  5  2  0  0  0  0
 17  8  1  0  0  0  0
 19  9  1  0  0  0  0
 20 13  1  0  0  0  0
 22  6  1  0  0  0  0
M  CHG  1  14  -1
M  END
