2,3,6
q = -1.0

 26 27  0  0  0  0  0  0  0  0999 V2000
   -5.9144    0.7794    0.0569 Br  0  0  0  0  0  0  0  0  0  0  0  0
   -0.3424   -1.5983   -0.0814 O   0  5  0  0  0  0  0  0  0  0  0  0
    3.2081    0.3947   -0.2401 N   0  0  0  0  0  2  0  0  0  0  0  0
    1.5551    2.0206    0.0463 N   0  0  0  0  0  0  0  0  0  0  0  0
    1.2818    2.9990    0.1898 H   0  0  0  0  0  0  0  0  0  0  0  0
    0.6132    1.0614   -0.0243 N   0  0  0  0  0  2  0  0  0  0  0  0
    4.5067    0.0341   -0.3437 C   0  0  0  0  0  3  0  0  0  0  0  0
    4.6803   -1.0428   -0.4877 H   0  0  0  0  0  0  0  0  0  0  0  0
    5.5460    0.9602   -0.2726 C   0  0  0  0  0  0  0  0  0  0  0  0
    6.5875    0.6235   -0.3579 H   0  0  0  0  0  0  0  0  0  0  0  0
    5.2198    2.3191   -0.0940 C   0  0  0  0  0  0  0  0  0  0  0  0
    6.0111    3.0811   -0.0379 H   0  0  0  0  0  0  0  0  0  0  0  0
    3.8850    2.7006    0.0121 C   0  0  0  0  0  0  0  0  0  0  0  0
    3.5983    3.7532    0.1494 H   0  0  0  0  0  0  0  0  0  0  0  0
    2.8872    1.7001   -0.0616 C   0  0  0  0  0  0  0  0  0  0  0  0
   -0.6499    1.3651    0.0588 C   0  0  0  0  0  3  0  0  0  0  0  0
   -0.9431    2.4297    0.1806 H   0  0  0  0  0  0  0  0  0  0  0  0
   -1.7274    0.4012    0.0049 C   0  0  0  0  0  0  0  0  0  0  0  0
   -3.0520    0.9118    0.0452 C   0  0  0  0  0  0  0  0  0  0  0  0
   -3.2047    1.9997    0.1048 H   0  0  0  0  0  0  0  0  0  0  0  0
   -4.1527    0.0595    0.0073 C   0  0  0  0  0  0  0  0  0  0  0  0
   -3.9683   -1.3366   -0.0661 C   0  0  0  0  0  0  0  0  0  0  0  0
   -4.8397   -2.0060   -0.0953 H   0  0  0  0  0  0  0  0  0  0  0  0
   -2.6768   -1.8595   -0.0988 C   0  0  0  0  0  0  0  0  0  0  0  0
   -2.5076   -2.9442   -0.1507 H   0  0  0  0  0  0  0  0  0  0  0  0
   -1.5321   -1.0230   -0.0674 C   0  0  0  0  0  0  0  0  0  0  0  0
  2 26  1  0  0  0  0
  3 15  1  0  0  0  0
  4  5  1  0  0  0  0
  6  4  1  0  0  0  0
  6 16  1  0  0  0  0
  7  9  1  0  0  0  0
  7  3  1  0  0  0  0
  8  7  1  0  0  0  0
  9 11  2  0  0  0  0
 10  9  1  0  0  0  0
 11 12  1  0  0  0  0
 11 13  1  0  0  0  0
 13 14  1  0  0  0  0
 15 13  2  0  0  0  0
 15  4  1  0  0  0  0
 16 17  1  0  0  0  0
 18 19  1  0  0  0  0
 18 16  1  0  0  0  0
 19 20  1  0  0  0  0
 21 19  2  0  0  0  0
 21  1  1  0  0  0  0
 22 21  1  0  0  0  0
 23 22  1  0  0  0  0
 24 26  1  0  0  0  0
 24 22  2  0  0  0  0
 25 24  1  0  0  0  0
 26 18  2  0  0  0  0
M  CHG  1   2  -1
M  END
