1,2,5
q = -1.0, confidence = 0.004

 29 30  0  0  0  0  0  0  0  0999 V2000
   -1.3022   -1.3517   -0.0729 O   0  5  0  0  0  0  0  0  0  0  0  0
    2.4451    0.2334   -0.2487 N   0  0  0  0  0  2  0  0  0  0  0  0
    0.9877    2.0285    0.0766 N   0  0  0  0  0  0  0  0  0  0  0  0
    0.8252    3.0289    0.2354 H   0  0  0  0  0  0  0  0  0  0  0  0
   -0.0563    1.1796    0.0019 N   0  0  0  0  0  2  0  0  0  0  0  0
    3.6940   -0.2686   -0.3699 C   0  0  0  0  0  3  0  0  0  0  0  0
    3.7440   -1.3563   -0.5288 H   0  0  0  0  0  0  0  0  0  0  0  0
    4.8316    0.5338   -0.2978 C   0  0  0  0  0  0  0  0  0  0  0  0
    5.8280    0.0838   -0.3977 H   0  0  0  0  0  0  0  0  0  0  0  0
    4.6611    1.9183   -0.0986 C   0  0  0  0  0  0  0  0  0  0  0  0
    5.5334    2.5861   -0.0411 H   0  0  0  0  0  0  0  0  0  0  0  0
    3.3787    2.4454    0.0263 C   0  0  0  0  0  0  0  0  0  0  0  0
    3.2131    3.5216    0.1799 H   0  0  0  0  0  0  0  0  0  0  0  0
    2.2738    1.5641   -0.0497 C   0  0  0  0  0  0  0  0  0  0  0  0
   -1.2777    1.6216    0.0970 C   0  0  0  0  0  3  0  0  0  0  0  0
   -1.4470    2.7117    0.2318 H   0  0  0  0  0  0  0  0  0  0  0  0
   -2.4570    0.7888    0.0412 C   0  0  0  0  0  0  0  0  0  0  0  0
   -3.7204    1.4385    0.0948 C   0  0  0  0  0  0  0  0  0  0  0  0
   -3.7327    2.5389    0.1659 H   0  0  0  0  0  0  0  0  0  0  0  0
   -4.9328    0.7468    0.0576 C   0  0  0  0  0  0  0  0  0  0  0  0
   -4.8709   -0.6668   -0.0302 C   0  0  0  0  0  0  0  0  0  0  0  0
   -5.8079   -1.2461   -0.0604 H   0  0  0  0  0  0  0  0  0  0  0  0
   -3.6546   -1.3436   -0.0766 C   0  0  0  0  0  0  0  0  0  0  0  0
   -3.6106   -2.4401   -0.1391 H   0  0  0  0  0  0  0  0  0  0  0  0
   -2.4220   -0.6451   -0.0459 C   0  0  0  0  0  0  0  0  0  0  0  0
   -6.2603    1.4599    0.1077 C   0  0  0  0  0  0  0  0  0  0  0  0
   -6.8680    1.1254    0.9746 H   0  0  0  0  0  0  0  0  0  0  0  0
   -6.8633    1.2577   -0.8025 H   0  0  0  0  0  0  0  0  0  0  0  0
   -6.1321    2.5567    0.1892 H   0  0  0  0  0  0  0  0  0  0  0  0
  1 25  1  0  0  0  0
  2 14  1  0  0  0  0
  3  4  1  0  0  0  0
  5  3  1  0  0  0  0
  5 15  1  0  0  0  0
  6  8  1  0  0  0  0
  6  2  1  0  0  0  0
  7  6  1  0  0  0  0
  8 10  2  0  0  0  0
  9  8  1  0  0  0  0
 10 11  1  0  0  0  0
 10 12  1  0  0  0  0
 12 13  1  0  0  0  0
 14 12  2  0  0  0  0
 14  3  1  0  0  0  0
 15 16  1  0  0  0  0
 17 18  1  0  0  0  0
 17 15  1  0  0  0  0
 18 19  1  0  0  0  0
 20 18  2  0  0  0  0
 20 26  1  0  0  0  0
 21 20  1  0  0  0  0
 22 21  1  0  0  0  0
 23 25  1  0  0  0  0
 23 21  2  0  0  0  0
 24 23  1  0  0  0  0
 25 17  2  0  0  0  0
 26 29  1  0  0  0  0
 26 27  1  0  0  0  0
 28 26  1  0  0  0  0
M  CHG  1   1  -1
M  END
