2,3,6
q = -1.0, confidence = 0.01

 26 27  0  0  0  0  0  0  0  0999 V2000
   -6.2470    1.1863    0.0857 Cl  0  0  0  0  0  0  0  0  0  0  0  0
   -0.9747   -1.4652   -0.0762 O   0  5  0  0  0  0  0  0  0  0  0  0
    2.6914    0.3036   -0.2443 N   0  0  0  0  0  2  0  0  0  0  0  0
    1.1448    2.0269    0.0646 N   0  0  0  0  0  0  0  0  0  0  0  0
    0.9338    3.0195    0.2155 H   0  0  0  0  0  0  0  0  0  0  0  0
    0.1445    1.1289   -0.0081 N   0  0  0  0  0  2  0  0  0  0  0  0
    3.9644   -0.1365   -0.3587 C   0  0  0  0  0  3  0  0  0  0  0  0
    4.0695   -1.2211   -0.5111 H   0  0  0  0  0  0  0  0  0  0  0  0
    5.0599    0.7225   -0.2880 C   0  0  0  0  0  0  0  0  0  0  0  0
    6.0778    0.3221   -0.3824 H   0  0  0  0  0  0  0  0  0  0  0  0
    4.8201    2.0977   -0.0979 C   0  0  0  0  0  0  0  0  0  0  0  0
    5.6578    2.8085   -0.0419 H   0  0  0  0  0  0  0  0  0  0  0  0
    3.5124    2.5608    0.0196 C   0  0  0  0  0  0  0  0  0  0  0  0
    3.2927    3.6282    0.1660 H   0  0  0  0  0  0  0  0  0  0  0  0
    2.4537    1.6250   -0.0545 C   0  0  0  0  0  0  0  0  0  0  0  0
   -1.0968    1.5104    0.0818 C   0  0  0  0  0  3  0  0  0  0  0  0
   -1.3223    2.5905    0.2112 H   0  0  0  0  0  0  0  0  0  0  0  0
   -2.2327    0.6163    0.0256 C   0  0  0  0  0  0  0  0  0  0  0  0
   -3.5225    1.2079    0.0725 C   0  0  0  0  0  0  0  0  0  0  0  0
   -3.6134    2.3021    0.1386 H   0  0  0  0  0  0  0  0  0  0  0  0
   -4.6753    0.4270    0.0328 C   0  0  0  0  0  0  0  0  0  0  0  0
   -4.5770   -0.9777   -0.0487 C   0  0  0  0  0  0  0  0  0  0  0  0
   -5.4920   -1.5860   -0.0788 H   0  0  0  0  0  0  0  0  0  0  0  0
   -3.3213   -1.5801   -0.0880 C   0  0  0  0  0  0  0  0  0  0  0  0
   -3.2198   -2.6729   -0.1464 H   0  0  0  0  0  0  0  0  0  0  0  0
   -2.1267   -0.8168   -0.0555 C   0  0  0  0  0  0  0  0  0  0  0  0
  2 26  1  0  0  0  0
  3 15  1  0  0  0  0
  4  5  1  0  0  0  0
  6  4  1  0  0  0  0
  6 16  1  0  0  0  0
  7  9  1  0  0  0  0
  7  3  1  0  0  0  0
  8  7  1  0  0  0  0
  9 11  2  0  0  0  0
 10  9  1  0  0  0  0
 11 12  1  0  0  0  0
 11 13  1  0  0  0  0
 13 14  1  0  0  0  0
 15 13  2  0  0  0  0
 15  4  1  0  0  0  0
 16 17  1  0  0  0  0
 18 19  1  0  0  0  0
 18 16  1  0  0  0  0
 19 20  1  0  0  0  0
 21 19  2  0  0  0  0
 21  1  1  0  0  0  0
 22 21  1  0  0  0  0
 23 22  1  0  0  0  0
 24 26  1  0  0  0  0
 24 22  2  0  0  0  0
 25 24  1  0  0  0  0
 26 18  2  0  0  0  0
M  CHG  1   2  -1
M  END
