1,3,6
q = -1.0

 30 31  0  0  0  0  0  0  0  0999 V2000
    1.2629   -0.8958   -0.0499 O   0  5  0  0  0  0  0  0  0  0  0  0
    5.9518    0.0135    0.0045 O   0  0  0  0  0  0  0  0  0  0  0  0
   -2.7127   -0.0250   -0.2616 N   0  0  0  0  0  2  0  0  0  0  0  0
   -1.6144    2.0050    0.0818 N   0  0  0  0  0  0  0  0  0  0  0  0
   -1.6372    3.0171    0.2464 H   0  0  0  0  0  0  0  0  0  0  0  0
   -0.4314    1.3582    0.0137 N   0  0  0  0  0  2  0  0  0  0  0  0
   -3.8469   -0.7476   -0.3975 C   0  0  0  0  0  3  0  0  0  0  0  0
   -3.6940   -1.8251   -0.5598 H   0  0  0  0  0  0  0  0  0  0  0  0
   -5.1133   -0.1693   -0.3350 C   0  0  0  0  0  0  0  0  0  0  0  0
   -6.0087   -0.7948   -0.4467 H   0  0  0  0  0  0  0  0  0  0  0  0
   -5.2026    1.2225   -0.1295 C   0  0  0  0  0  0  0  0  0  0  0  0
   -6.1836    1.7178   -0.0788 H   0  0  0  0  0  0  0  0  0  0  0  0
   -4.0413    1.9763    0.0100 C   0  0  0  0  0  0  0  0  0  0  0  0
   -4.0784    3.0638    0.1686 H   0  0  0  0  0  0  0  0  0  0  0  0
   -2.7906    1.3148   -0.0573 C   0  0  0  0  0  0  0  0  0  0  0  0
    0.6898    2.0157    0.1212 C   0  0  0  0  0  3  0  0  0  0  0  0
    0.6546    3.1181    0.2577 H   0  0  0  0  0  0  0  0  0  0  0  0
    1.9985    1.4169    0.0776 C   0  0  0  0  0  0  0  0  0  0  0  0
    3.1303    2.2773    0.1458 C   0  0  0  0  0  0  0  0  0  0  0  0
    2.9558    3.3626    0.2193 H   0  0  0  0  0  0  0  0  0  0  0  0
    4.4310    1.8011    0.1191 C   0  0  0  0  0  0  0  0  0  0  0  0
    5.2990    2.4722    0.1679 H   0  0  0  0  0  0  0  0  0  0  0  0
    4.6536    0.4019    0.0261 C   0  0  0  0  0  0  0  0  0  0  0  0
    3.5659   -0.4818   -0.0342 C   0  0  0  0  0  0  0  0  0  0  0  0
    3.6924   -1.5691   -0.0998 H   0  0  0  0  0  0  0  0  0  0  0  0
    2.2354   -0.0001   -0.0119 C   0  0  0  0  0  0  0  0  0  0  0  0
    6.2430   -1.3714   -0.0852 C   0  0  0  0  0  0  0  0  0  0  0  0
    5.8362   -1.9341    0.7838 H   0  0  0  0  0  0  0  0  0  0  0  0
    7.3451   -1.4583   -0.0896 H   0  0  0  0  0  0  0  0  0  0  0  0
    5.8380   -1.8169   -1.0205 H   0  0  0  0  0  0  0  0  0  0  0  0
  1 26  1  0  0  0  0
  2 23  1  0  0  0  0
  3 15  1  0  0  0  0
  4  5  1  0  0  0  0
  6  4  1  0  0  0  0
  6 16  1  0  0  0  0
  7  9  1  0  0  0  0
  7  3  1  0  0  0  0
  8  7  1  0  0  0  0
  9 11  2  0  0  0  0
 10  9  1  0  0  0  0
 11 12  1  0  0  0  0
 11 13  1  0  0  0  0
 13 14  1  0  0  0  0
 15 13  2  0  0  0  0
 15  4  1  0  0  0  0
 16 17  1  0  0  0  0
 18 16  1  0  0  0  0
 18 19  1  0  0  0  0
 19 20  1  0  0  0  0
 21 19  2  0  0  0  0
 21 22  1  0  0  0  0
 23 21  1  0  0  0  0
 24 26  1  0  0  0  0
 24 23  2  0  0  0  0
 25 24  1  0  0  0  0
 26 18  2  0  0  0  0
 27  2  1  0  0  0  0
 27 28  1  0  0  0  0
 29 27  1  0  0  0  0
 30 27  1  0  0  0  0
M  CHG  1   1  -1
M  END
