23,24,28
q = -1.0, confidence = 0.006

 28 29  0  0  1  0  0  0  0  0999 V2000
    1.8924    1.4561   -0.3951 C   0  0  0  0  0  0  0  0  0  0  0  0
    2.7625    2.4877    0.1028 C   0  0  0  0  0  0  0  0  0  0  0  0
    3.6471    3.1106   -0.7753 C   0  0  0  0  0  0  0  0  0  0  0  0
    4.3070    3.9003   -0.3822 H   0  0  0  0  0  0  0  0  0  0  0  0
    3.7218    2.7667   -2.1495 C   0  0  0  0  0  0  0  0  0  0  0  0
    4.4315    3.2853   -2.8091 H   0  0  0  0  0  0  0  0  0  0  0  0
    2.8925    1.7786   -2.6474 C   0  0  0  0  0  0  0  0  0  0  0  0
    2.9323    1.4998   -3.7121 H   0  0  0  0  0  0  0  0  0  0  0  0
    1.9662    1.0989   -1.7951 C   0  0  0  0  0  0  0  0  0  0  0  0
    1.1378    0.1005   -2.3811 C   0  0  0  0  0  3  0  0  0  0  0  0
    1.2294   -0.0619   -3.4728 H   0  0  0  0  0  0  0  0  0  0  0  0
   -1.4894   -2.1732   -1.6545 C   0  0  1  0  0  3  0  0  0  0  0  0
   -3.2178   -3.6355   -1.4863 C   0  0  0  0  0  0  0  0  0  0  0  0
   -3.9046   -4.3390   -1.9869 H   0  0  0  0  0  0  0  0  0  0  0  0
   -3.3045   -3.3998   -0.0982 C   0  0  0  0  0  0  0  0  0  0  0  0
   -4.0489   -3.9063    0.5298 H   0  0  0  0  0  0  0  0  0  0  0  0
   -2.4042   -2.4854    0.4475 C   0  0  0  0  0  0  0  0  0  0  0  0
   -2.3889   -2.2312    1.5182 H   0  0  0  0  0  0  0  0  0  0  0  0
    2.6668    2.8510    1.5571 C   0  0  0  0  0  0  0  0  0  0  0  0
    1.6450    3.2033    1.8108 H   0  0  0  0  0  0  0  0  0  0  0  0
    3.3901    3.6437    1.8241 H   0  0  0  0  0  0  0  0  0  0  0  0
    2.8530    1.9674    2.2027 H   0  0  0  0  0  0  0  0  0  0  0  0
   -1.4915   -1.8549   -0.3235 N   0  0  0  0  0  2  0  0  0  0  0  0
    0.2730   -0.6466   -1.7265 N   0  0  0  0  0  2  0  0  0  0  0  0
   -0.5300   -1.5364   -2.3864 N   0  0  0  0  0  0  0  0  0  0  0  0
   -0.5189   -1.6196   -3.4077 H   0  0  0  0  0  0  0  0  0  0  0  0
   -2.3126   -3.0319   -2.2628 N   0  0  0  0  0  0  0  0  0  0  0  0
    1.0818    0.9032    0.4684 O   0  5  0  0  0  0  0  0  0  0  0  0
  1  2  1  0  0  0  0
  1 28  1  0  0  0  0
  2 19  1  0  0  0  0
  3  4  1  0  0  0  0
  3  2  2  0  0  0  0
  5  3  1  0  0  0  0
  6  5  1  0  0  0  0
  7  5  2  0  0  0  0
  7  9  1  0  0  0  0
  8  7  1  0  0  0  0
  9  1  2  0  0  0  0
 10  9  1  0  0  0  0
 10 24  1  0  0  0  0
 11 10  1  0  0  0  0
 12 25  1  1  0  0  0
 12 23  1  0  0  0  0
 13 15  1  0  0  0  0
 14 13  1  0  0  0  0
 15 17  2  0  0  0  0
 15 16  1  0  0  0  0
 17 18  1  0  0  0  0
 19 20  1  0  0  0  0
 19 21  1  0  0  0  0
 19 22  1  0  0  0  0
 23 17  1  0  0  0  0
 25 24  1  0  0  0  0
 26 25  1  0  0  0  0
 27 12  1  0  0  0  0
 27 13  2  0  0  0  0
M  CHG  1  28  -1
M  END
