1,2,3
q = -1.0

 35 36  0  0  1  0  0  0  0  0999 V2000
    0.1323    1.1327   -0.1204 O   0  5  0  0  0  0  0  0  0  0  0  0
    0.2307   -1.5444   -0.3566 N   0  0  0  0  0  2  0  0  0  0  0  0
    2.8485   -1.5356   -0.1255 N   0  0  0  0  0  0  0  0  0  0  0  0
    3.2578   -1.4501   -1.0712 H   0  0  0  0  0  0  0  0  0  0  0  0
   -1.8410   -0.2873   -0.0936 C   0  0  0  0  0  0  0  0  0  0  0  0
   -1.1526    0.9741   -0.0352 C   0  0  0  0  0  0  0  0  0  0  0  0
   -1.9289    2.1816    0.1071 C   0  0  0  0  0  0  0  0  0  0  0  0
   -1.3640    3.1244    0.1347 H   0  0  0  0  0  0  0  0  0  0  0  0
   -3.2971    2.1393    0.2002 C   0  0  0  0  0  0  0  0  0  0  0  0
   -3.8693    3.0747    0.3075 H   0  0  0  0  0  0  0  0  0  0  0  0
   -4.0217    0.9001    0.1679 C   0  0  0  0  0  0  0  0  0  0  0  0
   -5.4370    0.8797    0.2786 C   0  0  0  0  0  0  0  0  0  0  0  0
   -5.9670    1.8394    0.3842 H   0  0  0  0  0  0  0  0  0  0  0  0
   -6.1442   -0.3173    0.2574 C   0  0  0  0  0  0  0  0  0  0  0  0
   -7.2408   -0.3204    0.3442 H   0  0  0  0  0  0  0  0  0  0  0  0
   -5.4353   -1.5331    0.1294 C   0  0  0  0  0  0  0  0  0  0  0  0
   -5.9820   -2.4884    0.1203 H   0  0  0  0  0  0  0  0  0  0  0  0
   -4.0464   -1.5382    0.0210 C   0  0  0  0  0  0  0  0  0  0  0  0
   -3.5355   -2.5084   -0.0603 H   0  0  0  0  0  0  0  0  0  0  0  0
   -3.2931   -0.3320    0.0272 C   0  0  2  0  0  3  0  0  0  0  0  0
   -1.0871   -1.4713   -0.3144 C   0  0  0  0  0  0  0  0  0  0  0  0
   -1.6352   -2.4162   -0.4853 H   0  0  0  0  0  0  0  0  0  0  0  0
    0.8756   -2.7985   -0.7372 C   0  0  0  0  0  0  0  0  0  0  0  0
    0.2388   -3.6808   -0.5069 H   0  0  0  0  0  0  0  0  0  0  0  0
    1.0606   -2.8088   -1.8369 H   0  0  0  0  0  0  0  0  0  0  0  0
    2.1943   -2.8590    0.0135 C   0  0  0  0  0  0  0  0  0  0  0  0
    2.8408   -3.6880   -0.3449 H   0  0  0  0  0  0  0  0  0  0  0  0
    2.0035   -3.0135    1.0950 H   0  0  0  0  0  0  0  0  0  0  0  0
    3.9337   -1.2870    0.8603 C   0  0  0  0  0  0  0  0  0  0  0  0
    3.4734   -1.3485    1.8678 H   0  0  0  0  0  0  0  0  0  0  0  0
    4.2345   -0.2324    0.7102 H   0  0  0  0  0  0  0  0  0  0  0  0
    5.1198   -2.2361    0.7310 C   0  0  0  0  0  0  0  0  0  0  0  0
    4.8559   -3.2924    0.9419 H   0  0  0  0  0  0  0  0  0  0  0  0
    5.9099   -1.9441    1.4507 H   0  0  0  0  0  0  0  0  0  0  0  0
    5.5675   -2.1874   -0.2841 H   0  0  0  0  0  0  0  0  0  0  0  0
  1  6  1  0  0  0  0
  2 21  1  0  0  0  0
  3 26  1  0  0  0  0
  3 29  1  0  0  0  0
  4  3  1  0  0  0  0
  5  6  1  0  0  0  0
  6  7  2  0  0  0  0
  7  8  1  0  0  0  0
  7  9  1  0  0  0  0
  9 10  1  0  0  0  0
 11  9  2  0  0  0  0
 11 12  1  0  0  0  0
 12 13  1  0  0  0  0
 14 12  2  0  0  0  0
 14 15  1  0  0  0  0
 16 14  1  0  0  0  0
 17 16  1  0  0  0  0
 18 20  1  0  0  0  0
 18 16  2  0  0  0  0
 19 18  1  0  0  0  0
 20  5  1  1  0  0  0
 20 11  1  0  0  0  0
 21  5  2  0  0  0  0
 22 21  1  0  0  0  0
 23 24  1  0  0  0  0
 23  2  1  0  0  0  0
 23 26  1  0  0  0  0
 25 23  1  0  0  0  0
 26 28  1  0  0  0  0
 27 26  1  0  0  0  0
 29 30  1  0  0  0  0
 31 29  1  0  0  0  0
 32 29  1  0  0  0  0
 32 33  1  0  0  0  0
 32 34  1  0  0  0  0
 35 32  1  0  0  0  0
M  CHG  1   1  -1
M  END
