2,4,5
q = -2.0, confidence = 0.768

 18 17  0  0  1  0  0  0  0  0999 V2000
   -3.8094    1.1045   -1.3758 O   0  0  0  0  0  0  0  0  0  0  0  0
   -0.2996   -0.2639    1.8224 O   0  5  0  0  0  0  0  0  0  0  0  0
   -1.7297    0.1453    3.4624 O   0  0  0  0  0  0  0  0  0  0  0  0
   -0.5739   -0.3731   -2.3016 N   0  0  0  0  0  0  0  0  0  0  0  0
   -2.0164    0.4059   -0.1169 N   0  0  0  0  0  2  0  0  0  0  0  0
   -1.7830    0.4700   -2.5449 C   0  0  0  0  0  0  0  0  0  0  0  0
   -2.6690    0.6685   -1.2869 C   0  0  0  0  0  0  0  0  0  0  0  0
   -2.6205    0.4045    1.2177 C   0  0  2  0  0  0  0  0  0  0  0  0
   -1.5297    0.0917    2.2700 C   0  0  0  0  0  0  0  0  0  0  0  0
   -3.8044   -0.5588    1.3739 C   0  0  0  0  0  0  0  0  0  0  0  0
    0.2105   -0.1121   -2.9154 H   0  0  0  0  0  0  0  0  0  0  0  0
   -0.7897   -1.3724   -2.4708 H   0  0  0  0  0  0  0  0  0  0  0  0
   -1.4555    1.4713   -2.8894 H   0  0  0  0  0  0  0  0  0  0  0  0
   -2.4133    0.0338   -3.3435 H   0  0  0  0  0  0  0  0  0  0  0  0
   -2.9734    1.4360    1.4457 H   0  0  0  0  0  0  0  0  0  0  0  0
   -3.4927   -1.5988    1.1596 H   0  0  0  0  0  0  0  0  0  0  0  0
   -4.1751   -0.5022    2.4151 H   0  0  0  0  0  0  0  0  0  0  0  0
   -4.6146   -0.2675    0.6807 H   0  0  0  0  0  0  0  0  0  0  0  0
  1  7  2  0  0  0  0
  2  9  1  0  0  0  0
  5  8  1  0  0  0  0
  6  4  1  0  0  0  0
  6  7  1  0  0  0  0
  7  5  1  0  0  0  0
  8 10  1  0  0  0  0
  8 15  1  1  0  0  0
  8  9  1  0  0  0  0
  9  3  2  0  0  0  0
 10 17  1  0  0  0  0
 11  4  1  0  0  0  0
 12  4  1  0  0  0  0
 13  6  1  0  0  0  0
 14  6  1  0  0  0  0
 16 10  1  0  0  0  0
 18 10  1  0  0  0  0
M  CHG  1   2  -1
M  END
