1,3,4
q = -2.0, confidence = 0.976

 33 34  0  0  1  0  0  0  0  0999 V2000
    0.1919    1.7981    0.6280 O   0  5  0  0  0  0  0  0  0  0  0  0
   -3.9240    0.5740    0.3894 O   0  0  0  0  0  0  0  0  0  0  0  0
   -1.8539    0.2570   -0.5589 N   0  0  0  0  0  2  0  0  0  0  0  0
   -0.1299   -1.7383   -0.9074 N   0  0  0  0  0  0  0  0  0  0  0  0
    0.7371   -2.1106   -1.3228 H   0  0  0  0  0  0  0  0  0  0  0  0
   -0.3388   -2.3227   -0.0805 H   0  0  0  0  0  0  0  0  0  0  0  0
   -0.8206    2.4641    1.1340 C   0  0  0  0  0  0  0  0  0  0  0  0
   -0.5095    3.6667    1.8472 C   0  0  0  0  0  0  0  0  0  0  0  0
    0.5556    3.9349    1.9246 H   0  0  0  0  0  0  0  0  0  0  0  0
   -1.4991    4.4504    2.4382 C   0  0  0  0  0  0  0  0  0  0  0  0
   -1.2105    5.3643    2.9848 H   0  0  0  0  0  0  0  0  0  0  0  0
   -2.8552    4.0717    2.3539 C   0  0  0  0  0  0  0  0  0  0  0  0
   -3.6414    4.6804    2.8272 H   0  0  0  0  0  0  0  0  0  0  0  0
   -3.1778    2.9036    1.6571 C   0  0  0  0  0  0  0  0  0  0  0  0
   -4.2175    2.5541    1.5582 H   0  0  0  0  0  0  0  0  0  0  0  0
   -2.2037    2.0972    1.0310 C   0  0  0  0  0  0  0  0  0  0  0  0
   -2.7188    0.9047    0.2817 C   0  0  0  0  0  0  0  0  0  0  0  0
   -2.4030   -0.9520   -1.1609 C   0  0  1  0  0  0  0  0  0  0  0  0
   -2.8275   -1.6047   -0.3530 H   0  0  0  0  0  0  0  0  0  0  0  0
   -3.5317   -0.7429   -2.1894 C   0  0  0  0  0  0  0  0  0  0  0  0
   -3.1452   -0.0995   -3.0131 H   0  0  0  0  0  0  0  0  0  0  0  0
   -4.3454   -0.1931   -1.6820 H   0  0  0  0  0  0  0  0  0  0  0  0
   -4.0219   -2.0873   -2.7435 C   0  0  0  0  0  0  0  0  0  0  0  0
   -4.8167   -1.9289   -3.5036 H   0  0  0  0  0  0  0  0  0  0  0  0
   -4.4950   -2.6628   -1.9166 H   0  0  0  0  0  0  0  0  0  0  0  0
   -2.8813   -2.9227   -3.3440 C   0  0  0  0  0  0  0  0  0  0  0  0
   -3.2493   -3.9176   -3.6745 H   0  0  0  0  0  0  0  0  0  0  0  0
   -2.4985   -2.4128   -4.2575 H   0  0  0  0  0  0  0  0  0  0  0  0
   -1.7204   -3.0892   -2.3513 C   0  0  0  0  0  0  0  0  0  0  0  0
   -2.0481   -3.7037   -1.4832 H   0  0  0  0  0  0  0  0  0  0  0  0
   -0.8692   -3.6270   -2.8243 H   0  0  0  0  0  0  0  0  0  0  0  0
   -1.2652   -1.7194   -1.8409 C   0  0  2  0  0  0  0  0  0  0  0  0
   -0.9383   -1.1218   -2.7240 H   0  0  0  0  0  0  0  0  0  0  0  0
  1  7  1  0  0  0  0
  3 17  1  0  0  0  0
  4  6  1  0  0  0  0
  5  4  1  0  0  0  0
  7  8  1  0  0  0  0
  8  9  1  0  0  0  0
  8 10  2  0  0  0  0
 10 11  1  0  0  0  0
 12 10  1  0  0  0  0
 12 13  1  0  0  0  0
 14 12  2  0  0  0  0
 15 14  1  0  0  0  0
 16  7  2  0  0  0  0
 16 14  1  0  0  0  0
 17  2  2  0  0  0  0
 17 16  1  0  0  0  0
 18  3  1  0  0  0  0
 18 19  1  1  0  0  0
 20 22  1  0  0  0  0
 20 18  1  0  0  0  0
 21 20  1  0  0  0  0
 23 20  1  0  0  0  0
 23 25  1  0  0  0  0
 24 23  1  0  0  0  0
 26 23  1  0  0  0  0
 26 29  1  0  0  0  0
 27 26  1  0  0  0  0
 28 26  1  0  0  0  0
 29 32  1  0  0  0  0
 29 30  1  0  0  0  0
 31 29  1  0  0  0  0
 32 33  1  6  0  0  0
 32 18  1  0  0  0  0
 32  4  1  0  0  0  0
M  CHG  1   1  -1
M  END
