1,7,8
q = -1.0

 35 37  0  0  1  0  0  0  0  0999 V2000
   -1.4344   -1.9088    0.7937 O   0  5  0  0  0  0  0  0  0  0  0  0
    0.8913   -1.0929    1.8289 O   0  0  0  0  0  0  0  0  0  0  0  0
   -0.0602   -1.3575    1.9625 H   0  0  0  0  0  0  0  0  0  0  0  0
    1.8100    2.6134   -0.6496 O   0  0  0  0  0  0  0  0  0  0  0  0
    4.4322    0.5232    0.2895 O   0  0  0  0  0  0  0  0  0  0  0  0
    4.5468    1.4822    0.1471 H   0  0  0  0  0  0  0  0  0  0  0  0
   -0.8148    0.2942   -0.5506 N   0  0  0  0  0  2  0  0  0  0  0  0
    1.7825    0.3112   -0.4398 N   0  0  0  0  0  0  0  0  0  0  0  0
    2.6732    0.0171   -0.8699 H   0  0  0  0  0  0  0  0  0  0  0  0
   -2.0984    0.1750   -0.1509 C   0  0  1  0  0  3  0  0  0  0  0  0
   -2.4011   -1.0592    0.5599 C   0  0  0  0  0  0  0  0  0  0  0  0
   -3.7421   -1.1934    0.9831 C   0  0  0  0  0  0  0  0  0  0  0  0
   -4.0326   -2.1081    1.5200 H   0  0  0  0  0  0  0  0  0  0  0  0
   -4.6872   -0.1670    0.7464 C   0  0  0  0  0  0  0  0  0  0  0  0
   -5.7198   -0.3241    1.0969 H   0  0  0  0  0  0  0  0  0  0  0  0
   -4.3688    1.0420    0.1196 C   0  0  0  0  0  0  0  0  0  0  0  0
   -5.1227    1.8322   -0.0086 H   0  0  0  0  0  0  0  0  0  0  0  0
   -3.0365    1.2475   -0.3242 C   0  0  0  0  0  0  0  0  0  0  0  0
   -2.5026    2.4505   -0.8812 C   0  0  0  0  0  0  0  0  0  0  0  0
   -3.1739    3.3109   -1.0324 H   0  0  0  0  0  0  0  0  0  0  0  0
   -1.1472    2.5664   -1.1815 C   0  0  0  0  0  0  0  0  0  0  0  0
   -0.7179    3.5119   -1.5418 H   0  0  0  0  0  0  0  0  0  0  0  0
   -0.3086    1.4367   -0.9967 C   0  0  0  0  0  0  0  0  0  0  0  0
    1.2125    1.4323   -1.1841 C   0  0  1  0  0  0  0  0  0  0  0  0
    1.4882    1.3728   -2.2579 H   0  0  0  0  0  0  0  0  0  0  0  0
    1.9739    2.3772    0.7456 C   0  0  0  0  0  0  0  0  0  0  0  0
    1.1126    2.7807    1.3288 H   0  0  0  0  0  0  0  0  0  0  0  0
    2.8863    2.9156    1.0785 H   0  0  0  0  0  0  0  0  0  0  0  0
    2.0730    0.8231    0.9185 C   0  0  0  0  0  0  0  0  0  0  0  0
    1.0340    0.3189    1.9465 C   0  0  0  0  0  0  0  0  0  0  0  0
    1.3856    0.5899    2.9693 H   0  0  0  0  0  0  0  0  0  0  0  0
    0.0642    0.8332    1.7816 H   0  0  0  0  0  0  0  0  0  0  0  0
    3.4841    0.3362    1.3188 C   0  0  0  0  0  0  0  0  0  0  0  0
    3.7751    0.8309    2.2755 H   0  0  0  0  0  0  0  0  0  0  0  0
    3.4359   -0.7561    1.5056 H   0  0  0  0  0  0  0  0  0  0  0  0
  2 30  1  0  0  0  0
  2  3  1  0  0  0  0
  4 26  1  0  0  0  0
  5 33  1  0  0  0  0
  6  5  1  0  0  0  0
  8 29  1  0  0  0  0
  9  8  1  0  0  0  0
 10  7  1  1  0  0  0
 10 11  1  0  0  0  0
 11  1  1  0  0  0  0
 11 12  2  0  0  0  0
 12 13  1  0  0  0  0
 14 12  1  0  0  0  0
 14 15  1  0  0  0  0
 16 14  2  0  0  0  0
 17 16  1  0  0  0  0
 18 10  1  0  0  0  0
 18 16  1  0  0  0  0
 19 18  2  0  0  0  0
 20 19  1  0  0  0  0
 21 23  2  0  0  0  0
 21 19  1  0  0  0  0
 22 21  1  0  0  0  0
 23  7  1  0  0  0  0
 24 25  1  6  0  0  0
 24 23  1  0  0  0  0
 24  4  1  0  0  0  0
 24  8  1  0  0  0  0
 26 29  1  0  0  0  0
 26 28  1  0  0  0  0
 26 27  1  0  0  0  0
 29 33  1  0  0  0  0
 29 30  1  0  0  0  0
 30 31  1  0  0  0  0
 32 30  1  0  0  0  0
 33 35  1  0  0  0  0
 33 34  1  0  0  0  0
M  CHG  1   1  -1
M  END
