3,4,5
q = -1.0, confidence = 0.056

 40 42  0  0  0  0  0  0  0  0999 V2000
    1.6342    1.0152   -1.8548 S   0  0  0  0  0  0  0  0  0  0  0  0
    2.0498    1.1102   -3.2648 O   0  0  0  0  0  1  0  0  0  0  0  0
    0.2109    0.5592   -1.5646 O   0  0  0  0  0  1  0  0  0  0  0  0
    0.6563   -2.2715    1.4351 N   0  0  0  0  0  2  0  0  0  0  0  0
    2.1554   -0.7668   -0.1668 N   0  0  0  0  0  2  0  0  0  0  0  0
    2.7440    0.0275   -1.0366 N   0  0  0  0  0  2  0  0  0  0  0  0
    2.8304   -1.6717    0.5481 C   0  0  0  0  0  0  0  0  0  0  0  0
    2.0042   -2.4432    1.5075 C   0  0  0  0  0  0  0  0  0  0  0  0
    1.7874    2.6405   -1.1099 C   0  0  0  0  0  0  0  0  0  0  0  0
    4.7283   -3.1665    0.6435 N   0  0  0  0  0  0  0  0  0  0  0  0
    2.5356   -3.2866    2.5148 C   0  0  0  0  0  0  0  0  0  0  0  0
    3.6175   -3.4478    2.5583 H   0  0  0  0  0  0  0  0  0  0  0  0
   -0.1732   -2.8701    2.3028 C   0  0  0  0  0  0  0  0  0  0  0  0
   -1.2468   -2.6499    2.1767 H   0  0  0  0  0  0  0  0  0  0  0  0
    4.2878   -1.9090    0.3940 C   0  0  0  0  0  0  0  0  0  0  0  0
    1.6722   -3.9171    3.4134 C   0  0  0  0  0  0  0  0  0  0  0  0
    2.0865   -4.5681    4.1985 H   0  0  0  0  0  0  0  0  0  0  0  0
    0.2852   -3.7145    3.3172 C   0  0  0  0  0  0  0  0  0  0  0  0
   -0.4231   -4.1908    4.0090 H   0  0  0  0  0  0  0  0  0  0  0  0
    5.1797   -0.8877   -0.0226 C   0  0  0  0  0  0  0  0  0  0  0  0
    4.7967    0.1172   -0.2324 H   0  0  0  0  0  0  0  0  0  0  0  0
    6.9788   -2.5022    0.0628 C   0  0  0  0  0  0  0  0  0  0  0  0
    8.0343   -2.7871   -0.0600 H   0  0  0  0  0  0  0  0  0  0  0  0
    6.5355   -1.1949   -0.1814 C   0  0  0  0  0  0  0  0  0  0  0  0
    7.2415   -0.4122   -0.4991 H   0  0  0  0  0  0  0  0  0  0  0  0
    6.0259   -3.4460    0.4787 C   0  0  0  0  0  0  0  0  0  0  0  0
    6.3302   -4.4873    0.6913 H   0  0  0  0  0  0  0  0  0  0  0  0
    1.9956    3.7400   -1.9521 C   0  0  0  0  0  0  0  0  0  0  0  0
    2.1443    3.5723   -3.0286 H   0  0  0  0  0  0  0  0  0  0  0  0
    1.9967    5.0282   -1.3954 C   0  0  0  0  0  0  0  0  0  0  0  0
    2.1518    5.8999   -2.0509 H   0  0  0  0  0  0  0  0  0  0  0  0
    1.8003    5.2270   -0.0141 C   0  0  0  0  0  0  0  0  0  0  0  0
    1.5974    2.8015    0.2730 C   0  0  0  0  0  0  0  0  0  0  0  0
    1.3958    1.9368    0.9212 H   0  0  0  0  0  0  0  0  0  0  0  0
    1.6109    4.0930    0.8064 C   0  0  0  0  0  0  0  0  0  0  0  0
    1.4445    4.2271    1.8865 H   0  0  0  0  0  0  0  0  0  0  0  0
    1.7808    6.6080    0.5873 C   0  0  0  0  0  0  0  0  0  0  0  0
    1.8823    7.3957   -0.1838 H   0  0  0  0  0  0  0  0  0  0  0  0
    0.8335    6.7837    1.1385 H   0  0  0  0  0  0  0  0  0  0  0  0
    2.6054    6.7390    1.3188 H   0  0  0  0  0  0  0  0  0  0  0  0
  1  3  1  0  0  0  0
  1  9  1  0  0  0  0
  1  6  1  0  0  0  0
  2  1  1  0  0  0  0
  4  8  1  0  0  0  0
  4 13  1  0  0  0  0
  5  7  1  0  0  0  0
  6  5  1  0  0  0  0
  7  8  2  0  0  0  0
  8 11  1  0  0  0  0
  9 33  1  0  0  0  0
 11 12  1  0  0  0  0
 11 16  2  0  0  0  0
 13 18  2  0  0  0  0
 14 13  1  0  0  0  0
 15  7  1  0  0  0  0
 15 10  2  0  0  0  0
 16 17  1  0  0  0  0
 18 16  1  0  0  0  0
 18 19  1  0  0  0  0
 20 15  1  0  0  0  0
 21 20  1  0  0  0  0
 22 26  2  0  0  0  0
 23 22  1  0  0  0  0
 24 20  2  0  0  0  0
 24 22  1  0  0  0  0
 25 24  1  0  0  0  0
 26 10  1  0  0  0  0
 26 27  1  0  0  0  0
 28 30  1  0  0  0  0
 28  9  2  0  0  0  0
 29 28  1  0  0  0  0
 30 32  2  0  0  0  0
 31 30  1  0  0  0  0
 32 37  1  0  0  0  0
 32 35  1  0  0  0  0
 33 35  2  0  0  0  0
 33 34  1  0  0  0  0
 35 36  1  0  0  0  0
 37 39  1  0  0  0  0
 37 40  1  0  0  0  0
 38 37  1  0  0  0  0
M  END
