2,3,5
q = -1.0

 36 38  0  0  0  0  0  0  0  0999 V2000
   -2.5922   -0.2596    0.9815 N   0  0  0  0  0  0  0  0  0  0  0  0
   -0.1541    1.9834   -0.8974 N   0  0  0  0  0  2  0  0  0  0  0  0
   -0.4611   -1.1306    1.1977 O   0  5  0  0  0  0  0  0  0  0  0  0
   -1.7399   -1.2002    1.4068 C   0  0  0  0  0  0  0  0  0  0  0  0
   -1.8869    0.6843    0.3345 N   0  0  0  0  0  2  0  0  0  0  0  0
   -2.4455    1.6993   -0.3426 C   0  0  0  0  0  0  0  0  0  0  0  0
   -1.4287    2.5074   -0.9935 C   0  0  0  0  0  0  0  0  0  0  0  0
   -2.2741   -2.3797    2.1160 C   0  0  0  0  0  0  0  0  0  0  0  0
    0.8895    2.6312   -1.4447 C   0  0  0  0  0  0  0  0  0  0  0  0
    1.8745    2.1568   -1.3206 H   0  0  0  0  0  0  0  0  0  0  0  0
   -3.6607   -2.5421    2.3450 C   0  0  0  0  0  0  0  0  0  0  0  0
   -4.3556   -1.7636    1.9860 H   0  0  0  0  0  0  0  0  0  0  0  0
    0.7355    3.8358   -2.1393 C   0  0  0  0  0  0  0  0  0  0  0  0
    1.6139    4.3178   -2.5897 H   0  0  0  0  0  0  0  0  0  0  0  0
   -1.6321    3.7419   -1.6463 C   0  0  0  0  0  0  0  0  0  0  0  0
   -2.6417    4.1732   -1.6705 H   0  0  0  0  0  0  0  0  0  0  0  0
   -4.7458    1.7803    0.6719 C   0  0  0  0  0  0  0  0  0  0  0  0
   -4.3086    1.5104    1.6419 H   0  0  0  0  0  0  0  0  0  0  0  0
   -3.8975    1.9178   -0.4530 C   0  0  0  0  0  0  0  0  0  0  0  0
   -6.6892    2.3192   -0.6929 C   0  0  0  0  0  0  0  0  0  0  0  0
   -7.7747    2.4756   -0.7841 H   0  0  0  0  0  0  0  0  0  0  0  0
   -4.1869   -3.6000    2.9738 N   0  0  0  0  0  0  0  0  0  0  0  0
   -3.3423   -4.5531    3.4052 C   0  0  0  0  0  0  0  0  0  0  0  0
   -3.8009   -5.4150    3.9230 H   0  0  0  0  0  0  0  0  0  0  0  0
   -6.1253    1.9839    0.5496 C   0  0  0  0  0  0  0  0  0  0  0  0
   -6.7693    1.8795    1.4360 H   0  0  0  0  0  0  0  0  0  0  0  0
   -4.4784    2.2467   -1.7022 C   0  0  0  0  0  0  0  0  0  0  0  0
   -3.8407    2.3161   -2.5961 H   0  0  0  0  0  0  0  0  0  0  0  0
   -5.8607    2.4461   -1.8188 C   0  0  0  0  0  0  0  0  0  0  0  0
   -6.2946    2.6922   -2.7999 H   0  0  0  0  0  0  0  0  0  0  0  0
   -1.4035   -3.3901    2.5700 C   0  0  0  0  0  0  0  0  0  0  0  0
   -0.3232   -3.2817    2.3955 H   0  0  0  0  0  0  0  0  0  0  0  0
   -0.5477    4.4028   -2.2296 C   0  0  0  0  0  0  0  0  0  0  0  0
   -0.6998    5.3633   -2.7439 H   0  0  0  0  0  0  0  0  0  0  0  0
   -1.9489   -4.4971    3.2279 C   0  0  0  0  0  0  0  0  0  0  0  0
   -1.3074   -5.3093    3.6014 H   0  0  0  0  0  0  0  0  0  0  0  0
  1  4  2  0  0  0  0
  3  4  1  0  0  0  0
  4  8  1  0  0  0  0
  5  1  1  0  0  0  0
  6  5  1  0  0  0  0
  7  2  1  0  0  0  0
  7  6  2  0  0  0  0
  8 11  2  0  0  0  0
  8 31  1  0  0  0  0
  9 10  1  0  0  0  0
  9  2  1  0  0  0  0
 11 22  1  0  0  0  0
 12 11  1  0  0  0  0
 13  9  2  0  0  0  0
 14 13  1  0  0  0  0
 15  7  1  0  0  0  0
 16 15  1  0  0  0  0
 17 18  1  0  0  0  0
 19  6  1  0  0  0  0
 19 17  2  0  0  0  0
 20 25  2  0  0  0  0
 21 20  1  0  0  0  0
 22 23  2  0  0  0  0
 23 24  1  0  0  0  0
 25 17  1  0  0  0  0
 25 26  1  0  0  0  0
 27 19  1  0  0  0  0
 28 27  1  0  0  0  0
 29 27  2  0  0  0  0
 29 20  1  0  0  0  0
 30 29  1  0  0  0  0
 31 35  2  0  0  0  0
 32 31  1  0  0  0  0
 33 13  1  0  0  0  0
 33 15  2  0  0  0  0
 34 33  1  0  0  0  0
 35 23  1  0  0  0  0
 35 36  1  0  0  0  0
M  CHG  1   3  -1
M  END
