1,3,4
q = -1.0

 26 27  0  0  1  0  0  0  0  0999 V2000
    2.1905    0.7270   -0.3741 N   0  0  0  0  0  2  0  0  0  0  0  0
    2.6712   -1.1873    0.8460 N   0  0  0  0  0  0  0  0  0  0  0  0
    1.3291   -1.4272    0.9254 N   0  0  0  0  0  2  0  0  0  0  0  0
    0.2157    1.9486   -1.8052 O   0  5  0  0  0  0  0  0  0  0  0  0
    1.4759    3.8303   -1.9457 O   0  0  0  0  0  0  0  0  0  0  0  0
    1.2775    2.6509   -1.6247 C   0  0  0  0  0  0  0  0  0  0  0  0
    2.4295    1.9517   -0.8673 C   0  0  1  0  0  3  0  0  0  0  0  0
    3.6641    2.5858   -0.6532 C   0  0  0  0  0  0  0  0  0  0  0  0
    3.8109    3.5863   -1.0821 H   0  0  0  0  0  0  0  0  0  0  0  0
    4.6241    1.9195    0.1190 C   0  0  0  0  0  0  0  0  0  0  0  0
    5.5968    2.3905    0.3283 H   0  0  0  0  0  0  0  0  0  0  0  0
    4.3459    0.6537    0.6625 C   0  0  0  0  0  0  0  0  0  0  0  0
    5.0696    0.1540    1.3150 H   0  0  0  0  0  0  0  0  0  0  0  0
    3.0951    0.0791    0.3712 C   0  0  0  0  0  0  0  0  0  0  0  0
    4.9000   -2.4127    1.1342 C   0  0  0  0  0  0  0  0  0  0  0  0
    5.1896   -3.4786    1.1816 H   0  0  0  0  0  0  0  0  0  0  0  0
    5.3881   -1.9002    1.9898 H   0  0  0  0  0  0  0  0  0  0  0  0
    5.3188   -1.9859    0.2008 H   0  0  0  0  0  0  0  0  0  0  0  0
    3.4108   -2.3131    1.1769 C   0  0  2  0  0  3  0  0  0  0  0  0
    2.4775   -3.2945    1.4869 C   0  0  0  0  0  0  0  0  0  0  0  0
    2.6993   -4.3251    1.7839 H   0  0  0  0  0  0  0  0  0  0  0  0
    1.1955   -2.7001    1.3110 C   0  0  0  0  0  0  0  0  0  0  0  0
   -0.1499   -3.3275    1.4753 C   0  0  0  0  0  0  0  0  0  0  0  0
   -0.9259   -2.5526    1.6182 H   0  0  0  0  0  0  0  0  0  0  0  0
   -0.1649   -4.0103    2.3469 H   0  0  0  0  0  0  0  0  0  0  0  0
   -0.4218   -3.9195    0.5761 H   0  0  0  0  0  0  0  0  0  0  0  0
  1 14  1  0  0  0  0
  2  3  1  0  0  0  0
  2 19  1  0  0  0  0
  3 22  1  0  0  0  0
  4  6  1  0  0  0  0
  5  6  2  0  0  0  0
  7  6  1  1  0  0  0
  7  8  1  0  0  0  0
  7  1  1  0  0  0  0
  8 10  2  0  0  0  0
  9  8  1  0  0  0  0
 10 11  1  0  0  0  0
 10 12  1  0  0  0  0
 12 13  1  0  0  0  0
 14 12  2  0  0  0  0
 14  2  1  0  0  0  0
 15 16  1  0  0  0  0
 15 17  1  0  0  0  0
 18 15  1  0  0  0  0
 19 15  1  6  0  0  0
 19 20  1  0  0  0  0
 20 21  1  0  0  0  0
 22 23  1  0  0  0  0
 22 20  2  0  0  0  0
 23 24  1  0  0  0  0
 23 25  1  0  0  0  0
 26 23  1  0  0  0  0
M  CHG  1   4  -1
M  END
