3,5,7
q = 0.0, confidence = 0.998

 65 67  0  0  1  0  0  0  0  0999 V2000
    3.0012   -0.5233    0.9710 N   0  0  0  0  0  0  0  0  0  0  0  0
    3.2963   -1.2470    1.6277 H   0  0  0  0  0  0  0  0  0  0  0  0
    1.2553    0.4436   -0.1215 O   0  5  0  0  0  0  0  0  0  0  0  0
    1.6767   -0.3556    0.7202 C   0  0  0  0  0  0  0  0  0  0  0  0
   -0.5785   -0.8748    1.2175 N   0  0  0  0  0  2  0  0  0  0  0  0
   -2.9650   -1.1050    1.3075 C   0  0  2  0  0  3  0  0  0  0  0  0
   -2.9814   -0.2406    0.3481 N   0  0  0  0  0  2  0  0  0  0  0  0
    0.6886   -1.1919    1.5078 C   0  0  0  0  0  0  0  0  0  0  0  0
    0.9934   -2.2199    2.4184 C   0  0  0  0  0  0  0  0  0  0  0  0
    2.0312   -2.4892    2.6624 H   0  0  0  0  0  0  0  0  0  0  0  0
   -0.0665   -2.9169    3.0156 C   0  0  0  0  0  0  0  0  0  0  0  0
    0.1368   -3.7295    3.7285 H   0  0  0  0  0  0  0  0  0  0  0  0
   -1.3870   -2.5784    2.6890 C   0  0  0  0  0  0  0  0  0  0  0  0
   -2.2294   -3.1223    3.1369 H   0  0  0  0  0  0  0  0  0  0  0  0
   -1.6096   -1.5386    1.7654 C   0  0  0  0  0  0  0  0  0  0  0  0
   -4.1833   -1.6865    1.9645 C   0  0  0  0  0  0  0  0  0  0  0  0
   -5.0971   -1.1934    1.5857 H   0  0  0  0  0  0  0  0  0  0  0  0
   -4.1349   -1.5697    3.0662 H   0  0  0  0  0  0  0  0  0  0  0  0
   -4.2578   -2.7735    1.7511 H   0  0  0  0  0  0  0  0  0  0  0  0
    4.0088    0.1395    0.1918 C   0  0  0  0  0  0  0  0  0  0  0  0
    4.2280    1.5261    0.3729 C   0  0  0  0  0  0  0  0  0  0  0  0
    5.2073    2.1365   -0.4347 C   0  0  0  0  0  0  0  0  0  0  0  0
    5.3957    3.2152   -0.3263 H   0  0  0  0  0  0  0  0  0  0  0  0
    5.9423    1.3968   -1.3667 C   0  0  0  0  0  0  0  0  0  0  0  0
    6.7046    1.8954   -1.9845 H   0  0  0  0  0  0  0  0  0  0  0  0
    5.7073    0.0240   -1.5235 C   0  0  0  0  0  0  0  0  0  0  0  0
    6.2840   -0.5433   -2.2677 H   0  0  0  0  0  0  0  0  0  0  0  0
    4.7271   -0.6314   -0.7584 C   0  0  0  0  0  0  0  0  0  0  0  0
    4.3759   -2.0953   -1.0012 C   0  0  0  0  0  0  0  0  0  0  0  0
    4.0104   -2.5180   -0.0392 H   0  0  0  0  0  0  0  0  0  0  0  0
    3.2177   -2.2039   -2.0149 C   0  0  0  0  0  0  0  0  0  0  0  0
    2.3053   -1.6596   -1.7015 H   0  0  0  0  0  0  0  0  0  0  0  0
    2.9343   -3.2648   -2.1718 H   0  0  0  0  0  0  0  0  0  0  0  0
    3.5293   -1.7855   -2.9938 H   0  0  0  0  0  0  0  0  0  0  0  0
    5.5737   -2.9485   -1.4385 C   0  0  0  0  0  0  0  0  0  0  0  0
    6.4322   -2.8450   -0.7445 H   0  0  0  0  0  0  0  0  0  0  0  0
    5.9227   -2.6737   -2.4549 H   0  0  0  0  0  0  0  0  0  0  0  0
    5.2864   -4.0183   -1.4778 H   0  0  0  0  0  0  0  0  0  0  0  0
    3.4544    2.3553    1.3901 C   0  0  0  0  0  0  0  0  0  0  0  0
    2.8347    1.6561    1.9882 H   0  0  0  0  0  0  0  0  0  0  0  0
    4.4040    3.0662    2.3708 C   0  0  0  0  0  0  0  0  0  0  0  0
    5.0888    2.3516    2.8710 H   0  0  0  0  0  0  0  0  0  0  0  0
    3.8241    3.5961    3.1538 H   0  0  0  0  0  0  0  0  0  0  0  0
    5.0287    3.8250    1.8561 H   0  0  0  0  0  0  0  0  0  0  0  0
    2.5030    3.3532    0.7038 C   0  0  0  0  0  0  0  0  0  0  0  0
    1.7530    2.8425    0.0699 H   0  0  0  0  0  0  0  0  0  0  0  0
    3.0690    4.0674    0.0702 H   0  0  0  0  0  0  0  0  0  0  0  0
    1.9554    3.9452    1.4658 H   0  0  0  0  0  0  0  0  0  0  0  0
   -4.1877    0.2758   -0.1933 C   0  0  0  0  0  0  0  0  0  0  0  0
   -4.8645   -0.4485   -1.2058 C   0  0  0  0  0  0  0  0  0  0  0  0
   -6.0134    0.1398   -1.7678 C   0  0  0  0  0  0  0  0  0  0  0  0
   -6.5463   -0.4025   -2.5643 H   0  0  0  0  0  0  0  0  0  0  0  0
   -6.4749    1.3905   -1.3377 C   0  0  0  0  0  0  0  0  0  0  0  0
   -7.3723    1.8335   -1.7951 H   0  0  0  0  0  0  0  0  0  0  0  0
   -5.7884    2.0799   -0.3290 C   0  0  0  0  0  0  0  0  0  0  0  0
   -6.1456    3.0644    0.0111 H   0  0  0  0  0  0  0  0  0  0  0  0
   -4.6292    1.5443    0.2595 C   0  0  0  0  0  0  0  0  0  0  0  0
   -3.8658    2.2727    1.3323 C   0  0  0  0  0  0  0  0  0  0  0  0
   -2.8213    2.4473    0.9916 H   0  0  0  0  0  0  0  0  0  0  0  0
   -3.8227    1.6906    2.2781 H   0  0  0  0  0  0  0  0  0  0  0  0
   -4.3310    3.2511    1.5565 H   0  0  0  0  0  0  0  0  0  0  0  0
   -4.3616   -1.7938   -1.6602 C   0  0  0  0  0  0  0  0  0  0  0  0
   -3.2668   -1.7827   -1.8525 H   0  0  0  0  0  0  0  0  0  0  0  0
   -4.8807   -2.1167   -2.5825 H   0  0  0  0  0  0  0  0  0  0  0  0
   -4.5427   -2.5778   -0.8918 H   0  0  0  0  0  0  0  0  0  0  0  0
  1  2  1  0  0  0  0
  3  4  1  0  0  0  0
  4  1  1  0  0  0  0
  4  8  2  0  0  0  0
  5  8  1  0  0  0  0
  5 15  1  0  0  0  0
  6  7  1  6  0  0  0
  6 15  1  0  0  0  0
  6 16  1  0  0  0  0
  8  9  1  0  0  0  0
  9 10  1  0  0  0  0
  9 11  2  0  0  0  0
 11 12  1  0  0  0  0
 13 11  1  0  0  0  0
 13 14  1  0  0  0  0
 15 13  2  0  0  0  0
 16 18  1  0  0  0  0
 17 16  1  0  0  0  0
 19 16  1  0  0  0  0
 20 21  1  0  0  0  0
 20  1  1  0  0  0  0
 21 39  1  0  0  0  0
 22 23  1  0  0  0  0
 22 21  2  0  0  0  0
 24 22  1  0  0  0  0
 25 24  1  0  0  0  0
 26 24  2  0  0  0  0
 26 28  1  0  0  0  0
 27 26  1  0  0  0  0
 28 20  2  0  0  0  0
 29 28  1  0  0  0  0
 29 30  1  0  0  0  0
 31 32  1  0  0  0  0
 31 29  1  0  0  0  0
 33 31  1  0  0  0  0
 34 31  1  0  0  0  0
 35 29  1  0  0  0  0
 35 36  1  0  0  0  0
 37 35  1  0  0  0  0
 38 35  1  0  0  0  0
 39 40  1  0  0  0  0
 39 41  1  0  0  0  0
 41 42  1  0  0  0  0
 41 43  1  0  0  0  0
 44 41  1  0  0  0  0
 45 39  1  0  0  0  0
 45 48  1  0  0  0  0
 46 45  1  0  0  0  0
 47 45  1  0  0  0  0
 49 57  1  0  0  0  0
 49  7  1  0  0  0  0
 50 49  2  0  0  0  0
 51 53  2  0  0  0  0
 51 50  1  0  0  0  0
 52 51  1  0  0  0  0
 53 55  1  0  0  0  0
 54 53  1  0  0  0  0
 55 56  1  0  0  0  0
 55 57  2  0  0  0  0
 57 58  1  0  0  0  0
 58 61  1  0  0  0  0
 58 60  1  0  0  0  0
 59 58  1  0  0  0  0
 62 50  1  0  0  0  0
 62 65  1  0  0  0  0
 63 62  1  0  0  0  0
 64 62  1  0  0  0  0
M  CHG  1   3  -1
M  END
