7,8,13
q = -1.0

 29 30  0  0  1  0  0  0  0  0999 V2000
   -5.3412   -0.9689   -0.0001 N   0  0  0  0  0  0  0  0  0  0  0  0
   -4.0026   -1.0142   -0.0002 C   0  0  0  0  0  0  0  0  0  0  0  0
   -3.5249   -2.0086   -0.0004 H   0  0  0  0  0  0  0  0  0  0  0  0
   -0.9639    1.1166    0.0001 N   0  0  0  0  0  0  0  0  0  0  0  0
   -5.9215    0.2426    0.0001 C   0  0  0  0  0  0  0  0  0  0  0  0
   -7.0266    0.2550    0.0002 H   0  0  0  0  0  0  0  0  0  0  0  0
    0.3277    0.7600    0.0000 N   0  0  0  0  0  2  0  0  0  0  0  0
   -1.1989   -1.1869   -0.0005 O   0  5  0  0  0  0  0  0  0  0  0  0
   -5.2045    1.4531    0.0004 C   0  0  0  0  0  0  0  0  0  0  0  0
   -5.7378    2.4154    0.0006 H   0  0  0  0  0  0  0  0  0  0  0  0
   -3.8080    1.4009    0.0003 C   0  0  0  0  0  0  0  0  0  0  0  0
   -3.1880    2.3086    0.0005 H   0  0  0  0  0  0  0  0  0  0  0  0
    2.6486   -0.3201    0.0002 N   0  0  0  0  0  2  0  0  0  0  0  0
   -3.1821    0.1374    0.0000 C   0  0  0  0  0  0  0  0  0  0  0  0
   -1.7117   -0.0049   -0.0000 C   0  0  0  0  0  0  0  0  0  0  0  0
    1.2980    1.6508   -0.0002 C   0  0  1  0  0  3  0  0  0  0  0  0
    1.0744    3.1279   -0.0004 C   0  0  0  0  0  0  0  0  0  0  0  0
    1.5295    3.6018    0.8943 H   0  0  0  0  0  0  0  0  0  0  0  0
    1.5329    3.6021   -0.8933 H   0  0  0  0  0  0  0  0  0  0  0  0
   -0.0115    3.3290   -0.0023 H   0  0  0  0  0  0  0  0  0  0  0  0
    3.8361    1.7746   -0.0001 C   0  0  0  0  0  0  0  0  0  0  0  0
    3.8104    2.8727   -0.0003 H   0  0  0  0  0  0  0  0  0  0  0  0
    5.0527    1.0818    0.0001 C   0  0  0  0  0  0  0  0  0  0  0  0
    6.0030    1.6362    0.0001 H   0  0  0  0  0  0  0  0  0  0  0  0
    5.0470   -0.3212    0.0004 C   0  0  0  0  0  0  0  0  0  0  0  0
    5.9803   -0.9009    0.0006 H   0  0  0  0  0  0  0  0  0  0  0  0
    3.8125   -0.9864    0.0004 C   0  0  0  0  0  3  0  0  0  0  0  0
    3.7344   -2.0840    0.0006 H   0  0  0  0  0  0  0  0  0  0  0  0
    2.6308    1.0437   -0.0001 C   0  0  0  0  0  0  0  0  0  0  0  0
  1  5  1  0  0  0  0
  2  1  2  0  0  0  0
  2 14  1  0  0  0  0
  3  2  1  0  0  0  0
  5  6  1  0  0  0  0
  5  9  2  0  0  0  0
  7  4  1  0  0  0  0
  8 15  1  0  0  0  0
  9 10  1  0  0  0  0
 11  9  1  0  0  0  0
 11 12  1  0  0  0  0
 13 27  1  0  0  0  0
 14 11  2  0  0  0  0
 15 14  1  0  0  0  0
 15  4  2  0  0  0  0
 16 29  1  0  0  0  0
 16  7  1  1  0  0  0
 17 16  1  0  0  0  0
 17 18  1  0  0  0  0
 19 17  1  0  0  0  0
 20 17  1  0  0  0  0
 21 29  2  0  0  0  0
 21 23  1  0  0  0  0
 22 21  1  0  0  0  0
 23 25  2  0  0  0  0
 24 23  1  0  0  0  0
 25 27  1  0  0  0  0
 25 26  1  0  0  0  0
 27 28  1  0  0  0  0
 29 13  1  0  0  0  0
M  CHG  1   8  -1
M  END
