1,2,4
q = -1.0, confidence = 0.006

 31 34  0  0  0  0  0  0  0  0999 V2000
   -0.2605    1.8820    1.6010 N   0  0  0  0  0  2  0  0  0  0  0  0
    1.2006   -1.1295   -1.1281 O   0  5  0  0  0  0  0  0  0  0  0  0
    2.0332    1.3346    2.0086 N   0  0  0  0  0  0  0  0  0  0  0  0
    1.8366    0.5194    1.0066 N   0  0  0  0  0  2  0  0  0  0  0  0
    3.5444   -1.9208   -1.0180 C   0  0  0  0  0  0  0  0  0  0  0  0
    4.5898   -1.5317   -0.1341 C   0  0  0  0  0  0  0  0  0  0  0  0
    4.1709   -0.5384    0.8101 C   0  0  0  0  0  0  0  0  0  0  0  0
    0.8863    2.0500    2.3196 C   0  0  0  0  0  0  0  0  0  0  0  0
   -0.2201    3.6878    3.7249 C   0  0  0  0  0  0  0  0  0  0  0  0
   -0.2052    4.4003    4.5639 H   0  0  0  0  0  0  0  0  0  0  0  0
   -1.3604    2.5826    1.9159 C   0  0  0  0  0  0  0  0  0  0  0  0
   -2.2487    2.3958    1.2873 H   0  0  0  0  0  0  0  0  0  0  0  0
    2.7689   -0.2767    0.5077 C   0  0  0  0  0  0  0  0  0  0  0  0
    2.3466   -1.1252   -0.6298 C   0  0  0  0  0  0  0  0  0  0  0  0
    0.9267    2.9653    3.4025 C   0  0  0  0  0  0  0  0  0  0  0  0
    1.8700    3.0713    3.9559 H   0  0  0  0  0  0  0  0  0  0  0  0
    5.0975   -0.0685    1.7363 C   0  0  0  0  0  0  0  0  0  0  0  0
    4.8087    0.6918    2.4752 H   0  0  0  0  0  0  0  0  0  0  0  0
   -1.3975    3.5002    2.9713 C   0  0  0  0  0  0  0  0  0  0  0  0
   -2.3207    4.0519    3.1959 H   0  0  0  0  0  0  0  0  0  0  0  0
    3.7950   -2.8790   -1.9931 C   0  0  0  0  0  0  0  0  0  0  0  0
    3.0049   -3.1989   -2.6886 H   0  0  0  0  0  0  0  0  0  0  0  0
    6.1273   -3.0513   -1.1958 C   0  0  0  0  0  0  0  0  0  0  0  0
    7.1246   -3.5097   -1.2884 H   0  0  0  0  0  0  0  0  0  0  0  0
    6.8277   -1.5655    0.7803 C   0  0  0  0  0  0  0  0  0  0  0  0
    7.8611   -1.9447    0.7923 H   0  0  0  0  0  0  0  0  0  0  0  0
    6.4234   -0.5991    1.7008 C   0  0  0  0  0  0  0  0  0  0  0  0
    7.1549   -0.2267    2.4346 H   0  0  0  0  0  0  0  0  0  0  0  0
    5.8972   -2.0689   -0.1845 C   0  0  0  0  0  0  0  0  0  0  0  0
    5.1035   -3.4367   -2.0663 C   0  0  0  0  0  0  0  0  0  0  0  0
    5.3148   -4.1970   -2.8337 H   0  0  0  0  0  0  0  0  0  0  0  0
  1 11  1  0  0  0  0
  1  8  1  0  0  0  0
  2 14  1  0  0  0  0
  3  8  2  0  0  0  0
  4  3  1  0  0  0  0
  5 14  1  0  0  0  0
  5  6  1  0  0  0  0
  6  7  1  0  0  0  0
  7 17  2  0  0  0  0
  8 15  1  0  0  0  0
  9 10  1  0  0  0  0
 11 19  2  0  0  0  0
 12 11  1  0  0  0  0
 13  7  1  0  0  0  0
 13  4  1  0  0  0  0
 14 13  2  0  0  0  0
 15  9  2  0  0  0  0
 15 16  1  0  0  0  0
 17 18  1  0  0  0  0
 19 20  1  0  0  0  0
 19  9  1  0  0  0  0
 21  5  2  0  0  0  0
 22 21  1  0  0  0  0
 23 29  1  0  0  0  0
 24 23  1  0  0  0  0
 25 26  1  0  0  0  0
 25 27  2  0  0  0  0
 27 17  1  0  0  0  0
 27 28  1  0  0  0  0
 29  6  2  0  0  0  0
 29 25  1  0  0  0  0
 30 21  1  0  0  0  0
 30 23  2  0  0  0  0
 31 30  1  0  0  0  0
M  CHG  1   2  -1
M  END
