1,4,6
q = -1.0, confidence = 0.022

 32 33  0  0  1  0  0  0  0  0999 V2000
    2.2427    0.9810   -1.6869 N   0  0  0  0  0  0  0  0  0  0  0  0
    3.2309    1.0654   -1.9568 H   0  0  0  0  0  0  0  0  0  0  0  0
    1.7329    0.7161   -2.5411 H   0  0  0  0  0  0  0  0  0  0  0  0
    0.0521    0.1925    0.1319 N   0  0  0  0  0  2  0  0  0  0  0  0
   -2.0200    0.3336    0.9022 N   0  0  0  0  0  0  0  0  0  0  0  0
    2.5467    1.3388    0.9416 O   0  5  0  0  0  0  0  0  0  0  0  0
    2.1930    3.5740    0.8239 O   0  0  0  0  0  0  0  0  0  0  0  0
    2.2217    2.4467    0.3415 C   0  0  0  0  0  0  0  0  0  0  0  0
    1.7590    2.2754   -1.1429 C   0  0  2  0  0  0  0  0  0  0  0  0
    2.1717    3.1267   -1.7225 H   0  0  0  0  0  0  0  0  0  0  0  0
    0.2306    2.3556   -1.2115 C   0  0  0  0  0  0  0  0  0  0  0  0
   -0.0506    3.3838   -0.9102 H   0  0  0  0  0  0  0  0  0  0  0  0
   -0.1027    2.2351   -2.2690 H   0  0  0  0  0  0  0  0  0  0  0  0
   -0.4986    1.3792   -0.3305 C   0  0  0  0  0  0  0  0  0  0  0  0
   -1.7965    1.4701    0.1472 C   0  0  0  0  0  0  0  0  0  0  0  0
   -2.5681    2.2334    0.0094 H   0  0  0  0  0  0  0  0  0  0  0  0
   -0.8839   -0.4122    0.8668 C   0  0  0  0  0  3  0  0  0  0  0  0
   -0.7654   -1.3623    1.3990 H   0  0  0  0  0  0  0  0  0  0  0  0
   -3.2636   -0.0151    1.5856 C   0  0  0  0  0  0  0  0  0  0  0  0
   -3.4987    0.7746    2.3277 H   0  0  0  0  0  0  0  0  0  0  0  0
   -3.0634   -0.9454    2.1555 H   0  0  0  0  0  0  0  0  0  0  0  0
   -4.4256   -0.2054    0.6310 C   0  0  0  0  0  0  0  0  0  0  0  0
   -4.2953   -1.0457   -0.4926 C   0  0  0  0  0  0  0  0  0  0  0  0
   -3.3362   -1.5511   -0.6893 H   0  0  0  0  0  0  0  0  0  0  0  0
   -5.3757   -1.2350   -1.3644 C   0  0  0  0  0  0  0  0  0  0  0  0
   -5.2629   -1.8932   -2.2391 H   0  0  0  0  0  0  0  0  0  0  0  0
   -6.5997   -0.5886   -1.1221 C   0  0  0  0  0  0  0  0  0  0  0  0
   -7.4476   -0.7383   -1.8073 H   0  0  0  0  0  0  0  0  0  0  0  0
   -6.7360    0.2502   -0.0064 C   0  0  0  0  0  0  0  0  0  0  0  0
   -7.6901    0.7634    0.1867 H   0  0  0  0  0  0  0  0  0  0  0  0
   -5.6513    0.4434    0.8640 C   0  0  0  0  0  0  0  0  0  0  0  0
   -5.7587    1.1072    1.7368 H   0  0  0  0  0  0  0  0  0  0  0  0
  1  9  1  0  0  0  0
  2  1  1  0  0  0  0
  3  1  1  0  0  0  0
  4 17  1  0  0  0  0
  5 19  1  0  0  0  0
  8  7  2  0  0  0  0
  8  6  1  0  0  0  0
  9 10  1  6  0  0  0
  9  8  1  0  0  0  0
 11  9  1  0  0  0  0
 11 12  1  0  0  0  0
 11 14  1  0  0  0  0
 13 11  1  0  0  0  0
 14  4  1  0  0  0  0
 14 15  2  0  0  0  0
 15  5  1  0  0  0  0
 16 15  1  0  0  0  0
 17  5  1  0  0  0  0
 17 18  1  0  0  0  0
 19 21  1  0  0  0  0
 19 20  1  0  0  0  0
 22 31  1  0  0  0  0
 22 19  1  0  0  0  0
 23 22  2  0  0  0  0
 24 23  1  0  0  0  0
 25 27  2  0  0  0  0
 25 23  1  0  0  0  0
 26 25  1  0  0  0  0
 27 29  1  0  0  0  0
 28 27  1  0  0  0  0
 29 30  1  0  0  0  0
 29 31  2  0  0  0  0
 31 32  1  0  0  0  0
M  CHG  1   6  -1
M  END
