1,2,5
q = -1.0

 25 26  0  0  0  0  0  0  0  0999 V2000
    1.8695   -0.1903   -0.8323 N   0  0  0  0  0  2  0  0  0  0  0  0
    0.4917    1.6999    0.3140 N   0  0  0  0  0  2  0  0  0  0  0  0
    1.8418    1.9294    0.1779 C   0  0  0  0  0  0  0  0  0  0  0  0
    2.6280    0.8560   -0.4522 C   0  0  0  0  0  0  0  0  0  0  0  0
    0.0428   -1.9580   -1.4611 O   0  5  0  0  0  0  0  0  0  0  0  0
   -2.5006    3.4841    0.8823 O   0  0  0  0  0  0  0  0  0  0  0  0
   -3.4037    3.2400    1.1829 H   0  0  0  0  0  0  0  0  0  0  0  0
    4.0078    0.8132   -0.7148 C   0  0  0  0  0  0  0  0  0  0  0  0
    4.6621    1.6385   -0.4051 H   0  0  0  0  0  0  0  0  0  0  0  0
    1.2749   -2.2989   -1.8294 C   0  0  0  0  0  0  0  0  0  0  0  0
   -2.1469    1.3770    1.6239 O   0  0  0  0  0  0  0  0  0  0  0  0
    2.3396   -1.2738   -1.4742 C   0  0  0  0  0  0  0  0  0  0  0  0
    4.5375   -0.3107   -1.3653 C   0  0  0  0  0  0  0  0  0  0  0  0
    5.6183   -0.3604   -1.5627 H   0  0  0  0  0  0  0  0  0  0  0  0
    2.4165    3.1557    0.5516 C   0  0  0  0  0  0  0  0  0  0  0  0
    3.4989    3.2958    0.4375 H   0  0  0  0  0  0  0  0  0  0  0  0
    0.2365    3.9444    1.1757 C   0  0  0  0  0  0  0  0  0  0  0  0
   -0.4482    4.7117    1.5585 H   0  0  0  0  0  0  0  0  0  0  0  0
    1.6109    4.1770    1.0517 C   0  0  0  0  0  0  0  0  0  0  0  0
    2.0448    5.1454    1.3390 H   0  0  0  0  0  0  0  0  0  0  0  0
    1.5512   -3.3338   -2.4149 O   0  0  0  0  0  0  0  0  0  0  0  0
    3.7015   -1.3680   -1.7633 C   0  0  0  0  0  0  0  0  0  0  0  0
    4.0684   -2.2654   -2.2801 H   0  0  0  0  0  0  0  0  0  0  0  0
   -0.2807    2.6869    0.8228 C   0  0  0  0  0  0  0  0  0  0  0  0
   -1.7235    2.4068    1.1368 C   0  0  0  0  0  0  0  0  0  0  0  0
  1  4  1  0  0  0  0
  2 24  1  0  0  0  0
  3  2  1  0  0  0  0
  3 15  1  0  0  0  0
  4  3  2  0  0  0  0
  6 25  1  0  0  0  0
  6  7  1  0  0  0  0
  8  4  1  0  0  0  0
  8  9  1  0  0  0  0
 10 12  1  0  0  0  0
 10  5  1  0  0  0  0
 12  1  1  0  0  0  0
 13  8  2  0  0  0  0
 14 13  1  0  0  0  0
 15 19  2  0  0  0  0
 16 15  1  0  0  0  0
 17 18  1  0  0  0  0
 19 17  1  0  0  0  0
 19 20  1  0  0  0  0
 21 10  2  0  0  0  0
 22 12  2  0  0  0  0
 22 13  1  0  0  0  0
 23 22  1  0  0  0  0
 24 25  1  0  0  0  0
 24 17  2  0  0  0  0
 25 11  2  0  0  0  0
M  CHG  1   5  -1
M  END
