2,3,6
q = -1.0, confidence = 0.064

 34 36  0  0  1  0  0  0  0  0999 V2000
    5.2836    2.1495   -1.8696 Br  0  0  0  0  0  0  0  0  0  0  0  0
   -1.2231    1.4949   -1.8008 N   0  0  0  0  0  2  0  0  0  0  0  0
   -2.7254   -1.0293   -0.9834 N   0  0  0  0  0  2  0  0  0  0  0  0
   -4.1683   -1.4537   -2.6262 N   0  0  0  0  0  0  0  0  0  0  0  0
   -4.8126   -1.2761   -3.3956 H   0  0  0  0  0  0  0  0  0  0  0  0
   -0.0837    1.1355    0.7732 O   0  5  0  0  0  0  0  0  0  0  0  0
   -2.2546    1.5145   -2.8091 C   0  0  0  0  0  0  0  0  0  0  0  0
   -1.9772    0.9516   -3.7361 H   0  0  0  0  0  0  0  0  0  0  0  0
   -2.4442    2.5674   -3.1226 H   0  0  0  0  0  0  0  0  0  0  0  0
   -3.5878    0.9684   -2.2485 C   0  0  0  0  0  0  0  0  0  0  0  0
   -3.8419    1.5457   -1.3371 H   0  0  0  0  0  0  0  0  0  0  0  0
   -4.3984    1.1335   -2.9865 H   0  0  0  0  0  0  0  0  0  0  0  0
   -3.5111   -0.4801   -1.9136 C   0  0  2  0  0  3  0  0  0  0  0  0
   -3.7840   -2.6957   -2.1428 C   0  0  0  0  0  0  0  0  0  0  0  0
   -2.8506   -2.4157   -1.1043 C   0  0  0  0  0  0  0  0  0  0  0  0
   -2.2263   -3.4692   -0.4118 C   0  0  0  0  0  0  0  0  0  0  0  0
   -1.4919   -3.2332    0.3680 H   0  0  0  0  0  0  0  0  0  0  0  0
   -2.5795   -4.7748   -0.7703 C   0  0  0  0  0  0  0  0  0  0  0  0
   -2.1028   -5.6197   -0.2511 H   0  0  0  0  0  0  0  0  0  0  0  0
   -3.5214   -5.0411   -1.7934 C   0  0  0  0  0  0  0  0  0  0  0  0
   -3.7653   -6.0839   -2.0454 H   0  0  0  0  0  0  0  0  0  0  0  0
   -4.1407   -4.0042   -2.5026 C   0  0  0  0  0  0  0  0  0  0  0  0
   -4.8622   -4.2079   -3.3073 H   0  0  0  0  0  0  0  0  0  0  0  0
    0.0196    1.5330   -2.1893 C   0  0  0  0  0  3  0  0  0  0  0  0
    0.2741    1.5172   -3.2779 H   0  0  0  0  0  0  0  0  0  0  0  0
    1.1496    1.6072   -1.2896 C   0  0  0  0  0  0  0  0  0  0  0  0
    1.0300    1.4222    0.1414 C   0  0  0  0  0  0  0  0  0  0  0  0
    2.2238    1.5392    0.9146 C   0  0  0  0  0  0  0  0  0  0  0  0
    2.1305    1.3912    1.9998 H   0  0  0  0  0  0  0  0  0  0  0  0
    3.4679    1.7738    0.3369 C   0  0  0  0  0  0  0  0  0  0  0  0
    4.3709    1.8217    0.9621 H   0  0  0  0  0  0  0  0  0  0  0  0
    3.5691    1.9016   -1.0648 C   0  0  0  0  0  0  0  0  0  0  0  0
    2.4312    1.8202   -1.8605 C   0  0  0  0  0  0  0  0  0  0  0  0
    2.5147    1.9209   -2.9536 H   0  0  0  0  0  0  0  0  0  0  0  0
  1 32  1  0  0  0  0
  4 14  1  0  0  0  0
  4 13  1  0  0  0  0
  5  4  1  0  0  0  0
  7 10  1  0  0  0  0
  7  2  1  0  0  0  0
  8  7  1  0  0  0  0
  9  7  1  0  0  0  0
 10 11  1  0  0  0  0
 12 10  1  0  0  0  0
 13 10  1  6  0  0  0
 13  3  1  0  0  0  0
 14 15  1  0  0  0  0
 15  3  1  0  0  0  0
 15 16  2  0  0  0  0
 16 17  1  0  0  0  0
 18 16  1  0  0  0  0
 18 19  1  0  0  0  0
 20 18  2  0  0  0  0
 21 20  1  0  0  0  0
 22 14  2  0  0  0  0
 22 20  1  0  0  0  0
 23 22  1  0  0  0  0
 24  2  1  0  0  0  0
 24 26  1  0  0  0  0
 25 24  1  0  0  0  0
 26 27  1  0  0  0  0
 27  6  1  0  0  0  0
 27 28  2  0  0  0  0
 28 29  1  0  0  0  0
 30 28  1  0  0  0  0
 30 31  1  0  0  0  0
 32 30  2  0  0  0  0
 33 26  2  0  0  0  0
 33 32  1  0  0  0  0
 34 33  1  0  0  0  0
M  CHG  1   6  -1
M  END
