1,3,4
q = -1.0

 41 43  0  0  0  0  0  0  0  0999 V2000
   -2.1590   -2.4696   -0.0626 O   0  5  0  0  0  0  0  0  0  0  0  0
   -1.5668   -4.0683    1.4074 O   0  0  0  0  0  0  0  0  0  0  0  0
   -1.9245    1.5330   -0.0135 N   0  0  0  0  0  2  0  0  0  0  0  0
   -0.7025   -0.5743    1.2568 N   0  0  0  0  0  0  0  0  0  0  0  0
    4.1639   -1.0164   -2.1326 N   0  0  0  0  0  0  0  0  0  0  0  0
   -2.3631    2.4925   -0.8573 C   0  0  0  0  0  3  0  0  0  0  0  0
   -2.0518    3.8403   -0.6512 C   0  0  0  0  0  0  0  0  0  0  0  0
   -1.2630    4.1988    0.4513 C   0  0  0  0  0  0  0  0  0  0  0  0
   -0.8138    3.1945    1.3226 C   0  0  0  0  0  0  0  0  0  0  0  0
   -1.1636    1.8631    1.0706 C   0  0  0  0  0  0  0  0  0  0  0  0
   -0.8036    0.7159    1.9908 C   0  0  0  0  0  0  0  0  0  0  0  0
   -1.1247   -1.7807    2.0272 C   0  0  0  0  0  0  0  0  0  0  0  0
   -1.6350   -2.8983    1.0671 C   0  0  0  0  0  0  0  0  0  0  0  0
    0.6535   -0.8137    0.6793 C   0  0  0  0  0  0  0  0  0  0  0  0
    1.1183    0.1982   -0.3746 C   0  0  0  0  0  0  0  0  0  0  0  0
    2.4864   -0.1509   -0.8792 C   0  0  0  0  0  0  0  0  0  0  0  0
    2.7950   -0.8446   -2.0405 C   0  0  0  0  0  0  0  0  0  0  0  0
    4.7787   -0.4444   -1.0359 C   0  0  0  0  0  0  0  0  0  0  0  0
    6.1373   -0.3590   -0.6850 C   0  0  0  0  0  0  0  0  0  0  0  0
    6.4574    0.2960    0.5093 C   0  0  0  0  0  0  0  0  0  0  0  0
    5.4504    0.8554    1.3346 C   0  0  0  0  0  0  0  0  0  0  0  0
    4.1001    0.7698    0.9832 C   0  0  0  0  0  0  0  0  0  0  0  0
    3.7423    0.1129   -0.2158 C   0  0  0  0  0  0  0  0  0  0  0  0
   -2.9820    2.1162   -1.6899 H   0  0  0  0  0  0  0  0  0  0  0  0
   -2.4257    4.5953   -1.3572 H   0  0  0  0  0  0  0  0  0  0  0  0
   -0.9955    5.2503    0.6325 H   0  0  0  0  0  0  0  0  0  0  0  0
   -0.1922    3.4378    2.1964 H   0  0  0  0  0  0  0  0  0  0  0  0
   -1.6226    0.6070    2.7325 H   0  0  0  0  0  0  0  0  0  0  0  0
    0.1288    0.9329    2.5583 H   0  0  0  0  0  0  0  0  0  0  0  0
   -0.2983   -2.1709    2.6580 H   0  0  0  0  0  0  0  0  0  0  0  0
   -1.9701   -1.4979    2.6862 H   0  0  0  0  0  0  0  0  0  0  0  0
    1.3819   -0.8544    1.5225 H   0  0  0  0  0  0  0  0  0  0  0  0
    0.6273   -1.8216    0.2216 H   0  0  0  0  0  0  0  0  0  0  0  0
    0.3844    0.2093   -1.2070 H   0  0  0  0  0  0  0  0  0  0  0  0
    1.1332    1.2243    0.0515 H   0  0  0  0  0  0  0  0  0  0  0  0
    2.1243   -1.2308   -2.8173 H   0  0  0  0  0  0  0  0  0  0  0  0
    6.9219   -0.7913   -1.3241 H   0  0  0  0  0  0  0  0  0  0  0  0
    7.5118    0.3780    0.8129 H   0  0  0  0  0  0  0  0  0  0  0  0
    5.7408    1.3642    2.2661 H   0  0  0  0  0  0  0  0  0  0  0  0
    3.3260    1.2106    1.6313 H   0  0  0  0  0  0  0  0  0  0  0  0
    4.6447   -1.4883   -2.8960 H   0  0  0  0  0  0  0  0  0  0  0  0
  1 13  1  0  0  0  0
  3 10  1  0  0  0  0
  4 11  1  0  0  0  0
  4 12  1  0  0  0  0
  5 17  1  0  0  0  0
  5 18  1  0  0  0  0
  6  7  1  0  0  0  0
  6  3  1  0  0  0  0
  7  8  2  0  0  0  0
  8 26  1  0  0  0  0
  8  9  1  0  0  0  0
  9 27  1  0  0  0  0
 10  9  2  0  0  0  0
 10 11  1  0  0  0  0
 11 29  1  0  0  0  0
 11 28  1  0  0  0  0
 12 30  1  0  0  0  0
 12 31  1  0  0  0  0
 13  2  2  0  0  0  0
 13 12  1  0  0  0  0
 14  4  1  0  0  0  0
 14 32  1  0  0  0  0
 15 35  1  0  0  0  0
 15 14  1  0  0  0  0
 16 15  1  0  0  0  0
 16 23  1  0  0  0  0
 17 16  2  0  0  0  0
 18 19  2  0  0  0  0
 18 23  1  0  0  0  0
 19 20  1  0  0  0  0
 20 38  1  0  0  0  0
 20 21  2  0  0  0  0
 21 39  1  0  0  0  0
 22 21  1  0  0  0  0
 22 40  1  0  0  0  0
 23 22  2  0  0  0  0
 24  6  1  0  0  0  0
 25  7  1  0  0  0  0
 33 14  1  0  0  0  0
 34 15  1  0  0  0  0
 36 17  1  0  0  0  0
 37 19  1  0  0  0  0
 41  5  1  0  0  0  0
M  CHG  1   1  -1
M  END
