3,4,6
q = -1.0, confidence = 0.0

 45 46  0  0  0  0  0  0  0  0999 V2000
   -5.4371   -1.5940    1.0756 O   0  0  0  0  0  0  0  0  0  0  0  0
   -5.7700   -2.2500    1.7117 H   0  0  0  0  0  0  0  0  0  0  0  0
    2.1414    0.1656    1.0603 O   0  5  0  0  0  0  0  0  0  0  0  0
   -0.1086    1.8886    0.1053 N   0  0  0  0  0  2  0  0  0  0  0  0
   -1.9076   -0.1220   -0.6316 N   0  0  0  0  0  0  0  0  0  0  0  0
    0.7029   -1.1583   -1.0800 N   0  0  0  0  0  2  0  0  0  0  0  0
    0.8941    2.7804    0.1982 C   0  0  0  0  0  3  0  0  0  0  0  0
    1.8415    2.3703    0.5876 H   0  0  0  0  0  0  0  0  0  0  0  0
    0.7269    4.1213   -0.1688 C   0  0  0  0  0  0  0  0  0  0  0  0
    1.5655    4.8264   -0.0783 H   0  0  0  0  0  0  0  0  0  0  0  0
   -0.5236    4.5300   -0.6555 C   0  0  0  0  0  0  0  0  0  0  0  0
   -0.6904    5.5733   -0.9640 H   0  0  0  0  0  0  0  0  0  0  0  0
   -1.5601    3.5911   -0.7501 C   0  0  0  0  0  0  0  0  0  0  0  0
   -2.5525    3.8747   -1.1312 H   0  0  0  0  0  0  0  0  0  0  0  0
   -1.3211    2.2669   -0.3476 C   0  0  0  0  0  0  0  0  0  0  0  0
   -2.4088    1.2126   -0.3348 C   0  0  0  0  0  0  0  0  0  0  0  0
   -2.8054    1.1713    0.7044 H   0  0  0  0  0  0  0  0  0  0  0  0
   -3.2464    1.5432   -0.9965 H   0  0  0  0  0  0  0  0  0  0  0  0
   -2.7907   -1.1920   -0.1442 C   0  0  0  0  0  0  0  0  0  0  0  0
   -2.9827   -0.9858    0.9264 H   0  0  0  0  0  0  0  0  0  0  0  0
   -2.2203   -2.1445   -0.1462 H   0  0  0  0  0  0  0  0  0  0  0  0
   -4.1168   -1.3745   -0.8938 C   0  0  0  0  0  0  0  0  0  0  0  0
   -4.6222   -0.3940   -1.0328 H   0  0  0  0  0  0  0  0  0  0  0  0
   -3.9639   -1.8040   -1.9072 H   0  0  0  0  0  0  0  0  0  0  0  0
   -5.0692   -2.2745   -0.1130 C   0  0  0  0  0  0  0  0  0  0  0  0
   -5.9606   -2.5144   -0.7447 H   0  0  0  0  0  0  0  0  0  0  0  0
   -4.5591   -3.2453    0.1055 H   0  0  0  0  0  0  0  0  0  0  0  0
   -1.3987   -0.3115   -1.9894 C   0  0  0  0  0  0  0  0  0  0  0  0
   -0.8945    0.6254   -2.3051 H   0  0  0  0  0  0  0  0  0  0  0  0
   -2.2071   -0.5115   -2.7338 H   0  0  0  0  0  0  0  0  0  0  0  0
   -0.3693   -1.4481   -2.0158 C   0  0  0  0  0  0  0  0  0  0  0  0
   -0.8690   -2.4026   -1.7326 H   0  0  0  0  0  0  0  0  0  0  0  0
    0.0126   -1.5842   -3.0527 H   0  0  0  0  0  0  0  0  0  0  0  0
    1.9277   -1.4853   -1.4028 C   0  0  0  0  0  3  0  0  0  0  0  0
    2.0790   -2.0237   -2.3677 H   0  0  0  0  0  0  0  0  0  0  0  0
    3.1317   -1.2278   -0.6670 C   0  0  0  0  0  0  0  0  0  0  0  0
    3.1746   -0.3997    0.5307 C   0  0  0  0  0  0  0  0  0  0  0  0
    4.4697   -0.1959    1.1195 C   0  0  0  0  0  0  0  0  0  0  0  0
    4.5022    0.4243    2.0277 H   0  0  0  0  0  0  0  0  0  0  0  0
    5.6196   -0.7596    0.5854 C   0  0  0  0  0  0  0  0  0  0  0  0
    6.5885   -0.5808    1.0791 H   0  0  0  0  0  0  0  0  0  0  0  0
    5.5696   -1.5612   -0.5847 C   0  0  0  0  0  0  0  0  0  0  0  0
    6.4871   -2.0003   -1.0020 H   0  0  0  0  0  0  0  0  0  0  0  0
    4.3405   -1.7752   -1.1909 C   0  0  0  0  0  0  0  0  0  0  0  0
    4.2759   -2.3890   -2.1054 H   0  0  0  0  0  0  0  0  0  0  0  0
  1  2  1  0  0  0  0
  4  7  1  0  0  0  0
  5 16  1  0  0  0  0
  5 19  1  0  0  0  0
  7  8  1  0  0  0  0
  9 10  1  0  0  0  0
  9  7  1  0  0  0  0
 11  9  2  0  0  0  0
 12 11  1  0  0  0  0
 13 11  1  0  0  0  0
 13 15  2  0  0  0  0
 14 13  1  0  0  0  0
 15 16  1  0  0  0  0
 15  4  1  0  0  0  0
 16 17  1  0  0  0  0
 18 16  1  0  0  0  0
 19 20  1  0  0  0  0
 21 19  1  0  0  0  0
 22 19  1  0  0  0  0
 22 25  1  0  0  0  0
 23 22  1  0  0  0  0
 24 22  1  0  0  0  0
 25 27  1  0  0  0  0
 25  1  1  0  0  0  0
 26 25  1  0  0  0  0
 28  5  1  0  0  0  0
 29 28  1  0  0  0  0
 30 28  1  0  0  0  0
 31 28  1  0  0  0  0
 31 32  1  0  0  0  0
 31  6  1  0  0  0  0
 33 31  1  0  0  0  0
 34  6  1  0  0  0  0
 34 36  1  0  0  0  0
 35 34  1  0  0  0  0
 36 37  1  0  0  0  0
 37  3  1  0  0  0  0
 37 38  2  0  0  0  0
 38 39  1  0  0  0  0
 40 41  1  0  0  0  0
 40 38  1  0  0  0  0
 42 40  2  0  0  0  0
 43 42  1  0  0  0  0
 44 36  2  0  0  0  0
 44 42  1  0  0  0  0
 45 44  1  0  0  0  0
M  CHG  1   3  -1
M  END
