3,4,7
q = -1.0

 37 37  0  0  0  0  0  0  0  0999 V2000
    3.0202   -0.5162   -0.2343 O   0  0  0  0  0  0  0  0  0  0  0  0
    1.8837    1.9966   -0.4630 O   0  0  0  0  0  0  0  0  0  0  0  0
   -1.6653   -1.0881   -0.7912 O   0  5  0  0  0  0  0  0  0  0  0  0
    0.9891   -2.1268   -1.2360 N   0  0  0  0  0  0  0  0  0  0  0  0
    0.9483   -1.9018   -2.2409 H   0  0  0  0  0  0  0  0  0  0  0  0
    0.1751   -2.7140   -1.0118 H   0  0  0  0  0  0  0  0  0  0  0  0
   -0.9552    1.7470   -0.4445 N   0  0  0  0  0  2  0  0  0  0  0  0
    2.2632   -2.6995   -0.8043 C   0  0  0  0  0  0  0  0  0  0  0  0
    2.5467   -3.6206   -1.3630 H   0  0  0  0  0  0  0  0  0  0  0  0
    2.1679   -2.9563    0.2699 H   0  0  0  0  0  0  0  0  0  0  0  0
    3.3737   -1.6706   -0.9721 C   0  0  0  0  0  0  0  0  0  0  0  0
    4.3430   -2.0929   -0.6155 H   0  0  0  0  0  0  0  0  0  0  0  0
    3.5018   -1.4081   -2.0526 H   0  0  0  0  0  0  0  0  0  0  0  0
    3.8193    0.6261   -0.4758 C   0  0  0  0  0  0  0  0  0  0  0  0
    3.9205    0.8021   -1.5743 H   0  0  0  0  0  0  0  0  0  0  0  0
    4.8440    0.4993   -0.0515 H   0  0  0  0  0  0  0  0  0  0  0  0
    3.1424    1.8128    0.1751 C   0  0  0  0  0  0  0  0  0  0  0  0
    2.9910    1.6179    1.2608 H   0  0  0  0  0  0  0  0  0  0  0  0
    3.7809    2.7199    0.0517 H   0  0  0  0  0  0  0  0  0  0  0  0
    1.0837    3.0119    0.1340 C   0  0  0  0  0  0  0  0  0  0  0  0
    1.5731    4.0079    0.0147 H   0  0  0  0  0  0  0  0  0  0  0  0
    0.9560    2.8065    1.2210 H   0  0  0  0  0  0  0  0  0  0  0  0
   -0.2626    3.0178   -0.5763 C   0  0  0  0  0  0  0  0  0  0  0  0
   -0.0721    3.2155   -1.6567 H   0  0  0  0  0  0  0  0  0  0  0  0
   -0.8748    3.8665   -0.1898 H   0  0  0  0  0  0  0  0  0  0  0  0
   -2.2273    1.7708   -0.1474 C   0  0  0  0  0  3  0  0  0  0  0  0
   -2.6906    2.7719    0.0285 H   0  0  0  0  0  0  0  0  0  0  0  0
   -3.1472    0.6700   -0.0126 C   0  0  0  0  0  0  0  0  0  0  0  0
   -4.4586    0.9942    0.4432 C   0  0  0  0  0  0  0  0  0  0  0  0
   -4.6820    2.0506    0.6677 H   0  0  0  0  0  0  0  0  0  0  0  0
   -5.4405    0.0275    0.6153 C   0  0  0  0  0  0  0  0  0  0  0  0
   -6.4427    0.3027    0.9737 H   0  0  0  0  0  0  0  0  0  0  0  0
   -5.1253   -1.3213    0.3195 C   0  0  0  0  0  0  0  0  0  0  0  0
   -5.8924   -2.1010    0.4524 H   0  0  0  0  0  0  0  0  0  0  0  0
   -3.8621   -1.6773   -0.1385 C   0  0  0  0  0  0  0  0  0  0  0  0
   -3.6110   -2.7222   -0.3733 H   0  0  0  0  0  0  0  0  0  0  0  0
   -2.8243   -0.7103   -0.3312 C   0  0  0  0  0  0  0  0  0  0  0  0
  2 20  1  0  0  0  0
  2 17  1  0  0  0  0
  3 37  1  0  0  0  0
  4  6  1  0  0  0  0
  4  8  1  0  0  0  0
  5  4  1  0  0  0  0
  7 26  1  0  0  0  0
  8 10  1  0  0  0  0
  9  8  1  0  0  0  0
 11  8  1  0  0  0  0
 11 12  1  0  0  0  0
 11  1  1  0  0  0  0
 13 11  1  0  0  0  0
 14  1  1  0  0  0  0
 14 16  1  0  0  0  0
 14 17  1  0  0  0  0
 15 14  1  0  0  0  0
 17 18  1  0  0  0  0
 19 17  1  0  0  0  0
 20 22  1  0  0  0  0
 21 20  1  0  0  0  0
 23  7  1  0  0  0  0
 23 25  1  0  0  0  0
 23 20  1  0  0  0  0
 24 23  1  0  0  0  0
 26 28  1  0  0  0  0
 26 27  1  0  0  0  0
 28 29  1  0  0  0  0
 29 31  2  0  0  0  0
 29 30  1  0  0  0  0
 31 32  1  0  0  0  0
 33 34  1  0  0  0  0
 33 31  1  0  0  0  0
 35 33  2  0  0  0  0
 36 35  1  0  0  0  0
 37 35  1  0  0  0  0
 37 28  2  0  0  0  0
M  CHG  1   3  -1
M  END
