2,3,4
q = -1.0

 32 32  0  0  0  0  0  0  0  0999 V2000
    5.8608   -0.3203    0.3128 Br  0  0  0  0  0  0  0  0  0  0  0  0
   -0.0218    1.0360   -0.1617 O   0  5  0  0  0  0  0  0  0  0  0  0
   -0.5200   -1.6178   -0.4961 N   0  0  0  0  0  2  0  0  0  0  0  0
   -3.1107   -1.2024   -0.3186 N   0  0  0  0  0  0  0  0  0  0  0  0
    1.7001   -0.6837   -0.1771 C   0  0  0  0  0  0  0  0  0  0  0  0
    1.2230    0.6758   -0.0621 C   0  0  0  0  0  0  0  0  0  0  0  0
    2.2001    1.6977    0.1651 C   0  0  0  0  0  0  0  0  0  0  0  0
    1.8316    2.7302    0.2482 H   0  0  0  0  0  0  0  0  0  0  0  0
    3.5502    1.4008    0.2753 C   0  0  0  0  0  0  0  0  0  0  0  0
    4.2805    2.2040    0.4510 H   0  0  0  0  0  0  0  0  0  0  0  0
    3.9996    0.0588    0.1599 C   0  0  0  0  0  0  0  0  0  0  0  0
    3.0932   -0.9652   -0.0651 C   0  0  0  0  0  3  0  0  0  0  0  0
    3.4408   -2.0049   -0.1590 H   0  0  0  0  0  0  0  0  0  0  0  0
    0.7883   -1.7501   -0.4321 C   0  0  0  0  0  0  0  0  0  0  0  0
    1.2145   -2.7601   -0.5965 H   0  0  0  0  0  0  0  0  0  0  0  0
   -1.3456   -2.7584   -0.8899 C   0  0  0  0  0  0  0  0  0  0  0  0
   -0.8585   -3.7283   -0.6480 H   0  0  0  0  0  0  0  0  0  0  0  0
   -1.5033   -2.7379   -1.9932 H   0  0  0  0  0  0  0  0  0  0  0  0
   -2.6737   -2.6110   -0.1694 C   0  0  0  0  0  0  0  0  0  0  0  0
   -3.4322   -3.3296   -0.5458 H   0  0  0  0  0  0  0  0  0  0  0  0
   -2.5358   -2.7937    0.9156 H   0  0  0  0  0  0  0  0  0  0  0  0
   -4.1716   -0.7926    0.6364 C   0  0  0  0  0  0  0  0  0  0  0  0
   -4.2968    0.2992    0.4975 H   0  0  0  0  0  0  0  0  0  0  0  0
   -3.7663   -0.9414    1.6592 H   0  0  0  0  0  0  0  0  0  0  0  0
   -5.5006   -1.5275    0.4589 C   0  0  0  0  0  0  0  0  0  0  0  0
   -5.8396   -1.4107   -0.5955 H   0  0  0  0  0  0  0  0  0  0  0  0
   -5.3711   -2.6194    0.6246 H   0  0  0  0  0  0  0  0  0  0  0  0
   -6.5732   -0.9900    1.4079 C   0  0  0  0  0  0  0  0  0  0  0  0
   -6.2725   -1.1172    2.4683 H   0  0  0  0  0  0  0  0  0  0  0  0
   -7.5373   -1.5170    1.2677 H   0  0  0  0  0  0  0  0  0  0  0  0
   -6.7505    0.0920    1.2414 H   0  0  0  0  0  0  0  0  0  0  0  0
   -3.4735   -1.0516   -1.2749 H   0  0  0  0  0  0  0  0  0  0  0  0
  2  6  1  0  0  0  0
  3 14  1  0  0  0  0
  4 19  1  0  0  0  0
  4 22  1  0  0  0  0
  5 12  1  0  0  0  0
  5  6  1  0  0  0  0
  6  7  2  0  0  0  0
  7  8  1  0  0  0  0
  7  9  1  0  0  0  0
  9 10  1  0  0  0  0
 11  9  2  0  0  0  0
 11  1  1  0  0  0  0
 12 11  1  0  0  0  0
 13 12  1  0  0  0  0
 14  5  2  0  0  0  0
 15 14  1  0  0  0  0
 16 17  1  0  0  0  0
 16  3  1  0  0  0  0
 16 19  1  0  0  0  0
 18 16  1  0  0  0  0
 19 21  1  0  0  0  0
 20 19  1  0  0  0  0
 22 24  1  0  0  0  0
 23 22  1  0  0  0  0
 25 27  1  0  0  0  0
 25 22  1  0  0  0  0
 25 28  1  0  0  0  0
 26 25  1  0  0  0  0
 28 29  1  0  0  0  0
 30 28  1  0  0  0  0
 31 28  1  0  0  0  0
 32  4  1  0  0  0  0
M  CHG  1   2  -1
M  END
