1,2,4
q = -1.0

 65 67  0  0  1  0  0  0  0  0999 V2000
    0.4069    1.5148   -0.0005 O   0  5  0  0  0  0  0  0  0  0  0  0
    1.9787   -0.5776    1.4526 N   0  0  0  0  0  2  0  0  0  0  0  0
    1.0461   -1.5292    1.2082 N   0  0  0  0  0  0  0  0  0  0  0  0
    1.9788   -0.5780   -1.4525 N   0  0  0  0  0  2  0  0  0  0  0  0
    1.0466   -1.5298   -1.2076 N   0  0  0  0  0  0  0  0  0  0  0  0
    2.5091   -0.8359    2.6603 C   0  0  2  0  0  3  0  0  0  0  0  0
    1.8791   -1.9837    3.2060 C   0  0  0  0  0  0  0  0  0  0  0  0
    0.9447   -2.4060    2.2585 C   0  0  0  0  0  0  0  0  0  0  0  0
    3.5808    0.0381    3.2264 C   0  0  0  0  0  0  0  0  0  0  0  0
   -0.0295   -3.5369    2.2871 C   0  0  0  0  0  0  0  0  0  0  0  0
    2.5099   -0.8371   -2.6598 C   0  0  1  0  0  3  0  0  0  0  0  0
    1.8806   -1.9857   -3.2046 C   0  0  0  0  0  0  0  0  0  0  0  0
    0.9461   -2.4076   -2.2571 C   0  0  0  0  0  0  0  0  0  0  0  0
    3.5812    0.0370   -3.2262 C   0  0  0  0  0  0  0  0  0  0  0  0
   -0.0274   -3.5392   -2.2851 C   0  0  0  0  0  0  0  0  0  0  0  0
    0.2059   -1.5046    0.0001 C   0  0  2  0  0  0  0  0  0  0  0  0
   -0.9326   -0.5038   -0.0002 C   0  0  0  0  0  0  0  0  0  0  0  0
   -0.7586    0.9218   -0.0003 C   0  0  0  0  0  0  0  0  0  0  0  0
   -1.9639    1.7274   -0.0003 C   0  0  0  0  0  0  0  0  0  0  0  0
   -3.2081    1.0903   -0.0003 C   0  0  0  0  0  0  0  0  0  0  0  0
   -3.3879   -0.3139   -0.0003 C   0  0  0  0  0  0  0  0  0  0  0  0
   -2.2232   -1.0829   -0.0002 C   0  0  0  0  0  0  0  0  0  0  0  0
   -1.8541    3.2650   -0.0004 C   0  0  0  0  0  0  0  0  0  0  0  0
   -1.1005    3.7328   -1.2686 C   0  0  0  0  0  0  0  0  0  0  0  0
   -3.2353    3.9456   -0.0004 C   0  0  0  0  0  0  0  0  0  0  0  0
   -1.1003    3.7329    1.2677 C   0  0  0  0  0  0  0  0  0  0  0  0
   -4.8032   -0.9142   -0.0003 C   0  0  0  0  0  0  0  0  0  0  0  0
   -5.5623   -0.4420    1.2607 C   0  0  0  0  0  0  0  0  0  0  0  0
   -5.5622   -0.4422   -1.2615 C   0  0  0  0  0  0  0  0  0  0  0  0
   -4.7772   -2.4523   -0.0002 C   0  0  0  0  0  0  0  0  0  0  0  0
    2.0778   -2.4534    4.1747 H   0  0  0  0  0  0  0  0  0  0  0  0
    3.1846    0.6641    4.0526 H   0  0  0  0  0  0  0  0  0  0  0  0
    3.9831    0.7125    2.4441 H   0  0  0  0  0  0  0  0  0  0  0  0
    4.4101   -0.5690    3.6399 H   0  0  0  0  0  0  0  0  0  0  0  0
    0.0748   -4.0944    3.2355 H   0  0  0  0  0  0  0  0  0  0  0  0
   -1.0766   -3.1754    2.2168 H   0  0  0  0  0  0  0  0  0  0  0  0
    0.1367   -4.2567    1.4578 H   0  0  0  0  0  0  0  0  0  0  0  0
    2.0800   -2.4562   -4.1728 H   0  0  0  0  0  0  0  0  0  0  0  0
    0.0777   -4.0976   -3.2329 H   0  0  0  0  0  0  0  0  0  0  0  0
   -1.0748   -3.1783   -2.2157 H   0  0  0  0  0  0  0  0  0  0  0  0
    0.1388   -4.2581   -1.4550 H   0  0  0  0  0  0  0  0  0  0  0  0
   -0.2777   -2.4957    0.0003 H   0  0  0  0  0  0  0  0  0  0  0  0
   -4.1084    1.7198   -0.0004 H   0  0  0  0  0  0  0  0  0  0  0  0
   -2.2942   -2.1826   -0.0002 H   0  0  0  0  0  0  0  0  0  0  0  0
   -1.0052    4.8389   -1.2701 H   0  0  0  0  0  0  0  0  0  0  0  0
   -1.6554    3.4363   -2.1825 H   0  0  0  0  0  0  0  0  0  0  0  0
   -0.0889    3.2906   -1.3096 H   0  0  0  0  0  0  0  0  0  0  0  0
   -3.1011    5.0462   -0.0004 H   0  0  0  0  0  0  0  0  0  0  0  0
   -3.8309    3.6841   -0.8990 H   0  0  0  0  0  0  0  0  0  0  0  0
   -3.8308    3.6842    0.8984 H   0  0  0  0  0  0  0  0  0  0  0  0
   -1.0050    4.8390    1.2690 H   0  0  0  0  0  0  0  0  0  0  0  0
   -1.6552    3.4365    2.1817 H   0  0  0  0  0  0  0  0  0  0  0  0
   -0.0887    3.2907    1.3086 H   0  0  0  0  0  0  0  0  0  0  0  0
   -6.5947   -0.8505    1.2754 H   0  0  0  0  0  0  0  0  0  0  0  0
   -5.6365    0.6628    1.3018 H   0  0  0  0  0  0  0  0  0  0  0  0
   -5.0435   -0.7770    2.1817 H   0  0  0  0  0  0  0  0  0  0  0  0
   -6.5945   -0.8506   -1.2762 H   0  0  0  0  0  0  0  0  0  0  0  0
   -5.6364    0.6627   -1.3027 H   0  0  0  0  0  0  0  0  0  0  0  0
   -5.0433   -0.7772   -2.1824 H   0  0  0  0  0  0  0  0  0  0  0  0
   -5.8122   -2.8500   -0.0003 H   0  0  0  0  0  0  0  0  0  0  0  0
   -4.2659   -2.8550   -0.8986 H   0  0  0  0  0  0  0  0  0  0  0  0
   -4.2660   -2.8549    0.8983 H   0  0  0  0  0  0  0  0  0  0  0  0
    3.9847    0.7104   -2.4437 H   0  0  0  0  0  0  0  0  0  0  0  0
    4.4096   -0.5699   -3.6416 H   0  0  0  0  0  0  0  0  0  0  0  0
    3.1840    0.6642   -4.0512 H   0  0  0  0  0  0  0  0  0  0  0  0
  1 18  1  0  0  0  0
  2  6  1  0  0  0  0
  3  2  1  0  0  0  0
  3  8  1  0  0  0  0
  4  5  1  0  0  0  0
  5 16  1  0  0  0  0
  6  7  1  0  0  0  0
  6  9  1  1  0  0  0
  7 31  1  0  0  0  0
  8 10  1  0  0  0  0
  8  7  2  0  0  0  0
  9 34  1  0  0  0  0
  9 32  1  0  0  0  0
 10 35  1  0  0  0  0
 11 14  1  6  0  0  0
 11  4  1  0  0  0  0
 12 11  1  0  0  0  0
 12 13  2  0  0  0  0
 13  5  1  0  0  0  0
 14 63  1  0  0  0  0
 15 13  1  0  0  0  0
 15 40  1  0  0  0  0
 15 41  1  0  0  0  0
 16 42  1  1  0  0  0
 16  3  1  0  0  0  0
 17 16  1  0  0  0  0
 18 17  2  0  0  0  0
 19 20  2  0  0  0  0
 19 18  1  0  0  0  0
 20 21  1  0  0  0  0
 21 22  2  0  0  0  0
 22 17  1  0  0  0  0
 22 44  1  0  0  0  0
 23 25  1  0  0  0  0
 23 19  1  0  0  0  0
 23 26  1  0  0  0  0
 24 23  1  0  0  0  0
 25 50  1  0  0  0  0
 26 51  1  0  0  0  0
 26 53  1  0  0  0  0
 26 52  1  0  0  0  0
 27 21  1  0  0  0  0
 27 30  1  0  0  0  0
 27 28  1  0  0  0  0
 28 54  1  0  0  0  0
 28 55  1  0  0  0  0
 28 56  1  0  0  0  0
 29 27  1  0  0  0  0
 30 62  1  0  0  0  0
 33  9  1  0  0  0  0
 36 10  1  0  0  0  0
 37 10  1  0  0  0  0
 38 12  1  0  0  0  0
 39 15  1  0  0  0  0
 43 20  1  0  0  0  0
 45 24  1  0  0  0  0
 46 24  1  0  0  0  0
 47 24  1  0  0  0  0
 48 25  1  0  0  0  0
 49 25  1  0  0  0  0
 57 29  1  0  0  0  0
 58 29  1  0  0  0  0
 59 29  1  0  0  0  0
 60 30  1  0  0  0  0
 61 30  1  0  0  0  0
 64 14  1  0  0  0  0
 65 14  1  0  0  0  0
M  CHG  1   1  -1
M  END
