1,6,20
q = -1.0, confidence = 0.072

 51 52  0  0  1  0  0  0  0  0999 V2000
   -1.0958   -0.2041    2.2052 O   0  5  0  0  0  0  0  0  0  0  0  0
    0.0824   -1.4435    0.4882 C   0  0  1  0  0  0  0  0  0  0  0  0
    0.6848   -2.3594    0.4475 H   0  0  0  0  0  0  0  0  0  0  0  0
    0.0829   -2.0560    2.8024 O   0  0  0  0  0  0  0  0  0  0  0  0
   -0.3503   -1.2241    2.0038 C   0  0  0  0  0  0  0  0  0  0  0  0
   -1.9851   -0.6604   -0.5179 N   0  0  0  0  0  2  0  0  0  0  0  0
   -4.2027   -0.3250   -1.5531 C   0  0  0  0  0  0  0  0  0  0  0  0
   -5.1553   -0.8350   -1.3089 H   0  0  0  0  0  0  0  0  0  0  0  0
   -4.2149   -0.1042   -2.6407 H   0  0  0  0  0  0  0  0  0  0  0  0
   -4.1654    0.6367   -1.0071 H   0  0  0  0  0  0  0  0  0  0  0  0
   -1.0793   -1.6570   -0.3661 N   0  0  0  0  0  0  0  0  0  0  0  0
   -3.0300   -1.1761   -1.1871 C   0  0  1  0  0  3  0  0  0  0  0  0
   -2.7906   -2.5505   -1.4423 C   0  0  0  0  0  0  0  0  0  0  0  0
   -3.4506   -3.2577   -1.9554 H   0  0  0  0  0  0  0  0  0  0  0  0
   -1.5407   -2.8398   -0.8909 C   0  0  0  0  0  0  0  0  0  0  0  0
   -0.8016   -4.1328   -0.7912 C   0  0  0  0  0  0  0  0  0  0  0  0
   -0.5215   -4.3624    0.2577 H   0  0  0  0  0  0  0  0  0  0  0  0
    0.1256   -4.1377   -1.4010 H   0  0  0  0  0  0  0  0  0  0  0  0
   -1.4435   -4.9542   -1.1576 H   0  0  0  0  0  0  0  0  0  0  0  0
    0.3663    0.9032   -0.0305 N   0  0  0  0  0  2  0  0  0  0  0  0
    0.6974    3.8348    0.8300 C   0  0  0  0  0  0  0  0  0  0  0  0
    0.5050    4.9232    0.7369 H   0  0  0  0  0  0  0  0  0  0  0  0
    1.5031    3.6854    1.5763 H   0  0  0  0  0  0  0  0  0  0  0  0
   -0.2239    3.3575    1.2169 H   0  0  0  0  0  0  0  0  0  0  0  0
    0.9150   -0.3414    0.0185 N   0  0  0  0  0  0  0  0  0  0  0  0
   -0.0460    3.4594   -1.5585 C   0  0  0  0  0  0  0  0  0  0  0  0
   -0.2461    4.5431   -1.6831 H   0  0  0  0  0  0  0  0  0  0  0  0
   -0.9820    2.9776   -1.2152 H   0  0  0  0  0  0  0  0  0  0  0  0
    0.2191    3.0382   -2.5493 H   0  0  0  0  0  0  0  0  0  0  0  0
    2.3717    3.9353   -1.0459 C   0  0  0  0  0  0  0  0  0  0  0  0
    2.1857    5.0202   -1.1740 H   0  0  0  0  0  0  0  0  0  0  0  0
    2.6960    3.5290   -2.0254 H   0  0  0  0  0  0  0  0  0  0  0  0
    3.2092    3.8216   -0.3282 H   0  0  0  0  0  0  0  0  0  0  0  0
    1.0948    3.2420   -0.5407 C   0  0  0  0  0  0  0  0  0  0  0  0
    1.3493    1.7525   -0.3798 C   0  0  1  0  0  3  0  0  0  0  0  0
    2.5559    1.0289   -0.5304 C   0  0  0  0  0  0  0  0  0  0  0  0
    3.5328    1.4344   -0.8000 H   0  0  0  0  0  0  0  0  0  0  0  0
    2.2646   -0.3121   -0.2570 C   0  0  0  0  0  0  0  0  0  0  0  0
    3.2144   -1.5002   -0.1960 C   0  0  0  0  0  0  0  0  0  0  0  0
    4.6261   -1.0154   -0.5856 C   0  0  0  0  0  0  0  0  0  0  0  0
    5.3354   -1.8652   -0.5378 H   0  0  0  0  0  0  0  0  0  0  0  0
    4.9918   -0.2324    0.1072 H   0  0  0  0  0  0  0  0  0  0  0  0
    4.6496   -0.6097   -1.6167 H   0  0  0  0  0  0  0  0  0  0  0  0
    2.8059   -2.5989   -1.2039 C   0  0  0  0  0  0  0  0  0  0  0  0
    3.5629   -3.4088   -1.2026 H   0  0  0  0  0  0  0  0  0  0  0  0
    2.7386   -2.1894   -2.2316 H   0  0  0  0  0  0  0  0  0  0  0  0
    1.8333   -3.0643   -0.9605 H   0  0  0  0  0  0  0  0  0  0  0  0
    3.2803   -2.0616    1.2468 C   0  0  0  0  0  0  0  0  0  0  0  0
    3.6754   -1.2907    1.9381 H   0  0  0  0  0  0  0  0  0  0  0  0
    3.9675   -2.9317    1.2773 H   0  0  0  0  0  0  0  0  0  0  0  0
    2.3013   -2.3802    1.6572 H   0  0  0  0  0  0  0  0  0  0  0  0
  2  3  1  6  0  0  0
  2  5  1  0  0  0  0
  5  1  1  0  0  0  0
  5  4  2  0  0  0  0
  6 11  1  0  0  0  0
  7  8  1  0  0  0  0
  7 10  1  0  0  0  0
  9  7  1  0  0  0  0
 11  2  1  0  0  0  0
 12  7  1  6  0  0  0
 12  6  1  0  0  0  0
 13 12  1  0  0  0  0
 13 15  2  0  0  0  0
 14 13  1  0  0  0  0
 15 16  1  0  0  0  0
 15 11  1  0  0  0  0
 16 17  1  0  0  0  0
 18 16  1  0  0  0  0
 19 16  1  0  0  0  0
 20 25  1  0  0  0  0
 21 24  1  0  0  0  0
 21 23  1  0  0  0  0
 22 21  1  0  0  0  0
 25  2  1  0  0  0  0
 26 28  1  0  0  0  0
 26 34  1  0  0  0  0
 27 26  1  0  0  0  0
 29 26  1  0  0  0  0
 30 34  1  0  0  0  0
 30 33  1  0  0  0  0
 31 30  1  0  0  0  0
 32 30  1  0  0  0  0
 34 21  1  0  0  0  0
 35 34  1  1  0  0  0
 35 20  1  0  0  0  0
 36 35  1  0  0  0  0
 36 38  2  0  0  0  0
 37 36  1  0  0  0  0
 38 39  1  0  0  0  0
 38 25  1  0  0  0  0
 39 48  1  0  0  0  0
 40 41  1  0  0  0  0
 40 39  1  0  0  0  0
 40 42  1  0  0  0  0
 43 40  1  0  0  0  0
 44 45  1  0  0  0  0
 44 47  1  0  0  0  0
 44 39  1  0  0  0  0
 46 44  1  0  0  0  0
 48 50  1  0  0  0  0
 48 51  1  0  0  0  0
 48 49  1  0  0  0  0
M  CHG  1   1  -1
M  END
