1,2,4
q = -1.0

 56 58  0  0  1  0  0  0  0  0999 V2000
    0.1401    0.5731    0.0663 O   0  5  0  0  0  0  0  0  0  0  0  0
   -1.4375   -1.6958    1.2934 N   0  0  0  0  0  2  0  0  0  0  0  0
   -2.6373   -1.1598    0.9609 N   0  0  0  0  0  0  0  0  0  0  0  0
   -1.2120   -1.4304   -1.6055 N   0  0  0  0  0  2  0  0  0  0  0  0
   -2.3991   -0.8038   -1.4192 N   0  0  0  0  0  0  0  0  0  0  0  0
   -5.0248   -1.0586    1.7687 C   0  0  0  0  0  0  0  0  0  0  0  0
   -5.0966    0.0441    1.8735 H   0  0  0  0  0  0  0  0  0  0  0  0
   -5.5040   -1.3412    0.8079 H   0  0  0  0  0  0  0  0  0  0  0  0
   -5.6177   -1.5142    2.5823 H   0  0  0  0  0  0  0  0  0  0  0  0
   -3.6103   -1.5282    1.8550 C   0  0  2  0  0  3  0  0  0  0  0  0
   -2.9829   -2.3525    2.7911 C   0  0  0  0  0  0  0  0  0  0  0  0
   -3.4570   -2.8357    3.6514 H   0  0  0  0  0  0  0  0  0  0  0  0
   -1.6221   -2.4336    2.4025 C   0  0  0  0  0  0  0  0  0  0  0  0
   -0.4830   -3.1580    3.0421 C   0  0  0  0  0  0  0  0  0  0  0  0
    0.3117   -3.3668    2.2973 H   0  0  0  0  0  0  0  0  0  0  0  0
   -0.0312   -2.5436    3.8492 H   0  0  0  0  0  0  0  0  0  0  0  0
   -0.8213   -4.1096    3.4943 H   0  0  0  0  0  0  0  0  0  0  0  0
   -4.4160   -0.0064   -2.6985 C   0  0  0  0  0  0  0  0  0  0  0  0
   -4.3437    1.0578   -2.3919 H   0  0  0  0  0  0  0  0  0  0  0  0
   -4.7737   -0.0388   -3.7435 H   0  0  0  0  0  0  0  0  0  0  0  0
   -5.1909   -0.4887   -2.0656 H   0  0  0  0  0  0  0  0  0  0  0  0
   -3.0951   -0.6934   -2.5958 C   0  0  1  0  0  3  0  0  0  0  0  0
   -2.3043   -1.3023   -3.5716 C   0  0  0  0  0  0  0  0  0  0  0  0
   -2.5492   -1.4059   -4.6335 H   0  0  0  0  0  0  0  0  0  0  0  0
   -1.1333   -1.7503   -2.9099 C   0  0  0  0  0  0  0  0  0  0  0  0
    0.0615   -2.4592   -3.4609 C   0  0  0  0  0  0  0  0  0  0  0  0
    0.7979   -2.6667   -2.6595 H   0  0  0  0  0  0  0  0  0  0  0  0
   -0.2242   -3.4215   -3.9314 H   0  0  0  0  0  0  0  0  0  0  0  0
    0.5578   -1.8462   -4.2410 H   0  0  0  0  0  0  0  0  0  0  0  0
   -2.7717   -0.1874   -0.1328 C   0  0  2  0  0  0  0  0  0  0  0  0
   -3.8619   -0.0428   -0.2182 H   0  0  0  0  0  0  0  0  0  0  0  0
   -2.1994    1.1903    0.1309 C   0  0  0  0  0  0  0  0  0  0  0  0
   -3.1625    2.2142    0.2920 C   0  0  0  0  0  0  0  0  0  0  0  0
   -4.2349    1.9551    0.2231 H   0  0  0  0  0  0  0  0  0  0  0  0
   -2.8012    3.5398    0.5327 C   0  0  0  0  0  0  0  0  0  0  0  0
   -3.8245    4.6333    0.7111 C   0  0  0  0  0  0  0  0  0  0  0  0
   -4.8580    4.2469    0.6063 H   0  0  0  0  0  0  0  0  0  0  0  0
   -3.7468    5.1093    1.7121 H   0  0  0  0  0  0  0  0  0  0  0  0
   -3.6937    5.4451   -0.0359 H   0  0  0  0  0  0  0  0  0  0  0  0
   -1.4165    3.8211    0.5997 C   0  0  0  0  0  0  0  0  0  0  0  0
   -1.1221    4.8646    0.7833 H   0  0  0  0  0  0  0  0  0  0  0  0
   -0.4140    2.8582    0.4457 C   0  0  0  0  0  0  0  0  0  0  0  0
    1.0781    3.2348    0.5187 C   0  0  0  0  0  0  0  0  0  0  0  0
    1.2857    4.7405    0.7626 C   0  0  0  0  0  0  0  0  0  0  0  0
    0.8488    5.3604   -0.0471 H   0  0  0  0  0  0  0  0  0  0  0  0
    0.8512    5.0729    1.7278 H   0  0  0  0  0  0  0  0  0  0  0  0
    2.3725    4.9564    0.7953 H   0  0  0  0  0  0  0  0  0  0  0  0
    1.7529    2.4750    1.6859 C   0  0  0  0  0  0  0  0  0  0  0  0
    2.8296    2.7354    1.7394 H   0  0  0  0  0  0  0  0  0  0  0  0
    1.2827    2.7520    2.6521 H   0  0  0  0  0  0  0  0  0  0  0  0
    1.6743    1.3814    1.5542 H   0  0  0  0  0  0  0  0  0  0  0  0
    1.7635    2.8790   -0.8221 C   0  0  0  0  0  0  0  0  0  0  0  0
    1.3228    3.4707   -1.6513 H   0  0  0  0  0  0  0  0  0  0  0  0
    2.8493    3.0984   -0.7811 H   0  0  0  0  0  0  0  0  0  0  0  0
    1.6381    1.8049   -1.0459 H   0  0  0  0  0  0  0  0  0  0  0  0
   -0.7946    1.4794    0.2096 C   0  0  0  0  0  0  0  0  0  0  0  0
  1 56  1  0  0  0  0
  2 13  1  0  0  0  0
  3  2  1  0  0  0  0
  3 10  1  0  0  0  0
  4  5  1  0  0  0  0
  5 30  1  0  0  0  0
  6  7  1  0  0  0  0
  6  9  1  0  0  0  0
  8  6  1  0  0  0  0
 10  6  1  1  0  0  0
 10 11  1  0  0  0  0
 11 12  1  0  0  0  0
 13 11  2  0  0  0  0
 13 14  1  0  0  0  0
 14 17  1  0  0  0  0
 14 16  1  0  0  0  0
 15 14  1  0  0  0  0
 18 19  1  0  0  0  0
 18 21  1  0  0  0  0
 20 18  1  0  0  0  0
 22 18  1  6  0  0  0
 22  5  1  0  0  0  0
 23 25  2  0  0  0  0
 23 22  1  0  0  0  0
 24 23  1  0  0  0  0
 25  4  1  0  0  0  0
 26 25  1  0  0  0  0
 26 27  1  0  0  0  0
 28 26  1  0  0  0  0
 29 26  1  0  0  0  0
 30 31  1  6  0  0  0
 30 32  1  0  0  0  0
 30  3  1  0  0  0  0
 32 56  2  0  0  0  0
 32 33  1  0  0  0  0
 33 35  2  0  0  0  0
 34 33  1  0  0  0  0
 35 40  1  0  0  0  0
 35 36  1  0  0  0  0
 36 38  1  0  0  0  0
 37 36  1  0  0  0  0
 39 36  1  0  0  0  0
 40 41  1  0  0  0  0
 42 43  1  0  0  0  0
 42 40  2  0  0  0  0
 43 44  1  0  0  0  0
 43 48  1  0  0  0  0
 44 47  1  0  0  0  0
 44 46  1  0  0  0  0
 45 44  1  0  0  0  0
 48 49  1  0  0  0  0
 48 50  1  0  0  0  0
 51 48  1  0  0  0  0
 52 54  1  0  0  0  0
 52 43  1  0  0  0  0
 53 52  1  0  0  0  0
 55 52  1  0  0  0  0
 56 42  1  0  0  0  0
M  CHG  1   1  -1
M  END
