11,22,25
q = -1.0

 48 49  0  0  1  0  0  0  0  0999 V2000
    6.4739    0.4595    0.0141 C   0  0  0  0  0  0  0  0  0  0  0  0
    7.8437    0.1808    0.0777 C   0  0  0  0  0  0  0  0  0  0  0  0
    8.2937   -1.1478    0.1662 C   0  0  0  0  0  0  0  0  0  0  0  0
    7.3591   -2.1947    0.1883 C   0  0  0  0  0  0  0  0  0  0  0  0
    5.9874   -1.9186    0.1241 C   0  0  0  0  0  0  0  0  0  0  0  0
    5.5225   -0.5860    0.0388 C   0  0  0  0  0  0  0  0  0  0  0  0
    4.0623   -0.3400   -0.0234 C   0  0  1  0  0  3  0  0  0  0  0  0
    3.3254   -1.4499   -0.0726 O   0  0  0  0  0  0  0  0  0  0  0  0
    3.4959    0.9266   -0.0229 C   0  0  0  0  0  0  0  0  0  0  0  0
    2.0688    1.1517   -0.0789 C   0  0  0  0  0  0  0  0  0  0  0  0
    1.3241    0.0704   -0.1382 O   0  5  0  0  0  0  0  0  0  0  0  0
    1.5670    2.4755   -0.0817 C   0  0  0  0  0  0  0  0  0  0  0  0
    0.2188    2.8973   -0.1265 C   0  0  0  0  0  0  0  0  0  0  0  0
   -0.0428    4.3861   -0.2370 C   0  0  0  0  0  0  0  0  0  0  0  0
   -5.2982   -1.7130   -0.7555 C   0  0  0  0  0  0  0  0  0  0  0  0
   -6.6445   -1.7642   -1.1441 C   0  0  0  0  0  0  0  0  0  0  0  0
   -7.6275   -1.1406   -0.3581 C   0  0  0  0  0  0  0  0  0  0  0  0
   -7.2582   -0.4692    0.8180 C   0  0  0  0  0  0  0  0  0  0  0  0
   -5.9094   -0.4144    1.2021 C   0  0  0  0  0  0  0  0  0  0  0  0
   -4.9135   -1.0327    0.4198 C   0  0  0  0  0  0  0  0  0  0  0  0
   -3.4508   -0.9465    0.7796 C   0  0  0  0  0  0  0  0  0  0  0  0
   -2.7455    0.1186   -0.0027 N   0  0  0  0  0  0  0  0  0  0  0  0
   -3.1233    1.5001    0.3994 C   0  0  0  0  0  0  0  0  0  0  0  0
   -2.1959    2.4973   -0.2783 C   0  0  0  0  0  0  0  0  0  0  0  0
   -0.8210    2.0596   -0.0789 N   0  0  0  0  0  2  0  0  0  0  0  0
    6.1445    1.5054   -0.0628 H   0  0  0  0  0  0  0  0  0  0  0  0
    8.5689    1.0084    0.0554 H   0  0  0  0  0  0  0  0  0  0  0  0
    9.3717   -1.3644    0.2159 H   0  0  0  0  0  0  0  0  0  0  0  0
    7.7017   -3.2385    0.2560 H   0  0  0  0  0  0  0  0  0  0  0  0
    5.2482   -2.7308    0.1402 H   0  0  0  0  0  0  0  0  0  0  0  0
    2.3574   -1.1482   -0.1062 H   0  0  0  0  0  0  0  0  0  0  0  0
    4.1438    1.8082    0.0316 H   0  0  0  0  0  0  0  0  0  0  0  0
    2.3256    3.2688   -0.0631 H   0  0  0  0  0  0  0  0  0  0  0  0
   -0.6708    4.7542    0.6012 H   0  0  0  0  0  0  0  0  0  0  0  0
   -0.5772    4.6321   -1.1784 H   0  0  0  0  0  0  0  0  0  0  0  0
    0.9053    4.9520   -0.2262 H   0  0  0  0  0  0  0  0  0  0  0  0
   -4.5290   -2.2212   -1.3602 H   0  0  0  0  0  0  0  0  0  0  0  0
   -6.9306   -2.3040   -2.0595 H   0  0  0  0  0  0  0  0  0  0  0  0
   -8.6851   -1.1851   -0.6592 H   0  0  0  0  0  0  0  0  0  0  0  0
   -8.0260    0.0126    1.4424 H   0  0  0  0  0  0  0  0  0  0  0  0
   -5.6228    0.1071    2.1294 H   0  0  0  0  0  0  0  0  0  0  0  0
   -3.3008   -0.7154    1.8520 H   0  0  0  0  0  0  0  0  0  0  0  0
   -2.9090   -1.8887    0.5593 H   0  0  0  0  0  0  0  0  0  0  0  0
   -3.0066   -0.0154   -0.9943 H   0  0  0  0  0  0  0  0  0  0  0  0
   -4.1908    1.7045    0.1671 H   0  0  0  0  0  0  0  0  0  0  0  0
   -2.9900    1.5579    1.4984 H   0  0  0  0  0  0  0  0  0  0  0  0
   -2.4359    2.5573   -1.3689 H   0  0  0  0  0  0  0  0  0  0  0  0
   -2.3889    3.5078    0.1409 H   0  0  0  0  0  0  0  0  0  0  0  0
  1  6  2  0  0  0  0
  1  2  1  0  0  0  0
  2  3  2  0  0  0  0
  3  4  1  0  0  0  0
  3 28  1  0  0  0  0
  4 29  1  0  0  0  0
  5 30  1  0  0  0  0
  5  4  2  0  0  0  0
  6  5  1  0  0  0  0
  7  8  1  1  0  0  0
  7  9  1  0  0  0  0
  7  6  1  0  0  0  0
  9 32  1  0  0  0  0
 10  9  2  0  0  0  0
 11 10  1  0  0  0  0
 12 10  1  0  0  0  0
 12 33  1  0  0  0  0
 13 12  2  0  0  0  0
 13 25  1  0  0  0  0
 14 36  1  0  0  0  0
 14 13  1  0  0  0  0
 14 34  1  0  0  0  0
 15 20  1  0  0  0  0
 16 15  2  0  0  0  0
 16 17  1  0  0  0  0
 17 18  2  0  0  0  0
 18 19  1  0  0  0  0
 18 40  1  0  0  0  0
 19 41  1  0  0  0  0
 20 21  1  0  0  0  0
 20 19  2  0  0  0  0
 21 42  1  0  0  0  0
 22 23  1  0  0  0  0
 22 21  1  0  0  0  0
 23 46  1  0  0  0  0
 24 25  1  0  0  0  0
 24 48  1  0  0  0  0
 24 23  1  0  0  0  0
 26  1  1  0  0  0  0
 27  2  1  0  0  0  0
 31  8  1  0  0  0  0
 35 14  1  0  0  0  0
 37 15  1  0  0  0  0
 38 16  1  0  0  0  0
 39 17  1  0  0  0  0
 43 21  1  0  0  0  0
 44 22  1  0  0  0  0
 45 23  1  0  0  0  0
 47 24  1  0  0  0  0
M  CHG  1  11  -1
M  END
