1,6,7
q = -1.0, confidence = 0.0

 32 33  0  0  0  0  0  0  0  0999 V2000
   -1.5379    1.1969    0.5275 O   0  5  0  0  0  0  0  0  0  0  0  0
   -5.1626    0.9276   -1.6937 N   0  0  0  0  0  0  0  0  0  0  0  0
   -6.0017    0.9788   -2.2658 H   0  0  0  0  0  0  0  0  0  0  0  0
   -4.3116    0.4007   -1.9664 H   0  0  0  0  0  0  0  0  0  0  0  0
   -2.6504    0.1932   -1.2648 N   0  0  0  0  0  0  0  0  0  0  0  0
    0.8329   -1.6595   -1.4322 N   0  0  0  0  0  2  0  0  0  0  0  0
   -1.5059   -0.4585   -1.4307 N   0  0  0  0  0  2  0  0  0  0  0  0
   -3.7220    2.7337    1.2221 C   0  0  0  0  0  0  0  0  0  0  0  0
   -2.7673    2.7616    1.7668 H   0  0  0  0  0  0  0  0  0  0  0  0
   -4.7952    3.5357    1.6022 C   0  0  0  0  0  0  0  0  0  0  0  0
   -4.7098    4.2152    2.4624 H   0  0  0  0  0  0  0  0  0  0  0  0
   -5.9929    3.4639    0.8582 C   0  0  0  0  0  0  0  0  0  0  0  0
   -6.8544    4.0914    1.1364 H   0  0  0  0  0  0  0  0  0  0  0  0
   -6.1019    2.6050   -0.2313 C   0  0  0  0  0  0  0  0  0  0  0  0
   -7.0416    2.5552   -0.8045 H   0  0  0  0  0  0  0  0  0  0  0  0
   -5.0191    1.7706   -0.6358 C   0  0  0  0  0  0  0  0  0  0  0  0
   -3.7922    1.8483    0.1185 C   0  0  0  0  0  0  0  0  0  0  0  0
   -2.5780    1.0638   -0.1863 C   0  0  0  0  0  0  0  0  0  0  0  0
   -1.3552   -1.3459   -2.3910 C   0  0  0  0  0  0  0  0  0  0  0  0
   -0.0350   -1.9945   -2.4278 C   0  0  0  0  0  0  0  0  0  0  0  0
    0.3594   -2.9145   -3.4288 C   0  0  0  0  0  0  0  0  0  0  0  0
   -0.3342   -3.1892   -4.2347 H   0  0  0  0  0  0  0  0  0  0  0  0
    1.6461   -3.4617   -3.3920 C   0  0  0  0  0  0  0  0  0  0  0  0
    1.9624   -4.1735   -4.1697 H   0  0  0  0  0  0  0  0  0  0  0  0
    2.5276   -3.0900   -2.3650 C   0  0  0  0  0  0  0  0  0  0  0  0
    3.5495   -3.4899   -2.3064 H   0  0  0  0  0  0  0  0  0  0  0  0
    2.0639   -2.1782   -1.4043 C   0  0  0  0  0  0  0  0  0  0  0  0
    2.7102   -1.8416   -0.5748 H   0  0  0  0  0  0  0  0  0  0  0  0
   -2.4679   -1.6401   -3.3509 C   0  0  0  0  0  0  0  0  0  0  0  0
   -3.3845   -1.9197   -2.7890 H   0  0  0  0  0  0  0  0  0  0  0  0
   -2.2325   -2.4490   -4.0639 H   0  0  0  0  0  0  0  0  0  0  0  0
   -2.7301   -0.7264   -3.9261 H   0  0  0  0  0  0  0  0  0  0  0  0
  2 16  1  0  0  0  0
  3  2  1  0  0  0  0
  4  2  1  0  0  0  0
  5 18  2  0  0  0  0
  6 27  1  0  0  0  0
  7  5  1  0  0  0  0
  8 10  1  0  0  0  0
  8  9  1  0  0  0  0
 10 11  1  0  0  0  0
 12 13  1  0  0  0  0
 12 10  2  0  0  0  0
 14 12  1  0  0  0  0
 15 14  1  0  0  0  0
 16 14  2  0  0  0  0
 16 17  1  0  0  0  0
 17  8  2  0  0  0  0
 18 17  1  0  0  0  0
 18  1  1  0  0  0  0
 19  7  1  0  0  0  0
 20 19  2  0  0  0  0
 20  6  1  0  0  0  0
 21 23  2  0  0  0  0
 21 20  1  0  0  0  0
 22 21  1  0  0  0  0
 23 25  1  0  0  0  0
 24 23  1  0  0  0  0
 25 26  1  0  0  0  0
 25 27  2  0  0  0  0
 27 28  1  0  0  0  0
 29 30  1  0  0  0  0
 29 19  1  0  0  0  0
 31 29  1  0  0  0  0
 32 29  1  0  0  0  0
M  CHG  1   1  -1
M  END
