1,2,6
q = -2.0, confidence = 0.94

 54 58  0  0  0  0  0  0  0  0999 V2000
   -0.9354   -0.0242   -0.5654 O   0  5  0  0  0  0  0  0  0  0  0  0
    0.9862    1.6827   -0.1961 N   0  0  0  0  0  2  0  0  0  0  0  0
    4.5504    1.0385   -0.3205 N   0  0  0  0  0  0  0  0  0  0  0  0
    3.2189    0.9434   -0.2667 C   0  0  0  0  0  0  0  0  0  0  0  0
    2.2823    2.0394   -0.2990 C   0  0  0  0  0  0  0  0  0  0  0  0
    2.6984   -0.3305   -0.1625 N   0  0  0  0  0  0  0  0  0  0  0  0
   -1.3917    2.3109   -0.3094 C   0  0  0  0  0  0  0  0  0  0  0  0
   -3.1308    0.6436   -0.2563 N   0  0  0  0  0  0  0  0  0  0  0  0
    2.7127    3.3899   -0.4165 C   0  0  0  0  0  0  0  0  0  0  0  0
    3.7925    3.5777   -0.4876 H   0  0  0  0  0  0  0  0  0  0  0  0
   -0.6321    5.0442   -0.3679 C   0  0  0  0  0  3  0  0  0  0  0  0
   -0.3204    6.0989   -0.4126 H   0  0  0  0  0  0  0  0  0  0  0  0
   -3.6262   -1.4119   -1.5400 C   0  0  0  0  0  0  0  0  0  0  0  0
    0.0047    2.6445   -0.2824 C   0  0  0  0  0  0  0  0  0  0  0  0
    3.8177   -1.1424   -0.1245 C   0  0  0  0  0  0  0  0  0  0  0  0
   -3.6252   -0.6698   -0.3263 C   0  0  0  0  0  0  0  0  0  0  0  0
    0.3725    4.0424   -0.3515 C   0  0  0  0  0  0  0  0  0  0  0  0
   -3.1036   -0.8382   -2.8416 C   0  0  0  0  0  0  0  0  0  0  0  0
   -3.9165   -0.9117   -3.5976 H   0  0  0  0  0  0  0  0  0  0  0  0
   -2.9044    0.2449   -2.7207 H   0  0  0  0  0  0  0  0  0  0  0  0
   -1.9773    4.6972   -0.3381 C   0  0  0  0  0  0  0  0  0  0  0  0
   -2.7551    5.4747   -0.3498 H   0  0  0  0  0  0  0  0  0  0  0  0
    3.9762   -2.5358    0.0095 C   0  0  0  0  0  0  0  0  0  0  0  0
    3.1038   -3.1983    0.0839 H   0  0  0  0  0  0  0  0  0  0  0  0
   -4.2147   -1.2104    0.8544 C   0  0  0  0  0  0  0  0  0  0  0  0
    4.9642   -0.2694   -0.2335 C   0  0  0  0  0  3  0  0  0  0  0  0
    1.7585    4.3814   -0.4133 C   0  0  0  0  0  0  0  0  0  0  0  0
    2.0431    5.4434   -0.4714 H   0  0  0  0  0  0  0  0  0  0  0  0
    6.4152   -2.1844   -0.1024 C   0  0  0  0  0  0  0  0  0  0  0  0
    7.4216   -2.6297   -0.0935 H   0  0  0  0  0  0  0  0  0  0  0  0
   -4.1788   -2.7074   -1.5288 C   0  0  0  0  0  0  0  0  0  0  0  0
   -4.1872   -3.2845   -2.4676 H   0  0  0  0  0  0  0  0  0  0  0  0
   -1.8711    0.9034   -0.3765 C   0  0  0  0  0  0  0  0  0  0  0  0
   -4.7332   -2.5149    0.8178 C   0  0  0  0  0  0  0  0  0  0  0  0
   -5.1696   -2.9381    1.7369 H   0  0  0  0  0  0  0  0  0  0  0  0
   -2.3436    3.3374   -0.3258 C   0  0  0  0  0  0  0  0  0  0  0  0
   -3.3992    3.0292   -0.3478 H   0  0  0  0  0  0  0  0  0  0  0  0
    5.2836   -3.0349    0.0174 C   0  0  0  0  0  0  0  0  0  0  0  0
    5.4403   -4.1201    0.1151 H   0  0  0  0  0  0  0  0  0  0  0  0
    6.2727   -0.8017   -0.2299 C   0  0  0  0  0  0  0  0  0  0  0  0
    7.1400   -0.1320   -0.3214 H   0  0  0  0  0  0  0  0  0  0  0  0
   -4.7124   -3.2702   -0.3643 C   0  0  0  0  0  0  0  0  0  0  0  0
   -5.1267   -4.2894   -0.3793 H   0  0  0  0  0  0  0  0  0  0  0  0
   -4.3294   -0.3707    2.1091 C   0  0  0  0  0  0  0  0  0  0  0  0
   -3.3809    0.1745    2.2942 H   0  0  0  0  0  0  0  0  0  0  0  0
   -4.4806   -1.0417    2.9805 H   0  0  0  0  0  0  0  0  0  0  0  0
   -1.8509   -1.5407   -3.3830 C   0  0  0  0  0  0  0  0  0  0  0  0
   -1.5258   -1.0849   -4.3406 H   0  0  0  0  0  0  0  0  0  0  0  0
   -2.0426   -2.6166   -3.5726 H   0  0  0  0  0  0  0  0  0  0  0  0
   -1.0136   -1.4777   -2.6628 H   0  0  0  0  0  0  0  0  0  0  0  0
   -5.4782    0.6467    2.0319 C   0  0  0  0  0  0  0  0  0  0  0  0
   -5.5419    1.2533    2.9585 H   0  0  0  0  0  0  0  0  0  0  0  0
   -6.4508    0.1344    1.8880 H   0  0  0  0  0  0  0  0  0  0  0  0
   -5.3258    1.3343    1.1765 H   0  0  0  0  0  0  0  0  0  0  0  0
  1 33  1  0  0  0  0
  3  4  2  0  0  0  0
  3 26  1  0  0  0  0
  4  6  1  0  0  0  0
  5  4  1  0  0  0  0
  5  2  1  0  0  0  0
  6 15  2  0  0  0  0
  7 14  2  0  0  0  0
  9 27  1  0  0  0  0
  9  5  2  0  0  0  0
 10  9  1  0  0  0  0
 11 17  1  0  0  0  0
 11 21  1  0  0  0  0
 12 11  1  0  0  0  0
 13 31  2  0  0  0  0
 13 16  1  0  0  0  0
 14  2  1  0  0  0  0
 15 23  1  0  0  0  0
 16  8  1  0  0  0  0
 16 25  2  0  0  0  0
 17 14  1  0  0  0  0
 18 20  1  0  0  0  0
 18 13  1  0  0  0  0
 19 18  1  0  0  0  0
 21 36  2  0  0  0  0
 22 21  1  0  0  0  0
 23 38  2  0  0  0  0
 23 24  1  0  0  0  0
 25 44  1  0  0  0  0
 26 40  1  0  0  0  0
 26 15  1  0  0  0  0
 27 17  2  0  0  0  0
 28 27  1  0  0  0  0
 29 30  1  0  0  0  0
 29 38  1  0  0  0  0
 31 42  1  0  0  0  0
 32 31  1  0  0  0  0
 33  7  1  0  0  0  0
 33  8  2  0  0  0  0
 34 25  1  0  0  0  0
 34 35  1  0  0  0  0
 36  7  1  0  0  0  0
 37 36  1  0  0  0  0
 38 39  1  0  0  0  0
 40 29  2  0  0  0  0
 41 40  1  0  0  0  0
 42 34  2  0  0  0  0
 43 42  1  0  0  0  0
 44 45  1  0  0  0  0
 44 46  1  0  0  0  0
 47 18  1  0  0  0  0
 47 50  1  0  0  0  0
 48 47  1  0  0  0  0
 49 47  1  0  0  0  0
 51 44  1  0  0  0  0
 51 52  1  0  0  0  0
 53 51  1  0  0  0  0
 54 51  1  0  0  0  0
M  CHG  1   1  -1
M  END
