2,3,4
q = -1.0, confidence = 0.034

 35 35  0  0  1  0  0  0  0  0999 V2000
    5.7129   -0.4754    0.0516 Br  0  0  0  0  0  0  0  0  0  0  0  0
   -0.0865    1.2533   -0.1700 O   0  0  0  0  0  1  0  0  0  0  0  0
   -0.7860   -1.3804   -0.0968 N   0  0  0  0  0  2  0  0  0  0  0  0
   -3.3520   -0.7250    0.1224 N   0  0  0  0  0  0  0  0  0  0  0  0
    1.5099   -0.5781   -0.0717 C   0  0  0  0  0  0  0  0  0  0  0  0
    1.1385    0.8172   -0.1152 C   0  0  1  0  0  3  0  0  0  0  0  0
    2.1948    1.7819   -0.1076 C   0  0  0  0  0  0  0  0  0  0  0  0
    1.9013    2.8410   -0.1448 H   0  0  0  0  0  0  0  0  0  0  0  0
    3.5281    1.4004   -0.0575 C   0  0  0  0  0  0  0  0  0  0  0  0
    4.3220    2.1613   -0.0528 H   0  0  0  0  0  0  0  0  0  0  0  0
    3.8745    0.0252   -0.0144 C   0  0  0  0  0  0  0  0  0  0  0  0
    2.8855   -0.9469   -0.0229 C   0  0  0  0  0  0  0  0  0  0  0  0
    3.1549   -2.0133    0.0073 H   0  0  0  0  0  0  0  0  0  0  0  0
    0.5118   -1.5998   -0.0953 C   0  0  0  0  0  0  0  0  0  0  0  0
    0.8607   -2.6518   -0.1197 H   0  0  0  0  0  0  0  0  0  0  0  0
   -1.7077   -2.5074   -0.2177 C   0  0  0  0  0  0  0  0  0  0  0  0
   -1.2805   -3.4417    0.2078 H   0  0  0  0  0  0  0  0  0  0  0  0
   -1.9133   -2.7076   -1.2936 H   0  0  0  0  0  0  0  0  0  0  0  0
   -2.9800   -2.1125    0.5112 C   0  0  0  0  0  0  0  0  0  0  0  0
   -3.8124   -2.8227    0.3170 H   0  0  0  0  0  0  0  0  0  0  0  0
   -2.7857   -2.1112    1.5999 H   0  0  0  0  0  0  0  0  0  0  0  0
   -3.9835   -0.6548   -1.2336 C   0  0  0  0  0  0  0  0  0  0  0  0
   -3.2640   -1.0993   -1.9504 H   0  0  0  0  0  0  0  0  0  0  0  0
   -4.0355    0.4265   -1.4704 H   0  0  0  0  0  0  0  0  0  0  0  0
   -5.3530   -1.3155   -1.3828 C   0  0  0  0  0  0  0  0  0  0  0  0
   -5.3424   -2.3999   -1.1498 H   0  0  0  0  0  0  0  0  0  0  0  0
   -5.6834   -1.2136   -2.4354 H   0  0  0  0  0  0  0  0  0  0  0  0
   -6.1242   -0.8335   -0.7507 H   0  0  0  0  0  0  0  0  0  0  0  0
   -4.2259   -0.0903    1.1561 C   0  0  0  0  0  0  0  0  0  0  0  0
   -5.0934   -0.7605    1.3485 H   0  0  0  0  0  0  0  0  0  0  0  0
   -4.5981    0.8467    0.7007 H   0  0  0  0  0  0  0  0  0  0  0  0
   -3.5043    0.2493    2.4527 C   0  0  0  0  0  0  0  0  0  0  0  0
   -3.0672   -0.6355    2.9576 H   0  0  0  0  0  0  0  0  0  0  0  0
   -4.2256    0.7045    3.1603 H   0  0  0  0  0  0  0  0  0  0  0  0
   -2.6980    0.9834    2.2596 H   0  0  0  0  0  0  0  0  0  0  0  0
  3 14  1  0  0  0  0
  4 19  1  0  0  0  0
  4 29  1  0  0  0  0
  5 12  1  0  0  0  0
  6  2  1  6  0  0  0
  6  7  1  0  0  0  0
  6  5  1  0  0  0  0
  7  9  2  0  0  0  0
  8  7  1  0  0  0  0
  9 10  1  0  0  0  0
  9 11  1  0  0  0  0
 11  1  1  0  0  0  0
 12 11  2  0  0  0  0
 12 13  1  0  0  0  0
 14  5  2  0  0  0  0
 15 14  1  0  0  0  0
 16  3  1  0  0  0  0
 16 17  1  0  0  0  0
 16 19  1  0  0  0  0
 18 16  1  0  0  0  0
 19 21  1  0  0  0  0
 20 19  1  0  0  0  0
 22  4  1  0  0  0  0
 23 22  1  0  0  0  0
 24 22  1  0  0  0  0
 25 22  1  0  0  0  0
 25 26  1  0  0  0  0
 25 28  1  0  0  0  0
 27 25  1  0  0  0  0
 29 30  1  0  0  0  0
 29 32  1  0  0  0  0
 31 29  1  0  0  0  0
 32 33  1  0  0  0  0
 32 34  1  0  0  0  0
 35 32  1  0  0  0  0
M  END
