1,2,3
q = -1.0, confidence = 0.0

 24 25  0  0  0  0  0  0  0  0999 V2000
   -1.3138    0.9017   -1.7467 O   0  5  0  0  0  0  0  0  0  0  0  0
    0.5586   -1.4931    1.1816 N   0  0  0  0  0  2  0  0  0  0  0  0
   -1.7736   -1.1837   -0.1140 N   0  0  0  0  0  2  0  0  0  0  0  0
   -1.7138   -2.1447    0.7681 C   0  0  0  0  0  3  0  0  0  0  0  0
    1.7450   -1.6405    1.7787 C   0  0  0  0  0  3  0  0  0  0  0  0
    2.0032   -2.6479    2.7225 C   0  0  0  0  0  0  0  0  0  0  0  0
    0.9620   -3.5345    3.0470 C   0  0  0  0  0  0  0  0  0  0  0  0
   -0.2788   -3.3888    2.4205 C   0  0  0  0  0  0  0  0  0  0  0  0
   -0.4558   -2.3512    1.4752 C   0  0  0  0  0  0  0  0  0  0  0  0
   -2.4825    0.3808   -1.7481 C   0  0  0  0  0  0  0  0  0  0  0  0
   -2.8169   -0.7645   -0.8895 C   0  0  0  0  0  0  0  0  0  0  0  0
   -4.1223   -1.3283   -0.9012 C   0  0  0  0  0  0  0  0  0  0  0  0
   -5.1071   -0.8035   -1.7257 C   0  0  0  0  0  0  0  0  0  0  0  0
   -4.8036    0.3079   -2.5660 C   0  0  0  0  0  0  0  0  0  0  0  0
   -3.5441    0.8839   -2.5825 C   0  0  0  0  0  0  0  0  0  0  0  0
   -2.5670   -2.8107    1.0049 H   0  0  0  0  0  0  0  0  0  0  0  0
    2.5272   -0.9201    1.4845 H   0  0  0  0  0  0  0  0  0  0  0  0
    2.9961   -2.7319    3.1862 H   0  0  0  0  0  0  0  0  0  0  0  0
    1.1210   -4.3379    3.7823 H   0  0  0  0  0  0  0  0  0  0  0  0
   -1.1145   -4.0688    2.6446 H   0  0  0  0  0  0  0  0  0  0  0  0
   -4.3481   -2.1886   -0.2515 H   0  0  0  0  0  0  0  0  0  0  0  0
   -6.1162   -1.2410   -1.7360 H   0  0  0  0  0  0  0  0  0  0  0  0
   -5.5926    0.7154   -3.2184 H   0  0  0  0  0  0  0  0  0  0  0  0
   -3.3086    1.7396   -3.2322 H   0  0  0  0  0  0  0  0  0  0  0  0
  2  9  1  0  0  0  0
  2  5  1  0  0  0  0
  3  4  1  0  0  0  0
  4 16  1  0  0  0  0
  4  9  1  0  0  0  0
  5  6  1  0  0  0  0
  6  7  2  0  0  0  0
  6 18  1  0  0  0  0
  7 19  1  0  0  0  0
  8 20  1  0  0  0  0
  8  7  1  0  0  0  0
  9  8  2  0  0  0  0
 10  1  1  0  0  0  0
 10 11  1  0  0  0  0
 11  3  1  0  0  0  0
 12 11  2  0  0  0  0
 12 21  1  0  0  0  0
 13 12  1  0  0  0  0
 14 13  2  0  0  0  0
 15 14  1  0  0  0  0
 15 10  2  0  0  0  0
 17  5  1  0  0  0  0
 22 13  1  0  0  0  0
 23 14  1  0  0  0  0
 24 15  1  0  0  0  0
M  CHG  1   1  -1
M  END
