1,2,6
q = -1.0, confidence = 0.088

 36 36  0  0  1  0  0  0  0  0999 V2000
    2.4845   -0.9007   -0.4476 N   0  0  0  0  0  2  0  0  0  0  0  0
   -0.1796   -0.8699   -0.2653 N   0  0  0  0  0  2  0  0  0  0  0  0
   -1.4989   -0.6770   -0.0501 N   0  0  0  0  0  0  0  0  0  0  0  0
   -2.2212   -1.4649   -0.0463 H   0  0  0  0  0  0  0  0  0  0  0  0
   -4.0196    1.9162   -0.1813 N   0  3  0  0  0  0  0  0  0  0  0  0
   -1.1270    1.5782    0.2363 O   0  0  0  0  0  1  0  0  0  0  0  0
    1.8192   -2.0685   -0.6176 C   0  0  0  0  0  0  0  0  0  0  0  0
    2.5149   -3.2520   -0.9323 C   0  0  0  0  0  0  0  0  0  0  0  0
    1.9776   -4.2022   -1.0404 H   0  0  0  0  0  0  0  0  0  0  0  0
    3.9050   -3.2039   -1.0992 C   0  0  0  0  0  0  0  0  0  0  0  0
    4.4620   -4.1206   -1.3436 H   0  0  0  0  0  0  0  0  0  0  0  0
    4.5702   -1.9805   -0.9549 C   0  0  0  0  0  0  0  0  0  0  0  0
    5.6571   -1.8934   -1.0914 H   0  0  0  0  0  0  0  0  0  0  0  0
    3.8140   -0.8467   -0.6178 C   0  0  0  0  0  0  0  0  0  0  0  0
    4.2919    0.1409   -0.4964 H   0  0  0  0  0  0  0  0  0  0  0  0
    0.3340   -2.0507   -0.4649 C   0  0  0  0  0  0  0  0  0  0  0  0
   -0.4286   -3.3351   -0.5247 C   0  0  0  0  0  0  0  0  0  0  0  0
   -0.2034   -3.9014    0.4040 H   0  0  0  0  0  0  0  0  0  0  0  0
   -0.1129   -3.9454   -1.3926 H   0  0  0  0  0  0  0  0  0  0  0  0
   -1.5253   -3.1946   -0.5914 H   0  0  0  0  0  0  0  0  0  0  0  0
   -1.8947    0.5981    0.2208 C   0  0  2  0  0  3  0  0  0  0  0  0
   -3.3714    0.7460    0.5463 C   0  0  0  0  0  0  0  0  0  0  0  0
   -3.9301   -0.1797    0.3073 H   0  0  0  0  0  0  0  0  0  0  0  0
   -3.4756    0.9445    1.6316 H   0  0  0  0  0  0  0  0  0  0  0  0
   -5.5115    1.7183   -0.1120 C   0  0  0  0  0  0  0  0  0  0  0  0
   -5.8042    1.5846    0.9451 H   0  0  0  0  0  0  0  0  0  0  0  0
   -5.7583    0.8204   -0.7160 H   0  0  0  0  0  0  0  0  0  0  0  0
   -5.9988    2.6177   -0.5298 H   0  0  0  0  0  0  0  0  0  0  0  0
   -3.6172    1.9473   -1.6379 C   0  0  0  0  0  0  0  0  0  0  0  0
   -4.1759    2.7699   -2.1190 H   0  0  0  0  0  0  0  0  0  0  0  0
   -3.9099    0.9727   -2.0863 H   0  0  0  0  0  0  0  0  0  0  0  0
   -2.5328    2.1387   -1.7008 H   0  0  0  0  0  0  0  0  0  0  0  0
   -3.6363    3.2098    0.4826 C   0  0  0  0  0  0  0  0  0  0  0  0
   -4.0197    3.2015    1.5192 H   0  0  0  0  0  0  0  0  0  0  0  0
   -4.0930    4.0420   -0.0823 H   0  0  0  0  0  0  0  0  0  0  0  0
   -2.5346    3.2818    0.4830 H   0  0  0  0  0  0  0  0  0  0  0  0
  2  3  1  0  0  0  0
  3  4  1  0  0  0  0
  3 21  1  0  0  0  0
  5 25  1  0  0  0  0
  5 33  1  0  0  0  0
  5 22  1  0  0  0  0
  7 16  2  0  0  0  0
  7  1  1  0  0  0  0
  8  7  1  0  0  0  0
  9  8  1  0  0  0  0
 10 12  1  0  0  0  0
 10  8  2  0  0  0  0
 11 10  1  0  0  0  0
 12 14  2  0  0  0  0
 13 12  1  0  0  0  0
 14 15  1  0  0  0  0
 14  1  1  0  0  0  0
 16  2  1  0  0  0  0
 17 16  1  0  0  0  0
 17 18  1  0  0  0  0
 19 17  1  0  0  0  0
 20 17  1  0  0  0  0
 21  6  1  1  0  0  0
 21 22  1  0  0  0  0
 22 24  1  0  0  0  0
 23 22  1  0  0  0  0
 25 26  1  0  0  0  0
 27 25  1  0  0  0  0
 28 25  1  0  0  0  0
 29  5  1  0  0  0  0
 30 29  1  0  0  0  0
 31 29  1  0  0  0  0
 32 29  1  0  0  0  0
 33 36  1  0  0  0  0
 33 34  1  0  0  0  0
 35 33  1  0  0  0  0
M  CHG  1   5   1
M  END
