3,4,5
q = -1.0, confidence = 0.082

 47 49  0  0  1  0  0  0  0  0999 V2000
   -0.8937    2.8156    2.0249 C   0  0  2  0  0  3  0  0  0  0  0  0
   -3.5940    0.6475    0.0960 N   0  0  0  0  0  0  0  0  0  0  0  0
   -1.2977    2.4732   -0.3410 N   0  0  0  0  0  0  0  0  0  0  0  0
   -1.2257   -0.1958   -1.2856 O   0  5  0  0  0  0  0  0  0  0  0  0
   -1.1286    1.4779    2.0643 N   0  0  0  0  0  2  0  0  0  0  0  0
   -0.1840   -0.4098   -2.0626 C   0  0  0  0  0  0  0  0  0  0  0  0
   -0.1027   -1.3597   -2.8391 O   0  0  0  0  0  0  0  0  0  0  0  0
    0.7016    1.9891   -1.7969 C   0  0  0  0  0  0  0  0  0  0  0  0
   -0.6990    2.5519   -1.7089 C   0  0  0  0  0  0  0  0  0  0  0  0
   -0.7007    3.6202   -2.0263 H   0  0  0  0  0  0  0  0  0  0  0  0
   -1.3849    1.9911   -2.3711 H   0  0  0  0  0  0  0  0  0  0  0  0
   -2.7469    2.8403   -0.3746 C   0  0  0  0  0  0  0  0  0  0  0  0
   -3.0397    3.1182    0.6569 H   0  0  0  0  0  0  0  0  0  0  0  0
   -2.8998    3.7224   -1.0344 H   0  0  0  0  0  0  0  0  0  0  0  0
   -0.5463    3.2917    0.6450 C   0  0  0  0  0  0  0  0  0  0  0  0
   -0.7250    4.3817    0.5047 H   0  0  0  0  0  0  0  0  0  0  0  0
    0.5323    3.0817    0.4776 H   0  0  0  0  0  0  0  0  0  0  0  0
   -4.2078   -0.4966   -0.2445 C   0  0  0  0  0  0  0  0  0  0  0  0
   -4.1830   -1.3048    0.5060 H   0  0  0  0  0  0  0  0  0  0  0  0
   -3.5764    1.6523   -0.8065 C   0  0  0  0  0  0  0  0  0  0  0  0
    3.3420    1.0179   -2.0174 C   0  0  0  0  0  0  0  0  0  0  0  0
    4.3786    0.6585   -2.0861 H   0  0  0  0  0  0  0  0  0  0  0  0
    4.2276    3.1820   -1.7403 O   0  0  0  0  0  0  0  0  0  0  0  0
   -4.1943    1.5634   -2.0601 C   0  0  0  0  0  0  0  0  0  0  0  0
   -4.1613    2.4131   -2.7592 H   0  0  0  0  0  0  0  0  0  0  0  0
    1.7956    2.8792   -1.7488 C   0  0  0  0  0  0  0  0  0  0  0  0
    1.5990    3.9572   -1.6591 H   0  0  0  0  0  0  0  0  0  0  0  0
   -4.8326   -0.6914   -1.4876 C   0  0  0  0  0  0  0  0  0  0  0  0
   -5.3066   -1.6559   -1.7223 H   0  0  0  0  0  0  0  0  0  0  0  0
    0.9331    0.6046   -1.9666 C   0  0  0  0  0  0  0  0  0  0  0  0
    3.1173    2.3971   -1.8249 C   0  0  0  0  0  0  0  0  0  0  0  0
    2.2586    0.1484   -2.1137 C   0  0  0  0  0  0  0  0  0  0  0  0
    2.4141   -0.9254   -2.2925 H   0  0  0  0  0  0  0  0  0  0  0  0
   -4.8366    0.3622   -2.4089 C   0  0  0  0  0  0  0  0  0  0  0  0
   -5.3161    0.2498   -3.3927 H   0  0  0  0  0  0  0  0  0  0  0  0
    4.0565    4.5685   -1.5329 C   0  0  0  0  0  0  0  0  0  0  0  0
    5.0705    5.0056   -1.4710 H   0  0  0  0  0  0  0  0  0  0  0  0
    3.5128    4.7833   -0.5845 H   0  0  0  0  0  0  0  0  0  0  0  0
    3.5079    5.0527   -2.3728 H   0  0  0  0  0  0  0  0  0  0  0  0
   -1.3624    0.8631    3.2412 C   0  0  0  0  0  0  0  0  0  0  0  0
   -1.4994   -0.2268    3.1730 H   0  0  0  0  0  0  0  0  0  0  0  0
   -0.9174    3.5946    3.1851 C   0  0  0  0  0  0  0  0  0  0  0  0
   -0.7304    4.6764    3.1222 H   0  0  0  0  0  0  0  0  0  0  0  0
   -1.3886    1.5814    4.4407 C   0  0  0  0  0  0  0  0  0  0  0  0
   -1.5823    1.0520    5.3843 H   0  0  0  0  0  0  0  0  0  0  0  0
   -1.1697    2.9676    4.4164 C   0  0  0  0  0  0  0  0  0  0  0  0
   -1.1915    3.5556    5.3457 H   0  0  0  0  0  0  0  0  0  0  0  0
  1 15  1  1  0  0  0
  1  5  1  0  0  0  0
  1 42  1  0  0  0  0
  3 15  1  0  0  0  0
  5 40  1  0  0  0  0
  6 30  1  0  0  0  0
  6  4  1  0  0  0  0
  7  6  2  0  0  0  0
  8 26  1  0  0  0  0
  8  9  1  0  0  0  0
  9  3  1  0  0  0  0
 10  9  1  0  0  0  0
 11  9  1  0  0  0  0
 12  3  1  0  0  0  0
 12 13  1  0  0  0  0
 14 12  1  0  0  0  0
 16 15  1  0  0  0  0
 17 15  1  0  0  0  0
 18  2  1  0  0  0  0
 18 19  1  0  0  0  0
 20 12  1  0  0  0  0
 20  2  2  0  0  0  0
 21 31  1  0  0  0  0
 22 21  1  0  0  0  0
 23 36  1  0  0  0  0
 24 20  1  0  0  0  0
 25 24  1  0  0  0  0
 26 27  1  0  0  0  0
 28 18  2  0  0  0  0
 29 28  1  0  0  0  0
 30  8  2  0  0  0  0
 31 26  2  0  0  0  0
 31 23  1  0  0  0  0
 32 21  2  0  0  0  0
 32 30  1  0  0  0  0
 33 32  1  0  0  0  0
 34 24  2  0  0  0  0
 34 28  1  0  0  0  0
 35 34  1  0  0  0  0
 36 37  1  0  0  0  0
 36 38  1  0  0  0  0
 39 36  1  0  0  0  0
 40 44  2  0  0  0  0
 41 40  1  0  0  0  0
 42 46  2  0  0  0  0
 43 42  1  0  0  0  0
 44 45  1  0  0  0  0
 46 44  1  0  0  0  0
 46 47  1  0  0  0  0
M  CHG  1   4  -1
M  END
