1,4,5
q = -1.0, confidence = 0.026

 39 41  0  0  1  0  0  0  0  0999 V2000
    1.2214    1.7454    1.0557 N   0  0  0  0  0  2  0  0  0  0  0  0
    4.3520    1.7699   -2.2563 N   0  0  0  0  0  0  0  0  0  0  0  0
    4.3949    2.1323   -3.2063 H   0  0  0  0  0  0  0  0  0  0  0  0
   -0.8566    1.4240   -0.5400 N   0  0  0  0  0  2  0  0  0  0  0  0
    1.4975   -0.6787    2.1308 O   0  5  0  0  0  0  0  0  0  0  0  0
    3.5222   -0.2031    3.0104 O   0  0  0  0  0  0  0  0  0  0  0  0
    2.4819    0.0992    2.4095 C   0  0  0  0  0  0  0  0  0  0  0  0
    2.3350    1.6026    1.9660 C   0  0  1  0  0  0  0  0  0  0  0  0
    2.1419    2.1671    2.9093 H   0  0  0  0  0  0  0  0  0  0  0  0
    3.6672    2.1432    1.3863 C   0  0  0  0  0  0  0  0  0  0  0  0
    3.6613    3.2520    1.4229 H   0  0  0  0  0  0  0  0  0  0  0  0
    4.4333    1.7865    2.1046 H   0  0  0  0  0  0  0  0  0  0  0  0
    3.8381    2.4506   -1.1624 C   0  0  0  0  0  0  0  0  0  0  0  0
    3.3887    3.4434   -1.2853 H   0  0  0  0  0  0  0  0  0  0  0  0
    4.0243    1.7076   -0.0051 C   0  0  0  0  0  0  0  0  0  0  0  0
    4.6943    0.4894   -0.4154 C   0  0  0  0  0  0  0  0  0  0  0  0
    4.9049    0.5764   -1.8330 C   0  0  0  0  0  0  0  0  0  0  0  0
    5.5846   -0.4220   -2.5551 C   0  0  0  0  0  0  0  0  0  0  0  0
    5.7590   -0.3277   -3.6381 H   0  0  0  0  0  0  0  0  0  0  0  0
    6.0411   -1.5356   -1.8387 C   0  0  0  0  0  0  0  0  0  0  0  0
    6.5827   -2.3331   -2.3705 H   0  0  0  0  0  0  0  0  0  0  0  0
    5.8152   -1.6542   -0.4442 C   0  0  0  0  0  0  0  0  0  0  0  0
    6.1760   -2.5503    0.0830 H   0  0  0  0  0  0  0  0  0  0  0  0
    5.1503   -0.6570    0.2768 C   0  0  0  0  0  0  0  0  0  0  0  0
    4.9563   -0.7551    1.3570 H   0  0  0  0  0  0  0  0  0  0  0  0
    0.9411    4.2056    1.2916 C   0  0  0  0  0  0  0  0  0  0  0  0
    1.6130    4.1367    2.1659 H   0  0  0  0  0  0  0  0  0  0  0  0
    0.0183    4.7359    1.5991 H   0  0  0  0  0  0  0  0  0  0  0  0
    1.4421    4.8311    0.5229 H   0  0  0  0  0  0  0  0  0  0  0  0
    0.6155    2.8416    0.7496 C   0  0  0  0  0  0  0  0  0  0  0  0
   -0.5145    2.6947   -0.2250 C   0  0  0  0  0  0  0  0  0  0  0  0
   -1.1911    3.7891   -0.7920 C   0  0  0  0  0  0  0  0  0  0  0  0
   -0.9050    4.8182   -0.5352 H   0  0  0  0  0  0  0  0  0  0  0  0
   -2.2444    3.5464   -1.6867 C   0  0  0  0  0  0  0  0  0  0  0  0
   -2.7975    4.3871   -2.1319 H   0  0  0  0  0  0  0  0  0  0  0  0
   -2.5938    2.2259   -1.9906 C   0  0  0  0  0  0  0  0  0  0  0  0
   -3.4367    1.9878   -2.6532 H   0  0  0  0  0  0  0  0  0  0  0  0
   -1.8637    1.1898   -1.3850 C   0  0  0  0  0  0  0  0  0  0  0  0
   -2.1098    0.1312   -1.5697 H   0  0  0  0  0  0  0  0  0  0  0  0
  1  8  1  0  0  0  0
  2 17  1  0  0  0  0
  2 13  1  0  0  0  0
  3  2  1  0  0  0  0
  4 31  1  0  0  0  0
  5  7  1  0  0  0  0
  7  6  2  0  0  0  0
  8  7  1  0  0  0  0
  8  9  1  1  0  0  0
 10 11  1  0  0  0  0
 10  8  1  0  0  0  0
 10 12  1  0  0  0  0
 13 15  2  0  0  0  0
 14 13  1  0  0  0  0
 15 10  1  0  0  0  0
 16 15  1  0  0  0  0
 16 24  1  0  0  0  0
 17 16  2  0  0  0  0
 18 20  2  0  0  0  0
 18 17  1  0  0  0  0
 19 18  1  0  0  0  0
 20 22  1  0  0  0  0
 21 20  1  0  0  0  0
 22 23  1  0  0  0  0
 22 24  2  0  0  0  0
 24 25  1  0  0  0  0
 26 28  1  0  0  0  0
 26 27  1  0  0  0  0
 29 26  1  0  0  0  0
 30  1  1  0  0  0  0
 30 26  1  0  0  0  0
 31 30  2  0  0  0  0
 32 33  1  0  0  0  0
 32 31  1  0  0  0  0
 34 32  2  0  0  0  0
 35 34  1  0  0  0  0
 36 34  1  0  0  0  0
 36 38  2  0  0  0  0
 37 36  1  0  0  0  0
 38  4  1  0  0  0  0
 39 38  1  0  0  0  0
M  CHG  1   5  -1
M  END
