1,2,6
q = -1.0

 28 29  0  0  1  0  0  0  0  0999 V2000
    2.7121   -0.2734    0.0025 N   0  0  0  0  0  2  0  0  0  0  0  0
    0.4013    0.6915    0.0029 N   0  0  0  0  0  2  0  0  0  0  0  0
   -0.9165    1.0257   -0.0004 N   0  0  0  0  0  0  0  0  0  0  0  0
   -1.1566    2.0255   -0.0167 H   0  0  0  0  0  0  0  0  0  0  0  0
    1.0728    2.9139   -0.0240 O   0  0  0  0  0  0  0  0  0  0  0  0
   -1.2117   -1.1895    0.0100 O   0  0  0  0  0  1  0  0  0  0  0  0
    2.6820    1.0817   -0.0083 C   0  0  1  0  0  3  0  0  0  0  0  0
    3.8514    1.8498   -0.0170 C   0  0  0  0  0  0  0  0  0  0  0  0
    3.7537    2.9447   -0.0260 H   0  0  0  0  0  0  0  0  0  0  0  0
    5.0860    1.1860   -0.0138 C   0  0  0  0  0  0  0  0  0  0  0  0
    6.0265    1.7573   -0.0203 H   0  0  0  0  0  0  0  0  0  0  0  0
    5.1073   -0.2172   -0.0022 C   0  0  0  0  0  0  0  0  0  0  0  0
    6.0543   -0.7751    0.0007 H   0  0  0  0  0  0  0  0  0  0  0  0
    3.8920   -0.9170    0.0056 C   0  0  0  0  0  0  0  0  0  0  0  0
    3.8423   -2.0161    0.0145 H   0  0  0  0  0  0  0  0  0  0  0  0
    1.3104    1.6991   -0.0110 C   0  0  0  0  0  0  0  0  0  0  0  0
   -1.7492   -0.0311    0.0052 C   0  0  2  0  0  3  0  0  0  0  0  0
   -3.2137    0.1447    0.0028 C   0  0  0  0  0  0  0  0  0  0  0  0
   -3.8343    1.4135    0.0473 C   0  0  0  0  0  0  0  0  0  0  0  0
   -3.2368    2.3369    0.0934 H   0  0  0  0  0  0  0  0  0  0  0  0
   -5.2301    1.5130    0.0403 C   0  0  0  0  0  0  0  0  0  0  0  0
   -5.7060    2.5041    0.0761 H   0  0  0  0  0  0  0  0  0  0  0  0
   -6.0201    0.3516   -0.0099 C   0  0  0  0  0  0  0  0  0  0  0  0
   -7.1175    0.4342   -0.0150 H   0  0  0  0  0  0  0  0  0  0  0  0
   -5.4085   -0.9119   -0.0518 C   0  0  0  0  0  0  0  0  0  0  0  0
   -6.0249   -1.8224   -0.0900 H   0  0  0  0  0  0  0  0  0  0  0  0
   -4.0129   -1.0181   -0.0450 C   0  0  0  0  0  0  0  0  0  0  0  0
   -3.5103   -1.9951   -0.0768 H   0  0  0  0  0  0  0  0  0  0  0  0
  1 14  1  0  0  0  0
  3  2  1  0  0  0  0
  3 17  1  0  0  0  0
  4  3  1  0  0  0  0
  5 16  2  0  0  0  0
  7 16  1  6  0  0  0
  7  1  1  0  0  0  0
  8 10  2  0  0  0  0
  8  7  1  0  0  0  0
  9  8  1  0  0  0  0
 10 12  1  0  0  0  0
 11 10  1  0  0  0  0
 12 13  1  0  0  0  0
 12 14  2  0  0  0  0
 14 15  1  0  0  0  0
 16  2  1  0  0  0  0
 17  6  1  6  0  0  0
 18 17  1  0  0  0  0
 18 19  1  0  0  0  0
 19 20  1  0  0  0  0
 21 19  2  0  0  0  0
 21 22  1  0  0  0  0
 23 21  1  0  0  0  0
 24 23  1  0  0  0  0
 25 27  1  0  0  0  0
 25 23  2  0  0  0  0
 26 25  1  0  0  0  0
 27 18  2  0  0  0  0
 28 27  1  0  0  0  0
M  END
