2,3,4
q = -2.0, confidence = 0.958

 35 35  0  0  1  0  0  0  0  0999 V2000
    4.2356   -1.5948    0.0800 S   0  0  0  0  0  0  0  0  0  0  0  0
    1.8862    1.4971    0.0719 N   0  0  0  0  0  2  0  0  0  0  0  0
    1.5851   -0.9939   -0.1064 N   0  0  0  0  0  2  0  0  0  0  0  0
   -0.7829    1.8270   -0.4469 O   0  0  0  0  0  1  0  0  0  0  0  0
    1.9309    2.8256    0.2017 C   0  0  0  0  0  0  0  0  0  0  0  0
    3.0545    0.8018    0.1734 N   0  0  0  0  0  0  0  0  0  0  0  0
    0.7668    3.6597   -0.0228 C   0  0  0  0  0  0  0  0  0  0  0  0
    1.4027   -2.4048   -0.3832 C   0  0  0  0  0  0  0  0  0  0  0  0
   -0.5225    3.1102   -0.3562 C   0  0  2  0  0  3  0  0  0  0  0  0
    2.8325   -0.4970    0.0526 C   0  0  0  0  0  0  0  0  0  0  0  0
   -1.4532    5.3785   -0.5238 C   0  0  0  0  0  0  0  0  0  0  0  0
   -0.1939    5.9292   -0.1946 C   0  0  0  0  0  0  0  0  0  0  0  0
   -1.6107    3.9996   -0.6022 C   0  0  0  0  0  0  0  0  0  0  0  0
    3.2483    3.4664    0.5575 C   0  0  0  0  0  0  0  0  0  0  0  0
    0.8818    5.0804    0.0469 C   0  0  0  0  0  0  0  0  0  0  0  0
    5.5961   -0.4064    0.4092 C   0  0  0  0  0  0  0  0  0  0  0  0
    6.9470   -1.1167    0.3029 C   0  0  0  0  0  0  0  0  0  0  0  0
    7.2989   -1.5945   -1.1073 C   0  0  0  0  0  0  0  0  0  0  0  0
   -2.5773    3.5393   -0.8542 H   0  0  0  0  0  0  0  0  0  0  0  0
   -2.3131    6.0385   -0.7184 H   0  0  0  0  0  0  0  0  0  0  0  0
   -0.0593    7.0191   -0.1334 H   0  0  0  0  0  0  0  0  0  0  0  0
    1.8574    5.5240    0.2872 H   0  0  0  0  0  0  0  0  0  0  0  0
    3.1164    4.2252    1.3526 H   0  0  0  0  0  0  0  0  0  0  0  0
    3.9579    2.6911    0.8905 H   0  0  0  0  0  0  0  0  0  0  0  0
    3.6884    3.9810   -0.3230 H   0  0  0  0  0  0  0  0  0  0  0  0
    5.4994    0.4183   -0.3244 H   0  0  0  0  0  0  0  0  0  0  0  0
    5.4358    0.0256    1.4163 H   0  0  0  0  0  0  0  0  0  0  0  0
    7.7193   -0.4020    0.6615 H   0  0  0  0  0  0  0  0  0  0  0  0
    6.9743   -1.9704    1.0155 H   0  0  0  0  0  0  0  0  0  0  0  0
    8.2909   -2.0883   -1.1307 H   0  0  0  0  0  0  0  0  0  0  0  0
    6.5490   -2.3174   -1.4876 H   0  0  0  0  0  0  0  0  0  0  0  0
    7.3262   -0.7444   -1.8203 H   0  0  0  0  0  0  0  0  0  0  0  0
    2.2484   -3.0061    0.0170 H   0  0  0  0  0  0  0  0  0  0  0  0
    0.4866   -2.7932    0.1016 H   0  0  0  0  0  0  0  0  0  0  0  0
    1.3144   -2.6176   -1.4720 H   0  0  0  0  0  0  0  0  0  0  0  0
  1 16  1  0  0  0  0
  2  6  1  0  0  0  0
  2  5  1  0  0  0  0
  3 10  1  0  0  0  0
  5 14  1  0  0  0  0
  7 15  1  0  0  0  0
  7  5  2  0  0  0  0
  8  3  1  0  0  0  0
  8 33  1  0  0  0  0
  8 34  1  0  0  0  0
  9  4  1  1  0  0  0
  9  7  1  0  0  0  0
 10  1  1  0  0  0  0
 10  6  2  0  0  0  0
 11 12  1  0  0  0  0
 12 21  1  0  0  0  0
 12 15  2  0  0  0  0
 13 11  2  0  0  0  0
 13  9  1  0  0  0  0
 14 24  1  0  0  0  0
 14 23  1  0  0  0  0
 15 22  1  0  0  0  0
 16 27  1  0  0  0  0
 17 16  1  0  0  0  0
 17 28  1  0  0  0  0
 17 29  1  0  0  0  0
 18 17  1  0  0  0  0
 19 13  1  0  0  0  0
 20 11  1  0  0  0  0
 25 14  1  0  0  0  0
 26 16  1  0  0  0  0
 30 18  1  0  0  0  0
 31 18  1  0  0  0  0
 32 18  1  0  0  0  0
 35  8  1  0  0  0  0
M  END
