2,3,4
q = -1.0, confidence = 0.0

 30 32  0  0  0  0  0  0  0  0999 V2000
   -5.5853   -3.7528   -1.0417 F   0  0  0  0  0  0  0  0  0  0  0  0
   -1.0690   -1.2411    0.8309 O   0  5  0  0  0  0  0  0  0  0  0  0
    1.0884    1.4667   -0.8464 N   0  0  0  0  0  2  0  0  0  0  0  0
   -0.9801    0.1334   -1.6559 N   0  0  0  0  0  2  0  0  0  0  0  0
    2.1035    2.1736   -0.3312 C   0  0  0  0  0  0  0  0  0  0  0  0
    2.3443    1.9811    0.7237 H   0  0  0  0  0  0  0  0  0  0  0  0
    2.8481    3.1008   -1.0959 C   0  0  0  0  0  0  0  0  0  0  0  0
    3.6756    3.6411   -0.6142 H   0  0  0  0  0  0  0  0  0  0  0  0
    2.5391    3.3047   -2.4343 C   0  0  0  0  0  0  0  0  0  0  0  0
    3.1131    4.0115   -3.0519 H   0  0  0  0  0  0  0  0  0  0  0  0
    1.4544    2.5823   -3.0122 C   0  0  0  0  0  0  0  0  0  0  0  0
    1.0350    2.7081   -4.3678 C   0  0  0  0  0  3  0  0  0  0  0  0
    1.5758    3.3946   -5.0359 H   0  0  0  0  0  0  0  0  0  0  0  0
   -0.0448    1.9639   -4.8302 C   0  0  0  0  0  0  0  0  0  0  0  0
   -0.3623    2.0590   -5.8796 H   0  0  0  0  0  0  0  0  0  0  0  0
   -0.7575    1.0826   -3.9809 C   0  0  0  0  0  0  0  0  0  0  0  0
   -1.6076    0.5197   -4.3902 H   0  0  0  0  0  0  0  0  0  0  0  0
   -0.3812    0.9330   -2.6406 C   0  0  0  0  0  0  0  0  0  0  0  0
    0.7455    1.6756   -2.1659 C   0  0  0  0  0  0  0  0  0  0  0  0
   -2.0339   -0.6266   -1.9157 C   0  0  0  0  0  3  0  0  0  0  0  0
   -2.4900   -0.5714   -2.9224 H   0  0  0  0  0  0  0  0  0  0  0  0
   -2.6552   -1.5226   -1.0023 C   0  0  0  0  0  0  0  0  0  0  0  0
   -3.8322   -2.2082   -1.4427 C   0  0  0  0  0  0  0  0  0  0  0  0
   -4.2357   -2.0161   -2.4485 H   0  0  0  0  0  0  0  0  0  0  0  0
   -4.4706   -3.1127   -0.6198 C   0  0  0  0  0  0  0  0  0  0  0  0
   -3.9741   -3.3926    0.6772 C   0  0  0  0  0  0  0  0  0  0  0  0
   -4.5074   -4.1235    1.3033 H   0  0  0  0  0  0  0  0  0  0  0  0
   -2.8336   -2.7500    1.1305 C   0  0  0  0  0  0  0  0  0  0  0  0
   -2.4257   -2.9530    2.1311 H   0  0  0  0  0  0  0  0  0  0  0  0
   -2.1240   -1.7899    0.3287 C   0  0  0  0  0  0  0  0  0  0  0  0
  1 25  1  0  0  0  0
  3  5  1  0  0  0  0
  5  6  1  0  0  0  0
  7  8  1  0  0  0  0
  7  5  2  0  0  0  0
  9  7  1  0  0  0  0
 10  9  1  0  0  0  0
 11  9  2  0  0  0  0
 11 19  1  0  0  0  0
 12 11  1  0  0  0  0
 13 12  1  0  0  0  0
 14 12  1  0  0  0  0
 14 16  2  0  0  0  0
 15 14  1  0  0  0  0
 16 18  1  0  0  0  0
 17 16  1  0  0  0  0
 18 19  2  0  0  0  0
 18  4  1  0  0  0  0
 19  3  1  0  0  0  0
 20  4  1  0  0  0  0
 20 22  1  0  0  0  0
 21 20  1  0  0  0  0
 22 30  1  0  0  0  0
 23 22  2  0  0  0  0
 23 25  1  0  0  0  0
 24 23  1  0  0  0  0
 25 26  2  0  0  0  0
 26 28  1  0  0  0  0
 26 27  1  0  0  0  0
 28 29  1  0  0  0  0
 30  2  1  0  0  0  0
 30 28  2  0  0  0  0
M  CHG  1   2  -1
M  END
