2,3,5
q = -2.0, confidence = 0.922

 42 44  0  0  0  0  0  0  0  0999 V2000
    2.9292    2.4952   -0.1483 S   0  0  0  0  0  0  0  0  0  0  0  0
   -1.4349   -1.8926    0.1075 O   0  5  0  0  0  0  0  0  0  0  0  0
   -0.4779    0.6379   -0.0815 N   0  0  0  0  0  2  0  0  0  0  0  0
    0.3860    1.6971   -0.0354 N   0  0  0  0  0  0  0  0  0  0  0  0
    1.9710   -0.0371   -0.1122 N   0  0  0  0  0  2  0  0  0  0  0  0
   -2.6497   -1.3672    0.0393 C   0  0  0  0  0  0  0  0  0  0  0  0
   -2.8658    0.0343   -0.0463 C   0  0  0  0  0  0  0  0  0  0  0  0
   -4.2307    0.5346   -0.0993 C   0  0  0  0  0  0  0  0  0  0  0  0
   -4.5560    1.9172   -0.2051 C   0  0  0  0  0  0  0  0  0  0  0  0
   -5.8759    2.3515   -0.2520 C   0  0  0  0  0  0  0  0  0  0  0  0
   -6.9459    1.4255   -0.1985 C   0  0  0  0  0  0  0  0  0  0  0  0
   -6.6667    0.0702   -0.1014 C   0  0  0  0  0  0  0  0  0  0  0  0
   -5.3253   -0.4029   -0.0516 C   0  0  0  0  0  0  0  0  0  0  0  0
   -5.0448   -1.8004    0.0411 C   0  0  0  0  0  0  0  0  0  0  0  0
   -3.7495   -2.2728    0.0843 C   0  0  0  0  0  0  0  0  0  0  0  0
   -1.7600    0.9476   -0.0497 C   0  0  0  0  0  3  0  0  0  0  0  0
    1.6409    1.2859   -0.0866 C   0  0  0  0  0  0  0  0  0  0  0  0
    1.9383    4.0386   -0.2420 C   0  0  0  0  0  0  0  0  0  0  0  0
    2.8893    5.2279   -0.3167 C   0  0  0  0  0  0  0  0  0  0  0  0
    3.3306   -0.4634   -0.1555 C   0  0  0  0  0  0  0  0  0  0  0  0
    4.2102   -0.1702    0.9084 C   0  0  0  0  0  0  0  0  0  0  0  0
    5.5411   -0.6079    0.8606 C   0  0  0  0  0  0  0  0  0  0  0  0
    6.0018   -1.3548   -0.2350 C   0  0  0  0  0  0  0  0  0  0  0  0
    5.1222   -1.6617   -1.2860 C   0  0  0  0  0  0  0  0  0  0  0  0
    3.7937   -1.2187   -1.2520 C   0  0  0  0  0  0  0  0  0  0  0  0
   -3.7575    2.6695   -0.2586 H   0  0  0  0  0  0  0  0  0  0  0  0
   -6.0879    3.4283   -0.3346 H   0  0  0  0  0  0  0  0  0  0  0  0
   -7.9866    1.7798   -0.2369 H   0  0  0  0  0  0  0  0  0  0  0  0
   -7.4828   -0.6681   -0.0628 H   0  0  0  0  0  0  0  0  0  0  0  0
   -5.8897   -2.5057    0.0774 H   0  0  0  0  0  0  0  0  0  0  0  0
   -3.5204   -3.3451    0.1559 H   0  0  0  0  0  0  0  0  0  0  0  0
   -1.9598    2.0320   -0.0203 H   0  0  0  0  0  0  0  0  0  0  0  0
    1.2816    3.9661   -1.1306 H   0  0  0  0  0  0  0  0  0  0  0  0
    1.2816    4.0774    0.6482 H   0  0  0  0  0  0  0  0  0  0  0  0
    3.5419    5.2881    0.5776 H   0  0  0  0  0  0  0  0  0  0  0  0
    3.5404    5.1764   -1.2126 H   0  0  0  0  0  0  0  0  0  0  0  0
    2.3073    6.1694   -0.3751 H   0  0  0  0  0  0  0  0  0  0  0  0
    3.8446    0.4057    1.7709 H   0  0  0  0  0  0  0  0  0  0  0  0
    6.2200   -0.3717    1.6940 H   0  0  0  0  0  0  0  0  0  0  0  0
    7.0445   -1.7048   -0.2658 H   0  0  0  0  0  0  0  0  0  0  0  0
    5.4733   -2.2532   -2.1449 H   0  0  0  0  0  0  0  0  0  0  0  0
    3.0948   -1.4580   -2.0665 H   0  0  0  0  0  0  0  0  0  0  0  0
  1 17  1  0  0  0  0
  3 16  1  0  0  0  0
  3  4  1  0  0  0  0
  5 17  1  0  0  0  0
  6 15  1  0  0  0  0
  6  2  1  0  0  0  0
  7  6  2  0  0  0  0
  8 13  1  0  0  0  0
  8  7  1  0  0  0  0
  9  8  2  0  0  0  0
 10  9  1  0  0  0  0
 10 11  2  0  0  0  0
 11 12  1  0  0  0  0
 12 29  1  0  0  0  0
 12 13  2  0  0  0  0
 13 14  1  0  0  0  0
 14 30  1  0  0  0  0
 14 15  2  0  0  0  0
 15 31  1  0  0  0  0
 16  7  1  0  0  0  0
 16 32  1  0  0  0  0
 17  4  2  0  0  0  0
 18  1  1  0  0  0  0
 18 34  1  0  0  0  0
 19 18  1  0  0  0  0
 19 35  1  0  0  0  0
 20  5  1  0  0  0  0
 20 21  1  0  0  0  0
 21 38  1  0  0  0  0
 22 21  2  0  0  0  0
 22 39  1  0  0  0  0
 23 22  1  0  0  0  0
 24 25  1  0  0  0  0
 24 23  2  0  0  0  0
 25 20  2  0  0  0  0
 26  9  1  0  0  0  0
 27 10  1  0  0  0  0
 28 11  1  0  0  0  0
 33 18  1  0  0  0  0
 36 19  1  0  0  0  0
 37 19  1  0  0  0  0
 40 23  1  0  0  0  0
 41 24  1  0  0  0  0
 42 25  1  0  0  0  0
M  CHG  1   2  -1
M  END
