1,2,3
q = -1.0

 23 23  0  0  1  0  0  0  0  0999 V2000
    0.7434    1.3571    1.5609 O   0  5  0  0  0  0  0  0  0  0  0  0
   -0.9763   -1.5631   -0.0710 N   0  0  0  0  0  2  0  0  0  0  0  0
   -1.5241    0.4767    1.2507 N   0  0  0  0  0  2  0  0  0  0  0  0
   -1.5127    1.6259    1.9584 N   0  0  0  0  0  0  0  0  0  0  0  0
   -0.5694   -2.5840   -0.8466 C   0  0  0  0  0  3  0  0  0  0  0  0
    0.5110   -2.6518   -1.0393 H   0  0  0  0  0  0  0  0  0  0  0  0
   -1.4665   -3.5167   -1.3818 C   0  0  0  0  0  0  0  0  0  0  0  0
   -1.0864   -4.3434   -1.9974 H   0  0  0  0  0  0  0  0  0  0  0  0
   -2.8370   -3.3673   -1.1173 C   0  0  0  0  0  0  0  0  0  0  0  0
   -3.5662   -4.0819   -1.5260 H   0  0  0  0  0  0  0  0  0  0  0  0
   -3.2680   -2.2894   -0.3348 C   0  0  0  0  0  0  0  0  0  0  0  0
   -4.3347   -2.1297   -0.1263 H   0  0  0  0  0  0  0  0  0  0  0  0
   -2.3214   -1.3876    0.1802 C   0  0  0  0  0  0  0  0  0  0  0  0
   -2.6221   -0.2115    0.9769 C   0  0  2  0  0  3  0  0  0  0  0  0
   -3.9862    0.2151    1.3937 C   0  0  0  0  0  0  0  0  0  0  0  0
   -4.5381   -0.6120    1.8840 H   0  0  0  0  0  0  0  0  0  0  0  0
   -4.5735    0.5328    0.5056 H   0  0  0  0  0  0  0  0  0  0  0  0
   -3.9118    1.0704    2.0882 H   0  0  0  0  0  0  0  0  0  0  0  0
   -0.2488    2.0244    2.0816 C   0  0  0  0  0  0  0  0  0  0  0  0
    0.0660    3.2666    2.8545 C   0  0  0  0  0  0  0  0  0  0  0  0
   -0.8592    3.7772    3.1713 H   0  0  0  0  0  0  0  0  0  0  0  0
    0.6872    3.9481    2.2403 H   0  0  0  0  0  0  0  0  0  0  0  0
    0.6666    3.0031    3.7489 H   0  0  0  0  0  0  0  0  0  0  0  0
  1 19  1  0  0  0  0
  2 13  1  0  0  0  0
  3  4  1  0  0  0  0
  4 19  2  0  0  0  0
  5  2  1  0  0  0  0
  6  5  1  0  0  0  0
  7  9  2  0  0  0  0
  7  5  1  0  0  0  0
  8  7  1  0  0  0  0
  9 11  1  0  0  0  0
 10  9  1  0  0  0  0
 11 12  1  0  0  0  0
 11 13  2  0  0  0  0
 13 14  1  0  0  0  0
 14  3  1  6  0  0  0
 14 15  1  0  0  0  0
 15 16  1  0  0  0  0
 15 18  1  0  0  0  0
 17 15  1  0  0  0  0
 19 20  1  0  0  0  0
 20 21  1  0  0  0  0
 20 23  1  0  0  0  0
 22 20  1  0  0  0  0
M  CHG  1   1  -1
M  END
