1,3,4
q = -1.0, confidence = 0.024

 38 40  0  0  1  0  0  0  0  0999 V2000
    2.2686   -1.1057    0.1099 O   0  5  0  0  0  0  0  0  0  0  0  0
   -2.5840   -0.1840   -0.5300 N   0  0  0  0  0  0  0  0  0  0  0  0
   -1.7499   -1.1353   -0.0345 N   0  0  0  0  0  2  0  0  0  0  0  0
    0.2567    0.9836   -0.1067 N   0  0  0  0  0  2  0  0  0  0  0  0
   -2.5113   -2.1961    0.2998 C   0  0  0  0  0  3  0  0  0  0  0  0
   -3.8606   -1.9318   -0.0021 C   0  0  0  0  0  0  0  0  0  0  0  0
   -3.8702   -0.6463   -0.5332 C   0  0  0  0  0  0  0  0  0  0  0  0
   -2.0876    1.1143   -1.0134 C   0  0  1  0  0  0  0  0  0  0  0  0
   -3.2402    2.1326   -1.1033 C   0  0  0  0  0  0  0  0  0  0  0  0
   -3.8160    2.5059    0.2738 C   0  0  0  0  0  0  0  0  0  0  0  0
   -2.7264    2.9500    1.2600 C   0  0  0  0  0  0  0  0  0  0  0  0
   -1.5620    1.9512    1.3259 C   0  0  0  0  0  0  0  0  0  0  0  0
   -1.0060    1.7135   -0.0875 C   0  0  1  0  0  0  0  0  0  0  0  0
    1.3526    1.7092   -0.1688 C   0  0  0  0  0  0  0  0  0  0  0  0
    2.7115    1.2794   -0.1310 C   0  0  0  0  0  0  0  0  0  0  0  0
    3.7274    2.2796   -0.2307 C   0  0  0  0  0  3  0  0  0  0  0  0
    5.0741    1.9586   -0.1893 C   0  0  0  0  0  0  0  0  0  0  0  0
    5.4487    0.5961   -0.0425 C   0  0  0  0  0  0  0  0  0  0  0  0
    4.4950   -0.4051    0.0570 C   0  0  0  0  0  0  0  0  0  0  0  0
    3.0923   -0.1086    0.0145 C   0  0  0  0  0  0  0  0  0  0  0  0
   -2.0071   -3.0872    0.6927 H   0  0  0  0  0  0  0  0  0  0  0  0
   -4.7195   -2.5928    0.1462 H   0  0  0  0  0  0  0  0  0  0  0  0
   -4.6950   -0.0378   -0.9110 H   0  0  0  0  0  0  0  0  0  0  0  0
   -1.6372    0.9491   -2.0163 H   0  0  0  0  0  0  0  0  0  0  0  0
   -0.8048    2.7168   -0.5288 H   0  0  0  0  0  0  0  0  0  0  0  0
    1.2092    2.8061   -0.2604 H   0  0  0  0  0  0  0  0  0  0  0  0
    3.4121    3.3301   -0.3408 H   0  0  0  0  0  0  0  0  0  0  0  0
    5.8407    2.7426   -0.2669 H   0  0  0  0  0  0  0  0  0  0  0  0
    6.5162    0.3268   -0.0074 H   0  0  0  0  0  0  0  0  0  0  0  0
    4.7736   -1.4624    0.1697 H   0  0  0  0  0  0  0  0  0  0  0  0
   -4.0319    1.7692   -1.7892 H   0  0  0  0  0  0  0  0  0  0  0  0
   -2.8216    3.0369   -1.5926 H   0  0  0  0  0  0  0  0  0  0  0  0
   -4.3576    1.6369    0.7027 H   0  0  0  0  0  0  0  0  0  0  0  0
   -4.5726    3.3075    0.1487 H   0  0  0  0  0  0  0  0  0  0  0  0
   -3.1635    3.0976    2.2685 H   0  0  0  0  0  0  0  0  0  0  0  0
   -2.3289    3.9409    0.9458 H   0  0  0  0  0  0  0  0  0  0  0  0
   -1.8812    0.9840    1.7686 H   0  0  0  0  0  0  0  0  0  0  0  0
   -0.7459    2.3392    1.9678 H   0  0  0  0  0  0  0  0  0  0  0  0
  2  3  1  0  0  0  0
  3  5  1  0  0  0  0
  4 13  1  0  0  0  0
  5 21  1  0  0  0  0
  6 22  1  0  0  0  0
  6  5  1  0  0  0  0
  7  2  1  0  0  0  0
  7  6  2  0  0  0  0
  8 24  1  6  0  0  0
  8  2  1  0  0  0  0
  8 13  1  0  0  0  0
  9  8  1  0  0  0  0
  9 10  1  0  0  0  0
 10 33  1  0  0  0  0
 10 11  1  0  0  0  0
 11 12  1  0  0  0  0
 11 35  1  0  0  0  0
 12 37  1  0  0  0  0
 12 38  1  0  0  0  0
 13 25  1  6  0  0  0
 13 12  1  0  0  0  0
 14 15  2  0  0  0  0
 14  4  1  0  0  0  0
 15 20  1  0  0  0  0
 16 17  1  0  0  0  0
 16 15  1  0  0  0  0
 17 18  2  0  0  0  0
 18 29  1  0  0  0  0
 18 19  1  0  0  0  0
 19 30  1  0  0  0  0
 20 19  2  0  0  0  0
 20  1  1  0  0  0  0
 23  7  1  0  0  0  0
 26 14  1  0  0  0  0
 27 16  1  0  0  0  0
 28 17  1  0  0  0  0
 31  9  1  0  0  0  0
 32  9  1  0  0  0  0
 34 10  1  0  0  0  0
 36 11  1  0  0  0  0
M  CHG  1   1  -1
M  END
