1,2,3
q = -1.0, confidence = 0.112

 81 85  0  0  1  0  0  0  0  0999 V2000
    2.0059   -0.7664   -0.0819 N   0  0  0  0  0  0  0  0  0  0  0  0
   -0.2063    0.7044    0.2087 N   0  0  0  0  0  2  0  0  0  0  0  0
   -1.7946   -1.4693   -0.1101 O   0  0  0  0  0  1  0  0  0  0  0  0
    1.0463    1.4643    0.4069 C   0  0  2  0  0  0  0  0  0  0  0  0
    1.2965    1.4346    1.4911 H   0  0  0  0  0  0  0  0  0  0  0  0
    0.9867    2.9205   -0.0190 C   0  0  0  0  0  0  0  0  0  0  0  0
    0.6090    3.2648   -1.3333 C   0  0  0  0  0  0  0  0  0  0  0  0
    0.3089    2.4747   -2.0395 H   0  0  0  0  0  0  0  0  0  0  0  0
    0.5892    4.6054   -1.7396 C   0  0  0  0  0  0  0  0  0  0  0  0
    0.2894    4.8605   -2.7672 H   0  0  0  0  0  0  0  0  0  0  0  0
    0.9482    5.6214   -0.8378 C   0  0  0  0  0  0  0  0  0  0  0  0
    0.9328    6.6743   -1.1576 H   0  0  0  0  0  0  0  0  0  0  0  0
    1.3206    5.2885    0.4727 C   0  0  0  0  0  0  0  0  0  0  0  0
    1.5990    6.0786    1.1863 H   0  0  0  0  0  0  0  0  0  0  0  0
    1.3368    3.9447    0.8781 C   0  0  0  0  0  0  0  0  0  0  0  0
    1.6301    3.6847    1.9072 H   0  0  0  0  0  0  0  0  0  0  0  0
    2.1280    0.7156   -0.3818 C   0  0  1  0  0  0  0  0  0  0  0  0
    1.8268    0.7827   -1.4465 H   0  0  0  0  0  0  0  0  0  0  0  0
    3.5154    1.3172   -0.2588 C   0  0  0  0  0  0  0  0  0  0  0  0
    4.0774    1.6822    0.9815 C   0  0  0  0  0  0  0  0  0  0  0  0
    3.5069    1.5439    1.9115 H   0  0  0  0  0  0  0  0  0  0  0  0
    5.3689    2.2199    1.0538 C   0  0  0  0  0  0  0  0  0  0  0  0
    5.7925    2.4903    2.0327 H   0  0  0  0  0  0  0  0  0  0  0  0
    6.1200    2.4139   -0.1159 C   0  0  0  0  0  0  0  0  0  0  0  0
    7.1352    2.8346   -0.0578 H   0  0  0  0  0  0  0  0  0  0  0  0
    5.5644    2.0785   -1.3591 C   0  0  0  0  0  0  0  0  0  0  0  0
    6.1384    2.2398   -2.2840 H   0  0  0  0  0  0  0  0  0  0  0  0
    4.2719    1.5402   -1.4257 C   0  0  0  0  0  0  0  0  0  0  0  0
    3.8358    1.2891   -2.4055 H   0  0  0  0  0  0  0  0  0  0  0  0
    2.5447   -1.1652    1.2708 C   0  0  0  0  0  0  0  0  0  0  0  0
    2.3751   -0.3631    2.0136 H   0  0  0  0  0  0  0  0  0  0  0  0
    1.9701   -2.0607    1.5906 H   0  0  0  0  0  0  0  0  0  0  0  0
    3.9872   -1.5192    1.0203 C   0  0  0  0  0  0  0  0  0  0  0  0
    5.0511   -1.6641    1.9158 C   0  0  0  0  0  0  0  0  0  0  0  0
    4.9100   -1.4932    2.9942 H   0  0  0  0  0  0  0  0  0  0  0  0
    6.3134   -2.0223    1.4097 C   0  0  0  0  0  0  0  0  0  0  0  0
    7.1656   -2.1332    2.0970 H   0  0  0  0  0  0  0  0  0  0  0  0
    6.4968   -2.2325    0.0320 C   0  0  0  0  0  0  0  0  0  0  0  0
    7.4920   -2.5059   -0.3499 H   0  0  0  0  0  0  0  0  0  0  0  0
    5.4220   -2.0916   -0.8641 C   0  0  0  0  0  0  0  0  0  0  0  0
    5.5697   -2.2541   -1.9427 H   0  0  0  0  0  0  0  0  0  0  0  0
    4.1684   -1.7333   -0.3575 C   0  0  0  0  0  0  0  0  0  0  0  0
    2.8529   -1.5433   -1.0635 C   0  0  0  0  0  0  0  0  0  0  0  0
    2.3469   -2.5184   -1.2357 H   0  0  0  0  0  0  0  0  0  0  0  0
    2.9120   -0.9986   -2.0252 H   0  0  0  0  0  0  0  0  0  0  0  0
   -1.3570    1.3319    0.3661 C   0  0  0  0  0  0  0  0  0  0  0  0
   -1.3178    2.4159    0.5834 H   0  0  0  0  0  0  0  0  0  0  0  0
   -2.6534    0.7512    0.2639 C   0  0  0  0  0  0  0  0  0  0  0  0
   -3.7936    1.5896    0.4076 C   0  0  0  0  0  0  0  0  0  0  0  0
   -3.6190    2.6603    0.6024 H   0  0  0  0  0  0  0  0  0  0  0  0
   -5.0856    1.0884    0.3021 C   0  0  0  0  0  0  0  0  0  0  0  0
   -5.2143   -0.3055    0.0433 C   0  0  0  0  0  0  0  0  0  0  0  0
   -6.2256   -0.7186   -0.0430 H   0  0  0  0  0  0  0  0  0  0  0  0
   -4.1447   -1.1914   -0.1070 C   0  0  0  0  0  0  0  0  0  0  0  0
   -2.8078   -0.6582    0.0095 C   0  0  2  0  0  3  0  0  0  0  0  0
   -6.3026    2.0200    0.4600 C   0  0  0  0  0  0  0  0  0  0  0  0
   -6.2706    2.6705    1.8615 C   0  0  0  0  0  0  0  0  0  0  0  0
   -6.3110    1.8982    2.6561 H   0  0  0  0  0  0  0  0  0  0  0  0
   -7.1360    3.3526    1.9974 H   0  0  0  0  0  0  0  0  0  0  0  0
   -5.3471    3.2636    2.0163 H   0  0  0  0  0  0  0  0  0  0  0  0
   -6.2455    3.1240   -0.6200 C   0  0  0  0  0  0  0  0  0  0  0  0
   -6.2681    2.6826   -1.6370 H   0  0  0  0  0  0  0  0  0  0  0  0
   -5.3211    3.7299   -0.5373 H   0  0  0  0  0  0  0  0  0  0  0  0
   -7.1104    3.8133   -0.5227 H   0  0  0  0  0  0  0  0  0  0  0  0
   -7.6355    1.2658    0.3089 C   0  0  0  0  0  0  0  0  0  0  0  0
   -7.7335    0.7957   -0.6904 H   0  0  0  0  0  0  0  0  0  0  0  0
   -8.4819    1.9717    0.4298 H   0  0  0  0  0  0  0  0  0  0  0  0
   -7.7507    0.4727    1.0749 H   0  0  0  0  0  0  0  0  0  0  0  0
   -4.3578   -2.6915   -0.3783 C   0  0  0  0  0  0  0  0  0  0  0  0
   -3.7476   -3.5223    0.7767 C   0  0  0  0  0  0  0  0  0  0  0  0
   -2.6565   -3.3612    0.8549 H   0  0  0  0  0  0  0  0  0  0  0  0
   -3.9230   -4.6032    0.5958 H   0  0  0  0  0  0  0  0  0  0  0  0
   -4.2221   -3.2559    1.7437 H   0  0  0  0  0  0  0  0  0  0  0  0
   -3.6842   -3.0843   -1.7155 C   0  0  0  0  0  0  0  0  0  0  0  0
   -2.5922   -2.9170   -1.6779 H   0  0  0  0  0  0  0  0  0  0  0  0
   -4.1103   -2.4989   -2.5564 H   0  0  0  0  0  0  0  0  0  0  0  0
   -3.8607   -4.1601   -1.9235 H   0  0  0  0  0  0  0  0  0  0  0  0
   -5.8531   -3.0438   -0.4793 C   0  0  0  0  0  0  0  0  0  0  0  0
   -5.9602   -4.1290   -0.6782 H   0  0  0  0  0  0  0  0  0  0  0  0
   -6.3557   -2.5029   -1.3074 H   0  0  0  0  0  0  0  0  0  0  0  0
   -6.3994   -2.8240    0.4609 H   0  0  0  0  0  0  0  0  0  0  0  0
  1 30  1  0  0  0  0
  2 46  1  0  0  0  0
  2  4  1  0  0  0  0
  4  5  1  1  0  0  0
  6  4  1  0  0  0  0
  6 15  1  0  0  0  0
  7  6  2  0  0  0  0
  8  7  1  0  0  0  0
  9  7  1  0  0  0  0
  9 11  2  0  0  0  0
 10  9  1  0  0  0  0
 11 13  1  0  0  0  0
 12 11  1  0  0  0  0
 13 15  2  0  0  0  0
 13 14  1  0  0  0  0
 15 16  1  0  0  0  0
 17 18  1  6  0  0  0
 17 19  1  0  0  0  0
 17  1  1  0  0  0  0
 17  4  1  0  0  0  0
 19 20  1  0  0  0  0
 20 22  2  0  0  0  0
 20 21  1  0  0  0  0
 22 23  1  0  0  0  0
 24 25  1  0  0  0  0
 24 22  1  0  0  0  0
 26 24  2  0  0  0  0
 27 26  1  0  0  0  0
 28 26  1  0  0  0  0
 28 19  2  0  0  0  0
 29 28  1  0  0  0  0
 30 32  1  0  0  0  0
 30 31  1  0  0  0  0
 33 30  1  0  0  0  0
 33 34  1  0  0  0  0
 34 35  1  0  0  0  0
 36 34  2  0  0  0  0
 36 37  1  0  0  0  0
 38 36  1  0  0  0  0
 39 38  1  0  0  0  0
 40 42  1  0  0  0  0
 40 38  2  0  0  0  0
 41 40  1  0  0  0  0
 42 33  2  0  0  0  0
 43 42  1  0  0  0  0
 43  1  1  0  0  0  0
 44 43  1  0  0  0  0
 45 43  1  0  0  0  0
 46 47  1  0  0  0  0
 48 46  2  0  0  0  0
 48 49  1  0  0  0  0
 49 50  1  0  0  0  0
 51 49  2  0  0  0  0
 51 56  1  0  0  0  0
 52 51  1  0  0  0  0
 53 52  1  0  0  0  0
 54 55  1  0  0  0  0
 54 52  2  0  0  0  0
 55  3  1  1  0  0  0
 55 48  1  0  0  0  0
 56 57  1  0  0  0  0
 57 59  1  0  0  0  0
 57 60  1  0  0  0  0
 57 58  1  0  0  0  0
 61 63  1  0  0  0  0
 61 64  1  0  0  0  0
 61 56  1  0  0  0  0
 62 61  1  0  0  0  0
 65 67  1  0  0  0  0
 65 56  1  0  0  0  0
 65 68  1  0  0  0  0
 66 65  1  0  0  0  0
 69 54  1  0  0  0  0
 69 70  1  0  0  0  0
 70 71  1  0  0  0  0
 70 73  1  0  0  0  0
 72 70  1  0  0  0  0
 74 75  1  0  0  0  0
 74 69  1  0  0  0  0
 76 74  1  0  0  0  0
 77 74  1  0  0  0  0
 78 69  1  0  0  0  0
 78 81  1  0  0  0  0
 79 78  1  0  0  0  0
 80 78  1  0  0  0  0
M  END
