1,4,5
q = -1.0

 34 35  0  0  1  0  0  0  0  0999 V2000
   -0.0437   -1.3210    1.7923 O   0  5  0  0  0  0  0  0  0  0  0  0
   -3.3522    0.4319   -2.0503 O   0  0  0  0  0  0  0  0  0  0  0  0
   -4.3257    2.3435   -1.3459 O   0  0  0  0  0  0  0  0  0  0  0  0
   -1.9622    0.2184    0.4452 N   0  0  0  0  0  2  0  0  0  0  0  0
    0.1443    1.4024   -0.9112 N   0  0  0  0  0  2  0  0  0  0  0  0
    0.8162    2.6642   -2.5729 N   0  0  0  0  0  0  0  0  0  0  0  0
    1.3701    2.9930   -3.3650 H   0  0  0  0  0  0  0  0  0  0  0  0
   -1.0056   -2.1838    1.9492 C   0  0  0  0  0  0  0  0  0  0  0  0
   -0.7493   -3.3633    2.7154 C   0  0  0  0  0  0  0  0  0  0  0  0
    0.2502   -3.4762    3.1603 H   0  0  0  0  0  0  0  0  0  0  0  0
   -1.7332   -4.3283    2.8982 C   0  0  0  0  0  0  0  0  0  0  0  0
   -1.4965   -5.2309    3.4827 H   0  0  0  0  0  0  0  0  0  0  0  0
   -3.0336   -4.1682    2.3559 C   0  0  0  0  0  0  0  0  0  0  0  0
   -3.8007   -4.9389    2.5141 H   0  0  0  0  0  0  0  0  0  0  0  0
   -3.3276   -3.0102    1.6517 C   0  0  0  0  0  0  0  0  0  0  0  0
   -4.3423   -2.8433    1.2562 H   0  0  0  0  0  0  0  0  0  0  0  0
   -2.3386   -2.0077    1.4268 C   0  0  0  0  0  0  0  0  0  0  0  0
   -2.7322   -0.7692    0.8385 C   0  0  0  0  0  3  0  0  0  0  0  0
   -3.8285   -0.6198    0.7525 H   0  0  0  0  0  0  0  0  0  0  0  0
   -2.6821    1.4546    0.0945 C   0  0  1  0  0  0  0  0  0  0  0  0
   -3.4371    1.6617    0.8822 H   0  0  0  0  0  0  0  0  0  0  0  0
   -1.7844    2.7036    0.0208 C   0  0  0  0  0  0  0  0  0  0  0  0
   -2.4118    3.5641   -0.2735 H   0  0  0  0  0  0  0  0  0  0  0  0
   -1.3828    2.8974    1.0325 H   0  0  0  0  0  0  0  0  0  0  0  0
   -0.6725    2.5240   -0.9508 C   0  0  0  0  0  0  0  0  0  0  0  0
    1.0381    1.5082   -1.8992 C   0  0  0  0  0  3  0  0  0  0  0  0
    1.8565    0.8024   -2.1066 H   0  0  0  0  0  0  0  0  0  0  0  0
   -0.2563    3.3214   -2.0018 C   0  0  0  0  0  0  0  0  0  0  0  0
   -0.6250    4.2844   -2.3662 H   0  0  0  0  0  0  0  0  0  0  0  0
   -3.4708    1.3178   -1.2202 C   0  0  0  0  0  0  0  0  0  0  0  0
   -5.1150    2.3723   -2.5513 C   0  0  0  0  0  0  0  0  0  0  0  0
   -5.7374    1.4594   -2.6271 H   0  0  0  0  0  0  0  0  0  0  0  0
   -4.4589    2.4313   -3.4417 H   0  0  0  0  0  0  0  0  0  0  0  0
   -5.7508    3.2706   -2.4746 H   0  0  0  0  0  0  0  0  0  0  0  0
  1  8  1  0  0  0  0
  2 30  2  0  0  0  0
  3 30  1  0  0  0  0
  4 18  1  0  0  0  0
  6 28  1  0  0  0  0
  6 26  1  0  0  0  0
  7  6  1  0  0  0  0
  8  9  1  0  0  0  0
  9 11  2  0  0  0  0
  9 10  1  0  0  0  0
 11 12  1  0  0  0  0
 13 14  1  0  0  0  0
 13 11  1  0  0  0  0
 15 13  2  0  0  0  0
 16 15  1  0  0  0  0
 17 15  1  0  0  0  0
 17  8  2  0  0  0  0
 18 17  1  0  0  0  0
 19 18  1  0  0  0  0
 20  4  1  0  0  0  0
 20 21  1  1  0  0  0
 22 20  1  0  0  0  0
 22 24  1  0  0  0  0
 23 22  1  0  0  0  0
 25  5  1  0  0  0  0
 25 22  1  0  0  0  0
 26  5  1  0  0  0  0
 27 26  1  0  0  0  0
 28 25  2  0  0  0  0
 29 28  1  0  0  0  0
 30 20  1  0  0  0  0
 31 34  1  0  0  0  0
 31  3  1  0  0  0  0
 32 31  1  0  0  0  0
 33 31  1  0  0  0  0
M  CHG  1   1  -1
M  END
