3,5,6
q = -1.0

 29 29  0  0  1  0  0  0  0  0999 V2000
   -2.3225   -1.8476   -1.4072 O   0  0  0  0  0  0  0  0  0  0  0  0
   -2.7096   -1.4006   -0.6084 H   0  0  0  0  0  0  0  0  0  0  0  0
    1.6293    1.3687    0.3790 O   0  5  0  0  0  0  0  0  0  0  0  0
    5.1983   -0.0684   -1.3488 O   0  0  0  0  0  0  0  0  0  0  0  0
   -1.0078   -1.4939   -1.3483 N   0  0  0  0  0  2  0  0  0  0  0  0
    1.4199   -0.5528   -1.3496 N   0  0  0  0  0  2  0  0  0  0  0  0
    2.6732   -0.1822   -1.0243 N   0  0  0  0  0  0  0  0  0  0  0  0
    4.2142   -0.3362   -1.4486 H   0  0  0  0  0  0  0  0  0  0  0  0
   -0.6973   -2.8916   -3.3661 C   0  0  0  0  0  0  0  0  0  0  0  0
   -1.8008   -2.9025   -3.4029 H   0  0  0  0  0  0  0  0  0  0  0  0
   -0.3491   -3.9299   -3.1815 H   0  0  0  0  0  0  0  0  0  0  0  0
   -0.3021   -2.5822   -4.3538 H   0  0  0  0  0  0  0  0  0  0  0  0
   -0.2281   -1.9660   -2.2825 C   0  0  2  0  0  3  0  0  0  0  0  0
    1.1892   -1.5478   -2.1695 C   0  0  2  0  0  3  0  0  0  0  0  0
    2.3024   -2.2637   -2.8729 C   0  0  0  0  0  0  0  0  0  0  0  0
    2.9594   -1.5371   -3.3942 H   0  0  0  0  0  0  0  0  0  0  0  0
    1.9396   -3.0093   -3.6016 H   0  0  0  0  0  0  0  0  0  0  0  0
    2.9483   -2.7839   -2.1322 H   0  0  0  0  0  0  0  0  0  0  0  0
    2.6807    0.8931   -0.1491 C   0  0  0  0  0  0  0  0  0  0  0  0
    4.0130    1.4364    0.1589 C   0  0  0  0  0  0  0  0  0  0  0  0
    4.1121    2.4982    1.0904 C   0  0  0  0  0  0  0  0  0  0  0  0
    3.1766    2.8568    1.5439 H   0  0  0  0  0  0  0  0  0  0  0  0
    5.3426    3.0651    1.4140 C   0  0  0  0  0  0  0  0  0  0  0  0
    5.4030    3.8897    2.1390 H   0  0  0  0  0  0  0  0  0  0  0  0
    6.5120    2.5684    0.7973 C   0  0  0  0  0  0  0  0  0  0  0  0
    7.4910    3.0082    1.0443 H   0  0  0  0  0  0  0  0  0  0  0  0
    6.4472    1.5240   -0.1245 C   0  0  0  0  0  0  0  0  0  0  0  0
    7.3498    1.1281   -0.6121 H   0  0  0  0  0  0  0  0  0  0  0  0
    5.2052    0.9344   -0.4650 C   0  0  0  0  0  0  0  0  0  0  0  0
  1  5  1  0  0  0  0
  1  2  1  0  0  0  0
  4 29  1  0  0  0  0
  6  7  1  0  0  0  0
  7 19  2  0  0  0  0
  8  4  1  0  0  0  0
  9 11  1  0  0  0  0
  9 13  1  0  0  0  0
 10  9  1  0  0  0  0
 12  9  1  0  0  0  0
 13 14  1  0  0  0  0
 13  5  1  1  0  0  0
 14  6  1  1  0  0  0
 15 14  1  0  0  0  0
 15 18  1  0  0  0  0
 16 15  1  0  0  0  0
 17 15  1  0  0  0  0
 19 20  1  0  0  0  0
 19  3  1  0  0  0  0
 20 21  1  0  0  0  0
 21 23  2  0  0  0  0
 21 22  1  0  0  0  0
 23 24  1  0  0  0  0
 25 26  1  0  0  0  0
 25 23  1  0  0  0  0
 27 25  2  0  0  0  0
 28 27  1  0  0  0  0
 29 27  1  0  0  0  0
 29 20  2  0  0  0  0
M  CHG  1   3  -1
M  END
