2,13,14
q = -1.0, confidence = 0.054

 29 29  0  0  0  0  0  0  0  0999 V2000
   -0.4954   -0.2081    2.0914 O   0  0  0  0  0  0  0  0  0  0  0  0
   -2.5797   -0.7360    0.1649 O   0  0  0  0  0  1  0  0  0  0  0  0
    2.2723   -1.2155    0.2036 C   0  0  0  0  0  3  0  0  0  0  0  0
    3.6094   -0.8046    0.1462 C   0  0  0  0  0  0  0  0  0  0  0  0
    3.8945    0.4993   -0.2877 C   0  0  0  0  0  0  0  0  0  0  0  0
    2.8366    1.3441   -0.6506 C   0  0  0  0  0  0  0  0  0  0  0  0
    1.5213    0.8599   -0.5707 C   0  0  0  0  0  0  0  0  0  0  0  0
    0.3089    1.6532   -1.0090 C   0  0  0  0  0  0  0  0  0  0  0  0
   -2.1459    1.3296   -1.0362 C   0  0  0  0  0  0  0  0  0  0  0  0
   -3.1856    0.3856   -0.3861 C   0  0  0  0  0  0  0  0  0  0  0  0
   -0.9856    1.8598    1.0746 C   0  0  0  0  0  0  0  0  0  0  0  0
   -0.1158    1.1561    2.1133 C   0  0  0  0  0  0  0  0  0  0  0  0
   -0.8842    1.2580   -0.2642 N   0  0  0  0  0  0  0  0  0  0  0  0
    1.2635   -0.3949   -0.1452 N   0  0  0  0  0  2  0  0  0  0  0  0
    0.1924   -0.7807    2.4759 H   0  0  0  0  0  0  0  0  0  0  0  0
    1.9504   -2.2217    0.5214 H   0  0  0  0  0  0  0  0  0  0  0  0
    4.4102   -1.4992    0.4370 H   0  0  0  0  0  0  0  0  0  0  0  0
    4.9340    0.8567   -0.3419 H   0  0  0  0  0  0  0  0  0  0  0  0
    3.0208    2.3735   -0.9923 H   0  0  0  0  0  0  0  0  0  0  0  0
    0.5161    2.7489   -0.9531 H   0  0  0  0  0  0  0  0  0  0  0  0
    0.1310    1.3948   -2.0749 H   0  0  0  0  0  0  0  0  0  0  0  0
   -1.9050    0.9451   -2.0451 H   0  0  0  0  0  0  0  0  0  0  0  0
   -2.5266    2.3764   -1.1262 H   0  0  0  0  0  0  0  0  0  0  0  0
   -3.7621    0.9319    0.4060 H   0  0  0  0  0  0  0  0  0  0  0  0
   -3.9354    0.1218   -1.1742 H   0  0  0  0  0  0  0  0  0  0  0  0
   -2.0383    1.7629    1.4023 H   0  0  0  0  0  0  0  0  0  0  0  0
   -0.7416    2.9491    1.0494 H   0  0  0  0  0  0  0  0  0  0  0  0
    0.9672    1.2942    1.8914 H   0  0  0  0  0  0  0  0  0  0  0  0
   -0.3081    1.6222    3.1081 H   0  0  0  0  0  0  0  0  0  0  0  0
  1 12  1  0  0  0  0
  1 15  1  0  0  0  0
  3 16  1  0  0  0  0
  4  3  1  0  0  0  0
  4 17  1  0  0  0  0
  5  4  2  0  0  0  0
  6  7  2  0  0  0  0
  6  5  1  0  0  0  0
  7 14  1  0  0  0  0
  8 20  1  0  0  0  0
  8  7  1  0  0  0  0
  8 13  1  0  0  0  0
  9 10  1  0  0  0  0
  9 13  1  0  0  0  0
 10  2  1  0  0  0  0
 10 24  1  0  0  0  0
 11 26  1  0  0  0  0
 11 12  1  0  0  0  0
 12 29  1  0  0  0  0
 13 11  1  0  0  0  0
 14  3  1  0  0  0  0
 18  5  1  0  0  0  0
 19  6  1  0  0  0  0
 21  8  1  0  0  0  0
 22  9  1  0  0  0  0
 23  9  1  0  0  0  0
 25 10  1  0  0  0  0
 27 11  1  0  0  0  0
 28 12  1  0  0  0  0
M  END
