1,3,4
q = -1.0

 38 40  0  0  1  0  0  0  0  0999 V2000
   -0.8768   -1.6860   -0.0731 N   0  0  0  0  0  2  0  0  0  0  0  0
   -2.9858   -0.7851    0.0291 N   0  0  1  0  0  0  0  0  0  0  0  0
   -2.2855    0.4068    0.1092 N   0  0  0  0  0  2  0  0  0  0  0  0
    1.3936   -0.0467    0.0067 O   0  5  0  0  0  0  0  0  0  0  0  0
   -2.2049   -1.9520   -0.1127 C   0  0  1  0  0  3  0  0  0  0  0  0
   -2.7305   -3.2355   -0.2783 C   0  0  0  0  0  0  0  0  0  0  0  0
   -3.8046   -3.4227   -0.3342 H   0  0  0  0  0  0  0  0  0  0  0  0
   -1.8044   -4.2974   -0.3901 C   0  0  0  0  0  0  0  0  0  0  0  0
   -2.1753   -5.3249   -0.5195 H   0  0  0  0  0  0  0  0  0  0  0  0
   -0.4435   -4.0445   -0.3415 C   0  0  0  0  0  0  0  0  0  0  0  0
    0.2890   -4.8594   -0.4255 H   0  0  0  0  0  0  0  0  0  0  0  0
    0.0400   -2.7078   -0.1875 C   0  0  0  0  0  0  0  0  0  0  0  0
    1.4350   -2.4413   -0.1497 C   0  0  0  0  0  0  0  0  0  0  0  0
    2.0887   -3.3164   -0.2456 H   0  0  0  0  0  0  0  0  0  0  0  0
    2.0292   -1.1769   -0.0380 C   0  0  0  0  0  0  0  0  0  0  0  0
    3.5176   -1.0331    0.0161 C   0  0  0  0  0  0  0  0  0  0  0  0
    4.0758    0.2474   -0.2005 C   0  0  0  0  0  0  0  0  0  0  0  0
    3.3895    1.0828   -0.4001 H   0  0  0  0  0  0  0  0  0  0  0  0
    5.4625    0.4378   -0.1625 C   0  0  0  0  0  0  0  0  0  0  0  0
    5.8800    1.4409   -0.3399 H   0  0  0  0  0  0  0  0  0  0  0  0
    6.3189   -0.6440    0.1003 C   0  0  0  0  0  0  0  0  0  0  0  0
    7.4090   -0.4942    0.1326 H   0  0  0  0  0  0  0  0  0  0  0  0
    5.7749   -1.9187    0.3287 C   0  0  0  0  0  0  0  0  0  0  0  0
    6.4373   -2.7700    0.5484 H   0  0  0  0  0  0  0  0  0  0  0  0
    4.3878   -2.1121    0.2876 C   0  0  0  0  0  0  0  0  0  0  0  0
    3.9791   -3.1120    0.4933 H   0  0  0  0  0  0  0  0  0  0  0  0
   -5.3933   -1.6343    0.1861 C   0  0  0  0  0  0  0  0  0  0  0  0
   -5.2195   -2.4056    0.9648 H   0  0  0  0  0  0  0  0  0  0  0  0
   -5.4626   -2.1533   -0.7926 H   0  0  0  0  0  0  0  0  0  0  0  0
   -6.3726   -1.1628    0.3865 H   0  0  0  0  0  0  0  0  0  0  0  0
   -4.3416   -0.5784    0.1950 C   0  0  1  0  0  3  0  0  0  0  0  0
   -4.4931    0.7892    0.3839 C   0  0  0  0  0  0  0  0  0  0  0  0
   -5.4387    1.3149    0.5516 H   0  0  0  0  0  0  0  0  0  0  0  0
   -3.2035    1.3762    0.3326 C   0  0  0  0  0  0  0  0  0  0  0  0
   -2.8944    2.8235    0.5187 C   0  0  0  0  0  0  0  0  0  0  0  0
   -2.5173    3.2887   -0.4129 H   0  0  0  0  0  0  0  0  0  0  0  0
   -2.1025    2.9772    1.2756 H   0  0  0  0  0  0  0  0  0  0  0  0
   -3.8104    3.3541    0.8399 H   0  0  0  0  0  0  0  0  0  0  0  0
  2  3  1  1  0  0  0
  2 31  1  0  0  0  0
  3 34  1  0  0  0  0
  5  6  1  6  0  0  0
  5  1  1  0  0  0  0
  5  2  1  0  0  0  0
  7  6  1  0  0  0  0
  8 10  1  0  0  0  0
  8  6  2  0  0  0  0
  9  8  1  0  0  0  0
 10 12  2  0  0  0  0
 11 10  1  0  0  0  0
 12 13  1  0  0  0  0
 12  1  1  0  0  0  0
 13 15  2  0  0  0  0
 14 13  1  0  0  0  0
 15  4  1  0  0  0  0
 15 16  1  0  0  0  0
 16 25  1  0  0  0  0
 17 19  1  0  0  0  0
 17 16  2  0  0  0  0
 18 17  1  0  0  0  0
 19 21  2  0  0  0  0
 20 19  1  0  0  0  0
 21 22  1  0  0  0  0
 21 23  1  0  0  0  0
 23 24  1  0  0  0  0
 25 23  2  0  0  0  0
 25 26  1  0  0  0  0
 27 30  1  0  0  0  0
 27 28  1  0  0  0  0
 29 27  1  0  0  0  0
 31 27  1  1  0  0  0
 31 32  1  0  0  0  0
 32 33  1  0  0  0  0
 34 32  2  0  0  0  0
 34 35  1  0  0  0  0
 35 38  1  0  0  0  0
 35 37  1  0  0  0  0
 36 35  1  0  0  0  0
M  CHG  1   4  -1
M  END
