1,3,4
q = -1.0

 61 62  0  0  0  0  0  0  0  0999 V2000
   -0.7324   -1.4782    0.9176 O   0  5  0  0  0  0  0  0  0  0  0  0
   -0.1028   -0.4979   -1.8195 N   0  0  0  0  0  0  0  0  0  0  0  0
    0.9035    1.8427   -0.4367 N   0  0  0  0  0  0  0  0  0  0  0  0
    2.4989   -0.6833   -0.4980 N   0  0  0  0  0  0  0  0  0  0  0  0
   -0.5638    0.8293   -2.2174 C   0  0  0  0  0  0  0  0  0  0  0  0
    0.4335    1.9297   -1.8378 C   0  0  0  0  0  0  0  0  0  0  0  0
    2.3792    1.8539   -0.3128 C   0  0  0  0  0  0  0  0  0  0  0  0
    3.0634    0.6237   -0.9325 C   0  0  0  0  0  0  0  0  0  0  0  0
    2.1458   -1.5660   -1.6301 C   0  0  0  0  0  0  0  0  0  0  0  0
    1.0797   -0.9624   -2.5503 C   0  0  0  0  0  0  0  0  0  0  0  0
   -1.1924   -1.5115   -1.8196 C   0  0  0  0  0  0  0  0  0  0  0  0
   -2.2986   -1.1718   -0.8655 C   0  0  0  0  0  0  0  0  0  0  0  0
   -1.9613   -1.1725    0.5187 C   0  0  0  0  0  0  0  0  0  0  0  0
   -2.9699   -0.8168    1.4688 C   0  0  0  0  0  0  0  0  0  0  0  0
   -4.2548   -0.4963    1.0084 C   0  0  0  0  0  0  0  0  0  0  0  0
   -4.6043   -0.5052   -0.3618 C   0  0  0  0  0  0  0  0  0  0  0  0
   -3.6003   -0.8430   -1.2856 C   0  0  0  0  0  0  0  0  0  0  0  0
   -6.0097   -0.1765   -0.8040 C   0  0  0  0  0  0  0  0  0  0  0  0
   -2.5860   -0.7852    2.9221 C   0  0  0  0  0  0  0  0  0  0  0  0
    0.2552    2.8398    0.4857 C   0  0  0  0  0  0  0  0  0  0  0  0
   -1.2521    2.6051    0.5714 C   0  0  0  0  0  0  0  0  0  0  0  0
    0.5922    4.2975    0.1551 C   0  0  0  0  0  0  0  0  0  0  0  0
    3.3502   -1.3638    0.5445 C   0  0  0  0  0  0  0  0  0  0  0  0
    4.7165   -1.8164    0.0153 C   0  0  0  0  0  0  0  0  0  0  0  0
    2.6087   -2.5216    1.2165 C   0  0  0  0  0  0  0  0  0  0  0  0
   -1.5291    0.9958   -1.7008 H   0  0  0  0  0  0  0  0  0  0  0  0
   -0.7706    0.8963   -3.3161 H   0  0  0  0  0  0  0  0  0  0  0  0
    1.3137    1.8931   -2.5114 H   0  0  0  0  0  0  0  0  0  0  0  0
   -0.0385    2.9152   -2.0338 H   0  0  0  0  0  0  0  0  0  0  0  0
    2.5921    1.8753    0.7756 H   0  0  0  0  0  0  0  0  0  0  0  0
    2.8292    2.7614   -0.7794 H   0  0  0  0  0  0  0  0  0  0  0  0
    3.0257    0.6811   -2.0383 H   0  0  0  0  0  0  0  0  0  0  0  0
    4.1411    0.6845   -0.6754 H   0  0  0  0  0  0  0  0  0  0  0  0
    1.7566   -2.5075   -1.1969 H   0  0  0  0  0  0  0  0  0  0  0  0
    3.0384   -1.8289   -2.2447 H   0  0  0  0  0  0  0  0  0  0  0  0
    1.5115   -0.1186   -3.1246 H   0  0  0  0  0  0  0  0  0  0  0  0
    0.8053   -1.7262   -3.3146 H   0  0  0  0  0  0  0  0  0  0  0  0
   -0.7221   -2.4668   -1.5041 H   0  0  0  0  0  0  0  0  0  0  0  0
   -1.5842   -1.6427   -2.8582 H   0  0  0  0  0  0  0  0  0  0  0  0
   -5.0226   -0.2167    1.7509 H   0  0  0  0  0  0  0  0  0  0  0  0
   -3.8344   -0.8522   -2.3647 H   0  0  0  0  0  0  0  0  0  0  0  0
   -6.0718   -0.0505   -1.9033 H   0  0  0  0  0  0  0  0  0  0  0  0
   -6.3810    0.7594   -0.3358 H   0  0  0  0  0  0  0  0  0  0  0  0
   -6.7284   -0.9774   -0.5238 H   0  0  0  0  0  0  0  0  0  0  0  0
   -1.6616   -0.1881    3.0721 H   0  0  0  0  0  0  0  0  0  0  0  0
   -2.3341   -1.8034    3.2881 H   0  0  0  0  0  0  0  0  0  0  0  0
   -3.3982   -0.3762    3.5541 H   0  0  0  0  0  0  0  0  0  0  0  0
    0.6809    2.5837    1.4792 H   0  0  0  0  0  0  0  0  0  0  0  0
   -1.4935    1.5526    0.8264 H   0  0  0  0  0  0  0  0  0  0  0  0
   -1.7819    2.8641   -0.3686 H   0  0  0  0  0  0  0  0  0  0  0  0
   -1.6789    3.2402    1.3719 H   0  0  0  0  0  0  0  0  0  0  0  0
    1.6842    4.4852    0.1426 H   0  0  0  0  0  0  0  0  0  0  0  0
    0.1566    4.9584    0.9301 H   0  0  0  0  0  0  0  0  0  0  0  0
    0.1723    4.6232   -0.8200 H   0  0  0  0  0  0  0  0  0  0  0  0
    3.4830   -0.5837    1.3230 H   0  0  0  0  0  0  0  0  0  0  0  0
    5.2806   -1.0019   -0.4827 H   0  0  0  0  0  0  0  0  0  0  0  0
    4.6243   -2.6584   -0.7012 H   0  0  0  0  0  0  0  0  0  0  0  0
    5.3386   -2.1727    0.8596 H   0  0  0  0  0  0  0  0  0  0  0  0
    1.6129   -2.2168    1.5940 H   0  0  0  0  0  0  0  0  0  0  0  0
    3.1975   -2.8605    2.0910 H   0  0  0  0  0  0  0  0  0  0  0  0
    2.4881   -3.3965    0.5453 H   0  0  0  0  0  0  0  0  0  0  0  0
  3  7  1  0  0  0  0
  3 20  1  0  0  0  0
  4 23  1  0  0  0  0
  5  6  1  0  0  0  0
  5  2  1  0  0  0  0
  5 26  1  0  0  0  0
  6  3  1  0  0  0  0
  7 30  1  0  0  0  0
  8 33  1  0  0  0  0
  8  4  1  0  0  0  0
  8  7  1  0  0  0  0
  9 34  1  0  0  0  0
  9  4  1  0  0  0  0
 10  2  1  0  0  0  0
 10  9  1  0  0  0  0
 11  2  1  0  0  0  0
 11 38  1  0  0  0  0
 11 12  1  0  0  0  0
 12 13  1  0  0  0  0
 13  1  1  0  0  0  0
 13 14  2  0  0  0  0
 14 19  1  0  0  0  0
 15 14  1  0  0  0  0
 15 40  1  0  0  0  0
 16 15  2  0  0  0  0
 17 12  2  0  0  0  0
 17 16  1  0  0  0  0
 18 44  1  0  0  0  0
 18 16  1  0  0  0  0
 18 43  1  0  0  0  0
 19 45  1  0  0  0  0
 19 46  1  0  0  0  0
 19 47  1  0  0  0  0
 20 21  1  0  0  0  0
 20 48  1  0  0  0  0
 21 49  1  0  0  0  0
 21 51  1  0  0  0  0
 22 20  1  0  0  0  0
 22 53  1  0  0  0  0
 23 25  1  0  0  0  0
 23 55  1  0  0  0  0
 24 23  1  0  0  0  0
 24 58  1  0  0  0  0
 25 59  1  0  0  0  0
 25 60  1  0  0  0  0
 27  5  1  0  0  0  0
 28  6  1  0  0  0  0
 29  6  1  0  0  0  0
 31  7  1  0  0  0  0
 32  8  1  0  0  0  0
 35  9  1  0  0  0  0
 36 10  1  0  0  0  0
 37 10  1  0  0  0  0
 39 11  1  0  0  0  0
 41 17  1  0  0  0  0
 42 18  1  0  0  0  0
 50 21  1  0  0  0  0
 52 22  1  0  0  0  0
 54 22  1  0  0  0  0
 56 24  1  0  0  0  0
 57 24  1  0  0  0  0
 61 25  1  0  0  0  0
M  CHG  1   1  -1
M  END
