1,13,20
q = -1.0

 33 34  0  0  0  0  0  0  0  0999 V2000
   -0.4319   -1.5114   -0.5247 O   0  5  0  0  0  0  0  0  0  0  0  0
   -1.6291   -1.0700   -0.2821 C   0  0  0  0  0  0  0  0  0  0  0  0
   -2.6880   -1.9892   -0.0149 C   0  0  0  0  0  0  0  0  0  0  0  0
   -2.4408   -3.0601   -0.0058 H   0  0  0  0  0  0  0  0  0  0  0  0
   -3.9803   -1.5467    0.2389 C   0  0  0  0  0  0  0  0  0  0  0  0
   -4.7793   -2.2706    0.4560 H   0  0  0  0  0  0  0  0  0  0  0  0
   -4.2822   -0.1611    0.2204 C   0  0  0  0  0  0  0  0  0  0  0  0
   -3.2875    0.7664   -0.0565 C   0  0  0  0  0  0  0  0  0  0  0  0
   -3.5219    1.8412   -0.0846 H   0  0  0  0  0  0  0  0  0  0  0  0
   -1.9542    0.3355   -0.3060 C   0  0  0  0  0  0  0  0  0  0  0  0
   -0.9661    1.3118   -0.6545 C   0  0  0  0  0  3  0  0  0  0  0  0
   -1.3361    2.3532   -0.7788 H   0  0  0  0  0  0  0  0  0  0  0  0
    0.3081    1.0891   -0.8578 N   0  0  0  0  0  2  0  0  0  0  0  0
    1.1509    2.1995   -1.2822 C   0  0  0  0  0  0  0  0  0  0  0  0
    0.6528    3.1830   -1.1356 H   0  0  0  0  0  0  0  0  0  0  0  0
    1.3602    2.0992   -2.3731 H   0  0  0  0  0  0  0  0  0  0  0  0
    2.4559    2.1293   -0.5025 C   0  0  0  0  0  0  0  0  0  0  0  0
    2.2427    2.2753    0.5751 H   0  0  0  0  0  0  0  0  0  0  0  0
    3.1677    2.9216   -0.8249 H   0  0  0  0  0  0  0  0  0  0  0  0
    3.0034    0.7815   -0.6775 N   0  0  0  0  0  0  0  0  0  0  0  0
    3.1651    0.5850   -1.6763 H   0  0  0  0  0  0  0  0  0  0  0  0
    4.2047    0.4387    0.0515 C   0  0  0  0  0  0  0  0  0  0  0  0
    4.8460   -0.7765   -0.2603 C   0  0  0  0  0  0  0  0  0  0  0  0
    4.3831   -1.4428   -1.0043 H   0  0  0  0  0  0  0  0  0  0  0  0
    6.0142   -1.1391    0.4168 C   0  0  0  0  0  0  0  0  0  0  0  0
    6.5038   -2.0931    0.1701 H   0  0  0  0  0  0  0  0  0  0  0  0
    6.5499   -0.3082    1.4162 C   0  0  0  0  0  0  0  0  0  0  0  0
    7.4653   -0.6014    1.9512 H   0  0  0  0  0  0  0  0  0  0  0  0
    5.9013    0.8920    1.7315 C   0  0  0  0  0  0  0  0  0  0  0  0
    6.3050    1.5507    2.5152 H   0  0  0  0  0  0  0  0  0  0  0  0
    4.7324    1.2731    1.0508 C   0  0  0  0  0  0  0  0  0  0  0  0
    4.2474    2.2220    1.3152 H   0  0  0  0  0  0  0  0  0  0  0  0
   -6.0629    0.4141    0.5691 Br  0  0  0  0  0  0  0  0  0  0  0  0
  1  2  1  0  0  0  0
  2  3  1  0  0  0  0
  3  4  1  0  0  0  0
  3  5  2  0  0  0  0
  5  6  1  0  0  0  0
  7  5  1  0  0  0  0
  7 33  1  0  0  0  0
  8  7  2  0  0  0  0
  9  8  1  0  0  0  0
 10  2  2  0  0  0  0
 10  8  1  0  0  0  0
 11 10  1  0  0  0  0
 12 11  1  0  0  0  0
 13 11  1  0  0  0  0
 14 15  1  0  0  0  0
 14 13  1  0  0  0  0
 14 17  1  0  0  0  0
 16 14  1  0  0  0  0
 17 18  1  0  0  0  0
 19 17  1  0  0  0  0
 20 17  1  0  0  0  0
 20 22  1  0  0  0  0
 21 20  1  0  0  0  0
 22 31  1  0  0  0  0
 23 22  2  0  0  0  0
 23 25  1  0  0  0  0
 24 23  1  0  0  0  0
 25 27  2  0  0  0  0
 26 25  1  0  0  0  0
 27 29  1  0  0  0  0
 27 28  1  0  0  0  0
 29 30  1  0  0  0  0
 31 32  1  0  0  0  0
 31 29  2  0  0  0  0
M  CHG  1   1  -1
M  END
