1,2,3
q = -1.0

 22 22  0  0  1  0  0  0  0  0999 V2000
   -0.3014    0.3787    1.6517 O   0  0  0  0  0  1  0  0  0  0  0  0
    0.1040    1.9404   -0.3937 N   0  0  0  0  0  0  0  0  0  0  0  0
    1.4200   -0.4906   -0.1834 N   0  0  0  0  0  2  0  0  0  0  0  0
    0.1486    2.5828    0.9398 C   0  0  0  0  0  0  0  0  0  0  0  0
    0.4585    1.4963    1.9782 C   0  0  0  0  0  0  0  0  0  0  0  0
    2.1706    0.5799   -0.5713 C   0  0  2  0  0  3  0  0  0  0  0  0
    3.5672    0.5520   -0.4728 C   0  0  0  0  0  0  0  0  0  0  0  0
    4.1972   -0.5879    0.0507 C   0  0  0  0  0  0  0  0  0  0  0  0
    3.4066   -1.6669    0.4759 C   0  0  0  0  0  0  0  0  0  0  0  0
    2.0179   -1.5824    0.3454 C   0  0  0  0  0  0  0  0  0  0  0  0
    1.4047    1.7719   -1.0981 C   0  0  0  0  0  0  0  0  0  0  0  0
   -0.5433    2.4561   -1.0025 H   0  0  0  0  0  0  0  0  0  0  0  0
    0.8776    3.4222    0.9666 H   0  0  0  0  0  0  0  0  0  0  0  0
   -0.8680    2.9802    1.1268 H   0  0  0  0  0  0  0  0  0  0  0  0
    1.5514    1.2538    1.9804 H   0  0  0  0  0  0  0  0  0  0  0  0
    0.2087    1.8613    3.0000 H   0  0  0  0  0  0  0  0  0  0  0  0
    4.1524    1.4286   -0.7866 H   0  0  0  0  0  0  0  0  0  0  0  0
    5.2930   -0.6250    0.1394 H   0  0  0  0  0  0  0  0  0  0  0  0
    3.8581   -2.5751    0.8997 H   0  0  0  0  0  0  0  0  0  0  0  0
    1.3271   -2.3914    0.6375 H   0  0  0  0  0  0  0  0  0  0  0  0
    1.1518    1.5833   -2.1620 H   0  0  0  0  0  0  0  0  0  0  0  0
    2.0275    2.6900   -1.0414 H   0  0  0  0  0  0  0  0  0  0  0  0
  1  5  1  0  0  0  0
  2  4  1  0  0  0  0
  3 10  1  0  0  0  0
  4 13  1  0  0  0  0
  4 14  1  0  0  0  0
  4  5  1  0  0  0  0
  5 15  1  0  0  0  0
  5 16  1  0  0  0  0
  6 11  1  1  0  0  0
  6  7  1  0  0  0  0
  6  3  1  0  0  0  0
  7  8  2  0  0  0  0
  8 18  1  0  0  0  0
  8  9  1  0  0  0  0
  9 19  1  0  0  0  0
 10  9  2  0  0  0  0
 10 20  1  0  0  0  0
 11 22  1  0  0  0  0
 11  2  1  0  0  0  0
 12  2  1  0  0  0  0
 17  7  1  0  0  0  0
 21 11  1  0  0  0  0
M  END
