3,4,7
q = -1.0, confidence = 0.0

 32 33  0  0  1  0  0  0  0  0999 V2000
    3.2329    0.9832   -1.6197 Br  0  0  0  0  0  0  0  0  0  0  0  0
    0.7012    6.0516   -0.9193 Br  0  0  0  0  0  0  0  0  0  0  0  0
   -1.8590   -2.1729   -1.4110 N   0  0  0  0  0  2  0  0  0  0  0  0
   -2.4341    0.3028   -0.7436 N   0  0  0  0  0  2  0  0  0  0  0  0
   -0.9730   -3.0618   -1.9150 O   0  0  0  0  0  0  0  0  0  0  0  0
   -0.1760   -2.9264   -1.2997 H   0  0  0  0  0  0  0  0  0  0  0  0
    0.3449    0.0245   -1.4425 O   0  5  0  0  0  0  0  0  0  0  0  0
   -3.4065   -3.3451   -2.8560 C   0  0  0  0  0  0  0  0  0  0  0  0
   -4.3983   -3.1993   -3.3160 H   0  0  0  0  0  0  0  0  0  0  0  0
   -3.3670   -4.3480   -2.3805 H   0  0  0  0  0  0  0  0  0  0  0  0
   -2.6329   -3.3492   -3.6485 H   0  0  0  0  0  0  0  0  0  0  0  0
   -3.0890   -2.2739   -1.8536 C   0  0  1  0  0  3  0  0  0  0  0  0
   -4.1152   -1.3722   -1.3118 C   0  0  0  0  0  0  0  0  0  0  0  0
   -3.7835   -0.0944   -0.7645 C   0  0  0  0  0  0  0  0  0  0  0  0
   -4.8076    0.7367   -0.2639 C   0  0  0  0  0  0  0  0  0  0  0  0
   -4.5369    1.6987    0.1929 H   0  0  0  0  0  0  0  0  0  0  0  0
   -6.1463    0.3304   -0.3015 C   0  0  0  0  0  0  0  0  0  0  0  0
   -6.9264    0.9901    0.1073 H   0  0  0  0  0  0  0  0  0  0  0  0
   -6.4836   -0.9219   -0.8409 C   0  0  0  0  0  0  0  0  0  0  0  0
   -7.5314   -1.2549   -0.8651 H   0  0  0  0  0  0  0  0  0  0  0  0
   -5.4759   -1.7551   -1.3388 C   0  0  0  0  0  0  0  0  0  0  0  0
   -5.7469   -2.7388   -1.7472 H   0  0  0  0  0  0  0  0  0  0  0  0
   -2.0933    1.5625   -0.9820 C   0  0  0  0  0  3  0  0  0  0  0  0
   -2.9291    2.2736   -1.1346 H   0  0  0  0  0  0  0  0  0  0  0  0
   -0.7867    2.1158   -1.0723 C   0  0  0  0  0  0  0  0  0  0  0  0
    0.4017    1.2751   -1.2882 C   0  0  0  0  0  0  0  0  0  0  0  0
    1.6613    2.0101   -1.3474 C   0  0  0  0  0  0  0  0  0  0  0  0
    1.7428    3.3880   -1.2358 C   0  0  0  0  0  0  0  0  0  0  0  0
    2.7186    3.8896   -1.2933 H   0  0  0  0  0  0  0  0  0  0  0  0
    0.5559    4.1552   -1.0644 C   0  0  0  0  0  0  0  0  0  0  0  0
   -0.6810    3.5401   -1.0078 C   0  0  0  0  0  0  0  0  0  0  0  0
   -1.5934    4.1412   -0.8782 H   0  0  0  0  0  0  0  0  0  0  0  0
  1 27  1  0  0  0  0
  5  3  1  0  0  0  0
  5  6  1  0  0  0  0
  7 26  1  0  0  0  0
  8 10  1  0  0  0  0
  8 12  1  0  0  0  0
  9  8  1  0  0  0  0
 11  8  1  0  0  0  0
 12  3  1  1  0  0  0
 12 13  1  0  0  0  0
 13 14  1  0  0  0  0
 14  4  1  0  0  0  0
 14 15  2  0  0  0  0
 15 16  1  0  0  0  0
 17 15  1  0  0  0  0
 17 18  1  0  0  0  0
 19 17  2  0  0  0  0
 20 19  1  0  0  0  0
 21 13  2  0  0  0  0
 21 19  1  0  0  0  0
 22 21  1  0  0  0  0
 23  4  1  0  0  0  0
 24 23  1  0  0  0  0
 25 31  1  0  0  0  0
 25 23  1  0  0  0  0
 26 25  2  0  0  0  0
 27 26  1  0  0  0  0
 27 28  2  0  0  0  0
 28 30  1  0  0  0  0
 29 28  1  0  0  0  0
 30 31  2  0  0  0  0
 30  2  1  0  0  0  0
 31 32  1  0  0  0  0
M  CHG  1   7  -1
M  END
