1,2,3
q = -1.0

 36 38  0  0  0  0  0  0  0  0999 V2000
    0.2981    1.3197   -1.3760 O   0  5  0  0  0  0  0  0  0  0  0  0
   -1.9076    0.1230   -0.2973 N   0  0  0  0  0  2  0  0  0  0  0  0
   -0.5205   -1.3607    1.2392 N   0  0  0  0  0  2  0  0  0  0  0  0
   -2.6074   -0.8752    0.3792 N   0  0  0  0  0  0  0  0  0  0  0  0
   -0.5567    2.1254   -1.9678 C   0  0  0  0  0  0  0  0  0  0  0  0
   -0.0394    3.1119   -2.8539 C   0  0  0  0  0  0  0  0  0  0  0  0
    1.0512    3.1464   -2.9882 H   0  0  0  0  0  0  0  0  0  0  0  0
   -0.8846    4.0133   -3.4941 C   0  0  0  0  0  0  0  0  0  0  0  0
   -0.4602    4.7842   -4.1546 H   0  0  0  0  0  0  0  0  0  0  0  0
   -2.2847    3.9413   -3.3033 C   0  0  0  0  0  0  0  0  0  0  0  0
   -2.9497    4.6500   -3.8174 H   0  0  0  0  0  0  0  0  0  0  0  0
   -2.8185    2.9610   -2.4706 C   0  0  0  0  0  0  0  0  0  0  0  0
   -3.9088    2.8862   -2.3347 H   0  0  0  0  0  0  0  0  0  0  0  0
   -1.9839    2.0401   -1.7823 C   0  0  0  0  0  0  0  0  0  0  0  0
   -2.5938    1.0102   -0.9942 C   0  0  0  0  0  3  0  0  0  0  0  0
   -3.6946    0.9421   -1.0061 H   0  0  0  0  0  0  0  0  0  0  0  0
   -4.0402   -0.9379    0.3694 C   0  0  0  0  0  0  0  0  0  0  0  0
   -4.7725   -0.1909    1.3107 C   0  0  0  0  0  0  0  0  0  0  0  0
   -4.2358    0.4313    2.0422 H   0  0  0  0  0  0  0  0  0  0  0  0
   -6.1731   -0.2534    1.2968 C   0  0  0  0  0  0  0  0  0  0  0  0
   -6.7533    0.3250    2.0308 H   0  0  0  0  0  0  0  0  0  0  0  0
   -6.8326   -1.0536    0.3486 C   0  0  0  0  0  0  0  0  0  0  0  0
   -7.9316   -1.1003    0.3412 H   0  0  0  0  0  0  0  0  0  0  0  0
   -6.0953   -1.7961   -0.5885 C   0  0  0  0  0  0  0  0  0  0  0  0
   -6.6143   -2.4248   -1.3269 H   0  0  0  0  0  0  0  0  0  0  0  0
   -4.6938   -1.7404   -0.5817 C   0  0  0  0  0  0  0  0  0  0  0  0
   -4.0990   -2.3184   -1.3043 H   0  0  0  0  0  0  0  0  0  0  0  0
    0.3016   -2.0357    2.0732 C   0  0  0  0  0  3  0  0  0  0  0  0
    1.3643   -1.7567    2.0241 H   0  0  0  0  0  0  0  0  0  0  0  0
   -0.1606   -3.0224    2.9420 C   0  0  0  0  0  0  0  0  0  0  0  0
    0.5416   -3.5498    3.6012 H   0  0  0  0  0  0  0  0  0  0  0  0
   -1.5378   -3.3191    2.9420 C   0  0  0  0  0  0  0  0  0  0  0  0
   -1.9407   -4.0945    3.6099 H   0  0  0  0  0  0  0  0  0  0  0  0
   -2.3997   -2.6224    2.0952 C   0  0  0  0  0  0  0  0  0  0  0  0
   -3.4790   -2.8203    2.0792 H   0  0  0  0  0  0  0  0  0  0  0  0
   -1.8506   -1.6310    1.2510 C   0  0  0  0  0  0  0  0  0  0  0  0
  2  4  1  0  0  0  0
  3 36  1  0  0  0  0
  3 28  1  0  0  0  0
  4 36  1  0  0  0  0
  5 14  1  0  0  0  0
  5  1  1  0  0  0  0
  6  5  2  0  0  0  0
  7  6  1  0  0  0  0
  8 10  2  0  0  0  0
  8  6  1  0  0  0  0
  9  8  1  0  0  0  0
 10 12  1  0  0  0  0
 11 10  1  0  0  0  0
 12 13  1  0  0  0  0
 12 14  2  0  0  0  0
 14 15  1  0  0  0  0
 15  2  1  0  0  0  0
 16 15  1  0  0  0  0
 17  4  1  0  0  0  0
 17 18  1  0  0  0  0
 18 19  1  0  0  0  0
 20 18  2  0  0  0  0
 20 21  1  0  0  0  0
 22 20  1  0  0  0  0
 23 22  1  0  0  0  0
 24 26  1  0  0  0  0
 24 22  2  0  0  0  0
 25 24  1  0  0  0  0
 26 17  2  0  0  0  0
 27 26  1  0  0  0  0
 28 30  1  0  0  0  0
 29 28  1  0  0  0  0
 30 32  2  0  0  0  0
 30 31  1  0  0  0  0
 32 33  1  0  0  0  0
 34 32  1  0  0  0  0
 35 34  1  0  0  0  0
 36 34  2  0  0  0  0
M  CHG  1   1  -1
M  END
