1,2,4
q = 0.0, confidence = 0.99

 38 39  0  0  1  0  0  0  0  0999 V2000
   -1.6228    0.4180   -0.7290 O   0  0  0  0  0  1  0  0  0  0  0  0
    2.4128    0.8310    0.0095 N   0  0  0  0  0  2  0  0  0  0  0  0
    5.0870    0.1831   -0.2412 N   0  0  0  0  0  0  0  0  0  0  0  0
    0.5566   -0.9574   -0.3684 N   0  0  0  0  0  2  0  0  0  0  0  0
   -0.6084   -1.6039   -0.2445 N   0  0  0  0  0  0  0  0  0  0  0  0
   -0.6882   -2.3436    0.4689 H   0  0  0  0  0  0  0  0  0  0  0  0
   -2.9228   -1.4507   -0.3133 N   0  0  0  0  0  0  0  0  0  0  0  0
   -2.8615   -2.4672   -0.2261 H   0  0  0  0  0  0  0  0  0  0  0  0
    3.3268    1.7998   -0.1013 C   0  0  0  0  0  3  0  0  0  0  0  0
    2.9307    2.8307   -0.1249 H   0  0  0  0  0  0  0  0  0  0  0  0
    4.6852    1.4589   -0.1893 C   0  0  0  0  0  0  0  0  0  0  0  0
    5.4638    2.2397   -0.2311 H   0  0  0  0  0  0  0  0  0  0  0  0
    4.1685   -0.7965   -0.1753 C   0  0  0  0  0  0  0  0  0  0  0  0
    2.7921   -0.4672   -0.0063 C   0  0  0  0  0  0  0  0  0  0  0  0
    4.6665   -2.2181   -0.3437 C   0  0  0  0  0  0  0  0  0  0  0  0
    3.8831   -2.8150   -0.8554 H   0  0  0  0  0  0  0  0  0  0  0  0
    4.7757   -2.6743    0.6671 H   0  0  0  0  0  0  0  0  0  0  0  0
    5.9975   -2.3248   -1.0880 C   0  0  0  0  0  0  0  0  0  0  0  0
    6.7894   -1.7577   -0.5648 H   0  0  0  0  0  0  0  0  0  0  0  0
    5.9175   -1.9051   -2.1106 H   0  0  0  0  0  0  0  0  0  0  0  0
    6.3103   -3.3840   -1.1707 H   0  0  0  0  0  0  0  0  0  0  0  0
    1.6674   -1.4300    0.1175 C   0  0  1  0  0  3  0  0  0  0  0  0
   -1.7448   -0.7738   -0.4464 C   0  0  2  0  0  3  0  0  0  0  0  0
   -4.2353   -0.9281   -0.3154 C   0  0  0  0  0  0  0  0  0  0  0  0
   -5.2961   -1.8530   -0.2094 C   0  0  0  0  0  0  0  0  0  0  0  0
   -5.0765   -2.9309   -0.1365 H   0  0  0  0  0  0  0  0  0  0  0  0
   -6.6226   -1.4072   -0.1933 C   0  0  0  0  0  0  0  0  0  0  0  0
   -7.4385   -2.1406   -0.1098 H   0  0  0  0  0  0  0  0  0  0  0  0
   -6.9072   -0.0355   -0.2818 C   0  0  0  0  0  0  0  0  0  0  0  0
   -7.9490    0.3170   -0.2691 H   0  0  0  0  0  0  0  0  0  0  0  0
   -5.8487    0.8802   -0.3862 C   0  0  0  0  0  0  0  0  0  0  0  0
   -6.0586    1.9582   -0.4549 H   0  0  0  0  0  0  0  0  0  0  0  0
   -4.5141    0.4521   -0.4063 C   0  0  0  0  0  0  0  0  0  0  0  0
   -3.6900    1.1693   -0.4930 H   0  0  0  0  0  0  0  0  0  0  0  0
    1.7238   -2.6912    0.9274 C   0  0  0  0  0  0  0  0  0  0  0  0
    1.0524   -2.5408    1.8047 H   0  0  0  0  0  0  0  0  0  0  0  0
    2.7307   -2.9056    1.3207 H   0  0  0  0  0  0  0  0  0  0  0  0
    1.3732   -3.5780    0.3579 H   0  0  0  0  0  0  0  0  0  0  0  0
  3 11  2  0  0  0  0
  3 13  1  0  0  0  0
  4  5  1  0  0  0  0
  5  6  1  0  0  0  0
  7  8  1  0  0  0  0
  9  2  1  0  0  0  0
 10  9  1  0  0  0  0
 11  9  1  0  0  0  0
 12 11  1  0  0  0  0
 13 14  2  0  0  0  0
 14  2  1  0  0  0  0
 14 22  1  0  0  0  0
 15 13  1  0  0  0  0
 15 17  1  0  0  0  0
 16 15  1  0  0  0  0
 18 19  1  0  0  0  0
 18 15  1  0  0  0  0
 20 18  1  0  0  0  0
 21 18  1  0  0  0  0
 22  4  1  1  0  0  0
 22 35  1  0  0  0  0
 23  1  1  6  0  0  0
 23  7  1  0  0  0  0
 23  5  1  0  0  0  0
 24  7  1  0  0  0  0
 24 25  1  0  0  0  0
 25 27  2  0  0  0  0
 25 26  1  0  0  0  0
 27 28  1  0  0  0  0
 29 30  1  0  0  0  0
 29 27  1  0  0  0  0
 31 29  2  0  0  0  0
 32 31  1  0  0  0  0
 33 31  1  0  0  0  0
 33 24  2  0  0  0  0
 34 33  1  0  0  0  0
 35 37  1  0  0  0  0
 35 36  1  0  0  0  0
 38 35  1  0  0  0  0
M  END
