2,3,4
q = -1.0, confidence = 0.002

 30 32  0  0  0  0  0  0  0  0999 V2000
   -5.9870    3.7747   -0.4268 Cl  0  0  0  0  0  0  0  0  0  0  0  0
   -0.9506    1.0257    0.9637 O   0  5  0  0  0  0  0  0  0  0  0  0
   -1.1882   -0.3497   -1.5140 N   0  0  0  0  0  2  0  0  0  0  0  0
    0.9680   -1.6840   -0.9804 N   0  0  0  0  0  2  0  0  0  0  0  0
   -2.0529    1.5858    0.5972 C   0  0  0  0  0  0  0  0  0  0  0  0
   -2.6498    2.5522    1.4783 C   0  0  0  0  0  0  0  0  0  0  0  0
   -2.1205    2.7525    2.4210 H   0  0  0  0  0  0  0  0  0  0  0  0
   -3.8308    3.2058    1.1706 C   0  0  0  0  0  0  0  0  0  0  0  0
   -4.2650    3.9389    1.8660 H   0  0  0  0  0  0  0  0  0  0  0  0
   -4.4954    2.9360   -0.0566 C   0  0  0  0  0  0  0  0  0  0  0  0
   -3.9620    2.0214   -0.9479 C   0  0  0  0  0  0  0  0  0  0  0  0
   -4.4779    1.8236   -1.8997 H   0  0  0  0  0  0  0  0  0  0  0  0
   -2.7482    1.3250   -0.6566 C   0  0  0  0  0  0  0  0  0  0  0  0
   -2.2576    0.4207   -1.6403 C   0  0  0  0  0  3  0  0  0  0  0  0
   -2.8387    0.3700   -2.5807 H   0  0  0  0  0  0  0  0  0  0  0  0
   -0.7308   -1.1622   -2.5634 C   0  0  0  0  0  0  0  0  0  0  0  0
   -1.2885   -1.3246   -3.8370 C   0  0  0  0  0  0  0  0  0  0  0  0
   -2.1875   -0.7655   -4.1306 H   0  0  0  0  0  0  0  0  0  0  0  0
   -0.6991   -2.2147   -4.7679 C   0  0  0  0  0  0  0  0  0  0  0  0
   -1.1580   -2.3200   -5.7625 H   0  0  0  0  0  0  0  0  0  0  0  0
    0.4348   -2.9546   -4.4510 C   0  0  0  0  0  3  0  0  0  0  0  0
    0.8793   -3.6475   -5.1807 H   0  0  0  0  0  0  0  0  0  0  0  0
    1.0362   -2.8167   -3.1672 C   0  0  0  0  0  0  0  0  0  0  0  0
    2.1912   -3.5335   -2.7377 C   0  0  0  0  0  0  0  0  0  0  0  0
    2.6761   -4.2454   -3.4224 H   0  0  0  0  0  0  0  0  0  0  0  0
    2.6810   -3.3178   -1.4566 C   0  0  0  0  0  0  0  0  0  0  0  0
    3.5680   -3.8530   -1.0887 H   0  0  0  0  0  0  0  0  0  0  0  0
    2.0460   -2.3854   -0.6042 C   0  0  0  0  0  0  0  0  0  0  0  0
    2.4286   -2.1851    0.4065 H   0  0  0  0  0  0  0  0  0  0  0  0
    0.4488   -1.9026   -2.2394 C   0  0  0  0  0  0  0  0  0  0  0  0
  1 10  1  0  0  0  0
  4 28  1  0  0  0  0
  5  2  1  0  0  0  0
  5  6  1  0  0  0  0
  6  7  1  0  0  0  0
  8  6  2  0  0  0  0
  8  9  1  0  0  0  0
 10  8  1  0  0  0  0
 11 13  1  0  0  0  0
 11 10  2  0  0  0  0
 12 11  1  0  0  0  0
 13  5  2  0  0  0  0
 14  3  1  0  0  0  0
 14 13  1  0  0  0  0
 15 14  1  0  0  0  0
 16 30  2  0  0  0  0
 16  3  1  0  0  0  0
 17 16  1  0  0  0  0
 18 17  1  0  0  0  0
 19 21  1  0  0  0  0
 19 17  2  0  0  0  0
 20 19  1  0  0  0  0
 21 23  1  0  0  0  0
 22 21  1  0  0  0  0
 23 24  2  0  0  0  0
 23 30  1  0  0  0  0
 24 26  1  0  0  0  0
 25 24  1  0  0  0  0
 26 27  1  0  0  0  0
 26 28  2  0  0  0  0
 28 29  1  0  0  0  0
 30  4  1  0  0  0  0
M  CHG  1   2  -1
M  END
