1,3,5
q = -1.0, confidence = 0.05

 33 34  0  0  1  0  0  0  0  0999 V2000
    0.5967    1.4616    2.3381 O   0  5  0  0  0  0  0  0  0  0  0  0
    2.4003    2.1706    3.4807 O   0  0  0  0  0  0  0  0  0  0  0  0
   -0.2361   -1.3157   -0.0256 N   0  0  0  0  0  2  0  0  0  0  0  0
   -0.7814   -3.0876   -1.1925 N   0  0  0  0  0  0  0  0  0  0  0  0
    1.7467   -0.4880    1.2084 N   0  0  0  0  0  2  0  0  0  0  0  0
   -1.2216   -1.8925   -0.6970 C   0  0  0  0  0  3  0  0  0  0  0  0
    0.5394   -3.2990   -0.8210 C   0  0  0  0  0  0  0  0  0  0  0  0
    1.3140   -4.5196   -1.1771 C   0  0  0  0  0  0  0  0  0  0  0  0
    0.8747   -2.1688   -0.0721 C   0  0  0  0  0  0  0  0  0  0  0  0
    2.0084   -1.6525    0.6439 C   0  0  0  0  0  3  0  0  0  0  0  0
    2.6911    0.3710    1.8790 C   0  0  2  0  0  0  0  0  0  0  0  0
    1.8645    1.4156    2.6812 C   0  0  0  0  0  0  0  0  0  0  0  0
    3.5504    1.1753    0.8577 C   0  0  0  0  0  0  0  0  0  0  0  0
    4.3454    0.3141   -0.0865 C   0  0  0  0  0  0  0  0  0  0  0  0
    3.7587   -0.1608   -1.2812 C   0  0  0  0  0  0  0  0  0  0  0  0
    4.4683   -1.0123   -2.1425 C   0  0  0  0  0  0  0  0  0  0  0  0
    5.7759   -1.4104   -1.8212 C   0  0  0  0  0  0  0  0  0  0  0  0
    6.3689   -0.9489   -0.6341 C   0  0  0  0  0  0  0  0  0  0  0  0
    5.6583   -0.0955    0.2238 C   0  0  0  0  0  0  0  0  0  0  0  0
   -1.3496   -3.7214   -1.7551 H   0  0  0  0  0  0  0  0  0  0  0  0
   -2.2339   -1.5011   -0.8363 H   0  0  0  0  0  0  0  0  0  0  0  0
    2.3816   -4.3752   -0.9274 H   0  0  0  0  0  0  0  0  0  0  0  0
    1.2530   -4.7468   -2.2623 H   0  0  0  0  0  0  0  0  0  0  0  0
    0.9590   -5.4179   -0.6268 H   0  0  0  0  0  0  0  0  0  0  0  0
    2.9942   -2.1390    0.7020 H   0  0  0  0  0  0  0  0  0  0  0  0
    3.3620   -0.2027    2.5554 H   0  0  0  0  0  0  0  0  0  0  0  0
    2.8473    1.8167    0.2900 H   0  0  0  0  0  0  0  0  0  0  0  0
    4.2055    1.8301    1.4658 H   0  0  0  0  0  0  0  0  0  0  0  0
    2.7212    0.1276   -1.5104 H   0  0  0  0  0  0  0  0  0  0  0  0
    3.9938   -1.3722   -3.0689 H   0  0  0  0  0  0  0  0  0  0  0  0
    6.3350   -2.0773   -2.4954 H   0  0  0  0  0  0  0  0  0  0  0  0
    7.3951   -1.2534   -0.3766 H   0  0  0  0  0  0  0  0  0  0  0  0
    6.1284    0.2651    1.1529 H   0  0  0  0  0  0  0  0  0  0  0  0
  1 12  1  0  0  0  0
  4  7  1  0  0  0  0
  4  6  1  0  0  0  0
  5 11  1  0  0  0  0
  6  3  1  0  0  0  0
  7  9  2  0  0  0  0
  8 22  1  0  0  0  0
  8  7  1  0  0  0  0
  8 24  1  0  0  0  0
  9  3  1  0  0  0  0
  9 10  1  0  0  0  0
 10 25  1  0  0  0  0
 10  5  1  0  0  0  0
 11 26  1  1  0  0  0
 11 12  1  0  0  0  0
 12  2  2  0  0  0  0
 13 28  1  0  0  0  0
 13 11  1  0  0  0  0
 14 19  1  0  0  0  0
 14 13  1  0  0  0  0
 15 14  2  0  0  0  0
 16 17  2  0  0  0  0
 16 15  1  0  0  0  0
 17 18  1  0  0  0  0
 18 32  1  0  0  0  0
 18 19  2  0  0  0  0
 19 33  1  0  0  0  0
 20  4  1  0  0  0  0
 21  6  1  0  0  0  0
 23  8  1  0  0  0  0
 27 13  1  0  0  0  0
 29 15  1  0  0  0  0
 30 16  1  0  0  0  0
 31 17  1  0  0  0  0
M  CHG  1   1  -1
M  END
