1,2,3
q = -1.0, confidence = 0.106

 46 49  0  0  0  0  0  0  0  0999 V2000
    2.3930    1.3187    0.3393 O   0  5  0  0  0  0  0  0  0  0  0  0
    0.8393   -0.8659   -1.0449 N   0  0  0  0  0  0  0  0  0  0  0  0
   -1.3086    0.8203   -1.1348 N   0  0  0  0  0  2  0  0  0  0  0  0
   -2.9439   -2.7142    0.6184 N   0  0  0  0  0  0  0  0  0  0  0  0
   -2.4020    1.5458   -0.8085 C   0  0  0  0  0  3  0  0  0  0  0  0
   -3.6839    1.1340   -1.1806 C   0  0  0  0  0  0  0  0  0  0  0  0
   -3.8372   -0.0563   -1.9081 C   0  0  0  0  0  0  0  0  0  0  0  0
   -2.6977   -0.8010   -2.2411 C   0  0  0  0  0  0  0  0  0  0  0  0
   -1.4390   -0.3405   -1.8365 C   0  0  0  0  0  0  0  0  0  0  0  0
   -0.1348   -1.0167   -2.1615 C   0  0  0  0  0  0  0  0  0  0  0  0
    2.2473   -0.9552   -1.5496 C   0  0  0  0  0  0  0  0  0  0  0  0
    3.2758   -0.8145   -0.4667 C   0  0  0  0  0  0  0  0  0  0  0  0
    4.2716   -1.8000   -0.3144 C   0  0  0  0  0  0  0  0  0  0  0  0
    5.2935   -1.6773    0.6333 C   0  0  0  0  0  0  0  0  0  0  0  0
    5.3149   -0.5340    1.4565 C   0  0  0  0  0  0  0  0  0  0  0  0
    4.3326    0.4489    1.3396 C   0  0  0  0  0  0  0  0  0  0  0  0
    3.2794    0.3429    0.3823 C   0  0  0  0  0  0  0  0  0  0  0  0
    0.6191   -1.8925    0.0435 C   0  0  0  0  0  0  0  0  0  0  0  0
   -0.7946   -2.0105    0.5017 C   0  0  0  0  0  0  0  0  0  0  0  0
   -1.6975   -2.9875    0.0966 C   0  0  0  0  0  0  0  0  0  0  0  0
   -2.8853   -1.5602    1.3828 C   0  0  0  0  0  0  0  0  0  0  0  0
   -3.8976   -0.8703    2.0729 C   0  0  0  0  0  0  0  0  0  0  0  0
   -3.5302    0.2994    2.7475 C   0  0  0  0  0  0  0  0  0  0  0  0
   -2.1890    0.7567    2.7541 C   0  0  0  0  0  0  0  0  0  0  0  0
   -1.1836    0.0643    2.0741 C   0  0  0  0  0  0  0  0  0  0  0  0
   -1.5294   -1.1017    1.3548 C   0  0  0  0  0  0  0  0  0  0  0  0
   -3.7730   -3.2918    0.4939 H   0  0  0  0  0  0  0  0  0  0  0  0
   -2.1871    2.4652   -0.2400 H   0  0  0  0  0  0  0  0  0  0  0  0
   -4.5503    1.7450   -0.8921 H   0  0  0  0  0  0  0  0  0  0  0  0
   -4.8363   -0.4046   -2.2097 H   0  0  0  0  0  0  0  0  0  0  0  0
   -2.7750   -1.7444   -2.8000 H   0  0  0  0  0  0  0  0  0  0  0  0
    0.3179   -0.5091   -3.0405 H   0  0  0  0  0  0  0  0  0  0  0  0
   -0.2841   -2.0868   -2.4265 H   0  0  0  0  0  0  0  0  0  0  0  0
    2.3818   -1.9345   -2.0651 H   0  0  0  0  0  0  0  0  0  0  0  0
    2.3425   -0.1496   -2.3107 H   0  0  0  0  0  0  0  0  0  0  0  0
    4.2398   -2.6840   -0.9734 H   0  0  0  0  0  0  0  0  0  0  0  0
    6.0614   -2.4580    0.7315 H   0  0  0  0  0  0  0  0  0  0  0  0
    6.1094   -0.4141    2.2101 H   0  0  0  0  0  0  0  0  0  0  0  0
    4.3333    1.3419    1.9815 H   0  0  0  0  0  0  0  0  0  0  0  0
    0.9725   -2.8712   -0.3549 H   0  0  0  0  0  0  0  0  0  0  0  0
    1.3046   -1.6136    0.8666 H   0  0  0  0  0  0  0  0  0  0  0  0
   -1.5348   -3.8626   -0.5441 H   0  0  0  0  0  0  0  0  0  0  0  0
   -4.9372   -1.2310    2.0783 H   0  0  0  0  0  0  0  0  0  0  0  0
   -4.2978    0.8702    3.2916 H   0  0  0  0  0  0  0  0  0  0  0  0
   -1.9323    1.6782    3.2964 H   0  0  0  0  0  0  0  0  0  0  0  0
   -0.1468    0.4324    2.0857 H   0  0  0  0  0  0  0  0  0  0  0  0
  1 17  1  0  0  0  0
  2 18  1  0  0  0  0
  3  5  1  0  0  0  0
  4 21  1  0  0  0  0
  5 28  1  0  0  0  0
  6 29  1  0  0  0  0
  6  5  1  0  0  0  0
  7  6  2  0  0  0  0
  8  7  1  0  0  0  0
  8  9  2  0  0  0  0
  9  3  1  0  0  0  0
 10  9  1  0  0  0  0
 10  2  1  0  0  0  0
 11  2  1  0  0  0  0
 11 12  1  0  0  0  0
 12 13  2  0  0  0  0
 12 17  1  0  0  0  0
 13 14  1  0  0  0  0
 14 37  1  0  0  0  0
 14 15  2  0  0  0  0
 15 38  1  0  0  0  0
 16 15  1  0  0  0  0
 16 39  1  0  0  0  0
 17 16  2  0  0  0  0
 18 19  1  0  0  0  0
 18 41  1  0  0  0  0
 19 26  1  0  0  0  0
 20 19  2  0  0  0  0
 20  4  1  0  0  0  0
 21 22  1  0  0  0  0
 22 43  1  0  0  0  0
 22 23  2  0  0  0  0
 23 24  1  0  0  0  0
 23 44  1  0  0  0  0
 24 45  1  0  0  0  0
 25 46  1  0  0  0  0
 25 24  2  0  0  0  0
 26 21  2  0  0  0  0
 26 25  1  0  0  0  0
 27  4  1  0  0  0  0
 30  7  1  0  0  0  0
 31  8  1  0  0  0  0
 32 10  1  0  0  0  0
 33 10  1  0  0  0  0
 34 11  1  0  0  0  0
 35 11  1  0  0  0  0
 36 13  1  0  0  0  0
 40 18  1  0  0  0  0
 42 20  1  0  0  0  0
M  CHG  1   1  -1
M  END
