1,2,3
q = -1.0

 49 52  0  0  1  0  0  0  0  0999 V2000
    2.0670    0.1420   -1.3891 O   0  5  0  0  0  0  0  0  0  0  0  0
    0.8889   -0.9289    1.1676 N   0  0  0  0  0  0  0  0  0  0  0  0
   -1.6254   -1.1733   -0.4819 N   0  0  0  0  0  2  0  0  0  0  0  0
   -2.5324    1.7032    2.5164 N   0  0  0  0  0  0  0  0  0  0  0  0
   -1.4224    0.9893    2.9193 C   0  0  0  0  0  0  0  0  0  0  0  0
   -0.4325    1.0669    1.9449 C   0  0  0  0  0  0  0  0  0  0  0  0
   -0.9676    1.9000    0.8869 C   0  0  0  0  0  0  0  0  0  0  0  0
   -0.4630    2.3562   -0.3539 C   0  0  0  0  0  0  0  0  0  0  0  0
   -1.2960    3.1212   -1.1757 C   0  0  0  0  0  0  0  0  0  0  0  0
   -2.6172    3.4517   -0.7833 C   0  0  0  0  0  0  0  0  0  0  0  0
   -3.1349    3.0383    0.4492 C   0  0  0  0  0  0  0  0  0  0  0  0
   -2.2969    2.2650    1.2728 C   0  0  0  0  0  0  0  0  0  0  0  0
    0.8839    0.3637    1.9548 C   0  0  0  0  0  0  0  0  0  0  0  0
    3.1394    0.2232   -0.6296 C   0  0  0  0  0  0  0  0  0  0  0  0
    3.3221   -0.4948    0.5944 C   0  0  0  0  0  0  0  0  0  0  0  0
    4.5008   -0.3123    1.3456 C   0  0  0  0  0  0  0  0  0  0  0  0
    5.5239    0.5412    0.9176 C   0  0  0  0  0  0  0  0  0  0  0  0
    5.3557    1.2390   -0.2949 C   0  0  0  0  0  0  0  0  0  0  0  0
    4.1919    1.0907   -1.0492 C   0  0  0  0  0  0  0  0  0  0  0  0
    2.2889   -1.4734    1.0653 C   0  0  0  0  0  0  0  0  0  0  0  0
   -1.8670   -2.2823    0.2617 C   0  0  2  0  0  3  0  0  0  0  0  0
   -3.1821   -2.7144    0.4937 C   0  0  0  0  0  0  0  0  0  0  0  0
   -4.2556   -1.9821   -0.0316 C   0  0  0  0  0  0  0  0  0  0  0  0
   -3.9838   -0.8236   -0.7718 C   0  0  0  0  0  0  0  0  0  0  0  0
   -2.6544   -0.4513   -0.9879 C   0  0  0  0  0  0  0  0  0  0  0  0
   -0.6676   -2.9327    0.8933 C   0  0  0  0  0  0  0  0  0  0  0  0
    0.0290   -1.9416    1.8399 C   0  0  0  0  0  0  0  0  0  0  0  0
   -1.4060    0.4819    3.8916 H   0  0  0  0  0  0  0  0  0  0  0  0
    0.5574    2.1051   -0.6795 H   0  0  0  0  0  0  0  0  0  0  0  0
   -0.9203    3.4595   -2.1521 H   0  0  0  0  0  0  0  0  0  0  0  0
   -3.2463    4.0523   -1.4576 H   0  0  0  0  0  0  0  0  0  0  0  0
   -4.1568    3.3043    0.7590 H   0  0  0  0  0  0  0  0  0  0  0  0
   -3.3843    1.8212    3.0609 H   0  0  0  0  0  0  0  0  0  0  0  0
    1.2035    0.1300    2.9960 H   0  0  0  0  0  0  0  0  0  0  0  0
    1.6786    0.9925    1.5093 H   0  0  0  0  0  0  0  0  0  0  0  0
    4.6126   -0.8687    2.2916 H   0  0  0  0  0  0  0  0  0  0  0  0
    6.4366    0.6647    1.5182 H   0  0  0  0  0  0  0  0  0  0  0  0
    6.1465    1.9172   -0.6530 H   0  0  0  0  0  0  0  0  0  0  0  0
    4.0452    1.6336   -1.9943 H   0  0  0  0  0  0  0  0  0  0  0  0
    2.5873   -1.8465    2.0716 H   0  0  0  0  0  0  0  0  0  0  0  0
    2.2197   -2.3544    0.3900 H   0  0  0  0  0  0  0  0  0  0  0  0
   -3.3512   -3.6232    1.0890 H   0  0  0  0  0  0  0  0  0  0  0  0
   -5.2914   -2.3105    0.1415 H   0  0  0  0  0  0  0  0  0  0  0  0
   -4.7881   -0.2041   -1.1923 H   0  0  0  0  0  0  0  0  0  0  0  0
   -2.3738    0.4292   -1.5823 H   0  0  0  0  0  0  0  0  0  0  0  0
   -0.9904   -3.8175    1.4767 H   0  0  0  0  0  0  0  0  0  0  0  0
    0.0383   -3.2853    0.1110 H   0  0  0  0  0  0  0  0  0  0  0  0
   -0.7535   -1.3991    2.4041 H   0  0  0  0  0  0  0  0  0  0  0  0
    0.6502   -2.4930    2.5788 H   0  0  0  0  0  0  0  0  0  0  0  0
  1 14  1  0  0  0  0
  2 27  1  0  0  0  0
  2 13  1  0  0  0  0
  3 21  1  0  0  0  0
  4  5  1  0  0  0  0
  4 33  1  0  0  0  0
  5 28  1  0  0  0  0
  6 13  1  0  0  0  0
  6  5  2  0  0  0  0
  7 12  1  0  0  0  0
  7  6  1  0  0  0  0
  8  7  2  0  0  0  0
  9 10  2  0  0  0  0
  9  8  1  0  0  0  0
 10 11  1  0  0  0  0
 11 32  1  0  0  0  0
 11 12  2  0  0  0  0
 12  4  1  0  0  0  0
 13 34  1  0  0  0  0
 14 15  1  0  0  0  0
 15 20  1  0  0  0  0
 15 16  2  0  0  0  0
 16 36  1  0  0  0  0
 17 16  1  0  0  0  0
 17 37  1  0  0  0  0
 18 17  2  0  0  0  0
 19 14  2  0  0  0  0
 19 18  1  0  0  0  0
 20  2  1  0  0  0  0
 20 40  1  0  0  0  0
 21 22  1  0  0  0  0
 21 26  1  1  0  0  0
 22 42  1  0  0  0  0
 23 43  1  0  0  0  0
 23 22  2  0  0  0  0
 24 23  1  0  0  0  0
 25 24  2  0  0  0  0
 25  3  1  0  0  0  0
 26 46  1  0  0  0  0
 26 27  1  0  0  0  0
 27 48  1  0  0  0  0
 27 49  1  0  0  0  0
 29  8  1  0  0  0  0
 30  9  1  0  0  0  0
 31 10  1  0  0  0  0
 35 13  1  0  0  0  0
 38 18  1  0  0  0  0
 39 19  1  0  0  0  0
 41 20  1  0  0  0  0
 44 24  1  0  0  0  0
 45 25  1  0  0  0  0
 47 26  1  0  0  0  0
M  CHG  1   1  -1
M  END
