2,5,6
q = -1.0, confidence = 0.164

 28 28  0  0  1  0  0  0  0  0999 V2000
   -0.7010   -3.6411   -0.7751 O   0  0  0  0  0  0  0  0  0  0  0  0
   -0.4886    0.3023    1.9525 O   0  5  0  0  0  0  0  0  0  0  0  0
    0.4738   -0.9105    3.5634 O   0  0  0  0  0  0  0  0  0  0  0  0
    5.1981    0.0795   -1.3793 O   0  0  0  0  0  0  0  0  0  0  0  0
   -1.5268   -0.2746   -1.8766 N   0  0  0  0  0  0  0  0  0  0  0  0
   -0.3402   -1.5587    0.1444 N   0  0  0  0  0  2  0  0  0  0  0  0
   -1.1412   -1.6773   -2.1311 C   0  0  0  0  0  0  0  0  0  0  0  0
   -0.7230   -2.4046   -0.8365 C   0  0  0  0  0  0  0  0  0  0  0  0
    0.0000   -2.0220    1.4560 C   0  0  2  0  0  0  0  0  0  0  0  0
    0.0243   -0.8083    2.4234 C   0  0  0  0  0  0  0  0  0  0  0  0
    1.3527   -2.7975    1.5458 C   0  0  0  0  0  0  0  0  0  0  0  0
    2.4857   -2.1199    0.8563 C   0  0  2  0  0  3  0  0  0  0  0  0
    3.0879   -0.9455    1.3984 C   0  0  0  0  0  0  0  0  0  0  0  0
    4.0378   -0.2342    0.6863 C   0  0  0  0  0  0  0  0  0  0  0  0
    4.4611   -0.6420   -0.6513 C   0  0  0  0  0  0  0  0  0  0  0  0
    3.9137   -1.9124   -1.1234 C   0  0  0  0  0  0  0  0  0  0  0  0
    2.9503   -2.5970   -0.4028 C   0  0  0  0  0  0  0  0  0  0  0  0
   -1.1687    0.3620   -2.5978 H   0  0  0  0  0  0  0  0  0  0  0  0
   -2.5521   -0.1735   -1.8519 H   0  0  0  0  0  0  0  0  0  0  0  0
   -0.2729   -1.7039   -2.8201 H   0  0  0  0  0  0  0  0  0  0  0  0
   -1.9571   -2.2568   -2.6069 H   0  0  0  0  0  0  0  0  0  0  0  0
   -0.7857   -2.7154    1.8471 H   0  0  0  0  0  0  0  0  0  0  0  0
    1.1887   -3.8085    1.1275 H   0  0  0  0  0  0  0  0  0  0  0  0
    1.5347   -2.8579    2.6439 H   0  0  0  0  0  0  0  0  0  0  0  0
    2.7659   -0.6019    2.3941 H   0  0  0  0  0  0  0  0  0  0  0  0
    4.4869    0.6853    1.0913 H   0  0  0  0  0  0  0  0  0  0  0  0
    4.2575   -2.2624   -2.1092 H   0  0  0  0  0  0  0  0  0  0  0  0
    2.4987   -3.5169   -0.8096 H   0  0  0  0  0  0  0  0  0  0  0  0
  2 10  1  0  0  0  0
  4 15  2  0  0  0  0
  5 19  1  0  0  0  0
  6  9  1  0  0  0  0
  7  5  1  0  0  0  0
  7  8  1  0  0  0  0
  8  1  2  0  0  0  0
  8  6  1  0  0  0  0
  9 11  1  0  0  0  0
  9 22  1  1  0  0  0
  9 10  1  0  0  0  0
 10  3  2  0  0  0  0
 11 24  1  0  0  0  0
 12 13  1  0  0  0  0
 12 11  1  6  0  0  0
 13 25  1  0  0  0  0
 14 26  1  0  0  0  0
 14 13  2  0  0  0  0
 15 14  1  0  0  0  0
 16 15  1  0  0  0  0
 16 17  2  0  0  0  0
 17 12  1  0  0  0  0
 18  5  1  0  0  0  0
 20  7  1  0  0  0  0
 21  7  1  0  0  0  0
 23 11  1  0  0  0  0
 27 16  1  0  0  0  0
 28 17  1  0  0  0  0
M  CHG  1   2  -1
M  END
