1,2,7
q = -1.0, confidence = 0.004

 40 42  0  0  1  0  0  0  0  0999 V2000
   -3.2462    0.9456   -0.0280 N   0  0  0  0  0  2  0  0  0  0  0  0
   -1.0433    1.4177   -0.0621 N   0  0  0  0  0  2  0  0  0  0  0  0
    1.3396    1.4961   -0.0409 N   0  0  0  0  0  0  0  0  0  0  0  0
    2.8715   -0.2605   -0.0788 N   0  0  0  0  0  0  0  0  0  0  0  0
    3.5496    0.5059   -0.0643 H   0  0  0  0  0  0  0  0  0  0  0  0
    0.1318    3.4362   -0.1029 O   0  0  0  0  0  0  0  0  0  0  0  0
    0.6391   -0.7284   -0.0735 O   0  0  0  0  0  1  0  0  0  0  0  0
   -2.3174    1.9477   -0.0743 C   0  0  2  0  0  3  0  0  0  0  0  0
   -2.7287    3.3070   -0.1242 C   0  0  0  0  0  0  0  0  0  0  0  0
   -1.9618    4.0888   -0.1594 H   0  0  0  0  0  0  0  0  0  0  0  0
   -4.0970    3.5846   -0.1243 C   0  0  0  0  0  0  0  0  0  0  0  0
   -4.4366    4.6316   -0.1629 H   0  0  0  0  0  0  0  0  0  0  0  0
   -5.0403    2.5397   -0.0751 C   0  0  0  0  0  0  0  0  0  0  0  0
   -6.1214    2.7360   -0.0735 H   0  0  0  0  0  0  0  0  0  0  0  0
   -4.5568    1.2288   -0.0281 C   0  0  0  0  0  0  0  0  0  0  0  0
   -5.2403    0.3639    0.0133 H   0  0  0  0  0  0  0  0  0  0  0  0
    0.0506    2.2073   -0.0744 C   0  0  0  0  0  0  0  0  0  0  0  0
    2.4804    2.3795   -0.0064 C   0  0  0  0  0  0  0  0  0  0  0  0
    3.0573    2.7231    1.2287 C   0  0  0  0  0  0  0  0  0  0  0  0
    2.6057    2.3400    2.1555 H   0  0  0  0  0  0  0  0  0  0  0  0
    4.1902    3.5494    1.2609 C   0  0  0  0  0  0  0  0  0  0  0  0
    4.6402    3.8210    2.2275 H   0  0  0  0  0  0  0  0  0  0  0  0
    4.7426    4.0335    0.0642 C   0  0  0  0  0  0  0  0  0  0  0  0
    5.6300    4.6835    0.0915 H   0  0  0  0  0  0  0  0  0  0  0  0
    4.1603    3.6922   -1.1677 C   0  0  0  0  0  0  0  0  0  0  0  0
    4.5874    4.0765   -2.1060 H   0  0  0  0  0  0  0  0  0  0  0  0
    3.0293    2.8647   -1.2062 C   0  0  0  0  0  0  0  0  0  0  0  0
    2.5557    2.5918   -2.1604 H   0  0  0  0  0  0  0  0  0  0  0  0
    1.5521    0.1218   -0.0635 C   0  0  2  0  0  3  0  0  0  0  0  0
    3.4292   -1.5546   -0.0783 C   0  0  0  0  0  0  0  0  0  0  0  0
    4.8394   -1.6294   -0.0061 C   0  0  0  0  0  0  0  0  0  0  0  0
    5.4282   -0.6994    0.0501 H   0  0  0  0  0  0  0  0  0  0  0  0
    5.4879   -2.8687   -0.0035 C   0  0  0  0  0  0  0  0  0  0  0  0
    6.5863   -2.9029    0.0533 H   0  0  0  0  0  0  0  0  0  0  0  0
    4.7439   -4.0576   -0.0711 C   0  0  0  0  0  0  0  0  0  0  0  0
    5.2517   -5.0332   -0.0680 H   0  0  0  0  0  0  0  0  0  0  0  0
    3.3451   -3.9833   -0.1436 C   0  0  0  0  0  0  0  0  0  0  0  0
    2.7479   -4.9063   -0.1993 H   0  0  0  0  0  0  0  0  0  0  0  0
    2.6786   -2.7492   -0.1494 C   0  0  0  0  0  0  0  0  0  0  0  0
    1.5868   -2.7033   -0.2108 H   0  0  0  0  0  0  0  0  0  0  0  0
  3 18  1  0  0  0  0
  4 30  1  0  0  0  0
  4  5  1  0  0  0  0
  4 29  1  0  0  0  0
  6 17  2  0  0  0  0
  8  2  1  1  0  0  0
  8  1  1  0  0  0  0
  9  8  1  0  0  0  0
 10  9  1  0  0  0  0
 11  9  2  0  0  0  0
 11 13  1  0  0  0  0
 12 11  1  0  0  0  0
 13 14  1  0  0  0  0
 13 15  2  0  0  0  0
 15  1  1  0  0  0  0
 15 16  1  0  0  0  0
 17  2  1  0  0  0  0
 17  3  1  0  0  0  0
 18 19  1  0  0  0  0
 19 21  2  0  0  0  0
 19 20  1  0  0  0  0
 21 22  1  0  0  0  0
 23 24  1  0  0  0  0
 23 21  1  0  0  0  0
 25 23  2  0  0  0  0
 26 25  1  0  0  0  0
 27 25  1  0  0  0  0
 27 18  2  0  0  0  0
 28 27  1  0  0  0  0
 29  7  1  6  0  0  0
 29  3  1  0  0  0  0
 30 31  1  0  0  0  0
 31 33  2  0  0  0  0
 31 32  1  0  0  0  0
 33 34  1  0  0  0  0
 35 36  1  0  0  0  0
 35 33  1  0  0  0  0
 37 35  2  0  0  0  0
 38 37  1  0  0  0  0
 39 37  1  0  0  0  0
 39 30  2  0  0  0  0
 40 39  1  0  0  0  0
M  END
