1,7,10
q = 0.0, confidence = 0.936

 45 47  0  0  1  0  0  0  0  0999 V2000
    2.1487    1.2079   -1.4938 O   0  5  0  0  0  0  0  0  0  0  0  0
    6.3570    0.7537    0.3677 O   0  0  0  0  0  0  0  0  0  0  0  0
   -2.5530   -2.2437    1.1969 O   0  0  0  0  0  0  0  0  0  0  0  0
   -2.2699   -1.6522   -1.0093 N   0  0  0  0  0  0  0  0  0  0  0  0
    3.3869   -2.8471    0.6394 N   0  0  0  0  0  0  0  0  0  0  0  0
    4.2912    0.9912   -0.6292 N   0  0  0  0  0  0  0  0  0  0  0  0
   -0.9022   -1.6945   -0.9406 N   0  0  0  0  0  2  0  0  0  0  0  0
    4.9259   -1.0478    0.4863 N   0  0  0  0  0  0  0  0  0  0  0  0
    2.7348   -0.7977   -0.4074 C   0  0  0  0  0  0  0  0  0  0  0  0
    1.4805   -1.2503   -0.6107 N   0  0  0  0  0  2  0  0  0  0  0  0
   -4.4697   -1.4018    0.0204 C   0  0  0  0  0  0  0  0  0  0  0  0
    2.1510   -3.3291    0.3858 C   0  0  0  0  0  0  0  0  0  0  0  0
    3.0124    0.5269   -0.8921 C   0  0  0  0  0  0  0  0  0  0  0  0
    1.1419   -2.5382   -0.2473 C   0  0  0  0  0  0  0  0  0  0  0  0
   -5.0142   -0.7731   -1.1203 C   0  0  0  0  0  0  0  0  0  0  0  0
   -4.3913   -0.5294   -1.9942 H   0  0  0  0  0  0  0  0  0  0  0  0
    5.9102   -1.8318    1.2289 C   0  0  0  0  0  0  0  0  0  0  0  0
    5.5395   -2.0298    2.2541 H   0  0  0  0  0  0  0  0  0  0  0  0
    6.8441   -1.2470    1.2645 H   0  0  0  0  0  0  0  0  0  0  0  0
    6.0690   -2.8045    0.7274 H   0  0  0  0  0  0  0  0  0  0  0  0
    3.6758   -1.5958    0.2445 C   0  0  0  0  0  0  0  0  0  0  0  0
    5.2692    0.2633    0.1006 C   0  0  0  0  0  0  0  0  0  0  0  0
   -0.2681   -2.7967   -0.4962 C   0  0  2  0  0  3  0  0  0  0  0  0
   -7.1850   -0.6625   -0.0261 C   0  0  0  0  0  0  0  0  0  0  0  0
   -8.2466   -0.3720   -0.0465 H   0  0  0  0  0  0  0  0  0  0  0  0
   -3.0328   -1.7982    0.1533 C   0  0  0  0  0  0  0  0  0  0  0  0
   -0.9731   -4.1014   -0.3192 C   0  0  0  0  0  0  0  0  0  0  0  0
   -1.2700   -4.2764    0.7347 H   0  0  0  0  0  0  0  0  0  0  0  0
   -0.3403   -4.9382   -0.6663 H   0  0  0  0  0  0  0  0  0  0  0  0
   -1.9014   -4.0972   -0.9213 H   0  0  0  0  0  0  0  0  0  0  0  0
    4.6191    2.3453   -1.0725 C   0  0  0  0  0  0  0  0  0  0  0  0
    4.4492    2.4273   -2.1628 H   0  0  0  0  0  0  0  0  0  0  0  0
    5.6745    2.5379   -0.8199 H   0  0  0  0  0  0  0  0  0  0  0  0
    3.9586    3.0782   -0.5677 H   0  0  0  0  0  0  0  0  0  0  0  0
    1.9044   -4.7390    0.8476 C   0  0  0  0  0  0  0  0  0  0  0  0
    1.7325   -5.4234   -0.0081 H   0  0  0  0  0  0  0  0  0  0  0  0
    1.0161   -4.8074    1.5057 H   0  0  0  0  0  0  0  0  0  0  0  0
    2.7954   -5.0866    1.3997 H   0  0  0  0  0  0  0  0  0  0  0  0
   -6.6474   -1.2884    1.1104 C   0  0  0  0  0  0  0  0  0  0  0  0
   -7.2855   -1.4891    1.9843 H   0  0  0  0  0  0  0  0  0  0  0  0
   -5.2962   -1.6526    1.1339 C   0  0  0  0  0  0  0  0  0  0  0  0
   -4.8406   -2.1298    2.0131 H   0  0  0  0  0  0  0  0  0  0  0  0
   -6.3658   -0.4049   -1.1380 C   0  0  0  0  0  0  0  0  0  0  0  0
   -6.7812    0.0923   -2.0273 H   0  0  0  0  0  0  0  0  0  0  0  0
   -2.5292   -0.9074   -1.6920 H   0  0  0  0  0  0  0  0  0  0  0  0
  1 13  1  0  0  0  0
  4  7  1  0  0  0  0
  4 26  1  0  0  0  0
  6 22  1  0  0  0  0
  8 17  1  0  0  0  0
  9 21  1  0  0  0  0
 10  9  1  0  0  0  0
 10 14  1  0  0  0  0
 11 26  1  0  0  0  0
 11 41  1  0  0  0  0
 12  5  1  0  0  0  0
 12 35  1  0  0  0  0
 13  6  1  0  0  0  0
 13  9  2  0  0  0  0
 14 12  2  0  0  0  0
 15 11  2  0  0  0  0
 16 15  1  0  0  0  0
 17 19  1  0  0  0  0
 17 18  1  0  0  0  0
 20 17  1  0  0  0  0
 21  8  1  0  0  0  0
 21  5  2  0  0  0  0
 22  2  2  0  0  0  0
 22  8  1  0  0  0  0
 23  7  1  6  0  0  0
 23 27  1  0  0  0  0
 23 14  1  0  0  0  0
 24 39  1  0  0  0  0
 25 24  1  0  0  0  0
 26  3  2  0  0  0  0
 27 28  1  0  0  0  0
 29 27  1  0  0  0  0
 30 27  1  0  0  0  0
 31 33  1  0  0  0  0
 31  6  1  0  0  0  0
 31 34  1  0  0  0  0
 32 31  1  0  0  0  0
 35 38  1  0  0  0  0
 35 37  1  0  0  0  0
 36 35  1  0  0  0  0
 39 41  2  0  0  0  0
 39 40  1  0  0  0  0
 41 42  1  0  0  0  0
 43 15  1  0  0  0  0
 43 24  2  0  0  0  0
 44 43  1  0  0  0  0
 45  4  1  0  0  0  0
M  CHG  1   1  -1
M  END
