1,7,8
q = -2.0, confidence = 0.91

 20 22  0  0  1  0  0  0  0  0999 V2000
   -0.5425   -1.8813   -0.0008 O   0  5  0  0  0  0  0  0  0  0  0  0
    1.2490    4.1085    0.0015 N   0  0  0  0  0  0  0  0  0  0  0  0
   -3.5811   -3.3537    0.0002 N   0  0  0  0  0  0  0  0  0  0  0  0
   -1.8214   -2.1477   -0.0003 N   0  0  0  0  0  0  0  0  0  0  0  0
   -4.0080   -2.0883    0.0002 N   0  0  0  0  0  0  0  0  0  0  0  0
    1.7153    2.8671    0.0012 N   0  0  0  0  0  2  0  0  0  0  0  0
   -1.7366    0.8189    0.0001 N   0  0  0  0  0  2  0  0  0  0  0  0
    0.6688    2.0238    0.0007 N   0  0  0  0  0  0  0  0  0  0  0  0
   -0.0948    4.1018    0.0012 N   0  0  0  0  0  0  0  0  0  0  0  0
   -2.2609   -3.4186   -0.0002 N   0  0  0  0  0  0  0  0  0  0  0  0
   -4.1533    0.8211   -0.0002 C   0  0  0  0  0  0  0  0  0  0  0  0
   -5.0709    0.2179   -0.0003 H   0  0  0  0  0  0  0  0  0  0  0  0
   -2.9112    0.1428   -0.0001 C   0  0  2  0  0  3  0  0  0  0  0  0
   -1.7530    2.1813    0.0003 C   0  0  0  0  0  0  0  0  0  0  0  0
   -0.4337    2.8025    0.0007 C   0  0  0  0  0  0  0  0  0  0  0  0
   -2.9077   -1.3101   -0.0002 C   0  0  0  0  0  0  0  0  0  0  0  0
   -2.9464    2.9189    0.0003 C   0  0  0  0  0  0  0  0  0  0  0  0
   -2.8890    4.0158    0.0005 H   0  0  0  0  0  0  0  0  0  0  0  0
   -4.1613    2.2175   -0.0000 C   0  0  0  0  0  0  0  0  0  0  0  0
   -5.1166    2.7636   -0.0001 H   0  0  0  0  0  0  0  0  0  0  0  0
  1  4  1  0  0  0  0
  3  5  1  0  0  0  0
  4 10  1  0  0  0  0
  4 16  1  0  0  0  0
  6  2  1  0  0  0  0
  7 14  1  0  0  0  0
  8  6  1  0  0  0  0
  9  2  2  0  0  0  0
 10  3  2  0  0  0  0
 11 13  1  0  0  0  0
 11 19  2  0  0  0  0
 12 11  1  0  0  0  0
 13 16  1  1  0  0  0
 13  7  1  0  0  0  0
 14 15  1  0  0  0  0
 15  8  2  0  0  0  0
 15  9  1  0  0  0  0
 16  5  2  0  0  0  0
 17 14  2  0  0  0  0
 17 18  1  0  0  0  0
 19 17  1  0  0  0  0
 20 19  1  0  0  0  0
M  CHG  1   1  -1
M  END
