1,2,4
q = -2.0, confidence = 0.688

 22 22  0  0  0  0  0  0  0  0999 V2000
    1.4381   -1.2875   -0.5374 O   0  5  0  0  0  0  0  0  0  0  0  0
   -2.3065   -1.1584   -0.2095 N   0  0  0  0  0  2  0  0  0  0  0  0
   -3.0348   -1.8709   -0.2871 H   0  0  0  0  0  0  0  0  0  0  0  0
   -0.4476    0.6550   -0.0414 N   0  0  0  0  0  2  0  0  0  0  0  0
   -5.2819    0.6422   -0.2240 N   0  0  0  0  0  0  0  0  0  0  0  0
   -2.2213    3.6850    0.0366 N   0  0  0  0  0  0  0  0  0  0  0  0
   -2.7235    0.1083   -0.1433 C   0  0  0  0  0  0  0  0  0  0  0  0
   -1.7482    1.1320   -0.0532 C   0  0  0  0  0  0  0  0  0  0  0  0
    0.5939    1.4447    0.0778 C   0  0  0  0  0  3  0  0  0  0  0  0
    0.4280    2.5347    0.2239 H   0  0  0  0  0  0  0  0  0  0  0  0
    1.9625    1.0100    0.0166 C   0  0  0  0  0  0  0  0  0  0  0  0
    2.9930    1.9670    0.2214 C   0  0  0  0  0  0  0  0  0  0  0  0
    2.6962    3.0026    0.4577 H   0  0  0  0  0  0  0  0  0  0  0  0
    4.3413    1.6280    0.1316 C   0  0  0  0  0  0  0  0  0  0  0  0
    5.1207    2.3861    0.3015 H   0  0  0  0  0  0  0  0  0  0  0  0
    4.6920    0.2947   -0.1840 C   0  0  0  0  0  0  0  0  0  0  0  0
    5.7545    0.0114   -0.2610 H   0  0  0  0  0  0  0  0  0  0  0  0
    3.7079   -0.6688   -0.3979 C   0  0  0  0  0  0  0  0  0  0  0  0
    3.9626   -1.7101   -0.6449 H   0  0  0  0  0  0  0  0  0  0  0  0
    2.3185   -0.3546   -0.3022 C   0  0  0  0  0  0  0  0  0  0  0  0
   -4.1262    0.4326   -0.1834 C   0  0  0  0  0  0  0  0  0  0  0  0
   -2.0543    2.5172   -0.0069 C   0  0  0  0  0  0  0  0  0  0  0  0
  1 20  1  0  0  0  0
  2  7  1  0  0  0  0
  3  2  1  0  0  0  0
  4  9  1  0  0  0  0
  5 21  3  0  0  0  0
  7  8  2  0  0  0  0
  8  4  1  0  0  0  0
  8 22  1  0  0  0  0
  9 10  1  0  0  0  0
 11  9  1  0  0  0  0
 11 12  1  0  0  0  0
 12 13  1  0  0  0  0
 14 12  2  0  0  0  0
 14 15  1  0  0  0  0
 16 14  1  0  0  0  0
 17 16  1  0  0  0  0
 18 20  1  0  0  0  0
 18 16  2  0  0  0  0
 19 18  1  0  0  0  0
 20 11  2  0  0  0  0
 21  7  1  0  0  0  0
 22  6  3  0  0  0  0
M  CHG  1   1  -1
M  END
