1,4,5
q = -1.0

 51 53  0  0  1  0  0  0  0  0999 V2000
    0.2679   -0.2227   -0.8026 O   0  5  0  0  0  0  0  0  0  0  0  0
    2.4447   -1.4062   -1.1577 O   0  0  0  0  0  0  0  0  0  0  0  0
    6.4220   -1.7784   -0.6424 O   0  0  0  0  0  0  0  0  0  0  0  0
   -3.5566   -0.9074    0.3309 N   0  0  0  0  0  2  0  0  0  0  0  0
   -2.0247    1.3450   -0.7430 N   0  0  0  0  0  2  0  0  0  0  0  0
   -3.8293   -1.6355    1.4372 C   0  0  0  0  0  3  0  0  0  0  0  0
   -5.1351   -1.7848    1.9130 C   0  0  0  0  0  0  0  0  0  0  0  0
   -6.1839   -1.1694    1.2166 C   0  0  0  0  0  0  0  0  0  0  0  0
   -5.8894   -0.4388    0.0574 C   0  0  0  0  0  0  0  0  0  0  0  0
   -4.5590   -0.3235   -0.3765 C   0  0  0  0  0  0  0  0  0  0  0  0
   -4.1691    0.4117   -1.6299 C   0  0  0  0  0  0  0  0  0  0  0  0
   -3.2907    1.6492   -1.4017 C   0  0  0  0  0  0  0  0  0  0  0  0
   -1.1197    2.2974   -0.5786 C   0  0  0  0  0  0  0  0  0  0  0  0
   -1.4213    3.6720   -1.1355 C   0  0  0  0  0  0  0  0  0  0  0  0
    0.1984    2.0580    0.0029 C   0  0  0  0  0  0  0  0  0  0  0  0
    0.8929    3.0812    0.7589 C   0  0  0  0  0  0  0  0  0  0  0  0
    0.1738    4.2824    1.3379 C   0  0  0  0  0  0  0  0  0  0  0  0
    2.2316    2.9114    1.0655 C   0  0  0  0  0  0  0  0  0  0  0  0
    2.9808    1.7759    0.6341 C   0  0  0  0  0  0  0  0  0  0  0  0
    4.3641    1.6433    0.8973 C   0  0  0  0  0  0  0  0  0  0  0  0
    5.0964    0.5171    0.5160 C   0  0  0  0  0  0  0  0  0  0  0  0
    6.5655    0.4880    0.8502 C   0  0  0  0  0  0  0  0  0  0  0  0
    4.4319   -0.5699   -0.1521 C   0  0  0  0  0  0  0  0  0  0  0  0
    5.1966   -1.8118   -0.5164 C   0  0  0  0  0  0  0  0  0  0  0  0
    4.4725   -3.1376   -0.6768 C   0  0  0  0  0  0  0  0  0  0  0  0
    3.0492   -0.4455   -0.4537 C   0  0  1  0  0  3  0  0  0  0  0  0
    2.3004    0.7181   -0.0462 C   0  0  0  0  0  0  0  0  0  0  0  0
    0.8816    0.8289   -0.2787 C   0  0  0  0  0  0  0  0  0  0  0  0
    1.4631   -1.1731   -1.1639 H   0  0  0  0  0  0  0  0  0  0  0  0
   -2.9569   -2.1191    1.9016 H   0  0  0  0  0  0  0  0  0  0  0  0
   -5.3164   -2.3821    2.8175 H   0  0  0  0  0  0  0  0  0  0  0  0
   -7.2231   -1.2650    1.5650 H   0  0  0  0  0  0  0  0  0  0  0  0
   -6.6878    0.0371   -0.5298 H   0  0  0  0  0  0  0  0  0  0  0  0
   -3.6235   -0.2955   -2.2918 H   0  0  0  0  0  0  0  0  0  0  0  0
   -5.0839    0.7311   -2.1663 H   0  0  0  0  0  0  0  0  0  0  0  0
   -3.8563    2.3981   -0.8020 H   0  0  0  0  0  0  0  0  0  0  0  0
   -3.1107    2.1191   -2.3945 H   0  0  0  0  0  0  0  0  0  0  0  0
   -0.5428    4.3326   -1.0937 H   0  0  0  0  0  0  0  0  0  0  0  0
   -2.2691    4.1652   -0.6158 H   0  0  0  0  0  0  0  0  0  0  0  0
   -1.7141    3.5776   -2.2020 H   0  0  0  0  0  0  0  0  0  0  0  0
   -0.8872    4.0639    1.5689 H   0  0  0  0  0  0  0  0  0  0  0  0
    0.1903    5.1666    0.6668 H   0  0  0  0  0  0  0  0  0  0  0  0
    0.6638    4.5937    2.2806 H   0  0  0  0  0  0  0  0  0  0  0  0
    2.7430    3.6632    1.6866 H   0  0  0  0  0  0  0  0  0  0  0  0
    4.8766    2.4609    1.4273 H   0  0  0  0  0  0  0  0  0  0  0  0
    7.1836    0.4832   -0.0677 H   0  0  0  0  0  0  0  0  0  0  0  0
    6.8487   -0.4390    1.3862 H   0  0  0  0  0  0  0  0  0  0  0  0
    6.8328    1.3642    1.4729 H   0  0  0  0  0  0  0  0  0  0  0  0
    3.6190   -3.2591    0.0175 H   0  0  0  0  0  0  0  0  0  0  0  0
    5.2229   -3.9396   -0.5464 H   0  0  0  0  0  0  0  0  0  0  0  0
    4.0460   -3.2087   -1.6974 H   0  0  0  0  0  0  0  0  0  0  0  0
  1 28  1  0  0  0  0
  3 24  2  0  0  0  0
  4  6  1  0  0  0  0
  5 13  1  0  0  0  0
  6 30  1  0  0  0  0
  6  7  1  0  0  0  0
  7 31  1  0  0  0  0
  8 32  1  0  0  0  0
  8  7  2  0  0  0  0
  9  8  1  0  0  0  0
 10  9  2  0  0  0  0
 10  4  1  0  0  0  0
 11 12  1  0  0  0  0
 11 10  1  0  0  0  0
 12 36  1  0  0  0  0
 12  5  1  0  0  0  0
 13 15  2  0  0  0  0
 14 38  1  0  0  0  0
 14 39  1  0  0  0  0
 14 13  1  0  0  0  0
 15 16  1  0  0  0  0
 16 18  2  0  0  0  0
 16 17  1  0  0  0  0
 17 41  1  0  0  0  0
 17 43  1  0  0  0  0
 18 44  1  0  0  0  0
 19 20  2  0  0  0  0
 19 18  1  0  0  0  0
 20 45  1  0  0  0  0
 21 22  1  0  0  0  0
 21 20  1  0  0  0  0
 22 47  1  0  0  0  0
 22 48  1  0  0  0  0
 23 21  2  0  0  0  0
 24 23  1  0  0  0  0
 25 50  1  0  0  0  0
 25 24  1  0  0  0  0
 25 49  1  0  0  0  0
 26  2  1  6  0  0  0
 26 23  1  0  0  0  0
 26 27  1  0  0  0  0
 27 19  1  0  0  0  0
 28 27  2  0  0  0  0
 28 15  1  0  0  0  0
 29  2  1  0  0  0  0
 33  9  1  0  0  0  0
 34 11  1  0  0  0  0
 35 11  1  0  0  0  0
 37 12  1  0  0  0  0
 40 14  1  0  0  0  0
 42 17  1  0  0  0  0
 46 22  1  0  0  0  0
 51 25  1  0  0  0  0
M  CHG  1   1  -1
M  END
