1,2,3
q = -1.0, confidence = 0.006

 30 31  0  0  1  0  0  0  0  0999 V2000
   -1.5584   -1.2796    0.4298 O   0  5  0  0  0  0  0  0  0  0  0  0
   -1.4253    0.3915   -1.5224 N   0  0  0  0  0  2  0  0  0  0  0  0
    0.9228    1.5995   -1.3618 N   0  0  0  0  0  2  0  0  0  0  0  0
   -2.5750   -0.2721   -1.4268 N   0  0  0  0  0  0  0  0  0  0  0  0
    2.1392    2.1420   -1.2513 C   0  0  0  0  0  3  0  0  0  0  0  0
    2.7412    1.8058   -0.3889 H   0  0  0  0  0  0  0  0  0  0  0  0
    2.6387    3.0792   -2.1696 C   0  0  0  0  0  0  0  0  0  0  0  0
    3.6469    3.4983   -2.0435 H   0  0  0  0  0  0  0  0  0  0  0  0
    1.8124    3.4543   -3.2405 C   0  0  0  0  0  0  0  0  0  0  0  0
    2.1602    4.1879   -3.9839 H   0  0  0  0  0  0  0  0  0  0  0  0
    0.5406    2.8841   -3.3618 C   0  0  0  0  0  0  0  0  0  0  0  0
   -0.1188    3.1598   -4.1959 H   0  0  0  0  0  0  0  0  0  0  0  0
    0.1114    1.9381   -2.4007 C   0  0  0  0  0  0  0  0  0  0  0  0
   -1.2029    1.2804   -2.4670 C   0  0  1  0  0  3  0  0  0  0  0  0
   -2.2003    1.6076   -3.5365 C   0  0  0  0  0  0  0  0  0  0  0  0
   -3.1066    0.9966   -3.3730 H   0  0  0  0  0  0  0  0  0  0  0  0
   -1.7989    1.3884   -4.5483 H   0  0  0  0  0  0  0  0  0  0  0  0
   -2.4803    2.6821   -3.5217 H   0  0  0  0  0  0  0  0  0  0  0  0
   -2.5393   -1.1335   -0.3602 C   0  0  0  0  0  0  0  0  0  0  0  0
   -3.7767   -1.9358   -0.1410 C   0  0  0  0  0  0  0  0  0  0  0  0
   -4.8950   -1.8217   -0.9946 C   0  0  0  0  0  0  0  0  0  0  0  0
   -4.8375   -1.1232   -1.8408 H   0  0  0  0  0  0  0  0  0  0  0  0
   -6.0428   -2.5882   -0.7560 C   0  0  0  0  0  0  0  0  0  0  0  0
   -6.9123   -2.4965   -1.4251 H   0  0  0  0  0  0  0  0  0  0  0  0
   -6.0861   -3.4750    0.3337 C   0  0  0  0  0  0  0  0  0  0  0  0
   -6.9892   -4.0772    0.5185 H   0  0  0  0  0  0  0  0  0  0  0  0
   -4.9748   -3.5934    1.1858 C   0  0  0  0  0  0  0  0  0  0  0  0
   -5.0064   -4.2889    2.0385 H   0  0  0  0  0  0  0  0  0  0  0  0
   -3.8257   -2.8283    0.9503 C   0  0  0  0  0  0  0  0  0  0  0  0
   -2.9407   -2.9016    1.5988 H   0  0  0  0  0  0  0  0  0  0  0  0
  2  4  1  0  0  0  0
  3  5  1  0  0  0  0
  4 19  2  0  0  0  0
  5  6  1  0  0  0  0
  7  8  1  0  0  0  0
  7  5  1  0  0  0  0
  9  7  2  0  0  0  0
 10  9  1  0  0  0  0
 11  9  1  0  0  0  0
 11 13  2  0  0  0  0
 12 11  1  0  0  0  0
 13  3  1  0  0  0  0
 14 13  1  0  0  0  0
 14  2  1  6  0  0  0
 15 18  1  0  0  0  0
 15 16  1  0  0  0  0
 15 14  1  0  0  0  0
 17 15  1  0  0  0  0
 19 20  1  0  0  0  0
 19  1  1  0  0  0  0
 20 29  1  0  0  0  0
 21 23  1  0  0  0  0
 21 20  2  0  0  0  0
 22 21  1  0  0  0  0
 23 25  2  0  0  0  0
 24 23  1  0  0  0  0
 25 26  1  0  0  0  0
 25 27  1  0  0  0  0
 27 28  1  0  0  0  0
 29 27  2  0  0  0  0
 29 30  1  0  0  0  0
M  CHG  1   1  -1
M  END
