3,4,5
q = -1.0

 32 32  0  0  0  0  0  0  0  0999 V2000
   -2.2421    0.8058    2.7117 Cl  0  0  0  0  0  0  0  0  0  0  0  0
   -4.3618    4.1240   -1.0379 Cl  0  0  0  0  0  0  0  0  0  0  0  0
    0.0590    0.7825    0.9696 O   0  5  0  0  0  0  0  0  0  0  0  0
    1.3706    1.2826   -1.4115 N   0  0  0  0  0  2  0  0  0  0  0  0
    2.8128   -0.9405   -1.2468 N   0  0  0  0  0  0  0  0  0  0  0  0
    2.1090   -1.3812   -1.8680 H   0  0  0  0  0  0  0  0  0  0  0  0
   -0.8097    2.2041   -0.7946 C   0  0  0  0  0  0  0  0  0  0  0  0
   -0.8977    1.5040    0.4566 C   0  0  0  0  0  0  0  0  0  0  0  0
   -2.1104    1.6581    1.2034 C   0  0  0  0  0  0  0  0  0  0  0  0
   -3.1571    2.4550    0.7476 C   0  0  0  0  0  0  0  0  0  0  0  0
   -4.0764    2.5417    1.3425 H   0  0  0  0  0  0  0  0  0  0  0  0
   -3.0398    3.1415   -0.4854 C   0  0  0  0  0  0  0  0  0  0  0  0
   -1.8834    3.0206   -1.2469 C   0  0  0  0  0  0  0  0  0  0  0  0
   -1.8042    3.5451   -2.2098 H   0  0  0  0  0  0  0  0  0  0  0  0
    0.3498    2.0721   -1.6252 C   0  0  0  0  0  3  0  0  0  0  0  0
    0.3592    2.6806   -2.5521 H   0  0  0  0  0  0  0  0  0  0  0  0
    2.3551    1.0964   -2.4804 C   0  0  0  0  0  0  0  0  0  0  0  0
    2.7800    2.0621   -2.8284 H   0  0  0  0  0  0  0  0  0  0  0  0
    1.8485    0.6278   -3.3539 H   0  0  0  0  0  0  0  0  0  0  0  0
    3.4530    0.1723   -1.9827 C   0  0  0  0  0  0  0  0  0  0  0  0
    4.0571   -0.1890   -2.8390 H   0  0  0  0  0  0  0  0  0  0  0  0
    4.1511    0.6989   -1.2986 H   0  0  0  0  0  0  0  0  0  0  0  0
    3.7250   -2.0322   -0.7568 C   0  0  0  0  0  0  0  0  0  0  0  0
    4.0808   -1.7155    0.2492 H   0  0  0  0  0  0  0  0  0  0  0  0
    2.9192   -3.3247   -0.6269 C   0  0  0  0  0  0  0  0  0  0  0  0
    1.9899   -3.1805   -0.0504 H   0  0  0  0  0  0  0  0  0  0  0  0
    3.5240   -4.1058   -0.1283 H   0  0  0  0  0  0  0  0  0  0  0  0
    2.6461   -3.7077   -1.6325 H   0  0  0  0  0  0  0  0  0  0  0  0
    4.9575   -2.2510   -1.6406 C   0  0  0  0  0  0  0  0  0  0  0  0
    5.5441   -3.0960   -1.2312 H   0  0  0  0  0  0  0  0  0  0  0  0
    5.6322   -1.3743   -1.6773 H   0  0  0  0  0  0  0  0  0  0  0  0
    4.6705   -2.5231   -2.6772 H   0  0  0  0  0  0  0  0  0  0  0  0
  2 12  1  0  0  0  0
  5 23  1  0  0  0  0
  6  5  1  0  0  0  0
  7  8  1  0  0  0  0
  8  3  1  0  0  0  0
  8  9  2  0  0  0  0
  9  1  1  0  0  0  0
 10  9  1  0  0  0  0
 10 11  1  0  0  0  0
 12 10  2  0  0  0  0
 13  7  2  0  0  0  0
 13 12  1  0  0  0  0
 14 13  1  0  0  0  0
 15  4  1  0  0  0  0
 15  7  1  0  0  0  0
 16 15  1  0  0  0  0
 17 20  1  0  0  0  0
 17  4  1  0  0  0  0
 18 17  1  0  0  0  0
 19 17  1  0  0  0  0
 20 22  1  0  0  0  0
 20  5  1  0  0  0  0
 21 20  1  0  0  0  0
 23 25  1  0  0  0  0
 23 24  1  0  0  0  0
 25 27  1  0  0  0  0
 25 26  1  0  0  0  0
 28 25  1  0  0  0  0
 29 30  1  0  0  0  0
 29 23  1  0  0  0  0
 31 29  1  0  0  0  0
 32 29  1  0  0  0  0
M  CHG  1   3  -1
M  END
