3,4,5
q = -1.0

 27 27  0  0  0  0  0  0  0  0999 V2000
   -2.4359    1.8188   -1.2181 O   0  0  0  0  0  0  0  0  0  0  0  0
   -2.7545    1.3891   -0.3758 H   0  0  0  0  0  0  0  0  0  0  0  0
    1.6500   -1.4003    0.2304 O   0  5  0  0  0  0  0  0  0  0  0  0
   -1.1249    1.4578   -1.2700 N   0  0  0  0  0  2  0  0  0  0  0  0
    1.3218    0.5481   -1.4376 N   0  0  0  0  0  2  0  0  0  0  0  0
    2.6058    0.1868   -1.2084 N   0  0  0  0  0  0  0  0  0  0  0  0
    6.5621   -2.5012    0.4962 N   0  0  0  0  0  0  0  0  0  0  0  0
   -0.9384    2.9111   -3.2673 C   0  0  0  0  0  0  0  0  0  0  0  0
   -1.9928    3.1572   -3.0536 H   0  0  0  0  0  0  0  0  0  0  0  0
   -0.8746    2.4737   -4.2854 H   0  0  0  0  0  0  0  0  0  0  0  0
   -0.3439    3.8470   -3.2804 H   0  0  0  0  0  0  0  0  0  0  0  0
   -0.4093    1.9513   -2.2431 C   0  0  0  0  0  0  0  0  0  0  0  0
    1.0138    1.5327   -2.2456 C   0  0  0  0  0  0  0  0  0  0  0  0
    2.0278    2.2587   -3.0764 C   0  0  0  0  0  0  0  0  0  0  0  0
    2.9809    1.7002   -3.0590 H   0  0  0  0  0  0  0  0  0  0  0  0
    2.2162    3.2789   -2.6766 H   0  0  0  0  0  0  0  0  0  0  0  0
    1.6841    2.3802   -4.1229 H   0  0  0  0  0  0  0  0  0  0  0  0
    2.6514   -0.8792   -0.3547 C   0  0  0  0  0  0  0  0  0  0  0  0
    4.0130   -1.4246   -0.0783 C   0  0  0  0  0  0  0  0  0  0  0  0
    5.1653   -0.9487   -0.7341 C   0  0  0  0  0  0  0  0  0  0  0  0
    5.0777   -0.1502   -1.4836 H   0  0  0  0  0  0  0  0  0  0  0  0
    6.4043   -1.5184   -0.4071 C   0  0  0  0  0  0  0  0  0  0  0  0
    7.3232   -1.1613   -0.9063 H   0  0  0  0  0  0  0  0  0  0  0  0
    5.4568   -2.9529    1.1124 C   0  0  0  0  0  0  0  0  0  0  0  0
    5.6041   -3.7626    1.8498 H   0  0  0  0  0  0  0  0  0  0  0  0
    4.1687   -2.4554    0.8673 C   0  0  0  0  0  0  0  0  0  0  0  0
    3.2841   -2.8474    1.3892 H   0  0  0  0  0  0  0  0  0  0  0  0
  1  2  1  0  0  0  0
  4  1  1  0  0  0  0
  5  6  1  0  0  0  0
  6 18  2  0  0  0  0
  7 24  1  0  0  0  0
  8  9  1  0  0  0  0
  8 12  1  0  0  0  0
 10  8  1  0  0  0  0
 11  8  1  0  0  0  0
 12  4  1  0  0  0  0
 13 12  2  0  0  0  0
 13  5  1  0  0  0  0
 14 15  1  0  0  0  0
 14 16  1  0  0  0  0
 14 13  1  0  0  0  0
 17 14  1  0  0  0  0
 18 19  1  0  0  0  0
 18  3  1  0  0  0  0
 19 26  1  0  0  0  0
 20 22  1  0  0  0  0
 20 19  2  0  0  0  0
 21 20  1  0  0  0  0
 22  7  2  0  0  0  0
 23 22  1  0  0  0  0
 24 25  1  0  0  0  0
 26 24  2  0  0  0  0
 26 27  1  0  0  0  0
M  CHG  1   3  -1
M  END
