1,2,3
q = 0.0, confidence = 0.988

 32 33  0  0  1  0  0  0  0  0999 V2000
   -1.0386    1.1845   -0.3956 O   0  0  0  0  0  1  0  0  0  0  0  0
    2.9585   -0.0842   -0.2944 N   0  0  0  0  0  2  0  0  0  0  0  0
    0.5016   -0.9261   -0.5329 N   0  0  0  0  0  2  0  0  0  0  0  0
   -0.8290   -1.0835   -0.3840 N   0  0  0  0  0  0  0  0  0  0  0  0
   -1.2480   -2.0007   -0.2003 H   0  0  0  0  0  0  0  0  0  0  0  0
    0.9819   -2.9935    0.5408 N   0  0  0  0  0  0  0  0  0  0  0  0
    0.1818   -2.8633    1.1750 H   0  0  0  0  0  0  0  0  0  0  0  0
    1.7491   -3.4379    1.0516 H   0  0  0  0  0  0  0  0  0  0  0  0
   -7.2629   -0.3518   -0.0763 N   0  0  0  0  0  0  0  0  0  0  0  0
   -7.7214   -1.2570   -0.1535 H   0  0  0  0  0  0  0  0  0  0  0  0
   -7.7856    0.3836    0.3948 H   0  0  0  0  0  0  0  0  0  0  0  0
    4.1907    0.4148   -0.4304 C   0  0  0  0  0  3  0  0  0  0  0  0
    4.2322    1.5178   -0.4896 H   0  0  0  0  0  0  0  0  0  0  0  0
    5.3225   -0.4169   -0.4886 C   0  0  0  0  0  0  0  0  0  0  0  0
    6.3257    0.0208   -0.5931 H   0  0  0  0  0  0  0  0  0  0  0  0
    5.1392   -1.8044   -0.4096 C   0  0  0  0  0  0  0  0  0  0  0  0
    6.0016   -2.4862   -0.4591 H   0  0  0  0  0  0  0  0  0  0  0  0
    3.8405   -2.3220   -0.2794 C   0  0  0  0  0  0  0  0  0  0  0  0
    3.6693   -3.4087   -0.2517 H   0  0  0  0  0  0  0  0  0  0  0  0
    2.7664   -1.4177   -0.2257 C   0  0  0  0  0  0  0  0  0  0  0  0
    1.3410   -1.8104   -0.0786 C   0  0  2  0  0  3  0  0  0  0  0  0
   -1.5951    0.0746   -0.3735 C   0  0  1  0  0  3  0  0  0  0  0  0
   -3.0586   -0.0945   -0.3111 C   0  0  0  0  0  0  0  0  0  0  0  0
   -3.7332   -1.2848   -0.6671 C   0  0  0  0  0  0  0  0  0  0  0  0
   -3.1753   -2.1513   -1.0569 H   0  0  0  0  0  0  0  0  0  0  0  0
   -5.1212   -1.3794   -0.5828 C   0  0  0  0  0  0  0  0  0  0  0  0
   -5.6277   -2.3106   -0.8803 H   0  0  0  0  0  0  0  0  0  0  0  0
   -5.8957   -0.2749   -0.1366 C   0  0  0  0  0  0  0  0  0  0  0  0
   -5.2164    0.9252    0.2081 C   0  0  0  0  0  0  0  0  0  0  0  0
   -5.7983    1.7948    0.5511 H   0  0  0  0  0  0  0  0  0  0  0  0
   -3.8317    1.0099    0.1157 C   0  0  0  0  0  0  0  0  0  0  0  0
   -3.3042    1.9379    0.3801 H   0  0  0  0  0  0  0  0  0  0  0  0
  2 20  1  0  0  0  0
  3  4  1  0  0  0  0
  4 22  1  0  0  0  0
  4  5  1  0  0  0  0
  6  8  1  0  0  0  0
  6  7  1  0  0  0  0
  9 11  1  0  0  0  0
 10  9  1  0  0  0  0
 12  2  1  0  0  0  0
 13 12  1  0  0  0  0
 14 12  1  0  0  0  0
 14 16  2  0  0  0  0
 15 14  1  0  0  0  0
 16 18  1  0  0  0  0
 17 16  1  0  0  0  0
 18 19  1  0  0  0  0
 18 20  2  0  0  0  0
 20 21  1  0  0  0  0
 21  3  1  1  0  0  0
 21  6  1  0  0  0  0
 22  1  1  1  0  0  0
 22 23  1  0  0  0  0
 23 31  1  0  0  0  0
 24 26  1  0  0  0  0
 24 23  2  0  0  0  0
 25 24  1  0  0  0  0
 26 28  2  0  0  0  0
 27 26  1  0  0  0  0
 28  9  1  0  0  0  0
 28 29  1  0  0  0  0
 29 30  1  0  0  0  0
 31 29  2  0  0  0  0
 31 32  1  0  0  0  0
M  END
