1,2,3
q = 0.0, confidence = 1.0

 32 33  0  0  1  0  0  0  0  0999 V2000
   -1.2269   -0.9343   -0.8471 O   0  0  0  0  0  1  0  0  0  0  0  0
    2.6011    0.3407    0.6808 N   0  0  0  0  0  2  0  0  0  0  0  0
    0.3391    1.0637   -0.4248 N   0  0  0  0  0  2  0  0  0  0  0  0
   -0.9579    1.3351   -0.7279 N   0  0  0  0  0  0  0  0  0  0  0  0
   -1.3731    2.1095   -0.1887 H   0  0  0  0  0  0  0  0  0  0  0  0
   -3.5593   -1.8735    0.0825 N   0  0  0  0  0  0  0  0  0  0  0  0
   -4.1691   -2.5897    0.4672 H   0  0  0  0  0  0  0  0  0  0  0  0
   -2.5660   -2.0597   -0.0927 H   0  0  0  0  0  0  0  0  0  0  0  0
    0.8515    3.3616   -0.3776 N   0  0  0  0  0  0  0  0  0  0  0  0
    0.1747    3.5835   -1.1120 H   0  0  0  0  0  0  0  0  0  0  0  0
    1.5767    4.0625   -0.2386 H   0  0  0  0  0  0  0  0  0  0  0  0
    3.7728   -0.1499    1.0960 C   0  0  0  0  0  3  0  0  0  0  0  0
    3.7701   -1.2110    1.3944 H   0  0  0  0  0  0  0  0  0  0  0  0
    4.9402    0.6283    1.1422 C   0  0  0  0  0  0  0  0  0  0  0  0
    5.8821    0.1933    1.5051 H   0  0  0  0  0  0  0  0  0  0  0  0
    4.8702    1.9582    0.7063 C   0  0  0  0  0  0  0  0  0  0  0  0
    5.7655    2.5975    0.7093 H   0  0  0  0  0  0  0  0  0  0  0  0
    3.6462    2.4628    0.2458 C   0  0  0  0  0  0  0  0  0  0  0  0
    3.5858    3.4910   -0.1402 H   0  0  0  0  0  0  0  0  0  0  0  0
    2.5215    1.6194    0.2511 C   0  0  0  0  0  0  0  0  0  0  0  0
    1.1799    2.0367   -0.2251 C   0  0  1  0  0  3  0  0  0  0  0  0
   -1.7662    0.1870   -0.7840 C   0  0  2  0  0  3  0  0  0  0  0  0
   -3.2155    0.4012   -0.7385 C   0  0  0  0  0  0  0  0  0  0  0  0
   -4.0625   -0.6604   -0.2623 C   0  0  0  0  0  0  0  0  0  0  0  0
   -5.4547   -0.3876   -0.1396 C   0  0  0  0  0  0  0  0  0  0  0  0
   -6.1139   -1.1839    0.2400 H   0  0  0  0  0  0  0  0  0  0  0  0
   -5.9863    0.8474   -0.4981 C   0  0  0  0  0  0  0  0  0  0  0  0
   -7.0700    1.0139   -0.3981 H   0  0  0  0  0  0  0  0  0  0  0  0
   -5.1600    1.8770   -0.9978 C   0  0  0  0  0  0  0  0  0  0  0  0
   -5.5882    2.8417   -1.3042 H   0  0  0  0  0  0  0  0  0  0  0  0
   -3.7908    1.6410   -1.1057 C   0  0  0  0  0  0  0  0  0  0  0  0
   -3.1362    2.4244   -1.5179 H   0  0  0  0  0  0  0  0  0  0  0  0
  2 12  1  0  0  0  0
  4  3  1  0  0  0  0
  4  5  1  0  0  0  0
  6  7  1  0  0  0  0
  8  6  1  0  0  0  0
  9 11  1  0  0  0  0
  9 21  1  0  0  0  0
 10  9  1  0  0  0  0
 12 14  1  0  0  0  0
 12 13  1  0  0  0  0
 14 15  1  0  0  0  0
 16 17  1  0  0  0  0
 16 14  2  0  0  0  0
 18 20  2  0  0  0  0
 18 16  1  0  0  0  0
 19 18  1  0  0  0  0
 20  2  1  0  0  0  0
 21  3  1  1  0  0  0
 21 20  1  0  0  0  0
 22  1  1  1  0  0  0
 22 23  1  0  0  0  0
 22  4  1  0  0  0  0
 23 24  1  0  0  0  0
 24 25  2  0  0  0  0
 24  6  1  0  0  0  0
 25 26  1  0  0  0  0
 27 28  1  0  0  0  0
 27 25  1  0  0  0  0
 29 27  2  0  0  0  0
 30 29  1  0  0  0  0
 31 29  1  0  0  0  0
 31 23  2  0  0  0  0
 32 31  1  0  0  0  0
M  END
