1,2,3
q = -1.0

 41 42  0  0  1  0  0  0  0  0999 V2000
   -0.3363   -1.2584   -0.1352 N   0  0  0  0  0  2  0  0  0  0  0  0
   -2.9487   -0.8343    0.1122 N   0  0  0  0  0  0  0  0  0  0  0  0
    0.1427    1.3933   -0.1838 O   0  5  0  0  0  0  0  0  0  0  0  0
    1.8996   -0.2817   -0.0834 C   0  0  0  0  0  0  0  0  0  0  0  0
    1.3984    1.0644   -0.1309 C   0  0  0  0  0  0  0  0  0  0  0  0
    2.3376    2.1579   -0.1385 C   0  0  0  0  0  0  0  0  0  0  0  0
    1.9070    3.1685   -0.1860 H   0  0  0  0  0  0  0  0  0  0  0  0
    3.6905    1.9327   -0.0900 C   0  0  0  0  0  0  0  0  0  0  0  0
    4.3905    2.7834   -0.0980 H   0  0  0  0  0  0  0  0  0  0  0  0
    4.2342    0.6059   -0.0242 C   0  0  0  0  0  0  0  0  0  0  0  0
    5.6373    0.3954    0.0353 C   0  0  0  0  0  0  0  0  0  0  0  0
    6.2983    1.2764    0.0251 H   0  0  0  0  0  0  0  0  0  0  0  0
    6.1720   -0.8859    0.1068 C   0  0  0  0  0  0  0  0  0  0  0  0
    7.2608   -1.0359    0.1528 H   0  0  0  0  0  0  0  0  0  0  0  0
    5.2970   -1.9958    0.1249 C   0  0  0  0  0  0  0  0  0  0  0  0
    5.7063   -3.0158    0.1882 H   0  0  0  0  0  0  0  0  0  0  0  0
    3.9172   -1.8146    0.0684 C   0  0  0  0  0  0  0  0  0  0  0  0
    3.2756   -2.7068    0.0974 H   0  0  0  0  0  0  0  0  0  0  0  0
    3.3361   -0.5185   -0.0143 C   0  0  1  0  0  3  0  0  0  0  0  0
    0.9793   -1.3667   -0.1339 C   0  0  0  0  0  0  0  0  0  0  0  0
    1.3867   -2.3930   -0.1904 H   0  0  0  0  0  0  0  0  0  0  0  0
   -1.1580   -2.4531   -0.3007 C   0  0  0  0  0  0  0  0  0  0  0  0
   -0.6509   -3.3641    0.0868 H   0  0  0  0  0  0  0  0  0  0  0  0
   -1.3546   -2.6310   -1.3828 H   0  0  0  0  0  0  0  0  0  0  0  0
   -2.4551   -2.1983    0.4476 C   0  0  0  0  0  0  0  0  0  0  0  0
   -3.2248   -2.9699    0.2304 H   0  0  0  0  0  0  0  0  0  0  0  0
   -2.2528   -2.2199    1.5347 H   0  0  0  0  0  0  0  0  0  0  0  0
   -3.6050   -0.7735   -1.2324 C   0  0  0  0  0  0  0  0  0  0  0  0
   -3.7456    0.3068   -1.4352 H   0  0  0  0  0  0  0  0  0  0  0  0
   -2.8642   -1.1391   -1.9718 H   0  0  0  0  0  0  0  0  0  0  0  0
   -4.9207   -1.5357   -1.3835 C   0  0  0  0  0  0  0  0  0  0  0  0
   -4.8214   -2.6218   -1.1813 H   0  0  0  0  0  0  0  0  0  0  0  0
   -5.2734   -1.4315   -2.4286 H   0  0  0  0  0  0  0  0  0  0  0  0
   -5.7178   -1.1335   -0.7284 H   0  0  0  0  0  0  0  0  0  0  0  0
   -3.8550   -0.3072    1.1774 C   0  0  0  0  0  0  0  0  0  0  0  0
   -4.6606   -1.0530    1.3615 H   0  0  0  0  0  0  0  0  0  0  0  0
   -4.3115    0.6090    0.7574 H   0  0  0  0  0  0  0  0  0  0  0  0
   -3.1418    0.0527    2.4731 C   0  0  0  0  0  0  0  0  0  0  0  0
   -2.6223   -0.8069    2.9422 H   0  0  0  0  0  0  0  0  0  0  0  0
   -3.8858    0.4236    3.2061 H   0  0  0  0  0  0  0  0  0  0  0  0
   -2.4036    0.8577    2.2898 H   0  0  0  0  0  0  0  0  0  0  0  0
  1 20  1  0  0  0  0
  2 25  1  0  0  0  0
  2 35  1  0  0  0  0
  3  5  1  0  0  0  0
  5  4  1  0  0  0  0
  6  5  2  0  0  0  0
  6  8  1  0  0  0  0
  7  6  1  0  0  0  0
  8 10  2  0  0  0  0
  9  8  1  0  0  0  0
 10 19  1  0  0  0  0
 10 11  1  0  0  0  0
 11 13  2  0  0  0  0
 12 11  1  0  0  0  0
 13 15  1  0  0  0  0
 13 14  1  0  0  0  0
 15 16  1  0  0  0  0
 17 18  1  0  0  0  0
 17 15  2  0  0  0  0
 19  4  1  1  0  0  0
 19 17  1  0  0  0  0
 20  4  2  0  0  0  0
 21 20  1  0  0  0  0
 22  1  1  0  0  0  0
 22 23  1  0  0  0  0
 22 25  1  0  0  0  0
 24 22  1  0  0  0  0
 25 27  1  0  0  0  0
 26 25  1  0  0  0  0
 28  2  1  0  0  0  0
 29 28  1  0  0  0  0
 30 28  1  0  0  0  0
 31 28  1  0  0  0  0
 31 32  1  0  0  0  0
 31 34  1  0  0  0  0
 33 31  1  0  0  0  0
 35 36  1  0  0  0  0
 35 38  1  0  0  0  0
 37 35  1  0  0  0  0
 38 39  1  0  0  0  0
 38 40  1  0  0  0  0
 41 38  1  0  0  0  0
M  CHG  1   3  -1
M  END
