1,3,4
q = -1.0

 40 42  0  0  0  0  0  0  0  0999 V2000
   -0.5063    1.2643    0.0999 O   0  5  0  0  0  0  0  0  0  0  0  0
    5.4395   -1.1471    0.0926 O   0  0  0  0  0  0  0  0  0  0  0  0
   -0.0820   -1.3869    0.1219 N   0  0  0  0  0  2  0  0  0  0  0  0
    2.5382   -1.0435   -0.1520 N   0  0  0  0  0  0  0  0  0  0  0  0
   -2.2998   -0.3729    0.0500 C   0  0  0  0  0  0  0  0  0  0  0  0
   -1.7669    0.9620    0.0591 C   0  0  0  0  0  0  0  0  0  0  0  0
   -2.6828    2.0762    0.0404 C   0  0  0  0  0  0  0  0  0  0  0  0
   -2.2318    3.0788    0.0574 H   0  0  0  0  0  0  0  0  0  0  0  0
   -4.0398    1.8776    0.0042 C   0  0  0  0  0  0  0  0  0  0  0  0
   -4.7213    2.7432   -0.0086 H   0  0  0  0  0  0  0  0  0  0  0  0
   -4.6136    0.5615   -0.0228 C   0  0  0  0  0  0  0  0  0  0  0  0
   -6.0211    0.3808   -0.0700 C   0  0  0  0  0  3  0  0  0  0  0  0
   -6.6629    1.2758   -0.0805 H   0  0  0  0  0  0  0  0  0  0  0  0
   -6.5837   -0.8902   -0.1040 C   0  0  0  0  0  0  0  0  0  0  0  0
   -7.6757   -1.0175   -0.1406 H   0  0  0  0  0  0  0  0  0  0  0  0
   -5.7337   -2.0192   -0.0962 C   0  0  0  0  0  0  0  0  0  0  0  0
   -6.1656   -3.0311   -0.1298 H   0  0  0  0  0  0  0  0  0  0  0  0
   -4.3497   -1.8668   -0.0515 C   0  0  0  0  0  0  0  0  0  0  0  0
   -3.7274   -2.7732   -0.0596 H   0  0  0  0  0  0  0  0  0  0  0  0
   -3.7415   -0.5822   -0.0066 C   0  0  0  0  0  0  0  0  0  0  0  0
   -1.4004   -1.4694    0.1288 C   0  0  0  0  0  0  0  0  0  0  0  0
   -1.8245   -2.4865    0.2183 H   0  0  0  0  0  0  0  0  0  0  0  0
    0.7129   -2.5920    0.3323 C   0  0  0  0  0  0  0  0  0  0  0  0
    0.1790   -3.5072   -0.0061 H   0  0  0  0  0  0  0  0  0  0  0  0
    0.9216   -2.7266    1.4186 H   0  0  0  0  0  0  0  0  0  0  0  0
    2.0033   -2.4054   -0.4422 C   0  0  0  0  0  0  0  0  0  0  0  0
    1.7888   -2.4424   -1.5285 H   0  0  0  0  0  0  0  0  0  0  0  0
    2.7415   -3.2022   -0.2127 H   0  0  0  0  0  0  0  0  0  0  0  0
    3.2548   -0.9563    1.1586 C   0  0  0  0  0  0  0  0  0  0  0  0
    2.6103   -1.3776    1.9552 H   0  0  0  0  0  0  0  0  0  0  0  0
    3.3840    0.1260    1.3564 H   0  0  0  0  0  0  0  0  0  0  0  0
    4.6177   -1.6509    1.1281 C   0  0  0  0  0  0  0  0  0  0  0  0
    5.1429   -1.4611    2.0856 H   0  0  0  0  0  0  0  0  0  0  0  0
    4.5014   -2.7611    1.0295 H   0  0  0  0  0  0  0  0  0  0  0  0
    4.8143   -1.3034   -1.1702 C   0  0  0  0  0  0  0  0  0  0  0  0
    4.6974   -2.3899   -1.4162 H   0  0  0  0  0  0  0  0  0  0  0  0
    5.4950   -0.8650   -1.9270 H   0  0  0  0  0  0  0  0  0  0  0  0
    3.4723   -0.5750   -1.2198 C   0  0  0  0  0  0  0  0  0  0  0  0
    3.6157    0.5086   -1.0437 H   0  0  0  0  0  0  0  0  0  0  0  0
    2.9752   -0.7018   -2.2019 H   0  0  0  0  0  0  0  0  0  0  0  0
  2 32  1  0  0  0  0
  3 21  1  0  0  0  0
  3 23  1  0  0  0  0
  4 29  1  0  0  0  0
  5  6  1  0  0  0  0
  5 21  2  0  0  0  0
  6  1  1  0  0  0  0
  7  8  1  0  0  0  0
  7  6  2  0  0  0  0
  9  7  1  0  0  0  0
 10  9  1  0  0  0  0
 11 20  1  0  0  0  0
 11  9  2  0  0  0  0
 12 11  1  0  0  0  0
 13 12  1  0  0  0  0
 14 16  2  0  0  0  0
 14 12  1  0  0  0  0
 15 14  1  0  0  0  0
 16 18  1  0  0  0  0
 17 16  1  0  0  0  0
 18 20  2  0  0  0  0
 19 18  1  0  0  0  0
 20  5  1  0  0  0  0
 21 22  1  0  0  0  0
 23 25  1  0  0  0  0
 24 23  1  0  0  0  0
 26 28  1  0  0  0  0
 26  4  1  0  0  0  0
 26 23  1  0  0  0  0
 27 26  1  0  0  0  0
 29 31  1  0  0  0  0
 29 30  1  0  0  0  0
 32 29  1  0  0  0  0
 32 33  1  0  0  0  0
 34 32  1  0  0  0  0
 35  2  1  0  0  0  0
 36 35  1  0  0  0  0
 37 35  1  0  0  0  0
 38 35  1  0  0  0  0
 38 39  1  0  0  0  0
 38  4  1  0  0  0  0
 40 38  1  0  0  0  0
M  CHG  1   1  -1
M  END
