1,3,4
q = -1.0

 24 24  0  0  1  0  0  0  0  0999 V2000
   -0.8432   -1.4216   -0.3673 O   0  5  0  0  0  0  0  0  0  0  0  0
    1.7082    1.6532   -0.0879 O   0  0  0  0  0  0  0  0  0  0  0  0
    0.5893    0.7600   -0.0256 N   0  0  0  0  0  2  0  0  0  0  0  0
    2.8331   -0.2984    0.0874 N   0  0  0  0  0  2  0  0  0  0  0  0
   -0.5231    2.8168   -0.1188 N   0  0  0  0  0  0  0  0  0  0  0  0
   -1.8878   -0.6672   -0.1888 C   0  0  0  0  0  0  0  0  0  0  0  0
   -3.1821   -1.2734   -0.2071 C   0  0  0  0  0  0  0  0  0  0  0  0
   -4.3377   -0.5281   -0.0105 C   0  0  0  0  0  0  0  0  0  0  0  0
   -4.2679    0.8664    0.2147 C   0  0  0  0  0  0  0  0  0  0  0  0
   -3.0241    1.4889    0.2162 C   0  0  0  0  0  0  0  0  0  0  0  0
   -1.8239    0.7600   -0.0008 C   0  0  0  0  0  0  0  0  0  0  0  0
   -0.5433    1.4606   -0.0590 C   0  0  2  0  0  3  0  0  0  0  0  0
    2.8699    0.9828    0.0022 C   0  0  1  0  0  3  0  0  0  0  0  0
    4.0635    1.8849   -0.0150 C   0  0  0  0  0  0  0  0  0  0  0  0
   -3.2134   -2.3602   -0.3694 H   0  0  0  0  0  0  0  0  0  0  0  0
   -5.3164   -1.0327   -0.0172 H   0  0  0  0  0  0  0  0  0  0  0  0
   -5.1802    1.4510    0.3997 H   0  0  0  0  0  0  0  0  0  0  0  0
   -2.9794    2.5679    0.4332 H   0  0  0  0  0  0  0  0  0  0  0  0
    3.7332   -0.7830    0.1442 H   0  0  0  0  0  0  0  0  0  0  0  0
   -1.3743    3.3132   -0.3678 H   0  0  0  0  0  0  0  0  0  0  0  0
    0.3707    3.2899   -0.2298 H   0  0  0  0  0  0  0  0  0  0  0  0
    4.0601    2.5056   -0.9330 H   0  0  0  0  0  0  0  0  0  0  0  0
    4.9969    1.2961    0.0206 H   0  0  0  0  0  0  0  0  0  0  0  0
    4.0343    2.5719    0.8544 H   0  0  0  0  0  0  0  0  0  0  0  0
  1  6  1  0  0  0  0
  2  3  1  0  0  0  0
  4 19  1  0  0  0  0
  5 12  1  0  0  0  0
  6 11  1  0  0  0  0
  7  6  2  0  0  0  0
  7  8  1  0  0  0  0
  8  9  2  0  0  0  0
  9 10  1  0  0  0  0
  9 17  1  0  0  0  0
 10 18  1  0  0  0  0
 11 10  2  0  0  0  0
 12  3  1  1  0  0  0
 12 11  1  0  0  0  0
 13  2  1  6  0  0  0
 13  4  1  0  0  0  0
 14 13  1  0  0  0  0
 14 23  1  0  0  0  0
 14 24  1  0  0  0  0
 15  7  1  0  0  0  0
 16  8  1  0  0  0  0
 20  5  1  0  0  0  0
 21  5  1  0  0  0  0
 22 14  1  0  0  0  0
M  CHG  1   1  -1
M  END
