1,2,4
q = -1.0

 41 43  0  0  1  0  0  0  0  0999 V2000
   -0.0166    2.0212   -0.0327 N   0  0  0  0  0  2  0  0  0  0  0  0
   -2.0593   -0.9301    0.0156 N   0  0  0  0  0  2  0  0  0  0  0  0
    0.2850   -0.3774   -1.3426 N   0  0  0  0  0  0  0  0  0  0  0  0
    1.0294   -0.9211    1.5553 O   0  5  0  0  0  0  0  0  0  0  0  0
    0.6297    2.0539   -1.2173 C   0  0  1  0  0  3  0  0  0  0  0  0
    0.8596    3.2704   -1.8819 C   0  0  0  0  0  0  0  0  0  0  0  0
    1.3760    3.2714   -2.8535 H   0  0  0  0  0  0  0  0  0  0  0  0
    0.4273    4.4640   -1.2890 C   0  0  0  0  0  0  0  0  0  0  0  0
    0.6017    5.4276   -1.7916 H   0  0  0  0  0  0  0  0  0  0  0  0
   -0.2369    4.4120   -0.0545 C   0  0  0  0  0  0  0  0  0  0  0  0
   -0.5963    5.3241    0.4429 H   0  0  0  0  0  0  0  0  0  0  0  0
   -0.4465    3.1621    0.5403 C   0  0  0  0  0  0  0  0  0  0  0  0
   -0.9790    3.0183    1.4993 H   0  0  0  0  0  0  0  0  0  0  0  0
   -2.0432   -1.1814   -1.3083 C   0  0  1  0  0  3  0  0  0  0  0  0
   -3.0279   -1.9810   -1.9093 C   0  0  0  0  0  0  0  0  0  0  0  0
   -2.9883   -2.1797   -2.9907 H   0  0  0  0  0  0  0  0  0  0  0  0
   -4.0484   -2.5141   -1.1093 C   0  0  0  0  0  0  0  0  0  0  0  0
   -4.8293   -3.1479   -1.5565 H   0  0  0  0  0  0  0  0  0  0  0  0
   -4.0594   -2.2305    0.2644 C   0  0  0  0  0  0  0  0  0  0  0  0
   -4.8438   -2.6265    0.9250 H   0  0  0  0  0  0  0  0  0  0  0  0
   -3.0399   -1.4278    0.7911 C   0  0  0  0  0  0  0  0  0  0  0  0
   -2.9837   -1.1282    1.8528 H   0  0  0  0  0  0  0  0  0  0  0  0
    2.2525   -1.5891   -0.4164 C   0  0  0  0  0  0  0  0  0  0  0  0
    3.4986   -1.9036   -0.9931 C   0  0  0  0  0  0  0  0  0  0  0  0
    3.5288   -2.1970   -2.0568 H   0  0  0  0  0  0  0  0  0  0  0  0
    4.6834   -1.8621   -0.2466 C   0  0  0  0  0  0  0  0  0  0  0  0
    5.6474   -2.1151   -0.7117 H   0  0  0  0  0  0  0  0  0  0  0  0
    4.6108   -1.4970    1.1125 C   0  0  0  0  0  0  0  0  0  0  0  0
    5.5306   -1.4613    1.7185 H   0  0  0  0  0  0  0  0  0  0  0  0
    3.3880   -1.1761    1.7060 C   0  0  0  0  0  0  0  0  0  0  0  0
    3.3231   -0.8928    2.7673 H   0  0  0  0  0  0  0  0  0  0  0  0
    2.1659   -1.2058    0.9679 C   0  0  0  0  0  0  0  0  0  0  0  0
    1.1288    0.7316   -1.7574 C   0  0  0  0  0  0  0  0  0  0  0  0
    1.2642    0.7989   -2.8648 H   0  0  0  0  0  0  0  0  0  0  0  0
    2.1387    0.5382   -1.3283 H   0  0  0  0  0  0  0  0  0  0  0  0
   -0.9514   -0.4890   -2.0992 C   0  0  0  0  0  0  0  0  0  0  0  0
   -0.8067   -1.0071   -3.0801 H   0  0  0  0  0  0  0  0  0  0  0  0
   -1.3132    0.5372   -2.3327 H   0  0  0  0  0  0  0  0  0  0  0  0
    0.9868   -1.6793   -1.2152 C   0  0  0  0  0  0  0  0  0  0  0  0
    1.1992   -2.1010   -2.2289 H   0  0  0  0  0  0  0  0  0  0  0  0
    0.2681   -2.3652   -0.7139 H   0  0  0  0  0  0  0  0  0  0  0  0
  1 12  1  0  0  0  0
  2 21  1  0  0  0  0
  3 39  1  0  0  0  0
  5 33  1  1  0  0  0
  5  1  1  0  0  0  0
  6  8  2  0  0  0  0
  6  5  1  0  0  0  0
  7  6  1  0  0  0  0
  8 10  1  0  0  0  0
  9  8  1  0  0  0  0
 10 11  1  0  0  0  0
 10 12  2  0  0  0  0
 12 13  1  0  0  0  0
 14 36  1  6  0  0  0
 14  2  1  0  0  0  0
 15 14  1  0  0  0  0
 15 17  2  0  0  0  0
 16 15  1  0  0  0  0
 17 19  1  0  0  0  0
 18 17  1  0  0  0  0
 19 21  2  0  0  0  0
 19 20  1  0  0  0  0
 21 22  1  0  0  0  0
 23 32  1  0  0  0  0
 24 23  2  0  0  0  0
 24 26  1  0  0  0  0
 25 24  1  0  0  0  0
 26 28  2  0  0  0  0
 27 26  1  0  0  0  0
 28 30  1  0  0  0  0
 28 29  1  0  0  0  0
 30 31  1  0  0  0  0
 32  4  1  0  0  0  0
 32 30  2  0  0  0  0
 33  3  1  0  0  0  0
 33 35  1  0  0  0  0
 34 33  1  0  0  0  0
 36  3  1  0  0  0  0
 37 36  1  0  0  0  0
 38 36  1  0  0  0  0
 39 41  1  0  0  0  0
 39 23  1  0  0  0  0
 40 39  1  0  0  0  0
M  CHG  1   4  -1
M  END
