3,5,6
q = -1.0

 36 38  0  0  1  0  0  0  0  0999 V2000
   -1.7891   -0.7286   -1.8854 S   0  0  0  0  0  0  0  0  0  0  0  0
   -2.4505   -1.0598   -3.1593 O   0  0  0  0  0  1  0  0  0  0  0  0
   -0.4270   -1.3553   -1.5588 O   0  0  0  0  0  1  0  0  0  0  0  0
   -1.3921   -0.4863    1.1539 N   0  0  0  0  0  0  0  0  0  0  0  0
   -1.3127    0.8137   -1.7002 N   0  0  0  0  0  2  0  0  0  0  0  0
    0.3896    2.0422    0.1698 N   0  0  0  0  0  2  0  0  0  0  0  0
   -1.0728   -0.3902    2.4360 C   0  0  0  0  0  0  0  0  0  0  0  0
   -0.1050    0.0918    2.6617 H   0  0  0  0  0  0  0  0  0  0  0  0
   -1.9049   -0.8543    3.4885 C   0  0  0  0  0  0  0  0  0  0  0  0
   -1.5805   -0.7482    4.5339 H   0  0  0  0  0  0  0  0  0  0  0  0
   -3.1279   -1.4208    3.1660 C   0  0  0  0  0  0  0  0  0  0  0  0
   -3.8148   -1.7783    3.9492 H   0  0  0  0  0  0  0  0  0  0  0  0
   -3.5066   -1.5479    1.7993 C   0  0  0  0  0  0  0  0  0  0  0  0
   -4.7428   -2.1233    1.3862 C   0  0  0  0  0  0  0  0  0  0  0  0
   -5.4423   -2.4860    2.1554 H   0  0  0  0  0  0  0  0  0  0  0  0
   -5.0540   -2.2317    0.0384 C   0  0  0  0  0  0  0  0  0  0  0  0
   -6.0086   -2.6787   -0.2765 H   0  0  0  0  0  0  0  0  0  0  0  0
   -4.1360   -1.7901   -0.9470 C   0  0  0  0  0  0  0  0  0  0  0  0
   -4.3549   -1.8968   -2.0193 H   0  0  0  0  0  0  0  0  0  0  0  0
   -2.9193   -1.2310   -0.5737 C   0  0  0  0  0  0  0  0  0  0  0  0
   -2.5697   -1.0724    0.8087 C   0  0  0  0  0  0  0  0  0  0  0  0
   -2.1848    1.9278   -1.4277 C   0  0  0  0  0  0  0  0  0  0  0  0
   -2.7807    1.8038   -0.4895 H   0  0  0  0  0  0  0  0  0  0  0  0
   -2.9020    2.0753   -2.2654 H   0  0  0  0  0  0  0  0  0  0  0  0
   -1.2770    3.1544   -1.3215 C   0  0  0  0  0  0  0  0  0  0  0  0
   -0.6593    3.1875   -2.2464 H   0  0  0  0  0  0  0  0  0  0  0  0
   -1.8844    4.0795   -1.2945 H   0  0  0  0  0  0  0  0  0  0  0  0
   -0.3529    3.1539   -0.1278 C   0  0  2  0  0  3  0  0  0  0  0  0
   -0.2360    4.3181    0.6520 C   0  0  0  0  0  0  0  0  0  0  0  0
   -0.8482    5.1908    0.3816 H   0  0  0  0  0  0  0  0  0  0  0  0
    0.6445    4.3739    1.7377 C   0  0  0  0  0  0  0  0  0  0  0  0
    0.7355    5.2880    2.3427 H   0  0  0  0  0  0  0  0  0  0  0  0
    1.4039    3.2316    2.0236 C   0  0  0  0  0  0  0  0  0  0  0  0
    2.1199    3.2053    2.8575 H   0  0  0  0  0  0  0  0  0  0  0  0
    1.2476    2.0978    1.2275 C   0  0  0  0  0  0  0  0  0  0  0  0
    1.8227    1.1749    1.3955 H   0  0  0  0  0  0  0  0  0  0  0  0
  1  5  1  0  0  0  0
  1  3  1  0  0  0  0
  1 20  1  0  0  0  0
  2  1  1  0  0  0  0
  4  7  1  0  0  0  0
  5 22  1  0  0  0  0
  6 35  1  0  0  0  0
  7  8  1  0  0  0  0
  7  9  2  0  0  0  0
  9 10  1  0  0  0  0
 11  9  1  0  0  0  0
 11 12  1  0  0  0  0
 13 11  2  0  0  0  0
 14 13  1  0  0  0  0
 14 15  1  0  0  0  0
 16 14  2  0  0  0  0
 17 16  1  0  0  0  0
 18 20  2  0  0  0  0
 18 16  1  0  0  0  0
 19 18  1  0  0  0  0
 20 21  1  0  0  0  0
 21  4  2  0  0  0  0
 21 13  1  0  0  0  0
 22 25  1  0  0  0  0
 22 23  1  0  0  0  0
 24 22  1  0  0  0  0
 25 27  1  0  0  0  0
 26 25  1  0  0  0  0
 28 25  1  6  0  0  0
 28  6  1  0  0  0  0
 28 29  1  0  0  0  0
 29 31  2  0  0  0  0
 30 29  1  0  0  0  0
 31 33  1  0  0  0  0
 31 32  1  0  0  0  0
 33 34  1  0  0  0  0
 35 36  1  0  0  0  0
 35 33  2  0  0  0  0
M  END
