1,4,5
q = -1.0

 38 39  0  0  0  0  0  0  0  0999 V2000
    1.1293    0.4474    0.0835 O   0  5  0  0  0  0  0  0  0  0  0  0
    5.8798    0.1538   -0.0855 O   0  0  0  0  0  0  0  0  0  0  0  0
   -5.2901    0.4220    0.1116 O   0  0  0  0  0  0  0  0  0  0  0  0
   -0.2682   -1.8801    0.0851 N   0  0  0  0  0  2  0  0  0  0  0  0
   -2.5621   -0.5647   -0.1648 N   0  0  0  0  0  0  0  0  0  0  0  0
    2.1590   -1.7514    0.0313 C   0  0  0  0  0  0  0  0  0  0  0  0
    2.1880   -0.3056    0.0356 C   0  0  0  0  0  0  0  0  0  0  0  0
    3.4568    0.3465   -0.0033 C   0  0  0  0  0  0  0  0  0  0  0  0
    3.4362    1.4433    0.0030 H   0  0  0  0  0  0  0  0  0  0  0  0
    4.6399   -0.3932   -0.0460 C   0  0  0  0  0  0  0  0  0  0  0  0
    4.6106   -1.8224   -0.0496 C   0  0  0  0  0  0  0  0  0  0  0  0
    5.5643   -2.3662   -0.0819 H   0  0  0  0  0  0  0  0  0  0  0  0
    3.3924   -2.4698   -0.0103 C   0  0  0  0  0  3  0  0  0  0  0  0
    3.3578   -3.5712   -0.0100 H   0  0  0  0  0  0  0  0  0  0  0  0
    0.9235   -2.4470    0.0884 C   0  0  0  0  0  0  0  0  0  0  0  0
    0.9635   -3.5537    0.1456 H   0  0  0  0  0  0  0  0  0  0  0  0
   -1.4590   -2.7022    0.2621 C   0  0  0  0  0  0  0  0  0  0  0  0
   -1.7105   -2.7827    1.3449 H   0  0  0  0  0  0  0  0  0  0  0  0
   -1.3087   -3.7400   -0.1087 H   0  0  0  0  0  0  0  0  0  0  0  0
   -2.5794   -2.0186   -0.4977 C   0  0  0  0  0  0  0  0  0  0  0  0
   -2.3890   -2.1010   -1.5861 H   0  0  0  0  0  0  0  0  0  0  0  0
   -3.5650   -2.4845   -0.2874 H   0  0  0  0  0  0  0  0  0  0  0  0
   -3.1919   -0.2518    1.1556 C   0  0  0  0  0  0  0  0  0  0  0  0
   -2.9051    0.7939    1.3823 H   0  0  0  0  0  0  0  0  0  0  0  0
   -2.7513   -0.9059    1.9337 H   0  0  0  0  0  0  0  0  0  0  0  0
   -4.7159   -0.3828    1.1238 C   0  0  0  0  0  0  0  0  0  0  0  0
   -5.0252   -1.4521    0.9949 H   0  0  0  0  0  0  0  0  0  0  0  0
   -5.1301   -0.0371    2.0921 H   0  0  0  0  0  0  0  0  0  0  0  0
   -4.7710    0.0783   -1.1621 C   0  0  0  0  0  0  0  0  0  0  0  0
   -5.2379    0.7618   -1.8991 H   0  0  0  0  0  0  0  0  0  0  0  0
   -5.0721   -0.9650   -1.4376 H   0  0  0  0  0  0  0  0  0  0  0  0
   -3.2537    0.2499   -1.2089 C   0  0  0  0  0  0  0  0  0  0  0  0
   -2.8420   -0.0265   -2.1998 H   0  0  0  0  0  0  0  0  0  0  0  0
   -2.9792    1.3027   -1.0038 H   0  0  0  0  0  0  0  0  0  0  0  0
    5.9920    1.5677   -0.0828 C   0  0  0  0  0  0  0  0  0  0  0  0
    5.4925    2.0206   -0.9673 H   0  0  0  0  0  0  0  0  0  0  0  0
    7.0733    1.7949   -0.1183 H   0  0  0  0  0  0  0  0  0  0  0  0
    5.5537    2.0122    0.8378 H   0  0  0  0  0  0  0  0  0  0  0  0
  2 35  1  0  0  0  0
  2 10  1  0  0  0  0
  3 26  1  0  0  0  0
  4 15  1  0  0  0  0
  4 17  1  0  0  0  0
  5 23  1  0  0  0  0
  6  7  1  0  0  0  0
  6 15  2  0  0  0  0
  7  1  1  0  0  0  0
  8  9  1  0  0  0  0
  8  7  2  0  0  0  0
 10  8  1  0  0  0  0
 11 10  2  0  0  0  0
 11 13  1  0  0  0  0
 12 11  1  0  0  0  0
 13 14  1  0  0  0  0
 13  6  1  0  0  0  0
 15 16  1  0  0  0  0
 17 18  1  0  0  0  0
 19 17  1  0  0  0  0
 20 22  1  0  0  0  0
 20  5  1  0  0  0  0
 20 17  1  0  0  0  0
 21 20  1  0  0  0  0
 23 24  1  0  0  0  0
 23 25  1  0  0  0  0
 26 23  1  0  0  0  0
 26 28  1  0  0  0  0
 27 26  1  0  0  0  0
 29  3  1  0  0  0  0
 30 29  1  0  0  0  0
 31 29  1  0  0  0  0
 32 29  1  0  0  0  0
 32 34  1  0  0  0  0
 32  5  1  0  0  0  0
 33 32  1  0  0  0  0
 35 38  1  0  0  0  0
 36 35  1  0  0  0  0
 37 35  1  0  0  0  0
M  CHG  1   1  -1
M  END
