1,5,8
q = -1.0

 28 28  0  0  1  0  0  0  0  0999 V2000
    0.1462   -0.6005    1.8451 N   0  0  0  0  0  2  0  0  0  0  0  0
    0.9113    0.5640    2.1989 C   0  0  0  0  0  0  0  0  0  0  0  0
    1.6149    1.0800    0.9117 C   0  0  0  0  0  0  0  0  0  0  0  0
    2.3319    2.0787    0.8942 O   0  0  0  0  0  0  0  0  0  0  0  0
    1.2095    0.3252   -0.1560 N   0  0  0  0  0  2  0  0  0  0  0  0
    1.6115    0.6693   -1.4987 C   0  0  2  0  0  0  0  0  0  0  0  0
    0.3699    0.4516   -2.3891 C   0  0  0  0  0  0  0  0  0  0  0  0
   -0.5293   -0.3199   -1.7754 O   0  5  0  0  0  0  0  0  0  0  0  0
    0.2606    0.8824   -3.5225 O   0  0  0  0  0  0  0  0  0  0  0  0
    2.7624   -0.2469   -2.0102 C   0  0  0  0  0  0  0  0  0  0  0  0
    3.9150   -0.3075   -1.0425 C   0  0  0  0  0  0  0  0  0  0  0  0
    3.9147   -1.2528    0.0025 C   0  0  0  0  0  0  0  0  0  0  0  0
    4.9380   -1.2749    0.9608 C   0  0  0  0  0  0  0  0  0  0  0  0
    7.0153   -0.3194    1.7953 O   0  0  0  0  0  0  0  0  0  0  0  0
    5.9909   -0.3421    0.8930 C   0  0  0  0  0  0  0  0  0  0  0  0
    6.0035    0.6095   -0.1451 C   0  0  0  0  0  0  0  0  0  0  0  0
    4.9733    0.6218   -1.0908 C   0  0  0  0  0  0  0  0  0  0  0  0
    0.5042   -1.4537    2.2898 H   0  0  0  0  0  0  0  0  0  0  0  0
    1.6680    0.3815    2.9906 H   0  0  0  0  0  0  0  0  0  0  0  0
    0.2720    1.4038    2.5566 H   0  0  0  0  0  0  0  0  0  0  0  0
    1.9418    1.7286   -1.5520 H   0  0  0  0  0  0  0  0  0  0  0  0
    2.3451   -1.2645   -2.1578 H   0  0  0  0  0  0  0  0  0  0  0  0
    3.0766    0.1314   -3.0035 H   0  0  0  0  0  0  0  0  0  0  0  0
    3.0901   -1.9800    0.0678 H   0  0  0  0  0  0  0  0  0  0  0  0
    4.9254   -2.0266    1.7686 H   0  0  0  0  0  0  0  0  0  0  0  0
    6.8629   -1.0331    2.4416 H   0  0  0  0  0  0  0  0  0  0  0  0
    6.8293    1.3343   -0.1871 H   0  0  0  0  0  0  0  0  0  0  0  0
    4.9881    1.3794   -1.8904 H   0  0  0  0  0  0  0  0  0  0  0  0
  1  2  1  0  0  0  0
  1 18  1  0  0  0  0
  2 20  1  0  0  0  0
  2 19  1  0  0  0  0
  3  2  1  0  0  0  0
  4  3  2  0  0  0  0
  5  3  1  0  0  0  0
  6 21  1  6  0  0  0
  6  5  1  0  0  0  0
  7  8  1  0  0  0  0
  7  6  1  0  0  0  0
  9  7  2  0  0  0  0
 10  6  1  0  0  0  0
 10 11  1  0  0  0  0
 11 12  1  0  0  0  0
 12 24  1  0  0  0  0
 12 13  2  0  0  0  0
 13 25  1  0  0  0  0
 14 26  1  0  0  0  0
 15 13  1  0  0  0  0
 15 14  1  0  0  0  0
 16 15  2  0  0  0  0
 17 11  2  0  0  0  0
 17 16  1  0  0  0  0
 22 10  1  0  0  0  0
 23 10  1  0  0  0  0
 27 16  1  0  0  0  0
 28 17  1  0  0  0  0
M  CHG  1   8  -1
M  END
