1,4,8
q = -2.0, confidence = 0.934

 32 33  0  0  1  0  0  0  0  0999 V2000
   -0.7355    0.0829   -2.1055 N   0  0  0  0  0  0  0  0  0  0  0  0
    0.1917   -0.3610   -2.0744 H   0  0  0  0  0  0  0  0  0  0  0  0
    0.6835   -3.5899    0.2262 N   0  0  0  0  0  0  0  0  0  0  0  0
   -1.1146   -2.2292   -0.0972 N   0  0  0  0  0  0  0  0  0  0  0  0
    2.2437    1.8832   -2.6229 O   0  0  0  0  0  0  0  0  0  0  0  0
    2.9316    2.4754   -2.9849 H   0  0  0  0  0  0  0  0  0  0  0  0
   -3.9333   -0.7422   -3.5506 O   0  5  0  0  0  0  0  0  0  0  0  0
   -3.4792    0.0642   -1.4935 O   0  0  0  0  0  0  0  0  0  0  0  0
    1.4845    2.5953   -1.6926 C   0  0  0  0  0  0  0  0  0  0  0  0
    2.1146    3.4470   -0.7674 C   0  0  0  0  0  0  0  0  0  0  0  0
    3.2089    3.5648   -0.7958 H   0  0  0  0  0  0  0  0  0  0  0  0
    1.3490    4.1058    0.2047 C   0  0  0  0  0  0  0  0  0  0  0  0
    1.8450    4.7651    0.9323 H   0  0  0  0  0  0  0  0  0  0  0  0
   -0.0407    3.9160    0.2540 C   0  0  0  0  0  0  0  0  0  0  0  0
   -0.6503    4.4022    1.0285 H   0  0  0  0  0  0  0  0  0  0  0  0
   -0.6520    3.0638   -0.6761 C   0  0  0  0  0  0  0  0  0  0  0  0
   -1.7437    2.9275   -0.6545 H   0  0  0  0  0  0  0  0  0  0  0  0
    0.0883    2.3810   -1.6652 C   0  0  0  0  0  0  0  0  0  0  0  0
   -0.6145    1.4562   -2.6342 C   0  0  0  0  0  0  0  0  0  0  0  0
   -1.6452    1.8292   -2.7961 H   0  0  0  0  0  0  0  0  0  0  0  0
   -0.0975    1.4608   -3.6198 H   0  0  0  0  0  0  0  0  0  0  0  0
   -1.6384   -0.7792   -2.8989 C   0  0  2  0  0  0  0  0  0  0  0  0
   -1.5022   -0.5880   -3.9863 H   0  0  0  0  0  0  0  0  0  0  0  0
   -3.1547   -0.4587   -2.6468 C   0  0  0  0  0  0  0  0  0  0  0  0
   -1.3310   -2.2903   -2.6499 C   0  0  0  0  0  0  0  0  0  0  0  0
   -2.2876   -2.8363   -2.7962 H   0  0  0  0  0  0  0  0  0  0  0  0
   -0.6574   -2.6568   -3.4512 H   0  0  0  0  0  0  0  0  0  0  0  0
   -0.6875   -2.6631   -1.3421 C   0  0  0  0  0  0  0  0  0  0  0  0
    0.4137   -3.5029   -1.1187 C   0  0  0  0  0  0  0  0  0  0  0  0
    1.0133   -4.0416   -1.8659 H   0  0  0  0  0  0  0  0  0  0  0  0
   -0.2593   -2.8147    0.7939 C   0  0  0  0  0  3  0  0  0  0  0  0
   -0.3990   -2.7240    1.8807 H   0  0  0  0  0  0  0  0  0  0  0  0
  1  2  1  0  0  0  0
  3 31  1  0  0  0  0
  4 31  1  0  0  0  0
  5  9  1  0  0  0  0
  6  5  1  0  0  0  0
  7 24  1  0  0  0  0
  9 18  2  0  0  0  0
  9 10  1  0  0  0  0
 10 12  2  0  0  0  0
 11 10  1  0  0  0  0
 12 14  1  0  0  0  0
 12 13  1  0  0  0  0
 14 15  1  0  0  0  0
 16 17  1  0  0  0  0
 16 14  2  0  0  0  0
 18 16  1  0  0  0  0
 19  1  1  0  0  0  0
 19 18  1  0  0  0  0
 20 19  1  0  0  0  0
 21 19  1  0  0  0  0
 22 23  1  6  0  0  0
 22 25  1  0  0  0  0
 22 24  1  0  0  0  0
 22  1  1  0  0  0  0
 24  8  2  0  0  0  0
 25 28  1  0  0  0  0
 26 25  1  0  0  0  0
 27 25  1  0  0  0  0
 28 29  1  0  0  0  0
 28  4  2  0  0  0  0
 29  3  2  0  0  0  0
 30 29  1  0  0  0  0
 31 32  1  0  0  0  0
M  CHG  1   7  -1
M  END
