2,4,5
q = -1.0, confidence = 0.01

 26 27  0  0  1  0  0  0  0  0999 V2000
   -5.3688   -1.9319   -1.4490 Cl  0  0  0  0  0  0  0  0  0  0  0  0
   -2.2852    0.3362   -0.3117 N   0  0  0  0  0  2  0  0  0  0  0  0
   -1.9773    2.3281    0.8419 N   0  0  0  0  0  0  0  0  0  0  0  0
   -0.6653    1.9832    1.0008 N   0  0  0  0  0  2  0  0  0  0  0  0
   -0.8507   -1.5420   -1.6282 O   0  5  0  0  0  0  0  0  0  0  0  0
   -2.6139   -2.9591   -1.5196 O   0  0  0  0  0  0  0  0  0  0  0  0
   -2.0758   -1.8540   -1.4008 C   0  0  0  0  0  0  0  0  0  0  0  0
   -2.9580   -0.7028   -0.8351 C   0  0  1  0  0  3  0  0  0  0  0  0
   -4.3725   -0.7011   -0.7555 C   0  0  0  0  0  0  0  0  0  0  0  0
   -5.0095    0.3593   -0.0827 C   0  0  0  0  0  0  0  0  0  0  0  0
   -6.1059    0.3527   -0.0002 H   0  0  0  0  0  0  0  0  0  0  0  0
   -4.2658    1.3921    0.4961 C   0  0  0  0  0  0  0  0  0  0  0  0
   -4.7667    2.1819    1.0653 H   0  0  0  0  0  0  0  0  0  0  0  0
   -2.8688    1.3496    0.3350 C   0  0  0  0  0  0  0  0  0  0  0  0
   -3.4876    4.3892    1.0248 C   0  0  0  0  0  0  0  0  0  0  0  0
   -3.9870    4.1924    0.0548 H   0  0  0  0  0  0  0  0  0  0  0  0
   -3.2991    5.4762    1.0953 H   0  0  0  0  0  0  0  0  0  0  0  0
   -4.2004    4.1256    1.8343 H   0  0  0  0  0  0  0  0  0  0  0  0
   -2.1871    3.6656    1.1442 C   0  0  2  0  0  3  0  0  0  0  0  0
   -0.9451    4.1650    1.5168 C   0  0  0  0  0  0  0  0  0  0  0  0
   -0.7278    5.1965    1.8138 H   0  0  0  0  0  0  0  0  0  0  0  0
   -0.0246    3.0852    1.4050 C   0  0  0  0  0  0  0  0  0  0  0  0
    1.4489    3.0881    1.6396 C   0  0  0  0  0  0  0  0  0  0  0  0
    1.7092    3.7067    2.5202 H   0  0  0  0  0  0  0  0  0  0  0  0
    1.9868    3.4985    0.7586 H   0  0  0  0  0  0  0  0  0  0  0  0
    1.8185    2.0588    1.8058 H   0  0  0  0  0  0  0  0  0  0  0  0
  1  9  1  0  0  0  0
  2 14  1  0  0  0  0
  3  4  1  0  0  0  0
  3 19  1  0  0  0  0
  4 22  1  0  0  0  0
  5  7  1  0  0  0  0
  6  7  2  0  0  0  0
  8  7  1  1  0  0  0
  8  9  1  0  0  0  0
  8  2  1  0  0  0  0
  9 10  2  0  0  0  0
 10 11  1  0  0  0  0
 10 12  1  0  0  0  0
 12 13  1  0  0  0  0
 14 12  2  0  0  0  0
 14  3  1  0  0  0  0
 15 17  1  0  0  0  0
 15 18  1  0  0  0  0
 16 15  1  0  0  0  0
 19 15  1  6  0  0  0
 19 20  1  0  0  0  0
 20 21  1  0  0  0  0
 22 20  2  0  0  0  0
 22 23  1  0  0  0  0
 23 26  1  0  0  0  0
 23 24  1  0  0  0  0
 25 23  1  0  0  0  0
M  CHG  1   5  -1
M  END
