1,3,4
q = -1.0

 36 36  0  0  0  0  0  0  0  0999 V2000
    1.1444   -0.7526    0.7523 O   0  5  0  0  0  0  0  0  0  0  0  0
    3.3824   -0.8004    2.0719 O   0  0  0  0  0  0  0  0  0  0  0  0
   -0.2555   -1.5041   -1.7082 N   0  0  0  0  0  2  0  0  0  0  0  0
   -1.4659   -2.4680    0.7959 N   0  0  0  0  0  0  0  0  0  0  0  0
    2.1712   -1.1649    0.0823 C   0  0  0  0  0  0  0  0  0  0  0  0
    3.4541   -1.1899    0.7665 C   0  0  0  0  0  0  0  0  0  0  0  0
    4.6237   -1.5752    0.1145 C   0  0  0  0  0  0  0  0  0  0  0  0
    5.5831   -1.5631    0.6503 H   0  0  0  0  0  0  0  0  0  0  0  0
    4.5946   -1.9891   -1.2429 C   0  0  0  0  0  0  0  0  0  0  0  0
    5.5285   -2.2886   -1.7399 H   0  0  0  0  0  0  0  0  0  0  0  0
    3.3875   -2.0344   -1.9171 C   0  0  0  0  0  0  0  0  0  0  0  0
    3.3459   -2.3887   -2.9596 H   0  0  0  0  0  0  0  0  0  0  0  0
    2.1644   -1.6397   -1.2890 C   0  0  0  0  0  0  0  0  0  0  0  0
    0.9521   -1.8655   -2.0396 C   0  0  0  0  0  3  0  0  0  0  0  0
    1.0794   -2.4527   -2.9805 H   0  0  0  0  0  0  0  0  0  0  0  0
    4.5404   -0.9449    2.8662 C   0  0  0  0  0  0  0  0  0  0  0  0
    4.2578   -0.6444    3.8927 H   0  0  0  0  0  0  0  0  0  0  0  0
    5.3739   -0.2927    2.5191 H   0  0  0  0  0  0  0  0  0  0  0  0
    4.9014   -1.9989    2.8795 H   0  0  0  0  0  0  0  0  0  0  0  0
   -1.4074   -2.0531   -2.3968 C   0  0  0  0  0  0  0  0  0  0  0  0
   -1.1349   -2.4155   -3.4167 H   0  0  0  0  0  0  0  0  0  0  0  0
   -2.1665   -1.2492   -2.5115 H   0  0  0  0  0  0  0  0  0  0  0  0
   -2.0140   -3.2215   -1.5942 C   0  0  0  0  0  0  0  0  0  0  0  0
   -2.8958   -3.5977   -2.1549 H   0  0  0  0  0  0  0  0  0  0  0  0
   -1.2827   -4.0581   -1.5840 H   0  0  0  0  0  0  0  0  0  0  0  0
   -2.4955   -2.9115   -0.1704 C   0  0  0  0  0  0  0  0  0  0  0  0
   -3.2573   -2.1053   -0.1938 H   0  0  0  0  0  0  0  0  0  0  0  0
   -2.9982   -3.8320    0.2253 H   0  0  0  0  0  0  0  0  0  0  0  0
   -2.0994   -2.2180    2.0985 C   0  0  0  0  0  0  0  0  0  0  0  0
   -2.5245   -3.1580    2.5310 H   0  0  0  0  0  0  0  0  0  0  0  0
   -2.9001   -1.4664    1.9729 H   0  0  0  0  0  0  0  0  0  0  0  0
   -1.3419   -1.8226    2.8037 H   0  0  0  0  0  0  0  0  0  0  0  0
   -0.3704   -3.4267    0.9513 C   0  0  0  0  0  0  0  0  0  0  0  0
   -0.7387   -4.4242    1.2974 H   0  0  0  0  0  0  0  0  0  0  0  0
    0.3506   -3.0288    1.6895 H   0  0  0  0  0  0  0  0  0  0  0  0
    0.1764   -3.5617    0.0004 H   0  0  0  0  0  0  0  0  0  0  0  0
  2 16  1  0  0  0  0
  4 33  1  0  0  0  0
  4 29  1  0  0  0  0
  5  1  1  0  0  0  0
  5  6  1  0  0  0  0
  6  2  1  0  0  0  0
  7  8  1  0  0  0  0
  7  6  2  0  0  0  0
  9  7  1  0  0  0  0
 10  9  1  0  0  0  0
 11 13  1  0  0  0  0
 11  9  2  0  0  0  0
 12 11  1  0  0  0  0
 13  5  2  0  0  0  0
 14  3  1  0  0  0  0
 14 13  1  0  0  0  0
 15 14  1  0  0  0  0
 16 19  1  0  0  0  0
 16 17  1  0  0  0  0
 18 16  1  0  0  0  0
 20  3  1  0  0  0  0
 20 23  1  0  0  0  0
 21 20  1  0  0  0  0
 22 20  1  0  0  0  0
 23 25  1  0  0  0  0
 23 26  1  0  0  0  0
 24 23  1  0  0  0  0
 26 28  1  0  0  0  0
 26  4  1  0  0  0  0
 27 26  1  0  0  0  0
 29 30  1  0  0  0  0
 29 32  1  0  0  0  0
 31 29  1  0  0  0  0
 33 34  1  0  0  0  0
 33 35  1  0  0  0  0
 36 33  1  0  0  0  0
M  CHG  1   1  -1
M  END
