1,2,3
q = -1.0

 36 36  0  0  0  0  0  0  0  0999 V2000
    1.3956    0.7213   -1.7124 N   0  0  0  0  0  2  0  0  0  0  0  0
    2.5548   -1.4802   -0.7337 N   0  0  0  0  0  0  0  0  0  0  0  0
   -0.0324    1.1480    0.6506 O   0  5  0  0  0  0  0  0  0  0  0  0
   -3.9808    3.7849    0.2701 O   0  0  0  0  0  0  0  0  0  0  0  0
   -0.6043    2.1002   -1.5153 C   0  0  0  0  0  0  0  0  0  0  0  0
   -0.8418    1.8406   -0.1152 C   0  0  0  0  0  0  0  0  0  0  0  0
   -1.9904    2.4095    0.4955 C   0  0  0  0  0  0  0  0  0  0  0  0
   -2.1513    2.1823    1.5562 H   0  0  0  0  0  0  0  0  0  0  0  0
   -2.8695    3.2179   -0.2389 C   0  0  0  0  0  0  0  0  0  0  0  0
   -2.6299    3.4851   -1.6201 C   0  0  0  0  0  0  0  0  0  0  0  0
   -3.3417    4.1204   -2.1635 H   0  0  0  0  0  0  0  0  0  0  0  0
   -1.5224    2.9311   -2.2274 C   0  0  0  0  0  0  0  0  0  0  0  0
   -1.3336    3.1242   -3.2951 H   0  0  0  0  0  0  0  0  0  0  0  0
    0.5028    1.5414   -2.2124 C   0  0  0  0  0  3  0  0  0  0  0  0
    0.6071    1.8183   -3.2815 H   0  0  0  0  0  0  0  0  0  0  0  0
    2.3941    0.0853   -2.5563 C   0  0  0  0  0  0  0  0  0  0  0  0
    3.4074    0.5110   -2.3508 H   0  0  0  0  0  0  0  0  0  0  0  0
    2.1901    0.2460   -3.6358 H   0  0  0  0  0  0  0  0  0  0  0  0
    2.3822   -1.3972   -2.2063 C   0  0  0  0  0  0  0  0  0  0  0  0
    1.3931   -1.8265   -2.4507 H   0  0  0  0  0  0  0  0  0  0  0  0
    3.1743   -1.9557   -2.7484 H   0  0  0  0  0  0  0  0  0  0  0  0
    2.6429   -2.8734   -0.1590 C   0  0  0  0  0  0  0  0  0  0  0  0
    2.5442   -2.7255    0.9356 H   0  0  0  0  0  0  0  0  0  0  0  0
    4.0220   -3.4771   -0.4443 C   0  0  0  0  0  0  0  0  0  0  0  0
    4.1766   -3.6677   -1.5259 H   0  0  0  0  0  0  0  0  0  0  0  0
    4.1242   -4.4491    0.0763 H   0  0  0  0  0  0  0  0  0  0  0  0
    4.8447   -2.8235   -0.0835 H   0  0  0  0  0  0  0  0  0  0  0  0
    1.5088   -3.7852   -0.6136 C   0  0  0  0  0  0  0  0  0  0  0  0
    0.5197   -3.3366   -0.4216 H   0  0  0  0  0  0  0  0  0  0  0  0
    1.5727   -4.7392   -0.0557 H   0  0  0  0  0  0  0  0  0  0  0  0
    1.5824   -4.0312   -1.6917 H   0  0  0  0  0  0  0  0  0  0  0  0
   -4.3049    3.5657    1.6363 C   0  0  0  0  0  0  0  0  0  0  0  0
   -4.4647    2.4861    1.8473 H   0  0  0  0  0  0  0  0  0  0  0  0
   -5.2432    4.1177    1.8243 H   0  0  0  0  0  0  0  0  0  0  0  0
   -3.5103    3.9539    2.3099 H   0  0  0  0  0  0  0  0  0  0  0  0
    3.4827   -1.0672   -0.5420 H   0  0  0  0  0  0  0  0  0  0  0  0
  2 36  1  0  0  0  0
  2 22  1  0  0  0  0
  4 32  1  0  0  0  0
  5  6  1  0  0  0  0
  6  7  2  0  0  0  0
  6  3  1  0  0  0  0
  7  8  1  0  0  0  0
  9  4  1  0  0  0  0
  9  7  1  0  0  0  0
 10  9  2  0  0  0  0
 11 10  1  0  0  0  0
 12 10  1  0  0  0  0
 12  5  2  0  0  0  0
 13 12  1  0  0  0  0
 14  1  1  0  0  0  0
 14  5  1  0  0  0  0
 15 14  1  0  0  0  0
 16 17  1  0  0  0  0
 16 19  1  0  0  0  0
 16  1  1  0  0  0  0
 18 16  1  0  0  0  0
 19  2  1  0  0  0  0
 20 19  1  0  0  0  0
 21 19  1  0  0  0  0
 22 23  1  0  0  0  0
 24 22  1  0  0  0  0
 24 27  1  0  0  0  0
 24 26  1  0  0  0  0
 25 24  1  0  0  0  0
 28 29  1  0  0  0  0
 28 22  1  0  0  0  0
 28 30  1  0  0  0  0
 31 28  1  0  0  0  0
 32 34  1  0  0  0  0
 32 33  1  0  0  0  0
 32 35  1  0  0  0  0
M  CHG  1   3  -1
M  END
