1,2,4
q = -1.0

 29 30  0  0  0  0  0  0  0  0999 V2000
   -0.0935   -0.2873   -2.2021 O   0  5  0  0  0  0  0  0  0  0  0  0
   -0.0359    2.7690   -0.0377 N   0  0  0  0  0  2  0  0  0  0  0  0
   -2.1804    1.8290    0.0614 N   0  0  0  0  0  2  0  0  0  0  0  0
   -1.5395    0.9682   -0.6851 N   0  0  0  0  0  2  0  0  0  0  0  0
   -1.2525   -0.8426   -2.0247 N   0  0  0  0  0  0  0  0  0  0  0  0
    0.8497    3.7268    0.3042 C   0  0  0  0  0  3  0  0  0  0  0  0
    1.8524    3.6250   -0.1385 H   0  0  0  0  0  0  0  0  0  0  0  0
    0.5060    4.7869    1.1438 C   0  0  0  0  0  0  0  0  0  0  0  0
    1.2526    5.5571    1.3809 H   0  0  0  0  0  0  0  0  0  0  0  0
   -0.8048    4.8459    1.6671 C   0  0  0  0  0  0  0  0  0  0  0  0
   -1.0974    5.6666    2.3387 H   0  0  0  0  0  0  0  0  0  0  0  0
   -1.7269    3.8590    1.3287 C   0  0  0  0  0  0  0  0  0  0  0  0
   -2.7562    3.8576    1.7114 H   0  0  0  0  0  0  0  0  0  0  0  0
   -1.3305    2.8126    0.4619 C   0  0  0  0  0  0  0  0  0  0  0  0
   -2.0986   -0.1896   -1.2270 C   0  0  0  0  0  0  0  0  0  0  0  0
   -3.4251   -0.7535   -0.9290 C   0  0  0  0  0  0  0  0  0  0  0  0
   -4.4302   -0.0590   -0.2206 C   0  0  0  0  0  0  0  0  0  0  0  0
   -4.2393    0.9700    0.1065 H   0  0  0  0  0  0  0  0  0  0  0  0
   -5.6517   -0.6831    0.0712 C   0  0  0  0  0  0  0  0  0  0  0  0
   -6.4194   -0.1207    0.6265 H   0  0  0  0  0  0  0  0  0  0  0  0
   -5.9237   -2.0044   -0.3284 C   0  0  0  0  0  0  0  0  0  0  0  0
   -7.2412   -2.6693   -0.0229 C   0  0  0  0  0  0  0  0  0  0  0  0
   -7.8700   -2.0467    0.6426 H   0  0  0  0  0  0  0  0  0  0  0  0
   -7.0953   -3.6550    0.4659 H   0  0  0  0  0  0  0  0  0  0  0  0
   -7.8201   -2.8583   -0.9520 H   0  0  0  0  0  0  0  0  0  0  0  0
   -4.9162   -2.6891   -1.0451 C   0  0  0  0  0  0  0  0  0  0  0  0
   -5.0958   -3.7255   -1.3736 H   0  0  0  0  0  0  0  0  0  0  0  0
   -3.6952   -2.0834   -1.3415 C   0  0  0  0  0  0  0  0  0  0  0  0
   -2.9160   -2.6316   -1.8893 H   0  0  0  0  0  0  0  0  0  0  0  0
  1  5  1  0  0  0  0
  2  6  1  0  0  0  0
  2 14  1  0  0  0  0
  3 14  1  0  0  0  0
  4  3  1  0  0  0  0
  5 15  2  0  0  0  0
  6  8  1  0  0  0  0
  7  6  1  0  0  0  0
  8  9  1  0  0  0  0
  8 10  2  0  0  0  0
 10 11  1  0  0  0  0
 12 10  1  0  0  0  0
 12 13  1  0  0  0  0
 14 12  2  0  0  0  0
 15 16  1  0  0  0  0
 15  4  1  0  0  0  0
 16 17  1  0  0  0  0
 17 19  2  0  0  0  0
 17 18  1  0  0  0  0
 19 20  1  0  0  0  0
 21 22  1  0  0  0  0
 21 19  1  0  0  0  0
 22 24  1  0  0  0  0
 22 23  1  0  0  0  0
 25 22  1  0  0  0  0
 26 21  2  0  0  0  0
 27 26  1  0  0  0  0
 28 26  1  0  0  0  0
 28 16  2  0  0  0  0
 29 28  1  0  0  0  0
M  CHG  1   1  -1
M  END
