1,9,12
q = -1.0

 28 28  0  0  1  0  0  0  0  0999 V2000
    0.6584    0.8271   -1.3723 O   0  5  0  0  0  0  0  0  0  0  0  0
    1.6559    0.3064   -0.7510 C   0  0  0  0  0  0  0  0  0  0  0  0
    2.8163    1.1238   -0.5552 C   0  0  1  0  0  3  0  0  0  0  0  0
    3.9011    0.5850    0.0550 N   0  0  0  0  0  0  0  0  0  0  0  0
    3.9605   -0.6942    0.5267 C   0  0  0  0  0  0  0  0  0  0  0  0
    2.8690   -1.5387    0.3943 C   0  0  0  0  0  0  0  0  0  0  0  0
    1.6829   -1.0613   -0.2561 C   0  0  0  0  0  0  0  0  0  0  0  0
    0.5533   -1.9200   -0.4059 C   0  0  0  0  0  3  0  0  0  0  0  0
   -0.6722   -1.4837   -0.6939 N   0  0  0  0  0  2  0  0  0  0  0  0
   -1.6485   -2.3104   -0.9247 N   0  0  0  0  0  2  0  0  0  0  0  0
   -2.8768   -1.6673   -0.8809 C   0  0  1  0  0  3  0  0  0  0  0  0
   -2.9234   -0.3587   -1.0398 N   0  0  0  0  0  2  0  0  0  0  0  0
   -3.9504   -2.5015   -0.7562 N   0  0  0  0  0  0  0  0  0  0  0  0
    2.9442   -2.9213    1.0105 C   0  0  0  0  0  0  0  0  0  0  0  0
    2.6675   -3.9824    0.1123 O   0  0  0  0  0  0  0  0  0  0  0  0
    2.8435    2.5349   -1.0285 C   0  0  0  0  0  0  0  0  0  0  0  0
    4.8917   -0.9917    1.0265 H   0  0  0  0  0  0  0  0  0  0  0  0
    0.6618   -2.9984   -0.2088 H   0  0  0  0  0  0  0  0  0  0  0  0
    3.9378   -3.0429    1.5055 H   0  0  0  0  0  0  0  0  0  0  0  0
    2.1762   -2.9964    1.8103 H   0  0  0  0  0  0  0  0  0  0  0  0
    3.8267    3.0152   -0.8567 H   0  0  0  0  0  0  0  0  0  0  0  0
    2.0531    3.1289   -0.5176 H   0  0  0  0  0  0  0  0  0  0  0  0
    2.5970    2.5797   -2.1088 H   0  0  0  0  0  0  0  0  0  0  0  0
   -4.7784   -2.0839   -0.3274 H   0  0  0  0  0  0  0  0  0  0  0  0
   -3.7185   -3.4191   -0.3700 H   0  0  0  0  0  0  0  0  0  0  0  0
   -3.8395    0.0789   -0.8941 H   0  0  0  0  0  0  0  0  0  0  0  0
    4.7191    1.1895    0.1777 H   0  0  0  0  0  0  0  0  0  0  0  0
    3.2495   -3.8748   -0.6631 H   0  0  0  0  0  0  0  0  0  0  0  0
  1  2  1  0  0  0  0
  2  3  1  0  0  0  0
  2  7  2  0  0  0  0
  3 16  1  6  0  0  0
  3  4  1  0  0  0  0
  4 27  1  0  0  0  0
  4  5  1  0  0  0  0
  5 17  1  0  0  0  0
  6  5  2  0  0  0  0
  6 14  1  0  0  0  0
  7  6  1  0  0  0  0
  8  7  1  0  0  0  0
  8 18  1  0  0  0  0
  9  8  1  0  0  0  0
 10 11  1  0  0  0  0
 10  9  1  0  0  0  0
 11 12  1  6  0  0  0
 11 13  1  0  0  0  0
 12 26  1  0  0  0  0
 13 25  1  0  0  0  0
 13 24  1  0  0  0  0
 14 19  1  0  0  0  0
 14 20  1  0  0  0  0
 15 14  1  0  0  0  0
 16 21  1  0  0  0  0
 16 22  1  0  0  0  0
 23 16  1  0  0  0  0
 28 15  1  0  0  0  0
M  CHG  1   1  -1
M  END
