2,5,6
q = -1.0

 27 28  0  0  1  0  0  0  0  0999 V2000
   -3.5053    0.5294   -2.1604 O   0  0  0  0  0  0  0  0  0  0  0  0
    0.6163    2.8052   -1.5424 O   0  0  0  0  0  1  0  0  0  0  0  0
   -1.3692    2.1177   -2.3936 N   0  0  0  0  0  0  0  0  0  0  0  0
   -2.1699    2.1539   -3.0407 H   0  0  0  0  0  0  0  0  0  0  0  0
   -1.4585   -0.3229    0.6718 N   0  0  0  0  0  2  0  0  0  0  0  0
   -1.4503    1.2140   -1.3853 N   0  0  0  0  0  2  0  0  0  0  0  0
   -0.2742    2.9211   -2.4149 C   0  0  2  0  0  3  0  0  0  0  0  0
   -2.5237   -0.4653   -0.1287 C   0  0  0  0  0  0  0  0  0  0  0  0
   -2.5696    0.4653   -1.3328 C   0  0  0  0  0  0  0  0  0  0  0  0
   -3.5404   -1.4421    0.1502 C   0  0  0  0  0  0  0  0  0  0  0  0
   -3.3690   -2.2687    1.3237 C   0  0  0  0  0  0  0  0  0  0  0  0
   -0.1932    3.9353   -3.5257 C   0  0  0  0  0  0  0  0  0  0  0  0
   -0.1340    4.9511   -3.0865 H   0  0  0  0  0  0  0  0  0  0  0  0
   -1.0569    3.8878   -4.2165 H   0  0  0  0  0  0  0  0  0  0  0  0
    0.7418    3.7758   -4.0987 H   0  0  0  0  0  0  0  0  0  0  0  0
   -4.6959   -1.6331   -0.6672 C   0  0  0  0  0  3  0  0  0  0  0  0
   -4.8023   -0.9868   -1.5491 H   0  0  0  0  0  0  0  0  0  0  0  0
   -4.3543   -3.2511    1.6326 C   0  0  0  0  0  0  0  0  0  0  0  0
   -4.2161   -3.8763    2.5281 H   0  0  0  0  0  0  0  0  0  0  0  0
   -1.2983   -1.0982    1.7702 C   0  0  0  0  0  0  0  0  0  0  0  0
   -0.3858   -0.9050    2.3581 H   0  0  0  0  0  0  0  0  0  0  0  0
   -2.2150   -2.0708    2.1308 C   0  0  0  0  0  0  0  0  0  0  0  0
   -2.0571   -2.6854    3.0296 H   0  0  0  0  0  0  0  0  0  0  0  0
   -5.4641   -3.4128    0.8184 C   0  0  0  0  0  0  0  0  0  0  0  0
   -6.2201   -4.1741    1.0650 H   0  0  0  0  0  0  0  0  0  0  0  0
   -5.6335   -2.5997   -0.3347 C   0  0  0  0  0  0  0  0  0  0  0  0
   -6.5211   -2.7384   -0.9704 H   0  0  0  0  0  0  0  0  0  0  0  0
  1  9  2  0  0  0  0
  3  6  1  0  0  0  0
  4  3  1  0  0  0  0
  5 20  1  0  0  0  0
  6  9  1  0  0  0  0
  7  3  1  0  0  0  0
  7  2  1  6  0  0  0
  8 10  2  0  0  0  0
  8  5  1  0  0  0  0
  9  8  1  0  0  0  0
 10 11  1  0  0  0  0
 11 18  2  0  0  0  0
 11 22  1  0  0  0  0
 12 13  1  0  0  0  0
 12  7  1  0  0  0  0
 14 12  1  0  0  0  0
 15 12  1  0  0  0  0
 16 26  1  0  0  0  0
 16 10  1  0  0  0  0
 17 16  1  0  0  0  0
 18 19  1  0  0  0  0
 20 22  2  0  0  0  0
 20 21  1  0  0  0  0
 22 23  1  0  0  0  0
 24 25  1  0  0  0  0
 24 18  1  0  0  0  0
 26 24  2  0  0  0  0
 27 26  1  0  0  0  0
M  END
