1,5
q = -1.0, confidence = 0.082

 49 50  0  0  1  0  0  0  0  0999 V2000
   -0.6746    1.1558   -0.3199 O   0  5  0  0  0  0  0  0  0  0  0  0
   -2.7794    1.9248   -0.4742 O   0  0  0  0  0  0  0  0  0  0  0  0
   -4.2811   -1.8027    0.6348 O   0  0  0  0  0  0  0  0  0  0  0  0
   -4.7497    0.3875    0.2907 O   0  0  0  0  0  0  0  0  0  0  0  0
    0.0246   -1.5297   -1.3456 N   0  0  0  0  0  2  0  0  0  0  0  0
   -0.3359   -1.1905    1.3825 N   0  0  0  0  0  0  0  0  0  0  0  0
   -1.5416   -1.4736    0.5429 C   0  0  1  0  0  0  0  0  0  0  0  0
   -2.1714   -2.2462    1.0358 H   0  0  0  0  0  0  0  0  0  0  0  0
   -2.4697   -0.2964    0.2993 C   0  0  0  0  0  0  0  0  0  0  0  0
   -1.1345   -1.9942   -0.8226 C   0  0  1  0  0  3  0  0  0  0  0  0
   -1.9864   -2.8354   -1.5671 C   0  0  0  0  0  0  0  0  0  0  0  0
   -2.9276   -3.1694   -1.1060 H   0  0  0  0  0  0  0  0  0  0  0  0
   -1.6219   -3.1791   -2.8699 C   0  0  0  0  0  0  0  0  0  0  0  0
   -2.2674   -3.8383   -3.4700 H   0  0  0  0  0  0  0  0  0  0  0  0
   -0.4242   -2.6709   -3.4118 C   0  0  0  0  0  0  0  0  0  0  0  0
   -0.1079   -2.9147   -4.4355 H   0  0  0  0  0  0  0  0  0  0  0  0
    0.3669   -1.8446   -2.6138 C   0  0  0  0  0  0  0  0  0  0  0  0
    1.3147   -1.4187   -2.9809 H   0  0  0  0  0  0  0  0  0  0  0  0
    0.3220   -2.4626    1.7759 C   0  0  0  0  0  0  0  0  0  0  0  0
    0.5715   -3.0233    0.8527 H   0  0  0  0  0  0  0  0  0  0  0  0
   -0.4103   -3.0824    2.3491 H   0  0  0  0  0  0  0  0  0  0  0  0
    1.5775   -2.2144    2.6108 C   0  0  0  0  0  0  0  0  0  0  0  0
    2.0362   -3.1911    2.8681 H   0  0  0  0  0  0  0  0  0  0  0  0
    2.3130   -1.6597    1.9904 H   0  0  0  0  0  0  0  0  0  0  0  0
    1.2612   -1.3889    3.8594 C   0  0  0  0  0  0  0  0  0  0  0  0
    0.6061   -1.9738    4.5435 H   0  0  0  0  0  0  0  0  0  0  0  0
    2.1894   -1.1615    4.4225 H   0  0  0  0  0  0  0  0  0  0  0  0
    0.5510   -0.1007    3.4377 C   0  0  0  0  0  0  0  0  0  0  0  0
    1.2509    0.5287    2.8474 H   0  0  0  0  0  0  0  0  0  0  0  0
    0.2411    0.5002    4.3170 H   0  0  0  0  0  0  0  0  0  0  0  0
   -0.6819   -0.3960    2.5879 C   0  0  0  0  0  0  0  0  0  0  0  0
   -1.4400   -0.9604    3.1833 H   0  0  0  0  0  0  0  0  0  0  0  0
   -1.1689    0.5377    2.2541 H   0  0  0  0  0  0  0  0  0  0  0  0
   -1.9270    0.9233   -0.1748 C   0  0  0  0  0  0  0  0  0  0  0  0
   -2.2115    3.1730   -0.9021 C   0  0  0  0  0  0  0  0  0  0  0  0
   -1.6300    3.0183   -1.8367 H   0  0  0  0  0  0  0  0  0  0  0  0
   -1.4918    3.5393   -0.1387 H   0  0  0  0  0  0  0  0  0  0  0  0
   -3.3615    4.1399   -1.1069 C   0  0  0  0  0  0  0  0  0  0  0  0
   -2.9788    5.1248   -1.4405 H   0  0  0  0  0  0  0  0  0  0  0  0
   -3.9276    4.2833   -0.1653 H   0  0  0  0  0  0  0  0  0  0  0  0
   -4.0655    3.7594   -1.8735 H   0  0  0  0  0  0  0  0  0  0  0  0
   -3.8784   -0.6491    0.4233 C   0  0  0  0  0  0  0  0  0  0  0  0
   -6.1402    0.0469    0.3645 C   0  0  0  0  0  0  0  0  0  0  0  0
   -6.3602   -0.4090    1.3545 H   0  0  0  0  0  0  0  0  0  0  0  0
   -6.3732   -0.7323   -0.3936 H   0  0  0  0  0  0  0  0  0  0  0  0
   -6.9317    1.3203    0.1361 C   0  0  0  0  0  0  0  0  0  0  0  0
   -8.0194    1.1130    0.1821 H   0  0  0  0  0  0  0  0  0  0  0  0
   -6.6994    1.7557   -0.8564 H   0  0  0  0  0  0  0  0  0  0  0  0
   -6.6884    2.0797    0.9058 H   0  0  0  0  0  0  0  0  0  0  0  0
  1 34  1  0  0  0  0
  2 34  1  0  0  0  0
  4 43  1  0  0  0  0
  4 42  1  0  0  0  0
  5 10  1  0  0  0  0
  6 19  1  0  0  0  0
  6 31  1  0  0  0  0
  7  8  1  1  0  0  0
  7  6  1  0  0  0  0
  9 42  1  0  0  0  0
  9  7  1  0  0  0  0
 10  7  1  6  0  0  0
 11 12  1  0  0  0  0
 11 10  1  0  0  0  0
 13 11  2  0  0  0  0
 14 13  1  0  0  0  0
 15 13  1  0  0  0  0
 15 17  2  0  0  0  0
 16 15  1  0  0  0  0
 17  5  1  0  0  0  0
 18 17  1  0  0  0  0
 19 21  1  0  0  0  0
 19 22  1  0  0  0  0
 20 19  1  0  0  0  0
 22 23  1  0  0  0  0
 22 25  1  0  0  0  0
 24 22  1  0  0  0  0
 25 27  1  0  0  0  0
 25 26  1  0  0  0  0
 28 25  1  0  0  0  0
 28 30  1  0  0  0  0
 29 28  1  0  0  0  0
 31 32  1  0  0  0  0
 31 28  1  0  0  0  0
 33 31  1  0  0  0  0
 34  9  2  0  0  0  0
 35  2  1  0  0  0  0
 35 37  1  0  0  0  0
 36 35  1  0  0  0  0
 38 35  1  0  0  0  0
 38 40  1  0  0  0  0
 39 38  1  0  0  0  0
 41 38  1  0  0  0  0
 42  3  2  0  0  0  0
 43 44  1  0  0  0  0
 45 43  1  0  0  0  0
 46 47  1  0  0  0  0
 46 43  1  0  0  0  0
 46 49  1  0  0  0  0
 48 46  1  0  0  0  0
M  CHG  1   1  -1
M  END
