14,27,32
q = 0.0, confidence = 0.988

 47 48  0  0  1  0  0  0  0  0999 V2000
   -0.8513   -0.3093   -1.5594 N   0  0  0  0  0  0  0  0  0  0  0  0
   -2.2405   -0.0934   -1.9525 C   0  0  0  0  0  0  0  0  0  0  0  0
   -2.4782   -0.5081   -2.9600 H   0  0  0  0  0  0  0  0  0  0  0  0
   -2.3994    1.0049   -2.0227 H   0  0  0  0  0  0  0  0  0  0  0  0
   -3.2123   -0.6351   -0.9187 C   0  0  2  0  0  3  0  0  0  0  0  0
   -4.4933   -1.0939   -1.2565 C   0  0  0  0  0  0  0  0  0  0  0  0
   -4.8049   -1.1312   -2.3110 H   0  0  0  0  0  0  0  0  0  0  0  0
   -5.3635   -1.4932   -0.2306 C   0  0  0  0  0  0  0  0  0  0  0  0
   -6.3736   -1.8566   -0.4723 H   0  0  0  0  0  0  0  0  0  0  0  0
   -4.9305   -1.4237    1.1015 C   0  0  0  0  0  0  0  0  0  0  0  0
   -5.5841   -1.7227    1.9329 H   0  0  0  0  0  0  0  0  0  0  0  0
   -3.6337   -0.9661    1.3621 C   0  0  0  0  0  0  0  0  0  0  0  0
   -3.2155   -0.8686    2.3800 H   0  0  0  0  0  0  0  0  0  0  0  0
   -2.8029   -0.5922    0.3678 N   0  0  0  0  0  2  0  0  0  0  0  0
    0.0993    0.6953   -2.0427 C   0  0  0  0  0  0  0  0  0  0  0  0
   -0.0019    0.8921   -3.1350 H   0  0  0  0  0  0  0  0  0  0  0  0
    1.1308    0.3058   -1.8797 H   0  0  0  0  0  0  0  0  0  0  0  0
   -0.0089    1.9923   -1.2638 C   0  0  2  0  0  3  0  0  0  0  0  0
    0.2805    3.2411   -1.8324 C   0  0  0  0  0  0  0  0  0  0  0  0
    0.5385    3.3127   -2.8993 H   0  0  0  0  0  0  0  0  0  0  0  0
    0.2400    4.3837   -1.0197 C   0  0  0  0  0  0  0  0  0  0  0  0
    0.4644    5.3732   -1.4456 H   0  0  0  0  0  0  0  0  0  0  0  0
   -0.0935    4.2509    0.3364 C   0  0  0  0  0  0  0  0  0  0  0  0
   -0.1366    5.1226    1.0044 H   0  0  0  0  0  0  0  0  0  0  0  0
   -0.3809    2.9749    0.8328 C   0  0  0  0  0  0  0  0  0  0  0  0
   -0.6527    2.7782    1.8852 H   0  0  0  0  0  0  0  0  0  0  0  0
   -0.3374    1.8831    0.0419 N   0  0  0  0  0  2  0  0  0  0  0  0
   -0.3869   -1.6827   -1.6808 C   0  0  0  0  0  0  0  0  0  0  0  0
   -0.0503   -1.9516   -2.7108 H   0  0  0  0  0  0  0  0  0  0  0  0
   -1.2229   -2.3662   -1.4194 H   0  0  0  0  0  0  0  0  0  0  0  0
    0.7208   -1.8929   -0.6506 C   0  0  2  0  0  3  0  0  0  0  0  0
    0.6285   -1.3700    0.4801 O   0  0  0  0  0  1  0  0  0  0  0  0
    1.7845   -2.6397   -0.9951 N   0  0  0  0  0  0  0  0  0  0  0  0
    1.8670   -2.9313   -1.9712 H   0  0  0  0  0  0  0  0  0  0  0  0
    2.9879   -2.5860   -0.1919 C   0  0  0  0  0  0  0  0  0  0  0  0
    3.6843   -3.3960   -0.4801 H   0  0  0  0  0  0  0  0  0  0  0  0
    2.7348   -2.7249    0.8777 H   0  0  0  0  0  0  0  0  0  0  0  0
    3.6653   -1.2128   -0.3529 C   0  0  0  0  0  0  0  0  0  0  0  0
    3.2018   -0.2994   -1.0161 O   0  0  0  0  0  0  0  0  0  0  0  0
    4.7992   -1.1741    0.3397 O   0  0  0  0  0  0  0  0  0  0  0  0
    5.5434    0.0815    0.3206 C   0  0  0  0  0  0  0  0  0  0  0  0
    4.8674    0.8838    0.6820 H   0  0  0  0  0  0  0  0  0  0  0  0
    5.7980    0.3129   -0.7344 H   0  0  0  0  0  0  0  0  0  0  0  0
    6.7662   -0.0885    1.1925 C   0  0  0  0  0  0  0  0  0  0  0  0
    7.3514    0.8519    1.1968 H   0  0  0  0  0  0  0  0  0  0  0  0
    7.4198   -0.8985    0.8140 H   0  0  0  0  0  0  0  0  0  0  0  0
    6.4837   -0.3232    2.2373 H   0  0  0  0  0  0  0  0  0  0  0  0
  2  1  1  0  0  0  0
  3  2  1  0  0  0  0
  4  2  1  0  0  0  0
  5  2  1  1  0  0  0
  5 14  1  0  0  0  0
  6  5  1  0  0  0  0
  6  8  2  0  0  0  0
  7  6  1  0  0  0  0
  8 10  1  0  0  0  0
  9  8  1  0  0  0  0
 10 12  2  0  0  0  0
 10 11  1  0  0  0  0
 12 13  1  0  0  0  0
 14 12  1  0  0  0  0
 15 17  1  0  0  0  0
 15  1  1  0  0  0  0
 16 15  1  0  0  0  0
 18 15  1  1  0  0  0
 18 27  1  0  0  0  0
 19 18  1  0  0  0  0
 19 21  2  0  0  0  0
 20 19  1  0  0  0  0
 21 23  1  0  0  0  0
 22 21  1  0  0  0  0
 23 25  2  0  0  0  0
 23 24  1  0  0  0  0
 25 26  1  0  0  0  0
 27 25  1  0  0  0  0
 28  1  1  0  0  0  0
 28 30  1  0  0  0  0
 28 31  1  0  0  0  0
 29 28  1  0  0  0  0
 31 32  1  6  0  0  0
 33 31  1  0  0  0  0
 33 35  1  0  0  0  0
 34 33  1  0  0  0  0
 35 37  1  0  0  0  0
 36 35  1  0  0  0  0
 38 35  1  0  0  0  0
 38 40  1  0  0  0  0
 39 38  2  0  0  0  0
 41 40  1  0  0  0  0
 41 42  1  0  0  0  0
 41 44  1  0  0  0  0
 43 41  1  0  0  0  0
 44 45  1  0  0  0  0
 44 47  1  0  0  0  0
 46 44  1  0  0  0  0
M  END
