3,4,5
q = -2.0, confidence = 0.922

 29 29  0  0  0  0  0  0  0  0999 V2000
    5.9924    1.2933    0.2798 Br  0  0  0  0  0  0  0  0  0  0  0  0
   -4.1051    1.6708   -1.3760 S   0  0  0  0  0  0  0  0  0  0  0  0
    0.8058   -1.8185   -0.0902 O   0  5  0  0  0  0  0  0  0  0  0  0
   -2.5995   -0.5424   -1.3330 N   0  0  0  0  0  2  0  0  0  0  0  0
   -0.4554    0.5796   -0.6611 N   0  0  0  0  0  2  0  0  0  0  0  0
   -2.5920    0.7931   -1.1410 C   0  0  0  0  0  0  0  0  0  0  0  0
    1.9304   -1.1055   -0.0529 C   0  0  0  0  0  0  0  0  0  0  0  0
   -1.4973    1.4485   -0.7785 N   0  0  0  0  0  0  0  0  0  0  0  0
    0.7316    1.0889   -0.4301 C   0  0  0  0  0  3  0  0  0  0  0  0
    1.9344    0.3198   -0.2089 C   0  0  0  0  0  0  0  0  0  0  0  0
    3.1501   -1.7727    0.1972 C   0  0  0  0  0  0  0  0  0  0  0  0
    4.3531   -1.0689    0.2937 C   0  0  0  0  0  0  0  0  0  0  0  0
   -3.6345    3.3506   -0.8217 C   0  0  0  0  0  0  0  0  0  0  0  0
    3.1647    1.0184   -0.0977 C   0  0  0  0  0  0  0  0  0  0  0  0
    4.3541    0.3323    0.1454 C   0  0  0  0  0  0  0  0  0  0  0  0
   -3.5845    3.5130    0.6969 C   0  0  0  0  0  0  0  0  0  0  0  0
   -3.1986    4.9361    1.1052 C   0  0  0  0  0  0  0  0  0  0  0  0
    3.1716    2.1121   -0.2126 H   0  0  0  0  0  0  0  0  0  0  0  0
    5.2947   -1.6026    0.4855 H   0  0  0  0  0  0  0  0  0  0  0  0
    3.1232   -2.8652    0.3149 H   0  0  0  0  0  0  0  0  0  0  0  0
    0.8029    2.1930   -0.4034 H   0  0  0  0  0  0  0  0  0  0  0  0
   -2.6532    3.5762   -1.2840 H   0  0  0  0  0  0  0  0  0  0  0  0
   -4.3998    4.0096   -1.2821 H   0  0  0  0  0  0  0  0  0  0  0  0
   -4.5706    3.2383    1.1283 H   0  0  0  0  0  0  0  0  0  0  0  0
   -2.8453    2.7885    1.0969 H   0  0  0  0  0  0  0  0  0  0  0  0
   -3.1655    5.0418    2.2081 H   0  0  0  0  0  0  0  0  0  0  0  0
   -2.1971    5.2091    0.7126 H   0  0  0  0  0  0  0  0  0  0  0  0
   -3.9228    5.6840    0.7198 H   0  0  0  0  0  0  0  0  0  0  0  0
   -3.4990   -0.9742   -1.5603 H   0  0  0  0  0  0  0  0  0  0  0  0
  2  6  1  0  0  0  0
  2 13  1  0  0  0  0
  3  7  1  0  0  0  0
  4  6  1  0  0  0  0
  5  9  1  0  0  0  0
  6  8  2  0  0  0  0
  7 11  1  0  0  0  0
  8  5  1  0  0  0  0
  9 21  1  0  0  0  0
  9 10  1  0  0  0  0
 10 14  1  0  0  0  0
 10  7  2  0  0  0  0
 11 12  2  0  0  0  0
 11 20  1  0  0  0  0
 12 19  1  0  0  0  0
 13 16  1  0  0  0  0
 14 15  2  0  0  0  0
 15  1  1  0  0  0  0
 15 12  1  0  0  0  0
 16 25  1  0  0  0  0
 16 17  1  0  0  0  0
 16 24  1  0  0  0  0
 17 26  1  0  0  0  0
 18 14  1  0  0  0  0
 22 13  1  0  0  0  0
 23 13  1  0  0  0  0
 27 17  1  0  0  0  0
 28 17  1  0  0  0  0
 29  4  1  0  0  0  0
M  CHG  1   3  -1
M  END
