1,2,20
q = -1.0, confidence = 0.016

 33 35  0  0  0  0  0  0  0  0999 V2000
    0.1649    0.0426   -0.0764 N   0  0  0  0  0  2  0  0  0  0  0  0
    0.2886   -2.5897    0.1100 O   0  5  0  0  0  0  0  0  0  0  0  0
    1.4321   -0.4790   -0.0241 C   0  0  0  0  0  0  0  0  0  0  0  0
    1.4007   -1.9303    0.0764 C   0  0  0  0  0  0  0  0  0  0  0  0
    2.6511   -2.6386    0.1398 C   0  0  0  0  0  0  0  0  0  0  0  0
    2.6068   -3.7340    0.2142 H   0  0  0  0  0  0  0  0  0  0  0  0
    3.8386   -1.9497    0.1089 C   0  0  0  0  0  0  0  0  0  0  0  0
    4.7910   -2.5010    0.1597 H   0  0  0  0  0  0  0  0  0  0  0  0
    3.8994   -0.5144    0.0122 C   0  0  0  0  0  0  0  0  0  0  0  0
    5.1487    0.1522   -0.0147 C   0  0  0  0  0  0  0  0  0  0  0  0
    6.0676   -0.4523    0.0400 H   0  0  0  0  0  0  0  0  0  0  0  0
    5.2231    1.5411   -0.1081 C   0  0  0  0  0  0  0  0  0  0  0  0
    6.2010    2.0447   -0.1278 H   0  0  0  0  0  0  0  0  0  0  0  0
    4.0325    2.2929   -0.1777 C   0  0  0  0  0  0  0  0  0  0  0  0
    4.0825    3.3900   -0.2526 H   0  0  0  0  0  0  0  0  0  0  0  0
    2.7842    1.6665   -0.1538 C   0  0  0  0  0  0  0  0  0  0  0  0
    1.8632    2.2569   -0.2102 H   0  0  0  0  0  0  0  0  0  0  0  0
    2.6817    0.2531   -0.0580 C   0  0  0  0  0  0  0  0  0  0  0  0
   -0.1345    1.3150   -0.1696 N   0  0  0  0  0  0  0  0  0  0  0  0
   -2.3664    0.4178   -0.1200 N   0  0  0  0  0  2  0  0  0  0  0  0
   -1.4900    1.4539   -0.1910 C   0  0  0  0  0  0  0  0  0  0  0  0
   -3.6326    0.9354   -0.1573 C   0  0  0  0  0  0  0  0  0  0  0  0
   -4.5142    0.2876   -0.1188 H   0  0  0  0  0  0  0  0  0  0  0  0
   -3.5335    2.3166   -0.2521 C   0  0  0  0  0  0  0  0  0  0  0  0
   -4.3008    3.0941   -0.3111 H   0  0  0  0  0  0  0  0  0  0  0  0
   -2.1807    2.6284   -0.2810 N   0  0  0  0  0  0  0  0  0  0  0  0
   -1.5741    3.9585   -0.3033 C   0  0  0  0  0  0  0  0  0  0  0  0
   -2.3170    4.6459   -0.7538 H   0  0  0  0  0  0  0  0  0  0  0  0
   -0.7057    3.9120   -0.9905 H   0  0  0  0  0  0  0  0  0  0  0  0
   -1.1413    4.4305    1.0828 C   0  0  0  0  0  0  0  0  0  0  0  0
   -2.0024    4.4751    1.7787 H   0  0  0  0  0  0  0  0  0  0  0  0
   -0.6954    5.4426    1.0170 H   0  0  0  0  0  0  0  0  0  0  0  0
   -0.3814    3.7450    1.5072 H   0  0  0  0  0  0  0  0  0  0  0  0
  1  3  1  0  0  0  0
  3  4  1  0  0  0  0
  4  2  1  0  0  0  0
  4  5  2  0  0  0  0
  5  6  1  0  0  0  0
  7  5  1  0  0  0  0
  7  8  1  0  0  0  0
  9  7  2  0  0  0  0
 10  9  1  0  0  0  0
 10 11  1  0  0  0  0
 12 10  2  0  0  0  0
 13 12  1  0  0  0  0
 14 16  2  0  0  0  0
 14 12  1  0  0  0  0
 15 14  1  0  0  0  0
 16 18  1  0  0  0  0
 17 16  1  0  0  0  0
 18  3  2  0  0  0  0
 18  9  1  0  0  0  0
 19  1  1  0  0  0  0
 21 19  2  0  0  0  0
 21 20  1  0  0  0  0
 22 20  1  0  0  0  0
 22 23  1  0  0  0  0
 24 22  2  0  0  0  0
 25 24  1  0  0  0  0
 26 24  1  0  0  0  0
 26 21  1  0  0  0  0
 27 26  1  0  0  0  0
 27 30  1  0  0  0  0
 28 27  1  0  0  0  0
 29 27  1  0  0  0  0
 30 33  1  0  0  0  0
 30 31  1  0  0  0  0
 32 30  1  0  0  0  0
M  CHG  1   2  -1
M  END
