1,3,5
q = -1.0, confidence = 0.02

 24 24  0  0  1  0  0  0  0  0999 V2000
   -0.7184   -1.5023   -1.2218 O   0  5  0  0  0  0  0  0  0  0  0  0
   -1.9556   -3.4003   -1.2139 O   0  0  0  0  0  0  0  0  0  0  0  0
   -1.1372   -1.1868    1.5292 N   0  0  0  0  0  0  0  0  0  0  0  0
   -0.6144   -1.2867    2.4079 H   0  0  0  0  0  0  0  0  0  0  0  0
   -2.0153    0.8684   -0.1604 N   0  0  0  0  0  2  0  0  0  0  0  0
   -1.3663   -2.4733   -0.6597 C   0  0  0  0  0  0  0  0  0  0  0  0
   -1.3002   -2.5225    0.9087 C   0  0  1  0  0  0  0  0  0  0  0  0
   -2.2544   -2.9875    1.2456 H   0  0  0  0  0  0  0  0  0  0  0  0
   -0.1319   -3.4212    1.3135 C   0  0  0  0  0  0  0  0  0  0  0  0
   -0.0958   -3.5816    2.4131 H   0  0  0  0  0  0  0  0  0  0  0  0
    0.8278   -2.9732    0.9852 H   0  0  0  0  0  0  0  0  0  0  0  0
   -0.2431   -4.4056    0.8217 H   0  0  0  0  0  0  0  0  0  0  0  0
   -2.3949   -0.4851    1.8091 C   0  0  0  0  0  0  0  0  0  0  0  0
   -2.1935    0.2778    2.5935 H   0  0  0  0  0  0  0  0  0  0  0  0
   -3.1770   -1.1688    2.2122 H   0  0  0  0  0  0  0  0  0  0  0  0
   -2.9372    0.2424    0.5932 C   0  0  1  0  0  3  0  0  0  0  0  0
   -4.3025    0.2982    0.2787 C   0  0  0  0  0  0  0  0  0  0  0  0
   -5.0356   -0.2365    0.9008 H   0  0  0  0  0  0  0  0  0  0  0  0
   -4.7038    1.0322   -0.8477 C   0  0  0  0  0  0  0  0  0  0  0  0
   -5.7678    1.0856   -1.1237 H   0  0  0  0  0  0  0  0  0  0  0  0
   -3.7324    1.6773   -1.6263 C   0  0  0  0  0  0  0  0  0  0  0  0
   -4.0063    2.2495   -2.5240 H   0  0  0  0  0  0  0  0  0  0  0  0
   -2.3872    1.5617   -1.2500 C   0  0  0  0  0  0  0  0  0  0  0  0
   -1.5583    2.0094   -1.8241 H   0  0  0  0  0  0  0  0  0  0  0  0
  1  6  1  0  0  0  0
  2  6  2  0  0  0  0
  3 13  1  0  0  0  0
  3  4  1  0  0  0  0
  5 16  1  0  0  0  0
  6  7  1  0  0  0  0
  7  8  1  1  0  0  0
  7  9  1  0  0  0  0
  7  3  1  0  0  0  0
  9 10  1  0  0  0  0
 11  9  1  0  0  0  0
 12  9  1  0  0  0  0
 13 15  1  0  0  0  0
 13 14  1  0  0  0  0
 16 13  1  1  0  0  0
 17 16  1  0  0  0  0
 17 18  1  0  0  0  0
 19 17  2  0  0  0  0
 20 19  1  0  0  0  0
 21 23  2  0  0  0  0
 21 19  1  0  0  0  0
 22 21  1  0  0  0  0
 23  5  1  0  0  0  0
 24 23  1  0  0  0  0
M  CHG  1   1  -1
M  END
