26,27,29
q = -1.0

 31 32  0  0  1  0  0  0  0  0999 V2000
    1.9577    2.5643   -0.9187 C   0  0  0  0  0  3  0  0  0  0  0  0
    2.4780    2.3248    0.0204 H   0  0  0  0  0  0  0  0  0  0  0  0
    2.4732    3.5028   -1.8197 C   0  0  0  0  0  0  0  0  0  0  0  0
    3.4150    4.0186   -1.5870 H   0  0  0  0  0  0  0  0  0  0  0  0
    1.7668    3.7565   -3.0079 C   0  0  0  0  0  0  0  0  0  0  0  0
    2.1419    4.4883   -3.7384 H   0  0  0  0  0  0  0  0  0  0  0  0
    0.5787    3.0616   -3.2547 C   0  0  0  0  0  0  0  0  0  0  0  0
    0.0073    3.2356   -4.1767 H   0  0  0  0  0  0  0  0  0  0  0  0
    0.1051    2.1216   -2.3155 C   0  0  0  0  0  0  0  0  0  0  0  0
   -1.0940    1.3205   -2.4387 C   0  0  1  0  0  3  0  0  0  0  0  0
   -2.0500    1.3085   -3.5868 C   0  0  0  0  0  0  0  0  0  0  0  0
   -1.7221    1.9706   -4.4081 H   0  0  0  0  0  0  0  0  0  0  0  0
   -3.0652    1.6275   -3.2675 H   0  0  0  0  0  0  0  0  0  0  0  0
   -2.1594    0.2798   -3.9897 H   0  0  0  0  0  0  0  0  0  0  0  0
   -2.1835   -1.0087   -0.0958 C   0  0  0  0  0  0  0  0  0  0  0  0
   -3.2351   -1.9881    0.1978 C   0  0  0  0  0  0  0  0  0  0  0  0
   -4.3357   -2.1862   -0.7023 C   0  0  0  0  0  0  0  0  0  0  0  0
   -5.3212   -3.1448   -0.3626 C   0  0  0  0  0  0  0  0  0  0  0  0
   -6.1579   -3.2860   -1.0618 H   0  0  0  0  0  0  0  0  0  0  0  0
   -5.2235   -3.8799    0.8190 C   0  0  0  0  0  0  0  0  0  0  0  0
   -6.0034   -4.6198    1.0583 H   0  0  0  0  0  0  0  0  0  0  0  0
   -4.1413   -3.6885    1.7055 C   0  0  0  0  0  0  0  0  0  0  0  0
   -4.0714   -4.2746    2.6332 H   0  0  0  0  0  0  0  0  0  0  0  0
   -3.1618   -2.7493    1.3883 C   0  0  0  0  0  0  0  0  0  0  0  0
   -2.3012   -2.5713    2.0494 H   0  0  0  0  0  0  0  0  0  0  0  0
    0.8115    1.8924   -1.1444 N   0  0  0  0  0  2  0  0  0  0  0  0
   -1.2567    0.5397   -1.3710 N   0  0  0  0  0  2  0  0  0  0  0  0
   -2.2988   -0.3051   -1.2553 N   0  0  0  0  0  0  0  0  0  0  0  0
   -1.1989   -0.8230    0.7069 O   0  5  0  0  0  0  0  0  0  0  0  0
   -4.4725   -1.5066   -1.8447 O   0  0  0  0  0  0  0  0  0  0  0  0
   -3.6647   -0.8820   -1.9003 H   0  0  0  0  0  0  0  0  0  0  0  0
  1  2  1  0  0  0  0
  3  4  1  0  0  0  0
  3  1  1  0  0  0  0
  5  3  2  0  0  0  0
  6  5  1  0  0  0  0
  7  5  1  0  0  0  0
  7  9  2  0  0  0  0
  8  7  1  0  0  0  0
  9 26  1  0  0  0  0
 10  9  1  0  0  0  0
 10 27  1  6  0  0  0
 11 13  1  0  0  0  0
 11 10  1  0  0  0  0
 12 11  1  0  0  0  0
 14 11  1  0  0  0  0
 15 16  1  0  0  0  0
 15 29  1  0  0  0  0
 16 24  1  0  0  0  0
 17 18  1  0  0  0  0
 17 16  2  0  0  0  0
 18 20  2  0  0  0  0
 19 18  1  0  0  0  0
 20 21  1  0  0  0  0
 20 22  1  0  0  0  0
 22 23  1  0  0  0  0
 24 22  2  0  0  0  0
 24 25  1  0  0  0  0
 26  1  1  0  0  0  0
 27 28  1  0  0  0  0
 28 15  2  0  0  0  0
 30 17  1  0  0  0  0
 31 30  1  0  0  0  0
M  CHG  1  29  -1
M  END
