1,3,4
q = -1.0

 37 39  0  0  0  0  0  0  0  0999 V2000
   -1.5770   -1.6945    0.0061 O   0  5  0  0  0  0  0  0  0  0  0  0
   -1.1705    0.6090   -0.0301 N   0  0  0  0  0  0  0  0  0  0  0  0
    0.1066    0.2278   -0.0367 N   0  0  0  0  0  2  0  0  0  0  0  0
    2.3899   -1.0069   -0.0109 N   0  0  0  0  0  2  0  0  0  0  0  0
   -4.3381   -1.3089    0.0237 C   0  0  0  0  0  0  0  0  0  0  0  0
   -5.7196   -1.0855    0.0457 C   0  0  0  0  0  0  0  0  0  0  0  0
   -6.2212    0.2272    0.0701 C   0  0  0  0  0  0  0  0  0  0  0  0
   -5.3364    1.3195    0.0730 C   0  0  0  0  0  0  0  0  0  0  0  0
   -3.9536    1.1039    0.0502 C   0  0  0  0  0  0  0  0  0  0  0  0
   -3.4458   -0.2147    0.0245 C   0  0  0  0  0  0  0  0  0  0  0  0
   -1.9878   -0.4691    0.0002 C   0  0  0  0  0  0  0  0  0  0  0  0
    1.1518    1.0651   -0.0326 C   0  0  0  0  0  0  0  0  0  0  0  0
    1.0047    2.5345   -0.0097 C   0  0  0  0  0  0  0  0  0  0  0  0
    0.1178    3.1858   -0.8980 C   0  0  0  0  0  0  0  0  0  0  0  0
   -0.0148    4.5794   -0.8698 C   0  0  0  0  0  0  0  0  0  0  0  0
    0.7235    5.3455    0.0475 C   0  0  0  0  0  0  0  0  0  0  0  0
    1.5963    4.7082    0.9429 C   0  0  0  0  0  0  0  0  0  0  0  0
    1.7370    3.3138    0.9161 C   0  0  0  0  0  0  0  0  0  0  0  0
    2.4424    0.3734   -0.0597 C   0  0  0  0  0  0  0  0  0  0  0  0
    3.6964    1.0070   -0.1744 C   0  0  0  0  0  0  0  0  0  0  0  0
    4.8653    0.2366   -0.2032 C   0  0  0  0  0  0  0  0  0  0  0  0
    4.7776   -1.1611   -0.1256 C   0  0  0  0  0  0  0  0  0  0  0  0
    3.5089   -1.7497   -0.0399 C   0  0  0  0  0  0  0  0  0  0  0  0
   -3.9214   -2.3260    0.0053 H   0  0  0  0  0  0  0  0  0  0  0  0
   -6.4127   -1.9403    0.0442 H   0  0  0  0  0  0  0  0  0  0  0  0
   -7.3082    0.4003    0.0882 H   0  0  0  0  0  0  0  0  0  0  0  0
   -5.7299    2.3470    0.0946 H   0  0  0  0  0  0  0  0  0  0  0  0
   -3.2442    1.9433    0.0562 H   0  0  0  0  0  0  0  0  0  0  0  0
   -0.4656    2.5872   -1.6101 H   0  0  0  0  0  0  0  0  0  0  0  0
   -0.7029    5.0736   -1.5723 H   0  0  0  0  0  0  0  0  0  0  0  0
    0.6137    6.4403    0.0681 H   0  0  0  0  0  0  0  0  0  0  0  0
    2.1655    5.2993    1.6761 H   0  0  0  0  0  0  0  0  0  0  0  0
    2.3991    2.8174    1.6414 H   0  0  0  0  0  0  0  0  0  0  0  0
    3.7368    2.1012   -0.2535 H   0  0  0  0  0  0  0  0  0  0  0  0
    5.8440    0.7312   -0.2931 H   0  0  0  0  0  0  0  0  0  0  0  0
    5.6720   -1.7989   -0.1425 H   0  0  0  0  0  0  0  0  0  0  0  0
    3.3362   -2.8386    0.0026 H   0  0  0  0  0  0  0  0  0  0  0  0
  2 11  2  0  0  0  0
  3 12  1  0  0  0  0
  3  2  1  0  0  0  0
  5 10  2  0  0  0  0
  5  6  1  0  0  0  0
  6  7  2  0  0  0  0
  7  8  1  0  0  0  0
  7 26  1  0  0  0  0
  8 27  1  0  0  0  0
  9 28  1  0  0  0  0
  9  8  2  0  0  0  0
 10  9  1  0  0  0  0
 11  1  1  0  0  0  0
 11 10  1  0  0  0  0
 12 13  1  0  0  0  0
 13 18  1  0  0  0  0
 14 15  1  0  0  0  0
 14 13  2  0  0  0  0
 15 16  2  0  0  0  0
 16 31  1  0  0  0  0
 16 17  1  0  0  0  0
 17 32  1  0  0  0  0
 18 17  2  0  0  0  0
 18 33  1  0  0  0  0
 19 12  2  0  0  0  0
 19  4  1  0  0  0  0
 20 19  1  0  0  0  0
 21 20  2  0  0  0  0
 21 22  1  0  0  0  0
 22 23  2  0  0  0  0
 23  4  1  0  0  0  0
 23 37  1  0  0  0  0
 24  5  1  0  0  0  0
 25  6  1  0  0  0  0
 29 14  1  0  0  0  0
 30 15  1  0  0  0  0
 34 20  1  0  0  0  0
 35 21  1  0  0  0  0
 36 22  1  0  0  0  0
M  CHG  1   1  -1
M  END
