1,2,4
q = -1.0

 56 58  0  0  1  0  0  0  0  0999 V2000
    3.1745    1.0535    0.9007 N   0  0  0  0  0  2  0  0  0  0  0  0
    0.7883   -0.3455    0.5111 N   0  0  0  0  0  0  0  0  0  0  0  0
    0.6247    2.1116   -2.2129 O   0  5  0  0  0  0  0  0  0  0  0  0
    2.2803    0.6781   -1.6540 O   0  0  0  0  0  0  0  0  0  0  0  0
   -2.2753   -0.7657    0.3583 O   0  0  0  0  0  0  0  0  0  0  0  0
   -2.1142    2.3067    0.4774 O   0  0  0  0  0  0  0  0  0  0  0  0
   -1.6780    3.1020    0.0705 H   0  0  0  0  0  0  0  0  0  0  0  0
   -1.7694    3.6159   -1.7361 O   0  0  0  0  0  0  0  0  0  0  0  0
   -1.0145    3.0388   -2.0427 H   0  0  0  0  0  0  0  0  0  0  0  0
   -4.5773    0.2860   -1.2752 O   0  0  0  0  0  0  0  0  0  0  0  0
   -5.7968   -0.8479    1.2929 O   0  0  0  0  0  0  0  0  0  0  0  0
   -6.4571   -1.1081   -0.8937 O   0  0  0  0  0  0  0  0  0  0  0  0
    4.2350    1.8788    0.7578 C   0  0  0  0  0  3  0  0  0  0  0  0
    5.0872    1.4803    0.1893 H   0  0  0  0  0  0  0  0  0  0  0  0
    4.2482    3.1721    1.2878 C   0  0  0  0  0  0  0  0  0  0  0  0
    5.1332    3.8076    1.1450 H   0  0  0  0  0  0  0  0  0  0  0  0
    3.1167    3.6354    1.9735 C   0  0  0  0  0  0  0  0  0  0  0  0
    3.0871    4.6551    2.3848 H   0  0  0  0  0  0  0  0  0  0  0  0
    2.0149    2.7813    2.1133 C   0  0  0  0  0  0  0  0  0  0  0  0
    1.1007    3.1086    2.6288 H   0  0  0  0  0  0  0  0  0  0  0  0
    2.0781    1.4894    1.5741 C   0  0  0  0  0  0  0  0  0  0  0  0
    0.9654    0.4895    1.7322 C   0  0  0  0  0  0  0  0  0  0  0  0
    0.0211    1.0148    1.9879 H   0  0  0  0  0  0  0  0  0  0  0  0
    1.2276   -0.1938    2.5694 H   0  0  0  0  0  0  0  0  0  0  0  0
    1.0845    1.1731   -1.5472 C   0  0  0  0  0  0  0  0  0  0  0  0
    0.1482    0.4628   -0.5692 C   0  0  0  0  0  0  0  0  0  0  0  0
   -0.5321    1.1984   -0.1052 H   0  0  0  0  0  0  0  0  0  0  0  0
   -0.4669   -0.2241   -1.1796 H   0  0  0  0  0  0  0  0  0  0  0  0
   -0.0338   -1.5549    0.8309 C   0  0  0  0  0  0  0  0  0  0  0  0
    0.5276   -2.1509    1.5784 H   0  0  0  0  0  0  0  0  0  0  0  0
   -0.0906   -2.1628   -0.0924 H   0  0  0  0  0  0  0  0  0  0  0  0
   -1.4498   -1.3136    1.3657 C   0  0  0  0  0  0  0  0  0  0  0  0
   -1.8345   -2.3019    1.7199 H   0  0  0  0  0  0  0  0  0  0  0  0
   -1.4341   -0.6470    2.2610 H   0  0  0  0  0  0  0  0  0  0  0  0
   -3.5164   -0.2139    0.7855 C   0  0  1  0  0  0  0  0  0  0  0  0
   -3.4632    0.1277    1.8410 H   0  0  0  0  0  0  0  0  0  0  0  0
   -3.9417    0.9308   -0.1671 C   0  0  1  0  0  0  0  0  0  0  0  0
   -4.6558    1.5937    0.3765 H   0  0  0  0  0  0  0  0  0  0  0  0
   -2.7552    1.7365   -0.6634 C   0  0  1  0  0  0  0  0  0  0  0  0
   -2.0880    0.9994   -1.1608 H   0  0  0  0  0  0  0  0  0  0  0  0
   -2.9718    2.8539   -1.6904 C   0  0  0  0  0  0  0  0  0  0  0  0
   -3.2594    2.4215   -2.6739 H   0  0  0  0  0  0  0  0  0  0  0  0
   -3.7772    3.5481   -1.3666 H   0  0  0  0  0  0  0  0  0  0  0  0
   -4.6452   -1.2257    0.5613 C   0  0  2  0  0  0  0  0  0  0  0  0
   -4.3285   -2.2710    0.7803 H   0  0  0  0  0  0  0  0  0  0  0  0
   -5.0620   -1.0024   -0.9102 C   0  0  2  0  0  0  0  0  0  0  0  0
   -4.6826   -1.7351   -1.6506 H   0  0  0  0  0  0  0  0  0  0  0  0
   -6.9487   -0.8230    0.4244 C   0  0  0  0  0  0  0  0  0  0  0  0
   -7.5740    0.5684    0.4757 C   0  0  0  0  0  0  0  0  0  0  0  0
   -7.8629    0.8217    1.5142 H   0  0  0  0  0  0  0  0  0  0  0  0
   -8.4756    0.6050   -0.1654 H   0  0  0  0  0  0  0  0  0  0  0  0
   -6.8522    1.3204    0.1061 H   0  0  0  0  0  0  0  0  0  0  0  0
   -7.9163   -1.9337    0.8195 C   0  0  0  0  0  0  0  0  0  0  0  0
   -8.7722   -1.9650    0.1180 H   0  0  0  0  0  0  0  0  0  0  0  0
   -8.2992   -1.7625    1.8438 H   0  0  0  0  0  0  0  0  0  0  0  0
   -7.3969   -2.9105    0.7876 H   0  0  0  0  0  0  0  0  0  0  0  0
  1 21  1  0  0  0  0
  2 29  1  0  0  0  0
  2 22  1  0  0  0  0
  3 25  1  0  0  0  0
  4 25  2  0  0  0  0
  5 35  1  0  0  0  0
  5 32  1  0  0  0  0
  7  6  1  0  0  0  0
  8 41  1  0  0  0  0
  9  8  1  0  0  0  0
 10 46  1  0  0  0  0
 10 37  1  0  0  0  0
 12 48  1  0  0  0  0
 13  1  1  0  0  0  0
 13 15  1  0  0  0  0
 14 13  1  0  0  0  0
 15 17  2  0  0  0  0
 16 15  1  0  0  0  0
 17 19  1  0  0  0  0
 17 18  1  0  0  0  0
 19 20  1  0  0  0  0
 21 22  1  0  0  0  0
 21 19  2  0  0  0  0
 22 23  1  0  0  0  0
 22 24  1  0  0  0  0
 25 26  1  0  0  0  0
 26 27  1  0  0  0  0
 26  2  1  0  0  0  0
 28 26  1  0  0  0  0
 29 32  1  0  0  0  0
 29 30  1  0  0  0  0
 31 29  1  0  0  0  0
 32 33  1  0  0  0  0
 32 34  1  0  0  0  0
 35 36  1  1  0  0  0
 37 38  1  1  0  0  0
 37 35  1  0  0  0  0
 39 40  1  6  0  0  0
 39 37  1  0  0  0  0
 39  6  1  0  0  0  0
 41 43  1  0  0  0  0
 41 39  1  0  0  0  0
 42 41  1  0  0  0  0
 44 45  1  1  0  0  0
 44 35  1  0  0  0  0
 44 11  1  0  0  0  0
 46 47  1  6  0  0  0
 46 12  1  0  0  0  0
 46 44  1  0  0  0  0
 48 49  1  0  0  0  0
 48 53  1  0  0  0  0
 48 11  1  0  0  0  0
 49 50  1  0  0  0  0
 51 49  1  0  0  0  0
 52 49  1  0  0  0  0
 53 55  1  0  0  0  0
 54 53  1  0  0  0  0
 56 53  1  0  0  0  0
M  CHG  1   3  -1
M  END
