72,73,74
q = -1.0

 75 75  0  0  1  0  0  0  0  0999 V2000
   -5.6014    1.0303    2.2745 C   0  0  0  0  0  0  0  0  0  0  0  0
   -4.1479    1.0275    1.7311 C   0  0  0  0  0  0  0  0  0  0  0  0
   -3.7087    2.0383    1.8528 H   0  0  0  0  0  0  0  0  0  0  0  0
   -3.5832    0.3334    2.3862 H   0  0  0  0  0  0  0  0  0  0  0  0
   -4.1667    1.6458   -0.6480 C   0  0  0  0  0  0  0  0  0  0  0  0
   -3.5161    2.5074   -0.3871 H   0  0  0  0  0  0  0  0  0  0  0  0
   -3.8344    1.2596   -1.6363 H   0  0  0  0  0  0  0  0  0  0  0  0
   -5.5958    2.1010   -0.7816 C   0  0  1  0  0  3  0  0  0  0  0  0
   -5.9525    3.4438   -0.9632 C   0  0  0  0  0  0  0  0  0  0  0  0
   -5.1729    4.2187   -0.9570 H   0  0  0  0  0  0  0  0  0  0  0  0
   -7.3022    3.7749   -1.1408 C   0  0  0  0  0  0  0  0  0  0  0  0
   -7.6051    4.8231   -1.2804 H   0  0  0  0  0  0  0  0  0  0  0  0
   -8.2579    2.7497   -1.1213 C   0  0  0  0  0  0  0  0  0  0  0  0
   -9.3290    2.9609   -1.2458 H   0  0  0  0  0  0  0  0  0  0  0  0
   -7.8328    1.4337   -0.9193 C   0  0  0  0  0  0  0  0  0  0  0  0
   -8.5454    0.5980   -0.8720 H   0  0  0  0  0  0  0  0  0  0  0  0
   -2.7161   -0.1786    0.1076 C   0  0  0  0  0  0  0  0  0  0  0  0
   -2.7514   -0.6054   -0.9158 H   0  0  0  0  0  0  0  0  0  0  0  0
   -2.7099   -1.0406    0.8034 H   0  0  0  0  0  0  0  0  0  0  0  0
   -1.4450    0.6522    0.2927 C   0  0  0  0  0  0  0  0  0  0  0  0
   -1.4270    1.5023   -0.4237 H   0  0  0  0  0  0  0  0  0  0  0  0
   -1.4245    1.1009    1.3093 H   0  0  0  0  0  0  0  0  0  0  0  0
   -0.1851   -0.1958    0.0883 C   0  0  0  0  0  0  0  0  0  0  0  0
   -0.2108   -0.6572   -0.9245 H   0  0  0  0  0  0  0  0  0  0  0  0
   -0.1952   -1.0481    0.8041 H   0  0  0  0  0  0  0  0  0  0  0  0
    1.1162    0.5929    0.2549 C   0  0  0  0  0  0  0  0  0  0  0  0
    1.1220    1.4481   -0.4585 H   0  0  0  0  0  0  0  0  0  0  0  0
    1.1409    1.0511    1.2695 H   0  0  0  0  0  0  0  0  0  0  0  0
    2.3782   -0.2480    0.0470 C   0  0  0  0  0  0  0  0  0  0  0  0
    2.3524   -0.7051   -0.9681 H   0  0  0  0  0  0  0  0  0  0  0  0
    2.3712   -1.1043    0.7587 H   0  0  0  0  0  0  0  0  0  0  0  0
    3.6796    0.5403    0.2149 C   0  0  0  0  0  0  0  0  0  0  0  0
    3.6830    1.3998   -0.4934 H   0  0  0  0  0  0  0  0  0  0  0  0
    3.7063    0.9938    1.2318 H   0  0  0  0  0  0  0  0  0  0  0  0
    4.9437   -0.2960    0.0005 C   0  0  0  0  0  0  0  0  0  0  0  0
    4.9174   -0.7480   -1.0170 H   0  0  0  0  0  0  0  0  0  0  0  0
    4.9400   -1.1566    0.7074 H   0  0  0  0  0  0  0  0  0  0  0  0
    6.2445    0.4930    0.1703 C   0  0  0  0  0  0  0  0  0  0  0  0
    6.2457    1.3559   -0.5338 H   0  0  0  0  0  0  0  0  0  0  0  0
    6.2719    0.9419    1.1892 H   0  0  0  0  0  0  0  0  0  0  0  0
    7.5098   -0.3402   -0.0495 C   0  0  0  0  0  0  0  0  0  0  0  0
    7.4828   -0.7878   -1.0689 H   0  0  0  0  0  0  0  0  0  0  0  0
    7.5084   -1.2039    0.6536 H   0  0  0  0  0  0  0  0  0  0  0  0
    8.8099    0.4496    0.1219 C   0  0  0  0  0  0  0  0  0  0  0  0
    8.8095    1.3151   -0.5792 H   0  0  0  0  0  0  0  0  0  0  0  0
    8.8379    0.8950    1.1423 H   0  0  0  0  0  0  0  0  0  0  0  0
   10.0760   -0.3813   -0.1020 C   0  0  0  0  0  0  0  0  0  0  0  0
   10.0763   -1.2474    0.5982 H   0  0  0  0  0  0  0  0  0  0  0  0
   10.0484   -0.8258   -1.1229 H   0  0  0  0  0  0  0  0  0  0  0  0
   11.3757    0.4090    0.0704 C   0  0  0  0  0  0  0  0  0  0  0  0
   11.4040    0.8518    1.0919 H   0  0  0  0  0  0  0  0  0  0  0  0
   11.3741    1.2763   -0.6284 H   0  0  0  0  0  0  0  0  0  0  0  0
   12.6422   -0.4204   -0.1563 C   0  0  0  0  0  0  0  0  0  0  0  0
   12.6437   -1.2881    0.5420 H   0  0  0  0  0  0  0  0  0  0  0  0
   12.6141   -0.8627   -1.1781 H   0  0  0  0  0  0  0  0  0  0  0  0
   13.9415    0.3702    0.0168 C   0  0  0  0  0  0  0  0  0  0  0  0
   13.9392    1.2386   -0.6807 H   0  0  0  0  0  0  0  0  0  0  0  0
   13.9699    0.8116    1.0391 H   0  0  0  0  0  0  0  0  0  0  0  0
   15.2084   -0.4583   -0.2116 C   0  0  0  0  0  0  0  0  0  0  0  0
   15.1797   -0.8993   -1.2339 H   0  0  0  0  0  0  0  0  0  0  0  0
   15.2102   -1.3268    0.4858 H   0  0  0  0  0  0  0  0  0  0  0  0
   16.5077    0.3321   -0.0382 C   0  0  0  0  0  0  0  0  0  0  0  0
   16.5056    1.2012   -0.7352 H   0  0  0  0  0  0  0  0  0  0  0  0
   16.5367    0.7730    0.9844 H   0  0  0  0  0  0  0  0  0  0  0  0
   17.7757   -0.4960   -0.2673 C   0  0  0  0  0  0  0  0  0  0  0  0
   17.7740   -1.3637    0.4297 H   0  0  0  0  0  0  0  0  0  0  0  0
   17.7429   -0.9359   -1.2891 H   0  0  0  0  0  0  0  0  0  0  0  0
   19.0674    0.3032   -0.0918 C   0  0  0  0  0  0  0  0  0  0  0  0
   19.1446    0.7246    0.9325 H   0  0  0  0  0  0  0  0  0  0  0  0
   19.1131    1.1562   -0.8010 H   0  0  0  0  0  0  0  0  0  0  0  0
   19.9665   -0.3224   -0.2638 H   0  0  0  0  0  0  0  0  0  0  0  0
   -6.5298    1.1157   -0.7588 N   0  0  0  0  0  2  0  0  0  0  0  0
   -4.0128    0.5355    0.3291 N   0  0  0  0  0  0  0  0  0  0  0  0
   -6.3662    0.1009    1.7608 O   0  5  0  0  0  0  0  0  0  0  0  0
   -5.9049    1.8167    3.1605 O   0  0  0  0  0  0  0  0  0  0  0  0
  1 75  2  0  0  0  0
  2  3  1  0  0  0  0
  2  1  1  0  0  0  0
  2  4  1  0  0  0  0
  5  6  1  0  0  0  0
  5 73  1  0  0  0  0
  7  5  1  0  0  0  0
  8 72  1  0  0  0  0
  8  5  1  6  0  0  0
  9 10  1  0  0  0  0
  9  8  1  0  0  0  0
 11 13  1  0  0  0  0
 11  9  2  0  0  0  0
 12 11  1  0  0  0  0
 13 15  2  0  0  0  0
 14 13  1  0  0  0  0
 15 16  1  0  0  0  0
 15 72  1  0  0  0  0
 17 20  1  0  0  0  0
 17 73  1  0  0  0  0
 17 19  1  0  0  0  0
 18 17  1  0  0  0  0
 20 22  1  0  0  0  0
 21 20  1  0  0  0  0
 23 26  1  0  0  0  0
 23 20  1  0  0  0  0
 23 25  1  0  0  0  0
 24 23  1  0  0  0  0
 26 28  1  0  0  0  0
 27 26  1  0  0  0  0
 29 32  1  0  0  0  0
 29 26  1  0  0  0  0
 29 31  1  0  0  0  0
 30 29  1  0  0  0  0
 32 34  1  0  0  0  0
 33 32  1  0  0  0  0
 35 38  1  0  0  0  0
 35 32  1  0  0  0  0
 35 37  1  0  0  0  0
 36 35  1  0  0  0  0
 38 40  1  0  0  0  0
 39 38  1  0  0  0  0
 41 44  1  0  0  0  0
 41 38  1  0  0  0  0
 41 43  1  0  0  0  0
 42 41  1  0  0  0  0
 44 46  1  0  0  0  0
 45 44  1  0  0  0  0
 47 50  1  0  0  0  0
 47 44  1  0  0  0  0
 47 48  1  0  0  0  0
 49 47  1  0  0  0  0
 50 51  1  0  0  0  0
 52 50  1  0  0  0  0
 53 56  1  0  0  0  0
 53 50  1  0  0  0  0
 53 54  1  0  0  0  0
 55 53  1  0  0  0  0
 56 58  1  0  0  0  0
 57 56  1  0  0  0  0
 59 62  1  0  0  0  0
 59 56  1  0  0  0  0
 59 61  1  0  0  0  0
 60 59  1  0  0  0  0
 62 64  1  0  0  0  0
 63 62  1  0  0  0  0
 65 68  1  0  0  0  0
 65 62  1  0  0  0  0
 65 66  1  0  0  0  0
 67 65  1  0  0  0  0
 68 69  1  0  0  0  0
 70 68  1  0  0  0  0
 71 68  1  0  0  0  0
 73  2  1  0  0  0  0
 74  1  1  0  0  0  0
M  CHG  1  74  -1
M  END
