4,5,8
q = -2.0, confidence = 0.962

 23 23  0  0  0  0  0  0  0  0999 V2000
    3.0748   -2.1690    0.0200 Br  0  0  0  0  0  0  0  0  0  0  0  0
    6.8216    1.9634   -0.0277 Cl  0  0  0  0  0  0  0  0  0  0  0  0
   -2.8597    4.7385   -0.0224 S   0  0  0  0  0  0  0  0  0  0  0  0
    1.1985    0.1572   -0.1395 O   0  5  0  0  0  0  0  0  0  0  0  0
   -1.8967    2.1468   -0.0957 N   0  0  0  0  0  2  0  0  0  0  0  0
   -2.8605    1.8392    0.0536 H   0  0  0  0  0  0  0  0  0  0  0  0
   -0.3750    3.9013   -0.1659 N   0  0  0  0  0  0  0  0  0  0  0  0
    0.4550    2.8242   -0.1534 N   0  0  0  0  0  2  0  0  0  0  0  0
   -4.3873    3.7566   -0.1044 C   0  0  0  0  0  0  0  0  0  0  0  0
   -5.2151    4.4906   -0.1080 H   0  0  0  0  0  0  0  0  0  0  0  0
   -4.4365    3.1565   -1.0344 H   0  0  0  0  0  0  0  0  0  0  0  0
   -4.5086    3.0955    0.7778 H   0  0  0  0  0  0  0  0  0  0  0  0
   -1.6283    3.4650   -0.1009 C   0  0  0  0  0  0  0  0  0  0  0  0
    1.7588    3.0352   -0.1603 C   0  0  0  0  0  0  0  0  0  0  0  0
    2.0727    4.0941   -0.1743 H   0  0  0  0  0  0  0  0  0  0  0  0
    2.7654    2.0147   -0.1287 C   0  0  0  0  0  0  0  0  0  0  0  0
    4.1314    2.4113   -0.1067 C   0  0  0  0  0  3  0  0  0  0  0  0
    4.3834    3.4811   -0.1291 H   0  0  0  0  0  0  0  0  0  0  0  0
    5.1454    1.4616   -0.0545 C   0  0  0  0  0  0  0  0  0  0  0  0
    4.8423    0.0822   -0.0175 C   0  0  0  0  0  0  0  0  0  0  0  0
    5.6470   -0.6628    0.0299 H   0  0  0  0  0  0  0  0  0  0  0  0
    3.5076   -0.3158   -0.0405 C   0  0  0  0  0  0  0  0  0  0  0  0
    2.4235    0.6151   -0.1038 C   0  0  0  0  0  0  0  0  0  0  0  0
  4 23  1  0  0  0  0
  5  6  1  0  0  0  0
  7  8  1  0  0  0  0
  7 13  2  0  0  0  0
  9  3  1  0  0  0  0
  9 12  1  0  0  0  0
 10  9  1  0  0  0  0
 11  9  1  0  0  0  0
 13  5  1  0  0  0  0
 13  3  1  0  0  0  0
 14  8  1  0  0  0  0
 14 16  2  0  0  0  0
 15 14  1  0  0  0  0
 16 17  1  0  0  0  0
 16 23  1  0  0  0  0
 17 19  1  0  0  0  0
 18 17  1  0  0  0  0
 19  2  1  0  0  0  0
 19 20  2  0  0  0  0
 20 21  1  0  0  0  0
 22 20  1  0  0  0  0
 22  1  1  0  0  0  0
 23 22  2  0  0  0  0
M  CHG  1   4  -1
M  END
