4,5,8
q = -2.0, confidence = 0.958

 26 26  0  0  0  0  0  0  0  0999 V2000
    3.5183   -1.6706    0.1276 Br  0  0  0  0  0  0  0  0  0  0  0  0
    6.2805    3.1712   -0.1061 Cl  0  0  0  0  0  0  0  0  0  0  0  0
   -3.8544    3.6410    0.0087 S   0  0  0  0  0  0  0  0  0  0  0  0
    1.1817    0.1898   -0.0469 O   0  5  0  0  0  0  0  0  0  0  0  0
   -2.2681    1.4628    0.0129 N   0  0  0  0  0  2  0  0  0  0  0  0
   -3.1535    0.9704    0.1651 H   0  0  0  0  0  0  0  0  0  0  0  0
   -1.1670    3.5043   -0.1226 N   0  0  0  0  0  0  0  0  0  0  0  0
   -0.1219    2.6293   -0.1114 N   0  0  0  0  0  2  0  0  0  0  0  0
   -4.5405    6.3005    0.0610 C   0  0  0  0  0  0  0  0  0  0  0  0
   -4.2234    7.3624    0.0881 H   0  0  0  0  0  0  0  0  0  0  0  0
   -5.1609    6.1550   -0.8465 H   0  0  0  0  0  0  0  0  0  0  0  0
   -5.1814    6.1160    0.9469 H   0  0  0  0  0  0  0  0  0  0  0  0
   -3.3147    5.3954    0.0540 C   0  0  0  0  0  0  0  0  0  0  0  0
   -2.6853    5.5322    0.9550 H   0  0  0  0  0  0  0  0  0  0  0  0
   -2.6666    5.5669   -0.8269 H   0  0  0  0  0  0  0  0  0  0  0  0
   -2.2955    2.8079   -0.0361 C   0  0  0  0  0  0  0  0  0  0  0  0
    1.1035    3.1180   -0.1503 C   0  0  0  0  0  0  0  0  0  0  0  0
    1.1810    4.2190   -0.1979 H   0  0  0  0  0  0  0  0  0  0  0  0
    2.3084    2.3416   -0.1161 C   0  0  0  0  0  0  0  0  0  0  0  0
    3.5561    3.0247   -0.1348 C   0  0  0  0  0  3  0  0  0  0  0  0
    3.5702    4.1226   -0.1888 H   0  0  0  0  0  0  0  0  0  0  0  0
    4.7524    2.3185   -0.0822 C   0  0  0  0  0  0  0  0  0  0  0  0
    4.7558    0.9076   -0.0042 C   0  0  0  0  0  0  0  0  0  0  0  0
    5.7036    0.3560    0.0437 H   0  0  0  0  0  0  0  0  0  0  0  0
    3.5393    0.2295    0.0118 C   0  0  0  0  0  0  0  0  0  0  0  0
    2.2778    0.9023   -0.0497 C   0  0  0  0  0  0  0  0  0  0  0  0
  2 22  1  0  0  0  0
  3 13  1  0  0  0  0
  5  6  1  0  0  0  0
  7  8  1  0  0  0  0
  7 16  2  0  0  0  0
  9 10  1  0  0  0  0
  9 12  1  0  0  0  0
 11  9  1  0  0  0  0
 13  9  1  0  0  0  0
 13 14  1  0  0  0  0
 15 13  1  0  0  0  0
 16  3  1  0  0  0  0
 16  5  1  0  0  0  0
 17 19  2  0  0  0  0
 17  8  1  0  0  0  0
 18 17  1  0  0  0  0
 19 26  1  0  0  0  0
 20 19  1  0  0  0  0
 20 22  1  0  0  0  0
 21 20  1  0  0  0  0
 22 23  2  0  0  0  0
 23 25  1  0  0  0  0
 23 24  1  0  0  0  0
 25  1  1  0  0  0  0
 26  4  1  0  0  0  0
 26 25  2  0  0  0  0
M  CHG  1   4  -1
M  END
