1,2,3
q = 0.0, confidence = 0.64

 55 56  0  0  1  0  0  0  0  0999 V2000
    0.6336   -0.7125   -0.2141 N   0  0  0  0  0  2  0  0  0  0  0  0
    3.2140   -0.2965    0.0039 N   0  0  0  0  0  2  0  0  0  0  0  0
   -0.1534    1.7964   -0.0125 O   0  5  0  0  0  0  0  0  0  0  0  0
   -1.1184    0.8683   -0.0526 C   0  0  0  0  0  0  0  0  0  0  0  0
   -0.7330   -0.5257   -0.0922 C   0  0  0  0  0  0  0  0  0  0  0  0
   -1.7395   -1.5218   -0.0392 C   0  0  0  0  0  0  0  0  0  0  0  0
   -1.4494   -2.5780   -0.0390 H   0  0  0  0  0  0  0  0  0  0  0  0
   -3.1072   -1.1802   -0.0048 C   0  0  0  0  0  0  0  0  0  0  0  0
   -3.4554    0.1846   -0.0189 C   0  0  0  0  0  0  0  0  0  0  0  0
   -4.5200    0.4553    0.0044 H   0  0  0  0  0  0  0  0  0  0  0  0
   -2.4970    1.2223   -0.0460 C   0  0  0  0  0  0  0  0  0  0  0  0
   -2.9064    2.7074   -0.0381 C   0  0  0  0  0  0  0  0  0  0  0  0
   -2.3246    3.4058   -1.2896 C   0  0  0  0  0  0  0  0  0  0  0  0
   -2.7423    2.9553   -2.2141 H   0  0  0  0  0  0  0  0  0  0  0  0
   -1.2238    3.2954   -1.3089 H   0  0  0  0  0  0  0  0  0  0  0  0
   -2.5781    4.4885   -1.2864 H   0  0  0  0  0  0  0  0  0  0  0  0
   -2.3538    3.3868    1.2370 C   0  0  0  0  0  0  0  0  0  0  0  0
   -1.2531    3.2819    1.2772 H   0  0  0  0  0  0  0  0  0  0  0  0
   -2.7871    2.9170    2.1447 H   0  0  0  0  0  0  0  0  0  0  0  0
   -2.6144    4.4679    1.2484 H   0  0  0  0  0  0  0  0  0  0  0  0
   -4.4339    2.8940   -0.0550 C   0  0  0  0  0  0  0  0  0  0  0  0
   -4.6752    3.9778   -0.0614 H   0  0  0  0  0  0  0  0  0  0  0  0
   -4.9169    2.4484    0.8393 H   0  0  0  0  0  0  0  0  0  0  0  0
   -4.8968    2.4401   -0.9556 H   0  0  0  0  0  0  0  0  0  0  0  0
   -4.2189   -2.2471    0.0500 C   0  0  0  0  0  0  0  0  0  0  0  0
   -5.1424   -2.1001   -1.1811 C   0  0  0  0  0  0  0  0  0  0  0  0
   -5.6001   -1.0920   -1.2229 H   0  0  0  0  0  0  0  0  0  0  0  0
   -5.9640   -2.8499   -1.1591 H   0  0  0  0  0  0  0  0  0  0  0  0
   -4.5659   -2.2416   -2.1180 H   0  0  0  0  0  0  0  0  0  0  0  0
   -3.6587   -3.6804    0.0534 C   0  0  0  0  0  0  0  0  0  0  0  0
   -3.0667   -3.8896   -0.8607 H   0  0  0  0  0  0  0  0  0  0  0  0
   -4.4901   -4.4154    0.0938 H   0  0  0  0  0  0  0  0  0  0  0  0
   -3.0048   -3.8612    0.9306 H   0  0  0  0  0  0  0  0  0  0  0  0
   -5.0548   -2.0598    1.3371 C   0  0  0  0  0  0  0  0  0  0  0  0
   -4.4143   -2.1720    2.2355 H   0  0  0  0  0  0  0  0  0  0  0  0
   -5.8755   -2.8086    1.3966 H   0  0  0  0  0  0  0  0  0  0  0  0
   -5.5085   -1.0498    1.3780 H   0  0  0  0  0  0  0  0  0  0  0  0
    1.3689   -1.9545   -0.0227 C   0  0  0  0  0  0  0  0  0  0  0  0
    1.0742   -2.5824    1.3678 C   0  0  0  0  0  0  0  0  0  0  0  0
    1.3817   -1.8703    2.1587 H   0  0  0  0  0  0  0  0  0  0  0  0
    1.6115   -3.5415    1.5166 H   0  0  0  0  0  0  0  0  0  0  0  0
   -0.0129   -2.7616    1.4791 H   0  0  0  0  0  0  0  0  0  0  0  0
    1.0710   -2.9481   -1.1757 C   0  0  0  0  0  0  0  0  0  0  0  0
   -0.0145   -3.1470   -1.2383 H   0  0  0  0  0  0  0  0  0  0  0  0
    1.5903   -3.9190   -1.0387 H   0  0  0  0  0  0  0  0  0  0  0  0
    1.3891   -2.5014   -2.1377 H   0  0  0  0  0  0  0  0  0  0  0  0
    2.8663   -1.6239   -0.0440 C   0  0  2  0  0  3  0  0  0  0  0  0
    3.8625   -2.6087   -0.0696 C   0  0  0  0  0  0  0  0  0  0  0  0
    3.5660   -3.6667   -0.1080 H   0  0  0  0  0  0  0  0  0  0  0  0
    5.2197   -2.2505   -0.0400 C   0  0  0  0  0  0  0  0  0  0  0  0
    6.0025   -3.0238   -0.0581 H   0  0  0  0  0  0  0  0  0  0  0  0
    5.5493   -0.8836    0.0136 C   0  0  0  0  0  0  0  0  0  0  0  0
    6.5962   -0.5460    0.0409 H   0  0  0  0  0  0  0  0  0  0  0  0
    4.5261    0.0621    0.0333 C   0  0  0  0  0  0  0  0  0  0  0  0
    4.6833    1.1547    0.0749 H   0  0  0  0  0  0  0  0  0  0  0  0
  1  5  1  0  0  0  0
  1 38  1  0  0  0  0
  2 54  1  0  0  0  0
  4 11  1  0  0  0  0
  4  3  1  0  0  0  0
  5  4  2  0  0  0  0
  5  6  1  0  0  0  0
  6  7  1  0  0  0  0
  6  8  2  0  0  0  0
  8 25  1  0  0  0  0
  9  8  1  0  0  0  0
  9 10  1  0  0  0  0
 11 12  1  0  0  0  0
 11  9  2  0  0  0  0
 12 17  1  0  0  0  0
 13 16  1  0  0  0  0
 13 12  1  0  0  0  0
 14 13  1  0  0  0  0
 15 13  1  0  0  0  0
 17 20  1  0  0  0  0
 17 18  1  0  0  0  0
 17 19  1  0  0  0  0
 21 12  1  0  0  0  0
 21 23  1  0  0  0  0
 22 21  1  0  0  0  0
 24 21  1  0  0  0  0
 25 30  1  0  0  0  0
 25 34  1  0  0  0  0
 26 28  1  0  0  0  0
 26 25  1  0  0  0  0
 27 26  1  0  0  0  0
 29 26  1  0  0  0  0
 30 32  1  0  0  0  0
 30 33  1  0  0  0  0
 31 30  1  0  0  0  0
 34 37  1  0  0  0  0
 34 36  1  0  0  0  0
 34 35  1  0  0  0  0
 38 39  1  0  0  0  0
 39 42  1  0  0  0  0
 39 41  1  0  0  0  0
 39 40  1  0  0  0  0
 43 45  1  0  0  0  0
 43 38  1  0  0  0  0
 44 43  1  0  0  0  0
 46 43  1  0  0  0  0
 47 38  1  1  0  0  0
 47  2  1  0  0  0  0
 48 47  1  0  0  0  0
 48 50  2  0  0  0  0
 49 48  1  0  0  0  0
 50 52  1  0  0  0  0
 51 50  1  0  0  0  0
 52 54  2  0  0  0  0
 52 53  1  0  0  0  0
 54 55  1  0  0  0  0
M  CHG  1   3  -1
M  END
