1,3,5
q = -1.0

 47 49  0  0  1  0  0  0  0  0999 V2000
    0.5492    2.1250   -0.3525 N   0  0  0  0  0  2  0  0  0  0  0  0
   -0.7564    2.4777   -0.2409 N   0  0  0  0  0  0  0  0  0  0  0  0
   -0.4762    0.0112    1.3913 N   0  0  0  0  0  2  0  0  0  0  0  0
   -1.6070    0.7343    1.1842 N   0  0  0  0  0  0  0  0  0  0  0  0
   -0.5923   -0.2388   -1.4724 O   0  0  0  0  0  1  0  0  0  0  0  0
   -0.9497    3.7990   -0.5596 C   0  0  1  0  0  3  0  0  0  0  0  0
    0.3124    4.3054   -0.8750 C   0  0  0  0  0  0  0  0  0  0  0  0
    0.5440    5.3343   -1.1689 H   0  0  0  0  0  0  0  0  0  0  0  0
    1.2208    3.2234   -0.7380 C   0  0  0  0  0  0  0  0  0  0  0  0
   -2.2935    4.4493   -0.5516 C   0  0  0  0  0  0  0  0  0  0  0  0
   -2.9657    4.0261   -1.3279 H   0  0  0  0  0  0  0  0  0  0  0  0
   -2.1869    5.5300   -0.7568 H   0  0  0  0  0  0  0  0  0  0  0  0
   -2.8028    4.3409    0.4289 H   0  0  0  0  0  0  0  0  0  0  0  0
    2.6972    3.1748   -0.9616 C   0  0  0  0  0  0  0  0  0  0  0  0
    3.2568    3.6020   -0.1035 H   0  0  0  0  0  0  0  0  0  0  0  0
    2.9785    3.7510   -1.8643 H   0  0  0  0  0  0  0  0  0  0  0  0
    3.0248    2.1252   -1.0905 H   0  0  0  0  0  0  0  0  0  0  0  0
   -2.5657    0.4467    2.1241 C   0  0  2  0  0  3  0  0  0  0  0  0
   -1.9898   -0.4919    2.9822 C   0  0  0  0  0  0  0  0  0  0  0  0
   -2.4657   -0.9444    3.8581 H   0  0  0  0  0  0  0  0  0  0  0  0
   -0.6857   -0.7431    2.4844 C   0  0  0  0  0  0  0  0  0  0  0  0
   -3.9347    1.0384    2.1036 C   0  0  0  0  0  0  0  0  0  0  0  0
   -3.9115    2.1468    2.0442 H   0  0  0  0  0  0  0  0  0  0  0  0
   -4.4741    0.7631    3.0280 H   0  0  0  0  0  0  0  0  0  0  0  0
   -4.5209    0.6597    1.2395 H   0  0  0  0  0  0  0  0  0  0  0  0
    0.3752   -1.6714    2.9802 C   0  0  0  0  0  0  0  0  0  0  0  0
    1.1226   -1.8484    2.1816 H   0  0  0  0  0  0  0  0  0  0  0  0
   -0.0627   -2.6412    3.2871 H   0  0  0  0  0  0  0  0  0  0  0  0
    0.9078   -1.2533    3.8597 H   0  0  0  0  0  0  0  0  0  0  0  0
   -1.7653    1.4439   -0.0754 C   0  0  2  0  0  0  0  0  0  0  0  0
   -2.7432    1.9524   -0.0365 H   0  0  0  0  0  0  0  0  0  0  0  0
   -1.7570    0.4326   -1.3155 C   0  0  2  0  0  0  0  0  0  0  0  0
   -1.9910    1.1220   -2.1803 H   0  0  0  0  0  0  0  0  0  0  0  0
   -2.9798   -0.4685   -1.1116 C   0  0  0  0  0  0  0  0  0  0  0  0
   -4.2795   -0.0318   -1.4231 C   0  0  0  0  0  0  0  0  0  0  0  0
   -4.4236    0.9549   -1.8972 H   0  0  0  0  0  0  0  0  0  0  0  0
   -5.3938   -0.8385   -1.1466 C   0  0  0  0  0  0  0  0  0  0  0  0
   -6.4045   -0.4827   -1.4049 H   0  0  0  0  0  0  0  0  0  0  0  0
   -5.2397   -2.1068   -0.5492 C   0  0  0  0  0  0  0  0  0  0  0  0
   -3.9300   -2.5394   -0.2502 C   0  0  0  0  0  0  0  0  0  0  0  0
   -3.7832   -3.5291    0.2121 H   0  0  0  0  0  0  0  0  0  0  0  0
   -2.8164   -1.7386   -0.5334 C   0  0  0  0  0  0  0  0  0  0  0  0
   -1.7927   -2.0792   -0.3171 H   0  0  0  0  0  0  0  0  0  0  0  0
   -6.4302   -2.9928   -0.2789 C   0  0  0  0  0  0  0  0  0  0  0  0
   -6.5703   -3.7337   -1.0956 H   0  0  0  0  0  0  0  0  0  0  0  0
   -7.3684   -2.4087   -0.2031 H   0  0  0  0  0  0  0  0  0  0  0  0
   -6.3048   -3.5697    0.6594 H   0  0  0  0  0  0  0  0  0  0  0  0
  1  2  1  0  0  0  0
  2 30  1  0  0  0  0
  3 21  1  0  0  0  0
  4  3  1  0  0  0  0
  4 18  1  0  0  0  0
  5 32  1  0  0  0  0
  6 10  1  6  0  0  0
  6  2  1  0  0  0  0
  7  9  2  0  0  0  0
  7  6  1  0  0  0  0
  8  7  1  0  0  0  0
  9  1  1  0  0  0  0
 10 13  1  0  0  0  0
 11 10  1  0  0  0  0
 12 10  1  0  0  0  0
 14  9  1  0  0  0  0
 14 15  1  0  0  0  0
 16 14  1  0  0  0  0
 17 14  1  0  0  0  0
 18 22  1  6  0  0  0
 18 19  1  0  0  0  0
 19 20  1  0  0  0  0
 21 26  1  0  0  0  0
 21 19  2  0  0  0  0
 22 24  1  0  0  0  0
 23 22  1  0  0  0  0
 25 22  1  0  0  0  0
 26 28  1  0  0  0  0
 26 29  1  0  0  0  0
 27 26  1  0  0  0  0
 30 31  1  1  0  0  0
 30  4  1  0  0  0  0
 32 33  1  6  0  0  0
 32 34  1  0  0  0  0
 32 30  1  0  0  0  0
 34 42  1  0  0  0  0
 35 37  1  0  0  0  0
 35 34  2  0  0  0  0
 36 35  1  0  0  0  0
 37 39  2  0  0  0  0
 38 37  1  0  0  0  0
 39 44  1  0  0  0  0
 39 40  1  0  0  0  0
 40 41  1  0  0  0  0
 42 43  1  0  0  0  0
 42 40  2  0  0  0  0
 44 46  1  0  0  0  0
 44 47  1  0  0  0  0
 45 44  1  0  0  0  0
M  END
