1,5,15
q = -1.0, confidence = 0.0

 30 30  0  0  0  0  0  0  0  0999 V2000
   -0.6311    0.2635   -1.8560 N   0  0  0  0  0  0  0  0  0  0  0  0
   -1.6240    1.3269   -2.1462 C   0  0  0  0  0  0  0  0  0  0  0  0
   -1.1887    2.7055   -1.6566 C   0  0  0  0  0  0  0  0  0  0  0  0
   -0.8762    2.7640   -0.1538 C   0  0  0  0  0  0  0  0  0  0  0  0
    0.2739    1.9072    0.1300 N   0  0  0  0  0  2  0  0  0  0  0  0
    1.4497    2.4558    0.2979 C   0  0  0  0  0  3  0  0  0  0  0  0
    2.7111    1.7641    0.2881 C   0  0  0  0  0  0  0  0  0  0  0  0
    3.8932    2.4338    0.7191 C   0  0  0  0  0  0  0  0  0  0  0  0
    5.1280    1.8129    0.6033 C   0  0  0  0  0  0  0  0  0  0  0  0
    5.2221    0.5171    0.0396 C   0  0  0  0  0  0  0  0  0  0  0  0
    4.0819   -0.1589   -0.4084 C   0  0  0  0  0  0  0  0  0  0  0  0
    4.0661   -1.4066   -0.9471 O   0  0  0  0  0  0  0  0  0  0  0  0
    5.3066   -2.0748   -1.1245 C   0  0  0  0  0  0  0  0  0  0  0  0
    2.7836    0.4560   -0.2930 C   0  0  0  0  0  0  0  0  0  0  0  0
    1.7443   -0.2041   -0.7450 O   0  5  0  0  0  0  0  0  0  0  0  0
   -2.5750    1.0313   -1.6631 H   0  0  0  0  0  0  0  0  0  0  0  0
   -1.8124    1.3602   -3.2408 H   0  0  0  0  0  0  0  0  0  0  0  0
   -2.0076    3.4188   -1.8821 H   0  0  0  0  0  0  0  0  0  0  0  0
   -0.3005    3.0539   -2.2284 H   0  0  0  0  0  0  0  0  0  0  0  0
   -1.7460    2.4038    0.4300 H   0  0  0  0  0  0  0  0  0  0  0  0
   -0.6437    3.8100    0.1388 H   0  0  0  0  0  0  0  0  0  0  0  0
    1.4859    3.5579    0.4217 H   0  0  0  0  0  0  0  0  0  0  0  0
    3.8106    3.4459    1.1432 H   0  0  0  0  0  0  0  0  0  0  0  0
    6.0421    2.3204    0.9418 H   0  0  0  0  0  0  0  0  0  0  0  0
    6.2086    0.0402   -0.0388 H   0  0  0  0  0  0  0  0  0  0  0  0
    5.0720   -3.0504   -1.5873 H   0  0  0  0  0  0  0  0  0  0  0  0
    5.8253   -2.2464   -0.1550 H   0  0  0  0  0  0  0  0  0  0  0  0
    5.9837   -1.5059   -1.7985 H   0  0  0  0  0  0  0  0  0  0  0  0
   -0.9897   -0.6431   -2.1924 H   0  0  0  0  0  0  0  0  0  0  0  0
    0.2592    0.4256   -2.3556 H   0  0  0  0  0  0  0  0  0  0  0  0
  2  1  1  0  0  0  0
  2 16  1  0  0  0  0
  2  3  1  0  0  0  0
  3  4  1  0  0  0  0
  4  5  1  0  0  0  0
  4 21  1  0  0  0  0
  4 20  1  0  0  0  0
  5  6  1  0  0  0  0
  6 22  1  0  0  0  0
  7  6  1  0  0  0  0
  7  8  1  0  0  0  0
  8 23  1  0  0  0  0
  9  8  2  0  0  0  0
  9 24  1  0  0  0  0
 10  9  1  0  0  0  0
 11 14  1  0  0  0  0
 11 10  2  0  0  0  0
 12 11  1  0  0  0  0
 13 12  1  0  0  0  0
 13 27  1  0  0  0  0
 14  7  2  0  0  0  0
 15 14  1  0  0  0  0
 17  2  1  0  0  0  0
 18  3  1  0  0  0  0
 19  3  1  0  0  0  0
 25 10  1  0  0  0  0
 26 13  1  0  0  0  0
 28 13  1  0  0  0  0
 29  1  1  0  0  0  0
 30  1  1  0  0  0  0
M  CHG  1  15  -1
M  END
