1,2,3
q = -1.0

 33 34  0  0  1  0  0  0  0  0999 V2000
   -1.1523    1.0678   -0.0459 O   0  0  0  0  0  1  0  0  0  0  0  0
   -0.9301   -1.6435   -0.1319 N   0  0  0  0  0  2  0  0  0  0  0  0
    1.7016   -1.4930   -0.1645 N   0  0  0  0  0  0  0  0  0  0  0  0
   -2.4321    0.8557    0.0368 C   0  0  2  0  0  3  0  0  0  0  0  0
   -3.0483   -0.4516    0.0355 C   0  0  0  0  0  0  0  0  0  0  0  0
   -2.2453   -1.6230   -0.0513 C   0  0  0  0  0  0  0  0  0  0  0  0
   -2.7730   -2.5980   -0.0507 H   0  0  0  0  0  0  0  0  0  0  0  0
    2.0694   -1.6719    1.2756 C   0  0  0  0  0  0  0  0  0  0  0  0
    2.5615   -2.6676    1.3925 H   0  0  0  0  0  0  0  0  0  0  0  0
    1.1658   -1.6516    1.9139 H   0  0  0  0  0  0  0  0  0  0  0  0
   -4.4673   -0.5687    0.1226 C   0  0  0  0  0  0  0  0  0  0  0  0
   -4.9102   -1.5780    0.1169 H   0  0  0  0  0  0  0  0  0  0  0  0
    1.1143   -2.7038   -0.7789 C   0  0  0  0  0  0  0  0  0  0  0  0
    1.7909   -3.5790   -0.6425 H   0  0  0  0  0  0  0  0  0  0  0  0
    1.0120   -2.5093   -1.8652 H   0  0  0  0  0  0  0  0  0  0  0  0
    3.0532   -0.5407    1.5515 C   0  0  0  0  0  0  0  0  0  0  0  0
    3.6819   -0.7559    2.4365 H   0  0  0  0  0  0  0  0  0  0  0  0
    2.5028    0.4001    1.7421 H   0  0  0  0  0  0  0  0  0  0  0  0
    2.9852   -1.0946   -0.8390 C   0  0  0  0  0  0  0  0  0  0  0  0
    2.7459   -0.4277   -1.6860 H   0  0  0  0  0  0  0  0  0  0  0  0
    3.4606   -2.0211   -1.2293 H   0  0  0  0  0  0  0  0  0  0  0  0
    3.8639   -0.4305    0.2417 C   0  0  0  0  0  0  0  0  0  0  0  0
    4.8283   -0.9696    0.3262 H   0  0  0  0  0  0  0  0  0  0  0  0
    4.0877    0.6260    0.0021 H   0  0  0  0  0  0  0  0  0  0  0  0
   -3.2980    1.9917    0.1352 C   0  0  0  0  0  0  0  0  0  0  0  0
   -2.8223    2.9827    0.1363 H   0  0  0  0  0  0  0  0  0  0  0  0
   -0.2491   -2.9394   -0.1576 C   0  0  0  0  0  0  0  0  0  0  0  0
   -0.8251   -3.6933   -0.7353 H   0  0  0  0  0  0  0  0  0  0  0  0
   -0.1408   -3.3344    0.8776 H   0  0  0  0  0  0  0  0  0  0  0  0
   -5.2771    0.5523    0.2164 C   0  0  0  0  0  0  0  0  0  0  0  0
   -6.3696    0.4502    0.2844 H   0  0  0  0  0  0  0  0  0  0  0  0
   -4.6746    1.8387    0.2231 C   0  0  0  0  0  0  0  0  0  0  0  0
   -5.3105    2.7349    0.2971 H   0  0  0  0  0  0  0  0  0  0  0  0
  2  6  1  0  0  0  0
  3  8  1  0  0  0  0
  4  1  1  6  0  0  0
  4 25  1  0  0  0  0
  5  4  1  0  0  0  0
  5 11  1  0  0  0  0
  6  7  1  0  0  0  0
  6  5  2  0  0  0  0
  8  9  1  0  0  0  0
  8 16  1  0  0  0  0
  8 10  1  0  0  0  0
 11 30  2  0  0  0  0
 12 11  1  0  0  0  0
 13 14  1  0  0  0  0
 13  3  1  0  0  0  0
 13 27  1  0  0  0  0
 15 13  1  0  0  0  0
 16 18  1  0  0  0  0
 16 17  1  0  0  0  0
 19  3  1  0  0  0  0
 19 22  1  0  0  0  0
 20 19  1  0  0  0  0
 21 19  1  0  0  0  0
 22 23  1  0  0  0  0
 22 16  1  0  0  0  0
 24 22  1  0  0  0  0
 25 26  1  0  0  0  0
 25 32  2  0  0  0  0
 27  2  1  0  0  0  0
 27 29  1  0  0  0  0
 28 27  1  0  0  0  0
 30 32  1  0  0  0  0
 30 31  1  0  0  0  0
 32 33  1  0  0  0  0
M  END
