4,11,22
q = -1.0

 23 24  0  0  1  0  0  0  0  0999 V2000
    3.3576    1.1137    2.2553 S   0  0  0  0  0  0  0  0  0  0  0  0
    2.0049    0.0779    1.5972 C   0  0  1  0  0  0  0  0  0  0  0  0
    1.4852   -0.3868    2.4622 H   0  0  0  0  0  0  0  0  0  0  0  0
    1.0793    1.0168    0.9002 N   0  0  0  0  0  0  0  0  0  0  0  0
    0.5262    1.5025    1.6194 H   0  0  0  0  0  0  0  0  0  0  0  0
    1.8921    2.0544    0.1653 C   0  0  1  0  0  0  0  0  0  0  0  0
    1.4158    3.0359    0.3596 H   0  0  0  0  0  0  0  0  0  0  0  0
    3.3514    2.0470    0.6748 C   0  0  0  0  0  0  0  0  0  0  0  0
    3.7287    3.0663    0.8771 H   0  0  0  0  0  0  0  0  0  0  0  0
    4.0250    1.5754   -0.0675 H   0  0  0  0  0  0  0  0  0  0  0  0
    1.5148   -1.1869   -0.3993 N   0  0  0  0  0  2  0  0  0  0  0  0
    2.4209   -0.9790    0.5900 C   0  0  2  0  0  3  0  0  0  0  0  0
    3.6187   -1.6975    0.6409 C   0  0  0  0  0  0  0  0  0  0  0  0
    4.3381   -1.4832    1.4445 H   0  0  0  0  0  0  0  0  0  0  0  0
    3.8795   -2.6454   -0.3602 C   0  0  0  0  0  0  0  0  0  0  0  0
    4.8157   -3.2227   -0.3450 H   0  0  0  0  0  0  0  0  0  0  0  0
    2.9458   -2.8271   -1.3911 C   0  0  0  0  0  0  0  0  0  0  0  0
    3.1265   -3.5394   -2.2083 H   0  0  0  0  0  0  0  0  0  0  0  0
    1.7702   -2.0688   -1.3892 C   0  0  0  0  0  0  0  0  0  0  0  0
    1.0069   -2.1294   -2.1801 H   0  0  0  0  0  0  0  0  0  0  0  0
    1.8204    1.8272   -1.3648 C   0  0  0  0  0  0  0  0  0  0  0  0
    0.8800    0.9987   -1.7572 O   0  5  0  0  0  0  0  0  0  0  0  0
    2.5788    2.4301   -2.1037 O   0  0  0  0  0  0  0  0  0  0  0  0
  2  1  1  0  0  0  0
  2  3  1  1  0  0  0
  4  2  1  0  0  0  0
  4  5  1  0  0  0  0
  6  7  1  1  0  0  0
  6  8  1  0  0  0  0
  6  4  1  0  0  0  0
  8  9  1  0  0  0  0
  8  1  1  0  0  0  0
 10  8  1  0  0  0  0
 12 11  1  1  0  0  0
 12 13  1  0  0  0  0
 12  2  1  0  0  0  0
 13 14  1  0  0  0  0
 15 16  1  0  0  0  0
 15 13  2  0  0  0  0
 17 19  2  0  0  0  0
 17 15  1  0  0  0  0
 18 17  1  0  0  0  0
 19 11  1  0  0  0  0
 20 19  1  0  0  0  0
 21  6  1  0  0  0  0
 22 21  1  0  0  0  0
 23 21  2  0  0  0  0
M  CHG  1  22  -1
M  END
