1,2,4
q = -1.0

 34 35  0  0  0  0  0  0  0  0999 V2000
    1.4203   -0.5026    1.1984 O   0  5  0  0  0  0  0  0  0  0  0  0
    1.0532   -0.4097   -1.6550 N   0  0  0  0  0  0  0  0  0  0  0  0
    0.3076   -0.8477   -2.2142 H   0  0  0  0  0  0  0  0  0  0  0  0
    0.7533    1.8344    0.0342 N   0  0  0  0  0  2  0  0  0  0  0  0
    7.1731   -0.7778   -1.2923 O   0  0  0  0  0  0  0  0  0  0  0  0
    2.7018   -0.4924    0.8570 C   0  0  0  0  0  0  0  0  0  0  0  0
    3.1455   -0.9166   -0.4339 C   0  0  0  0  0  0  0  0  0  0  0  0
    6.8695   -0.4361   -0.1480 N   0  0  0  0  0  0  0  0  0  0  0  0
    2.1166   -1.4260   -1.4000 C   0  0  0  0  0  0  0  0  0  0  0  0
    2.5966   -1.7069   -2.3613 H   0  0  0  0  0  0  0  0  0  0  0  0
    1.6124   -2.3285   -0.9984 H   0  0  0  0  0  0  0  0  0  0  0  0
    4.5073   -0.8892   -0.7514 C   0  0  0  0  0  0  0  0  0  0  0  0
    4.8806   -1.2033   -1.7370 H   0  0  0  0  0  0  0  0  0  0  0  0
    5.4366   -0.4680    0.2080 C   0  0  0  0  0  0  0  0  0  0  0  0
    3.6749   -0.0818    1.8099 C   0  0  0  0  0  0  0  0  0  0  0  0
    3.3332    0.2150    2.8126 H   0  0  0  0  0  0  0  0  0  0  0  0
    1.1542    2.3596    1.2179 C   0  0  0  0  0  3  0  0  0  0  0  0
    1.2723    1.6430    2.0449 H   0  0  0  0  0  0  0  0  0  0  0  0
    5.0327   -0.0755    1.4928 C   0  0  0  0  0  0  0  0  0  0  0  0
    5.7994    0.2377    2.2147 H   0  0  0  0  0  0  0  0  0  0  0  0
    0.7809    2.6209   -1.0777 C   0  0  0  0  0  0  0  0  0  0  0  0
    1.5726    0.7274   -2.4581 C   0  0  0  0  0  0  0  0  0  0  0  0
    2.5777    0.9805   -2.0645 H   0  0  0  0  0  0  0  0  0  0  0  0
    1.7078    0.3821   -3.5050 H   0  0  0  0  0  0  0  0  0  0  0  0
    0.6643    1.9556   -2.4187 C   0  0  0  0  0  0  0  0  0  0  0  0
   -0.3847    1.6669   -2.6288 H   0  0  0  0  0  0  0  0  0  0  0  0
    0.9896    2.6677   -3.2003 H   0  0  0  0  0  0  0  0  0  0  0  0
    1.0659    3.9944   -0.9676 C   0  0  0  0  0  0  0  0  0  0  0  0
    1.0601    4.6086   -1.8794 H   0  0  0  0  0  0  0  0  0  0  0  0
    1.4697    3.7071    1.3851 C   0  0  0  0  0  0  0  0  0  0  0  0
    1.7871    4.0734    2.3713 H   0  0  0  0  0  0  0  0  0  0  0  0
    7.6580   -0.0671    0.7213 O   0  0  0  0  0  0  0  0  0  0  0  0
    1.3829    4.5563    0.2728 C   0  0  0  0  0  0  0  0  0  0  0  0
    1.6016    5.6306    0.3623 H   0  0  0  0  0  0  0  0  0  0  0  0
  2  9  1  0  0  0  0
  3  2  1  0  0  0  0
  4 17  1  0  0  0  0
  5  8  2  0  0  0  0
  6  1  1  0  0  0  0
  6 15  1  0  0  0  0
  7  6  2  0  0  0  0
  8 14  1  0  0  0  0
  8 32  2  0  0  0  0
  9 11  1  0  0  0  0
  9  7  1  0  0  0  0
 10  9  1  0  0  0  0
 12  7  1  0  0  0  0
 12 14  2  0  0  0  0
 13 12  1  0  0  0  0
 14 19  1  0  0  0  0
 15 16  1  0  0  0  0
 17 30  1  0  0  0  0
 17 18  1  0  0  0  0
 19 15  2  0  0  0  0
 19 20  1  0  0  0  0
 21 28  2  0  0  0  0
 21  4  1  0  0  0  0
 22 25  1  0  0  0  0
 22 23  1  0  0  0  0
 22  2  1  0  0  0  0
 24 22  1  0  0  0  0
 25 21  1  0  0  0  0
 26 25  1  0  0  0  0
 27 25  1  0  0  0  0
 28 33  1  0  0  0  0
 29 28  1  0  0  0  0
 30 31  1  0  0  0  0
 33 34  1  0  0  0  0
 33 30  2  0  0  0  0
M  CHG  1   1  -1
M  END
