1,2,3
q = -1.0

 34 35  0  0  1  0  0  0  0  0999 V2000
    1.1420    0.4400    0.2004 N   0  0  0  0  0  2  0  0  0  0  0  0
   -1.5208    0.7168   -0.1046 N   0  0  0  0  0  2  0  0  0  0  0  0
   -1.8611   -2.1995   -0.1191 O   0  0  0  0  0  1  0  0  0  0  0  0
    1.4712    2.6597    0.3359 O   0  0  0  0  0  0  0  0  0  0  0  0
   -2.9784   -1.7356   -0.8299 C   0  0  0  0  0  0  0  0  0  0  0  0
   -3.7285   -2.5561   -0.8674 H   0  0  0  0  0  0  0  0  0  0  0  0
   -2.6844   -1.4854   -1.8791 H   0  0  0  0  0  0  0  0  0  0  0  0
   -3.6377   -0.5187   -0.1596 C   0  0  0  0  0  0  0  0  0  0  0  0
   -4.6430   -0.3542   -0.5976 H   0  0  0  0  0  0  0  0  0  0  0  0
   -3.7915   -0.7713    0.9138 H   0  0  0  0  0  0  0  0  0  0  0  0
   -2.8590    0.7717   -0.2163 C   0  0  1  0  0  3  0  0  0  0  0  0
   -3.5085    2.0229   -0.3323 C   0  0  0  0  0  0  0  0  0  0  0  0
   -4.6033    2.0535   -0.4320 H   0  0  0  0  0  0  0  0  0  0  0  0
   -2.7612    3.2050   -0.3107 C   0  0  0  0  0  0  0  0  0  0  0  0
   -3.2610    4.1809   -0.3985 H   0  0  0  0  0  0  0  0  0  0  0  0
   -1.3675    3.1314   -0.1689 C   0  0  0  0  0  0  0  0  0  0  0  0
   -0.7310    4.0255   -0.1288 H   0  0  0  0  0  0  0  0  0  0  0  0
   -0.7952    1.8569   -0.0745 C   0  0  0  0  0  0  0  0  0  0  0  0
    0.6414    1.6303    0.1289 C   0  0  2  0  0  3  0  0  0  0  0  0
    2.7927    2.0756    0.5647 C   0  0  0  0  0  0  0  0  0  0  0  0
    3.1639    2.4614    1.5323 H   0  0  0  0  0  0  0  0  0  0  0  0
    3.4569    2.4276   -0.2501 H   0  0  0  0  0  0  0  0  0  0  0  0
    2.5664    0.5353    0.5464 C   0  0  2  0  0  0  0  0  0  0  0  0
    2.6743    0.1041    1.5660 H   0  0  0  0  0  0  0  0  0  0  0  0
    3.4682   -0.2652   -0.4174 C   0  0  0  0  0  0  0  0  0  0  0  0
    3.1438   -1.3210   -0.2954 H   0  0  0  0  0  0  0  0  0  0  0  0
    3.2580    0.1241   -1.8834 C   0  0  0  0  0  0  0  0  0  0  0  0
    2.2052   -0.0349   -2.1927 H   0  0  0  0  0  0  0  0  0  0  0  0
    3.8983   -0.4999   -2.5382 H   0  0  0  0  0  0  0  0  0  0  0  0
    3.5306    1.1835   -2.0814 H   0  0  0  0  0  0  0  0  0  0  0  0
    4.9330   -0.1557    0.0211 C   0  0  0  0  0  0  0  0  0  0  0  0
    5.3221    0.8800   -0.0872 H   0  0  0  0  0  0  0  0  0  0  0  0
    5.5747   -0.8087   -0.6028 H   0  0  0  0  0  0  0  0  0  0  0  0
    5.0692   -0.4617    1.0788 H   0  0  0  0  0  0  0  0  0  0  0  0
  1 23  1  0  0  0  0
  2 18  1  0  0  0  0
  4 20  1  0  0  0  0
  5  8  1  0  0  0  0
  5  3  1  0  0  0  0
  6  5  1  0  0  0  0
  7  5  1  0  0  0  0
  8 10  1  0  0  0  0
  9  8  1  0  0  0  0
 11  8  1  1  0  0  0
 11  2  1  0  0  0  0
 12 14  2  0  0  0  0
 12 11  1  0  0  0  0
 13 12  1  0  0  0  0
 14 16  1  0  0  0  0
 15 14  1  0  0  0  0
 16 17  1  0  0  0  0
 16 18  2  0  0  0  0
 19 18  1  1  0  0  0
 19  1  1  0  0  0  0
 19  4  1  0  0  0  0
 20 21  1  0  0  0  0
 22 20  1  0  0  0  0
 23 20  1  0  0  0  0
 23 24  1  1  0  0  0
 25 26  1  0  0  0  0
 25 31  1  0  0  0  0
 25 23  1  0  0  0  0
 27 25  1  0  0  0  0
 28 27  1  0  0  0  0
 29 27  1  0  0  0  0
 30 27  1  0  0  0  0
 31 34  1  0  0  0  0
 32 31  1  0  0  0  0
 33 31  1  0  0  0  0
M  END
