1,5,6
q = -1.0

 34 36  0  0  1  0  0  0  0  0999 V2000
   -1.1276    1.5166   -2.5600 O   0  5  0  0  0  0  0  0  0  0  0  0
   -3.1219    2.5871   -2.7273 O   0  0  0  0  0  0  0  0  0  0  0  0
  -11.0370   -0.9811    1.7206 O   0  0  0  0  0  0  0  0  0  0  0  0
  -11.0233    1.1890    1.4489 O   0  0  0  0  0  0  0  0  0  0  0  0
   -0.4165   -1.8925    0.3351 N   0  0  0  0  0  2  0  0  0  0  0  0
   -2.2250   -0.2467   -0.7733 N   0  0  0  0  0  2  0  0  0  0  0  0
  -10.4876    0.0820    1.4353 N   0  0  0  0  0  0  0  0  0  0  0  0
    0.5242   -2.7561    0.7356 C   0  0  0  0  0  3  0  0  0  0  0  0
    1.5587   -2.5341    0.4262 H   0  0  0  0  0  0  0  0  0  0  0  0
    0.2340   -3.8949    1.5026 C   0  0  0  0  0  0  0  0  0  0  0  0
    1.0394   -4.5781    1.8074 H   0  0  0  0  0  0  0  0  0  0  0  0
   -1.1026   -4.1346    1.8498 C   0  0  0  0  0  0  0  0  0  0  0  0
   -1.3791   -5.0196    2.4420 H   0  0  0  0  0  0  0  0  0  0  0  0
   -2.0895   -3.2397    1.4186 C   0  0  0  0  0  0  0  0  0  0  0  0
   -3.1452   -3.4261    1.6584 H   0  0  0  0  0  0  0  0  0  0  0  0
   -1.7099   -2.1179    0.6532 C   0  0  0  0  0  0  0  0  0  0  0  0
   -2.7007   -1.1336    0.1223 C   0  0  2  0  0  3  0  0  0  0  0  0
   -4.0533   -1.1012    0.5019 C   0  0  0  0  0  0  0  0  0  0  0  0
   -4.4327   -1.7947    1.2639 H   0  0  0  0  0  0  0  0  0  0  0  0
   -4.9217   -0.1384   -0.0638 C   0  0  0  0  0  0  0  0  0  0  0  0
   -4.3767    0.7705   -0.9923 C   0  0  0  0  0  0  0  0  0  0  0  0
   -4.9641    1.5494   -1.4988 H   0  0  0  0  0  0  0  0  0  0  0  0
   -3.0150    0.6869   -1.3202 C   0  0  0  0  0  0  0  0  0  0  0  0
   -2.3763    1.6959   -2.3045 C   0  0  0  0  0  0  0  0  0  0  0  0
   -6.3545   -0.0858    0.3172 C   0  0  0  0  0  0  0  0  0  0  0  0
   -7.0603   -1.2648    0.6542 C   0  0  0  0  0  0  0  0  0  0  0  0
   -6.5524   -2.2390    0.6020 H   0  0  0  0  0  0  0  0  0  0  0  0
   -8.4095   -1.2182    1.0162 C   0  0  0  0  0  0  0  0  0  0  0  0
   -8.9801   -2.1209    1.2712 H   0  0  0  0  0  0  0  0  0  0  0  0
   -9.0555    0.0238    1.0436 C   0  0  0  0  0  0  0  0  0  0  0  0
   -8.3919    1.2116    0.7119 C   0  0  0  0  0  0  0  0  0  0  0  0
   -8.9440    2.1598    0.7517 H   0  0  0  0  0  0  0  0  0  0  0  0
   -7.0440    1.1494    0.3471 C   0  0  0  0  0  0  0  0  0  0  0  0
   -6.5086    2.0776    0.1009 H   0  0  0  0  0  0  0  0  0  0  0  0
  1 24  1  0  0  0  0
  2 24  2  0  0  0  0
  5 16  1  0  0  0  0
  5  8  1  0  0  0  0
  6 17  1  0  0  0  0
  7  4  2  0  0  0  0
  7  3  2  0  0  0  0
  8 10  1  0  0  0  0
  9  8  1  0  0  0  0
 10 11  1  0  0  0  0
 10 12  2  0  0  0  0
 12 13  1  0  0  0  0
 14 15  1  0  0  0  0
 14 12  1  0  0  0  0
 16 14  2  0  0  0  0
 17 18  1  0  0  0  0
 17 16  1  6  0  0  0
 18 19  1  0  0  0  0
 20 25  1  0  0  0  0
 20 18  2  0  0  0  0
 21 20  1  0  0  0  0
 22 21  1  0  0  0  0
 23 21  2  0  0  0  0
 23  6  1  0  0  0  0
 24 23  1  0  0  0  0
 25 33  2  0  0  0  0
 25 26  1  0  0  0  0
 26 28  2  0  0  0  0
 27 26  1  0  0  0  0
 28 30  1  0  0  0  0
 28 29  1  0  0  0  0
 30  7  1  0  0  0  0
 31 32  1  0  0  0  0
 31 30  2  0  0  0  0
 33 31  1  0  0  0  0
 34 33  1  0  0  0  0
M  CHG  1   1  -1
M  END
