3,4,5
q = -1.0

 35 35  0  0  1  0  0  0  0  0999 V2000
    2.5921    2.8122   -0.0758 Cl  0  0  0  0  0  0  0  0  0  0  0  0
    5.7903   -1.5785    0.0873 Cl  0  0  0  0  0  0  0  0  0  0  0  0
    0.4258    0.8839   -0.1462 O   0  0  0  0  0  1  0  0  0  0  0  0
   -0.6243   -1.6287   -0.1128 N   0  0  0  0  0  2  0  0  0  0  0  0
   -3.0801   -0.6424    0.1163 N   0  0  0  0  0  0  0  0  0  0  0  0
    1.7624   -1.1448   -0.0645 C   0  0  0  0  0  0  0  0  0  0  0  0
    1.5748    0.2862   -0.0868 C   0  0  1  0  0  3  0  0  0  0  0  0
    2.7725    1.0878   -0.0503 C   0  0  0  0  0  0  0  0  0  0  0  0
    4.0408    0.5190    0.0034 C   0  0  0  0  0  0  0  0  0  0  0  0
    4.9265    1.1674    0.0299 H   0  0  0  0  0  0  0  0  0  0  0  0
    4.1850   -0.8895    0.0218 C   0  0  0  0  0  0  0  0  0  0  0  0
    3.0684   -1.7110   -0.0123 C   0  0  0  0  0  0  0  0  0  0  0  0
    3.1875   -2.8040    0.0010 H   0  0  0  0  0  0  0  0  0  0  0  0
    0.6318   -2.0191   -0.1104 C   0  0  0  0  0  0  0  0  0  0  0  0
    0.8373   -3.1076   -0.1508 H   0  0  0  0  0  0  0  0  0  0  0  0
   -1.6871   -2.6218   -0.2507 C   0  0  0  0  0  0  0  0  0  0  0  0
   -1.3878   -3.6110    0.1593 H   0  0  0  0  0  0  0  0  0  0  0  0
   -1.9159   -2.7750   -1.3295 H   0  0  0  0  0  0  0  0  0  0  0  0
   -2.8955   -2.0721    0.4860 C   0  0  0  0  0  0  0  0  0  0  0  0
   -3.8149   -2.6625    0.2836 H   0  0  0  0  0  0  0  0  0  0  0  0
   -2.7022   -2.1113    1.5742 H   0  0  0  0  0  0  0  0  0  0  0  0
   -3.8590    0.0897    1.1619 C   0  0  0  0  0  0  0  0  0  0  0  0
   -4.8072   -0.4621    1.3493 H   0  0  0  0  0  0  0  0  0  0  0  0
   -4.1042    1.0735    0.7195 H   0  0  0  0  0  0  0  0  0  0  0  0
   -3.0953    0.3135    2.4594 C   0  0  0  0  0  0  0  0  0  0  0  0
   -2.7790   -0.6278    2.9522 H   0  0  0  0  0  0  0  0  0  0  0  0
   -3.7476    0.8522    3.1754 H   0  0  0  0  0  0  0  0  0  0  0  0
   -2.1987    0.9362    2.2722 H   0  0  0  0  0  0  0  0  0  0  0  0
   -3.6998   -0.4711   -1.2364 C   0  0  0  0  0  0  0  0  0  0  0  0
   -3.0493   -1.0007   -1.9612 H   0  0  0  0  0  0  0  0  0  0  0  0
   -3.6048    0.6101   -1.4599 H   0  0  0  0  0  0  0  0  0  0  0  0
   -5.1467   -0.9380   -1.3870 C   0  0  0  0  0  0  0  0  0  0  0  0
   -5.2833   -2.0163   -1.1658 H   0  0  0  0  0  0  0  0  0  0  0  0
   -5.4624   -0.7803   -2.4372 H   0  0  0  0  0  0  0  0  0  0  0  0
   -5.8436   -0.3626   -0.7470 H   0  0  0  0  0  0  0  0  0  0  0  0
  1  8  1  0  0  0  0
  4 14  1  0  0  0  0
  5 19  1  0  0  0  0
  5 22  1  0  0  0  0
  6 12  1  0  0  0  0
  7  3  1  6  0  0  0
  7  6  1  0  0  0  0
  7  8  1  0  0  0  0
  8  9  2  0  0  0  0
  9 11  1  0  0  0  0
  9 10  1  0  0  0  0
 11  2  1  0  0  0  0
 12 13  1  0  0  0  0
 12 11  2  0  0  0  0
 14  6  2  0  0  0  0
 15 14  1  0  0  0  0
 16  4  1  0  0  0  0
 16 17  1  0  0  0  0
 16 19  1  0  0  0  0
 18 16  1  0  0  0  0
 19 21  1  0  0  0  0
 20 19  1  0  0  0  0
 22 23  1  0  0  0  0
 22 25  1  0  0  0  0
 24 22  1  0  0  0  0
 25 26  1  0  0  0  0
 25 27  1  0  0  0  0
 28 25  1  0  0  0  0
 29  5  1  0  0  0  0
 30 29  1  0  0  0  0
 31 29  1  0  0  0  0
 32 29  1  0  0  0  0
 32 33  1  0  0  0  0
 32 35  1  0  0  0  0
 34 32  1  0  0  0  0
M  END
