1,2,3
q = -1.0, confidence = 0.004

 29 29  0  0  0  0  0  0  0  0999 V2000
   -1.3761    1.5780    0.4187 N   0  0  0  0  0  2  0  0  0  0  0  0
   -1.3801   -0.6692   -0.9184 N   0  0  0  0  0  2  0  0  0  0  0  0
    0.4353    1.3782    2.2639 O   0  5  0  0  0  0  0  0  0  0  0  0
   -2.2324    1.5532   -0.5909 C   0  0  0  0  0  0  0  0  0  0  0  0
   -1.1558    2.6869    1.1173 N   0  0  0  0  0  0  0  0  0  0  0  0
    0.0084    3.5262    2.8425 O   0  0  0  0  0  0  0  0  0  0  0  0
   -0.2068    2.4424    2.0727 C   0  0  0  0  0  0  0  0  0  0  0  0
   -2.3282    0.2452   -1.2696 C   0  0  0  0  0  0  0  0  0  0  0  0
   -3.3162   -0.1486   -2.2402 C   0  0  0  0  0  0  0  0  0  0  0  0
   -2.9618    2.8044   -0.9887 C   0  0  0  0  0  0  0  0  0  0  0  0
   -2.5541    3.6301   -0.3758 H   0  0  0  0  0  0  0  0  0  0  0  0
   -4.0521    2.7465   -0.7966 H   0  0  0  0  0  0  0  0  0  0  0  0
   -2.8198    3.0418   -2.0621 H   0  0  0  0  0  0  0  0  0  0  0  0
   -3.2518   -1.3555   -2.8283 N   0  0  0  0  0  0  0  0  0  0  0  0
   -1.3518   -1.8754   -1.4877 C   0  0  0  0  0  0  0  0  0  0  0  0
   -0.5744   -2.5775   -1.1398 H   0  0  0  0  0  0  0  0  0  0  0  0
    0.9992    3.3751    3.8586 C   0  0  0  0  0  0  0  0  0  0  0  0
    1.0527    4.3489    4.3781 H   0  0  0  0  0  0  0  0  0  0  0  0
    1.9865    3.1183    3.4223 H   0  0  0  0  0  0  0  0  0  0  0  0
    0.7215    2.5742    4.5741 H   0  0  0  0  0  0  0  0  0  0  0  0
   -4.5475    0.6526   -2.5991 C   0  0  0  0  0  0  0  0  0  0  0  0
   -4.3115    1.7191   -2.7627 H   0  0  0  0  0  0  0  0  0  0  0  0
   -4.9079    0.2415   -3.5619 H   0  0  0  0  0  0  0  0  0  0  0  0
   -5.6493    0.5075   -1.5368 C   0  0  0  0  0  0  0  0  0  0  0  0
   -6.5551    1.0773   -1.8255 H   0  0  0  0  0  0  0  0  0  0  0  0
   -5.3161    0.8755   -0.5449 H   0  0  0  0  0  0  0  0  0  0  0  0
   -5.9364   -0.5565   -1.4181 H   0  0  0  0  0  0  0  0  0  0  0  0
   -2.2812   -2.2105   -2.4799 C   0  0  0  0  0  0  0  0  0  0  0  0
   -2.2487   -3.1879   -2.9909 H   0  0  0  0  0  0  0  0  0  0  0  0
  1  5  1  0  0  0  0
  4  1  1  0  0  0  0
  5  7  2  0  0  0  0
  6 17  1  0  0  0  0
  7  3  1  0  0  0  0
  7  6  1  0  0  0  0
  8  2  1  0  0  0  0
  8  4  2  0  0  0  0
  9  8  1  0  0  0  0
 10 12  1  0  0  0  0
 10  4  1  0  0  0  0
 10 11  1  0  0  0  0
 13 10  1  0  0  0  0
 14 28  1  0  0  0  0
 14  9  2  0  0  0  0
 15 16  1  0  0  0  0
 15  2  1  0  0  0  0
 17 18  1  0  0  0  0
 17 20  1  0  0  0  0
 19 17  1  0  0  0  0
 21  9  1  0  0  0  0
 21 24  1  0  0  0  0
 22 21  1  0  0  0  0
 23 21  1  0  0  0  0
 24 27  1  0  0  0  0
 24 26  1  0  0  0  0
 25 24  1  0  0  0  0
 28 15  2  0  0  0  0
 29 28  1  0  0  0  0
M  CHG  1   3  -1
M  END
