1,3,6
q = 0.0, confidence = 1.0

 42 44  0  0  1  0  0  0  0  0999 V2000
   -0.8516   -1.7950   -0.5252 O   0  0  0  0  0  1  0  0  0  0  0  0
   -7.1965   -1.4452   -0.1774 O   0  0  0  0  0  0  0  0  0  0  0  0
    0.2593    0.6291   -0.6718 N   0  0  0  0  0  2  0  0  0  0  0  0
   -1.0636    0.4889   -0.5914 N   0  0  0  0  0  0  0  0  0  0  0  0
   -1.6483    1.3010   -0.3475 H   0  0  0  0  0  0  0  0  0  0  0  0
    2.9188    0.5832   -0.5413 N   0  0  0  0  0  2  0  0  0  0  0  0
    0.8321    1.7922   -0.5449 C   0  0  2  0  0  3  0  0  0  0  0  0
    2.3126    1.7915   -0.5956 C   0  0  1  0  0  3  0  0  0  0  0  0
    3.0610    2.9825   -0.6867 C   0  0  0  0  0  0  0  0  0  0  0  0
    2.5497    3.9551   -0.7013 H   0  0  0  0  0  0  0  0  0  0  0  0
    4.4582    2.8956   -0.7625 C   0  0  0  0  0  0  0  0  0  0  0  0
    5.0644    3.8110   -0.8372 H   0  0  0  0  0  0  0  0  0  0  0  0
    5.0697    1.6345   -0.7424 C   0  0  0  0  0  0  0  0  0  0  0  0
    6.1618    1.5248   -0.8041 H   0  0  0  0  0  0  0  0  0  0  0  0
    4.2508    0.4982   -0.6225 C   0  0  0  0  0  0  0  0  0  0  0  0
    4.6629   -0.5263   -0.5852 H   0  0  0  0  0  0  0  0  0  0  0  0
    0.0555    3.0297   -0.2476 C   0  0  0  0  0  0  0  0  0  0  0  0
   -0.4854    3.1767    1.0507 C   0  0  0  0  0  0  0  0  0  0  0  0
   -0.2857    2.3934    1.8024 H   0  0  0  0  0  0  0  0  0  0  0  0
   -1.2503    4.3105    1.3631 C   0  0  0  0  0  0  0  0  0  0  0  0
   -1.6635    4.4251    2.3766 H   0  0  0  0  0  0  0  0  0  0  0  0
   -1.4815    5.2976    0.3911 C   0  0  0  0  0  0  0  0  0  0  0  0
   -2.0798    6.1869    0.6409 H   0  0  0  0  0  0  0  0  0  0  0  0
   -0.9499    5.1509   -0.9005 C   0  0  0  0  0  0  0  0  0  0  0  0
   -1.1331    5.9223   -1.6637 H   0  0  0  0  0  0  0  0  0  0  0  0
   -0.1848    4.0196   -1.2232 C   0  0  0  0  0  0  0  0  0  0  0  0
    0.2274    3.8974   -2.2367 H   0  0  0  0  0  0  0  0  0  0  0  0
   -1.5905   -0.8049   -0.5339 C   0  0  2  0  0  3  0  0  0  0  0  0
   -3.0671   -0.8925   -0.4672 C   0  0  0  0  0  0  0  0  0  0  0  0
   -3.6324   -2.1151   -0.0315 C   0  0  0  0  0  0  0  0  0  0  0  0
   -2.9517   -2.9350    0.2391 H   0  0  0  0  0  0  0  0  0  0  0  0
   -5.0107   -2.2685    0.0583 C   0  0  0  0  0  0  0  0  0  0  0  0
   -5.4634   -3.2085    0.4046 H   0  0  0  0  0  0  0  0  0  0  0  0
   -5.8714   -1.2023   -0.2981 C   0  0  0  0  0  0  0  0  0  0  0  0
   -5.3209    0.0172   -0.7527 C   0  0  0  0  0  0  0  0  0  0  0  0
   -5.9666    0.8515   -1.0557 H   0  0  0  0  0  0  0  0  0  0  0  0
   -3.9308    0.1603   -0.8336 C   0  0  0  0  0  0  0  0  0  0  0  0
   -3.5289    1.1079   -1.2253 H   0  0  0  0  0  0  0  0  0  0  0  0
   -8.1148   -0.4179   -0.5137 C   0  0  0  0  0  0  0  0  0  0  0  0
   -7.9727    0.4846    0.1210 H   0  0  0  0  0  0  0  0  0  0  0  0
   -9.1236   -0.8313   -0.3324 H   0  0  0  0  0  0  0  0  0  0  0  0
   -8.0302   -0.1241   -1.5833 H   0  0  0  0  0  0  0  0  0  0  0  0
  3  4  1  0  0  0  0
  4 28  1  0  0  0  0
  4  5  1  0  0  0  0
  7  3  1  1  0  0  0
  7 17  1  0  0  0  0
  8  7  1  1  0  0  0
  8  6  1  0  0  0  0
  9  8  1  0  0  0  0
 10  9  1  0  0  0  0
 11 13  1  0  0  0  0
 11  9  2  0  0  0  0
 12 11  1  0  0  0  0
 13 15  2  0  0  0  0
 14 13  1  0  0  0  0
 15 16  1  0  0  0  0
 15  6  1  0  0  0  0
 17 18  1  0  0  0  0
 18 20  2  0  0  0  0
 18 19  1  0  0  0  0
 20 21  1  0  0  0  0
 22 23  1  0  0  0  0
 22 20  1  0  0  0  0
 24 22  2  0  0  0  0
 25 24  1  0  0  0  0
 26 24  1  0  0  0  0
 26 17  2  0  0  0  0
 27 26  1  0  0  0  0
 28  1  1  1  0  0  0
 28 29  1  0  0  0  0
 29 30  1  0  0  0  0
 30 32  2  0  0  0  0
 30 31  1  0  0  0  0
 32 33  1  0  0  0  0
 34  2  1  0  0  0  0
 34 32  1  0  0  0  0
 35 34  2  0  0  0  0
 36 35  1  0  0  0  0
 37 35  1  0  0  0  0
 37 29  2  0  0  0  0
 38 37  1  0  0  0  0
 39 41  1  0  0  0  0
 39  2  1  0  0  0  0
 39 40  1  0  0  0  0
 42 39  1  0  0  0  0
M  END
