17,19,20
q = -1.0

 22 23  0  0  1  0  0  0  0  0999 V2000
    2.2004    1.8345   -1.4364 S   0  0  0  0  0  0  0  0  0  0  0  0
    2.9161    0.2279   -0.8653 C   0  0  2  0  0  3  0  0  0  0  0  0
    4.6074   -1.2363   -0.5157 C   0  0  0  0  0  0  0  0  0  0  0  0
    5.6648   -1.5094   -0.6791 H   0  0  0  0  0  0  0  0  0  0  0  0
    3.7698   -2.0820    0.2339 C   0  0  0  0  0  0  0  0  0  0  0  0
    4.1549   -3.0148    0.6664 H   0  0  0  0  0  0  0  0  0  0  0  0
    2.4370   -1.6683    0.4014 C   0  0  0  0  0  0  0  0  0  0  0  0
    1.3700   -2.3846    1.1499 C   0  0  2  0  0  3  0  0  0  0  0  0
    1.5367   -3.6725    1.6823 C   0  0  0  0  0  0  0  0  0  0  0  0
    2.4901   -4.2070    1.5708 H   0  0  0  0  0  0  0  0  0  0  0  0
    0.4527   -4.2750    2.3394 C   0  0  0  0  0  0  0  0  0  0  0  0
    0.5510   -5.2894    2.7532 H   0  0  0  0  0  0  0  0  0  0  0  0
   -0.7526   -3.5741    2.4448 C   0  0  0  0  0  0  0  0  0  0  0  0
   -1.6335   -4.0154    2.9311 H   0  0  0  0  0  0  0  0  0  0  0  0
   -0.8325   -2.2857    1.8896 C   0  0  0  0  0  0  0  0  0  0  0  0
   -1.7657   -1.7073    1.9377 H   0  0  0  0  0  0  0  0  0  0  0  0
    2.0468   -0.5107   -0.1643 N   0  0  0  0  0  2  0  0  0  0  0  0
    4.1986   -0.0788   -1.0615 N   0  0  0  0  0  0  0  0  0  0  0  0
    0.2025   -1.7073    1.2705 N   0  0  0  0  0  2  0  0  0  0  0  0
    0.7040    1.4817   -1.4783 O   0  0  0  0  0  1  0  0  0  0  0  0
    2.5446    2.7320   -0.2909 O   0  0  0  0  0  1  0  0  0  0  0  0
    2.7719    2.1459   -2.7552 O   0  0  0  0  0  1  0  0  0  0  0  0
  1 21  1  0  0  0  0
  2  1  1  1  0  0  0
  2 17  1  0  0  0  0
  3  5  1  0  0  0  0
  4  3  1  0  0  0  0
  5  7  2  0  0  0  0
  5  6  1  0  0  0  0
  8  7  1  6  0  0  0
  8 19  1  0  0  0  0
  8  9  1  0  0  0  0
  9 11  2  0  0  0  0
 10  9  1  0  0  0  0
 11 13  1  0  0  0  0
 11 12  1  0  0  0  0
 13 14  1  0  0  0  0
 15 16  1  0  0  0  0
 15 13  2  0  0  0  0
 17  7  1  0  0  0  0
 18  2  1  0  0  0  0
 18  3  2  0  0  0  0
 19 15  1  0  0  0  0
 20  1  1  0  0  0  0
 22  1  1  0  0  0  0
M  END
