1,2,3
q = -1.0

 38 39  0  0  1  0  0  0  0  0999 V2000
   -0.0679   -1.4580   -0.0915 O   0  5  0  0  0  0  0  0  0  0  0  0
    2.9646    0.7807    0.8059 N   0  0  0  0  0  0  0  0  0  0  0  0
    0.3248    1.1796   -0.4359 N   0  0  0  0  0  2  0  0  0  0  0  0
   -1.8780    0.1363   -0.1246 C   0  0  0  0  0  0  0  0  0  0  0  0
   -2.2435   -2.3045    0.0295 C   0  0  0  0  0  0  0  0  0  0  0  0
   -1.7950   -3.3080    0.0485 H   0  0  0  0  0  0  0  0  0  0  0  0
   -1.3344   -1.1874   -0.0508 C   0  0  0  0  0  0  0  0  0  0  0  0
   -4.1804   -0.7954    0.0809 C   0  0  0  0  0  0  0  0  0  0  0  0
   -3.3113    0.3467   -0.0210 C   0  0  1  0  0  3  0  0  0  0  0  0
   -3.6015   -2.1090    0.0926 C   0  0  0  0  0  0  0  0  0  0  0  0
   -4.2781   -2.9757    0.1642 H   0  0  0  0  0  0  0  0  0  0  0  0
   -0.9949    1.2043   -0.4508 C   0  0  0  0  0  0  0  0  0  0  0  0
   -3.9141    1.6351   -0.0017 C   0  0  0  0  0  0  0  0  0  0  0  0
   -3.2830    2.5353   -0.0341 H   0  0  0  0  0  0  0  0  0  0  0  0
    3.2423    2.0469    0.0731 C   0  0  0  0  0  0  0  0  0  0  0  0
    3.6549    1.7359   -0.9063 H   0  0  0  0  0  0  0  0  0  0  0  0
    4.0356    2.5953    0.6333 H   0  0  0  0  0  0  0  0  0  0  0  0
    4.2212   -0.0116    0.7375 C   0  0  0  0  0  0  0  0  0  0  0  0
    4.3802   -0.3095   -0.3146 H   0  0  0  0  0  0  0  0  0  0  0  0
    4.1354   -0.9061    1.3739 H   0  0  0  0  0  0  0  0  0  0  0  0
    5.0731    0.6131    1.0876 H   0  0  0  0  0  0  0  0  0  0  0  0
   -5.5850   -0.6098    0.1735 C   0  0  0  0  0  0  0  0  0  0  0  0
   -6.2272   -1.5014    0.2501 H   0  0  0  0  0  0  0  0  0  0  0  0
   -5.2956    1.7908    0.0854 C   0  0  0  0  0  0  0  0  0  0  0  0
   -5.7269    2.8035    0.0986 H   0  0  0  0  0  0  0  0  0  0  0  0
    1.0083    2.2994   -1.0780 C   0  0  0  0  0  0  0  0  0  0  0  0
    0.2580    3.0534   -1.4017 H   0  0  0  0  0  0  0  0  0  0  0  0
    1.5153    1.9080   -1.9875 H   0  0  0  0  0  0  0  0  0  0  0  0
    2.0433    2.9468   -0.1676 C   0  0  0  0  0  0  0  0  0  0  0  0
    1.5684    3.2752    0.7817 H   0  0  0  0  0  0  0  0  0  0  0  0
    2.4212    3.8672   -0.6593 H   0  0  0  0  0  0  0  0  0  0  0  0
   -6.1447    0.6634    0.1709 C   0  0  0  0  0  0  0  0  0  0  0  0
   -7.2346    0.7943    0.2436 H   0  0  0  0  0  0  0  0  0  0  0  0
    2.6178    1.0352    2.2226 C   0  0  0  0  0  0  0  0  0  0  0  0
    2.4573    0.0669    2.7320 H   0  0  0  0  0  0  0  0  0  0  0  0
    1.6880    1.6289    2.2880 H   0  0  0  0  0  0  0  0  0  0  0  0
    3.4407    1.5861    2.7349 H   0  0  0  0  0  0  0  0  0  0  0  0
   -1.4565    2.1397   -0.8218 H   0  0  0  0  0  0  0  0  0  0  0  0
  1  7  1  0  0  0  0
  2 34  1  0  0  0  0
  4  7  1  0  0  0  0
  5  6  1  0  0  0  0
  5 10  1  0  0  0  0
  7  5  2  0  0  0  0
  8 10  2  0  0  0  0
  8 22  1  0  0  0  0
  9  4  1  1  0  0  0
  9 13  1  0  0  0  0
  9  8  1  0  0  0  0
 10 11  1  0  0  0  0
 12  3  1  0  0  0  0
 12  4  2  0  0  0  0
 13 24  2  0  0  0  0
 14 13  1  0  0  0  0
 15 17  1  0  0  0  0
 15  2  1  0  0  0  0
 16 15  1  0  0  0  0
 18  2  1  0  0  0  0
 18 21  1  0  0  0  0
 18 20  1  0  0  0  0
 19 18  1  0  0  0  0
 22 23  1  0  0  0  0
 24 25  1  0  0  0  0
 24 32  1  0  0  0  0
 26  3  1  0  0  0  0
 26 29  1  0  0  0  0
 27 26  1  0  0  0  0
 28 26  1  0  0  0  0
 29 15  1  0  0  0  0
 29 30  1  0  0  0  0
 31 29  1  0  0  0  0
 32 22  2  0  0  0  0
 32 33  1  0  0  0  0
 34 36  1  0  0  0  0
 34 35  1  0  0  0  0
 34 37  1  0  0  0  0
 38 12  1  0  0  0  0
M  CHG  1   1  -1
M  END
