1,2,3
q = -1.0

 55 58  0  0  1  0  0  0  0  0999 V2000
   -1.6848   -0.1048   -0.5302 O   0  0  0  0  0  1  0  0  0  0  0  0
   -0.1954    2.3605   -0.0527 N   0  0  0  0  0  2  0  0  0  0  0  0
    2.1905    1.0906   -0.5367 N   0  0  0  0  0  0  0  0  0  0  0  0
    2.2924    1.1266   -1.5609 H   0  0  0  0  0  0  0  0  0  0  0  0
   -2.6516    0.5791    0.0148 C   0  0  1  0  0  3  0  0  0  0  0  0
   -2.6272    2.0049    0.2755 C   0  0  0  0  0  0  0  0  0  0  0  0
   -3.8037    2.6136    0.8053 C   0  0  0  0  0  0  0  0  0  0  0  0
   -3.7813    3.6790    1.0731 H   0  0  0  0  0  0  0  0  0  0  0  0
   -4.9604    1.8924    1.0615 C   0  0  0  0  0  0  0  0  0  0  0  0
   -5.8382    2.3902    1.4980 H   0  0  0  0  0  0  0  0  0  0  0  0
   -4.9802    0.5054    0.8065 C   0  0  0  0  0  0  0  0  0  0  0  0
   -5.8807   -0.0814    1.0452 H   0  0  0  0  0  0  0  0  0  0  0  0
   -3.8611   -0.1656    0.3105 C   0  0  0  0  0  0  0  0  0  0  0  0
   -3.9069   -1.6347    0.0884 C   0  0  0  0  0  0  0  0  0  0  0  0
   -5.0487   -2.2295   -0.4941 C   0  0  0  0  0  0  0  0  0  0  0  0
   -5.8739   -1.5867   -0.8382 H   0  0  0  0  0  0  0  0  0  0  0  0
   -5.1321   -3.6193   -0.6663 C   0  0  0  0  0  0  0  0  0  0  0  0
   -6.0281   -4.0586   -1.1317 H   0  0  0  0  0  0  0  0  0  0  0  0
   -4.0725   -4.4441   -0.2582 C   0  0  0  0  0  0  0  0  0  0  0  0
   -4.1344   -5.5348   -0.3958 H   0  0  0  0  0  0  0  0  0  0  0  0
   -2.9318   -3.8643    0.3224 C   0  0  0  0  0  0  0  0  0  0  0  0
   -2.0898   -4.4927    0.6518 H   0  0  0  0  0  0  0  0  0  0  0  0
   -2.8441   -2.4766    0.4922 C   0  0  0  0  0  0  0  0  0  0  0  0
   -1.9355   -2.0518    0.9394 H   0  0  0  0  0  0  0  0  0  0  0  0
   -1.4677    2.8678    0.0347 C   0  0  0  0  0  0  0  0  0  0  0  0
   -1.6148    4.2822   -0.0869 C   0  0  0  0  0  0  0  0  0  0  0  0
   -2.6241    4.7084   -0.1238 H   0  0  0  0  0  0  0  0  0  0  0  0
   -0.5106    5.1169   -0.1966 C   0  0  0  0  0  0  0  0  0  0  0  0
   -0.6494    6.2033   -0.3005 H   0  0  0  0  0  0  0  0  0  0  0  0
    0.7837    4.5623   -0.1853 C   0  0  0  0  0  0  0  0  0  0  0  0
    1.6832    5.1907   -0.2430 H   0  0  0  0  0  0  0  0  0  0  0  0
    0.8990    3.1757   -0.1188 C   0  0  0  0  0  0  0  0  0  0  0  0
    2.2413    2.4903   -0.0262 C   0  0  0  0  0  0  0  0  0  0  0  0
    3.0286    3.0708   -0.5515 H   0  0  0  0  0  0  0  0  0  0  0  0
    2.5434    2.4455    1.0388 H   0  0  0  0  0  0  0  0  0  0  0  0
    3.2273    0.2033   -0.0346 C   0  0  0  0  0  0  0  0  0  0  0  0
    3.2326   -0.2150    1.3194 C   0  0  0  0  0  0  0  0  0  0  0  0
    4.2764   -1.0657    1.7257 C   0  0  0  0  0  0  0  0  0  0  0  0
    4.2889   -1.4019    2.7749 H   0  0  0  0  0  0  0  0  0  0  0  0
    5.2704   -1.5298    0.8455 C   0  0  0  0  0  0  0  0  0  0  0  0
    5.1976   -1.1287   -0.4991 C   0  0  0  0  0  0  0  0  0  0  0  0
    5.9456   -1.5000   -1.2176 H   0  0  0  0  0  0  0  0  0  0  0  0
    4.1885   -0.2663   -0.9592 C   0  0  0  0  0  0  0  0  0  0  0  0
    2.1181    0.0941    2.2844 C   0  0  0  0  0  0  0  0  0  0  0  0
    1.8255    1.1612    2.3280 H   0  0  0  0  0  0  0  0  0  0  0  0
    2.3966   -0.2191    3.3082 H   0  0  0  0  0  0  0  0  0  0  0  0
    1.2190   -0.4920    1.9778 H   0  0  0  0  0  0  0  0  0  0  0  0
    6.3717   -2.4347    1.3367 C   0  0  0  0  0  0  0  0  0  0  0  0
    7.0941   -1.8780    1.9711 H   0  0  0  0  0  0  0  0  0  0  0  0
    6.9395   -2.8815    0.4979 H   0  0  0  0  0  0  0  0  0  0  0  0
    5.9691   -3.2601    1.9581 H   0  0  0  0  0  0  0  0  0  0  0  0
    4.1038    0.1038   -2.4210 C   0  0  0  0  0  0  0  0  0  0  0  0
    3.1613   -0.2743   -2.8750 H   0  0  0  0  0  0  0  0  0  0  0  0
    4.9397   -0.3441   -2.9900 H   0  0  0  0  0  0  0  0  0  0  0  0
    4.1510    1.2014   -2.5934 H   0  0  0  0  0  0  0  0  0  0  0  0
  2 25  1  0  0  0  0
  3 36  1  0  0  0  0
  3 33  1  0  0  0  0
  4  3  1  0  0  0  0
  5  1  1  6  0  0  0
  5  6  1  0  0  0  0
  5 13  1  0  0  0  0
  6  7  1  0  0  0  0
  7  9  2  0  0  0  0
  7  8  1  0  0  0  0
  9 10  1  0  0  0  0
 11 12  1  0  0  0  0
 11  9  1  0  0  0  0
 13 11  2  0  0  0  0
 14 13  1  0  0  0  0
 14 23  1  0  0  0  0
 15 14  2  0  0  0  0
 16 15  1  0  0  0  0
 17 15  1  0  0  0  0
 17 19  2  0  0  0  0
 18 17  1  0  0  0  0
 19 21  1  0  0  0  0
 20 19  1  0  0  0  0
 21 23  2  0  0  0  0
 21 22  1  0  0  0  0
 23 24  1  0  0  0  0
 25  6  2  0  0  0  0
 26 25  1  0  0  0  0
 27 26  1  0  0  0  0
 28 30  1  0  0  0  0
 28 26  2  0  0  0  0
 29 28  1  0  0  0  0
 30 32  2  0  0  0  0
 31 30  1  0  0  0  0
 32  2  1  0  0  0  0
 32 33  1  0  0  0  0
 33 35  1  0  0  0  0
 34 33  1  0  0  0  0
 36 37  1  0  0  0  0
 37 38  2  0  0  0  0
 37 44  1  0  0  0  0
 38 39  1  0  0  0  0
 40 48  1  0  0  0  0
 40 38  1  0  0  0  0
 41 40  2  0  0  0  0
 42 41  1  0  0  0  0
 43 41  1  0  0  0  0
 43 36  2  0  0  0  0
 44 45  1  0  0  0  0
 44 46  1  0  0  0  0
 47 44  1  0  0  0  0
 48 51  1  0  0  0  0
 48 49  1  0  0  0  0
 50 48  1  0  0  0  0
 52 43  1  0  0  0  0
 53 52  1  0  0  0  0
 54 52  1  0  0  0  0
 55 52  1  0  0  0  0
M  END
