1,2,3
q = -1.0, confidence = 0.078

 64 67  0  0  1  0  0  0  0  0999 V2000
    1.8382   -0.0581   -0.6095 O   0  0  0  0  0  1  0  0  0  0  0  0
    0.1090    2.2783   -0.3626 N   0  0  0  0  0  2  0  0  0  0  0  0
   -2.1496    0.7125   -0.5029 N   0  0  0  0  0  0  0  0  0  0  0  0
   -2.3200    0.5195   -1.4999 H   0  0  0  0  0  0  0  0  0  0  0  0
    2.7483    0.7820   -0.1993 C   0  0  2  0  0  3  0  0  0  0  0  0
    2.5730    2.2157   -0.0872 C   0  0  0  0  0  0  0  0  0  0  0  0
    3.6865    3.0041    0.3285 C   0  0  0  0  0  0  0  0  0  0  0  0
    3.5473    4.0821    0.4911 H   0  0  0  0  0  0  0  0  0  0  0  0
    4.9272    2.4468    0.6002 C   0  0  0  0  0  0  0  0  0  0  0  0
    5.7554    3.0802    0.9490 H   0  0  0  0  0  0  0  0  0  0  0  0
    5.1006    1.0535    0.4690 C   0  0  0  0  0  0  0  0  0  0  0  0
    6.0733    0.5987    0.7120 H   0  0  0  0  0  0  0  0  0  0  0  0
    4.0506    0.2134    0.0926 C   0  0  0  0  0  0  0  0  0  0  0  0
    4.2698   -1.2534   -0.0085 C   0  0  0  0  0  0  0  0  0  0  0  0
    5.4488   -1.7545   -0.6053 C   0  0  0  0  0  0  0  0  0  0  0  0
    6.1700   -1.0495   -1.0476 H   0  0  0  0  0  0  0  0  0  0  0  0
    5.6973   -3.1337   -0.6680 C   0  0  0  0  0  0  0  0  0  0  0  0
    6.6186   -3.5009   -1.1465 H   0  0  0  0  0  0  0  0  0  0  0  0
    4.7693   -4.0415   -0.1343 C   0  0  0  0  0  0  0  0  0  0  0  0
    4.9607   -5.1245   -0.1862 H   0  0  0  0  0  0  0  0  0  0  0  0
    3.5934   -3.5549    0.4613 C   0  0  0  0  0  0  0  0  0  0  0  0
    2.8518   -4.2480    0.8879 H   0  0  0  0  0  0  0  0  0  0  0  0
    3.3415   -2.1783    0.5230 C   0  0  0  0  0  0  0  0  0  0  0  0
    2.4089   -1.8292    0.9854 H   0  0  0  0  0  0  0  0  0  0  0  0
    1.3232    2.9175   -0.3908 C   0  0  0  0  0  0  0  0  0  0  0  0
    1.3230    4.3079   -0.7091 C   0  0  0  0  0  0  0  0  0  0  0  0
    2.2834    4.8213   -0.8348 H   0  0  0  0  0  0  0  0  0  0  0  0
    0.1371    5.0045   -0.9014 C   0  0  0  0  0  0  0  0  0  0  0  0
    0.1613    6.0739   -1.1584 H   0  0  0  0  0  0  0  0  0  0  0  0
   -1.0918    4.3294   -0.7789 C   0  0  0  0  0  0  0  0  0  0  0  0
   -2.0522    4.8492   -0.9006 H   0  0  0  0  0  0  0  0  0  0  0  0
   -1.0638    2.9615   -0.5146 C   0  0  0  0  0  0  0  0  0  0  0  0
   -2.3326    2.1761   -0.2864 C   0  0  0  0  0  0  0  0  0  0  0  0
   -3.1617    2.5600   -0.9178 H   0  0  0  0  0  0  0  0  0  0  0  0
   -2.6501    2.3247    0.7637 H   0  0  0  0  0  0  0  0  0  0  0  0
   -3.0557   -0.1443    0.2520 C   0  0  0  0  0  0  0  0  0  0  0  0
   -4.0393   -0.8712   -0.4721 C   0  0  0  0  0  0  0  0  0  0  0  0
   -4.8912   -1.7266    0.2496 C   0  0  0  0  0  0  0  0  0  0  0  0
   -5.6519   -2.3092   -0.2891 H   0  0  0  0  0  0  0  0  0  0  0  0
   -4.7905   -1.8427    1.6400 C   0  0  0  0  0  0  0  0  0  0  0  0
   -5.4681   -2.5148    2.1876 H   0  0  0  0  0  0  0  0  0  0  0  0
   -3.8246   -1.1050    2.3308 C   0  0  0  0  0  0  0  0  0  0  0  0
   -3.7439   -1.2062    3.4230 H   0  0  0  0  0  0  0  0  0  0  0  0
   -2.9311   -0.2472    1.6627 C   0  0  0  0  0  0  0  0  0  0  0  0
   -4.1565   -0.7958   -1.9944 C   0  0  0  0  0  0  0  0  0  0  0  0
   -3.7750    0.1982   -2.3298 H   0  0  0  0  0  0  0  0  0  0  0  0
   -5.6076   -0.8524   -2.4959 C   0  0  0  0  0  0  0  0  0  0  0  0
   -6.0572   -1.8523   -2.3310 H   0  0  0  0  0  0  0  0  0  0  0  0
   -5.6406   -0.6616   -3.5873 H   0  0  0  0  0  0  0  0  0  0  0  0
   -6.2489   -0.1025   -1.9910 H   0  0  0  0  0  0  0  0  0  0  0  0
   -3.2888   -1.8824   -2.6604 C   0  0  0  0  0  0  0  0  0  0  0  0
   -3.6815   -2.8860   -2.3949 H   0  0  0  0  0  0  0  0  0  0  0  0
   -2.2360   -1.8401   -2.3134 H   0  0  0  0  0  0  0  0  0  0  0  0
   -3.3153   -1.7869   -3.7652 H   0  0  0  0  0  0  0  0  0  0  0  0
   -1.8981    0.5192    2.4860 C   0  0  0  0  0  0  0  0  0  0  0  0
   -1.1693    0.9762    1.7834 H   0  0  0  0  0  0  0  0  0  0  0  0
   -2.5648    1.6429    3.3029 C   0  0  0  0  0  0  0  0  0  0  0  0
   -3.1607    2.3399    2.6761 H   0  0  0  0  0  0  0  0  0  0  0  0
   -1.8001    2.2376    3.8427 H   0  0  0  0  0  0  0  0  0  0  0  0
   -3.2593    1.2212    4.0586 H   0  0  0  0  0  0  0  0  0  0  0  0
   -1.0752   -0.4056    3.3985 C   0  0  0  0  0  0  0  0  0  0  0  0
   -1.7043   -0.8710    4.1852 H   0  0  0  0  0  0  0  0  0  0  0  0
   -0.2888    0.1836    3.9132 H   0  0  0  0  0  0  0  0  0  0  0  0
   -0.5842   -1.2006    2.8047 H   0  0  0  0  0  0  0  0  0  0  0  0
  3 33  1  0  0  0  0
  3 36  1  0  0  0  0
  4  3  1  0  0  0  0
  5  1  1  6  0  0  0
  5  6  1  0  0  0  0
  5 13  1  0  0  0  0
  6  7  1  0  0  0  0
  7  8  1  0  0  0  0
  7  9  2  0  0  0  0
  9 10  1  0  0  0  0
 11  9  1  0  0  0  0
 11 12  1  0  0  0  0
 13 11  2  0  0  0  0
 14 13  1  0  0  0  0
 14 23  1  0  0  0  0
 15 14  2  0  0  0  0
 16 15  1  0  0  0  0
 17 15  1  0  0  0  0
 17 19  2  0  0  0  0
 18 17  1  0  0  0  0
 19 21  1  0  0  0  0
 20 19  1  0  0  0  0
 21 23  2  0  0  0  0
 21 22  1  0  0  0  0
 23 24  1  0  0  0  0
 25  2  1  0  0  0  0
 25  6  2  0  0  0  0
 26 25  1  0  0  0  0
 27 26  1  0  0  0  0
 28 30  1  0  0  0  0
 28 26  2  0  0  0  0
 29 28  1  0  0  0  0
 30 32  2  0  0  0  0
 31 30  1  0  0  0  0
 32  2  1  0  0  0  0
 32 33  1  0  0  0  0
 33 35  1  0  0  0  0
 34 33  1  0  0  0  0
 36 44  1  0  0  0  0
 37 38  1  0  0  0  0
 37 36  2  0  0  0  0
 38 40  2  0  0  0  0
 39 38  1  0  0  0  0
 40 41  1  0  0  0  0
 40 42  1  0  0  0  0
 42 43  1  0  0  0  0
 44 42  2  0  0  0  0
 44 55  1  0  0  0  0
 45 37  1  0  0  0  0
 46 45  1  0  0  0  0
 47 48  1  0  0  0  0
 47 45  1  0  0  0  0
 47 50  1  0  0  0  0
 49 47  1  0  0  0  0
 51 52  1  0  0  0  0
 51 53  1  0  0  0  0
 51 45  1  0  0  0  0
 54 51  1  0  0  0  0
 55 57  1  0  0  0  0
 55 61  1  0  0  0  0
 56 55  1  0  0  0  0
 57 59  1  0  0  0  0
 57 60  1  0  0  0  0
 58 57  1  0  0  0  0
 61 63  1  0  0  0  0
 61 62  1  0  0  0  0
 64 61  1  0  0  0  0
M  END
