2,3,5
q = -1.0

 63 67  0  0  1  0  0  0  0  0999 V2000
    0.1675    1.3338   -0.0141 P   0  0  0  0  0  4  0  0  0  0  0  0
   -2.1673   -0.8741   -0.3631 O   0  5  0  0  0  0  0  0  0  0  0  0
    0.6768    0.1697   -1.0599 N   0  0  0  0  0  2  0  0  0  0  0  0
    1.6850   -2.1616    0.3342 N   0  0  0  0  0  0  0  0  0  0  0  0
    0.4212   -2.4970   -0.0430 N   0  0  0  0  0  2  0  0  0  0  0  0
    2.0317   -0.1949   -1.1394 C   0  0  0  0  0  0  0  0  0  0  0  0
    2.9589    0.5637   -1.8941 C   0  0  0  0  0  0  0  0  0  0  0  0
    2.5941    1.4829   -2.3728 H   0  0  0  0  0  0  0  0  0  0  0  0
    4.2927    0.1677   -2.0480 C   0  0  0  0  0  0  0  0  0  0  0  0
    4.9788    0.7872   -2.6454 H   0  0  0  0  0  0  0  0  0  0  0  0
    4.7432   -1.0291   -1.4691 C   0  0  0  0  0  0  0  0  0  0  0  0
    5.7793   -1.3686   -1.6133 H   0  0  0  0  0  0  0  0  0  0  0  0
    3.8517   -1.8054   -0.7193 C   0  0  0  0  0  0  0  0  0  0  0  0
    4.1794   -2.7602   -0.2858 H   0  0  0  0  0  0  0  0  0  0  0  0
    2.5234   -1.3864   -0.5199 C   0  0  0  0  0  0  0  0  0  0  0  0
    3.2786   -2.4578    2.2913 C   0  0  0  0  0  0  0  0  0  0  0  0
    4.0351   -3.2274    2.0303 H   0  0  0  0  0  0  0  0  0  0  0  0
    3.1085   -2.5130    3.3828 H   0  0  0  0  0  0  0  0  0  0  0  0
    3.7095   -1.4657    2.0601 H   0  0  0  0  0  0  0  0  0  0  0  0
    1.9842   -2.6716    1.5789 C   0  0  1  0  0  3  0  0  0  0  0  0
    0.8464   -3.3662    1.9925 C   0  0  0  0  0  0  0  0  0  0  0  0
    0.7194   -3.8940    2.9433 H   0  0  0  0  0  0  0  0  0  0  0  0
   -0.1048   -3.2318    0.9517 C   0  0  0  0  0  0  0  0  0  0  0  0
   -1.5022   -3.7560    0.8643 C   0  0  0  0  0  0  0  0  0  0  0  0
   -2.2125   -2.9169    0.7152 H   0  0  0  0  0  0  0  0  0  0  0  0
   -1.7721   -4.3092    1.7826 H   0  0  0  0  0  0  0  0  0  0  0  0
   -1.6159   -4.4381   -0.0032 H   0  0  0  0  0  0  0  0  0  0  0  0
   -2.4649    0.3167    0.0237 C   0  0  0  0  0  0  0  0  0  0  0  0
   -3.9136    0.5415    0.3656 C   0  0  0  0  0  0  0  0  0  0  0  0
   -4.8659   -0.3630   -0.1504 C   0  0  0  0  0  0  0  0  0  0  0  0
   -4.5022   -1.1842   -0.7849 H   0  0  0  0  0  0  0  0  0  0  0  0
   -6.2281   -0.2092    0.1380 C   0  0  0  0  0  0  0  0  0  0  0  0
   -6.9600   -0.9176   -0.2800 H   0  0  0  0  0  0  0  0  0  0  0  0
   -6.6607    0.8459    0.9581 C   0  0  0  0  0  0  0  0  0  0  0  0
   -7.7305    0.9659    1.1888 H   0  0  0  0  0  0  0  0  0  0  0  0
   -5.7202    1.7444    1.4885 C   0  0  0  0  0  0  0  0  0  0  0  0
   -6.0504    2.5655    2.1432 H   0  0  0  0  0  0  0  0  0  0  0  0
   -4.3581    1.5936    1.1939 C   0  0  0  0  0  0  0  0  0  0  0  0
   -3.6269    2.2881    1.6341 H   0  0  0  0  0  0  0  0  0  0  0  0
   -1.5714    1.3938    0.1278 C   0  0  0  0  0  0  0  0  0  0  0  0
   -1.9487    2.3974    0.3658 H   0  0  0  0  0  0  0  0  0  0  0  0
    0.6802    3.0190   -0.5332 C   0  0  0  0  0  0  0  0  0  0  0  0
    0.6309    3.3074   -1.9125 C   0  0  0  0  0  0  0  0  0  0  0  0
    0.3462    2.5090   -2.6163 H   0  0  0  0  0  0  0  0  0  0  0  0
    0.9393    4.5949   -2.3720 C   0  0  0  0  0  0  0  0  0  0  0  0
    0.9019    4.8161   -3.4496 H   0  0  0  0  0  0  0  0  0  0  0  0
    1.2923    5.6019   -1.4571 C   0  0  0  0  0  0  0  0  0  0  0  0
    1.5360    6.6126   -1.8186 H   0  0  0  0  0  0  0  0  0  0  0  0
    1.3307    5.3209   -0.0826 C   0  0  0  0  0  0  0  0  0  0  0  0
    1.6022    6.1103    0.6348 H   0  0  0  0  0  0  0  0  0  0  0  0
    1.0242    4.0315    0.3824 C   0  0  0  0  0  0  0  0  0  0  0  0
    1.0554    3.8123    1.4603 H   0  0  0  0  0  0  0  0  0  0  0  0
    0.9773    1.0591    1.6107 C   0  0  0  0  0  0  0  0  0  0  0  0
    2.3469    1.3462    1.8015 C   0  0  0  0  0  0  0  0  0  0  0  0
    2.9329    1.8074    0.9921 H   0  0  0  0  0  0  0  0  0  0  0  0
    2.9593    1.0516    3.0289 C   0  0  0  0  0  0  0  0  0  0  0  0
    4.0237    1.2893    3.1790 H   0  0  0  0  0  0  0  0  0  0  0  0
    2.2186    0.4521    4.0614 C   0  0  0  0  0  0  0  0  0  0  0  0
    2.7022    0.2232    5.0234 H   0  0  0  0  0  0  0  0  0  0  0  0
    0.8623    0.1449    3.8653 C   0  0  0  0  0  0  0  0  0  0  0  0
    0.2809   -0.3296    4.6702 H   0  0  0  0  0  0  0  0  0  0  0  0
    0.2403    0.4528    2.6465 C   0  0  0  0  0  0  0  0  0  0  0  0
   -0.8268    0.2321    2.4863 H   0  0  0  0  0  0  0  0  0  0  0  0
  1 40  1  0  0  0  0
  1 53  1  0  0  0  0
  2 28  1  0  0  0  0
  3  1  1  0  0  0  0
  4 20  1  0  0  0  0
  5  4  1  0  0  0  0
  5 23  1  0  0  0  0
  6  3  1  0  0  0  0
  6 15  1  0  0  0  0
  7  6  2  0  0  0  0
  8  7  1  0  0  0  0
  9  7  1  0  0  0  0
  9 11  2  0  0  0  0
 10  9  1  0  0  0  0
 11 13  1  0  0  0  0
 12 11  1  0  0  0  0
 13 15  2  0  0  0  0
 13 14  1  0  0  0  0
 15  4  1  0  0  0  0
 16 18  1  0  0  0  0
 17 16  1  0  0  0  0
 19 16  1  0  0  0  0
 20 21  1  0  0  0  0
 20 16  1  1  0  0  0
 21 22  1  0  0  0  0
 23 21  2  0  0  0  0
 24 23  1  0  0  0  0
 24 26  1  0  0  0  0
 25 24  1  0  0  0  0
 27 24  1  0  0  0  0
 28 40  2  0  0  0  0
 28 29  1  0  0  0  0
 29 38  1  0  0  0  0
 30 32  1  0  0  0  0
 30 29  2  0  0  0  0
 31 30  1  0  0  0  0
 32 34  2  0  0  0  0
 33 32  1  0  0  0  0
 34 35  1  0  0  0  0
 34 36  1  0  0  0  0
 36 37  1  0  0  0  0
 38 36  2  0  0  0  0
 38 39  1  0  0  0  0
 40 41  1  0  0  0  0
 42  1  1  0  0  0  0
 42 51  1  0  0  0  0
 43 42  2  0  0  0  0
 44 43  1  0  0  0  0
 45 43  1  0  0  0  0
 45 47  2  0  0  0  0
 46 45  1  0  0  0  0
 47 49  1  0  0  0  0
 48 47  1  0  0  0  0
 49 51  2  0  0  0  0
 49 50  1  0  0  0  0
 51 52  1  0  0  0  0
 53 54  2  0  0  0  0
 53 62  1  0  0  0  0
 54 56  1  0  0  0  0
 55 54  1  0  0  0  0
 56 57  1  0  0  0  0
 56 58  2  0  0  0  0
 58 59  1  0  0  0  0
 60 58  1  0  0  0  0
 60 61  1  0  0  0  0
 62 60  2  0  0  0  0
 63 62  1  0  0  0  0
M  CHG  1   2  -1
M  END
