3,4,8
q = -1.0, confidence = 0.0

 30 31  0  0  1  0  0  0  0  0999 V2000
    5.3870   -1.4487   -0.0193 O   0  0  0  0  0  0  0  0  0  0  0  0
    4.3866   -1.5544    0.1890 H   0  0  0  0  0  0  0  0  0  0  0  0
    1.8727    0.2883   -1.5566 O   0  5  0  0  0  0  0  0  0  0  0  0
   -0.8892   -1.7422    1.3310 N   0  0  0  0  0  2  0  0  0  0  0  0
    2.3810   -3.4171    1.4759 N   0  0  0  0  0  0  0  0  0  0  0  0
    2.0789   -4.3710    1.6773 H   0  0  0  0  0  0  0  0  0  0  0  0
    3.1868   -3.3603    0.8435 H   0  0  0  0  0  0  0  0  0  0  0  0
    1.6250   -1.4677    0.3919 N   0  0  0  0  0  2  0  0  0  0  0  0
    2.8488   -1.2993   -0.1428 N   0  0  0  0  0  0  0  0  0  0  0  0
   -0.2599   -3.5826    2.7493 C   0  0  0  0  0  0  0  0  0  0  0  0
    0.5170   -4.2546    3.1406 H   0  0  0  0  0  0  0  0  0  0  0  0
   -1.5676   -3.6489    3.2474 C   0  0  0  0  0  0  0  0  0  0  0  0
   -1.8283   -4.3967    4.0116 H   0  0  0  0  0  0  0  0  0  0  0  0
   -2.5317   -2.7487    2.7726 C   0  0  0  0  0  0  0  0  0  0  0  0
   -3.5688   -2.7691    3.1357 H   0  0  0  0  0  0  0  0  0  0  0  0
   -2.1334   -1.7991    1.8156 C   0  0  0  0  0  3  0  0  0  0  0  0
   -2.8428   -1.0497    1.4239 H   0  0  0  0  0  0  0  0  0  0  0  0
    0.0497   -2.6165    1.7662 C   0  0  0  0  0  0  0  0  0  0  0  0
    1.3995   -2.5007    1.1689 C   0  0  2  0  0  3  0  0  0  0  0  0
    2.8900   -0.3326   -1.1147 C   0  0  0  0  0  0  0  0  0  0  0  0
    4.2430   -0.0380   -1.6394 C   0  0  0  0  0  0  0  0  0  0  0  0
    4.3688    0.8513   -2.7307 C   0  0  0  0  0  0  0  0  0  0  0  0
    3.4399    1.2747   -3.1402 H   0  0  0  0  0  0  0  0  0  0  0  0
    5.6164    1.1751   -3.2652 C   0  0  0  0  0  0  0  0  0  0  0  0
    5.6949    1.8653   -4.1179 H   0  0  0  0  0  0  0  0  0  0  0  0
    6.7755    0.6031   -2.7002 C   0  0  0  0  0  0  0  0  0  0  0  0
    7.7668    0.8490   -3.1125 H   0  0  0  0  0  0  0  0  0  0  0  0
    6.6837   -0.2748   -1.6185 C   0  0  0  0  0  0  0  0  0  0  0  0
    7.5784   -0.7255   -1.1646 H   0  0  0  0  0  0  0  0  0  0  0  0
    5.4252   -0.6145   -1.0674 C   0  0  0  0  0  0  0  0  0  0  0  0
  1  2  1  0  0  0  0
  3 20  1  0  0  0  0
  4 18  1  0  0  0  0
  4 16  1  0  0  0  0
  5  6  1  0  0  0  0
  7  5  1  0  0  0  0
  9  8  1  0  0  0  0
 10 11  1  0  0  0  0
 10 12  1  0  0  0  0
 12 13  1  0  0  0  0
 14 15  1  0  0  0  0
 14 12  2  0  0  0  0
 16 14  1  0  0  0  0
 17 16  1  0  0  0  0
 18 10  2  0  0  0  0
 19  8  1  1  0  0  0
 19  5  1  0  0  0  0
 19 18  1  0  0  0  0
 20  9  2  0  0  0  0
 21 20  1  0  0  0  0
 21 30  1  0  0  0  0
 22 21  2  0  0  0  0
 23 22  1  0  0  0  0
 24 22  1  0  0  0  0
 24 26  2  0  0  0  0
 25 24  1  0  0  0  0
 26 28  1  0  0  0  0
 27 26  1  0  0  0  0
 28 29  1  0  0  0  0
 28 30  2  0  0  0  0
 30  1  1  0  0  0  0
M  CHG  1   3  -1
M  END
