1,2,3
q = -1.0, confidence = 0.018

 29 30  0  0  0  0  0  0  0  0999 V2000
   -1.3184    0.5482   -0.4393 O   0  5  0  0  0  0  0  0  0  0  0  0
    1.0338   -2.1656    0.9544 N   0  0  0  0  0  2  0  0  0  0  0  0
   -0.9820   -0.8136    1.5849 N   0  0  0  0  0  2  0  0  0  0  0  0
   -2.0339    0.0107    1.6989 N   0  0  0  0  0  0  0  0  0  0  0  0
   -6.3434    4.5136    0.0162 N   0  0  0  0  0  0  0  0  0  0  0  0
   -6.8157    4.8342    0.8605 H   0  0  0  0  0  0  0  0  0  0  0  0
   -6.2680    5.2128   -0.7214 H   0  0  0  0  0  0  0  0  0  0  0  0
    0.5507   -2.4107    2.2310 C   0  0  0  0  0  0  0  0  0  0  0  0
   -5.3056    3.6156    0.1604 C   0  0  0  0  0  0  0  0  0  0  0  0
   -3.2190    1.7009    0.4242 C   0  0  0  0  0  0  0  0  0  0  0  0
   -0.6009   -1.6273    2.5679 C   0  0  0  0  0  0  0  0  0  0  0  0
   -1.1279   -1.6590    3.5328 H   0  0  0  0  0  0  0  0  0  0  0  0
   -3.3613    2.4562   -0.7613 C   0  0  0  0  0  0  0  0  0  0  0  0
   -2.6423    2.2870   -1.5758 H   0  0  0  0  0  0  0  0  0  0  0  0
   -2.1339    0.7146    0.5452 C   0  0  0  0  0  0  0  0  0  0  0  0
   -4.1367    1.9194    1.4774 C   0  0  0  0  0  0  0  0  0  0  0  0
   -4.0199    1.3336    2.4001 H   0  0  0  0  0  0  0  0  0  0  0  0
   -4.3819    3.3953   -0.8947 C   0  0  0  0  0  0  0  0  0  0  0  0
   -4.4790    3.9759   -1.8260 H   0  0  0  0  0  0  0  0  0  0  0  0
    1.1899   -3.3533    3.0665 C   0  0  0  0  0  0  0  0  0  0  0  0
    0.7860   -3.5321    4.0733 H   0  0  0  0  0  0  0  0  0  0  0  0
    2.1288   -2.8219    0.5238 C   0  0  0  0  0  0  0  0  0  0  0  0
    2.4724   -2.5696   -0.4906 H   0  0  0  0  0  0  0  0  0  0  0  0
   -5.1602    2.8563    1.3511 C   0  0  0  0  0  0  0  0  0  0  0  0
   -5.8677    3.0143    2.1807 H   0  0  0  0  0  0  0  0  0  0  0  0
    2.8036   -3.7617    1.3121 C   0  0  0  0  0  0  0  0  0  0  0  0
    3.6940   -4.2660    0.9120 H   0  0  0  0  0  0  0  0  0  0  0  0
    2.3205   -4.0330    2.6054 C   0  0  0  0  0  0  0  0  0  0  0  0
    2.8270   -4.7674    3.2494 H   0  0  0  0  0  0  0  0  0  0  0  0
  1 15  1  0  0  0  0
  2  8  1  0  0  0  0
  3  4  1  0  0  0  0
  3 11  1  0  0  0  0
  5  9  1  0  0  0  0
  5  6  1  0  0  0  0
  7  5  1  0  0  0  0
  8 11  2  0  0  0  0
  8 20  1  0  0  0  0
  9 24  1  0  0  0  0
 10 15  1  0  0  0  0
 10 16  1  0  0  0  0
 11 12  1  0  0  0  0
 13 10  2  0  0  0  0
 14 13  1  0  0  0  0
 15  4  2  0  0  0  0
 16 17  1  0  0  0  0
 18 13  1  0  0  0  0
 18  9  2  0  0  0  0
 19 18  1  0  0  0  0
 20 21  1  0  0  0  0
 22  2  1  0  0  0  0
 22 26  2  0  0  0  0
 23 22  1  0  0  0  0
 24 16  2  0  0  0  0
 24 25  1  0  0  0  0
 26 28  1  0  0  0  0
 27 26  1  0  0  0  0
 28 20  2  0  0  0  0
 28 29  1  0  0  0  0
M  CHG  1   1  -1
M  END
