1,2,17
q = -1.0, confidence = 0.002

 36 36  0  0  1  0  0  0  0  0999 V2000
    0.6267   -0.3809   -0.0166 O   0  5  0  0  0  0  0  0  0  0  0  0
   -3.1811   -0.4921   -0.1631 N   0  0  0  0  0  0  0  0  0  0  0  0
   -3.6430   -0.8341    1.1993 C   0  0  0  0  0  0  0  0  0  0  0  0
   -4.7540   -0.9142    1.2295 H   0  0  0  0  0  0  0  0  0  0  0  0
   -3.3150   -0.0617    1.9190 H   0  0  0  0  0  0  0  0  0  0  0  0
   -3.1835   -1.7992    1.4817 H   0  0  0  0  0  0  0  0  0  0  0  0
   -3.6437   -1.5173   -1.1209 C   0  0  0  0  0  0  0  0  0  0  0  0
   -4.7558   -1.5685   -1.1246 H   0  0  0  0  0  0  0  0  0  0  0  0
   -3.2040   -2.4878   -0.8283 H   0  0  0  0  0  0  0  0  0  0  0  0
   -3.2839   -1.2604   -2.1347 H   0  0  0  0  0  0  0  0  0  0  0  0
   -3.6299    0.8570   -0.5896 C   0  0  0  0  0  0  0  0  0  0  0  0
   -4.7195    0.9897   -0.3987 H   0  0  0  0  0  0  0  0  0  0  0  0
   -3.4617    0.9205   -1.6828 H   0  0  0  0  0  0  0  0  0  0  0  0
   -2.7878    1.9117    0.1024 C   0  0  0  0  0  0  0  0  0  0  0  0
   -2.9667    2.8934   -0.3858 H   0  0  0  0  0  0  0  0  0  0  0  0
   -3.0972    2.0358    1.1679 H   0  0  0  0  0  0  0  0  0  0  0  0
   -1.3995    1.4756    0.0091 N   0  0  0  0  0  2  0  0  0  0  0  0
   -0.4025    2.3593    0.1342 C   0  0  1  0  0  3  0  0  0  0  0  0
   -0.7186    3.8282    0.3154 C   0  0  0  0  0  0  0  0  0  0  0  0
   -1.2826    4.2361   -0.5500 H   0  0  0  0  0  0  0  0  0  0  0  0
    0.2090    4.4179    0.4225 H   0  0  0  0  0  0  0  0  0  0  0  0
   -1.3418    4.0019    1.2175 H   0  0  0  0  0  0  0  0  0  0  0  0
    0.9590    1.9759    0.1075 C   0  0  0  0  0  0  0  0  0  0  0  0
    1.7008    2.7771    0.1956 H   0  0  0  0  0  0  0  0  0  0  0  0
    1.4114    0.6482    0.0127 C   0  0  0  0  0  0  0  0  0  0  0  0
    2.8687    0.3236   -0.0352 C   0  0  0  0  0  0  0  0  0  0  0  0
    3.2759   -1.0222    0.1151 C   0  0  0  0  0  0  0  0  0  0  0  0
    2.5115   -1.7998    0.2577 H   0  0  0  0  0  0  0  0  0  0  0  0
    4.6342   -1.3617    0.0802 C   0  0  0  0  0  0  0  0  0  0  0  0
    4.9308   -2.4146    0.2028 H   0  0  0  0  0  0  0  0  0  0  0  0
    5.6106   -0.3711   -0.1116 C   0  0  0  0  0  0  0  0  0  0  0  0
    6.6776   -0.6404   -0.1410 H   0  0  0  0  0  0  0  0  0  0  0  0
    5.2164    0.9676   -0.2731 C   0  0  0  0  0  0  0  0  0  0  0  0
    5.9727    1.7508   -0.4356 H   0  0  0  0  0  0  0  0  0  0  0  0
    3.8596    1.3119   -0.2362 C   0  0  0  0  0  0  0  0  0  0  0  0
    3.5719    2.3623   -0.3861 H   0  0  0  0  0  0  0  0  0  0  0  0
  1 25  1  0  0  0  0
  2  3  1  0  0  0  0
  3  4  1  0  0  0  0
  3  6  1  0  0  0  0
  3  5  1  0  0  0  0
  7  9  1  0  0  0  0
  7  2  1  0  0  0  0
  8  7  1  0  0  0  0
 10  7  1  0  0  0  0
 11 12  1  0  0  0  0
 11  2  1  0  0  0  0
 11 14  1  0  0  0  0
 13 11  1  0  0  0  0
 14 16  1  0  0  0  0
 15 14  1  0  0  0  0
 17 14  1  0  0  0  0
 18 17  1  1  0  0  0
 18 19  1  0  0  0  0
 19 21  1  0  0  0  0
 19 22  1  0  0  0  0
 20 19  1  0  0  0  0
 23 18  1  0  0  0  0
 23 24  1  0  0  0  0
 25 23  2  0  0  0  0
 26 25  1  0  0  0  0
 26 27  1  0  0  0  0
 27 28  1  0  0  0  0
 29 27  2  0  0  0  0
 29 30  1  0  0  0  0
 31 29  1  0  0  0  0
 32 31  1  0  0  0  0
 33 35  1  0  0  0  0
 33 31  2  0  0  0  0
 34 33  1  0  0  0  0
 35 26  2  0  0  0  0
 36 35  1  0  0  0  0
M  CHG  1   1  -1
M  END
