1,3,6
q = -1.0

 14 13  0  0  1  0  0  0  0  0999 V2000
   -1.1409   -1.1615    0.4312 O   0  5  0  0  0  0  0  0  0  0  0  0
   -3.4065   -1.2133    0.2923 O   0  0  0  0  0  0  0  0  0  0  0  0
   -0.9373    0.4816   -1.5487 N   0  0  0  0  0  0  0  0  0  0  0  0
   -0.9382   -0.3462   -2.1714 H   0  0  0  0  0  0  0  0  0  0  0  0
   -0.7246    1.3130   -2.1179 H   0  0  0  0  0  0  0  0  0  0  0  0
   -0.7945    1.3608    1.1512 N   0  0  0  0  0  0  0  0  0  0  0  0
   -0.3163    2.1804    1.5477 H   0  0  0  0  0  0  0  0  0  0  0  0
   -1.0632    0.7562    1.9455 H   0  0  0  0  0  0  0  0  0  0  0  0
   -2.3208   -0.7242    0.0403 C   0  0  0  0  0  0  0  0  0  0  0  0
   -2.1775    0.6147   -0.7445 C   0  0  1  0  0  0  0  0  0  0  0  0
   -3.0827    0.8065   -1.3545 H   0  0  0  0  0  0  0  0  0  0  0  0
   -1.9504    1.7341    0.2868 C   0  0  0  0  0  0  0  0  0  0  0  0
   -2.8762    1.8906    0.8771 H   0  0  0  0  0  0  0  0  0  0  0  0
   -1.7036    2.6889   -0.2233 H   0  0  0  0  0  0  0  0  0  0  0  0
  3 10  1  0  0  0  0
  4  3  1  0  0  0  0
  5  3  1  0  0  0  0
  6  7  1  0  0  0  0
  6  8  1  0  0  0  0
  9  2  2  0  0  0  0
  9  1  1  0  0  0  0
 10 11  1  6  0  0  0
 10  9  1  0  0  0  0
 10 12  1  0  0  0  0
 12 13  1  0  0  0  0
 12  6  1  0  0  0  0
 14 12  1  0  0  0  0
M  CHG  1   1  -1
M  END
