1,3,5
q = -1.0, confidence = 0.012

 34 35  0  0  1  0  0  0  0  0999 V2000
   -1.0215   -1.3396   -2.1878 O   0  5  0  0  0  0  0  0  0  0  0  0
   -2.7310   -2.7936   -1.9470 O   0  0  0  0  0  0  0  0  0  0  0  0
   -0.3579   -1.5534    0.5085 N   0  0  0  0  0  0  0  0  0  0  0  0
   -0.9437   -1.1017    1.2246 H   0  0  0  0  0  0  0  0  0  0  0  0
    1.9243   -1.1115   -0.9260 N   0  0  0  0  0  2  0  0  0  0  0  0
   -1.7154   -2.2146   -1.5436 C   0  0  0  0  0  0  0  0  0  0  0  0
   -1.1599   -2.6239   -0.1261 C   0  0  2  0  0  0  0  0  0  0  0  0
   -0.4749   -3.4741   -0.3390 H   0  0  0  0  0  0  0  0  0  0  0  0
    0.9112   -1.9783    1.0955 C   0  0  0  0  0  0  0  0  0  0  0  0
    0.8436   -2.9592    1.6209 H   0  0  0  0  0  0  0  0  0  0  0  0
    1.2199   -1.2331    1.8635 H   0  0  0  0  0  0  0  0  0  0  0  0
    2.0124   -2.0303    0.0509 C   0  0  2  0  0  3  0  0  0  0  0  0
    3.0802   -2.9392    0.1103 C   0  0  0  0  0  0  0  0  0  0  0  0
    3.1239   -3.6874    0.9160 H   0  0  0  0  0  0  0  0  0  0  0  0
    4.0759   -2.8724   -0.8745 C   0  0  0  0  0  0  0  0  0  0  0  0
    4.9214   -3.5770   -0.8570 H   0  0  0  0  0  0  0  0  0  0  0  0
    3.9781   -1.9010   -1.8815 C   0  0  0  0  0  0  0  0  0  0  0  0
    4.7380   -1.8162   -2.6714 H   0  0  0  0  0  0  0  0  0  0  0  0
    2.8773   -1.0332   -1.8707 C   0  0  0  0  0  0  0  0  0  0  0  0
    2.7286   -0.2377   -2.6205 H   0  0  0  0  0  0  0  0  0  0  0  0
   -2.2878   -3.1261    0.8055 C   0  0  0  0  0  0  0  0  0  0  0  0
   -2.9229   -3.7860    0.1843 H   0  0  0  0  0  0  0  0  0  0  0  0
   -1.8560   -3.7222    1.6367 H   0  0  0  0  0  0  0  0  0  0  0  0
   -3.0913   -1.9756    1.3654 C   0  0  0  0  0  0  0  0  0  0  0  0
   -4.0688   -1.3247    0.5796 C   0  0  0  0  0  0  0  0  0  0  0  0
   -4.2774   -1.7185   -0.4267 H   0  0  0  0  0  0  0  0  0  0  0  0
   -4.7331   -0.1900    1.0643 C   0  0  0  0  0  0  0  0  0  0  0  0
   -5.4910    0.3040    0.4378 H   0  0  0  0  0  0  0  0  0  0  0  0
   -4.4289    0.3284    2.3350 C   0  0  0  0  0  0  0  0  0  0  0  0
   -4.9507    1.2230    2.7077 H   0  0  0  0  0  0  0  0  0  0  0  0
   -3.4637   -0.3087    3.1289 C   0  0  0  0  0  0  0  0  0  0  0  0
   -3.2299    0.0768    4.1335 H   0  0  0  0  0  0  0  0  0  0  0  0
   -2.8042   -1.4534    2.6461 C   0  0  0  0  0  0  0  0  0  0  0  0
   -2.0639   -1.9655    3.2836 H   0  0  0  0  0  0  0  0  0  0  0  0
  1  6  1  0  0  0  0
  2  6  2  0  0  0  0
  3  9  1  0  0  0  0
  3  4  1  0  0  0  0
  5 12  1  0  0  0  0
  6  7  1  0  0  0  0
  7  8  1  6  0  0  0
  7  3  1  0  0  0  0
  7 21  1  0  0  0  0
  9 10  1  0  0  0  0
  9 11  1  0  0  0  0
 12 13  1  0  0  0  0
 12  9  1  1  0  0  0
 13 14  1  0  0  0  0
 15 16  1  0  0  0  0
 15 13  2  0  0  0  0
 17 19  2  0  0  0  0
 17 15  1  0  0  0  0
 18 17  1  0  0  0  0
 19  5  1  0  0  0  0
 20 19  1  0  0  0  0
 21 24  1  0  0  0  0
 21 23  1  0  0  0  0
 22 21  1  0  0  0  0
 24 33  1  0  0  0  0
 25 27  1  0  0  0  0
 25 24  2  0  0  0  0
 26 25  1  0  0  0  0
 27 29  2  0  0  0  0
 28 27  1  0  0  0  0
 29 30  1  0  0  0  0
 29 31  1  0  0  0  0
 31 32  1  0  0  0  0
 33 31  2  0  0  0  0
 33 34  1  0  0  0  0
M  CHG  1   1  -1
M  END
