4,6,7
q = -1.0

 47 50  0  0  1  0  0  0  0  0999 V2000
   -2.1295   -0.8144   -3.1204 Cl  0  0  0  0  0  0  0  0  0  0  0  0
   -3.5927    3.1500    1.4169 Cl  0  0  0  0  0  0  0  0  0  0  0  0
    1.8217    0.3971   -0.2672 P   0  0  0  0  0  4  0  0  0  0  0  0
    1.0685   -0.7677   -0.9867 O   0  0  0  0  0  1  0  0  0  0  0  0
   -1.3237    1.7723    2.4774 O   0  0  0  0  0  0  0  0  0  0  0  0
   -0.3455   -0.0588    1.4365 N   0  0  0  0  0  2  0  0  0  0  0  0
   -1.9651    0.0766   -0.6251 N   0  0  0  0  0  2  0  0  0  0  0  0
    0.8182    0.0003    2.2270 C   0  0  0  0  0  0  0  0  0  0  0  0
    2.0385    0.1601    1.5163 C   0  0  0  0  0  0  0  0  0  0  0  0
    3.2739    0.1686    2.1882 C   0  0  0  0  0  0  0  0  0  0  0  0
    4.2109    0.2768    1.6211 H   0  0  0  0  0  0  0  0  0  0  0  0
    3.2922    0.0500    3.5853 C   0  0  0  0  0  0  0  0  0  0  0  0
    4.2513    0.0522    4.1238 H   0  0  0  0  0  0  0  0  0  0  0  0
    2.0833   -0.0647    4.2962 C   0  0  0  0  0  0  0  0  0  0  0  0
    2.1048   -0.1465    5.3937 H   0  0  0  0  0  0  0  0  0  0  0  0
    0.8491   -0.0866    3.6306 C   0  0  0  0  0  0  0  0  0  0  0  0
   -0.0957   -0.1825    4.1816 H   0  0  0  0  0  0  0  0  0  0  0  0
    0.9438    1.9741   -0.5123 C   0  0  0  0  0  0  0  0  0  0  0  0
    0.2866    2.1551   -1.7484 C   0  0  0  0  0  0  0  0  0  0  0  0
    0.3476    1.3707   -2.5182 H   0  0  0  0  0  0  0  0  0  0  0  0
   -0.4732    3.3114   -1.9676 C   0  0  0  0  0  0  0  0  0  0  0  0
   -0.9935    3.4487   -2.9277 H   0  0  0  0  0  0  0  0  0  0  0  0
   -0.5866    4.2828   -0.9574 C   0  0  0  0  0  0  0  0  0  0  0  0
   -1.2024    5.1796   -1.1236 H   0  0  0  0  0  0  0  0  0  0  0  0
    0.0709    4.1038    0.2690 C   0  0  0  0  0  0  0  0  0  0  0  0
   -0.0378    4.8491    1.0702 H   0  0  0  0  0  0  0  0  0  0  0  0
    0.8443    2.9548    0.4933 C   0  0  0  0  0  0  0  0  0  0  0  0
    1.3231    2.7964    1.4706 H   0  0  0  0  0  0  0  0  0  0  0  0
    3.4659    0.5497   -1.0198 C   0  0  0  0  0  0  0  0  0  0  0  0
    3.9904   -0.5554   -1.7178 C   0  0  0  0  0  0  0  0  0  0  0  0
    3.3789   -1.4644   -1.8195 H   0  0  0  0  0  0  0  0  0  0  0  0
    5.2734   -0.4734   -2.2789 C   0  0  0  0  0  0  0  0  0  0  0  0
    5.6854   -1.3334   -2.8281 H   0  0  0  0  0  0  0  0  0  0  0  0
    6.0288    0.7026   -2.1420 C   0  0  0  0  0  0  0  0  0  0  0  0
    7.0351    0.7632   -2.5836 H   0  0  0  0  0  0  0  0  0  0  0  0
    5.5019    1.8055   -1.4487 C   0  0  0  0  0  0  0  0  0  0  0  0
    6.0921    2.7289   -1.3496 H   0  0  0  0  0  0  0  0  0  0  0  0
    4.2183    1.7342   -0.8891 C   0  0  0  0  0  0  0  0  0  0  0  0
    3.7958    2.6019   -0.3587 H   0  0  0  0  0  0  0  0  0  0  0  0
   -1.2865    0.9208    1.5868 C   0  0  0  0  0  0  0  0  0  0  0  0
   -2.2156    0.9759    0.3808 C   0  0  1  0  0  3  0  0  0  0  0  0
   -2.5802    0.2204   -1.8092 C   0  0  0  0  0  0  0  0  0  0  0  0
   -3.5554    1.2022   -2.0511 C   0  0  0  0  0  0  0  0  0  0  0  0
   -4.0382    1.2610   -3.0349 H   0  0  0  0  0  0  0  0  0  0  0  0
   -3.8729    2.0795   -1.0209 C   0  0  0  0  0  0  0  0  0  0  0  0
   -4.6339    2.8616   -1.1514 H   0  0  0  0  0  0  0  0  0  0  0  0
   -3.1852    1.9864    0.2042 C   0  0  0  0  0  0  0  0  0  0  0  0
  1 42  1  0  0  0  0
  3  9  1  0  0  0  0
  4  3  1  0  0  0  0
  6 40  1  0  0  0  0
  6  8  1  0  0  0  0
  7 41  1  0  0  0  0
  8 16  1  0  0  0  0
  9 10  1  0  0  0  0
  9  8  2  0  0  0  0
 10 12  2  0  0  0  0
 11 10  1  0  0  0  0
 12 13  1  0  0  0  0
 12 14  1  0  0  0  0
 14 15  1  0  0  0  0
 16 17  1  0  0  0  0
 16 14  2  0  0  0  0
 18  3  1  0  0  0  0
 18 27  1  0  0  0  0
 19 18  2  0  0  0  0
 20 19  1  0  0  0  0
 21 19  1  0  0  0  0
 21 23  2  0  0  0  0
 22 21  1  0  0  0  0
 23 25  1  0  0  0  0
 24 23  1  0  0  0  0
 25 27  2  0  0  0  0
 25 26  1  0  0  0  0
 27 28  1  0  0  0  0
 29 38  1  0  0  0  0
 29  3  1  0  0  0  0
 30 29  2  0  0  0  0
 31 30  1  0  0  0  0
 32 34  2  0  0  0  0
 32 30  1  0  0  0  0
 33 32  1  0  0  0  0
 34 36  1  0  0  0  0
 35 34  1  0  0  0  0
 36 37  1  0  0  0  0
 36 38  2  0  0  0  0
 38 39  1  0  0  0  0
 40  5  2  0  0  0  0
 41 40  1  6  0  0  0
 42  7  1  0  0  0  0
 43 42  2  0  0  0  0
 43 45  1  0  0  0  0
 44 43  1  0  0  0  0
 45 47  2  0  0  0  0
 46 45  1  0  0  0  0
 47 41  1  0  0  0  0
 47  2  1  0  0  0  0
M  END
