1,2,3
q = -1.0, confidence = 0.162

 28 29  0  0  0  0  0  0  0  0999 V2000
   -1.7587   -0.5342   -1.1247 O   0  5  0  0  0  0  0  0  0  0  0  0
    0.2214   -2.0503    0.0452 N   0  0  0  0  0  2  0  0  0  0  0  0
    1.9362   -0.6141   -0.9899 N   0  0  0  0  0  1  0  0  0  0  0  0
   -2.6241   -1.2869   -0.4578 C   0  0  0  0  0  0  0  0  0  0  0  0
   -4.0008   -1.0000   -0.5620 C   0  0  0  0  0  0  0  0  0  0  0  0
   -4.3060   -0.1618   -1.2041 H   0  0  0  0  0  0  0  0  0  0  0  0
   -4.9421   -1.7609    0.1450 C   0  0  0  0  0  0  0  0  0  0  0  0
   -6.0111   -1.5143    0.0536 H   0  0  0  0  0  0  0  0  0  0  0  0
   -4.5345   -2.8306    0.9630 C   0  0  0  0  0  0  0  0  0  0  0  0
   -5.2755   -3.4254    1.5157 H   0  0  0  0  0  0  0  0  0  0  0  0
   -3.1727   -3.1288    1.0620 C   0  0  0  0  0  0  0  0  0  0  0  0
   -2.8335   -3.9594    1.7012 H   0  0  0  0  0  0  0  0  0  0  0  0
   -2.1959   -2.3783    0.3631 C   0  0  0  0  0  0  0  0  0  0  0  0
   -0.8054   -2.6974    0.5573 C   0  0  0  0  0  3  0  0  0  0  0  0
   -0.6030   -3.5302    1.2531 H   0  0  0  0  0  0  0  0  0  0  0  0
    1.5422   -2.3722    0.4676 C   0  0  0  0  0  0  0  0  0  0  0  0
    2.5088   -1.4979   -0.1098 C   0  0  0  0  0  0  0  0  0  0  0  0
    3.8833   -1.5739    0.2097 C   0  0  0  0  0  0  0  0  0  0  0  0
    4.2659   -2.5804    1.1191 C   0  0  0  0  0  0  0  0  0  0  0  0
    5.3286   -2.6768    1.3896 H   0  0  0  0  0  0  0  0  0  0  0  0
    3.3242   -3.4594    1.6793 C   0  0  0  0  0  0  0  0  0  0  0  0
    3.6604   -4.2396    2.3785 H   0  0  0  0  0  0  0  0  0  0  0  0
    1.9558   -3.3643    1.3648 C   0  0  0  0  0  0  0  0  0  0  0  0
    1.2404   -4.0626    1.8215 H   0  0  0  0  0  0  0  0  0  0  0  0
    4.8518   -0.5979   -0.3938 C   0  0  0  0  0  0  0  0  0  0  0  0
    4.6739   -0.4874   -1.4824 H   0  0  0  0  0  0  0  0  0  0  0  0
    5.9000   -0.9104   -0.2282 H   0  0  0  0  0  0  0  0  0  0  0  0
    4.7149    0.4117    0.0489 H   0  0  0  0  0  0  0  0  0  0  0  0
  1  4  1  0  0  0  0
  2 16  1  0  0  0  0
  2 14  1  0  0  0  0
  3 17  1  0  0  0  0
  4 13  1  0  0  0  0
  5  4  2  0  0  0  0
  5  7  1  0  0  0  0
  6  5  1  0  0  0  0
  7  9  2  0  0  0  0
  8  7  1  0  0  0  0
  9 11  1  0  0  0  0
  9 10  1  0  0  0  0
 11 12  1  0  0  0  0
 13 14  1  0  0  0  0
 13 11  2  0  0  0  0
 14 15  1  0  0  0  0
 16 23  1  0  0  0  0
 17 18  1  0  0  0  0
 17 16  2  0  0  0  0
 18 19  2  0  0  0  0
 19 20  1  0  0  0  0
 19 21  1  0  0  0  0
 21 22  1  0  0  0  0
 23 21  2  0  0  0  0
 23 24  1  0  0  0  0
 25 27  1  0  0  0  0
 25 28  1  0  0  0  0
 25 18  1  0  0  0  0
 26 25  1  0  0  0  0
M  CHG  1   1  -1
M  END
