34,35,37
q = -1.0, confidence = 0.044

 37 39  0  0  1  0  0  0  0  0999 V2000
    5.5474    3.3254    4.8838 Cl  0  0  0  0  0  0  0  0  0  0  0  0
   -1.6834   -2.0723   -2.1985 C   0  0  0  0  0  3  0  0  0  0  0  0
   -2.4816   -2.0159   -1.4437 H   0  0  0  0  0  0  0  0  0  0  0  0
   -1.8927   -2.6725   -3.4459 C   0  0  0  0  0  0  0  0  0  0  0  0
   -2.8767   -3.0976   -3.6863 H   0  0  0  0  0  0  0  0  0  0  0  0
   -0.8245   -2.7214   -4.3545 C   0  0  0  0  0  0  0  0  0  0  0  0
   -0.9471   -3.2055   -5.3345 H   0  0  0  0  0  0  0  0  0  0  0  0
    0.4047   -2.1513   -4.0050 C   0  0  0  0  0  0  0  0  0  0  0  0
    1.2631   -2.1862   -4.6886 H   0  0  0  0  0  0  0  0  0  0  0  0
    0.5526   -1.5297   -2.7491 C   0  0  0  0  0  0  0  0  0  0  0  0
    1.7751   -0.8924   -2.2548 C   0  0  1  0  0  3  0  0  0  0  0  0
    2.9911   -0.6827   -3.0609 C   0  0  0  0  0  0  0  0  0  0  0  0
    2.8955   -0.1585   -4.3721 C   0  0  0  0  0  0  0  0  0  0  0  0
    1.9130    0.1222   -4.7800 H   0  0  0  0  0  0  0  0  0  0  0  0
    4.0496    0.0506   -5.1382 C   0  0  0  0  0  0  0  0  0  0  0  0
    3.9627    0.4709   -6.1511 H   0  0  0  0  0  0  0  0  0  0  0  0
    5.3120   -0.2635   -4.6108 C   0  0  0  0  0  0  0  0  0  0  0  0
    6.2173   -0.1020   -5.2147 H   0  0  0  0  0  0  0  0  0  0  0  0
    5.4175   -0.7761   -3.3072 C   0  0  0  0  0  0  0  0  0  0  0  0
    6.4057   -1.0192   -2.8895 H   0  0  0  0  0  0  0  0  0  0  0  0
    4.2694   -0.9776   -2.5322 C   0  0  0  0  0  0  0  0  0  0  0  0
    4.3575   -1.3659   -1.5085 H   0  0  0  0  0  0  0  0  0  0  0  0
    2.0692    0.4229    0.9459 C   0  0  0  0  0  0  0  0  0  0  0  0
    2.9253    1.1342    1.9033 C   0  0  0  0  0  0  0  0  0  0  0  0
    4.2474    1.4992    1.5554 C   0  0  0  0  0  0  0  0  0  0  0  0
    4.6241    1.2502    0.5535 H   0  0  0  0  0  0  0  0  0  0  0  0
    5.0571    2.1733    2.4705 C   0  0  0  0  0  0  0  0  0  0  0  0
    6.0844    2.4640    2.2110 H   0  0  0  0  0  0  0  0  0  0  0  0
    4.5455    2.4887    3.7447 C   0  0  0  0  0  0  0  0  0  0  0  0
    3.2302    2.1358    4.1057 C   0  0  0  0  0  0  0  0  0  0  0  0
    2.8533    2.3957    5.1044 H   0  0  0  0  0  0  0  0  0  0  0  0
    2.4266    1.4621    3.1847 C   0  0  0  0  0  0  0  0  0  0  0  0
    1.3967    1.1799    3.4446 H   0  0  0  0  0  0  0  0  0  0  0  0
   -0.5012   -1.5283   -1.8632 N   0  0  0  0  0  2  0  0  0  0  0  0
    1.6456   -0.5142   -0.9848 N   0  0  0  0  0  2  0  0  0  0  0  0
    2.5807    0.0984   -0.2618 N   0  0  0  0  0  0  0  0  0  0  0  0
    0.8521    0.1252    1.2886 O   0  5  0  0  0  0  0  0  0  0  0  0
  2 34  1  0  0  0  0
  2  3  1  0  0  0  0
  4  2  1  0  0  0  0
  5  4  1  0  0  0  0
  6  8  1  0  0  0  0
  6  4  2  0  0  0  0
  7  6  1  0  0  0  0
  8 10  2  0  0  0  0
  9  8  1  0  0  0  0
 10 11  1  0  0  0  0
 10 34  1  0  0  0  0
 11 35  1  6  0  0  0
 12 21  1  0  0  0  0
 12 11  1  0  0  0  0
 13 12  2  0  0  0  0
 14 13  1  0  0  0  0
 15 17  2  0  0  0  0
 15 13  1  0  0  0  0
 16 15  1  0  0  0  0
 17 19  1  0  0  0  0
 18 17  1  0  0  0  0
 19 20  1  0  0  0  0
 19 21  2  0  0  0  0
 21 22  1  0  0  0  0
 23 37  1  0  0  0  0
 23 24  1  0  0  0  0
 24 32  1  0  0  0  0
 25 24  2  0  0  0  0
 25 27  1  0  0  0  0
 26 25  1  0  0  0  0
 27 29  2  0  0  0  0
 28 27  1  0  0  0  0
 29 30  1  0  0  0  0
 29  1  1  0  0  0  0
 30 31  1  0  0  0  0
 32 33  1  0  0  0  0
 32 30  2  0  0  0  0
 35 36  1  0  0  0  0
 36 23  2  0  0  0  0
M  CHG  1  37  -1
M  END
