1,2,3
q = -1.0

 34 36  0  0  1  0  0  0  0  0999 V2000
   -1.2628    0.7658    1.3126 N   0  0  0  0  0  2  0  0  0  0  0  0
    1.5723   -0.4777   -0.8513 O   0  5  0  0  0  0  0  0  0  0  0  0
    0.7657    1.9177    0.2481 N   0  0  0  0  0  2  0  0  0  0  0  0
   -0.1978    2.7992    0.7504 C   0  0  0  0  0  0  0  0  0  0  0  0
   -1.3032    2.1352    1.3582 C   0  0  2  0  0  3  0  0  0  0  0  0
   -2.2366    0.0651    1.9049 C   0  0  0  0  0  0  0  0  0  0  0  0
   -2.1337   -1.0275    1.8830 H   0  0  0  0  0  0  0  0  0  0  0  0
    2.6963    0.1336   -1.0679 C   0  0  0  0  0  0  0  0  0  0  0  0
    1.9988    2.3014   -0.0390 C   0  0  0  0  0  3  0  0  0  0  0  0
    2.2869    3.3381    0.2192 H   0  0  0  0  0  0  0  0  0  0  0  0
   -2.3675    2.8597    1.9753 C   0  0  0  0  0  0  0  0  0  0  0  0
   -2.3164    4.2828    1.9336 C   0  0  0  0  0  0  0  0  0  0  0  0
   -3.1367    4.8632    2.3813 H   0  0  0  0  0  0  0  0  0  0  0  0
    2.9897    1.4930   -0.6580 C   0  0  0  0  0  0  0  0  0  0  0  0
   -3.3251    0.6996    2.5461 C   0  0  0  0  0  0  0  0  0  0  0  0
   -4.1003    0.0770    3.0150 H   0  0  0  0  0  0  0  0  0  0  0  0
   -0.1851    4.1995    0.7169 C   0  0  0  0  0  0  0  0  0  0  0  0
    0.6266    4.7400    0.2107 H   0  0  0  0  0  0  0  0  0  0  0  0
   -3.4039    2.0869    2.5762 C   0  0  0  0  0  0  0  0  0  0  0  0
   -4.2509    2.5965    3.0599 H   0  0  0  0  0  0  0  0  0  0  0  0
    4.9875   -0.0136   -1.9678 C   0  0  0  0  0  0  0  0  0  0  0  0
    5.7532   -0.6133   -2.4794 H   0  0  0  0  0  0  0  0  0  0  0  0
    4.2805    2.0457   -0.9021 C   0  0  0  0  0  0  0  0  0  0  0  0
    4.5040    3.0764   -0.5878 H   0  0  0  0  0  0  0  0  0  0  0  0
    3.7370   -0.5761   -1.7435 C   0  0  0  0  0  0  0  0  0  0  0  0
    3.5123   -1.6033   -2.0648 H   0  0  0  0  0  0  0  0  0  0  0  0
   -1.2470    4.9232    1.3104 C   0  0  0  0  0  0  0  0  0  0  0  0
   -1.2256    6.0227    1.2661 H   0  0  0  0  0  0  0  0  0  0  0  0
    6.4821    1.9382   -1.7306 O   0  0  0  0  0  0  0  0  0  0  0  0
    5.2759    1.3161   -1.5437 C   0  0  0  0  0  0  0  0  0  0  0  0
    7.5039    1.2302   -2.3972 C   0  0  0  0  0  0  0  0  0  0  0  0
    8.3763    1.9089   -2.4464 H   0  0  0  0  0  0  0  0  0  0  0  0
    7.2142    0.9469   -3.4354 H   0  0  0  0  0  0  0  0  0  0  0  0
    7.8033    0.3054   -1.8516 H   0  0  0  0  0  0  0  0  0  0  0  0
  1  5  1  0  0  0  0
  1  6  1  0  0  0  0
  3  4  1  0  0  0  0
  5  4  1  1  0  0  0
  5 11  1  0  0  0  0
  6 15  2  0  0  0  0
  7  6  1  0  0  0  0
  8  2  1  0  0  0  0
  8 14  1  0  0  0  0
  9 10  1  0  0  0  0
  9  3  1  0  0  0  0
 11 19  2  0  0  0  0
 12 11  1  0  0  0  0
 12 13  1  0  0  0  0
 14  9  1  0  0  0  0
 15 19  1  0  0  0  0
 15 16  1  0  0  0  0
 17  4  2  0  0  0  0
 17 27  1  0  0  0  0
 18 17  1  0  0  0  0
 19 20  1  0  0  0  0
 21 25  1  0  0  0  0
 21 30  2  0  0  0  0
 22 21  1  0  0  0  0
 23 14  2  0  0  0  0
 23 24  1  0  0  0  0
 25  8  2  0  0  0  0
 26 25  1  0  0  0  0
 27 12  2  0  0  0  0
 28 27  1  0  0  0  0
 29 30  1  0  0  0  0
 30 23  1  0  0  0  0
 31 34  1  0  0  0  0
 31 29  1  0  0  0  0
 32 31  1  0  0  0  0
 33 31  1  0  0  0  0
M  CHG  1   2  -1
M  END
