1,2,3
q = -1.0, confidence = 0.004

 32 32  0  0  0  0  0  0  0  0999 V2000
    0.9685   -0.7900   -1.9725 N   0  0  0  0  0  2  0  0  0  0  0  0
   -1.2083   -2.3293   -1.4926 N   0  0  0  0  0  0  0  0  0  0  0  0
    0.8971    0.3184    0.6210 O   0  5  0  0  0  0  0  0  0  0  0  0
    2.4146    1.0045   -1.1598 C   0  0  0  0  0  0  0  0  0  0  0  0
    1.8354    1.1337    0.1430 C   0  0  0  0  0  0  0  0  0  0  0  0
    2.3149    2.1845    0.9660 C   0  0  0  0  0  0  0  0  0  0  0  0
    1.8331    2.3489    1.9395 H   0  0  0  0  0  0  0  0  0  0  0  0
    3.3431    3.0278    0.5464 C   0  0  0  0  0  0  0  0  0  0  0  0
    3.6759    3.8352    1.2184 H   0  0  0  0  0  0  0  0  0  0  0  0
    3.9582    2.8882   -0.7228 C   0  0  0  0  0  0  0  0  0  0  0  0
    3.4670    1.8774   -1.5500 C   0  0  0  0  0  0  0  0  0  0  0  0
    3.8995    1.7458   -2.5550 H   0  0  0  0  0  0  0  0  0  0  0  0
    5.0750    3.8051   -1.1487 C   0  0  0  0  0  0  0  0  0  0  0  0
    5.9542    3.7065   -0.4785 H   0  0  0  0  0  0  0  0  0  0  0  0
    4.7607    4.8686   -1.1125 H   0  0  0  0  0  0  0  0  0  0  0  0
    5.4121    3.5865   -2.1796 H   0  0  0  0  0  0  0  0  0  0  0  0
    1.9622    0.0349   -2.1198 C   0  0  0  0  0  3  0  0  0  0  0  0
    2.5046    0.0159   -3.0867 H   0  0  0  0  0  0  0  0  0  0  0  0
    0.5114   -1.6090   -3.0913 C   0  0  0  0  0  0  0  0  0  0  0  0
    1.3579   -1.9419   -3.7285 H   0  0  0  0  0  0  0  0  0  0  0  0
   -0.1588   -0.9927   -3.7299 H   0  0  0  0  0  0  0  0  0  0  0  0
   -0.2301   -2.8003   -2.5178 C   0  0  0  0  0  0  0  0  0  0  0  0
   -0.7545   -3.3790   -3.3091 H   0  0  0  0  0  0  0  0  0  0  0  0
    0.4814   -3.4705   -2.0004 H   0  0  0  0  0  0  0  0  0  0  0  0
   -1.6312   -3.4826   -0.6671 C   0  0  0  0  0  0  0  0  0  0  0  0
   -2.0666   -4.2723   -1.3165 H   0  0  0  0  0  0  0  0  0  0  0  0
   -2.4001   -3.1562    0.0545 H   0  0  0  0  0  0  0  0  0  0  0  0
   -0.7528   -3.8837   -0.1314 H   0  0  0  0  0  0  0  0  0  0  0  0
   -2.4051   -1.7372   -2.1356 C   0  0  0  0  0  0  0  0  0  0  0  0
   -2.1208   -0.8875   -2.7770 H   0  0  0  0  0  0  0  0  0  0  0  0
   -3.0939   -1.3633   -1.3572 H   0  0  0  0  0  0  0  0  0  0  0  0
   -2.9263   -2.5108   -2.7394 H   0  0  0  0  0  0  0  0  0  0  0  0
  2 25  1  0  0  0  0
  4  5  1  0  0  0  0
  5  3  1  0  0  0  0
  5  6  2  0  0  0  0
  6  7  1  0  0  0  0
  8  6  1  0  0  0  0
  8  9  1  0  0  0  0
 10  8  2  0  0  0  0
 11  4  2  0  0  0  0
 11 10  1  0  0  0  0
 12 11  1  0  0  0  0
 13 15  1  0  0  0  0
 13 10  1  0  0  0  0
 13 14  1  0  0  0  0
 16 13  1  0  0  0  0
 17  1  1  0  0  0  0
 17  4  1  0  0  0  0
 18 17  1  0  0  0  0
 19 22  1  0  0  0  0
 19  1  1  0  0  0  0
 20 19  1  0  0  0  0
 21 19  1  0  0  0  0
 22 24  1  0  0  0  0
 22  2  1  0  0  0  0
 23 22  1  0  0  0  0
 25 28  1  0  0  0  0
 25 27  1  0  0  0  0
 26 25  1  0  0  0  0
 29  2  1  0  0  0  0
 29 31  1  0  0  0  0
 30 29  1  0  0  0  0
 32 29  1  0  0  0  0
M  CHG  1   3  -1
M  END
