3,5,6
q = -1.0

 29 30  0  0  1  0  0  0  0  0999 V2000
   -6.9329    0.1596    0.1086 O   0  0  0  0  0  0  0  0  0  0  0  0
   -6.0147    2.1401   -0.0456 O   0  0  0  0  0  0  0  0  0  0  0  0
   -0.9088   -1.5419    0.1491 O   0  5  0  0  0  0  0  0  0  0  0  0
   -5.9543    0.9091    0.0386 N   0  0  0  0  0  0  0  0  0  0  0  0
    0.1611    1.1327   -0.1149 N   0  0  0  0  0  2  0  0  0  0  0  0
    2.3713    0.2484    1.0496 N   0  0  0  0  0  2  0  0  0  0  0  0
   -2.1976    0.5311   -0.0032 C   0  0  0  0  0  0  0  0  0  0  0  0
   -2.0399   -0.9183    0.1075 C   0  0  0  0  0  0  0  0  0  0  0  0
   -3.2494   -1.6926    0.1927 C   0  0  0  0  0  0  0  0  0  0  0  0
   -3.1261   -2.7821    0.2771 H   0  0  0  0  0  0  0  0  0  0  0  0
   -4.5063   -1.1163    0.1638 C   0  0  0  0  0  0  0  0  0  0  0  0
   -5.4250   -1.7159    0.2224 H   0  0  0  0  0  0  0  0  0  0  0  0
   -4.6254    0.2898    0.0586 C   0  0  0  0  0  0  0  0  0  0  0  0
   -3.4947    1.0942   -0.0169 C   0  0  0  0  0  0  0  0  0  0  0  0
   -3.6338    2.1830   -0.0890 H   0  0  0  0  0  0  0  0  0  0  0  0
   -1.0924    1.4611   -0.0471 C   0  0  0  0  0  3  0  0  0  0  0  0
   -1.3688    2.5398   -0.0020 H   0  0  0  0  0  0  0  0  0  0  0  0
    1.2247    2.1042   -0.0584 C   0  0  0  0  0  0  0  0  0  0  0  0
    0.8892    3.1008    0.3089 H   0  0  0  0  0  0  0  0  0  0  0  0
    1.6495    2.2496   -1.0828 H   0  0  0  0  0  0  0  0  0  0  0  0
    2.3622    1.5755    0.8046 C   0  0  2  0  0  3  0  0  0  0  0  0
    3.3838    2.4104    1.2854 C   0  0  0  0  0  0  0  0  0  0  0  0
    3.3564    3.4888    1.0702 H   0  0  0  0  0  0  0  0  0  0  0  0
    4.4258    1.8472    2.0310 C   0  0  0  0  0  0  0  0  0  0  0  0
    5.2361    2.4827    2.4187 H   0  0  0  0  0  0  0  0  0  0  0  0
    4.4271    0.4639    2.2718 C   0  0  0  0  0  0  0  0  0  0  0  0
    5.2308   -0.0168    2.8472 H   0  0  0  0  0  0  0  0  0  0  0  0
    3.3778   -0.3021    1.7556 C   0  0  0  0  0  0  0  0  0  0  0  0
    3.3216   -1.3949    1.8840 H   0  0  0  0  0  0  0  0  0  0  0  0
  2  4  2  0  0  0  0
  4 13  1  0  0  0  0
  4  1  2  0  0  0  0
  5 18  1  0  0  0  0
  5 16  1  0  0  0  0
  6 28  1  0  0  0  0
  7  8  1  0  0  0  0
  8  3  1  0  0  0  0
  8  9  2  0  0  0  0
  9 10  1  0  0  0  0
 11  9  1  0  0  0  0
 11 12  1  0  0  0  0
 13 11  2  0  0  0  0
 14  7  2  0  0  0  0
 14 13  1  0  0  0  0
 15 14  1  0  0  0  0
 16  7  1  0  0  0  0
 16 17  1  0  0  0  0
 18 19  1  0  0  0  0
 20 18  1  0  0  0  0
 21 18  1  6  0  0  0
 21  6  1  0  0  0  0
 21 22  1  0  0  0  0
 22 24  2  0  0  0  0
 23 22  1  0  0  0  0
 24 26  1  0  0  0  0
 24 25  1  0  0  0  0
 26 27  1  0  0  0  0
 28 29  1  0  0  0  0
 28 26  2  0  0  0  0
M  CHG  1   3  -1
M  END
