1,3,4
q = -1.0

 27 27  0  0  0  0  0  0  0  0999 V2000
   -1.2643    0.6909    0.6833 O   0  5  0  0  0  0  0  0  0  0  0  0
    1.9332   -2.5841   -0.7410 O   0  0  0  0  0  1  0  0  0  0  0  0
   -1.2365   -0.7188   -1.3949 N   0  0  0  0  0  2  0  0  0  0  0  0
    0.8646   -2.0305   -1.0317 N   0  0  0  0  0  2  0  0  0  0  0  0
   -4.4423    1.8376   -0.8049 C   0  0  0  0  0  0  0  0  0  0  0  0
   -4.4580    1.2655   -1.7416 H   0  0  0  0  0  0  0  0  0  0  0  0
   -1.9376   -1.7705   -3.5373 C   0  0  0  0  0  0  0  0  0  0  0  0
   -2.7636   -1.0414   -3.4656 H   0  0  0  0  0  0  0  0  0  0  0  0
   -2.3651   -2.7945   -3.5451 H   0  0  0  0  0  0  0  0  0  0  0  0
   -1.4068   -1.6288   -4.5005 H   0  0  0  0  0  0  0  0  0  0  0  0
   -4.4115    3.2809    1.5772 C   0  0  0  0  0  3  0  0  0  0  0  0
   -4.4808    3.8845    2.4926 H   0  0  0  0  0  0  0  0  0  0  0  0
   -1.0092   -1.5992   -2.3801 C   0  0  0  0  0  0  0  0  0  0  0  0
   -3.3564    2.4363    1.2994 C   0  0  0  0  0  0  0  0  0  0  0  0
   -2.5173    2.3256    1.9992 H   0  0  0  0  0  0  0  0  0  0  0  0
    0.1913   -2.3416   -2.1871 C   0  0  0  0  0  0  0  0  0  0  0  0
   -2.3004    0.0788   -1.3236 N   0  0  0  0  0  0  0  0  0  0  0  0
   -5.4452    3.3977    0.6909 N   0  0  0  0  0  0  0  0  0  0  0  0
   -6.2219    4.0257    0.9135 H   0  0  0  0  0  0  0  0  0  0  0  0
    0.7593   -3.3870   -3.0864 C   0  0  0  0  0  0  0  0  0  0  0  0
    1.7788   -3.1027   -3.4216 H   0  0  0  0  0  0  0  0  0  0  0  0
    0.1222   -3.5514   -3.9733 H   0  0  0  0  0  0  0  0  0  0  0  0
    0.8726   -4.3480   -2.5425 H   0  0  0  0  0  0  0  0  0  0  0  0
   -2.2297    0.7804   -0.1769 C   0  0  0  0  0  0  0  0  0  0  0  0
   -3.3463    1.6834    0.0886 C   0  0  0  0  0  0  0  0  0  0  0  0
   -5.4764    2.6946   -0.4873 C   0  0  0  0  0  0  0  0  0  0  0  0
   -6.3513    2.8556   -1.1310 H   0  0  0  0  0  0  0  0  0  0  0  0
  3 17  1  0  0  0  0
  4  2  1  0  0  0  0
  5 26  2  0  0  0  0
  5 25  1  0  0  0  0
  6  5  1  0  0  0  0
  7  8  1  0  0  0  0
  7 13  1  0  0  0  0
  9  7  1  0  0  0  0
 10  7  1  0  0  0  0
 11 12  1  0  0  0  0
 13 16  2  0  0  0  0
 13  3  1  0  0  0  0
 14 11  1  0  0  0  0
 14 15  1  0  0  0  0
 16  4  1  0  0  0  0
 17 24  2  0  0  0  0
 18 19  1  0  0  0  0
 18 11  1  0  0  0  0
 20 23  1  0  0  0  0
 20 16  1  0  0  0  0
 21 20  1  0  0  0  0
 22 20  1  0  0  0  0
 24 25  1  0  0  0  0
 24  1  1  0  0  0  0
 25 14  2  0  0  0  0
 26 18  1  0  0  0  0
 27 26  1  0  0  0  0
M  CHG  1   1  -1
M  END
