3,4,5
q = -1.0, confidence = 0.198

 29 29  0  0  0  0  0  0  0  0999 V2000
   -1.1750    2.8917   -0.0025 Br  0  0  0  0  0  0  0  0  0  0  0  0
   -5.3010   -1.0550   -0.0558 Br  0  0  0  0  0  0  0  0  0  0  0  0
    0.5630    0.4615    0.0912 O   0  5  0  0  0  0  0  0  0  0  0  0
    1.1606   -2.1846    0.1122 N   0  0  0  0  0  2  0  0  0  0  0  0
    3.7434   -1.6549   -0.1438 N   0  0  0  0  0  0  0  0  0  0  0  0
   -1.1081   -1.2990    0.0626 C   0  0  0  0  0  0  0  0  0  0  0  0
   -0.6720    0.0775    0.0533 C   0  0  0  0  0  0  0  0  0  0  0  0
   -1.7090    1.0775    0.0097 C   0  0  0  0  0  0  0  0  0  0  0  0
   -3.0574    0.7401   -0.0229 C   0  0  0  0  0  0  0  0  0  0  0  0
   -3.8168    1.5330   -0.0565 H   0  0  0  0  0  0  0  0  0  0  0  0
   -3.4465   -0.6230   -0.0120 C   0  0  0  0  0  0  0  0  0  0  0  0
   -2.4939   -1.6288    0.0310 C   0  0  0  0  0  3  0  0  0  0  0  0
   -2.7981   -2.6856    0.0415 H   0  0  0  0  0  0  0  0  0  0  0  0
   -0.1449   -2.3509    0.1222 C   0  0  0  0  0  0  0  0  0  0  0  0
   -0.5321   -3.3873    0.1872 H   0  0  0  0  0  0  0  0  0  0  0  0
    2.0330   -3.3466    0.2765 C   0  0  0  0  0  0  0  0  0  0  0  0
    2.2423   -3.5072    1.3580 H   0  0  0  0  0  0  0  0  0  0  0  0
    1.5599   -4.2782   -0.1029 H   0  0  0  0  0  0  0  0  0  0  0  0
    3.3096   -3.0371   -0.4825 C   0  0  0  0  0  0  0  0  0  0  0  0
    3.1026   -3.0574   -1.5705 H   0  0  0  0  0  0  0  0  0  0  0  0
    4.1210   -3.7688   -0.2706 H   0  0  0  0  0  0  0  0  0  0  0  0
    4.4068   -1.5834    1.1771 C   0  0  0  0  0  0  0  0  0  0  0  0
    5.3611   -2.1571    1.1671 H   0  0  0  0  0  0  0  0  0  0  0  0
    3.7453   -1.9937    1.9622 H   0  0  0  0  0  0  0  0  0  0  0  0
    4.6043   -0.5197    1.4035 H   0  0  0  0  0  0  0  0  0  0  0  0
    4.6465   -1.1270   -1.1894 C   0  0  0  0  0  0  0  0  0  0  0  0
    4.9008   -0.0826   -0.9376 H   0  0  0  0  0  0  0  0  0  0  0  0
    4.1258   -1.1359   -2.1649 H   0  0  0  0  0  0  0  0  0  0  0  0
    5.5656   -1.7512   -1.2532 H   0  0  0  0  0  0  0  0  0  0  0  0
  1  8  1  0  0  0  0
  2 11  1  0  0  0  0
  4 14  1  0  0  0  0
  4 16  1  0  0  0  0
  5 22  1  0  0  0  0
  6 14  2  0  0  0  0
  7  6  1  0  0  0  0
  7  3  1  0  0  0  0
  8  7  2  0  0  0  0
  9 11  2  0  0  0  0
  9  8  1  0  0  0  0
 10  9  1  0  0  0  0
 11 12  1  0  0  0  0
 12 13  1  0  0  0  0
 12  6  1  0  0  0  0
 14 15  1  0  0  0  0
 16 17  1  0  0  0  0
 18 16  1  0  0  0  0
 19 21  1  0  0  0  0
 19  5  1  0  0  0  0
 19 16  1  0  0  0  0
 20 19  1  0  0  0  0
 22 25  1  0  0  0  0
 22 24  1  0  0  0  0
 23 22  1  0  0  0  0
 26 27  1  0  0  0  0
 26  5  1  0  0  0  0
 28 26  1  0  0  0  0
 29 26  1  0  0  0  0
M  CHG  1   3  -1
M  END
