1,2,4
q = -1.0

 49 51  0  0  1  0  0  0  0  0999 V2000
    0.3765   -1.9223    0.8840 O   0  5  0  0  0  0  0  0  0  0  0  0
   -1.7769    0.2261    1.2252 N   0  0  0  0  0  0  0  0  0  0  0  0
   -0.4980   -2.3405   -0.0101 C   0  0  0  0  0  0  0  0  0  0  0  0
    0.4956    1.1743   -0.1527 N   0  0  0  0  0  2  0  0  0  0  0  0
   -0.0915   -3.1742   -1.0920 C   0  0  0  0  0  0  0  0  0  0  0  0
    0.9727   -3.4502   -1.1484 H   0  0  0  0  0  0  0  0  0  0  0  0
   -1.0057   -3.6304   -2.0461 C   0  0  0  0  0  0  0  0  0  0  0  0
   -0.6522   -4.2711   -2.8701 H   0  0  0  0  0  0  0  0  0  0  0  0
   -2.3670   -3.2810   -1.9666 C   0  0  0  0  0  0  0  0  0  0  0  0
   -3.0861   -3.6432   -2.7158 H   0  0  0  0  0  0  0  0  0  0  0  0
   -2.7910   -2.4678   -0.9059 C   0  0  0  0  0  0  0  0  0  0  0  0
   -3.8556   -2.1895   -0.8187 H   0  0  0  0  0  0  0  0  0  0  0  0
   -1.8906   -1.9963    0.0673 C   0  0  0  0  0  0  0  0  0  0  0  0
   -2.3644   -1.1495    1.2137 C   0  0  0  0  0  0  0  0  0  0  0  0
   -3.4786   -1.0882    1.2098 H   0  0  0  0  0  0  0  0  0  0  0  0
   -2.0662   -1.6100    2.1814 H   0  0  0  0  0  0  0  0  0  0  0  0
   -2.2540    0.9769    2.3923 C   0  0  0  0  0  0  0  0  0  0  0  0
   -3.3644    1.0604    2.4271 H   0  0  0  0  0  0  0  0  0  0  0  0
   -1.8166    1.9941    2.4044 H   0  0  0  0  0  0  0  0  0  0  0  0
   -1.9149    0.4635    3.3130 H   0  0  0  0  0  0  0  0  0  0  0  0
   -1.9288    0.9290   -0.0748 C   0  0  1  0  0  0  0  0  0  0  0  0
   -1.8069    0.1352   -0.8433 H   0  0  0  0  0  0  0  0  0  0  0  0
   -3.3032    1.5828   -0.2816 C   0  0  0  0  0  0  0  0  0  0  0  0
   -4.0936    0.8143   -0.1536 H   0  0  0  0  0  0  0  0  0  0  0  0
   -3.4776    2.3540    0.4998 H   0  0  0  0  0  0  0  0  0  0  0  0
   -3.4097    2.2468   -1.6561 C   0  0  0  0  0  0  0  0  0  0  0  0
   -3.3140    1.4752   -2.4517 H   0  0  0  0  0  0  0  0  0  0  0  0
   -4.4097    2.7102   -1.7830 H   0  0  0  0  0  0  0  0  0  0  0  0
   -2.3041    3.2919   -1.8200 C   0  0  0  0  0  0  0  0  0  0  0  0
   -2.4465    4.0980   -1.0659 H   0  0  0  0  0  0  0  0  0  0  0  0
   -2.3642    3.7814   -2.8138 H   0  0  0  0  0  0  0  0  0  0  0  0
   -0.9184    2.6628   -1.6425 C   0  0  0  0  0  0  0  0  0  0  0  0
   -0.1409    3.4484   -1.7390 H   0  0  0  0  0  0  0  0  0  0  0  0
   -0.7369    1.9319   -2.4619 H   0  0  0  0  0  0  0  0  0  0  0  0
   -0.7614    1.9226   -0.3039 C   0  0  2  0  0  0  0  0  0  0  0  0
   -0.7856    2.6744    0.5220 H   0  0  0  0  0  0  0  0  0  0  0  0
    1.5511    1.4847   -0.8286 C   0  0  0  0  0  3  0  0  0  0  0  0
    1.5413    2.3562   -1.5175 H   0  0  0  0  0  0  0  0  0  0  0  0
    2.8385    0.7893   -0.7507 C   0  0  0  0  0  0  0  0  0  0  0  0
    3.9782    1.4583   -1.2572 C   0  0  0  0  0  0  0  0  0  0  0  0
    3.8633    2.4605   -1.7006 H   0  0  0  0  0  0  0  0  0  0  0  0
    5.2444    0.8666   -1.1836 C   0  0  0  0  0  0  0  0  0  0  0  0
    6.1252    1.4007   -1.5703 H   0  0  0  0  0  0  0  0  0  0  0  0
    5.3836   -0.4120   -0.6186 C   0  0  0  0  0  0  0  0  0  0  0  0
    6.3769   -0.8834   -0.5639 H   0  0  0  0  0  0  0  0  0  0  0  0
    4.2526   -1.0948   -0.1382 C   0  0  0  0  0  0  0  0  0  0  0  0
    4.3560   -2.1055    0.2846 H   0  0  0  0  0  0  0  0  0  0  0  0
    2.9836   -0.5075   -0.2011 C   0  0  0  0  0  0  0  0  0  0  0  0
    2.1031   -1.0823    0.1404 H   0  0  0  0  0  0  0  0  0  0  0  0
  2 17  1  0  0  0  0
  3 13  1  0  0  0  0
  3  1  1  0  0  0  0
  5  3  2  0  0  0  0
  6  5  1  0  0  0  0
  7  9  2  0  0  0  0
  7  5  1  0  0  0  0
  8  7  1  0  0  0  0
  9 11  1  0  0  0  0
 10  9  1  0  0  0  0
 11 12  1  0  0  0  0
 11 13  2  0  0  0  0
 13 14  1  0  0  0  0
 14  2  1  0  0  0  0
 14 16  1  0  0  0  0
 15 14  1  0  0  0  0
 17 19  1  0  0  0  0
 17 18  1  0  0  0  0
 17 20  1  0  0  0  0
 21 22  1  6  0  0  0
 21  2  1  0  0  0  0
 23 24  1  0  0  0  0
 23 21  1  0  0  0  0
 23 25  1  0  0  0  0
 26 23  1  0  0  0  0
 27 26  1  0  0  0  0
 28 26  1  0  0  0  0
 29 26  1  0  0  0  0
 29 32  1  0  0  0  0
 29 30  1  0  0  0  0
 31 29  1  0  0  0  0
 32 35  1  0  0  0  0
 33 32  1  0  0  0  0
 34 32  1  0  0  0  0
 35  4  1  0  0  0  0
 35 21  1  0  0  0  0
 35 36  1  1  0  0  0
 37 39  1  0  0  0  0
 37  4  1  0  0  0  0
 38 37  1  0  0  0  0
 39 48  1  0  0  0  0
 40 42  1  0  0  0  0
 40 39  2  0  0  0  0
 41 40  1  0  0  0  0
 42 44  2  0  0  0  0
 43 42  1  0  0  0  0
 44 45  1  0  0  0  0
 44 46  1  0  0  0  0
 46 47  1  0  0  0  0
 48 46  2  0  0  0  0
 48 49  1  0  0  0  0
M  CHG  1   1  -1
M  END
