2,3,4
q = -1.0, confidence = 0.022

 29 29  0  0  0  0  0  0  0  0999 V2000
   -5.6821    0.7093    0.1226 Cl  0  0  0  0  0  0  0  0  0  0  0  0
    0.7193    1.1460   -0.1377 N   0  0  0  0  0  2  0  0  0  0  0  0
    3.3495    0.4924   -0.0514 N   0  0  0  0  0  0  0  0  0  0  0  0
   -0.2045   -1.4300   -0.3014 O   0  5  0  0  0  0  0  0  0  0  0  0
   -1.6399    0.4862   -0.0701 C   0  0  0  0  0  0  0  0  0  0  0  0
   -1.4000   -0.9290   -0.1967 C   0  0  0  0  0  0  0  0  0  0  0  0
   -2.5360   -1.7921   -0.2317 C   0  0  0  0  0  0  0  0  0  0  0  0
   -2.3502   -2.8706   -0.3334 H   0  0  0  0  0  0  0  0  0  0  0  0
   -3.8277   -1.2900   -0.1319 C   0  0  0  0  0  0  0  0  0  0  0  0
   -4.6932   -1.9682   -0.1522 H   0  0  0  0  0  0  0  0  0  0  0  0
   -4.0480    0.1042   -0.0011 C   0  0  0  0  0  0  0  0  0  0  0  0
   -2.9705    0.9799    0.0254 C   0  0  0  0  0  0  0  0  0  0  0  0
   -3.1445    2.0622    0.1206 H   0  0  0  0  0  0  0  0  0  0  0  0
   -0.5564    1.4252   -0.0706 C   0  0  0  0  0  3  0  0  0  0  0  0
   -0.8532    2.4957   -0.0099 H   0  0  0  0  0  0  0  0  0  0  0  0
    1.6606    2.2615   -0.1357 C   0  0  0  0  0  0  0  0  0  0  0  0
    1.2538    3.1477    0.3988 H   0  0  0  0  0  0  0  0  0  0  0  0
    1.8564    2.5845   -1.1828 H   0  0  0  0  0  0  0  0  0  0  0  0
    2.9501    1.7918    0.5233 C   0  0  0  0  0  0  0  0  0  0  0  0
    3.7596    2.5502    0.4104 H   0  0  0  0  0  0  0  0  0  0  0  0
    2.7740    1.6251    1.6048 H   0  0  0  0  0  0  0  0  0  0  0  0
    3.7526    0.5984   -1.4679 C   0  0  0  0  0  0  0  0  0  0  0  0
    2.9217    0.9888   -2.0849 H   0  0  0  0  0  0  0  0  0  0  0  0
    3.9899   -0.4168   -1.8329 H   0  0  0  0  0  0  0  0  0  0  0  0
    4.6348    1.2690   -1.5805 H   0  0  0  0  0  0  0  0  0  0  0  0
    4.4422   -0.1222    0.7313 C   0  0  0  0  0  0  0  0  0  0  0  0
    5.3588    0.5090    0.6870 H   0  0  0  0  0  0  0  0  0  0  0  0
    4.6479   -1.1231    0.3104 H   0  0  0  0  0  0  0  0  0  0  0  0
    4.1079   -0.2520    1.7760 H   0  0  0  0  0  0  0  0  0  0  0  0
  2 16  1  0  0  0  0
  2 14  1  0  0  0  0
  3 19  1  0  0  0  0
  3 26  1  0  0  0  0
  4  6  1  0  0  0  0
  5 12  1  0  0  0  0
  6  5  2  0  0  0  0
  7  6  1  0  0  0  0
  7  9  2  0  0  0  0
  8  7  1  0  0  0  0
  9 11  1  0  0  0  0
 10  9  1  0  0  0  0
 11 12  2  0  0  0  0
 11  1  1  0  0  0  0
 12 13  1  0  0  0  0
 14  5  1  0  0  0  0
 14 15  1  0  0  0  0
 16 17  1  0  0  0  0
 16 19  1  0  0  0  0
 18 16  1  0  0  0  0
 19 21  1  0  0  0  0
 20 19  1  0  0  0  0
 22  3  1  0  0  0  0
 23 22  1  0  0  0  0
 24 22  1  0  0  0  0
 25 22  1  0  0  0  0
 26 29  1  0  0  0  0
 27 26  1  0  0  0  0
 28 26  1  0  0  0  0
M  CHG  1   4  -1
M  END
