1,2,3
q = -1.0

 36 38  0  0  1  0  0  0  0  0999 V2000
    1.5940   -1.8045    0.0237 O   0  5  0  0  0  0  0  0  0  0  0  0
   -2.3295   -1.4683   -0.0140 N   0  0  0  0  0  2  0  0  0  0  0  0
   -0.1853   -0.0793   -0.0543 N   0  0  0  0  0  2  0  0  0  0  0  0
    1.0458    0.4446   -0.0411 N   0  0  0  0  0  0  0  0  0  0  0  0
    5.1060    1.4798    0.0171 N   0  0  0  0  0  0  0  0  0  0  0  0
   -3.3795   -2.3033   -0.0568 C   0  0  0  0  0  3  0  0  0  0  0  0
   -3.1379   -3.3754   -0.0030 H   0  0  0  0  0  0  0  0  0  0  0  0
   -4.6948   -1.8345   -0.1737 C   0  0  0  0  0  0  0  0  0  0  0  0
   -5.5298   -2.5479   -0.2011 H   0  0  0  0  0  0  0  0  0  0  0  0
   -4.9038   -0.4505   -0.2699 C   0  0  0  0  0  0  0  0  0  0  0  0
   -5.9205   -0.0457   -0.3842 H   0  0  0  0  0  0  0  0  0  0  0  0
   -3.8065    0.4175   -0.2303 C   0  0  0  0  0  0  0  0  0  0  0  0
   -3.9369    1.5032   -0.3265 H   0  0  0  0  0  0  0  0  0  0  0  0
   -2.5100   -0.1181   -0.0840 C   0  0  0  0  0  0  0  0  0  0  0  0
   -1.2721    0.6756   -0.0478 C   0  0  2  0  0  3  0  0  0  0  0  0
   -1.2627    2.1534   -0.0134 C   0  0  0  0  0  0  0  0  0  0  0  0
   -2.0713    2.8520    0.9132 C   0  0  0  0  0  0  0  0  0  0  0  0
   -2.6947    2.2901    1.6249 H   0  0  0  0  0  0  0  0  0  0  0  0
   -2.0521    4.2526    0.9604 C   0  0  0  0  0  0  0  0  0  0  0  0
   -2.6761    4.7821    1.6960 H   0  0  0  0  0  0  0  0  0  0  0  0
   -1.2321    4.9751    0.0798 C   0  0  0  0  0  0  0  0  0  0  0  0
   -1.2186    6.0749    0.1152 H   0  0  0  0  0  0  0  0  0  0  0  0
   -0.4223    4.2898   -0.8411 C   0  0  0  0  0  0  0  0  0  0  0  0
    0.2255    4.8520   -1.5303 H   0  0  0  0  0  0  0  0  0  0  0  0
   -0.4278    2.8904   -0.8846 C   0  0  0  0  0  0  0  0  0  0  0  0
    0.2153    2.3546   -1.5949 H   0  0  0  0  0  0  0  0  0  0  0  0
    1.9395   -0.5630   -0.0004 C   0  0  0  0  0  0  0  0  0  0  0  0
    3.3748   -0.2186    0.0134 C   0  0  0  0  0  0  0  0  0  0  0  0
    3.8151    1.1262    0.0107 C   0  0  0  0  0  0  0  0  0  0  0  0
    3.0645    1.9348    0.0070 H   0  0  0  0  0  0  0  0  0  0  0  0
    6.0210    0.4943    0.0293 C   0  0  0  0  0  0  0  0  0  0  0  0
    7.0796    0.8115    0.0329 H   0  0  0  0  0  0  0  0  0  0  0  0
    5.6964   -0.8738    0.0381 C   0  0  0  0  0  0  0  0  0  0  0  0
    6.4912   -1.6343    0.0505 H   0  0  0  0  0  0  0  0  0  0  0  0
    4.3469   -1.2388    0.0299 C   0  0  0  0  0  0  0  0  0  0  0  0
    4.0201   -2.2890    0.0353 H   0  0  0  0  0  0  0  0  0  0  0  0
  3  4  1  0  0  0  0
  4 27  2  0  0  0  0
  5 31  1  0  0  0  0
  6  2  1  0  0  0  0
  6  7  1  0  0  0  0
  8  6  1  0  0  0  0
  9  8  1  0  0  0  0
 10 12  1  0  0  0  0
 10  8  2  0  0  0  0
 11 10  1  0  0  0  0
 12 14  2  0  0  0  0
 13 12  1  0  0  0  0
 14 15  1  0  0  0  0
 14  2  1  0  0  0  0
 15  3  1  6  0  0  0
 15 16  1  0  0  0  0
 16 17  1  0  0  0  0
 17 19  2  0  0  0  0
 17 18  1  0  0  0  0
 19 20  1  0  0  0  0
 21 22  1  0  0  0  0
 21 19  1  0  0  0  0
 23 21  2  0  0  0  0
 24 23  1  0  0  0  0
 25 23  1  0  0  0  0
 25 16  2  0  0  0  0
 26 25  1  0  0  0  0
 27 28  1  0  0  0  0
 27  1  1  0  0  0  0
 28 35  2  0  0  0  0
 29 28  1  0  0  0  0
 29  5  2  0  0  0  0
 30 29  1  0  0  0  0
 31 32  1  0  0  0  0
 31 33  2  0  0  0  0
 33 34  1  0  0  0  0
 35 36  1  0  0  0  0
 35 33  1  0  0  0  0
M  CHG  1   1  -1
M  END
