1,2,5
q = -1.0, confidence = 0.114

 45 48  0  0  1  0  0  0  0  0999 V2000
    0.4627    2.0587   -0.4862 N   0  0  0  0  0  2  0  0  0  0  0  0
   -0.2061   -0.3605   -0.1296 N   0  0  0  0  0  2  0  0  0  0  0  0
    3.0092   -0.3798    1.7002 N   0  0  0  0  0  0  0  0  0  0  0  0
    1.9598   -0.7810   -2.2380 N   0  0  0  0  0  0  0  0  0  0  0  0
   -2.8306    0.3963    0.0107 O   0  5  0  0  0  0  0  0  0  0  0  0
    1.6858   -0.3052    1.4792 C   0  0  0  0  0  0  0  0  0  0  0  0
    0.7410   -0.2517    2.5212 C   0  0  0  0  0  0  0  0  0  0  0  0
   -0.3304   -0.1650    2.2964 H   0  0  0  0  0  0  0  0  0  0  0  0
    1.2065   -0.2965    3.8431 C   0  0  0  0  0  0  0  0  0  0  0  0
    0.4936   -0.2535    4.6804 H   0  0  0  0  0  0  0  0  0  0  0  0
    2.5849   -0.3925    4.0779 C   0  0  0  0  0  0  0  0  0  0  0  0
    2.9915   -0.4324    5.0991 H   0  0  0  0  0  0  0  0  0  0  0  0
    3.4440   -0.4282    2.9676 C   0  0  0  0  0  0  0  0  0  0  0  0
    4.5375   -0.4950    3.1075 H   0  0  0  0  0  0  0  0  0  0  0  0
    2.5697   -2.3567   -0.5153 C   0  0  0  0  0  0  0  0  0  0  0  0
    2.5990   -2.6174    0.5506 H   0  0  0  0  0  0  0  0  0  0  0  0
    3.1220   -3.2138   -1.4785 C   0  0  0  0  0  0  0  0  0  0  0  0
    3.5787   -4.1678   -1.1740 H   0  0  0  0  0  0  0  0  0  0  0  0
    3.0863   -2.8345   -2.8267 C   0  0  0  0  0  0  0  0  0  0  0  0
    3.5105   -3.4751   -3.6139 H   0  0  0  0  0  0  0  0  0  0  0  0
    2.4933   -1.6025   -3.1509 C   0  0  0  0  0  0  0  0  0  0  0  0
    2.4466   -1.2630   -4.2010 H   0  0  0  0  0  0  0  0  0  0  0  0
    1.9942   -1.1468   -0.9452 C   0  0  0  0  0  0  0  0  0  0  0  0
    1.2615   -0.1795   -0.0013 C   0  0  0  0  0  0  0  0  0  0  0  0
    1.5543    1.2600   -0.3981 C   0  0  2  0  0  3  0  0  0  0  0  0
    2.8500    1.7548   -0.5857 C   0  0  0  0  0  0  0  0  0  0  0  0
    3.6998    1.0695   -0.4696 H   0  0  0  0  0  0  0  0  0  0  0  0
    3.0180    3.1086   -0.8968 C   0  0  0  0  0  0  0  0  0  0  0  0
    4.0248    3.5219   -1.0568 H   0  0  0  0  0  0  0  0  0  0  0  0
    1.8803    3.9266   -1.0001 C   0  0  0  0  0  0  0  0  0  0  0  0
    1.9641    4.9954   -1.2432 H   0  0  0  0  0  0  0  0  0  0  0  0
    0.6186    3.3716   -0.7852 C   0  0  0  0  0  0  0  0  0  0  0  0
   -0.3265    3.9372   -0.8288 H   0  0  0  0  0  0  0  0  0  0  0  0
   -0.6964   -1.5823   -0.0635 C   0  0  0  0  0  0  0  0  0  0  0  0
    0.0152   -2.4289   -0.0293 H   0  0  0  0  0  0  0  0  0  0  0  0
   -2.0824   -1.9122   -0.0145 C   0  0  0  0  0  0  0  0  0  0  0  0
   -2.4763   -3.2827    0.0171 C   0  0  0  0  0  3  0  0  0  0  0  0
   -1.6885   -4.0528   -0.0178 H   0  0  0  0  0  0  0  0  0  0  0  0
   -3.8123   -3.6478    0.0898 C   0  0  0  0  0  0  0  0  0  0  0  0
   -4.1022   -4.7081    0.1118 H   0  0  0  0  0  0  0  0  0  0  0  0
   -4.8037   -2.6321    0.1356 C   0  0  0  0  0  0  0  0  0  0  0  0
   -5.8670   -2.9135    0.1926 H   0  0  0  0  0  0  0  0  0  0  0  0
   -4.4589   -1.2873    0.1086 C   0  0  0  0  0  0  0  0  0  0  0  0
   -5.2128   -0.4874    0.1412 H   0  0  0  0  0  0  0  0  0  0  0  0
   -3.0908   -0.8788    0.0295 C   0  0  0  0  0  0  0  0  0  0  0  0
  1 25  1  0  0  0  0
  2 34  1  0  0  0  0
  2 24  1  0  0  0  0
  3 13  1  0  0  0  0
  4 23  1  0  0  0  0
  5 45  1  0  0  0  0
  6  3  2  0  0  0  0
  6  7  1  0  0  0  0
  7  9  2  0  0  0  0
  8  7  1  0  0  0  0
  9 11  1  0  0  0  0
  9 10  1  0  0  0  0
 11 12  1  0  0  0  0
 13 14  1  0  0  0  0
 13 11  2  0  0  0  0
 15 16  1  0  0  0  0
 17 18  1  0  0  0  0
 17 15  1  0  0  0  0
 19 17  2  0  0  0  0
 20 19  1  0  0  0  0
 21 19  1  0  0  0  0
 21  4  2  0  0  0  0
 22 21  1  0  0  0  0
 23 15  2  0  0  0  0
 23 24  1  0  0  0  0
 24  6  1  0  0  0  0
 25 24  1  1  0  0  0
 26 27  1  0  0  0  0
 26 25  1  0  0  0  0
 28 26  2  0  0  0  0
 29 28  1  0  0  0  0
 30 28  1  0  0  0  0
 30 32  2  0  0  0  0
 31 30  1  0  0  0  0
 32  1  1  0  0  0  0
 33 32  1  0  0  0  0
 34 35  1  0  0  0  0
 34 36  2  0  0  0  0
 36 37  1  0  0  0  0
 36 45  1  0  0  0  0
 37 39  1  0  0  0  0
 38 37  1  0  0  0  0
 39 40  1  0  0  0  0
 39 41  2  0  0  0  0
 41 42  1  0  0  0  0
 43 41  1  0  0  0  0
 43 44  1  0  0  0  0
 45 43  2  0  0  0  0
M  CHG  1   5  -1
M  END
