1,2,4
q = -1.0

 55 58  0  0  1  0  0  0  0  0999 V2000
    0.0438   -0.3882   -1.2231 O   0  0  0  0  0  1  0  0  0  0  0  0
   -2.3227    0.6242   -0.5433 N   0  0  0  0  0  2  0  0  0  0  0  0
   -1.6181    1.7878   -0.4907 N   0  0  0  0  0  0  0  0  0  0  0  0
   -0.3613   -0.0314    1.4372 N   0  0  0  0  0  2  0  0  0  0  0  0
    0.0213    1.2404    1.1424 N   0  0  0  0  0  0  0  0  0  0  0  0
   -2.4149    2.8823   -0.7072 C   0  0  2  0  0  3  0  0  0  0  0  0
   -3.6952    2.3771   -0.9215 C   0  0  0  0  0  0  0  0  0  0  0  0
   -4.5983    2.9576   -1.1364 H   0  0  0  0  0  0  0  0  0  0  0  0
   -3.6010    0.9649   -0.8079 C   0  0  0  0  0  0  0  0  0  0  0  0
   -4.6961   -0.0356   -0.9549 C   0  0  0  0  0  0  0  0  0  0  0  0
   -4.4424   -0.7746   -1.7407 H   0  0  0  0  0  0  0  0  0  0  0  0
   -5.6457    0.4692   -1.2102 H   0  0  0  0  0  0  0  0  0  0  0  0
   -4.8166   -0.6139   -0.0171 H   0  0  0  0  0  0  0  0  0  0  0  0
   -1.9020    4.2845   -0.6942 C   0  0  0  0  0  0  0  0  0  0  0  0
   -1.4698    4.5638    0.2900 H   0  0  0  0  0  0  0  0  0  0  0  0
   -2.7322    4.9839   -0.9009 H   0  0  0  0  0  0  0  0  0  0  0  0
   -1.1223    4.4555   -1.4660 H   0  0  0  0  0  0  0  0  0  0  0  0
    0.6204    1.8621    2.2057 C   0  0  1  0  0  3  0  0  0  0  0  0
    0.6133    0.9254    3.2371 C   0  0  0  0  0  0  0  0  0  0  0  0
    1.0095    1.0652    4.2479 H   0  0  0  0  0  0  0  0  0  0  0  0
   -0.0113   -0.2421    2.7248 C   0  0  0  0  0  0  0  0  0  0  0  0
    1.1442    3.2584    2.1459 C   0  0  0  0  0  0  0  0  0  0  0  0
    1.9176    3.3753    1.3582 H   0  0  0  0  0  0  0  0  0  0  0  0
    1.6096    3.5214    3.1130 H   0  0  0  0  0  0  0  0  0  0  0  0
    0.3413    4.0003    1.9499 H   0  0  0  0  0  0  0  0  0  0  0  0
   -0.2581   -1.5272    3.4383 C   0  0  0  0  0  0  0  0  0  0  0  0
   -1.3421   -1.7552    3.4564 H   0  0  0  0  0  0  0  0  0  0  0  0
    0.1327   -1.4730    4.4708 H   0  0  0  0  0  0  0  0  0  0  0  0
    0.2242   -2.3678    2.9005 H   0  0  0  0  0  0  0  0  0  0  0  0
   -0.1970    1.7522   -0.1954 C   0  0  1  0  0  0  0  0  0  0  0  0
    0.1788    2.7888   -0.2238 H   0  0  0  0  0  0  0  0  0  0  0  0
    0.5545    0.9006   -1.2567 C   0  0  1  0  0  0  0  0  0  0  0  0
    0.3237    1.3795   -2.2398 H   0  0  0  0  0  0  0  0  0  0  0  0
    2.0551    0.8832   -1.0608 C   0  0  0  0  0  0  0  0  0  0  0  0
    2.6691    0.0229    0.0270 C   0  0  2  0  0  0  0  0  0  0  0  0
    1.9236   -0.4583    0.6825 H   0  0  0  0  0  0  0  0  0  0  0  0
    3.8551    0.8175    0.6452 C   0  0  0  0  0  0  0  0  0  0  0  0
    3.7180    1.9120    0.7669 H   0  0  0  0  0  0  0  0  0  0  0  0
    4.2073    0.3896    1.6006 H   0  0  0  0  0  0  0  0  0  0  0  0
    4.6825    0.3406   -0.5798 C   0  0  2  0  0  0  0  0  0  0  0  0
    5.7726    0.1719   -0.4537 H   0  0  0  0  0  0  0  0  0  0  0  0
    4.3922    1.2878   -1.7588 C   0  0  0  0  0  0  0  0  0  0  0  0
    4.9254    2.2557   -1.6160 H   0  0  0  0  0  0  0  0  0  0  0  0
    4.7943    0.8686   -2.7094 H   0  0  0  0  0  0  0  0  0  0  0  0
    2.9056    1.5098   -1.9072 C   0  0  0  0  0  0  0  0  0  0  0  0
    2.5321    2.1155   -2.7511 H   0  0  0  0  0  0  0  0  0  0  0  0
    3.7503   -0.9309   -0.6219 C   0  0  0  0  0  0  0  0  0  0  0  0
    4.1926   -2.0186    0.3655 C   0  0  0  0  0  0  0  0  0  0  0  0
    3.3763   -2.7578    0.4964 H   0  0  0  0  0  0  0  0  0  0  0  0
    4.4514   -1.6236    1.3668 H   0  0  0  0  0  0  0  0  0  0  0  0
    5.0830   -2.5551   -0.0234 H   0  0  0  0  0  0  0  0  0  0  0  0
    3.4237   -1.5936   -1.9575 C   0  0  0  0  0  0  0  0  0  0  0  0
    4.3058   -2.1464   -2.3428 H   0  0  0  0  0  0  0  0  0  0  0  0
    3.1009   -0.8764   -2.7343 H   0  0  0  0  0  0  0  0  0  0  0  0
    2.5971   -2.3200   -1.8169 H   0  0  0  0  0  0  0  0  0  0  0  0
  2  3  1  0  0  0  0
  3 30  1  0  0  0  0
  4 21  1  0  0  0  0
  5  4  1  0  0  0  0
  5 18  1  0  0  0  0
  6 14  1  6  0  0  0
  6  3  1  0  0  0  0
  7  9  2  0  0  0  0
  7  6  1  0  0  0  0
  8  7  1  0  0  0  0
  9  2  1  0  0  0  0
 10  9  1  0  0  0  0
 10 13  1  0  0  0  0
 11 10  1  0  0  0  0
 12 10  1  0  0  0  0
 14 15  1  0  0  0  0
 16 14  1  0  0  0  0
 17 14  1  0  0  0  0
 18 22  1  6  0  0  0
 18 19  1  0  0  0  0
 19 20  1  0  0  0  0
 21 19  2  0  0  0  0
 21 26  1  0  0  0  0
 22 24  1  0  0  0  0
 23 22  1  0  0  0  0
 25 22  1  0  0  0  0
 26 27  1  0  0  0  0
 26 28  1  0  0  0  0
 29 26  1  0  0  0  0
 30 31  1  6  0  0  0
 30  5  1  0  0  0  0
 32 33  1  6  0  0  0
 32  1  1  0  0  0  0
 32 34  1  0  0  0  0
 32 30  1  0  0  0  0
 34 35  1  0  0  0  0
 35 37  1  0  0  0  0
 35 36  1  1  0  0  0
 37 38  1  0  0  0  0
 37 39  1  0  0  0  0
 40 41  1  1  0  0  0
 40 37  1  0  0  0  0
 42 43  1  0  0  0  0
 42 40  1  0  0  0  0
 44 42  1  0  0  0  0
 45 42  1  0  0  0  0
 45 34  2  0  0  0  0
 46 45  1  0  0  0  0
 47 40  1  0  0  0  0
 47 35  1  0  0  0  0
 47 48  1  0  0  0  0
 48 49  1  0  0  0  0
 48 50  1  0  0  0  0
 51 48  1  0  0  0  0
 52 55  1  0  0  0  0
 52 47  1  0  0  0  0
 53 52  1  0  0  0  0
 54 52  1  0  0  0  0
M  END
