2,3,5
q = -2.0, confidence = 0.894

 34 37  0  0  0  0  0  0  0  0999 V2000
    2.8524   -1.1832    2.6257 S   0  0  0  0  0  0  0  0  0  0  0  0
   -1.3586    0.1983   -1.6009 O   0  5  0  0  0  0  0  0  0  0  0  0
   -0.5619   -0.6184    0.8725 N   0  0  0  0  0  2  0  0  0  0  0  0
    0.2814   -0.7504    1.9329 N   0  0  0  0  0  0  0  0  0  0  0  0
    1.8912   -0.9866    0.1885 N   0  0  0  0  0  2  0  0  0  0  0  0
   -2.6092    0.0449   -1.1578 C   0  0  0  0  0  0  0  0  0  0  0  0
   -3.6558    0.3263   -2.0810 C   0  0  0  0  0  0  0  0  0  0  0  0
   -3.3669    0.6164   -3.1009 H   0  0  0  0  0  0  0  0  0  0  0  0
   -4.9773    0.2365   -1.6918 C   0  0  0  0  0  0  0  0  0  0  0  0
   -5.7807    0.4551   -2.4124 H   0  0  0  0  0  0  0  0  0  0  0  0
   -5.3335   -0.1415   -0.3625 C   0  0  0  0  0  0  0  0  0  0  0  0
   -4.2914   -0.4326    0.5914 C   0  0  0  0  0  0  0  0  0  0  0  0
   -2.9004   -0.3250    0.1827 C   0  0  0  0  0  0  0  0  0  0  0  0
   -1.8483   -0.5353    1.1438 C   0  0  0  0  0  3  0  0  0  0  0  0
   -2.1027   -0.6278    2.2132 H   0  0  0  0  0  0  0  0  0  0  0  0
    1.5109   -0.9506    1.5047 C   0  0  0  0  0  0  0  0  0  0  0  0
    3.2597   -1.2084    0.0258 C   0  0  0  0  0  0  0  0  0  0  0  0
    3.9714   -1.3122   -1.1838 C   0  0  0  0  0  0  0  0  0  0  0  0
    3.4321   -1.2212   -2.1368 H   0  0  0  0  0  0  0  0  0  0  0  0
    5.3571   -1.5253   -1.1392 C   0  0  0  0  0  0  0  0  0  0  0  0
    5.9149   -1.6077   -2.0840 H   0  0  0  0  0  0  0  0  0  0  0  0
    6.0404   -1.6432    0.0854 C   0  0  0  0  0  0  0  0  0  0  0  0
    7.1266   -1.8156    0.0966 H   0  0  0  0  0  0  0  0  0  0  0  0
    5.3421   -1.5495    1.3003 C   0  0  0  0  0  0  0  0  0  0  0  0
    5.8662   -1.6467    2.2622 H   0  0  0  0  0  0  0  0  0  0  0  0
    3.9599   -1.3324    1.2592 C   0  0  0  0  0  0  0  0  0  0  0  0
   -6.6990   -0.2410    0.0284 C   0  0  0  0  0  0  0  0  0  0  0  0
   -7.4744   -0.0127   -0.7196 H   0  0  0  0  0  0  0  0  0  0  0  0
   -7.0507   -0.6199    1.3153 C   0  0  0  0  0  0  0  0  0  0  0  0
   -8.1092   -0.6946    1.6054 H   0  0  0  0  0  0  0  0  0  0  0  0
   -6.0325   -0.9189    2.2538 C   0  0  0  0  0  0  0  0  0  0  0  0
   -6.3031   -1.2309    3.2739 H   0  0  0  0  0  0  0  0  0  0  0  0
   -4.6913   -0.8303    1.8999 C   0  0  0  0  0  0  0  0  0  0  0  0
   -3.9341   -1.0883    2.6526 H   0  0  0  0  0  0  0  0  0  0  0  0
  2  6  1  0  0  0  0
  3 14  1  0  0  0  0
  3  4  1  0  0  0  0
  5 16  1  0  0  0  0
  6 13  1  0  0  0  0
  7  9  1  0  0  0  0
  7  6  2  0  0  0  0
  8  7  1  0  0  0  0
  9 11  2  0  0  0  0
 10  9  1  0  0  0  0
 11 27  1  0  0  0  0
 11 12  1  0  0  0  0
 12 33  1  0  0  0  0
 13 12  2  0  0  0  0
 13 14  1  0  0  0  0
 14 15  1  0  0  0  0
 16  4  2  0  0  0  0
 16  1  1  0  0  0  0
 17  5  1  0  0  0  0
 17 26  1  0  0  0  0
 18 20  1  0  0  0  0
 18 17  2  0  0  0  0
 19 18  1  0  0  0  0
 20 22  2  0  0  0  0
 21 20  1  0  0  0  0
 22 23  1  0  0  0  0
 22 24  1  0  0  0  0
 24 25  1  0  0  0  0
 26 24  2  0  0  0  0
 26  1  1  0  0  0  0
 27 29  2  0  0  0  0
 28 27  1  0  0  0  0
 29 30  1  0  0  0  0
 29 31  1  0  0  0  0
 31 32  1  0  0  0  0
 33 31  2  0  0  0  0
 33 34  1  0  0  0  0
M  CHG  1   2  -1
M  END
