1,2,18
q = -1.0

 35 38  0  0  1  0  0  0  0  0999 V2000
   -0.5943   -1.0494   -1.3956 O   0  5  0  0  0  0  0  0  0  0  0  0
    2.3129    0.2890   -0.7207 N   0  0  0  0  0  2  0  0  0  0  0  0
    3.4392   -0.0529   -1.3568 C   0  0  0  0  0  0  0  0  0  0  0  0
    3.5251   -1.1057   -1.6643 H   0  0  0  0  0  0  0  0  0  0  0  0
    4.4849    0.8684   -1.6002 C   0  0  0  0  0  0  0  0  0  0  0  0
    5.3896    0.5235   -2.1202 H   0  0  0  0  0  0  0  0  0  0  0  0
    4.3566    2.1809   -1.1698 C   0  0  0  0  0  0  0  0  0  0  0  0
    5.1619    2.9131   -1.3341 H   0  0  0  0  0  0  0  0  0  0  0  0
    3.1601    2.5926   -0.5151 C   0  0  0  0  0  0  0  0  0  0  0  0
    2.1492    1.5964   -0.3138 C   0  0  1  0  0  3  0  0  0  0  0  0
    0.8981    1.9546    0.2845 C   0  0  0  0  0  0  0  0  0  0  0  0
    0.6677    3.2754    0.6751 C   0  0  0  0  0  0  0  0  0  0  0  0
   -0.3140    3.5378    1.0916 H   0  0  0  0  0  0  0  0  0  0  0  0
    1.6869    4.2424    0.5195 C   0  0  0  0  0  0  0  0  0  0  0  0
    1.5017    5.2723    0.8596 H   0  0  0  0  0  0  0  0  0  0  0  0
    2.9083    3.9201   -0.0667 C   0  0  0  0  0  0  0  0  0  0  0  0
    3.6881    4.6846   -0.1999 H   0  0  0  0  0  0  0  0  0  0  0  0
   -0.0363    0.9034    0.3188 N   0  0  0  0  0  2  0  0  0  0  0  0
   -1.2823    1.2571    0.2499 N   0  0  0  0  0  2  0  0  0  0  0  0
   -2.1902    0.3785   -0.2357 C   0  0  0  0  0  0  0  0  0  0  0  0
   -1.8052   -0.6526   -1.1986 C   0  0  0  0  0  0  0  0  0  0  0  0
   -2.8465   -1.1879   -2.0425 C   0  0  0  0  0  0  0  0  0  0  0  0
   -2.5276   -1.9092   -2.8088 H   0  0  0  0  0  0  0  0  0  0  0  0
   -4.1702   -0.8743   -1.8486 C   0  0  0  0  0  0  0  0  0  0  0  0
   -4.9427   -1.3514   -2.4728 H   0  0  0  0  0  0  0  0  0  0  0  0
   -4.5920    0.0588   -0.8391 C   0  0  0  0  0  0  0  0  0  0  0  0
   -3.5958    0.7052   -0.0392 C   0  0  0  0  0  0  0  0  0  0  0  0
   -4.0069    1.6490    0.9326 C   0  0  0  0  0  0  0  0  0  0  0  0
   -3.2376    2.1349    1.5495 H   0  0  0  0  0  0  0  0  0  0  0  0
   -5.3583    1.9458    1.1105 C   0  0  0  0  0  0  0  0  0  0  0  0
   -5.6588    2.6836    1.8701 H   0  0  0  0  0  0  0  0  0  0  0  0
   -6.3438    1.2989    0.3315 C   0  0  0  0  0  0  0  0  0  0  0  0
   -7.4085    1.5296    0.4856 H   0  0  0  0  0  0  0  0  0  0  0  0
   -5.9606    0.3670   -0.6308 C   0  0  0  0  0  0  0  0  0  0  0  0
   -6.7175   -0.1424   -1.2476 H   0  0  0  0  0  0  0  0  0  0  0  0
  1 21  1  0  0  0  0
  3  2  1  0  0  0  0
  4  3  1  0  0  0  0
  5  3  2  0  0  0  0
  5  7  1  0  0  0  0
  6  5  1  0  0  0  0
  7  9  2  0  0  0  0
  8  7  1  0  0  0  0
  9 10  1  0  0  0  0
  9 16  1  0  0  0  0
 10  2  1  6  0  0  0
 10 11  1  0  0  0  0
 11 18  1  0  0  0  0
 11 12  2  0  0  0  0
 12 13  1  0  0  0  0
 14 12  1  0  0  0  0
 14 15  1  0  0  0  0
 16 14  2  0  0  0  0
 17 16  1  0  0  0  0
 19 18  1  0  0  0  0
 20 27  1  0  0  0  0
 20 19  1  0  0  0  0
 21 20  2  0  0  0  0
 22 24  2  0  0  0  0
 22 21  1  0  0  0  0
 23 22  1  0  0  0  0
 24 26  1  0  0  0  0
 25 24  1  0  0  0  0
 26 34  2  0  0  0  0
 26 27  1  0  0  0  0
 27 28  2  0  0  0  0
 28 30  1  0  0  0  0
 28 29  1  0  0  0  0
 30 31  1  0  0  0  0
 32 33  1  0  0  0  0
 32 30  2  0  0  0  0
 34 32  1  0  0  0  0
 35 34  1  0  0  0  0
M  CHG  1   1  -1
M  END
