2,5,7
q = -1.0

 27 28  0  0  0  0  0  0  0  0999 V2000
   -2.3139    0.5719    1.9975 S   0  0  0  0  0  0  0  0  0  0  0  0
   -2.2290    0.2648   -1.0210 N   0  0  0  0  0  2  0  0  0  0  0  0
   -2.5222   -0.5280   -1.9913 C   0  0  0  0  0  0  0  0  0  0  0  0
   -3.4897   -0.4588   -2.5341 H   0  0  0  0  0  0  0  0  0  0  0  0
   -0.4817   -1.7945   -1.6792 N   0  0  0  0  0  2  0  0  0  0  0  0
   -2.5473   -0.8543    1.5912 O   0  0  0  0  0  1  0  0  0  0  0  0
   -0.8491    0.9905    1.7474 O   0  0  0  0  0  1  0  0  0  0  0  0
   -2.8000    0.9909    3.3289 O   0  0  0  0  0  1  0  0  0  0  0  0
   -3.2195    1.5650    0.7733 C   0  0  0  0  0  0  0  0  0  0  0  0
   -3.0849    1.2970   -0.6122 C   0  0  0  0  0  0  0  0  0  0  0  0
   -3.7880    2.1009   -1.5366 C   0  0  0  0  0  0  0  0  0  0  0  0
   -3.6388    1.9361   -2.6142 H   0  0  0  0  0  0  0  0  0  0  0  0
   -4.6190    3.1346   -1.0854 C   0  0  0  0  0  0  0  0  0  0  0  0
   -5.1468    3.7650   -1.8167 H   0  0  0  0  0  0  0  0  0  0  0  0
   -4.7664    3.3733    0.2907 C   0  0  0  0  0  0  0  0  0  0  0  0
   -5.4214    4.1838    0.6441 H   0  0  0  0  0  0  0  0  0  0  0  0
   -4.0650    2.5855    1.2177 C   0  0  0  0  0  0  0  0  0  0  0  0
   -4.1531    2.7400    2.3033 H   0  0  0  0  0  0  0  0  0  0  0  0
   -1.6027   -1.5979   -2.4101 C   0  0  0  0  0  0  0  0  0  0  0  0
   -1.8954   -2.3884   -3.5385 C   0  0  0  0  0  0  0  0  0  0  0  0
   -2.8185   -2.2061   -4.1087 H   0  0  0  0  0  0  0  0  0  0  0  0
   -0.9898   -3.3877   -3.9183 C   0  0  0  0  0  0  0  0  0  0  0  0
   -1.1892   -4.0141   -4.8006 H   0  0  0  0  0  0  0  0  0  0  0  0
    0.1756   -3.5675   -3.1622 C   0  0  0  0  0  0  0  0  0  0  0  0
    0.9209   -4.3294   -3.4305 H   0  0  0  0  0  0  0  0  0  0  0  0
    0.3905   -2.7409   -2.0453 C   0  0  0  0  0  0  0  0  0  0  0  0
    1.3067   -2.8159   -1.4408 H   0  0  0  0  0  0  0  0  0  0  0  0
  1  8  1  0  0  0  0
  2 10  1  0  0  0  0
  3  2  1  0  0  0  0
  4  3  1  0  0  0  0
  6  1  1  0  0  0  0
  7  1  1  0  0  0  0
  9 17  1  0  0  0  0
  9  1  1  0  0  0  0
 10  9  2  0  0  0  0
 11 13  2  0  0  0  0
 11 10  1  0  0  0  0
 12 11  1  0  0  0  0
 13 15  1  0  0  0  0
 14 13  1  0  0  0  0
 15 16  1  0  0  0  0
 15 17  2  0  0  0  0
 17 18  1  0  0  0  0
 19  3  2  0  0  0  0
 19  5  1  0  0  0  0
 20 19  1  0  0  0  0
 21 20  1  0  0  0  0
 22 20  2  0  0  0  0
 22 24  1  0  0  0  0
 23 22  1  0  0  0  0
 24 26  2  0  0  0  0
 25 24  1  0  0  0  0
 26  5  1  0  0  0  0
 26 27  1  0  0  0  0
M  END
