1,2,3
q = -1.0, confidence = 0.128

 76 79  0  0  1  0  0  0  0  0999 V2000
   -0.5529   -2.2719   -0.1733 O   0  5  0  0  0  0  0  0  0  0  0  0
   -3.7275    0.2838   -0.2187 N   0  0  0  0  0  2  0  0  0  0  0  0
   -1.2903    0.3247   -1.4187 N   0  0  0  0  0  0  0  0  0  0  0  0
    1.2429    5.1883    1.0310 N   0  0  0  0  0  0  0  0  0  0  0  0
   -4.7377   -0.2658    1.9661 C   0  0  0  0  0  0  0  0  0  0  0  0
   -4.6989    0.5348    0.7082 C   0  0  1  0  0  3  0  0  0  0  0  0
   -5.6265    1.5739    0.4864 C   0  0  0  0  0  0  0  0  0  0  0  0
   -5.5321    2.3929   -0.6410 C   0  0  0  0  0  0  0  0  0  0  0  0
   -4.4771    2.1761   -1.5366 C   0  0  0  0  0  0  0  0  0  0  0  0
   -3.6020    1.1129   -1.2992 C   0  0  0  0  0  0  0  0  0  0  0  0
   -2.4512    0.7987   -2.2129 C   0  0  0  0  0  0  0  0  0  0  0  0
   -0.3009   -0.3811   -2.2982 C   0  0  0  0  0  0  0  0  0  0  0  0
    0.8818   -0.8948   -1.5369 C   0  0  0  0  0  0  0  0  0  0  0  0
    0.6534   -1.8146   -0.4699 C   0  0  0  0  0  0  0  0  0  0  0  0
    1.7924   -2.2807    0.2815 C   0  0  0  0  0  0  0  0  0  0  0  0
    3.0659   -1.8661   -0.1333 C   0  0  0  0  0  0  0  0  0  0  0  0
    3.3098   -0.9901   -1.2179 C   0  0  0  0  0  0  0  0  0  0  0  0
    2.1846   -0.5027   -1.8958 C   0  0  0  0  0  0  0  0  0  0  0  0
   -0.6797    1.3830   -0.5631 C   0  0  0  0  0  0  0  0  0  0  0  0
    0.1351    2.4779   -1.2742 C   0  0  0  0  0  0  0  0  0  0  0  0
    0.7600    3.3814   -0.2514 C   0  0  0  0  0  0  0  0  0  0  0  0
    0.4983    4.7269   -0.0410 C   0  0  0  0  0  0  0  0  0  0  0  0
    1.9988    4.1535    1.5483 C   0  0  0  0  0  0  0  0  0  0  0  0
    2.8936    4.1278    2.6330 C   0  0  0  0  0  0  0  0  0  0  0  0
    3.5138    2.9094    2.9299 C   0  0  0  0  0  0  0  0  0  0  0  0
    3.2550    1.7470    2.1620 C   0  0  0  0  0  0  0  0  0  0  0  0
    2.3710    1.7739    1.0792 C   0  0  0  0  0  0  0  0  0  0  0  0
    1.7206    2.9892    0.7592 C   0  0  0  0  0  0  0  0  0  0  0  0
    1.5948   -3.1896    1.5080 C   0  0  0  0  0  0  0  0  0  0  0  0
    0.7077   -2.4576    2.5452 C   0  0  0  0  0  0  0  0  0  0  0  0
    0.9190   -4.5152    1.0846 C   0  0  0  0  0  0  0  0  0  0  0  0
    2.9332   -3.5310    2.1882 C   0  0  0  0  0  0  0  0  0  0  0  0
    4.7527   -0.6237   -1.6057 C   0  0  0  0  0  0  0  0  0  0  0  0
    4.7954    0.4312   -2.7248 C   0  0  0  0  0  0  0  0  0  0  0  0
    5.5050   -0.0540   -0.3822 C   0  0  0  0  0  0  0  0  0  0  0  0
    5.4735   -1.8981   -2.1026 C   0  0  0  0  0  0  0  0  0  0  0  0
   -4.7679   -1.3530    1.7416 H   0  0  0  0  0  0  0  0  0  0  0  0
   -3.7928   -0.1237    2.5314 H   0  0  0  0  0  0  0  0  0  0  0  0
   -5.5901    0.0374    2.6004 H   0  0  0  0  0  0  0  0  0  0  0  0
   -6.4154    1.7358    1.2343 H   0  0  0  0  0  0  0  0  0  0  0  0
   -6.2541    3.2060   -0.8070 H   0  0  0  0  0  0  0  0  0  0  0  0
   -4.3265    2.8178   -2.4162 H   0  0  0  0  0  0  0  0  0  0  0  0
   -2.1899    1.6769   -2.8442 H   0  0  0  0  0  0  0  0  0  0  0  0
   -2.7309   -0.0334   -2.8946 H   0  0  0  0  0  0  0  0  0  0  0  0
   -0.8725   -1.2091   -2.7719 H   0  0  0  0  0  0  0  0  0  0  0  0
    0.0315    0.3097   -3.1038 H   0  0  0  0  0  0  0  0  0  0  0  0
    3.9333   -2.2358    0.4298 H   0  0  0  0  0  0  0  0  0  0  0  0
    2.3007    0.1963   -2.7376 H   0  0  0  0  0  0  0  0  0  0  0  0
   -1.4959    1.8453    0.0254 H   0  0  0  0  0  0  0  0  0  0  0  0
   -0.0253    0.8537    0.1539 H   0  0  0  0  0  0  0  0  0  0  0  0
    0.9315    2.0046   -1.8855 H   0  0  0  0  0  0  0  0  0  0  0  0
   -0.5024    3.0699   -1.9639 H   0  0  0  0  0  0  0  0  0  0  0  0
   -0.1714    5.4004   -0.5891 H   0  0  0  0  0  0  0  0  0  0  0  0
    1.2392    6.1438    1.3812 H   0  0  0  0  0  0  0  0  0  0  0  0
    3.0972    5.0307    3.2285 H   0  0  0  0  0  0  0  0  0  0  0  0
    4.2160    2.8542    3.7753 H   0  0  0  0  0  0  0  0  0  0  0  0
    3.7606    0.8039    2.4179 H   0  0  0  0  0  0  0  0  0  0  0  0
    2.2006    0.8626    0.4868 H   0  0  0  0  0  0  0  0  0  0  0  0
    0.5979   -3.0824    3.4560 H   0  0  0  0  0  0  0  0  0  0  0  0
    1.1692   -1.4934    2.8449 H   0  0  0  0  0  0  0  0  0  0  0  0
   -0.3027   -2.2633    2.1401 H   0  0  0  0  0  0  0  0  0  0  0  0
   -0.0779   -4.3254    0.6460 H   0  0  0  0  0  0  0  0  0  0  0  0
    1.5425   -5.0527    0.3406 H   0  0  0  0  0  0  0  0  0  0  0  0
    0.7950   -5.1757    1.9683 H   0  0  0  0  0  0  0  0  0  0  0  0
    3.6153   -4.0883    1.5139 H   0  0  0  0  0  0  0  0  0  0  0  0
    3.4635   -2.6244    2.5463 H   0  0  0  0  0  0  0  0  0  0  0  0
    2.7416   -4.1742    3.0705 H   0  0  0  0  0  0  0  0  0  0  0  0
    4.2891    1.3696   -2.4193 H   0  0  0  0  0  0  0  0  0  0  0  0
    5.8477    0.6816   -2.9684 H   0  0  0  0  0  0  0  0  0  0  0  0
    4.3177    0.0657   -3.6564 H   0  0  0  0  0  0  0  0  0  0  0  0
    5.5421   -0.7804    0.4540 H   0  0  0  0  0  0  0  0  0  0  0  0
    6.5524    0.1944   -0.6530 H   0  0  0  0  0  0  0  0  0  0  0  0
    5.0155    0.8668   -0.0074 H   0  0  0  0  0  0  0  0  0  0  0  0
    4.9601   -2.3218   -2.9895 H   0  0  0  0  0  0  0  0  0  0  0  0
    6.5238   -1.6722   -2.3836 H   0  0  0  0  0  0  0  0  0  0  0  0
    5.4922   -2.6828   -1.3201 H   0  0  0  0  0  0  0  0  0  0  0  0
  2  6  1  0  0  0  0
  3 19  1  0  0  0  0
  4 54  1  0  0  0  0
  4 23  1  0  0  0  0
  5 38  1  0  0  0  0
  5 39  1  0  0  0  0
  6  5  1  1  0  0  0
  7  6  1  0  0  0  0
  7 40  1  0  0  0  0
  8  7  2  0  0  0  0
  9 10  2  0  0  0  0
  9  8  1  0  0  0  0
 10  2  1  0  0  0  0
 11  3  1  0  0  0  0
 11 10  1  0  0  0  0
 12 13  1  0  0  0  0
 12  3  1  0  0  0  0
 13 14  1  0  0  0  0
 14  1  1  0  0  0  0
 14 15  2  0  0  0  0
 15 29  1  0  0  0  0
 16 15  1  0  0  0  0
 16 47  1  0  0  0  0
 17 16  2  0  0  0  0
 18 13  2  0  0  0  0
 18 17  1  0  0  0  0
 19 49  1  0  0  0  0
 19 50  1  0  0  0  0
 20 19  1  0  0  0  0
 20 21  1  0  0  0  0
 21 22  2  0  0  0  0
 21 28  1  0  0  0  0
 22  4  1  0  0  0  0
 23 24  1  0  0  0  0
 24 25  2  0  0  0  0
 24 55  1  0  0  0  0
 25 56  1  0  0  0  0
 26 57  1  0  0  0  0
 26 25  1  0  0  0  0
 27 26  2  0  0  0  0
 28 27  1  0  0  0  0
 28 23  2  0  0  0  0
 29 32  1  0  0  0  0
 29 30  1  0  0  0  0
 30 60  1  0  0  0  0
 30 59  1  0  0  0  0
 31 29  1  0  0  0  0
 31 64  1  0  0  0  0
 32 66  1  0  0  0  0
 32 67  1  0  0  0  0
 33 17  1  0  0  0  0
 33 35  1  0  0  0  0
 34 68  1  0  0  0  0
 34 33  1  0  0  0  0
 35 73  1  0  0  0  0
 35 71  1  0  0  0  0
 36 33  1  0  0  0  0
 36 76  1  0  0  0  0
 37  5  1  0  0  0  0
 41  8  1  0  0  0  0
 42  9  1  0  0  0  0
 43 11  1  0  0  0  0
 44 11  1  0  0  0  0
 45 12  1  0  0  0  0
 46 12  1  0  0  0  0
 48 18  1  0  0  0  0
 51 20  1  0  0  0  0
 52 20  1  0  0  0  0
 53 22  1  0  0  0  0
 58 27  1  0  0  0  0
 61 30  1  0  0  0  0
 62 31  1  0  0  0  0
 63 31  1  0  0  0  0
 65 32  1  0  0  0  0
 69 34  1  0  0  0  0
 70 34  1  0  0  0  0
 72 35  1  0  0  0  0
 74 36  1  0  0  0  0
 75 36  1  0  0  0  0
M  CHG  1   1  -1
M  END
