1,2,3
q = -1.0

 80 83  0  0  1  0  0  0  0  0999 V2000
    0.0978   -2.3135   -0.1307 O   0  5  0  0  0  0  0  0  0  0  0  0
    3.5981   -0.2853   -0.1467 N   0  0  0  0  0  2  0  0  0  0  0  0
    1.1979    0.2094   -1.3153 N   0  0  0  0  0  0  0  0  0  0  0  0
   -1.0635    5.0505    1.4458 N   0  0  0  0  0  0  0  0  0  0  0  0
    4.6748    1.4213   -1.0598 N   0  0  0  0  0  0  0  0  0  0  0  0
   -1.0262   -1.7346   -0.5102 C   0  0  0  0  0  0  0  0  0  0  0  0
   -2.2611   -2.0983    0.1451 C   0  0  0  0  0  0  0  0  0  0  0  0
   -3.4544   -1.5496   -0.3427 C   0  0  0  0  0  0  0  0  0  0  0  0
   -3.5328   -0.6266   -1.4131 C   0  0  0  0  0  0  0  0  0  0  0  0
   -2.3198   -0.2444   -1.9983 C   0  0  0  0  0  0  0  0  0  0  0  0
   -1.0877   -0.7742   -1.5674 C   0  0  0  0  0  0  0  0  0  0  0  0
    0.1758   -0.3564   -2.2576 C   0  0  0  0  0  0  0  0  0  0  0  0
    2.4016    0.6791   -2.0566 C   0  0  0  0  0  0  0  0  0  0  0  0
    3.5591    0.6400   -1.1163 C   0  0  1  0  0  3  0  0  0  0  0  0
    5.4595    0.9620    0.0018 C   0  0  0  0  0  0  0  0  0  0  0  0
    4.7683   -0.1032    0.5749 C   0  0  0  0  0  0  0  0  0  0  0  0
    0.6569    1.2498   -0.3911 C   0  0  0  0  0  0  0  0  0  0  0  0
   -0.0569    2.4538   -1.0323 C   0  0  0  0  0  0  0  0  0  0  0  0
   -0.6534    3.3189    0.0395 C   0  0  0  0  0  0  0  0  0  0  0  0
   -0.3068    4.6208    0.3685 C   0  0  0  0  0  0  0  0  0  0  0  0
   -1.9134    4.0370    1.8470 C   0  0  0  0  0  0  0  0  0  0  0  0
   -2.8572    3.9923    2.8890 C   0  0  0  0  0  0  0  0  0  0  0  0
   -3.5759    2.8037    3.0583 C   0  0  0  0  0  0  0  0  0  0  0  0
   -3.3648    1.6897    2.2085 C   0  0  0  0  0  0  0  0  0  0  0  0
   -2.4309    1.7361    1.1695 C   0  0  0  0  0  0  0  0  0  0  0  0
   -1.6829    2.9213    0.9773 C   0  0  0  0  0  0  0  0  0  0  0  0
   -2.2431   -3.0444    1.3596 C   0  0  0  0  0  0  0  0  0  0  0  0
   -1.3702   -2.4207    2.4765 C   0  0  0  0  0  0  0  0  0  0  0  0
   -1.6680   -4.4222    0.9545 C   0  0  0  0  0  0  0  0  0  0  0  0
   -3.6548   -3.2666    1.9327 C   0  0  0  0  0  0  0  0  0  0  0  0
   -4.9000   -0.0928   -1.8730 C   0  0  0  0  0  0  0  0  0  0  0  0
   -5.6450    0.5478   -0.6801 C   0  0  0  0  0  0  0  0  0  0  0  0
   -4.7594    0.9714   -2.9750 C   0  0  0  0  0  0  0  0  0  0  0  0
   -5.7370   -1.2676   -2.4292 C   0  0  0  0  0  0  0  0  0  0  0  0
    5.1278   -0.9234    1.7650 C   0  0  0  0  0  0  0  0  0  0  0  0
    6.7660    1.5864    0.3520 C   0  0  0  0  0  0  0  0  0  0  0  0
    5.0302    2.5084   -1.9510 C   0  0  0  0  0  0  0  0  0  0  0  0
   -4.3917   -1.8405    0.1503 H   0  0  0  0  0  0  0  0  0  0  0  0
   -2.3062    0.4816   -2.8255 H   0  0  0  0  0  0  0  0  0  0  0  0
    0.4306    5.2853   -0.0977 H   0  0  0  0  0  0  0  0  0  0  0  0
   -1.0081    5.9726    1.8726 H   0  0  0  0  0  0  0  0  0  0  0  0
   -3.0233    4.8575    3.5486 H   0  0  0  0  0  0  0  0  0  0  0  0
   -4.3190    2.7345    3.8670 H   0  0  0  0  0  0  0  0  0  0  0  0
   -3.9473    0.7691    2.3634 H   0  0  0  0  0  0  0  0  0  0  0  0
   -2.2955    0.8633    0.5144 H   0  0  0  0  0  0  0  0  0  0  0  0
   -0.0590    0.3953   -3.0439 H   0  0  0  0  0  0  0  0  0  0  0  0
    0.6819   -1.2168   -2.7487 H   0  0  0  0  0  0  0  0  0  0  0  0
    2.5598   -0.0322   -2.8966 H   0  0  0  0  0  0  0  0  0  0  0  0
    2.2390    1.6860   -2.5016 H   0  0  0  0  0  0  0  0  0  0  0  0
   -0.0487    0.7275    0.2803 H   0  0  0  0  0  0  0  0  0  0  0  0
    1.5002    1.5953    0.2392 H   0  0  0  0  0  0  0  0  0  0  0  0
    0.6385    3.0533   -1.6574 H   0  0  0  0  0  0  0  0  0  0  0  0
   -0.8641    2.0855   -1.6992 H   0  0  0  0  0  0  0  0  0  0  0  0
   -0.3185   -2.3192    2.1512 H   0  0  0  0  0  0  0  0  0  0  0  0
   -1.7576   -1.4211    2.7651 H   0  0  0  0  0  0  0  0  0  0  0  0
   -1.3900   -3.0688    3.3775 H   0  0  0  0  0  0  0  0  0  0  0  0
   -0.6273   -4.3217    0.5959 H   0  0  0  0  0  0  0  0  0  0  0  0
   -1.6753   -5.1069    1.8285 H   0  0  0  0  0  0  0  0  0  0  0  0
   -2.2821   -4.8832    0.1534 H   0  0  0  0  0  0  0  0  0  0  0  0
   -3.5916   -3.9433    2.8085 H   0  0  0  0  0  0  0  0  0  0  0  0
   -4.1201   -2.3199    2.2778 H   0  0  0  0  0  0  0  0  0  0  0  0
   -4.3368   -3.7396    1.1966 H   0  0  0  0  0  0  0  0  0  0  0  0
   -5.0664    1.3934   -0.2573 H   0  0  0  0  0  0  0  0  0  0  0  0
   -6.6375    0.9283   -1.0006 H   0  0  0  0  0  0  0  0  0  0  0  0
   -5.8161   -0.1812    0.1368 H   0  0  0  0  0  0  0  0  0  0  0  0
   -4.2699    0.5638   -3.8828 H   0  0  0  0  0  0  0  0  0  0  0  0
   -5.7613    1.3402   -3.2750 H   0  0  0  0  0  0  0  0  0  0  0  0
   -4.1714    1.8446   -2.6258 H   0  0  0  0  0  0  0  0  0  0  0  0
   -5.8879   -2.0546   -1.6636 H   0  0  0  0  0  0  0  0  0  0  0  0
   -6.7380   -0.9174   -2.7589 H   0  0  0  0  0  0  0  0  0  0  0  0
   -5.2302   -1.7373   -3.2966 H   0  0  0  0  0  0  0  0  0  0  0  0
    6.2027   -0.8244    2.0083 H   0  0  0  0  0  0  0  0  0  0  0  0
    4.5392   -0.6100    2.6526 H   0  0  0  0  0  0  0  0  0  0  0  0
    4.8660   -1.9853    1.5894 H   0  0  0  0  0  0  0  0  0  0  0  0
    7.4832    1.5705   -0.4964 H   0  0  0  0  0  0  0  0  0  0  0  0
    6.6581    2.6445    0.6750 H   0  0  0  0  0  0  0  0  0  0  0  0
    7.2301    1.0338    1.1893 H   0  0  0  0  0  0  0  0  0  0  0  0
    4.1811    2.7346   -2.6204 H   0  0  0  0  0  0  0  0  0  0  0  0
    5.2741    3.4209   -1.3720 H   0  0  0  0  0  0  0  0  0  0  0  0
    5.9079    2.2426   -2.5751 H   0  0  0  0  0  0  0  0  0  0  0  0
  2 16  1  0  0  0  0
  3 17  1  0  0  0  0
  4 21  1  0  0  0  0
  4 41  1  0  0  0  0
  5 15  1  0  0  0  0
  6  1  1  0  0  0  0
  6  7  1  0  0  0  0
  7 27  1  0  0  0  0
  8  7  2  0  0  0  0
  8 38  1  0  0  0  0
  9  8  1  0  0  0  0
 10 11  1  0  0  0  0
 10  9  2  0  0  0  0
 11  6  2  0  0  0  0
 12 11  1  0  0  0  0
 12  3  1  0  0  0  0
 13  3  1  0  0  0  0
 14 13  1  6  0  0  0
 14  5  1  0  0  0  0
 14  2  1  0  0  0  0
 15 36  1  0  0  0  0
 15 16  2  0  0  0  0
 16 35  1  0  0  0  0
 17 51  1  0  0  0  0
 17 50  1  0  0  0  0
 18 17  1  0  0  0  0
 18 19  1  0  0  0  0
 19 20  2  0  0  0  0
 19 26  1  0  0  0  0
 20  4  1  0  0  0  0
 21 22  1  0  0  0  0
 22 23  2  0  0  0  0
 22 42  1  0  0  0  0
 23 43  1  0  0  0  0
 24 44  1  0  0  0  0
 24 23  1  0  0  0  0
 25 24  2  0  0  0  0
 26 25  1  0  0  0  0
 26 21  2  0  0  0  0
 27 30  1  0  0  0  0
 27 28  1  0  0  0  0
 28 55  1  0  0  0  0
 28 56  1  0  0  0  0
 29 27  1  0  0  0  0
 29 58  1  0  0  0  0
 30 61  1  0  0  0  0
 30 60  1  0  0  0  0
 31  9  1  0  0  0  0
 31 32  1  0  0  0  0
 32 63  1  0  0  0  0
 32 65  1  0  0  0  0
 33 68  1  0  0  0  0
 33 31  1  0  0  0  0
 34 31  1  0  0  0  0
 34 69  1  0  0  0  0
 35 72  1  0  0  0  0
 35 73  1  0  0  0  0
 36 76  1  0  0  0  0
 36 77  1  0  0  0  0
 37 79  1  0  0  0  0
 37  5  1  0  0  0  0
 39 10  1  0  0  0  0
 40 20  1  0  0  0  0
 45 25  1  0  0  0  0
 46 12  1  0  0  0  0
 47 12  1  0  0  0  0
 48 13  1  0  0  0  0
 49 13  1  0  0  0  0
 52 18  1  0  0  0  0
 53 18  1  0  0  0  0
 54 28  1  0  0  0  0
 57 29  1  0  0  0  0
 59 29  1  0  0  0  0
 62 30  1  0  0  0  0
 64 32  1  0  0  0  0
 66 33  1  0  0  0  0
 67 33  1  0  0  0  0
 70 34  1  0  0  0  0
 71 34  1  0  0  0  0
 74 35  1  0  0  0  0
 75 36  1  0  0  0  0
 78 37  1  0  0  0  0
 80 37  1  0  0  0  0
M  CHG  1   1  -1
M  END
