1,2,5
q = -1.0, confidence = 0.0

 28 29  0  0  1  0  0  0  0  0999 V2000
   -0.5725    0.5123   -1.7481 O   0  0  0  0  0  1  0  0  0  0  0  0
   -0.3657    1.8040    0.4700 N   0  0  0  0  0  2  0  0  0  0  0  0
   -2.8381    0.8909   -1.2322 N   0  0  0  0  0  0  0  0  0  0  0  0
   -3.6586    1.1288   -1.7858 H   0  0  0  0  0  0  0  0  0  0  0  0
   -1.8998   -0.4822    0.4436 N   0  0  0  0  0  2  0  0  0  0  0  0
    0.0704    2.4492    1.5674 C   0  0  0  0  0  3  0  0  0  0  0  0
    0.6463    1.8334    2.2756 H   0  0  0  0  0  0  0  0  0  0  0  0
   -0.2182    3.8054    1.7575 C   0  0  0  0  0  0  0  0  0  0  0  0
    0.1480    4.3191    2.6573 H   0  0  0  0  0  0  0  0  0  0  0  0
   -0.9691    4.4852    0.7852 C   0  0  0  0  0  0  0  0  0  0  0  0
   -1.1990    5.5540    0.9083 H   0  0  0  0  0  0  0  0  0  0  0  0
   -1.4281    3.7887   -0.3442 C   0  0  0  0  0  0  0  0  0  0  0  0
   -2.0277    4.2891   -1.1185 H   0  0  0  0  0  0  0  0  0  0  0  0
   -1.1085    2.4337   -0.4743 C   0  0  0  0  0  0  0  0  0  0  0  0
   -1.5353    1.4724   -1.5888 C   0  0  1  0  0  0  0  0  0  0  0  0
   -1.7121    2.0429   -2.5322 H   0  0  0  0  0  0  0  0  0  0  0  0
   -2.9899   -0.0490   -0.2546 C   0  0  1  0  0  3  0  0  0  0  0  0
   -4.3038   -0.5550    0.0224 C   0  0  0  0  0  0  0  0  0  0  0  0
   -4.4406   -1.4838    1.0507 C   0  0  0  0  0  0  0  0  0  0  0  0
   -5.4395   -1.8846    1.2826 H   0  0  0  0  0  0  0  0  0  0  0  0
   -3.3180   -1.8909    1.7951 C   0  0  0  0  0  0  0  0  0  0  0  0
   -3.4035   -2.6048    2.6250 H   0  0  0  0  0  0  0  0  0  0  0  0
   -2.0787   -1.3659    1.4595 C   0  0  0  0  0  0  0  0  0  0  0  0
   -1.1605   -1.6032    2.0135 H   0  0  0  0  0  0  0  0  0  0  0  0
   -5.4750   -0.0627   -0.7815 C   0  0  0  0  0  0  0  0  0  0  0  0
   -6.4128   -0.5475   -0.4536 H   0  0  0  0  0  0  0  0  0  0  0  0
   -5.6145    1.0355   -0.6757 H   0  0  0  0  0  0  0  0  0  0  0  0
   -5.3537   -0.2791   -1.8659 H   0  0  0  0  0  0  0  0  0  0  0  0
  1 15  1  0  0  0  0
  2  6  1  0  0  0  0
  4  3  1  0  0  0  0
  5 23  1  0  0  0  0
  6  8  1  0  0  0  0
  6  7  1  0  0  0  0
  8  9  1  0  0  0  0
 10 11  1  0  0  0  0
 10  8  2  0  0  0  0
 12 10  1  0  0  0  0
 13 12  1  0  0  0  0
 14 12  2  0  0  0  0
 14  2  1  0  0  0  0
 15 16  1  6  0  0  0
 15  3  1  0  0  0  0
 15 14  1  0  0  0  0
 17  3  1  1  0  0  0
 17 18  1  0  0  0  0
 17  5  1  0  0  0  0
 18 19  2  0  0  0  0
 19 20  1  0  0  0  0
 19 21  1  0  0  0  0
 21 22  1  0  0  0  0
 23 21  2  0  0  0  0
 23 24  1  0  0  0  0
 25 27  1  0  0  0  0
 25 26  1  0  0  0  0
 25 18  1  0  0  0  0
 28 25  1  0  0  0  0
M  END
