1,2,3
q = -1.0

 28 29  0  0  1  0  0  0  0  0999 V2000
    0.7045    0.4272   -1.7773 O   0  0  0  0  0  1  0  0  0  0  0  0
    1.2934   -1.1020    0.4854 N   0  0  0  0  0  2  0  0  0  0  0  0
    1.3285    1.6306    0.3939 N   0  0  0  0  0  2  0  0  0  0  0  0
    2.7799   -0.5767   -1.2696 N   0  0  0  0  0  0  0  0  0  0  0  0
    3.6166   -0.8340   -1.7894 H   0  0  0  0  0  0  0  0  0  0  0  0
    0.9558   -1.8776    1.5484 C   0  0  0  0  0  3  0  0  0  0  0  0
    0.0543   -1.5458    2.0832 H   0  0  0  0  0  0  0  0  0  0  0  0
    1.7078   -2.9771    1.9362 C   0  0  0  0  0  0  0  0  0  0  0  0
    1.3966   -3.5775    2.8012 H   0  0  0  0  0  0  0  0  0  0  0  0
    2.8630   -3.2919    1.1956 C   0  0  0  0  0  0  0  0  0  0  0  0
    3.4804   -4.1606    1.4717 H   0  0  0  0  0  0  0  0  0  0  0  0
    3.2486   -2.5048    0.1125 C   0  0  0  0  0  0  0  0  0  0  0  0
    2.4254   -1.3789   -0.2208 C   0  0  0  0  0  0  0  0  0  0  0  0
    2.0484    0.6466   -1.6525 C   0  0  2  0  0  0  0  0  0  0  0  0
    2.5051    0.9745   -2.6166 H   0  0  0  0  0  0  0  0  0  0  0  0
    2.2714    1.7095   -0.5780 C   0  0  2  0  0  3  0  0  0  0  0  0
    3.3014    2.6524   -0.5046 C   0  0  0  0  0  0  0  0  0  0  0  0
    4.0549    2.7052   -1.3040 H   0  0  0  0  0  0  0  0  0  0  0  0
    3.3476    3.5174    0.6001 C   0  0  0  0  0  0  0  0  0  0  0  0
    4.1416    4.2749    0.6792 H   0  0  0  0  0  0  0  0  0  0  0  0
    2.3744    3.4010    1.6050 C   0  0  0  0  0  0  0  0  0  0  0  0
    2.3873    4.0525    2.4899 H   0  0  0  0  0  0  0  0  0  0  0  0
    1.3686    2.4371    1.4699 C   0  0  0  0  0  0  0  0  0  0  0  0
    0.5721    2.2624    2.2098 H   0  0  0  0  0  0  0  0  0  0  0  0
    4.4834   -2.7909   -0.6960 C   0  0  0  0  0  0  0  0  0  0  0  0
    5.0064   -3.6883   -0.3176 H   0  0  0  0  0  0  0  0  0  0  0  0
    5.2058   -1.9461   -0.6585 H   0  0  0  0  0  0  0  0  0  0  0  0
    4.2429   -2.9751   -1.7662 H   0  0  0  0  0  0  0  0  0  0  0  0
  1 14  1  0  0  0  0
  2  6  1  0  0  0  0
  3 23  1  0  0  0  0
  4 13  1  0  0  0  0
  5  4  1  0  0  0  0
  6  8  1  0  0  0  0
  6  7  1  0  0  0  0
  8  9  1  0  0  0  0
 10 11  1  0  0  0  0
 10  8  2  0  0  0  0
 12 10  1  0  0  0  0
 13 12  2  0  0  0  0
 13  2  1  0  0  0  0
 14 15  1  6  0  0  0
 14  4  1  0  0  0  0
 16 14  1  1  0  0  0
 16 17  1  0  0  0  0
 16  3  1  0  0  0  0
 17 19  2  0  0  0  0
 18 17  1  0  0  0  0
 19 20  1  0  0  0  0
 19 21  1  0  0  0  0
 21 22  1  0  0  0  0
 23 21  2  0  0  0  0
 23 24  1  0  0  0  0
 25 27  1  0  0  0  0
 25 26  1  0  0  0  0
 25 12  1  0  0  0  0
 28 25  1  0  0  0  0
M  END
