1,2,3
q = -1.0

 30 31  0  0  1  0  0  0  0  0999 V2000
   -0.3528   -0.5889    2.2995 O   0  5  0  0  0  0  0  0  0  0  0  0
    0.3700    1.2370   -0.8976 N   0  0  0  0  0  2  0  0  0  0  0  0
    1.5464   -0.1297    0.8124 N   0  0  0  0  0  2  0  0  0  0  0  0
    1.9008   -0.8495    1.8967 N   0  0  0  0  0  0  0  0  0  0  0  0
   -0.3970    1.9008   -1.7876 C   0  0  0  0  0  3  0  0  0  0  0  0
   -1.4625    1.9990   -1.5344 H   0  0  0  0  0  0  0  0  0  0  0  0
    0.1243    2.4405   -2.9660 C   0  0  0  0  0  0  0  0  0  0  0  0
   -0.5353    2.9936   -3.6485 H   0  0  0  0  0  0  0  0  0  0  0  0
    1.4872    2.2449   -3.2537 C   0  0  0  0  0  0  0  0  0  0  0  0
    1.9227    2.6320   -4.1864 H   0  0  0  0  0  0  0  0  0  0  0  0
    2.2842    1.5414   -2.3466 C   0  0  0  0  0  0  0  0  0  0  0  0
    3.3447    1.3450   -2.5528 H   0  0  0  0  0  0  0  0  0  0  0  0
    1.7190    1.0568   -1.1491 C   0  0  0  0  0  0  0  0  0  0  0  0
    2.4106    0.3077   -0.1121 C   0  0  1  0  0  3  0  0  0  0  0  0
    3.8617    0.0607   -0.0777 C   0  0  0  0  0  0  0  0  0  0  0  0
    4.7681    1.1114   -0.3602 C   0  0  0  0  0  0  0  0  0  0  0  0
    4.3879    2.1245   -0.5592 H   0  0  0  0  0  0  0  0  0  0  0  0
    6.1498    0.8819   -0.3427 C   0  0  0  0  0  0  0  0  0  0  0  0
    6.8428    1.7105   -0.5513 H   0  0  0  0  0  0  0  0  0  0  0  0
    6.6475   -0.3970   -0.0473 C   0  0  0  0  0  0  0  0  0  0  0  0
    7.7328   -0.5770   -0.0357 H   0  0  0  0  0  0  0  0  0  0  0  0
    5.7567   -1.4434    0.2441 C   0  0  0  0  0  0  0  0  0  0  0  0
    6.1438   -2.4452    0.4826 H   0  0  0  0  0  0  0  0  0  0  0  0
    4.3753   -1.2191    0.2382 C   0  0  0  0  0  0  0  0  0  0  0  0
    3.6828   -2.0351    0.4828 H   0  0  0  0  0  0  0  0  0  0  0  0
    0.8167   -1.0439    2.6478 C   0  0  0  0  0  0  0  0  0  0  0  0
    0.9318   -1.7958    3.9365 C   0  0  0  0  0  0  0  0  0  0  0  0
    0.5629   -1.1656    4.7702 H   0  0  0  0  0  0  0  0  0  0  0  0
    1.9778   -2.0909    4.1261 H   0  0  0  0  0  0  0  0  0  0  0  0
    0.2865   -2.6967    3.9052 H   0  0  0  0  0  0  0  0  0  0  0  0
  1 26  1  0  0  0  0
  3  4  1  0  0  0  0
  4 26  2  0  0  0  0
  5  6  1  0  0  0  0
  5  2  1  0  0  0  0
  7  5  1  0  0  0  0
  8  7  1  0  0  0  0
  9  7  2  0  0  0  0
  9 11  1  0  0  0  0
 10  9  1  0  0  0  0
 11 13  2  0  0  0  0
 12 11  1  0  0  0  0
 13  2  1  0  0  0  0
 13 14  1  0  0  0  0
 14 15  1  0  0  0  0
 14  3  1  1  0  0  0
 15 24  1  0  0  0  0
 16 18  1  0  0  0  0
 16 15  2  0  0  0  0
 17 16  1  0  0  0  0
 18 20  2  0  0  0  0
 19 18  1  0  0  0  0
 20 21  1  0  0  0  0
 20 22  1  0  0  0  0
 22 23  1  0  0  0  0
 24 22  2  0  0  0  0
 24 25  1  0  0  0  0
 26 27  1  0  0  0  0
 27 29  1  0  0  0  0
 27 28  1  0  0  0  0
 30 27  1  0  0  0  0
M  CHG  1   1  -1
M  END
