1,2,3
q = -1.0

 33 33  0  0  1  0  0  0  0  0999 V2000
   -0.4409   -0.0869    1.2051 N   0  0  0  0  0  2  0  0  0  0  0  0
    1.8437   -1.1389    0.2357 N   0  0  0  0  0  0  0  0  0  0  0  0
   -0.9675    1.1721   -1.1678 O   0  5  0  0  0  0  0  0  0  0  0  0
    4.4839   -1.1392   -0.3806 O   0  0  0  0  0  0  0  0  0  0  0  0
    5.4228   -1.2044   -0.1291 H   0  0  0  0  0  0  0  0  0  0  0  0
   -2.6714    0.4276    0.4087 C   0  0  0  0  0  0  0  0  0  0  0  0
   -2.2323    0.9868   -0.8464 C   0  0  0  0  0  0  0  0  0  0  0  0
   -3.2133    1.4193   -1.7807 C   0  0  0  0  0  0  0  0  0  0  0  0
   -2.8539    1.8639   -2.7199 H   0  0  0  0  0  0  0  0  0  0  0  0
   -4.5720    1.2659   -1.5267 C   0  0  0  0  0  0  0  0  0  0  0  0
   -5.3053    1.5961   -2.2782 H   0  0  0  0  0  0  0  0  0  0  0  0
   -5.0113    0.6690   -0.3248 C   0  0  0  0  0  0  0  0  0  0  0  0
   -6.0828    0.5147   -0.1368 H   0  0  0  0  0  0  0  0  0  0  0  0
   -4.0723    0.2721    0.6196 C   0  0  0  0  0  0  0  0  0  0  0  0
   -4.4290   -0.2039    1.5425 H   0  0  0  0  0  0  0  0  0  0  0  0
   -1.7307    0.0456    1.4541 C   0  0  1  0  0  3  0  0  0  0  0  0
   -2.2556   -0.2148    2.8476 C   0  0  0  0  0  0  0  0  0  0  0  0
   -2.4354   -1.3035    2.9787 H   0  0  0  0  0  0  0  0  0  0  0  0
   -3.2072    0.3117    3.0251 H   0  0  0  0  0  0  0  0  0  0  0  0
   -1.5468    0.1125    3.6291 H   0  0  0  0  0  0  0  0  0  0  0  0
    0.5407   -0.5213    2.1970 C   0  0  0  0  0  0  0  0  0  0  0  0
    0.0801   -0.9003    3.1280 H   0  0  0  0  0  0  0  0  0  0  0  0
    1.1958    0.3371    2.4778 H   0  0  0  0  0  0  0  0  0  0  0  0
    1.3584   -1.6296    1.5514 C   0  0  0  0  0  0  0  0  0  0  0  0
    2.1986   -1.9435    2.2062 H   0  0  0  0  0  0  0  0  0  0  0  0
    0.7089   -2.5091    1.3681 H   0  0  0  0  0  0  0  0  0  0  0  0
    2.4092   -2.2186   -0.6142 C   0  0  0  0  0  0  0  0  0  0  0  0
    2.3204   -1.9224   -1.6753 H   0  0  0  0  0  0  0  0  0  0  0  0
    1.8147   -3.1422   -0.4871 H   0  0  0  0  0  0  0  0  0  0  0  0
    3.8833   -2.4313   -0.2936 C   0  0  0  0  0  0  0  0  0  0  0  0
    4.0111   -2.8722    0.7230 H   0  0  0  0  0  0  0  0  0  0  0  0
    4.3144   -3.1498   -1.0266 H   0  0  0  0  0  0  0  0  0  0  0  0
    2.6510   -0.5107    0.4051 H   0  0  0  0  0  0  0  0  0  0  0  0
  1 21  1  0  0  0  0
  2 33  1  0  0  0  0
  2 24  1  0  0  0  0
  3  7  1  0  0  0  0
  4 30  1  0  0  0  0
  4  5  1  0  0  0  0
  6 14  1  0  0  0  0
  6 16  1  0  0  0  0
  7  6  2  0  0  0  0
  8 10  2  0  0  0  0
  8  7  1  0  0  0  0
  9  8  1  0  0  0  0
 10 12  1  0  0  0  0
 11 10  1  0  0  0  0
 12 13  1  0  0  0  0
 12 14  2  0  0  0  0
 14 15  1  0  0  0  0
 16  1  1  6  0  0  0
 16 17  1  0  0  0  0
 17 18  1  0  0  0  0
 17 19  1  0  0  0  0
 17 20  1  0  0  0  0
 21 23  1  0  0  0  0
 21 22  1  0  0  0  0
 24 21  1  0  0  0  0
 24 25  1  0  0  0  0
 26 24  1  0  0  0  0
 27 29  1  0  0  0  0
 27 30  1  0  0  0  0
 27  2  1  0  0  0  0
 28 27  1  0  0  0  0
 30 31  1  0  0  0  0
 32 30  1  0  0  0  0
M  CHG  1   3  -1
M  END
