3,6,7
q = -1.0, confidence = 0.03

 32 32  0  0  0  0  0  0  0  0999 V2000
   -5.8882    0.3515   -1.5576 O   0  0  0  0  0  0  0  0  0  0  0  0
   -6.5232    0.3573    0.5365 O   0  0  0  0  0  0  0  0  0  0  0  0
   -0.3341   -0.1317    1.3645 O   0  5  0  0  0  0  0  0  0  0  0  0
    1.8582   -1.4010    1.9602 O   0  0  0  0  0  0  0  0  0  0  0  0
   -5.6599    0.3118   -0.3445 N   0  0  0  0  0  0  0  0  0  0  0  0
    0.3577   -0.0953   -1.4147 N   0  0  0  0  0  2  0  0  0  0  0  0
    2.7683   -1.2015   -0.6834 N   0  0  0  0  0  0  0  0  0  0  0  0
   -1.8978    0.0377   -0.4955 C   0  0  0  0  0  0  0  0  0  0  0  0
   -1.5462   -0.0203    0.9196 C   0  0  0  0  0  0  0  0  0  0  0  0
   -2.6309    0.0222    1.8597 C   0  0  0  0  0  0  0  0  0  0  0  0
   -2.3611   -0.0260    2.9248 H   0  0  0  0  0  0  0  0  0  0  0  0
   -3.9520    0.1405    1.4625 C   0  0  0  0  0  0  0  0  0  0  0  0
   -4.7770    0.1886    2.1864 H   0  0  0  0  0  0  0  0  0  0  0  0
   -4.2610    0.2009    0.0841 C   0  0  0  0  0  0  0  0  0  0  0  0
   -3.2553    0.1379   -0.8744 C   0  0  0  0  0  0  0  0  0  0  0  0
   -3.5434    0.1657   -1.9355 H   0  0  0  0  0  0  0  0  0  0  0  0
   -0.9306   -0.1125   -1.5618 C   0  0  0  0  0  3  0  0  0  0  0  0
   -1.3554   -0.2851   -2.5781 H   0  0  0  0  0  0  0  0  0  0  0  0
    1.2681   -0.4627   -2.4796 C   0  0  0  0  0  0  0  0  0  0  0  0
    1.9155    0.4105   -2.7178 H   0  0  0  0  0  0  0  0  0  0  0  0
    0.7412   -0.7726   -3.4099 H   0  0  0  0  0  0  0  0  0  0  0  0
    2.1606   -1.6056   -1.9531 C   0  0  0  0  0  0  0  0  0  0  0  0
    1.5264   -2.5025   -1.7827 H   0  0  0  0  0  0  0  0  0  0  0  0
    2.9208   -1.8777   -2.7210 H   0  0  0  0  0  0  0  0  0  0  0  0
    3.2336   -2.2564    0.2165 C   0  0  0  0  0  0  0  0  0  0  0  0
    3.5542   -3.1744   -0.3256 H   0  0  0  0  0  0  0  0  0  0  0  0
    4.1195   -1.8737    0.7641 H   0  0  0  0  0  0  0  0  0  0  0  0
    2.1502   -2.6004    1.2420 C   0  0  0  0  0  0  0  0  0  0  0  0
    1.2400   -2.9833    0.7244 H   0  0  0  0  0  0  0  0  0  0  0  0
    2.5112   -3.3948    1.9324 H   0  0  0  0  0  0  0  0  0  0  0  0
    3.4689   -0.4221   -0.8156 H   0  0  0  0  0  0  0  0  0  0  0  0
    0.9036   -1.3599    2.2050 H   0  0  0  0  0  0  0  0  0  0  0  0
  1  5  2  0  0  0  0
  4 32  1  0  0  0  0
  5 14  1  0  0  0  0
  5  2  2  0  0  0  0
  7 25  1  0  0  0  0
  8  9  1  0  0  0  0
  9  3  1  0  0  0  0
  9 10  2  0  0  0  0
 10 11  1  0  0  0  0
 12 10  1  0  0  0  0
 12 13  1  0  0  0  0
 14 12  2  0  0  0  0
 15  8  2  0  0  0  0
 15 14  1  0  0  0  0
 16 15  1  0  0  0  0
 17  6  1  0  0  0  0
 17  8  1  0  0  0  0
 18 17  1  0  0  0  0
 19 22  1  0  0  0  0
 19  6  1  0  0  0  0
 20 19  1  0  0  0  0
 21 19  1  0  0  0  0
 22 23  1  0  0  0  0
 22  7  1  0  0  0  0
 24 22  1  0  0  0  0
 25 27  1  0  0  0  0
 25 28  1  0  0  0  0
 26 25  1  0  0  0  0
 28 30  1  0  0  0  0
 28  4  1  0  0  0  0
 29 28  1  0  0  0  0
 31  7  1  0  0  0  0
M  CHG  1   3  -1
M  END
