2,3,4
q = -1.0

 33 34  0  0  1  0  0  0  0  0999 V2000
    2.6410    0.7573   -0.5843 O   0  0  0  0  0  0  0  0  0  0  0  0
    0.5257   -0.1726   -1.0083 O   0  0  0  0  0  1  0  0  0  0  0  0
    0.0917   -0.8983    1.3428 N   0  0  0  0  0  2  0  0  0  0  0  0
   -0.6993    1.6466    0.1851 N   0  0  0  0  0  2  0  0  0  0  0  0
    2.3263   -0.4510    2.1255 C   0  0  0  0  0  0  0  0  0  0  0  0
    3.2887    0.0487    1.9450 H   0  0  0  0  0  0  0  0  0  0  0  0
    3.2972   -0.3723   -1.1815 C   0  0  0  0  0  0  0  0  0  0  0  0
    2.7188   -0.7022   -2.0710 H   0  0  0  0  0  0  0  0  0  0  0  0
    3.3131   -1.2293   -0.4670 H   0  0  0  0  0  0  0  0  0  0  0  0
    1.3559    0.5011   -0.1253 C   0  0  2  0  0  0  0  0  0  0  0  0
    0.6455    1.8253    0.1789 C   0  0  2  0  0  3  0  0  0  0  0  0
    1.2409    3.0576    0.4355 C   0  0  0  0  0  0  0  0  0  0  0  0
    2.3357    3.1386    0.3994 H   0  0  0  0  0  0  0  0  0  0  0  0
    4.7089    0.0443   -1.5597 C   0  0  0  0  0  0  0  0  0  0  0  0
    5.2406    0.3856   -0.6448 H   0  0  0  0  0  0  0  0  0  0  0  0
    4.6437    0.9291   -2.2282 H   0  0  0  0  0  0  0  0  0  0  0  0
    0.4052    4.1531    0.7112 C   0  0  0  0  0  0  0  0  0  0  0  0
    0.8337    5.1487    0.8986 H   0  0  0  0  0  0  0  0  0  0  0  0
    0.8092   -1.8003    3.4424 C   0  0  0  0  0  0  0  0  0  0  0  0
    0.5724   -2.4040    4.3299 H   0  0  0  0  0  0  0  0  0  0  0  0
    1.3115   -0.3277    1.1792 C   0  0  2  0  0  3  0  0  0  0  0  0
    2.0769   -1.2171    3.2773 C   0  0  0  0  0  0  0  0  0  0  0  0
    2.8604   -1.3576    4.0363 H   0  0  0  0  0  0  0  0  0  0  0  0
   -0.1671   -1.6204    2.4579 C   0  0  0  0  0  0  0  0  0  0  0  0
   -1.1751   -2.0532    2.5321 H   0  0  0  0  0  0  0  0  0  0  0  0
    5.4840   -1.0847   -2.2389 C   0  0  0  0  0  0  0  0  0  0  0  0
    6.5079   -0.7619   -2.5117 H   0  0  0  0  0  0  0  0  0  0  0  0
    4.9797   -1.4192   -3.1689 H   0  0  0  0  0  0  0  0  0  0  0  0
    5.5785   -1.9706   -1.5769 H   0  0  0  0  0  0  0  0  0  0  0  0
   -0.9862    3.9587    0.7377 C   0  0  0  0  0  0  0  0  0  0  0  0
   -1.6727    4.7901    0.9509 H   0  0  0  0  0  0  0  0  0  0  0  0
   -1.5108    2.6911    0.4675 C   0  0  0  0  0  0  0  0  0  0  0  0
   -2.5902    2.4825    0.4561 H   0  0  0  0  0  0  0  0  0  0  0  0
  1 10  1  0  0  0  0
  3 24  1  0  0  0  0
  4 32  1  0  0  0  0
  5 22  2  0  0  0  0
  6  5  1  0  0  0  0
  7  1  1  0  0  0  0
  7  9  1  0  0  0  0
  8  7  1  0  0  0  0
 10  2  1  6  0  0  0
 11 10  1  1  0  0  0
 11  4  1  0  0  0  0
 11 12  1  0  0  0  0
 12 17  2  0  0  0  0
 13 12  1  0  0  0  0
 14  7  1  0  0  0  0
 14 15  1  0  0  0  0
 16 14  1  0  0  0  0
 17 30  1  0  0  0  0
 17 18  1  0  0  0  0
 19 20  1  0  0  0  0
 21 10  1  1  0  0  0
 21  3  1  0  0  0  0
 21  5  1  0  0  0  0
 22 19  1  0  0  0  0
 22 23  1  0  0  0  0
 24 25  1  0  0  0  0
 24 19  2  0  0  0  0
 26 29  1  0  0  0  0
 26 14  1  0  0  0  0
 27 26  1  0  0  0  0
 28 26  1  0  0  0  0
 30 31  1  0  0  0  0
 32 30  2  0  0  0  0
 33 32  1  0  0  0  0
M  END
