1,2,4
q = -1.0

 34 35  0  0  1  0  0  0  0  0999 V2000
   -0.8779    0.9725   -1.1384 O   0  5  0  0  0  0  0  0  0  0  0  0
    0.8204   -1.2276    1.4687 N   0  0  0  0  0  2  0  0  0  0  0  0
    1.5599   -2.6384    3.7624 N   0  0  0  0  0  0  0  0  0  0  0  0
   -1.2395    0.1184    1.1866 N   0  0  0  0  0  2  0  0  0  0  0  0
   -2.1933    0.9579    0.7825 N   0  0  0  0  0  0  0  0  0  0  0  0
   -2.7799    2.2003   -1.1399 N   0  0  0  0  0  0  0  0  0  0  0  0
   -2.4308    2.4414   -2.0699 H   0  0  0  0  0  0  0  0  0  0  0  0
    1.9809   -1.9134    1.5138 C   0  0  0  0  0  3  0  0  0  0  0  0
    2.6078   -1.9024    0.6106 H   0  0  0  0  0  0  0  0  0  0  0  0
    2.3555   -2.5821    2.6784 C   0  0  0  0  0  0  0  0  0  0  0  0
    3.3273   -3.1007    2.7313 H   0  0  0  0  0  0  0  0  0  0  0  0
    0.3952   -1.9746    3.7368 C   0  0  0  0  0  0  0  0  0  0  0  0
    0.0132   -1.1959    2.5990 C   0  0  0  0  0  0  0  0  0  0  0  0
   -0.4748   -2.1332    4.9573 C   0  0  0  0  0  0  0  0  0  0  0  0
   -0.0777   -2.9784    5.5483 H   0  0  0  0  0  0  0  0  0  0  0  0
   -1.5334   -2.3282    4.6999 H   0  0  0  0  0  0  0  0  0  0  0  0
   -0.4483   -1.2303    5.6021 H   0  0  0  0  0  0  0  0  0  0  0  0
   -1.1422   -0.3390    2.4390 C   0  0  1  0  0  3  0  0  0  0  0  0
   -2.1088    0.1217    3.4856 C   0  0  0  0  0  0  0  0  0  0  0  0
   -2.5199    1.1005    3.1732 H   0  0  0  0  0  0  0  0  0  0  0  0
   -1.6287    0.2307    4.4734 H   0  0  0  0  0  0  0  0  0  0  0  0
   -2.9690   -0.5729    3.5970 H   0  0  0  0  0  0  0  0  0  0  0  0
   -1.9142    1.3485   -0.4904 C   0  0  0  0  0  0  0  0  0  0  0  0
   -4.0058    2.7750   -0.7760 C   0  0  0  0  0  0  0  0  0  0  0  0
   -4.6069    3.6573   -1.7053 C   0  0  0  0  0  0  0  0  0  0  0  0
   -4.0979    3.8645   -2.6606 H   0  0  0  0  0  0  0  0  0  0  0  0
   -5.8341    4.2650   -1.4208 C   0  0  0  0  0  0  0  0  0  0  0  0
   -6.2813    4.9478   -2.1592 H   0  0  0  0  0  0  0  0  0  0  0  0
   -6.4894    4.0085   -0.2054 C   0  0  0  0  0  0  0  0  0  0  0  0
   -7.4538    4.4869    0.0200 H   0  0  0  0  0  0  0  0  0  0  0  0
   -5.8940    3.1335    0.7164 C   0  0  0  0  0  0  0  0  0  0  0  0
   -6.3950    2.9219    1.6737 H   0  0  0  0  0  0  0  0  0  0  0  0
   -4.6647    2.5161    0.4469 C   0  0  0  0  0  0  0  0  0  0  0  0
   -4.1964    1.8329    1.1656 H   0  0  0  0  0  0  0  0  0  0  0  0
  1 23  1  0  0  0  0
  2  8  1  0  0  0  0
  2 13  1  0  0  0  0
  5  4  1  0  0  0  0
  6 24  1  0  0  0  0
  6 23  1  0  0  0  0
  7  6  1  0  0  0  0
  8 10  1  0  0  0  0
  9  8  1  0  0  0  0
 10 11  1  0  0  0  0
 10  3  2  0  0  0  0
 12  3  1  0  0  0  0
 12 14  1  0  0  0  0
 13 12  2  0  0  0  0
 14 15  1  0  0  0  0
 14 17  1  0  0  0  0
 16 14  1  0  0  0  0
 18  4  1  1  0  0  0
 18 13  1  0  0  0  0
 18 19  1  0  0  0  0
 19 22  1  0  0  0  0
 19 21  1  0  0  0  0
 20 19  1  0  0  0  0
 23  5  2  0  0  0  0
 24 33  1  0  0  0  0
 25 27  1  0  0  0  0
 25 24  2  0  0  0  0
 26 25  1  0  0  0  0
 27 29  2  0  0  0  0
 28 27  1  0  0  0  0
 29 30  1  0  0  0  0
 29 31  1  0  0  0  0
 31 32  1  0  0  0  0
 33 31  2  0  0  0  0
 33 34  1  0  0  0  0
M  CHG  1   1  -1
M  END
