1,2,3
q = -1.0

 26 27  0  0  1  0  0  0  0  0999 V2000
   -0.3456    0.2625    1.6428 O   0  0  0  0  0  1  0  0  0  0  0  0
   -1.0092    1.7571   -0.2448 N   0  0  0  0  0  2  0  0  0  0  0  0
   -1.6849   -1.2050   -0.2266 N   0  0  0  0  0  2  0  0  0  0  0  0
   -1.0736    2.6311   -1.2759 C   0  0  0  0  0  3  0  0  0  0  0  0
   -0.4039    2.4223   -2.1225 H   0  0  0  0  0  0  0  0  0  0  0  0
   -1.9449    3.7242   -1.2494 C   0  0  0  0  0  0  0  0  0  0  0  0
   -1.9673    4.4154   -2.1036 H   0  0  0  0  0  0  0  0  0  0  0  0
   -2.7596    3.9269   -0.1257 C   0  0  0  0  0  0  0  0  0  0  0  0
   -3.4435    4.7868   -0.0749 H   0  0  0  0  0  0  0  0  0  0  0  0
   -2.6759    3.0174    0.9422 C   0  0  0  0  0  0  0  0  0  0  0  0
   -3.2869    3.1416    1.8484 H   0  0  0  0  0  0  0  0  0  0  0  0
   -1.7893    1.9429    0.8474 C   0  0  0  0  0  0  0  0  0  0  0  0
   -1.5767    0.8626    1.8988 C   0  0  1  0  0  0  0  0  0  0  0  0
   -1.5727    1.3316    2.9095 H   0  0  0  0  0  0  0  0  0  0  0  0
   -2.6622   -0.2217    1.8759 C   0  0  0  0  0  0  0  0  0  0  0  0
   -3.6591    0.2239    2.0705 H   0  0  0  0  0  0  0  0  0  0  0  0
   -2.4499   -0.9030    2.7292 H   0  0  0  0  0  0  0  0  0  0  0  0
   -2.7425   -1.0745    0.6243 C   0  0  2  0  0  3  0  0  0  0  0  0
   -3.9320   -1.7929    0.4008 C   0  0  0  0  0  0  0  0  0  0  0  0
   -4.7676   -1.6560    1.1029 H   0  0  0  0  0  0  0  0  0  0  0  0
   -4.0476   -2.6663   -0.6845 C   0  0  0  0  0  0  0  0  0  0  0  0
   -4.9789   -3.2248   -0.8596 H   0  0  0  0  0  0  0  0  0  0  0  0
   -2.9420   -2.8143   -1.5318 C   0  0  0  0  0  0  0  0  0  0  0  0
   -2.9569   -3.4984   -2.3917 H   0  0  0  0  0  0  0  0  0  0  0  0
   -1.7897   -2.0759   -1.2665 C   0  0  0  0  0  0  0  0  0  0  0  0
   -0.8991   -2.1670   -1.9023 H   0  0  0  0  0  0  0  0  0  0  0  0
  1 13  1  0  0  0  0
  2 12  1  0  0  0  0
  3 18  1  0  0  0  0
  4  6  1  0  0  0  0
  4  2  1  0  0  0  0
  5  4  1  0  0  0  0
  6  8  2  0  0  0  0
  7  6  1  0  0  0  0
  8  9  1  0  0  0  0
  8 10  1  0  0  0  0
 10 11  1  0  0  0  0
 12 10  2  0  0  0  0
 12 13  1  0  0  0  0
 13 14  1  1  0  0  0
 15 13  1  0  0  0  0
 15 16  1  0  0  0  0
 15 17  1  0  0  0  0
 18 15  1  1  0  0  0
 19 18  1  0  0  0  0
 19 20  1  0  0  0  0
 21 19  2  0  0  0  0
 22 21  1  0  0  0  0
 23 25  2  0  0  0  0
 23 21  1  0  0  0  0
 24 23  1  0  0  0  0
 25  3  1  0  0  0  0
 26 25  1  0  0  0  0
M  END
