1,3,4
q = -1.0

 24 24  0  0  0  0  0  0  0  0999 V2000
    0.3201    1.5654   -1.0835 N   0  0  0  0  0  2  0  0  0  0  0  0
    1.1469    1.7012   -2.1233 N   0  0  0  0  0  0  0  0  0  0  0  0
   -1.0005    0.9466    1.0002 N   0  0  0  0  0  2  0  0  0  0  0  0
    1.6827   -0.9244   -1.0135 O   0  5  0  0  0  0  0  0  0  0  0  0
    3.4871   -1.0069   -2.3053 O   0  0  0  0  0  0  0  0  0  0  0  0
   -1.3943    2.1059    0.3871 C   0  0  0  0  0  0  0  0  0  0  0  0
   -1.5449    0.5831    2.1730 C   0  0  0  0  0  0  0  0  0  0  0  0
   -1.1418   -0.3254    2.6423 H   0  0  0  0  0  0  0  0  0  0  0  0
   -2.5533    1.3339    2.7888 C   0  0  0  0  0  0  0  0  0  0  0  0
   -2.9662    1.0054    3.7524 H   0  0  0  0  0  0  0  0  0  0  0  0
   -3.0070    2.4995    2.1538 C   0  0  0  0  0  0  0  0  0  0  0  0
   -3.8048    3.1081    2.6036 H   0  0  0  0  0  0  0  0  0  0  0  0
   -2.4204    2.8923    0.9457 C   0  0  0  0  0  0  0  0  0  0  0  0
   -2.7469    3.8116    0.4418 H   0  0  0  0  0  0  0  0  0  0  0  0
   -0.6258    2.4473   -0.8035 C   0  0  0  0  0  0  0  0  0  0  0  0
    2.4990    1.1519   -2.0197 C   0  0  0  0  0  0  0  0  0  0  0  0
    3.0524    1.6428   -1.1870 H   0  0  0  0  0  0  0  0  0  0  0  0
    3.0156    1.3751   -2.9700 H   0  0  0  0  0  0  0  0  0  0  0  0
    2.5796   -0.3673   -1.7984 C   0  0  0  0  0  0  0  0  0  0  0  0
   -0.8084    3.6925   -1.6109 C   0  0  0  0  0  0  0  0  0  0  0  0
    0.1518    4.2451   -1.7116 H   0  0  0  0  0  0  0  0  0  0  0  0
   -1.5291    4.3858   -1.1453 H   0  0  0  0  0  0  0  0  0  0  0  0
   -1.1760    3.4687   -2.6363 H   0  0  0  0  0  0  0  0  0  0  0  0
    1.0807    2.6053   -2.6090 H   0  0  0  0  0  0  0  0  0  0  0  0
  1 15  1  0  0  0  0
  2 16  1  0  0  0  0
  2  1  1  0  0  0  0
  3  7  1  0  0  0  0
  5 19  2  0  0  0  0
  6 13  1  0  0  0  0
  6  3  1  0  0  0  0
  7  8  1  0  0  0  0
  7  9  2  0  0  0  0
  9 10  1  0  0  0  0
 11 12  1  0  0  0  0
 11  9  1  0  0  0  0
 13 11  2  0  0  0  0
 14 13  1  0  0  0  0
 15  6  2  0  0  0  0
 16 19  1  0  0  0  0
 16 17  1  0  0  0  0
 18 16  1  0  0  0  0
 19  4  1  0  0  0  0
 20 22  1  0  0  0  0
 20 15  1  0  0  0  0
 21 20  1  0  0  0  0
 23 20  1  0  0  0  0
 24  2  1  0  0  0  0
M  CHG  1   4  -1
M  END
