1,2,3
q = -1.0, confidence = 0.12

 81 85  0  0  1  0  0  0  0  0999 V2000
    0.2215    0.5773   -0.3847 N   0  0  0  0  0  2  0  0  0  0  0  0
   -2.1355   -0.9106    0.0485 N   0  0  0  0  0  0  0  0  0  0  0  0
    1.8946   -1.5408   -0.3391 O   0  5  0  0  0  0  0  0  0  0  0  0
   -3.0005   -1.3004   -1.1243 C   0  0  0  0  0  0  0  0  0  0  0  0
   -2.9576   -0.5343   -1.9187 H   0  0  0  0  0  0  0  0  0  0  0  0
   -2.5754   -2.2271   -1.5610 H   0  0  0  0  0  0  0  0  0  0  0  0
   -4.3651   -1.5535   -0.5401 C   0  0  0  0  0  0  0  0  0  0  0  0
   -5.6185   -1.6219   -1.1568 C   0  0  0  0  0  0  0  0  0  0  0  0
   -5.7273   -1.4454   -2.2379 H   0  0  0  0  0  0  0  0  0  0  0  0
   -6.7436   -1.9105   -0.3635 C   0  0  0  0  0  0  0  0  0  0  0  0
   -7.7401   -1.9598   -0.8280 H   0  0  0  0  0  0  0  0  0  0  0  0
   -6.6078   -2.1302    1.0184 C   0  0  0  0  0  0  0  0  0  0  0  0
   -7.4988   -2.3516    1.6254 H   0  0  0  0  0  0  0  0  0  0  0  0
   -5.3450   -2.0603    1.6338 C   0  0  0  0  0  0  0  0  0  0  0  0
   -5.2414   -2.2241    2.7175 H   0  0  0  0  0  0  0  0  0  0  0  0
   -4.2307   -1.7643    0.8419 C   0  0  0  0  0  0  0  0  0  0  0  0
   -2.7799   -1.6296    1.2172 C   0  0  0  0  0  0  0  0  0  0  0  0
   -2.5801   -1.0811    2.1550 H   0  0  0  0  0  0  0  0  0  0  0  0
   -2.2959   -2.6230    1.3167 H   0  0  0  0  0  0  0  0  0  0  0  0
   -2.1130    0.5820    0.3054 C   0  0  2  0  0  0  0  0  0  0  0  0
   -1.7141    0.6544    1.3358 H   0  0  0  0  0  0  0  0  0  0  0  0
   -3.4693    1.2644    0.2651 C   0  0  0  0  0  0  0  0  0  0  0  0
   -4.0425    1.7322   -0.9348 C   0  0  0  0  0  0  0  0  0  0  0  0
   -3.4902    1.6479   -1.8821 H   0  0  0  0  0  0  0  0  0  0  0  0
   -5.3172    2.3140   -0.9431 C   0  0  0  0  0  0  0  0  0  0  0  0
   -5.7479    2.6696   -1.8912 H   0  0  0  0  0  0  0  0  0  0  0  0
   -6.0403    2.4462    0.2523 C   0  0  0  0  0  0  0  0  0  0  0  0
   -7.0430    2.8996    0.2453 H   0  0  0  0  0  0  0  0  0  0  0  0
   -5.4718    2.0075    1.4575 C   0  0  0  0  0  0  0  0  0  0  0  0
   -6.0249    2.1169    2.4025 H   0  0  0  0  0  0  0  0  0  0  0  0
   -4.1953    1.4293    1.4607 C   0  0  0  0  0  0  0  0  0  0  0  0
   -3.7522    1.0912    2.4104 H   0  0  0  0  0  0  0  0  0  0  0  0
   -1.0638    1.2594   -0.6084 C   0  0  1  0  0  0  0  0  0  0  0  0
   -1.3230    1.0443   -1.6683 H   0  0  0  0  0  0  0  0  0  0  0  0
   -1.0259    2.7623   -0.4091 C   0  0  0  0  0  0  0  0  0  0  0  0
   -0.8750    3.3153    0.8795 C   0  0  0  0  0  0  0  0  0  0  0  0
   -0.7783    2.6506    1.7521 H   0  0  0  0  0  0  0  0  0  0  0  0
   -0.8320    4.7045    1.0571 C   0  0  0  0  0  0  0  0  0  0  0  0
   -0.7178    5.1226    2.0686 H   0  0  0  0  0  0  0  0  0  0  0  0
   -0.9363    5.5615   -0.0514 C   0  0  0  0  0  0  0  0  0  0  0  0
   -0.9059    6.6525    0.0895 H   0  0  0  0  0  0  0  0  0  0  0  0
   -1.0759    5.0208   -1.3383 C   0  0  0  0  0  0  0  0  0  0  0  0
   -1.1536    5.6853   -2.2120 H   0  0  0  0  0  0  0  0  0  0  0  0
   -1.1173    3.6287   -1.5133 C   0  0  0  0  0  0  0  0  0  0  0  0
   -1.2250    3.2036   -2.5239 H   0  0  0  0  0  0  0  0  0  0  0  0
    1.3357    1.2420   -0.3313 C   0  0  0  0  0  3  0  0  0  0  0  0
    1.2952    2.3465   -0.4150 H   0  0  0  0  0  0  0  0  0  0  0  0
    2.6650    0.6915   -0.1609 C   0  0  0  0  0  0  0  0  0  0  0  0
    3.7462    1.5933   -0.0114 C   0  0  0  0  0  0  0  0  0  0  0  0
    3.5189    2.6688   -0.0181 H   0  0  0  0  0  0  0  0  0  0  0  0
    5.0564    1.1376    0.1477 C   0  0  0  0  0  0  0  0  0  0  0  0
    5.2594   -0.2656    0.1446 C   0  0  0  0  0  0  0  0  0  0  0  0
    6.2858   -0.6345    0.2708 H   0  0  0  0  0  0  0  0  0  0  0  0
    4.2395   -1.2156   -0.0100 C   0  0  0  0  0  0  0  0  0  0  0  0
    2.9141   -0.7130   -0.1683 C   0  0  0  0  0  0  0  0  0  0  0  0
    6.2598    2.0787    0.3223 C   0  0  0  0  0  0  0  0  0  0  0  0
    7.2665    1.8358   -0.8252 C   0  0  0  0  0  0  0  0  0  0  0  0
    7.6339    0.7903   -0.8371 H   0  0  0  0  0  0  0  0  0  0  0  0
    8.1484    2.5000   -0.7139 H   0  0  0  0  0  0  0  0  0  0  0  0
    6.8014    2.0410   -1.8105 H   0  0  0  0  0  0  0  0  0  0  0  0
    5.8405    3.5583    0.2972 C   0  0  0  0  0  0  0  0  0  0  0  0
    5.3644    3.8357   -0.6650 H   0  0  0  0  0  0  0  0  0  0  0  0
    6.7322    4.2041    0.4254 H   0  0  0  0  0  0  0  0  0  0  0  0
    5.1337    3.8005    1.1165 H   0  0  0  0  0  0  0  0  0  0  0  0
    6.9412    1.7862    1.6787 C   0  0  0  0  0  0  0  0  0  0  0  0
    6.2381    1.9533    2.5195 H   0  0  0  0  0  0  0  0  0  0  0  0
    7.8178    2.4511    1.8231 H   0  0  0  0  0  0  0  0  0  0  0  0
    7.3003    0.7397    1.7426 H   0  0  0  0  0  0  0  0  0  0  0  0
    4.5114   -2.7301    0.0004 C   0  0  0  0  0  0  0  0  0  0  0  0
    3.7510   -3.3837    1.1803 C   0  0  0  0  0  0  0  0  0  0  0  0
    3.9668   -4.4716    1.2070 H   0  0  0  0  0  0  0  0  0  0  0  0
    2.6567   -3.2567    1.0943 H   0  0  0  0  0  0  0  0  0  0  0  0
    4.0741   -2.9459    2.1465 H   0  0  0  0  0  0  0  0  0  0  0  0
    4.0518   -3.3536   -1.3398 C   0  0  0  0  0  0  0  0  0  0  0  0
    4.5974   -2.9000   -2.1921 H   0  0  0  0  0  0  0  0  0  0  0  0
    2.9681   -3.2177   -1.5083 H   0  0  0  0  0  0  0  0  0  0  0  0
    4.2644   -4.4425   -1.3380 H   0  0  0  0  0  0  0  0  0  0  0  0
    6.0105   -3.0337    0.1757 C   0  0  0  0  0  0  0  0  0  0  0  0
    6.6215   -2.6137   -0.6493 H   0  0  0  0  0  0  0  0  0  0  0  0
    6.1631   -4.1312    0.1753 H   0  0  0  0  0  0  0  0  0  0  0  0
    6.4062   -2.6454    1.1364 H   0  0  0  0  0  0  0  0  0  0  0  0
  1 46  1  0  0  0  0
  2 20  1  0  0  0  0
  2 17  1  0  0  0  0
  3 55  1  0  0  0  0
  4  7  1  0  0  0  0
  4  2  1  0  0  0  0
  5  4  1  0  0  0  0
  6  4  1  0  0  0  0
  7 16  1  0  0  0  0
  8  7  2  0  0  0  0
  8 10  1  0  0  0  0
  9  8  1  0  0  0  0
 10 12  2  0  0  0  0
 11 10  1  0  0  0  0
 12 13  1  0  0  0  0
 12 14  1  0  0  0  0
 14 15  1  0  0  0  0
 16 17  1  0  0  0  0
 16 14  2  0  0  0  0
 17 19  1  0  0  0  0
 17 18  1  0  0  0  0
 20 21  1  1  0  0  0
 22 20  1  0  0  0  0
 22 31  1  0  0  0  0
 23 22  2  0  0  0  0
 24 23  1  0  0  0  0
 25 23  1  0  0  0  0
 25 27  2  0  0  0  0
 26 25  1  0  0  0  0
 27 29  1  0  0  0  0
 28 27  1  0  0  0  0
 29 31  2  0  0  0  0
 29 30  1  0  0  0  0
 31 32  1  0  0  0  0
 33 34  1  6  0  0  0
 33 35  1  0  0  0  0
 33  1  1  0  0  0  0
 33 20  1  0  0  0  0
 35 36  1  0  0  0  0
 36 38  2  0  0  0  0
 36 37  1  0  0  0  0
 38 39  1  0  0  0  0
 40 41  1  0  0  0  0
 40 38  1  0  0  0  0
 42 40  2  0  0  0  0
 43 42  1  0  0  0  0
 44 42  1  0  0  0  0
 44 35  2  0  0  0  0
 45 44  1  0  0  0  0
 46 48  1  0  0  0  0
 47 46  1  0  0  0  0
 48 49  1  0  0  0  0
 49 51  2  0  0  0  0
 50 49  1  0  0  0  0
 51 56  1  0  0  0  0
 52 51  1  0  0  0  0
 52 53  1  0  0  0  0
 54 69  1  0  0  0  0
 54 52  2  0  0  0  0
 55 48  2  0  0  0  0
 55 54  1  0  0  0  0
 56 65  1  0  0  0  0
 57 59  1  0  0  0  0
 57 56  1  0  0  0  0
 58 57  1  0  0  0  0
 60 57  1  0  0  0  0
 61 56  1  0  0  0  0
 61 63  1  0  0  0  0
 61 64  1  0  0  0  0
 62 61  1  0  0  0  0
 65 68  1  0  0  0  0
 65 67  1  0  0  0  0
 65 66  1  0  0  0  0
 69 78  1  0  0  0  0
 69 70  1  0  0  0  0
 70 71  1  0  0  0  0
 70 73  1  0  0  0  0
 72 70  1  0  0  0  0
 74 77  1  0  0  0  0
 74 69  1  0  0  0  0
 75 74  1  0  0  0  0
 76 74  1  0  0  0  0
 78 81  1  0  0  0  0
 79 78  1  0  0  0  0
 80 78  1  0  0  0  0
M  CHG  1   3  -1
M  END
