1,2,3
q = -1.0

 25 24  0  0  0  0  0  0  0  0999 V2000
    0.3066   -0.1037   -1.9955 O   0  5  0  0  0  0  0  0  0  0  0  0
    1.7695   -1.4472    0.0714 N   0  0  0  0  0  0  0  0  0  0  0  0
    1.7647    1.5674    0.2084 N   0  0  0  0  0  0  0  0  0  0  0  0
    1.1620   -1.0631   -2.2537 C   0  0  0  0  0  0  0  0  0  0  0  0
    1.8947   -1.7687   -1.3319 C   0  0  0  0  0  0  0  0  0  0  0  0
    1.5989   -2.6235    0.9284 C   0  0  0  0  0  0  0  0  0  0  0  0
    2.8909   -0.6332    0.5810 C   0  0  0  0  0  0  0  0  0  0  0  0
    2.9406    0.7259   -0.0903 C   0  0  0  0  0  0  0  0  0  0  0  0
    1.8232    2.0947    1.5776 C   0  0  0  0  0  0  0  0  0  0  0  0
    1.6910    2.6415   -0.7863 C   0  0  0  0  0  0  0  0  0  0  0  0
    1.3042   -1.3285   -3.3278 H   0  0  0  0  0  0  0  0  0  0  0  0
    2.6188   -2.5483   -1.6312 H   0  0  0  0  0  0  0  0  0  0  0  0
    0.7297   -3.2160    0.5963 H   0  0  0  0  0  0  0  0  0  0  0  0
    1.4107   -2.2981    1.9702 H   0  0  0  0  0  0  0  0  0  0  0  0
    2.5031   -3.2802    0.9104 H   0  0  0  0  0  0  0  0  0  0  0  0
    3.8670   -1.1521    0.4137 H   0  0  0  0  0  0  0  0  0  0  0  0
    2.7641   -0.5256    1.6785 H   0  0  0  0  0  0  0  0  0  0  0  0
    3.8790    1.2593    0.2011 H   0  0  0  0  0  0  0  0  0  0  0  0
    2.9760    0.5637   -1.1865 H   0  0  0  0  0  0  0  0  0  0  0  0
    0.9785    2.7869    1.7452 H   0  0  0  0  0  0  0  0  0  0  0  0
    2.7773    2.6456    1.7657 H   0  0  0  0  0  0  0  0  0  0  0  0
    1.7076    1.2709    2.3052 H   0  0  0  0  0  0  0  0  0  0  0  0
    0.8668    3.3356   -0.5356 H   0  0  0  0  0  0  0  0  0  0  0  0
    1.4902    2.1934   -1.7788 H   0  0  0  0  0  0  0  0  0  0  0  0
    2.6348    3.2381   -0.8278 H   0  0  0  0  0  0  0  0  0  0  0  0
  2  7  1  0  0  0  0
  2  6  1  0  0  0  0
  3  9  1  0  0  0  0
  4  1  1  0  0  0  0
  4  5  2  0  0  0  0
  5  2  1  0  0  0  0
  6 14  1  0  0  0  0
  7 17  1  0  0  0  0
  8 18  1  0  0  0  0
  8  3  1  0  0  0  0
  8  7  1  0  0  0  0
  9 20  1  0  0  0  0
  9 21  1  0  0  0  0
  9 22  1  0  0  0  0
 10 23  1  0  0  0  0
 10  3  1  0  0  0  0
 11  4  1  0  0  0  0
 12  5  1  0  0  0  0
 13  6  1  0  0  0  0
 15  6  1  0  0  0  0
 16  7  1  0  0  0  0
 19  8  1  0  0  0  0
 24 10  1  0  0  0  0
 25 10  1  0  0  0  0
M  CHG  1   1  -1
M  END
