6,7,8
q = -1.0

 38 39  0  0  0  0  0  0  0  0999 V2000
   -3.0629    0.5347   -0.0437 S   0  0  0  0  0  0  0  0  0  0  0  0
   -2.3842   -1.9057    1.5129 O   0  0  0  0  0  0  0  0  0  0  0  0
   -4.0951   -3.0095    2.3100 O   0  0  0  0  0  0  0  0  0  0  0  0
   -3.1863    0.7085    1.4086 O   0  0  0  0  0  0  0  0  0  0  0  0
   -3.3551    1.6377   -0.9751 O   0  0  0  0  0  0  0  0  0  0  0  0
    1.8232    1.8003    0.6936 O   0  5  0  0  0  0  0  0  0  0  0  0
    1.0338    0.0980   -1.3924 N   0  0  0  0  0  2  0  0  0  0  0  0
   -1.4391   -0.0472   -0.4849 N   0  0  0  0  0  0  0  0  0  0  0  0
   -1.3132   -0.9890   -0.0395 H   0  0  0  0  0  0  0  0  0  0  0  0
   -3.5345   -2.3396    1.4510 N   0  0  0  0  0  0  0  0  0  0  0  0
    3.0096    1.6366    0.1828 C   0  0  0  0  0  0  0  0  0  0  0  0
    3.3077    0.8833   -1.0100 C   0  0  0  0  0  0  0  0  0  0  0  0
    4.6426    0.8266   -1.4946 C   0  0  0  0  0  0  0  0  0  0  0  0
    4.8341    0.2497   -2.4134 H   0  0  0  0  0  0  0  0  0  0  0  0
    5.6878    1.4602   -0.8341 C   0  0  0  0  0  0  0  0  0  0  0  0
    6.7149    1.4029   -1.2217 H   0  0  0  0  0  0  0  0  0  0  0  0
    5.4033    2.1832    0.3502 C   0  0  0  0  0  0  0  0  0  0  0  0
    6.2190    2.6919    0.8882 H   0  0  0  0  0  0  0  0  0  0  0  0
    4.1076    2.2721    0.8462 C   0  0  0  0  0  0  0  0  0  0  0  0
    3.8784    2.8449    1.7563 H   0  0  0  0  0  0  0  0  0  0  0  0
    2.2835    0.1997   -1.7419 C   0  0  0  0  0  3  0  0  0  0  0  0
    2.5937   -0.2993   -2.6818 H   0  0  0  0  0  0  0  0  0  0  0  0
    0.1004   -0.5951   -2.2805 C   0  0  0  0  0  0  0  0  0  0  0  0
    0.1902   -1.6860   -2.1175 H   0  0  0  0  0  0  0  0  0  0  0  0
    0.3328   -0.3824   -3.3445 H   0  0  0  0  0  0  0  0  0  0  0  0
   -1.3080   -0.1210   -1.9638 C   0  0  0  0  0  0  0  0  0  0  0  0
   -1.4742    0.9024   -2.3444 H   0  0  0  0  0  0  0  0  0  0  0  0
   -2.0579   -0.8140   -2.4013 H   0  0  0  0  0  0  0  0  0  0  0  0
   -4.1246   -0.8663   -0.5328 C   0  0  0  0  0  0  0  0  0  0  0  0
   -4.8970   -0.6659   -1.6873 C   0  0  0  0  0  0  0  0  0  0  0  0
   -4.7782    0.2807   -2.2342 H   0  0  0  0  0  0  0  0  0  0  0  0
   -5.8071   -1.6470   -2.1096 C   0  0  0  0  0  0  0  0  0  0  0  0
   -6.3974   -1.4819   -3.0228 H   0  0  0  0  0  0  0  0  0  0  0  0
   -5.9714   -2.8226   -1.3623 C   0  0  0  0  0  0  0  0  0  0  0  0
   -6.6860   -3.5931   -1.6868 H   0  0  0  0  0  0  0  0  0  0  0  0
   -5.2306   -3.0158   -0.1889 C   0  0  0  0  0  0  0  0  0  0  0  0
   -5.3518   -3.9108    0.4366 H   0  0  0  0  0  0  0  0  0  0  0  0
   -4.3038   -2.0478    0.2164 C   0  0  0  0  0  0  0  0  0  0  0  0
  1  4  2  0  0  0  0
  5  1  2  0  0  0  0
  8  1  1  0  0  0  0
  8  9  1  0  0  0  0
 10  2  2  0  0  0  0
 10  3  2  0  0  0  0
 11  6  1  0  0  0  0
 11 19  1  0  0  0  0
 12 11  2  0  0  0  0
 13 12  1  0  0  0  0
 13 15  2  0  0  0  0
 14 13  1  0  0  0  0
 15 17  1  0  0  0  0
 16 15  1  0  0  0  0
 17 19  2  0  0  0  0
 17 18  1  0  0  0  0
 19 20  1  0  0  0  0
 21  7  1  0  0  0  0
 21 12  1  0  0  0  0
 22 21  1  0  0  0  0
 23 24  1  0  0  0  0
 23 26  1  0  0  0  0
 23  7  1  0  0  0  0
 25 23  1  0  0  0  0
 26  8  1  0  0  0  0
 27 26  1  0  0  0  0
 28 26  1  0  0  0  0
 29  1  1  0  0  0  0
 29 38  1  0  0  0  0
 30 29  2  0  0  0  0
 31 30  1  0  0  0  0
 32 30  1  0  0  0  0
 32 34  2  0  0  0  0
 33 32  1  0  0  0  0
 34 36  1  0  0  0  0
 35 34  1  0  0  0  0
 36 38  2  0  0  0  0
 36 37  1  0  0  0  0
 38 10  1  0  0  0  0
M  CHG  1   6  -1
M  END
