1,3
q = -1.0

 36 36  0  0  1  0  0  0  0  0999 V2000
   -1.3599   -0.8312   -0.7085 N   0  0  0  0  0  2  0  0  0  0  0  0
    1.1439   -1.0026    0.8737 N   0  0  0  0  0  0  0  0  0  0  0  0
   -0.3238    1.8400   -0.0376 O   0  5  0  0  0  0  0  0  0  0  0  0
   -2.4932   -0.2945   -0.2737 C   0  0  2  0  0  3  0  0  0  0  0  0
   -2.6068    1.0811    0.0942 C   0  0  0  0  0  0  0  0  0  0  0  0
   -3.6128    1.4231    0.3722 H   0  0  0  0  0  0  0  0  0  0  0  0
   -1.5703    2.0303    0.2158 C   0  0  0  0  0  0  0  0  0  0  0  0
   -3.7459   -1.1412   -0.1245 C   0  0  0  0  0  0  0  0  0  0  0  0
   -3.9976   -1.6671   -1.0683 H   0  0  0  0  0  0  0  0  0  0  0  0
   -4.6103   -0.5164    0.1625 H   0  0  0  0  0  0  0  0  0  0  0  0
   -3.6172   -1.9200    0.6559 H   0  0  0  0  0  0  0  0  0  0  0  0
   -1.9134    3.4195    0.7192 C   0  0  0  0  0  0  0  0  0  0  0  0
   -1.3515    3.6207    1.6554 H   0  0  0  0  0  0  0  0  0  0  0  0
   -2.9934    3.5629    0.9088 H   0  0  0  0  0  0  0  0  0  0  0  0
   -1.5679    4.1712   -0.0198 H   0  0  0  0  0  0  0  0  0  0  0  0
   -1.1960   -2.2630   -0.8831 C   0  0  0  0  0  0  0  0  0  0  0  0
   -0.5956   -2.4358   -1.8048 H   0  0  0  0  0  0  0  0  0  0  0  0
   -2.1593   -2.7975   -1.0303 H   0  0  0  0  0  0  0  0  0  0  0  0
   -0.4554   -2.8988    0.3092 C   0  0  0  0  0  0  0  0  0  0  0  0
   -0.4108   -3.9974    0.1499 H   0  0  0  0  0  0  0  0  0  0  0  0
   -1.0530   -2.7469    1.2337 H   0  0  0  0  0  0  0  0  0  0  0  0
    0.9848   -2.4228    0.5299 C   0  0  0  0  0  0  0  0  0  0  0  0
    1.4495   -3.0493    1.3344 H   0  0  0  0  0  0  0  0  0  0  0  0
    1.5763   -2.6003   -0.3946 H   0  0  0  0  0  0  0  0  0  0  0  0
    2.5535   -0.6159    1.0723 C   0  0  0  0  0  0  0  0  0  0  0  0
    3.0986   -0.6589    0.1082 H   0  0  0  0  0  0  0  0  0  0  0  0
    3.0506   -1.3196    1.7877 H   0  0  0  0  0  0  0  0  0  0  0  0
    2.4421    0.7885    1.6644 C   0  0  0  0  0  0  0  0  0  0  0  0
    2.2849    1.5237    0.8496 H   0  0  0  0  0  0  0  0  0  0  0  0
    3.3544    1.0857    2.2163 H   0  0  0  0  0  0  0  0  0  0  0  0
    1.1793    0.7127    2.5571 C   0  0  0  0  0  0  0  0  0  0  0  0
    1.4368    0.6559    3.6327 H   0  0  0  0  0  0  0  0  0  0  0  0
    0.5435    1.6041    2.4057 H   0  0  0  0  0  0  0  0  0  0  0  0
    0.4513   -0.5766    2.1102 C   0  0  0  0  0  0  0  0  0  0  0  0
    0.5440   -1.3750    2.8872 H   0  0  0  0  0  0  0  0  0  0  0  0
   -0.6264   -0.4213    1.9077 H   0  0  0  0  0  0  0  0  0  0  0  0
  2 25  1  0  0  0  0
  2 34  1  0  0  0  0
  3  7  1  0  0  0  0
  4  1  1  1  0  0  0
  4  8  1  0  0  0  0
  4  5  1  0  0  0  0
  5  7  2  0  0  0  0
  5  6  1  0  0  0  0
  7 12  1  0  0  0  0
  8 10  1  0  0  0  0
  8 11  1  0  0  0  0
  9  8  1  0  0  0  0
 12 14  1  0  0  0  0
 12 13  1  0  0  0  0
 15 12  1  0  0  0  0
 16  1  1  0  0  0  0
 16 19  1  0  0  0  0
 17 16  1  0  0  0  0
 18 16  1  0  0  0  0
 19 22  1  0  0  0  0
 19 21  1  0  0  0  0
 20 19  1  0  0  0  0
 22  2  1  0  0  0  0
 22 23  1  0  0  0  0
 24 22  1  0  0  0  0
 25 28  1  0  0  0  0
 25 27  1  0  0  0  0
 26 25  1  0  0  0  0
 28 30  1  0  0  0  0
 28 31  1  0  0  0  0
 29 28  1  0  0  0  0
 31 32  1  0  0  0  0
 33 31  1  0  0  0  0
 34 31  1  0  0  0  0
 34 35  1  0  0  0  0
 36 34  1  0  0  0  0
M  CHG  1   3  -1
M  END
