28,30,32
q = -1.0, confidence = 0.02

 32 33  0  0  1  0  0  0  0  0999 V2000
   -2.3047   -1.7374   -1.3335 C   0  0  0  0  0  3  0  0  0  0  0  0
   -1.8104   -2.4969   -0.7117 H   0  0  0  0  0  0  0  0  0  0  0  0
   -3.3632   -2.0400   -2.1959 C   0  0  0  0  0  0  0  0  0  0  0  0
   -3.7236   -3.0775   -2.2950 H   0  0  0  0  0  0  0  0  0  0  0  0
   -3.5485    0.1749   -2.8452 C   0  0  0  0  0  0  0  0  0  0  0  0
   -2.4334    0.5176   -2.0138 C   0  0  0  0  0  0  0  0  0  0  0  0
   -4.3079    1.1781   -3.6680 C   0  0  0  0  0  0  0  0  0  0  0  0
   -4.6877    2.0194   -3.0564 H   0  0  0  0  0  0  0  0  0  0  0  0
   -5.1628    0.6583   -4.1352 H   0  0  0  0  0  0  0  0  0  0  0  0
   -3.6805    1.6101   -4.4730 H   0  0  0  0  0  0  0  0  0  0  0  0
   -1.7747    1.8032   -1.8630 C   0  0  2  0  0  3  0  0  0  0  0  0
   -2.0686    3.0807   -2.5811 C   0  0  0  0  0  0  0  0  0  0  0  0
   -2.0109    2.9507   -3.6796 H   0  0  0  0  0  0  0  0  0  0  0  0
   -1.3238    3.8363   -2.2751 H   0  0  0  0  0  0  0  0  0  0  0  0
   -3.0802    3.4650   -2.3435 H   0  0  0  0  0  0  0  0  0  0  0  0
    0.9678    2.3195    0.1943 C   0  0  0  0  0  0  0  0  0  0  0  0
    1.9942    3.2582    0.6750 C   0  0  0  0  0  0  0  0  0  0  0  0
    2.0298    4.5923    0.2068 C   0  0  0  0  0  0  0  0  0  0  0  0
    1.2762    4.9229   -0.5212 H   0  0  0  0  0  0  0  0  0  0  0  0
    3.0161    5.4685    0.6715 C   0  0  0  0  0  0  0  0  0  0  0  0
    3.0428    6.5059    0.3063 H   0  0  0  0  0  0  0  0  0  0  0  0
    3.9711    5.0258    1.6033 C   0  0  0  0  0  0  0  0  0  0  0  0
    4.7450    5.7184    1.9670 H   0  0  0  0  0  0  0  0  0  0  0  0
    3.9397    3.7006    2.0717 C   0  0  0  0  0  0  0  0  0  0  0  0
    4.6887    3.3570    2.8005 H   0  0  0  0  0  0  0  0  0  0  0  0
    2.9569    2.8183    1.6113 C   0  0  0  0  0  0  0  0  0  0  0  0
    2.9161    1.7780    1.9633 H   0  0  0  0  0  0  0  0  0  0  0  0
   -1.8516   -0.4761   -1.2488 N   0  0  0  0  0  2  0  0  0  0  0  0
   -3.9773   -1.0947   -2.9210 N   0  0  0  0  0  0  0  0  0  0  0  0
   -0.7578    1.7198   -0.9983 N   0  0  0  0  0  2  0  0  0  0  0  0
    0.0605    2.7336   -0.7032 N   0  0  0  0  0  0  0  0  0  0  0  0
    0.9652    1.0977    0.6476 O   0  5  0  0  0  0  0  0  0  0  0  0
  1 28  1  0  0  0  0
  1  2  1  0  0  0  0
  3  1  1  0  0  0  0
  4  3  1  0  0  0  0
  5  6  2  0  0  0  0
  6 11  1  0  0  0  0
  6 28  1  0  0  0  0
  7  8  1  0  0  0  0
  7  5  1  0  0  0  0
  9  7  1  0  0  0  0
 10  7  1  0  0  0  0
 11 30  1  6  0  0  0
 12 15  1  0  0  0  0
 12 14  1  0  0  0  0
 12 11  1  0  0  0  0
 13 12  1  0  0  0  0
 16 32  1  0  0  0  0
 16 17  1  0  0  0  0
 17 26  1  0  0  0  0
 18 20  1  0  0  0  0
 18 17  2  0  0  0  0
 19 18  1  0  0  0  0
 20 22  2  0  0  0  0
 21 20  1  0  0  0  0
 22 23  1  0  0  0  0
 22 24  1  0  0  0  0
 24 25  1  0  0  0  0
 26 27  1  0  0  0  0
 26 24  2  0  0  0  0
 29  5  1  0  0  0  0
 29  3  2  0  0  0  0
 30 31  1  0  0  0  0
 31 16  2  0  0  0  0
M  CHG  1  32  -1
M  END
