1,2,3
q = -1.0

 32 32  0  0  0  0  0  0  0  0999 V2000
    1.7014    0.6476   -0.9768 O   0  5  0  0  0  0  0  0  0  0  0  0
   -0.3406   -2.6676   -0.9465 N   0  0  0  0  0  0  0  0  0  0  0  0
    1.0532   -1.0803    1.3679 N   0  0  0  0  0  2  0  0  0  0  0  0
   -0.6979   -3.4779    0.2437 C   0  0  0  0  0  0  0  0  0  0  0  0
   -0.8060   -4.5452   -0.0768 H   0  0  0  0  0  0  0  0  0  0  0  0
   -1.7034   -3.1338    0.5687 H   0  0  0  0  0  0  0  0  0  0  0  0
    0.2705   -3.4387    1.4297 C   0  0  0  0  0  0  0  0  0  0  0  0
    1.2812   -3.7945    1.1352 H   0  0  0  0  0  0  0  0  0  0  0  0
   -0.1088   -4.1851    2.1591 H   0  0  0  0  0  0  0  0  0  0  0  0
    0.4112   -2.1024    2.1808 C   0  0  0  0  0  0  0  0  0  0  0  0
   -0.6006   -1.7435    2.4705 H   0  0  0  0  0  0  0  0  0  0  0  0
    0.9894   -2.2771    3.1191 H   0  0  0  0  0  0  0  0  0  0  0  0
    2.2867   -0.7514    1.6231 C   0  0  0  0  0  3  0  0  0  0  0  0
    2.7587   -1.2178    2.5219 H   0  0  0  0  0  0  0  0  0  0  0  0
    3.1655    0.1353    0.8935 C   0  0  0  0  0  0  0  0  0  0  0  0
    4.4513    0.3459    1.4703 C   0  0  0  0  0  0  0  0  0  0  0  0
    4.6709   -0.1499    2.4306 H   0  0  0  0  0  0  0  0  0  0  0  0
    5.4189    1.1412    0.8684 C   0  0  0  0  0  0  0  0  0  0  0  0
    6.4007    1.2859    1.3410 H   0  0  0  0  0  0  0  0  0  0  0  0
    5.1152    1.7542   -0.3697 C   0  0  0  0  0  0  0  0  0  0  0  0
    5.8702    2.3835   -0.8677 H   0  0  0  0  0  0  0  0  0  0  0  0
    3.8747    1.5714   -0.9710 C   0  0  0  0  0  0  0  0  0  0  0  0
    3.6365    2.0430   -1.9366 H   0  0  0  0  0  0  0  0  0  0  0  0
    2.8487    0.7703   -0.3742 C   0  0  0  0  0  0  0  0  0  0  0  0
   -1.3999   -2.8126   -1.9595 C   0  0  0  0  0  0  0  0  0  0  0  0
   -2.3721   -2.5283   -1.5128 H   0  0  0  0  0  0  0  0  0  0  0  0
   -1.4676   -3.8663   -2.3237 H   0  0  0  0  0  0  0  0  0  0  0  0
   -1.1792   -2.1449   -2.8133 H   0  0  0  0  0  0  0  0  0  0  0  0
    0.9654   -3.0240   -1.5122 C   0  0  0  0  0  0  0  0  0  0  0  0
    1.1387   -2.4201   -2.4232 H   0  0  0  0  0  0  0  0  0  0  0  0
    1.0165   -4.1064   -1.7846 H   0  0  0  0  0  0  0  0  0  0  0  0
    1.7755   -2.7964   -0.7942 H   0  0  0  0  0  0  0  0  0  0  0  0
  1 24  1  0  0  0  0
  2  4  1  0  0  0  0
  3 13  1  0  0  0  0
  3 10  1  0  0  0  0
  4  6  1  0  0  0  0
  4  7  1  0  0  0  0
  5  4  1  0  0  0  0
  7  9  1  0  0  0  0
  7 10  1  0  0  0  0
  8  7  1  0  0  0  0
 10 11  1  0  0  0  0
 10 12  1  0  0  0  0
 13 14  1  0  0  0  0
 15 16  1  0  0  0  0
 15 13  1  0  0  0  0
 16 17  1  0  0  0  0
 18 19  1  0  0  0  0
 18 16  2  0  0  0  0
 20 18  1  0  0  0  0
 21 20  1  0  0  0  0
 22 24  1  0  0  0  0
 22 20  2  0  0  0  0
 23 22  1  0  0  0  0
 24 15  2  0  0  0  0
 25 26  1  0  0  0  0
 25  2  1  0  0  0  0
 27 25  1  0  0  0  0
 28 25  1  0  0  0  0
 29  2  1  0  0  0  0
 29 32  1  0  0  0  0
 30 29  1  0  0  0  0
 31 29  1  0  0  0  0
M  CHG  1   1  -1
M  END
