1,2,3
q = -1.0, confidence = 0.018

 32 33  0  0  1  0  0  0  0  0999 V2000
    0.3679    0.8057    1.0627 O   0  5  0  0  0  0  0  0  0  0  0  0
   -2.3444   -1.0365   -1.0373 N   0  0  0  0  0  2  0  0  0  0  0  0
   -0.9624    1.3900   -1.3624 N   0  0  0  0  0  2  0  0  0  0  0  0
    1.2553    1.6478    0.6542 C   0  0  0  0  0  0  0  0  0  0  0  0
   -3.3872   -0.4794   -1.7223 C   0  0  1  0  0  3  0  0  0  0  0  0
   -2.2057   -2.3911   -1.0866 C   0  0  0  0  0  0  0  0  0  0  0  0
    0.0500    2.2098   -1.4979 C   0  0  0  0  0  3  0  0  0  0  0  0
   -1.9832    1.4592   -2.4074 C   0  0  0  0  0  0  0  0  0  0  0  0
    1.1677    2.3620   -0.6072 C   0  0  0  0  0  0  0  0  0  0  0  0
    2.3892    1.9236    1.4934 C   0  0  0  0  0  0  0  0  0  0  0  0
   -3.3634    1.0109   -1.9192 C   0  0  0  0  0  0  0  0  0  0  0  0
   -4.3705   -1.2771   -2.3307 C   0  0  0  0  0  0  0  0  0  0  0  0
   -3.1366   -3.2333   -1.6933 C   0  0  0  0  0  0  0  0  0  0  0  0
   -1.3140   -2.8026   -0.5995 H   0  0  0  0  0  0  0  0  0  0  0  0
    0.0473    2.8935   -2.3725 H   0  0  0  0  0  0  0  0  0  0  0  0
   -2.0499    2.4952   -2.8034 H   0  0  0  0  0  0  0  0  0  0  0  0
   -1.6753    0.8054   -3.2549 H   0  0  0  0  0  0  0  0  0  0  0  0
    2.1760    3.2869   -0.9584 C   0  0  0  0  0  0  0  0  0  0  0  0
    3.3701    2.8253    1.1219 C   0  0  0  0  0  0  0  0  0  0  0  0
    2.4491    1.3734    2.4434 H   0  0  0  0  0  0  0  0  0  0  0  0
   -4.1177    1.2763   -2.6852 H   0  0  0  0  0  0  0  0  0  0  0  0
   -3.6384    1.5607   -0.9968 H   0  0  0  0  0  0  0  0  0  0  0  0
   -4.2706   -2.6734   -2.3011 C   0  0  0  0  0  0  0  0  0  0  0  0
   -5.2035   -0.7818   -2.8510 H   0  0  0  0  0  0  0  0  0  0  0  0
   -2.9639   -4.3189   -1.6834 H   0  0  0  0  0  0  0  0  0  0  0  0
    3.2589    3.5111   -0.1132 C   0  0  0  0  0  0  0  0  0  0  0  0
    2.1263    3.8473   -1.9032 H   0  0  0  0  0  0  0  0  0  0  0  0
    4.2437    3.0306    1.7554 H   0  0  0  0  0  0  0  0  0  0  0  0
   -5.0376   -3.3056   -2.7717 H   0  0  0  0  0  0  0  0  0  0  0  0
    4.2877    4.4742   -0.5040 N   0  0  0  0  0  0  0  0  0  0  0  0
    4.1540    5.0554   -1.5879 O   0  0  0  0  0  0  0  0  0  0  0  0
    5.2306    4.6532    0.2752 O   0  0  0  0  0  0  0  0  0  0  0  0
  4  1  1  0  0  0  0
  4 10  1  0  0  0  0
  5 11  1  6  0  0  0
  5  2  1  0  0  0  0
  6  2  1  0  0  0  0
  6 14  1  0  0  0  0
  7  3  1  0  0  0  0
  7  9  1  0  0  0  0
  8 11  1  0  0  0  0
  8  3  1  0  0  0  0
  9  4  2  0  0  0  0
 10 20  1  0  0  0  0
 11 22  1  0  0  0  0
 12 23  2  0  0  0  0
 12  5  1  0  0  0  0
 13 25  1  0  0  0  0
 13  6  2  0  0  0  0
 15  7  1  0  0  0  0
 16  8  1  0  0  0  0
 17  8  1  0  0  0  0
 18  9  1  0  0  0  0
 18 26  2  0  0  0  0
 19 10  2  0  0  0  0
 19 28  1  0  0  0  0
 21 11  1  0  0  0  0
 23 13  1  0  0  0  0
 24 12  1  0  0  0  0
 26 19  1  0  0  0  0
 27 18  1  0  0  0  0
 29 23  1  0  0  0  0
 30 26  1  0  0  0  0
 30 32  2  0  0  0  0
 31 30  2  0  0  0  0
M  CHG  1   1  -1
M  END
