2,4
q = -1.0, confidence = 0.004

 37 38  0  0  0  0  0  0  0  0999 V2000
    6.4042    0.2033    0.0817 Cl  0  0  0  0  0  0  0  0  0  0  0  0
    0.6637   -0.6303   -1.0797 O   0  5  0  0  0  0  0  0  0  0  0  0
   -2.3644   -3.3398   -0.3837 O   0  0  0  0  0  0  0  0  0  0  0  0
    0.1586    1.2348    1.0903 N   0  0  0  0  0  2  0  0  0  0  0  0
   -2.1465   -0.7952    0.9593 N   0  0  0  0  0  0  0  0  0  0  0  0
    1.9067   -0.4014   -0.7795 C   0  0  0  0  0  0  0  0  0  0  0  0
    2.9309   -1.0754   -1.5233 C   0  0  0  0  0  0  0  0  0  0  0  0
    2.5957   -1.7482   -2.3260 H   0  0  0  0  0  0  0  0  0  0  0  0
    4.2819   -0.8895   -1.2688 C   0  0  0  0  0  0  0  0  0  0  0  0
    5.0423   -1.4149   -1.8651 H   0  0  0  0  0  0  0  0  0  0  0  0
    4.6973   -0.0172   -0.2323 C   0  0  0  0  0  0  0  0  0  0  0  0
    3.7487    0.6484    0.5302 C   0  0  0  0  0  0  0  0  0  0  0  0
    4.0746    1.3162    1.3423 H   0  0  0  0  0  0  0  0  0  0  0  0
    2.3549    0.4846    0.2829 C   0  0  0  0  0  0  0  0  0  0  0  0
    1.4593    1.1752    1.1741 C   0  0  0  0  0  3  0  0  0  0  0  0
    1.9437    1.6964    2.0322 H   0  0  0  0  0  0  0  0  0  0  0  0
   -0.6199    1.8280    2.1637 C   0  0  0  0  0  0  0  0  0  0  0  0
   -1.3176    2.5664    1.7167 H   0  0  0  0  0  0  0  0  0  0  0  0
    0.0448    2.3510    2.8896 H   0  0  0  0  0  0  0  0  0  0  0  0
   -1.4334    0.7483    2.8989 C   0  0  0  0  0  0  0  0  0  0  0  0
   -0.7404   -0.0078    3.3272 H   0  0  0  0  0  0  0  0  0  0  0  0
   -1.9269    1.2310    3.7684 H   0  0  0  0  0  0  0  0  0  0  0  0
   -2.5537    0.0834    2.0933 C   0  0  0  0  0  0  0  0  0  0  0  0
   -3.1825   -0.5260    2.7858 H   0  0  0  0  0  0  0  0  0  0  0  0
   -3.1921    0.8723    1.6502 H   0  0  0  0  0  0  0  0  0  0  0  0
   -1.4054   -1.9975    1.4166 C   0  0  0  0  0  0  0  0  0  0  0  0
   -1.9957   -2.5089    2.2147 H   0  0  0  0  0  0  0  0  0  0  0  0
   -0.4358   -1.6800    1.8499 H   0  0  0  0  0  0  0  0  0  0  0  0
   -1.1558   -2.9605    0.2550 C   0  0  0  0  0  0  0  0  0  0  0  0
   -0.4544   -2.4871   -0.4733 H   0  0  0  0  0  0  0  0  0  0  0  0
   -0.6840   -3.8857    0.6409 H   0  0  0  0  0  0  0  0  0  0  0  0
   -3.0256   -2.1935   -0.8884 C   0  0  0  0  0  0  0  0  0  0  0  0
   -3.9551   -2.5388   -1.3830 H   0  0  0  0  0  0  0  0  0  0  0  0
   -2.4038   -1.6704   -1.6571 H   0  0  0  0  0  0  0  0  0  0  0  0
   -3.3707   -1.2212    0.2331 C   0  0  0  0  0  0  0  0  0  0  0  0
   -3.8675   -0.3138   -0.1629 H   0  0  0  0  0  0  0  0  0  0  0  0
   -4.0665   -1.7175    0.9510 H   0  0  0  0  0  0  0  0  0  0  0  0
  2  6  1  0  0  0  0
  3 29  1  0  0  0  0
  4 15  1  0  0  0  0
  4 17  1  0  0  0  0
  5 26  1  0  0  0  0
  5 23  1  0  0  0  0
  6 14  1  0  0  0  0
  7  9  1  0  0  0  0
  7  6  2  0  0  0  0
  8  7  1  0  0  0  0
  9 11  2  0  0  0  0
 10  9  1  0  0  0  0
 11  1  1  0  0  0  0
 11 12  1  0  0  0  0
 12 13  1  0  0  0  0
 14 12  2  0  0  0  0
 14 15  1  0  0  0  0
 15 16  1  0  0  0  0
 17 19  1  0  0  0  0
 17 20  1  0  0  0  0
 18 17  1  0  0  0  0
 20 21  1  0  0  0  0
 20 22  1  0  0  0  0
 23 24  1  0  0  0  0
 23 20  1  0  0  0  0
 25 23  1  0  0  0  0
 26 28  1  0  0  0  0
 26 27  1  0  0  0  0
 29 31  1  0  0  0  0
 29 26  1  0  0  0  0
 30 29  1  0  0  0  0
 32  3  1  0  0  0  0
 32 35  1  0  0  0  0
 33 32  1  0  0  0  0
 34 32  1  0  0  0  0
 35 37  1  0  0  0  0
 35  5  1  0  0  0  0
 36 35  1  0  0  0  0
M  CHG  1   2  -1
M  END
