1,3,4
q = -1.0

 34 36  0  0  0  0  0  0  0  0999 V2000
    1.2904    1.4263    0.4677 O   0  5  0  0  0  0  0  0  0  0  0  0
    2.0636    0.8789   -1.6530 N   0  0  0  0  0  0  0  0  0  0  0  0
    1.0270    0.0450   -1.5781 N   0  0  0  0  0  2  0  0  0  0  0  0
   -1.0106   -1.2923   -0.9027 N   0  0  0  0  0  2  0  0  0  0  0  0
   -1.1580   -2.5713   -2.7251 N   0  0  0  0  0  0  0  0  0  0  0  0
   -0.9297   -2.9758   -3.6320 H   0  0  0  0  0  0  0  0  0  0  0  0
    2.1219    1.5915   -0.5012 C   0  0  0  0  0  0  0  0  0  0  0  0
    0.6971   -0.8254   -2.5272 C   0  0  0  0  0  0  0  0  0  0  0  0
    1.4476   -1.0130   -3.8028 C   0  0  0  0  0  0  0  0  0  0  0  0
    2.0606   -0.1137   -3.9978 H   0  0  0  0  0  0  0  0  0  0  0  0
    0.7648   -1.1772   -4.6613 H   0  0  0  0  0  0  0  0  0  0  0  0
    2.1371   -1.8835   -3.7402 H   0  0  0  0  0  0  0  0  0  0  0  0
    3.1970    2.5956   -0.3542 C   0  0  0  0  0  0  0  0  0  0  0  0
    3.2853    3.3464    0.8378 C   0  0  0  0  0  0  0  0  0  0  0  0
    2.5465    3.1627    1.6306 H   0  0  0  0  0  0  0  0  0  0  0  0
    4.2987    4.2995    0.9915 C   0  0  0  0  0  0  0  0  0  0  0  0
    4.3655    4.8829    1.9221 H   0  0  0  0  0  0  0  0  0  0  0  0
    5.2302    4.5102   -0.0396 C   0  0  0  0  0  0  0  0  0  0  0  0
    6.0271    5.2596    0.0838 H   0  0  0  0  0  0  0  0  0  0  0  0
    5.1462    3.7640   -1.2278 C   0  0  0  0  0  0  0  0  0  0  0  0
    5.8768    3.9284   -2.0342 H   0  0  0  0  0  0  0  0  0  0  0  0
    4.1349    2.8096   -1.3881 C   0  0  0  0  0  0  0  0  0  0  0  0
    4.0524    2.2140   -2.3076 H   0  0  0  0  0  0  0  0  0  0  0  0
   -0.4570   -1.5741   -2.0995 C   0  0  0  0  0  0  0  0  0  0  0  0
   -2.1116   -2.1077   -0.7406 C   0  0  0  0  0  0  0  0  0  0  0  0
   -3.0640   -2.2033    0.2917 C   0  0  0  0  0  0  0  0  0  0  0  0
   -3.0145   -1.5340    1.1605 H   0  0  0  0  0  0  0  0  0  0  0  0
   -4.0802   -3.1530    0.1435 C   0  0  0  0  0  0  0  0  0  0  0  0
   -4.8404   -3.2509    0.9324 H   0  0  0  0  0  0  0  0  0  0  0  0
   -4.1623   -3.9877   -0.9974 C   0  0  0  0  0  0  0  0  0  0  0  0
   -4.9779   -4.7220   -1.0701 H   0  0  0  0  0  0  0  0  0  0  0  0
   -3.2330   -3.8935   -2.0423 C   0  0  0  0  0  0  0  0  0  0  0  0
   -3.3039   -4.5340   -2.9332 H   0  0  0  0  0  0  0  0  0  0  0  0
   -2.2141   -2.9423   -1.8987 C   0  0  0  0  0  0  0  0  0  0  0  0
  2  3  1  0  0  0  0
  2  7  2  0  0  0  0
  4 25  1  0  0  0  0
  5 24  1  0  0  0  0
  5 34  1  0  0  0  0
  6  5  1  0  0  0  0
  7 13  1  0  0  0  0
  7  1  1  0  0  0  0
  8 24  2  0  0  0  0
  8  3  1  0  0  0  0
  9 12  1  0  0  0  0
  9  8  1  0  0  0  0
 10  9  1  0  0  0  0
 11  9  1  0  0  0  0
 13 14  1  0  0  0  0
 14 16  2  0  0  0  0
 14 15  1  0  0  0  0
 16 17  1  0  0  0  0
 18 19  1  0  0  0  0
 18 16  1  0  0  0  0
 20 18  2  0  0  0  0
 21 20  1  0  0  0  0
 22 20  1  0  0  0  0
 22 13  2  0  0  0  0
 23 22  1  0  0  0  0
 24  4  1  0  0  0  0
 25 26  1  0  0  0  0
 26 27  1  0  0  0  0
 28 26  2  0  0  0  0
 28 29  1  0  0  0  0
 30 28  1  0  0  0  0
 31 30  1  0  0  0  0
 32 34  1  0  0  0  0
 32 30  2  0  0  0  0
 33 32  1  0  0  0  0
 34 25  2  0  0  0  0
M  CHG  1   1  -1
M  END
