2,3,4
q = -1.0

 24 25  0  0  0  0  0  0  0  0999 V2000
   -6.1025   -3.1682    0.3892 Cl  0  0  0  0  0  0  0  0  0  0  0  0
   -1.3904   -1.2877    0.7941 O   0  5  0  0  0  0  0  0  0  0  0  0
   -1.6496    0.3034   -1.3567 N   0  0  0  0  0  2  0  0  0  0  0  0
    0.6936    1.6112   -1.4467 N   0  0  0  0  0  2  0  0  0  0  0  0
   -2.4993   -1.3099    0.1590 C   0  0  0  0  0  0  0  0  0  0  0  0
   -4.7847   -2.1448   -0.1336 C   0  0  0  0  0  0  0  0  0  0  0  0
   -2.7219   -0.4753   -1.0309 C   0  0  0  0  0  0  0  0  0  0  0  0
    2.2419    3.1414   -2.4739 C   0  0  0  0  0  0  0  0  0  0  0  0
    3.2353    3.6115   -2.4627 H   0  0  0  0  0  0  0  0  0  0  0  0
   -0.2268    1.8803   -2.4119 C   0  0  0  0  0  0  0  0  0  0  0  0
   -4.9939   -1.3356   -1.2893 C   0  0  0  0  0  0  0  0  0  0  0  0
   -5.9575   -1.3770   -1.8140 H   0  0  0  0  0  0  0  0  0  0  0  0
   -3.9630   -0.5150   -1.7205 C   0  0  0  0  0  0  0  0  0  0  0  0
   -4.1113    0.1128   -2.6128 H   0  0  0  0  0  0  0  0  0  0  0  0
   -3.5943   -2.1463    0.5750 C   0  0  0  0  0  0  0  0  0  0  0  0
   -3.4556   -2.7806    1.4603 H   0  0  0  0  0  0  0  0  0  0  0  0
   -1.4955    1.1668   -2.3240 C   0  0  0  0  0  0  0  0  0  0  0  0
   -2.2752    1.3826   -3.0810 H   0  0  0  0  0  0  0  0  0  0  0  0
    1.8854    2.2151   -1.4804 C   0  0  0  0  0  0  0  0  0  0  0  0
    2.5893    1.9416   -0.6761 H   0  0  0  0  0  0  0  0  0  0  0  0
    0.0522    2.8064   -3.4438 C   0  0  0  0  0  0  0  0  0  0  0  0
   -0.7085    3.0106   -4.2123 H   0  0  0  0  0  0  0  0  0  0  0  0
    1.2979    3.4400   -3.4711 C   0  0  0  0  0  0  0  0  0  0  0  0
    1.5362    4.1606   -4.2681 H   0  0  0  0  0  0  0  0  0  0  0  0
  3  7  1  0  0  0  0
  5 15  1  0  0  0  0
  5  2  1  0  0  0  0
  6  1  1  0  0  0  0
  6 15  2  0  0  0  0
  7  5  2  0  0  0  0
  8  9  1  0  0  0  0
  8 19  2  0  0  0  0
 10 17  2  0  0  0  0
 10  4  1  0  0  0  0
 11  6  1  0  0  0  0
 12 11  1  0  0  0  0
 13 11  2  0  0  0  0
 13  7  1  0  0  0  0
 14 13  1  0  0  0  0
 15 16  1  0  0  0  0
 17  3  1  0  0  0  0
 18 17  1  0  0  0  0
 19  4  1  0  0  0  0
 19 20  1  0  0  0  0
 21 10  1  0  0  0  0
 22 21  1  0  0  0  0
 23 21  2  0  0  0  0
 23  8  1  0  0  0  0
 24 23  1  0  0  0  0
M  CHG  1   2  -1
M  END
