1,2,3
q = 0.0, confidence = 1.0

 30 31  0  0  1  0  0  0  0  0999 V2000
    1.6335   -2.4755   -0.7883 O   0  0  0  0  0  1  0  0  0  0  0  0
    1.0194    1.6261   -0.1585 N   0  0  0  0  0  2  0  0  0  0  0  0
   -0.1855   -0.5980   -0.7469 N   0  0  0  0  0  2  0  0  0  0  0  0
   -0.5873   -1.8640   -0.8430 N   0  0  0  0  0  0  0  0  0  0  0  0
   -1.5537   -2.1037   -0.5756 H   0  0  0  0  0  0  0  0  0  0  0  0
    0.0312   -4.1116   -0.7960 N   0  0  0  0  0  0  0  0  0  0  0  0
    0.7427   -4.8255   -0.6468 H   0  0  0  0  0  0  0  0  0  0  0  0
   -0.9496   -4.3774   -0.7271 H   0  0  0  0  0  0  0  0  0  0  0  0
   -0.9974    0.3893   -0.5044 C   0  0  2  0  0  3  0  0  0  0  0  0
    0.4515   -2.8183   -0.7935 C   0  0  1  0  0  3  0  0  0  0  0  0
    1.7409    2.7420   -0.0064 C   0  0  0  0  0  3  0  0  0  0  0  0
    2.8284    2.5745    0.0972 H   0  0  0  0  0  0  0  0  0  0  0  0
    1.1418    4.0122    0.0209 C   0  0  0  0  0  0  0  0  0  0  0  0
    1.7602    4.9114    0.1534 H   0  0  0  0  0  0  0  0  0  0  0  0
   -0.2525    4.0970   -0.1059 C   0  0  0  0  0  0  0  0  0  0  0  0
   -0.7579    5.0741   -0.0740 H   0  0  0  0  0  0  0  0  0  0  0  0
   -1.0027    2.9243   -0.2757 C   0  0  0  0  0  0  0  0  0  0  0  0
   -2.0965    2.9551   -0.3796 H   0  0  0  0  0  0  0  0  0  0  0  0
   -0.3229    1.6928   -0.3159 C   0  0  0  0  0  0  0  0  0  0  0  0
   -2.4457    0.1896   -0.2280 C   0  0  0  0  0  0  0  0  0  0  0  0
   -3.4602    0.5861   -1.1227 C   0  0  0  0  0  0  0  0  0  0  0  0
   -3.1908    1.0726   -2.0728 H   0  0  0  0  0  0  0  0  0  0  0  0
   -4.8064    0.3526   -0.8020 C   0  0  0  0  0  0  0  0  0  0  0  0
   -5.5968    0.6646   -1.5013 H   0  0  0  0  0  0  0  0  0  0  0  0
   -5.1447   -0.2786    0.4060 C   0  0  0  0  0  0  0  0  0  0  0  0
   -6.2018   -0.4579    0.6543 H   0  0  0  0  0  0  0  0  0  0  0  0
   -4.1357   -0.6790    1.2978 C   0  0  0  0  0  0  0  0  0  0  0  0
   -4.4006   -1.1663    2.2486 H   0  0  0  0  0  0  0  0  0  0  0  0
   -2.7871   -0.4484    0.9881 C   0  0  0  0  0  0  0  0  0  0  0  0
   -1.9735   -0.7366    1.6777 H   0  0  0  0  0  0  0  0  0  0  0  0
  2 11  1  0  0  0  0
  4 10  1  0  0  0  0
  4  3  1  0  0  0  0
  4  5  1  0  0  0  0
  6 10  1  0  0  0  0
  6  8  1  0  0  0  0
  6  7  1  0  0  0  0
  9  3  1  1  0  0  0
  9 19  1  0  0  0  0
  9 20  1  0  0  0  0
 10  1  1  6  0  0  0
 11 13  1  0  0  0  0
 11 12  1  0  0  0  0
 13 14  1  0  0  0  0
 15 16  1  0  0  0  0
 15 13  2  0  0  0  0
 17 15  1  0  0  0  0
 18 17  1  0  0  0  0
 19 17  2  0  0  0  0
 19  2  1  0  0  0  0
 20 29  1  0  0  0  0
 21 23  1  0  0  0  0
 21 20  2  0  0  0  0
 22 21  1  0  0  0  0
 23 25  2  0  0  0  0
 24 23  1  0  0  0  0
 25 26  1  0  0  0  0
 25 27  1  0  0  0  0
 27 28  1  0  0  0  0
 29 27  2  0  0  0  0
 29 30  1  0  0  0  0
M  END
