27,28,31
q = -1.0

 31 33  0  0  0  0  0  0  0  0999 V2000
    2.7240   -0.0569    2.1350 C   0  0  0  0  0  0  0  0  0  0  0  0
    1.6060    0.7236    1.7335 C   0  0  0  0  0  0  0  0  0  0  0  0
    1.7820    2.0801    1.4012 C   0  0  0  0  0  0  0  0  0  0  0  0
    0.9058    2.6617    1.0796 H   0  0  0  0  0  0  0  0  0  0  0  0
    3.0570    2.6601    1.4409 C   0  0  0  0  0  0  0  0  0  0  0  0
    3.1852    3.7196    1.1751 H   0  0  0  0  0  0  0  0  0  0  0  0
    4.1690    1.8759    1.7894 C   0  0  0  0  0  0  0  0  0  0  0  0
    5.1778    2.3154    1.7941 H   0  0  0  0  0  0  0  0  0  0  0  0
    4.0038    0.5292    2.1392 C   0  0  0  0  0  0  0  0  0  0  0  0
    4.8707   -0.0881    2.4221 H   0  0  0  0  0  0  0  0  0  0  0  0
   -0.4770   -0.2196    2.4925 C   0  0  0  0  0  3  0  0  0  0  0  0
   -0.2680    0.0786    3.5330 H   0  0  0  0  0  0  0  0  0  0  0  0
   -1.6434   -0.9401    2.0779 C   0  0  0  0  0  0  0  0  0  0  0  0
   -2.8090   -1.3766    2.7778 C   0  0  0  0  0  0  0  0  0  0  0  0
   -2.8955   -1.1792    3.8561 H   0  0  0  0  0  0  0  0  0  0  0  0
   -3.8189   -2.0403    2.0938 C   0  0  0  0  0  0  0  0  0  0  0  0
   -4.7195   -2.3696    2.6344 H   0  0  0  0  0  0  0  0  0  0  0  0
   -3.7137   -2.3102    0.6834 C   0  0  0  0  0  0  0  0  0  0  0  0
   -4.6417   -2.9680   -0.1588 C   0  0  0  0  0  3  0  0  0  0  0  0
   -5.5888   -3.3477    0.2512 H   0  0  0  0  0  0  0  0  0  0  0  0
   -4.3337   -3.1332   -1.5226 C   0  0  0  0  0  0  0  0  0  0  0  0
   -5.0679   -3.6470   -2.1634 H   0  0  0  0  0  0  0  0  0  0  0  0
   -3.1390   -2.6783   -2.1248 C   0  0  0  0  0  0  0  0  0  0  0  0
   -2.9503   -2.8335   -3.1964 H   0  0  0  0  0  0  0  0  0  0  0  0
   -2.1812   -1.9997   -1.3330 C   0  0  0  0  0  0  0  0  0  0  0  0
   -2.5168   -1.8512    0.0563 C   0  0  0  0  0  0  0  0  0  0  0  0
    0.3633    0.0870    1.5092 N   0  0  0  0  0  2  0  0  0  0  0  0
   -1.5590   -1.1966    0.7451 N   0  0  0  0  0  2  0  0  0  0  0  0
    2.4921   -1.3428    2.5008 O   0  0  0  0  0  0  0  0  0  0  0  0
    3.2776   -1.8828    2.2854 H   0  0  0  0  0  0  0  0  0  0  0  0
   -1.0436   -1.4791   -1.7197 O   0  5  0  0  0  0  0  0  0  0  0  0
  1  9  1  0  0  0  0
  1 29  1  0  0  0  0
  2  1  2  0  0  0  0
  3  5  2  0  0  0  0
  3  2  1  0  0  0  0
  4  3  1  0  0  0  0
  5  7  1  0  0  0  0
  6  5  1  0  0  0  0
  7  8  1  0  0  0  0
  7  9  2  0  0  0  0
  9 10  1  0  0  0  0
 11 12  1  0  0  0  0
 13 11  1  0  0  0  0
 13 14  2  0  0  0  0
 14 15  1  0  0  0  0
 16 17  1  0  0  0  0
 16 14  1  0  0  0  0
 18 16  2  0  0  0  0
 19 20  1  0  0  0  0
 19 18  1  0  0  0  0
 21 19  1  0  0  0  0
 22 21  1  0  0  0  0
 23 21  2  0  0  0  0
 23 25  1  0  0  0  0
 24 23  1  0  0  0  0
 25 26  2  0  0  0  0
 26 18  1  0  0  0  0
 26 28  1  0  0  0  0
 27  2  1  0  0  0  0
 27 11  1  0  0  0  0
 28 13  1  0  0  0  0
 30 29  1  0  0  0  0
 31 25  1  0  0  0  0
M  CHG  1  31  -1
M  END
