1,3,4
q = -1.0

 36 38  0  0  1  0  0  0  0  0999 V2000
    1.3825    0.2494   -1.3233 O   0  0  0  0  0  1  0  0  0  0  0  0
    4.2760   -0.2357    0.5768 O   0  0  0  0  0  0  0  0  0  0  0  0
    0.8417   -1.2967    1.0991 N   0  0  0  0  0  2  0  0  0  0  0  0
    1.0253    1.3606    0.9855 N   0  0  0  0  0  2  0  0  0  0  0  0
    2.5211   -0.4353   -0.9225 N   0  0  0  0  0  0  0  0  0  0  0  0
    0.0822   -2.2091    1.7450 C   0  0  0  0  0  3  0  0  0  0  0  0
   -1.0015   -2.1626    1.5491 H   0  0  0  0  0  0  0  0  0  0  0  0
    0.6665   -3.1436    2.6070 C   0  0  0  0  0  0  0  0  0  0  0  0
    0.0301   -3.8835    3.1122 H   0  0  0  0  0  0  0  0  0  0  0  0
    2.0541   -3.1105    2.8178 C   0  0  0  0  0  0  0  0  0  0  0  0
    2.5321   -3.8315    3.4976 H   0  0  0  0  0  0  0  0  0  0  0  0
    2.8242   -2.1398    2.1604 C   0  0  0  0  0  0  0  0  0  0  0  0
    3.9108   -2.0492    2.2937 H   0  0  0  0  0  0  0  0  0  0  0  0
    2.1752   -1.2519    1.2985 C   0  0  0  0  0  0  0  0  0  0  0  0
    2.8822   -0.1556    0.5005 C   0  0  1  0  0  0  0  0  0  0  0  0
    2.3686    1.1830    1.0331 C   0  0  2  0  0  3  0  0  0  0  0  0
    3.2059    2.1392    1.6183 C   0  0  0  0  0  0  0  0  0  0  0  0
    4.2872    1.9468    1.6357 H   0  0  0  0  0  0  0  0  0  0  0  0
    2.6331    3.2902    2.1775 C   0  0  0  0  0  0  0  0  0  0  0  0
    3.2692    4.0531    2.6507 H   0  0  0  0  0  0  0  0  0  0  0  0
    1.2384    3.4451    2.1446 C   0  0  0  0  0  0  0  0  0  0  0  0
    0.7487    4.3216    2.5917 H   0  0  0  0  0  0  0  0  0  0  0  0
    0.4617    2.4548    1.5358 C   0  0  0  0  0  0  0  0  0  0  0  0
   -0.6378    2.4853    1.4910 H   0  0  0  0  0  0  0  0  0  0  0  0
    4.7768   -0.6307   -0.7202 C   0  0  0  0  0  0  0  0  0  0  0  0
    4.8691   -1.7379   -0.7669 H   0  0  0  0  0  0  0  0  0  0  0  0
    5.7751   -0.1721   -0.8517 H   0  0  0  0  0  0  0  0  0  0  0  0
    3.7336   -0.1232   -1.7281 C   0  0  0  0  0  0  0  0  0  0  0  0
    3.6990   -0.9371   -3.0218 C   0  0  0  0  0  0  0  0  0  0  0  0
    3.6011   -2.0187   -2.8034 H   0  0  0  0  0  0  0  0  0  0  0  0
    4.6170   -0.7743   -3.6200 H   0  0  0  0  0  0  0  0  0  0  0  0
    2.8291   -0.6244   -3.6318 H   0  0  0  0  0  0  0  0  0  0  0  0
    3.8908    1.3778   -2.0196 C   0  0  0  0  0  0  0  0  0  0  0  0
    3.0102    1.7467   -2.5785 H   0  0  0  0  0  0  0  0  0  0  0  0
    4.7951    1.5585   -2.6330 H   0  0  0  0  0  0  0  0  0  0  0  0
    3.9828    1.9689   -1.0878 H   0  0  0  0  0  0  0  0  0  0  0  0
  1  5  1  0  0  0  0
  3 14  1  0  0  0  0
  3  6  1  0  0  0  0
  4 23  1  0  0  0  0
  5 15  1  0  0  0  0
  6  8  1  0  0  0  0
  7  6  1  0  0  0  0
  8 10  2  0  0  0  0
  8  9  1  0  0  0  0
 10 11  1  0  0  0  0
 12 13  1  0  0  0  0
 12 10  1  0  0  0  0
 14 12  2  0  0  0  0
 15  2  1  0  0  0  0
 15 16  1  0  0  0  0
 15 14  1  1  0  0  0
 16  4  1  1  0  0  0
 16 17  1  0  0  0  0
 17 18  1  0  0  0  0
 17 19  2  0  0  0  0
 19 20  1  0  0  0  0
 21 19  1  0  0  0  0
 21 22  1  0  0  0  0
 23 21  2  0  0  0  0
 24 23  1  0  0  0  0
 25  2  1  0  0  0  0
 26 25  1  0  0  0  0
 27 25  1  0  0  0  0
 28  5  1  0  0  0  0
 28 25  1  0  0  0  0
 29 30  1  0  0  0  0
 29 28  1  0  0  0  0
 31 29  1  0  0  0  0
 32 29  1  0  0  0  0
 33 28  1  0  0  0  0
 33 36  1  0  0  0  0
 34 33  1  0  0  0  0
 35 33  1  0  0  0  0
M  END
