3,26
q = -1.0, confidence = 0.0

 49 51  0  0  0  0  0  0  0  0999 V2000
    1.3689    1.0499   -1.4528 O   0  0  0  0  0  0  0  0  0  0  0  0
   -1.5296   -1.1779    0.9335 N   0  0  0  0  0  0  0  0  0  0  0  0
   -1.1191    1.1348   -1.1533 O   0  5  0  0  0  0  0  0  0  0  0  0
   -3.1323    0.5957    0.1161 C   0  0  0  0  0  0  0  0  0  0  0  0
   -2.6530    2.8676   -0.6618 C   0  0  0  0  0  0  0  0  0  0  0  0
   -1.9796    3.5510   -1.2013 H   0  0  0  0  0  0  0  0  0  0  0  0
   -1.3189   -2.6284    1.1198 C   0  0  0  0  0  0  0  0  0  0  0  0
   -1.4021   -3.1115    0.1226 H   0  0  0  0  0  0  0  0  0  0  0  0
   -2.1338   -3.0532    1.7597 H   0  0  0  0  0  0  0  0  0  0  0  0
   -3.8415    3.3304   -0.0931 C   0  0  0  0  0  0  0  0  0  0  0  0
   -4.1062    4.3959   -0.1815 H   0  0  0  0  0  0  0  0  0  0  0  0
    0.0286   -2.9977    1.7588 C   0  0  0  0  0  0  0  0  0  0  0  0
    0.0458   -2.6495    2.8123 H   0  0  0  0  0  0  0  0  0  0  0  0
    0.0531   -4.1050    1.8273 H   0  0  0  0  0  0  0  0  0  0  0  0
    1.3301   -2.5829    1.0550 C   0  0  0  0  0  0  0  0  0  0  0  0
    2.1843   -2.9789    1.6606 H   0  0  0  0  0  0  0  0  0  0  0  0
    1.3815   -3.0617    0.0541 H   0  0  0  0  0  0  0  0  0  0  0  0
   -2.8365   -0.8809    0.2751 C   0  0  0  0  0  0  0  0  0  0  0  0
   -3.6688   -1.3489    0.8554 H   0  0  0  0  0  0  0  0  0  0  0  0
   -2.8195   -1.3994   -0.7111 H   0  0  0  0  0  0  0  0  0  0  0  0
   -4.3227    1.0976    0.6828 C   0  0  0  0  0  0  0  0  0  0  0  0
   -4.9782    0.3916    1.2198 H   0  0  0  0  0  0  0  0  0  0  0  0
   -4.6949    2.4443    0.5868 C   0  0  0  0  0  0  0  0  0  0  0  0
   -5.6337    2.7970    1.0377 H   0  0  0  0  0  0  0  0  0  0  0  0
   -2.2613    1.5019   -0.5837 C   0  0  0  0  0  0  0  0  0  0  0  0
    1.5096   -1.1235    0.8544 N   0  0  0  0  0  0  0  0  0  0  0  0
    2.3824    1.5278   -0.6723 C   0  0  0  0  0  0  0  0  0  0  0  0
    3.1639    0.6147    0.0832 C   0  0  0  0  0  0  0  0  0  0  0  0
    2.8220   -0.8571    0.1939 C   0  0  0  0  0  0  0  0  0  0  0  0
    2.7811   -1.3423   -0.8052 H   0  0  0  0  0  0  0  0  0  0  0  0
    3.6399   -1.3630    0.7619 H   0  0  0  0  0  0  0  0  0  0  0  0
    1.3106   -0.3429    2.1037 C   0  0  0  0  0  0  0  0  0  0  0  0
    2.1285    0.3980    2.1844 H   0  0  0  0  0  0  0  0  0  0  0  0
    1.4172   -1.0118    2.9871 H   0  0  0  0  0  0  0  0  0  0  0  0
   -1.3092   -0.3865    2.1676 C   0  0  0  0  0  0  0  0  0  0  0  0
   -1.3530   -1.0540    3.0569 H   0  0  0  0  0  0  0  0  0  0  0  0
   -2.1501    0.3266    2.2716 H   0  0  0  0  0  0  0  0  0  0  0  0
   -0.0118    0.4258    2.1576 C   0  0  0  0  0  0  0  0  0  0  0  0
   -0.0501    1.1249    1.2953 H   0  0  0  0  0  0  0  0  0  0  0  0
    0.0012    1.0598    3.0697 H   0  0  0  0  0  0  0  0  0  0  0  0
    2.6729    2.9049   -0.6517 C   0  0  0  0  0  0  0  0  0  0  0  0
    2.0444    3.5861   -1.2452 H   0  0  0  0  0  0  0  0  0  0  0  0
    4.2604    1.1314    0.8029 C   0  0  0  0  0  0  0  0  0  0  0  0
    4.8765    0.4306    1.3888 H   0  0  0  0  0  0  0  0  0  0  0  0
    4.5685    2.4991    0.8101 C   0  0  0  0  0  0  0  0  0  0  0  0
    5.4313    2.8680    1.3835 H   0  0  0  0  0  0  0  0  0  0  0  0
    3.7574    3.3894    0.0901 C   0  0  0  0  0  0  0  0  0  0  0  0
    3.9746    4.4682    0.0940 H   0  0  0  0  0  0  0  0  0  0  0  0
    0.5092    1.5833   -1.4069 H   0  0  0  0  0  0  0  0  0  0  0  0
  1 49  1  0  0  0  0
  1 27  1  0  0  0  0
  2  7  1  0  0  0  0
  2 35  1  0  0  0  0
  3 25  1  0  0  0  0
  4 18  1  0  0  0  0
  4 21  1  0  0  0  0
  5 25  1  0  0  0  0
  5 10  2  0  0  0  0
  6  5  1  0  0  0  0
  7 12  1  0  0  0  0
  7  9  1  0  0  0  0
  8  7  1  0  0  0  0
 10 23  1  0  0  0  0
 11 10  1  0  0  0  0
 12 14  1  0  0  0  0
 12 13  1  0  0  0  0
 15 16  1  0  0  0  0
 15 12  1  0  0  0  0
 17 15  1  0  0  0  0
 18 19  1  0  0  0  0
 18  2  1  0  0  0  0
 20 18  1  0  0  0  0
 21 22  1  0  0  0  0
 23 21  2  0  0  0  0
 23 24  1  0  0  0  0
 25  4  2  0  0  0  0
 26 15  1  0  0  0  0
 26 32  1  0  0  0  0
 27 41  2  0  0  0  0
 27 28  1  0  0  0  0
 28 29  1  0  0  0  0
 28 43  2  0  0  0  0
 29 31  1  0  0  0  0
 29 26  1  0  0  0  0
 30 29  1  0  0  0  0
 32 38  1  0  0  0  0
 32 33  1  0  0  0  0
 32 34  1  0  0  0  0
 35 37  1  0  0  0  0
 35 36  1  0  0  0  0
 38 35  1  0  0  0  0
 38 40  1  0  0  0  0
 39 38  1  0  0  0  0
 41 47  1  0  0  0  0
 42 41  1  0  0  0  0
 43 45  1  0  0  0  0
 43 44  1  0  0  0  0
 45 46  1  0  0  0  0
 47 48  1  0  0  0  0
 47 45  2  0  0  0  0
M  CHG  1   3  -1
M  END
