1,2,35
q = 0.0, confidence = 0.958

 37 38  0  0  1  0  0  0  0  0999 V2000
   -0.0744    1.5264   -0.1754 N   0  0  0  0  0  2  0  0  0  0  0  0
   -2.3776   -0.5649   -0.6405 N   0  0  0  0  0  2  0  0  0  0  0  0
    4.3538   -0.6845    0.9588 N   0  0  0  0  0  0  0  0  0  0  0  0
    5.1191   -1.3115    1.2217 H   0  0  0  0  0  0  0  0  0  0  0  0
    2.2645    0.9570    0.1386 C   0  0  0  0  0  0  0  0  0  0  0  0
   -2.6889    0.2967   -1.6371 C   0  0  1  0  0  3  0  0  0  0  0  0
   -1.6696    1.3164   -2.0776 C   0  0  0  0  0  0  0  0  0  0  0  0
   -2.1468    1.9627   -2.8401 H   0  0  0  0  0  0  0  0  0  0  0  0
   -0.8409    0.7722   -2.5826 H   0  0  0  0  0  0  0  0  0  0  0  0
    2.0020   -0.1953    0.9878 C   0  0  0  0  0  0  0  0  0  0  0  0
    3.1000   -1.0462    1.3229 C   0  0  1  0  0  3  0  0  0  0  0  0
    1.1851    1.7057   -0.4680 C   0  0  0  0  0  3  0  0  0  0  0  0
    1.4706    2.4469   -1.2443 H   0  0  0  0  0  0  0  0  0  0  0  0
    3.6194    1.2457   -0.2218 C   0  0  0  0  0  0  0  0  0  0  0  0
    2.8829   -2.3402    2.0293 C   0  0  0  0  0  0  0  0  0  0  0  0
    2.3870   -3.0515    1.3330 H   0  0  0  0  0  0  0  0  0  0  0  0
    2.2104   -2.2076    2.8984 H   0  0  0  0  0  0  0  0  0  0  0  0
    3.8339   -2.7962    2.3680 H   0  0  0  0  0  0  0  0  0  0  0  0
   -4.4620   -1.7175   -0.8838 C   0  0  0  0  0  0  0  0  0  0  0  0
   -5.1242   -2.5325   -0.5601 H   0  0  0  0  0  0  0  0  0  0  0  0
   -1.0530    2.2261   -0.9878 C   0  0  0  0  0  0  0  0  0  0  0  0
   -0.5900    3.0966   -1.5089 H   0  0  0  0  0  0  0  0  0  0  0  0
   -1.8590    2.6095   -0.3256 H   0  0  0  0  0  0  0  0  0  0  0  0
   -3.9381    0.1837   -2.2762 C   0  0  0  0  0  0  0  0  0  0  0  0
   -4.1937    0.8951   -3.0746 H   0  0  0  0  0  0  0  0  0  0  0  0
    4.6443    0.4237    0.2199 C   0  0  0  0  0  0  0  0  0  0  0  0
    5.7026    0.6025   -0.0095 H   0  0  0  0  0  0  0  0  0  0  0  0
   -3.2197   -1.5517   -0.2679 C   0  0  0  0  0  0  0  0  0  0  0  0
   -2.8466   -2.2040    0.5396 H   0  0  0  0  0  0  0  0  0  0  0  0
   -4.8318   -0.8252   -1.8998 C   0  0  0  0  0  0  0  0  0  0  0  0
   -5.8088   -0.9150   -2.3981 H   0  0  0  0  0  0  0  0  0  0  0  0
    3.9857    2.4199   -1.1068 C   0  0  0  0  0  0  0  0  0  0  0  0
    5.0979    2.4602   -1.2056 H   0  0  0  0  0  0  0  0  0  0  0  0
    3.5870    2.2399   -2.1294 H   0  0  0  0  0  0  0  0  0  0  0  0
    0.8411   -0.5390    1.4432 O   0  5  0  0  0  0  0  0  0  0  0  0
    3.4413    3.6593   -0.6927 O   0  0  0  0  0  0  0  0  0  0  0  0
    3.6289    3.7589    0.2593 H   0  0  0  0  0  0  0  0  0  0  0  0
  2 28  1  0  0  0  0
  3  4  1  0  0  0  0
  3 11  1  0  0  0  0
  5 10  2  0  0  0  0
  6  7  1  6  0  0  0
  6  2  1  0  0  0  0
  7 21  1  0  0  0  0
  8  7  1  0  0  0  0
  9  7  1  0  0  0  0
 10 11  1  0  0  0  0
 10 35  1  0  0  0  0
 11 15  1  6  0  0  0
 12  1  1  0  0  0  0
 12  5  1  0  0  0  0
 13 12  1  0  0  0  0
 14  5  1  0  0  0  0
 14 26  2  0  0  0  0
 15 18  1  0  0  0  0
 15 17  1  0  0  0  0
 16 15  1  0  0  0  0
 19 20  1  0  0  0  0
 19 28  2  0  0  0  0
 21 23  1  0  0  0  0
 21  1  1  0  0  0  0
 22 21  1  0  0  0  0
 24 30  2  0  0  0  0
 24  6  1  0  0  0  0
 25 24  1  0  0  0  0
 26  3  1  0  0  0  0
 27 26  1  0  0  0  0
 28 29  1  0  0  0  0
 30 19  1  0  0  0  0
 31 30  1  0  0  0  0
 32 36  1  0  0  0  0
 32 14  1  0  0  0  0
 33 32  1  0  0  0  0
 34 32  1  0  0  0  0
 36 37  1  0  0  0  0
M  CHG  1  35  -1
M  END
