2,3,4
q = -1.0

 58 62  0  0  1  0  0  0  0  0999 V2000
    1.5249    5.7695   -0.8305 O   0  0  0  0  0  0  0  0  0  0  0  0
    0.3362    0.5728   -0.0649 O   0  5  0  0  0  0  0  0  0  0  0  0
    2.9871    0.0234    0.6772 N   0  0  0  0  0  2  0  0  0  0  0  0
    2.5720   -2.7613   -0.2288 N   0  0  0  0  0  2  0  0  0  0  0  0
   -2.1458    1.1175    0.5248 N   0  0  0  0  0  0  0  0  0  0  0  0
   -1.8004    2.3842    0.1893 C   0  0  0  0  0  0  0  0  0  0  0  0
   -2.8038    3.4014    0.0956 C   0  0  0  0  0  0  0  0  0  0  0  0
   -2.4866    4.7222   -0.1987 C   0  0  0  0  0  0  0  0  0  0  0  0
   -1.1511    5.1097   -0.4039 C   0  0  0  0  0  0  0  0  0  0  0  0
   -0.1391    4.1496   -0.3123 C   0  0  0  0  0  0  0  0  0  0  0  0
    1.2646    4.6102   -0.4976 C   0  0  0  0  0  0  0  0  0  0  0  0
    2.3492    3.6283   -0.1928 C   0  0  1  0  0  3  0  0  0  0  0  0
    3.6454    4.1388   -0.1112 C   0  0  0  0  0  0  0  0  0  0  0  0
    4.6966    3.2797    0.2511 C   0  0  0  0  0  0  0  0  0  0  0  0
    4.4554    1.9390    0.5152 C   0  0  0  0  0  0  0  0  0  0  0  0
    3.1476    1.3445    0.4007 C   0  0  0  0  0  0  0  0  0  0  0  0
    2.0603    2.2454    0.0337 C   0  0  0  0  0  0  0  0  0  0  0  0
    0.6764    1.8139   -0.0295 C   0  0  0  0  0  0  0  0  0  0  0  0
   -0.4221    2.7785   -0.0436 C   0  0  0  0  0  0  0  0  0  0  0  0
    4.0816   -0.6849    1.3117 C   0  0  0  0  0  0  0  0  0  0  0  0
    3.6752   -2.0689    1.8343 C   0  0  0  0  0  0  0  0  0  0  0  0
    3.4830   -3.0677    0.7307 C   0  0  2  0  0  3  0  0  0  0  0  0
    4.2208   -4.2610    0.6514 C   0  0  0  0  0  0  0  0  0  0  0  0
    4.0234   -5.1363   -0.4230 C   0  0  0  0  0  0  0  0  0  0  0  0
    3.0798   -4.7972   -1.4024 C   0  0  0  0  0  0  0  0  0  0  0  0
    2.3677   -3.6031   -1.2704 C   0  0  0  0  0  0  0  0  0  0  0  0
   -3.4734    0.6417    0.8418 C   0  0  0  0  0  0  0  0  0  0  0  0
   -4.2783    0.1822   -0.3954 C   0  0  0  0  0  0  0  0  0  0  0  0
   -5.4872   -0.6363   -0.0123 C   0  0  0  0  0  0  0  0  0  0  0  0
   -5.3066   -1.9153    0.5600 C   0  0  0  0  0  0  0  0  0  0  0  0
   -6.4101   -2.6881    0.9470 C   0  0  0  0  0  0  0  0  0  0  0  0
   -7.7148   -2.1957    0.7724 C   0  0  0  0  0  0  0  0  0  0  0  0
   -7.9058   -0.9247    0.2097 C   0  0  0  0  0  0  0  0  0  0  0  0
   -6.7987   -0.1516   -0.1764 C   0  0  0  0  0  0  0  0  0  0  0  0
   -1.4197    0.3883    0.4608 H   0  0  0  0  0  0  0  0  0  0  0  0
   -3.8545    3.1218    0.2476 H   0  0  0  0  0  0  0  0  0  0  0  0
   -3.2948    5.4664   -0.2708 H   0  0  0  0  0  0  0  0  0  0  0  0
   -0.8617    6.1441   -0.6346 H   0  0  0  0  0  0  0  0  0  0  0  0
    3.7941    5.2068   -0.3215 H   0  0  0  0  0  0  0  0  0  0  0  0
    5.7258    3.6645    0.3241 H   0  0  0  0  0  0  0  0  0  0  0  0
    5.3069    1.3018    0.7799 H   0  0  0  0  0  0  0  0  0  0  0  0
    4.9603   -0.8100    0.6301 H   0  0  0  0  0  0  0  0  0  0  0  0
    4.4446   -0.0948    2.1831 H   0  0  0  0  0  0  0  0  0  0  0  0
    2.7319   -1.9701    2.4147 H   0  0  0  0  0  0  0  0  0  0  0  0
    4.4583   -2.4390    2.5237 H   0  0  0  0  0  0  0  0  0  0  0  0
    4.9473   -4.4907    1.4440 H   0  0  0  0  0  0  0  0  0  0  0  0
    4.5990   -6.0713   -0.4940 H   0  0  0  0  0  0  0  0  0  0  0  0
    2.8858   -5.4484   -2.2661 H   0  0  0  0  0  0  0  0  0  0  0  0
    1.5785   -3.2939   -1.9716 H   0  0  0  0  0  0  0  0  0  0  0  0
   -3.3395   -0.2313    1.5079 H   0  0  0  0  0  0  0  0  0  0  0  0
   -4.0414    1.4045    1.4143 H   0  0  0  0  0  0  0  0  0  0  0  0
   -4.5732    1.0574   -1.0106 H   0  0  0  0  0  0  0  0  0  0  0  0
   -3.5928   -0.4349   -1.0104 H   0  0  0  0  0  0  0  0  0  0  0  0
   -4.2798   -2.2932    0.6985 H   0  0  0  0  0  0  0  0  0  0  0  0
   -6.2521   -3.6847    1.3878 H   0  0  0  0  0  0  0  0  0  0  0  0
   -8.5815   -2.8032    1.0747 H   0  0  0  0  0  0  0  0  0  0  0  0
   -8.9243   -0.5307    0.0693 H   0  0  0  0  0  0  0  0  0  0  0  0
   -6.9535    0.8452   -0.6204 H   0  0  0  0  0  0  0  0  0  0  0  0
  1 11  2  0  0  0  0
  2 18  1  0  0  0  0
  3 20  1  0  0  0  0
  4 22  1  0  0  0  0
  5 27  1  0  0  0  0
  6  5  1  0  0  0  0
  7  6  1  0  0  0  0
  7 36  1  0  0  0  0
  8  7  2  0  0  0  0
  9 10  2  0  0  0  0
  9  8  1  0  0  0  0
 10 19  1  0  0  0  0
 11 10  1  0  0  0  0
 12 11  1  1  0  0  0
 12 13  1  0  0  0  0
 12 17  1  0  0  0  0
 13 14  2  0  0  0  0
 14 40  1  0  0  0  0
 14 15  1  0  0  0  0
 15 41  1  0  0  0  0
 16 15  2  0  0  0  0
 16  3  1  0  0  0  0
 17 16  1  0  0  0  0
 18 17  2  0  0  0  0
 19 18  1  0  0  0  0
 19  6  2  0  0  0  0
 20 21  1  0  0  0  0
 20 43  1  0  0  0  0
 21 44  1  0  0  0  0
 21 45  1  0  0  0  0
 22 21  1  6  0  0  0
 23 22  1  0  0  0  0
 23 46  1  0  0  0  0
 24 23  2  0  0  0  0
 25 26  2  0  0  0  0
 25 24  1  0  0  0  0
 26  4  1  0  0  0  0
 27 51  1  0  0  0  0
 27 50  1  0  0  0  0
 28 29  1  0  0  0  0
 28 27  1  0  0  0  0
 29 30  1  0  0  0  0
 30 54  1  0  0  0  0
 30 31  2  0  0  0  0
 31 55  1  0  0  0  0
 32 31  1  0  0  0  0
 32 56  1  0  0  0  0
 33 32  2  0  0  0  0
 34 29  2  0  0  0  0
 34 33  1  0  0  0  0
 35  5  1  0  0  0  0
 37  8  1  0  0  0  0
 38  9  1  0  0  0  0
 39 13  1  0  0  0  0
 42 20  1  0  0  0  0
 47 24  1  0  0  0  0
 48 25  1  0  0  0  0
 49 26  1  0  0  0  0
 52 28  1  0  0  0  0
 53 28  1  0  0  0  0
 57 33  1  0  0  0  0
 58 34  1  0  0  0  0
M  CHG  1   2  -1
M  END
