3,4,6
q = -1.0

 34 37  0  0  1  0  0  0  0  0999 V2000
   -6.1471    2.3727   -2.4425 Cl  0  0  0  0  0  0  0  0  0  0  0  0
   -0.8955    3.7192   -2.0009 Cl  0  0  0  0  0  0  0  0  0  0  0  0
   -0.6373    1.2057   -0.6378 O   0  5  0  0  0  0  0  0  0  0  0  0
   -1.6053   -0.9485    0.6654 N   0  0  0  0  0  2  0  0  0  0  0  0
   -3.3754   -2.0019   -0.1159 N   0  0  0  0  0  0  0  0  0  0  0  0
    0.4643   -1.3719    2.0135 N   0  0  0  0  0  2  0  0  0  0  0  0
    1.5789   -1.4203    2.7754 C   0  0  0  0  0  3  0  0  0  0  0  0
    2.2385   -0.5428    2.7073 H   0  0  0  0  0  0  0  0  0  0  0  0
   -2.6803   -0.7910   -0.1231 C   0  0  2  0  0  3  0  0  0  0  0  0
   -0.4140   -2.4448    2.0430 C   0  0  0  0  0  0  0  0  0  0  0  0
   -2.9667    0.4469   -0.8181 C   0  0  0  0  0  0  0  0  0  0  0  0
   -1.5698   -2.2094    1.2122 C   0  0  0  0  0  0  0  0  0  0  0  0
   -4.2748    0.7872   -1.2512 C   0  0  0  0  0  0  0  0  0  0  0  0
   -5.1321    0.1460   -1.0126 H   0  0  0  0  0  0  0  0  0  0  0  0
   -4.9612   -3.6909   -0.7007 C   0  0  0  0  0  0  0  0  0  0  0  0
   -5.8291   -3.9914   -1.3030 H   0  0  0  0  0  0  0  0  0  0  0  0
    1.0175   -3.6171    3.6101 C   0  0  0  0  0  0  0  0  0  0  0  0
    1.2411   -4.4969    4.2306 H   0  0  0  0  0  0  0  0  0  0  0  0
    1.8940   -2.5152    3.5822 C   0  0  0  0  0  0  0  0  0  0  0  0
    2.8206   -2.5050    4.1728 H   0  0  0  0  0  0  0  0  0  0  0  0
   -1.8606    1.3729   -1.0201 C   0  0  0  0  0  0  0  0  0  0  0  0
   -0.1460   -3.5757    2.8373 C   0  0  0  0  0  0  0  0  0  0  0  0
   -0.8567   -4.4132    2.8444 H   0  0  0  0  0  0  0  0  0  0  0  0
   -4.4705   -2.4127   -0.8503 C   0  0  0  0  0  0  0  0  0  0  0  0
   -4.8798   -1.6876   -1.5614 H   0  0  0  0  0  0  0  0  0  0  0  0
   -2.6943   -2.9152    0.7456 C   0  0  0  0  0  0  0  0  0  0  0  0
   -2.1905    2.5827   -1.7335 C   0  0  0  0  0  0  0  0  0  0  0  0
   -3.2133   -4.2206    0.9034 C   0  0  0  0  0  0  0  0  0  0  0  0
   -2.6941   -4.9178    1.5741 H   0  0  0  0  0  0  0  0  0  0  0  0
   -4.5190    1.9790   -1.9291 C   0  0  0  0  0  0  0  0  0  0  0  0
   -3.4709    2.8845   -2.1875 C   0  0  0  0  0  0  0  0  0  0  0  0
   -3.6598    3.8263   -2.7190 H   0  0  0  0  0  0  0  0  0  0  0  0
   -4.3431   -4.6081    0.1990 C   0  0  0  0  0  0  0  0  0  0  0  0
   -4.7483   -5.6229    0.3148 H   0  0  0  0  0  0  0  0  0  0  0  0
  1 30  1  0  0  0  0
  2 27  1  0  0  0  0
  4 12  1  0  0  0  0
  5 26  1  0  0  0  0
  6 10  1  0  0  0  0
  6  7  1  0  0  0  0
  7 19  1  0  0  0  0
  8  7  1  0  0  0  0
  9 11  1  6  0  0  0
  9  5  1  0  0  0  0
  9  4  1  0  0  0  0
 10 22  2  0  0  0  0
 12 10  1  0  0  0  0
 13 14  1  0  0  0  0
 13 11  2  0  0  0  0
 15 33  1  0  0  0  0
 16 15  1  0  0  0  0
 17 18  1  0  0  0  0
 19 17  2  0  0  0  0
 19 20  1  0  0  0  0
 21 11  1  0  0  0  0
 21  3  1  0  0  0  0
 22 23  1  0  0  0  0
 22 17  1  0  0  0  0
 24 15  2  0  0  0  0
 24  5  1  0  0  0  0
 25 24  1  0  0  0  0
 26 28  1  0  0  0  0
 26 12  2  0  0  0  0
 27 21  2  0  0  0  0
 28 29  1  0  0  0  0
 30 13  1  0  0  0  0
 31 30  2  0  0  0  0
 31 27  1  0  0  0  0
 32 31  1  0  0  0  0
 33 34  1  0  0  0  0
 33 28  2  0  0  0  0
M  CHG  1   3  -1
M  END
