23,24,30
q = 0.0, confidence = 0.998

 30 31  0  0  1  0  0  0  0  0999 V2000
   -3.3910    2.4734   -0.0855 Cl  0  0  0  0  0  0  0  0  0  0  0  0
    2.6407    1.4161   -0.2754 C   0  0  1  0  0  3  0  0  0  0  0  0
   -3.1214   -0.3220   -0.2642 C   0  0  0  0  0  0  0  0  0  0  0  0
   -3.7459   -1.5922   -0.2918 C   0  0  0  0  0  0  0  0  0  0  0  0
   -3.0747   -2.4608   -0.3572 H   0  0  0  0  0  0  0  0  0  0  0  0
    3.6331    2.4055   -0.3750 C   0  0  0  0  0  0  0  0  0  0  0  0
    3.3691    3.4722   -0.4304 H   0  0  0  0  0  0  0  0  0  0  0  0
   -5.9500   -0.6061   -0.1347 C   0  0  0  0  0  0  0  0  0  0  0  0
   -7.0447   -0.7031   -0.0838 H   0  0  0  0  0  0  0  0  0  0  0  0
   -5.3692    0.6671   -0.0959 C   0  0  0  0  0  0  0  0  0  0  0  0
   -5.9904    1.5697   -0.0120 H   0  0  0  0  0  0  0  0  0  0  0  0
   -1.6212   -0.3787   -0.3290 C   0  0  2  0  0  3  0  0  0  0  0  0
    4.2194   -0.2946   -0.3330 C   0  0  0  0  0  0  0  0  0  0  0  0
    4.3585   -1.3907   -0.3278 H   0  0  0  0  0  0  0  0  0  0  0  0
   -3.9739    0.8051   -0.1612 C   0  0  0  0  0  0  0  0  0  0  0  0
    4.9743    1.9951   -0.4444 C   0  0  0  0  0  0  0  0  0  0  0  0
    5.7761    2.7444   -0.5259 H   0  0  0  0  0  0  0  0  0  0  0  0
   -5.1323   -1.7422   -0.2326 C   0  0  0  0  0  0  0  0  0  0  0  0
   -5.5758   -2.7481   -0.2588 H   0  0  0  0  0  0  0  0  0  0  0  0
    5.2773    0.6268   -0.4248 C   0  0  0  0  0  0  0  0  0  0  0  0
    6.3163    0.2721   -0.4829 H   0  0  0  0  0  0  0  0  0  0  0  0
    1.1825    1.6953   -0.1916 C   0  0  1  0  0  3  0  0  0  0  0  0
    0.4269    0.6960   -0.5537 N   0  0  0  0  0  2  0  0  0  0  0  0
    2.9472    0.1038   -0.2509 N   0  0  0  0  0  2  0  0  0  0  0  0
   -0.9192    0.7975   -0.4394 N   0  0  0  0  0  0  0  0  0  0  0  0
   -1.4116    1.6968   -0.5225 H   0  0  0  0  0  0  0  0  0  0  0  0
    0.7270    2.9141    0.2484 N   0  0  0  0  0  0  0  0  0  0  0  0
   -0.1846    2.8824    0.7188 H   0  0  0  0  0  0  0  0  0  0  0  0
    1.4040    3.4668    0.7785 H   0  0  0  0  0  0  0  0  0  0  0  0
   -1.0243   -1.4635   -0.2872 O   0  0  0  0  0  1  0  0  0  0  0  0
  2 24  1  0  0  0  0
  2 22  1  6  0  0  0
  3 15  1  0  0  0  0
  4  3  2  0  0  0  0
  4 18  1  0  0  0  0
  5  4  1  0  0  0  0
  6  2  1  0  0  0  0
  7  6  1  0  0  0  0
  8 10  1  0  0  0  0
  8  9  1  0  0  0  0
 10 11  1  0  0  0  0
 12 30  1  6  0  0  0
 12  3  1  0  0  0  0
 13 14  1  0  0  0  0
 13 24  1  0  0  0  0
 15 10  2  0  0  0  0
 15  1  1  0  0  0  0
 16 20  1  0  0  0  0
 16  6  2  0  0  0  0
 17 16  1  0  0  0  0
 18  8  2  0  0  0  0
 19 18  1  0  0  0  0
 20 13  2  0  0  0  0
 21 20  1  0  0  0  0
 22 23  1  1  0  0  0
 22 27  1  0  0  0  0
 23 25  1  0  0  0  0
 25 12  1  0  0  0  0
 26 25  1  0  0  0  0
 27 28  1  0  0  0  0
 27 29  1  0  0  0  0
M  END
