3,4,5
q = -1.0

 35 35  0  0  0  0  0  0  0  0999 V2000
   -2.5764    2.5435    1.4456 Cl  0  0  0  0  0  0  0  0  0  0  0  0
   -5.7952   -1.3974   -0.4585 Cl  0  0  0  0  0  0  0  0  0  0  0  0
   -0.4252    0.9548    0.3412 O   0  5  0  0  0  0  0  0  0  0  0  0
    0.5890   -1.4074   -0.9435 N   0  0  0  0  0  2  0  0  0  0  0  0
    2.8831   -0.8603    0.5502 N   0  0  0  0  0  0  0  0  0  0  0  0
   -1.5650    0.3824    0.1405 C   0  0  0  0  0  0  0  0  0  0  0  0
   -2.7671    1.0289    0.6181 C   0  0  0  0  0  0  0  0  0  0  0  0
   -4.0371    0.4999    0.4244 C   0  0  0  0  0  0  0  0  0  0  0  0
   -4.9179    1.0465    0.7874 H   0  0  0  0  0  0  0  0  0  0  0  0
   -4.1906   -0.7446   -0.2331 C   0  0  0  0  0  0  0  0  0  0  0  0
   -3.0766   -1.4398   -0.6763 C   0  0  0  0  0  0  0  0  0  0  0  0
   -3.2008   -2.4184   -1.1631 H   0  0  0  0  0  0  0  0  0  0  0  0
   -1.7663   -0.9037   -0.5088 C   0  0  0  0  0  0  0  0  0  0  0  0
   -0.6681   -1.7535   -0.8861 C   0  0  0  0  0  3  0  0  0  0  0  0
   -0.9296   -2.8137   -1.1079 H   0  0  0  0  0  0  0  0  0  0  0  0
    1.6485   -2.3906   -0.9957 C   0  0  0  0  0  0  0  0  0  0  0  0
    2.3036   -2.1878   -1.8714 H   0  0  0  0  0  0  0  0  0  0  0  0
    1.2646   -3.4312   -1.0949 H   0  0  0  0  0  0  0  0  0  0  0  0
    2.4550   -2.2599    0.3135 C   0  0  0  0  0  0  0  0  0  0  0  0
    1.7978   -2.5689    1.1492 H   0  0  0  0  0  0  0  0  0  0  0  0
    3.3240   -2.9542    0.3044 H   0  0  0  0  0  0  0  0  0  0  0  0
    2.9675   -0.5097    1.9922 C   0  0  0  0  0  0  0  0  0  0  0  0
    3.4788    0.4741    2.0379 H   0  0  0  0  0  0  0  0  0  0  0  0
    3.6220   -1.2353    2.5288 H   0  0  0  0  0  0  0  0  0  0  0  0
    1.6146   -0.4082    2.6881 C   0  0  0  0  0  0  0  0  0  0  0  0
    0.9557    0.3524    2.2197 H   0  0  0  0  0  0  0  0  0  0  0  0
    1.7656   -0.1189    3.7468 H   0  0  0  0  0  0  0  0  0  0  0  0
    1.0634   -1.3704    2.6909 H   0  0  0  0  0  0  0  0  0  0  0  0
    4.1465   -0.5373   -0.1747 C   0  0  0  0  0  0  0  0  0  0  0  0
    4.2268    0.5680   -0.1936 H   0  0  0  0  0  0  0  0  0  0  0  0
    3.9919   -0.8235   -1.2352 H   0  0  0  0  0  0  0  0  0  0  0  0
    5.4219   -1.1804    0.3674 C   0  0  0  0  0  0  0  0  0  0  0  0
    5.6745   -0.8218    1.3848 H   0  0  0  0  0  0  0  0  0  0  0  0
    6.2703   -0.9125   -0.2927 H   0  0  0  0  0  0  0  0  0  0  0  0
    5.3712   -2.2884    0.3986 H   0  0  0  0  0  0  0  0  0  0  0  0
  2 10  1  0  0  0  0
  4 14  1  0  0  0  0
  5 22  1  0  0  0  0
  6  3  1  0  0  0  0
  6  7  1  0  0  0  0
  7  1  1  0  0  0  0
  8  7  2  0  0  0  0
  8  9  1  0  0  0  0
 10  8  1  0  0  0  0
 11 13  1  0  0  0  0
 11 10  2  0  0  0  0
 12 11  1  0  0  0  0
 13  6  2  0  0  0  0
 14 13  1  0  0  0  0
 15 14  1  0  0  0  0
 16  4  1  0  0  0  0
 16 19  1  0  0  0  0
 17 16  1  0  0  0  0
 18 16  1  0  0  0  0
 19  5  1  0  0  0  0
 19 20  1  0  0  0  0
 21 19  1  0  0  0  0
 22 23  1  0  0  0  0
 22 24  1  0  0  0  0
 22 25  1  0  0  0  0
 25 28  1  0  0  0  0
 25 27  1  0  0  0  0
 26 25  1  0  0  0  0
 29 32  1  0  0  0  0
 29  5  1  0  0  0  0
 30 29  1  0  0  0  0
 31 29  1  0  0  0  0
 32 35  1  0  0  0  0
 32 33  1  0  0  0  0
 34 32  1  0  0  0  0
M  CHG  1   3  -1
M  END
