4,6,7
q = -1.0

 49 50  0  0  1  0  0  0  0  0999 V2000
   -3.4678    1.1789    1.2243 O   0  0  0  0  0  0  0  0  0  0  0  0
    2.5619    0.1242    2.4521 O   0  0  0  0  0  0  0  0  0  0  0  0
    1.7542    3.7723   -1.8426 O   0  5  0  0  0  0  0  0  0  0  0  0
    1.1229    1.6086   -1.6780 O   0  0  0  0  0  0  0  0  0  0  0  0
    0.0211    2.1932    0.8193 N   0  0  0  0  0  0  0  0  0  0  0  0
   -1.8774    0.4045   -0.1664 N   0  0  0  0  0  2  0  0  0  0  0  0
    1.1665   -0.3966    0.7648 N   0  0  0  0  0  2  0  0  0  0  0  0
   -1.2250    2.0788    1.5387 C   0  0  0  0  0  0  0  0  0  0  0  0
   -1.7166    3.0592    1.7490 H   0  0  0  0  0  0  0  0  0  0  0  0
   -1.0636    1.6059    2.5324 H   0  0  0  0  0  0  0  0  0  0  0  0
   -2.1954    1.1942    0.8033 C   0  0  2  0  0  3  0  0  0  0  0  0
   -4.1770    0.2824    0.3115 C   0  0  0  0  0  0  0  0  0  0  0  0
   -4.8118    0.9120   -0.3447 H   0  0  0  0  0  0  0  0  0  0  0  0
   -4.8240   -0.3777    0.9198 H   0  0  0  0  0  0  0  0  0  0  0  0
   -3.0459   -0.4553   -0.4458 C   0  0  2  0  0  0  0  0  0  0  0  0
   -3.2203   -0.4780   -1.5402 H   0  0  0  0  0  0  0  0  0  0  0  0
   -2.7782   -1.9070    0.0245 C   0  0  0  0  0  0  0  0  0  0  0  0
   -1.8860   -2.2216   -0.5609 H   0  0  0  0  0  0  0  0  0  0  0  0
   -2.4355   -1.9982    1.5149 C   0  0  0  0  0  0  0  0  0  0  0  0
   -2.2186   -3.0487    1.7946 H   0  0  0  0  0  0  0  0  0  0  0  0
   -3.2663   -1.6541    2.1683 H   0  0  0  0  0  0  0  0  0  0  0  0
   -1.5334   -1.4005    1.7582 H   0  0  0  0  0  0  0  0  0  0  0  0
   -3.9480   -2.8163   -0.3620 C   0  0  0  0  0  0  0  0  0  0  0  0
   -3.7222   -3.8705   -0.1056 H   0  0  0  0  0  0  0  0  0  0  0  0
   -4.1482   -2.7740   -1.4520 H   0  0  0  0  0  0  0  0  0  0  0  0
   -4.8865   -2.5463    0.1697 H   0  0  0  0  0  0  0  0  0  0  0  0
    1.2386    1.9573    1.5623 C   0  0  0  0  0  0  0  0  0  0  0  0
    1.2127    2.3256    2.6157 H   0  0  0  0  0  0  0  0  0  0  0  0
    2.0764    2.5027    1.0763 H   0  0  0  0  0  0  0  0  0  0  0  0
    1.6260    0.5015    1.5710 C   0  0  2  0  0  3  0  0  0  0  0  0
    2.7707   -1.3055    2.2421 C   0  0  0  0  0  0  0  0  0  0  0  0
    2.4277   -1.8300    3.1562 H   0  0  0  0  0  0  0  0  0  0  0  0
    3.8580   -1.4720    2.1156 H   0  0  0  0  0  0  0  0  0  0  0  0
    1.9333   -1.6398    0.9765 C   0  0  2  0  0  0  0  0  0  0  0  0
    1.2199   -2.4675    1.1747 H   0  0  0  0  0  0  0  0  0  0  0  0
    2.7534   -2.0075   -0.2831 C   0  0  0  0  0  0  0  0  0  0  0  0
    1.9926   -2.1650   -1.0796 H   0  0  0  0  0  0  0  0  0  0  0  0
    3.6769   -0.8717   -0.7350 C   0  0  0  0  0  0  0  0  0  0  0  0
    3.1037    0.0378   -1.0077 H   0  0  0  0  0  0  0  0  0  0  0  0
    4.2425   -1.1780   -1.6371 H   0  0  0  0  0  0  0  0  0  0  0  0
    4.4263   -0.6010    0.0408 H   0  0  0  0  0  0  0  0  0  0  0  0
    3.5018   -3.3260   -0.0636 C   0  0  0  0  0  0  0  0  0  0  0  0
    4.0027   -3.6450   -0.9989 H   0  0  0  0  0  0  0  0  0  0  0  0
    2.8153   -4.1424    0.2433 H   0  0  0  0  0  0  0  0  0  0  0  0
    4.2929   -3.2365    0.7127 H   0  0  0  0  0  0  0  0  0  0  0  0
    0.0862    3.2266   -0.2099 C   0  0  0  0  0  0  0  0  0  0  0  0
    0.3519    4.2321    0.1919 H   0  0  0  0  0  0  0  0  0  0  0  0
   -0.9188    3.3076   -0.6762 H   0  0  0  0  0  0  0  0  0  0  0  0
    1.0916    2.8678   -1.3454 C   0  0  0  0  0  0  0  0  0  0  0  0
  3 49  1  0  0  0  0
  4 49  2  0  0  0  0
  5  8  1  0  0  0  0
  5 27  1  0  0  0  0
  6 11  1  0  0  0  0
  7 34  1  0  0  0  0
  7 30  1  0  0  0  0
  8  9  1  0  0  0  0
  8 10  1  0  0  0  0
 11  1  1  0  0  0  0
 11  8  1  1  0  0  0
 12 14  1  0  0  0  0
 12  1  1  0  0  0  0
 13 12  1  0  0  0  0
 15 16  1  6  0  0  0
 15  6  1  0  0  0  0
 15 17  1  0  0  0  0
 15 12  1  0  0  0  0
 17 19  1  0  0  0  0
 18 17  1  0  0  0  0
 19 22  1  0  0  0  0
 19 20  1  0  0  0  0
 19 21  1  0  0  0  0
 23 24  1  0  0  0  0
 23 17  1  0  0  0  0
 23 26  1  0  0  0  0
 25 23  1  0  0  0  0
 27 28  1  0  0  0  0
 29 27  1  0  0  0  0
 30 27  1  6  0  0  0
 30  2  1  0  0  0  0
 31  2  1  0  0  0  0
 31 32  1  0  0  0  0
 33 31  1  0  0  0  0
 34 35  1  1  0  0  0
 34 31  1  0  0  0  0
 36 42  1  0  0  0  0
 36 34  1  0  0  0  0
 37 36  1  0  0  0  0
 38 36  1  0  0  0  0
 38 41  1  0  0  0  0
 39 38  1  0  0  0  0
 40 38  1  0  0  0  0
 42 44  1  0  0  0  0
 42 45  1  0  0  0  0
 43 42  1  0  0  0  0
 46 47  1  0  0  0  0
 46  5  1  0  0  0  0
 48 46  1  0  0  0  0
 49 46  1  0  0  0  0
M  CHG  1   3  -1
M  END
