1,4,5
q = -1.0

 28 29  0  0  0  0  0  0  0  0999 V2000
    1.2202    0.6470    0.6029 O   0  5  0  0  0  0  0  0  0  0  0  0
    4.1245    1.6034   -2.3211 O   0  0  0  0  0  0  0  0  0  0  0  0
    3.3659    0.9428   -2.3465 H   0  0  0  0  0  0  0  0  0  0  0  0
   -0.9824   -2.0315   -0.9940 N   0  0  0  0  0  2  0  0  0  0  0  0
    1.0651   -0.6235   -1.5326 N   0  0  0  0  0  2  0  0  0  0  0  0
    2.0689    0.2411   -1.5154 N   0  0  0  0  0  0  0  0  0  0  0  0
   -2.0755   -2.7123   -0.6118 C   0  0  0  0  0  3  0  0  0  0  0  0
   -2.4520   -2.5112    0.4020 H   0  0  0  0  0  0  0  0  0  0  0  0
   -2.7120   -3.6246   -1.4628 C   0  0  0  0  0  0  0  0  0  0  0  0
   -3.6060   -4.1589   -1.1137 H   0  0  0  0  0  0  0  0  0  0  0  0
   -2.1886   -3.8282   -2.7501 C   0  0  0  0  0  0  0  0  0  0  0  0
   -2.6683   -4.5373   -3.4406 H   0  0  0  0  0  0  0  0  0  0  0  0
   -1.0526   -3.1171   -3.1511 C   0  0  0  0  0  0  0  0  0  0  0  0
   -0.6207   -3.2475   -4.1533 H   0  0  0  0  0  0  0  0  0  0  0  0
   -0.4549   -2.2097   -2.2548 C   0  0  0  0  0  0  0  0  0  0  0  0
    0.7072   -1.3979   -2.5379 C   0  0  0  0  0  3  0  0  0  0  0  0
    1.2404   -1.3931   -3.5009 H   0  0  0  0  0  0  0  0  0  0  0  0
    2.0919    0.9090   -0.3216 C   0  0  0  0  0  0  0  0  0  0  0  0
    3.1151    1.9151   -0.1167 C   0  0  0  0  0  0  0  0  0  0  0  0
    3.1542    2.6244    1.1160 C   0  0  0  0  0  0  0  0  0  0  0  0
    2.3954    2.3804    1.8727 H   0  0  0  0  0  0  0  0  0  0  0  0
    4.1178    3.5949    1.3510 C   0  0  0  0  0  0  0  0  0  0  0  0
    4.1391    4.1388    2.3058 H   0  0  0  0  0  0  0  0  0  0  0  0
    5.0736    3.8811    0.3454 C   0  0  0  0  0  0  0  0  0  0  0  0
    5.8398    4.6505    0.5251 H   0  0  0  0  0  0  0  0  0  0  0  0
    5.0611    3.2070   -0.8723 C   0  0  0  0  0  0  0  0  0  0  0  0
    5.7961    3.4236   -1.6603 H   0  0  0  0  0  0  0  0  0  0  0  0
    4.0882    2.2132   -1.1365 C   0  0  0  0  0  0  0  0  0  0  0  0
  2 28  1  0  0  0  0
  3  2  1  0  0  0  0
  4  7  1  0  0  0  0
  5  6  1  0  0  0  0
  6 18  2  0  0  0  0
  7  8  1  0  0  0  0
  9 10  1  0  0  0  0
  9  7  1  0  0  0  0
 11  9  2  0  0  0  0
 12 11  1  0  0  0  0
 13 11  1  0  0  0  0
 13 15  2  0  0  0  0
 14 13  1  0  0  0  0
 15  4  1  0  0  0  0
 16 15  1  0  0  0  0
 16  5  1  0  0  0  0
 17 16  1  0  0  0  0
 18 19  1  0  0  0  0
 18  1  1  0  0  0  0
 19 20  1  0  0  0  0
 20 22  2  0  0  0  0
 20 21  1  0  0  0  0
 22 23  1  0  0  0  0
 24 25  1  0  0  0  0
 24 22  1  0  0  0  0
 26 24  2  0  0  0  0
 27 26  1  0  0  0  0
 28 26  1  0  0  0  0
 28 19  2  0  0  0  0
M  CHG  1   1  -1
M  END
