1,2,3
q = -1.0

 35 35  0  0  0  0  0  0  0  0999 V2000
    0.1229    1.3785   -0.3317 N   0  0  0  0  0  2  0  0  0  0  0  0
    2.5701    0.3084   -0.3510 N   0  0  0  0  0  0  0  0  0  0  0  0
   -1.2508   -0.9677   -0.4001 O   0  5  0  0  0  0  0  0  0  0  0  0
   -2.2905    1.1554    0.0281 C   0  0  0  0  0  0  0  0  0  0  0  0
   -2.3219   -0.2739   -0.1342 C   0  0  0  0  0  0  0  0  0  0  0  0
   -3.5795   -0.9592   -0.0341 C   0  0  0  0  0  0  0  0  0  0  0  0
   -4.7289   -0.2149    0.2360 C   0  0  0  0  0  0  0  0  0  0  0  0
   -5.6897   -0.7481    0.3235 H   0  0  0  0  0  0  0  0  0  0  0  0
   -4.7026    1.1926    0.4015 C   0  0  0  0  0  0  0  0  0  0  0  0
   -5.6329    1.7395    0.6119 H   0  0  0  0  0  0  0  0  0  0  0  0
   -3.4957    1.8671    0.2912 C   0  0  0  0  0  0  0  0  0  0  0  0
   -3.4502    2.9620    0.4070 H   0  0  0  0  0  0  0  0  0  0  0  0
   -3.5860   -2.4496   -0.2153 C   0  0  0  0  0  0  0  0  0  0  0  0
   -4.6047   -2.8682   -0.1085 H   0  0  0  0  0  0  0  0  0  0  0  0
   -2.9159   -2.9386    0.5219 H   0  0  0  0  0  0  0  0  0  0  0  0
   -3.1855   -2.7276   -1.2123 H   0  0  0  0  0  0  0  0  0  0  0  0
   -1.0689    1.8833   -0.1316 C   0  0  0  0  0  3  0  0  0  0  0  0
   -1.1616    2.9914   -0.0904 H   0  0  0  0  0  0  0  0  0  0  0  0
    1.2381    2.2955   -0.5295 C   0  0  0  0  0  0  0  0  0  0  0  0
    1.0222    3.3115   -0.1314 H   0  0  0  0  0  0  0  0  0  0  0  0
    1.4267    2.4101   -1.6238 H   0  0  0  0  0  0  0  0  0  0  0  0
    2.4728    1.6937    0.1287 C   0  0  0  0  0  0  0  0  0  0  0  0
    3.3781    2.2983   -0.1009 H   0  0  0  0  0  0  0  0  0  0  0  0
    2.3394    1.6689    1.2282 H   0  0  0  0  0  0  0  0  0  0  0  0
    3.7596   -0.4946    0.0928 C   0  0  0  0  0  0  0  0  0  0  0  0
    3.5110   -1.5208   -0.2478 H   0  0  0  0  0  0  0  0  0  0  0  0
    3.9073   -0.5067    1.6110 C   0  0  0  0  0  0  0  0  0  0  0  0
    4.2258    0.4802    2.0069 H   0  0  0  0  0  0  0  0  0  0  0  0
    4.6869   -1.2407    1.8936 H   0  0  0  0  0  0  0  0  0  0  0  0
    2.9531   -0.8084    2.0846 H   0  0  0  0  0  0  0  0  0  0  0  0
    5.0329   -0.0289   -0.6209 C   0  0  0  0  0  0  0  0  0  0  0  0
    4.9157   -0.0502   -1.7247 H   0  0  0  0  0  0  0  0  0  0  0  0
    5.8765   -0.7003   -0.3658 H   0  0  0  0  0  0  0  0  0  0  0  0
    5.3290    0.9980   -0.3199 H   0  0  0  0  0  0  0  0  0  0  0  0
    2.6071    0.3180   -1.3827 H   0  0  0  0  0  0  0  0  0  0  0  0
  1 17  1  0  0  0  0
  2 25  1  0  0  0  0
  2 22  1  0  0  0  0
  3  5  1  0  0  0  0
  4 11  1  0  0  0  0
  5  6  1  0  0  0  0
  5  4  2  0  0  0  0
  6  7  2  0  0  0  0
  7  8  1  0  0  0  0
  7  9  1  0  0  0  0
  9 10  1  0  0  0  0
 11  9  2  0  0  0  0
 11 12  1  0  0  0  0
 13 14  1  0  0  0  0
 13  6  1  0  0  0  0
 13 15  1  0  0  0  0
 16 13  1  0  0  0  0
 17 18  1  0  0  0  0
 17  4  1  0  0  0  0
 19  1  1  0  0  0  0
 19 20  1  0  0  0  0
 19 22  1  0  0  0  0
 21 19  1  0  0  0  0
 22 24  1  0  0  0  0
 23 22  1  0  0  0  0
 25 27  1  0  0  0  0
 26 25  1  0  0  0  0
 27 29  1  0  0  0  0
 27 28  1  0  0  0  0
 27 30  1  0  0  0  0
 31 33  1  0  0  0  0
 31 34  1  0  0  0  0
 31 25  1  0  0  0  0
 32 31  1  0  0  0  0
 35  2  1  0  0  0  0
M  CHG  1   3  -1
M  END
