1,2,3
q = -1.0, confidence = 0.004

 31 32  0  0  1  0  0  0  0  0999 V2000
    0.6968    1.0838    0.3416 N   0  0  0  0  0  2  0  0  0  0  0  0
    2.8471   -0.2694   -0.1391 N   0  0  0  0  0  2  0  0  0  0  0  0
   -1.0483   -1.0068    0.3753 O   0  5  0  0  0  0  0  0  0  0  0  0
   -5.6734   -0.0225   -0.3250 O   0  0  0  0  0  0  0  0  0  0  0  0
   -1.7123    1.2697   -0.0205 C   0  0  0  0  0  0  0  0  0  0  0  0
   -1.9858   -0.1420    0.1363 C   0  0  0  0  0  0  0  0  0  0  0  0
   -3.3362   -0.5841    0.0473 C   0  0  0  0  0  0  0  0  0  0  0  0
   -3.5095   -1.6591    0.1777 H   0  0  0  0  0  0  0  0  0  0  0  0
   -4.3692    0.3231   -0.2108 C   0  0  0  0  0  0  0  0  0  0  0  0
   -4.0984    1.7157   -0.3744 C   0  0  0  0  0  0  0  0  0  0  0  0
   -4.9394    2.3938   -0.5716 H   0  0  0  0  0  0  0  0  0  0  0  0
   -2.7959    2.1624   -0.2716 C   0  0  0  0  0  0  0  0  0  0  0  0
   -2.5760    3.2365   -0.3839 H   0  0  0  0  0  0  0  0  0  0  0  0
   -0.3967    1.7857    0.1512 C   0  0  0  0  0  3  0  0  0  0  0  0
   -0.3068    2.8951    0.1398 H   0  0  0  0  0  0  0  0  0  0  0  0
    1.9221    1.8020    0.6457 C   0  0  0  0  0  0  0  0  0  0  0  0
    2.0265    1.9074    1.7528 H   0  0  0  0  0  0  0  0  0  0  0  0
    1.9260    2.8361    0.2302 H   0  0  0  0  0  0  0  0  0  0  0  0
    3.1071    1.0214    0.1400 C   0  0  1  0  0  3  0  0  0  0  0  0
    4.3940    1.5596   -0.0219 C   0  0  0  0  0  0  0  0  0  0  0  0
    4.5793    2.6195    0.2062 H   0  0  0  0  0  0  0  0  0  0  0  0
    5.4195    0.7249   -0.4819 C   0  0  0  0  0  0  0  0  0  0  0  0
    6.4371    1.1205   -0.6195 H   0  0  0  0  0  0  0  0  0  0  0  0
    5.1299   -0.6175   -0.7771 C   0  0  0  0  0  0  0  0  0  0  0  0
    5.9050   -1.3011   -1.1511 H   0  0  0  0  0  0  0  0  0  0  0  0
    3.8230   -1.0788   -0.5976 C   0  0  0  0  0  0  0  0  0  0  0  0
    3.5022   -2.1063   -0.8287 H   0  0  0  0  0  0  0  0  0  0  0  0
   -6.0290   -1.3874   -0.1711 C   0  0  0  0  0  0  0  0  0  0  0  0
   -5.5381   -2.0271   -0.9369 H   0  0  0  0  0  0  0  0  0  0  0  0
   -7.1255   -1.4399   -0.3007 H   0  0  0  0  0  0  0  0  0  0  0  0
   -5.7604   -1.7692    0.8383 H   0  0  0  0  0  0  0  0  0  0  0  0
  1 16  1  0  0  0  0
  2 19  1  0  0  0  0
  4  9  1  0  0  0  0
  4 28  1  0  0  0  0
  5  6  1  0  0  0  0
  5 14  1  0  0  0  0
  6  3  1  0  0  0  0
  7  6  2  0  0  0  0
  7  8  1  0  0  0  0
  9  7  1  0  0  0  0
 10 12  1  0  0  0  0
 10  9  2  0  0  0  0
 11 10  1  0  0  0  0
 12  5  2  0  0  0  0
 13 12  1  0  0  0  0
 14  1  1  0  0  0  0
 15 14  1  0  0  0  0
 16 17  1  0  0  0  0
 18 16  1  0  0  0  0
 19 16  1  1  0  0  0
 20 19  1  0  0  0  0
 20 21  1  0  0  0  0
 22 20  2  0  0  0  0
 23 22  1  0  0  0  0
 24 26  2  0  0  0  0
 24 22  1  0  0  0  0
 25 24  1  0  0  0  0
 26  2  1  0  0  0  0
 27 26  1  0  0  0  0
 28 31  1  0  0  0  0
 29 28  1  0  0  0  0
 30 28  1  0  0  0  0
M  CHG  1   3  -1
M  END
