1,4,6
q = -1.0

 14 13  0  0  0  0  0  0  0  0999 V2000
    0.1813    1.6839   -0.0865 O   0  5  0  0  0  0  0  0  0  0  0  0
    1.4023    3.5526   -0.0226 O   0  0  0  0  0  0  0  0  0  0  0  0
    4.2015   -0.9417   -0.1176 O   0  0  0  0  0  0  0  0  0  0  0  0
    0.7361   -2.1050    0.1471 N   0  0  0  0  0  2  0  0  0  0  0  0
    0.5746   -2.2432    1.1626 H   0  0  0  0  0  0  0  0  0  0  0  0
    2.1507    0.0522    0.0824 N   0  0  0  0  0  2  0  0  0  0  0  0
    1.3336    2.3337   -0.0234 C   0  0  0  0  0  0  0  0  0  0  0  0
    2.5850    1.4289    0.0483 C   0  0  0  0  0  0  0  0  0  0  0  0
    3.2316    1.6435   -0.8315 H   0  0  0  0  0  0  0  0  0  0  0  0
    3.1751    1.7169    0.9467 H   0  0  0  0  0  0  0  0  0  0  0  0
    2.9814   -1.0255   -0.0300 C   0  0  0  0  0  0  0  0  0  0  0  0
    2.1511   -2.3367   -0.0797 C   0  0  0  0  0  0  0  0  0  0  0  0
    2.3133   -2.7573   -1.0980 H   0  0  0  0  0  0  0  0  0  0  0  0
    2.6030   -3.0498    0.6427 H   0  0  0  0  0  0  0  0  0  0  0  0
  1  7  1  0  0  0  0
  3 11  2  0  0  0  0
  4  5  1  0  0  0  0
  7  2  2  0  0  0  0
  7  8  1  0  0  0  0
  8  6  1  0  0  0  0
  8 10  1  0  0  0  0
  9  8  1  0  0  0  0
 11  6  1  0  0  0  0
 12 11  1  0  0  0  0
 12  4  1  0  0  0  0
 12 14  1  0  0  0  0
 13 12  1  0  0  0  0
M  CHG  1   1  -1
M  END
