1,2,21
q = -1.0

 28 29  0  0  1  0  0  0  0  0999 V2000
   -0.8266    1.0816   -0.1171 N   0  0  0  0  0  2  0  0  0  0  0  0
    1.7101    0.4200   -0.3215 N   0  0  0  0  0  2  0  0  0  0  0  0
   -2.1422    1.3829    0.0105 C   0  0  1  0  0  3  0  0  0  0  0  0
   -2.6002    2.7042    0.1474 C   0  0  0  0  0  0  0  0  0  0  0  0
   -3.6746    2.8634    0.3107 H   0  0  0  0  0  0  0  0  0  0  0  0
   -1.6914    3.7618    0.0582 C   0  0  0  0  0  0  0  0  0  0  0  0
   -2.0280    4.8046    0.1465 H   0  0  0  0  0  0  0  0  0  0  0  0
   -0.3438    3.4617   -0.1534 C   0  0  0  0  0  0  0  0  0  0  0  0
    0.4005    4.2638   -0.2430 H   0  0  0  0  0  0  0  0  0  0  0  0
    0.0744    2.1227   -0.2160 C   0  0  0  0  0  0  0  0  0  0  0  0
    1.4962    1.7518   -0.3642 C   0  0  1  0  0  3  0  0  0  0  0  0
    2.6045    2.6082   -0.4966 C   0  0  0  0  0  0  0  0  0  0  0  0
    2.4744    3.6975   -0.5458 H   0  0  0  0  0  0  0  0  0  0  0  0
    3.8916    2.0453   -0.5432 C   0  0  0  0  0  0  0  0  0  0  0  0
    4.7656    2.7052   -0.6475 H   0  0  0  0  0  0  0  0  0  0  0  0
    4.0668    0.6567   -0.4227 C   0  0  0  0  0  0  0  0  0  0  0  0
    5.0522    0.1699   -0.4029 H   0  0  0  0  0  0  0  0  0  0  0  0
    2.9260   -0.1442   -0.2920 C   0  0  0  0  0  0  0  0  0  0  0  0
    2.9203   -1.6478   -0.0170 C   0  0  0  0  0  0  0  0  0  0  0  0
    3.9736   -2.2722   -0.0220 O   0  5  0  0  0  0  0  0  0  0  0  0
    1.7300   -2.1463    0.2403 O   0  0  0  0  0  0  0  0  0  0  0  0
   -3.2206    0.3251   -0.0143 C   0  0  0  0  0  0  0  0  0  0  0  0
   -4.2162    0.3896    0.6799 O   0  0  0  0  0  0  0  0  0  0  0  0
   -3.0022   -0.5964   -0.9672 O   0  0  0  0  0  0  0  0  0  0  0  0
   -4.0116   -1.6136   -1.1004 C   0  0  0  0  0  0  0  0  0  0  0  0
   -4.0801   -2.2064   -0.1677 H   0  0  0  0  0  0  0  0  0  0  0  0
   -3.6823   -2.2478   -1.9414 H   0  0  0  0  0  0  0  0  0  0  0  0
   -4.9972   -1.1540   -1.3106 H   0  0  0  0  0  0  0  0  0  0  0  0
  1  3  1  0  0  0  0
  2 18  1  0  0  0  0
  3 22  1  6  0  0  0
  3  4  1  0  0  0  0
  4  5  1  0  0  0  0
  6  7  1  0  0  0  0
  6  4  2  0  0  0  0
  8  6  1  0  0  0  0
  9  8  1  0  0  0  0
 10  8  2  0  0  0  0
 10  1  1  0  0  0  0
 11  2  1  0  0  0  0
 11 10  1  1  0  0  0
 12 11  1  0  0  0  0
 13 12  1  0  0  0  0
 14 12  2  0  0  0  0
 14 16  1  0  0  0  0
 15 14  1  0  0  0  0
 16 17  1  0  0  0  0
 16 18  2  0  0  0  0
 18 19  1  0  0  0  0
 19 21  2  0  0  0  0
 20 19  1  0  0  0  0
 22 23  2  0  0  0  0
 24 22  1  0  0  0  0
 25 24  1  0  0  0  0
 25 26  1  0  0  0  0
 27 25  1  0  0  0  0
 28 25  1  0  0  0  0
M  CHG  1  20  -1
M  END
