1,26,28
q = -1.0

 28 29  0  0  0  0  0  0  0  0999 V2000
    1.5782   -1.1417   -0.1857 O   0  5  0  0  0  0  0  0  0  0  0  0
   -3.4639   -0.6434   -0.0185 C   0  0  0  0  0  3  0  0  0  0  0  0
   -3.3573   -1.7297   -0.1258 H   0  0  0  0  0  0  0  0  0  0  0  0
   -4.5978    0.1780    0.1207 C   0  0  0  0  0  0  0  0  0  0  0  0
   -5.6486   -0.1263    0.1297 H   0  0  0  0  0  0  0  0  0  0  0  0
   -4.0926    1.4730    0.2469 C   0  0  0  0  0  0  0  0  0  0  0  0
   -4.5933    2.4366    0.3913 H   0  0  0  0  0  0  0  0  0  0  0  0
   -1.7787    2.4802    0.3669 C   0  0  0  0  0  0  0  0  0  0  0  0
   -1.3264    2.3724    1.3755 H   0  0  0  0  0  0  0  0  0  0  0  0
   -2.3643    3.4177    0.3234 H   0  0  0  0  0  0  0  0  0  0  0  0
   -0.6612    2.5297   -0.6867 C   0  0  0  0  0  0  0  0  0  0  0  0
   -1.0950    2.3655   -1.6969 H   0  0  0  0  0  0  0  0  0  0  0  0
   -0.2136    3.5480   -0.6714 H   0  0  0  0  0  0  0  0  0  0  0  0
    1.6052    1.8810   -0.2940 C   0  0  0  0  0  3  0  0  0  0  0  0
    1.8269    2.9688   -0.3106 H   0  0  0  0  0  0  0  0  0  0  0  0
    2.7423    1.0203   -0.1091 C   0  0  0  0  0  0  0  0  0  0  0  0
    4.0092    1.6575    0.0284 C   0  0  0  0  0  0  0  0  0  0  0  0
    4.0418    2.7586   -0.0003 H   0  0  0  0  0  0  0  0  0  0  0  0
    5.1833    0.9322    0.1904 C   0  0  0  0  0  0  0  0  0  0  0  0
    6.1483    1.4481    0.2948 H   0  0  0  0  0  0  0  0  0  0  0  0
    5.1157   -0.4795    0.2195 C   0  0  0  0  0  0  0  0  0  0  0  0
    6.0362   -1.0690    0.3517 H   0  0  0  0  0  0  0  0  0  0  0  0
    3.8955   -1.1374    0.0896 C   0  0  0  0  0  0  0  0  0  0  0  0
    3.8222   -2.2338    0.1166 H   0  0  0  0  0  0  0  0  0  0  0  0
    2.6801   -0.4209   -0.0782 C   0  0  0  0  0  0  0  0  0  0  0  0
   -2.3435    0.1052    0.0188 N   0  0  0  0  0  2  0  0  0  0  0  0
   -2.7372    1.3972    0.1740 N   0  0  0  0  0  0  0  0  0  0  0  0
    0.3595    1.5208   -0.4483 N   0  0  0  0  0  2  0  0  0  0  0  0
  1 25  1  0  0  0  0
  2 26  1  0  0  0  0
  2  4  1  0  0  0  0
  3  2  1  0  0  0  0
  4  5  1  0  0  0  0
  4  6  2  0  0  0  0
  6  7  1  0  0  0  0
  8  9  1  0  0  0  0
 10  8  1  0  0  0  0
 11 13  1  0  0  0  0
 11 28  1  0  0  0  0
 11  8  1  0  0  0  0
 12 11  1  0  0  0  0
 14 16  1  0  0  0  0
 15 14  1  0  0  0  0
 16 25  2  0  0  0  0
 16 17  1  0  0  0  0
 17 19  2  0  0  0  0
 18 17  1  0  0  0  0
 19 21  1  0  0  0  0
 19 20  1  0  0  0  0
 21 22  1  0  0  0  0
 23 24  1  0  0  0  0
 23 21  2  0  0  0  0
 25 23  1  0  0  0  0
 26 27  1  0  0  0  0
 27  6  1  0  0  0  0
 27  8  1  0  0  0  0
 28 14  1  0  0  0  0
M  CHG  1   1  -1
M  END
