1,4,5
q = -1.0, confidence = 0.01

 33 34  0  0  1  0  0  0  0  0999 V2000
    0.0009    0.3451    1.5412 O   0  5  0  0  0  0  0  0  0  0  0  0
    0.0011   -1.2724    3.1283 O   0  0  0  0  0  0  0  0  0  0  0  0
   -0.0002   -1.3565   -0.5245 N   0  0  0  0  0  0  0  0  0  0  0  0
   -2.0679    0.3812   -0.2212 N   0  0  0  0  0  2  0  0  0  0  0  0
    2.0679    0.3815   -0.2221 N   0  0  0  0  0  2  0  0  0  0  0  0
   -1.2317   -1.6207   -1.2849 C   0  0  0  0  0  0  0  0  0  0  0  0
   -2.3759   -0.8614   -0.6616 C   0  0  2  0  0  3  0  0  0  0  0  0
   -3.6755   -1.3723   -0.5358 C   0  0  0  0  0  0  0  0  0  0  0  0
   -4.6673   -0.5731    0.0507 C   0  0  0  0  0  0  0  0  0  0  0  0
   -4.3264    0.7053    0.5122 C   0  0  0  0  0  0  0  0  0  0  0  0
   -3.0050    1.1451    0.3649 C   0  0  0  0  0  0  0  0  0  0  0  0
    1.2313   -1.6207   -1.2849 C   0  0  0  0  0  0  0  0  0  0  0  0
    2.3756   -0.8614   -0.6618 C   0  0  1  0  0  3  0  0  0  0  0  0
    3.6751   -1.3725   -0.5355 C   0  0  0  0  0  0  0  0  0  0  0  0
    4.6670   -0.5734    0.0507 C   0  0  0  0  0  0  0  0  0  0  0  0
    4.3264    0.7055    0.5114 C   0  0  0  0  0  0  0  0  0  0  0  0
    3.0052    1.1455    0.3637 C   0  0  0  0  0  0  0  0  0  0  0  0
   -0.0002   -1.9412    0.8306 C   0  0  0  0  0  0  0  0  0  0  0  0
    0.0007   -0.8787    1.9677 C   0  0  0  0  0  0  0  0  0  0  0  0
   -1.0762   -1.2182   -2.3076 H   0  0  0  0  0  0  0  0  0  0  0  0
   -1.4655   -2.7075   -1.3539 H   0  0  0  0  0  0  0  0  0  0  0  0
   -3.8980   -2.3900   -0.8878 H   0  0  0  0  0  0  0  0  0  0  0  0
   -5.6938   -0.9538    0.1609 H   0  0  0  0  0  0  0  0  0  0  0  0
   -5.0682    1.3579    0.9935 H   0  0  0  0  0  0  0  0  0  0  0  0
   -2.6546    2.1252    0.7265 H   0  0  0  0  0  0  0  0  0  0  0  0
    1.4652   -2.7075   -1.3540 H   0  0  0  0  0  0  0  0  0  0  0  0
    1.0757   -1.2182   -2.3076 H   0  0  0  0  0  0  0  0  0  0  0  0
    3.8973   -2.3905   -0.8869 H   0  0  0  0  0  0  0  0  0  0  0  0
    5.6934   -0.9543    0.1613 H   0  0  0  0  0  0  0  0  0  0  0  0
    5.0684    1.3581    0.9924 H   0  0  0  0  0  0  0  0  0  0  0  0
    2.6550    2.1259    0.7247 H   0  0  0  0  0  0  0  0  0  0  0  0
   -0.8880   -2.5890    0.9788 H   0  0  0  0  0  0  0  0  0  0  0  0
    0.8868   -2.5904    0.9784 H   0  0  0  0  0  0  0  0  0  0  0  0
  1 19  1  0  0  0  0
  3 18  1  0  0  0  0
  4 11  1  0  0  0  0
  5 17  1  0  0  0  0
  6  3  1  0  0  0  0
  7  6  1  6  0  0  0
  7  8  1  0  0  0  0
  7  4  1  0  0  0  0
  8  9  2  0  0  0  0
  9 23  1  0  0  0  0
  9 10  1  0  0  0  0
 10 24  1  0  0  0  0
 11 10  2  0  0  0  0
 11 25  1  0  0  0  0
 12  3  1  0  0  0  0
 13 12  1  6  0  0  0
 13 14  1  0  0  0  0
 13  5  1  0  0  0  0
 14 15  2  0  0  0  0
 15 29  1  0  0  0  0
 15 16  1  0  0  0  0
 16 30  1  0  0  0  0
 17 16  2  0  0  0  0
 17 31  1  0  0  0  0
 18 33  1  0  0  0  0
 18 32  1  0  0  0  0
 18 19  1  0  0  0  0
 19  2  2  0  0  0  0
 20  6  1  0  0  0  0
 21  6  1  0  0  0  0
 22  8  1  0  0  0  0
 26 12  1  0  0  0  0
 27 12  1  0  0  0  0
 28 14  1  0  0  0  0
M  CHG  1   1  -1
M  END
