1,5,6
q = -1.0

 33 33  0  0  1  0  0  0  0  0999 V2000
   -1.3085   -0.2366    1.6297 O   0  5  0  0  0  0  0  0  0  0  0  0
   -1.0734    1.2996    3.2768 O   0  0  0  0  0  0  0  0  0  0  0  0
    4.8034   -0.9515    0.0923 O   0  0  0  0  0  0  0  0  0  0  0  0
    5.6226    1.0875   -0.4751 O   0  0  0  0  0  0  0  0  0  0  0  0
    0.8155    0.6245    0.2731 N   0  0  0  0  0  0  0  0  0  0  0  0
   -1.8450    1.0576   -0.5864 N   0  0  0  0  0  2  0  0  0  0  0  0
    0.4760    1.8123   -0.5724 C   0  0  0  0  0  0  0  0  0  0  0  0
    0.7752    1.5502   -1.6086 H   0  0  0  0  0  0  0  0  0  0  0  0
    1.0556    2.7065   -0.2615 H   0  0  0  0  0  0  0  0  0  0  0  0
   -0.9994    2.1267   -0.5706 C   0  0  1  0  0  3  0  0  0  0  0  0
   -1.4986    3.4342   -0.5673 C   0  0  0  0  0  0  0  0  0  0  0  0
   -0.7998    4.2826   -0.5423 H   0  0  0  0  0  0  0  0  0  0  0  0
   -2.8868    3.6408   -0.5734 C   0  0  0  0  0  0  0  0  0  0  0  0
   -3.2950    4.6621   -0.5603 H   0  0  0  0  0  0  0  0  0  0  0  0
   -3.7405    2.5290   -0.5736 C   0  0  0  0  0  0  0  0  0  0  0  0
   -4.8334    2.6450   -0.5678 H   0  0  0  0  0  0  0  0  0  0  0  0
   -3.1829    1.2474   -0.5742 C   0  0  0  0  0  0  0  0  0  0  0  0
   -3.7838    0.3228   -0.5687 H   0  0  0  0  0  0  0  0  0  0  0  0
   -0.6659    0.7102    2.2963 C   0  0  0  0  0  0  0  0  0  0  0  0
    0.7419    0.9331    1.7211 C   0  0  0  0  0  0  0  0  0  0  0  0
    1.0824    1.9626    1.9517 H   0  0  0  0  0  0  0  0  0  0  0  0
    1.4003    0.2183    2.2555 H   0  0  0  0  0  0  0  0  0  0  0  0
    2.1435    0.0566   -0.1049 C   0  0  0  0  0  0  0  0  0  0  0  0
    2.0800   -0.2310   -1.1718 H   0  0  0  0  0  0  0  0  0  0  0  0
    2.2679   -0.8866    0.4620 H   0  0  0  0  0  0  0  0  0  0  0  0
    3.3357    0.9856    0.1318 C   0  0  0  0  0  0  0  0  0  0  0  0
    3.3278    1.8841   -0.5162 H   0  0  0  0  0  0  0  0  0  0  0  0
    3.3535    1.3528    1.1814 H   0  0  0  0  0  0  0  0  0  0  0  0
    4.6428    0.2401   -0.0822 C   0  0  0  0  0  0  0  0  0  0  0  0
    6.9142    0.4863   -0.6548 C   0  0  0  0  0  0  0  0  0  0  0  0
    7.2712    0.0306    0.2905 H   0  0  0  0  0  0  0  0  0  0  0  0
    7.5892    1.3010   -0.9707 H   0  0  0  0  0  0  0  0  0  0  0  0
    6.8734   -0.3068   -1.4280 H   0  0  0  0  0  0  0  0  0  0  0  0
  1 19  1  0  0  0  0
  4 29  1  0  0  0  0
  5 20  1  0  0  0  0
  6 17  1  0  0  0  0
  6 10  1  0  0  0  0
  7  9  1  0  0  0  0
  7  5  1  0  0  0  0
  8  7  1  0  0  0  0
 10  7  1  6  0  0  0
 10 11  1  0  0  0  0
 11 12  1  0  0  0  0
 13 11  2  0  0  0  0
 13 14  1  0  0  0  0
 15 13  1  0  0  0  0
 15 16  1  0  0  0  0
 17 15  2  0  0  0  0
 17 18  1  0  0  0  0
 19  2  2  0  0  0  0
 20 21  1  0  0  0  0
 20 22  1  0  0  0  0
 20 19  1  0  0  0  0
 23 26  1  0  0  0  0
 23  5  1  0  0  0  0
 23 25  1  0  0  0  0
 24 23  1  0  0  0  0
 26 28  1  0  0  0  0
 27 26  1  0  0  0  0
 29  3  2  0  0  0  0
 29 26  1  0  0  0  0
 30  4  1  0  0  0  0
 30 31  1  0  0  0  0
 32 30  1  0  0  0  0
 33 30  1  0  0  0  0
M  CHG  1   1  -1
M  END
