1,3,4
q = -1.0

 25 26  0  0  1  0  0  0  0  0999 V2000
   -0.0094   -1.6724    1.6253 O   0  5  0  0  0  0  0  0  0  0  0  0
   -1.4345   -2.9288    2.8387 O   0  0  0  0  0  0  0  0  0  0  0  0
   -1.7652   -0.0219    0.8966 N   0  0  0  0  0  2  0  0  0  0  0  0
   -0.3581    1.5482   -0.4861 N   0  0  0  0  0  2  0  0  0  0  0  0
   -1.2008   -1.9706    2.1180 C   0  0  0  0  0  0  0  0  0  0  0  0
   -2.2585   -0.9733    1.7000 C   0  0  1  0  0  3  0  0  0  0  0  0
   -3.6045   -0.9519    2.0683 C   0  0  0  0  0  0  0  0  0  0  0  0
   -3.9873   -1.7489    2.7208 H   0  0  0  0  0  0  0  0  0  0  0  0
   -4.4072    0.0878    1.5698 C   0  0  0  0  0  0  0  0  0  0  0  0
   -5.4766    0.1279    1.8232 H   0  0  0  0  0  0  0  0  0  0  0  0
   -3.8561    1.0813    0.7461 C   0  0  0  0  0  0  0  0  0  0  0  0
   -4.4787    1.8957    0.3529 H   0  0  0  0  0  0  0  0  0  0  0  0
   -2.4933    1.0054    0.4197 C   0  0  0  0  0  0  0  0  0  0  0  0
   -1.6772    1.9113   -0.3972 C   0  0  1  0  0  3  0  0  0  0  0  0
   -2.1537    3.0897   -0.9906 C   0  0  0  0  0  0  0  0  0  0  0  0
   -3.2172    3.3462   -0.9018 H   0  0  0  0  0  0  0  0  0  0  0  0
   -1.2706    3.9039   -1.7005 C   0  0  0  0  0  0  0  0  0  0  0  0
   -1.6256    4.8254   -2.1842 H   0  0  0  0  0  0  0  0  0  0  0  0
    0.0783    3.5321   -1.7830 C   0  0  0  0  0  0  0  0  0  0  0  0
    0.8110    4.1432   -2.3289 H   0  0  0  0  0  0  0  0  0  0  0  0
    0.4926    2.3431   -1.1621 C   0  0  0  0  0  0  0  0  0  0  0  0
    1.9408    1.9162   -1.2889 C   0  0  0  0  0  0  0  0  0  0  0  0
    2.3302    1.1292   -2.1200 O   0  0  0  0  0  0  0  0  0  0  0  0
    2.7954    2.5290   -0.4357 O   0  0  0  0  0  0  0  0  0  0  0  0
    2.2984    3.0709    0.2131 H   0  0  0  0  0  0  0  0  0  0  0  0
  1  5  1  0  0  0  0
  3  6  1  0  0  0  0
  4 14  1  0  0  0  0
  5  2  2  0  0  0  0
  6  7  1  0  0  0  0
  6  5  1  1  0  0  0
  7  8  1  0  0  0  0
  9 10  1  0  0  0  0
  9  7  2  0  0  0  0
 11  9  1  0  0  0  0
 12 11  1  0  0  0  0
 13 11  2  0  0  0  0
 13  3  1  0  0  0  0
 14 13  1  1  0  0  0
 15 16  1  0  0  0  0
 15 14  1  0  0  0  0
 17 15  2  0  0  0  0
 18 17  1  0  0  0  0
 19 17  1  0  0  0  0
 19 21  2  0  0  0  0
 20 19  1  0  0  0  0
 21  4  1  0  0  0  0
 22 21  1  0  0  0  0
 22 24  1  0  0  0  0
 23 22  2  0  0  0  0
 24 25  1  0  0  0  0
M  CHG  1   1  -1
M  END
