1,2,4
q = -1.0

 41 41  0  0  0  0  0  0  0  0999 V2000
    0.1036   -0.6485   -0.2663 O   0  5  0  0  0  0  0  0  0  0  0  0
   -1.5708    1.4711   -0.2889 N   0  0  0  0  0  2  0  0  0  0  0  0
    1.1017    0.1771   -0.1235 C   0  0  0  0  0  0  0  0  0  0  0  0
   -3.8581    0.0842   -0.1682 N   0  0  0  0  0  0  0  0  0  0  0  0
    2.4502   -0.3216   -0.0204 C   0  0  0  0  0  0  0  0  0  0  0  0
    1.9734    2.4971    0.0301 C   0  0  0  0  0  0  0  0  0  0  0  0
   -2.8088    2.2301   -0.4257 C   0  0  0  0  0  0  0  0  0  0  0  0
    0.8767    1.5976   -0.0898 C   0  0  0  0  0  0  0  0  0  0  0  0
    3.2766    2.0295    0.1262 C   0  0  0  0  0  0  0  0  0  0  0  0
   -0.4437    2.1361   -0.2030 C   0  0  0  0  0  3  0  0  0  0  0  0
    3.4749    0.6194    0.1002 C   0  0  0  0  0  0  0  0  0  0  0  0
    2.7141   -1.8372   -0.0222 C   0  0  0  0  0  0  0  0  0  0  0  0
   -3.9092    1.4717    0.3044 C   0  0  0  0  0  0  0  0  0  0  0  0
    4.4588    2.9559    0.2574 C   0  0  0  0  0  0  0  0  0  0  0  0
   -4.8000   -0.8368    0.4878 C   0  0  0  0  0  0  0  0  0  0  0  0
    2.1876   -2.4628   -1.3366 C   0  0  0  0  0  0  0  0  0  0  0  0
    2.0024   -2.4811    1.1931 C   0  0  0  0  0  0  0  0  0  0  0  0
    4.2167   -2.1532    0.0846 C   0  0  0  0  0  0  0  0  0  0  0  0
    1.7698    3.5808    0.0476 H   0  0  0  0  0  0  0  0  0  0  0  0
   -3.0752    2.3089   -1.5070 H   0  0  0  0  0  0  0  0  0  0  0  0
   -2.7106    3.2692   -0.0414 H   0  0  0  0  0  0  0  0  0  0  0  0
   -0.5014    3.2471   -0.2194 H   0  0  0  0  0  0  0  0  0  0  0  0
    4.5106    0.2588    0.1841 H   0  0  0  0  0  0  0  0  0  0  0  0
   -3.7075    1.4590    1.3957 H   0  0  0  0  0  0  0  0  0  0  0  0
   -4.9063    1.9405    0.1403 H   0  0  0  0  0  0  0  0  0  0  0  0
    4.1463    4.0182    0.2633 H   0  0  0  0  0  0  0  0  0  0  0  0
    5.0225    2.7647    1.1949 H   0  0  0  0  0  0  0  0  0  0  0  0
    5.1765    2.8196   -0.5790 H   0  0  0  0  0  0  0  0  0  0  0  0
   -5.8501   -0.4794    0.4042 H   0  0  0  0  0  0  0  0  0  0  0  0
   -4.6942   -1.8290    0.0126 H   0  0  0  0  0  0  0  0  0  0  0  0
   -4.5116   -0.9382    1.5504 H   0  0  0  0  0  0  0  0  0  0  0  0
    1.0967   -2.3217   -1.4442 H   0  0  0  0  0  0  0  0  0  0  0  0
    2.6917   -2.0112   -2.2156 H   0  0  0  0  0  0  0  0  0  0  0  0
    2.4000   -3.5519   -1.3443 H   0  0  0  0  0  0  0  0  0  0  0  0
    2.4005   -2.0687    2.1427 H   0  0  0  0  0  0  0  0  0  0  0  0
    0.9108   -2.3084    1.1690 H   0  0  0  0  0  0  0  0  0  0  0  0
    2.1795   -3.5767    1.1960 H   0  0  0  0  0  0  0  0  0  0  0  0
    4.6603   -1.7649    1.0242 H   0  0  0  0  0  0  0  0  0  0  0  0
    4.3608   -3.2521    0.0808 H   0  0  0  0  0  0  0  0  0  0  0  0
    4.7919   -1.7396   -0.7691 H   0  0  0  0  0  0  0  0  0  0  0  0
   -4.0254    0.0568   -1.1852 H   0  0  0  0  0  0  0  0  0  0  0  0
  1  3  1  0  0  0  0
  2 10  1  0  0  0  0
  3  8  2  0  0  0  0
  3  5  1  0  0  0  0
  4 13  1  0  0  0  0
  4 15  1  0  0  0  0
  5 11  2  0  0  0  0
  6 19  1  0  0  0  0
  6  9  2  0  0  0  0
  7  2  1  0  0  0  0
  7 21  1  0  0  0  0
  7 13  1  0  0  0  0
  8  6  1  0  0  0  0
  9 14  1  0  0  0  0
 10  8  1  0  0  0  0
 11  9  1  0  0  0  0
 11 23  1  0  0  0  0
 12  5  1  0  0  0  0
 12 18  1  0  0  0  0
 12 17  1  0  0  0  0
 13 24  1  0  0  0  0
 14 26  1  0  0  0  0
 14 27  1  0  0  0  0
 15 31  1  0  0  0  0
 16 12  1  0  0  0  0
 17 37  1  0  0  0  0
 17 35  1  0  0  0  0
 18 38  1  0  0  0  0
 20  7  1  0  0  0  0
 22 10  1  0  0  0  0
 25 13  1  0  0  0  0
 28 14  1  0  0  0  0
 29 15  1  0  0  0  0
 30 15  1  0  0  0  0
 32 16  1  0  0  0  0
 33 16  1  0  0  0  0
 34 16  1  0  0  0  0
 36 17  1  0  0  0  0
 39 18  1  0  0  0  0
 40 18  1  0  0  0  0
 41  4  1  0  0  0  0
M  CHG  1   1  -1
M  END
