1,2,3
q = -1.0

 37 38  0  0  0  0  0  0  0  0999 V2000
    0.2052    1.0773    0.0750 N   0  0  0  0  0  2  0  0  0  0  0  0
   -2.3703    0.2198    0.1394 N   0  0  0  0  0  0  0  0  0  0  0  0
    1.3291   -1.3876   -0.3165 O   0  5  0  0  0  0  0  0  0  0  0  0
   -5.1832    0.1728   -0.6279 O   0  0  0  0  0  0  0  0  0  0  0  0
    2.6138    0.6224   -0.0134 C   0  0  0  0  0  0  0  0  0  0  0  0
    2.4848   -0.7949   -0.2271 C   0  0  0  0  0  0  0  0  0  0  0  0
    3.6862   -1.5504   -0.3650 C   0  0  0  0  0  0  0  0  0  0  0  0
    3.5877   -2.6325   -0.5318 H   0  0  0  0  0  0  0  0  0  0  0  0
    4.9288   -0.9350   -0.2843 C   0  0  0  0  0  0  0  0  0  0  0  0
    5.8366   -1.5518   -0.3898 H   0  0  0  0  0  0  0  0  0  0  0  0
    5.0743    0.4660   -0.0689 C   0  0  0  0  0  0  0  0  0  0  0  0
    3.9075    1.2142    0.0591 C   0  0  0  0  0  0  0  0  0  0  0  0
    3.9736    2.3031    0.2234 H   0  0  0  0  0  0  0  0  0  0  0  0
    6.4441    1.0898    0.0140 C   0  0  0  0  0  0  0  0  0  0  0  0
    6.3849    2.1841    0.1725 H   0  0  0  0  0  0  0  0  0  0  0  0
    7.0279    0.9141   -0.9141 H   0  0  0  0  0  0  0  0  0  0  0  0
    7.0362    0.6599    0.8494 H   0  0  0  0  0  0  0  0  0  0  0  0
    1.4586    1.4570    0.1111 C   0  0  0  0  0  3  0  0  0  0  0  0
    1.6674    2.5404    0.2559 H   0  0  0  0  0  0  0  0  0  0  0  0
   -0.8179    2.1052    0.2353 C   0  0  0  0  0  0  0  0  0  0  0  0
   -1.0752    2.5377   -0.7582 H   0  0  0  0  0  0  0  0  0  0  0  0
   -0.4611    2.9507    0.8635 H   0  0  0  0  0  0  0  0  0  0  0  0
   -2.0453    1.4660    0.8673 C   0  0  0  0  0  0  0  0  0  0  0  0
   -1.8129    1.1677    1.9093 H   0  0  0  0  0  0  0  0  0  0  0  0
   -2.8911    2.1871    0.8920 H   0  0  0  0  0  0  0  0  0  0  0  0
   -2.8439    0.4354   -1.2589 C   0  0  0  0  0  0  0  0  0  0  0  0
   -2.8057   -0.5612   -1.7413 H   0  0  0  0  0  0  0  0  0  0  0  0
   -2.1336    1.0906   -1.8008 H   0  0  0  0  0  0  0  0  0  0  0  0
   -4.2628    1.0018   -1.3122 C   0  0  0  0  0  0  0  0  0  0  0  0
   -4.2937    2.0441   -0.9009 H   0  0  0  0  0  0  0  0  0  0  0  0
   -4.5965    1.0569   -2.3681 H   0  0  0  0  0  0  0  0  0  0  0  0
   -4.7972   -0.0039    0.7270 C   0  0  0  0  0  0  0  0  0  0  0  0
   -5.5327   -0.6946    1.1855 H   0  0  0  0  0  0  0  0  0  0  0  0
   -4.8655    0.9680    1.2795 H   0  0  0  0  0  0  0  0  0  0  0  0
   -3.3987   -0.6047    0.8415 C   0  0  0  0  0  0  0  0  0  0  0  0
   -3.0765   -0.7376    1.8918 H   0  0  0  0  0  0  0  0  0  0  0  0
   -3.3700   -1.6006    0.3575 H   0  0  0  0  0  0  0  0  0  0  0  0
  1 18  1  0  0  0  0
  1 20  1  0  0  0  0
  2 35  1  0  0  0  0
  2 23  1  0  0  0  0
  3  6  1  0  0  0  0
  4 32  1  0  0  0  0
  5 12  1  0  0  0  0
  5 18  1  0  0  0  0
  6  5  2  0  0  0  0
  7  9  2  0  0  0  0
  7  6  1  0  0  0  0
  8  7  1  0  0  0  0
  9 11  1  0  0  0  0
 10  9  1  0  0  0  0
 11 14  1  0  0  0  0
 11 12  2  0  0  0  0
 12 13  1  0  0  0  0
 14 15  1  0  0  0  0
 14 17  1  0  0  0  0
 16 14  1  0  0  0  0
 18 19  1  0  0  0  0
 20 22  1  0  0  0  0
 20 23  1  0  0  0  0
 21 20  1  0  0  0  0
 23 25  1  0  0  0  0
 23 24  1  0  0  0  0
 26  2  1  0  0  0  0
 27 26  1  0  0  0  0
 28 26  1  0  0  0  0
 29 26  1  0  0  0  0
 29 30  1  0  0  0  0
 29  4  1  0  0  0  0
 31 29  1  0  0  0  0
 32 35  1  0  0  0  0
 32 33  1  0  0  0  0
 32 34  1  0  0  0  0
 35 36  1  0  0  0  0
 37 35  1  0  0  0  0
M  CHG  1   3  -1
M  END
