4,5,6
q = -1.0

 36 36  0  0  0  0  0  0  0  0999 V2000
   -5.1873    1.4983    0.7769 F   0  0  0  0  0  0  0  0  0  0  0  0
   -5.7935   -0.5872    0.8946 F   0  0  0  0  0  0  0  0  0  0  0  0
   -6.7956    0.7605   -0.5046 F   0  0  0  0  0  0  0  0  0  0  0  0
    1.1213    1.0762    0.3451 N   0  0  0  0  0  2  0  0  0  0  0  0
    3.8223    0.6948    0.2345 N   0  0  0  0  0  0  0  0  0  0  0  0
    0.3604   -1.5307    0.3091 O   0  5  0  0  0  0  0  0  0  0  0  0
   -4.7625    0.1407   -0.9725 O   0  0  0  0  0  0  0  0  0  0  0  0
   -1.1454    0.2888   -0.1288 C   0  0  0  0  0  0  0  0  0  0  0  0
   -0.8314   -1.1134    0.0142 C   0  0  0  0  0  0  0  0  0  0  0  0
   -1.8952   -2.0533   -0.1523 C   0  0  0  0  0  0  0  0  0  0  0  0
   -1.6523   -3.1188   -0.0361 H   0  0  0  0  0  0  0  0  0  0  0  0
   -3.1814   -1.6328   -0.4629 C   0  0  0  0  0  0  0  0  0  0  0  0
   -3.9955   -2.3587   -0.6027 H   0  0  0  0  0  0  0  0  0  0  0  0
   -3.4665   -0.2544   -0.6077 C   0  0  0  0  0  0  0  0  0  0  0  0
   -2.4721    0.6953   -0.4371 C   0  0  0  0  0  0  0  0  0  0  0  0
   -2.7143    1.7631   -0.5420 H   0  0  0  0  0  0  0  0  0  0  0  0
   -0.1467    1.2888    0.1021 C   0  0  0  0  0  3  0  0  0  0  0  0
   -0.5024    2.3425    0.0875 H   0  0  0  0  0  0  0  0  0  0  0  0
    1.9787    2.2186    0.6239 C   0  0  0  0  0  0  0  0  0  0  0  0
    2.1764    2.2625    1.7206 H   0  0  0  0  0  0  0  0  0  0  0  0
    1.4995    3.1820    0.3406 H   0  0  0  0  0  0  0  0  0  0  0  0
    3.2929    2.0212   -0.1164 C   0  0  0  0  0  0  0  0  0  0  0  0
    3.1136    2.0332   -1.2118 H   0  0  0  0  0  0  0  0  0  0  0  0
    3.9981    2.8455    0.1239 H   0  0  0  0  0  0  0  0  0  0  0  0
    5.0258    0.2647   -0.5528 C   0  0  0  0  0  0  0  0  0  0  0  0
    4.6298    0.0278   -1.5628 H   0  0  0  0  0  0  0  0  0  0  0  0
    6.0886    1.3656   -0.6512 C   0  0  0  0  0  0  0  0  0  0  0  0
    5.7354    2.2681   -1.1875 H   0  0  0  0  0  0  0  0  0  0  0  0
    6.9653    0.9798   -1.2073 H   0  0  0  0  0  0  0  0  0  0  0  0
    6.4455    1.6733    0.3553 H   0  0  0  0  0  0  0  0  0  0  0  0
    5.6126   -1.0119    0.0455 C   0  0  0  0  0  0  0  0  0  0  0  0
    6.0070   -0.8270    1.0678 H   0  0  0  0  0  0  0  0  0  0  0  0
    6.4565   -1.3580   -0.5824 H   0  0  0  0  0  0  0  0  0  0  0  0
    4.8536   -1.8117    0.1052 H   0  0  0  0  0  0  0  0  0  0  0  0
   -5.6178    0.4458    0.0399 C   0  0  0  0  0  0  0  0  0  0  0  0
    4.0767    0.6818    1.2353 H   0  0  0  0  0  0  0  0  0  0  0  0
  3 35  1  0  0  0  0
  4 19  1  0  0  0  0
  5 36  1  0  0  0  0
  7 14  1  0  0  0  0
  7 35  1  0  0  0  0
  8  9  1  0  0  0  0
  8 17  1  0  0  0  0
  9  6  1  0  0  0  0
 10 11  1  0  0  0  0
 10  9  2  0  0  0  0
 12 10  1  0  0  0  0
 13 12  1  0  0  0  0
 14 12  2  0  0  0  0
 14 15  1  0  0  0  0
 15  8  2  0  0  0  0
 16 15  1  0  0  0  0
 17  4  1  0  0  0  0
 18 17  1  0  0  0  0
 19 20  1  0  0  0  0
 21 19  1  0  0  0  0
 22 24  1  0  0  0  0
 22  5  1  0  0  0  0
 22 19  1  0  0  0  0
 23 22  1  0  0  0  0
 25 31  1  0  0  0  0
 25  5  1  0  0  0  0
 26 25  1  0  0  0  0
 27 25  1  0  0  0  0
 27 30  1  0  0  0  0
 28 27  1  0  0  0  0
 29 27  1  0  0  0  0
 31 34  1  0  0  0  0
 31 32  1  0  0  0  0
 33 31  1  0  0  0  0
 35  1  1  0  0  0  0
 35  2  1  0  0  0  0
M  CHG  1   6  -1
M  END
