1,2,3
q = -1.0

 27 28  0  0  0  0  0  0  0  0999 V2000
   -1.8962    0.3618   -0.0397 N   0  0  0  0  0  2  0  0  0  0  0  0
    0.6979    0.9121   -0.0024 N   0  0  0  0  0  2  0  0  0  0  0  0
    1.6475   -1.6174   -0.0134 O   0  5  0  0  0  0  0  0  0  0  0  0
   -3.1840    0.0115   -0.1666 C   0  0  0  0  0  0  0  0  0  0  0  0
   -3.3534   -1.0740   -0.2720 H   0  0  0  0  0  0  0  0  0  0  0  0
   -4.2163    0.9630   -0.1768 C   0  0  0  0  0  0  0  0  0  0  0  0
   -5.2595    0.6325   -0.2742 H   0  0  0  0  0  0  0  0  0  0  0  0
   -3.8776    2.3164   -0.0655 C   0  0  0  0  0  0  0  0  0  0  0  0
   -4.6562    3.0936   -0.0761 H   0  0  0  0  0  0  0  0  0  0  0  0
   -2.5288    2.6795    0.0515 C   0  0  0  0  0  0  0  0  0  0  0  0
   -2.2479    3.7385    0.1166 H   0  0  0  0  0  0  0  0  0  0  0  0
   -1.5288    1.6861    0.0670 C   0  0  0  0  0  0  0  0  0  0  0  0
   -0.0856    1.9693    0.1534 C   0  0  0  0  0  0  0  0  0  0  0  0
    0.4067    3.3622    0.4158 C   0  0  0  0  0  0  0  0  0  0  0  0
    0.7631    3.8640   -0.5095 H   0  0  0  0  0  0  0  0  0  0  0  0
    1.2546    3.3395    1.1279 H   0  0  0  0  0  0  0  0  0  0  0  0
   -0.3844    3.9947    0.8568 H   0  0  0  0  0  0  0  0  0  0  0  0
    2.0756    0.7617   -0.0561 C   0  0  0  0  0  0  0  0  0  0  0  0
    3.0497    1.7960   -0.1654 C   0  0  0  0  0  0  0  0  0  0  0  0
    2.7415    2.8429   -0.2567 H   0  0  0  0  0  0  0  0  0  0  0  0
    4.4041    1.4857   -0.2003 C   0  0  0  0  0  0  0  0  0  0  0  0
    5.1476    2.2897   -0.2974 H   0  0  0  0  0  0  0  0  0  0  0  0
    4.8247    0.1316   -0.1212 C   0  0  0  0  0  0  0  0  0  0  0  0
    5.9008   -0.1016   -0.1407 H   0  0  0  0  0  0  0  0  0  0  0  0
    3.9052   -0.9042   -0.0383 C   0  0  0  0  0  0  0  0  0  0  0  0
    4.2163   -1.9577    0.0025 H   0  0  0  0  0  0  0  0  0  0  0  0
    2.5013   -0.6349   -0.0336 C   0  0  0  0  0  0  0  0  0  0  0  0
  1 12  1  0  0  0  0
  2 13  1  0  0  0  0
  4  1  1  0  0  0  0
  5  4  1  0  0  0  0
  6  4  2  0  0  0  0
  6  8  1  0  0  0  0
  7  6  1  0  0  0  0
  8 10  2  0  0  0  0
  9  8  1  0  0  0  0
 10 12  1  0  0  0  0
 10 11  1  0  0  0  0
 12 13  2  0  0  0  0
 13 14  1  0  0  0  0
 14 17  1  0  0  0  0
 14 16  1  0  0  0  0
 15 14  1  0  0  0  0
 18 27  1  0  0  0  0
 18  2  1  0  0  0  0
 19 18  2  0  0  0  0
 20 19  1  0  0  0  0
 21 19  1  0  0  0  0
 21 23  2  0  0  0  0
 22 21  1  0  0  0  0
 23 25  1  0  0  0  0
 24 23  1  0  0  0  0
 25 27  2  0  0  0  0
 25 26  1  0  0  0  0
 27  3  1  0  0  0  0
M  CHG  1   3  -1
M  END
