1,4,5
q = -1.0

 34 34  0  0  0  0  0  0  0  0999 V2000
   -0.3009   -0.7782    1.0790 O   0  5  0  0  0  0  0  0  0  0  0  0
   -4.3658   -4.0708   -0.7704 O   0  0  0  0  0  0  0  0  0  0  0  0
    4.6741    2.2579   -0.6348 O   0  0  0  0  0  0  0  0  0  0  0  0
    1.0909   -1.5597   -1.1743 N   0  0  0  0  0  2  0  0  0  0  0  0
    2.5286    0.6916   -1.2052 N   0  0  0  0  0  0  0  0  0  0  0  0
   -1.2605   -1.5322    0.5851 C   0  0  0  0  0  0  0  0  0  0  0  0
   -2.5000   -1.5896    1.2766 C   0  0  0  0  0  0  0  0  0  0  0  0
   -2.6149   -0.9529    2.1652 H   0  0  0  0  0  0  0  0  0  0  0  0
   -3.5393   -2.4206    0.8601 C   0  0  0  0  0  0  0  0  0  0  0  0
   -4.4753   -2.4235    1.4355 H   0  0  0  0  0  0  0  0  0  0  0  0
   -3.4015   -3.2400   -0.2923 C   0  0  0  0  0  0  0  0  0  0  0  0
   -5.6075   -4.1306   -0.0908 C   0  0  0  0  0  0  0  0  0  0  0  0
   -5.4909   -4.4838    0.9585 H   0  0  0  0  0  0  0  0  0  0  0  0
   -6.2306   -4.8566   -0.6442 H   0  0  0  0  0  0  0  0  0  0  0  0
   -6.1250   -3.1451   -0.0829 H   0  0  0  0  0  0  0  0  0  0  0  0
   -2.1977   -3.1958   -1.0006 C   0  0  0  0  0  0  0  0  0  0  0  0
   -2.0964   -3.8223   -1.8994 H   0  0  0  0  0  0  0  0  0  0  0  0
   -1.1287   -2.3565   -0.5919 C   0  0  0  0  0  0  0  0  0  0  0  0
    0.0763   -2.3601   -1.3666 C   0  0  0  0  0  3  0  0  0  0  0  0
    0.1503   -3.1039   -2.1861 H   0  0  0  0  0  0  0  0  0  0  0  0
    2.2775   -1.5865   -2.0134 C   0  0  0  0  0  0  0  0  0  0  0  0
    2.1498   -2.2479   -2.8967 H   0  0  0  0  0  0  0  0  0  0  0  0
    3.1442   -1.9748   -1.4275 H   0  0  0  0  0  0  0  0  0  0  0  0
    2.5252   -0.1428   -2.4333 C   0  0  0  0  0  0  0  0  0  0  0  0
    3.4690   -0.0360   -3.0092 H   0  0  0  0  0  0  0  0  0  0  0  0
    1.6811    0.2066   -3.0596 H   0  0  0  0  0  0  0  0  0  0  0  0
    2.4849    2.1497   -1.4810 C   0  0  0  0  0  0  0  0  0  0  0  0
    2.0648    2.6530   -0.5912 H   0  0  0  0  0  0  0  0  0  0  0  0
    1.7956    2.3434   -2.3235 H   0  0  0  0  0  0  0  0  0  0  0  0
    3.8853    2.6892   -1.7426 C   0  0  0  0  0  0  0  0  0  0  0  0
    4.2925    2.3032   -2.7073 H   0  0  0  0  0  0  0  0  0  0  0  0
    3.8359    3.7991   -1.8218 H   0  0  0  0  0  0  0  0  0  0  0  0
    3.4354    0.5537   -0.7218 H   0  0  0  0  0  0  0  0  0  0  0  0
    5.5988    2.5285   -0.7768 H   0  0  0  0  0  0  0  0  0  0  0  0
  2 11  1  0  0  0  0
  2 12  1  0  0  0  0
  5 33  1  0  0  0  0
  6  1  1  0  0  0  0
  6  7  1  0  0  0  0
  7  8  1  0  0  0  0
  9  7  2  0  0  0  0
  9 10  1  0  0  0  0
 11  9  1  0  0  0  0
 12 15  1  0  0  0  0
 12 13  1  0  0  0  0
 14 12  1  0  0  0  0
 16 18  1  0  0  0  0
 16 11  2  0  0  0  0
 17 16  1  0  0  0  0
 18  6  2  0  0  0  0
 19  4  1  0  0  0  0
 19 18  1  0  0  0  0
 20 19  1  0  0  0  0
 21 23  1  0  0  0  0
 21  4  1  0  0  0  0
 22 21  1  0  0  0  0
 24 21  1  0  0  0  0
 24  5  1  0  0  0  0
 25 24  1  0  0  0  0
 26 24  1  0  0  0  0
 27  5  1  0  0  0  0
 27 28  1  0  0  0  0
 29 27  1  0  0  0  0
 30 27  1  0  0  0  0
 30  3  1  0  0  0  0
 31 30  1  0  0  0  0
 32 30  1  0  0  0  0
 34  3  1  0  0  0  0
M  CHG  1   1  -1
M  END
