2,3,4
q = -1.0

 66 68  0  0  1  0  0  0  0  0999 V2000
   -2.0867   -0.8746   -0.6308 S   0  0  0  0  0  0  0  0  0  0  0  0
    1.5343    0.4250    0.8093 N   0  0  0  0  0  2  0  0  0  0  0  0
   -1.0489   -0.3679    0.5526 N   0  0  0  0  0  2  0  0  0  0  0  0
   -1.1890   -0.4804   -1.8047 O   0  0  0  0  0  1  0  0  0  0  0  0
   -2.5080   -2.2865   -0.5317 O   0  0  0  0  0  1  0  0  0  0  0  0
    2.8153    1.0436    0.5616 C   0  0  0  0  0  0  0  0  0  0  0  0
    3.9457    0.2190    0.3604 C   0  0  0  0  0  0  0  0  0  0  0  0
    5.1920    0.8544    0.2157 C   0  0  0  0  0  0  0  0  0  0  0  0
    6.0934    0.2414    0.0651 H   0  0  0  0  0  0  0  0  0  0  0  0
    5.2998    2.2515    0.2416 C   0  0  0  0  0  0  0  0  0  0  0  0
    6.2850    2.7287    0.1267 H   0  0  0  0  0  0  0  0  0  0  0  0
    4.1524    3.0426    0.3855 C   0  0  0  0  0  0  0  0  0  0  0  0
    4.2401    4.1398    0.3692 H   0  0  0  0  0  0  0  0  0  0  0  0
    2.8838    2.4551    0.5376 C   0  0  0  0  0  0  0  0  0  0  0  0
    3.7967   -1.2931    0.2737 C   0  0  0  0  0  0  0  0  0  0  0  0
    2.7238   -1.5014    0.0880 H   0  0  0  0  0  0  0  0  0  0  0  0
    4.5609   -1.8808   -0.9214 C   0  0  0  0  0  0  0  0  0  0  0  0
    4.2696   -1.3632   -1.8569 H   0  0  0  0  0  0  0  0  0  0  0  0
    4.3231   -2.9591   -1.0323 H   0  0  0  0  0  0  0  0  0  0  0  0
    5.6618   -1.7980   -0.8035 H   0  0  0  0  0  0  0  0  0  0  0  0
    4.1917   -1.9769    1.5936 C   0  0  0  0  0  0  0  0  0  0  0  0
    5.2571   -1.7871    1.8428 H   0  0  0  0  0  0  0  0  0  0  0  0
    4.0490   -3.0756    1.5249 H   0  0  0  0  0  0  0  0  0  0  0  0
    3.5803   -1.6107    2.4435 H   0  0  0  0  0  0  0  0  0  0  0  0
    1.6206    3.2997    0.6391 C   0  0  0  0  0  0  0  0  0  0  0  0
    0.7652    2.6018    0.5276 H   0  0  0  0  0  0  0  0  0  0  0  0
    1.5150    4.3074   -0.5151 C   0  0  0  0  0  0  0  0  0  0  0  0
    2.3163    5.0739   -0.4723 H   0  0  0  0  0  0  0  0  0  0  0  0
    0.5434    4.8423   -0.4725 H   0  0  0  0  0  0  0  0  0  0  0  0
    1.5843    3.7836   -1.4892 H   0  0  0  0  0  0  0  0  0  0  0  0
    1.5011    3.9743    2.0148 C   0  0  0  0  0  0  0  0  0  0  0  0
    1.5037    3.2270    2.8346 H   0  0  0  0  0  0  0  0  0  0  0  0
    0.5611    4.5593    2.0894 H   0  0  0  0  0  0  0  0  0  0  0  0
    2.3485    4.6687    2.1941 H   0  0  0  0  0  0  0  0  0  0  0  0
    1.2624    0.1930    2.0781 C   0  0  0  0  0  0  0  0  0  0  0  0
    2.0642    0.4548    2.7943 H   0  0  0  0  0  0  0  0  0  0  0  0
    0.0607   -0.3418    2.6637 C   0  0  0  0  0  0  0  0  0  0  0  0
    0.0354   -0.5674    4.0652 C   0  0  0  0  0  0  0  0  0  0  0  0
    0.9404   -0.3321    4.6473 H   0  0  0  0  0  0  0  0  0  0  0  0
   -1.0937   -1.0781    4.7001 C   0  0  0  0  0  0  0  0  0  0  0  0
   -1.0926   -1.2522    5.7854 H   0  0  0  0  0  0  0  0  0  0  0  0
   -2.2422   -1.3657    3.9307 C   0  0  0  0  0  0  0  0  0  0  0  0
   -3.1434   -1.7663    4.4197 H   0  0  0  0  0  0  0  0  0  0  0  0
   -2.2598   -1.1477    2.5532 C   0  0  0  0  0  0  0  0  0  0  0  0
   -3.1630   -1.3703    1.9709 H   0  0  0  0  0  0  0  0  0  0  0  0
   -1.1125   -0.6379    1.8908 C   0  0  1  0  0  3  0  0  0  0  0  0
   -3.5239    0.2047   -0.6235 C   0  0  0  0  0  0  0  0  0  0  0  0
   -3.3083    1.6041   -0.8244 C   0  0  0  0  0  0  0  0  0  0  0  0
   -4.4257    2.4494   -0.7340 C   0  0  0  0  0  0  0  0  0  0  0  0
   -4.2693    3.5292   -0.8854 H   0  0  0  0  0  0  0  0  0  0  0  0
   -5.7215    1.9730   -0.4694 C   0  0  0  0  0  0  0  0  0  0  0  0
   -5.8899    0.5911   -0.3037 C   0  0  0  0  0  0  0  0  0  0  0  0
   -6.8991    0.1938   -0.1122 H   0  0  0  0  0  0  0  0  0  0  0  0
   -4.8225   -0.3261   -0.3746 C   0  0  0  0  0  0  0  0  0  0  0  0
   -1.9806    2.2305   -1.1591 C   0  0  0  0  0  0  0  0  0  0  0  0
   -1.1706    1.9035   -0.4749 H   0  0  0  0  0  0  0  0  0  0  0  0
   -2.0546    3.3328   -1.1139 H   0  0  0  0  0  0  0  0  0  0  0  0
   -1.6410    1.9385   -2.1725 H   0  0  0  0  0  0  0  0  0  0  0  0
   -6.8844    2.9247   -0.3750 C   0  0  0  0  0  0  0  0  0  0  0  0
   -7.8399    2.3920   -0.2081 H   0  0  0  0  0  0  0  0  0  0  0  0
   -6.9830    3.5278   -1.3011 H   0  0  0  0  0  0  0  0  0  0  0  0
   -6.7425    3.6429    0.4594 H   0  0  0  0  0  0  0  0  0  0  0  0
   -5.1652   -1.7874   -0.2059 C   0  0  0  0  0  0  0  0  0  0  0  0
   -4.8594   -2.3836   -1.0859 H   0  0  0  0  0  0  0  0  0  0  0  0
   -6.2563   -1.8953   -0.0598 H   0  0  0  0  0  0  0  0  0  0  0  0
   -4.6492   -2.2539    0.6559 H   0  0  0  0  0  0  0  0  0  0  0  0
  1 47  1  0  0  0  0
  1  5  1  0  0  0  0
  1  3  1  0  0  0  0
  2 35  1  0  0  0  0
  4  1  1  0  0  0  0
  6  2  1  0  0  0  0
  7  6  2  0  0  0  0
  8 10  2  0  0  0  0
  8  7  1  0  0  0  0
  9  8  1  0  0  0  0
 10 12  1  0  0  0  0
 11 10  1  0  0  0  0
 12 14  2  0  0  0  0
 13 12  1  0  0  0  0
 14  6  1  0  0  0  0
 14 25  1  0  0  0  0
 15  7  1  0  0  0  0
 15 21  1  0  0  0  0
 16 15  1  0  0  0  0
 17 20  1  0  0  0  0
 17 15  1  0  0  0  0
 18 17  1  0  0  0  0
 19 17  1  0  0  0  0
 21 22  1  0  0  0  0
 21 24  1  0  0  0  0
 23 21  1  0  0  0  0
 25 31  1  0  0  0  0
 26 25  1  0  0  0  0
 27 29  1  0  0  0  0
 27 28  1  0  0  0  0
 27 25  1  0  0  0  0
 30 27  1  0  0  0  0
 31 33  1  0  0  0  0
 31 34  1  0  0  0  0
 31 32  1  0  0  0  0
 35 37  2  0  0  0  0
 35 36  1  0  0  0  0
 37 38  1  0  0  0  0
 38 39  1  0  0  0  0
 38 40  2  0  0  0  0
 40 41  1  0  0  0  0
 42 43  1  0  0  0  0
 42 40  1  0  0  0  0
 44 42  2  0  0  0  0
 45 44  1  0  0  0  0
 46  3  1  1  0  0  0
 46 44  1  0  0  0  0
 46 37  1  0  0  0  0
 47 54  1  0  0  0  0
 48 49  1  0  0  0  0
 48 47  2  0  0  0  0
 49 51  2  0  0  0  0
 50 49  1  0  0  0  0
 51 59  1  0  0  0  0
 51 52  1  0  0  0  0
 52 53  1  0  0  0  0
 54 52  2  0  0  0  0
 54 63  1  0  0  0  0
 55 57  1  0  0  0  0
 55 48  1  0  0  0  0
 55 56  1  0  0  0  0
 58 55  1  0  0  0  0
 59 60  1  0  0  0  0
 59 62  1  0  0  0  0
 61 59  1  0  0  0  0
 63 65  1  0  0  0  0
 63 66  1  0  0  0  0
 64 63  1  0  0  0  0
M  END
