2,3,5
q = -2.0, confidence = 0.94

 32 32  0  0  0  0  0  0  0  0999 V2000
    3.2620   -1.0841   -0.1787 S   0  0  0  0  0  0  0  0  0  0  0  0
   -2.8720   -0.3296    0.0333 O   0  5  0  0  0  0  0  0  0  0  0  0
   -0.2589    0.5391   -0.1494 N   0  0  0  0  0  2  0  0  0  0  0  0
    1.1102    0.5106   -0.1111 N   0  0  0  0  0  0  0  0  0  0  0  0
    0.6770   -1.7839   -0.2524 N   0  0  0  0  0  2  0  0  0  0  0  0
   -3.2141    0.9552    0.0075 C   0  0  0  0  0  0  0  0  0  0  0  0
   -4.5837    1.2949    0.0593 C   0  0  0  0  0  0  0  0  0  0  0  0
   -4.9817    2.6351    0.0558 C   0  0  0  0  0  0  0  0  0  0  0  0
   -4.0257    3.6700    0.0046 C   0  0  0  0  0  0  0  0  0  0  0  0
   -2.6706    3.3455   -0.0431 C   0  0  0  0  0  0  0  0  0  0  0  0
   -2.2319    1.9951   -0.0471 C   0  0  0  0  0  0  0  0  0  0  0  0
   -0.8181    1.7256   -0.0783 C   0  0  0  0  0  3  0  0  0  0  0  0
    1.5339   -0.7392   -0.1956 C   0  0  0  0  0  0  0  0  0  0  0  0
    3.9681    0.6062   -0.1139 C   0  0  0  0  0  0  0  0  0  0  0  0
    5.4928    0.5229   -0.1058 C   0  0  0  0  0  0  0  0  0  0  0  0
    6.1471    1.9087   -0.0503 C   0  0  0  0  0  0  0  0  0  0  0  0
    7.6748    1.8495   -0.0407 C   0  0  0  0  0  0  0  0  0  0  0  0
    1.0847   -2.7192   -0.3372 H   0  0  0  0  0  0  0  0  0  0  0  0
   -5.3145    0.4752    0.1032 H   0  0  0  0  0  0  0  0  0  0  0  0
   -6.0543    2.8793    0.0959 H   0  0  0  0  0  0  0  0  0  0  0  0
   -4.3444    4.7222    0.0022 H   0  0  0  0  0  0  0  0  0  0  0  0
   -1.9105    4.1416   -0.0827 H   0  0  0  0  0  0  0  0  0  0  0  0
   -0.1240    2.5865   -0.0371 H   0  0  0  0  0  0  0  0  0  0  0  0
    3.5731    1.1060    0.7927 H   0  0  0  0  0  0  0  0  0  0  0  0
    3.5857    1.1664   -0.9901 H   0  0  0  0  0  0  0  0  0  0  0  0
    5.8431   -0.0177   -1.0126 H   0  0  0  0  0  0  0  0  0  0  0  0
    5.8308   -0.0826    0.7642 H   0  0  0  0  0  0  0  0  0  0  0  0
    5.7847    2.4463    0.8537 H   0  0  0  0  0  0  0  0  0  0  0  0
    5.7985    2.5103   -0.9186 H   0  0  0  0  0  0  0  0  0  0  0  0
    8.1215    2.8630   -0.0005 H   0  0  0  0  0  0  0  0  0  0  0  0
    8.0511    1.2824    0.8360 H   0  0  0  0  0  0  0  0  0  0  0  0
    8.0645    1.3475   -0.9506 H   0  0  0  0  0  0  0  0  0  0  0  0
  1 14  1  0  0  0  0
  3  4  1  0  0  0  0
  3 12  1  0  0  0  0
  5 13  1  0  0  0  0
  6  2  1  0  0  0  0
  6  7  1  0  0  0  0
  7 19  1  0  0  0  0
  8  7  2  0  0  0  0
  8 20  1  0  0  0  0
  9  8  1  0  0  0  0
 10  9  2  0  0  0  0
 11 10  1  0  0  0  0
 11  6  2  0  0  0  0
 12 11  1  0  0  0  0
 12 23  1  0  0  0  0
 13  1  1  0  0  0  0
 13  4  2  0  0  0  0
 14 15  1  0  0  0  0
 14 24  1  0  0  0  0
 15 16  1  0  0  0  0
 15 27  1  0  0  0  0
 16 17  1  0  0  0  0
 16 28  1  0  0  0  0
 17 30  1  0  0  0  0
 17 31  1  0  0  0  0
 18  5  1  0  0  0  0
 21  9  1  0  0  0  0
 22 10  1  0  0  0  0
 25 14  1  0  0  0  0
 26 15  1  0  0  0  0
 29 16  1  0  0  0  0
 32 17  1  0  0  0  0
M  CHG  1   2  -1
M  END
