1,2,6
q = -1.0

 43 45  0  0  1  0  0  0  0  0999 V2000
   -3.2141    0.1571   -0.0093 N   0  0  0  0  0  2  0  0  0  0  0  0
   -1.1530    1.0651   -0.0527 N   0  0  0  0  0  2  0  0  0  0  0  0
    1.1659    1.6178   -0.0439 N   0  0  0  0  0  0  0  0  0  0  0  0
    3.0187    0.2040   -0.0877 N   0  0  0  0  0  0  0  0  0  0  0  0
    3.5294    1.0906   -0.0641 H   0  0  0  0  0  0  0  0  0  0  0  0
    0.9249   -0.7012   -0.1072 O   0  0  0  0  0  1  0  0  0  0  0  0
   -0.4048    3.2780   -0.1012 O   0  0  0  0  0  0  0  0  0  0  0  0
   -4.5555    0.1826   -0.0041 C   0  0  0  0  0  3  0  0  0  0  0  0
   -5.0599   -0.7976    0.0377 H   0  0  0  0  0  0  0  0  0  0  0  0
   -5.2849    1.3708   -0.0458 C   0  0  0  0  0  0  0  0  0  0  0  0
   -6.3844    1.3445   -0.0396 H   0  0  0  0  0  0  0  0  0  0  0  0
   -4.5844    2.6008   -0.0959 C   0  0  0  0  0  0  0  0  0  0  0  0
   -3.1834    2.5741   -0.1009 C   0  0  0  0  0  0  0  0  0  0  0  0
   -2.5834    3.4912   -0.1369 H   0  0  0  0  0  0  0  0  0  0  0  0
   -2.5092    1.3260   -0.0570 C   0  0  0  0  0  0  0  0  0  0  0  0
   -5.3352    3.9054   -0.1430 C   0  0  0  0  0  0  0  0  0  0  0  0
   -4.6480    4.7717   -0.1720 H   0  0  0  0  0  0  0  0  0  0  0  0
   -5.9955    4.0145    0.7424 H   0  0  0  0  0  0  0  0  0  0  0  0
   -5.9914    3.9523   -1.0370 H   0  0  0  0  0  0  0  0  0  0  0  0
   -0.2403    2.0573   -0.0721 C   0  0  0  0  0  0  0  0  0  0  0  0
    2.1064    2.7113   -0.0018 C   0  0  0  0  0  0  0  0  0  0  0  0
    2.5577    3.2958   -1.1980 C   0  0  0  0  0  0  0  0  0  0  0  0
    2.1563    2.9331   -2.1553 H   0  0  0  0  0  0  0  0  0  0  0  0
    3.5006    4.3324   -1.1521 C   0  0  0  0  0  0  0  0  0  0  0  0
    3.8506    4.7936   -2.0877 H   0  0  0  0  0  0  0  0  0  0  0  0
    3.9920    4.7842    0.0838 C   0  0  0  0  0  0  0  0  0  0  0  0
    4.7316    5.5982    0.1171 H   0  0  0  0  0  0  0  0  0  0  0  0
    3.5368    4.2004    1.2771 C   0  0  0  0  0  0  0  0  0  0  0  0
    3.9151    4.5571    2.2467 H   0  0  0  0  0  0  0  0  0  0  0  0
    2.5924    3.1642    1.2372 C   0  0  0  0  0  0  0  0  0  0  0  0
    2.2186    2.6990    2.1611 H   0  0  0  0  0  0  0  0  0  0  0  0
    1.6490    0.3143   -0.0795 C   0  0  2  0  0  3  0  0  0  0  0  0
    3.8245   -0.9517   -0.0953 C   0  0  0  0  0  0  0  0  0  0  0  0
    5.2218   -0.7424   -0.0358 C   0  0  0  0  0  0  0  0  0  0  0  0
    5.6128    0.2868    0.0152 H   0  0  0  0  0  0  0  0  0  0  0  0
    6.1054   -1.8267   -0.0397 C   0  0  0  0  0  0  0  0  0  0  0  0
    7.1889   -1.6398    0.0074 H   0  0  0  0  0  0  0  0  0  0  0  0
    5.6143   -3.1406   -0.1017 C   0  0  0  0  0  0  0  0  0  0  0  0
    6.3075   -3.9946   -0.1040 H   0  0  0  0  0  0  0  0  0  0  0  0
    4.2284   -3.3482   -0.1615 C   0  0  0  0  0  0  0  0  0  0  0  0
    3.8278   -4.3722   -0.2121 H   0  0  0  0  0  0  0  0  0  0  0  0
    3.3282   -2.2727   -0.1602 C   0  0  0  0  0  0  0  0  0  0  0  0
    2.2488   -2.4465   -0.2109 H   0  0  0  0  0  0  0  0  0  0  0  0
  1  8  1  0  0  0  0
  3 21  1  0  0  0  0
  4 32  1  0  0  0  0
  4  5  1  0  0  0  0
  7 20  2  0  0  0  0
  8  9  1  0  0  0  0
 10 11  1  0  0  0  0
 10  8  1  0  0  0  0
 12 10  2  0  0  0  0
 13 12  1  0  0  0  0
 13 15  2  0  0  0  0
 14 13  1  0  0  0  0
 15  2  1  0  0  0  0
 15  1  1  0  0  0  0
 16 12  1  0  0  0  0
 16 18  1  0  0  0  0
 17 16  1  0  0  0  0
 19 16  1  0  0  0  0
 20  2  1  0  0  0  0
 20  3  1  0  0  0  0
 21 30  1  0  0  0  0
 22 24  1  0  0  0  0
 22 21  2  0  0  0  0
 23 22  1  0  0  0  0
 24 26  2  0  0  0  0
 25 24  1  0  0  0  0
 26 27  1  0  0  0  0
 26 28  1  0  0  0  0
 28 29  1  0  0  0  0
 30 28  2  0  0  0  0
 30 31  1  0  0  0  0
 32  6  1  6  0  0  0
 32  3  1  0  0  0  0
 33  4  1  0  0  0  0
 33 34  1  0  0  0  0
 34 35  1  0  0  0  0
 36 34  2  0  0  0  0
 36 37  1  0  0  0  0
 38 36  1  0  0  0  0
 39 38  1  0  0  0  0
 40 42  1  0  0  0  0
 40 38  2  0  0  0  0
 41 40  1  0  0  0  0
 42 33  2  0  0  0  0
 43 42  1  0  0  0  0
M  END
