2,3,6
q = -1.0

 39 41  0  0  1  0  0  0  0  0999 V2000
    7.9850    0.0040    0.1090 Cl  0  0  0  0  0  0  0  0  0  0  0  0
   -1.9595   -2.0892   -0.0468 N   0  0  0  0  0  2  0  0  0  0  0  0
   -0.7097    0.2098   -0.0334 N   0  0  0  0  0  2  0  0  0  0  0  0
    1.4192   -0.8592   -0.0855 N   0  0  0  0  0  2  0  0  0  0  0  0
    1.3138    1.5889   -0.0445 C   0  0  0  0  0  0  0  0  0  0  0  0
   -3.1883    1.7536    0.0597 O   0  0  0  0  0  1  0  0  0  0  0  0
   -2.3517    2.7214    0.0598 C   0  0  1  0  0  3  0  0  0  0  0  0
    2.0186    0.3554   -0.0850 N   0  0  0  0  0  0  0  0  0  0  0  0
   -0.5957   -2.1817   -0.0802 C   0  0  0  0  0  0  0  0  0  0  0  0
   -0.1755    1.4526   -0.0196 C   0  0  0  0  0  0  0  0  0  0  0  0
    0.1088   -0.8893   -0.0632 C   0  0  0  0  0  0  0  0  0  0  0  0
   -0.9328    2.6272    0.0239 C   0  0  0  0  0  0  0  0  0  0  0  0
   -0.3529    3.5595    0.0293 H   0  0  0  0  0  0  0  0  0  0  0  0
    0.0487   -3.4259   -0.1300 C   0  0  0  0  0  0  0  0  0  0  0  0
    1.1467   -3.4422   -0.1637 H   0  0  0  0  0  0  0  0  0  0  0  0
    6.2477    0.1194    0.0490 C   0  0  0  0  0  0  0  0  0  0  0  0
    3.4530    0.3113   -0.0422 C   0  0  0  0  0  0  0  0  0  0  0  0
   -2.7126   -3.2096   -0.0573 C   0  0  0  0  0  0  0  0  0  0  0  0
   -3.8007   -3.0294   -0.0279 H   0  0  0  0  0  0  0  0  0  0  0  0
   -2.9643    4.1132    0.1031 C   0  0  0  0  0  0  0  0  0  0  0  0
   -2.5318    4.6343    0.9861 H   0  0  0  0  0  0  0  0  0  0  0  0
   -2.5705    4.6726   -0.7745 H   0  0  0  0  0  0  0  0  0  0  0  0
   -0.7268   -4.5901   -0.1406 C   0  0  0  0  0  0  0  0  0  0  0  0
   -0.2440   -5.5778   -0.1798 H   0  0  0  0  0  0  0  0  0  0  0  0
    4.0690   -0.7771    0.6066 C   0  0  0  0  0  0  0  0  0  0  0  0
    3.4403   -1.5472    1.0720 H   0  0  0  0  0  0  0  0  0  0  0  0
    5.6419    1.2053   -0.6027 C   0  0  0  0  0  0  0  0  0  0  0  0
    6.2671    1.9739   -1.0776 H   0  0  0  0  0  0  0  0  0  0  0  0
    4.2463    1.3044   -0.6505 C   0  0  0  0  0  0  0  0  0  0  0  0
    3.7777    2.1573   -1.1522 H   0  0  0  0  0  0  0  0  0  0  0  0
   -2.1267   -4.4789   -0.1027 C   0  0  0  0  0  0  0  0  0  0  0  0
   -2.7726   -5.3681   -0.1099 H   0  0  0  0  0  0  0  0  0  0  0  0
    5.4624   -0.8759    0.6545 C   0  0  0  0  0  0  0  0  0  0  0  0
    5.9467   -1.7195    1.1655 H   0  0  0  0  0  0  0  0  0  0  0  0
    1.8829    2.6737   -0.0262 O   0  0  0  0  0  0  0  0  0  0  0  0
   -4.4877    4.1402    0.1370 C   0  0  0  0  0  0  0  0  0  0  0  0
   -4.8560    5.1841    0.1678 H   0  0  0  0  0  0  0  0  0  0  0  0
   -4.8787    3.6043    1.0234 H   0  0  0  0  0  0  0  0  0  0  0  0
   -4.9175    3.6429   -0.7539 H   0  0  0  0  0  0  0  0  0  0  0  0
  3 10  1  0  0  0  0
  4  8  1  0  0  0  0
  4 11  1  0  0  0  0
  5 35  2  0  0  0  0
  5 10  1  0  0  0  0
  7  6  1  6  0  0  0
  7 20  1  0  0  0  0
  8  5  1  0  0  0  0
  8 17  1  0  0  0  0
  9 11  2  0  0  0  0
  9  2  1  0  0  0  0
 10 12  2  0  0  0  0
 11  3  1  0  0  0  0
 12 13  1  0  0  0  0
 12  7  1  0  0  0  0
 14  9  1  0  0  0  0
 15 14  1  0  0  0  0
 16  1  1  0  0  0  0
 16 33  1  0  0  0  0
 17 25  1  0  0  0  0
 18  2  1  0  0  0  0
 18 19  1  0  0  0  0
 20 36  1  0  0  0  0
 20 21  1  0  0  0  0
 22 20  1  0  0  0  0
 23 14  2  0  0  0  0
 23 31  1  0  0  0  0
 24 23  1  0  0  0  0
 25 33  2  0  0  0  0
 25 26  1  0  0  0  0
 27 16  2  0  0  0  0
 28 27  1  0  0  0  0
 29 27  1  0  0  0  0
 29 17  2  0  0  0  0
 30 29  1  0  0  0  0
 31 18  2  0  0  0  0
 32 31  1  0  0  0  0
 33 34  1  0  0  0  0
 36 37  1  0  0  0  0
 36 38  1  0  0  0  0
 39 36  1  0  0  0  0
M  END
