1,2,3
q = -1.0

 38 40  0  0  0  0  0  0  0  0999 V2000
   -1.2293   -0.0847    1.8905 O   0  5  0  0  0  0  0  0  0  0  0  0
   -1.7525    1.0645   -0.7843 N   0  0  0  0  0  2  0  0  0  0  0  0
    0.6684   -0.1420   -0.2417 N   0  0  0  0  0  0  0  0  0  0  0  0
    3.4227   -0.3406   -1.7636 N   0  0  0  0  0  0  0  0  0  0  0  0
   -2.8591    1.8124   -0.6414 C   0  0  0  0  0  3  0  0  0  0  0  0
   -3.7053    1.3312   -0.1276 H   0  0  0  0  0  0  0  0  0  0  0  0
   -2.9311    3.1279   -1.1144 C   0  0  0  0  0  0  0  0  0  0  0  0
   -3.8550    3.7084   -0.9828 H   0  0  0  0  0  0  0  0  0  0  0  0
   -1.8034    3.6776   -1.7403 C   0  0  0  0  0  0  0  0  0  0  0  0
   -1.8200    4.7118   -2.1157 H   0  0  0  0  0  0  0  0  0  0  0  0
   -0.6461    2.8972   -1.8663 C   0  0  0  0  0  0  0  0  0  0  0  0
    0.2660    3.2989   -2.3302 H   0  0  0  0  0  0  0  0  0  0  0  0
   -0.6519    1.5820   -1.3795 C   0  0  0  0  0  0  0  0  0  0  0  0
    0.5293    0.6554   -1.4895 C   0  0  0  0  0  0  0  0  0  0  0  0
    0.3366   -0.0735   -2.3066 H   0  0  0  0  0  0  0  0  0  0  0  0
    1.4559    1.2080   -1.7402 H   0  0  0  0  0  0  0  0  0  0  0  0
    0.8821    0.6732    0.9604 C   0  0  0  0  0  0  0  0  0  0  0  0
   -0.1108    0.6147    1.9920 C   0  0  0  0  0  0  0  0  0  0  0  0
    0.1324    1.3773    3.1710 C   0  0  0  0  0  0  0  0  0  0  0  0
   -0.6223    1.3225    3.9693 H   0  0  0  0  0  0  0  0  0  0  0  0
    1.2677    2.1780    3.2958 C   0  0  0  0  0  0  0  0  0  0  0  0
    1.4167    2.7606    4.2186 H   0  0  0  0  0  0  0  0  0  0  0  0
    2.2123    2.2621    2.2536 C   0  0  0  0  0  0  0  0  0  0  0  0
    3.0967    2.9090    2.3449 H   0  0  0  0  0  0  0  0  0  0  0  0
    2.0079    1.5062    1.0924 C   0  0  0  0  0  0  0  0  0  0  0  0
    2.7330    1.5693    0.2679 H   0  0  0  0  0  0  0  0  0  0  0  0
    1.6266   -1.2757   -0.3948 C   0  0  0  0  0  0  0  0  0  0  0  0
    1.2692   -1.8589   -1.2687 H   0  0  0  0  0  0  0  0  0  0  0  0
    1.5206   -1.9015    0.5086 H   0  0  0  0  0  0  0  0  0  0  0  0
    3.0792   -0.8983   -0.5831 C   0  0  0  0  0  0  0  0  0  0  0  0
    4.0177   -1.1188    0.4451 C   0  0  0  0  0  0  0  0  0  0  0  0
    3.6924   -1.5623    1.3976 H   0  0  0  0  0  0  0  0  0  0  0  0
    5.3531   -0.7500    0.2386 C   0  0  0  0  0  0  0  0  0  0  0  0
    6.1056   -0.9107    1.0256 H   0  0  0  0  0  0  0  0  0  0  0  0
    5.7080   -0.1656   -0.9853 C   0  0  0  0  0  0  0  0  0  0  0  0
    6.7430    0.1426   -1.1947 H   0  0  0  0  0  0  0  0  0  0  0  0
    4.7020    0.0177   -1.9485 C   0  0  0  0  0  0  0  0  0  0  0  0
    4.9452    0.4749   -2.9247 H   0  0  0  0  0  0  0  0  0  0  0  0
  1 18  1  0  0  0  0
  2  5  1  0  0  0  0
  3 17  1  0  0  0  0
  4 30  1  0  0  0  0
  5  6  1  0  0  0  0
  7  8  1  0  0  0  0
  7  5  1  0  0  0  0
  9  7  2  0  0  0  0
 10  9  1  0  0  0  0
 11  9  1  0  0  0  0
 11 13  2  0  0  0  0
 12 11  1  0  0  0  0
 13  2  1  0  0  0  0
 14 13  1  0  0  0  0
 14  3  1  0  0  0  0
 15 14  1  0  0  0  0
 16 14  1  0  0  0  0
 17 25  2  0  0  0  0
 17 18  1  0  0  0  0
 18 19  2  0  0  0  0
 19 21  1  0  0  0  0
 19 20  1  0  0  0  0
 21 22  1  0  0  0  0
 23 24  1  0  0  0  0
 23 21  2  0  0  0  0
 25 23  1  0  0  0  0
 26 25  1  0  0  0  0
 27  3  1  0  0  0  0
 27 29  1  0  0  0  0
 28 27  1  0  0  0  0
 30 27  1  0  0  0  0
 30 31  2  0  0  0  0
 31 32  1  0  0  0  0
 33 31  1  0  0  0  0
 33 34  1  0  0  0  0
 35 33  2  0  0  0  0
 36 35  1  0  0  0  0
 37  4  2  0  0  0  0
 37 35  1  0  0  0  0
 38 37  1  0  0  0  0
M  CHG  1   1  -1
M  END
