2,3,4
q = -1.0, confidence = 0.022

 35 35  0  0  0  0  0  0  0  0999 V2000
    5.7337    0.5041    0.0147 Br  0  0  0  0  0  0  0  0  0  0  0  0
   -0.8097    1.0486    0.1616 N   0  0  0  0  0  2  0  0  0  0  0  0
   -3.5004    0.5119    0.1871 N   0  0  0  0  0  0  0  0  0  0  0  0
    0.0383   -1.5127   -0.2754 O   0  5  0  0  0  0  0  0  0  0  0  0
    1.5348    0.3389    0.0292 C   0  0  0  0  0  0  0  0  0  0  0  0
    1.2487   -1.0546   -0.2027 C   0  0  0  0  0  0  0  0  0  0  0  0
    2.3581   -1.9393   -0.3669 C   0  0  0  0  0  0  0  0  0  0  0  0
    2.1386   -3.0015   -0.5450 H   0  0  0  0  0  0  0  0  0  0  0  0
    3.6660   -1.4757   -0.3016 C   0  0  0  0  0  0  0  0  0  0  0  0
    4.5066   -2.1735   -0.4283 H   0  0  0  0  0  0  0  0  0  0  0  0
    3.9304   -0.1017   -0.0702 C   0  0  0  0  0  0  0  0  0  0  0  0
    2.8820    0.7931    0.0929 C   0  0  0  0  0  0  0  0  0  0  0  0
    3.0840    1.8601    0.2717 H   0  0  0  0  0  0  0  0  0  0  0  0
    0.4771    1.2888    0.1967 C   0  0  0  0  0  3  0  0  0  0  0  0
    0.8029    2.3364    0.3799 H   0  0  0  0  0  0  0  0  0  0  0  0
   -1.7083    2.1808    0.3772 C   0  0  0  0  0  0  0  0  0  0  0  0
   -1.9127    2.6881   -0.5922 H   0  0  0  0  0  0  0  0  0  0  0  0
   -1.2552    2.9443    1.0464 H   0  0  0  0  0  0  0  0  0  0  0  0
   -2.9954    1.6511    0.9831 C   0  0  0  0  0  0  0  0  0  0  0  0
   -2.7906    1.2604    2.0004 H   0  0  0  0  0  0  0  0  0  0  0  0
   -3.7563    2.4583    1.0768 H   0  0  0  0  0  0  0  0  0  0  0  0
   -3.8734    0.8881   -1.2087 C   0  0  0  0  0  0  0  0  0  0  0  0
   -4.1368   -0.0578   -1.7158 H   0  0  0  0  0  0  0  0  0  0  0  0
   -2.9526    1.2325   -1.7208 H   0  0  0  0  0  0  0  0  0  0  0  0
   -4.9807    1.9297   -1.3496 C   0  0  0  0  0  0  0  0  0  0  0  0
   -5.9316    1.5960   -0.8886 H   0  0  0  0  0  0  0  0  0  0  0  0
   -5.1803    2.1020   -2.4257 H   0  0  0  0  0  0  0  0  0  0  0  0
   -4.7123    2.9105   -0.9068 H   0  0  0  0  0  0  0  0  0  0  0  0
   -4.6340   -0.1196    0.9384 C   0  0  0  0  0  0  0  0  0  0  0  0
   -4.1871   -0.4851    1.8826 H   0  0  0  0  0  0  0  0  0  0  0  0
   -5.3690    0.6793    1.1946 H   0  0  0  0  0  0  0  0  0  0  0  0
   -5.3264   -1.2724    0.2281 C   0  0  0  0  0  0  0  0  0  0  0  0
   -5.9229   -0.9411   -0.6455 H   0  0  0  0  0  0  0  0  0  0  0  0
   -6.0243   -1.7570    0.9388 H   0  0  0  0  0  0  0  0  0  0  0  0
   -4.5872   -2.0207   -0.1158 H   0  0  0  0  0  0  0  0  0  0  0  0
  2 14  1  0  0  0  0
  2 16  1  0  0  0  0
  3 29  1  0  0  0  0
  3 19  1  0  0  0  0
  4  6  1  0  0  0  0
  5 12  1  0  0  0  0
  5 14  1  0  0  0  0
  6  5  2  0  0  0  0
  7  9  2  0  0  0  0
  7  6  1  0  0  0  0
  8  7  1  0  0  0  0
  9 11  1  0  0  0  0
 10  9  1  0  0  0  0
 11  1  1  0  0  0  0
 11 12  2  0  0  0  0
 12 13  1  0  0  0  0
 14 15  1  0  0  0  0
 16 19  1  0  0  0  0
 16 18  1  0  0  0  0
 17 16  1  0  0  0  0
 19 21  1  0  0  0  0
 19 20  1  0  0  0  0
 22  3  1  0  0  0  0
 23 22  1  0  0  0  0
 24 22  1  0  0  0  0
 25 22  1  0  0  0  0
 25 28  1  0  0  0  0
 25 26  1  0  0  0  0
 27 25  1  0  0  0  0
 29 31  1  0  0  0  0
 29 30  1  0  0  0  0
 32 29  1  0  0  0  0
 32 34  1  0  0  0  0
 33 32  1  0  0  0  0
 35 32  1  0  0  0  0
M  CHG  1   4  -1
M  END
