1,2,3
q = -1.0

 35 35  0  0  1  0  0  0  0  0999 V2000
    1.0840    0.7603    0.0064 O   0  0  0  0  0  1  0  0  0  0  0  0
   -0.3244   -1.5692   -0.2355 N   0  0  0  0  0  2  0  0  0  0  0  0
   -2.5348   -0.1845   -0.5410 N   0  0  0  0  0  0  0  0  0  0  0  0
    2.0985   -1.4479   -0.0046 C   0  0  0  0  0  0  0  0  0  0  0  0
    2.1382   -0.0071    0.0643 C   0  0  2  0  0  3  0  0  0  0  0  0
    3.4147    0.6457    0.2077 C   0  0  0  0  0  0  0  0  0  0  0  0
    4.5674   -0.1353    0.2759 C   0  0  0  0  0  0  0  0  0  0  0  0
    5.5383    0.3747    0.3863 H   0  0  0  0  0  0  0  0  0  0  0  0
    4.5321   -1.5517    0.2072 C   0  0  0  0  0  0  0  0  0  0  0  0
    5.4660   -2.1296    0.2640 H   0  0  0  0  0  0  0  0  0  0  0  0
    3.3123   -2.1938    0.0682 C   0  0  0  0  0  0  0  0  0  0  0  0
    3.2589   -3.2931    0.0134 H   0  0  0  0  0  0  0  0  0  0  0  0
    0.8589   -2.1409   -0.1459 C   0  0  0  0  0  0  0  0  0  0  0  0
    0.9020   -3.2485   -0.1831 H   0  0  0  0  0  0  0  0  0  0  0  0
   -1.5260   -2.4028   -0.3029 C   0  0  0  0  0  0  0  0  0  0  0  0
   -1.8489   -2.6711    0.7257 H   0  0  0  0  0  0  0  0  0  0  0  0
   -1.3334   -3.3559   -0.8426 H   0  0  0  0  0  0  0  0  0  0  0  0
   -2.6063   -1.5912   -1.0122 C   0  0  0  0  0  0  0  0  0  0  0  0
   -2.4003   -1.5793   -2.1008 H   0  0  0  0  0  0  0  0  0  0  0  0
   -3.6154   -2.0310   -0.8639 H   0  0  0  0  0  0  0  0  0  0  0  0
   -3.4104    0.2336    0.6029 C   0  0  0  0  0  0  0  0  0  0  0  0
   -3.1149    1.2944    0.7470 H   0  0  0  0  0  0  0  0  0  0  0  0
   -4.8944    0.1798    0.2321 C   0  0  0  0  0  0  0  0  0  0  0  0
   -5.1045    0.7607   -0.6893 H   0  0  0  0  0  0  0  0  0  0  0  0
   -5.5020    0.6200    1.0474 H   0  0  0  0  0  0  0  0  0  0  0  0
   -5.2550   -0.8591    0.0797 H   0  0  0  0  0  0  0  0  0  0  0  0
   -3.0972   -0.5320    1.8855 C   0  0  0  0  0  0  0  0  0  0  0  0
   -3.4276   -1.5902    1.8362 H   0  0  0  0  0  0  0  0  0  0  0  0
   -3.6299   -0.0625    2.7354 H   0  0  0  0  0  0  0  0  0  0  0  0
   -2.0111   -0.5040    2.1036 H   0  0  0  0  0  0  0  0  0  0  0  0
    3.4367    2.1450    0.2779 C   0  0  0  0  0  0  0  0  0  0  0  0
    4.4696    2.5300    0.3750 H   0  0  0  0  0  0  0  0  0  0  0  0
    2.8316    2.5150    1.1315 H   0  0  0  0  0  0  0  0  0  0  0  0
    2.9621    2.5969   -0.6175 H   0  0  0  0  0  0  0  0  0  0  0  0
   -2.7619    0.4551   -1.3166 H   0  0  0  0  0  0  0  0  0  0  0  0
  2 13  1  0  0  0  0
  3 21  1  0  0  0  0
  4  5  1  0  0  0  0
  4 11  1  0  0  0  0
  5  1  1  1  0  0  0
  5  6  1  0  0  0  0
  6  7  2  0  0  0  0
  6 31  1  0  0  0  0
  7  8  1  0  0  0  0
  9 10  1  0  0  0  0
  9  7  1  0  0  0  0
 11  9  2  0  0  0  0
 12 11  1  0  0  0  0
 13  4  2  0  0  0  0
 14 13  1  0  0  0  0
 15  2  1  0  0  0  0
 15 16  1  0  0  0  0
 17 15  1  0  0  0  0
 18 20  1  0  0  0  0
 18  3  1  0  0  0  0
 18 15  1  0  0  0  0
 19 18  1  0  0  0  0
 21 22  1  0  0  0  0
 21 27  1  0  0  0  0
 23 21  1  0  0  0  0
 23 25  1  0  0  0  0
 24 23  1  0  0  0  0
 26 23  1  0  0  0  0
 27 30  1  0  0  0  0
 27 29  1  0  0  0  0
 28 27  1  0  0  0  0
 31 32  1  0  0  0  0
 31 33  1  0  0  0  0
 34 31  1  0  0  0  0
 35  3  1  0  0  0  0
M  END
