1,2,3
 OpenBabel05122313063D

 76 79  0  0  1  0  0  0  0  0999 V2000
   -2.1456    0.0202   -0.6393 S   0  0  0  0  0  1  0  0  0  0  0  0
    0.9226    1.3633    0.1435 S   0  0  0  0  0  0  0  0  0  0  0  0
    2.3132   -1.1750   -1.0250 S   0  0  0  0  0  1  0  0  0  0  0  0
   -1.6274    0.6849    2.4095 Si  0  0  2  0  0  0  0  0  0  0  0  0
   -4.5555   -2.0066   -1.7202 Si  0  0  0  0  0  0  0  0  0  0  0  0
    1.1790    4.1466   -1.3761 Si  0  0  0  0  0  0  0  0  0  0  0  0
    5.5372   -1.9884   -0.3901 Si  0  0  0  0  0  0  0  0  0  0  0  0
   -0.1173   -0.0932    2.3182 O   0  0  0  0  0  0  0  0  0  0  0  0
   -1.7542    1.1024    4.2471 C   0  0  0  0  0  0  0  0  0  0  0  0
   -3.1966   -0.7715    0.5510 C   0  0  0  0  0  0  0  0  0  0  0  0
   -3.0257   -0.4644    1.9303 C   0  0  0  0  0  0  0  0  0  0  0  0
   -3.8989   -1.0303    2.8803 C   0  0  0  0  0  0  0  0  0  0  0  0
   -4.9415   -1.8772    2.4769 C   0  0  0  0  0  0  0  0  0  0  0  0
   -5.1150   -2.1542    1.1106 C   0  0  0  0  0  0  0  0  0  0  0  0
   -4.2597   -1.6195    0.1224 C   0  0  0  0  0  0  0  0  0  0  0  0
   -5.0542   -0.4459   -2.6760 C   0  0  0  0  0  0  0  0  0  0  0  0
   -3.1034   -2.8790   -2.5619 C   0  0  0  0  0  0  0  0  0  0  0  0
   -6.0421   -3.2029   -1.8046 C   0  0  0  0  0  0  0  0  0  0  0  0
   -0.3615    2.5454    0.5559 C   0  0  0  0  0  0  0  0  0  0  0  0
   -1.4467    2.2826    1.4319 C   0  0  0  0  0  0  0  0  0  0  0  0
   -2.3915    3.3114    1.6381 C   0  0  0  0  0  0  0  0  0  0  0  0
   -2.2875    4.5430    0.9804 C   0  0  0  0  0  0  0  0  0  0  0  0
   -1.2129    4.7705    0.1072 C   0  0  0  0  0  0  0  0  0  0  0  0
   -0.2275    3.7862   -0.1280 C   0  0  0  0  0  0  0  0  0  0  0  0
    1.2348    2.8888   -2.7922 C   0  0  0  0  0  0  0  0  0  0  0  0
    2.8619    4.2461   -0.5071 C   0  0  0  0  0  0  0  0  0  0  0  0
    0.8322    5.8564   -2.1391 C   0  0  0  0  0  0  0  0  0  0  0  0
    2.9400   -1.1387    0.6145 C   0  0  0  0  0  0  0  0  0  0  0  0
    2.0345   -0.7328    1.6320 C   0  0  0  0  0  0  0  0  0  0  0  0
    2.4348   -0.7696    2.9797 C   0  0  0  0  0  0  0  0  0  0  0  0
    3.7328   -1.1709    3.3217 C   0  0  0  0  0  0  0  0  0  0  0  0
    4.6417   -1.5197    2.3061 C   0  0  0  0  0  0  0  0  0  0  0  0
    4.2788   -1.5110    0.9427 C   0  0  0  0  0  0  0  0  0  0  0  0
    5.7866   -0.5519   -1.6029 C   0  0  0  0  0  0  0  0  0  0  0  0
    4.9921   -3.5502   -1.3159 C   0  0  0  0  0  0  0  0  0  0  0  0
    7.2105   -2.3526    0.4421 C   0  0  0  0  0  0  0  0  0  0  0  0
    0.6774   -0.2615    1.2221 C   0  0  2  0  0  3  0  0  0  0  0  0
   -0.9165    1.7670    4.5378 H   0  0  0  0  0  0  0  0  0  0  0  0
   -2.7065    1.6191    4.4846 H   0  0  0  0  0  0  0  0  0  0  0  0
   -1.6974    0.1828    4.8648 H   0  0  0  0  0  0  0  0  0  0  0  0
   -3.7693   -0.8008    3.9508 H   0  0  0  0  0  0  0  0  0  0  0  0
   -5.6219   -2.3178    3.2227 H   0  0  0  0  0  0  0  0  0  0  0  0
   -5.9427   -2.8154    0.8075 H   0  0  0  0  0  0  0  0  0  0  0  0
   -4.2258    0.2887   -2.6446 H   0  0  0  0  0  0  0  0  0  0  0  0
   -5.2766   -0.6916   -3.7359 H   0  0  0  0  0  0  0  0  0  0  0  0
   -5.9563    0.0218   -2.2303 H   0  0  0  0  0  0  0  0  0  0  0  0
   -2.6376   -3.6206   -1.8831 H   0  0  0  0  0  0  0  0  0  0  0  0
   -3.4591   -3.4073   -3.4718 H   0  0  0  0  0  0  0  0  0  0  0  0
   -2.3208   -2.1556   -2.8567 H   0  0  0  0  0  0  0  0  0  0  0  0
   -6.9611   -2.7648   -1.3624 H   0  0  0  0  0  0  0  0  0  0  0  0
   -6.2637   -3.4425   -2.8659 H   0  0  0  0  0  0  0  0  0  0  0  0
   -5.8320   -4.1600   -1.2831 H   0  0  0  0  0  0  0  0  0  0  0  0
   -3.2407    3.1342    2.3200 H   0  0  0  0  0  0  0  0  0  0  0  0
   -3.0450    5.3260    1.1427 H   0  0  0  0  0  0  0  0  0  0  0  0
   -1.1439    5.7396   -0.4110 H   0  0  0  0  0  0  0  0  0  0  0  0
    1.7256    1.9438   -2.4860 H   0  0  0  0  0  0  0  0  0  0  0  0
    0.2145    2.6339   -3.1439 H   0  0  0  0  0  0  0  0  0  0  0  0
    1.7989    3.3153   -3.6486 H   0  0  0  0  0  0  0  0  0  0  0  0
    3.6529    4.5274   -1.2339 H   0  0  0  0  0  0  0  0  0  0  0  0
    2.8468    5.0063    0.3007 H   0  0  0  0  0  0  0  0  0  0  0  0
    3.1309    3.2686   -0.0609 H   0  0  0  0  0  0  0  0  0  0  0  0
    1.6299    6.0978   -2.8723 H   0  0  0  0  0  0  0  0  0  0  0  0
   -0.1375    5.8783   -2.6779 H   0  0  0  0  0  0  0  0  0  0  0  0
    0.8229    6.6626   -1.3769 H   0  0  0  0  0  0  0  0  0  0  0  0
    1.7064   -0.4695    3.7469 H   0  0  0  0  0  0  0  0  0  0  0  0
    4.0431   -1.2033    4.3780 H   0  0  0  0  0  0  0  0  0  0  0  0
    5.6646   -1.8177    2.5892 H   0  0  0  0  0  0  0  0  0  0  0  0
    6.4674   -0.8361   -2.4325 H   0  0  0  0  0  0  0  0  0  0  0  0
    4.8089   -0.2500   -2.0296 H   0  0  0  0  0  0  0  0  0  0  0  0
    6.2189    0.3264   -1.0804 H   0  0  0  0  0  0  0  0  0  0  0  0
    4.9412   -4.4150   -0.6227 H   0  0  0  0  0  0  0  0  0  0  0  0
    3.9824   -3.3954   -1.7459 H   0  0  0  0  0  0  0  0  0  0  0  0
    5.6985   -3.7993   -2.1355 H   0  0  0  0  0  0  0  0  0  0  0  0
    7.5921   -1.4721    0.9992 H   0  0  0  0  0  0  0  0  0  0  0  0
    7.1405   -3.2034    1.1510 H   0  0  0  0  0  0  0  0  0  0  0  0
    7.9645   -2.6178   -0.3286 H   0  0  0  0  0  0  0  0  0  0  0  0
  1 10  1  0  0  0  0
  2 19  1  0  0  0  0
  2 37  1  0  0  0  0
  3 28  1  0  0  0  0
  4  9  1  1  0  0  0
  5 15  1  0  0  0  0
  6 26  1  0  0  0  0
  6 24  1  0  0  0  0
  7 36  1  0  0  0  0
  7 33  1  0  0  0  0
  8  4  1  0  0  0  0
  9 39  1  0  0  0  0
  9 38  1  0  0  0  0
  9 40  1  0  0  0  0
 10 11  1  0  0  0  0
 11  4  1  0  0  0  0
 11 12  2  0  0  0  0
 12 41  1  0  0  0  0
 13 12  1  0  0  0  0
 13 42  1  0  0  0  0
 14 13  2  0  0  0  0
 15 10  2  0  0  0  0
 15 14  1  0  0  0  0
 16 44  1  0  0  0  0
 16 46  1  0  0  0  0
 16  5  1  0  0  0  0
 17 47  1  0  0  0  0
 17  5  1  0  0  0  0
 18  5  1  0  0  0  0
 18 50  1  0  0  0  0
 18 52  1  0  0  0  0
 19 20  1  0  0  0  0
 20 21  2  0  0  0  0
 20  4  1  0  0  0  0
 21 53  1  0  0  0  0
 22 54  1  0  0  0  0
 22 21  1  0  0  0  0
 23 22  2  0  0  0  0
 24 23  1  0  0  0  0
 24 19  2  0  0  0  0
 25 56  1  0  0  0  0
 25  6  1  0  0  0  0
 26 61  1  0  0  0  0
 26 60  1  0  0  0  0
 27 64  1  0  0  0  0
 27  6  1  0  0  0  0
 28 33  2  0  0  0  0
 28 29  1  0  0  0  0
 29 30  2  0  0  0  0
 30 31  1  0  0  0  0
 30 65  1  0  0  0  0
 31 66  1  0  0  0  0
 32 67  1  0  0  0  0
 32 31  2  0  0  0  0
 33 32  1  0  0  0  0
 34 70  1  0  0  0  0
 34  7  1  0  0  0  0
 35 71  1  0  0  0  0
 35  7  1  0  0  0  0
 36 74  1  0  0  0  0
 36 75  1  0  0  0  0
 37 29  1  1  0  0  0
 37  8  1  0  0  0  0
 43 14  1  0  0  0  0
 45 16  1  0  0  0  0
 48 17  1  0  0  0  0
 49 17  1  0  0  0  0
 51 18  1  0  0  0  0
 55 23  1  0  0  0  0
 57 25  1  0  0  0  0
 58 25  1  0  0  0  0
 59 26  1  0  0  0  0
 62 27  1  0  0  0  0
 63 27  1  0  0  0  0
 68 34  1  0  0  0  0
 69 34  1  0  0  0  0
 72 35  1  0  0  0  0
 73 35  1  0  0  0  0
 76 36  1  0  0  0  0
M  END
