1,2,3,4
 OpenBabel05122313063D

 36 37  0  0  0  0  0  0  0  0999 V2000
    0.0626    2.2703   -0.5940 S   0  0  0  0  0  0  0  0  0  0  0  0
   -2.5906   -0.0000   -0.4177 S   0  0  0  0  0  0  0  0  0  0  0  0
    0.0626   -2.2703   -0.5940 S   0  0  0  0  0  0  0  0  0  0  0  0
    1.7886    0.0000    0.0403 C   0  0  0  0  0  3  0  0  0  0  0  0
    2.4908   -1.2277    0.1489 C   0  0  0  0  0  0  0  0  0  0  0  0
    3.8919   -1.2168    0.2889 C   0  0  0  0  0  0  0  0  0  0  0  0
    4.5861    0.0001    0.3470 C   0  0  0  0  0  0  0  0  0  0  0  0
    3.8918    1.2169    0.2889 C   0  0  0  0  0  0  0  0  0  0  0  0
    2.4907    1.2278    0.1489 C   0  0  0  0  0  0  0  0  0  0  0  0
    1.7220    2.5214    0.1935 C   0  0  0  0  0  0  0  0  0  0  0  0
   -1.0974    3.1097    0.5597 C   0  0  0  0  0  0  0  0  0  0  0  0
   -2.5567    2.7714    0.2317 C   0  0  0  0  0  0  0  0  0  0  0  0
   -3.0665    1.4006    0.6886 C   0  0  0  0  0  0  0  0  0  0  0  0
   -3.0664   -1.4007    0.6886 C   0  0  0  0  0  0  0  0  0  0  0  0
   -2.5565   -2.7715    0.2318 C   0  0  0  0  0  0  0  0  0  0  0  0
   -1.0973   -3.1096    0.5598 C   0  0  0  0  0  0  0  0  0  0  0  0
    1.7221   -2.5214    0.1934 C   0  0  0  0  0  0  0  0  0  0  0  0
    4.4449   -2.1663    0.3591 H   0  0  0  0  0  0  0  0  0  0  0  0
    5.6812    0.0001    0.4476 H   0  0  0  0  0  0  0  0  0  0  0  0
    4.4448    2.1664    0.3591 H   0  0  0  0  0  0  0  0  0  0  0  0
    2.2259    3.3567   -0.3326 H   0  0  0  0  0  0  0  0  0  0  0  0
    1.5282    2.8389    1.2401 H   0  0  0  0  0  0  0  0  0  0  0  0
   -0.8345    2.8274    1.5994 H   0  0  0  0  0  0  0  0  0  0  0  0
   -0.9234    4.1973    0.4338 H   0  0  0  0  0  0  0  0  0  0  0  0
   -3.1788    3.5262    0.7577 H   0  0  0  0  0  0  0  0  0  0  0  0
   -2.7619    2.9292   -0.8491 H   0  0  0  0  0  0  0  0  0  0  0  0
   -4.1748    1.4002    0.7074 H   0  0  0  0  0  0  0  0  0  0  0  0
   -2.7033    1.1623    1.7099 H   0  0  0  0  0  0  0  0  0  0  0  0
   -2.7033   -1.1624    1.7100 H   0  0  0  0  0  0  0  0  0  0  0  0
   -4.1747   -1.4003    0.7074 H   0  0  0  0  0  0  0  0  0  0  0  0
   -3.1787   -3.5262    0.7578 H   0  0  0  0  0  0  0  0  0  0  0  0
   -2.7618   -2.9292   -0.8490 H   0  0  0  0  0  0  0  0  0  0  0  0
   -0.9232   -4.1973    0.4339 H   0  0  0  0  0  0  0  0  0  0  0  0
   -0.8343   -2.8273    1.5995 H   0  0  0  0  0  0  0  0  0  0  0  0
    1.5284   -2.8389    1.2401 H   0  0  0  0  0  0  0  0  0  0  0  0
    2.2260   -3.3566   -0.3327 H   0  0  0  0  0  0  0  0  0  0  0  0
  1 10  1  0  0  0  0
  1 11  1  0  0  0  0
  2 13  1  0  0  0  0
  2 14  1  0  0  0  0
  3 17  1  0  0  0  0
  3 16  1  0  0  0  0
  4  5  2  0  0  0  0
  4  9  1  0  0  0  0
  5 17  1  0  0  0  0
  5  6  1  0  0  0  0
  6  7  2  0  0  0  0
  6 18  1  0  0  0  0
  7 19  1  0  0  0  0
  8  7  1  0  0  0  0
  8 20  1  0  0  0  0
  9 10  1  0  0  0  0
  9  8  2  0  0  0  0
 10 22  1  0  0  0  0
 11 23  1  0  0  0  0
 12 11  1  0  0  0  0
 12 13  1  0  0  0  0
 12 25  1  0  0  0  0
 13 27  1  0  0  0  0
 13 28  1  0  0  0  0
 14 30  1  0  0  0  0
 14 29  1  0  0  0  0
 15 16  1  0  0  0  0
 15 14  1  0  0  0  0
 15 31  1  0  0  0  0
 16 34  1  0  0  0  0
 17 35  1  0  0  0  0
 21 10  1  0  0  0  0
 24 11  1  0  0  0  0
 26 12  1  0  0  0  0
 32 15  1  0  0  0  0
 33 16  1  0  0  0  0
 36 17  1  0  0  0  0
M  END
