1,2,3,4
q = -1.0

 46 48  0  0  0  0  0  0  0  0999 V2000
   -0.0013    0.0007    2.7619 P   0  0  0  0  0  0  0  0  0  0  0  0
    0.6165   -1.7259    0.5173 N   0  0  0  0  0  2  0  0  0  0  0  0
   -1.8043    0.3292    0.5165 N   0  0  0  0  0  2  0  0  0  0  0  0
    1.1862    1.3977    0.5172 N   0  0  0  0  0  2  0  0  0  0  0  0
    0.5768   -1.6171    1.9708 C   0  0  0  0  0  0  0  0  0  0  0  0
    1.5846   -1.7874    2.4169 H   0  0  0  0  0  0  0  0  0  0  0  0
   -0.0955   -2.3875    2.4160 H   0  0  0  0  0  0  0  0  0  0  0  0
   -1.6911    0.3089    1.9701 C   0  0  0  0  0  0  0  0  0  0  0  0
   -2.3426   -0.4790    2.4156 H   0  0  0  0  0  0  0  0  0  0  0  0
   -2.0225    1.2761    2.4153 H   0  0  0  0  0  0  0  0  0  0  0  0
    1.1108    1.3100    1.9707 C   0  0  0  0  0  0  0  0  0  0  0  0
    0.7539    2.2682    2.4159 H   0  0  0  0  0  0  0  0  0  0  0  0
    2.1139    1.1135    2.4166 H   0  0  0  0  0  0  0  0  0  0  0  0
    1.0541   -2.9469   -0.0381 C   0  0  0  0  0  0  0  0  0  0  0  0
    1.1129   -3.1043   -1.4453 C   0  0  0  0  0  0  0  0  0  0  0  0
    0.8124   -2.2607   -2.0841 H   0  0  0  0  0  0  0  0  0  0  0  0
    1.5438   -4.3066   -2.0099 C   0  0  0  0  0  0  0  0  0  0  0  0
    1.5791   -4.4000   -3.1061 H   0  0  0  0  0  0  0  0  0  0  0  0
    1.9294   -5.3885   -1.1971 C   0  0  0  0  0  0  0  0  0  0  0  0
    2.2680   -6.3333   -1.6473 H   0  0  0  0  0  0  0  0  0  0  0  0
    1.8749   -5.2428    0.1947 C   0  0  0  0  0  0  0  0  0  0  0  0
    2.1719   -6.0763    0.8498 H   0  0  0  0  0  0  0  0  0  0  0  0
    1.4437   -4.0397    0.7754 C   0  0  0  0  0  0  0  0  0  0  0  0
    1.4147   -3.9642    1.8701 H   0  0  0  0  0  0  0  0  0  0  0  0
   -3.0803    0.5611   -0.0396 C   0  0  0  0  0  0  0  0  0  0  0  0
   -3.2453    0.5900   -1.4468 C   0  0  0  0  0  0  0  0  0  0  0  0
   -2.3642    0.4292   -2.0854 H   0  0  0  0  0  0  0  0  0  0  0  0
   -4.5017    0.8180   -2.0119 C   0  0  0  0  0  0  0  0  0  0  0  0
   -4.5997    0.8349   -3.1082 H   0  0  0  0  0  0  0  0  0  0  0  0
   -5.6320    1.0242   -1.1996 C   0  0  0  0  0  0  0  0  0  0  0  0
   -6.6193    1.2034   -1.6502 H   0  0  0  0  0  0  0  0  0  0  0  0
   -5.4793    0.9977    0.1923 C   0  0  0  0  0  0  0  0  0  0  0  0
   -6.3499    1.1566    0.8471 H   0  0  0  0  0  0  0  0  0  0  0  0
   -4.2220    0.7695    0.7735 C   0  0  0  0  0  0  0  0  0  0  0  0
   -4.1427    0.7560    1.8682 H   0  0  0  0  0  0  0  0  0  0  0  0
    2.0263    2.3859   -0.0385 C   0  0  0  0  0  0  0  0  0  0  0  0
    2.1365    2.5123   -1.4456 C   0  0  0  0  0  0  0  0  0  0  0  0
    1.5576    1.8288   -2.0842 H   0  0  0  0  0  0  0  0  0  0  0  0
    2.9637    3.4852   -2.0105 C   0  0  0  0  0  0  0  0  0  0  0  0
    3.0295    3.5600   -3.1068 H   0  0  0  0  0  0  0  0  0  0  0  0
    3.7062    4.3618   -1.1980 C   0  0  0  0  0  0  0  0  0  0  0  0
    4.3562    5.1263   -1.6483 H   0  0  0  0  0  0  0  0  0  0  0  0
    3.6041    4.2448    0.1939 C   0  0  0  0  0  0  0  0  0  0  0  0
    4.1760    4.9200    0.8488 H   0  0  0  0  0  0  0  0  0  0  0  0
    2.7763    3.2712    0.7749 C   0  0  0  0  0  0  0  0  0  0  0  0
    2.7228    3.2108    1.8696 H   0  0  0  0  0  0  0  0  0  0  0  0
  2  5  1  0  0  0  0
  3  8  1  0  0  0  0
  4 11  1  0  0  0  0
  5  7  1  0  0  0  0
  5  6  1  0  0  0  0
  5  1  1  0  0  0  0
  8 10  1  0  0  0  0
  8  9  1  0  0  0  0
  8  1  1  0  0  0  0
 11 12  1  0  0  0  0
 11 13  1  0  0  0  0
 11  1  1  0  0  0  0
 14  2  1  0  0  0  0
 14 23  1  0  0  0  0
 15 14  2  0  0  0  0
 16 15  1  0  0  0  0
 17 15  1  0  0  0  0
 17 19  2  0  0  0  0
 18 17  1  0  0  0  0
 19 21  1  0  0  0  0
 20 19  1  0  0  0  0
 21 23  2  0  0  0  0
 21 22  1  0  0  0  0
 23 24  1  0  0  0  0
 25  3  1  0  0  0  0
 25 34  1  0  0  0  0
 26 25  2  0  0  0  0
 27 26  1  0  0  0  0
 28 26  1  0  0  0  0
 28 30  2  0  0  0  0
 29 28  1  0  0  0  0
 30 32  1  0  0  0  0
 31 30  1  0  0  0  0
 32 34  2  0  0  0  0
 32 33  1  0  0  0  0
 34 35  1  0  0  0  0
 36  4  1  0  0  0  0
 36 45  1  0  0  0  0
 37 36  2  0  0  0  0
 38 37  1  0  0  0  0
 39 37  1  0  0  0  0
 39 41  2  0  0  0  0
 40 39  1  0  0  0  0
 41 43  1  0  0  0  0
 42 41  1  0  0  0  0
 43 45  2  0  0  0  0
 43 44  1  0  0  0  0
 45 46  1  0  0  0  0
M  END
