2,3,4,5
q = -1.0

 72 73  0  0  1  0  0  0  0  0999 V2000
   -1.5135   -0.9217   -1.1229 H   0  0  0  0  0  0  0  0  0  0  0  0
    2.2231   -0.9249    0.0653 P   0  0  0  0  0  0  0  0  0  0  0  0
    0.4239    0.7365    1.5577 N   0  0  0  0  0  2  0  0  0  0  0  0
   -0.6135    2.4758   -0.2694 N   0  0  0  0  0  0  0  0  0  0  0  0
   -1.1724   -0.1396   -0.5604 N   0  0  0  0  0  2  0  0  0  0  0  0
    4.0331   -0.9631   -0.5700 C   0  0  0  0  0  0  0  0  0  0  0  0
    0.0021    3.6871    0.3429 C   0  0  0  0  0  0  0  0  0  0  0  0
    0.5501    3.3427    1.2409 H   0  0  0  0  0  0  0  0  0  0  0  0
   -0.8073    4.3656    0.7019 H   0  0  0  0  0  0  0  0  0  0  0  0
   -0.7457    1.3228    1.9050 C   0  0  2  0  0  3  0  0  0  0  0  0
   -6.5148   -1.8315   -0.4478 C   0  0  0  0  0  0  0  0  0  0  0  0
   -7.6104   -1.7192   -0.4186 H   0  0  0  0  0  0  0  0  0  0  0  0
    4.9872   -1.6991    0.3901 C   0  0  0  0  0  0  0  0  0  0  0  0
    4.7143   -2.7558    0.5532 H   0  0  0  0  0  0  0  0  0  0  0  0
    5.0508   -1.2006    1.3776 H   0  0  0  0  0  0  0  0  0  0  0  0
    6.0099   -1.6845   -0.0433 H   0  0  0  0  0  0  0  0  0  0  0  0
    2.4396   -0.5582    1.9086 C   0  0  0  0  0  0  0  0  0  0  0  0
    2.7543   -1.4371    2.5062 H   0  0  0  0  0  0  0  0  0  0  0  0
    3.2671    0.1829    1.9483 H   0  0  0  0  0  0  0  0  0  0  0  0
    1.4699   -2.6980    0.0355 C   0  0  0  0  0  0  0  0  0  0  0  0
    2.4187   -3.8359    0.4364 C   0  0  0  0  0  0  0  0  0  0  0  0
    1.8423   -4.7852    0.4764 H   0  0  0  0  0  0  0  0  0  0  0  0
    2.8598   -3.6832    1.4424 H   0  0  0  0  0  0  0  0  0  0  0  0
    3.2410   -3.9859   -0.2891 H   0  0  0  0  0  0  0  0  0  0  0  0
   -4.2795   -0.8303   -0.1310 C   0  0  0  0  0  0  0  0  0  0  0  0
   -1.3170    2.7855   -1.5523 C   0  0  0  0  0  0  0  0  0  0  0  0
   -1.6709    1.8187   -1.9524 H   0  0  0  0  0  0  0  0  0  0  0  0
   -0.5420    3.1508   -2.2516 H   0  0  0  0  0  0  0  0  0  0  0  0
    4.5226    0.4898   -0.7115 C   0  0  0  0  0  0  0  0  0  0  0  0
    4.4790    1.0460    0.2465 H   0  0  0  0  0  0  0  0  0  0  0  0
    3.9257    1.0559   -1.4484 H   0  0  0  0  0  0  0  0  0  0  0  0
    5.5825    0.4735   -1.0442 H   0  0  0  0  0  0  0  0  0  0  0  0
    4.0576   -1.6217   -1.9615 C   0  0  0  0  0  0  0  0  0  0  0  0
    3.8358   -2.7052   -1.9209 H   0  0  0  0  0  0  0  0  0  0  0  0
    5.0731   -1.5099   -2.3970 H   0  0  0  0  0  0  0  0  0  0  0  0
    3.3422   -1.1404   -2.6569 H   0  0  0  0  0  0  0  0  0  0  0  0
   -3.7279   -2.0911   -0.5064 C   0  0  0  0  0  0  0  0  0  0  0  0
   -2.6396   -2.2423   -0.4831 H   0  0  0  0  0  0  0  0  0  0  0  0
   -1.1935    1.3021    3.2331 C   0  0  0  0  0  0  0  0  0  0  0  0
   -2.1467    1.7792    3.4991 H   0  0  0  0  0  0  0  0  0  0  0  0
    1.1919    0.0746    2.4603 C   0  0  0  0  0  0  0  0  0  0  0  0
   -1.5416    1.8189    0.7183 C   0  0  2  0  0  0  0  0  0  0  0  0
   -2.3424    2.5099    1.0538 H   0  0  0  0  0  0  0  0  0  0  0  0
   -0.4101    0.6409    4.1895 C   0  0  0  0  0  0  0  0  0  0  0  0
   -0.7353    0.6035    5.2399 H   0  0  0  0  0  0  0  0  0  0  0  0
    0.9529    4.4397   -0.5758 C   0  0  0  0  0  0  0  0  0  0  0  0
    1.6926    3.7355   -1.0065 H   0  0  0  0  0  0  0  0  0  0  0  0
    1.4977    5.2075    0.0082 H   0  0  0  0  0  0  0  0  0  0  0  0
    0.4294    4.9613   -1.4009 H   0  0  0  0  0  0  0  0  0  0  0  0
   -3.4989    0.3302    0.2479 C   0  0  0  0  0  0  0  0  0  0  0  0
   -4.0682    1.1534    0.7088 H   0  0  0  0  0  0  0  0  0  0  0  0
    0.9189   -2.9360   -1.3834 C   0  0  0  0  0  0  0  0  0  0  0  0
    0.3123   -3.8663   -1.3928 H   0  0  0  0  0  0  0  0  0  0  0  0
    1.7206   -3.0499   -2.1369 H   0  0  0  0  0  0  0  0  0  0  0  0
    0.2749   -2.0943   -1.7025 H   0  0  0  0  0  0  0  0  0  0  0  0
    0.7857    0.0125    3.8020 C   0  0  0  0  0  0  0  0  0  0  0  0
    1.4026   -0.5270    4.5345 H   0  0  0  0  0  0  0  0  0  0  0  0
    0.2868   -2.6644    1.0237 C   0  0  0  0  0  0  0  0  0  0  0  0
   -0.3004   -3.6009    0.9139 H   0  0  0  0  0  0  0  0  0  0  0  0
   -0.3897   -1.8120    0.8112 H   0  0  0  0  0  0  0  0  0  0  0  0
    0.6200   -2.6101    2.0790 H   0  0  0  0  0  0  0  0  0  0  0  0
   -2.1373    0.5609    0.0699 C   0  0  0  0  0  0  0  0  0  0  0  0
   -4.5454   -3.1763   -0.8465 C   0  0  0  0  0  0  0  0  0  0  0  0
   -4.0776   -4.1347   -1.1234 H   0  0  0  0  0  0  0  0  0  0  0  0
   -5.7028   -0.7476   -0.1049 C   0  0  0  0  0  0  0  0  0  0  0  0
   -6.1662    0.2075    0.1917 H   0  0  0  0  0  0  0  0  0  0  0  0
   -5.9449   -3.0597   -0.8311 C   0  0  0  0  0  0  0  0  0  0  0  0
   -6.5826   -3.9128   -1.1072 H   0  0  0  0  0  0  0  0  0  0  0  0
   -2.4770    3.7747   -1.4580 C   0  0  0  0  0  0  0  0  0  0  0  0
   -2.8990    3.9268   -2.4712 H   0  0  0  0  0  0  0  0  0  0  0  0
   -2.1719    4.7705   -1.0769 H   0  0  0  0  0  0  0  0  0  0  0  0
   -3.2990    3.3876   -0.8238 H   0  0  0  0  0  0  0  0  0  0  0  0
  1  5  1  0  0  0  0
  2 17  1  0  0  0  0
  3 10  1  0  0  0  0
  3 41  1  0  0  0  0
  4  7  1  0  0  0  0
  4 42  1  0  0  0  0
  5 62  1  0  0  0  0
  6  2  1  0  0  0  0
  6 13  1  0  0  0  0
  7  9  1  0  0  0  0
  7  8  1  0  0  0  0
 10 42  1  6  0  0  0
 10 39  1  0  0  0  0
 11 12  1  0  0  0  0
 11 65  1  0  0  0  0
 13 14  1  0  0  0  0
 13 15  1  0  0  0  0
 16 13  1  0  0  0  0
 17 19  1  0  0  0  0
 17 41  1  0  0  0  0
 17 18  1  0  0  0  0
 20  2  1  0  0  0  0
 20 21  1  0  0  0  0
 20 58  1  0  0  0  0
 21 22  1  0  0  0  0
 21 23  1  0  0  0  0
 24 21  1  0  0  0  0
 25 65  2  0  0  0  0
 25 50  1  0  0  0  0
 26 69  1  0  0  0  0
 26  4  1  0  0  0  0
 27 26  1  0  0  0  0
 28 26  1  0  0  0  0
 29  6  1  0  0  0  0
 29 30  1  0  0  0  0
 31 29  1  0  0  0  0
 32 29  1  0  0  0  0
 33 34  1  0  0  0  0
 33  6  1  0  0  0  0
 35 33  1  0  0  0  0
 36 33  1  0  0  0  0
 37 38  1  0  0  0  0
 37 25  1  0  0  0  0
 39 40  1  0  0  0  0
 39 44  2  0  0  0  0
 41 56  2  0  0  0  0
 42 43  1  1  0  0  0
 44 45  1  0  0  0  0
 46 48  1  0  0  0  0
 46  7  1  0  0  0  0
 47 46  1  0  0  0  0
 49 46  1  0  0  0  0
 50 51  1  0  0  0  0
 52 20  1  0  0  0  0
 53 52  1  0  0  0  0
 54 52  1  0  0  0  0
 55 52  1  0  0  0  0
 56 44  1  0  0  0  0
 56 57  1  0  0  0  0
 58 61  1  0  0  0  0
 59 58  1  0  0  0  0
 60 58  1  0  0  0  0
 62 50  2  0  0  0  0
 62 42  1  0  0  0  0
 63 67  1  0  0  0  0
 63 37  2  0  0  0  0
 64 63  1  0  0  0  0
 65 66  1  0  0  0  0
 67 11  2  0  0  0  0
 68 67  1  0  0  0  0
 69 71  1  0  0  0  0
 69 72  1  0  0  0  0
 70 69  1  0  0  0  0
M  END
