5,8,9,10
q = 0.0, confidence = 0.998

 60 64  0  0  1  0  0  0  0  0999 V2000
   -1.0871    2.7890    0.2411 C   0  0  0  0  0  3  0  0  0  0  0  0
    0.0076    2.7331    0.3037 H   0  0  0  0  0  0  0  0  0  0  0  0
   -1.7488    4.0164    0.2320 C   0  0  0  0  0  0  0  0  0  0  0  0
   -1.1571    4.9402    0.3027 H   0  0  0  0  0  0  0  0  0  0  0  0
    1.3559    0.0695   -0.0132 P   0  0  0  0  0  0  0  0  0  0  0  0
   -3.8317    2.8309    0.0462 C   0  0  0  0  0  0  0  0  0  0  0  0
   -4.9279    2.8069   -0.0311 H   0  0  0  0  0  0  0  0  0  0  0  0
   -2.8489   -0.7140    0.0530 N   0  0  0  0  0  2  0  0  0  0  0  0
   -1.7316    1.5957    0.1502 N   0  0  0  0  0  2  0  0  0  0  0  0
   -0.7651   -2.3505   -0.2579 N   0  0  0  0  0  0  0  0  0  0  0  0
   -0.7976   -2.3866   -1.2956 H   0  0  0  0  0  0  0  0  0  0  0  0
   -3.1512    4.0492    0.1288 C   0  0  0  0  0  0  0  0  0  0  0  0
   -3.6992    5.0019    0.1155 H   0  0  0  0  0  0  0  0  0  0  0  0
   -3.1214    1.6202    0.0622 C   0  0  0  0  0  0  0  0  0  0  0  0
   -3.7566    0.2980    0.0086 C   0  0  2  0  0  3  0  0  0  0  0  0
   -4.5409   -2.3847    0.0120 C   0  0  0  0  0  0  0  0  0  0  0  0
   -4.8331   -3.4445    0.0220 H   0  0  0  0  0  0  0  0  0  0  0  0
   -5.5129   -1.3643   -0.0622 C   0  0  0  0  0  0  0  0  0  0  0  0
   -6.5790   -1.6269   -0.1204 H   0  0  0  0  0  0  0  0  0  0  0  0
   -5.1263   -0.0173   -0.0522 C   0  0  0  0  0  0  0  0  0  0  0  0
   -5.8814    0.7798   -0.0920 H   0  0  0  0  0  0  0  0  0  0  0  0
   -3.1935   -2.0225    0.0858 C   0  0  0  0  0  0  0  0  0  0  0  0
   -2.0121   -2.9447    0.3019 C   0  0  0  0  0  0  0  0  0  0  0  0
   -1.8517   -3.0112    1.4001 H   0  0  0  0  0  0  0  0  0  0  0  0
   -2.1999   -3.9658   -0.0963 H   0  0  0  0  0  0  0  0  0  0  0  0
    0.4810   -2.9967    0.2235 C   0  0  0  0  0  0  0  0  0  0  0  0
    0.3542   -4.1019    0.2592 H   0  0  0  0  0  0  0  0  0  0  0  0
    0.6385   -2.6359    1.2632 H   0  0  0  0  0  0  0  0  0  0  0  0
    1.6456   -2.6781   -0.6947 C   0  0  0  0  0  0  0  0  0  0  0  0
    2.2543   -3.7423   -1.3875 C   0  0  0  0  0  0  0  0  0  0  0  0
    1.8783   -4.7649   -1.2232 H   0  0  0  0  0  0  0  0  0  0  0  0
    3.3171   -3.5301   -2.2780 C   0  0  0  0  0  0  0  0  0  0  0  0
    3.7707   -4.3826   -2.8058 H   0  0  0  0  0  0  0  0  0  0  0  0
    3.7849   -2.2281   -2.4956 C   0  0  0  0  0  0  0  0  0  0  0  0
    4.6130   -2.0426   -3.1966 H   0  0  0  0  0  0  0  0  0  0  0  0
    3.1926   -1.1538   -1.8145 C   0  0  0  0  0  0  0  0  0  0  0  0
    3.5612   -0.1316   -1.9850 H   0  0  0  0  0  0  0  0  0  0  0  0
    2.1331   -1.3581   -0.9112 C   0  0  0  0  0  0  0  0  0  0  0  0
    2.2709    0.0493    1.5920 C   0  0  0  0  0  0  0  0  0  0  0  0
    3.3817   -0.7818    1.8299 C   0  0  0  0  0  0  0  0  0  0  0  0
    3.7282   -1.4731    1.0474 H   0  0  0  0  0  0  0  0  0  0  0  0
    4.0553   -0.7277    3.0619 C   0  0  0  0  0  0  0  0  0  0  0  0
    4.9220   -1.3831    3.2384 H   0  0  0  0  0  0  0  0  0  0  0  0
    3.6288    0.1614    4.0594 C   0  0  0  0  0  0  0  0  0  0  0  0
    4.1583    0.2048    5.0236 H   0  0  0  0  0  0  0  0  0  0  0  0
    2.5192    0.9917    3.8271 C   0  0  0  0  0  0  0  0  0  0  0  0
    2.1715    1.6814    4.6111 H   0  0  0  0  0  0  0  0  0  0  0  0
    1.8354    0.9287    2.6062 C   0  0  0  0  0  0  0  0  0  0  0  0
    0.9468    1.5543    2.4386 H   0  0  0  0  0  0  0  0  0  0  0  0
    2.1020    1.5529   -0.8399 C   0  0  0  0  0  0  0  0  0  0  0  0
    3.2168    2.2348   -0.3086 C   0  0  0  0  0  0  0  0  0  0  0  0
    3.6923    1.8732    0.6149 H   0  0  0  0  0  0  0  0  0  0  0  0
    3.7193    3.3768   -0.9534 C   0  0  0  0  0  0  0  0  0  0  0  0
    4.5876    3.9036   -0.5285 H   0  0  0  0  0  0  0  0  0  0  0  0
    3.1187    3.8438   -2.1328 C   0  0  0  0  0  0  0  0  0  0  0  0
    3.5141    4.7397   -2.6360 H   0  0  0  0  0  0  0  0  0  0  0  0
    2.0104    3.1649   -2.6666 C   0  0  0  0  0  0  0  0  0  0  0  0
    1.5337    3.5263   -3.5909 H   0  0  0  0  0  0  0  0  0  0  0  0
    1.4978    2.0282   -2.0252 C   0  0  0  0  0  0  0  0  0  0  0  0
    0.6229    1.4933   -2.4330 H   0  0  0  0  0  0  0  0  0  0  0  0
  1  2  1  0  0  0  0
  3  1  1  0  0  0  0
  3  4  1  0  0  0  0
  5 39  1  0  0  0  0
  6 14  2  0  0  0  0
  6 12  1  0  0  0  0
  7  6  1  0  0  0  0
  8 22  1  0  0  0  0
  9  1  1  0  0  0  0
 10 26  1  0  0  0  0
 10 23  1  0  0  0  0
 11 10  1  0  0  0  0
 12  3  2  0  0  0  0
 13 12  1  0  0  0  0
 14  9  1  0  0  0  0
 15  8  1  0  0  0  0
 15 14  1  1  0  0  0
 16 17  1  0  0  0  0
 16 22  2  0  0  0  0
 18 20  2  0  0  0  0
 18 16  1  0  0  0  0
 19 18  1  0  0  0  0
 20 15  1  0  0  0  0
 21 20  1  0  0  0  0
 22 23  1  0  0  0  0
 23 24  1  0  0  0  0
 25 23  1  0  0  0  0
 26 27  1  0  0  0  0
 26 28  1  0  0  0  0
 29 26  1  0  0  0  0
 30 31  1  0  0  0  0
 30 29  2  0  0  0  0
 32 30  1  0  0  0  0
 33 32  1  0  0  0  0
 34 32  2  0  0  0  0
 34 36  1  0  0  0  0
 35 34  1  0  0  0  0
 36 38  2  0  0  0  0
 37 36  1  0  0  0  0
 38 29  1  0  0  0  0
 38  5  1  0  0  0  0
 39 40  2  0  0  0  0
 39 48  1  0  0  0  0
 40 42  1  0  0  0  0
 41 40  1  0  0  0  0
 42 43  1  0  0  0  0
 42 44  2  0  0  0  0
 44 45  1  0  0  0  0
 46 44  1  0  0  0  0
 46 47  1  0  0  0  0
 48 46  2  0  0  0  0
 49 48  1  0  0  0  0
 50 51  1  0  0  0  0
 50  5  1  0  0  0  0
 51 52  1  0  0  0  0
 53 54  1  0  0  0  0
 53 51  2  0  0  0  0
 55 53  1  0  0  0  0
 56 55  1  0  0  0  0
 57 55  2  0  0  0  0
 57 59  1  0  0  0  0
 58 57  1  0  0  0  0
 59 50  2  0  0  0  0
 60 59  1  0  0  0  0
M  END
