1,2,3,4
q = -1.0

 45 48  0  0  1  0  0  0  0  0999 V2000
    1.1858   -0.0004   -0.0003 P   0  0  1  0  0  4  0  0  0  0  0  0
   -0.9894   -1.8382   -0.9740 N   0  0  0  0  0  2  0  0  0  0  0  0
   -0.9886    0.9731   -1.8391 N   0  0  0  0  0  2  0  0  0  0  0  0
   -0.9888    1.8382    0.9743 N   0  0  0  0  0  2  0  0  0  0  0  0
    1.2655   -1.3627   -1.3287 O   0  0  0  0  0  0  0  0  0  0  0  0
    1.2655    1.3300   -1.3635 O   0  0  0  0  0  0  0  0  0  0  0  0
    1.2660    1.3623    1.3286 O   0  0  0  0  0  0  0  0  0  0  0  0
    0.2452   -2.1605   -1.4917 C   0  0  2  0  0  3  0  0  0  0  0  0
    0.4218   -3.3710   -2.2169 C   0  0  0  0  0  0  0  0  0  0  0  0
    1.4238   -3.5735   -2.6180 H   0  0  0  0  0  0  0  0  0  0  0  0
   -0.6441   -4.2449   -2.3895 C   0  0  0  0  0  0  0  0  0  0  0  0
   -0.5065   -5.1826   -2.9494 H   0  0  0  0  0  0  0  0  0  0  0  0
   -1.8961   -3.9170   -1.8305 C   0  0  0  0  0  0  0  0  0  0  0  0
   -2.7681   -4.5772   -1.9303 H   0  0  0  0  0  0  0  0  0  0  0  0
   -2.0169   -2.7162   -1.1402 C   0  0  0  0  0  0  0  0  0  0  0  0
   -2.9745   -2.4160   -0.6941 H   0  0  0  0  0  0  0  0  0  0  0  0
    0.2468    1.4890   -2.1628 C   0  0  2  0  0  3  0  0  0  0  0  0
    0.4247    2.2064   -3.3778 C   0  0  0  0  0  0  0  0  0  0  0  0
    1.4286    2.6004   -3.5844 H   0  0  0  0  0  0  0  0  0  0  0  0
   -0.6402    2.3742   -4.2536 C   0  0  0  0  0  0  0  0  0  0  0  0
   -0.5009    2.9268   -5.1953 H   0  0  0  0  0  0  0  0  0  0  0  0
   -1.8932    1.8186   -3.9232 C   0  0  0  0  0  0  0  0  0  0  0  0
   -2.7645    1.9149   -4.5849 H   0  0  0  0  0  0  0  0  0  0  0  0
   -2.0152    1.1346   -2.7190 C   0  0  0  0  0  0  0  0  0  0  0  0
   -2.9730    0.6898   -2.4176 H   0  0  0  0  0  0  0  0  0  0  0  0
    0.2461    2.1603    1.4917 C   0  0  2  0  0  3  0  0  0  0  0  0
    0.4230    3.3709    2.2166 C   0  0  0  0  0  0  0  0  0  0  0  0
    1.4251    3.5733    2.6174 H   0  0  0  0  0  0  0  0  0  0  0  0
   -0.6426    4.2451    2.3892 C   0  0  0  0  0  0  0  0  0  0  0  0
   -0.5047    5.1829    2.9488 H   0  0  0  0  0  0  0  0  0  0  0  0
   -1.8948    3.9174    1.8304 C   0  0  0  0  0  0  0  0  0  0  0  0
   -2.7666    4.5779    1.9303 H   0  0  0  0  0  0  0  0  0  0  0  0
   -2.0161    2.7165    1.1405 C   0  0  0  0  0  0  0  0  0  0  0  0
   -2.9738    2.4164    0.6946 H   0  0  0  0  0  0  0  0  0  0  0  0
    3.0432   -0.0001   -0.0006 C   0  0  0  0  0  0  0  0  0  0  0  0
    3.7548    1.2131   -0.0381 C   0  0  0  0  0  0  0  0  0  0  0  0
    3.2052    2.1621   -0.0704 H   0  0  0  0  0  0  0  0  0  0  0  0
    5.1575    1.2115   -0.0390 C   0  0  0  0  0  0  0  0  0  0  0  0
    5.7010    2.1685   -0.0699 H   0  0  0  0  0  0  0  0  0  0  0  0
    5.8647    0.0001   -0.0011 C   0  0  0  0  0  0  0  0  0  0  0  0
    6.9657    0.0003   -0.0012 H   0  0  0  0  0  0  0  0  0  0  0  0
    5.1577   -1.2113    0.0371 C   0  0  0  0  0  0  0  0  0  0  0  0
    5.7014   -2.1682    0.0678 H   0  0  0  0  0  0  0  0  0  0  0  0
    3.7550   -1.2133    0.0366 C   0  0  0  0  0  0  0  0  0  0  0  0
    3.2056   -2.1623    0.0692 H   0  0  0  0  0  0  0  0  0  0  0  0
  1  6  1  6  0  0  0
  1  7  1  0  0  0  0
  4 33  1  0  0  0  0
  4 26  1  0  0  0  0
  5  1  1  0  0  0  0
  8  5  1  6  0  0  0
  8  2  1  0  0  0  0
  9  8  1  0  0  0  0
 10  9  1  0  0  0  0
 11  9  2  0  0  0  0
 11 13  1  0  0  0  0
 12 11  1  0  0  0  0
 13 15  2  0  0  0  0
 14 13  1  0  0  0  0
 15  2  1  0  0  0  0
 15 16  1  0  0  0  0
 17  3  1  0  0  0  0
 17  6  1  1  0  0  0
 18 17  1  0  0  0  0
 19 18  1  0  0  0  0
 20 22  1  0  0  0  0
 20 18  2  0  0  0  0
 21 20  1  0  0  0  0
 22 24  2  0  0  0  0
 23 22  1  0  0  0  0
 24 25  1  0  0  0  0
 24  3  1  0  0  0  0
 26  7  1  1  0  0  0
 26 27  1  0  0  0  0
 27 29  2  0  0  0  0
 27 28  1  0  0  0  0
 29 30  1  0  0  0  0
 31 32  1  0  0  0  0
 31 29  1  0  0  0  0
 33 31  2  0  0  0  0
 34 33  1  0  0  0  0
 35  1  1  0  0  0  0
 35 44  1  0  0  0  0
 36 35  2  0  0  0  0
 37 36  1  0  0  0  0
 38 36  1  0  0  0  0
 38 40  2  0  0  0  0
 39 38  1  0  0  0  0
 40 42  1  0  0  0  0
 41 40  1  0  0  0  0
 42 43  1  0  0  0  0
 44 42  2  0  0  0  0
 44 45  1  0  0  0  0
M  END
