1,5,6,7
q = -3.0

 82 84  0  0  0  0  0  0  0  0999 V2000
   -0.1044   -0.0266    1.8458 P   0  0  0  0  0  0  0  0  0  0  0  0
   -3.2492   -0.3583   -1.1634 Si  0  0  0  0  0  0  0  0  0  0  0  0
    2.3406   -2.4295   -1.1495 Si  0  0  0  0  0  0  0  0  0  0  0  0
    1.2821    2.8852   -1.1549 Si  0  0  0  0  0  0  0  0  0  0  0  0
   -1.7315   -0.9712   -0.3942 N   0  0  0  0  0  2  0  0  0  0  0  0
    1.7407   -0.9589   -0.2753 N   0  0  0  0  0  2  0  0  0  0  0  0
   -0.0378    1.8382   -0.4901 N   0  0  0  0  0  2  0  0  0  0  0  0
   -1.6790   -0.7149    2.5110 C   0  0  0  0  0  0  0  0  0  0  0  0
   -1.6605   -0.8012    3.6162 H   0  0  0  0  0  0  0  0  0  0  0  0
   -2.4566    0.0261    2.2280 H   0  0  0  0  0  0  0  0  0  0  0  0
    1.2875   -0.9588    2.6085 C   0  0  0  0  0  0  0  0  0  0  0  0
    1.2874   -0.9057    3.7157 H   0  0  0  0  0  0  0  0  0  0  0  0
    1.1296   -2.0143    2.2962 H   0  0  0  0  0  0  0  0  0  0  0  0
    0.0039    1.7103    2.4515 C   0  0  0  0  0  0  0  0  0  0  0  0
   -0.1428    1.7812    3.5483 H   0  0  0  0  0  0  0  0  0  0  0  0
    1.0387    2.0348    2.2135 H   0  0  0  0  0  0  0  0  0  0  0  0
   -1.9064   -2.0448    1.8429 C   0  0  0  0  0  0  0  0  0  0  0  0
   -2.0695   -3.2159    2.6063 C   0  0  0  0  0  0  0  0  0  0  0  0
   -2.0553   -3.1364    3.7052 H   0  0  0  0  0  0  0  0  0  0  0  0
   -2.2618   -4.4647    1.9988 C   0  0  0  0  0  0  0  0  0  0  0  0
   -2.3940   -5.3655    2.6164 H   0  0  0  0  0  0  0  0  0  0  0  0
   -2.2816   -4.5491    0.5985 C   0  0  0  0  0  0  0  0  0  0  0  0
   -2.4267   -5.5206    0.1019 H   0  0  0  0  0  0  0  0  0  0  0  0
   -2.1024   -3.3966   -0.1769 C   0  0  0  0  0  0  0  0  0  0  0  0
   -2.0946   -3.4613   -1.2724 H   0  0  0  0  0  0  0  0  0  0  0  0
   -1.9069   -2.1262    0.4159 C   0  0  0  0  0  0  0  0  0  0  0  0
   -2.8994    0.8698   -2.5506 C   0  0  0  0  0  0  0  0  0  0  0  0
   -2.0176    1.5074   -2.3639 H   0  0  0  0  0  0  0  0  0  0  0  0
   -3.7896    1.5200   -2.6798 H   0  0  0  0  0  0  0  0  0  0  0  0
   -2.7105    0.3248   -3.4953 H   0  0  0  0  0  0  0  0  0  0  0  0
   -4.2897    0.4322    0.2062 C   0  0  0  0  0  0  0  0  0  0  0  0
   -4.5063   -0.3046    1.0071 H   0  0  0  0  0  0  0  0  0  0  0  0
   -5.2625    0.7792   -0.2005 H   0  0  0  0  0  0  0  0  0  0  0  0
   -3.7788    1.3079    0.6538 H   0  0  0  0  0  0  0  0  0  0  0  0
   -4.2555   -1.7726   -1.9156 C   0  0  0  0  0  0  0  0  0  0  0  0
   -3.6883   -2.2913   -2.7147 H   0  0  0  0  0  0  0  0  0  0  0  0
   -5.1665   -1.3368   -2.3782 H   0  0  0  0  0  0  0  0  0  0  0  0
   -4.5767   -2.5218   -1.1661 H   0  0  0  0  0  0  0  0  0  0  0  0
    2.5433   -0.3852    2.0103 C   0  0  0  0  0  0  0  0  0  0  0  0
    3.5286    0.1884    2.8349 C   0  0  0  0  0  0  0  0  0  0  0  0
    3.3671    0.1903    3.9251 H   0  0  0  0  0  0  0  0  0  0  0  0
    4.7088    0.7280    2.3040 C   0  0  0  0  0  0  0  0  0  0  0  0
    5.4685    1.1635    2.9696 H   0  0  0  0  0  0  0  0  0  0  0  0
    4.9049    0.6943    0.9157 C   0  0  0  0  0  0  0  0  0  0  0  0
    5.8259    1.1040    0.4737 H   0  0  0  0  0  0  0  0  0  0  0  0
    3.9216    0.1507    0.0793 C   0  0  0  0  0  0  0  0  0  0  0  0
    4.0812    0.1419   -1.0062 H   0  0  0  0  0  0  0  0  0  0  0  0
    2.7122   -0.3871    0.5894 C   0  0  0  0  0  0  0  0  0  0  0  0
    0.9229   -3.5883   -1.5797 C   0  0  0  0  0  0  0  0  0  0  0  0
    0.3905   -3.9282   -0.6705 H   0  0  0  0  0  0  0  0  0  0  0  0
    1.3449   -4.4815   -2.0863 H   0  0  0  0  0  0  0  0  0  0  0  0
    0.1983   -3.1098   -2.2657 H   0  0  0  0  0  0  0  0  0  0  0  0
    3.4801   -3.3398    0.0606 C   0  0  0  0  0  0  0  0  0  0  0  0
    4.3755   -2.7437    0.3251 H   0  0  0  0  0  0  0  0  0  0  0  0
    3.8220   -4.2919   -0.3958 H   0  0  0  0  0  0  0  0  0  0  0  0
    2.9447   -3.5872    1.0005 H   0  0  0  0  0  0  0  0  0  0  0  0
    3.3083   -2.0023   -2.7179 C   0  0  0  0  0  0  0  0  0  0  0  0
    2.6927   -1.3698   -3.3870 H   0  0  0  0  0  0  0  0  0  0  0  0
    3.5589   -2.9386   -3.2598 H   0  0  0  0  0  0  0  0  0  0  0  0
    4.2596   -1.4786   -2.4977 H   0  0  0  0  0  0  0  0  0  0  0  0
   -1.0227    2.5164    1.6989 C   0  0  0  0  0  0  0  0  0  0  0  0
   -1.0162    2.5445    0.2679 C   0  0  0  0  0  0  0  0  0  0  0  0
   -2.0038    3.3264   -0.3794 C   0  0  0  0  0  0  0  0  0  0  0  0
   -1.9995    3.3673   -1.4752 H   0  0  0  0  0  0  0  0  0  0  0  0
   -2.9788    4.0306    0.3381 C   0  0  0  0  0  0  0  0  0  0  0  0
   -3.7319    4.6207   -0.2058 H   0  0  0  0  0  0  0  0  0  0  0  0
   -2.9996    3.9707    1.7389 C   0  0  0  0  0  0  0  0  0  0  0  0
   -3.7673    4.5097    2.3134 H   0  0  0  0  0  0  0  0  0  0  0  0
   -2.0234    3.2143    2.4020 C   0  0  0  0  0  0  0  0  0  0  0  0
   -2.0218    3.1677    3.5029 H   0  0  0  0  0  0  0  0  0  0  0  0
    2.3157    1.9580   -2.4247 C   0  0  0  0  0  0  0  0  0  0  0  0
    2.5525    0.9226   -2.1237 H   0  0  0  0  0  0  0  0  0  0  0  0
    3.2667    2.5109   -2.5728 H   0  0  0  0  0  0  0  0  0  0  0  0
    1.7788    1.8993   -3.3909 H   0  0  0  0  0  0  0  0  0  0  0  0
    2.3369    3.4895    0.2939 C   0  0  0  0  0  0  0  0  0  0  0  0
    1.7132    4.0344    1.0321 H   0  0  0  0  0  0  0  0  0  0  0  0
    3.1173    4.1914   -0.0673 H   0  0  0  0  0  0  0  0  0  0  0  0
    2.8490    2.6499    0.8046 H   0  0  0  0  0  0  0  0  0  0  0  0
    0.5532    4.4014   -2.0213 C   0  0  0  0  0  0  0  0  0  0  0  0
   -0.1076    4.1101   -2.8628 H   0  0  0  0  0  0  0  0  0  0  0  0
    1.3927    4.9937   -2.4432 H   0  0  0  0  0  0  0  0  0  0  0  0
   -0.0164    5.0576   -1.3348 H   0  0  0  0  0  0  0  0  0  0  0  0
  1 14  1  0  0  0  0
  1  8  1  0  0  0  0
  1 11  1  0  0  0  0
  2  5  1  0  0  0  0
  2 31  1  0  0  0  0
  3  6  1  0  0  0  0
  3 53  1  0  0  0  0
  4  7  1  0  0  0  0
  4 75  1  0  0  0  0
  5 26  1  0  0  0  0
  6 48  1  0  0  0  0
  7 62  1  0  0  0  0
  8  9  1  0  0  0  0
 10  8  1  0  0  0  0
 11 12  1  0  0  0  0
 13 11  1  0  0  0  0
 14 15  1  0  0  0  0
 16 14  1  0  0  0  0
 17  8  1  0  0  0  0
 17 18  1  0  0  0  0
 18 19  1  0  0  0  0
 20 18  2  0  0  0  0
 20 21  1  0  0  0  0
 22 20  1  0  0  0  0
 23 22  1  0  0  0  0
 24 26  1  0  0  0  0
 24 22  2  0  0  0  0
 25 24  1  0  0  0  0
 26 17  2  0  0  0  0
 27 28  1  0  0  0  0
 27  2  1  0  0  0  0
 29 27  1  0  0  0  0
 30 27  1  0  0  0  0
 31 34  1  0  0  0  0
 31 32  1  0  0  0  0
 33 31  1  0  0  0  0
 35 38  1  0  0  0  0
 35  2  1  0  0  0  0
 36 35  1  0  0  0  0
 37 35  1  0  0  0  0
 39 11  1  0  0  0  0
 39 40  1  0  0  0  0
 40 41  1  0  0  0  0
 42 40  2  0  0  0  0
 42 43  1  0  0  0  0
 44 42  1  0  0  0  0
 45 44  1  0  0  0  0
 46 48  1  0  0  0  0
 46 44  2  0  0  0  0
 47 46  1  0  0  0  0
 48 39  2  0  0  0  0
 49  3  1  0  0  0  0
 49 50  1  0  0  0  0
 51 49  1  0  0  0  0
 52 49  1  0  0  0  0
 53 54  1  0  0  0  0
 53 56  1  0  0  0  0
 55 53  1  0  0  0  0
 57 60  1  0  0  0  0
 57  3  1  0  0  0  0
 58 57  1  0  0  0  0
 59 57  1  0  0  0  0
 61 69  1  0  0  0  0
 61 14  1  0  0  0  0
 62 61  2  0  0  0  0
 63 62  1  0  0  0  0
 63 65  2  0  0  0  0
 64 63  1  0  0  0  0
 65 67  1  0  0  0  0
 66 65  1  0  0  0  0
 67 68  1  0  0  0  0
 67 69  2  0  0  0  0
 69 70  1  0  0  0  0
 71 72  1  0  0  0  0
 71  4  1  0  0  0  0
 73 71  1  0  0  0  0
 74 71  1  0  0  0  0
 75 78  1  0  0  0  0
 75 76  1  0  0  0  0
 77 75  1  0  0  0  0
 79 82  1  0  0  0  0
 79  4  1  0  0  0  0
 80 79  1  0  0  0  0
 81 79  1  0  0  0  0
M  END
