1,2,3,4
q = -1.0, confidence = 0.018

 69 69  0  0  1  0  0  0  0  0999 V2000
    2.1132    0.5688    0.0300 P   0  0  0  0  0  0  0  0  0  0  0  0
   -1.4759   -2.0481   -0.0471 N   0  0  0  0  0  0  0  0  0  0  0  0
   -0.1357   -0.3135    1.5771 N   0  0  0  0  0  2  0  0  0  0  0  0
   -1.3304    0.5225   -0.8124 N   0  0  0  0  0  2  0  0  0  0  0  0
   -1.4105    1.3197   -1.4492 H   0  0  0  0  0  0  0  0  0  0  0  0
    2.1196    0.4997    1.9205 C   0  0  0  0  0  0  0  0  0  0  0  0
    2.7266   -0.3999    2.1614 H   0  0  0  0  0  0  0  0  0  0  0  0
    2.6133    1.3690    2.3993 H   0  0  0  0  0  0  0  0  0  0  0  0
    0.7214    0.2969    2.4359 C   0  0  1  0  0  3  0  0  0  0  0  0
    0.2681    0.6937    3.7027 C   0  0  0  0  0  0  0  0  0  0  0  0
    0.9587    1.1916    4.3981 H   0  0  0  0  0  0  0  0  0  0  0  0
   -1.0678    0.4473    4.0652 C   0  0  0  0  0  0  0  0  0  0  0  0
   -1.4319    0.7465    5.0593 H   0  0  0  0  0  0  0  0  0  0  0  0
   -1.9364   -0.1671    3.1521 C   0  0  0  0  0  0  0  0  0  0  0  0
   -2.9927   -0.3483    3.3942 H   0  0  0  0  0  0  0  0  0  0  0  0
   -1.4334   -0.5306    1.8954 C   0  0  0  0  0  0  0  0  0  0  0  0
   -2.2591   -1.0217    0.7275 C   0  0  1  0  0  0  0  0  0  0  0  0
   -3.2296   -1.4256    1.0837 H   0  0  0  0  0  0  0  0  0  0  0  0
    1.8403    2.4362   -0.3588 C   0  0  0  0  0  0  0  0  0  0  0  0
    1.4596    2.5386   -1.8479 C   0  0  0  0  0  0  0  0  0  0  0  0
    1.0992    3.5657   -2.0684 H   0  0  0  0  0  0  0  0  0  0  0  0
    0.6553    1.8201   -2.0977 H   0  0  0  0  0  0  0  0  0  0  0  0
    2.3140    2.3314   -2.5191 H   0  0  0  0  0  0  0  0  0  0  0  0
    0.6269    2.8658    0.4905 C   0  0  0  0  0  0  0  0  0  0  0  0
   -0.2313    2.1789    0.3429 H   0  0  0  0  0  0  0  0  0  0  0  0
    0.3111    3.8831    0.1755 H   0  0  0  0  0  0  0  0  0  0  0  0
    0.8667    2.9187    1.5710 H   0  0  0  0  0  0  0  0  0  0  0  0
    3.0194    3.3668   -0.0438 C   0  0  0  0  0  0  0  0  0  0  0  0
    2.7030    4.4180   -0.2168 H   0  0  0  0  0  0  0  0  0  0  0  0
    3.8981    3.1820   -0.6911 H   0  0  0  0  0  0  0  0  0  0  0  0
    3.3412    3.2966    1.0152 H   0  0  0  0  0  0  0  0  0  0  0  0
    3.9093    0.0578   -0.4129 C   0  0  0  0  0  0  0  0  0  0  0  0
    4.9586    0.7003    0.5143 C   0  0  0  0  0  0  0  0  0  0  0  0
    5.9689    0.3661    0.1953 H   0  0  0  0  0  0  0  0  0  0  0  0
    4.8339    0.3814    1.5681 H   0  0  0  0  0  0  0  0  0  0  0  0
    4.9524    1.8035    0.4841 H   0  0  0  0  0  0  0  0  0  0  0  0
    4.1874    0.4331   -1.8799 C   0  0  0  0  0  0  0  0  0  0  0  0
    5.1654    0.0034   -2.1842 H   0  0  0  0  0  0  0  0  0  0  0  0
    4.2488    1.5276   -2.0327 H   0  0  0  0  0  0  0  0  0  0  0  0
    3.4172    0.0234   -2.5625 H   0  0  0  0  0  0  0  0  0  0  0  0
    4.0198   -1.4717   -0.2742 C   0  0  0  0  0  0  0  0  0  0  0  0
    3.7773   -1.8221    0.7492 H   0  0  0  0  0  0  0  0  0  0  0  0
    5.0670   -1.7707   -0.4942 H   0  0  0  0  0  0  0  0  0  0  0  0
    3.3437   -1.9980   -0.9711 H   0  0  0  0  0  0  0  0  0  0  0  0
   -1.2269   -3.2439    0.8056 C   0  0  0  0  0  0  0  0  0  0  0  0
   -2.2021   -3.6334    1.1824 H   0  0  0  0  0  0  0  0  0  0  0  0
   -0.6633   -2.8885    1.6895 H   0  0  0  0  0  0  0  0  0  0  0  0
   -0.4460   -4.3533    0.1170 C   0  0  0  0  0  0  0  0  0  0  0  0
    0.4733   -3.9350   -0.3395 H   0  0  0  0  0  0  0  0  0  0  0  0
   -1.0346   -4.8696   -0.6666 H   0  0  0  0  0  0  0  0  0  0  0  0
   -0.1515   -5.1152    0.8656 H   0  0  0  0  0  0  0  0  0  0  0  0
   -2.1609   -2.3973   -1.3294 C   0  0  0  0  0  0  0  0  0  0  0  0
   -1.4714   -3.0641   -1.8800 H   0  0  0  0  0  0  0  0  0  0  0  0
   -2.2236   -1.4596   -1.9100 H   0  0  0  0  0  0  0  0  0  0  0  0
   -3.5442   -3.0320   -1.1980 C   0  0  0  0  0  0  0  0  0  0  0  0
   -4.2712   -2.3428   -0.7243 H   0  0  0  0  0  0  0  0  0  0  0  0
   -3.5358   -3.9851   -0.6307 H   0  0  0  0  0  0  0  0  0  0  0  0
   -3.9308   -3.2580   -2.2117 H   0  0  0  0  0  0  0  0  0  0  0  0
   -2.4679    0.2112   -0.1561 C   0  0  0  0  0  0  0  0  0  0  0  0
   -3.7085    0.8452   -0.1218 C   0  0  0  0  0  0  0  0  0  0  0  0
   -4.5113    0.3585    0.4560 H   0  0  0  0  0  0  0  0  0  0  0  0
   -4.0138    2.0785   -0.7929 C   0  0  0  0  0  0  0  0  0  0  0  0
   -3.1728    2.5749   -1.3181 H   0  0  0  0  0  0  0  0  0  0  0  0
   -5.2229    2.7101   -0.8390 C   0  0  0  0  0  0  0  0  0  0  0  0
   -6.0803    2.2338   -0.3272 H   0  0  0  0  0  0  0  0  0  0  0  0
   -5.4868    4.0125   -1.5297 C   0  0  0  0  0  0  0  0  0  0  0  0
   -5.8548    4.7962   -0.8281 H   0  0  0  0  0  0  0  0  0  0  0  0
   -6.2706    3.9213   -2.3162 H   0  0  0  0  0  0  0  0  0  0  0  0
   -4.5710    4.4067   -2.0168 H   0  0  0  0  0  0  0  0  0  0  0  0
  1  6  1  0  0  0  0
  2 17  1  0  0  0  0
  2 45  1  0  0  0  0
  3 16  1  0  0  0  0
  3  9  1  0  0  0  0
  4 59  1  0  0  0  0
  5  4  1  0  0  0  0
  6  7  1  0  0  0  0
  6  8  1  0  0  0  0
  9  6  1  6  0  0  0
  9 10  1  0  0  0  0
 10 12  2  0  0  0  0
 10 11  1  0  0  0  0
 12 13  1  0  0  0  0
 14 15  1  0  0  0  0
 14 12  1  0  0  0  0
 16 14  2  0  0  0  0
 17 18  1  1  0  0  0
 17 16  1  0  0  0  0
 19 28  1  0  0  0  0
 19  1  1  0  0  0  0
 19 24  1  0  0  0  0
 20 19  1  0  0  0  0
 21 20  1  0  0  0  0
 22 20  1  0  0  0  0
 23 20  1  0  0  0  0
 24 27  1  0  0  0  0
 25 24  1  0  0  0  0
 26 24  1  0  0  0  0
 28 31  1  0  0  0  0
 29 28  1  0  0  0  0
 30 28  1  0  0  0  0
 32 41  1  0  0  0  0
 32  1  1  0  0  0  0
 32 33  1  0  0  0  0
 33 35  1  0  0  0  0
 34 33  1  0  0  0  0
 36 33  1  0  0  0  0
 37 32  1  0  0  0  0
 38 37  1  0  0  0  0
 39 37  1  0  0  0  0
 40 37  1  0  0  0  0
 41 42  1  0  0  0  0
 43 41  1  0  0  0  0
 44 41  1  0  0  0  0
 45 46  1  0  0  0  0
 45 47  1  0  0  0  0
 48 45  1  0  0  0  0
 48 51  1  0  0  0  0
 49 48  1  0  0  0  0
 50 48  1  0  0  0  0
 52 55  1  0  0  0  0
 52  2  1  0  0  0  0
 53 52  1  0  0  0  0
 54 52  1  0  0  0  0
 55 56  1  0  0  0  0
 55 57  1  0  0  0  0
 58 55  1  0  0  0  0
 59 60  2  0  0  0  0
 59 17  1  0  0  0  0
 60 61  1  0  0  0  0
 62 60  1  0  0  0  0
 63 62  1  0  0  0  0
 64 62  2  0  0  0  0
 64 65  1  0  0  0  0
 66 64  1  0  0  0  0
 66 67  1  0  0  0  0
 68 66  1  0  0  0  0
 69 66  1  0  0  0  0
M  END
