1,5,6,7
q = -3.0

 73 75  0  0  0  0  0  0  0  0999 V2000
    0.0001   -0.0022   -2.5162 P   0  0  0  0  0  0  0  0  0  0  0  0
    1.9695    2.0842   -1.7431 Si  0  0  0  0  0  0  0  0  0  0  0  0
    0.8205   -2.7505   -1.7391 Si  0  0  0  0  0  0  0  0  0  0  0  0
   -2.7906    0.6594   -1.7417 Si  0  0  0  0  0  0  0  0  0  0  0  0
    1.7201    1.1054   -0.2811 N   0  0  0  0  0  2  0  0  0  0  0  0
    0.0971   -2.0416   -0.2790 N   0  0  0  0  0  2  0  0  0  0  0  0
   -1.8175    0.9361   -0.2808 N   0  0  0  0  0  2  0  0  0  0  0  0
    1.4702    0.9000   -3.1605 C   0  0  0  0  0  0  0  0  0  0  0  0
    1.2764    1.3831   -4.1401 H   0  0  0  0  0  0  0  0  0  0  0  0
    2.2919    0.1645   -3.2887 H   0  0  0  0  0  0  0  0  0  0  0  0
    0.0467   -1.7273   -3.1583 C   0  0  0  0  0  0  0  0  0  0  0  0
    0.5631   -1.8023   -4.1373 H   0  0  0  0  0  0  0  0  0  0  0  0
   -1.0011   -2.0712   -3.2872 H   0  0  0  0  0  0  0  0  0  0  0  0
   -1.5169    0.8187   -3.1604 C   0  0  0  0  0  0  0  0  0  0  0  0
   -1.8390    0.4085   -4.1395 H   0  0  0  0  0  0  0  0  0  0  0  0
   -1.2916    1.8981   -3.2893 H   0  0  0  0  0  0  0  0  0  0  0  0
    3.7791    2.5815   -1.9113 C   0  0  0  0  0  0  0  0  0  0  0  0
    4.0878    3.2661   -1.0966 H   0  0  0  0  0  0  0  0  0  0  0  0
    3.9555    3.0922   -2.8801 H   0  0  0  0  0  0  0  0  0  0  0  0
    4.4326    1.6869   -1.8621 H   0  0  0  0  0  0  0  0  0  0  0  0
    0.8431    3.6028   -1.7884 C   0  0  0  0  0  0  0  0  0  0  0  0
   -0.2115    3.3092   -1.6094 H   0  0  0  0  0  0  0  0  0  0  0  0
    0.9014    4.1289   -2.7640 H   0  0  0  0  0  0  0  0  0  0  0  0
    1.1256    4.3257   -0.9956 H   0  0  0  0  0  0  0  0  0  0  0  0
    2.6434    1.2108    0.7963 C   0  0  0  0  0  0  0  0  0  0  0  0
    2.8806    2.4377    1.4636 C   0  0  0  0  0  0  0  0  0  0  0  0
    2.3277    3.3334    1.1408 H   0  0  0  0  0  0  0  0  0  0  0  0
    3.7724    2.5081    2.5408 C   0  0  0  0  0  0  0  0  0  0  0  0
    3.9364    3.4718    3.0476 H   0  0  0  0  0  0  0  0  0  0  0  0
    4.4403    1.3559    2.9894 C   0  0  0  0  0  0  0  0  0  0  0  0
    5.1310    1.4120    3.8438 H   0  0  0  0  0  0  0  0  0  0  0  0
    4.2114    0.1327    2.3414 C   0  0  0  0  0  0  0  0  0  0  0  0
    4.7244   -0.7788    2.6849 H   0  0  0  0  0  0  0  0  0  0  0  0
    3.3335    0.0611    1.2509 C   0  0  0  0  0  0  0  0  0  0  0  0
    3.1611   -0.8956    0.7344 H   0  0  0  0  0  0  0  0  0  0  0  0
    2.6994   -2.5384   -1.7847 C   0  0  0  0  0  0  0  0  0  0  0  0
    2.9753   -1.4785   -1.6088 H   0  0  0  0  0  0  0  0  0  0  0  0
    3.1250   -2.8556   -2.7594 H   0  0  0  0  0  0  0  0  0  0  0  0
    3.1828   -3.1435   -0.9903 H   0  0  0  0  0  0  0  0  0  0  0  0
    0.3435   -4.5658   -1.9040 C   0  0  0  0  0  0  0  0  0  0  0  0
    0.7803   -5.1746   -1.0877 H   0  0  0  0  0  0  0  0  0  0  0  0
    0.6976   -4.9765   -2.8717 H   0  0  0  0  0  0  0  0  0  0  0  0
   -0.7583   -4.6824   -1.8555 H   0  0  0  0  0  0  0  0  0  0  0  0
   -0.2732   -2.8915    0.8005 C   0  0  0  0  0  0  0  0  0  0  0  0
   -1.6134   -2.9116    1.2566 C   0  0  0  0  0  0  0  0  0  0  0  0
   -2.3556   -2.2839    0.7398 H   0  0  0  0  0  0  0  0  0  0  0  0
   -1.9903   -3.7053    2.3488 C   0  0  0  0  0  0  0  0  0  0  0  0
   -3.0357   -3.6918    2.6935 H   0  0  0  0  0  0  0  0  0  0  0  0
   -1.0458   -4.5154    2.9971 C   0  0  0  0  0  0  0  0  0  0  0  0
   -1.3425   -5.1399    3.8529 H   0  0  0  0  0  0  0  0  0  0  0  0
    0.2855   -4.5158    2.5471 C   0  0  0  0  0  0  0  0  0  0  0  0
    1.0377   -5.1399    3.0540 H   0  0  0  0  0  0  0  0  0  0  0  0
    0.6704   -3.7107    1.4680 C   0  0  0  0  0  0  0  0  0  0  0  0
    1.7222   -3.6818    1.1441 H   0  0  0  0  0  0  0  0  0  0  0  0
   -3.5400   -1.0765   -1.7840 C   0  0  0  0  0  0  0  0  0  0  0  0
   -2.7570   -1.8413   -1.6039 H   0  0  0  0  0  0  0  0  0  0  0  0
   -4.0247   -1.2914   -2.7591 H   0  0  0  0  0  0  0  0  0  0  0  0
   -4.3069   -1.1930   -0.9908 H   0  0  0  0  0  0  0  0  0  0  0  0
   -4.1276    1.9761   -1.9108 C   0  0  0  0  0  0  0  0  0  0  0  0
   -4.8745    1.9015   -1.0958 H   0  0  0  0  0  0  0  0  0  0  0  0
   -4.6583    1.8719   -2.8793 H   0  0  0  0  0  0  0  0  0  0  0  0
   -3.6804    2.9898   -1.8630 H   0  0  0  0  0  0  0  0  0  0  0  0
   -2.3703    1.6838    0.7961 C   0  0  0  0  0  0  0  0  0  0  0  0
   -3.5524    1.2771    1.4625 C   0  0  0  0  0  0  0  0  0  0  0  0
   -4.0524    0.3509    1.1394 H   0  0  0  0  0  0  0  0  0  0  0  0
   -4.0594    2.0149    2.5391 C   0  0  0  0  0  0  0  0  0  0  0  0
   -4.9767    1.6762    3.0452 H   0  0  0  0  0  0  0  0  0  0  0  0
   -3.3948    3.1689    2.9880 C   0  0  0  0  0  0  0  0  0  0  0  0
   -3.7889    3.7396    3.8419 H   0  0  0  0  0  0  0  0  0  0  0  0
   -2.2201    3.5811    2.3408 C   0  0  0  0  0  0  0  0  0  0  0  0
   -1.6867    4.4806    2.6845 H   0  0  0  0  0  0  0  0  0  0  0  0
   -1.7190    2.8559    1.2508 C   0  0  0  0  0  0  0  0  0  0  0  0
   -0.8036    3.1840    0.7348 H   0  0  0  0  0  0  0  0  0  0  0  0
  2  5  1  0  0  0  0
  3  6  1  0  0  0  0
  4  7  1  0  0  0  0
  5 25  1  0  0  0  0
  6 44  1  0  0  0  0
  7 63  1  0  0  0  0
  8  1  1  0  0  0  0
  8  2  1  0  0  0  0
  9  8  1  0  0  0  0
 10  8  1  0  0  0  0
 11  1  1  0  0  0  0
 11  3  1  0  0  0  0
 12 11  1  0  0  0  0
 13 11  1  0  0  0  0
 14  1  1  0  0  0  0
 14  4  1  0  0  0  0
 15 14  1  0  0  0  0
 16 14  1  0  0  0  0
 17 20  1  0  0  0  0
 17  2  1  0  0  0  0
 17 18  1  0  0  0  0
 19 17  1  0  0  0  0
 21  2  1  0  0  0  0
 21 22  1  0  0  0  0
 21 24  1  0  0  0  0
 23 21  1  0  0  0  0
 25 34  2  0  0  0  0
 25 26  1  0  0  0  0
 26 28  2  0  0  0  0
 27 26  1  0  0  0  0
 28 30  1  0  0  0  0
 28 29  1  0  0  0  0
 30 31  1  0  0  0  0
 32 33  1  0  0  0  0
 32 30  2  0  0  0  0
 34 32  1  0  0  0  0
 35 34  1  0  0  0  0
 36  3  1  0  0  0  0
 36 37  1  0  0  0  0
 36 39  1  0  0  0  0
 38 36  1  0  0  0  0
 40 43  1  0  0  0  0
 40  3  1  0  0  0  0
 40 41  1  0  0  0  0
 42 40  1  0  0  0  0
 44 45  2  0  0  0  0
 44 53  1  0  0  0  0
 45 47  1  0  0  0  0
 46 45  1  0  0  0  0
 47 48  1  0  0  0  0
 47 49  2  0  0  0  0
 49 50  1  0  0  0  0
 51 49  1  0  0  0  0
 51 52  1  0  0  0  0
 53 51  2  0  0  0  0
 54 53  1  0  0  0  0
 55  4  1  0  0  0  0
 55 56  1  0  0  0  0
 55 58  1  0  0  0  0
 57 55  1  0  0  0  0
 59 62  1  0  0  0  0
 59  4  1  0  0  0  0
 59 60  1  0  0  0  0
 61 59  1  0  0  0  0
 63 72  2  0  0  0  0
 63 64  1  0  0  0  0
 64 66  2  0  0  0  0
 65 64  1  0  0  0  0
 66 68  1  0  0  0  0
 66 67  1  0  0  0  0
 68 69  1  0  0  0  0
 70 71  1  0  0  0  0
 70 68  2  0  0  0  0
 72 70  1  0  0  0  0
 73 72  1  0  0  0  0
M  END
