1,2,3,4,5
q = -1.0, confidence = 0.352

 55 56  0  0  1  0  0  0  0  0999 V2000
   -1.4281    0.7247   -1.0991 O   0  0  0  0  0  1  0  0  0  0  0  0
   -1.7296   -0.5219    1.0166 N   0  0  0  0  0  2  0  0  0  0  0  0
    0.7633   -0.0498    1.8074 N   0  0  0  0  0  0  0  0  0  0  0  0
    0.8558   -1.5386   -0.2506 N   0  0  0  0  0  2  0  0  0  0  0  0
    1.0998    1.4394   -0.2905 N   0  0  0  0  0  2  0  0  0  0  0  0
   -2.8009    0.5446   -0.7917 C   0  0  0  0  0  0  0  0  0  0  0  0
   -2.9071   -0.2027    0.5271 C   0  0  2  0  0  3  0  0  0  0  0  0
   -3.3910    1.9595   -0.5641 C   0  0  0  0  0  0  0  0  0  0  0  0
   -2.8656    2.4619    0.2724 H   0  0  0  0  0  0  0  0  0  0  0  0
   -4.4775    1.9362   -0.3509 H   0  0  0  0  0  0  0  0  0  0  0  0
   -3.2218    2.5542   -1.4826 H   0  0  0  0  0  0  0  0  0  0  0  0
   -3.5410   -0.1486   -1.9505 C   0  0  0  0  0  0  0  0  0  0  0  0
   -3.3667    0.4248   -2.8814 H   0  0  0  0  0  0  0  0  0  0  0  0
   -4.6332   -0.1837   -1.7677 H   0  0  0  0  0  0  0  0  0  0  0  0
   -3.1809   -1.1820   -2.1033 H   0  0  0  0  0  0  0  0  0  0  0  0
   -4.1925   -0.3618    1.2730 C   0  0  0  0  0  0  0  0  0  0  0  0
   -4.2160   -1.2960    1.8683 H   0  0  0  0  0  0  0  0  0  0  0  0
   -5.0549   -0.3688    0.5800 H   0  0  0  0  0  0  0  0  0  0  0  0
   -4.3542    0.4828    1.9804 H   0  0  0  0  0  0  0  0  0  0  0  0
   -1.5400   -0.8180    2.4413 C   0  0  0  0  0  0  0  0  0  0  0  0
   -2.0375   -1.7632    2.7489 H   0  0  0  0  0  0  0  0  0  0  0  0
   -2.0106   -0.0087    3.0415 H   0  0  0  0  0  0  0  0  0  0  0  0
   -0.0374   -0.9188    2.7183 C   0  0  0  0  0  0  0  0  0  0  0  0
    0.1977   -0.7059    3.7842 H   0  0  0  0  0  0  0  0  0  0  0  0
    0.2991   -1.9532    2.5103 H   0  0  0  0  0  0  0  0  0  0  0  0
    2.1084   -0.6528    1.5854 C   0  0  0  0  0  0  0  0  0  0  0  0
    2.5611   -1.0221    2.5312 H   0  0  0  0  0  0  0  0  0  0  0  0
    2.7784    0.1380    1.1905 H   0  0  0  0  0  0  0  0  0  0  0  0
    1.9436   -1.7357    0.5621 C   0  0  2  0  0  3  0  0  0  0  0  0
    2.8165   -2.8131    0.4108 C   0  0  0  0  0  0  0  0  0  0  0  0
    3.6699   -2.9223    1.0955 H   0  0  0  0  0  0  0  0  0  0  0  0
    2.5863   -3.7305   -0.6241 C   0  0  0  0  0  0  0  0  0  0  0  0
    3.2583   -4.5862   -0.7801 H   0  0  0  0  0  0  0  0  0  0  0  0
    1.4689   -3.5357   -1.4467 C   0  0  0  0  0  0  0  0  0  0  0  0
    1.2429   -4.2389   -2.2608 H   0  0  0  0  0  0  0  0  0  0  0  0
    0.6020   -2.4501   -1.2436 C   0  0  0  0  0  0  0  0  0  0  0  0
   -0.6301   -2.2632   -2.0688 C   0  0  0  0  0  0  0  0  0  0  0  0
   -0.7234   -1.2169   -2.4168 H   0  0  0  0  0  0  0  0  0  0  0  0
   -1.5279   -2.4660   -1.4490 H   0  0  0  0  0  0  0  0  0  0  0  0
   -0.6403   -2.9539   -2.9314 H   0  0  0  0  0  0  0  0  0  0  0  0
    0.8569    1.3902    2.1239 C   0  0  0  0  0  0  0  0  0  0  0  0
    1.5082    1.5951    3.0057 H   0  0  0  0  0  0  0  0  0  0  0  0
   -0.1633    1.7553    2.3694 H   0  0  0  0  0  0  0  0  0  0  0  0
    1.3832    2.0873    0.8800 C   0  0  2  0  0  3  0  0  0  0  0  0
    2.0936    3.2871    0.9119 C   0  0  0  0  0  0  0  0  0  0  0  0
    2.3114    3.7744    1.8732 H   0  0  0  0  0  0  0  0  0  0  0  0
    2.5160    3.8492   -0.3050 C   0  0  0  0  0  0  0  0  0  0  0  0
    3.0706    4.7988   -0.3180 H   0  0  0  0  0  0  0  0  0  0  0  0
    2.2309    3.1757   -1.4973 C   0  0  0  0  0  0  0  0  0  0  0  0
    2.5572    3.5837   -2.4645 H   0  0  0  0  0  0  0  0  0  0  0  0
    1.5229    1.9587   -1.4748 C   0  0  0  0  0  0  0  0  0  0  0  0
    1.1886    1.1938   -2.7182 C   0  0  0  0  0  0  0  0  0  0  0  0
    1.5594    0.1516   -2.6424 H   0  0  0  0  0  0  0  0  0  0  0  0
    1.6306    1.6656   -3.6140 H   0  0  0  0  0  0  0  0  0  0  0  0
    0.0866    1.1443   -2.8272 H   0  0  0  0  0  0  0  0  0  0  0  0
  1  6  1  0  0  0  0
  2 20  1  0  0  0  0
  3 41  1  0  0  0  0
  3 23  1  0  0  0  0
  4 29  1  0  0  0  0
  5 44  1  0  0  0  0
  6  8  1  0  0  0  0
  6  7  1  0  0  0  0
  7  2  1  1  0  0  0
  7 16  1  0  0  0  0
  8 10  1  0  0  0  0
  8  9  1  0  0  0  0
 11  8  1  0  0  0  0
 12 14  1  0  0  0  0
 12  6  1  0  0  0  0
 13 12  1  0  0  0  0
 15 12  1  0  0  0  0
 16 17  1  0  0  0  0
 16 19  1  0  0  0  0
 18 16  1  0  0  0  0
 20 23  1  0  0  0  0
 20 21  1  0  0  0  0
 20 22  1  0  0  0  0
 23 24  1  0  0  0  0
 25 23  1  0  0  0  0
 26  3  1  0  0  0  0
 26 27  1  0  0  0  0
 28 26  1  0  0  0  0
 29 26  1  6  0  0  0
 30 29  1  0  0  0  0
 30 31  1  0  0  0  0
 32 30  2  0  0  0  0
 33 32  1  0  0  0  0
 34 36  2  0  0  0  0
 34 32  1  0  0  0  0
 35 34  1  0  0  0  0
 36  4  1  0  0  0  0
 37 39  1  0  0  0  0
 37 36  1  0  0  0  0
 38 37  1  0  0  0  0
 40 37  1  0  0  0  0
 41 43  1  0  0  0  0
 41 42  1  0  0  0  0
 44 45  1  0  0  0  0
 44 41  1  6  0  0  0
 45 46  1  0  0  0  0
 47 45  2  0  0  0  0
 48 47  1  0  0  0  0
 49 51  2  0  0  0  0
 49 47  1  0  0  0  0
 50 49  1  0  0  0  0
 51  5  1  0  0  0  0
 52 53  1  0  0  0  0
 52 51  1  0  0  0  0
 54 52  1  0  0  0  0
 55 52  1  0  0  0  0
M  END
