1,2,3,4,7
 OpenBabel05122313063D

 39 39  0  0  0  0  0  0  0  0999 V2000
   -1.2811   -1.3376   -0.1456 O   0  5  0  0  0  0  0  0  0  0  0  0
   -0.1626    1.3759   -0.0946 N   0  0  0  0  0  2  0  0  0  0  0  0
    2.5183    0.5871    0.1962 N   0  0  0  0  0  0  0  0  0  0  0  0
    1.4652   -1.0404   -1.9527 N   0  0  0  0  0  0  0  0  0  0  0  0
    1.2690   -2.0071   -2.2484 H   0  0  0  0  0  0  0  0  0  0  0  0
    1.0620   -0.4453   -2.6925 H   0  0  0  0  0  0  0  0  0  0  0  0
    1.2288   -1.6033    1.5287 N   0  0  0  0  0  0  0  0  0  0  0  0
    0.4032   -1.8163    2.1065 H   0  0  0  0  0  0  0  0  0  0  0  0
    1.6340   -2.5171    1.2790 H   0  0  0  0  0  0  0  0  0  0  0  0
   -2.4146   -0.6912   -0.0752 C   0  0  0  0  0  0  0  0  0  0  0  0
   -3.6279   -1.4463   -0.0625 C   0  0  0  0  0  0  0  0  0  0  0  0
   -3.5301   -2.5401   -0.1214 H   0  0  0  0  0  0  0  0  0  0  0  0
   -4.8732   -0.8371    0.0226 C   0  0  0  0  0  0  0  0  0  0  0  0
   -5.7797   -1.4622    0.0307 H   0  0  0  0  0  0  0  0  0  0  0  0
   -4.9960    0.5738    0.0984 C   0  0  0  0  0  0  0  0  0  0  0  0
   -5.9864    1.0450    0.1650 H   0  0  0  0  0  0  0  0  0  0  0  0
   -3.8457    1.3440    0.0844 C   0  0  0  0  0  0  0  0  0  0  0  0
   -3.9178    2.4424    0.1388 H   0  0  0  0  0  0  0  0  0  0  0  0
   -2.5419    0.7597   -0.0032 C   0  0  0  0  0  0  0  0  0  0  0  0
   -1.4403    1.6741   -0.0211 C   0  0  0  0  0  3  0  0  0  0  0  0
   -1.7166    2.7509    0.0281 H   0  0  0  0  0  0  0  0  0  0  0  0
    0.8510    2.4122   -0.1513 C   0  0  0  0  0  0  0  0  0  0  0  0
    0.5001    3.3753    0.2813 H   0  0  0  0  0  0  0  0  0  0  0  0
    1.1058    2.6291   -1.2156 H   0  0  0  0  0  0  0  0  0  0  0  0
    2.1073    1.9472    0.6003 C   0  0  0  0  0  0  0  0  0  0  0  0
    2.9350    2.6819    0.4685 H   0  0  0  0  0  0  0  0  0  0  0  0
    1.8726    1.9168    1.6830 H   0  0  0  0  0  0  0  0  0  0  0  0
    3.1882    0.5258   -1.1117 C   0  0  0  0  0  0  0  0  0  0  0  0
    4.2877    0.6916   -1.0311 H   0  0  0  0  0  0  0  0  0  0  0  0
    2.7966    1.3550   -1.7365 H   0  0  0  0  0  0  0  0  0  0  0  0
    2.9214   -0.8015   -1.8294 C   0  0  0  0  0  0  0  0  0  0  0  0
    3.4354   -0.7985   -2.8138 H   0  0  0  0  0  0  0  0  0  0  0  0
    3.3513   -1.6458   -1.2519 H   0  0  0  0  0  0  0  0  0  0  0  0
    3.2072   -0.1566    1.2626 C   0  0  0  0  0  0  0  0  0  0  0  0
    3.9396    0.4805    1.8100 H   0  0  0  0  0  0  0  0  0  0  0  0
    3.7977   -0.9724    0.7958 H   0  0  0  0  0  0  0  0  0  0  0  0
    2.2110   -0.7707    2.2530 C   0  0  0  0  0  0  0  0  0  0  0  0
    2.7625   -1.3369    3.0330 H   0  0  0  0  0  0  0  0  0  0  0  0
    1.6491    0.0296    2.7761 H   0  0  0  0  0  0  0  0  0  0  0  0
  1 10  1  0  0  0  0
  2 20  1  0  0  0  0
  3 25  1  0  0  0  0
  3 34  1  0  0  0  0
  4 31  1  0  0  0  0
  5  4  1  0  0  0  0
  6  4  1  0  0  0  0
  7  8  1  0  0  0  0
  7 37  1  0  0  0  0
  9  7  1  0  0  0  0
 10 11  2  0  0  0  0
 10 19  1  0  0  0  0
 11 13  1  0  0  0  0
 12 11  1  0  0  0  0
 13 14  1  0  0  0  0
 13 15  2  0  0  0  0
 15 16  1  0  0  0  0
 17 15  1  0  0  0  0
 17 18  1  0  0  0  0
 19 17  2  0  0  0  0
 20 19  1  0  0  0  0
 20 21  1  0  0  0  0
 22  2  1  0  0  0  0
 22 23  1  0  0  0  0
 22 25  1  0  0  0  0
 24 22  1  0  0  0  0
 25 27  1  0  0  0  0
 26 25  1  0  0  0  0
 28 29  1  0  0  0  0
 28  3  1  0  0  0  0
 30 28  1  0  0  0  0
 31 33  1  0  0  0  0
 31 28  1  0  0  0  0
 32 31  1  0  0  0  0
 34 35  1  0  0  0  0
 34 37  1  0  0  0  0
 36 34  1  0  0  0  0
 37 39  1  0  0  0  0
 37 38  1  0  0  0  0
M  CHG  1   1  -1
M  END
