7,9,10,11,12
 OpenBabel05122313063D

 71 75  0  0  1  0  0  0  0  0999 V2000
    1.0275    3.9673    0.9614 O   0  0  0  0  0  0  0  0  0  0  0  0
    3.0578    3.3996    0.1249 O   0  0  0  0  0  0  0  0  0  0  0  0
    3.5530   -2.4917    1.5404 O   0  0  0  0  0  0  0  0  0  0  0  0
    4.4630   -1.3483   -0.1946 O   0  0  0  0  0  0  0  0  0  0  0  0
    3.4014    0.9796    1.7416 O   0  0  0  0  0  0  0  0  0  0  0  0
    3.9241    1.7968    1.6342 H   0  0  0  0  0  0  0  0  0  0  0  0
   -2.9425   -1.0539   -1.4673 O   0  5  0  0  0  0  0  0  0  0  0  0
   -5.2064   -1.0199   -1.2252 O   0  0  0  0  0  0  0  0  0  0  0  0
   -1.4896    1.5691   -0.9871 N   0  0  0  0  0  2  0  0  0  0  0  0
   -0.2877   -2.4090   -0.7451 N   0  0  0  0  0  2  0  0  0  0  0  0
    0.6974    0.0116   -1.4070 N   0  0  0  0  0  0  0  0  0  0  0  0
   -2.5839   -0.5608    1.1199 N   0  0  0  0  0  2  0  0  0  0  0  0
    0.0961   -0.1210    1.5641 N   0  0  0  0  0  0  0  0  0  0  0  0
    1.4580    1.6373    0.3835 C   0  0  1  0  0  0  0  0  0  0  0  0
    0.9343    1.4319   -1.0755 C   0  0  2  0  0  0  0  0  0  0  0  0
    1.7255    1.8491   -1.7443 H   0  0  0  0  0  0  0  0  0  0  0  0
    1.6853   -0.9870   -0.9398 C   0  0  1  0  0  0  0  0  0  0  0  0
    2.5616   -0.9898   -1.6277 H   0  0  0  0  0  0  0  0  0  0  0  0
    2.2677   -0.7047    0.4829 C   0  0  2  0  0  0  0  0  0  0  0  0
    1.2949   -0.9711    1.6389 C   0  0  0  0  0  0  0  0  0  0  0  0
    0.9858   -2.0332    1.6333 H   0  0  0  0  0  0  0  0  0  0  0  0
    1.8543   -0.8039    2.5870 H   0  0  0  0  0  0  0  0  0  0  0  0
    0.4555    1.3042    1.5071 C   0  0  0  0  0  0  0  0  0  0  0  0
    0.9337    1.6183    2.4653 H   0  0  0  0  0  0  0  0  0  0  0  0
   -0.4614    1.9118    1.3903 H   0  0  0  0  0  0  0  0  0  0  0  0
    2.7260    0.7628    0.5229 C   0  0  2  0  0  0  0  0  0  0  0  0
    3.3937    0.9497   -0.3460 H   0  0  0  0  0  0  0  0  0  0  0  0
    1.7963    3.1297    0.5388 C   0  0  0  0  0  0  0  0  0  0  0  0
    3.4515    4.7882    0.1860 C   0  0  0  0  0  0  0  0  0  0  0  0
    4.4898    4.8254   -0.1851 H   0  0  0  0  0  0  0  0  0  0  0  0
    3.3896    5.1614    1.2266 H   0  0  0  0  0  0  0  0  0  0  0  0
    2.7864    5.4044   -0.4496 H   0  0  0  0  0  0  0  0  0  0  0  0
    3.4866   -1.6240    0.6958 C   0  0  0  0  0  0  0  0  0  0  0  0
    5.6713   -2.1213   -0.0526 C   0  0  0  0  0  0  0  0  0  0  0  0
    6.3438   -1.7865   -0.8608 H   0  0  0  0  0  0  0  0  0  0  0  0
    5.4538   -3.2036   -0.1445 H   0  0  0  0  0  0  0  0  0  0  0  0
    6.1283   -1.9371    0.9390 H   0  0  0  0  0  0  0  0  0  0  0  0
   -0.3520    2.2059   -1.3278 C   0  0  2  0  0  3  0  0  0  0  0  0
   -0.3612    3.5023   -1.8586 C   0  0  0  0  0  0  0  0  0  0  0  0
    0.5829    3.9897   -2.1426 H   0  0  0  0  0  0  0  0  0  0  0  0
   -1.5913    4.1540   -2.0251 C   0  0  0  0  0  0  0  0  0  0  0  0
   -1.6295    5.1717   -2.4407 H   0  0  0  0  0  0  0  0  0  0  0  0
   -2.7700    3.4845   -1.6673 C   0  0  0  0  0  0  0  0  0  0  0  0
   -3.7560    3.9530   -1.7934 H   0  0  0  0  0  0  0  0  0  0  0  0
   -2.6745    2.1831   -1.1584 C   0  0  0  0  0  0  0  0  0  0  0  0
   -3.5744    1.6087   -0.8907 H   0  0  0  0  0  0  0  0  0  0  0  0
    1.0374   -2.3680   -0.9895 C   0  0  1  0  0  3  0  0  0  0  0  0
    1.7689   -3.5368   -1.2408 C   0  0  0  0  0  0  0  0  0  0  0  0
    2.8456   -3.4783   -1.4557 H   0  0  0  0  0  0  0  0  0  0  0  0
    1.0971   -4.7684   -1.2272 C   0  0  0  0  0  0  0  0  0  0  0  0
    1.6476   -5.7010   -1.4212 H   0  0  0  0  0  0  0  0  0  0  0  0
   -0.2839   -4.7950   -0.9825 C   0  0  0  0  0  0  0  0  0  0  0  0
   -0.8468   -5.7389   -0.9821 H   0  0  0  0  0  0  0  0  0  0  0  0
   -0.9457   -3.5824   -0.7535 C   0  0  0  0  0  0  0  0  0  0  0  0
   -2.0335   -3.5235   -0.5909 H   0  0  0  0  0  0  0  0  0  0  0  0
    0.4976   -0.1379   -2.8642 C   0  0  0  0  0  0  0  0  0  0  0  0
    0.2187   -1.1810   -3.1004 H   0  0  0  0  0  0  0  0  0  0  0  0
    1.4227    0.1254   -3.4261 H   0  0  0  0  0  0  0  0  0  0  0  0
   -0.3286    0.5133   -3.2030 H   0  0  0  0  0  0  0  0  0  0  0  0
   -0.7838   -0.3869    2.7172 C   0  0  0  0  0  0  0  0  0  0  0  0
   -0.5282    0.2627    3.5856 H   0  0  0  0  0  0  0  0  0  0  0  0
   -0.5953   -1.4302    3.0506 H   0  0  0  0  0  0  0  0  0  0  0  0
   -2.2623   -0.2951    2.3934 C   0  0  2  0  0  3  0  0  0  0  0  0
   -3.2698   -0.0651    3.3430 C   0  0  0  0  0  0  0  0  0  0  0  0
   -3.0099    0.1655    4.3867 H   0  0  0  0  0  0  0  0  0  0  0  0
   -4.6125   -0.1450    2.9314 C   0  0  0  0  0  0  0  0  0  0  0  0
   -5.4180    0.0308    3.6606 H   0  0  0  0  0  0  0  0  0  0  0  0
   -4.9204   -0.4467    1.5957 C   0  0  0  0  0  0  0  0  0  0  0  0
   -5.9483   -0.5291    1.2152 H   0  0  0  0  0  0  0  0  0  0  0  0
   -3.8606   -0.6413    0.6996 C   0  0  0  0  0  0  0  0  0  0  0  0
   -4.0551   -0.9373   -0.8029 C   0  0  0  0  0  0  0  0  0  0  0  0
  2 29  1  0  0  0  0
  2 28  1  0  0  0  0
  4 34  1  0  0  0  0
  4 33  1  0  0  0  0
  6  5  1  0  0  0  0
  7 71  1  0  0  0  0
  8 71  2  0  0  0  0
 11 15  1  0  0  0  0
 11 17  1  0  0  0  0
 12 63  1  0  0  0  0
 13 20  1  0  0  0  0
 13 60  1  0  0  0  0
 14 26  1  0  0  0  0
 14 28  1  1  0  0  0
 14 23  1  0  0  0  0
 15 16  1  6  0  0  0
 15 14  1  0  0  0  0
 17 18  1  6  0  0  0
 17 19  1  0  0  0  0
 19 26  1  0  0  0  0
 19 33  1  1  0  0  0
 19 20  1  0  0  0  0
 20 22  1  0  0  0  0
 21 20  1  0  0  0  0
 23 13  1  0  0  0  0
 23 24  1  0  0  0  0
 25 23  1  0  0  0  0
 26 27  1  6  0  0  0
 26  5  1  0  0  0  0
 28  1  2  0  0  0  0
 29 31  1  0  0  0  0
 30 29  1  0  0  0  0
 32 29  1  0  0  0  0
 33  3  2  0  0  0  0
 34 37  1  0  0  0  0
 35 34  1  0  0  0  0
 36 34  1  0  0  0  0
 38 39  1  1  0  0  0
 38 15  1  0  0  0  0
 38  9  1  0  0  0  0
 40 39  1  0  0  0  0
 41 39  2  0  0  0  0
 41 43  1  0  0  0  0
 42 41  1  0  0  0  0
 43 45  2  0  0  0  0
 44 43  1  0  0  0  0
 45  9  1  0  0  0  0
 45 46  1  0  0  0  0
 47 48  1  1  0  0  0
 47 17  1  0  0  0  0
 47 10  1  0  0  0  0
 48 50  2  0  0  0  0
 49 48  1  0  0  0  0
 50 52  1  0  0  0  0
 51 50  1  0  0  0  0
 52 53  1  0  0  0  0
 52 54  2  0  0  0  0
 54 10  1  0  0  0  0
 54 55  1  0  0  0  0
 56 11  1  0  0  0  0
 57 56  1  0  0  0  0
 58 56  1  0  0  0  0
 59 56  1  0  0  0  0
 60 62  1  0  0  0  0
 60 61  1  0  0  0  0
 63 60  1  1  0  0  0
 63 64  1  0  0  0  0
 64 65  1  0  0  0  0
 66 64  2  0  0  0  0
 66 67  1  0  0  0  0
 68 66  1  0  0  0  0
 69 68  1  0  0  0  0
 70 12  1  0  0  0  0
 70 68  2  0  0  0  0
 71 70  1  0  0  0  0
M  CHG  1   7  -1
M  END
