1,3,6,8,10
 OpenBabel05122313063D

 36 35  0  0  0  0  0  0  0  0999 V2000
    0.6733    0.0468    1.4251 O   0  5  0  0  0  0  0  0  0  0  0  0
    2.8463    0.4457    1.7554 O   0  0  0  0  0  0  0  0  0  0  0  0
   -1.4247    1.5952    1.1676 N   0  0  0  0  0  0  0  0  0  0  0  0
   -2.4264    1.5398    1.4024 H   0  0  0  0  0  0  0  0  0  0  0  0
   -0.8712    1.6001    2.0418 H   0  0  0  0  0  0  0  0  0  0  0  0
    0.2253    1.3286   -0.9666 N   0  0  0  0  0  0  0  0  0  0  0  0
   -0.4097    1.3975   -1.7805 H   0  0  0  0  0  0  0  0  0  0  0  0
   -0.0215   -1.4736   -0.8472 N   0  0  0  0  0  0  0  0  0  0  0  0
   -0.3121   -1.2666   -1.8152 H   0  0  0  0  0  0  0  0  0  0  0  0
   -1.6679   -1.2753    1.3002 N   0  0  0  0  0  0  0  0  0  0  0  0
   -1.6365   -1.0322    2.3013 H   0  0  0  0  0  0  0  0  0  0  0  0
   -2.6561   -1.2974    0.9976 H   0  0  0  0  0  0  0  0  0  0  0  0
   -1.1508    2.8145    0.3676 C   0  0  0  0  0  0  0  0  0  0  0  0
   -1.2003    3.7368    0.9822 H   0  0  0  0  0  0  0  0  0  0  0  0
   -1.9303    2.8748   -0.4182 H   0  0  0  0  0  0  0  0  0  0  0  0
    0.2220    2.6354   -0.2550 C   0  0  0  0  0  0  0  0  0  0  0  0
    0.4687    3.4649   -0.9508 H   0  0  0  0  0  0  0  0  0  0  0  0
    1.0101    2.6038    0.5247 H   0  0  0  0  0  0  0  0  0  0  0  0
    1.5793    0.8708   -1.3950 C   0  0  0  0  0  0  0  0  0  0  0  0
    2.2694    1.7391   -1.4015 H   0  0  0  0  0  0  0  0  0  0  0  0
    1.5165    0.5053   -2.4414 H   0  0  0  0  0  0  0  0  0  0  0  0
    2.1594   -0.2363   -0.4869 C   0  0  0  0  0  0  0  0  0  0  0  0
    1.4595   -1.5839   -0.7668 C   0  0  0  0  0  0  0  0  0  0  0  0
    1.8394   -2.0182   -1.7170 H   0  0  0  0  0  0  0  0  0  0  0  0
    1.7167   -2.2964    0.0414 H   0  0  0  0  0  0  0  0  0  0  0  0
    1.9310    0.1294    1.0137 C   0  0  0  0  0  0  0  0  0  0  0  0
    3.6595   -0.3805   -0.7605 C   0  0  0  0  0  0  0  0  0  0  0  0
    4.1974    0.5216   -0.4157 H   0  0  0  0  0  0  0  0  0  0  0  0
    3.8595   -0.5363   -1.8398 H   0  0  0  0  0  0  0  0  0  0  0  0
    4.0791   -1.2373   -0.1992 H   0  0  0  0  0  0  0  0  0  0  0  0
   -0.7637   -2.6963   -0.4216 C   0  0  0  0  0  0  0  0  0  0  0  0
   -0.2052   -3.6177   -0.6864 H   0  0  0  0  0  0  0  0  0  0  0  0
   -1.7251   -2.7000   -0.9728 H   0  0  0  0  0  0  0  0  0  0  0  0
   -1.0149   -2.5892    1.0718 C   0  0  0  0  0  0  0  0  0  0  0  0
   -1.6326   -3.4333    1.4423 H   0  0  0  0  0  0  0  0  0  0  0  0
   -0.0618   -2.5852    1.6368 H   0  0  0  0  0  0  0  0  0  0  0  0
  3  4  1  0  0  0  0
  3  5  1  0  0  0  0
  6 16  1  0  0  0  0
  7  6  1  0  0  0  0
  8 23  1  0  0  0  0
  8 31  1  0  0  0  0
  9  8  1  0  0  0  0
 10 11  1  0  0  0  0
 12 10  1  0  0  0  0
 13 14  1  0  0  0  0
 13  3  1  0  0  0  0
 15 13  1  0  0  0  0
 16 13  1  0  0  0  0
 16 18  1  0  0  0  0
 17 16  1  0  0  0  0
 19  6  1  0  0  0  0
 19 22  1  0  0  0  0
 20 19  1  0  0  0  0
 21 19  1  0  0  0  0
 22 26  1  0  0  0  0
 23 22  1  0  0  0  0
 23 25  1  0  0  0  0
 24 23  1  0  0  0  0
 26  1  1  0  0  0  0
 26  2  2  0  0  0  0
 27 22  1  0  0  0  0
 27 28  1  0  0  0  0
 27 30  1  0  0  0  0
 29 27  1  0  0  0  0
 31 34  1  0  0  0  0
 32 31  1  0  0  0  0
 33 31  1  0  0  0  0
 34 10  1  0  0  0  0
 34 35  1  0  0  0  0
 34 36  1  0  0  0  0
M  CHG  1   1  -1
M  END
