1,2,3,4,8
 OpenBabel05122313063D

 56 59  0  0  1  0  0  0  0  0999 V2000
   -1.0217   -1.1705    1.3640 N   0  0  0  0  0  0  0  0  0  0  0  0
   -2.9919   -0.3546   -0.4327 N   0  0  0  0  0  2  0  0  0  0  0  0
    0.2581   -1.2736   -1.1242 N   0  0  0  0  0  2  0  0  0  0  0  0
   -0.5167    1.5121    0.8713 N   0  0  0  0  0  2  0  0  0  0  0  0
    3.3519    0.6229   -1.5444 N   0  0  0  0  0  0  0  0  0  0  0  0
    3.7637    0.3028   -2.4180 H   0  0  0  0  0  0  0  0  0  0  0  0
   -0.0782    1.8923    3.1341 O   0  0  0  0  0  0  0  0  0  0  0  0
   -0.9017    1.7291   -1.8062 O   0  5  0  0  0  0  0  0  0  0  0  0
   -0.0403    3.8099   -1.8787 O   0  0  0  0  0  0  0  0  0  0  0  0
   -2.1987   -2.0084    1.1784 C   0  0  0  0  0  0  0  0  0  0  0  0
   -2.5620   -2.4766    2.1250 H   0  0  0  0  0  0  0  0  0  0  0  0
   -1.9206   -2.8482    0.5026 H   0  0  0  0  0  0  0  0  0  0  0  0
   -3.3407   -1.2553    0.5111 C   0  0  2  0  0  3  0  0  0  0  0  0
   -4.6902   -1.4872    0.8180 C   0  0  0  0  0  0  0  0  0  0  0  0
   -4.9564   -2.2141    1.5998 H   0  0  0  0  0  0  0  0  0  0  0  0
   -5.6793   -0.7745    0.1242 C   0  0  0  0  0  0  0  0  0  0  0  0
   -6.7432   -0.9396    0.3524 H   0  0  0  0  0  0  0  0  0  0  0  0
   -5.2969    0.1622   -0.8477 C   0  0  0  0  0  0  0  0  0  0  0  0
   -6.0417    0.7520   -1.4005 H   0  0  0  0  0  0  0  0  0  0  0  0
   -3.9311    0.3495   -1.0914 C   0  0  0  0  0  0  0  0  0  0  0  0
   -3.5460    1.0897   -1.8136 H   0  0  0  0  0  0  0  0  0  0  0  0
    0.2513   -1.8672    1.2478 C   0  0  0  0  0  0  0  0  0  0  0  0
    0.3002   -2.8037    1.8539 H   0  0  0  0  0  0  0  0  0  0  0  0
    1.0438   -1.1967    1.6498 H   0  0  0  0  0  0  0  0  0  0  0  0
    0.6558   -2.1587   -0.1843 C   0  0  2  0  0  3  0  0  0  0  0  0
    1.4915   -3.2349   -0.5236 C   0  0  0  0  0  0  0  0  0  0  0  0
    1.8019   -3.9475    0.2540 H   0  0  0  0  0  0  0  0  0  0  0  0
    1.9412   -3.3596   -1.8436 C   0  0  0  0  0  0  0  0  0  0  0  0
    2.6004   -4.1940   -2.1271 H   0  0  0  0  0  0  0  0  0  0  0  0
    1.5528   -2.4041   -2.7961 C   0  0  0  0  0  0  0  0  0  0  0  0
    1.8948   -2.4617   -3.8393 H   0  0  0  0  0  0  0  0  0  0  0  0
    0.7021   -1.3703   -2.3914 C   0  0  0  0  0  0  0  0  0  0  0  0
    0.3588   -0.5770   -3.0761 H   0  0  0  0  0  0  0  0  0  0  0  0
   -1.0847   -0.2008    2.4755 C   0  0  0  0  0  0  0  0  0  0  0  0
   -0.5994   -0.5928    3.3971 H   0  0  0  0  0  0  0  0  0  0  0  0
   -2.1541   -0.0345    2.7239 H   0  0  0  0  0  0  0  0  0  0  0  0
   -0.4717    1.2087    2.1727 C   0  0  0  0  0  0  0  0  0  0  0  0
   -0.0897    2.7695    0.2972 C   0  0  2  0  0  0  0  0  0  0  0  0
   -0.6523    3.6232    0.7422 H   0  0  0  0  0  0  0  0  0  0  0  0
   -0.3715    2.8019   -1.2551 C   0  0  0  0  0  0  0  0  0  0  0  0
    1.4200    3.0547    0.5137 C   0  0  0  0  0  0  0  0  0  0  0  0
    1.6362    4.0203    0.0165 H   0  0  0  0  0  0  0  0  0  0  0  0
    1.5946    3.1633    1.6018 H   0  0  0  0  0  0  0  0  0  0  0  0
    2.2808    1.9653   -0.0527 C   0  0  0  0  0  0  0  0  0  0  0  0
    2.6169    1.7917   -1.3879 C   0  0  0  0  0  0  0  0  0  0  0  0
    2.3578    2.4263   -2.2436 H   0  0  0  0  0  0  0  0  0  0  0  0
    3.5182    0.0148   -0.3167 C   0  0  0  0  0  0  0  0  0  0  0  0
    4.1904   -1.1663    0.0429 C   0  0  0  0  0  0  0  0  0  0  0  0
    4.7093   -1.7801   -0.7096 H   0  0  0  0  0  0  0  0  0  0  0  0
    4.1754   -1.5379    1.3936 C   0  0  0  0  0  0  0  0  0  0  0  0
    4.6986   -2.4543    1.7075 H   0  0  0  0  0  0  0  0  0  0  0  0
    3.5116   -0.7439    2.3649 C   0  0  0  0  0  0  0  0  0  0  0  0
    3.5246   -1.0623    3.4187 H   0  0  0  0  0  0  0  0  0  0  0  0
    2.8470    0.4365    2.0090 C   0  0  0  0  0  0  0  0  0  0  0  0
    2.3132    1.0379    2.7613 H   0  0  0  0  0  0  0  0  0  0  0  0
    2.8416    0.8349    0.6512 C   0  0  0  0  0  0  0  0  0  0  0  0
  1 34  1  0  0  0  0
  2 13  1  0  0  0  0
  3 25  1  0  0  0  0
  4 37  1  0  0  0  0
  5 45  1  0  0  0  0
  5 47  1  0  0  0  0
  6  5  1  0  0  0  0
  8 40  1  0  0  0  0
  9 40  2  0  0  0  0
 10  1  1  0  0  0  0
 10 11  1  0  0  0  0
 12 10  1  0  0  0  0
 13 14  1  0  0  0  0
 13 10  1  6  0  0  0
 14 15  1  0  0  0  0
 16 17  1  0  0  0  0
 16 14  2  0  0  0  0
 18 16  1  0  0  0  0
 19 18  1  0  0  0  0
 20 18  2  0  0  0  0
 20  2  1  0  0  0  0
 21 20  1  0  0  0  0
 22  1  1  0  0  0  0
 22 24  1  0  0  0  0
 22 23  1  0  0  0  0
 25 22  1  1  0  0  0
 26 25  1  0  0  0  0
 26 27  1  0  0  0  0
 28 26  2  0  0  0  0
 29 28  1  0  0  0  0
 30 32  2  0  0  0  0
 30 28  1  0  0  0  0
 31 30  1  0  0  0  0
 32  3  1  0  0  0  0
 33 32  1  0  0  0  0
 34 36  1  0  0  0  0
 34 35  1  0  0  0  0
 37 34  1  0  0  0  0
 37  7  2  0  0  0  0
 38 41  1  0  0  0  0
 38 39  1  1  0  0  0
 38  4  1  0  0  0  0
 40 38  1  0  0  0  0
 41 43  1  0  0  0  0
 42 41  1  0  0  0  0
 44 41  1  0  0  0  0
 44 56  1  0  0  0  0
 45 44  2  0  0  0  0
 46 45  1  0  0  0  0
 47 48  2  0  0  0  0
 47 56  1  0  0  0  0
 48 50  1  0  0  0  0
 49 48  1  0  0  0  0
 50 51  1  0  0  0  0
 50 52  2  0  0  0  0
 52 53  1  0  0  0  0
 54 52  1  0  0  0  0
 54 55  1  0  0  0  0
 56 54  2  0  0  0  0
M  CHG  1   8  -1
M  END
