3,6,7,8,9
 OpenBabel05122313063D

 47 49  0  0  1  0  0  0  0  0999 V2000
    1.3660    0.3652    2.0748 S   0  0  0  0  0  0  0  0  0  0  0  0
    2.6566   -0.1988    1.5802 O   0  0  0  0  0  1  0  0  0  0  0  0
    0.1627   -0.3152    1.3551 O   0  0  0  0  0  1  0  0  0  0  0  0
    1.1385    0.4400    3.5205 O   0  0  0  0  0  1  0  0  0  0  0  0
    1.3066    1.9629    1.5543 O   0  0  0  0  0  0  0  0  0  0  0  0
    0.8783    1.7698   -0.8073 N   0  0  0  0  0  2  0  0  0  0  0  0
   -1.5139    0.8064   -1.6295 N   0  0  0  0  0  2  0  0  0  0  0  0
   -0.8405   -2.1511   -0.7584 N   0  0  0  0  0  2  0  0  0  0  0  0
    1.7249   -1.3834   -1.0428 N   0  0  0  0  0  2  0  0  0  0  0  0
    1.8254    2.2150    0.1734 C   0  0  1  0  0  0  0  0  0  0  0  0
    2.1225    3.6796    0.0985 C   0  0  0  0  0  0  0  0  0  0  0  0
    1.2322    4.5471   -0.4809 C   0  0  0  0  0  0  0  0  0  0  0  0
    0.0558    4.0435   -1.1150 C   0  0  0  0  0  3  0  0  0  0  0  0
   -0.0650    2.6555   -1.2289 C   0  0  0  0  0  0  0  0  0  0  0  0
   -1.3034    2.0865   -1.7429 C   0  0  0  0  0  0  0  0  0  0  0  0
   -2.8113    0.2152   -1.9116 C   0  0  0  0  0  0  0  0  0  0  0  0
   -3.4260   -0.2428   -0.5979 C   0  0  0  0  0  0  0  0  0  0  0  0
   -4.2406    0.6563    0.1145 C   0  0  0  0  0  0  0  0  0  0  0  0
   -4.7410    0.3365    1.3835 C   0  0  0  0  0  0  0  0  0  0  0  0
   -4.4191   -0.8977    1.9653 C   0  0  0  0  0  0  0  0  0  0  0  0
   -3.6091   -1.8020    1.2660 C   0  0  0  0  0  0  0  0  0  0  0  0
   -3.1111   -1.4956   -0.0133 C   0  0  0  0  0  0  0  0  0  0  0  0
   -2.2485   -2.5174   -0.7274 C   0  0  0  0  0  0  0  0  0  0  0  0
    0.0677   -3.0305   -0.5333 C   0  0  0  0  0  0  0  0  0  0  0  0
    1.4883   -2.6532   -0.6411 C   0  0  0  0  0  0  0  0  0  0  0  0
    2.5306   -3.5485   -0.3602 C   0  0  0  0  0  0  0  0  0  0  0  0
    3.8539   -3.0985   -0.4917 C   0  0  0  0  0  0  0  0  0  0  0  0
    4.0862   -1.7826   -0.9042 C   0  0  0  0  0  0  0  0  0  0  0  0
    2.9830   -0.9498   -1.1593 C   0  0  0  0  0  0  0  0  0  0  0  0
    2.7532    1.6070    0.1213 H   0  0  0  0  0  0  0  0  0  0  0  0
    3.0429    4.0414    0.5807 H   0  0  0  0  0  0  0  0  0  0  0  0
    1.4284    5.6310   -0.4698 H   0  0  0  0  0  0  0  0  0  0  0  0
   -0.7256    4.7080   -1.5090 H   0  0  0  0  0  0  0  0  0  0  0  0
   -2.0741    2.7645   -2.1644 H   0  0  0  0  0  0  0  0  0  0  0  0
   -3.4870    0.9454   -2.4103 H   0  0  0  0  0  0  0  0  0  0  0  0
   -2.6745   -0.6395   -2.6074 H   0  0  0  0  0  0  0  0  0  0  0  0
   -4.4770    1.6336   -0.3355 H   0  0  0  0  0  0  0  0  0  0  0  0
   -5.3737    1.0570    1.9229 H   0  0  0  0  0  0  0  0  0  0  0  0
   -4.7918   -1.1549    2.9678 H   0  0  0  0  0  0  0  0  0  0  0  0
   -3.3503   -2.7700    1.7229 H   0  0  0  0  0  0  0  0  0  0  0  0
   -2.5776   -2.5985   -1.7883 H   0  0  0  0  0  0  0  0  0  0  0  0
   -2.3942   -3.5221   -0.2699 H   0  0  0  0  0  0  0  0  0  0  0  0
   -0.1731   -4.0838   -0.2698 H   0  0  0  0  0  0  0  0  0  0  0  0
    2.3041   -4.5743   -0.0339 H   0  0  0  0  0  0  0  0  0  0  0  0
    4.6943   -3.7712   -0.2652 H   0  0  0  0  0  0  0  0  0  0  0  0
    5.1060   -1.3868   -1.0072 H   0  0  0  0  0  0  0  0  0  0  0  0
    3.1027    0.1006   -1.4682 H   0  0  0  0  0  0  0  0  0  0  0  0
  1  4  1  0  0  0  0
  2  1  1  0  0  0  0
  3  1  1  0  0  0  0
  5  1  1  0  0  0  0
  6 10  1  0  0  0  0
  8 23  1  0  0  0  0
  8 24  1  0  0  0  0
  9 25  1  0  0  0  0
 10 30  1  6  0  0  0
 10  5  1  0  0  0  0
 11 10  1  0  0  0  0
 11 31  1  0  0  0  0
 12 32  1  0  0  0  0
 12 11  2  0  0  0  0
 13 12  1  0  0  0  0
 14 13  1  0  0  0  0
 14  6  1  0  0  0  0
 15  7  1  0  0  0  0
 15 14  2  0  0  0  0
 16  7  1  0  0  0  0
 16 17  1  0  0  0  0
 17 22  2  0  0  0  0
 17 18  1  0  0  0  0
 18 19  2  0  0  0  0
 19 38  1  0  0  0  0
 19 20  1  0  0  0  0
 20 39  1  0  0  0  0
 21 40  1  0  0  0  0
 21 20  2  0  0  0  0
 22 21  1  0  0  0  0
 23 42  1  0  0  0  0
 23 22  1  0  0  0  0
 24 43  1  0  0  0  0
 25 24  2  0  0  0  0
 25 26  1  0  0  0  0
 26 44  1  0  0  0  0
 27 26  2  0  0  0  0
 27 45  1  0  0  0  0
 28 27  1  0  0  0  0
 29  9  1  0  0  0  0
 29 28  2  0  0  0  0
 33 13  1  0  0  0  0
 34 15  1  0  0  0  0
 35 16  1  0  0  0  0
 36 16  1  0  0  0  0
 37 18  1  0  0  0  0
 41 23  1  0  0  0  0
 46 28  1  0  0  0  0
 47 29  1  0  0  0  0
M  END
