1,2,3,5,9
 OpenBabel05122313063D

 59 58  0  0  1  0  0  0  0  0999 V2000
   -1.7331   -0.3614   -0.6320 N   0  0  0  0  0  2  0  0  0  0  0  0
   -0.5709    1.3874    1.2400 N   0  0  0  0  0  2  0  0  0  0  0  0
    1.6278    1.0860    0.2037 N   0  0  0  0  0  2  0  0  0  0  0  0
    2.4953    0.7971   -0.2774 H   0  0  0  0  0  0  0  0  0  0  0  0
    0.5314   -0.7034   -1.7343 N   0  0  0  0  0  2  0  0  0  0  0  0
   -3.7901   -1.1848   -0.0244 O   0  0  0  0  0  0  0  0  0  0  0  0
   -1.9190   -0.5509    2.5653 O   0  0  0  0  0  0  0  0  0  0  0  0
    1.8226   -2.7380    1.6651 O   0  5  0  0  0  0  0  0  0  0  0  0
    0.4251   -1.1916    0.8888 O   0  0  0  0  0  0  0  0  0  0  0  0
    3.3147   -0.9866   -0.5334 O   0  0  0  0  0  0  0  0  0  0  0  0
   -2.7717   -0.5108    0.2298 C   0  0  0  0  0  0  0  0  0  0  0  0
   -2.6880    0.1990    1.6209 C   0  0  1  0  0  0  0  0  0  0  0  0
   -2.1519   -1.9429    2.6286 C   0  0  0  0  0  0  0  0  0  0  0  0
   -1.4735   -2.3352    3.4101 H   0  0  0  0  0  0  0  0  0  0  0  0
   -1.9002   -2.4532    1.6730 H   0  0  0  0  0  0  0  0  0  0  0  0
   -3.2041   -2.1926    2.8979 H   0  0  0  0  0  0  0  0  0  0  0  0
   -4.1140    0.4238    2.1364 C   0  0  0  0  0  0  0  0  0  0  0  0
   -4.0721    0.8163    3.1712 H   0  0  0  0  0  0  0  0  0  0  0  0
   -4.6837   -0.5222    2.1132 H   0  0  0  0  0  0  0  0  0  0  0  0
   -4.6601    1.1436    1.4946 H   0  0  0  0  0  0  0  0  0  0  0  0
   -1.9554    1.5418    1.5233 C   0  0  0  0  0  0  0  0  0  0  0  0
   -2.4615    2.1659    0.7386 H   0  0  0  0  0  0  0  0  0  0  0  0
   -2.0725    2.0817    2.4922 H   0  0  0  0  0  0  0  0  0  0  0  0
    0.3528    2.3883    1.6588 C   0  0  0  0  0  0  0  0  0  0  0  0
    0.1582    2.6957    2.7120 H   0  0  0  0  0  0  0  0  0  0  0  0
    0.3067    3.3173    1.0315 H   0  0  0  0  0  0  0  0  0  0  0  0
    1.7685    1.7895    1.4540 C   0  0  0  0  0  0  0  0  0  0  0  0
    2.0396    0.8006    2.6270 C   0  0  0  0  0  0  0  0  0  0  0  0
    1.1758    0.1200    2.7418 H   0  0  0  0  0  0  0  0  0  0  0  0
    2.2041    1.3810    3.5565 H   0  0  0  0  0  0  0  0  0  0  0  0
    2.9455    0.1964    2.4326 H   0  0  0  0  0  0  0  0  0  0  0  0
    2.8892    2.8366    1.3796 C   0  0  0  0  0  0  0  0  0  0  0  0
    2.7283    3.5199    0.5265 H   0  0  0  0  0  0  0  0  0  0  0  0
    3.8708    2.3366    1.2497 H   0  0  0  0  0  0  0  0  0  0  0  0
    2.9313    3.4162    2.3232 H   0  0  0  0  0  0  0  0  0  0  0  0
   -0.5288   -0.6252   -2.7182 C   0  0  0  0  0  0  0  0  0  0  0  0
   -0.3473   -1.3071   -3.5756 H   0  0  0  0  0  0  0  0  0  0  0  0
   -0.6100    0.4184   -3.0724 H   0  0  0  0  0  0  0  0  0  0  0  0
   -1.8319   -1.0188   -1.9624 C   0  0  0  0  0  0  0  0  0  0  0  0
   -1.8883   -2.5522   -1.8165 C   0  0  0  0  0  0  0  0  0  0  0  0
   -2.7949   -2.8263   -1.2481 H   0  0  0  0  0  0  0  0  0  0  0  0
   -1.0080   -2.9301   -1.2586 H   0  0  0  0  0  0  0  0  0  0  0  0
   -1.9218   -3.0402   -2.8123 H   0  0  0  0  0  0  0  0  0  0  0  0
   -3.0255   -0.4886   -2.7766 C   0  0  0  0  0  0  0  0  0  0  0  0
   -3.9715   -0.7983   -2.2988 H   0  0  0  0  0  0  0  0  0  0  0  0
   -2.9932   -0.8851   -3.8126 H   0  0  0  0  0  0  0  0  0  0  0  0
   -2.9881    0.6181   -2.8163 H   0  0  0  0  0  0  0  0  0  0  0  0
    1.4438   -1.9852    0.7632 C   0  0  0  0  0  0  0  0  0  0  0  0
    2.2784   -2.0012   -0.5906 C   0  0  2  0  0  0  0  0  0  0  0  0
    4.3707   -1.2348    0.3911 C   0  0  0  0  0  0  0  0  0  0  0  0
    4.9133   -0.2760    0.5060 H   0  0  0  0  0  0  0  0  0  0  0  0
    5.0848   -1.9966    0.0090 H   0  0  0  0  0  0  0  0  0  0  0  0
    3.9902   -1.5668    1.3806 H   0  0  0  0  0  0  0  0  0  0  0  0
    2.8648   -3.3958   -0.8122 C   0  0  0  0  0  0  0  0  0  0  0  0
    3.5519   -3.3893   -1.6823 H   0  0  0  0  0  0  0  0  0  0  0  0
    2.0495   -4.1208   -1.0051 H   0  0  0  0  0  0  0  0  0  0  0  0
    3.3905   -3.7414    0.0943 H   0  0  0  0  0  0  0  0  0  0  0  0
    1.3920   -1.6574   -1.7579 C   0  0  0  0  0  3  0  0  0  0  0  0
    1.4150   -2.3280   -2.6421 H   0  0  0  0  0  0  0  0  0  0  0  0
  1 11  1  0  0  0  0
  2 21  1  0  0  0  0
  2 24  1  0  0  0  0
  3 27  1  0  0  0  0
  4  3  1  0  0  0  0
  6 11  2  0  0  0  0
  7 13  1  0  0  0  0
 10 50  1  0  0  0  0
 12 11  1  6  0  0  0
 12 17  1  0  0  0  0
 12  7  1  0  0  0  0
 13 16  1  0  0  0  0
 13 14  1  0  0  0  0
 15 13  1  0  0  0  0
 17 18  1  0  0  0  0
 19 17  1  0  0  0  0
 20 17  1  0  0  0  0
 21 12  1  0  0  0  0
 21 23  1  0  0  0  0
 22 21  1  0  0  0  0
 24 25  1  0  0  0  0
 26 24  1  0  0  0  0
 27 24  1  0  0  0  0
 27 28  1  0  0  0  0
 28 29  1  0  0  0  0
 28 30  1  0  0  0  0
 31 28  1  0  0  0  0
 32 27  1  0  0  0  0
 32 35  1  0  0  0  0
 33 32  1  0  0  0  0
 34 32  1  0  0  0  0
 36 39  1  0  0  0  0
 36  5  1  0  0  0  0
 37 36  1  0  0  0  0
 38 36  1  0  0  0  0
 39 40  1  0  0  0  0
 39  1  1  0  0  0  0
 40 42  1  0  0  0  0
 40 41  1  0  0  0  0
 43 40  1  0  0  0  0
 44 45  1  0  0  0  0
 44 39  1  0  0  0  0
 46 44  1  0  0  0  0
 47 44  1  0  0  0  0
 48  9  2  0  0  0  0
 48  8  1  0  0  0  0
 49 58  1  6  0  0  0
 49 10  1  0  0  0  0
 49 48  1  0  0  0  0
 50 51  1  0  0  0  0
 50 53  1  0  0  0  0
 52 50  1  0  0  0  0
 54 49  1  0  0  0  0
 54 57  1  0  0  0  0
 55 54  1  0  0  0  0
 56 54  1  0  0  0  0
 58  5  1  0  0  0  0
 59 58  1  0  0  0  0
M  CHG  1   8  -1
M  END
