1,2,3,4,5
 OpenBabel05122313063D

 48 49  0  0  1  0  0  0  0  0999 V2000
   -0.8630   -0.3115   -1.0629 O   0  0  0  0  0  1  0  0  0  0  0  0
    0.2114    0.7282    1.3805 N   0  0  0  0  0  0  0  0  0  0  0  0
    1.7622    1.8269   -0.7749 N   0  0  0  0  0  0  0  0  0  0  0  0
    2.8308   -0.7556   -1.3704 N   0  0  0  0  0  0  0  0  0  0  0  0
    1.4336   -1.8293    0.8766 N   0  0  0  0  0  0  0  0  0  0  0  0
    0.5674    2.1586    1.3437 C   0  0  0  0  0  0  0  0  0  0  0  0
    1.8729    2.3987    0.5790 C   0  0  0  0  0  0  0  0  0  0  0  0
    3.0082    1.7054   -1.5482 C   0  0  0  0  0  0  0  0  0  0  0  0
    3.7330    0.4030   -1.1980 C   0  0  0  0  0  0  0  0  0  0  0  0
    3.2904   -1.9998   -0.7120 C   0  0  0  0  0  0  0  0  0  0  0  0
    2.8851   -2.0214    0.7655 C   0  0  0  0  0  0  0  0  0  0  0  0
    0.8942   -1.5202    2.2174 C   0  0  0  0  0  0  0  0  0  0  0  0
    0.8431   -0.0085    2.4859 C   0  0  0  0  0  0  0  0  0  0  0  0
   -1.2457    0.4805    1.2102 C   0  0  0  0  0  0  0  0  0  0  0  0
   -1.6610    0.5297   -0.2945 C   0  0  2  0  0  0  0  0  0  0  0  0
   -3.1400    0.1686   -0.3777 C   0  0  0  0  0  0  0  0  0  0  0  0
   -3.5195   -1.1185   -0.7959 C   0  0  0  0  0  0  0  0  0  0  0  0
   -4.8748   -1.4811   -0.8302 C   0  0  0  0  0  0  0  0  0  0  0  0
   -5.8623   -0.5608   -0.4448 C   0  0  0  0  0  0  0  0  0  0  0  0
   -5.4894    0.7286   -0.0310 C   0  0  0  0  0  0  0  0  0  0  0  0
   -4.1346    1.0908   -0.0004 C   0  0  0  0  0  0  0  0  0  0  0  0
   -0.2527    2.6969    0.8259 H   0  0  0  0  0  0  0  0  0  0  0  0
    0.6359    2.5967    2.3646 H   0  0  0  0  0  0  0  0  0  0  0  0
    2.7207    1.9007    1.0961 H   0  0  0  0  0  0  0  0  0  0  0  0
    2.1089    3.4864    0.5607 H   0  0  0  0  0  0  0  0  0  0  0  0
    1.0607    2.3525   -1.3129 H   0  0  0  0  0  0  0  0  0  0  0  0
    2.7397    1.7014   -2.6248 H   0  0  0  0  0  0  0  0  0  0  0  0
    3.6936    2.5677   -1.3925 H   0  0  0  0  0  0  0  0  0  0  0  0
    4.0574    0.4254   -0.1367 H   0  0  0  0  0  0  0  0  0  0  0  0
    4.6570    0.3040   -1.8083 H   0  0  0  0  0  0  0  0  0  0  0  0
    2.6986   -0.9318   -2.3757 H   0  0  0  0  0  0  0  0  0  0  0  0
    2.8120   -2.8531   -1.2358 H   0  0  0  0  0  0  0  0  0  0  0  0
    4.3892   -2.1374   -0.8087 H   0  0  0  0  0  0  0  0  0  0  0  0
    3.3865   -1.1978    1.3169 H   0  0  0  0  0  0  0  0  0  0  0  0
    3.2340   -2.9691    1.2330 H   0  0  0  0  0  0  0  0  0  0  0  0
    0.9441   -2.6510    0.4982 H   0  0  0  0  0  0  0  0  0  0  0  0
   -0.1285   -1.9410    2.2643 H   0  0  0  0  0  0  0  0  0  0  0  0
    1.4768   -2.0179    3.0230 H   0  0  0  0  0  0  0  0  0  0  0  0
    1.8760    0.3824    2.6075 H   0  0  0  0  0  0  0  0  0  0  0  0
    0.3247    0.1669    3.4576 H   0  0  0  0  0  0  0  0  0  0  0  0
   -1.4714   -0.5434    1.5657 H   0  0  0  0  0  0  0  0  0  0  0  0
   -1.8434    1.1845    1.8313 H   0  0  0  0  0  0  0  0  0  0  0  0
   -1.5780    1.6086   -0.6217 H   0  0  0  0  0  0  0  0  0  0  0  0
   -2.7283   -1.8140   -1.1113 H   0  0  0  0  0  0  0  0  0  0  0  0
   -5.1645   -2.4882   -1.1675 H   0  0  0  0  0  0  0  0  0  0  0  0
   -6.9252   -0.8439   -0.4758 H   0  0  0  0  0  0  0  0  0  0  0  0
   -6.2596    1.4588    0.2604 H   0  0  0  0  0  0  0  0  0  0  0  0
   -3.8490    2.1107    0.3081 H   0  0  0  0  0  0  0  0  0  0  0  0
  1 15  1  0  0  0  0
  2 13  1  0  0  0  0
  3  7  1  0  0  0  0
  4  9  1  0  0  0  0
  4 10  1  0  0  0  0
  5 12  1  0  0  0  0
  6  2  1  0  0  0  0
  6 23  1  0  0  0  0
  7 24  1  0  0  0  0
  7  6  1  0  0  0  0
  8 28  1  0  0  0  0
  8  9  1  0  0  0  0
  8  3  1  0  0  0  0
  9 29  1  0  0  0  0
 10 11  1  0  0  0  0
 11  5  1  0  0  0  0
 11 35  1  0  0  0  0
 11 34  1  0  0  0  0
 12 37  1  0  0  0  0
 12 13  1  0  0  0  0
 12 38  1  0  0  0  0
 13 39  1  0  0  0  0
 13 40  1  0  0  0  0
 14  2  1  0  0  0  0
 14 41  1  0  0  0  0
 14 42  1  0  0  0  0
 15 43  1  6  0  0  0
 15 14  1  0  0  0  0
 16 15  1  0  0  0  0
 16 21  1  0  0  0  0
 17 16  2  0  0  0  0
 18 17  1  0  0  0  0
 18 19  2  0  0  0  0
 19 20  1  0  0  0  0
 20 21  2  0  0  0  0
 20 47  1  0  0  0  0
 21 48  1  0  0  0  0
 22  6  1  0  0  0  0
 25  7  1  0  0  0  0
 26  3  1  0  0  0  0
 27  8  1  0  0  0  0
 30  9  1  0  0  0  0
 31  4  1  0  0  0  0
 32 10  1  0  0  0  0
 33 10  1  0  0  0  0
 36  5  1  0  0  0  0
 44 17  1  0  0  0  0
 45 18  1  0  0  0  0
 46 19  1  0  0  0  0
M  END
