1,2,3,4,13
q = -1.0, confidence = 0.024

 33 32  0  0  0  0  0  0  0  0999 V2000
   -0.0810    1.8751    1.3149 N   0  0  0  0  0  0  0  0  0  0  0  0
    0.9620    0.9784   -1.0229 N   0  0  0  0  0  0  0  0  0  0  0  0
   -0.7406   -1.2790   -0.9439 N   0  0  0  0  0  0  0  0  0  0  0  0
   -1.7977   -0.4381    1.4090 N   0  0  0  0  0  0  0  0  0  0  0  0
    0.7152    2.8381    0.5146 C   0  0  0  0  0  0  0  0  0  0  0  0
    1.7182    2.0258   -0.2842 C   0  0  0  0  0  0  0  0  0  0  0  0
    1.8246   -0.0828   -1.6294 C   0  0  0  0  0  0  0  0  0  0  0  0
    1.7589   -1.3885   -0.8227 C   0  0  0  0  0  0  0  0  0  0  0  0
    0.4552   -2.1577   -1.0742 C   0  0  0  0  0  0  0  0  0  0  0  0
   -1.9721   -1.9613   -0.4493 C   0  0  0  0  0  0  0  0  0  0  0  0
   -1.9730   -1.8724    1.0662 C   0  0  0  0  0  0  0  0  0  0  0  0
    1.9373   -1.1233    0.6916 C   0  0  0  0  0  0  0  0  0  0  0  0
    0.8837   -0.5601    1.2718 O   0  5  0  0  0  0  0  0  0  0  0  0
    2.9531   -1.4204    1.2950 O   0  0  0  0  0  0  0  0  0  0  0  0
    0.4753    1.5104    2.1077 H   0  0  0  0  0  0  0  0  0  0  0  0
   -0.9305    2.3301    1.6793 H   0  0  0  0  0  0  0  0  0  0  0  0
    0.3870    1.4400   -1.7486 H   0  0  0  0  0  0  0  0  0  0  0  0
   -0.9752   -0.8571   -1.8559 H   0  0  0  0  0  0  0  0  0  0  0  0
   -1.5395   -0.3400    2.4021 H   0  0  0  0  0  0  0  0  0  0  0  0
   -2.6704    0.0902    1.2415 H   0  0  0  0  0  0  0  0  0  0  0  0
    1.2205    3.5925    1.1522 H   0  0  0  0  0  0  0  0  0  0  0  0
    0.0122    3.3644   -0.1617 H   0  0  0  0  0  0  0  0  0  0  0  0
    2.2983    2.6633   -0.9842 H   0  0  0  0  0  0  0  0  0  0  0  0
    2.4406    1.5183    0.3872 H   0  0  0  0  0  0  0  0  0  0  0  0
    1.4970   -0.2524   -2.6760 H   0  0  0  0  0  0  0  0  0  0  0  0
    2.8700    0.2831   -1.6748 H   0  0  0  0  0  0  0  0  0  0  0  0
    2.6074   -2.0307   -1.1290 H   0  0  0  0  0  0  0  0  0  0  0  0
    0.4576   -2.6187   -2.0854 H   0  0  0  0  0  0  0  0  0  0  0  0
    0.3690   -2.9829   -0.3406 H   0  0  0  0  0  0  0  0  0  0  0  0
   -2.8382   -1.4099   -0.8664 H   0  0  0  0  0  0  0  0  0  0  0  0
   -2.0214   -3.0106   -0.8064 H   0  0  0  0  0  0  0  0  0  0  0  0
   -1.1126   -2.4209    1.4981 H   0  0  0  0  0  0  0  0  0  0  0  0
   -2.9038   -2.2943    1.4985 H   0  0  0  0  0  0  0  0  0  0  0  0
  1 16  1  0  0  0  0
  1 15  1  0  0  0  0
  2  6  1  0  0  0  0
  3 10  1  0  0  0  0
  4 19  1  0  0  0  0
  5 21  1  0  0  0  0
  5  1  1  0  0  0  0
  6 24  1  0  0  0  0
  6  5  1  0  0  0  0
  7  2  1  0  0  0  0
  7  8  1  0  0  0  0
  8 12  1  0  0  0  0
  9  3  1  0  0  0  0
  9  8  1  0  0  0  0
  9 29  1  0  0  0  0
 10 11  1  0  0  0  0
 11  4  1  0  0  0  0
 11 32  1  0  0  0  0
 11 33  1  0  0  0  0
 12 13  1  0  0  0  0
 12 14  2  0  0  0  0
 17  2  1  0  0  0  0
 18  3  1  0  0  0  0
 20  4  1  0  0  0  0
 22  5  1  0  0  0  0
 23  6  1  0  0  0  0
 25  7  1  0  0  0  0
 26  7  1  0  0  0  0
 27  8  1  0  0  0  0
 28  9  1  0  0  0  0
 30 10  1  0  0  0  0
 31 10  1  0  0  0  0
M  CHG  1  13  -1
M  END
