1,21,22,32
q = -1.0, confidence = 0.014

 53 53  0  0  0  0  0  0  0  0999 V2000
    0.0263   -0.5136   -1.8004 O   0  0  0  0  0  1  0  0  0  0  0  0
   -3.3894    0.4257   -0.5301 C   0  0  0  0  0  0  0  0  0  0  0  0
   -3.7966    0.5821    0.4895 H   0  0  0  0  0  0  0  0  0  0  0  0
   -4.2614    0.5238   -1.2081 H   0  0  0  0  0  0  0  0  0  0  0  0
    0.9747   -1.8536   -0.1806 N   0  0  0  0  0  0  0  0  0  0  0  0
   -2.8251   -0.9619   -0.7203 C   0  0  0  0  0  0  0  0  0  0  0  0
   -2.3820   -1.0347   -1.7325 H   0  0  0  0  0  0  0  0  0  0  0  0
   -3.6280   -1.7283   -0.6307 H   0  0  0  0  0  0  0  0  0  0  0  0
   -2.3948    1.4944   -0.9317 C   0  0  0  0  0  0  0  0  0  0  0  0
   -2.0016    1.2628   -1.9416 H   0  0  0  0  0  0  0  0  0  0  0  0
   -2.9114    2.4784   -0.9946 H   0  0  0  0  0  0  0  0  0  0  0  0
    0.8870   -1.5718   -1.6807 C   0  0  0  0  0  0  0  0  0  0  0  0
    1.9338   -1.3760   -2.0283 H   0  0  0  0  0  0  0  0  0  0  0  0
    0.5548   -2.5028   -2.2123 H   0  0  0  0  0  0  0  0  0  0  0  0
    0.0948   -2.9585    0.2573 C   0  0  0  0  0  0  0  0  0  0  0  0
    0.4633   -3.9292   -0.1441 H   0  0  0  0  0  0  0  0  0  0  0  0
    0.1562   -3.0236    1.3634 H   0  0  0  0  0  0  0  0  0  0  0  0
   -1.3107   -2.6987   -0.1973 C   0  0  0  0  0  0  0  0  0  0  0  0
   -1.3676   -2.7450   -1.2997 H   0  0  0  0  0  0  0  0  0  0  0  0
   -2.0102   -3.4649    0.2004 H   0  0  0  0  0  0  0  0  0  0  0  0
   -1.7376   -1.3360    0.2268 N   0  0  0  0  0  0  0  0  0  0  0  0
   -1.2072    1.6759   -0.0426 N   0  0  0  0  0  0  0  0  0  0  0  0
   -0.4200    2.7336   -0.7345 C   0  0  0  0  0  0  0  0  0  0  0  0
   -0.1112    2.2937   -1.7012 H   0  0  0  0  0  0  0  0  0  0  0  0
   -1.1086    3.5730   -0.9828 H   0  0  0  0  0  0  0  0  0  0  0  0
    0.7623    3.2950    0.0367 C   0  0  0  0  0  0  0  0  0  0  0  0
    0.4204    4.0254    0.7974 H   0  0  0  0  0  0  0  0  0  0  0  0
    1.3662    3.8832   -0.6843 H   0  0  0  0  0  0  0  0  0  0  0  0
    1.6173    2.2624    0.7526 C   0  0  0  0  0  0  0  0  0  0  0  0
    2.6075    2.7147    0.9841 H   0  0  0  0  0  0  0  0  0  0  0  0
    1.1667    1.9350    1.7090 H   0  0  0  0  0  0  0  0  0  0  0  0
    1.8452    0.9995   -0.0082 N   0  0  0  0  0  0  0  0  0  0  0  0
    2.3698    1.3055   -1.3607 C   0  0  0  0  0  0  0  0  0  0  0  0
    1.6154    1.8134   -1.9774 H   0  0  0  0  0  0  0  0  0  0  0  0
    2.6501    0.3841   -1.8931 H   0  0  0  0  0  0  0  0  0  0  0  0
    3.2708    1.9515   -1.2744 H   0  0  0  0  0  0  0  0  0  0  0  0
    2.8926    0.2790    0.7775 C   0  0  0  0  0  0  0  0  0  0  0  0
    3.7671    0.9612    0.8675 H   0  0  0  0  0  0  0  0  0  0  0  0
    2.4621    0.1394    1.7885 H   0  0  0  0  0  0  0  0  0  0  0  0
   -1.6542    2.1755    1.2795 C   0  0  0  0  0  0  0  0  0  0  0  0
   -2.0842    3.1950    1.1710 H   0  0  0  0  0  0  0  0  0  0  0  0
   -0.8216    2.1722    1.9991 H   0  0  0  0  0  0  0  0  0  0  0  0
   -2.4324    1.5135    1.6920 H   0  0  0  0  0  0  0  0  0  0  0  0
   -2.2550   -1.4031    1.6163 C   0  0  0  0  0  0  0  0  0  0  0  0
   -2.3251   -0.3989    2.0600 H   0  0  0  0  0  0  0  0  0  0  0  0
   -1.5592   -1.9777    2.2513 H   0  0  0  0  0  0  0  0  0  0  0  0
   -3.2443   -1.9103    1.6242 H   0  0  0  0  0  0  0  0  0  0  0  0
    2.3255   -2.1470    0.3508 C   0  0  0  0  0  0  0  0  0  0  0  0
    2.1932   -2.3705    1.4298 H   0  0  0  0  0  0  0  0  0  0  0  0
    2.6896   -3.0862   -0.1247 H   0  0  0  0  0  0  0  0  0  0  0  0
    3.3548   -1.0459    0.2034 C   0  0  0  0  0  0  0  0  0  0  0  0
    3.7020   -0.9433   -0.8437 H   0  0  0  0  0  0  0  0  0  0  0  0
    4.2525   -1.3630    0.7719 H   0  0  0  0  0  0  0  0  0  0  0  0
  1 12  1  0  0  0  0
  2  3  1  0  0  0  0
  4  2  1  0  0  0  0
  5 15  1  0  0  0  0
  5 48  1  0  0  0  0
  6  8  1  0  0  0  0
  6  2  1  0  0  0  0
  6 21  1  0  0  0  0
  7  6  1  0  0  0  0
  9  2  1  0  0  0  0
  9 22  1  0  0  0  0
 10  9  1  0  0  0  0
 11  9  1  0  0  0  0
 12  5  1  0  0  0  0
 13 12  1  0  0  0  0
 14 12  1  0  0  0  0
 15 17  1  0  0  0  0
 16 15  1  0  0  0  0
 18 20  1  0  0  0  0
 18 21  1  0  0  0  0
 18 15  1  0  0  0  0
 19 18  1  0  0  0  0
 21 44  1  0  0  0  0
 22 40  1  0  0  0  0
 23 22  1  0  0  0  0
 23 26  1  0  0  0  0
 24 23  1  0  0  0  0
 25 23  1  0  0  0  0
 26 29  1  0  0  0  0
 26 27  1  0  0  0  0
 28 26  1  0  0  0  0
 29 30  1  0  0  0  0
 29 31  1  0  0  0  0
 32 29  1  0  0  0  0
 32 37  1  0  0  0  0
 33 36  1  0  0  0  0
 33 32  1  0  0  0  0
 34 33  1  0  0  0  0
 35 33  1  0  0  0  0
 37 38  1  0  0  0  0
 37 39  1  0  0  0  0
 40 43  1  0  0  0  0
 40 42  1  0  0  0  0
 41 40  1  0  0  0  0
 44 47  1  0  0  0  0
 44 45  1  0  0  0  0
 44 46  1  0  0  0  0
 48 49  1  0  0  0  0
 50 48  1  0  0  0  0
 51 48  1  0  0  0  0
 51 53  1  0  0  0  0
 51 37  1  0  0  0  0
 52 51  1  0  0  0  0
M  END
