1
q = 0.0, confidence = 0.982

  6  5  0  0  0  0  0  0  0  0999 V2000
   -0.3175   -1.1324   -1.7836 N   0  0  0  0  0  1  0  0  0  0  0  0
   -0.4529   -1.7189   -2.7968 C   0  0  0  0  0  2  0  0  0  0  0  0
   -0.6416   -2.4572   -4.0329 C   0  0  0  0  0  0  0  0  0  0  0  0
   -0.8208   -3.5322   -3.8231 H   0  0  0  0  0  0  0  0  0  0  0  0
    0.2548   -2.3789   -4.6821 H   0  0  0  0  0  0  0  0  0  0  0  0
   -1.5118   -2.0648   -4.5995 H   0  0  0  0  0  0  0  0  0  0  0  0
  2  1  1  0  0  0  0
  3  4  1  0  0  0  0
  3  2  1  0  0  0  0
  5  3  1  0  0  0  0
  6  3  1  0  0  0  0
M  END
