1
q = -1.0, confidence = 0.008

 17 17  0  0  0  0  0  0  0  0999 V2000
    0.1776    1.3279   -0.0775 N   0  0  0  0  0  1  0  0  0  0  0  0
    0.5277    2.5517   -0.0192 C   0  0  0  0  0  3  0  0  0  0  0  0
    0.7404    3.2474    1.3160 C   0  0  0  0  0  0  0  0  0  0  0  0
    2.0664    4.0246    1.3268 C   0  0  0  0  0  0  0  0  0  0  0  0
    2.1845    4.9545    0.1134 C   0  0  0  0  0  0  0  0  0  0  0  0
    2.0537    4.1761   -1.2012 C   0  0  0  0  0  0  0  0  0  0  0  0
    0.7362    3.3848   -1.2727 C   0  0  0  0  0  0  0  0  0  0  0  0
    0.6753    2.5052    2.1343 H   0  0  0  0  0  0  0  0  0  0  0  0
   -0.0997    3.9659    1.4604 H   0  0  0  0  0  0  0  0  0  0  0  0
    2.1474    4.5999    2.2725 H   0  0  0  0  0  0  0  0  0  0  0  0
    2.9137    3.3046    1.3255 H   0  0  0  0  0  0  0  0  0  0  0  0
    3.1496    5.5016    0.1395 H   0  0  0  0  0  0  0  0  0  0  0  0
    1.3853    5.7285    0.1646 H   0  0  0  0  0  0  0  0  0  0  0  0
    2.1166    4.8619   -2.0716 H   0  0  0  0  0  0  0  0  0  0  0  0
    2.9079    3.4705   -1.2964 H   0  0  0  0  0  0  0  0  0  0  0  0
   -0.1174    4.0976   -1.3512 H   0  0  0  0  0  0  0  0  0  0  0  0
    0.7001    2.7337   -2.1664 H   0  0  0  0  0  0  0  0  0  0  0  0
  1  2  1  0  0  0  0
  2  3  1  0  0  0  0
  3  4  1  0  0  0  0
  3  9  1  0  0  0  0
  3  8  1  0  0  0  0
  4 10  1  0  0  0  0
  5 12  1  0  0  0  0
  5 13  1  0  0  0  0
  5  4  1  0  0  0  0
  6  5  1  0  0  0  0
  7  6  1  0  0  0  0
  7  2  1  0  0  0  0
 11  4  1  0  0  0  0
 14  6  1  0  0  0  0
 15  6  1  0  0  0  0
 16  7  1  0  0  0  0
 17  7  1  0  0  0  0
M  END
