3
q = 0.0, confidence = 0.6

 29 29  0  0  1  0  0  0  0  0999 V2000
   -0.0892    2.2005   -0.0780 S   0  0  0  0  0  1  0  0  0  0  0  0
   -3.0212    0.9350    0.0192 P   0  0  0  0  0  2  0  0  0  0  0  0
   -0.8166   -0.7456    0.0070 N   0  0  0  0  0  1  0  0  0  0  0  0
   -1.8321    2.2034   -0.0150 C   0  0  2  0  0  3  0  0  0  0  0  0
   -2.4059    3.6571   -0.0125 C   0  0  0  0  0  0  0  0  0  0  0  0
   -3.9468    3.7016    0.0295 C   0  0  0  0  0  0  0  0  0  0  0  0
   -1.8779    4.4105    1.2302 C   0  0  0  0  0  0  0  0  0  0  0  0
   -1.9462    4.3836   -1.2980 C   0  0  0  0  0  0  0  0  0  0  0  0
   -2.0932   -0.6891    0.0026 C   0  0  1  0  0  3  0  0  0  0  0  0
   -2.9373   -1.9304   -0.0123 C   0  0  0  0  0  0  0  0  0  0  0  0
   -2.3069   -3.1941    0.0470 C   0  0  0  0  0  0  0  0  0  0  0  0
   -3.0584   -4.3736    0.0300 C   0  0  0  0  0  0  0  0  0  0  0  0
   -4.4614   -4.3150   -0.0473 C   0  0  0  0  0  0  0  0  0  0  0  0
   -5.1006   -3.0670   -0.1070 C   0  0  0  0  0  0  0  0  0  0  0  0
   -4.3467   -1.8844   -0.0891 C   0  0  0  0  0  0  0  0  0  0  0  0
   -4.3487    3.2132    0.9393 H   0  0  0  0  0  0  0  0  0  0  0  0
   -4.2780    4.7607    0.0319 H   0  0  0  0  0  0  0  0  0  0  0  0
   -4.3979    3.2018   -0.8505 H   0  0  0  0  0  0  0  0  0  0  0  0
   -0.7718    4.4545    1.2293 H   0  0  0  0  0  0  0  0  0  0  0  0
   -2.2736    5.4470    1.2407 H   0  0  0  0  0  0  0  0  0  0  0  0
   -2.2052    3.9053    2.1614 H   0  0  0  0  0  0  0  0  0  0  0  0
   -2.3145    3.8514   -2.1989 H   0  0  0  0  0  0  0  0  0  0  0  0
   -2.3520    5.4162   -1.3154 H   0  0  0  0  0  0  0  0  0  0  0  0
   -0.8419    4.4360   -1.3537 H   0  0  0  0  0  0  0  0  0  0  0  0
   -1.2092   -3.2201    0.1045 H   0  0  0  0  0  0  0  0  0  0  0  0
   -2.5493   -5.3487    0.0774 H   0  0  0  0  0  0  0  0  0  0  0  0
   -5.0545   -5.2422   -0.0612 H   0  0  0  0  0  0  0  0  0  0  0  0
   -6.1981   -3.0117   -0.1686 H   0  0  0  0  0  0  0  0  0  0  0  0
   -4.8543   -0.9091   -0.1373 H   0  0  0  0  0  0  0  0  0  0  0  0
  4  1  1  6  0  0  0
  4  5  1  0  0  0  0
  4  2  1  0  0  0  0
  5  6  1  0  0  0  0
  5  7  1  0  0  0  0
  6 17  1  0  0  0  0
  6 16  1  0  0  0  0
  7 20  1  0  0  0  0
  7 21  1  0  0  0  0
  8  5  1  0  0  0  0
  9  3  1  1  0  0  0
  9  2  1  0  0  0  0
 10  9  1  0  0  0  0
 10 11  1  0  0  0  0
 11 25  1  0  0  0  0
 12 11  2  0  0  0  0
 12 26  1  0  0  0  0
 13 12  1  0  0  0  0
 14 15  1  0  0  0  0
 14 13  2  0  0  0  0
 15 10  2  0  0  0  0
 18  6  1  0  0  0  0
 19  7  1  0  0  0  0
 22  8  1  0  0  0  0
 23  8  1  0  0  0  0
 24  8  1  0  0  0  0
 27 13  1  0  0  0  0
 28 14  1  0  0  0  0
 29 15  1  0  0  0  0
M  END
