1
q = 0.0, confidence = 0.984

 15 14  0  0  0  0  0  0  0  0999 V2000
    1.9308    0.0005    0.0008 N   0  0  0  0  0  1  0  0  0  0  0  0
    3.0971    0.0003   -0.0002 C   0  0  0  0  0  2  0  0  0  0  0  0
    4.5665   -0.0002   -0.0020 C   0  0  0  0  0  0  0  0  0  0  0  0
    5.0479   -1.2733   -0.7365 C   0  0  0  0  0  0  0  0  0  0  0  0
    4.6795   -2.1887   -0.2342 H   0  0  0  0  0  0  0  0  0  0  0  0
    6.1561   -1.2925   -0.7370 H   0  0  0  0  0  0  0  0  0  0  0  0
    4.6964   -1.2869   -1.7865 H   0  0  0  0  0  0  0  0  0  0  0  0
    5.0533   -0.0011    1.4664 C   0  0  0  0  0  0  0  0  0  0  0  0
    4.6975    0.8973    2.0069 H   0  0  0  0  0  0  0  0  0  0  0  0
    6.1617   -0.0016    1.4785 H   0  0  0  0  0  0  0  0  0  0  0  0
    4.6968   -0.8999    2.0060 H   0  0  0  0  0  0  0  0  0  0  0  0
    5.0489    1.2732   -0.7353 C   0  0  0  0  0  0  0  0  0  0  0  0
    4.6974    1.2881   -1.7852 H   0  0  0  0  0  0  0  0  0  0  0  0
    6.1572    1.2914   -0.7359 H   0  0  0  0  0  0  0  0  0  0  0  0
    4.6814    2.1884   -0.2320 H   0  0  0  0  0  0  0  0  0  0  0  0
  2  1  1  0  0  0  0
  3  2  1  0  0  0  0
  3  8  1  0  0  0  0
  4  5  1  0  0  0  0
  4  3  1  0  0  0  0
  6  4  1  0  0  0  0
  7  4  1  0  0  0  0
  8 10  1  0  0  0  0
  8 11  1  0  0  0  0
  8  9  1  0  0  0  0
 12 15  1  0  0  0  0
 12  3  1  0  0  0  0
 13 12  1  0  0  0  0
 14 12  1  0  0  0  0
M  END
