1
q = -1.0, confidence = 0.01

  5  4  0  0  0  0  0  0  0  0999 V2000
    1.0035   -1.6353   -0.9204 N   0  0  0  0  0  0  0  0  0  0  0  0
    3.3500   -1.9936   -1.6046 N   0  0  0  0  0  0  0  0  0  0  0  0
    5.4427   -2.6331   -0.4001 N   0  0  0  0  0  0  0  0  0  0  0  0
    2.1575   -1.8241   -1.1857 C   0  0  0  0  0  0  0  0  0  0  0  0
    4.4195   -2.3645   -0.9332 C   0  0  0  0  0  0  0  0  0  0  0  0
  2  4  1  0  0  0  0
  2  5  1  0  0  0  0
  4  1  1  0  0  0  0
  5  3  3  0  0  0  0
M  END
