1
q = 0.0, confidence = 0.996

 13 13  0  0  0  0  0  0  0  0999 V2000
    1.7727    0.4878   -0.5042 N   0  0  0  0  0  1  0  0  0  0  0  0
    2.9305    0.6332   -0.3682 C   0  0  0  0  0  2  0  0  0  0  0  0
    4.3369    0.7373   -0.1699 C   0  0  0  0  0  0  0  0  0  0  0  0
    5.0832   -0.4335    0.1199 C   0  0  0  0  0  0  0  0  0  0  0  0
    4.5629   -1.3991    0.1903 H   0  0  0  0  0  0  0  0  0  0  0  0
    6.4648   -0.3380    0.3154 C   0  0  0  0  0  0  0  0  0  0  0  0
    7.0445   -1.2453    0.5412 H   0  0  0  0  0  0  0  0  0  0  0  0
    7.1102    0.9073    0.2265 C   0  0  0  0  0  0  0  0  0  0  0  0
    8.1974    0.9742    0.3821 H   0  0  0  0  0  0  0  0  0  0  0  0
    6.3708    2.0677   -0.0591 C   0  0  0  0  0  0  0  0  0  0  0  0
    6.8772    3.0419   -0.1266 H   0  0  0  0  0  0  0  0  0  0  0  0
    4.9883    1.9924   -0.2583 C   0  0  0  0  0  0  0  0  0  0  0  0
    4.3997    2.8939   -0.4806 H   0  0  0  0  0  0  0  0  0  0  0  0
  1  2  1  0  0  0  0
  2  3  1  0  0  0  0
  3  4  1  0  0  0  0
  4  5  1  0  0  0  0
  4  6  2  0  0  0  0
  6  7  1  0  0  0  0
  8  6  1  0  0  0  0
  8  9  1  0  0  0  0
 10  8  2  0  0  0  0
 11 10  1  0  0  0  0
 12  3  2  0  0  0  0
 12 10  1  0  0  0  0
 13 12  1  0  0  0  0
M  END
