2
q = -1.0, confidence = 0.004

 35 37  0  0  0  0  0  0  0  0999 V2000
    0.6582   -1.1848   -0.0384 P   0  0  0  0  0  4  0  0  0  0  0  0
   -0.1665    0.1688    0.1472 N   0  0  0  0  0  1  0  0  0  0  0  0
   -0.1846   -2.4152   -1.1109 C   0  0  0  0  0  0  0  0  0  0  0  0
   -1.5655   -2.2570   -1.3264 C   0  0  0  0  0  0  0  0  0  0  0  0
   -2.2681   -3.1843   -2.1094 C   0  0  0  0  0  0  0  0  0  0  0  0
   -1.5920   -4.2729   -2.6827 C   0  0  0  0  0  0  0  0  0  0  0  0
   -0.2109   -4.4299   -2.4766 C   0  0  0  0  0  0  0  0  0  0  0  0
    0.4952   -3.5039   -1.6944 C   0  0  0  0  0  0  0  0  0  0  0  0
    2.3188   -0.9899   -0.7882 C   0  0  0  0  0  0  0  0  0  0  0  0
    2.4166   -0.8083   -2.1846 C   0  0  0  0  0  0  0  0  0  0  0  0
    3.6560   -0.5166   -2.7703 C   0  0  0  0  0  0  0  0  0  0  0  0
    4.8039   -0.4034   -1.9682 C   0  0  0  0  0  0  0  0  0  0  0  0
    4.7108   -0.5869   -0.5800 C   0  0  0  0  0  0  0  0  0  0  0  0
    3.4726   -0.8787    0.0118 C   0  0  0  0  0  0  0  0  0  0  0  0
    0.9180   -1.9988    1.5836 C   0  0  0  0  0  0  0  0  0  0  0  0
    0.3895   -1.3616    2.7215 C   0  0  0  0  0  0  0  0  0  0  0  0
    0.5503   -1.9465    3.9866 C   0  0  0  0  0  0  0  0  0  0  0  0
    1.2364   -3.1638    4.1165 C   0  0  0  0  0  0  0  0  0  0  0  0
    1.7634   -3.8012    2.9800 C   0  0  0  0  0  0  0  0  0  0  0  0
    1.6046   -3.2224    1.7131 C   0  0  0  0  0  0  0  0  0  0  0  0
   -2.0761   -1.3935   -0.8786 H   0  0  0  0  0  0  0  0  0  0  0  0
   -3.3485   -3.0499   -2.2716 H   0  0  0  0  0  0  0  0  0  0  0  0
   -2.1413   -5.0008   -3.2992 H   0  0  0  0  0  0  0  0  0  0  0  0
    0.3223   -5.2769   -2.9345 H   0  0  0  0  0  0  0  0  0  0  0  0
    1.5813   -3.6193   -1.5570 H   0  0  0  0  0  0  0  0  0  0  0  0
    1.5180   -0.8991   -2.8141 H   0  0  0  0  0  0  0  0  0  0  0  0
    3.7261   -0.3739   -3.8592 H   0  0  0  0  0  0  0  0  0  0  0  0
    5.7755   -0.1695   -2.4289 H   0  0  0  0  0  0  0  0  0  0  0  0
    5.6080   -0.4971    0.0507 H   0  0  0  0  0  0  0  0  0  0  0  0
    3.4012   -1.0124    1.1010 H   0  0  0  0  0  0  0  0  0  0  0  0
   -0.1456   -0.4091    2.5879 H   0  0  0  0  0  0  0  0  0  0  0  0
    0.1361   -1.4472    4.8754 H   0  0  0  0  0  0  0  0  0  0  0  0
    1.3618   -3.6220    5.1094 H   0  0  0  0  0  0  0  0  0  0  0  0
    2.3004   -4.7564    3.0819 H   0  0  0  0  0  0  0  0  0  0  0  0
    2.0188   -3.7263    0.8266 H   0  0  0  0  0  0  0  0  0  0  0  0
  1  2  1  0  0  0  0
  1 15  1  0  0  0  0
  3  1  1  0  0  0  0
  4  3  1  0  0  0  0
  4 21  1  0  0  0  0
  5  4  2  0  0  0  0
  6  7  2  0  0  0  0
  6  5  1  0  0  0  0
  7  8  1  0  0  0  0
  8 25  1  0  0  0  0
  8  3  2  0  0  0  0
  9  1  1  0  0  0  0
  9 14  1  0  0  0  0
 10  9  2  0  0  0  0
 11 10  1  0  0  0  0
 11 12  2  0  0  0  0
 12 13  1  0  0  0  0
 13 14  2  0  0  0  0
 13 29  1  0  0  0  0
 14 30  1  0  0  0  0
 15 20  2  0  0  0  0
 15 16  1  0  0  0  0
 16 17  2  0  0  0  0
 17 18  1  0  0  0  0
 17 32  1  0  0  0  0
 18 33  1  0  0  0  0
 19 34  1  0  0  0  0
 19 18  2  0  0  0  0
 20 19  1  0  0  0  0
 22  5  1  0  0  0  0
 23  6  1  0  0  0  0
 24  7  1  0  0  0  0
 26 10  1  0  0  0  0
 27 11  1  0  0  0  0
 28 12  1  0  0  0  0
 31 16  1  0  0  0  0
 35 20  1  0  0  0  0
M  END
