1
q = 0.0, confidence = 0.952

  7  6  0  0  0  0  0  0  0  0999 V2000
   -1.5225    1.4628   -0.5142 N   0  0  0  0  0  1  0  0  0  0  0  0
   -3.5810    4.1586    0.4871 C   0  0  0  0  0  0  0  0  0  0  0  0
   -2.9209    3.6479   -0.5804 C   0  0  0  0  0  0  0  0  0  0  0  0
   -2.1586    2.4527   -0.5302 C   0  0  0  0  0  2  0  0  0  0  0  0
   -3.5593    3.6713    1.4737 H   0  0  0  0  0  0  0  0  0  0  0  0
   -4.1628    5.0864    0.3853 H   0  0  0  0  0  0  0  0  0  0  0  0
   -2.9517    4.1505   -1.5629 H   0  0  0  0  0  0  0  0  0  0  0  0
  2  5  1  0  0  0  0
  3  4  1  0  0  0  0
  3  2  2  0  0  0  0
  4  1  1  0  0  0  0
  6  2  1  0  0  0  0
  7  3  1  0  0  0  0
M  END
