1
q = -1.0, confidence = 0.002

  3  2  0  0  0  0  0  0  0  0999 V2000
   -1.1087   -1.4281   -0.8753 N   0  0  0  0  0  0  0  0  0  0  0  0
   -2.2290   -1.8070   -1.0802 C   0  0  0  0  0  0  0  0  0  0  0  0
   -3.8767   -2.3476   -1.4012 Se  0  0  0  0  0  0  0  0  0  0  0  0
  2  1  1  0  0  0  0
  3  2  1  0  0  0  0
M  END
