1
q = -1.0, confidence = 0.006

 19 18  0  0  1  0  0  0  0  0999 V2000
    0.9945    0.0032   -0.5494 N   0  0  0  0  0  1  0  0  0  0  0  0
    2.6382   -0.1475   -2.3360 C   0  0  0  0  0  0  0  0  0  0  0  0
    2.2180   -0.0299   -0.8853 C   0  0  2  0  0  3  0  0  0  0  0  0
    3.3101    0.0241    0.2240 C   0  0  0  0  0  0  0  0  0  0  0  0
    4.7388    0.0663   -0.3436 C   0  0  0  0  0  0  0  0  0  0  0  0
    3.0574    1.2787    1.0852 C   0  0  0  0  0  0  0  0  0  0  0  0
    3.1341   -1.2370    1.0979 C   0  0  0  0  0  0  0  0  0  0  0  0
    3.2517   -1.0582   -2.4989 H   0  0  0  0  0  0  0  0  0  0  0  0
    3.2719    0.7108   -2.6412 H   0  0  0  0  0  0  0  0  0  0  0  0
    1.7459   -0.1898   -2.9873 H   0  0  0  0  0  0  0  0  0  0  0  0
    4.9793   -0.8319   -0.9472 H   0  0  0  0  0  0  0  0  0  0  0  0
    5.4694    0.1061    0.4898 H   0  0  0  0  0  0  0  0  0  0  0  0
    4.9113    0.9618   -0.9743 H   0  0  0  0  0  0  0  0  0  0  0  0
    3.7989    1.3337    1.9085 H   0  0  0  0  0  0  0  0  0  0  0  0
    3.1515    2.2054    0.4813 H   0  0  0  0  0  0  0  0  0  0  0  0
    2.0432    1.2463    1.5293 H   0  0  0  0  0  0  0  0  0  0  0  0
    2.1240   -1.2493    1.5527 H   0  0  0  0  0  0  0  0  0  0  0  0
    3.2664   -2.1638    0.5014 H   0  0  0  0  0  0  0  0  0  0  0  0
    3.8862   -1.2473    1.9135 H   0  0  0  0  0  0  0  0  0  0  0  0
  2  3  1  0  0  0  0
  3  1  1  1  0  0  0
  3  4  1  0  0  0  0
  4  6  1  0  0  0  0
  4  7  1  0  0  0  0
  5  4  1  0  0  0  0
  5 12  1  0  0  0  0
  6 16  1  0  0  0  0
  6 14  1  0  0  0  0
  7 17  1  0  0  0  0
  7 19  1  0  0  0  0
  8  2  1  0  0  0  0
  9  2  1  0  0  0  0
 10  2  1  0  0  0  0
 11  5  1  0  0  0  0
 13  5  1  0  0  0  0
 15  6  1  0  0  0  0
 18  7  1  0  0  0  0
M  END
