2
q = -1.0, confidence = 0.102

 47 46  0  0  0  0  0  0  0  0999 V2000
    1.6459    0.0904   -0.0286 P   0  0  0  0  0  4  0  0  0  0  0  0
    0.0544    0.1076   -0.0711 N   0  0  0  0  0  1  0  0  0  0  0  0
    2.2582    0.8017   -1.4371 N   0  0  0  0  0  0  0  0  0  0  0  0
    2.1788   -1.5101    0.2123 N   0  0  0  0  0  0  0  0  0  0  0  0
    2.4236    0.9489    1.2196 N   0  0  0  0  0  0  0  0  0  0  0  0
    1.1803    2.7854   -2.5349 C   0  0  0  0  0  0  0  0  0  0  0  0
    0.5775    3.0806   -3.4172 H   0  0  0  0  0  0  0  0  0  0  0  0
    2.1433    3.3356   -2.5875 H   0  0  0  0  0  0  0  0  0  0  0  0
    0.6236    3.1128   -1.6356 H   0  0  0  0  0  0  0  0  0  0  0  0
    1.3805    1.2716   -2.5195 C   0  0  0  0  0  0  0  0  0  0  0  0
    0.4026    0.7623   -2.4269 H   0  0  0  0  0  0  0  0  0  0  0  0
    1.8130    0.9261   -3.4839 H   0  0  0  0  0  0  0  0  0  0  0  0
    4.3067   -0.0164   -2.6577 C   0  0  0  0  0  0  0  0  0  0  0  0
    5.3922    0.1767   -2.7763 H   0  0  0  0  0  0  0  0  0  0  0  0
    3.8386    0.0869   -3.6570 H   0  0  0  0  0  0  0  0  0  0  0  0
    4.1744   -1.0668   -2.3335 H   0  0  0  0  0  0  0  0  0  0  0  0
    3.6989    0.9587   -1.6466 C   0  0  0  0  0  0  0  0  0  0  0  0
    4.2062    0.8584   -0.6656 H   0  0  0  0  0  0  0  0  0  0  0  0
    3.8972    2.0041   -1.9772 H   0  0  0  0  0  0  0  0  0  0  0  0
    1.5251   -2.7535   -1.8984 C   0  0  0  0  0  0  0  0  0  0  0  0
    0.9183   -3.6128   -2.2482 H   0  0  0  0  0  0  0  0  0  0  0  0
    2.5802   -2.9490   -2.1804 H   0  0  0  0  0  0  0  0  0  0  0  0
    1.1692   -1.8589   -2.4458 H   0  0  0  0  0  0  0  0  0  0  0  0
    1.3502   -2.5685   -0.3906 C   0  0  0  0  0  0  0  0  0  0  0  0
    0.2924   -2.3231   -0.1808 H   0  0  0  0  0  0  0  0  0  0  0  0
    1.5722   -3.5126    0.1502 H   0  0  0  0  0  0  0  0  0  0  0  0
    3.8149   -2.8368    1.5718 C   0  0  0  0  0  0  0  0  0  0  0  0
    4.8990   -3.0319    1.6984 H   0  0  0  0  0  0  0  0  0  0  0  0
    3.3274   -3.8115    1.3708 H   0  0  0  0  0  0  0  0  0  0  0  0
    3.4194   -2.4524    2.5329 H   0  0  0  0  0  0  0  0  0  0  0  0
    3.5900   -1.8378    0.4350 C   0  0  0  0  0  0  0  0  0  0  0  0
    4.1250   -0.8957    0.6647 H   0  0  0  0  0  0  0  0  0  0  0  0
    4.0517   -2.2356   -0.4992 H   0  0  0  0  0  0  0  0  0  0  0  0
    3.7405    0.5147    3.3045 C   0  0  0  0  0  0  0  0  0  0  0  0
    3.6604    0.1001    4.3297 H   0  0  0  0  0  0  0  0  0  0  0  0
    4.0838    1.5645    3.4004 H   0  0  0  0  0  0  0  0  0  0  0  0
    4.5279   -0.0503    2.7665 H   0  0  0  0  0  0  0  0  0  0  0  0
    2.3939    0.4147    2.5882 C   0  0  0  0  0  0  0  0  0  0  0  0
    2.0715   -0.6420    2.5298 H   0  0  0  0  0  0  0  0  0  0  0  0
    1.6129    0.9390    3.1852 H   0  0  0  0  0  0  0  0  0  0  0  0
    1.1003    3.0964    1.4918 C   0  0  0  0  0  0  0  0  0  0  0  0
    1.1998    4.1973    1.4067 H   0  0  0  0  0  0  0  0  0  0  0  0
    0.7968    2.8744    2.5353 H   0  0  0  0  0  0  0  0  0  0  0  0
    0.2785    2.7711    0.8228 H   0  0  0  0  0  0  0  0  0  0  0  0
    2.4229    2.4210    1.1219 C   0  0  0  0  0  0  0  0  0  0  0  0
    3.2462    2.7950    1.7676 H   0  0  0  0  0  0  0  0  0  0  0  0
    2.6968    2.6941    0.0850 H   0  0  0  0  0  0  0  0  0  0  0  0
  1  4  1  0  0  0  0
  1  5  1  0  0  0  0
  2  1  1  0  0  0  0
  3  1  1  0  0  0  0
  4 31  1  0  0  0  0
  5 38  1  0  0  0  0
  6 10  1  0  0  0  0
  6  9  1  0  0  0  0
  7  6  1  0  0  0  0
  8  6  1  0  0  0  0
 10 11  1  0  0  0  0
 10  3  1  0  0  0  0
 12 10  1  0  0  0  0
 13 16  1  0  0  0  0
 13 17  1  0  0  0  0
 14 13  1  0  0  0  0
 15 13  1  0  0  0  0
 17  3  1  0  0  0  0
 17 18  1  0  0  0  0
 19 17  1  0  0  0  0
 20 24  1  0  0  0  0
 21 20  1  0  0  0  0
 22 20  1  0  0  0  0
 23 20  1  0  0  0  0
 24 25  1  0  0  0  0
 24 26  1  0  0  0  0
 24  4  1  0  0  0  0
 27 28  1  0  0  0  0
 27 30  1  0  0  0  0
 29 27  1  0  0  0  0
 31 32  1  0  0  0  0
 31 27  1  0  0  0  0
 33 31  1  0  0  0  0
 34 36  1  0  0  0  0
 34 35  1  0  0  0  0
 37 34  1  0  0  0  0
 38 40  1  0  0  0  0
 38 34  1  0  0  0  0
 39 38  1  0  0  0  0
 41 43  1  0  0  0  0
 42 41  1  0  0  0  0
 44 41  1  0  0  0  0
 45  5  1  0  0  0  0
 45 41  1  0  0  0  0
 45 46  1  0  0  0  0
 47 45  1  0  0  0  0
M  END
