2
q = -1.0, confidence = 0.104

 47 46  0  0  0  0  0  0  0  0999 V2000
    1.2778    0.1855   -0.2274 P   0  0  0  0  0  4  0  0  0  0  0  0
   -0.2958   -0.0110   -0.0425 N   0  0  0  0  0  1  0  0  0  0  0  0
    2.0413   -0.8107   -1.3761 N   0  0  0  0  0  0  0  0  0  0  0  0
    1.6018    1.7466   -0.7845 N   0  0  0  0  0  0  0  0  0  0  0  0
    2.0586   -0.1508    1.2308 N   0  0  0  0  0  0  0  0  0  0  0  0
    1.5620   -0.6693   -2.7506 C   0  0  0  0  0  0  0  0  0  0  0  0
    2.3888   -0.8170   -3.4756 H   0  0  0  0  0  0  0  0  0  0  0  0
    1.1628    0.3521   -2.8964 H   0  0  0  0  0  0  0  0  0  0  0  0
    0.7476   -1.3863   -2.9976 H   0  0  0  0  0  0  0  0  0  0  0  0
    2.4580   -2.1722   -0.9562 C   0  0  0  0  0  0  0  0  0  0  0  0
    2.8682   -2.0407    0.0650 H   0  0  0  0  0  0  0  0  0  0  0  0
    1.2824   -3.1567   -0.8574 C   0  0  0  0  0  0  0  0  0  0  0  0
    0.4977   -2.7812   -0.1703 H   0  0  0  0  0  0  0  0  0  0  0  0
    1.6335   -4.1373   -0.4778 H   0  0  0  0  0  0  0  0  0  0  0  0
    0.8138   -3.3379   -1.8472 H   0  0  0  0  0  0  0  0  0  0  0  0
    3.5840   -2.6939   -1.8527 C   0  0  0  0  0  0  0  0  0  0  0  0
    4.4083   -1.9563   -1.9253 H   0  0  0  0  0  0  0  0  0  0  0  0
    3.2302   -2.9223   -2.8791 H   0  0  0  0  0  0  0  0  0  0  0  0
    3.9957   -3.6329   -1.4329 H   0  0  0  0  0  0  0  0  0  0  0  0
    3.3813    0.4216    1.4414 C   0  0  0  0  0  0  0  0  0  0  0  0
    3.3576    1.4624    1.8394 H   0  0  0  0  0  0  0  0  0  0  0  0
    3.9487    0.4339    0.4903 H   0  0  0  0  0  0  0  0  0  0  0  0
    3.9584   -0.2045    2.1512 H   0  0  0  0  0  0  0  0  0  0  0  0
    1.2658   -0.5786    2.4104 C   0  0  0  0  0  0  0  0  0  0  0  0
    0.3474   -1.0415    1.9992 H   0  0  0  0  0  0  0  0  0  0  0  0
    0.8229    0.6054    3.2761 C   0  0  0  0  0  0  0  0  0  0  0  0
    0.1811    1.2948    2.6921 H   0  0  0  0  0  0  0  0  0  0  0  0
    1.6871    1.1702    3.6851 H   0  0  0  0  0  0  0  0  0  0  0  0
    0.2192    0.2461    4.1332 H   0  0  0  0  0  0  0  0  0  0  0  0
    2.0011   -1.6571    3.2107 C   0  0  0  0  0  0  0  0  0  0  0  0
    2.3263   -2.4888    2.5533 H   0  0  0  0  0  0  0  0  0  0  0  0
    1.3186   -2.0769    3.9756 H   0  0  0  0  0  0  0  0  0  0  0  0
    2.8915   -1.2648    3.7457 H   0  0  0  0  0  0  0  0  0  0  0  0
    2.8242    2.1292   -1.4710 C   0  0  0  0  0  0  0  0  0  0  0  0
    3.4982    2.7449   -0.8344 H   0  0  0  0  0  0  0  0  0  0  0  0
    2.6005    2.7109   -2.3920 H   0  0  0  0  0  0  0  0  0  0  0  0
    3.3767    1.2198   -1.7725 H   0  0  0  0  0  0  0  0  0  0  0  0
    0.6526    2.8121   -0.3792 C   0  0  0  0  0  0  0  0  0  0  0  0
   -0.1109    2.3149    0.2533 H   0  0  0  0  0  0  0  0  0  0  0  0
   -0.0929    3.3815   -1.5901 C   0  0  0  0  0  0  0  0  0  0  0  0
   -0.6129    2.5675   -2.1333 H   0  0  0  0  0  0  0  0  0  0  0  0
    0.5856    3.9030   -2.2974 H   0  0  0  0  0  0  0  0  0  0  0  0
   -0.8595    4.1097   -1.2586 H   0  0  0  0  0  0  0  0  0  0  0  0
    1.3249    3.8945    0.4705 C   0  0  0  0  0  0  0  0  0  0  0  0
    1.8472    3.4455    1.3395 H   0  0  0  0  0  0  0  0  0  0  0  0
    0.5594    4.5935    0.8612 H   0  0  0  0  0  0  0  0  0  0  0  0
    2.0590    4.4934   -0.1076 H   0  0  0  0  0  0  0  0  0  0  0  0
  1  2  1  0  0  0  0
  1  5  1  0  0  0  0
  3 10  1  0  0  0  0
  3  1  1  0  0  0  0
  4 38  1  0  0  0  0
  4  1  1  0  0  0  0
  5 20  1  0  0  0  0
  5 24  1  0  0  0  0
  6  3  1  0  0  0  0
  7  6  1  0  0  0  0
  8  6  1  0  0  0  0
  9  6  1  0  0  0  0
 10 12  1  0  0  0  0
 10 11  1  0  0  0  0
 12 14  1  0  0  0  0
 12 13  1  0  0  0  0
 15 12  1  0  0  0  0
 16 19  1  0  0  0  0
 16 10  1  0  0  0  0
 17 16  1  0  0  0  0
 18 16  1  0  0  0  0
 20 21  1  0  0  0  0
 20 23  1  0  0  0  0
 22 20  1  0  0  0  0
 24 30  1  0  0  0  0
 24 26  1  0  0  0  0
 25 24  1  0  0  0  0
 26 28  1  0  0  0  0
 26 29  1  0  0  0  0
 27 26  1  0  0  0  0
 30 33  1  0  0  0  0
 30 32  1  0  0  0  0
 31 30  1  0  0  0  0
 34 35  1  0  0  0  0
 34  4  1  0  0  0  0
 36 34  1  0  0  0  0
 37 34  1  0  0  0  0
 38 39  1  0  0  0  0
 38 44  1  0  0  0  0
 40 43  1  0  0  0  0
 40 38  1  0  0  0  0
 41 40  1  0  0  0  0
 42 40  1  0  0  0  0
 44 46  1  0  0  0  0
 44 45  1  0  0  0  0
 47 44  1  0  0  0  0
M  END
