9
q = 0.0, confidence = 0.904

 21 21  0  0  0  0  0  0  0  0999 V2000
   -0.6610    2.4118    0.2378 C   0  0  0  0  0  0  0  0  0  0  0  0
   -2.4559    0.6705    0.0639 C   0  0  0  0  0  0  0  0  0  0  0  0
   -3.4298    1.6241   -0.3057 C   0  0  0  0  0  0  0  0  0  0  0  0
   -4.7783    1.2674   -0.3696 C   0  0  0  0  0  0  0  0  0  0  0  0
   -5.1899   -0.0481   -0.0697 C   0  0  0  0  0  0  0  0  0  0  0  0
   -4.2164   -1.0050    0.2915 C   0  0  0  0  0  0  0  0  0  0  0  0
   -2.8658   -0.6444    0.3533 C   0  0  0  0  0  0  0  0  0  0  0  0
   -6.9867   -1.6013    0.1310 C   0  0  0  0  0  0  0  0  0  0  0  0
   -0.1979    0.0499    0.0532 N   0  0  0  0  0  1  0  0  0  0  0  0
   -1.0621    1.0032    0.1227 N   0  0  0  0  0  0  0  0  0  0  0  0
   -6.5249   -0.2954   -0.1566 O   0  0  0  0  0  0  0  0  0  0  0  0
   -3.1413    2.6500   -0.5708 H   0  0  0  0  0  0  0  0  0  0  0  0
   -5.5433    2.0002   -0.6631 H   0  0  0  0  0  0  0  0  0  0  0  0
   -4.5020   -2.0372    0.5342 H   0  0  0  0  0  0  0  0  0  0  0  0
   -2.0967   -1.3782    0.6282 H   0  0  0  0  0  0  0  0  0  0  0  0
    0.2299    2.4543    0.8903 H   0  0  0  0  0  0  0  0  0  0  0  0
   -0.3831    2.8233   -0.7542 H   0  0  0  0  0  0  0  0  0  0  0  0
   -1.4757    3.0089    0.6821 H   0  0  0  0  0  0  0  0  0  0  0  0
   -8.0843   -1.5820   -0.0013 H   0  0  0  0  0  0  0  0  0  0  0  0
   -6.5530   -2.3577   -0.5614 H   0  0  0  0  0  0  0  0  0  0  0  0
   -6.7549   -1.9033    1.1774 H   0  0  0  0  0  0  0  0  0  0  0  0
  1 18  1  0  0  0  0
  1 16  1  0  0  0  0
  2 10  1  0  0  0  0
  2  7  1  0  0  0  0
  3  2  2  0  0  0  0
  4  3  1  0  0  0  0
  4  5  2  0  0  0  0
  5  6  1  0  0  0  0
  6  7  2  0  0  0  0
  6 14  1  0  0  0  0
  7 15  1  0  0  0  0
  8 21  1  0  0  0  0
  9 10  1  0  0  0  0
 10  1  1  0  0  0  0
 11  5  1  0  0  0  0
 11  8  1  0  0  0  0
 12  3  1  0  0  0  0
 13  4  1  0  0  0  0
 17  1  1  0  0  0  0
 19  8  1  0  0  0  0
 20  8  1  0  0  0  0
M  END
