2
q = nan, confidence = 0.0

 52 52  0  0  0  0  0  0  0  0999 V2000
   -2.1522   -1.2012    0.0509 P   0  0  0  0  0  4  0  0  0  0  0  0
   -1.2341    0.1195   -0.0117 N   0  0  0  0  0  1  0  0  0  0  0  0
    2.4923   -1.7973    0.0506 O   0  0  0  0  0  0  0  0  0  0  0  0
   -3.3033   -1.0762    1.5516 C   0  0  0  0  0  0  0  0  0  0  0  0
   -4.3047   -2.2397    1.6101 C   0  0  0  0  0  0  0  0  0  0  0  0
   -4.8454   -2.1974    2.5790 H   0  0  0  0  0  0  0  0  0  0  0  0
   -3.8186   -3.2352    1.5525 H   0  0  0  0  0  0  0  0  0  0  0  0
   -5.0661   -2.1754    0.8084 H   0  0  0  0  0  0  0  0  0  0  0  0
   -4.0417    0.2739    1.5318 C   0  0  0  0  0  0  0  0  0  0  0  0
   -4.5902    0.3840    2.4907 H   0  0  0  0  0  0  0  0  0  0  0  0
   -4.7797    0.3452    0.7128 H   0  0  0  0  0  0  0  0  0  0  0  0
   -3.3391    1.1240    1.4471 H   0  0  0  0  0  0  0  0  0  0  0  0
   -2.3682   -1.1022    2.7802 C   0  0  0  0  0  0  0  0  0  0  0  0
   -2.9868   -0.9682    3.6923 H   0  0  0  0  0  0  0  0  0  0  0  0
   -1.6390   -0.2684    2.7450 H   0  0  0  0  0  0  0  0  0  0  0  0
   -1.8257   -2.0620    2.8905 H   0  0  0  0  0  0  0  0  0  0  0  0
   -3.0203   -1.4476   -1.6157 C   0  0  0  0  0  0  0  0  0  0  0  0
   -4.0876   -0.3559   -1.8058 C   0  0  0  0  0  0  0  0  0  0  0  0
   -4.4385   -0.3787   -2.8591 H   0  0  0  0  0  0  0  0  0  0  0  0
   -3.6839    0.6565   -1.6008 H   0  0  0  0  0  0  0  0  0  0  0  0
   -4.9721   -0.5256   -1.1619 H   0  0  0  0  0  0  0  0  0  0  0  0
   -3.6439   -2.8463   -1.7554 C   0  0  0  0  0  0  0  0  0  0  0  0
   -4.1050   -2.9293   -2.7621 H   0  0  0  0  0  0  0  0  0  0  0  0
   -4.4411   -3.0339   -1.0124 H   0  0  0  0  0  0  0  0  0  0  0  0
   -2.8960   -3.6600   -1.6744 H   0  0  0  0  0  0  0  0  0  0  0  0
   -1.9161   -1.2560   -2.6747 C   0  0  0  0  0  0  0  0  0  0  0  0
   -2.3598   -1.3917   -3.6831 H   0  0  0  0  0  0  0  0  0  0  0  0
   -1.0937   -1.9929   -2.5701 H   0  0  0  0  0  0  0  0  0  0  0  0
   -1.4841   -0.2393   -2.6127 H   0  0  0  0  0  0  0  0  0  0  0  0
   -1.1320   -2.7376    0.3300 C   0  0  0  0  0  0  0  0  0  0  0  0
   -1.6699   -3.3584    1.0732 H   0  0  0  0  0  0  0  0  0  0  0  0
   -1.1283   -3.3248   -0.6111 H   0  0  0  0  0  0  0  0  0  0  0  0
    0.3056   -2.4391    0.7794 C   0  0  0  0  0  0  0  0  0  0  0  0
    0.3346   -1.5461    1.4365 H   0  0  0  0  0  0  0  0  0  0  0  0
    0.7038   -3.2905    1.3687 H   0  0  0  0  0  0  0  0  0  0  0  0
    1.2169   -2.1879   -0.4135 C   0  0  0  0  0  0  0  0  0  0  0  0
    1.2928   -3.1143   -1.0403 H   0  0  0  0  0  0  0  0  0  0  0  0
    0.7717   -1.3917   -1.0588 H   0  0  0  0  0  0  0  0  0  0  0  0
    3.4311   -1.6179   -1.0045 C   0  0  0  0  0  0  0  0  0  0  0  0
    3.0348   -0.9006   -1.7626 H   0  0  0  0  0  0  0  0  0  0  0  0
    3.5944   -2.5925   -1.5297 H   0  0  0  0  0  0  0  0  0  0  0  0
    4.7257   -1.1021   -0.4316 C   0  0  0  0  0  0  0  0  0  0  0  0
    5.1232    0.2327   -0.6335 C   0  0  0  0  0  0  0  0  0  0  0  0
    4.4847    0.9018   -1.2316 H   0  0  0  0  0  0  0  0  0  0  0  0
    6.3155    0.7146   -0.0709 C   0  0  0  0  0  0  0  0  0  0  0  0
    6.6161    1.7601   -0.2380 H   0  0  0  0  0  0  0  0  0  0  0  0
    7.1169   -0.1332    0.7086 C   0  0  0  0  0  0  0  0  0  0  0  0
    8.0514    0.2436    1.1517 H   0  0  0  0  0  0  0  0  0  0  0  0
    6.7226   -1.4646    0.9238 C   0  0  0  0  0  0  0  0  0  0  0  0
    7.3476   -2.1321    1.5366 H   0  0  0  0  0  0  0  0  0  0  0  0
    5.5345   -1.9448    0.3563 C   0  0  0  0  0  0  0  0  0  0  0  0
    5.2213   -2.9867    0.5271 H   0  0  0  0  0  0  0  0  0  0  0  0
  1 30  1  0  0  0  0
  1  4  1  0  0  0  0
  2  1  1  0  0  0  0
  4  5  1  0  0  0  0
  4 13  1  0  0  0  0
  5  6  1  0  0  0  0
  7  5  1  0  0  0  0
  8  5  1  0  0  0  0
  9  4  1  0  0  0  0
  9 10  1  0  0  0  0
 11  9  1  0  0  0  0
 12  9  1  0  0  0  0
 13 16  1  0  0  0  0
 13 14  1  0  0  0  0
 15 13  1  0  0  0  0
 17  1  1  0  0  0  0
 18 17  1  0  0  0  0
 18 20  1  0  0  0  0
 18 21  1  0  0  0  0
 19 18  1  0  0  0  0
 22 25  1  0  0  0  0
 22 17  1  0  0  0  0
 22 24  1  0  0  0  0
 23 22  1  0  0  0  0
 26 29  1  0  0  0  0
 26 28  1  0  0  0  0
 26 17  1  0  0  0  0
 27 26  1  0  0  0  0
 30 33  1  0  0  0  0
 30 31  1  0  0  0  0
 32 30  1  0  0  0  0
 33 35  1  0  0  0  0
 33 34  1  0  0  0  0
 36  3  1  0  0  0  0
 36 33  1  0  0  0  0
 37 36  1  0  0  0  0
 38 36  1  0  0  0  0
 39 42  1  0  0  0  0
 39  3  1  0  0  0  0
 40 39  1  0  0  0  0
 41 39  1  0  0  0  0
 42 51  1  0  0  0  0
 43 42  2  0  0  0  0
 43 45  1  0  0  0  0
 44 43  1  0  0  0  0
 45 47  2  0  0  0  0
 46 45  1  0  0  0  0
 47 49  1  0  0  0  0
 47 48  1  0  0  0  0
 49 50  1  0  0  0  0
 51 52  1  0  0  0  0
 51 49  2  0  0  0  0
M  END
