1
q = -1.0, confidence = 0.0

 28 27  0  0  1  0  0  0  0  0999 V2000
   -0.2767   -0.4095   -0.2290 N   0  0  0  0  0  1  0  0  0  0  0  0
   -1.4231   -0.9648   -0.2255 C   0  0  1  0  0  3  0  0  0  0  0  0
   -1.5417   -2.5052   -0.1319 C   0  0  0  0  0  0  0  0  0  0  0  0
   -2.8539   -3.0228   -0.7479 C   0  0  0  0  0  0  0  0  0  0  0  0
   -1.5013   -2.8328    1.3817 C   0  0  0  0  0  0  0  0  0  0  0  0
   -0.3427   -3.1719   -0.8286 C   0  0  0  0  0  0  0  0  0  0  0  0
   -2.6852   -0.1232   -0.2093 C   0  0  0  0  0  0  0  0  0  0  0  0
   -2.4523    1.3832   -0.1310 C   0  0  0  0  0  0  0  0  0  0  0  0
   -3.7475    2.1955   -0.0641 C   0  0  0  0  0  0  0  0  0  0  0  0
   -3.4994    3.7030    0.0018 C   0  0  0  0  0  0  0  0  0  0  0  0
   -2.9347   -2.7584   -1.8223 H   0  0  0  0  0  0  0  0  0  0  0  0
   -3.7506   -2.6340   -0.2268 H   0  0  0  0  0  0  0  0  0  0  0  0
   -2.8849   -4.1287   -0.6737 H   0  0  0  0  0  0  0  0  0  0  0  0
   -0.5448   -2.4952    1.8267 H   0  0  0  0  0  0  0  0  0  0  0  0
   -1.5926   -3.9286    1.5301 H   0  0  0  0  0  0  0  0  0  0  0  0
   -2.3351   -2.3467    1.9282 H   0  0  0  0  0  0  0  0  0  0  0  0
    0.6130   -2.8328   -0.3861 H   0  0  0  0  0  0  0  0  0  0  0  0
   -0.4085   -4.2730   -0.7184 H   0  0  0  0  0  0  0  0  0  0  0  0
   -0.3313   -2.9379   -1.9131 H   0  0  0  0  0  0  0  0  0  0  0  0
   -3.3068   -0.4697    0.6480 H   0  0  0  0  0  0  0  0  0  0  0  0
   -3.2868   -0.3847   -1.1093 H   0  0  0  0  0  0  0  0  0  0  0  0
   -1.8521    1.7041   -1.0103 H   0  0  0  0  0  0  0  0  0  0  0  0
   -1.8124    1.6106    0.7474 H   0  0  0  0  0  0  0  0  0  0  0  0
   -4.3848    1.9563   -0.9453 H   0  0  0  0  0  0  0  0  0  0  0  0
   -4.3355    1.8742    0.8248 H   0  0  0  0  0  0  0  0  0  0  0  0
   -4.4466    4.2751    0.0671 H   0  0  0  0  0  0  0  0  0  0  0  0
   -2.9533    4.0593   -0.8967 H   0  0  0  0  0  0  0  0  0  0  0  0
   -2.8820    3.9676    0.8851 H   0  0  0  0  0  0  0  0  0  0  0  0
  2  1  1  1  0  0  0
  2  7  1  0  0  0  0
  2  3  1  0  0  0  0
  3  5  1  0  0  0  0
  4 13  1  0  0  0  0
  4 12  1  0  0  0  0
  4  3  1  0  0  0  0
  5 15  1  0  0  0  0
  5 14  1  0  0  0  0
  5 16  1  0  0  0  0
  6 18  1  0  0  0  0
  6 17  1  0  0  0  0
  6  3  1  0  0  0  0
  7  8  1  0  0  0  0
  7 20  1  0  0  0  0
  8  9  1  0  0  0  0
  8 23  1  0  0  0  0
  9 10  1  0  0  0  0
  9 25  1  0  0  0  0
 10 26  1  0  0  0  0
 10 28  1  0  0  0  0
 11  4  1  0  0  0  0
 19  6  1  0  0  0  0
 21  7  1  0  0  0  0
 22  8  1  0  0  0  0
 24  9  1  0  0  0  0
 27 10  1  0  0  0  0
M  END
