1
q = 0.0, confidence = 0.704

 17 17  0  0  0  0  0  0  0  0999 V2000
   -0.9262   -0.6597   -0.7002 N   0  0  0  0  0  1  0  0  0  0  0  0
   -2.1204   -1.2279   -0.9276 N   0  0  0  0  0  0  0  0  0  0  0  0
   -3.3072   -0.5173   -0.7646 C   0  0  0  0  0  0  0  0  0  0  0  0
   -4.5691   -1.1011   -1.0590 C   0  0  0  0  0  0  0  0  0  0  0  0
   -5.7466   -0.3643   -0.8746 C   0  0  0  0  0  0  0  0  0  0  0  0
   -5.7136    0.9581   -0.4031 C   0  0  0  0  0  0  0  0  0  0  0  0
   -4.4651    1.5386   -0.1149 C   0  0  0  0  0  0  0  0  0  0  0  0
   -3.2792    0.8198   -0.2863 C   0  0  0  0  0  0  0  0  0  0  0  0
   -2.1461   -2.6104   -1.3778 C   0  0  0  0  0  0  0  0  0  0  0  0
   -4.6364   -2.1310   -1.4334 H   0  0  0  0  0  0  0  0  0  0  0  0
   -6.7120   -0.8402   -1.1083 H   0  0  0  0  0  0  0  0  0  0  0  0
   -6.6443    1.5266   -0.2617 H   0  0  0  0  0  0  0  0  0  0  0  0
   -4.4113    2.5750    0.2549 H   0  0  0  0  0  0  0  0  0  0  0  0
   -2.3046    1.2677   -0.0612 H   0  0  0  0  0  0  0  0  0  0  0  0
   -2.7286   -3.2569   -0.6838 H   0  0  0  0  0  0  0  0  0  0  0  0
   -2.5896   -2.7083   -2.3939 H   0  0  0  0  0  0  0  0  0  0  0  0
   -1.1044   -2.9719   -1.4072 H   0  0  0  0  0  0  0  0  0  0  0  0
  2  3  1  0  0  0  0
  2  1  1  0  0  0  0
  3  8  1  0  0  0  0
  4  5  1  0  0  0  0
  4  3  2  0  0  0  0
  5  6  2  0  0  0  0
  6 12  1  0  0  0  0
  6  7  1  0  0  0  0
  7 13  1  0  0  0  0
  8  7  2  0  0  0  0
  8 14  1  0  0  0  0
  9  2  1  0  0  0  0
  9 15  1  0  0  0  0
 10  4  1  0  0  0  0
 11  5  1  0  0  0  0
 16  9  1  0  0  0  0
 17  9  1  0  0  0  0
M  END
