1
q = -1.0, confidence = 0.004

 28 27  0  0  0  0  0  0  0  0999 V2000
   -0.9107   -0.0323    0.1244 N   0  0  0  0  0  1  0  0  0  0  0  0
   -2.1421    0.2990    0.1242 C   0  0  0  0  0  3  0  0  0  0  0  0
   -4.5669   -0.4637    0.8013 C   0  0  0  0  0  0  0  0  0  0  0  0
   -5.2131   -1.3651    0.8011 H   0  0  0  0  0  0  0  0  0  0  0  0
   -5.0815    0.3023    0.1920 H   0  0  0  0  0  0  0  0  0  0  0  0
   -4.5102   -0.1017    1.8465 H   0  0  0  0  0  0  0  0  0  0  0  0
   -2.5007    1.7977   -0.0936 C   0  0  0  0  0  0  0  0  0  0  0  0
   -3.1831   -0.8578    0.2533 C   0  0  0  0  0  0  0  0  0  0  0  0
   -3.1867    2.3773    1.1667 C   0  0  0  0  0  0  0  0  0  0  0  0
   -2.5848    2.1750    2.0763 H   0  0  0  0  0  0  0  0  0  0  0  0
   -4.2049    1.9854    1.3317 H   0  0  0  0  0  0  0  0  0  0  0  0
   -3.2658    3.4785    1.0584 H   0  0  0  0  0  0  0  0  0  0  0  0
   -3.3365   -1.4554   -1.1696 C   0  0  0  0  0  0  0  0  0  0  0  0
   -2.3550   -1.7917   -1.5570 H   0  0  0  0  0  0  0  0  0  0  0  0
   -3.7691   -0.7281   -1.8831 H   0  0  0  0  0  0  0  0  0  0  0  0
   -4.0135   -2.3337   -1.1279 H   0  0  0  0  0  0  0  0  0  0  0  0
   -1.2098    2.6042   -0.3358 C   0  0  0  0  0  0  0  0  0  0  0  0
   -0.5343    2.5602    0.5406 H   0  0  0  0  0  0  0  0  0  0  0  0
   -1.4717    3.6665   -0.5154 H   0  0  0  0  0  0  0  0  0  0  0  0
   -0.6406    2.2250   -1.2051 H   0  0  0  0  0  0  0  0  0  0  0  0
   -2.6076   -1.9504    1.1807 C   0  0  0  0  0  0  0  0  0  0  0  0
   -1.6665   -2.3677    0.7774 H   0  0  0  0  0  0  0  0  0  0  0  0
   -3.3411   -2.7762    1.2764 H   0  0  0  0  0  0  0  0  0  0  0  0
   -2.4125   -1.5485    2.1963 H   0  0  0  0  0  0  0  0  0  0  0  0
   -3.4048    1.9703   -1.3340 C   0  0  0  0  0  0  0  0  0  0  0  0
   -3.6137    3.0495   -1.4840 H   0  0  0  0  0  0  0  0  0  0  0  0
   -4.3783    1.4545   -1.2390 H   0  0  0  0  0  0  0  0  0  0  0  0
   -2.8991    1.5952   -2.2459 H   0  0  0  0  0  0  0  0  0  0  0  0
  2  1  1  0  0  0  0
  2  8  1  0  0  0  0
  3  6  1  0  0  0  0
  4  3  1  0  0  0  0
  5  3  1  0  0  0  0
  7  2  1  0  0  0  0
  7  9  1  0  0  0  0
  8  3  1  0  0  0  0
  8 21  1  0  0  0  0
  9 11  1  0  0  0  0
  9 10  1  0  0  0  0
 12  9  1  0  0  0  0
 13 16  1  0  0  0  0
 13  8  1  0  0  0  0
 14 13  1  0  0  0  0
 15 13  1  0  0  0  0
 17  7  1  0  0  0  0
 17 18  1  0  0  0  0
 19 17  1  0  0  0  0
 20 17  1  0  0  0  0
 21 23  1  0  0  0  0
 21 24  1  0  0  0  0
 22 21  1  0  0  0  0
 25 27  1  0  0  0  0
 25  7  1  0  0  0  0
 26 25  1  0  0  0  0
 28 25  1  0  0  0  0
M  END
