3
q = 0.0, confidence = 0.864

 24 25  0  0  0  0  0  0  0  0999 V2000
    6.6484   -0.0354    0.1143 Br  0  0  0  0  0  0  0  0  0  0  0  0
   -2.4946    5.8973    0.0124 Br  0  0  0  0  0  0  0  0  0  0  0  0
   -0.1676   -0.5218   -0.3054 N   0  0  0  0  0  1  0  0  0  0  0  0
    0.5595    0.5860   -0.2387 N   0  0  0  0  0  0  0  0  0  0  0  0
    1.9755    0.4563   -0.1436 C   0  0  0  0  0  0  0  0  0  0  0  0
    2.8225    1.3982   -0.7644 C   0  0  0  0  0  0  0  0  0  0  0  0
    2.3932    2.2396   -1.3262 H   0  0  0  0  0  0  0  0  0  0  0  0
    4.2124    1.2565   -0.6817 C   0  0  0  0  0  0  0  0  0  0  0  0
    4.8722    1.9891   -1.1672 H   0  0  0  0  0  0  0  0  0  0  0  0
    4.7589    0.1588    0.0039 C   0  0  0  0  0  0  0  0  0  0  0  0
    3.9227   -0.7976    0.6019 C   0  0  0  0  0  0  0  0  0  0  0  0
    4.3562   -1.6588    1.1294 H   0  0  0  0  0  0  0  0  0  0  0  0
    2.5326   -0.6481    0.5329 C   0  0  0  0  0  0  0  0  0  0  0  0
    1.8732   -1.3955    0.9988 H   0  0  0  0  0  0  0  0  0  0  0  0
   -0.1186    1.8338   -0.2091 C   0  0  0  0  0  0  0  0  0  0  0  0
    0.4181    2.9358    0.4939 C   0  0  0  0  0  0  0  0  0  0  0  0
    1.3851    2.8450    1.0076 H   0  0  0  0  0  0  0  0  0  0  0  0
   -0.2851    4.1444    0.5530 C   0  0  0  0  0  0  0  0  0  0  0  0
    0.1342    4.9988    1.1028 H   0  0  0  0  0  0  0  0  0  0  0  0
   -1.5373    4.2548   -0.0746 C   0  0  0  0  0  0  0  0  0  0  0  0
   -2.0872    3.1601   -0.7609 C   0  0  0  0  0  0  0  0  0  0  0  0
   -3.0672    3.2492   -1.2504 H   0  0  0  0  0  0  0  0  0  0  0  0
   -1.3804    1.9540   -0.8324 C   0  0  0  0  0  0  0  0  0  0  0  0
   -1.8119    1.0946   -1.3660 H   0  0  0  0  0  0  0  0  0  0  0  0
  3  4  1  0  0  0  0
  4 15  1  0  0  0  0
  4  5  1  0  0  0  0
  5 13  1  0  0  0  0
  6  8  1  0  0  0  0
  6  5  2  0  0  0  0
  7  6  1  0  0  0  0
  8 10  2  0  0  0  0
  9  8  1  0  0  0  0
 10  1  1  0  0  0  0
 10 11  1  0  0  0  0
 11 12  1  0  0  0  0
 13 11  2  0  0  0  0
 13 14  1  0  0  0  0
 15 16  1  0  0  0  0
 16 18  2  0  0  0  0
 16 17  1  0  0  0  0
 18 19  1  0  0  0  0
 20  2  1  0  0  0  0
 20 18  1  0  0  0  0
 21 20  2  0  0  0  0
 22 21  1  0  0  0  0
 23 21  1  0  0  0  0
 23 15  2  0  0  0  0
 24 23  1  0  0  0  0
M  END
