1
q = -2.0, confidence = 0.6

 21 21  0  0  0  0  0  0  0  0999 V2000
    1.3930   -0.1791   -0.0002 N   0  0  0  0  0  1  0  0  0  0  0  0
    2.7613   -0.1369   -0.0003 C   0  0  0  0  0  0  0  0  0  0  0  0
    3.5010   -1.3579   -0.0007 C   0  0  0  0  0  0  0  0  0  0  0  0
    4.8330    1.1318   -0.0009 C   0  0  0  0  0  0  0  0  0  0  0  0
    5.3548    2.1032   -0.0013 H   0  0  0  0  0  0  0  0  0  0  0  0
    3.4317    1.1262   -0.0005 C   0  0  0  0  0  0  0  0  0  0  0  0
    4.9035   -1.2858   -0.0010 C   0  0  0  0  0  0  0  0  0  0  0  0
    5.4802   -2.2254   -0.0016 H   0  0  0  0  0  0  0  0  0  0  0  0
    5.5917   -0.0578   -0.0010 C   0  0  0  0  0  0  0  0  0  0  0  0
    2.7752   -2.6770   -0.0010 C   0  0  0  0  0  0  0  0  0  0  0  0
    2.1060   -2.7776   -0.8805 H   0  0  0  0  0  0  0  0  0  0  0  0
    2.1063   -2.7781    0.8787 H   0  0  0  0  0  0  0  0  0  0  0  0
    3.4853   -3.5257   -0.0013 H   0  0  0  0  0  0  0  0  0  0  0  0
    7.0986   -0.0039    0.0016 C   0  0  0  0  0  0  0  0  0  0  0  0
    7.4833    0.5125    0.9064 H   0  0  0  0  0  0  0  0  0  0  0  0
    7.4852    0.5599   -0.8733 H   0  0  0  0  0  0  0  0  0  0  0  0
    7.5448   -1.0168   -0.0241 H   0  0  0  0  0  0  0  0  0  0  0  0
    2.6253    2.3938   -0.0007 C   0  0  0  0  0  0  0  0  0  0  0  0
    1.9470    2.4395    0.8766 H   0  0  0  0  0  0  0  0  0  0  0  0
    1.9467    2.4391   -0.8778 H   0  0  0  0  0  0  0  0  0  0  0  0
    3.2759    3.2886   -0.0010 H   0  0  0  0  0  0  0  0  0  0  0  0
  2  1  1  0  0  0  0
  3  2  2  0  0  0  0
  4  6  2  0  0  0  0
  5  4  1  0  0  0  0
  6  2  1  0  0  0  0
  7  9  2  0  0  0  0
  7  3  1  0  0  0  0
  8  7  1  0  0  0  0
  9  4  1  0  0  0  0
  9 14  1  0  0  0  0
 10  3  1  0  0  0  0
 10 12  1  0  0  0  0
 11 10  1  0  0  0  0
 13 10  1  0  0  0  0
 14 15  1  0  0  0  0
 16 14  1  0  0  0  0
 17 14  1  0  0  0  0
 18  6  1  0  0  0  0
 18 19  1  0  0  0  0
 20 18  1  0  0  0  0
 21 18  1  0  0  0  0
M  END
