1
q = 0.0, confidence = 0.99

 22 21  0  0  0  0  0  0  0  0999 V2000
   -0.2250   -0.7078   -0.1151 N   0  0  0  0  0  1  0  0  0  0  0  0
    2.2074   -1.1395   -0.3674 N   0  0  0  0  0  2  0  0  0  0  0  0
    4.4531   -0.7736    0.0392 N   0  0  0  0  0  0  0  0  0  0  0  0
    3.0315    1.0925   -0.0370 N   0  0  0  0  0  0  0  0  0  0  0  0
    0.9407   -0.8642   -0.2146 C   0  0  0  0  0  2  0  0  0  0  0  0
    3.1873   -0.2725   -0.1275 C   0  0  0  0  0  3  0  0  0  0  0  0
    5.6367   -0.0540   -0.4063 C   0  0  0  0  0  0  0  0  0  0  0  0
    4.6399   -2.1892    0.3183 C   0  0  0  0  0  0  0  0  0  0  0  0
    1.9508    1.7884   -0.7256 C   0  0  0  0  0  0  0  0  0  0  0  0
    3.7496    1.8832    0.9541 C   0  0  0  0  0  0  0  0  0  0  0  0
    6.1996   -0.6794   -1.1327 H   0  0  0  0  0  0  0  0  0  0  0  0
    5.3456    0.8819   -0.9147 H   0  0  0  0  0  0  0  0  0  0  0  0
    6.3216    0.1924    0.4340 H   0  0  0  0  0  0  0  0  0  0  0  0
    5.5082   -2.3188    0.9965 H   0  0  0  0  0  0  0  0  0  0  0  0
    3.7318   -2.5973    0.7942 H   0  0  0  0  0  0  0  0  0  0  0  0
    4.8295   -2.7683   -0.6128 H   0  0  0  0  0  0  0  0  0  0  0  0
    1.5775    1.1875   -1.5734 H   0  0  0  0  0  0  0  0  0  0  0  0
    2.3417    2.7462   -1.1287 H   0  0  0  0  0  0  0  0  0  0  0  0
    1.0978    2.0167   -0.0514 H   0  0  0  0  0  0  0  0  0  0  0  0
    3.0183    2.4219    1.5950 H   0  0  0  0  0  0  0  0  0  0  0  0
    4.3532    1.2249    1.6037 H   0  0  0  0  0  0  0  0  0  0  0  0
    4.4183    2.6403    0.4885 H   0  0  0  0  0  0  0  0  0  0  0  0
  2  5  1  0  0  0  0
  2  6  1  0  0  0  0
  3  8  1  0  0  0  0
  4 10  1  0  0  0  0
  5  1  1  0  0  0  0
  6  4  1  0  0  0  0
  6  3  1  0  0  0  0
  7  3  1  0  0  0  0
  7 13  1  0  0  0  0
  8 15  1  0  0  0  0
  8 14  1  0  0  0  0
  9 19  1  0  0  0  0
  9  4  1  0  0  0  0
 10 20  1  0  0  0  0
 10 21  1  0  0  0  0
 11  7  1  0  0  0  0
 12  7  1  0  0  0  0
 16  8  1  0  0  0  0
 17  9  1  0  0  0  0
 18  9  1  0  0  0  0
 22 10  1  0  0  0  0
M  END
