1
q = -1.0, confidence = 0.002

 20 20  0  0  0  0  0  0  0  0999 V2000
    0.6304    0.7483   -1.1936 N   0  0  0  0  0  1  0  0  0  0  0  0
    2.9554    0.0531   -1.5984 N   0  0  0  0  0  2  0  0  0  0  0  0
    1.7909    0.4182   -1.3154 C   0  0  0  0  0  2  0  0  0  0  0  0
    4.2121    0.3355   -1.0910 C   0  0  0  0  0  0  0  0  0  0  0  0
    5.2748   -0.5246   -1.4996 C   0  0  0  0  0  0  0  0  0  0  0  0
    6.5622   -0.3141   -0.9793 C   0  0  0  0  0  0  0  0  0  0  0  0
    7.3771   -0.9870   -1.2911 H   0  0  0  0  0  0  0  0  0  0  0  0
    6.8207    0.7339   -0.0834 C   0  0  0  0  0  0  0  0  0  0  0  0
    7.8345    0.8858    0.3170 H   0  0  0  0  0  0  0  0  0  0  0  0
    5.7782    1.5969    0.2844 C   0  0  0  0  0  0  0  0  0  0  0  0
    5.9744    2.4327    0.9754 H   0  0  0  0  0  0  0  0  0  0  0  0
    4.4728    1.4264   -0.2067 C   0  0  0  0  0  0  0  0  0  0  0  0
    4.9944   -1.6349   -2.4758 C   0  0  0  0  0  0  0  0  0  0  0  0
    5.9253   -2.1590   -2.7672 H   0  0  0  0  0  0  0  0  0  0  0  0
    4.5007   -1.2452   -3.3897 H   0  0  0  0  0  0  0  0  0  0  0  0
    4.2921   -2.3813   -2.0500 H   0  0  0  0  0  0  0  0  0  0  0  0
    3.3725    2.3698    0.1955 C   0  0  0  0  0  0  0  0  0  0  0  0
    2.5709    1.8498    0.7592 H   0  0  0  0  0  0  0  0  0  0  0  0
    2.8901    2.8348   -0.6897 H   0  0  0  0  0  0  0  0  0  0  0  0
    3.7656    3.1795    0.8399 H   0  0  0  0  0  0  0  0  0  0  0  0
  2  3  1  0  0  0  0
  2  4  1  0  0  0  0
  3  1  1  0  0  0  0
  4 12  1  0  0  0  0
  5  4  2  0  0  0  0
  5  6  1  0  0  0  0
  6  8  2  0  0  0  0
  7  6  1  0  0  0  0
  8 10  1  0  0  0  0
  8  9  1  0  0  0  0
 10 11  1  0  0  0  0
 12 17  1  0  0  0  0
 12 10  2  0  0  0  0
 13 16  1  0  0  0  0
 13  5  1  0  0  0  0
 14 13  1  0  0  0  0
 15 13  1  0  0  0  0
 17 18  1  0  0  0  0
 17 20  1  0  0  0  0
 19 17  1  0  0  0  0
M  END
