1
q = 0.0, confidence = 0.98

 11 10  0  0  0  0  0  0  0  0999 V2000
   -0.9519   -0.0990    0.0002 N   0  0  0  0  0  1  0  0  0  0  0  0
   -3.4496   -0.3456    0.0002 N   0  0  0  0  0  0  0  0  0  0  0  0
   -2.1298   -0.1951    0.0004 C   0  0  0  0  0  2  0  0  0  0  0  0
   -4.1930   -0.1753   -1.2473 C   0  0  0  0  0  0  0  0  0  0  0  0
   -4.1935   -0.1735    1.2472 C   0  0  0  0  0  0  0  0  0  0  0  0
   -4.5524    0.8710   -1.3773 H   0  0  0  0  0  0  0  0  0  0  0  0
   -5.0717   -0.8526   -1.2491 H   0  0  0  0  0  0  0  0  0  0  0  0
   -3.5445   -0.4358   -2.1037 H   0  0  0  0  0  0  0  0  0  0  0  0
   -4.5528    0.8730    1.3757 H   0  0  0  0  0  0  0  0  0  0  0  0
   -3.5456   -0.4332    2.1042 H   0  0  0  0  0  0  0  0  0  0  0  0
   -5.0725   -0.8506    1.2494 H   0  0  0  0  0  0  0  0  0  0  0  0
  1  3  1  0  0  0  0
  2  3  1  0  0  0  0
  2  5  1  0  0  0  0
  4  2  1  0  0  0  0
  5 11  1  0  0  0  0
  5  9  1  0  0  0  0
  5 10  1  0  0  0  0
  6  4  1  0  0  0  0
  7  4  1  0  0  0  0
  8  4  1  0  0  0  0
M  END
