1
q = 0.0, confidence = 0.66

 11 10  0  0  0  0  0  0  0  0999 V2000
    2.0716   -1.0171    0.0450 N   0  0  0  0  0  1  0  0  0  0  0  0
    3.4840   -1.1700    0.1841 C   0  0  0  0  0  0  0  0  0  0  0  0
    3.9810   -0.4014    1.4196 C   0  0  0  0  0  0  0  0  0  0  0  0
    4.2081   -0.7496   -1.1053 C   0  0  0  0  0  0  0  0  0  0  0  0
    3.6756   -2.2585    0.3489 H   0  0  0  0  0  0  0  0  0  0  0  0
    3.4235   -0.7165    2.3227 H   0  0  0  0  0  0  0  0  0  0  0  0
    5.0630   -0.5792    1.5841 H   0  0  0  0  0  0  0  0  0  0  0  0
    3.8211    0.6882    1.2830 H   0  0  0  0  0  0  0  0  0  0  0  0
    3.7915   -1.2846   -1.9806 H   0  0  0  0  0  0  0  0  0  0  0  0
    4.0902    0.3400   -1.2794 H   0  0  0  0  0  0  0  0  0  0  0  0
    5.2924   -0.9698   -1.0344 H   0  0  0  0  0  0  0  0  0  0  0  0
  1  2  1  0  0  0  0
  2  5  1  0  0  0  0
  2  3  1  0  0  0  0
  3  7  1  0  0  0  0
  3  6  1  0  0  0  0
  4 11  1  0  0  0  0
  4  2  1  0  0  0  0
  8  3  1  0  0  0  0
  9  4  1  0  0  0  0
 10  4  1  0  0  0  0
M  END
