1
q = -1.0, confidence = 0.006

 24 26  0  0  0  0  0  0  0  0999 V2000
   -0.0167   -3.1754   -0.0559 N   0  0  0  0  0  1  0  0  0  0  0  0
    1.1824   -3.3298   -0.0284 C   0  0  0  0  0  2  0  0  0  0  0  0
    2.4077   -3.6157   -0.0024 N   0  0  0  0  0  2  0  0  0  0  0  0
    3.1717   -1.2808   -0.0101 C   0  0  0  0  0  0  0  0  0  0  0  0
    2.1368   -0.9037   -0.0271 H   0  0  0  0  0  0  0  0  0  0  0  0
    3.4291   -2.6842    0.0020 C   0  0  0  0  0  0  0  0  0  0  0  0
    4.7813   -3.1202    0.0208 C   0  0  0  0  0  0  0  0  0  0  0  0
    4.9663   -4.2041    0.0303 H   0  0  0  0  0  0  0  0  0  0  0  0
    5.8538   -2.2117    0.0262 C   0  0  0  0  0  0  0  0  0  0  0  0
    6.8874   -2.5909    0.0393 H   0  0  0  0  0  0  0  0  0  0  0  0
    7.8615    0.4879    0.0238 C   0  0  0  0  0  0  0  0  0  0  0  0
    8.5174   -0.3958    0.0382 H   0  0  0  0  0  0  0  0  0  0  0  0
    8.4166    1.7847    0.0171 C   0  0  0  0  0  0  0  0  0  0  0  0
    9.5116    1.9001    0.0263 H   0  0  0  0  0  0  0  0  0  0  0  0
    7.6036    2.9323   -0.0008 C   0  0  0  0  0  0  0  0  0  0  0  0
    8.0668    3.9303   -0.0053 H   0  0  0  0  0  0  0  0  0  0  0  0
    6.2005    2.8020   -0.0127 C   0  0  0  0  0  0  0  0  0  0  0  0
    5.5372    3.6807   -0.0259 H   0  0  0  0  0  0  0  0  0  0  0  0
    4.2114    1.1040   -0.0148 C   0  0  0  0  0  0  0  0  0  0  0  0
    4.2398   -0.3956   -0.0025 C   0  0  0  0  0  0  0  0  0  0  0  0
    5.5900   -0.8357    0.0141 C   0  0  0  0  0  0  0  0  0  0  0  0
    6.4677    0.3529    0.0119 C   0  0  0  0  0  0  0  0  0  0  0  0
    5.6529    1.5196   -0.0067 C   0  0  0  0  0  0  0  0  0  0  0  0
    3.2229    1.8330   -0.0273 O   0  0  0  0  0  0  0  0  0  0  0  0
  1  2  1  0  0  0  0
  2  3  1  0  0  0  0
  3  6  1  0  0  0  0
  4 20  2  0  0  0  0
  4  6  1  0  0  0  0
  5  4  1  0  0  0  0
  6  7  2  0  0  0  0
  7  9  1  0  0  0  0
  7  8  1  0  0  0  0
  9 10  1  0  0  0  0
 11 12  1  0  0  0  0
 13 11  1  0  0  0  0
 13 14  1  0  0  0  0
 15 13  2  0  0  0  0
 16 15  1  0  0  0  0
 17 23  2  0  0  0  0
 17 15  1  0  0  0  0
 18 17  1  0  0  0  0
 19 23  1  0  0  0  0
 19 20  1  0  0  0  0
 20 21  1  0  0  0  0
 21  9  2  0  0  0  0
 22 21  1  0  0  0  0
 22 11  2  0  0  0  0
 23 22  1  0  0  0  0
 24 19  2  0  0  0  0
M  END
