1
q = 0.0, confidence = 0.512

  4  3  0  0  0  0  0  0  0  0999 V2000
    1.1808   -0.7525    1.9146 N   0  0  0  0  0  1  0  0  0  0  0  0
    1.6103   -0.9073    3.1612 N   0  0  0  0  0  0  0  0  0  0  0  0
    1.1456   -1.6511    3.6995 H   0  0  0  0  0  0  0  0  0  0  0  0
    1.7295   -0.0358    3.6952 H   0  0  0  0  0  0  0  0  0  0  0  0
  1  2  1  0  0  0  0
  2  4  1  0  0  0  0
  2  3  1  0  0  0  0
M  END
