3
q = -1.0, confidence = 0.096

 17 17  0  0  0  0  0  0  0  0999 V2000
    6.7496    0.3306    0.0588 O   0  0  0  0  0  0  0  0  0  0  0  0
    7.0882    1.7061   -0.1001 C   0  0  0  0  0  0  0  0  0  0  0  0
    0.4881   -1.0047   -0.0318 N   0  0  0  0  0  1  0  0  0  0  0  0
    1.5398   -1.5723    0.0616 N   0  0  0  0  0  2  0  0  0  0  0  0
    2.8341   -1.0263    0.0555 C   0  0  0  0  0  0  0  0  0  0  0  0
    3.0643    0.3582   -0.1072 C   0  0  0  0  0  0  0  0  0  0  0  0
    4.3687    0.8499   -0.1114 C   0  0  0  0  0  0  0  0  0  0  0  0
    5.4617   -0.0430    0.0490 C   0  0  0  0  0  0  0  0  0  0  0  0
    5.2188   -1.4315    0.2117 C   0  0  0  0  0  0  0  0  0  0  0  0
    3.9191   -1.9195    0.2142 C   0  0  0  0  0  0  0  0  0  0  0  0
    8.1904    1.7564   -0.0577 H   0  0  0  0  0  0  0  0  0  0  0  0
    6.7416    2.0970   -1.0807 H   0  0  0  0  0  0  0  0  0  0  0  0
    6.6619    2.3244    0.7186 H   0  0  0  0  0  0  0  0  0  0  0  0
    2.2103    1.0410   -0.2337 H   0  0  0  0  0  0  0  0  0  0  0  0
    4.5382    1.9267   -0.2412 H   0  0  0  0  0  0  0  0  0  0  0  0
    6.0832   -2.0992    0.3326 H   0  0  0  0  0  0  0  0  0  0  0  0
    3.7148   -2.9924    0.3374 H   0  0  0  0  0  0  0  0  0  0  0  0
  2 11  1  0  0  0  0
  2  1  1  0  0  0  0
  2 13  1  0  0  0  0
  3  4  1  0  0  0  0
  5  4  1  0  0  0  0
  5 10  1  0  0  0  0
  6  5  2  0  0  0  0
  7  6  1  0  0  0  0
  7  8  2  0  0  0  0
  8  1  1  0  0  0  0
  8  9  1  0  0  0  0
  9 10  2  0  0  0  0
  9 16  1  0  0  0  0
 10 17  1  0  0  0  0
 12  2  1  0  0  0  0
 14  6  1  0  0  0  0
 15  7  1  0  0  0  0
M  END
