4
q = 0.0, confidence = 0.518

  4  3  0  0  0  0  0  0  0  0999 V2000
    1.8101    1.5070   -0.2965 S   0  0  0  0  0  0  0  0  0  0  0  0
    3.2308    0.5977   -0.0999 N   0  0  0  0  0  0  0  0  0  0  0  0
    3.0091   -0.9630    0.1864 S   0  0  0  0  0  0  0  0  0  0  0  0
    1.4773   -1.4171    0.2772 N   0  0  0  0  0  0  0  0  0  0  0  0
  1  2  1  0  0  0  0
  2  3  1  0  0  0  0
  3  4  1  0  0  0  0
M  END
