7
q = -1.0, confidence = 0.018

 15 15  0  0  0  0  0  0  0  0999 V2000
   -4.9524    3.4997   -0.0150 O   0  0  0  0  0  0  0  0  0  0  0  0
   -7.9960    0.0224    0.1054 O   0  0  0  0  0  0  0  0  0  0  0  0
   -6.7335    1.9849    0.0640 N   0  0  0  0  0  0  0  0  0  0  0  0
   -7.4963    2.6631    0.1024 H   0  0  0  0  0  0  0  0  0  0  0  0
   -2.9186   -2.2955   -0.1008 N   0  0  0  0  0  0  0  0  0  0  0  0
   -7.1827   -3.2474    0.0333 N   0  0  0  0  0  0  0  0  0  0  0  0
   -2.0600    0.9738   -0.1848 N   0  0  0  0  0  1  0  0  0  0  0  0
   -5.3757    2.3586    0.0020 C   0  0  0  0  0  0  0  0  0  0  0  0
   -4.6276    1.0712   -0.0414 C   0  0  0  0  0  0  0  0  0  0  0  0
   -5.5387   -0.0048   -0.0062 C   0  0  0  0  0  0  0  0  0  0  0  0
   -6.9331    0.6100    0.0619 C   0  0  0  0  0  0  0  0  0  0  0  0
   -5.3500   -1.4000   -0.0200 C   0  0  0  0  0  3  0  0  0  0  0  0
   -6.4055   -2.3658    0.0125 C   0  0  0  0  0  0  0  0  0  0  0  0
   -4.0359   -1.9118   -0.0651 C   0  0  0  0  0  0  0  0  0  0  0  0
   -3.2364    1.0235   -0.1130 C   0  0  0  0  0  2  0  0  0  0  0  0
  1  8  2  0  0  0  0
  3  4  1  0  0  0  0
  5 14  3  0  0  0  0
  7 15  1  0  0  0  0
  8  3  1  0  0  0  0
  9 10  2  0  0  0  0
  9  8  1  0  0  0  0
 10 11  1  0  0  0  0
 11  3  1  0  0  0  0
 11  2  2  0  0  0  0
 12 10  1  0  0  0  0
 12 13  1  0  0  0  0
 13  6  3  0  0  0  0
 14 12  1  0  0  0  0
 15  9  1  0  0  0  0
M  END
