1
q = 0.0, confidence = 0.612

  8  7  0  0  0  0  0  0  0  0999 V2000
    0.2598   -2.2632   -1.0334 N   0  0  0  0  0  1  0  0  0  0  0  0
    0.8648   -3.3932   -1.6381 C   0  0  0  0  0  0  0  0  0  0  0  0
    2.3960   -3.3017   -1.6110 C   0  0  0  0  0  0  0  0  0  0  0  0
    0.5028   -3.4776   -2.6910 H   0  0  0  0  0  0  0  0  0  0  0  0
    0.5238   -4.3206   -1.1181 H   0  0  0  0  0  0  0  0  0  0  0  0
    2.8517   -4.1915   -2.0902 H   0  0  0  0  0  0  0  0  0  0  0  0
    2.7605   -3.2340   -0.5664 H   0  0  0  0  0  0  0  0  0  0  0  0
    2.7373   -2.3939   -2.1472 H   0  0  0  0  0  0  0  0  0  0  0  0
  2  3  1  0  0  0  0
  2  5  1  0  0  0  0
  2  1  1  0  0  0  0
  3  7  1  0  0  0  0
  4  2  1  0  0  0  0
  6  3  1  0  0  0  0
  8  3  1  0  0  0  0
M  END
