3
q = 0.0, confidence = 0.992

 21 20  0  0  1  0  0  0  0  0999 V2000
    2.9567   -0.0478    2.1435 O   0  0  0  0  0  0  0  0  0  0  0  0
    5.1544    0.4796    2.0175 O   0  0  0  0  0  0  0  0  0  0  0  0
    1.2490    1.1582   -0.4979 N   0  0  0  0  0  1  0  0  0  0  0  0
    2.3722    0.9599   -0.2317 C   0  0  0  0  0  2  0  0  0  0  0  0
    3.7882    0.7417    0.0281 C   0  0  1  0  0  0  0  0  0  0  0  0
    4.0659    0.3932    1.4990 C   0  0  0  0  0  0  0  0  0  0  0  0
    4.4081   -0.3316   -0.9731 C   0  0  0  0  0  0  0  0  0  0  0  0
    5.9406   -0.2740   -0.8719 C   0  0  0  0  0  0  0  0  0  0  0  0
    3.9743    0.0377   -2.4032 C   0  0  0  0  0  0  0  0  0  0  0  0
    3.8850   -1.7277   -0.6078 C   0  0  0  0  0  0  0  0  0  0  0  0
    4.3137    1.7035   -0.1616 H   0  0  0  0  0  0  0  0  0  0  0  0
    6.3774   -1.0223   -1.5625 H   0  0  0  0  0  0  0  0  0  0  0  0
    6.3008   -0.4919    0.1502 H   0  0  0  0  0  0  0  0  0  0  0  0
    6.3280    0.7229   -1.1648 H   0  0  0  0  0  0  0  0  0  0  0  0
    4.2663    1.0755   -2.6643 H   0  0  0  0  0  0  0  0  0  0  0  0
    2.8805   -0.0679   -2.5510 H   0  0  0  0  0  0  0  0  0  0  0  0
    4.4722   -0.6394   -3.1249 H   0  0  0  0  0  0  0  0  0  0  0  0
    4.2355   -2.0536    0.3920 H   0  0  0  0  0  0  0  0  0  0  0  0
    4.2501   -2.4711   -1.3436 H   0  0  0  0  0  0  0  0  0  0  0  0
    2.7782   -1.7653   -0.6145 H   0  0  0  0  0  0  0  0  0  0  0  0
    3.2429   -0.2766    3.0566 H   0  0  0  0  0  0  0  0  0  0  0  0
  1 21  1  0  0  0  0
  3  4  1  0  0  0  0
  4  5  1  0  0  0  0
  5 11  1  6  0  0  0
  5  6  1  0  0  0  0
  6  2  2  0  0  0  0
  6  1  1  0  0  0  0
  7  8  1  0  0  0  0
  7 10  1  0  0  0  0
  7  5  1  0  0  0  0
  8 13  1  0  0  0  0
  9  7  1  0  0  0  0
 10 18  1  0  0  0  0
 12  8  1  0  0  0  0
 14  8  1  0  0  0  0
 15  9  1  0  0  0  0
 16  9  1  0  0  0  0
 17  9  1  0  0  0  0
 19 10  1  0  0  0  0
 20 10  1  0  0  0  0
M  END
