4
q = -2.0, confidence = 0.644

 18 18  0  0  0  0  0  0  0  0999 V2000
   -1.3658   -1.0154    1.7952 S   0  0  0  0  0  0  0  0  0  0  0  0
   -1.3715   -0.1857    3.0274 O   0  0  0  0  0  0  0  0  0  0  0  0
   -1.1483   -2.4797    1.9032 O   0  0  0  0  0  0  0  0  0  0  0  0
   -0.2498   -0.4322    0.7235 N   0  0  0  0  0  1  0  0  0  0  0  0
   -2.8837   -0.6868    0.8978 C   0  0  0  0  0  0  0  0  0  0  0  0
   -2.9865   -1.0462   -0.4573 C   0  0  0  0  0  0  0  0  0  0  0  0
   -2.1279   -1.4712   -0.9968 H   0  0  0  0  0  0  0  0  0  0  0  0
   -4.1775   -0.7689   -1.1347 C   0  0  0  0  0  0  0  0  0  0  0  0
   -4.2530   -1.0213   -2.2039 H   0  0  0  0  0  0  0  0  0  0  0  0
   -5.2702   -0.1533   -0.4831 C   0  0  0  0  0  0  0  0  0  0  0  0
   -5.1309    0.1922    0.8766 C   0  0  0  0  0  0  0  0  0  0  0  0
   -5.9682    0.6810    1.3988 H   0  0  0  0  0  0  0  0  0  0  0  0
   -3.9419   -0.0657    1.5739 C   0  0  0  0  0  0  0  0  0  0  0  0
   -3.8176    0.2192    2.6286 H   0  0  0  0  0  0  0  0  0  0  0  0
   -6.5461    0.1256   -1.2343 C   0  0  0  0  0  0  0  0  0  0  0  0
   -7.2599    0.7154   -0.6282 H   0  0  0  0  0  0  0  0  0  0  0  0
   -7.0497   -0.8203   -1.5254 H   0  0  0  0  0  0  0  0  0  0  0  0
   -6.3463    0.6822   -2.1728 H   0  0  0  0  0  0  0  0  0  0  0  0
  1  3  2  0  0  0  0
  1  2  2  0  0  0  0
  4  1  1  0  0  0  0
  5 13  1  0  0  0  0
  5  1  1  0  0  0  0
  6  5  2  0  0  0  0
  7  6  1  0  0  0  0
  8 10  2  0  0  0  0
  8  6  1  0  0  0  0
  9  8  1  0  0  0  0
 10 11  1  0  0  0  0
 11 12  1  0  0  0  0
 11 13  2  0  0  0  0
 13 14  1  0  0  0  0
 15 16  1  0  0  0  0
 15 10  1  0  0  0  0
 17 15  1  0  0  0  0
 18 15  1  0  0  0  0
M  END
