1
q = 0.0, confidence = 0.532

 11 10  0  0  0  0  0  0  0  0999 V2000
    0.6361    1.0927   -0.4752 N   0  0  0  0  0  1  0  0  0  0  0  0
    1.3350    2.0656   -0.9898 N   0  0  0  0  0  0  0  0  0  0  0  0
    1.9175    2.9517   -0.2235 C   0  0  0  0  0  0  0  0  0  0  0  0
    1.7852    2.9774    1.2719 C   0  0  0  0  0  0  0  0  0  0  0  0
    2.7508    3.9959   -0.8976 C   0  0  0  0  0  0  0  0  0  0  0  0
    2.7419    3.2789    1.7426 H   0  0  0  0  0  0  0  0  0  0  0  0
    1.0320    3.7430    1.5646 H   0  0  0  0  0  0  0  0  0  0  0  0
    1.4583    1.9979    1.6750 H   0  0  0  0  0  0  0  0  0  0  0  0
    3.8176    3.8580   -0.6154 H   0  0  0  0  0  0  0  0  0  0  0  0
    2.6599    3.9184   -1.9961 H   0  0  0  0  0  0  0  0  0  0  0  0
    2.4615    5.0157   -0.5658 H   0  0  0  0  0  0  0  0  0  0  0  0
  2  1  1  0  0  0  0
  2  3  2  0  0  0  0
  3  4  1  0  0  0  0
  4  7  1  0  0  0  0
  4  8  1  0  0  0  0
  4  6  1  0  0  0  0
  5  9  1  0  0  0  0
  5 11  1  0  0  0  0
  5  3  1  0  0  0  0
 10  5  1  0  0  0  0
M  END
