1
q = -2.0, confidence = 0.602

 15 15  0  0  0  0  0  0  0  0999 V2000
   -0.2899    0.5041   -0.3063 N   0  0  0  0  0  1  0  0  0  0  0  0
   -1.5971    0.8478   -0.4694 C   0  0  0  0  0  0  0  0  0  0  0  0
   -1.9448    2.0267   -1.1890 C   0  0  0  0  0  0  0  0  0  0  0  0
   -3.2779    2.4017   -1.3698 C   0  0  0  0  0  0  0  0  0  0  0  0
   -4.3174    1.6121   -0.8475 C   0  0  0  0  0  0  0  0  0  0  0  0
   -4.0027    0.4444   -0.1389 C   0  0  0  0  0  0  0  0  0  0  0  0
   -2.6684    0.0560    0.0584 C   0  0  0  0  0  0  0  0  0  0  0  0
   -2.3599   -1.1904    0.8464 C   0  0  0  0  0  0  0  0  0  0  0  0
   -3.4826   -1.8166    1.2732 F   0  0  0  0  0  0  0  0  0  0  0  0
   -1.6005   -0.9455    1.9352 F   0  0  0  0  0  0  0  0  0  0  0  0
   -1.6740   -2.1190    0.0946 F   0  0  0  0  0  0  0  0  0  0  0  0
   -1.1226    2.6257   -1.6074 H   0  0  0  0  0  0  0  0  0  0  0  0
   -3.5118    3.3193   -1.9316 H   0  0  0  0  0  0  0  0  0  0  0  0
   -5.3680    1.9028   -0.9915 H   0  0  0  0  0  0  0  0  0  0  0  0
   -4.8030   -0.1831    0.2776 H   0  0  0  0  0  0  0  0  0  0  0  0
  2  1  1  0  0  0  0
  2  7  1  0  0  0  0
  3  2  2  0  0  0  0
  4  3  1  0  0  0  0
  4  5  2  0  0  0  0
  5  6  1  0  0  0  0
  6  7  2  0  0  0  0
  6 15  1  0  0  0  0
  7  8  1  0  0  0  0
  8  9  1  0  0  0  0
  8 10  1  0  0  0  0
 11  8  1  0  0  0  0
 12  3  1  0  0  0  0
 13  4  1  0  0  0  0
 14  5  1  0  0  0  0
M  END
