1
q = 0.0, confidence = 0.804

 15 15  0  0  0  0  0  0  0  0999 V2000
    0.4568   -0.5617   -1.3963 N   0  0  0  0  0  1  0  0  0  0  0  0
    1.4998   -1.1576   -1.8059 N   0  0  0  0  0  0  0  0  0  0  0  0
    2.5547   -1.8050   -0.9894 C   0  0  0  0  0  0  0  0  0  0  0  0
    3.8919   -1.0923   -1.2487 C   0  0  0  0  0  0  0  0  0  0  0  0
    4.2175   -1.0811   -2.6209 O   0  0  0  0  0  0  0  0  0  0  0  0
    3.2288   -0.4094   -3.3788 C   0  0  0  0  0  0  0  0  0  0  0  0
    1.8621   -1.0929   -3.2371 C   0  0  0  0  0  0  0  0  0  0  0  0
    2.2549   -1.7459    0.0694 H   0  0  0  0  0  0  0  0  0  0  0  0
    2.6286   -2.8701   -1.2944 H   0  0  0  0  0  0  0  0  0  0  0  0
    4.7099   -1.6213   -0.7201 H   0  0  0  0  0  0  0  0  0  0  0  0
    3.8284   -0.0514   -0.8424 H   0  0  0  0  0  0  0  0  0  0  0  0
    3.1366    0.6569   -3.0546 H   0  0  0  0  0  0  0  0  0  0  0  0
    3.5566   -0.4252   -4.4367 H   0  0  0  0  0  0  0  0  0  0  0  0
    1.9152   -2.1288   -3.6346 H   0  0  0  0  0  0  0  0  0  0  0  0
    1.0589   -0.5335   -3.7504 H   0  0  0  0  0  0  0  0  0  0  0  0
  2  1  1  0  0  0  0
  2  3  1  0  0  0  0
  3  8  1  0  0  0  0
  4  3  1  0  0  0  0
  4 11  1  0  0  0  0
  4 10  1  0  0  0  0
  5  4  1  0  0  0  0
  6  7  1  0  0  0  0
  6 12  1  0  0  0  0
  6  5  1  0  0  0  0
  7  2  1  0  0  0  0
  9  3  1  0  0  0  0
 13  6  1  0  0  0  0
 14  7  1  0  0  0  0
 15  7  1  0  0  0  0
M  END
