4
q = 0.0, confidence = 0.966

 21 22  0  0  0  0  0  0  0  0999 V2000
   -3.5304   -0.3176    0.6192 S   0  0  0  0  0  0  0  0  0  0  0  0
   -9.2620   -1.0626   -0.5036 S   0  0  0  0  0  0  0  0  0  0  0  0
   -0.8559   -0.9531    0.6641 C   0  0  0  0  0  2  0  0  0  0  0  0
    0.2297   -0.5613    0.9181 N   0  0  0  0  0  1  0  0  0  0  0  0
   -2.1466   -1.3710    0.3356 C   0  0  0  0  0  0  0  0  0  0  0  0
   -4.6298   -1.4971   -0.0635 C   0  0  0  0  0  0  0  0  0  0  0  0
   -2.5416   -2.5753   -0.2667 C   0  0  0  0  0  0  0  0  0  0  0  0
   -1.8197   -3.3603   -0.5291 H   0  0  0  0  0  0  0  0  0  0  0  0
   -6.7166   -0.1567    0.2667 C   0  0  0  0  0  0  0  0  0  0  0  0
   -3.9299   -2.6400   -0.4884 C   0  0  0  0  0  0  0  0  0  0  0  0
   -4.4415   -3.4961   -0.9486 H   0  0  0  0  0  0  0  0  0  0  0  0
   -8.1287    0.0872    0.1879 C   0  0  0  0  0  0  0  0  0  0  0  0
   -8.8090    1.2278    0.6306 C   0  0  0  0  0  0  0  0  0  0  0  0
   -8.2895    2.0747    1.1005 H   0  0  0  0  0  0  0  0  0  0  0  0
   -6.0464   -1.2758   -0.1547 C   0  0  0  0  0  0  0  0  0  0  0  0
  -10.2100    1.1680    0.4141 C   0  0  0  0  0  0  0  0  0  0  0  0
  -10.9160    1.9617    0.6923 H   0  0  0  0  0  0  0  0  0  0  0  0
  -10.6001   -0.0153   -0.1932 C   0  0  0  0  0  0  0  0  0  0  0  0
  -11.6120   -0.3307   -0.4768 H   0  0  0  0  0  0  0  0  0  0  0  0
   -6.1389    0.6670    0.7240 H   0  0  0  0  0  0  0  0  0  0  0  0
   -6.6142   -2.1053   -0.6097 H   0  0  0  0  0  0  0  0  0  0  0  0
  2 18  1  0  0  0  0
  2 12  1  0  0  0  0
  3  4  1  0  0  0  0
  5  1  1  0  0  0  0
  5  3  1  0  0  0  0
  6  1  1  0  0  0  0
  7  5  2  0  0  0  0
  8  7  1  0  0  0  0
  9 20  1  0  0  0  0
 10  7  1  0  0  0  0
 10  6  2  0  0  0  0
 11 10  1  0  0  0  0
 12  9  1  0  0  0  0
 12 13  2  0  0  0  0
 13 14  1  0  0  0  0
 15  6  1  0  0  0  0
 15  9  2  0  0  0  0
 16 13  1  0  0  0  0
 16 17  1  0  0  0  0
 18 16  2  0  0  0  0
 19 18  1  0  0  0  0
 21 15  1  0  0  0  0
M  END
