2
q = 0.0, confidence = 0.98

 13 12  0  0  0  0  0  0  0  0999 V2000
   -4.3410    1.9463   -0.0707 S   0  0  0  0  0  0  0  0  0  0  0  0
   -1.6634    0.9746   -0.0228 N   0  0  0  0  0  1  0  0  0  0  0  0
   -2.7491    1.4218   -0.0457 C   0  0  0  0  0  2  0  0  0  0  0  0
   -5.6309   -2.0773    0.0311 C   0  0  0  0  0  0  0  0  0  0  0  0
   -5.4258   -2.9306   -0.6447 H   0  0  0  0  0  0  0  0  0  0  0  0
   -5.2907   -2.3721    1.0450 H   0  0  0  0  0  0  0  0  0  0  0  0
   -6.7306   -1.9304    0.0678 H   0  0  0  0  0  0  0  0  0  0  0  0
   -5.1621    0.3603    0.4626 C   0  0  0  0  0  0  0  0  0  0  0  0
   -6.2322    0.6580    0.4793 H   0  0  0  0  0  0  0  0  0  0  0  0
   -4.8431    0.1674    1.5066 H   0  0  0  0  0  0  0  0  0  0  0  0
   -4.8960   -0.8256   -0.4553 C   0  0  0  0  0  0  0  0  0  0  0  0
   -5.2056   -0.5655   -1.4897 H   0  0  0  0  0  0  0  0  0  0  0  0
   -3.8042   -1.0368   -0.4802 H   0  0  0  0  0  0  0  0  0  0  0  0
  1  3  1  0  0  0  0
  1  8  1  0  0  0  0
  3  2  1  0  0  0  0
  4  7  1  0  0  0  0
  4  6  1  0  0  0  0
  5  4  1  0  0  0  0
  8  9  1  0  0  0  0
  8 10  1  0  0  0  0
 11  4  1  0  0  0  0
 11  8  1  0  0  0  0
 12 11  1  0  0  0  0
 13 11  1  0  0  0  0
M  END
