1
q = -1.0, confidence = 0.022

 33 32  0  0  0  0  0  0  0  0999 V2000
   -1.1428   -0.4561   -0.1139 N   0  0  0  0  0  1  0  0  0  0  0  0
   -2.8651    1.1637    0.1138 N   0  0  0  0  0  4  0  0  0  0  0  0
   -2.4743   -0.3402   -0.0660 C   0  0  0  0  0  0  0  0  0  0  0  0
   -3.3558   -1.3973   -0.1223 C   0  0  0  0  0  0  0  0  0  0  0  0
   -2.7419   -2.7475   -0.4113 C   0  0  0  0  0  0  0  0  0  0  0  0
   -1.7113   -2.6855   -0.8024 H   0  0  0  0  0  0  0  0  0  0  0  0
   -3.3733   -3.3009   -1.1391 H   0  0  0  0  0  0  0  0  0  0  0  0
   -2.7093   -3.3665    0.5135 H   0  0  0  0  0  0  0  0  0  0  0  0
   -4.8451   -1.4649    0.1447 C   0  0  0  0  0  0  0  0  0  0  0  0
   -5.1733   -0.9070    1.0426 H   0  0  0  0  0  0  0  0  0  0  0  0
   -5.1190   -2.5228    0.3224 H   0  0  0  0  0  0  0  0  0  0  0  0
   -5.4727   -1.1269   -0.7085 H   0  0  0  0  0  0  0  0  0  0  0  0
   -2.0867    1.9672   -0.9312 C   0  0  0  0  0  0  0  0  0  0  0  0
   -2.3168    3.0289   -0.7248 H   0  0  0  0  0  0  0  0  0  0  0  0
   -1.0188    1.8131   -0.6983 H   0  0  0  0  0  0  0  0  0  0  0  0
   -2.3859    1.5708   -2.3626 C   0  0  0  0  0  0  0  0  0  0  0  0
   -2.1779    0.4961   -2.5256 H   0  0  0  0  0  0  0  0  0  0  0  0
   -1.6937    2.1296   -3.0212 H   0  0  0  0  0  0  0  0  0  0  0  0
   -3.4232    1.7975   -2.6814 H   0  0  0  0  0  0  0  0  0  0  0  0
   -4.3463    1.4309   -0.0399 C   0  0  0  0  0  0  0  0  0  0  0  0
   -4.6686    0.8684   -0.9321 H   0  0  0  0  0  0  0  0  0  0  0  0
   -4.8343    0.9747    0.8350 H   0  0  0  0  0  0  0  0  0  0  0  0
   -4.7591    2.8926   -0.1546 C   0  0  0  0  0  0  0  0  0  0  0  0
   -4.4003    3.5130    0.6897 H   0  0  0  0  0  0  0  0  0  0  0  0
   -5.8663    2.9304   -0.1340 H   0  0  0  0  0  0  0  0  0  0  0  0
   -4.4333    3.3632   -1.1011 H   0  0  0  0  0  0  0  0  0  0  0  0
   -2.3689    1.6137    1.4892 C   0  0  0  0  0  0  0  0  0  0  0  0
   -1.2647    1.6709    1.4079 H   0  0  0  0  0  0  0  0  0  0  0  0
   -2.7496    2.6444    1.6261 H   0  0  0  0  0  0  0  0  0  0  0  0
   -2.7699    0.6997    2.6312 C   0  0  0  0  0  0  0  0  0  0  0  0
   -3.8669    0.5811    2.7419 H   0  0  0  0  0  0  0  0  0  0  0  0
   -2.3904    1.1454    3.5715 H   0  0  0  0  0  0  0  0  0  0  0  0
   -2.3015   -0.2976    2.5275 H   0  0  0  0  0  0  0  0  0  0  0  0
  1  3  1  0  0  0  0
  2 27  1  0  0  0  0
  3  2  1  0  0  0  0
  4  3  2  0  0  0  0
  4  9  1  0  0  0  0
  5  4  1  0  0  0  0
  5  8  1  0  0  0  0
  6  5  1  0  0  0  0
  7  5  1  0  0  0  0
  9 11  1  0  0  0  0
  9 10  1  0  0  0  0
 12  9  1  0  0  0  0
 13 14  1  0  0  0  0
 13 15  1  0  0  0  0
 13  2  1  0  0  0  0
 16 13  1  0  0  0  0
 17 16  1  0  0  0  0
 18 16  1  0  0  0  0
 19 16  1  0  0  0  0
 20  2  1  0  0  0  0
 20 22  1  0  0  0  0
 21 20  1  0  0  0  0
 23 25  1  0  0  0  0
 23 20  1  0  0  0  0
 23 24  1  0  0  0  0
 26 23  1  0  0  0  0
 27 29  1  0  0  0  0
 27 30  1  0  0  0  0
 28 27  1  0  0  0  0
 30 31  1  0  0  0  0
 30 32  1  0  0  0  0
 33 30  1  0  0  0  0
M  END
