1
q = -1.0, confidence = 0.118

  5  6  0  0  1  0  0  0  0  0999 V2000
   -3.5274   -0.6662   -1.0927 N   0  0  0  0  0  0  0  0  0  0  0  0
   -4.4517   -1.5643   -0.8507 C   0  0  2  0  0  0  0  0  0  0  0  0
   -4.4629   -2.7991    0.0007 C   0  0  0  0  0  0  0  0  0  0  0  0
   -5.9350   -1.5668   -0.8789 C   0  0  0  0  0  0  0  0  0  0  0  0
   -5.4927   -1.9524    0.4412 C   0  0  2  0  0  0  0  0  0  0  0  0
  2  1  1  6  0  0  0
  2  3  1  0  0  0  0
  2  5  1  0  0  0  0
  3  5  1  0  0  0  0
  4  2  1  0  0  0  0
  5  4  1  6  0  0  0
M  END
