6
q = 0.0, confidence = 0.836

 13 13  0  0  0  0  0  0  0  0999 V2000
    2.6558   -2.0135   -1.4694 F   0  0  0  0  0  0  0  0  0  0  0  0
    5.3458   -1.7243   -1.3490 F   0  0  0  0  0  0  0  0  0  0  0  0
    6.4386    0.5177   -0.2221 F   0  0  0  0  0  0  0  0  0  0  0  0
    4.8190    2.4795    0.7847 F   0  0  0  0  0  0  0  0  0  0  0  0
    2.1327    2.2150    0.6798 F   0  0  0  0  0  0  0  0  0  0  0  0
    0.0248   -0.5792   -1.2687 N   0  0  0  0  0  0  0  0  0  0  0  0
    0.8487   -0.1158   -0.3929 C   0  0  0  0  0  0  0  0  0  0  0  0
    2.2917    0.0723   -0.3627 C   0  0  0  0  0  0  0  0  0  0  0  0
    3.1568   -0.9057   -0.9077 C   0  0  0  0  0  0  0  0  0  0  0  0
    4.5512   -0.7739   -0.8493 C   0  0  0  0  0  0  0  0  0  0  0  0
    5.1144    0.3773   -0.2704 C   0  0  0  0  0  0  0  0  0  0  0  0
    4.2811    1.3789    0.2561 C   0  0  0  0  0  0  0  0  0  0  0  0
    2.8873    1.2213    0.2061 C   0  0  0  0  0  0  0  0  0  0  0  0
  1  9  1  0  0  0  0
  2 10  1  0  0  0  0
  6  7  1  0  0  0  0
  7  8  1  0  0  0  0
  8 13  1  0  0  0  0
  9 10  1  0  0  0  0
  9  8  2  0  0  0  0
 10 11  2  0  0  0  0
 11  3  1  0  0  0  0
 11 12  1  0  0  0  0
 12  4  1  0  0  0  0
 13 12  2  0  0  0  0
 13  5  1  0  0  0  0
M  END
