1
q = 0.0, confidence = 0.994

 29 28  0  0  0  0  0  0  0  0999 V2000
   -1.2271   -0.8159    0.1935 N   0  0  0  0  0  1  0  0  0  0  0  0
   -2.3108   -0.4014    0.1266 N   0  0  0  0  0  2  0  0  0  0  0  0
   -3.5139    0.0665    0.0441 C   0  0  0  0  0  3  0  0  0  0  0  0
   -3.9263    1.5369    1.1729 Si  0  0  0  0  0  0  0  0  0  0  0  0
   -2.2997    2.1072    1.9469 C   0  0  0  0  0  0  0  0  0  0  0  0
   -5.1293    0.9914    2.5274 C   0  0  0  0  0  0  0  0  0  0  0  0
   -4.7178    2.9017    0.1295 C   0  0  0  0  0  0  0  0  0  0  0  0
   -4.6646   -0.7779   -1.2070 Si  0  0  0  0  0  0  0  0  0  0  0  0
   -3.9943   -2.5192   -1.5000 C   0  0  0  0  0  0  0  0  0  0  0  0
   -4.6642    0.1953   -2.8327 C   0  0  0  0  0  0  0  0  0  0  0  0
   -6.4178   -0.8125   -0.5011 C   0  0  0  0  0  0  0  0  0  0  0  0
   -2.4716    2.9563    2.6397 H   0  0  0  0  0  0  0  0  0  0  0  0
   -1.5814    2.4365    1.1698 H   0  0  0  0  0  0  0  0  0  0  0  0
   -1.8304    1.2863    2.5284 H   0  0  0  0  0  0  0  0  0  0  0  0
   -5.3556    1.8380    3.2093 H   0  0  0  0  0  0  0  0  0  0  0  0
   -4.6927    0.1708    3.1321 H   0  0  0  0  0  0  0  0  0  0  0  0
   -6.0870    0.6305    2.1028 H   0  0  0  0  0  0  0  0  0  0  0  0
   -4.9922    3.7711    0.7622 H   0  0  0  0  0  0  0  0  0  0  0  0
   -5.6421    2.5433   -0.3684 H   0  0  0  0  0  0  0  0  0  0  0  0
   -4.0137    3.2480   -0.6532 H   0  0  0  0  0  0  0  0  0  0  0  0
   -4.5985   -3.0543   -2.2610 H   0  0  0  0  0  0  0  0  0  0  0  0
   -4.0068   -3.1180   -0.5667 H   0  0  0  0  0  0  0  0  0  0  0  0
   -2.9461   -2.4880   -1.8641 H   0  0  0  0  0  0  0  0  0  0  0  0
   -5.4013   -0.2262   -3.5478 H   0  0  0  0  0  0  0  0  0  0  0  0
   -3.6649    0.1528   -3.3121 H   0  0  0  0  0  0  0  0  0  0  0  0
   -4.9192    1.2607   -2.6621 H   0  0  0  0  0  0  0  0  0  0  0  0
   -7.1063   -1.3090   -1.2159 H   0  0  0  0  0  0  0  0  0  0  0  0
   -6.8044    0.2115   -0.3215 H   0  0  0  0  0  0  0  0  0  0  0  0
   -6.4551   -1.3687    0.4569 H   0  0  0  0  0  0  0  0  0  0  0  0
  2  1  1  0  0  0  0
  3  2  1  0  0  0  0
  3  4  1  0  0  0  0
  4  5  1  0  0  0  0
  4  6  1  0  0  0  0
  5 14  1  0  0  0  0
  5 12  1  0  0  0  0
  6 16  1  0  0  0  0
  6 15  1  0  0  0  0
  7 18  1  0  0  0  0
  7  4  1  0  0  0  0
  8 11  1  0  0  0  0
  8  3  1  0  0  0  0
  9  8  1  0  0  0  0
  9 22  1  0  0  0  0
 10 26  1  0  0  0  0
 10  8  1  0  0  0  0
 11 28  1  0  0  0  0
 11 29  1  0  0  0  0
 13  5  1  0  0  0  0
 17  6  1  0  0  0  0
 19  7  1  0  0  0  0
 20  7  1  0  0  0  0
 21  9  1  0  0  0  0
 23  9  1  0  0  0  0
 24 10  1  0  0  0  0
 25 10  1  0  0  0  0
 27 11  1  0  0  0  0
M  END
