1
q = -1.0, confidence = 0.004

 36 38  0  0  0  0  0  0  0  0999 V2000
    1.6771   -0.1727    1.2330 N   0  0  0  0  0  0  0  0  0  0  0  0
    0.5589   -0.1394    0.8897 C   0  0  0  0  0  0  0  0  0  0  0  0
   -0.8238    0.0339    0.0983 B   0  0  0  0  0  0  0  0  0  0  0  0
   -1.9357   -1.0629    0.5568 C   0  0  0  0  0  0  0  0  0  0  0  0
   -1.8249   -1.8729    1.6947 C   0  0  0  0  0  0  0  0  0  0  0  0
   -0.7700   -1.7423    2.5285 F   0  0  0  0  0  0  0  0  0  0  0  0
   -2.7800   -2.8443    2.0410 C   0  0  0  0  0  0  0  0  0  0  0  0
   -2.6271   -3.5981    3.1374 F   0  0  0  0  0  0  0  0  0  0  0  0
   -3.9068   -3.0178    1.2230 C   0  0  0  0  0  0  0  0  0  0  0  0
   -4.8292   -3.9336    1.5349 F   0  0  0  0  0  0  0  0  0  0  0  0
   -4.0648   -2.2186    0.0780 C   0  0  0  0  0  0  0  0  0  0  0  0
   -3.0819   -1.2656   -0.2286 C   0  0  0  0  0  0  0  0  0  0  0  0
   -3.2877   -0.5025   -1.3196 F   0  0  0  0  0  0  0  0  0  0  0  0
   -5.1443   -2.3716   -0.6980 F   0  0  0  0  0  0  0  0  0  0  0  0
   -0.3601   -0.2865   -1.4606 C   0  0  0  0  0  0  0  0  0  0  0  0
   -0.7027    0.4963   -2.5770 C   0  0  0  0  0  0  0  0  0  0  0  0
   -1.5032    1.5654   -2.4520 F   0  0  0  0  0  0  0  0  0  0  0  0
   -0.2347    0.2250   -3.8765 C   0  0  0  0  0  0  0  0  0  0  0  0
   -0.5859    1.0053   -4.9040 F   0  0  0  0  0  0  0  0  0  0  0  0
    0.6113   -0.8738   -4.0968 C   0  0  0  0  0  0  0  0  0  0  0  0
    1.0760   -1.1358   -5.3214 F   0  0  0  0  0  0  0  0  0  0  0  0
    0.9588   -1.6955   -3.0138 C   0  0  0  0  0  0  0  0  0  0  0  0
    0.4504   -1.4001   -1.7399 C   0  0  0  0  0  0  0  0  0  0  0  0
    0.8191   -2.2461   -0.7482 F   0  0  0  0  0  0  0  0  0  0  0  0
    1.7894   -2.7382   -3.1906 F   0  0  0  0  0  0  0  0  0  0  0  0
   -1.2136    1.6102    0.3583 C   0  0  0  0  0  0  0  0  0  0  0  0
   -2.3955    2.0562    0.9727 C   0  0  0  0  0  0  0  0  0  0  0  0
   -3.3359    1.1921    1.3905 F   0  0  0  0  0  0  0  0  0  0  0  0
   -2.6747    3.4185    1.1957 C   0  0  0  0  0  0  0  0  0  0  0  0
   -3.8184    3.7910    1.7803 F   0  0  0  0  0  0  0  0  0  0  0  0
   -1.7401    4.3913    0.8122 C   0  0  0  0  0  0  0  0  0  0  0  0
   -1.9883    5.6869    1.0225 F   0  0  0  0  0  0  0  0  0  0  0  0
   -0.5387    3.9910    0.2048 C   0  0  0  0  0  0  0  0  0  0  0  0
   -0.3074    2.6242    0.0037 C   0  0  0  0  0  0  0  0  0  0  0  0
    0.8734    2.3015   -0.5896 F   0  0  0  0  0  0  0  0  0  0  0  0
    0.3673    4.9073   -0.1630 F   0  0  0  0  0  0  0  0  0  0  0  0
  2  1  1  0  0  0  0
  3 26  1  0  0  0  0
  3  4  1  0  0  0  0
  3  2  1  0  0  0  0
  4  5  1  0  0  0  0
  5  7  2  0  0  0  0
  5  6  1  0  0  0  0
  7  8  1  0  0  0  0
  9 10  1  0  0  0  0
  9  7  1  0  0  0  0
 11  9  2  0  0  0  0
 12 11  1  0  0  0  0
 12  4  2  0  0  0  0
 13 12  1  0  0  0  0
 14 11  1  0  0  0  0
 15  3  1  0  0  0  0
 16 17  1  0  0  0  0
 16 15  2  0  0  0  0
 18 16  1  0  0  0  0
 19 18  1  0  0  0  0
 20 18  2  0  0  0  0
 20 22  1  0  0  0  0
 21 20  1  0  0  0  0
 22 23  2  0  0  0  0
 23 15  1  0  0  0  0
 23 24  1  0  0  0  0
 25 22  1  0  0  0  0
 26 27  1  0  0  0  0
 27 29  2  0  0  0  0
 27 28  1  0  0  0  0
 29 30  1  0  0  0  0
 31 32  1  0  0  0  0
 31 29  1  0  0  0  0
 33 31  2  0  0  0  0
 34 33  1  0  0  0  0
 34 26  2  0  0  0  0
 35 34  1  0  0  0  0
 36 33  1  0  0  0  0
M  END
