1
q = -1.0, confidence = 0.0

 36 38  0  0  0  0  0  0  0  0999 V2000
   -0.2329   -0.6658   -0.6051 N   0  0  0  0  0  1  0  0  0  0  0  0
    0.8988   -0.3704   -0.4794 C   0  0  0  0  0  2  0  0  0  0  0  0
    3.4608   -0.9879   -0.4767 C   0  0  0  0  0  0  0  0  0  0  0  0
    4.6212   -1.2069    0.3005 C   0  0  0  0  0  0  0  0  0  0  0  0
    5.6277   -2.0984   -0.1072 C   0  0  0  0  0  0  0  0  0  0  0  0
    5.4960   -2.8082   -1.3111 C   0  0  0  0  0  0  0  0  0  0  0  0
    4.3520   -2.6118   -2.1016 C   0  0  0  0  0  0  0  0  0  0  0  0
    3.3573   -1.7128   -1.6854 C   0  0  0  0  0  0  0  0  0  0  0  0
    2.0861    0.1912    1.5920 C   0  0  0  0  0  0  0  0  0  0  0  0
    1.7617    1.4007    2.2463 C   0  0  0  0  0  0  0  0  0  0  0  0
    1.4364    1.4363    3.6139 C   0  0  0  0  0  0  0  0  0  0  0  0
    1.4215    0.2520    4.3682 C   0  0  0  0  0  0  0  0  0  0  0  0
    1.7453   -0.9638    3.7425 C   0  0  0  0  0  0  0  0  0  0  0  0
    2.0701   -0.9870    2.3768 C   0  0  0  0  0  0  0  0  0  0  0  0
    2.6296    1.5864   -0.6934 C   0  0  0  0  0  0  0  0  0  0  0  0
    1.5887    2.4859   -1.0249 C   0  0  0  0  0  0  0  0  0  0  0  0
    1.8528    3.7738   -1.5203 C   0  0  0  0  0  0  0  0  0  0  0  0
    3.1776    4.2022   -1.6984 C   0  0  0  0  0  0  0  0  0  0  0  0
    4.2284    3.3269   -1.3794 C   0  0  0  0  0  0  0  0  0  0  0  0
    3.9531    2.0401   -0.8897 C   0  0  0  0  0  0  0  0  0  0  0  0
    2.3477    0.1151   -0.0381 B   0  0  0  0  0  0  0  0  0  0  0  0
    4.7361   -0.6666    1.2543 H   0  0  0  0  0  0  0  0  0  0  0  0
    6.5212   -2.2419    0.5214 H   0  0  0  0  0  0  0  0  0  0  0  0
    6.2808   -3.5109   -1.6323 H   0  0  0  0  0  0  0  0  0  0  0  0
    4.2367   -3.1614   -3.0497 H   0  0  0  0  0  0  0  0  0  0  0  0
    2.4719   -1.5615   -2.3270 H   0  0  0  0  0  0  0  0  0  0  0  0
    1.7671    2.3374    1.6664 H   0  0  0  0  0  0  0  0  0  0  0  0
    1.1955    2.3979    4.0953 H   0  0  0  0  0  0  0  0  0  0  0  0
    1.1665    0.2760    5.4392 H   0  0  0  0  0  0  0  0  0  0  0  0
    1.7454   -1.8993    4.3249 H   0  0  0  0  0  0  0  0  0  0  0  0
    2.3275   -1.9476    1.8999 H   0  0  0  0  0  0  0  0  0  0  0  0
    0.5388    2.1747   -0.8936 H   0  0  0  0  0  0  0  0  0  0  0  0
    1.0172    4.4476   -1.7708 H   0  0  0  0  0  0  0  0  0  0  0  0
    3.3905    5.2104   -2.0873 H   0  0  0  0  0  0  0  0  0  0  0  0
    5.2732    3.6477   -1.5189 H   0  0  0  0  0  0  0  0  0  0  0  0
    4.7908    1.3633   -0.6577 H   0  0  0  0  0  0  0  0  0  0  0  0
  1  2  1  0  0  0  0
  2 21  1  0  0  0  0
  3 21  1  0  0  0  0
  3  4  1  0  0  0  0
  4 22  1  0  0  0  0
  5  4  2  0  0  0  0
  5 23  1  0  0  0  0
  6  5  1  0  0  0  0
  7  8  1  0  0  0  0
  7  6  2  0  0  0  0
  8  3  2  0  0  0  0
  9 10  2  0  0  0  0
  9 14  1  0  0  0  0
 10 11  1  0  0  0  0
 11 28  1  0  0  0  0
 11 12  2  0  0  0  0
 12 29  1  0  0  0  0
 13 30  1  0  0  0  0
 13 12  1  0  0  0  0
 14 13  2  0  0  0  0
 15 21  1  0  0  0  0
 16 32  1  0  0  0  0
 16 15  2  0  0  0  0
 17 16  1  0  0  0  0
 18 17  2  0  0  0  0
 18 19  1  0  0  0  0
 19 20  2  0  0  0  0
 20 15  1  0  0  0  0
 20 36  1  0  0  0  0
 21  9  1  0  0  0  0
 24  6  1  0  0  0  0
 25  7  1  0  0  0  0
 26  8  1  0  0  0  0
 27 10  1  0  0  0  0
 31 14  1  0  0  0  0
 33 17  1  0  0  0  0
 34 18  1  0  0  0  0
 35 19  1  0  0  0  0
M  END
