2
q = 0.0, confidence = 0.552

 40 41  0  0  1  0  0  0  0  0999 V2000
   -1.7833   -0.9940    0.5718 N   0  0  0  0  0  0  0  0  0  0  0  0
    0.3050    0.1446    0.8078 N   0  0  0  0  0  1  0  0  0  0  0  0
   -2.7380   -0.5978   -0.2129 C   0  0  0  0  0  0  0  0  0  0  0  0
   -2.7966    0.8860   -0.3385 C   0  0  0  0  0  0  0  0  0  0  0  0
   -3.5745    1.7704   -1.1071 C   0  0  0  0  0  0  0  0  0  0  0  0
   -3.2786    3.1438   -1.0633 C   0  0  0  0  0  0  0  0  0  0  0  0
   -2.2182    3.6243   -0.2730 C   0  0  0  0  0  0  0  0  0  0  0  0
   -1.4452    2.7416    0.5042 C   0  0  0  0  0  0  0  0  0  0  0  0
   -1.7560    1.3795    0.4791 C   0  0  0  0  0  0  0  0  0  0  0  0
   -1.0761    0.1838    1.1438 C   0  0  1  0  0  0  0  0  0  0  0  0
   -1.2884    0.1455    2.7309 C   0  0  0  0  0  0  0  0  0  0  0  0
   -0.5990    1.3632    3.3674 C   0  0  0  0  0  0  0  0  0  0  0  0
   -2.7870    0.1649    3.0708 C   0  0  0  0  0  0  0  0  0  0  0  0
   -0.6490   -1.1434    3.2717 C   0  0  0  0  0  0  0  0  0  0  0  0
   -3.6629   -1.5872   -0.9126 C   0  0  0  0  0  0  0  0  0  0  0  0
   -5.1180   -1.3035   -0.4743 C   0  0  0  0  0  0  0  0  0  0  0  0
   -3.5258   -1.4284   -2.4444 C   0  0  0  0  0  0  0  0  0  0  0  0
   -3.2912   -3.0264   -0.5207 C   0  0  0  0  0  0  0  0  0  0  0  0
   -4.3931    1.4097   -1.7459 H   0  0  0  0  0  0  0  0  0  0  0  0
   -3.8737    3.8478   -1.6643 H   0  0  0  0  0  0  0  0  0  0  0  0
   -1.9865    4.7005   -0.2701 H   0  0  0  0  0  0  0  0  0  0  0  0
   -0.5950    3.1095    1.0957 H   0  0  0  0  0  0  0  0  0  0  0  0
   -1.1402    2.3045    3.1491 H   0  0  0  0  0  0  0  0  0  0  0  0
    0.4406    1.4599    2.9989 H   0  0  0  0  0  0  0  0  0  0  0  0
   -0.5712    1.2456    4.4700 H   0  0  0  0  0  0  0  0  0  0  0  0
   -3.3046   -0.7281    2.6687 H   0  0  0  0  0  0  0  0  0  0  0  0
   -3.2886    1.0687    2.6697 H   0  0  0  0  0  0  0  0  0  0  0  0
   -2.9212    0.1661    4.1721 H   0  0  0  0  0  0  0  0  0  0  0  0
   -1.1570   -2.0385    2.8661 H   0  0  0  0  0  0  0  0  0  0  0  0
   -0.7212   -1.1668    4.3785 H   0  0  0  0  0  0  0  0  0  0  0  0
    0.4179   -1.1971    2.9816 H   0  0  0  0  0  0  0  0  0  0  0  0
   -5.8082   -2.0211   -0.9636 H   0  0  0  0  0  0  0  0  0  0  0  0
   -5.4476   -0.2805   -0.7402 H   0  0  0  0  0  0  0  0  0  0  0  0
   -5.2272   -1.4178    0.6231 H   0  0  0  0  0  0  0  0  0  0  0  0
   -3.7899   -0.4110   -2.7913 H   0  0  0  0  0  0  0  0  0  0  0  0
   -4.1942   -2.1478   -2.9604 H   0  0  0  0  0  0  0  0  0  0  0  0
   -2.4870   -1.6359   -2.7712 H   0  0  0  0  0  0  0  0  0  0  0  0
   -3.3631   -3.1726    0.5742 H   0  0  0  0  0  0  0  0  0  0  0  0
   -2.2510   -3.2665   -0.8128 H   0  0  0  0  0  0  0  0  0  0  0  0
   -3.9740   -3.7424   -1.0218 H   0  0  0  0  0  0  0  0  0  0  0  0
  1 10  1  0  0  0  0
  3  1  2  0  0  0  0
  4  3  1  0  0  0  0
  4  9  1  0  0  0  0
  5  6  1  0  0  0  0
  5  4  2  0  0  0  0
  6  7  2  0  0  0  0
  7 21  1  0  0  0  0
  7  8  1  0  0  0  0
  8 22  1  0  0  0  0
  9  8  2  0  0  0  0
  9 10  1  0  0  0  0
 10  2  1  6  0  0  0
 10 11  1  0  0  0  0
 11 13  1  0  0  0  0
 11 14  1  0  0  0  0
 11 12  1  0  0  0  0
 12 25  1  0  0  0  0
 13 28  1  0  0  0  0
 14 30  1  0  0  0  0
 15 18  1  0  0  0  0
 15 16  1  0  0  0  0
 15  3  1  0  0  0  0
 16 34  1  0  0  0  0
 17 15  1  0  0  0  0
 18 38  1  0  0  0  0
 19  5  1  0  0  0  0
 20  6  1  0  0  0  0
 23 12  1  0  0  0  0
 24 12  1  0  0  0  0
 26 13  1  0  0  0  0
 27 13  1  0  0  0  0
 29 14  1  0  0  0  0
 31 14  1  0  0  0  0
 32 16  1  0  0  0  0
 33 16  1  0  0  0  0
 35 17  1  0  0  0  0
 36 17  1  0  0  0  0
 37 17  1  0  0  0  0
 39 18  1  0  0  0  0
 40 18  1  0  0  0  0
M  END
