5
q = 0.0, confidence = 0.822

 14 14  0  0  0  0  0  0  0  0999 V2000
   -2.3826   -2.1470   -0.7449 F   0  0  0  0  0  0  0  0  0  0  0  0
   -5.0510   -1.8022   -0.9744 F   0  0  0  0  0  0  0  0  0  0  0  0
   -4.7395    2.3035    1.3972 F   0  0  0  0  0  0  0  0  0  0  0  0
   -2.0621    1.9662    1.6294 F   0  0  0  0  0  0  0  0  0  0  0  0
    0.1893   -0.1916    1.4485 N   0  0  0  0  0  0  0  0  0  0  0  0
   -7.5330    0.5791   -0.0103 N   0  0  0  0  0  0  0  0  0  0  0  0
   -0.7000   -0.2174    0.5189 C   0  0  0  0  0  0  0  0  0  0  0  0
   -2.1459   -0.0949    0.4461 C   0  0  0  0  0  0  0  0  0  0  0  0
   -2.9421   -1.0457   -0.2274 C   0  0  0  0  0  0  0  0  0  0  0  0
   -4.3266   -0.8773   -0.3472 C   0  0  0  0  0  0  0  0  0  0  0  0
   -4.9616    0.2625    0.1994 C   0  0  0  0  0  0  0  0  0  0  0  0
   -4.1671    1.2207    0.8730 C   0  0  0  0  0  0  0  0  0  0  0  0
   -2.7850    1.0371    1.0005 C   0  0  0  0  0  0  0  0  0  0  0  0
   -6.3717    0.4370    0.0830 C   0  0  0  0  0  0  0  0  0  0  0  0
  1  9  1  0  0  0  0
  2 10  1  0  0  0  0
  6 14  3  0  0  0  0
  7  5  1  0  0  0  0
  8  7  1  0  0  0  0
  8 13  1  0  0  0  0
  9  8  2  0  0  0  0
 10  9  1  0  0  0  0
 10 11  2  0  0  0  0
 11 12  1  0  0  0  0
 12 13  2  0  0  0  0
 12  3  1  0  0  0  0
 13  4  1  0  0  0  0
 14 11  1  0  0  0  0
M  END
