2
 OpenBabel05122313053D

  3  2  0  0  0  0  0  0  0  0999 V2000
   -3.0082    0.8581   -0.1524 C   0  0  0  0  0  0  0  0  0  0  0  0
   -1.8591    1.2272   -0.3231 N   0  0  0  0  0  0  0  0  0  0  0  0
   -4.5289    0.4377    0.0337 S   0  0  0  0  0  0  0  0  0  0  0  0
  1  3  2  0  0  0  0
  2  1  2  0  0  0  0
M  END
