1
 OpenBabel05122313053D

 30 30  0  0  0  0  0  0  0  0999 V2000
   -1.3175   -0.0028   -0.3509 N   0  0  0  0  0  1  0  0  0  0  0  0
   -2.6801   -0.0040   -0.1678 C   0  0  0  0  0  0  0  0  0  0  0  0
   -3.3982   -1.2453   -0.0762 C   0  0  0  0  0  0  0  0  0  0  0  0
   -4.7633   -1.2172    0.2510 C   0  0  0  0  0  0  0  0  0  0  0  0
   -5.4437   -0.0068    0.4454 C   0  0  0  0  0  0  0  0  0  0  0  0
   -4.7660    1.2048    0.2490 C   0  0  0  0  0  0  0  0  0  0  0  0
   -3.4011    1.2356   -0.0782 C   0  0  0  0  0  0  0  0  0  0  0  0
   -2.7083   -2.5403   -0.4710 C   0  0  0  0  0  0  0  0  0  0  0  0
   -2.8388   -2.7436   -1.9928 C   0  0  0  0  0  0  0  0  0  0  0  0
   -3.1883   -3.7761    0.2977 C   0  0  0  0  0  0  0  0  0  0  0  0
   -2.7152    2.5320   -0.4757 C   0  0  0  0  0  0  0  0  0  0  0  0
   -2.8581    2.7389   -1.9958 C   0  0  0  0  0  0  0  0  0  0  0  0
   -3.1908    3.7653    0.3002 C   0  0  0  0  0  0  0  0  0  0  0  0
   -5.3135   -2.1664    0.3392 H   0  0  0  0  0  0  0  0  0  0  0  0
   -6.5115   -0.0078    0.7127 H   0  0  0  0  0  0  0  0  0  0  0  0
   -5.3186    2.1529    0.3354 H   0  0  0  0  0  0  0  0  0  0  0  0
   -1.6269   -2.3994   -0.2748 H   0  0  0  0  0  0  0  0  0  0  0  0
   -2.2749   -3.6417   -2.3195 H   0  0  0  0  0  0  0  0  0  0  0  0
   -3.9032   -2.8701   -2.2820 H   0  0  0  0  0  0  0  0  0  0  0  0
   -2.4269   -1.8744   -2.5402 H   0  0  0  0  0  0  0  0  0  0  0  0
   -2.5508   -4.6515    0.0564 H   0  0  0  0  0  0  0  0  0  0  0  0
   -4.2292   -4.0533    0.0295 H   0  0  0  0  0  0  0  0  0  0  0  0
   -3.1579   -3.6181    1.3949 H   0  0  0  0  0  0  0  0  0  0  0  0
   -1.6319    2.3908   -0.2892 H   0  0  0  0  0  0  0  0  0  0  0  0
   -2.3004    3.6403   -2.3243 H   0  0  0  0  0  0  0  0  0  0  0  0
   -3.9252    2.8621   -2.2766 H   0  0  0  0  0  0  0  0  0  0  0  0
   -2.4465    1.8730   -2.5486 H   0  0  0  0  0  0  0  0  0  0  0  0
   -2.5545    4.6416    0.0589 H   0  0  0  0  0  0  0  0  0  0  0  0
   -4.2330    4.0435    0.0380 H   0  0  0  0  0  0  0  0  0  0  0  0
   -3.1554    3.6033    1.3966 H   0  0  0  0  0  0  0  0  0  0  0  0
  1  2  1  0  0  0  0
  2  7  2  0  0  0  0
  2  3  1  0  0  0  0
  3  4  2  0  0  0  0
  4 14  1  0  0  0  0
  4  5  1  0  0  0  0
  5 15  1  0  0  0  0
  6 16  1  0  0  0  0
  6  5  2  0  0  0  0
  7  6  1  0  0  0  0
  8 17  1  0  0  0  0
  8  3  1  0  0  0  0
  8 10  1  0  0  0  0
  9  8  1  0  0  0  0
 10 23  1  0  0  0  0
 11 24  1  0  0  0  0
 11  7  1  0  0  0  0
 11 13  1  0  0  0  0
 12 11  1  0  0  0  0
 13 30  1  0  0  0  0
 18  9  1  0  0  0  0
 19  9  1  0  0  0  0
 20  9  1  0  0  0  0
 21 10  1  0  0  0  0
 22 10  1  0  0  0  0
 25 12  1  0  0  0  0
 26 12  1  0  0  0  0
 27 12  1  0  0  0  0
 28 13  1  0  0  0  0
 29 13  1  0  0  0  0
M  END
