15
 OpenBabel05122313053D

 19 21  0  0  0  0  0  0  0  0999 V2000
   -2.9232   -1.9614   -0.5487 S   0  0  0  0  0  0  0  0  0  0  0  0
   -8.7599    0.2508   -0.2755 S   0  0  0  0  0  0  0  0  0  0  0  0
   -7.2030   -0.5210   -0.4647 C   0  0  0  0  0  0  0  0  0  0  0  0
   -4.8474   -0.2970    0.1499 C   0  0  0  0  0  0  0  0  0  0  0  0
   -2.5297   -0.5398    0.4336 C   0  0  0  0  0  0  0  0  0  0  0  0
   -6.9420   -1.7111   -1.1839 C   0  0  0  0  0  0  0  0  0  0  0  0
   -7.7584   -2.2448   -1.6916 H   0  0  0  0  0  0  0  0  0  0  0  0
   -3.6541    0.2337    0.7173 C   0  0  0  0  0  0  0  0  0  0  0  0
   -3.5954    1.1586    1.3053 H   0  0  0  0  0  0  0  0  0  0  0  0
   -4.6093   -1.5004   -0.5846 C   0  0  0  0  0  0  0  0  0  0  0  0
   -8.0602    1.5177    0.6860 C   0  0  0  0  0  0  0  0  0  0  0  0
   -8.7081    2.3130    1.0757 H   0  0  0  0  0  0  0  0  0  0  0  0
   -6.1846    0.2092    0.2128 C   0  0  0  0  0  0  0  0  0  0  0  0
   -1.1988   -0.2883    0.7822 C   0  0  0  0  0  2  0  0  0  0  0  0
   -0.0461   -0.1232    0.9930 N   0  0  0  0  0  1  0  0  0  0  0  0
   -6.7017    1.3759    0.8663 C   0  0  0  0  0  0  0  0  0  0  0  0
   -6.0970    2.0819    1.4508 H   0  0  0  0  0  0  0  0  0  0  0  0
   -5.6402   -2.2064   -1.2463 C   0  0  0  0  0  0  0  0  0  0  0  0
   -5.4234   -3.1297   -1.8014 H   0  0  0  0  0  0  0  0  0  0  0  0
  1  5  1  0  0  0  0
  2 11  1  0  0  0  0
  3  2  1  0  0  0  0
  3 13  1  0  0  0  0
  4 13  2  0  0  0  0
  4  8  1  0  0  0  0
  5  8  2  0  0  0  0
  5 14  1  0  0  0  0
  6  3  2  0  0  0  0
  7  6  1  0  0  0  0
  8  9  1  0  0  0  0
 10  1  1  0  0  0  0
 10  4  1  0  0  0  0
 11 16  2  0  0  0  0
 11 12  1  0  0  0  0
 13 16  1  0  0  0  0
 14 15  1  0  0  0  0
 16 17  1  0  0  0  0
 18  6  1  0  0  0  0
 18 10  2  0  0  0  0
 19 18  1  0  0  0  0
M  END
