1
 OpenBabel05122313053D

  3  2  0  0  0  0  0  0  0  0999 V2000
    0.0464    1.6078   -1.4851 N   0  0  0  0  0  0  0  0  0  0  0  0
    0.0680    2.8471   -1.5124 C   0  0  0  0  0  0  0  0  0  0  0  0
    0.1340    4.1657   -1.5072 C   0  0  0  0  0  0  0  0  0  0  0  0
  2  3  1  0  0  0  0
  2  1  1  0  0  0  0
M  END
