2
 OpenBabel05122313053D

  3  2  0  0  0  0  0  0  0  0999 V2000
   -3.2110    2.1862    2.1872 O   0  0  0  0  0  0  0  0  0  0  0  0
   -0.9509    1.4553    1.7624 N   0  0  0  0  0  0  0  0  0  0  0  0
   -2.0864    1.8063    1.9879 C   0  0  0  0  0  0  0  0  0  0  0  0
  2  3  2  0  0  0  0
  3  1  2  0  0  0  0
M  END
