2
 OpenBabel05122313053D

 32 31  0  0  0  0  0  0  0  0999 V2000
    1.6399    0.0417   -0.2008 P   0  0  0  0  0  4  0  0  0  0  0  0
    0.0637   -0.1384   -0.4785 N   0  0  0  0  0  1  0  0  0  0  0  0
    2.1165    1.8373   -0.3213 C   0  0  0  0  0  0  0  0  0  0  0  0
    3.4129   -0.1849    2.0570 C   0  0  0  0  0  0  0  0  0  0  0  0
    2.0182   -0.5323    1.5251 C   0  0  0  0  0  0  0  0  0  0  0  0
    1.5095    2.6334    0.8436 C   0  0  0  0  0  0  0  0  0  0  0  0
    2.6162   -0.8625   -1.5089 C   0  0  0  0  0  0  0  0  0  0  0  0
    4.1202   -0.9615   -1.2346 C   0  0  0  0  0  0  0  0  0  0  0  0
    1.9723   -2.2166   -1.8315 C   0  0  0  0  0  0  0  0  0  0  0  0
    1.6470    2.3984   -1.6723 C   0  0  0  0  0  0  0  0  0  0  0  0
    1.6494   -2.0073    1.7181 C   0  0  0  0  0  0  0  0  0  0  0  0
    3.2283    1.8672   -0.2636 H   0  0  0  0  0  0  0  0  0  0  0  0
    3.6787    0.8796    1.9046 H   0  0  0  0  0  0  0  0  0  0  0  0
    4.2045   -0.8038    1.5922 H   0  0  0  0  0  0  0  0  0  0  0  0
    3.4459   -0.3769    3.1494 H   0  0  0  0  0  0  0  0  0  0  0  0
    1.2535    0.0610    2.0781 H   0  0  0  0  0  0  0  0  0  0  0  0
    1.8873    2.3097    1.8324 H   0  0  0  0  0  0  0  0  0  0  0  0
    0.4049    2.5436    0.8463 H   0  0  0  0  0  0  0  0  0  0  0  0
    1.7607    3.7070    0.7239 H   0  0  0  0  0  0  0  0  0  0  0  0
    2.4584   -0.2003   -2.3890 H   0  0  0  0  0  0  0  0  0  0  0  0
    4.5738    0.0137   -0.9666 H   0  0  0  0  0  0  0  0  0  0  0  0
    4.6453   -1.3336   -2.1383 H   0  0  0  0  0  0  0  0  0  0  0  0
    4.3359   -1.6759   -0.4152 H   0  0  0  0  0  0  0  0  0  0  0  0
    0.8814   -2.1051   -1.9847 H   0  0  0  0  0  0  0  0  0  0  0  0
    2.1316   -2.9508   -1.0172 H   0  0  0  0  0  0  0  0  0  0  0  0
    2.4183   -2.6379   -2.7557 H   0  0  0  0  0  0  0  0  0  0  0  0
    2.0973    1.8731   -2.5379 H   0  0  0  0  0  0  0  0  0  0  0  0
    1.9339    3.4670   -1.7484 H   0  0  0  0  0  0  0  0  0  0  0  0
    0.5432    2.3323   -1.7506 H   0  0  0  0  0  0  0  0  0  0  0  0
    0.6386   -2.2177    1.3186 H   0  0  0  0  0  0  0  0  0  0  0  0
    1.6381   -2.2476    2.8008 H   0  0  0  0  0  0  0  0  0  0  0  0
    2.3784   -2.6870    1.2315 H   0  0  0  0  0  0  0  0  0  0  0  0
  1  5  1  0  0  0  0
  2  1  1  0  0  0  0
  3 12  1  0  0  0  0
  3  1  1  0  0  0  0
  3  6  1  0  0  0  0
  4 15  1  0  0  0  0
  5 11  1  0  0  0  0
  5  4  1  0  0  0  0
  5 16  1  0  0  0  0
  6 18  1  0  0  0  0
  6 17  1  0  0  0  0
  7  8  1  0  0  0  0
  7  1  1  0  0  0  0
  8 21  1  0  0  0  0
  8 23  1  0  0  0  0
  9  7  1  0  0  0  0
  9 25  1  0  0  0  0
 10  3  1  0  0  0  0
 11 31  1  0  0  0  0
 13  4  1  0  0  0  0
 14  4  1  0  0  0  0
 19  6  1  0  0  0  0
 20  7  1  0  0  0  0
 22  8  1  0  0  0  0
 24  9  1  0  0  0  0
 26  9  1  0  0  0  0
 27 10  1  0  0  0  0
 28 10  1  0  0  0  0
 29 10  1  0  0  0  0
 30 11  1  0  0  0  0
 32 11  1  0  0  0  0
M  END
