1
 OpenBabel05122313053D

 21 23  0  0  1  0  0  0  0  0999 V2000
    0.0108   -2.0172   -0.0001 N   0  0  0  0  0  1  0  0  0  0  0  0
    0.7813   -1.0424    0.0000 N   0  0  0  0  0  2  0  0  0  0  0  0
    2.1005   -0.8163    0.0001 C   0  0  0  0  0  0  0  0  0  0  0  0
    2.7661    0.4768    0.0003 C   0  0  2  0  0  3  0  0  0  0  0  0
    2.2792    1.7970    0.0005 C   0  0  0  0  0  0  0  0  0  0  0  0
    3.1923    2.8614    0.0006 C   0  0  0  0  0  0  0  0  0  0  0  0
    4.5856    2.6302    0.0006 C   0  0  0  0  0  0  0  0  0  0  0  0
    5.0868    1.3209    0.0004 C   0  0  0  0  0  0  0  0  0  0  0  0
    4.1858    0.2432    0.0002 C   0  0  0  0  0  0  0  0  0  0  0  0
    4.4018   -1.1921    0.0000 C   0  0  0  0  0  0  0  0  0  0  0  0
    5.4425   -2.1171   -0.0002 C   0  0  0  0  0  3  0  0  0  0  0  0
    5.3088   -3.3774   -0.0004 C   0  0  0  0  0  3  0  0  0  0  0  0
    4.1259   -4.1204   -0.0005 C   0  0  0  0  0  0  0  0  0  0  0  0
    2.9843   -3.2731   -0.0003 C   0  0  0  0  0  0  0  0  0  0  0  0
    3.1100   -1.8671   -0.0001 C   0  0  0  0  0  0  0  0  0  0  0  0
    1.1984    1.9862    0.0005 H   0  0  0  0  0  0  0  0  0  0  0  0
    2.8172    3.8970    0.0008 H   0  0  0  0  0  0  0  0  0  0  0  0
    5.2805    3.4837    0.0007 H   0  0  0  0  0  0  0  0  0  0  0  0
    6.1708    1.1295    0.0004 H   0  0  0  0  0  0  0  0  0  0  0  0
    4.0321   -5.2160   -0.0006 H   0  0  0  0  0  0  0  0  0  0  0  0
    1.9777   -3.7210   -0.0003 H   0  0  0  0  0  0  0  0  0  0  0  0
  1  2  1  0  0  0  0
  2  3  1  0  0  0  0
  4  3  1  6  0  0  0
  4  5  1  0  0  0  0
  5 16  1  0  0  0  0
  5  6  2  0  0  0  0
  6 17  1  0  0  0  0
  7  6  1  0  0  0  0
  7 18  1  0  0  0  0
  8  7  2  0  0  0  0
  9  4  1  0  0  0  0
  9  8  1  0  0  0  0
 10  9  2  0  0  0  0
 11 10  1  0  0  0  0
 12 11  2  0  0  0  0
 13 12  1  0  0  0  0
 13 14  2  0  0  0  0
 14 15  1  0  0  0  0
 15 10  1  0  0  0  0
 15  3  2  0  0  0  0
 19  8  1  0  0  0  0
 20 13  1  0  0  0  0
 21 14  1  0  0  0  0
M  END
