1
 OpenBabel05122313053D

 24 25  0  0  0  0  0  0  0  0999 V2000
   -0.3949   -0.0751   -0.1095 N   0  0  0  0  0  1  0  0  0  0  0  0
   -1.7095   -0.0200   -0.0791 N   0  0  0  0  0  0  0  0  0  0  0  0
   -2.4378   -1.2391   -0.0034 C   0  0  0  0  0  0  0  0  0  0  0  0
   -1.7666   -2.4462   -0.3071 C   0  0  0  0  0  0  0  0  0  0  0  0
   -2.4534   -3.6624   -0.2150 C   0  0  0  0  0  0  0  0  0  0  0  0
   -3.8008   -3.7046    0.1803 C   0  0  0  0  0  0  0  0  0  0  0  0
   -4.4534   -2.5046    0.5056 C   0  0  0  0  0  0  0  0  0  0  0  0
   -3.7836   -1.2767    0.4248 C   0  0  0  0  0  0  0  0  0  0  0  0
   -2.2983    1.2821   -0.0520 C   0  0  0  0  0  0  0  0  0  0  0  0
   -1.6442    2.3026    0.6703 C   0  0  0  0  0  0  0  0  0  0  0  0
   -2.1792    3.5967    0.6729 C   0  0  0  0  0  0  0  0  0  0  0  0
   -3.3589    3.8873   -0.0331 C   0  0  0  0  0  0  0  0  0  0  0  0
   -3.9951    2.8698   -0.7626 C   0  0  0  0  0  0  0  0  0  0  0  0
   -3.4671    1.5715   -0.7850 C   0  0  0  0  0  0  0  0  0  0  0  0
   -0.7035   -2.4156   -0.5859 H   0  0  0  0  0  0  0  0  0  0  0  0
   -1.9205   -4.5953   -0.4556 H   0  0  0  0  0  0  0  0  0  0  0  0
   -4.3341   -4.6644    0.2465 H   0  0  0  0  0  0  0  0  0  0  0  0
   -5.5016   -2.5193    0.8418 H   0  0  0  0  0  0  0  0  0  0  0  0
   -4.2996   -0.3513    0.7125 H   0  0  0  0  0  0  0  0  0  0  0  0
   -0.7146    2.0645    1.2100 H   0  0  0  0  0  0  0  0  0  0  0  0
   -1.6677    4.3891    1.2406 H   0  0  0  0  0  0  0  0  0  0  0  0
   -3.7763    4.9052   -0.0228 H   0  0  0  0  0  0  0  0  0  0  0  0
   -4.9064    3.0903   -1.3393 H   0  0  0  0  0  0  0  0  0  0  0  0
   -3.9470    0.7858   -1.3847 H   0  0  0  0  0  0  0  0  0  0  0  0
  1  2  1  0  0  0  0
  2  9  1  0  0  0  0
  2  3  1  0  0  0  0
  3  8  1  0  0  0  0
  4  5  1  0  0  0  0
  4  3  2  0  0  0  0
  5  6  2  0  0  0  0
  6 17  1  0  0  0  0
  6  7  1  0  0  0  0
  7 18  1  0  0  0  0
  8  7  2  0  0  0  0
  8 19  1  0  0  0  0
  9 10  1  0  0  0  0
 10 11  2  0  0  0  0
 10 20  1  0  0  0  0
 11 21  1  0  0  0  0
 12 22  1  0  0  0  0
 12 11  1  0  0  0  0
 13 12  2  0  0  0  0
 14 13  1  0  0  0  0
 14  9  2  0  0  0  0
 15  4  1  0  0  0  0
 16  5  1  0  0  0  0
 23 13  1  0  0  0  0
 24 14  1  0  0  0  0
M  END
