1
 OpenBabel05122313053D

 11 10  0  0  0  0  0  0  0  0999 V2000
    0.2983   -0.5806    1.2945 N   0  0  0  0  0  1  0  0  0  0  0  0
    0.9503   -1.3744    2.4314 B   0  0  0  0  0  0  0  0  0  0  0  0
    0.7186   -0.8638    3.5390 H   0  0  0  0  0  0  0  0  0  0  0  0
    0.4670   -2.7705    2.3342 O   0  0  0  0  0  0  0  0  0  0  0  0
   -0.2864   -3.3265    3.2781 C   0  0  0  0  0  0  0  0  0  0  0  0
   -0.3396   -2.7094    4.2214 H   0  0  0  0  0  0  0  0  0  0  0  0
   -0.8673   -4.3867    3.1458 O   0  0  0  0  0  0  0  0  0  0  0  0
    2.4154   -1.3766    2.1200 O   0  0  0  0  0  0  0  0  0  0  0  0
    3.2644   -0.6083    2.7782 C   0  0  0  0  0  0  0  0  0  0  0  0
    2.8763   -0.2597    3.7774 H   0  0  0  0  0  0  0  0  0  0  0  0
    4.3639   -0.2895    2.3509 O   0  0  0  0  0  0  0  0  0  0  0  0
  1  2  1  0  0  0  0
  2  3  1  0  0  0  0
  4  2  1  0  0  0  0
  4  5  1  0  0  0  0
  5  6  1  0  0  0  0
  7  5  2  0  0  0  0
  8  2  1  0  0  0  0
  8  9  1  0  0  0  0
  9 10  1  0  0  0  0
 11  9  2  0  0  0  0
M  END
