2
 OpenBabel05122313053D

 29 28  0  0  0  0  0  0  0  0999 V2000
   -1.6113    0.0963   -0.1128 P   0  0  0  0  0  4  0  0  0  0  0  0
   -0.0800    0.2556   -0.5392 N   0  0  0  0  0  1  0  0  0  0  0  0
   -2.5686    0.1342   -1.4995 N   0  0  0  0  0  0  0  0  0  0  0  0
   -1.9853   -1.3413    0.6766 N   0  0  0  0  0  0  0  0  0  0  0  0
   -2.1698    1.3008    0.9566 N   0  0  0  0  0  0  0  0  0  0  0  0
   -2.1077    0.7909   -2.7115 C   0  0  0  0  0  0  0  0  0  0  0  0
   -1.0316    1.0256   -2.6082 H   0  0  0  0  0  0  0  0  0  0  0  0
   -2.6686    1.7327   -2.9179 H   0  0  0  0  0  0  0  0  0  0  0  0
   -2.2355    0.1165   -3.5867 H   0  0  0  0  0  0  0  0  0  0  0  0
   -3.9276   -0.3721   -1.5099 C   0  0  0  0  0  0  0  0  0  0  0  0
   -4.1181   -0.9518   -0.5870 H   0  0  0  0  0  0  0  0  0  0  0  0
   -4.0823   -1.0486   -2.3797 H   0  0  0  0  0  0  0  0  0  0  0  0
   -4.6854    0.4445   -1.5785 H   0  0  0  0  0  0  0  0  0  0  0  0
   -2.6117   -1.4534    1.9819 C   0  0  0  0  0  0  0  0  0  0  0  0
   -3.1226   -0.5074    2.2366 H   0  0  0  0  0  0  0  0  0  0  0  0
   -1.8665   -1.6891    2.7752 H   0  0  0  0  0  0  0  0  0  0  0  0
   -3.3701   -2.2680    1.9683 H   0  0  0  0  0  0  0  0  0  0  0  0
   -1.3464   -2.5559    0.1772 C   0  0  0  0  0  0  0  0  0  0  0  0
   -0.8533   -2.3647   -0.7948 H   0  0  0  0  0  0  0  0  0  0  0  0
   -2.1041   -3.3593    0.0444 H   0  0  0  0  0  0  0  0  0  0  0  0
   -0.5559   -2.9065    0.8755 H   0  0  0  0  0  0  0  0  0  0  0  0
   -2.8788    2.4578    0.4317 C   0  0  0  0  0  0  0  0  0  0  0  0
   -3.5406    2.1647   -0.4036 H   0  0  0  0  0  0  0  0  0  0  0  0
   -2.1902    3.2590    0.0686 H   0  0  0  0  0  0  0  0  0  0  0  0
   -3.5124    2.8975    1.2317 H   0  0  0  0  0  0  0  0  0  0  0  0
   -1.2975    1.6006    2.0907 C   0  0  0  0  0  0  0  0  0  0  0  0
   -0.7139    0.7069    2.3855 H   0  0  0  0  0  0  0  0  0  0  0  0
   -1.9051    1.9347    2.9592 H   0  0  0  0  0  0  0  0  0  0  0  0
   -0.5643    2.4051    1.8466 H   0  0  0  0  0  0  0  0  0  0  0  0
  1  4  1  0  0  0  0
  1  5  1  0  0  0  0
  2  1  1  0  0  0  0
  3  1  1  0  0  0  0
  4 14  1  0  0  0  0
  5 26  1  0  0  0  0
  6  7  1  0  0  0  0
  6  3  1  0  0  0  0
  8  6  1  0  0  0  0
  9  6  1  0  0  0  0
 10  3  1  0  0  0  0
 10 11  1  0  0  0  0
 12 10  1  0  0  0  0
 13 10  1  0  0  0  0
 14 15  1  0  0  0  0
 14 16  1  0  0  0  0
 17 14  1  0  0  0  0
 18  4  1  0  0  0  0
 18 21  1  0  0  0  0
 19 18  1  0  0  0  0
 20 18  1  0  0  0  0
 22  5  1  0  0  0  0
 22 25  1  0  0  0  0
 23 22  1  0  0  0  0
 24 22  1  0  0  0  0
 26 27  1  0  0  0  0
 26 28  1  0  0  0  0
 29 26  1  0  0  0  0
M  END
