1
 OpenBabel05122313053D

 15 15  0  0  0  0  0  0  0  0999 V2000
   -0.5718    1.0977   -0.1426 N   0  0  0  0  0  1  0  0  0  0  0  0
   -1.5953    1.9938   -0.1191 C   0  0  0  0  0  0  0  0  0  0  0  0
   -2.8032    1.7261   -0.8136 C   0  0  0  0  0  0  0  0  0  0  0  0
   -3.8488    2.6533   -0.7766 C   0  0  0  0  0  0  0  0  0  0  0  0
   -3.7377    3.8654   -0.0632 C   0  0  0  0  0  0  0  0  0  0  0  0
   -2.5294    4.1200    0.6250 C   0  0  0  0  0  0  0  0  0  0  0  0
   -1.4726    3.2089    0.6062 C   0  0  0  0  0  0  0  0  0  0  0  0
   -4.8620    4.8692   -0.0384 C   0  0  0  0  0  0  0  0  0  0  0  0
   -2.8863    0.7808   -1.3696 H   0  0  0  0  0  0  0  0  0  0  0  0
   -4.7831    2.4335   -1.3181 H   0  0  0  0  0  0  0  0  0  0  0  0
   -2.4207    5.0586    1.1924 H   0  0  0  0  0  0  0  0  0  0  0  0
   -0.5343    3.4044    1.1452 H   0  0  0  0  0  0  0  0  0  0  0  0
   -5.1264    5.1579    1.0003 H   0  0  0  0  0  0  0  0  0  0  0  0
   -4.5793    5.8049   -0.5666 H   0  0  0  0  0  0  0  0  0  0  0  0
   -5.7745    4.4735   -0.5250 H   0  0  0  0  0  0  0  0  0  0  0  0
  1  2  1  0  0  0  0
  2  7  1  0  0  0  0
  3  4  1  0  0  0  0
  3  2  2  0  0  0  0
  4  5  2  0  0  0  0
  5  8  1  0  0  0  0
  5  6  1  0  0  0  0
  6 11  1  0  0  0  0
  7  6  2  0  0  0  0
  7 12  1  0  0  0  0
  8 13  1  0  0  0  0
  9  3  1  0  0  0  0
 10  4  1  0  0  0  0
 14  8  1  0  0  0  0
 15  8  1  0  0  0  0
M  END
