1
 OpenBabel05122313053D

 32 34  0  0  0  0  0  0  0  0999 V2000
   -0.0167   -0.4984   -0.6365 N   0  0  0  0  0  1  0  0  0  0  0  0
   -1.1695   -2.5456   -0.1693 N   0  0  0  0  0  0  0  0  0  0  0  0
    1.0743   -2.6092   -0.2661 N   0  0  0  0  0  0  0  0  0  0  0  0
   -0.0380   -1.7625   -0.3936 C   0  0  0  0  0  3  0  0  0  0  0  0
   -0.8130   -3.9547   -0.0200 C   0  0  0  0  0  0  0  0  0  0  0  0
    0.6739   -3.8766    0.3339 C   0  0  0  0  0  0  0  0  0  0  0  0
   -2.5077   -2.0911   -0.2313 C   0  0  0  0  0  0  0  0  0  0  0  0
   -2.9074   -1.1292   -1.1803 C   0  0  0  0  0  0  0  0  0  0  0  0
   -4.2306   -0.6686   -1.1892 C   0  0  0  0  0  0  0  0  0  0  0  0
   -5.1739   -1.1747   -0.2819 C   0  0  0  0  0  0  0  0  0  0  0  0
   -4.7810   -2.1493    0.6497 C   0  0  0  0  0  0  0  0  0  0  0  0
   -3.4554   -2.6017    0.6833 C   0  0  0  0  0  0  0  0  0  0  0  0
    2.4180   -2.1794   -0.2755 C   0  0  0  0  0  0  0  0  0  0  0  0
    2.8497   -1.1906   -1.1850 C   0  0  0  0  0  0  0  0  0  0  0  0
    4.1817   -0.7621   -1.1678 C   0  0  0  0  0  0  0  0  0  0  0  0
    5.1084   -1.3230   -0.2737 C   0  0  0  0  0  0  0  0  0  0  0  0
    4.6861   -2.3256    0.6118 C   0  0  0  0  0  0  0  0  0  0  0  0
    3.3502   -2.7538    0.6182 C   0  0  0  0  0  0  0  0  0  0  0  0
   -0.9897   -4.5009   -0.9749 H   0  0  0  0  0  0  0  0  0  0  0  0
   -1.4035   -4.4505    0.7728 H   0  0  0  0  0  0  0  0  0  0  0  0
    0.8184   -3.8566    1.4399 H   0  0  0  0  0  0  0  0  0  0  0  0
    1.2647   -4.7180   -0.0774 H   0  0  0  0  0  0  0  0  0  0  0  0
   -2.1784   -0.7169   -1.8880 H   0  0  0  0  0  0  0  0  0  0  0  0
   -4.5149    0.1037   -1.9191 H   0  0  0  0  0  0  0  0  0  0  0  0
   -6.2121   -0.8110   -0.2983 H   0  0  0  0  0  0  0  0  0  0  0  0
   -5.5089   -2.5539    1.3693 H   0  0  0  0  0  0  0  0  0  0  0  0
   -3.1510   -3.3423    1.4376 H   0  0  0  0  0  0  0  0  0  0  0  0
    2.1390   -0.7394   -1.8870 H   0  0  0  0  0  0  0  0  0  0  0  0
    4.4878    0.0292   -1.8681 H   0  0  0  0  0  0  0  0  0  0  0  0
    6.1548   -0.9835   -0.2697 H   0  0  0  0  0  0  0  0  0  0  0  0
    5.4001   -2.7807    1.3151 H   0  0  0  0  0  0  0  0  0  0  0  0
    3.0367   -3.5293    1.3308 H   0  0  0  0  0  0  0  0  0  0  0  0
  1  4  1  0  0  0  0
  2  5  1  0  0  0  0
  3  6  1  0  0  0  0
  4  3  1  0  0  0  0
  4  2  1  0  0  0  0
  5  6  1  0  0  0  0
  5 20  1  0  0  0  0
  6 21  1  0  0  0  0
  7  2  1  0  0  0  0
  7 12  1  0  0  0  0
  8  7  2  0  0  0  0
  9  8  1  0  0  0  0
  9 10  2  0  0  0  0
 10 11  1  0  0  0  0
 11 12  2  0  0  0  0
 11 26  1  0  0  0  0
 12 27  1  0  0  0  0
 13  3  1  0  0  0  0
 13 18  1  0  0  0  0
 14 15  1  0  0  0  0
 14 13  2  0  0  0  0
 15 16  2  0  0  0  0
 16 30  1  0  0  0  0
 16 17  1  0  0  0  0
 17 18  2  0  0  0  0
 17 31  1  0  0  0  0
 18 32  1  0  0  0  0
 19  5  1  0  0  0  0
 22  6  1  0  0  0  0
 23  8  1  0  0  0  0
 24  9  1  0  0  0  0
 25 10  1  0  0  0  0
 28 14  1  0  0  0  0
 29 15  1  0  0  0  0
M  END
