1
 OpenBabel05122313053D

 44 46  0  0  1  0  0  0  0  0999 V2000
    0.0704   -0.3354   -0.0962 N   0  0  0  0  0  1  0  0  0  0  0  0
   -1.0261   -2.4190    0.1995 N   0  0  1  0  0  0  0  0  0  0  0  0
    1.2009   -2.3514    0.4807 N   0  0  1  0  0  0  0  0  0  0  0  0
    0.0763   -1.6010    0.1844 C   0  0  1  0  0  3  0  0  0  0  0  0
   -0.6611   -3.7665    0.6138 C   0  0  0  0  0  0  0  0  0  0  0  0
    0.8663   -3.7716    0.3937 C   0  0  0  0  0  0  0  0  0  0  0  0
   -2.3767   -1.9162   -0.0077 C   0  0  0  0  0  0  0  0  0  0  0  0
   -2.9585   -2.3555   -1.3622 C   0  0  0  0  0  0  0  0  0  0  0  0
   -4.3464   -1.7395   -1.5795 C   0  0  0  0  0  0  0  0  0  0  0  0
   -5.2991   -2.0729   -0.4244 C   0  0  0  0  0  0  0  0  0  0  0  0
   -4.7095   -1.6466    0.9267 C   0  0  0  0  0  0  0  0  0  0  0  0
   -3.3207   -2.2599    1.1545 C   0  0  0  0  0  0  0  0  0  0  0  0
    2.5259   -1.8102    0.1828 C   0  0  0  0  0  0  0  0  0  0  0  0
    2.9233   -1.9517   -1.2981 C   0  0  0  0  0  0  0  0  0  0  0  0
    4.2821   -1.2880   -1.5560 C   0  0  0  0  0  0  0  0  0  0  0  0
    5.3678   -1.8337   -0.6200 C   0  0  0  0  0  0  0  0  0  0  0  0
    4.9548   -1.7064    0.8527 C   0  0  0  0  0  0  0  0  0  0  0  0
    3.6002   -2.3784    1.1171 C   0  0  0  0  0  0  0  0  0  0  0  0
   -1.1777   -4.5396    0.0098 H   0  0  0  0  0  0  0  0  0  0  0  0
   -0.9172   -3.9415    1.6851 H   0  0  0  0  0  0  0  0  0  0  0  0
    1.3997   -4.3692    1.1587 H   0  0  0  0  0  0  0  0  0  0  0  0
    1.1262   -4.1839   -0.6098 H   0  0  0  0  0  0  0  0  0  0  0  0
   -2.2571   -0.8124   -0.0509 H   0  0  0  0  0  0  0  0  0  0  0  0
   -3.0259   -3.4672   -1.3968 H   0  0  0  0  0  0  0  0  0  0  0  0
   -2.2620   -2.0377   -2.1643 H   0  0  0  0  0  0  0  0  0  0  0  0
   -4.2284   -0.6365   -1.6611 H   0  0  0  0  0  0  0  0  0  0  0  0
   -4.7696   -2.0821   -2.5464 H   0  0  0  0  0  0  0  0  0  0  0  0
   -6.2847   -1.5873   -0.5823 H   0  0  0  0  0  0  0  0  0  0  0  0
   -5.4903   -3.1702   -0.4090 H   0  0  0  0  0  0  0  0  0  0  0  0
   -5.3904   -1.9258    1.7578 H   0  0  0  0  0  0  0  0  0  0  0  0
   -4.6211   -0.5378    0.9510 H   0  0  0  0  0  0  0  0  0  0  0  0
   -2.8825   -1.9003    2.1104 H   0  0  0  0  0  0  0  0  0  0  0  0
   -3.4181   -3.3660    1.2428 H   0  0  0  0  0  0  0  0  0  0  0  0
    2.4289   -0.7218    0.3829 H   0  0  0  0  0  0  0  0  0  0  0  0
    2.1419   -1.4753   -1.9247 H   0  0  0  0  0  0  0  0  0  0  0  0
    2.9735   -3.0302   -1.5717 H   0  0  0  0  0  0  0  0  0  0  0  0
    4.5761   -1.4240   -2.6173 H   0  0  0  0  0  0  0  0  0  0  0  0
    4.1680   -0.1919   -1.4061 H   0  0  0  0  0  0  0  0  0  0  0  0
    5.5508   -2.9074   -0.8538 H   0  0  0  0  0  0  0  0  0  0  0  0
    6.3303   -1.3090   -0.7952 H   0  0  0  0  0  0  0  0  0  0  0  0
    4.8789   -0.6280    1.1181 H   0  0  0  0  0  0  0  0  0  0  0  0
    5.7317   -2.1387    1.5172 H   0  0  0  0  0  0  0  0  0  0  0  0
    3.6983   -3.4756    0.9518 H   0  0  0  0  0  0  0  0  0  0  0  0
    3.2846   -2.2396    2.1729 H   0  0  0  0  0  0  0  0  0  0  0  0
  2  7  1  1  0  0  0
  2  5  1  0  0  0  0
  3 13  1  6  0  0  0
  4  1  1  6  0  0  0
  4  2  1  0  0  0  0
  4  3  1  0  0  0  0
  5 20  1  0  0  0  0
  6  3  1  0  0  0  0
  6  5  1  0  0  0  0
  6 21  1  0  0  0  0
  7 12  1  0  0  0  0
  8  7  1  0  0  0  0
  9  8  1  0  0  0  0
  9 10  1  0  0  0  0
 10 29  1  0  0  0  0
 10 11  1  0  0  0  0
 11 31  1  0  0  0  0
 11 12  1  0  0  0  0
 11 30  1  0  0  0  0
 12 33  1  0  0  0  0
 12 32  1  0  0  0  0
 13 34  1  0  0  0  0
 13 18  1  0  0  0  0
 14 13  1  0  0  0  0
 15 38  1  0  0  0  0
 15 14  1  0  0  0  0
 15 16  1  0  0  0  0
 16 17  1  0  0  0  0
 17 18  1  0  0  0  0
 17 41  1  0  0  0  0
 17 42  1  0  0  0  0
 18 44  1  0  0  0  0
 19  5  1  0  0  0  0
 22  6  1  0  0  0  0
 23  7  1  0  0  0  0
 24  8  1  0  0  0  0
 25  8  1  0  0  0  0
 26  9  1  0  0  0  0
 27  9  1  0  0  0  0
 28 10  1  0  0  0  0
 35 14  1  0  0  0  0
 36 14  1  0  0  0  0
 37 15  1  0  0  0  0
 39 16  1  0  0  0  0
 40 16  1  0  0  0  0
 43 18  1  0  0  0  0
M  END
