1
 OpenBabel05122313053D

 14 14  0  0  0  0  0  0  0  0999 V2000
    0.5318   -0.1470   -1.1157 N   0  0  0  0  0  1  0  0  0  0  0  0
    1.7173   -0.2083   -1.5671 C   0  0  0  0  0  3  0  0  0  0  0  0
    2.9601   -0.1028   -0.7646 C   0  0  0  0  0  0  0  0  0  0  0  0
    4.2131   -0.2025   -1.4073 C   0  0  0  0  0  0  0  0  0  0  0  0
    5.4021   -0.1041   -0.6723 C   0  0  0  0  0  0  0  0  0  0  0  0
    5.3529    0.0970    0.7169 C   0  0  0  0  0  0  0  0  0  0  0  0
    4.1098    0.1992    1.3676 C   0  0  0  0  0  0  0  0  0  0  0  0
    2.9226    0.1002    0.6337 C   0  0  0  0  0  0  0  0  0  0  0  0
    1.8919   -0.3513   -2.6651 H   0  0  0  0  0  0  0  0  0  0  0  0
    4.2441   -0.3594   -2.4977 H   0  0  0  0  0  0  0  0  0  0  0  0
    6.3735   -0.1839   -1.1835 H   0  0  0  0  0  0  0  0  0  0  0  0
    6.2857    0.1752    1.2958 H   0  0  0  0  0  0  0  0  0  0  0  0
    4.0715    0.3581    2.4562 H   0  0  0  0  0  0  0  0  0  0  0  0
    1.9417    0.1787    1.1260 H   0  0  0  0  0  0  0  0  0  0  0  0
  2  1  1  0  0  0  0
  2  3  1  0  0  0  0
  3  8  1  0  0  0  0
  4  3  2  0  0  0  0
  4  5  1  0  0  0  0
  5  6  2  0  0  0  0
  6 12  1  0  0  0  0
  6  7  1  0  0  0  0
  7 13  1  0  0  0  0
  8 14  1  0  0  0  0
  8  7  2  0  0  0  0
  9  2  1  0  0  0  0
 10  4  1  0  0  0  0
 11  5  1  0  0  0  0
M  END
