1
 OpenBabel05122313053D

 10  9  0  0  0  0  0  0  0  0999 V2000
   -1.0566    1.1595    0.3561 N   0  0  0  0  0  1  0  0  0  0  0  0
   -1.9803    2.0935    0.5083 N   0  0  0  0  0  0  0  0  0  0  0  0
   -2.6948    2.4978   -0.7044 C   0  0  0  0  0  0  0  0  0  0  0  0
   -2.1623    3.3129   -1.2467 H   0  0  0  0  0  0  0  0  0  0  0  0
   -3.7074    2.8576   -0.4356 H   0  0  0  0  0  0  0  0  0  0  0  0
   -2.7738    1.6238   -1.3779 H   0  0  0  0  0  0  0  0  0  0  0  0
   -1.7957    3.1094    1.5380 C   0  0  0  0  0  0  0  0  0  0  0  0
   -1.4890    2.6320    2.4872 H   0  0  0  0  0  0  0  0  0  0  0  0
   -2.7567    3.6331    1.7037 H   0  0  0  0  0  0  0  0  0  0  0  0
   -1.0307    3.8698    1.2511 H   0  0  0  0  0  0  0  0  0  0  0  0
  1  2  1  0  0  0  0
  2  7  1  0  0  0  0
  3  5  1  0  0  0  0
  3  2  1  0  0  0  0
  4  3  1  0  0  0  0
  6  3  1  0  0  0  0
  7  9  1  0  0  0  0
  7  8  1  0  0  0  0
 10  7  1  0  0  0  0
M  END
