1
 OpenBabel05122313053D

 17 17  0  0  0  0  0  0  0  0999 V2000
    1.1377    0.2304    0.1969 N   0  0  0  0  0  1  0  0  0  0  0  0
    2.3551    0.7365    0.1797 N   0  0  0  0  0  0  0  0  0  0  0  0
    2.9814    1.1789    1.4335 C   0  0  0  0  0  0  0  0  0  0  0  0
    2.6538    0.4958    2.2392 H   0  0  0  0  0  0  0  0  0  0  0  0
    2.6144    2.2048    1.6935 H   0  0  0  0  0  0  0  0  0  0  0  0
    4.5053    1.1909    1.2941 C   0  0  0  0  0  0  0  0  0  0  0  0
    4.8619    0.1433    1.1909 H   0  0  0  0  0  0  0  0  0  0  0  0
    4.9501    1.5930    2.2271 H   0  0  0  0  0  0  0  0  0  0  0  0
    4.9460    2.0100    0.0753 C   0  0  0  0  0  0  0  0  0  0  0  0
    4.6871    3.0805    0.2368 H   0  0  0  0  0  0  0  0  0  0  0  0
    6.0476    1.9692   -0.0390 H   0  0  0  0  0  0  0  0  0  0  0  0
    4.2519    1.5056   -1.1953 C   0  0  0  0  0  0  0  0  0  0  0  0
    4.5129    2.1364   -2.0692 H   0  0  0  0  0  0  0  0  0  0  0  0
    4.5946    0.4744   -1.4292 H   0  0  0  0  0  0  0  0  0  0  0  0
    2.7337    1.4995   -1.0242 C   0  0  0  0  0  0  0  0  0  0  0  0
    2.3559    2.5481   -0.9277 H   0  0  0  0  0  0  0  0  0  0  0  0
    2.2076    1.0416   -1.8840 H   0  0  0  0  0  0  0  0  0  0  0  0
  2  1  1  0  0  0  0
  2  3  1  0  0  0  0
  3  5  1  0  0  0  0
  3  4  1  0  0  0  0
  6  3  1  0  0  0  0
  6  8  1  0  0  0  0
  7  6  1  0  0  0  0
  9 10  1  0  0  0  0
  9  6  1  0  0  0  0
 11  9  1  0  0  0  0
 12 15  1  0  0  0  0
 12  9  1  0  0  0  0
 13 12  1  0  0  0  0
 14 12  1  0  0  0  0
 15 16  1  0  0  0  0
 15  2  1  0  0  0  0
 17 15  1  0  0  0  0
M  END
