1
 OpenBabel05122313053D

 12 12  0  0  0  0  0  0  0  0999 V2000
    1.1447    1.5723    0.2350 N   0  0  0  0  0  1  0  0  0  0  0  0
    6.0456    3.7684   -0.8219 F   0  0  0  0  0  0  0  0  0  0  0  0
    2.3522    2.1387   -0.0235 C   0  0  0  0  0  0  0  0  0  0  0  0
    3.1247    2.6833    1.0369 C   0  0  0  0  0  0  0  0  0  0  0  0
    2.7241    2.6468    2.0594 H   0  0  0  0  0  0  0  0  0  0  0  0
    4.3752    3.2358    0.7618 C   0  0  0  0  0  0  0  0  0  0  0  0
    5.0035    3.6646    1.5552 H   0  0  0  0  0  0  0  0  0  0  0  0
    4.8416    3.2429   -0.5638 C   0  0  0  0  0  0  0  0  0  0  0  0
    4.0870    2.7176   -1.6260 C   0  0  0  0  0  0  0  0  0  0  0  0
    4.4950    2.7538   -2.6461 H   0  0  0  0  0  0  0  0  0  0  0  0
    2.8356    2.1633   -1.3602 C   0  0  0  0  0  0  0  0  0  0  0  0
    2.1958    1.7507   -2.1535 H   0  0  0  0  0  0  0  0  0  0  0  0
  2  8  1  0  0  0  0
  3  1  1  0  0  0  0
  3  4  1  0  0  0  0
  4  5  1  0  0  0  0
  6  4  2  0  0  0  0
  6  7  1  0  0  0  0
  8  6  1  0  0  0  0
  9 11  1  0  0  0  0
  9  8  2  0  0  0  0
 10  9  1  0  0  0  0
 11  3  2  0  0  0  0
 12 11  1  0  0  0  0
M  END
