2
 OpenBabel05122313053D

 12 12  0  0  0  0  0  0  0  0999 V2000
   -3.3444    6.0170   -0.4360 Cl  0  0  0  0  0  0  0  0  0  0  0  0
    0.6322    1.6889   -0.1836 N   0  0  0  0  0  1  0  0  0  0  0  0
   -0.2335    2.7331   -0.2342 C   0  0  0  0  0  0  0  0  0  0  0  0
   -0.5612    3.3155   -1.4857 C   0  0  0  0  0  0  0  0  0  0  0  0
   -0.0759    2.9331   -2.3950 H   0  0  0  0  0  0  0  0  0  0  0  0
   -0.8423    3.2004    0.9594 C   0  0  0  0  0  0  0  0  0  0  0  0
   -0.5735    2.7227    1.9124 H   0  0  0  0  0  0  0  0  0  0  0  0
   -2.1214    4.7811   -0.3540 C   0  0  0  0  0  0  0  0  0  0  0  0
   -1.7856    4.2246    0.8953 C   0  0  0  0  0  0  0  0  0  0  0  0
   -2.2840    4.5870    1.8049 H   0  0  0  0  0  0  0  0  0  0  0  0
   -1.5082    4.3393   -1.5420 C   0  0  0  0  0  0  0  0  0  0  0  0
   -1.7866    4.7957   -2.5020 H   0  0  0  0  0  0  0  0  0  0  0  0
  1  8  1  0  0  0  0
  3  2  1  0  0  0  0
  3  6  1  0  0  0  0
  4  3  2  0  0  0  0
  5  4  1  0  0  0  0
  6  7  1  0  0  0  0
  8  9  1  0  0  0  0
  9  6  2  0  0  0  0
  9 10  1  0  0  0  0
 11  4  1  0  0  0  0
 11  8  2  0  0  0  0
 12 11  1  0  0  0  0
M  END
