1
 OpenBabel05122313053D

 13 13  0  0  0  0  0  0  0  0999 V2000
   -0.6628   -0.0001   -1.1615 N   0  0  0  0  0  1  0  0  0  0  0  0
    0.4452    0.0001   -1.5557 C   0  0  0  0  0  2  0  0  0  0  0  0
    1.8700    0.0000   -1.8518 C   0  0  0  0  0  0  0  0  0  0  0  0
    2.1133    0.8950   -2.4675 H   0  0  0  0  0  0  0  0  0  0  0  0
    2.1132   -0.8951   -2.4674 H   0  0  0  0  0  0  0  0  0  0  0  0
    2.7148    0.0000   -0.5908 C   0  0  0  0  0  0  0  0  0  0  0  0
    4.1495    0.0002   -0.6037 C   0  0  0  0  0  0  0  0  0  0  0  0
    4.7525    0.0002   -1.5226 H   0  0  0  0  0  0  0  0  0  0  0  0
    4.6962    0.0002    0.6629 C   0  0  0  0  0  0  0  0  0  0  0  0
    5.7545    0.0003    0.9495 H   0  0  0  0  0  0  0  0  0  0  0  0
    3.4627    0.0003    1.8823 S   0  0  0  0  0  0  0  0  0  0  0  0
    2.2067    0.0000    0.6944 C   0  0  0  0  0  0  0  0  0  0  0  0
    1.1524   -0.0001    0.9951 H   0  0  0  0  0  0  0  0  0  0  0  0
  2  1  1  0  0  0  0
  3  2  1  0  0  0  0
  3  6  1  0  0  0  0
  4  3  1  0  0  0  0
  5  3  1  0  0  0  0
  6 12  2  0  0  0  0
  7  6  1  0  0  0  0
  7  9  2  0  0  0  0
  8  7  1  0  0  0  0
  9 10  1  0  0  0  0
  9 11  1  0  0  0  0
 12 13  1  0  0  0  0
 12 11  1  0  0  0  0
M  END
