2
 OpenBabel05122313053D

 41 41  0  0  0  0  0  0  0  0999 V2000
   -0.9810   -1.0873   -0.1783 P   0  0  0  0  0  4  0  0  0  0  0  0
    0.3375   -0.1685   -0.2392 N   0  0  0  0  0  1  0  0  0  0  0  0
   -3.8243    1.2898   -0.2526 N   0  0  0  0  0  0  0  0  0  0  0  0
   -4.1343    2.5523    0.0831 C   0  0  0  0  0  0  0  0  0  0  0  0
   -5.0913    2.6929    0.6161 H   0  0  0  0  0  0  0  0  0  0  0  0
   -3.3149    3.6552   -0.2047 C   0  0  0  0  0  0  0  0  0  0  0  0
   -3.6162    4.6683    0.0994 H   0  0  0  0  0  0  0  0  0  0  0  0
   -2.1120    3.4246   -0.8898 C   0  0  0  0  0  0  0  0  0  0  0  0
   -1.4354    4.2570   -1.1369 H   0  0  0  0  0  0  0  0  0  0  0  0
   -1.7828    2.1135   -1.2523 C   0  0  0  0  0  0  0  0  0  0  0  0
   -0.8457    1.8782   -1.7757 H   0  0  0  0  0  0  0  0  0  0  0  0
   -2.6669    1.0693   -0.9073 C   0  0  0  0  0  0  0  0  0  0  0  0
   -2.3266   -0.3562   -1.2470 C   0  0  0  0  0  0  0  0  0  0  0  0
   -1.9133   -0.4150   -2.2717 H   0  0  0  0  0  0  0  0  0  0  0  0
   -3.2322   -0.9882   -1.1899 H   0  0  0  0  0  0  0  0  0  0  0  0
   -1.4317    0.2217    2.2074 C   0  0  0  0  0  0  0  0  0  0  0  0
   -1.8497    0.2206    3.2359 H   0  0  0  0  0  0  0  0  0  0  0  0
   -1.9308    1.0312    1.6423 H   0  0  0  0  0  0  0  0  0  0  0  0
   -0.3503    0.4467    2.2692 H   0  0  0  0  0  0  0  0  0  0  0  0
   -3.1715   -1.5021    1.5786 C   0  0  0  0  0  0  0  0  0  0  0  0
   -3.5179   -1.5867    2.6303 H   0  0  0  0  0  0  0  0  0  0  0  0
   -3.3887   -2.4698    1.0855 H   0  0  0  0  0  0  0  0  0  0  0  0
   -3.7687   -0.7068    1.0892 H   0  0  0  0  0  0  0  0  0  0  0  0
   -0.8848   -2.2068    2.4163 C   0  0  0  0  0  0  0  0  0  0  0  0
   -1.2089   -2.1212    3.4749 H   0  0  0  0  0  0  0  0  0  0  0  0
    0.2074   -2.0219    2.3806 H   0  0  0  0  0  0  0  0  0  0  0  0
   -1.0904   -3.2461    2.0947 H   0  0  0  0  0  0  0  0  0  0  0  0
   -1.6679   -1.1718    1.5892 C   0  0  0  0  0  0  0  0  0  0  0  0
   -1.8007   -3.7215   -0.8887 C   0  0  0  0  0  0  0  0  0  0  0  0
   -1.5621   -4.6518   -1.4459 H   0  0  0  0  0  0  0  0  0  0  0  0
   -2.7204   -3.2970   -1.3397 H   0  0  0  0  0  0  0  0  0  0  0  0
   -2.0265   -4.0137    0.1554 H   0  0  0  0  0  0  0  0  0  0  0  0
    0.6479   -3.3784   -0.3187 C   0  0  0  0  0  0  0  0  0  0  0  0
    0.9172   -4.2986   -0.8781 H   0  0  0  0  0  0  0  0  0  0  0  0
    0.4847   -3.6616    0.7353 H   0  0  0  0  0  0  0  0  0  0  0  0
    1.5123   -2.6894   -0.3661 H   0  0  0  0  0  0  0  0  0  0  0  0
   -0.2525   -2.4679   -2.4543 C   0  0  0  0  0  0  0  0  0  0  0  0
    0.1153   -3.4051   -2.9213 H   0  0  0  0  0  0  0  0  0  0  0  0
    0.5592   -1.7164   -2.5294 H   0  0  0  0  0  0  0  0  0  0  0  0
   -1.1275   -2.1335   -3.0460 H   0  0  0  0  0  0  0  0  0  0  0  0
   -0.6010   -2.7659   -0.9802 C   0  0  0  0  0  0  0  0  0  0  0  0
  1 28  1  0  0  0  0
  2  1  1  0  0  0  0
  3  4  1  0  0  0  0
  4  5  1  0  0  0  0
  6  4  2  0  0  0  0
  6  7  1  0  0  0  0
  8  6  1  0  0  0  0
  9  8  1  0  0  0  0
 10 12  1  0  0  0  0
 10  8  2  0  0  0  0
 11 10  1  0  0  0  0
 12  3  2  0  0  0  0
 13 15  1  0  0  0  0
 13 12  1  0  0  0  0
 13  1  1  0  0  0  0
 14 13  1  0  0  0  0
 16 19  1  0  0  0  0
 16 17  1  0  0  0  0
 18 16  1  0  0  0  0
 20 28  1  0  0  0  0
 20 21  1  0  0  0  0
 22 20  1  0  0  0  0
 23 20  1  0  0  0  0
 24 25  1  0  0  0  0
 26 24  1  0  0  0  0
 27 24  1  0  0  0  0
 28 16  1  0  0  0  0
 28 24  1  0  0  0  0
 29 32  1  0  0  0  0
 30 29  1  0  0  0  0
 31 29  1  0  0  0  0
 33 35  1  0  0  0  0
 34 33  1  0  0  0  0
 36 33  1  0  0  0  0
 37 41  1  0  0  0  0
 38 37  1  0  0  0  0
 39 37  1  0  0  0  0
 40 37  1  0  0  0  0
 41 29  1  0  0  0  0
 41 33  1  0  0  0  0
 41  1  1  0  0  0  0
M  END
