1
 OpenBabel05122313053D

 18 18  0  0  0  0  0  0  0  0999 V2000
   -1.9234    0.3591   -0.1526 N   0  0  0  0  0  1  0  0  0  0  0  0
   -3.0306    1.2550   -0.1723 C   0  0  0  0  0  0  0  0  0  0  0  0
   -4.0044    0.8561   -1.3070 C   0  0  0  0  0  0  0  0  0  0  0  0
   -4.7113   -0.4714   -1.0086 C   0  0  0  0  0  0  0  0  0  0  0  0
   -5.4158   -0.4428    0.3544 C   0  0  0  0  0  0  0  0  0  0  0  0
   -4.4400   -0.0804    1.4819 C   0  0  0  0  0  0  0  0  0  0  0  0
   -3.7322    1.2513    1.2077 C   0  0  0  0  0  0  0  0  0  0  0  0
   -2.6309    2.2762   -0.3772 H   0  0  0  0  0  0  0  0  0  0  0  0
   -3.4445    0.8052   -2.2630 H   0  0  0  0  0  0  0  0  0  0  0  0
   -4.7483    1.6771   -1.4034 H   0  0  0  0  0  0  0  0  0  0  0  0
   -5.4357   -0.6953   -1.8187 H   0  0  0  0  0  0  0  0  0  0  0  0
   -3.9648   -1.2950   -1.0189 H   0  0  0  0  0  0  0  0  0  0  0  0
   -6.2413    0.3051    0.3277 H   0  0  0  0  0  0  0  0  0  0  0  0
   -5.8902   -1.4245    0.5602 H   0  0  0  0  0  0  0  0  0  0  0  0
   -4.9691   -0.0246    2.4557 H   0  0  0  0  0  0  0  0  0  0  0  0
   -3.6782   -0.8826    1.5871 H   0  0  0  0  0  0  0  0  0  0  0  0
   -4.4671    2.0858    1.2029 H   0  0  0  0  0  0  0  0  0  0  0  0
   -2.9863    1.4739    1.9981 H   0  0  0  0  0  0  0  0  0  0  0  0
  2  1  1  0  0  0  0
  2  7  1  0  0  0  0
  3  4  1  0  0  0  0
  3  2  1  0  0  0  0
  4  5  1  0  0  0  0
  5 14  1  0  0  0  0
  5  6  1  0  0  0  0
  6 16  1  0  0  0  0
  6 15  1  0  0  0  0
  7  6  1  0  0  0  0
  7 18  1  0  0  0  0
  8  2  1  0  0  0  0
  9  3  1  0  0  0  0
 10  3  1  0  0  0  0
 11  4  1  0  0  0  0
 12  4  1  0  0  0  0
 13  5  1  0  0  0  0
 17  7  1  0  0  0  0
M  END
