1
 OpenBabel05122313053D

  5  4  0  0  0  0  0  0  0  0999 V2000
    0.0931   -1.1892   -1.4053 N   0  0  0  0  0  1  0  0  0  0  0  0
    0.0888   -1.2402   -2.8378 C   0  0  0  0  0  0  0  0  0  0  0  0
   -0.3753   -0.3461   -3.3075 H   0  0  0  0  0  0  0  0  0  0  0  0
   -0.4800   -2.1356   -3.1712 H   0  0  0  0  0  0  0  0  0  0  0  0
    1.1261   -1.3382   -3.2268 H   0  0  0  0  0  0  0  0  0  0  0  0
  2  1  1  0  0  0  0
  3  2  1  0  0  0  0
  4  2  1  0  0  0  0
  5  2  1  0  0  0  0
M  END
