1
 OpenBabel05122313053D

 30 31  0  0  0  0  0  0  0  0999 V2000
    0.2401    0.1263   -0.2702 N   0  0  0  0  0  1  0  0  0  0  0  0
    1.5560    0.0099   -0.1557 N   0  0  0  0  0  0  0  0  0  0  0  0
    2.3382    1.1943   -0.0185 C   0  0  0  0  0  0  0  0  0  0  0  0
    3.6443    1.2539   -0.5483 C   0  0  0  0  0  0  0  0  0  0  0  0
    4.0648    0.3834   -1.0709 H   0  0  0  0  0  0  0  0  0  0  0  0
    4.3931    2.4289   -0.4243 C   0  0  0  0  0  0  0  0  0  0  0  0
    5.4095    2.4600   -0.8484 H   0  0  0  0  0  0  0  0  0  0  0  0
    3.8694    3.5780    0.2051 C   0  0  0  0  0  0  0  0  0  0  0  0
    2.5525    3.5033    0.7014 C   0  0  0  0  0  0  0  0  0  0  0  0
    2.1057    4.3866    1.1847 H   0  0  0  0  0  0  0  0  0  0  0  0
    1.7894    2.3335    0.6020 C   0  0  0  0  0  0  0  0  0  0  0  0
    0.7610    2.3047    0.9895 H   0  0  0  0  0  0  0  0  0  0  0  0
    2.1124   -1.3008   -0.1360 C   0  0  0  0  0  0  0  0  0  0  0  0
    3.2399   -1.5966    0.6605 C   0  0  0  0  0  0  0  0  0  0  0  0
    3.7141   -0.8031    1.2550 H   0  0  0  0  0  0  0  0  0  0  0  0
    3.7425   -2.9020    0.7006 C   0  0  0  0  0  0  0  0  0  0  0  0
    4.6217   -3.1147    1.3299 H   0  0  0  0  0  0  0  0  0  0  0  0
    3.1412   -3.9516   -0.0260 C   0  0  0  0  0  0  0  0  0  0  0  0
    2.0027   -3.6381   -0.7961 C   0  0  0  0  0  0  0  0  0  0  0  0
    1.5009   -4.4339   -1.3696 H   0  0  0  0  0  0  0  0  0  0  0  0
    1.4903   -2.3367   -0.8628 C   0  0  0  0  0  0  0  0  0  0  0  0
    0.5937   -2.1206   -1.4604 H   0  0  0  0  0  0  0  0  0  0  0  0
    4.6967    4.8294    0.3548 C   0  0  0  0  0  0  0  0  0  0  0  0
    4.0595    5.7281    0.4710 H   0  0  0  0  0  0  0  0  0  0  0  0
    5.3593    4.9882   -0.5197 H   0  0  0  0  0  0  0  0  0  0  0  0
    5.3523    4.7747    1.2512 H   0  0  0  0  0  0  0  0  0  0  0  0
    3.7125   -5.3465    0.0004 C   0  0  0  0  0  0  0  0  0  0  0  0
    4.1755   -5.5811    0.9799 H   0  0  0  0  0  0  0  0  0  0  0  0
    4.5048   -5.4711   -0.7696 H   0  0  0  0  0  0  0  0  0  0  0  0
    2.9368   -6.1101   -0.2064 H   0  0  0  0  0  0  0  0  0  0  0  0
  1  2  1  0  0  0  0
  2 13  1  0  0  0  0
  2  3  1  0  0  0  0
  3 11  1  0  0  0  0
  4  6  1  0  0  0  0
  4  3  2  0  0  0  0
  5  4  1  0  0  0  0
  6  8  2  0  0  0  0
  7  6  1  0  0  0  0
  8 23  1  0  0  0  0
  8  9  1  0  0  0  0
  9 10  1  0  0  0  0
 11  9  2  0  0  0  0
 11 12  1  0  0  0  0
 13 14  1  0  0  0  0
 14 16  2  0  0  0  0
 14 15  1  0  0  0  0
 16 17  1  0  0  0  0
 18 27  1  0  0  0  0
 18 16  1  0  0  0  0
 19 18  2  0  0  0  0
 20 19  1  0  0  0  0
 21 19  1  0  0  0  0
 21 13  2  0  0  0  0
 22 21  1  0  0  0  0
 23 24  1  0  0  0  0
 23 26  1  0  0  0  0
 25 23  1  0  0  0  0
 27 28  1  0  0  0  0
 29 27  1  0  0  0  0
 30 27  1  0  0  0  0
M  END
