1
 OpenBabel05122313053D

 16 16  0  0  0  0  0  0  0  0999 V2000
    0.3609   -0.0072   -0.0009 N   0  0  0  0  0  1  0  0  0  0  0  0
    1.5285   -0.0079   -0.0015 C   0  0  0  0  0  2  0  0  0  0  0  0
    7.2775    0.0085    0.0098 C   0  0  0  0  0  0  0  0  0  0  0  0
    2.9490   -0.0072   -0.0018 C   0  0  0  0  0  0  0  0  0  0  0  0
    3.6538    1.2224   -0.0039 C   0  0  0  0  0  0  0  0  0  0  0  0
    5.0483    1.2098   -0.0056 C   0  0  0  0  0  0  0  0  0  0  0  0
    5.7735   -0.0042   -0.0043 C   0  0  0  0  0  0  0  0  0  0  0  0
    5.0522   -1.2177   -0.0040 C   0  0  0  0  0  0  0  0  0  0  0  0
    3.6556   -1.2335   -0.0023 C   0  0  0  0  0  0  0  0  0  0  0  0
    7.7005   -1.0016   -0.1464 H   0  0  0  0  0  0  0  0  0  0  0  0
    7.6801    0.6818   -0.7739 H   0  0  0  0  0  0  0  0  0  0  0  0
    7.6561    0.3886    0.9823 H   0  0  0  0  0  0  0  0  0  0  0  0
    3.0971    2.1703   -0.0056 H   0  0  0  0  0  0  0  0  0  0  0  0
    5.5942    2.1657   -0.0092 H   0  0  0  0  0  0  0  0  0  0  0  0
    5.6008   -2.1718   -0.0063 H   0  0  0  0  0  0  0  0  0  0  0  0
    3.1020   -2.1832   -0.0029 H   0  0  0  0  0  0  0  0  0  0  0  0
  2  1  1  0  0  0  0
  3 12  1  0  0  0  0
  4  2  1  0  0  0  0
  5  4  2  0  0  0  0
  6  7  2  0  0  0  0
  6  5  1  0  0  0  0
  7  8  1  0  0  0  0
  7  3  1  0  0  0  0
  8  9  2  0  0  0  0
  9  4  1  0  0  0  0
 10  3  1  0  0  0  0
 11  3  1  0  0  0  0
 13  5  1  0  0  0  0
 14  6  1  0  0  0  0
 15  8  1  0  0  0  0
 16  9  1  0  0  0  0
M  END
