2
 OpenBabel05122313053D

 13 13  0  0  0  0  0  0  0  0999 V2000
   -4.2027   -2.2686    2.1507 Cl  0  0  0  0  0  0  0  0  0  0  0  0
   -0.8740   -1.3683   -0.0833 N   0  0  0  0  0  1  0  0  0  0  0  0
   -1.9416   -1.8734    0.2840 N   0  0  0  0  0  2  0  0  0  0  0  0
   -3.1695   -1.4600   -0.2535 C   0  0  0  0  0  0  0  0  0  0  0  0
   -4.3386   -1.6131    0.5325 C   0  0  0  0  0  0  0  0  0  0  0  0
   -5.5888   -1.2059    0.0493 C   0  0  0  0  0  0  0  0  0  0  0  0
   -5.6851   -0.6357   -1.2294 C   0  0  0  0  0  0  0  0  0  0  0  0
   -4.5311   -0.4751   -2.0163 C   0  0  0  0  0  0  0  0  0  0  0  0
   -3.2807   -0.8810   -1.5402 C   0  0  0  0  0  0  0  0  0  0  0  0
   -6.4748   -1.3310    0.6876 H   0  0  0  0  0  0  0  0  0  0  0  0
   -6.6676   -0.3153   -1.6068 H   0  0  0  0  0  0  0  0  0  0  0  0
   -4.5999   -0.0229   -3.0164 H   0  0  0  0  0  0  0  0  0  0  0  0
   -2.3703   -0.7752   -2.1557 H   0  0  0  0  0  0  0  0  0  0  0  0
  2  3  1  0  0  0  0
  4  3  1  0  0  0  0
  4  5  1  0  0  0  0
  5  1  1  0  0  0  0
  6  5  2  0  0  0  0
  6 10  1  0  0  0  0
  7  6  1  0  0  0  0
  8  9  1  0  0  0  0
  8  7  2  0  0  0  0
  9  4  2  0  0  0  0
 11  7  1  0  0  0  0
 12  8  1  0  0  0  0
 13  9  1  0  0  0  0
M  END
