1
 OpenBabel05122313053D

 18 18  0  0  1  0  0  0  0  0999 V2000
    1.0333    0.0001   -0.4390 N   0  0  0  0  0  1  0  0  0  0  0  0
    2.3213   -0.0000   -0.2119 N   0  0  0  0  0  0  0  0  0  0  0  0
    2.1911    2.4472   -0.2985 C   0  0  0  0  0  0  0  0  0  0  0  0
    3.0088    1.2160   -0.1183 C   0  0  2  0  0  3  0  0  0  0  0  0
    4.3839    1.2030    0.1138 C   0  0  0  0  0  0  0  0  0  0  0  0
    5.0909   -0.0002    0.2417 C   0  0  0  0  0  0  0  0  0  0  0  0
    4.3838   -1.2034    0.1135 C   0  0  0  0  0  0  0  0  0  0  0  0
    3.0087   -1.2161   -0.1186 C   0  0  0  0  0  0  0  0  0  0  0  0
    2.1909   -2.4473   -0.2994 C   0  0  0  0  0  0  0  0  0  0  0  0
    1.6030    2.3986   -1.2385 H   0  0  0  0  0  0  0  0  0  0  0  0
    1.4300    2.5429    0.5031 H   0  0  0  0  0  0  0  0  0  0  0  0
    2.8378    3.3430   -0.2946 H   0  0  0  0  0  0  0  0  0  0  0  0
    4.8985    2.1718    0.1852 H   0  0  0  0  0  0  0  0  0  0  0  0
    6.1747   -0.0003    0.4229 H   0  0  0  0  0  0  0  0  0  0  0  0
    4.8983   -2.1723    0.1847 H   0  0  0  0  0  0  0  0  0  0  0  0
    1.6029   -2.3981   -1.2395 H   0  0  0  0  0  0  0  0  0  0  0  0
    2.8376   -3.3431   -0.2958 H   0  0  0  0  0  0  0  0  0  0  0  0
    1.4297   -2.5433    0.5020 H   0  0  0  0  0  0  0  0  0  0  0  0
  1  2  1  0  0  0  0
  2  8  1  0  0  0  0
  2  4  1  0  0  0  0
  3 12  1  0  0  0  0
  3 11  1  0  0  0  0
  4  3  1  6  0  0  0
  4  5  1  0  0  0  0
  5 13  1  0  0  0  0
  5  6  2  0  0  0  0
  6 14  1  0  0  0  0
  7 15  1  0  0  0  0
  7  6  1  0  0  0  0
  8  7  2  0  0  0  0
  9 17  1  0  0  0  0
  9  8  1  0  0  0  0
  9 18  1  0  0  0  0
 10  3  1  0  0  0  0
 16  9  1  0  0  0  0
M  END
