1
 OpenBabel05122313053D

 50 52  0  0  0  0  0  0  0  0999 V2000
   -0.1477    0.5724   -0.3692 N   0  0  0  0  0  1  0  0  0  0  0  0
   -0.3987    1.8531    0.0494 C   0  0  0  0  0  0  0  0  0  0  0  0
   -1.7337    2.3484    0.1723 C   0  0  0  0  0  0  0  0  0  0  0  0
   -1.9202    3.6809    0.5817 C   0  0  0  0  0  0  0  0  0  0  0  0
   -2.9489    4.0632    0.6675 H   0  0  0  0  0  0  0  0  0  0  0  0
   -0.8317    4.5194    0.8632 C   0  0  0  0  0  0  0  0  0  0  0  0
   -1.0026    5.5607    1.1744 H   0  0  0  0  0  0  0  0  0  0  0  0
    0.4765    4.0278    0.7348 C   0  0  0  0  0  0  0  0  0  0  0  0
    1.3394    4.6791    0.9435 H   0  0  0  0  0  0  0  0  0  0  0  0
    0.7136    2.7054    0.3259 C   0  0  0  0  0  0  0  0  0  0  0  0
   -2.8954    1.4644   -0.1310 C   0  0  0  0  0  0  0  0  0  0  0  0
   -3.7404    1.0173    0.9168 C   0  0  0  0  0  0  0  0  0  0  0  0
   -4.8097    0.1545    0.6090 C   0  0  0  0  0  0  0  0  0  0  0  0
   -5.4563   -0.2027    1.4275 H   0  0  0  0  0  0  0  0  0  0  0  0
   -5.0670   -0.2736   -0.7042 C   0  0  0  0  0  0  0  0  0  0  0  0
   -4.2361    0.2113   -1.7301 C   0  0  0  0  0  0  0  0  0  0  0  0
   -4.4282   -0.0965   -2.7706 H   0  0  0  0  0  0  0  0  0  0  0  0
   -3.1592    1.0755   -1.4722 C   0  0  0  0  0  0  0  0  0  0  0  0
   -3.5194    1.4483    2.3476 C   0  0  0  0  0  0  0  0  0  0  0  0
   -3.9701    0.7254    3.0556 H   0  0  0  0  0  0  0  0  0  0  0  0
   -3.9806    2.4386    2.5501 H   0  0  0  0  0  0  0  0  0  0  0  0
   -2.4438    1.5520    2.5891 H   0  0  0  0  0  0  0  0  0  0  0  0
   -6.1798   -1.2449   -1.0077 C   0  0  0  0  0  0  0  0  0  0  0  0
   -5.7755   -2.2642   -1.1881 H   0  0  0  0  0  0  0  0  0  0  0  0
   -6.7370   -0.9551   -1.9216 H   0  0  0  0  0  0  0  0  0  0  0  0
   -6.9020   -1.3170   -0.1710 H   0  0  0  0  0  0  0  0  0  0  0  0
   -2.3072    1.5761   -2.6111 C   0  0  0  0  0  0  0  0  0  0  0  0
   -2.8359    1.4733   -3.5780 H   0  0  0  0  0  0  0  0  0  0  0  0
   -1.3679    0.9892   -2.6858 H   0  0  0  0  0  0  0  0  0  0  0  0
   -2.0211    2.6377   -2.4743 H   0  0  0  0  0  0  0  0  0  0  0  0
    2.6827    2.0707   -1.1143 C   0  0  0  0  0  0  0  0  0  0  0  0
    2.1034    2.1811    0.1752 C   0  0  0  0  0  0  0  0  0  0  0  0
    4.0010    1.5850   -1.2302 C   0  0  0  0  0  0  0  0  0  0  0  0
    4.4501    1.5039   -2.2336 H   0  0  0  0  0  0  0  0  0  0  0  0
    4.7622    1.2205   -0.1045 C   0  0  0  0  0  0  0  0  0  0  0  0
    4.1578    1.3258    1.1622 C   0  0  0  0  0  0  0  0  0  0  0  0
    4.7284    1.0310    2.0584 H   0  0  0  0  0  0  0  0  0  0  0  0
    2.8401    1.7897    1.3220 C   0  0  0  0  0  0  0  0  0  0  0  0
    2.2059    1.8383    2.6896 C   0  0  0  0  0  0  0  0  0  0  0  0
    1.9218    2.8711    2.9762 H   0  0  0  0  0  0  0  0  0  0  0  0
    2.8879    1.4395    3.4649 H   0  0  0  0  0  0  0  0  0  0  0  0
    1.2691    1.2441    2.7109 H   0  0  0  0  0  0  0  0  0  0  0  0
    1.8992    2.4609   -2.3421 C   0  0  0  0  0  0  0  0  0  0  0  0
    1.0122    1.8062   -2.4710 H   0  0  0  0  0  0  0  0  0  0  0  0
    2.5176    2.3882   -3.2570 H   0  0  0  0  0  0  0  0  0  0  0  0
    1.5124    3.4969   -2.2613 H   0  0  0  0  0  0  0  0  0  0  0  0
    6.1841    0.7355   -0.2398 C   0  0  0  0  0  0  0  0  0  0  0  0
    6.3476   -0.2065    0.3234 H   0  0  0  0  0  0  0  0  0  0  0  0
    6.9016    1.4796    0.1665 H   0  0  0  0  0  0  0  0  0  0  0  0
    6.4561    0.5530   -1.2975 H   0  0  0  0  0  0  0  0  0  0  0  0
  1  2  1  0  0  0  0
  2  3  2  0  0  0  0
  2 10  1  0  0  0  0
  3  4  1  0  0  0  0
  4  5  1  0  0  0  0
  4  6  2  0  0  0  0
  6  7  1  0  0  0  0
  8  6  1  0  0  0  0
  8  9  1  0  0  0  0
 10  8  2  0  0  0  0
 11  3  1  0  0  0  0
 11 12  1  0  0  0  0
 12 19  1  0  0  0  0
 13 12  2  0  0  0  0
 13 14  1  0  0  0  0
 15 13  1  0  0  0  0
 16 18  1  0  0  0  0
 16 15  2  0  0  0  0
 17 16  1  0  0  0  0
 18 11  2  0  0  0  0
 19 21  1  0  0  0  0
 19 22  1  0  0  0  0
 19 20  1  0  0  0  0
 23 15  1  0  0  0  0
 23 26  1  0  0  0  0
 24 23  1  0  0  0  0
 25 23  1  0  0  0  0
 27 30  1  0  0  0  0
 27 18  1  0  0  0  0
 28 27  1  0  0  0  0
 29 27  1  0  0  0  0
 31 32  1  0  0  0  0
 32 10  1  0  0  0  0
 32 38  2  0  0  0  0
 33 31  2  0  0  0  0
 33 35  1  0  0  0  0
 34 33  1  0  0  0  0
 35 36  2  0  0  0  0
 36 38  1  0  0  0  0
 36 37  1  0  0  0  0
 38 39  1  0  0  0  0
 39 42  1  0  0  0  0
 39 40  1  0  0  0  0
 39 41  1  0  0  0  0
 43 46  1  0  0  0  0
 43 31  1  0  0  0  0
 44 43  1  0  0  0  0
 45 43  1  0  0  0  0
 47 35  1  0  0  0  0
 47 49  1  0  0  0  0
 47 48  1  0  0  0  0
 50 47  1  0  0  0  0
M  END
