1
 OpenBabel05122313053D

 18 18  0  0  0  0  0  0  0  0999 V2000
    1.4528    0.4866   -0.2871 N   0  0  0  0  0  1  0  0  0  0  0  0
    3.4482   -0.8279   -0.3263 N   0  0  0  0  0  0  0  0  0  0  0  0
    3.6498    1.3864   -0.0762 N   0  0  0  0  0  0  0  0  0  0  0  0
    2.7480    0.3571   -0.2352 C   0  0  0  0  0  3  0  0  0  0  0  0
    2.8337   -2.1244   -0.1470 C   0  0  0  0  0  0  0  0  0  0  0  0
    1.7777   -2.0701   -0.4708 H   0  0  0  0  0  0  0  0  0  0  0  0
    2.8498   -2.4479    0.9186 H   0  0  0  0  0  0  0  0  0  0  0  0
    3.3594   -2.8798   -0.7647 H   0  0  0  0  0  0  0  0  0  0  0  0
    3.2862    2.7750   -0.2156 C   0  0  0  0  0  0  0  0  0  0  0  0
    2.2083    2.8754    0.0133 H   0  0  0  0  0  0  0  0  0  0  0  0
    3.4699    3.1552   -1.2473 H   0  0  0  0  0  0  0  0  0  0  0  0
    3.8655    3.3966    0.4968 H   0  0  0  0  0  0  0  0  0  0  0  0
    4.8545   -0.6038   -0.0153 C   0  0  0  0  0  0  0  0  0  0  0  0
    5.5177   -1.2205   -0.6550 H   0  0  0  0  0  0  0  0  0  0  0  0
    5.0659   -0.8640    1.0502 H   0  0  0  0  0  0  0  0  0  0  0  0
    5.0101    0.9056   -0.2703 C   0  0  0  0  0  0  0  0  0  0  0  0
    5.7196    1.3910    0.4300 H   0  0  0  0  0  0  0  0  0  0  0  0
    5.3576    1.1139   -1.3113 H   0  0  0  0  0  0  0  0  0  0  0  0
  1  4  1  0  0  0  0
  2  4  1  0  0  0  0
  2  5  1  0  0  0  0
  2 13  1  0  0  0  0
  4  3  1  0  0  0  0
  5  7  1  0  0  0  0
  6  5  1  0  0  0  0
  8  5  1  0  0  0  0
  9  3  1  0  0  0  0
  9 10  1  0  0  0  0
  9 12  1  0  0  0  0
 11  9  1  0  0  0  0
 13 15  1  0  0  0  0
 14 13  1  0  0  0  0
 16  3  1  0  0  0  0
 16 13  1  0  0  0  0
 16 17  1  0  0  0  0
 18 16  1  0  0  0  0
M  END
