1
 OpenBabel05122313053D

 10  9  0  0  0  0  0  0  0  0999 V2000
   -1.5912   -0.0144   -0.6124 N   0  0  0  0  0  0  0  0  0  0  0  0
   -3.8983    3.3901   -2.1627 N   0  0  0  0  0  0  0  0  0  0  0  0
   -4.9741   -1.8819    0.5742 N   0  0  0  0  0  0  0  0  0  0  0  0
   -7.4505    1.4765   -1.0844 N   0  0  0  0  0  0  0  0  0  0  0  0
   -3.9139    1.0303   -1.0506 C   0  0  0  0  0  0  0  0  0  0  0  0
   -2.6687    0.4462   -0.8375 C   0  0  0  0  0  0  0  0  0  0  0  0
   -3.9316    2.3277   -1.6629 C   0  0  0  0  0  0  0  0  0  0  0  0
   -5.1244    0.3963   -0.6655 C   0  0  0  0  0  0  0  0  0  0  0  0
   -5.0627   -0.8571    0.0042 C   0  0  0  0  0  0  0  0  0  0  0  0
   -6.3941    0.9917   -0.8993 C   0  0  0  0  0  0  0  0  0  0  0  0
  2  7  3  0  0  0  0
  4 10  3  0  0  0  0
  5  6  1  0  0  0  0
  5  8  2  0  0  0  0
  6  1  1  0  0  0  0
  7  5  1  0  0  0  0
  8  9  1  0  0  0  0
  9  3  3  0  0  0  0
 10  8  1  0  0  0  0
M  END
