1
 OpenBabel05122313053D

 15 15  0  0  0  0  0  0  0  0999 V2000
   -1.5140   -0.7278   -0.3943 N   0  0  0  0  0  1  0  0  0  0  0  0
   -2.7439   -0.6695   -0.5150 N   0  0  0  0  0  2  0  0  0  0  0  0
   -3.6420   -0.6850    0.5621 C   0  0  0  0  0  0  0  0  0  0  0  0
   -3.2908   -0.7609    1.7473 O   0  0  0  0  0  0  0  0  0  0  0  0
   -5.0670   -0.5831    0.1435 C   0  0  0  0  0  0  0  0  0  0  0  0
   -5.4451   -0.5121   -1.2142 C   0  0  0  0  0  0  0  0  0  0  0  0
   -4.6628   -0.5397   -1.9864 H   0  0  0  0  0  0  0  0  0  0  0  0
   -6.7992   -0.4137   -1.5586 C   0  0  0  0  0  0  0  0  0  0  0  0
   -7.0924   -0.3613   -2.6180 H   0  0  0  0  0  0  0  0  0  0  0  0
   -7.7819   -0.3845   -0.5542 C   0  0  0  0  0  0  0  0  0  0  0  0
   -8.8453   -0.3071   -0.8281 H   0  0  0  0  0  0  0  0  0  0  0  0
   -7.4087   -0.4555    0.7994 C   0  0  0  0  0  0  0  0  0  0  0  0
   -8.1793   -0.4334    1.5850 H   0  0  0  0  0  0  0  0  0  0  0  0
   -6.0571   -0.5553    1.1481 C   0  0  0  0  0  0  0  0  0  0  0  0
   -5.7333   -0.6133    2.1976 H   0  0  0  0  0  0  0  0  0  0  0  0
  2  1  1  0  0  0  0
  2  3  1  0  0  0  0
  3  4  2  0  0  0  0
  5  3  1  0  0  0  0
  5 14  1  0  0  0  0
  6  5  2  0  0  0  0
  7  6  1  0  0  0  0
  8  6  1  0  0  0  0
  8 10  2  0  0  0  0
  9  8  1  0  0  0  0
 10 12  1  0  0  0  0
 11 10  1  0  0  0  0
 12 14  2  0  0  0  0
 12 13  1  0  0  0  0
 14 15  1  0  0  0  0
M  END
