1
 OpenBabel05122313053D

 12 12  0  0  0  0  0  0  0  0999 V2000
    0.7101    0.1975   -0.3571 N   0  0  0  0  0  1  0  0  0  0  0  0
    2.0323    0.4648   -0.3039 C   0  0  0  0  0  0  0  0  0  0  0  0
    2.5920    1.7398    0.0383 C   0  0  0  0  0  0  0  0  0  0  0  0
    3.9655    2.0041    0.0680 C   0  0  0  0  0  0  0  0  0  0  0  0
    4.8773    0.9836   -0.2362 C   0  0  0  0  0  0  0  0  0  0  0  0
    4.3997   -0.2944   -0.5653 C   0  0  0  0  0  0  0  0  0  0  0  0
    3.0241   -0.5383   -0.5968 C   0  0  0  0  0  0  0  0  0  0  0  0
    1.4201    3.1794    0.5015 Br  0  0  0  0  0  0  0  0  0  0  0  0
    2.4237   -2.2864   -1.0442 Br  0  0  0  0  0  0  0  0  0  0  0  0
    4.3154    3.0110    0.3355 H   0  0  0  0  0  0  0  0  0  0  0  0
    5.9583    1.1834   -0.2156 H   0  0  0  0  0  0  0  0  0  0  0  0
    5.0950   -1.1117   -0.8025 H   0  0  0  0  0  0  0  0  0  0  0  0
  1  2  1  0  0  0  0
  2  3  1  0  0  0  0
  3  4  2  0  0  0  0
  3  8  1  0  0  0  0
  4 10  1  0  0  0  0
  5 11  1  0  0  0  0
  5  4  1  0  0  0  0
  6  5  2  0  0  0  0
  7  6  1  0  0  0  0
  7  2  2  0  0  0  0
  9  7  1  0  0  0  0
 12  6  1  0  0  0  0
M  END
