1
q = 0.0, confidence = 0.992

 18 18  0  0  0  0  0  0  0  0999 V2000
    1.5935   -1.1474    0.0000 N   0  0  0  0  0  1  0  0  0  0  0  0
    4.0819   -1.3235    0.0000 N   0  0  0  0  0  0  0  0  0  0  0  0
    2.7718   -1.2047    0.0000 C   0  0  0  0  0  2  0  0  0  0  0  0
    4.7908   -0.9331    1.2461 C   0  0  0  0  0  0  0  0  0  0  0  0
    5.7444   -1.5038    1.2598 H   0  0  0  0  0  0  0  0  0  0  0  0
    4.1828   -1.2703    2.1074 H   0  0  0  0  0  0  0  0  0  0  0  0
    5.0412    0.5776    1.2666 C   0  0  0  0  0  0  0  0  0  0  0  0
    4.0586    1.0959    1.3223 H   0  0  0  0  0  0  0  0  0  0  0  0
    5.6129    0.8423    2.1803 H   0  0  0  0  0  0  0  0  0  0  0  0
    4.7908   -0.9332   -1.2461 C   0  0  0  0  0  0  0  0  0  0  0  0
    4.1827   -1.2704   -2.1074 H   0  0  0  0  0  0  0  0  0  0  0  0
    5.7444   -1.5040   -1.2598 H   0  0  0  0  0  0  0  0  0  0  0  0
    5.7856    1.0265   -0.0001 C   0  0  0  0  0  0  0  0  0  0  0  0
    5.9041    2.1290   -0.0002 H   0  0  0  0  0  0  0  0  0  0  0  0
    6.8143    0.5982   -0.0001 H   0  0  0  0  0  0  0  0  0  0  0  0
    5.0412    0.5775   -1.2667 C   0  0  0  0  0  0  0  0  0  0  0  0
    5.6129    0.8421   -2.1805 H   0  0  0  0  0  0  0  0  0  0  0  0
    4.0586    1.0957   -1.3225 H   0  0  0  0  0  0  0  0  0  0  0  0
  2  4  1  0  0  0  0
  3  2  1  0  0  0  0
  3  1  1  0  0  0  0
  4  5  1  0  0  0  0
  4  7  1  0  0  0  0
  4  6  1  0  0  0  0
  7  8  1  0  0  0  0
  7  9  1  0  0  0  0
 10  2  1  0  0  0  0
 11 10  1  0  0  0  0
 12 10  1  0  0  0  0
 13 15  1  0  0  0  0
 13  7  1  0  0  0  0
 14 13  1  0  0  0  0
 16 10  1  0  0  0  0
 16 13  1  0  0  0  0
 17 16  1  0  0  0  0
 18 16  1  0  0  0  0
M  END
