3
 OpenBabel05122313053D

 15 15  0  0  0  0  0  0  0  0999 V2000
   -2.8615    1.9985   -1.9009 Cl  0  0  0  0  0  0  0  0  0  0  0  0
   -2.6507    2.9658    1.0339 Cl  0  0  0  0  0  0  0  0  0  0  0  0
   -1.1933    0.9445   -0.0791 N   0  0  0  0  0  1  0  0  0  0  0  0
   -1.6960    2.3380   -0.4626 B   0  0  0  0  0  0  0  0  0  0  0  0
   -0.4135    3.2330   -0.8562 C   0  0  0  0  0  0  0  0  0  0  0  0
    0.3569    2.8723   -1.9860 C   0  0  0  0  0  0  0  0  0  0  0  0
    0.0057    2.0518   -2.6318 H   0  0  0  0  0  0  0  0  0  0  0  0
    1.5489    3.5403   -2.3018 C   0  0  0  0  0  0  0  0  0  0  0  0
    2.1322    3.2342   -3.1845 H   0  0  0  0  0  0  0  0  0  0  0  0
    1.9996    4.5967   -1.4910 C   0  0  0  0  0  0  0  0  0  0  0  0
    2.9344    5.1251   -1.7359 H   0  0  0  0  0  0  0  0  0  0  0  0
    1.2426    4.9805   -0.3725 C   0  0  0  0  0  0  0  0  0  0  0  0
    1.5815    5.8141    0.2626 H   0  0  0  0  0  0  0  0  0  0  0  0
    0.0518    4.3015   -0.0604 C   0  0  0  0  0  0  0  0  0  0  0  0
   -0.5427    4.6047    0.8160 H   0  0  0  0  0  0  0  0  0  0  0  0
  1  4  1  0  0  0  0
  4  3  1  0  0  0  0
  4  2  1  0  0  0  0
  5  4  1  0  0  0  0
  5 14  1  0  0  0  0
  6  5  2  0  0  0  0
  7  6  1  0  0  0  0
  8  6  1  0  0  0  0
  8 10  2  0  0  0  0
  9  8  1  0  0  0  0
 10 12  1  0  0  0  0
 11 10  1  0  0  0  0
 12 14  2  0  0  0  0
 12 13  1  0  0  0  0
 14 15  1  0  0  0  0
M  END
