1
 OpenBabel05122313053D

 23 22  0  0  0  0  0  0  0  0999 V2000
    1.2371    0.1419   -0.0088 N   0  0  0  0  0  1  0  0  0  0  0  0
    2.8900   -0.0828   -0.0761 P   0  0  0  0  0  4  0  0  0  0  0  0
    3.5161   -1.6675   -1.1058 S   0  0  0  0  0  1  0  0  0  0  0  0
    3.5243    1.5170   -0.8012 C   0  0  0  0  0  0  0  0  0  0  0  0
    2.9702    1.6586   -2.2233 C   0  0  0  0  0  0  0  0  0  0  0  0
    5.0530    1.5747   -0.7519 C   0  0  0  0  0  0  0  0  0  0  0  0
    3.4307   -0.1601    1.7115 C   0  0  0  0  0  0  0  0  0  0  0  0
    2.9800    1.0701    2.5056 C   0  0  0  0  0  0  0  0  0  0  0  0
    2.9107   -1.4622    2.3320 C   0  0  0  0  0  0  0  0  0  0  0  0
    3.0849    2.3096   -0.1553 H   0  0  0  0  0  0  0  0  0  0  0  0
    3.2882    2.6259   -2.6652 H   0  0  0  0  0  0  0  0  0  0  0  0
    3.3514    0.8357   -2.8615 H   0  0  0  0  0  0  0  0  0  0  0  0
    1.8635    1.6039   -2.2376 H   0  0  0  0  0  0  0  0  0  0  0  0
    5.4225    2.4901   -1.2594 H   0  0  0  0  0  0  0  0  0  0  0  0
    5.4427    1.5841    0.2863 H   0  0  0  0  0  0  0  0  0  0  0  0
    5.4821    0.6927   -1.2708 H   0  0  0  0  0  0  0  0  0  0  0  0
    4.5410   -0.2002    1.6510 H   0  0  0  0  0  0  0  0  0  0  0  0
    3.3743    1.0197    3.5422 H   0  0  0  0  0  0  0  0  0  0  0  0
    3.3354    2.0223    2.0621 H   0  0  0  0  0  0  0  0  0  0  0  0
    1.8726    1.0928    2.5713 H   0  0  0  0  0  0  0  0  0  0  0  0
    3.3256   -1.5932    3.3529 H   0  0  0  0  0  0  0  0  0  0  0  0
    1.8045   -1.4341    2.4102 H   0  0  0  0  0  0  0  0  0  0  0  0
    3.2001   -2.3343    1.7133 H   0  0  0  0  0  0  0  0  0  0  0  0
  2  1  1  0  0  0  0
  2  7  1  0  0  0  0
  3  2  1  0  0  0  0
  4  6  1  0  0  0  0
  4 10  1  0  0  0  0
  4  2  1  0  0  0  0
  5  4  1  0  0  0  0
  6 15  1  0  0  0  0
  7  9  1  0  0  0  0
  7  8  1  0  0  0  0
  8 20  1  0  0  0  0
  8 18  1  0  0  0  0
  9 22  1  0  0  0  0
  9 21  1  0  0  0  0
 11  5  1  0  0  0  0
 12  5  1  0  0  0  0
 13  5  1  0  0  0  0
 14  6  1  0  0  0  0
 16  6  1  0  0  0  0
 17  7  1  0  0  0  0
 19  8  1  0  0  0  0
 23  9  1  0  0  0  0
M  END
