1
 OpenBabel05122313053D

 39 40  0  0  0  0  0  0  0  0999 V2000
    0.0694    0.4400   -0.2021 N   0  0  0  0  0  1  0  0  0  0  0  0
    1.5687   -0.1068   -0.2448 P   0  0  0  0  0  4  0  0  0  0  0  0
    1.7197   -1.7690   -0.9805 C   0  0  0  0  0  0  0  0  0  0  0  0
    1.2515   -2.8791   -0.2460 C   0  0  0  0  0  0  0  0  0  0  0  0
    1.2612   -4.1518   -0.8333 C   0  0  0  0  0  0  0  0  0  0  0  0
    1.7308   -4.3209   -2.1475 C   0  0  0  0  0  0  0  0  0  0  0  0
    2.1906   -3.2142   -2.8796 C   0  0  0  0  0  0  0  0  0  0  0  0
    2.1843   -1.9366   -2.2988 C   0  0  0  0  0  0  0  0  0  0  0  0
    2.3172   -0.2295    1.4200 C   0  0  0  0  0  0  0  0  0  0  0  0
    1.7771    0.5345    2.4728 C   0  0  0  0  0  0  0  0  0  0  0  0
    2.3957    0.5153    3.7310 C   0  0  0  0  0  0  0  0  0  0  0  0
    3.5435   -0.2651    3.9447 C   0  0  0  0  0  0  0  0  0  0  0  0
    4.0778   -1.0330    2.8971 C   0  0  0  0  0  0  0  0  0  0  0  0
    3.4662   -1.0174    1.6348 C   0  0  0  0  0  0  0  0  0  0  0  0
    2.5456    0.9203   -1.1644 N   0  0  0  0  0  0  0  0  0  0  0  0
    2.1943    2.6746   -1.4073 Si  0  0  0  0  0  0  0  0  0  0  0  0
    1.6686    3.5019    0.1972 C   0  0  0  0  0  0  0  0  0  0  0  0
    0.8556    2.8484   -2.7142 C   0  0  0  0  0  0  0  0  0  0  0  0
    3.8455    3.3575   -2.0197 C   0  0  0  0  0  0  0  0  0  0  0  0
    0.8581   -2.7356    0.7731 H   0  0  0  0  0  0  0  0  0  0  0  0
    0.8929   -5.0178   -0.2629 H   0  0  0  0  0  0  0  0  0  0  0  0
    1.7352   -5.3222   -2.6045 H   0  0  0  0  0  0  0  0  0  0  0  0
    2.5541   -3.3463   -3.9101 H   0  0  0  0  0  0  0  0  0  0  0  0
    2.5295   -1.0561   -2.8621 H   0  0  0  0  0  0  0  0  0  0  0  0
    0.8661    1.1301    2.3073 H   0  0  0  0  0  0  0  0  0  0  0  0
    1.9676    1.1069    4.5542 H   0  0  0  0  0  0  0  0  0  0  0  0
    4.0208   -0.2822    4.9365 H   0  0  0  0  0  0  0  0  0  0  0  0
    4.9712   -1.6535    3.0657 H   0  0  0  0  0  0  0  0  0  0  0  0
    3.8771   -1.6326    0.8182 H   0  0  0  0  0  0  0  0  0  0  0  0
    0.6762    3.1306    0.5283 H   0  0  0  0  0  0  0  0  0  0  0  0
    2.3995    3.3083    1.0086 H   0  0  0  0  0  0  0  0  0  0  0  0
    1.5946    4.6007    0.0573 H   0  0  0  0  0  0  0  0  0  0  0  0
   -0.0857    2.4221   -2.3172 H   0  0  0  0  0  0  0  0  0  0  0  0
    0.6762    3.9148   -2.9618 H   0  0  0  0  0  0  0  0  0  0  0  0
    1.1232    2.3100   -3.6454 H   0  0  0  0  0  0  0  0  0  0  0  0
    4.1835    2.8437   -2.9430 H   0  0  0  0  0  0  0  0  0  0  0  0
    3.7499    4.4379   -2.2527 H   0  0  0  0  0  0  0  0  0  0  0  0
    4.6394    3.2529   -1.2513 H   0  0  0  0  0  0  0  0  0  0  0  0
    3.5433    0.6789   -1.1245 H   0  0  0  0  0  0  0  0  0  0  0  0
  2  1  1  0  0  0  0
  2  9  1  0  0  0  0
  3  4  1  0  0  0  0
  3  2  1  0  0  0  0
  4 20  1  0  0  0  0
  5 21  1  0  0  0  0
  5  4  2  0  0  0  0
  6  5  1  0  0  0  0
  7  8  1  0  0  0  0
  7  6  2  0  0  0  0
  8  3  2  0  0  0  0
  9 14  2  0  0  0  0
  9 10  1  0  0  0  0
 10 11  2  0  0  0  0
 11 12  1  0  0  0  0
 11 26  1  0  0  0  0
 12 27  1  0  0  0  0
 13 28  1  0  0  0  0
 13 12  2  0  0  0  0
 14 13  1  0  0  0  0
 15 39  1  0  0  0  0
 15  2  1  0  0  0  0
 16 15  1  0  0  0  0
 16 17  1  0  0  0  0
 17 30  1  0  0  0  0
 17 31  1  0  0  0  0
 18 33  1  0  0  0  0
 18 16  1  0  0  0  0
 19 16  1  0  0  0  0
 19 38  1  0  0  0  0
 22  6  1  0  0  0  0
 23  7  1  0  0  0  0
 24  8  1  0  0  0  0
 25 10  1  0  0  0  0
 29 14  1  0  0  0  0
 32 17  1  0  0  0  0
 34 18  1  0  0  0  0
 35 18  1  0  0  0  0
 36 19  1  0  0  0  0
 37 19  1  0  0  0  0
M  END
