1
 OpenBabel05122313053D

 13 13  0  0  0  0  0  0  0  0999 V2000
    1.2963    0.3081   -0.7726 N   0  0  0  0  0  1  0  0  0  0  0  0
    2.4507    0.2344   -1.2935 N   0  0  0  0  0  0  0  0  0  0  0  0
    4.6636   -0.4056   -1.2330 N   0  0  0  0  0  0  0  0  0  0  0  0
    4.6878    0.0182   -2.1689 H   0  0  0  0  0  0  0  0  0  0  0  0
    3.4455   -0.3697   -0.5934 C   0  0  0  0  0  0  0  0  0  0  0  0
    3.3653   -0.9604    0.7012 C   0  0  0  0  0  0  0  0  0  0  0  0
    2.3891   -0.9565    1.2196 H   0  0  0  0  0  0  0  0  0  0  0  0
    4.5010   -1.5338    1.2574 C   0  0  0  0  0  0  0  0  0  0  0  0
    4.4391   -1.9979    2.2535 H   0  0  0  0  0  0  0  0  0  0  0  0
    5.7381   -1.5326    0.5596 C   0  0  0  0  0  0  0  0  0  0  0  0
    6.6438   -1.9774    0.9915 H   0  0  0  0  0  0  0  0  0  0  0  0
    5.7856   -0.9581   -0.6974 C   0  0  0  0  0  0  0  0  0  0  0  0
    6.6925   -0.9162   -1.3163 H   0  0  0  0  0  0  0  0  0  0  0  0
  2  1  1  0  0  0  0
  2  5  2  0  0  0  0
  3 12  1  0  0  0  0
  3  5  1  0  0  0  0
  4  3  1  0  0  0  0
  5  6  1  0  0  0  0
  6  7  1  0  0  0  0
  6  8  2  0  0  0  0
  8  9  1  0  0  0  0
 10 11  1  0  0  0  0
 10  8  1  0  0  0  0
 12 10  2  0  0  0  0
 13 12  1  0  0  0  0
M  END
