4
 OpenBabel05122313053D

 15 15  0  0  0  0  0  0  0  0999 V2000
   -0.2082    2.4767    1.5699 O   0  0  0  0  0  0  0  0  0  0  0  0
    1.3170    3.5063    2.8741 O   0  0  0  0  0  0  0  0  0  0  0  0
    0.5297    3.4698    3.4579 H   0  0  0  0  0  0  0  0  0  0  0  0
    0.7668    1.4060   -0.8468 N   0  0  0  0  0  1  0  0  0  0  0  0
    0.9233    2.9202    1.7133 C   0  0  0  0  0  0  0  0  0  0  0  0
    1.8342    2.1860   -0.5350 C   0  0  0  0  0  0  0  0  0  0  0  0
    1.9967    2.9059    0.6887 C   0  0  0  0  0  0  0  0  0  0  0  0
    3.2009    3.6032    0.9049 C   0  0  0  0  0  0  0  0  0  0  0  0
    3.3243    4.1475    1.8505 H   0  0  0  0  0  0  0  0  0  0  0  0
    4.2195    3.6109   -0.0556 C   0  0  0  0  0  0  0  0  0  0  0  0
    5.1486    4.1672    0.1368 H   0  0  0  0  0  0  0  0  0  0  0  0
    4.0495    2.9101   -1.2633 C   0  0  0  0  0  0  0  0  0  0  0  0
    4.8466    2.9110   -2.0221 H   0  0  0  0  0  0  0  0  0  0  0  0
    2.8715    2.2032   -1.5079 C   0  0  0  0  0  0  0  0  0  0  0  0
    2.7186    1.6119   -2.4229 H   0  0  0  0  0  0  0  0  0  0  0  0
  1  5  2  0  0  0  0
  2  3  1  0  0  0  0
  4  6  1  0  0  0  0
  5  2  1  0  0  0  0
  6  7  1  0  0  0  0
  7  8  2  0  0  0  0
  7  5  1  0  0  0  0
  8  9  1  0  0  0  0
 10 11  1  0  0  0  0
 10  8  1  0  0  0  0
 12 10  2  0  0  0  0
 13 12  1  0  0  0  0
 14 12  1  0  0  0  0
 14  6  2  0  0  0  0
 15 14  1  0  0  0  0
M  END
