3
 OpenBabel05122313053D

 13 13  0  0  0  0  0  0  0  0999 V2000
   -3.2949   -1.7538   -2.3877 F   0  0  0  0  0  0  0  0  0  0  0  0
   -3.4208   -1.6159    2.3367 F   0  0  0  0  0  0  0  0  0  0  0  0
   -0.9636   -0.5513    0.0008 N   0  0  0  0  0  1  0  0  0  0  0  0
   -2.0343   -1.0613   -0.0102 C   0  0  0  0  0  2  0  0  0  0  0  0
   -3.3045   -1.6601   -0.0249 C   0  0  0  0  0  0  0  0  0  0  0  0
   -3.9469   -2.0143   -1.2440 C   0  0  0  0  0  0  0  0  0  0  0  0
   -5.2058   -2.6098   -1.2723 C   0  0  0  0  0  0  0  0  0  0  0  0
   -5.6538   -2.8620   -2.2432 H   0  0  0  0  0  0  0  0  0  0  0  0
   -5.8652   -2.8707   -0.0578 C   0  0  0  0  0  0  0  0  0  0  0  0
   -6.8589   -3.3408   -0.0705 H   0  0  0  0  0  0  0  0  0  0  0  0
   -5.2707   -2.5386    1.1727 C   0  0  0  0  0  0  0  0  0  0  0  0
   -5.7701   -2.7345    2.1314 H   0  0  0  0  0  0  0  0  0  0  0  0
   -4.0113   -1.9436    1.1769 C   0  0  0  0  0  0  0  0  0  0  0  0
  1  6  1  0  0  0  0
  4  3  1  0  0  0  0
  5  4  1  0  0  0  0
  5 13  1  0  0  0  0
  6  5  2  0  0  0  0
  7  6  1  0  0  0  0
  7  9  2  0  0  0  0
  8  7  1  0  0  0  0
  9 11  1  0  0  0  0
 10  9  1  0  0  0  0
 11 13  2  0  0  0  0
 11 12  1  0  0  0  0
 13  2  1  0  0  0  0
M  END
