1
 OpenBabel05122313053D

 36 37  0  0  0  0  0  0  0  0999 V2000
    1.0704    0.7446   -0.0584 N   0  0  0  0  0  1  0  0  0  0  0  0
   -2.5552   -1.5668   -0.4736 N   0  0  0  0  0  0  0  0  0  0  0  0
   -1.0686    2.4116    1.2767 C   0  0  0  0  0  0  0  0  0  0  0  0
    1.2064    3.6862   -2.2718 C   0  0  0  0  0  0  0  0  0  0  0  0
    1.7837    4.0121   -3.1510 H   0  0  0  0  0  0  0  0  0  0  0  0
   -0.2794    2.8256    0.0198 C   0  0  0  0  0  0  0  0  0  0  0  0
   -4.4803   -2.9692   -0.0714 C   0  0  0  0  0  0  0  0  0  0  0  0
   -4.9057   -3.9823   -0.0305 H   0  0  0  0  0  0  0  0  0  0  0  0
    1.4799    2.4547   -1.6749 C   0  0  0  0  0  0  0  0  0  0  0  0
    2.2643    1.7895   -2.0673 H   0  0  0  0  0  0  0  0  0  0  0  0
   -0.0913    2.2931    2.4683 C   0  0  0  0  0  0  0  0  0  0  0  0
    0.6749    1.5256    2.2587 H   0  0  0  0  0  0  0  0  0  0  0  0
   -0.6361    1.9922    3.3874 H   0  0  0  0  0  0  0  0  0  0  0  0
    0.4124    3.2614    2.6635 H   0  0  0  0  0  0  0  0  0  0  0  0
   -3.2898   -0.4660   -0.1986 C   0  0  0  0  0  0  0  0  0  0  0  0
   -0.5273    4.0576   -0.6183 C   0  0  0  0  0  0  0  0  0  0  0  0
   -1.3148    4.7140   -0.2251 H   0  0  0  0  0  0  0  0  0  0  0  0
   -2.5766    0.8600   -0.1938 C   0  0  0  0  0  0  0  0  0  0  0  0
   -3.3171    1.6784   -0.3034 H   0  0  0  0  0  0  0  0  0  0  0  0
   -1.8947    0.9167   -1.0669 H   0  0  0  0  0  0  0  0  0  0  0  0
    0.7541    1.9941   -0.5382 C   0  0  0  0  0  0  0  0  0  0  0  0
   -5.2563   -1.8341    0.2053 C   0  0  0  0  0  0  0  0  0  0  0  0
   -6.3204   -1.9325    0.4700 H   0  0  0  0  0  0  0  0  0  0  0  0
   -1.7613    1.0303    1.0990 C   0  0  0  0  0  0  0  0  0  0  0  0
   -1.0048    0.2245    1.1459 H   0  0  0  0  0  0  0  0  0  0  0  0
   -2.4311    0.8745    1.9732 H   0  0  0  0  0  0  0  0  0  0  0  0
   -4.6543   -0.5719    0.1438 C   0  0  0  0  0  0  0  0  0  0  0  0
   -5.2306    0.3397    0.3615 H   0  0  0  0  0  0  0  0  0  0  0  0
   -2.1425    3.4502    1.6542 C   0  0  0  0  0  0  0  0  0  0  0  0
   -1.6992    4.4417    1.8748 H   0  0  0  0  0  0  0  0  0  0  0  0
   -2.6714    3.1137    2.5685 H   0  0  0  0  0  0  0  0  0  0  0  0
   -2.9020    3.5901    0.8586 H   0  0  0  0  0  0  0  0  0  0  0  0
   -3.1336   -2.7767   -0.4074 C   0  0  0  0  0  0  0  0  0  0  0  0
   -2.4836   -3.6399   -0.6329 H   0  0  0  0  0  0  0  0  0  0  0  0
    0.1899    4.4950   -1.7427 C   0  0  0  0  0  0  0  0  0  0  0  0
   -0.0483    5.4677   -2.1988 H   0  0  0  0  0  0  0  0  0  0  0  0
  2 33  2  0  0  0  0
  2 15  1  0  0  0  0
  3 29  1  0  0  0  0
  3 11  1  0  0  0  0
  4 35  2  0  0  0  0
  4  9  1  0  0  0  0
  5  4  1  0  0  0  0
  6  3  1  0  0  0  0
  7  8  1  0  0  0  0
  7 22  2  0  0  0  0
  9 21  2  0  0  0  0
 10  9  1  0  0  0  0
 11 14  1  0  0  0  0
 11 13  1  0  0  0  0
 12 11  1  0  0  0  0
 15 18  1  0  0  0  0
 15 27  2  0  0  0  0
 16 17  1  0  0  0  0
 16  6  2  0  0  0  0
 18 24  1  0  0  0  0
 19 18  1  0  0  0  0
 20 18  1  0  0  0  0
 21  1  1  0  0  0  0
 21  6  1  0  0  0  0
 22 23  1  0  0  0  0
 24 25  1  0  0  0  0
 24  3  1  0  0  0  0
 24 26  1  0  0  0  0
 27 22  1  0  0  0  0
 27 28  1  0  0  0  0
 29 30  1  0  0  0  0
 29 31  1  0  0  0  0
 32 29  1  0  0  0  0
 33  7  1  0  0  0  0
 34 33  1  0  0  0  0
 35 16  1  0  0  0  0
 36 35  1  0  0  0  0
M  END
