4
 OpenBabel05122313053D

 12 12  0  0  0  0  0  0  0  0999 V2000
   -1.4203    2.2629   -0.7494 F   0  0  0  0  0  0  0  0  0  0  0  0
   -4.1419    2.2540   -0.7425 F   0  0  0  0  0  0  0  0  0  0  0  0
   -5.5149   -0.0000    0.0000 F   0  0  0  0  0  0  0  0  0  0  0  0
    0.0409    0.0000   -0.0000 N   0  0  0  0  0  0  0  0  0  0  0  0
   -1.3170    0.0000   -0.0000 C   0  0  0  0  0  0  0  0  0  0  0  0
   -2.0693    1.1454   -0.3867 C   0  0  0  0  0  0  0  0  0  0  0  0
   -3.4703    1.1544   -0.3808 C   0  0  0  0  0  0  0  0  0  0  0  0
   -4.1781   -0.0000   -0.0000 C   0  0  0  0  0  0  0  0  0  0  0  0
   -3.4703   -1.1544    0.3807 C   0  0  0  0  0  0  0  0  0  0  0  0
   -4.1419   -2.2540    0.7425 F   0  0  0  0  0  0  0  0  0  0  0  0
   -2.0693   -1.1454    0.3866 C   0  0  0  0  0  0  0  0  0  0  0  0
   -1.4203   -2.2628    0.7494 F   0  0  0  0  0  0  0  0  0  0  0  0
  1  6  1  0  0  0  0
  2  7  1  0  0  0  0
  5  4  1  0  0  0  0
  5 11  1  0  0  0  0
  6  7  1  0  0  0  0
  6  5  2  0  0  0  0
  7  8  2  0  0  0  0
  8  3  1  0  0  0  0
  8  9  1  0  0  0  0
  9 11  2  0  0  0  0
  9 10  1  0  0  0  0
 11 12  1  0  0  0  0
M  END
