2
 OpenBabel05122313053D

  7  6  0  0  0  0  0  0  0  0999 V2000
   -3.8683   -0.7240    0.0001 S   0  0  0  0  0  0  0  0  0  0  0  0
   -1.0464   -0.2667    0.0000 N   0  0  0  0  0  1  0  0  0  0  0  0
   -2.2165   -0.4114    0.0000 C   0  0  0  0  0  2  0  0  0  0  0  0
   -4.5454    0.9855   -0.0001 C   0  0  0  0  0  0  0  0  0  0  0  0
   -4.2325    1.5257    0.9121 H   0  0  0  0  0  0  0  0  0  0  0  0
   -4.2325    1.5255   -0.9124 H   0  0  0  0  0  0  0  0  0  0  0  0
   -5.6441    0.8531   -0.0001 H   0  0  0  0  0  0  0  0  0  0  0  0
  2  3  1  0  0  0  0
  3  1  1  0  0  0  0
  4  7  1  0  0  0  0
  4  1  1  0  0  0  0
  4  5  1  0  0  0  0
  6  4  1  0  0  0  0
M  END
