2
 OpenBabel05122313053D

 16 16  0  0  0  0  0  0  0  0999 V2000
   -1.7608   -0.0003   -1.1168 S   0  0  0  0  0  0  0  0  0  0  0  0
   -1.0021   -0.0001    0.3143 N   0  0  0  0  0  1  0  0  0  0  0  0
   -3.5002   -0.0003   -0.7238 C   0  0  0  0  0  0  0  0  0  0  0  0
   -4.3963   -0.0005   -1.8083 C   0  0  0  0  0  0  0  0  0  0  0  0
   -5.7750   -0.0005   -1.5576 C   0  0  0  0  0  0  0  0  0  0  0  0
   -6.2796   -0.0003   -0.2413 C   0  0  0  0  0  0  0  0  0  0  0  0
   -5.3517   -0.0000    0.8274 C   0  0  0  0  0  0  0  0  0  0  0  0
   -3.9733   -0.0001    0.6001 C   0  0  0  0  0  0  0  0  0  0  0  0
   -7.7598   -0.0003    0.0321 C   0  0  0  0  0  0  0  0  0  0  0  0
   -4.0217   -0.0007   -2.8443 H   0  0  0  0  0  0  0  0  0  0  0  0
   -6.4769   -0.0007   -2.4058 H   0  0  0  0  0  0  0  0  0  0  0  0
   -5.7265    0.0002    1.8634 H   0  0  0  0  0  0  0  0  0  0  0  0
   -3.2470    0.0001    1.4265 H   0  0  0  0  0  0  0  0  0  0  0  0
   -8.3515   -0.0000   -0.9026 H   0  0  0  0  0  0  0  0  0  0  0  0
   -8.0567   -0.8906    0.6245 H   0  0  0  0  0  0  0  0  0  0  0  0
   -8.0566    0.8897    0.6250 H   0  0  0  0  0  0  0  0  0  0  0  0
  1  3  1  0  0  0  0
  1  2  1  0  0  0  0
  3  8  1  0  0  0  0
  4  5  1  0  0  0  0
  4  3  2  0  0  0  0
  5  6  2  0  0  0  0
  6  9  1  0  0  0  0
  6  7  1  0  0  0  0
  7 12  1  0  0  0  0
  8  7  2  0  0  0  0
  8 13  1  0  0  0  0
  9 15  1  0  0  0  0
  9 16  1  0  0  0  0
 10  4  1  0  0  0  0
 11  5  1  0  0  0  0
 14  9  1  0  0  0  0
M  END
