2
 OpenBabel05122313053D

 24 24  0  0  0  0  0  0  0  0999 V2000
   -6.4444    0.3418    0.1670 Si  0  0  0  0  0  0  0  0  0  0  0  0
   -0.4218   -0.5761   -0.4759 N   0  0  0  0  0  1  0  0  0  0  0  0
   -1.7703   -0.3657   -0.3422 C   0  0  0  0  0  0  0  0  0  0  0  0
   -2.3965    0.7438   -0.9669 C   0  0  0  0  0  0  0  0  0  0  0  0
   -1.7798    1.4243   -1.5730 H   0  0  0  0  0  0  0  0  0  0  0  0
   -3.7719    0.9525   -0.8152 C   0  0  0  0  0  0  0  0  0  0  0  0
   -4.2279    1.8237   -1.3125 H   0  0  0  0  0  0  0  0  0  0  0  0
   -4.5786    0.0796   -0.0493 C   0  0  0  0  0  0  0  0  0  0  0  0
   -3.9383   -1.0257    0.5630 C   0  0  0  0  0  0  0  0  0  0  0  0
   -4.5288   -1.7344    1.1682 H   0  0  0  0  0  0  0  0  0  0  0  0
   -2.5667   -1.2551    0.4267 C   0  0  0  0  0  0  0  0  0  0  0  0
   -2.0802   -2.1189    0.9035 H   0  0  0  0  0  0  0  0  0  0  0  0
   -6.9809    1.9045   -0.7547 C   0  0  0  0  0  0  0  0  0  0  0  0
   -8.0714    2.0682   -0.6326 H   0  0  0  0  0  0  0  0  0  0  0  0
   -6.7729    1.8277   -1.8417 H   0  0  0  0  0  0  0  0  0  0  0  0
   -6.4608    2.8047   -0.3678 H   0  0  0  0  0  0  0  0  0  0  0  0
   -7.3604   -1.1654   -0.5236 C   0  0  0  0  0  0  0  0  0  0  0  0
   -8.4566   -1.0656   -0.3825 H   0  0  0  0  0  0  0  0  0  0  0  0
   -7.0364   -2.0967   -0.0155 H   0  0  0  0  0  0  0  0  0  0  0  0
   -7.1617   -1.2871   -1.6079 H   0  0  0  0  0  0  0  0  0  0  0  0
   -6.8281    0.5162    2.0144 C   0  0  0  0  0  0  0  0  0  0  0  0
   -7.9181    0.6338    2.1859 H   0  0  0  0  0  0  0  0  0  0  0  0
   -6.3142    1.3997    2.4451 H   0  0  0  0  0  0  0  0  0  0  0  0
   -6.4913   -0.3779    2.5782 H   0  0  0  0  0  0  0  0  0  0  0  0
  1 21  1  0  0  0  0
  2  3  1  0  0  0  0
  3 11  1  0  0  0  0
  4  6  1  0  0  0  0
  4  3  2  0  0  0  0
  5  4  1  0  0  0  0
  6  8  2  0  0  0  0
  7  6  1  0  0  0  0
  8  1  1  0  0  0  0
  8  9  1  0  0  0  0
  9 10  1  0  0  0  0
 11  9  2  0  0  0  0
 11 12  1  0  0  0  0
 13 14  1  0  0  0  0
 13 16  1  0  0  0  0
 13  1  1  0  0  0  0
 15 13  1  0  0  0  0
 17 18  1  0  0  0  0
 17 19  1  0  0  0  0
 17  1  1  0  0  0  0
 20 17  1  0  0  0  0
 21 22  1  0  0  0  0
 21 23  1  0  0  0  0
 21 24  1  0  0  0  0
M  END
