1
 OpenBabel05122313053D

 13 12  0  0  0  0  0  0  0  0999 V2000
   -0.5084    0.3948   -0.3813 N   0  0  0  0  0  1  0  0  0  0  0  0
   -1.7591   -0.2709   -0.0139 S   0  0  0  0  0  0  0  0  0  0  0  0
   -2.0541   -0.6946    1.5642 F   0  0  0  0  0  0  0  0  0  0  0  0
   -2.0415   -1.8211   -0.5168 F   0  0  0  0  0  0  0  0  0  0  0  0
   -3.1464    0.4155   -0.5207 N   0  0  0  0  0  0  0  0  0  0  0  0
   -4.4165   -0.1998   -0.1031 C   0  0  0  0  0  0  0  0  0  0  0  0
   -3.1290    1.8644   -0.7773 C   0  0  0  0  0  0  0  0  0  0  0  0
   -4.3078   -1.2963   -0.0442 H   0  0  0  0  0  0  0  0  0  0  0  0
   -5.1655    0.0328   -0.8840 H   0  0  0  0  0  0  0  0  0  0  0  0
   -4.7593    0.1988    0.8742 H   0  0  0  0  0  0  0  0  0  0  0  0
   -2.1545    2.1585   -1.2042 H   0  0  0  0  0  0  0  0  0  0  0  0
   -3.3342    2.4493    0.1436 H   0  0  0  0  0  0  0  0  0  0  0  0
   -3.9192    2.0672   -1.5252 H   0  0  0  0  0  0  0  0  0  0  0  0
  1  2  1  0  0  0  0
  2  3  1  0  0  0  0
  4  2  1  0  0  0  0
  5  6  1  0  0  0  0
  5  2  1  0  0  0  0
  6  8  1  0  0  0  0
  6 10  1  0  0  0  0
  7  5  1  0  0  0  0
  7 12  1  0  0  0  0
  9  6  1  0  0  0  0
 11  7  1  0  0  0  0
 13  7  1  0  0  0  0
M  END
