5
 OpenBabel05122313053D

 11 11  0  0  1  0  0  0  0  0999 V2000
    2.0907   -0.2551    2.2192 Cl  0  0  0  0  0  0  0  0  0  0  0  0
    5.5437   -0.4621    2.4208 Cl  0  0  0  0  0  0  0  0  0  0  0  0
    6.8011   -0.6139   -0.7555 Cl  0  0  0  0  0  0  0  0  0  0  0  0
    4.1333   -0.4985   -2.9802 Cl  0  0  0  0  0  0  0  0  0  0  0  0
    0.4866   -0.1047   -0.7035 N   0  0  0  0  0  0  0  0  0  0  0  0
    1.6204   -0.2429   -1.0042 N   0  0  0  0  0  0  0  0  0  0  0  0
    2.8498   -0.3660   -0.4910 C   0  0  0  0  0  0  0  0  0  0  0  0
    3.2081   -0.3613    0.9078 C   0  0  1  0  0  0  0  0  0  0  0  0
    4.5970   -0.4474    0.9832 C   0  0  0  0  0  0  0  0  0  0  0  0
    5.1287   -0.5128   -0.3613 C   0  0  0  0  0  0  0  0  0  0  0  0
    4.0626   -0.4670   -1.2577 C   0  0  0  0  0  0  0  0  0  0  0  0
  3 10  1  0  0  0  0
  4 11  1  0  0  0  0
  6  5  1  0  0  0  0
  6  7  1  0  0  0  0
  7  8  1  0  0  0  0
  8  9  1  0  0  0  0
  8  1  1  6  0  0  0
  9  2  1  0  0  0  0
 10  9  2  0  0  0  0
 11  7  2  0  0  0  0
 11 10  1  0  0  0  0
M  END
