1
 OpenBabel05122313053D

 26 29  0  0  0  0  0  0  0  0999 V2000
   -3.0585    0.7489    2.0458 N   0  0  0  0  0  1  0  0  0  0  0  0
   -4.3414    0.7294    1.8579 C   0  0  0  0  0  0  0  0  0  0  0  0
   -5.0040    0.6033    0.5266 C   0  0  0  0  0  0  0  0  0  0  0  0
   -7.2343    0.7179    1.6321 C   0  0  0  0  0  0  0  0  0  0  0  0
   -7.0683    0.5374   -0.8358 C   0  0  0  0  0  0  0  0  0  0  0  0
   -6.4295    0.6205    0.4405 C   0  0  0  0  0  0  0  0  0  0  0  0
   -6.2805    0.4358   -2.0276 C   0  0  0  0  0  0  0  0  0  0  0  0
   -4.8578    0.4129   -1.9051 C   0  0  0  0  0  0  0  0  0  0  0  0
   -6.9360    0.3540   -3.2858 C   0  0  0  0  0  0  0  0  0  0  0  0
   -8.6525    0.7285    1.5120 C   0  0  0  0  0  0  0  0  0  0  0  0
   -9.2671    0.6491    0.2730 C   0  0  0  0  0  0  0  0  0  0  0  0
   -8.4992    0.5517   -0.9309 C   0  0  0  0  0  0  0  0  0  0  0  0
   -8.3320    0.3678   -3.3711 C   0  0  0  0  0  0  0  0  0  0  0  0
   -6.5936    0.8164    2.9128 C   0  0  0  0  0  0  0  0  0  0  0  0
   -5.2261    0.8493    3.0183 C   0  0  0  0  0  0  0  0  0  0  0  0
   -9.1086    0.4644   -2.2062 C   0  0  0  0  0  0  0  0  0  0  0  0
   -4.2457    0.5013   -0.6643 C   0  0  0  0  0  0  0  0  0  0  0  0
   -4.2489    0.3200   -2.8179 H   0  0  0  0  0  0  0  0  0  0  0  0
   -6.3267    0.2790   -4.1996 H   0  0  0  0  0  0  0  0  0  0  0  0
   -9.2599    0.8036    2.4263 H   0  0  0  0  0  0  0  0  0  0  0  0
  -10.3655    0.6600    0.2003 H   0  0  0  0  0  0  0  0  0  0  0  0
   -8.8231    0.3021   -4.3527 H   0  0  0  0  0  0  0  0  0  0  0  0
   -7.2269    0.8900    3.8103 H   0  0  0  0  0  0  0  0  0  0  0  0
   -4.7234    0.9478    3.9911 H   0  0  0  0  0  0  0  0  0  0  0  0
  -10.2073    0.4702   -2.2743 H   0  0  0  0  0  0  0  0  0  0  0  0
   -3.1462    0.4997   -0.5703 H   0  0  0  0  0  0  0  0  0  0  0  0
  2  1  1  0  0  0  0
  2 15  1  0  0  0  0
  3  2  2  0  0  0  0
  4 14  1  0  0  0  0
  5  6  1  0  0  0  0
  6  3  1  0  0  0  0
  6  4  2  0  0  0  0
  7  8  1  0  0  0  0
  7  5  2  0  0  0  0
  8 17  2  0  0  0  0
  9  7  1  0  0  0  0
 10  4  1  0  0  0  0
 10 20  1  0  0  0  0
 11 10  2  0  0  0  0
 12  5  1  0  0  0  0
 12 11  1  0  0  0  0
 13  9  2  0  0  0  0
 13 16  1  0  0  0  0
 14 15  2  0  0  0  0
 14 23  1  0  0  0  0
 15 24  1  0  0  0  0
 16 12  2  0  0  0  0
 17 26  1  0  0  0  0
 17  3  1  0  0  0  0
 18  8  1  0  0  0  0
 19  9  1  0  0  0  0
 21 11  1  0  0  0  0
 22 13  1  0  0  0  0
 25 16  1  0  0  0  0
M  END
