2
 OpenBabel05122313053D

 42 45  0  0  1  0  0  0  0  0999 V2000
   -0.5166    0.3727    0.0236 P   0  0  1  0  0  4  0  0  0  0  0  0
    1.0297    0.0264    0.0497 N   0  0  0  0  0  1  0  0  0  0  0  0
   -1.2208   -1.8917   -1.2071 O   0  0  0  0  0  0  0  0  0  0  0  0
   -3.2474   -2.1902   -0.0360 O   0  0  0  0  0  0  0  0  0  0  0  0
   -2.9312   -0.1755    1.1579 O   0  0  0  0  0  0  0  0  0  0  0  0
   -0.8022   -0.1109   -2.7260 C   0  0  0  0  0  0  0  0  0  0  0  0
    0.2811   -0.3366   -2.7035 H   0  0  0  0  0  0  0  0  0  0  0  0
   -0.9433    0.9685   -2.9316 H   0  0  0  0  0  0  0  0  0  0  0  0
   -1.2760   -0.6989   -3.5377 H   0  0  0  0  0  0  0  0  0  0  0  0
   -1.4328   -0.4832   -1.3972 C   0  0  2  0  0  0  0  0  0  0  0  0
   -2.9296   -0.1755   -1.2978 C   0  0  0  0  0  0  0  0  0  0  0  0
   -3.1147    0.9161   -1.3253 H   0  0  0  0  0  0  0  0  0  0  0  0
   -3.4435   -0.6351   -2.1680 H   0  0  0  0  0  0  0  0  0  0  0  0
   -3.5079   -0.7936   -0.0112 C   0  0  1  0  0  0  0  0  0  0  0  0
   -5.0077   -0.6158    0.1235 C   0  0  0  0  0  0  0  0  0  0  0  0
   -5.2665    0.4598    0.1363 H   0  0  0  0  0  0  0  0  0  0  0  0
   -5.3406   -1.0819    1.0696 H   0  0  0  0  0  0  0  0  0  0  0  0
   -5.5218   -1.1066   -0.7235 H   0  0  0  0  0  0  0  0  0  0  0  0
   -1.1724    0.1172    2.7579 C   0  0  0  0  0  0  0  0  0  0  0  0
   -1.4057    1.1975    2.8246 H   0  0  0  0  0  0  0  0  0  0  0  0
   -0.0890   -0.0244    2.9387 H   0  0  0  0  0  0  0  0  0  0  0  0
   -1.7452   -0.4187    3.5414 H   0  0  0  0  0  0  0  0  0  0  0  0
   -1.5333   -0.4368    1.3917 C   0  0  2  0  0  0  0  0  0  0  0  0
   -1.2428   -1.9361    1.2533 C   0  0  0  0  0  0  0  0  0  0  0  0
   -0.1507   -2.1129    1.2798 H   0  0  0  0  0  0  0  0  0  0  0  0
   -1.7168   -2.4707    2.1022 H   0  0  0  0  0  0  0  0  0  0  0  0
   -1.8439   -2.4761   -0.0556 C   0  0  2  0  0  0  0  0  0  0  0  0
   -1.6874   -3.9748   -0.2121 C   0  0  0  0  0  0  0  0  0  0  0  0
   -0.6133   -4.2388   -0.2232 H   0  0  0  0  0  0  0  0  0  0  0  0
   -2.1492   -4.2869   -1.1674 H   0  0  0  0  0  0  0  0  0  0  0  0
   -2.1883   -4.4975    0.6236 H   0  0  0  0  0  0  0  0  0  0  0  0
   -0.8542    2.1700   -0.0099 C   0  0  0  0  0  0  0  0  0  0  0  0
    0.2068    2.9873   -0.4537 C   0  0  0  0  0  0  0  0  0  0  0  0
    1.1584    2.5086   -0.7318 H   0  0  0  0  0  0  0  0  0  0  0  0
    0.0432    4.3782   -0.5163 C   0  0  0  0  0  0  0  0  0  0  0  0
    0.8728    5.0110   -0.8668 H   0  0  0  0  0  0  0  0  0  0  0  0
   -1.1720    4.9624   -0.1236 C   0  0  0  0  0  0  0  0  0  0  0  0
   -1.2979    6.0550   -0.1684 H   0  0  0  0  0  0  0  0  0  0  0  0
   -2.2237    4.1528    0.3359 C   0  0  0  0  0  0  0  0  0  0  0  0
   -3.1714    4.6106    0.6579 H   0  0  0  0  0  0  0  0  0  0  0  0
   -2.0731    2.7589    0.3917 C   0  0  0  0  0  0  0  0  0  0  0  0
   -2.8877    2.1226    0.7670 H   0  0  0  0  0  0  0  0  0  0  0  0
  1  2  1  1  0  0  0
  1 23  1  0  0  0  0
  3 27  1  0  0  0  0
  4 14  1  0  0  0  0
  5 23  1  0  0  0  0
  6  7  1  0  0  0  0
  8  6  1  0  0  0  0
  9  6  1  0  0  0  0
 10  6  1  6  0  0  0
 10 11  1  0  0  0  0
 10  3  1  0  0  0  0
 10  1  1  0  0  0  0
 11 14  1  0  0  0  0
 12 11  1  0  0  0  0
 13 11  1  0  0  0  0
 14 15  1  1  0  0  0
 14  5  1  0  0  0  0
 15 16  1  0  0  0  0
 15 17  1  0  0  0  0
 18 15  1  0  0  0  0
 19 20  1  0  0  0  0
 19 21  1  0  0  0  0
 19 22  1  0  0  0  0
 23 19  1  1  0  0  0
 24 25  1  0  0  0  0
 24 23  1  0  0  0  0
 24 26  1  0  0  0  0
 27 28  1  6  0  0  0
 27  4  1  0  0  0  0
 27 24  1  0  0  0  0
 28 31  1  0  0  0  0
 29 28  1  0  0  0  0
 30 28  1  0  0  0  0
 32  1  1  0  0  0  0
 32 41  1  0  0  0  0
 33 32  2  0  0  0  0
 34 33  1  0  0  0  0
 35 33  1  0  0  0  0
 35 37  2  0  0  0  0
 36 35  1  0  0  0  0
 37 39  1  0  0  0  0
 38 37  1  0  0  0  0
 39 41  2  0  0  0  0
 39 40  1  0  0  0  0
 41 42  1  0  0  0  0
M  END
