3
 OpenBabel05122313053D

 12 12  0  0  0  0  0  0  0  0999 V2000
   -4.0012    0.2037    1.1028 Cl  0  0  0  0  0  0  0  0  0  0  0  0
   -0.1965   -2.3776   -1.8440 Cl  0  0  0  0  0  0  0  0  0  0  0  0
   -1.3676   -0.0764   -0.2511 N   0  0  0  0  0  1  0  0  0  0  0  0
   -2.1652   -1.1612   -0.3832 C   0  0  0  0  0  0  0  0  0  0  0  0
   -3.4692   -1.1871    0.2022 C   0  0  0  0  0  0  0  0  0  0  0  0
   -4.3136   -2.2957    0.0844 C   0  0  0  0  0  0  0  0  0  0  0  0
   -3.8829   -3.4187   -0.6383 C   0  0  0  0  0  0  0  0  0  0  0  0
   -2.6140   -3.4365   -1.2344 C   0  0  0  0  0  0  0  0  0  0  0  0
   -1.7651   -2.3305   -1.1042 C   0  0  0  0  0  0  0  0  0  0  0  0
   -5.3031   -2.2675    0.5607 H   0  0  0  0  0  0  0  0  0  0  0  0
   -4.5451   -4.2912   -0.7373 H   0  0  0  0  0  0  0  0  0  0  0  0
   -2.2637   -4.3094   -1.8020 H   0  0  0  0  0  0  0  0  0  0  0  0
  2  9  1  0  0  0  0
  4  3  1  0  0  0  0
  4  5  1  0  0  0  0
  5  1  1  0  0  0  0
  6  5  2  0  0  0  0
  6 10  1  0  0  0  0
  7  6  1  0  0  0  0
  8  9  1  0  0  0  0
  8  7  2  0  0  0  0
  9  4  2  0  0  0  0
 11  7  1  0  0  0  0
 12  8  1  0  0  0  0
M  END
