1
 OpenBabel05122313053D

 42 42  0  0  1  0  0  0  0  0999 V2000
   -0.6322    0.9108   -0.4614 N   0  0  0  0  0  1  0  0  0  0  0  0
    0.7371    2.7939   -0.0965 N   0  0  0  0  0  0  0  0  0  0  0  0
    4.7804   -2.4227    0.0310 N   0  0  0  0  0  0  0  0  0  0  0  0
    0.5361    1.4405   -0.2659 C   0  0  1  0  0  3  0  0  0  0  0  0
    1.7248    0.5240   -0.2071 C   0  0  0  0  0  0  0  0  0  0  0  0
    2.5438    0.4129    0.9358 C   0  0  0  0  0  0  0  0  0  0  0  0
    3.5422   -0.5615    1.0291 C   0  0  0  0  0  0  0  0  0  0  0  0
    3.7868   -1.4637   -0.0454 C   0  0  0  0  0  0  0  0  0  0  0  0
    2.9582   -1.3438   -1.1986 C   0  0  0  0  0  0  0  0  0  0  0  0
    1.9472   -0.3845   -1.2614 C   0  0  0  0  0  0  0  0  0  0  0  0
    5.5483   -2.5699    1.2493 C   0  0  0  0  0  0  0  0  0  0  0  0
    4.9346   -3.3879   -1.0376 C   0  0  0  0  0  0  0  0  0  0  0  0
    2.0822    3.4003   -0.1585 C   0  0  0  0  0  0  0  0  0  0  0  0
    2.4488    4.1164    1.1478 C   0  0  0  0  0  0  0  0  0  0  0  0
    2.2528    4.3094   -1.3841 C   0  0  0  0  0  0  0  0  0  0  0  0
   -0.4131    3.7264   -0.0188 C   0  0  0  0  0  0  0  0  0  0  0  0
   -1.3205    3.4292    1.1809 C   0  0  0  0  0  0  0  0  0  0  0  0
   -1.1950    3.8223   -1.3363 C   0  0  0  0  0  0  0  0  0  0  0  0
    2.3790    1.0869    1.7907 H   0  0  0  0  0  0  0  0  0  0  0  0
    4.1312   -0.6243    1.9528 H   0  0  0  0  0  0  0  0  0  0  0  0
    3.0923   -2.0218   -2.0510 H   0  0  0  0  0  0  0  0  0  0  0  0
    1.2915   -0.3427   -2.1435 H   0  0  0  0  0  0  0  0  0  0  0  0
    6.3085   -3.3599    1.1105 H   0  0  0  0  0  0  0  0  0  0  0  0
    6.0838   -1.6316    1.5156 H   0  0  0  0  0  0  0  0  0  0  0  0
    4.9162   -2.8523    2.1239 H   0  0  0  0  0  0  0  0  0  0  0  0
    5.7830   -4.0573   -0.8069 H   0  0  0  0  0  0  0  0  0  0  0  0
    5.1501   -2.8956   -2.0118 H   0  0  0  0  0  0  0  0  0  0  0  0
    4.0267   -4.0201   -1.1776 H   0  0  0  0  0  0  0  0  0  0  0  0
    2.7812    2.5530   -0.2861 H   0  0  0  0  0  0  0  0  0  0  0  0
    3.4934    4.4847    1.1038 H   0  0  0  0  0  0  0  0  0  0  0  0
    1.7968    4.9941    1.3367 H   0  0  0  0  0  0  0  0  0  0  0  0
    2.3592    3.4336    2.0155 H   0  0  0  0  0  0  0  0  0  0  0  0
    3.3008    4.6657   -1.4449 H   0  0  0  0  0  0  0  0  0  0  0  0
    2.0210    3.7604   -2.3178 H   0  0  0  0  0  0  0  0  0  0  0  0
    1.6012    5.2058   -1.3373 H   0  0  0  0  0  0  0  0  0  0  0  0
    0.0476    4.7186    0.1661 H   0  0  0  0  0  0  0  0  0  0  0  0
   -2.0772    4.2321    1.2867 H   0  0  0  0  0  0  0  0  0  0  0  0
   -0.7322    3.3804    2.1188 H   0  0  0  0  0  0  0  0  0  0  0  0
   -1.8464    2.4671    1.0390 H   0  0  0  0  0  0  0  0  0  0  0  0
   -1.9731    4.6077   -1.2541 H   0  0  0  0  0  0  0  0  0  0  0  0
   -0.5277    4.0870   -2.1794 H   0  0  0  0  0  0  0  0  0  0  0  0
   -1.6885    2.8603   -1.5631 H   0  0  0  0  0  0  0  0  0  0  0  0
  2 16  1  0  0  0  0
  3 11  1  0  0  0  0
  4  1  1  1  0  0  0
  4  5  1  0  0  0  0
  4  2  1  0  0  0  0
  5  6  1  0  0  0  0
  6  7  2  0  0  0  0
  6 19  1  0  0  0  0
  7 20  1  0  0  0  0
  8  3  1  0  0  0  0
  8  7  1  0  0  0  0
  9  8  2  0  0  0  0
 10  9  1  0  0  0  0
 10  5  2  0  0  0  0
 11 24  1  0  0  0  0
 11 25  1  0  0  0  0
 12 26  1  0  0  0  0
 12  3  1  0  0  0  0
 13  2  1  0  0  0  0
 13 14  1  0  0  0  0
 14 31  1  0  0  0  0
 14 32  1  0  0  0  0
 15 35  1  0  0  0  0
 15 13  1  0  0  0  0
 16 36  1  0  0  0  0
 16 17  1  0  0  0  0
 17 37  1  0  0  0  0
 17 38  1  0  0  0  0
 18 40  1  0  0  0  0
 18 16  1  0  0  0  0
 21  9  1  0  0  0  0
 22 10  1  0  0  0  0
 23 11  1  0  0  0  0
 27 12  1  0  0  0  0
 28 12  1  0  0  0  0
 29 13  1  0  0  0  0
 30 14  1  0  0  0  0
 33 15  1  0  0  0  0
 34 15  1  0  0  0  0
 39 17  1  0  0  0  0
 41 18  1  0  0  0  0
 42 18  1  0  0  0  0
M  END
