1
 OpenBabel05122313053D

 23 22  0  0  0  0  0  0  0  0999 V2000
    1.6574   -0.1720   -0.3686 N   0  0  0  0  0  1  0  0  0  0  0  0
    3.0492    0.0445   -0.5836 C   0  0  0  0  0  0  0  0  0  0  0  0
    3.1640    0.6274   -1.5359 H   0  0  0  0  0  0  0  0  0  0  0  0
    3.7790   -1.3134   -0.8231 C   0  0  0  0  0  0  0  0  0  0  0  0
    4.8376   -1.0576   -1.0483 H   0  0  0  0  0  0  0  0  0  0  0  0
    3.7450   -2.2207    0.4124 C   0  0  0  0  0  0  0  0  0  0  0  0
    4.2169   -1.7479    1.2978 H   0  0  0  0  0  0  0  0  0  0  0  0
    4.2853   -3.1687    0.2144 H   0  0  0  0  0  0  0  0  0  0  0  0
    2.6986   -2.4793    0.6730 H   0  0  0  0  0  0  0  0  0  0  0  0
    3.2057   -2.0341   -2.0493 C   0  0  0  0  0  0  0  0  0  0  0  0
    3.8240   -2.9183   -2.3065 H   0  0  0  0  0  0  0  0  0  0  0  0
    3.1741   -1.3679   -2.9357 H   0  0  0  0  0  0  0  0  0  0  0  0
    2.1729   -2.3860   -1.8572 H   0  0  0  0  0  0  0  0  0  0  0  0
    3.6765    0.9259    0.5380 C   0  0  0  0  0  0  0  0  0  0  0  0
    3.5443    0.3735    1.4955 H   0  0  0  0  0  0  0  0  0  0  0  0
    2.9294    2.2590    0.6616 C   0  0  0  0  0  0  0  0  0  0  0  0
    3.3487    2.8787    1.4805 H   0  0  0  0  0  0  0  0  0  0  0  0
    1.8536    2.0999    0.8654 H   0  0  0  0  0  0  0  0  0  0  0  0
    3.0108    2.8460   -0.2789 H   0  0  0  0  0  0  0  0  0  0  0  0
    5.1748    1.1671    0.3211 C   0  0  0  0  0  0  0  0  0  0  0  0
    5.7694    0.2349    0.3841 H   0  0  0  0  0  0  0  0  0  0  0  0
    5.5733    1.8670    1.0838 H   0  0  0  0  0  0  0  0  0  0  0  0
    5.3631    1.6207   -0.6759 H   0  0  0  0  0  0  0  0  0  0  0  0
  2  1  1  0  0  0  0
  2 14  1  0  0  0  0
  3  2  1  0  0  0  0
  4  2  1  0  0  0  0
  4  6  1  0  0  0  0
  5  4  1  0  0  0  0
  6  9  1  0  0  0  0
  6  7  1  0  0  0  0
  8  6  1  0  0  0  0
 10 13  1  0  0  0  0
 10  4  1  0  0  0  0
 11 10  1  0  0  0  0
 12 10  1  0  0  0  0
 14 16  1  0  0  0  0
 14 15  1  0  0  0  0
 16 18  1  0  0  0  0
 16 17  1  0  0  0  0
 19 16  1  0  0  0  0
 20 21  1  0  0  0  0
 20 14  1  0  0  0  0
 20 22  1  0  0  0  0
 23 20  1  0  0  0  0
M  END
