3
 OpenBabel05122313053D

 13 13  0  0  0  0  0  0  0  0999 V2000
    2.5235   -2.6918   -0.7269 Cl  0  0  0  0  0  0  0  0  0  0  0  0
    2.8481    2.7063   -0.0312 Cl  0  0  0  0  0  0  0  0  0  0  0  0
    0.6049    0.5414   -1.5439 N   0  0  0  0  0  1  0  0  0  0  0  0
    1.3810    0.1277   -0.6227 C   0  0  0  0  0  2  0  0  0  0  0  0
    2.8055   -0.0055   -0.3460 C   0  0  0  0  0  0  0  0  0  0  0  0
    3.4424   -1.2687   -0.3185 C   0  0  0  0  0  0  0  0  0  0  0  0
    4.7989   -1.4002    0.0091 C   0  0  0  0  0  0  0  0  0  0  0  0
    5.2558   -2.3990    0.0121 H   0  0  0  0  0  0  0  0  0  0  0  0
    5.5434   -0.2558    0.3253 C   0  0  0  0  0  0  0  0  0  0  0  0
    6.6072   -0.3532    0.5876 H   0  0  0  0  0  0  0  0  0  0  0  0
    4.9454    1.0119    0.3114 C   0  0  0  0  0  0  0  0  0  0  0  0
    5.5169    1.9170    0.5575 H   0  0  0  0  0  0  0  0  0  0  0  0
    3.5891    1.1284   -0.0230 C   0  0  0  0  0  0  0  0  0  0  0  0
  1  6  1  0  0  0  0
  2 13  1  0  0  0  0
  3  4  1  0  0  0  0
  4  5  1  0  0  0  0
  5  6  2  0  0  0  0
  5 13  1  0  0  0  0
  6  7  1  0  0  0  0
  7  8  1  0  0  0  0
  7  9  2  0  0  0  0
  9 10  1  0  0  0  0
 11  9  1  0  0  0  0
 11 12  1  0  0  0  0
 13 11  2  0  0  0  0
M  END
