1
 OpenBabel05122313053D

 40 40  0  0  0  0  0  0  0  0999 V2000
    0.3540    0.0286    0.0089 N   0  0  0  0  0  1  0  0  0  0  0  0
   -0.8161    0.0674    0.0124 C   0  0  0  0  0  2  0  0  0  0  0  0
   -2.2009   -2.4331   -0.1668 C   0  0  0  0  0  0  0  0  0  0  0  0
   -1.7138   -2.8471    1.2383 C   0  0  0  0  0  0  0  0  0  0  0  0
   -3.0006   -3.5617   -0.8264 C   0  0  0  0  0  0  0  0  0  0  0  0
   -2.0307    2.6532    0.1963 C   0  0  0  0  0  0  0  0  0  0  0  0
   -2.7487    3.8289    0.8677 C   0  0  0  0  0  0  0  0  0  0  0  0
   -1.5290    3.0402   -1.2114 C   0  0  0  0  0  0  0  0  0  0  0  0
   -6.5429    0.2602    0.0146 C   0  0  0  0  0  0  0  0  0  0  0  0
   -7.1323   -0.4947    1.2188 C   0  0  0  0  0  0  0  0  0  0  0  0
   -7.1226   -0.2563   -1.3138 C   0  0  0  0  0  0  0  0  0  0  0  0
   -2.2309    0.1143    0.0152 C   0  0  0  0  0  0  0  0  0  0  0  0
   -2.9536   -1.1113   -0.0993 C   0  0  0  0  0  0  0  0  0  0  0  0
   -4.3502   -1.0275   -0.0981 C   0  0  0  0  0  0  0  0  0  0  0  0
   -5.0237    0.2073    0.0151 C   0  0  0  0  0  0  0  0  0  0  0  0
   -4.2700    1.3918    0.1284 C   0  0  0  0  0  0  0  0  0  0  0  0
   -2.8687    1.3839    0.1298 C   0  0  0  0  0  0  0  0  0  0  0  0
   -1.2929   -2.2594   -0.7865 H   0  0  0  0  0  0  0  0  0  0  0  0
   -1.0573   -2.0814    1.6965 H   0  0  0  0  0  0  0  0  0  0  0  0
   -1.1298   -3.7871    1.1776 H   0  0  0  0  0  0  0  0  0  0  0  0
   -2.5750   -3.0156    1.9170 H   0  0  0  0  0  0  0  0  0  0  0  0
   -3.3893   -3.2665   -1.8213 H   0  0  0  0  0  0  0  0  0  0  0  0
   -2.3549   -4.4513   -0.9621 H   0  0  0  0  0  0  0  0  0  0  0  0
   -3.8599   -3.8780   -0.1994 H   0  0  0  0  0  0  0  0  0  0  0  0
   -1.1308    2.4173    0.8071 H   0  0  0  0  0  0  0  0  0  0  0  0
   -3.1466    3.5554    1.8652 H   0  0  0  0  0  0  0  0  0  0  0  0
   -3.5911    4.2039    0.2505 H   0  0  0  0  0  0  0  0  0  0  0  0
   -2.0444    4.6733    1.0009 H   0  0  0  0  0  0  0  0  0  0  0  0
   -0.9281    2.2345   -1.6774 H   0  0  0  0  0  0  0  0  0  0  0  0
   -2.3824    3.2680   -1.8826 H   0  0  0  0  0  0  0  0  0  0  0  0
   -0.8839    3.9394   -1.1519 H   0  0  0  0  0  0  0  0  0  0  0  0
   -6.8274    1.3300    0.1143 H   0  0  0  0  0  0  0  0  0  0  0  0
   -6.7315   -0.1068    2.1763 H   0  0  0  0  0  0  0  0  0  0  0  0
   -6.8994   -1.5785    1.1692 H   0  0  0  0  0  0  0  0  0  0  0  0
   -8.2362   -0.3918    1.2397 H   0  0  0  0  0  0  0  0  0  0  0  0
   -6.7156    0.3038   -2.1790 H   0  0  0  0  0  0  0  0  0  0  0  0
   -6.8884   -1.3301   -1.4662 H   0  0  0  0  0  0  0  0  0  0  0  0
   -8.2264   -0.1514   -1.3230 H   0  0  0  0  0  0  0  0  0  0  0  0
   -4.9376   -1.9522   -0.1875 H   0  0  0  0  0  0  0  0  0  0  0  0
   -4.8036    2.3493    0.2170 H   0  0  0  0  0  0  0  0  0  0  0  0
  1  2  1  0  0  0  0
  2 12  1  0  0  0  0
  3 13  1  0  0  0  0
  3  4  1  0  0  0  0
  4 19  1  0  0  0  0
  4 21  1  0  0  0  0
  5 24  1  0  0  0  0
  5  3  1  0  0  0  0
  6 25  1  0  0  0  0
  6  7  1  0  0  0  0
  7 28  1  0  0  0  0
  7 26  1  0  0  0  0
  8 31  1  0  0  0  0
  8  6  1  0  0  0  0
  9 15  1  0  0  0  0
  9 32  1  0  0  0  0
  9 10  1  0  0  0  0
 10 35  1  0  0  0  0
 10 33  1  0  0  0  0
 11  9  1  0  0  0  0
 12 17  1  0  0  0  0
 13 14  1  0  0  0  0
 13 12  2  0  0  0  0
 14 15  2  0  0  0  0
 15 16  1  0  0  0  0
 16 17  2  0  0  0  0
 16 40  1  0  0  0  0
 17  6  1  0  0  0  0
 18  3  1  0  0  0  0
 20  4  1  0  0  0  0
 22  5  1  0  0  0  0
 23  5  1  0  0  0  0
 27  7  1  0  0  0  0
 29  8  1  0  0  0  0
 30  8  1  0  0  0  0
 34 10  1  0  0  0  0
 36 11  1  0  0  0  0
 37 11  1  0  0  0  0
 38 11  1  0  0  0  0
 39 14  1  0  0  0  0
M  END
