4
 OpenBabel05122313053D

 12 12  0  0  0  0  0  0  0  0999 V2000
   -2.5930    2.3628    0.0169 F   0  0  0  0  0  0  0  0  0  0  0  0
   -6.6726    0.0003   -0.0000 F   0  0  0  0  0  0  0  0  0  0  0  0
   -2.5934   -2.3628   -0.0169 F   0  0  0  0  0  0  0  0  0  0  0  0
   -1.1719   -0.0000    0.0000 N   0  0  0  0  0  1  0  0  0  0  0  0
   -2.5224   -0.0000    0.0000 C   0  0  0  0  0  0  0  0  0  0  0  0
   -3.2674    1.2145    0.0087 C   0  0  0  0  0  0  0  0  0  0  0  0
   -4.6614    1.2303    0.0086 C   0  0  0  0  0  0  0  0  0  0  0  0
   -5.2112    2.1801    0.0153 H   0  0  0  0  0  0  0  0  0  0  0  0
   -5.3347    0.0002    0.0000 C   0  0  0  0  0  0  0  0  0  0  0  0
   -4.6616   -1.2300   -0.0086 C   0  0  0  0  0  0  0  0  0  0  0  0
   -5.2115   -2.1796   -0.0153 H   0  0  0  0  0  0  0  0  0  0  0  0
   -3.2676   -1.2144   -0.0087 C   0  0  0  0  0  0  0  0  0  0  0  0
  2  9  1  0  0  0  0
  3 12  1  0  0  0  0
  4  5  1  0  0  0  0
  5  6  1  0  0  0  0
  6  1  1  0  0  0  0
  7  6  2  0  0  0  0
  7  8  1  0  0  0  0
  9  7  1  0  0  0  0
 10  9  2  0  0  0  0
 11 10  1  0  0  0  0
 12 10  1  0  0  0  0
 12  5  2  0  0  0  0
M  END
