1
 OpenBabel05122313053D

 26 27  0  0  0  0  0  0  0  0999 V2000
    1.7670   -0.0106   -0.8224 N   0  0  0  0  0  1  0  0  0  0  0  0
    2.9023   -0.0057   -1.0657 C   0  0  0  0  0  2  0  0  0  0  0  0
    4.3572    0.0018   -1.1424 C   0  0  0  0  0  0  0  0  0  0  0  0
    4.6391    0.0003   -2.2161 H   0  0  0  0  0  0  0  0  0  0  0  0
    4.9143   -1.2711   -0.4862 C   0  0  0  0  0  0  0  0  0  0  0  0
    6.0606   -1.8716   -1.0365 C   0  0  0  0  0  0  0  0  0  0  0  0
    6.5130   -1.4570   -1.9512 H   0  0  0  0  0  0  0  0  0  0  0  0
    6.6301   -2.9954   -0.4206 C   0  0  0  0  0  0  0  0  0  0  0  0
    7.5270   -3.4606   -0.8567 H   0  0  0  0  0  0  0  0  0  0  0  0
    6.0513   -3.5281    0.7419 C   0  0  0  0  0  0  0  0  0  0  0  0
    6.4940   -4.4141    1.2215 H   0  0  0  0  0  0  0  0  0  0  0  0
    4.9029   -2.9323    1.2861 C   0  0  0  0  0  0  0  0  0  0  0  0
    4.4372   -3.3494    2.1914 H   0  0  0  0  0  0  0  0  0  0  0  0
    4.3322   -1.8040    0.6793 C   0  0  0  0  0  0  0  0  0  0  0  0
    3.4266   -1.3520    1.1169 H   0  0  0  0  0  0  0  0  0  0  0  0
    4.9004    1.2847   -0.4937 C   0  0  0  0  0  0  0  0  0  0  0  0
    6.0428    1.8915   -1.0451 C   0  0  0  0  0  0  0  0  0  0  0  0
    6.5016    1.4743   -1.9554 H   0  0  0  0  0  0  0  0  0  0  0  0
    6.6004    3.0249   -0.4360 C   0  0  0  0  0  0  0  0  0  0  0  0
    7.4943    3.4950   -0.8729 H   0  0  0  0  0  0  0  0  0  0  0  0
    6.0134    3.5609    0.7210 C   0  0  0  0  0  0  0  0  0  0  0  0
    6.4467    4.4543    1.1953 H   0  0  0  0  0  0  0  0  0  0  0  0
    4.8689    2.9586    1.2664 C   0  0  0  0  0  0  0  0  0  0  0  0
    4.3969    3.3781    2.1672 H   0  0  0  0  0  0  0  0  0  0  0  0
    4.3101    1.8208    0.6663 C   0  0  0  0  0  0  0  0  0  0  0  0
    3.4075    1.3639    1.1049 H   0  0  0  0  0  0  0  0  0  0  0  0
  2  1  1  0  0  0  0
  3  2  1  0  0  0  0
  3 16  1  0  0  0  0
  3  5  1  0  0  0  0
  4  3  1  0  0  0  0
  5 14  1  0  0  0  0
  6  5  2  0  0  0  0
  6  8  1  0  0  0  0
  7  6  1  0  0  0  0
  8 10  2  0  0  0  0
  9  8  1  0  0  0  0
 10 11  1  0  0  0  0
 10 12  1  0  0  0  0
 12 13  1  0  0  0  0
 14 15  1  0  0  0  0
 14 12  2  0  0  0  0
 16 25  1  0  0  0  0
 17 16  2  0  0  0  0
 17 19  1  0  0  0  0
 18 17  1  0  0  0  0
 19 21  2  0  0  0  0
 20 19  1  0  0  0  0
 21 22  1  0  0  0  0
 21 23  1  0  0  0  0
 23 24  1  0  0  0  0
 25 26  1  0  0  0  0
 25 23  2  0  0  0  0
M  END
