2
 OpenBabel05122313053D

 16 15  0  0  0  0  0  0  0  0999 V2000
   -0.5574    2.7332    2.3665 O   0  0  0  0  0  0  0  0  0  0  0  0
    0.0924    1.3712    0.6792 N   0  0  0  0  0  1  0  0  0  0  0  0
   -0.6087    2.4435    1.1672 C   0  0  0  0  0  0  0  0  0  0  0  0
   -1.4401    3.2580    0.1429 C   0  0  0  0  0  0  0  0  0  0  0  0
   -0.5196    3.7365   -0.9957 C   0  0  0  0  0  0  0  0  0  0  0  0
    0.2977    4.3801   -0.6113 H   0  0  0  0  0  0  0  0  0  0  0  0
   -1.1026    4.3272   -1.7321 H   0  0  0  0  0  0  0  0  0  0  0  0
   -0.0664    2.8763   -1.5250 H   0  0  0  0  0  0  0  0  0  0  0  0
   -2.5436    2.3488   -0.4348 C   0  0  0  0  0  0  0  0  0  0  0  0
   -2.1117    1.4852   -0.9753 H   0  0  0  0  0  0  0  0  0  0  0  0
   -3.1723    2.9245   -1.1451 H   0  0  0  0  0  0  0  0  0  0  0  0
   -3.2034    1.9549    0.3639 H   0  0  0  0  0  0  0  0  0  0  0  0
   -2.0620    4.4571    0.8711 C   0  0  0  0  0  0  0  0  0  0  0  0
   -2.7124    4.1246    1.7029 H   0  0  0  0  0  0  0  0  0  0  0  0
   -2.6705    5.0544    0.1619 H   0  0  0  0  0  0  0  0  0  0  0  0
   -1.2817    5.1118    1.3055 H   0  0  0  0  0  0  0  0  0  0  0  0
  2  3  1  0  0  0  0
  3  1  2  0  0  0  0
  4 13  1  0  0  0  0
  4  3  1  0  0  0  0
  5  6  1  0  0  0  0
  5  4  1  0  0  0  0
  7  5  1  0  0  0  0
  8  5  1  0  0  0  0
  9  4  1  0  0  0  0
  9 12  1  0  0  0  0
 10  9  1  0  0  0  0
 11  9  1  0  0  0  0
 13 16  1  0  0  0  0
 13 14  1  0  0  0  0
 15 13  1  0  0  0  0
M  END
