1
 OpenBabel05122313053D

 20 19  0  0  0  0  0  0  0  0999 V2000
   -1.4129   -0.0971   -0.2238 N   0  0  0  0  0  1  0  0  0  0  0  0
   -2.0172   -2.3296   -0.6718 N   0  0  0  0  0  0  0  0  0  0  0  0
   -3.3691   -0.9909    0.7284 N   0  0  0  0  0  0  0  0  0  0  0  0
   -2.2243   -1.0880   -0.0661 C   0  0  0  0  0  3  0  0  0  0  0  0
   -0.7252   -2.5764   -1.2775 C   0  0  0  0  0  0  0  0  0  0  0  0
    0.0382   -1.9604   -0.7687 H   0  0  0  0  0  0  0  0  0  0  0  0
   -0.7094   -2.3067   -2.3612 H   0  0  0  0  0  0  0  0  0  0  0  0
   -0.4661   -3.6532   -1.1894 H   0  0  0  0  0  0  0  0  0  0  0  0
   -3.1186   -3.1246   -1.1858 C   0  0  0  0  0  0  0  0  0  0  0  0
   -4.0803   -2.6686   -0.8894 H   0  0  0  0  0  0  0  0  0  0  0  0
   -3.0906   -4.1730   -0.8124 H   0  0  0  0  0  0  0  0  0  0  0  0
   -3.0846   -3.1637   -2.2997 H   0  0  0  0  0  0  0  0  0  0  0  0
   -3.7459    0.3511    1.1543 C   0  0  0  0  0  0  0  0  0  0  0  0
   -3.6970    1.0427    0.2932 H   0  0  0  0  0  0  0  0  0  0  0  0
   -3.0642    0.7523    1.9373 H   0  0  0  0  0  0  0  0  0  0  0  0
   -4.7853    0.3244    1.5392 H   0  0  0  0  0  0  0  0  0  0  0  0
   -3.6796   -2.0382    1.6924 C   0  0  0  0  0  0  0  0  0  0  0  0
   -3.1465   -2.9698    1.4327 H   0  0  0  0  0  0  0  0  0  0  0  0
   -4.7705   -2.2501    1.7256 H   0  0  0  0  0  0  0  0  0  0  0  0
   -3.3578   -1.7386    2.7173 H   0  0  0  0  0  0  0  0  0  0  0  0
  1  4  1  0  0  0  0
  2  4  1  0  0  0  0
  3 13  1  0  0  0  0
  3 17  1  0  0  0  0
  4  3  1  0  0  0  0
  5  8  1  0  0  0  0
  5  6  1  0  0  0  0
  5  2  1  0  0  0  0
  7  5  1  0  0  0  0
  9 10  1  0  0  0  0
  9 11  1  0  0  0  0
  9  2  1  0  0  0  0
 12  9  1  0  0  0  0
 13 16  1  0  0  0  0
 13 15  1  0  0  0  0
 14 13  1  0  0  0  0
 17 19  1  0  0  0  0
 17 20  1  0  0  0  0
 18 17  1  0  0  0  0
M  END
