1
 OpenBabel05122313053D

 10 10  0  0  0  0  0  0  0  0999 V2000
   -0.2059    1.1891   -0.1429 N   0  0  0  0  0  1  0  0  0  0  0  0
   -0.0915    2.5055   -0.0342 N   0  0  0  0  0  0  0  0  0  0  0  0
   -0.9424    3.3319    0.7029 C   0  0  0  0  0  0  0  0  0  0  0  0
   -0.4439    4.6204    0.6076 C   0  0  0  0  0  0  0  0  0  0  0  0
    0.7382    4.5770   -0.2036 C   0  0  0  0  0  0  0  0  0  0  0  0
    0.9409    3.2632   -0.5921 C   0  0  0  0  0  0  0  0  0  0  0  0
   -1.8274    2.9139    1.1904 H   0  0  0  0  0  0  0  0  0  0  0  0
   -0.8930    5.5077    1.0675 H   0  0  0  0  0  0  0  0  0  0  0  0
    1.3741    5.4243   -0.4831 H   0  0  0  0  0  0  0  0  0  0  0  0
    1.6983    2.7788   -1.2141 H   0  0  0  0  0  0  0  0  0  0  0  0
  1  2  1  0  0  0  0
  2  3  1  0  0  0  0
  3  7  1  0  0  0  0
  4  3  2  0  0  0  0
  4  8  1  0  0  0  0
  5  4  1  0  0  0  0
  6  5  2  0  0  0  0
  6  2  1  0  0  0  0
  9  5  1  0  0  0  0
 10  6  1  0  0  0  0
M  END
