4
q = -1.0, confidence = 0.008

 32 33  0  0  1  0  0  0  0  0999 V2000
   -1.1842    1.2040   -0.5660 N   0  0  0  0  0  0  0  0  0  0  0  0
   -1.9452    1.7894   -0.1815 H   0  0  0  0  0  0  0  0  0  0  0  0
    0.2436    3.0411   -0.5165 N   0  0  0  0  0  0  0  0  0  0  0  0
    1.1528    0.8797   -0.6533 N   0  0  0  0  0  1  0  0  0  0  0  0
   -1.6535   -0.0930   -0.7543 C   0  0  0  0  0  0  0  0  0  0  0  0
   -0.9652   -1.1531   -1.3455 C   0  0  0  0  0  0  0  0  0  0  0  0
    0.0633   -1.0205   -1.7020 H   0  0  0  0  0  0  0  0  0  0  0  0
   -1.5888   -2.4209   -1.4663 C   0  0  0  0  0  0  0  0  0  0  0  0
   -1.0076   -3.2364   -1.9225 H   0  0  0  0  0  0  0  0  0  0  0  0
   -2.8855   -2.6487   -1.0234 C   0  0  0  0  0  0  0  0  0  0  0  0
   -3.3552   -3.6391   -1.1207 H   0  0  0  0  0  0  0  0  0  0  0  0
   -3.6229   -1.5802   -0.4393 C   0  0  0  0  0  0  0  0  0  0  0  0
   -4.9613   -1.6902    0.0353 C   0  0  0  0  0  0  0  0  0  0  0  0
   -5.4812   -2.6582   -0.0428 H   0  0  0  0  0  0  0  0  0  0  0  0
   -5.5939   -0.5884    0.5842 C   0  0  0  0  0  0  0  0  0  0  0  0
   -6.6280   -0.6587    0.9537 H   0  0  0  0  0  0  0  0  0  0  0  0
   -4.9000    0.6592    0.6702 C   0  0  0  0  0  0  0  0  0  0  0  0
   -3.6488    0.7855    0.2370 N   0  0  0  0  0  0  0  0  0  0  0  0
   -3.0097   -0.2905   -0.3024 C   0  0  0  0  0  0  0  0  0  0  0  0
    0.1166    1.6699   -0.5790 C   0  0  2  0  0  3  0  0  0  0  0  0
   -0.9069    3.9256   -0.5034 C   0  0  0  0  0  0  0  0  0  0  0  0
   -1.6867    3.5741   -1.2084 H   0  0  0  0  0  0  0  0  0  0  0  0
   -0.5888    4.9340   -0.8303 H   0  0  0  0  0  0  0  0  0  0  0  0
   -1.3666    4.0276    0.5080 H   0  0  0  0  0  0  0  0  0  0  0  0
    1.5570    3.6429   -0.3467 C   0  0  0  0  0  0  0  0  0  0  0  0
    2.3395    2.8700   -0.4608 H   0  0  0  0  0  0  0  0  0  0  0  0
    1.6567    4.1115    0.6580 H   0  0  0  0  0  0  0  0  0  0  0  0
    1.7160    4.4299   -1.1134 H   0  0  0  0  0  0  0  0  0  0  0  0
   -5.5760    1.8692    1.2581 C   0  0  0  0  0  0  0  0  0  0  0  0
   -4.8910    2.7362    1.2352 H   0  0  0  0  0  0  0  0  0  0  0  0
   -5.8827    1.6839    2.3087 H   0  0  0  0  0  0  0  0  0  0  0  0
   -6.4976    2.1254    0.6951 H   0  0  0  0  0  0  0  0  0  0  0  0
  1  2  1  0  0  0  0
  3 21  1  0  0  0  0
  3 25  1  0  0  0  0
  5  1  1  0  0  0  0
  5 19  1  0  0  0  0
  6  5  2  0  0  0  0
  7  6  1  0  0  0  0
  8  6  1  0  0  0  0
  8 10  2  0  0  0  0
  9  8  1  0  0  0  0
 10 12  1  0  0  0  0
 11 10  1  0  0  0  0
 12 19  2  0  0  0  0
 12 13  1  0  0  0  0
 13 15  2  0  0  0  0
 14 13  1  0  0  0  0
 15 17  1  0  0  0  0
 15 16  1  0  0  0  0
 17 29  1  0  0  0  0
 18 17  2  0  0  0  0
 19 18  1  0  0  0  0
 20  4  1  6  0  0  0
 20  1  1  0  0  0  0
 20  3  1  0  0  0  0
 21 24  1  0  0  0  0
 22 21  1  0  0  0  0
 23 21  1  0  0  0  0
 25 27  1  0  0  0  0
 26 25  1  0  0  0  0
 28 25  1  0  0  0  0
 29 31  1  0  0  0  0
 30 29  1  0  0  0  0
 32 29  1  0  0  0  0
M  END
