1
q = -2.0, confidence = 0.796

 50 50  0  0  0  0  0  0  0  0999 V2000
    1.3055   -0.8429    0.1211 N   0  0  0  0  0  1  0  0  0  0  0  0
   -4.2879   -0.0962   -0.0236 N   0  0  0  0  0  0  0  0  0  0  0  0
   -4.8222    1.6064    0.0048 Si  0  0  0  0  0  0  0  0  0  0  0  0
   -5.3864   -1.5028   -0.0839 Si  0  0  0  0  0  0  0  0  0  0  0  0
   -0.7476   -0.6933   -1.1746 C   0  0  0  0  0  0  0  0  0  0  0  0
   -2.1411   -0.4615   -1.2030 C   0  0  0  0  0  0  0  0  0  0  0  0
   -2.8745   -0.3462    0.0106 C   0  0  0  0  0  0  0  0  0  0  0  0
   -2.2043   -0.4879    1.2571 C   0  0  0  0  0  0  0  0  0  0  0  0
   -0.8061   -0.6868    1.2976 C   0  0  0  0  0  0  0  0  0  0  0  0
   -0.0667   -0.7462    0.0788 C   0  0  0  0  0  0  0  0  0  0  0  0
    0.0079   -0.8781   -2.4646 C   0  0  0  0  0  0  0  0  0  0  0  0
   -0.5333   -1.5581   -3.1522 H   0  0  0  0  0  0  0  0  0  0  0  0
    1.0115   -1.3047   -2.2852 H   0  0  0  0  0  0  0  0  0  0  0  0
    0.1342    0.0812   -3.0145 H   0  0  0  0  0  0  0  0  0  0  0  0
   -2.8292   -0.3163   -2.5370 C   0  0  0  0  0  0  0  0  0  0  0  0
   -2.3184    0.4322   -3.1778 H   0  0  0  0  0  0  0  0  0  0  0  0
   -3.8806   -0.0073   -2.4082 H   0  0  0  0  0  0  0  0  0  0  0  0
   -2.8253   -1.2693   -3.1090 H   0  0  0  0  0  0  0  0  0  0  0  0
   -2.9661   -0.4348    2.5567 C   0  0  0  0  0  0  0  0  0  0  0  0
   -4.0495   -0.3233    2.3807 H   0  0  0  0  0  0  0  0  0  0  0  0
   -2.6322    0.4132    3.1923 H   0  0  0  0  0  0  0  0  0  0  0  0
   -2.8005   -1.3521    3.1597 H   0  0  0  0  0  0  0  0  0  0  0  0
   -0.1117   -0.8622    2.6229 C   0  0  0  0  0  0  0  0  0  0  0  0
    0.9779   -0.9936    2.5077 H   0  0  0  0  0  0  0  0  0  0  0  0
   -0.5071   -1.7522    3.1579 H   0  0  0  0  0  0  0  0  0  0  0  0
   -0.2843    0.0018    3.2988 H   0  0  0  0  0  0  0  0  0  0  0  0
   -3.3502    2.6890   -0.4713 C   0  0  0  0  0  0  0  0  0  0  0  0
   -2.5119    2.5447    0.2396 H   0  0  0  0  0  0  0  0  0  0  0  0
   -3.6433    3.7589   -0.4484 H   0  0  0  0  0  0  0  0  0  0  0  0
   -2.9727    2.4534   -1.4858 H   0  0  0  0  0  0  0  0  0  0  0  0
   -5.4257    2.1510    1.7166 C   0  0  0  0  0  0  0  0  0  0  0  0
   -4.6038    2.1168    2.4594 H   0  0  0  0  0  0  0  0  0  0  0  0
   -6.2487    1.5094    2.0892 H   0  0  0  0  0  0  0  0  0  0  0  0
   -5.8015    3.1949    1.6743 H   0  0  0  0  0  0  0  0  0  0  0  0
   -6.2363    1.8519   -1.2310 C   0  0  0  0  0  0  0  0  0  0  0  0
   -7.1217    1.2305   -0.9876 H   0  0  0  0  0  0  0  0  0  0  0  0
   -5.9167    1.6014   -2.2628 H   0  0  0  0  0  0  0  0  0  0  0  0
   -6.5642    2.9121   -1.2229 H   0  0  0  0  0  0  0  0  0  0  0  0
   -6.0655   -1.8165   -1.8254 C   0  0  0  0  0  0  0  0  0  0  0  0
   -6.5738   -0.9223   -2.2380 H   0  0  0  0  0  0  0  0  0  0  0  0
   -6.8032   -2.6459   -1.8023 H   0  0  0  0  0  0  0  0  0  0  0  0
   -5.2566   -2.1030   -2.5267 H   0  0  0  0  0  0  0  0  0  0  0  0
   -6.8542   -1.2120    1.0776 C   0  0  0  0  0  0  0  0  0  0  0  0
   -7.4523   -0.3233    0.7908 H   0  0  0  0  0  0  0  0  0  0  0  0
   -6.5177   -1.0741    2.1251 H   0  0  0  0  0  0  0  0  0  0  0  0
   -7.5330   -2.0895    1.0505 H   0  0  0  0  0  0  0  0  0  0  0  0
   -4.4211   -3.0289    0.4633 C   0  0  0  0  0  0  0  0  0  0  0  0
   -4.0717   -2.9423    1.5109 H   0  0  0  0  0  0  0  0  0  0  0  0
   -3.5300   -3.1864   -0.1771 H   0  0  0  0  0  0  0  0  0  0  0  0
   -5.0645   -3.9295    0.3864 H   0  0  0  0  0  0  0  0  0  0  0  0
  2  3  1  0  0  0  0
  2  7  1  0  0  0  0
  3 31  1  0  0  0  0
  4  2  1  0  0  0  0
  4 47  1  0  0  0  0
  4 43  1  0  0  0  0
  5 10  1  0  0  0  0
  6  5  2  0  0  0  0
  6  7  1  0  0  0  0
  7  8  2  0  0  0  0
  8  9  1  0  0  0  0
  8 19  1  0  0  0  0
  9 23  1  0  0  0  0
 10  1  1  0  0  0  0
 10  9  2  0  0  0  0
 11 13  1  0  0  0  0
 11  5  1  0  0  0  0
 12 11  1  0  0  0  0
 14 11  1  0  0  0  0
 15 17  1  0  0  0  0
 15  6  1  0  0  0  0
 16 15  1  0  0  0  0
 18 15  1  0  0  0  0
 19 22  1  0  0  0  0
 19 21  1  0  0  0  0
 20 19  1  0  0  0  0
 23 25  1  0  0  0  0
 23 26  1  0  0  0  0
 24 23  1  0  0  0  0
 27 29  1  0  0  0  0
 27  3  1  0  0  0  0
 27 28  1  0  0  0  0
 30 27  1  0  0  0  0
 31 33  1  0  0  0  0
 31 32  1  0  0  0  0
 34 31  1  0  0  0  0
 35 38  1  0  0  0  0
 35 36  1  0  0  0  0
 35  3  1  0  0  0  0
 37 35  1  0  0  0  0
 39 41  1  0  0  0  0
 39  4  1  0  0  0  0
 40 39  1  0  0  0  0
 42 39  1  0  0  0  0
 43 45  1  0  0  0  0
 44 43  1  0  0  0  0
 46 43  1  0  0  0  0
 47 48  1  0  0  0  0
 49 47  1  0  0  0  0
 50 47  1  0  0  0  0
M  END
