1
q = -1.0, confidence = 0.008

 14 14  0  0  0  0  0  0  0  0999 V2000
    0.2004   -0.1112    1.1268 N   0  0  0  0  0  1  0  0  0  0  0  0
    1.3853   -0.2192    1.5678 C   0  0  0  0  0  3  0  0  0  0  0  0
    1.5760   -0.2416    2.6696 H   0  0  0  0  0  0  0  0  0  0  0  0
    2.5956   -0.2945    0.7198 C   0  0  0  0  0  0  0  0  0  0  0  0
    3.8784   -0.2948    1.3050 C   0  0  0  0  0  0  0  0  0  0  0  0
    3.9712   -0.2551    2.4022 H   0  0  0  0  0  0  0  0  0  0  0  0
    5.0333   -0.3350    0.5134 C   0  0  0  0  0  0  0  0  0  0  0  0
    6.0342   -0.3303    0.9675 H   0  0  0  0  0  0  0  0  0  0  0  0
    4.9037   -0.3805   -0.8841 C   0  0  0  0  0  0  0  0  0  0  0  0
    3.6337   -0.3889   -1.4911 C   0  0  0  0  0  0  0  0  0  0  0  0
    3.5549   -0.4289   -2.5870 H   0  0  0  0  0  0  0  0  0  0  0  0
    2.4931   -0.3456   -0.6873 C   0  0  0  0  0  0  0  0  0  0  0  0
    1.4880   -0.3465   -1.1330 H   0  0  0  0  0  0  0  0  0  0  0  0
    6.3363   -0.4288   -1.8838 Cl  0  0  0  0  0  0  0  0  0  0  0  0
  1  2  1  0  0  0  0
  2  3  1  0  0  0  0
  4  5  1  0  0  0  0
  4  2  1  0  0  0  0
  5  6  1  0  0  0  0
  7  8  1  0  0  0  0
  7  5  2  0  0  0  0
  9  7  1  0  0  0  0
 10  9  2  0  0  0  0
 10 12  1  0  0  0  0
 11 10  1  0  0  0  0
 12  4  2  0  0  0  0
 13 12  1  0  0  0  0
 14  9  1  0  0  0  0
M  END
