1
q = -2.0, confidence = 0.748

 31 32  0  0  0  0  0  0  0  0999 V2000
   -0.4688    0.7296   -0.5513 N   0  0  0  0  0  1  0  0  0  0  0  0
   -1.1027    1.8076   -1.1167 C   0  0  0  0  0  0  0  0  0  0  0  0
   -0.3344    2.7109   -1.8999 C   0  0  0  0  0  0  0  0  0  0  0  0
    0.7348    2.4972   -2.0414 H   0  0  0  0  0  0  0  0  0  0  0  0
   -0.9259    3.8388   -2.4736 C   0  0  0  0  0  0  0  0  0  0  0  0
   -0.3131    4.5285   -3.0733 H   0  0  0  0  0  0  0  0  0  0  0  0
   -2.2959    4.0859   -2.2850 C   0  0  0  0  0  0  0  0  0  0  0  0
   -2.7676    4.9736   -2.7319 H   0  0  0  0  0  0  0  0  0  0  0  0
   -3.0650    3.1874   -1.5309 C   0  0  0  0  0  0  0  0  0  0  0  0
   -4.1430    3.3647   -1.3929 H   0  0  0  0  0  0  0  0  0  0  0  0
   -2.4995    2.0416   -0.9395 C   0  0  0  0  0  0  0  0  0  0  0  0
   -3.3736    1.0872   -0.1936 C   0  0  0  0  0  0  0  0  0  0  0  0
   -4.0102    0.0349   -0.9009 C   0  0  0  0  0  0  0  0  0  0  0  0
   -4.8715   -0.8325   -0.2053 C   0  0  0  0  0  0  0  0  0  0  0  0
   -5.3637   -1.6486   -0.7591 H   0  0  0  0  0  0  0  0  0  0  0  0
   -5.1197   -0.6878    1.1727 C   0  0  0  0  0  0  0  0  0  0  0  0
   -4.4776    0.3641    1.8511 C   0  0  0  0  0  0  0  0  0  0  0  0
   -4.6587    0.4993    2.9300 H   0  0  0  0  0  0  0  0  0  0  0  0
   -3.6082    1.2557    1.1930 C   0  0  0  0  0  0  0  0  0  0  0  0
   -3.7613   -0.1507   -2.3765 C   0  0  0  0  0  0  0  0  0  0  0  0
   -4.3000   -1.0340   -2.7699 H   0  0  0  0  0  0  0  0  0  0  0  0
   -2.6802   -0.2783   -2.5879 H   0  0  0  0  0  0  0  0  0  0  0  0
   -4.0828    0.7376   -2.9577 H   0  0  0  0  0  0  0  0  0  0  0  0
   -6.0137   -1.6581    1.9028 C   0  0  0  0  0  0  0  0  0  0  0  0
   -5.4666   -2.5942    2.1471 H   0  0  0  0  0  0  0  0  0  0  0  0
   -6.8892   -1.9483    1.2882 H   0  0  0  0  0  0  0  0  0  0  0  0
   -6.3850   -1.2352    2.8566 H   0  0  0  0  0  0  0  0  0  0  0  0
   -2.9204    2.3568    1.9576 C   0  0  0  0  0  0  0  0  0  0  0  0
   -3.2768    2.4089    3.0039 H   0  0  0  0  0  0  0  0  0  0  0  0
   -3.0759    3.3465    1.4834 H   0  0  0  0  0  0  0  0  0  0  0  0
   -1.8229    2.1909    1.9766 H   0  0  0  0  0  0  0  0  0  0  0  0
  2 11  1  0  0  0  0
  2  1  1  0  0  0  0
  3  2  2  0  0  0  0
  4  3  1  0  0  0  0
  5  7  2  0  0  0  0
  5  3  1  0  0  0  0
  6  5  1  0  0  0  0
  7  9  1  0  0  0  0
  8  7  1  0  0  0  0
  9 10  1  0  0  0  0
  9 11  2  0  0  0  0
 11 12  1  0  0  0  0
 12 19  1  0  0  0  0
 13 14  1  0  0  0  0
 13 12  2  0  0  0  0
 14 16  2  0  0  0  0
 15 14  1  0  0  0  0
 16 17  1  0  0  0  0
 16 24  1  0  0  0  0
 17 18  1  0  0  0  0
 19 17  2  0  0  0  0
 19 28  1  0  0  0  0
 20 13  1  0  0  0  0
 21 20  1  0  0  0  0
 22 20  1  0  0  0  0
 23 20  1  0  0  0  0
 24 25  1  0  0  0  0
 24 27  1  0  0  0  0
 26 24  1  0  0  0  0
 28 31  1  0  0  0  0
 28 29  1  0  0  0  0
 30 28  1  0  0  0  0
M  END
