3
q = -2.0, confidence = 0.724

 12 12  0  0  0  0  0  0  0  0999 V2000
   -1.2432   -1.7135   -0.0022 S   0  0  0  0  0  0  0  0  0  0  0  0
   -2.4464    0.6292    0.0009 N   0  0  0  0  0  0  0  0  0  0  0  0
   -1.2087    1.1503    0.0023 N   0  0  0  0  0  1  0  0  0  0  0  0
   -2.6757   -0.7489   -0.0013 C   0  0  0  0  0  0  0  0  0  0  0  0
   -3.9976   -1.2400   -0.0028 C   0  0  0  0  0  0  0  0  0  0  0  0
   -4.1361   -2.3313   -0.0047 H   0  0  0  0  0  0  0  0  0  0  0  0
   -5.0803   -0.3671   -0.0022 C   0  0  0  0  0  0  0  0  0  0  0  0
   -6.1102   -0.7506   -0.0036 H   0  0  0  0  0  0  0  0  0  0  0  0
   -4.8262    1.0304    0.0003 C   0  0  0  0  0  0  0  0  0  0  0  0
   -5.6493    1.7586    0.0010 H   0  0  0  0  0  0  0  0  0  0  0  0
   -3.5294    1.4974    0.0019 C   0  0  0  0  0  0  0  0  0  0  0  0
   -3.2319    2.5543    0.0039 H   0  0  0  0  0  0  0  0  0  0  0  0
  1  4  2  0  0  0  0
  2 11  1  0  0  0  0
  2  3  1  0  0  0  0
  4  2  1  0  0  0  0
  5  7  2  0  0  0  0
  5  4  1  0  0  0  0
  6  5  1  0  0  0  0
  7  9  1  0  0  0  0
  8  7  1  0  0  0  0
  9 10  1  0  0  0  0
  9 11  2  0  0  0  0
 11 12  1  0  0  0  0
M  END
