1
q = 0.0, confidence = 0.52

 20 20  0  0  0  0  0  0  0  0999 V2000
    0.2065   -0.2278    0.0142 N   0  0  0  0  0  1  0  0  0  0  0  0
    5.8147    0.0774   -0.0027 N   0  0  0  0  0  0  0  0  0  0  0  0
    1.5643   -0.1631    0.0116 C   0  0  0  0  0  0  0  0  0  0  0  0
    2.2327    1.0931    0.0119 C   0  0  0  0  0  0  0  0  0  0  0  0
    3.6230    1.1734    0.0070 C   0  0  0  0  0  0  0  0  0  0  0  0
    4.4315   -0.0008    0.0019 C   0  0  0  0  0  0  0  0  0  0  0  0
    3.7603   -1.2579    0.0016 C   0  0  0  0  0  0  0  0  0  0  0  0
    2.3690   -1.3351    0.0065 C   0  0  0  0  0  0  0  0  0  0  0  0
    6.6073   -1.1329   -0.0118 C   0  0  0  0  0  0  0  0  0  0  0  0
    6.4661    1.3692   -0.0041 C   0  0  0  0  0  0  0  0  0  0  0  0
    1.6186    2.0054    0.0149 H   0  0  0  0  0  0  0  0  0  0  0  0
    4.0901    2.1669    0.0070 H   0  0  0  0  0  0  0  0  0  0  0  0
    4.3361   -2.1925   -0.0027 H   0  0  0  0  0  0  0  0  0  0  0  0
    1.8670   -2.3134    0.0056 H   0  0  0  0  0  0  0  0  0  0  0  0
    6.4163   -1.7690    0.8830 H   0  0  0  0  0  0  0  0  0  0  0  0
    6.4097   -1.7603   -0.9114 H   0  0  0  0  0  0  0  0  0  0  0  0
    7.6804   -0.8689   -0.0143 H   0  0  0  0  0  0  0  0  0  0  0  0
    7.5621    1.2276   -0.0060 H   0  0  0  0  0  0  0  0  0  0  0  0
    6.2004    1.9754   -0.9008 H   0  0  0  0  0  0  0  0  0  0  0  0
    6.2036    1.9748    0.8937 H   0  0  0  0  0  0  0  0  0  0  0  0
  2  6  1  0  0  0  0
  3  4  1  0  0  0  0
  3  1  1  0  0  0  0
  4 11  1  0  0  0  0
  5  4  2  0  0  0  0
  6  5  1  0  0  0  0
  7  6  2  0  0  0  0
  7  8  1  0  0  0  0
  8  3  2  0  0  0  0
  9  2  1  0  0  0  0
  9 15  1  0  0  0  0
 10  2  1  0  0  0  0
 10 20  1  0  0  0  0
 12  5  1  0  0  0  0
 13  7  1  0  0  0  0
 14  8  1  0  0  0  0
 16  9  1  0  0  0  0
 17  9  1  0  0  0  0
 18 10  1  0  0  0  0
 19 10  1  0  0  0  0
M  END
