1
q = -2.0, confidence = 0.568

 13 13  0  0  0  0  0  0  0  0999 V2000
    0.6800   -0.3384   -0.0057 N   0  0  0  0  0  1  0  0  0  0  0  0
    7.4482    0.2820    0.0028 N   0  0  0  0  0  0  0  0  0  0  0  0
    2.0308   -0.2272   -0.0040 C   0  0  0  0  0  0  0  0  0  0  0  0
    2.6399    1.0628   -0.0054 C   0  0  0  0  0  0  0  0  0  0  0  0
    4.0254    1.1900   -0.0031 C   0  0  0  0  0  0  0  0  0  0  0  0
    4.8536    0.0379   -0.0000 C   0  0  0  0  0  0  0  0  0  0  0  0
    4.2540   -1.2470    0.0014 C   0  0  0  0  0  0  0  0  0  0  0  0
    2.8678   -1.3802   -0.0004 C   0  0  0  0  0  0  0  0  0  0  0  0
    6.2778    0.1715    0.0015 C   0  0  0  0  0  0  0  0  0  0  0  0
    1.9834    1.9445   -0.0075 H   0  0  0  0  0  0  0  0  0  0  0  0
    4.4902    2.1867   -0.0041 H   0  0  0  0  0  0  0  0  0  0  0  0
    4.8957   -2.1399    0.0041 H   0  0  0  0  0  0  0  0  0  0  0  0
    2.3943   -2.3719    0.0011 H   0  0  0  0  0  0  0  0  0  0  0  0
  1  3  1  0  0  0  0
  3  8  1  0  0  0  0
  4  3  2  0  0  0  0
  4  5  1  0  0  0  0
  5  6  2  0  0  0  0
  6  7  1  0  0  0  0
  6  9  1  0  0  0  0
  7 12  1  0  0  0  0
  8 13  1  0  0  0  0
  8  7  2  0  0  0  0
  9  2  3  0  0  0  0
 10  4  1  0  0  0  0
 11  5  1  0  0  0  0
M  END
