2
q = -1.0, confidence = 0.056

 37 36  0  0  0  0  0  0  0  0999 V2000
   -2.8649    0.2253   -0.0201 P   0  0  0  0  0  4  0  0  0  0  0  0
   -1.5241   -0.6051   -0.1470 N   0  0  0  0  0  1  0  0  0  0  0  0
   -2.6367    1.8292   -0.6161 N   0  0  0  0  0  0  0  0  0  0  0  0
   -3.3419    0.4165    1.8101 C   0  0  0  0  0  0  0  0  0  0  0  0
   -2.0545    0.9191    2.4908 C   0  0  0  0  0  0  0  0  0  0  0  0
   -2.2481    1.0686    3.5740 H   0  0  0  0  0  0  0  0  0  0  0  0
   -1.7283    1.8864    2.0590 H   0  0  0  0  0  0  0  0  0  0  0  0
   -1.2299    0.1905    2.3743 H   0  0  0  0  0  0  0  0  0  0  0  0
   -4.4738    1.4201    2.0827 C   0  0  0  0  0  0  0  0  0  0  0  0
   -4.6892    1.4273    3.1727 H   0  0  0  0  0  0  0  0  0  0  0  0
   -5.4179    1.1626    1.5655 H   0  0  0  0  0  0  0  0  0  0  0  0
   -4.1847    2.4513    1.8032 H   0  0  0  0  0  0  0  0  0  0  0  0
   -3.7053   -0.9712    2.3652 C   0  0  0  0  0  0  0  0  0  0  0  0
   -3.7792   -0.9149    3.4720 H   0  0  0  0  0  0  0  0  0  0  0  0
   -2.9276   -1.7179    2.1113 H   0  0  0  0  0  0  0  0  0  0  0  0
   -4.6831   -1.3309    1.9878 H   0  0  0  0  0  0  0  0  0  0  0  0
   -4.1978   -0.6262   -1.0939 C   0  0  0  0  0  0  0  0  0  0  0  0
   -3.7766   -0.3040   -2.5415 C   0  0  0  0  0  0  0  0  0  0  0  0
   -4.3979   -0.8958   -3.2465 H   0  0  0  0  0  0  0  0  0  0  0  0
   -2.7148   -0.5763   -2.7067 H   0  0  0  0  0  0  0  0  0  0  0  0
   -3.9076    0.7671   -2.7910 H   0  0  0  0  0  0  0  0  0  0  0  0
   -4.0799   -2.1467   -0.8758 C   0  0  0  0  0  0  0  0  0  0  0  0
   -4.7316   -2.6676   -1.6094 H   0  0  0  0  0  0  0  0  0  0  0  0
   -4.4020   -2.4541    0.1368 H   0  0  0  0  0  0  0  0  0  0  0  0
   -3.0367   -2.4848   -1.0226 H   0  0  0  0  0  0  0  0  0  0  0  0
   -5.6453   -0.1804   -0.8376 C   0  0  0  0  0  0  0  0  0  0  0  0
   -6.3176   -0.7116   -1.5454 H   0  0  0  0  0  0  0  0  0  0  0  0
   -5.8008    0.9038   -0.9973 H   0  0  0  0  0  0  0  0  0  0  0  0
   -5.9856   -0.4366    0.1851 H   0  0  0  0  0  0  0  0  0  0  0  0
   -1.3882    2.1541   -1.2835 C   0  0  0  0  0  0  0  0  0  0  0  0
   -0.9925    3.1288   -0.9170 H   0  0  0  0  0  0  0  0  0  0  0  0
   -1.5150    2.2318   -2.3906 H   0  0  0  0  0  0  0  0  0  0  0  0
   -0.6436    1.3644   -1.0712 H   0  0  0  0  0  0  0  0  0  0  0  0
   -3.7081    2.7692   -0.8744 C   0  0  0  0  0  0  0  0  0  0  0  0
   -3.4324    3.7876   -0.5155 H   0  0  0  0  0  0  0  0  0  0  0  0
   -4.6377    2.4791   -0.3550 H   0  0  0  0  0  0  0  0  0  0  0  0
   -3.9417    2.8586   -1.9646 H   0  0  0  0  0  0  0  0  0  0  0  0
  1  4  1  0  0  0  0
  2  1  1  0  0  0  0
  3  1  1  0  0  0  0
  4  9  1  0  0  0  0
  4 13  1  0  0  0  0
  4  5  1  0  0  0  0
  5  6  1  0  0  0  0
  7  5  1  0  0  0  0
  8  5  1  0  0  0  0
  9 10  1  0  0  0  0
 11  9  1  0  0  0  0
 12  9  1  0  0  0  0
 13 14  1  0  0  0  0
 15 13  1  0  0  0  0
 16 13  1  0  0  0  0
 17 22  1  0  0  0  0
 17 26  1  0  0  0  0
 17  1  1  0  0  0  0
 18 17  1  0  0  0  0
 19 18  1  0  0  0  0
 20 18  1  0  0  0  0
 21 18  1  0  0  0  0
 22 24  1  0  0  0  0
 23 22  1  0  0  0  0
 25 22  1  0  0  0  0
 26 29  1  0  0  0  0
 27 26  1  0  0  0  0
 28 26  1  0  0  0  0
 30 33  1  0  0  0  0
 30 31  1  0  0  0  0
 30  3  1  0  0  0  0
 32 30  1  0  0  0  0
 34  3  1  0  0  0  0
 34 35  1  0  0  0  0
 34 36  1  0  0  0  0
 37 34  1  0  0  0  0
M  END
