1
q = -2.0, confidence = 0.52

 11 11  0  0  0  0  0  0  0  0999 V2000
    1.1372    0.1349    0.1294 N   0  0  0  0  0  1  0  0  0  0  0  0
    3.3586   -0.2449    1.0706 C   0  0  0  0  0  0  0  0  0  0  0  0
    4.7262    0.0473    1.0178 C   0  0  0  0  0  0  0  0  0  0  0  0
    5.2943    0.8919    0.1388 N   0  0  0  0  0  0  0  0  0  0  0  0
    4.4638    1.4838   -0.7384 C   0  0  0  0  0  0  0  0  0  0  0  0
    3.0817    1.2738   -0.7860 C   0  0  0  0  0  0  0  0  0  0  0  0
    2.4758    0.3780    0.1419 C   0  0  0  0  0  0  0  0  0  0  0  0
    2.9630   -0.9446    1.8181 H   0  0  0  0  0  0  0  0  0  0  0  0
    5.4090   -0.4385    1.7391 H   0  0  0  0  0  0  0  0  0  0  0  0
    4.9297    2.1792   -1.4607 H   0  0  0  0  0  0  0  0  0  0  0  0
    2.4581    1.7915   -1.5274 H   0  0  0  0  0  0  0  0  0  0  0  0
  1  7  1  0  0  0  0
  2  8  1  0  0  0  0
  3  2  1  0  0  0  0
  3  9  1  0  0  0  0
  4  3  2  0  0  0  0
  5  4  1  0  0  0  0
  6  5  2  0  0  0  0
  6  7  1  0  0  0  0
  7  2  2  0  0  0  0
 10  5  1  0  0  0  0
 11  6  1  0  0  0  0
M  END
