1
q = -1.0, confidence = 0.088

 13 13  0  0  0  0  0  0  0  0999 V2000
   -0.8922    1.0097    0.5753 N   0  0  0  0  0  1  0  0  0  0  0  0
   -1.2437    1.7071    1.5268 N   0  0  0  0  0  2  0  0  0  0  0  0
   -1.9996    2.8847    1.3530 C   0  0  0  0  0  0  0  0  0  0  0  0
   -2.3186    3.6306    2.5082 C   0  0  0  0  0  0  0  0  0  0  0  0
   -3.0683    4.8071    2.3924 C   0  0  0  0  0  0  0  0  0  0  0  0
   -3.5060    5.2490    1.1318 C   0  0  0  0  0  0  0  0  0  0  0  0
   -3.1874    4.5022   -0.0162 C   0  0  0  0  0  0  0  0  0  0  0  0
   -2.4385    3.3230    0.0791 C   0  0  0  0  0  0  0  0  0  0  0  0
   -1.9660    3.2670    3.4844 H   0  0  0  0  0  0  0  0  0  0  0  0
   -3.3141    5.3860    3.2957 H   0  0  0  0  0  0  0  0  0  0  0  0
   -4.0953    6.1740    1.0443 H   0  0  0  0  0  0  0  0  0  0  0  0
   -3.5284    4.8411   -1.0066 H   0  0  0  0  0  0  0  0  0  0  0  0
   -2.1911    2.7315   -0.8183 H   0  0  0  0  0  0  0  0  0  0  0  0
  1  2  1  0  0  0  0
  3  2  1  0  0  0  0
  3  4  1  0  0  0  0
  4  9  1  0  0  0  0
  5  4  2  0  0  0  0
  5 10  1  0  0  0  0
  6  5  1  0  0  0  0
  7  8  1  0  0  0  0
  7  6  2  0  0  0  0
  8  3  2  0  0  0  0
 11  6  1  0  0  0  0
 12  7  1  0  0  0  0
 13  8  1  0  0  0  0
M  END
