1,2,3,5,6
q = -2.0, confidence = 0.964

 36 37  0  0  0  0  0  0  0  0999 V2000
    0.4986   -0.5089    1.5194 N   0  0  0  0  0  0  0  0  0  0  0  0
   -0.4268    1.7875    0.9589 N   0  0  0  0  0  2  0  0  0  0  0  0
   -0.0741    1.7792   -1.6142 N   0  0  0  0  0  0  0  0  0  0  0  0
   -0.3424    1.3809   -2.5239 H   0  0  0  0  0  0  0  0  0  0  0  0
    1.9942    0.9649   -0.2294 N   0  0  0  0  0  2  0  0  0  0  0  0
    0.9428   -1.2083   -1.0404 N   0  0  0  0  0  0  0  0  0  0  0  0
    0.9838   -1.6761    1.9832 C   0  0  0  0  0  0  0  0  0  0  0  0
    1.2716   -2.4925    1.3090 H   0  0  0  0  0  0  0  0  0  0  0  0
    1.0323   -1.6349    3.4054 C   0  0  0  0  0  0  0  0  0  0  0  0
    1.3749   -2.4513    4.0516 H   0  0  0  0  0  0  0  0  0  0  0  0
    0.5593   -0.3780    3.8092 C   0  0  0  0  0  0  0  0  0  0  0  0
    0.4602    0.0016    4.8326 H   0  0  0  0  0  0  0  0  0  0  0  0
    0.2348    0.3220    2.6155 C   0  0  0  0  0  3  0  0  0  0  0  0
   -0.2867    1.5829    2.2580 C   0  0  0  0  0  3  0  0  0  0  0  0
   -0.5798    2.3483    2.9989 H   0  0  0  0  0  0  0  0  0  0  0  0
   -0.9543    2.9856    0.3355 C   0  0  0  0  0  0  0  0  0  0  0  0
   -0.2365    3.8342    0.4211 H   0  0  0  0  0  0  0  0  0  0  0  0
   -1.9011    3.3248    0.8087 H   0  0  0  0  0  0  0  0  0  0  0  0
   -1.1957    2.6349   -1.1329 C   0  0  0  0  0  0  0  0  0  0  0  0
   -2.1274    2.0466   -1.2382 H   0  0  0  0  0  0  0  0  0  0  0  0
   -1.2965    3.5474   -1.7587 H   0  0  0  0  0  0  0  0  0  0  0  0
    1.2153    2.5275   -1.8050 C   0  0  0  0  0  0  0  0  0  0  0  0
    1.0128    3.5897   -2.0602 H   0  0  0  0  0  0  0  0  0  0  0  0
    1.7369    2.0627   -2.6644 H   0  0  0  0  0  0  0  0  0  0  0  0
    2.1035    2.3703   -0.5585 C   0  0  0  0  0  0  0  0  0  0  0  0
    3.1496    2.6637   -0.7934 H   0  0  0  0  0  0  0  0  0  0  0  0
    1.7575    2.9971    0.2854 H   0  0  0  0  0  0  0  0  0  0  0  0
    2.8653    0.0785   -0.6924 C   0  0  0  0  0  3  0  0  0  0  0  0
    3.9204    0.3657   -0.8577 H   0  0  0  0  0  0  0  0  0  0  0  0
    2.3414   -1.1828   -1.0297 C   0  0  0  0  0  3  0  0  0  0  0  0
    2.8438   -2.4584   -1.3997 C   0  0  0  0  0  0  0  0  0  0  0  0
    3.8985   -2.7398   -1.4975 H   0  0  0  0  0  0  0  0  0  0  0  0
    1.7185   -3.2672   -1.6147 C   0  0  0  0  0  0  0  0  0  0  0  0
    1.7068   -4.3177   -1.9277 H   0  0  0  0  0  0  0  0  0  0  0  0
    0.5699   -2.4643   -1.3686 C   0  0  0  0  0  0  0  0  0  0  0  0
   -0.4827   -2.7682   -1.4220 H   0  0  0  0  0  0  0  0  0  0  0  0
  1  7  2  0  0  0  0
  1 13  1  0  0  0  0
  2 14  1  0  0  0  0
  3 19  1  0  0  0  0
  4  3  1  0  0  0  0
  6 30  1  0  0  0  0
  7  9  1  0  0  0  0
  8  7  1  0  0  0  0
  9 11  2  0  0  0  0
  9 10  1  0  0  0  0
 11 12  1  0  0  0  0
 13 11  1  0  0  0  0
 14 13  1  0  0  0  0
 14 15  1  0  0  0  0
 16 17  1  0  0  0  0
 16 18  1  0  0  0  0
 16  2  1  0  0  0  0
 19 16  1  0  0  0  0
 20 19  1  0  0  0  0
 21 19  1  0  0  0  0
 22  3  1  0  0  0  0
 22 25  1  0  0  0  0
 23 22  1  0  0  0  0
 24 22  1  0  0  0  0
 25  5  1  0  0  0  0
 25 27  1  0  0  0  0
 26 25  1  0  0  0  0
 28  5  1  0  0  0  0
 29 28  1  0  0  0  0
 30 28  1  0  0  0  0
 31 30  1  0  0  0  0
 32 31  1  0  0  0  0
 33 31  2  0  0  0  0
 33 35  1  0  0  0  0
 34 33  1  0  0  0  0
 35  6  2  0  0  0  0
 36 35  1  0  0  0  0
M  END
