2,3,20,21,30
q = 0.0, confidence = 0.986

 60 63  0  0  1  0  0  0  0  0999 V2000
    2.8641    1.1890    0.4116 C   0  0  0  0  0  0  0  0  0  0  0  0
    1.9704   -0.9550   -0.1503 N   0  0  0  0  0  2  0  0  0  0  0  0
   -0.0352   -2.6697    1.0058 N   0  0  0  0  0  0  0  0  0  0  0  0
   -0.2448   -2.7712    2.0060 H   0  0  0  0  0  0  0  0  0  0  0  0
    1.3168   -3.1440    0.7042 C   0  0  0  0  0  0  0  0  0  0  0  0
    1.3449   -4.2309    0.4583 H   0  0  0  0  0  0  0  0  0  0  0  0
    1.9408   -3.0002    1.6092 H   0  0  0  0  0  0  0  0  0  0  0  0
    1.9702   -2.3674   -0.4609 C   0  0  0  0  0  0  0  0  0  0  0  0
    2.9855   -2.7753   -0.6503 H   0  0  0  0  0  0  0  0  0  0  0  0
    1.3745   -2.5211   -1.3881 H   0  0  0  0  0  0  0  0  0  0  0  0
    3.0190   -0.1956   -0.1539 C   0  0  0  0  0  0  0  0  0  0  0  0
    3.8707    2.1677    0.3102 C   0  0  0  0  0  0  0  0  0  0  0  0
    4.7983    1.9540   -0.2381 H   0  0  0  0  0  0  0  0  0  0  0  0
    1.5033    2.6283    1.6496 C   0  0  0  0  0  0  0  0  0  0  0  0
    0.5395    2.7394    2.1773 H   0  0  0  0  0  0  0  0  0  0  0  0
    2.4695    3.6500    1.6160 C   0  0  0  0  0  0  0  0  0  0  0  0
    2.2803    4.6065    2.1240 H   0  0  0  0  0  0  0  0  0  0  0  0
    3.6628    3.4156    0.9205 C   0  0  0  0  0  0  0  0  0  0  0  0
    4.4354    4.1962    0.8555 H   0  0  0  0  0  0  0  0  0  0  0  0
   -2.0204   -1.0522   -0.2887 N   0  0  0  0  0  2  0  0  0  0  0  0
   -1.0782    1.4165   -0.9080 N   0  0  0  0  0  2  0  0  0  0  0  0
   -2.8957   -0.1856   -0.6698 C   0  0  2  0  0  3  0  0  0  0  0  0
   -0.5683    2.5784   -1.3355 C   0  0  0  0  0  3  0  0  0  0  0  0
    0.4942    2.7622   -1.1054 H   0  0  0  0  0  0  0  0  0  0  0  0
    4.3567   -0.6222   -0.6493 C   0  0  0  0  0  0  0  0  0  0  0  0
    5.4766   -0.6124    0.2122 C   0  0  0  0  0  0  0  0  0  0  0  0
    5.3629   -0.2791    1.2551 H   0  0  0  0  0  0  0  0  0  0  0  0
    4.5108   -1.0641   -1.9819 C   0  0  0  0  0  0  0  0  0  0  0  0
    3.6443   -1.0609   -2.6606 H   0  0  0  0  0  0  0  0  0  0  0  0
    1.7035    1.4480    1.0517 N   0  0  0  0  0  2  0  0  0  0  0  0
   -2.3821    1.1374   -1.1476 C   0  0  0  0  0  0  0  0  0  0  0  0
   -3.2212    2.0540   -1.8083 C   0  0  0  0  0  0  0  0  0  0  0  0
   -4.2815    1.8103   -1.9607 H   0  0  0  0  0  0  0  0  0  0  0  0
   -1.3277    3.5355   -2.0289 C   0  0  0  0  0  0  0  0  0  0  0  0
   -0.8630    4.4743   -2.3623 H   0  0  0  0  0  0  0  0  0  0  0  0
   -2.6822    3.2666   -2.2616 C   0  0  0  0  0  0  0  0  0  0  0  0
   -3.3182    3.9950   -2.7862 H   0  0  0  0  0  0  0  0  0  0  0  0
   -4.9549   -0.2825    0.7150 C   0  0  0  0  0  0  0  0  0  0  0  0
   -4.3229   -0.0077    1.5755 H   0  0  0  0  0  0  0  0  0  0  0  0
   -4.3669   -0.4068   -0.5628 C   0  0  0  0  0  0  0  0  0  0  0  0
   -5.1596   -0.7524   -1.6760 C   0  0  0  0  0  0  0  0  0  0  0  0
   -4.6983   -0.8552   -2.6705 H   0  0  0  0  0  0  0  0  0  0  0  0
   -6.5353   -0.9749   -1.5093 C   0  0  0  0  0  0  0  0  0  0  0  0
   -7.1528   -1.2506   -2.3772 H   0  0  0  0  0  0  0  0  0  0  0  0
   -2.3625   -2.3559    0.2394 C   0  0  0  0  0  0  0  0  0  0  0  0
   -3.2044   -2.8253   -0.3138 H   0  0  0  0  0  0  0  0  0  0  0  0
   -2.7034   -2.2321    1.2925 H   0  0  0  0  0  0  0  0  0  0  0  0
   -1.1173   -3.2466    0.1994 C   0  0  0  0  0  0  0  0  0  0  0  0
   -1.3799   -4.2802    0.5219 H   0  0  0  0  0  0  0  0  0  0  0  0
   -0.7667   -3.3161   -0.8515 H   0  0  0  0  0  0  0  0  0  0  0  0
    5.7660   -1.4803   -2.4457 C   0  0  0  0  0  0  0  0  0  0  0  0
    5.8812   -1.8093   -3.4891 H   0  0  0  0  0  0  0  0  0  0  0  0
    6.8729   -1.4769   -1.5815 C   0  0  0  0  0  0  0  0  0  0  0  0
    7.8562   -1.8096   -1.9459 H   0  0  0  0  0  0  0  0  0  0  0  0
    6.7253   -1.0480   -0.2524 C   0  0  0  0  0  0  0  0  0  0  0  0
    7.5895   -1.0516    0.4282 H   0  0  0  0  0  0  0  0  0  0  0  0
   -6.3316   -0.4987    0.8685 C   0  0  0  0  0  0  0  0  0  0  0  0
   -6.7910   -0.3944    1.8628 H   0  0  0  0  0  0  0  0  0  0  0  0
   -7.1213   -0.8458   -0.2401 C   0  0  0  0  0  0  0  0  0  0  0  0
   -8.2008   -1.0171   -0.1141 H   0  0  0  0  0  0  0  0  0  0  0  0
  1 30  1  0  0  0  0
  3  4  1  0  0  0  0
  5  3  1  0  0  0  0
  5  7  1  0  0  0  0
  6  5  1  0  0  0  0
  8  2  1  0  0  0  0
  8  5  1  0  0  0  0
  9  8  1  0  0  0  0
 10  8  1  0  0  0  0
 11  2  1  0  0  0  0
 11  1  2  0  0  0  0
 12  1  1  0  0  0  0
 12 18  2  0  0  0  0
 13 12  1  0  0  0  0
 14 15  1  0  0  0  0
 16 14  2  0  0  0  0
 16 17  1  0  0  0  0
 18 16  1  0  0  0  0
 19 18  1  0  0  0  0
 20 45  1  0  0  0  0
 22 40  1  0  0  0  0
 22 20  1  1  0  0  0
 23 24  1  0  0  0  0
 23 21  1  0  0  0  0
 25 11  1  0  0  0  0
 25 26  1  0  0  0  0
 26 27  1  0  0  0  0
 28 25  2  0  0  0  0
 29 28  1  0  0  0  0
 30 14  1  0  0  0  0
 31 21  1  0  0  0  0
 31 22  1  0  0  0  0
 32 31  2  0  0  0  0
 33 32  1  0  0  0  0
 34 23  1  0  0  0  0
 35 34  1  0  0  0  0
 36 34  2  0  0  0  0
 36 32  1  0  0  0  0
 37 36  1  0  0  0  0
 38 57  1  0  0  0  0
 38 39  1  0  0  0  0
 40 38  2  0  0  0  0
 41 43  2  0  0  0  0
 41 40  1  0  0  0  0
 42 41  1  0  0  0  0
 43 59  1  0  0  0  0
 44 43  1  0  0  0  0
 45 47  1  0  0  0  0
 46 45  1  0  0  0  0
 48 45  1  0  0  0  0
 48 49  1  0  0  0  0
 48  3  1  0  0  0  0
 50 48  1  0  0  0  0
 51 28  1  0  0  0  0
 51 53  2  0  0  0  0
 52 51  1  0  0  0  0
 53 55  1  0  0  0  0
 54 53  1  0  0  0  0
 55 26  2  0  0  0  0
 55 56  1  0  0  0  0
 57 58  1  0  0  0  0
 59 60  1  0  0  0  0
 59 57  2  0  0  0  0
M  END
