1,2,3,4,5
q = 0.0, confidence = 0.976

 48 50  0  0  1  0  0  0  0  0999 V2000
   -0.4560   -2.2782    0.2471 N   0  0  0  0  0  0  0  0  0  0  0  0
    1.4967   -0.9206   -1.1010 N   0  0  0  0  0  0  0  0  0  0  0  0
   -1.1983   -0.4641   -1.6544 N   0  0  0  0  0  0  0  0  0  0  0  0
    0.6227    1.4561   -0.3092 N   0  0  0  0  0  2  0  0  0  0  0  0
   -1.6957    0.2556    0.8338 N   0  0  0  0  0  2  0  0  0  0  0  0
    0.6571   -3.1010   -0.3260 C   0  0  0  0  0  0  0  0  0  0  0  0
    1.9028   -2.2476   -0.5587 C   0  0  0  0  0  0  0  0  0  0  0  0
    1.0314   -1.0098   -2.5263 C   0  0  0  0  0  0  0  0  0  0  0  0
   -0.2436   -0.1991   -2.7602 C   0  0  0  0  0  0  0  0  0  0  0  0
   -1.7995   -1.8392   -1.7331 C   0  0  0  0  0  0  0  0  0  0  0  0
   -1.7749   -2.5318   -0.3706 C   0  0  0  0  0  0  0  0  0  0  0  0
   -2.2413    0.5806   -1.4872 C   0  0  0  0  0  0  0  0  0  0  0  0
   -2.6923    0.5904   -0.0493 C   0  0  2  0  0  3  0  0  0  0  0  0
   -3.9721    0.9490    0.3799 C   0  0  0  0  0  0  0  0  0  0  0  0
   -4.2491    0.9897    1.7572 C   0  0  0  0  0  0  0  0  0  0  0  0
   -3.2220    0.6617    2.6566 C   0  0  0  0  0  0  0  0  0  0  0  0
   -1.9647    0.2975    2.1662 C   0  0  0  0  0  0  0  0  0  0  0  0
    2.5440    0.1168   -0.9157 C   0  0  0  0  0  0  0  0  0  0  0  0
    1.9013    1.4709   -0.8024 C   0  0  2  0  0  3  0  0  0  0  0  0
    2.5721    2.6641   -1.0882 C   0  0  0  0  0  0  0  0  0  0  0  0
    1.9428    3.8916   -0.8334 C   0  0  0  0  0  0  0  0  0  0  0  0
    0.6497    3.8744   -0.2900 C   0  0  0  0  0  0  0  0  0  0  0  0
    0.0281    2.6482   -0.0433 C   0  0  0  0  0  0  0  0  0  0  0  0
   -0.4945   -2.4202    1.2660 H   0  0  0  0  0  0  0  0  0  0  0  0
    0.9023   -3.9523    0.3407 H   0  0  0  0  0  0  0  0  0  0  0  0
    0.2999   -3.5483   -1.2753 H   0  0  0  0  0  0  0  0  0  0  0  0
    2.6099   -2.7692   -1.2423 H   0  0  0  0  0  0  0  0  0  0  0  0
    2.4355   -2.0672    0.3944 H   0  0  0  0  0  0  0  0  0  0  0  0
    1.8293   -0.6722   -3.2207 H   0  0  0  0  0  0  0  0  0  0  0  0
    0.8525   -2.0762   -2.7637 H   0  0  0  0  0  0  0  0  0  0  0  0
   -0.6768   -0.4431   -3.7571 H   0  0  0  0  0  0  0  0  0  0  0  0
   -0.0223    0.8845   -2.7529 H   0  0  0  0  0  0  0  0  0  0  0  0
   -2.8344   -1.7879   -2.1302 H   0  0  0  0  0  0  0  0  0  0  0  0
   -1.2160   -2.4281   -2.4667 H   0  0  0  0  0  0  0  0  0  0  0  0
   -1.9899   -3.6171   -0.4896 H   0  0  0  0  0  0  0  0  0  0  0  0
   -2.5492   -2.1149    0.2997 H   0  0  0  0  0  0  0  0  0  0  0  0
   -1.7702    1.5568   -1.7299 H   0  0  0  0  0  0  0  0  0  0  0  0
   -3.0929    0.4438   -2.1894 H   0  0  0  0  0  0  0  0  0  0  0  0
   -4.7448    1.1991   -0.3619 H   0  0  0  0  0  0  0  0  0  0  0  0
   -5.2482    1.2720    2.1187 H   0  0  0  0  0  0  0  0  0  0  0  0
   -3.3881    0.6852    3.7431 H   0  0  0  0  0  0  0  0  0  0  0  0
   -1.1166    0.0378    2.8181 H   0  0  0  0  0  0  0  0  0  0  0  0
    3.0715   -0.0990    0.0400 H   0  0  0  0  0  0  0  0  0  0  0  0
    3.3048    0.0858   -1.7260 H   0  0  0  0  0  0  0  0  0  0  0  0
    3.5940    2.6241   -1.4927 H   0  0  0  0  0  0  0  0  0  0  0  0
    2.4565    4.8404   -1.0438 H   0  0  0  0  0  0  0  0  0  0  0  0
    0.1173    4.8056   -0.0503 H   0  0  0  0  0  0  0  0  0  0  0  0
   -0.9775    2.6040    0.3978 H   0  0  0  0  0  0  0  0  0  0  0  0
  1 24  1  0  0  0  0
  2 18  1  0  0  0  0
  2  7  1  0  0  0  0
  3 12  1  0  0  0  0
  4 23  1  0  0  0  0
  5 17  1  0  0  0  0
  6  1  1  0  0  0  0
  6 25  1  0  0  0  0
  7  6  1  0  0  0  0
  7 28  1  0  0  0  0
  8  2  1  0  0  0  0
  9 32  1  0  0  0  0
  9  8  1  0  0  0  0
  9  3  1  0  0  0  0
 10  3  1  0  0  0  0
 10 11  1  0  0  0  0
 11  1  1  0  0  0  0
 11 36  1  0  0  0  0
 13 12  1  1  0  0  0
 13 14  1  0  0  0  0
 13  5  1  0  0  0  0
 14 15  2  0  0  0  0
 15 40  1  0  0  0  0
 15 16  1  0  0  0  0
 16 41  1  0  0  0  0
 17 16  2  0  0  0  0
 17 42  1  0  0  0  0
 18 43  1  0  0  0  0
 19 18  1  1  0  0  0
 19  4  1  0  0  0  0
 20 21  2  0  0  0  0
 20 19  1  0  0  0  0
 21 22  1  0  0  0  0
 22 47  1  0  0  0  0
 22 23  2  0  0  0  0
 23 48  1  0  0  0  0
 26  6  1  0  0  0  0
 27  7  1  0  0  0  0
 29  8  1  0  0  0  0
 30  8  1  0  0  0  0
 31  9  1  0  0  0  0
 33 10  1  0  0  0  0
 34 10  1  0  0  0  0
 35 11  1  0  0  0  0
 37 12  1  0  0  0  0
 38 12  1  0  0  0  0
 39 14  1  0  0  0  0
 44 18  1  0  0  0  0
 45 20  1  0  0  0  0
 46 21  1  0  0  0  0
M  END
