6,7,8,9,10
q = 0.0, confidence = 0.974

 67 71  0  0  1  0  0  0  0  0999 V2000
   -2.7430    2.4941    0.6663 O   0  0  0  0  0  0  0  0  0  0  0  0
    0.3558    3.8003    1.6668 O   0  0  0  0  0  0  0  0  0  0  0  0
   -0.5488    4.1801   -0.3761 O   0  0  0  0  0  0  0  0  0  0  0  0
   -4.5177   -0.1171   -0.4214 O   0  0  0  0  0  0  0  0  0  0  0  0
   -4.0809   -0.0116    1.7965 O   0  0  0  0  0  0  0  0  0  0  0  0
   -0.5401    0.2498   -1.5821 N   0  0  0  0  0  0  0  0  0  0  0  0
    0.0102   -0.3485    1.3764 N   0  0  0  0  0  0  0  0  0  0  0  0
    2.2893   -2.0539    0.8302 N   0  0  0  0  0  2  0  0  0  0  0  0
    2.1538    0.3989   -1.1568 N   0  0  0  0  0  2  0  0  0  0  0  0
   -0.5224   -2.4195   -1.0476 N   0  0  0  0  0  2  0  0  0  0  0  0
   -0.0281    1.5447   -1.1392 C   0  0  1  0  0  0  0  0  0  0  0  0
   -0.4547    2.3726   -1.7508 H   0  0  0  0  0  0  0  0  0  0  0  0
   -0.3981    1.9049    0.3409 C   0  0  1  0  0  0  0  0  0  0  0  0
   -1.9031    1.6398    0.4693 C   0  0  0  0  0  0  0  0  0  0  0  0
   -2.2086    0.1413    0.3379 C   0  0  1  0  0  0  0  0  0  0  0  0
   -1.8058   -0.3088   -1.1064 C   0  0  2  0  0  0  0  0  0  0  0  0
   -2.6574    0.0261   -1.7424 H   0  0  0  0  0  0  0  0  0  0  0  0
   -1.4352   -0.5794    1.4684 C   0  0  0  0  0  0  0  0  0  0  0  0
   -1.8437   -0.2298    2.4441 H   0  0  0  0  0  0  0  0  0  0  0  0
   -1.6225   -1.6706    1.4049 H   0  0  0  0  0  0  0  0  0  0  0  0
    0.3307    1.0816    1.4324 C   0  0  0  0  0  0  0  0  0  0  0  0
    1.4272    1.2116    1.3301 H   0  0  0  0  0  0  0  0  0  0  0  0
    0.0528    1.5237    2.4180 H   0  0  0  0  0  0  0  0  0  0  0  0
   -0.4254    0.1093   -3.0353 C   0  0  0  0  0  0  0  0  0  0  0  0
   -1.1339    0.7836   -3.5728 H   0  0  0  0  0  0  0  0  0  0  0  0
   -0.6399   -0.9341   -3.3332 H   0  0  0  0  0  0  0  0  0  0  0  0
    0.6042    0.3460   -3.3630 H   0  0  0  0  0  0  0  0  0  0  0  0
    0.7236   -1.1037    2.4204 C   0  0  0  0  0  0  0  0  0  0  0  0
    0.1834   -2.0651    2.5529 H   0  0  0  0  0  0  0  0  0  0  0  0
    0.6963   -0.5764    3.4021 H   0  0  0  0  0  0  0  0  0  0  0  0
    2.1474   -1.4468    2.0395 C   0  0  1  0  0  3  0  0  0  0  0  0
    3.2325   -1.2420    2.9009 C   0  0  0  0  0  0  0  0  0  0  0  0
    3.0780   -0.7338    3.8644 H   0  0  0  0  0  0  0  0  0  0  0  0
    4.5037   -1.7091    2.5267 C   0  0  0  0  0  0  0  0  0  0  0  0
    5.3696   -1.5639    3.1890 H   0  0  0  0  0  0  0  0  0  0  0  0
    4.6407   -2.3744    1.3000 C   0  0  0  0  0  0  0  0  0  0  0  0
    5.6085   -2.7840    0.9765 H   0  0  0  0  0  0  0  0  0  0  0  0
    3.5114   -2.5158    0.4827 C   0  0  0  0  0  0  0  0  0  0  0  0
    3.5779   -3.0337   -0.4886 H   0  0  0  0  0  0  0  0  0  0  0  0
    1.4914    1.5733   -1.3195 C   0  0  1  0  0  3  0  0  0  0  0  0
    2.1657    2.7689   -1.6074 C   0  0  0  0  0  0  0  0  0  0  0  0
    1.5860    3.6918   -1.7498 H   0  0  0  0  0  0  0  0  0  0  0  0
    3.5628    2.7626   -1.7171 C   0  0  0  0  0  0  0  0  0  0  0  0
    4.1105    3.6894   -1.9427 H   0  0  0  0  0  0  0  0  0  0  0  0
    4.2438    1.5485   -1.5424 C   0  0  0  0  0  0  0  0  0  0  0  0
    5.3380    1.4871   -1.6280 H   0  0  0  0  0  0  0  0  0  0  0  0
    3.5004    0.3967   -1.2686 C   0  0  0  0  0  0  0  0  0  0  0  0
    3.9988   -0.5755   -1.1293 H   0  0  0  0  0  0  0  0  0  0  0  0
   -1.7403   -1.8411   -1.2032 C   0  0  2  0  0  3  0  0  0  0  0  0
   -2.8962   -2.6086   -1.4190 C   0  0  0  0  0  0  0  0  0  0  0  0
   -3.8605   -2.0983   -1.5528 H   0  0  0  0  0  0  0  0  0  0  0  0
   -2.7932   -4.0062   -1.4537 C   0  0  0  0  0  0  0  0  0  0  0  0
   -3.6863   -4.6252   -1.6252 H   0  0  0  0  0  0  0  0  0  0  0  0
   -1.5340   -4.5987   -1.2717 C   0  0  0  0  0  0  0  0  0  0  0  0
   -1.4045   -5.6901   -1.2932 H   0  0  0  0  0  0  0  0  0  0  0  0
   -0.4279   -3.7664   -1.0738 C   0  0  0  0  0  0  0  0  0  0  0  0
    0.5817   -4.1827   -0.9276 H   0  0  0  0  0  0  0  0  0  0  0  0
   -0.1343    3.3942    0.6330 C   0  0  0  0  0  0  0  0  0  0  0  0
   -0.4846    5.5988   -0.1270 C   0  0  0  0  0  0  0  0  0  0  0  0
   -0.8351    6.0843   -1.0536 H   0  0  0  0  0  0  0  0  0  0  0  0
    0.5521    5.9048    0.1145 H   0  0  0  0  0  0  0  0  0  0  0  0
   -1.1429    5.8619    0.7232 H   0  0  0  0  0  0  0  0  0  0  0  0
   -3.7333   -0.0254    0.5035 C   0  0  0  0  0  0  0  0  0  0  0  0
   -5.4974   -0.0277    2.0666 C   0  0  0  0  0  0  0  0  0  0  0  0
   -5.5947   -0.0535    3.1651 H   0  0  0  0  0  0  0  0  0  0  0  0
   -5.9696   -0.9172    1.6067 H   0  0  0  0  0  0  0  0  0  0  0  0
   -5.9692    0.8848    1.6533 H   0  0  0  0  0  0  0  0  0  0  0  0
  3 59  1  0  0  0  0
  3 58  1  0  0  0  0
  4 63  2  0  0  0  0
  5 64  1  0  0  0  0
  6 11  1  0  0  0  0
  6 16  1  0  0  0  0
  7 21  1  0  0  0  0
  7 18  1  0  0  0  0
  7 28  1  0  0  0  0
  8 31  1  0  0  0  0
 11 12  1  6  0  0  0
 11 13  1  0  0  0  0
 13 14  1  0  0  0  0
 13 58  1  1  0  0  0
 13 21  1  0  0  0  0
 14  1  2  0  0  0  0
 15 14  1  0  0  0  0
 15 63  1  1  0  0  0
 15 18  1  0  0  0  0
 16 17  1  6  0  0  0
 16 15  1  0  0  0  0
 18 19  1  0  0  0  0
 20 18  1  0  0  0  0
 21 23  1  0  0  0  0
 22 21  1  0  0  0  0
 24  6  1  0  0  0  0
 25 24  1  0  0  0  0
 26 24  1  0  0  0  0
 27 24  1  0  0  0  0
 28 29  1  0  0  0  0
 28 30  1  0  0  0  0
 31 28  1  1  0  0  0
 31 32  1  0  0  0  0
 32 33  1  0  0  0  0
 34 32  2  0  0  0  0
 34 35  1  0  0  0  0
 36 34  1  0  0  0  0
 37 36  1  0  0  0  0
 38  8  1  0  0  0  0
 38 36  2  0  0  0  0
 39 38  1  0  0  0  0
 40 41  1  1  0  0  0
 40  9  1  0  0  0  0
 40 11  1  0  0  0  0
 42 41  1  0  0  0  0
 43 41  2  0  0  0  0
 43 45  1  0  0  0  0
 44 43  1  0  0  0  0
 45 47  2  0  0  0  0
 46 45  1  0  0  0  0
 47  9  1  0  0  0  0
 47 48  1  0  0  0  0
 49 50  1  1  0  0  0
 49 16  1  0  0  0  0
 49 10  1  0  0  0  0
 51 50  1  0  0  0  0
 52 50  2  0  0  0  0
 52 54  1  0  0  0  0
 53 52  1  0  0  0  0
 54 56  2  0  0  0  0
 55 54  1  0  0  0  0
 56 10  1  0  0  0  0
 56 57  1  0  0  0  0
 58  2  2  0  0  0  0
 59 61  1  0  0  0  0
 59 62  1  0  0  0  0
 60 59  1  0  0  0  0
 63  5  1  0  0  0  0
 64 65  1  0  0  0  0
 66 64  1  0  0  0  0
 67 64  1  0  0  0  0
M  END
