7,8,9,11,12
q = -2.0, confidence = 0.646

 59 61  0  0  0  0  0  0  0  0999 V2000
    0.5065    1.4246    2.2874 O   0  0  0  0  0  0  0  0  0  0  0  0
    0.9120    1.3453   -2.7601 O   0  0  0  0  0  1  0  0  0  0  0  0
    1.0901   -0.9385    2.3838 O   0  0  0  0  0  0  0  0  0  0  0  0
    1.5647   -1.1006   -2.7460 O   0  0  0  0  0  0  0  0  0  0  0  0
   -1.2786   -0.2377    2.3948 O   0  0  0  0  0  0  0  0  0  0  0  0
   -1.6471    1.0718   -2.5662 O   0  0  0  0  0  1  0  0  0  0  0  0
    0.6436    1.4801    0.9532 N   0  0  0  0  0  2  0  0  0  0  0  0
    0.8994    1.4535   -1.5269 N   0  0  0  0  0  2  0  0  0  0  0  0
    1.2283   -1.0457    1.0492 N   0  0  0  0  0  2  0  0  0  0  0  0
    1.5589   -1.0643   -1.5058 N   0  0  0  0  0  0  0  0  0  0  0  0
   -1.4754    0.0162    1.0816 N   0  0  0  0  0  2  0  0  0  0  0  0
   -1.6835    0.7590   -1.3602 N   0  0  0  0  0  2  0  0  0  0  0  0
    1.2633    2.5793    0.4813 C   0  0  0  0  0  0  0  0  0  0  0  0
    1.7408    3.7054    1.3474 C   0  0  0  0  0  0  0  0  0  0  0  0
    2.6955    4.6263    0.5708 C   0  0  0  0  0  0  0  0  0  0  0  0
    2.1530    4.9569   -0.8265 C   0  0  0  0  0  0  0  0  0  0  0  0
    2.0118    3.6959   -1.6935 C   0  0  0  0  0  0  0  0  0  0  0  0
    1.3932    2.5824   -0.9120 C   0  0  0  0  0  0  0  0  0  0  0  0
    2.1498   -1.9070    0.6158 C   0  0  0  0  0  0  0  0  0  0  0  0
    2.9687   -2.7573    1.5431 C   0  0  0  0  0  0  0  0  0  0  0  0
    3.6168   -3.9336    0.7983 C   0  0  0  0  0  0  0  0  0  0  0  0
    4.2877   -3.4744   -0.5019 C   0  0  0  0  0  0  0  0  0  0  0  0
    3.2680   -2.8716   -1.4778 C   0  0  0  0  0  0  0  0  0  0  0  0
    2.3381   -1.9226   -0.7880 C   0  0  0  0  0  0  0  0  0  0  0  0
   -2.7147    0.2587    0.6814 C   0  0  0  0  0  0  0  0  0  0  0  0
   -3.9013    0.1133    1.5873 C   0  0  0  0  0  0  0  0  0  0  0  0
   -5.1826    0.6761    0.9559 C   0  0  0  0  0  0  0  0  0  0  0  0
   -5.3094    0.2555   -0.5137 C   0  0  0  0  0  0  0  0  0  0  0  0
   -4.1709    0.8451   -1.3576 C   0  0  0  0  0  0  0  0  0  0  0  0
   -2.8474    0.6418   -0.6853 C   0  0  0  0  0  0  0  0  0  0  0  0
    0.1348    0.1467    4.4584 C   0  0  0  0  0  0  0  0  0  0  0  0
    0.1042    0.0884    2.8688 B   0  0  2  0  0  0  0  0  0  0  0  0
    2.2125    3.2865    2.2596 H   0  0  0  0  0  0  0  0  0  0  0  0
    0.8543    4.2724    1.7115 H   0  0  0  0  0  0  0  0  0  0  0  0
    3.6845    4.1276    0.4703 H   0  0  0  0  0  0  0  0  0  0  0  0
    2.8695    5.5540    1.1517 H   0  0  0  0  0  0  0  0  0  0  0  0
    1.1586    5.4445   -0.7253 H   0  0  0  0  0  0  0  0  0  0  0  0
    2.8109    5.6883   -1.3367 H   0  0  0  0  0  0  0  0  0  0  0  0
    3.0055    3.3607   -2.0718 H   0  0  0  0  0  0  0  0  0  0  0  0
    1.4044    3.8787   -2.6038 H   0  0  0  0  0  0  0  0  0  0  0  0
    3.7475   -2.1130    2.0114 H   0  0  0  0  0  0  0  0  0  0  0  0
    2.3250   -3.0926    2.3809 H   0  0  0  0  0  0  0  0  0  0  0  0
    2.8370   -4.6902    0.5614 H   0  0  0  0  0  0  0  0  0  0  0  0
    4.3494   -4.4339    1.4630 H   0  0  0  0  0  0  0  0  0  0  0  0
    5.0642   -2.7143   -0.2632 H   0  0  0  0  0  0  0  0  0  0  0  0
    4.8151   -4.3197   -0.9879 H   0  0  0  0  0  0  0  0  0  0  0  0
    2.6545   -3.6723   -1.9544 H   0  0  0  0  0  0  0  0  0  0  0  0
    3.7558   -2.3470   -2.3244 H   0  0  0  0  0  0  0  0  0  0  0  0
   -4.0132   -0.9742    1.7976 H   0  0  0  0  0  0  0  0  0  0  0  0
   -3.6662    0.5780    2.5670 H   0  0  0  0  0  0  0  0  0  0  0  0
   -5.1748    1.7866    1.0215 H   0  0  0  0  0  0  0  0  0  0  0  0
   -6.0595    0.3339    1.5411 H   0  0  0  0  0  0  0  0  0  0  0  0
   -6.2869    0.5721   -0.9294 H   0  0  0  0  0  0  0  0  0  0  0  0
   -5.2720   -0.8539   -0.5830 H   0  0  0  0  0  0  0  0  0  0  0  0
   -4.1252    0.3887   -2.3682 H   0  0  0  0  0  0  0  0  0  0  0  0
   -4.3307    1.9346   -1.5325 H   0  0  0  0  0  0  0  0  0  0  0  0
   -0.2837   -0.7840    4.8915 H   0  0  0  0  0  0  0  0  0  0  0  0
   -0.4689    0.9964    4.8354 H   0  0  0  0  0  0  0  0  0  0  0  0
    1.1697    0.2638    4.8378 H   0  0  0  0  0  0  0  0  0  0  0  0
  2  8  1  0  0  0  0
  3 32  1  0  0  0  0
  4 10  2  0  0  0  0
  5 32  1  0  0  0  0
  6 12  1  0  0  0  0
  7  1  1  0  0  0  0
  8 18  1  0  0  0  0
  9  3  1  0  0  0  0
 10 24  1  0  0  0  0
 11  5  1  0  0  0  0
 12 30  1  0  0  0  0
 13  7  1  0  0  0  0
 13 14  1  0  0  0  0
 14 34  1  0  0  0  0
 14 33  1  0  0  0  0
 15 36  1  0  0  0  0
 15 14  1  0  0  0  0
 16 37  1  0  0  0  0
 16 15  1  0  0  0  0
 17 18  1  0  0  0  0
 17 16  1  0  0  0  0
 18 13  2  0  0  0  0
 19  9  1  0  0  0  0
 19 20  1  0  0  0  0
 20 41  1  0  0  0  0
 20 42  1  0  0  0  0
 21 44  1  0  0  0  0
 21 20  1  0  0  0  0
 22 45  1  0  0  0  0
 22 21  1  0  0  0  0
 23 24  1  0  0  0  0
 23 22  1  0  0  0  0
 24 19  2  0  0  0  0
 25 11  1  0  0  0  0
 25 26  1  0  0  0  0
 26 49  1  0  0  0  0
 26 50  1  0  0  0  0
 27 51  1  0  0  0  0
 27 52  1  0  0  0  0
 27 26  1  0  0  0  0
 28 27  1  0  0  0  0
 29 30  1  0  0  0  0
 29 28  1  0  0  0  0
 30 25  2  0  0  0  0
 31 58  1  0  0  0  0
 31 59  1  0  0  0  0
 31 57  1  0  0  0  0
 32  1  1  6  0  0  0
 32 31  1  0  0  0  0
 35 15  1  0  0  0  0
 38 16  1  0  0  0  0
 39 17  1  0  0  0  0
 40 17  1  0  0  0  0
 43 21  1  0  0  0  0
 46 22  1  0  0  0  0
 47 23  1  0  0  0  0
 48 23  1  0  0  0  0
 53 28  1  0  0  0  0
 54 28  1  0  0  0  0
 55 29  1  0  0  0  0
 56 29  1  0  0  0  0
M  END
