1,2,3,5,8
q = 0.0, confidence = 0.974

 77 83  0  0  0  0  0  0  0  0999 V2000
    1.6165    1.1680   -1.1349 N   0  0  0  0  0  2  0  0  0  0  0  0
    1.3521    0.7692    1.4983 N   0  0  0  0  0  2  0  0  0  0  0  0
    1.4356   -1.8296    2.0487 N   0  0  0  0  0  0  0  0  0  0  0  0
    2.4700   -1.8418    1.9621 H   0  0  0  0  0  0  0  0  0  0  0  0
    0.9583   -3.0785   -0.5291 N   0  0  0  0  0  0  0  0  0  0  0  0
    1.9925   -1.1358   -2.3799 N   0  0  0  0  0  0  0  0  0  0  0  0
    2.9625   -1.0948   -2.0115 H   0  0  0  0  0  0  0  0  0  0  0  0
   -0.7245   -0.7046   -0.4200 N   0  0  0  0  0  0  0  0  0  0  0  0
   -0.7863    0.1655   -0.9656 H   0  0  0  0  0  0  0  0  0  0  0  0
    1.5002    2.0463    1.0802 C   0  0  0  0  0  0  0  0  0  0  0  0
    1.2251    0.4920    2.7934 C   0  0  0  0  0  0  0  0  0  0  0  0
   -3.1303    1.3241   -0.0076 C   0  0  0  0  0  0  0  0  0  0  0  0
    1.6357    2.2619   -0.3417 C   0  0  0  0  0  0  0  0  0  0  0  0
   -4.1225   -0.9105    0.3524 C   0  0  0  0  0  0  0  0  0  0  0  0
   -0.4899   -3.1460   -0.7982 C   0  0  0  0  0  0  0  0  0  0  0  0
   -1.0057   -3.4311    0.1405 H   0  0  0  0  0  0  0  0  0  0  0  0
   -0.7254   -3.9554   -1.5280 H   0  0  0  0  0  0  0  0  0  0  0  0
    1.7278   -0.0074   -3.2517 C   0  0  0  0  0  0  0  0  0  0  0  0
    0.7178   -0.1265   -3.7100 H   0  0  0  0  0  0  0  0  0  0  0  0
    2.4339    0.0829   -4.1121 H   0  0  0  0  0  0  0  0  0  0  0  0
   -2.9981   -0.0391    0.3865 C   0  0  0  0  0  0  0  0  0  0  0  0
   -5.4067   -0.3984   -0.1064 C   0  0  0  0  0  0  0  0  0  0  0  0
   -2.0369    2.2552    0.0270 C   0  0  0  0  0  0  0  0  0  0  0  0
   -1.0563    1.9369    0.4052 H   0  0  0  0  0  0  0  0  0  0  0  0
    1.0294   -0.9745    3.1509 C   0  0  0  0  0  0  0  0  0  0  0  0
    1.5574   -1.1930    4.1091 H   0  0  0  0  0  0  0  0  0  0  0  0
   -0.0518   -1.1406    3.3605 H   0  0  0  0  0  0  0  0  0  0  0  0
   -1.0914   -1.8276   -1.2997 C   0  0  0  0  0  0  0  0  0  0  0  0
   -0.7198   -1.5913   -2.3128 H   0  0  0  0  0  0  0  0  0  0  0  0
   -2.1943   -1.9441   -1.3865 H   0  0  0  0  0  0  0  0  0  0  0  0
    1.7784    3.5844   -0.8497 C   0  0  0  0  0  0  0  0  0  0  0  0
    1.3491   -3.8442    0.6736 C   0  0  0  0  0  0  0  0  0  0  0  0
    2.4569   -3.8976    0.6720 H   0  0  0  0  0  0  0  0  0  0  0  0
    0.9674   -4.8914    0.6356 H   0  0  0  0  0  0  0  0  0  0  0  0
    1.7509    1.2883   -2.4533 C   0  0  0  0  0  0  0  0  0  0  0  0
   -5.5137    0.9434   -0.5107 C   0  0  0  0  0  0  0  0  0  0  0  0
   -6.4858    1.3187   -0.8671 H   0  0  0  0  0  0  0  0  0  0  0  0
    1.7088   -2.4808   -2.8626 C   0  0  0  0  0  0  0  0  0  0  0  0
    2.4194   -2.8286   -3.6492 H   0  0  0  0  0  0  0  0  0  0  0  0
    0.7053   -2.4951   -3.3384 H   0  0  0  0  0  0  0  0  0  0  0  0
   -1.6197   -0.5365    0.7577 C   0  0  0  0  0  0  0  0  0  0  0  0
   -1.1255    0.1752    1.4446 H   0  0  0  0  0  0  0  0  0  0  0  0
   -1.6591   -1.5003    1.2946 H   0  0  0  0  0  0  0  0  0  0  0  0
   -4.4134    1.8187   -0.4740 C   0  0  0  0  0  0  0  0  0  0  0  0
    1.7840    4.6871    0.0751 C   0  0  0  0  0  0  0  0  0  0  0  0
    1.8975    5.7075   -0.3209 H   0  0  0  0  0  0  0  0  0  0  0  0
    1.7871   -3.4651   -1.6896 C   0  0  0  0  0  0  0  0  0  0  0  0
    1.5237   -4.4883   -2.0485 H   0  0  0  0  0  0  0  0  0  0  0  0
    2.8372   -3.4889   -1.3332 H   0  0  0  0  0  0  0  0  0  0  0  0
   -4.0711   -2.2904    0.7498 C   0  0  0  0  0  0  0  0  0  0  0  0
   -3.1289   -2.7185    1.1202 H   0  0  0  0  0  0  0  0  0  0  0  0
    1.5106    3.1550    1.9732 C   0  0  0  0  0  0  0  0  0  0  0  0
    1.6554    4.4806    1.4324 C   0  0  0  0  0  0  0  0  0  0  0  0
    1.6643    5.3351    2.1255 H   0  0  0  0  0  0  0  0  0  0  0  0
    0.9078   -3.1858    1.9854 C   0  0  0  0  0  0  0  0  0  0  0  0
   -0.2014   -3.1385    2.0616 H   0  0  0  0  0  0  0  0  0  0  0  0
    1.2445   -3.8356    2.8274 H   0  0  0  0  0  0  0  0  0  0  0  0
    1.2379    1.5272    3.7661 C   0  0  0  0  0  0  0  0  0  0  0  0
    1.1407    1.2769    4.8329 H   0  0  0  0  0  0  0  0  0  0  0  0
    1.9093    3.7041   -2.2614 C   0  0  0  0  0  0  0  0  0  0  0  0
    2.0267    4.7005   -2.7141 H   0  0  0  0  0  0  0  0  0  0  0  0
    1.9019    2.5647   -3.0592 C   0  0  0  0  0  0  0  0  0  0  0  0
    2.0187    2.6420   -4.1503 H   0  0  0  0  0  0  0  0  0  0  0  0
   -4.5325    3.1854   -0.8883 C   0  0  0  0  0  0  0  0  0  0  0  0
   -5.5143    3.5407   -1.2371 H   0  0  0  0  0  0  0  0  0  0  0  0
    1.3738    2.8495    3.3560 C   0  0  0  0  0  0  0  0  0  0  0  0
    1.3813    3.6643    4.0961 H   0  0  0  0  0  0  0  0  0  0  0  0
   -2.1892    3.5679   -0.3821 C   0  0  0  0  0  0  0  0  0  0  0  0
   -1.3302    4.2546   -0.3321 H   0  0  0  0  0  0  0  0  0  0  0  0
   -3.4494    4.0415   -0.8514 C   0  0  0  0  0  0  0  0  0  0  0  0
   -3.5570    5.0880   -1.1725 H   0  0  0  0  0  0  0  0  0  0  0  0
   -6.5411   -1.2740   -0.1490 C   0  0  0  0  0  0  0  0  0  0  0  0
   -7.5012   -0.8655   -0.4998 H   0  0  0  0  0  0  0  0  0  0  0  0
   -5.1876   -3.1031    0.6955 C   0  0  0  0  0  0  0  0  0  0  0  0
   -5.1137   -4.1539    1.0135 H   0  0  0  0  0  0  0  0  0  0  0  0
   -6.4396   -2.5940    0.2388 C   0  0  0  0  0  0  0  0  0  0  0  0
   -7.3181   -3.2548    0.2023 H   0  0  0  0  0  0  0  0  0  0  0  0
  1 13  1  0  0  0  0
  2 11  1  0  0  0  0
  3 25  1  0  0  0  0
  4  3  1  0  0  0  0
  5 32  1  0  0  0  0
  6  7  1  0  0  0  0
  8 41  1  0  0  0  0
  9  8  1  0  0  0  0
 10  2  1  0  0  0  0
 10 52  1  0  0  0  0
 11 25  1  0  0  0  0
 11 58  2  0  0  0  0
 12 23  1  0  0  0  0
 12 21  2  0  0  0  0
 13 10  2  0  0  0  0
 14 21  1  0  0  0  0
 14 50  1  0  0  0  0
 15  5  1  0  0  0  0
 15 16  1  0  0  0  0
 17 15  1  0  0  0  0
 18 35  1  0  0  0  0
 18  6  1  0  0  0  0
 19 18  1  0  0  0  0
 20 18  1  0  0  0  0
 21 41  1  0  0  0  0
 22 14  2  0  0  0  0
 23 24  1  0  0  0  0
 25 27  1  0  0  0  0
 25 26  1  0  0  0  0
 28 15  1  0  0  0  0
 28  8  1  0  0  0  0
 29 28  1  0  0  0  0
 30 28  1  0  0  0  0
 31 13  1  0  0  0  0
 31 45  1  0  0  0  0
 32 55  1  0  0  0  0
 33 32  1  0  0  0  0
 34 32  1  0  0  0  0
 35  1  1  0  0  0  0
 36 44  2  0  0  0  0
 36 22  1  0  0  0  0
 37 36  1  0  0  0  0
 38  6  1  0  0  0  0
 38 47  1  0  0  0  0
 39 38  1  0  0  0  0
 40 38  1  0  0  0  0
 41 43  1  0  0  0  0
 41 42  1  0  0  0  0
 44 12  1  0  0  0  0
 45 53  2  0  0  0  0
 46 45  1  0  0  0  0
 47 49  1  0  0  0  0
 47  5  1  0  0  0  0
 48 47  1  0  0  0  0
 50 51  1  0  0  0  0
 52 66  2  0  0  0  0
 53 52  1  0  0  0  0
 53 54  1  0  0  0  0
 55  3  1  0  0  0  0
 55 56  1  0  0  0  0
 55 57  1  0  0  0  0
 58 59  1  0  0  0  0
 60 31  2  0  0  0  0
 61 60  1  0  0  0  0
 62 35  2  0  0  0  0
 62 60  1  0  0  0  0
 63 62  1  0  0  0  0
 64 70  2  0  0  0  0
 64 44  1  0  0  0  0
 65 64  1  0  0  0  0
 66 58  1  0  0  0  0
 66 67  1  0  0  0  0
 68 69  1  0  0  0  0
 68 23  2  0  0  0  0
 70 68  1  0  0  0  0
 71 70  1  0  0  0  0
 72 22  1  0  0  0  0
 72 76  2  0  0  0  0
 73 72  1  0  0  0  0
 74 50  2  0  0  0  0
 74 75  1  0  0  0  0
 76 74  1  0  0  0  0
 77 76  1  0  0  0  0
M  END
