3,5,7,8,9
q = -1.0, confidence = 0.006

 39 40  0  0  1  0  0  0  0  0999 V2000
   -4.4965   -0.9243    0.0501 Br  0  0  0  0  0  0  0  0  0  0  0  0
   -1.8083   -2.5658    0.1092 O   0  0  0  0  0  0  0  0  0  0  0  0
    2.8539   -0.3787   -0.0623 N   0  0  0  0  0  2  0  0  0  0  0  0
    4.9814   -0.6269   -0.5604 N   0  0  0  0  0  0  0  0  0  0  0  0
    0.2435   -1.4626    0.1113 N   0  0  0  0  0  2  0  0  0  0  0  0
   -2.3058    2.5530   -0.3499 N   0  0  0  0  0  0  0  0  0  0  0  0
   -0.7572    0.8022   -0.0962 N   0  0  0  0  0  2  0  0  0  0  0  0
    1.3813    2.2960   -0.0447 N   0  0  0  0  0  0  0  0  0  0  0  0
    1.0698    0.4373    1.9469 N   0  0  0  0  0  0  0  0  0  0  0  0
    3.9160    0.2067   -0.6261 C   0  0  0  0  0  3  0  0  0  0  0  0
    4.5887   -1.7996    0.0514 C   0  0  0  0  0  0  0  0  0  0  0  0
    3.2473   -1.6448    0.3607 C   0  0  0  0  0  0  0  0  0  0  0  0
    2.2665   -2.6385    0.8984 C   0  0  0  0  0  0  0  0  0  0  0  0
    1.0002   -2.6947    0.0316 C   0  0  0  0  0  0  0  0  0  0  0  0
   -1.1267   -1.5422    0.0804 C   0  0  0  0  0  0  0  0  0  0  0  0
   -1.7103   -0.1491   -0.0043 C   0  0  2  0  0  3  0  0  0  0  0  0
   -3.0553    0.2639   -0.0692 C   0  0  0  0  0  0  0  0  0  0  0  0
   -3.2929    1.6514   -0.2311 C   0  0  0  0  0  0  0  0  0  0  0  0
   -1.0578    2.0998   -0.2921 C   0  0  0  0  0  0  0  0  0  0  0  0
    0.1464    2.9676   -0.5444 C   0  0  0  0  0  0  0  0  0  0  0  0
    1.7972    2.6667    1.3300 C   0  0  0  0  0  0  0  0  0  0  0  0
    0.9737    1.8648    2.3308 C   0  0  0  0  0  0  0  0  0  0  0  0
    5.9113   -0.4288   -0.9356 H   0  0  0  0  0  0  0  0  0  0  0  0
    2.1315    2.5055   -0.7147 H   0  0  0  0  0  0  0  0  0  0  0  0
    1.9567    0.0276    2.2770 H   0  0  0  0  0  0  0  0  0  0  0  0
    0.3153   -0.1350    2.3558 H   0  0  0  0  0  0  0  0  0  0  0  0
    3.9307    1.1690   -1.1467 H   0  0  0  0  0  0  0  0  0  0  0  0
    5.2693   -2.6430    0.2012 H   0  0  0  0  0  0  0  0  0  0  0  0
    1.9820   -2.4084    1.9496 H   0  0  0  0  0  0  0  0  0  0  0  0
    2.7503   -3.6341    0.9230 H   0  0  0  0  0  0  0  0  0  0  0  0
    1.2853   -2.9005   -1.0260 H   0  0  0  0  0  0  0  0  0  0  0  0
    0.3447   -3.5265    0.3611 H   0  0  0  0  0  0  0  0  0  0  0  0
   -4.3296    2.0262   -0.2722 H   0  0  0  0  0  0  0  0  0  0  0  0
    0.2473    3.0578   -1.6462 H   0  0  0  0  0  0  0  0  0  0  0  0
    0.0132    3.9845   -0.1216 H   0  0  0  0  0  0  0  0  0  0  0  0
    1.6964    3.7577    1.5155 H   0  0  0  0  0  0  0  0  0  0  0  0
    2.8714    2.4076    1.4325 H   0  0  0  0  0  0  0  0  0  0  0  0
    1.3239    2.0465    3.3683 H   0  0  0  0  0  0  0  0  0  0  0  0
   -0.0924    2.1646    2.2915 H   0  0  0  0  0  0  0  0  0  0  0  0
  3 12  1  0  0  0  0
  4 11  1  0  0  0  0
  6 19  2  0  0  0  0
  6 18  1  0  0  0  0
  7 16  1  0  0  0  0
  8 21  1  0  0  0  0
  9 25  1  0  0  0  0
  9 22  1  0  0  0  0
  9 26  1  0  0  0  0
 10  4  1  0  0  0  0
 10  3  1  0  0  0  0
 11 28  1  0  0  0  0
 11 12  2  0  0  0  0
 12 13  1  0  0  0  0
 13 30  1  0  0  0  0
 13 29  1  0  0  0  0
 14  5  1  0  0  0  0
 14 32  1  0  0  0  0
 14 13  1  0  0  0  0
 15  2  2  0  0  0  0
 15  5  1  0  0  0  0
 16 15  1  6  0  0  0
 17 16  1  0  0  0  0
 17  1  1  0  0  0  0
 18 17  2  0  0  0  0
 19  7  1  0  0  0  0
 20 19  1  0  0  0  0
 20 35  1  0  0  0  0
 20  8  1  0  0  0  0
 21 37  1  0  0  0  0
 21 36  1  0  0  0  0
 21 22  1  0  0  0  0
 22 38  1  0  0  0  0
 23  4  1  0  0  0  0
 24  8  1  0  0  0  0
 27 10  1  0  0  0  0
 31 14  1  0  0  0  0
 33 18  1  0  0  0  0
 34 20  1  0  0  0  0
 39 22  1  0  0  0  0
M  END
