1,2,3,4,5
 OpenBabel05122313063D

 61 61  0  0  1  0  0  0  0  0999 V2000
   -1.4743    1.3293   -1.1881 N   0  0  0  0  0  2  0  0  0  0  0  0
   -2.4595   -1.2806   -0.4870 N   0  0  0  0  0  0  0  0  0  0  0  0
    0.0451   -2.5804    0.3942 N   0  0  0  0  0  0  0  0  0  0  0  0
   -2.2119    0.0392    2.1843 N   0  0  0  0  0  0  0  0  0  0  0  0
    1.0750   -0.8347   -1.5020 N   0  0  0  0  0  2  0  0  0  0  0  0
   -0.2766    3.2634   -0.3457 C   0  0  0  0  0  0  0  0  0  0  0  0
   -0.7330    3.1086   -2.7921 C   0  0  0  0  0  0  0  0  0  0  0  0
   -2.6158    3.5682   -1.1965 C   0  0  0  0  0  0  0  0  0  0  0  0
   -1.2980    2.7790   -1.3885 C   0  0  0  0  0  0  0  0  0  0  0  0
   -2.4748    0.7150   -2.0276 C   0  0  0  0  0  0  0  0  0  0  0  0
   -2.4756   -0.8119   -1.8965 C   0  0  0  0  0  0  0  0  0  0  0  0
   -2.3144   -2.7460   -0.4059 C   0  0  0  0  0  0  0  0  0  0  0  0
   -0.8705   -3.2126   -0.5741 C   0  0  0  0  0  0  0  0  0  0  0  0
   -3.6160   -0.8025    0.2874 C   0  0  0  0  0  0  0  0  0  0  0  0
   -3.3463   -0.8120    1.7894 C   0  0  0  0  0  0  0  0  0  0  0  0
   -2.5823    1.4612    2.1375 C   0  0  0  0  0  0  0  0  0  0  0  0
   -1.7693   -0.2973    3.5431 C   0  0  0  0  0  0  0  0  0  0  0  0
   -0.1347   -3.1110    1.7485 C   0  0  0  0  0  0  0  0  0  0  0  0
    1.4679   -2.7306   -0.0044 C   0  0  0  0  0  0  0  0  0  0  0  0
    1.7729   -2.1200   -1.3712 C   0  0  2  0  0  0  0  0  0  0  0  0
    3.2557   -1.9716   -1.6267 C   0  0  0  0  0  0  0  0  0  0  0  0
    3.6013   -1.1824   -2.6855 C   0  0  0  0  0  0  0  0  0  0  0  0
    2.5918   -0.3826   -3.3420 C   0  0  0  0  0  0  0  0  0  0  0  0
    1.4181   -0.1566   -2.6381 C   0  0  0  0  0  0  0  0  0  0  0  0
   -0.0319    4.3355   -0.4833 H   0  0  0  0  0  0  0  0  0  0  0  0
   -0.6572    3.1372    0.6875 H   0  0  0  0  0  0  0  0  0  0  0  0
    0.6772    2.7023   -0.4359 H   0  0  0  0  0  0  0  0  0  0  0  0
   -0.6484    4.2046   -2.9420 H   0  0  0  0  0  0  0  0  0  0  0  0
    0.2763    2.6692   -2.9179 H   0  0  0  0  0  0  0  0  0  0  0  0
   -1.3830    2.7158   -3.6000 H   0  0  0  0  0  0  0  0  0  0  0  0
   -2.4373    4.6607   -1.2643 H   0  0  0  0  0  0  0  0  0  0  0  0
   -3.3678    3.3109   -1.9697 H   0  0  0  0  0  0  0  0  0  0  0  0
   -3.0646    3.3615   -0.2031 H   0  0  0  0  0  0  0  0  0  0  0  0
   -3.5159    1.0914   -1.8254 H   0  0  0  0  0  0  0  0  0  0  0  0
   -2.3296    0.9126   -3.1219 H   0  0  0  0  0  0  0  0  0  0  0  0
   -1.5575   -1.2110   -2.3746 H   0  0  0  0  0  0  0  0  0  0  0  0
   -3.3560   -1.2399   -2.4374 H   0  0  0  0  0  0  0  0  0  0  0  0
   -2.7013   -3.0800    0.5770 H   0  0  0  0  0  0  0  0  0  0  0  0
   -2.9512   -3.2514   -1.1720 H   0  0  0  0  0  0  0  0  0  0  0  0
   -0.5102   -2.9567   -1.5883 H   0  0  0  0  0  0  0  0  0  0  0  0
   -0.8333   -4.3270   -0.4940 H   0  0  0  0  0  0  0  0  0  0  0  0
   -3.8450    0.2272   -0.0444 H   0  0  0  0  0  0  0  0  0  0  0  0
   -4.5289   -1.4116    0.0761 H   0  0  0  0  0  0  0  0  0  0  0  0
   -3.1224   -1.8457    2.1258 H   0  0  0  0  0  0  0  0  0  0  0  0
   -4.2803   -0.5125    2.3289 H   0  0  0  0  0  0  0  0  0  0  0  0
   -2.8448    1.7519    1.1039 H   0  0  0  0  0  0  0  0  0  0  0  0
   -3.4363    1.6863    2.8235 H   0  0  0  0  0  0  0  0  0  0  0  0
   -1.7134    2.0732    2.4453 H   0  0  0  0  0  0  0  0  0  0  0  0
   -1.4528   -1.3563    3.5930 H   0  0  0  0  0  0  0  0  0  0  0  0
   -2.5822   -0.1384    4.2937 H   0  0  0  0  0  0  0  0  0  0  0  0
   -0.9023    0.3323    3.8154 H   0  0  0  0  0  0  0  0  0  0  0  0
    0.5103   -2.5513    2.4537 H   0  0  0  0  0  0  0  0  0  0  0  0
   -1.1843   -3.0025    2.0798 H   0  0  0  0  0  0  0  0  0  0  0  0
    0.1351   -4.1934    1.8071 H   0  0  0  0  0  0  0  0  0  0  0  0
    2.0699   -2.2129    0.7710 H   0  0  0  0  0  0  0  0  0  0  0  0
    1.7626   -3.8084    0.0086 H   0  0  0  0  0  0  0  0  0  0  0  0
    1.3628   -2.8142   -2.1678 H   0  0  0  0  0  0  0  0  0  0  0  0
    3.9955   -2.5124   -1.0162 H   0  0  0  0  0  0  0  0  0  0  0  0
    4.6568   -1.0741   -2.9853 H   0  0  0  0  0  0  0  0  0  0  0  0
    2.8248    0.2142   -4.2342 H   0  0  0  0  0  0  0  0  0  0  0  0
    0.7425    0.6721   -2.9137 H   0  0  0  0  0  0  0  0  0  0  0  0
  2 12  1  0  0  0  0
  2 14  1  0  0  0  0
  3 18  1  0  0  0  0
  4 17  1  0  0  0  0
  5 20  1  0  0  0  0
  6 26  1  0  0  0  0
  7  9  1  0  0  0  0
  8 33  1  0  0  0  0
  9  8  1  0  0  0  0
  9  1  1  0  0  0  0
  9  6  1  0  0  0  0
 10 11  1  0  0  0  0
 10 34  1  0  0  0  0
 10  1  1  0  0  0  0
 11  2  1  0  0  0  0
 12 38  1  0  0  0  0
 13 41  1  0  0  0  0
 13 12  1  0  0  0  0
 13  3  1  0  0  0  0
 14 15  1  0  0  0  0
 15 44  1  0  0  0  0
 15  4  1  0  0  0  0
 15 45  1  0  0  0  0
 16  4  1  0  0  0  0
 16 48  1  0  0  0  0
 16 47  1  0  0  0  0
 17 49  1  0  0  0  0
 17 51  1  0  0  0  0
 17 50  1  0  0  0  0
 18 54  1  0  0  0  0
 18 53  1  0  0  0  0
 18 52  1  0  0  0  0
 19 56  1  0  0  0  0
 19  3  1  0  0  0  0
 19 55  1  0  0  0  0
 20 57  1  6  0  0  0
 20 19  1  0  0  0  0
 21 20  1  0  0  0  0
 21 58  1  0  0  0  0
 22 21  2  0  0  0  0
 23 22  1  0  0  0  0
 23 24  2  0  0  0  0
 24  5  1  0  0  0  0
 25  6  1  0  0  0  0
 27  6  1  0  0  0  0
 28  7  1  0  0  0  0
 29  7  1  0  0  0  0
 30  7  1  0  0  0  0
 31  8  1  0  0  0  0
 32  8  1  0  0  0  0
 35 10  1  0  0  0  0
 36 11  1  0  0  0  0
 37 11  1  0  0  0  0
 39 12  1  0  0  0  0
 40 13  1  0  0  0  0
 42 14  1  0  0  0  0
 43 14  1  0  0  0  0
 46 16  1  0  0  0  0
 59 22  1  0  0  0  0
 60 23  1  0  0  0  0
 61 24  1  0  0  0  0
M  END
