3,4,5,6,7
 OpenBabel05122313063D

 47 49  0  0  1  0  0  0  0  0999 V2000
   -1.5467   -0.8806    3.1136 O   0  0  0  0  0  0  0  0  0  0  0  0
    0.8486   -2.3759   -3.3585 O   0  0  0  0  0  0  0  0  0  0  0  0
    1.5701    1.7818   -0.0155 N   0  0  0  0  0  2  0  0  0  0  0  0
   -0.0138    0.1402    1.6767 N   0  0  0  0  0  2  0  0  0  0  0  0
   -0.3601   -1.4919   -0.1673 N   0  0  0  0  0  2  0  0  0  0  0  0
    1.2768   -0.6218   -1.8726 N   0  0  0  0  0  2  0  0  0  0  0  0
    2.3397   -1.0474    0.5095 N   0  0  0  0  0  2  0  0  0  0  0  0
    1.5695    2.4934   -1.1672 C   0  0  0  0  0  3  0  0  0  0  0  0
    2.0841    3.7876   -1.2460 C   0  0  0  0  0  0  0  0  0  0  0  0
    2.5925    4.3817   -0.0813 C   0  0  0  0  0  0  0  0  0  0  0  0
    2.5277    3.6645    1.1175 C   0  0  0  0  0  0  0  0  0  0  0  0
    1.9969    2.3597    1.1367 C   0  0  0  0  0  0  0  0  0  0  0  0
    1.7985    1.6155    2.4298 C   0  0  0  0  0  0  0  0  0  0  0  0
    0.3369    1.1687    2.6203 C   0  0  0  0  0  0  0  0  0  0  0  0
   -0.9485   -0.7854    2.0281 C   0  0  0  0  0  0  0  0  0  0  0  0
   -1.1598   -1.7425    0.8836 C   0  0  1  0  0  3  0  0  0  0  0  0
   -2.0715   -2.8028    0.8208 C   0  0  0  0  0  0  0  0  0  0  0  0
   -2.1458   -3.5519   -0.3666 C   0  0  0  0  0  0  0  0  0  0  0  0
   -1.3134   -3.2395   -1.4555 C   0  0  0  0  0  0  0  0  0  0  0  0
   -0.4149   -2.1733   -1.3220 C   0  0  0  0  0  0  0  0  0  0  0  0
    0.6186   -1.7317   -2.3240 C   0  0  0  0  0  0  0  0  0  0  0  0
    2.5566   -0.3352   -2.4708 C   0  0  0  0  0  0  0  0  0  0  0  0
    3.6379   -0.1314   -1.3804 C   0  0  0  0  0  0  0  0  0  0  0  0
    3.4937   -1.0745   -0.2201 C   0  0  2  0  0  3  0  0  0  0  0  0
    4.5250   -1.9735    0.1097 C   0  0  0  0  0  0  0  0  0  0  0  0
    4.3888   -2.8466    1.1938 C   0  0  0  0  0  0  0  0  0  0  0  0
    3.2011   -2.8019    1.9349 C   0  0  0  0  0  0  0  0  0  0  0  0
    2.2094   -1.8938    1.5573 C   0  0  0  0  0  0  0  0  0  0  0  0
    1.0945    1.9824   -2.0165 H   0  0  0  0  0  0  0  0  0  0  0  0
    2.0738    4.3190   -2.2080 H   0  0  0  0  0  0  0  0  0  0  0  0
    3.0104    5.3995   -0.1019 H   0  0  0  0  0  0  0  0  0  0  0  0
    2.8710    4.1104    2.0621 H   0  0  0  0  0  0  0  0  0  0  0  0
    2.0983    2.2775    3.2655 H   0  0  0  0  0  0  0  0  0  0  0  0
    2.4587    0.7238    2.4682 H   0  0  0  0  0  0  0  0  0  0  0  0
    0.1855    0.7865    3.6532 H   0  0  0  0  0  0  0  0  0  0  0  0
   -0.3320    2.0550    2.5046 H   0  0  0  0  0  0  0  0  0  0  0  0
   -2.7081   -2.9973    1.6940 H   0  0  0  0  0  0  0  0  0  0  0  0
   -2.8647   -4.3815   -0.4457 H   0  0  0  0  0  0  0  0  0  0  0  0
   -1.3288   -3.7934   -2.4047 H   0  0  0  0  0  0  0  0  0  0  0  0
    2.5382    0.5737   -3.1158 H   0  0  0  0  0  0  0  0  0  0  0  0
    2.8291   -1.1850   -3.1346 H   0  0  0  0  0  0  0  0  0  0  0  0
    4.6444   -0.2518   -1.8262 H   0  0  0  0  0  0  0  0  0  0  0  0
    3.5876    0.9042   -0.9906 H   0  0  0  0  0  0  0  0  0  0  0  0
    5.4375   -1.9739   -0.5035 H   0  0  0  0  0  0  0  0  0  0  0  0
    5.1936   -3.5510    1.4520 H   0  0  0  0  0  0  0  0  0  0  0  0
    3.0291   -3.4622    2.7965 H   0  0  0  0  0  0  0  0  0  0  0  0
    1.2667   -1.8177    2.1154 H   0  0  0  0  0  0  0  0  0  0  0  0
  2 21  2  0  0  0  0
  3 12  1  0  0  0  0
  4 15  1  0  0  0  0
  4 14  1  0  0  0  0
  5 16  1  0  0  0  0
  7 28  1  0  0  0  0
  8  3  1  0  0  0  0
  9  8  1  0  0  0  0
  9 10  2  0  0  0  0
 10 11  1  0  0  0  0
 11 12  2  0  0  0  0
 11 32  1  0  0  0  0
 12 13  1  0  0  0  0
 13 34  1  0  0  0  0
 13 14  1  0  0  0  0
 13 33  1  0  0  0  0
 14 35  1  0  0  0  0
 15  1  2  0  0  0  0
 16 15  1  6  0  0  0
 17 16  1  0  0  0  0
 17 37  1  0  0  0  0
 18 17  2  0  0  0  0
 19 20  2  0  0  0  0
 19 18  1  0  0  0  0
 20  5  1  0  0  0  0
 21  6  1  0  0  0  0
 21 20  1  0  0  0  0
 22  6  1  0  0  0  0
 22 23  1  0  0  0  0
 23 43  1  0  0  0  0
 24 23  1  6  0  0  0
 24 25  1  0  0  0  0
 24  7  1  0  0  0  0
 25 26  2  0  0  0  0
 26 45  1  0  0  0  0
 26 27  1  0  0  0  0
 27 46  1  0  0  0  0
 28 27  2  0  0  0  0
 28 47  1  0  0  0  0
 29  8  1  0  0  0  0
 30  9  1  0  0  0  0
 31 10  1  0  0  0  0
 36 14  1  0  0  0  0
 38 18  1  0  0  0  0
 39 19  1  0  0  0  0
 40 22  1  0  0  0  0
 41 22  1  0  0  0  0
 42 23  1  0  0  0  0
 44 25  1  0  0  0  0
M  END
