1,2,3,4,5
 OpenBabel05122313063D

 55 58  0  0  1  0  0  0  0  0999 V2000
   -0.6297    0.8156    1.9022 N   0  0  0  0  0  2  0  0  0  0  0  0
   -2.5562    0.3213    0.2855 N   0  0  0  0  0  0  0  0  0  0  0  0
   -0.9387   -1.7192    0.5782 N   0  0  0  0  0  2  0  0  0  0  0  0
   -0.9074   -0.1352   -1.9090 N   0  0  0  0  0  0  0  0  0  0  0  0
    0.0424    1.9079   -0.5722 N   0  0  0  0  0  2  0  0  0  0  0  0
    0.3010    0.6838    2.8772 C   0  0  0  0  0  3  0  0  0  0  0  0
    1.1691    0.0614    2.6174 H   0  0  0  0  0  0  0  0  0  0  0  0
    0.1795    1.3479    4.1033 C   0  0  0  0  0  0  0  0  0  0  0  0
    0.9641    1.2217    4.8628 H   0  0  0  0  0  0  0  0  0  0  0  0
   -0.9355    2.1654    4.3391 C   0  0  0  0  0  0  0  0  0  0  0  0
   -1.0524    2.6980    5.2939 H   0  0  0  0  0  0  0  0  0  0  0  0
   -1.9095    2.2865    3.3315 C   0  0  0  0  0  0  0  0  0  0  0  0
   -2.8064    2.9057    3.4797 H   0  0  0  0  0  0  0  0  0  0  0  0
   -1.7278    1.6064    2.1261 C   0  0  0  0  0  0  0  0  0  0  0  0
   -2.6930    1.6347    0.9611 C   0  0  0  0  0  0  0  0  0  0  0  0
   -3.7359    1.8290    1.3006 H   0  0  0  0  0  0  0  0  0  0  0  0
   -2.4171    2.4275    0.2357 H   0  0  0  0  0  0  0  0  0  0  0  0
   -3.0446   -0.7648    1.1947 C   0  0  0  0  0  0  0  0  0  0  0  0
   -4.1294   -0.9498    1.0474 H   0  0  0  0  0  0  0  0  0  0  0  0
   -2.9174   -0.4257    2.2425 H   0  0  0  0  0  0  0  0  0  0  0  0
   -2.2131   -1.9932    0.9825 C   0  0  2  0  0  3  0  0  0  0  0  0
   -2.6592   -3.2948    1.2278 C   0  0  0  0  0  0  0  0  0  0  0  0
   -3.6998   -3.4648    1.5407 H   0  0  0  0  0  0  0  0  0  0  0  0
   -1.7604   -4.3629    1.0798 C   0  0  0  0  0  0  0  0  0  0  0  0
   -2.0824   -5.3967    1.2708 H   0  0  0  0  0  0  0  0  0  0  0  0
   -0.4484   -4.0770    0.6775 C   0  0  0  0  0  0  0  0  0  0  0  0
    0.2956   -4.8744    0.5406 H   0  0  0  0  0  0  0  0  0  0  0  0
   -0.0735   -2.7535    0.4255 C   0  0  0  0  0  0  0  0  0  0  0  0
    0.9313   -2.4996    0.0683 H   0  0  0  0  0  0  0  0  0  0  0  0
   -3.1989    0.1809   -1.0469 C   0  0  0  0  0  0  0  0  0  0  0  0
   -4.1266    0.7897   -1.1127 H   0  0  0  0  0  0  0  0  0  0  0  0
   -3.5055   -0.8797   -1.1456 H   0  0  0  0  0  0  0  0  0  0  0  0
   -2.2412    0.5244   -2.1791 C   0  0  2  0  0  0  0  0  0  0  0  0
   -2.0755    1.6190   -2.2063 H   0  0  0  0  0  0  0  0  0  0  0  0
   -2.7220   -0.0319   -3.5458 C   0  0  0  0  0  0  0  0  0  0  0  0
   -3.7971   -0.2967   -3.4986 H   0  0  0  0  0  0  0  0  0  0  0  0
   -2.6253    0.7270   -4.3446 H   0  0  0  0  0  0  0  0  0  0  0  0
   -1.8275   -1.2727   -3.8222 C   0  0  0  0  0  0  0  0  0  0  0  0
   -1.1346   -1.0787   -4.6641 H   0  0  0  0  0  0  0  0  0  0  0  0
   -2.4148   -2.1685   -4.0991 H   0  0  0  0  0  0  0  0  0  0  0  0
   -1.0527   -1.4920   -2.5136 C   0  0  0  0  0  0  0  0  0  0  0  0
   -1.6356   -2.1199   -1.8132 H   0  0  0  0  0  0  0  0  0  0  0  0
   -0.0507   -1.9483   -2.6166 H   0  0  0  0  0  0  0  0  0  0  0  0
    0.1377    0.6370   -2.6257 C   0  0  0  0  0  0  0  0  0  0  0  0
   -0.1441    0.8443   -3.6806 H   0  0  0  0  0  0  0  0  0  0  0  0
    1.0615    0.0222   -2.6492 H   0  0  0  0  0  0  0  0  0  0  0  0
    0.3977    1.9127   -1.8887 C   0  0  2  0  0  3  0  0  0  0  0  0
    1.0233    3.0082   -2.4948 C   0  0  0  0  0  0  0  0  0  0  0  0
    1.2846    2.9543   -3.5612 H   0  0  0  0  0  0  0  0  0  0  0  0
    1.3384    4.1340   -1.7274 C   0  0  0  0  0  0  0  0  0  0  0  0
    1.8461    4.9988   -2.1781 H   0  0  0  0  0  0  0  0  0  0  0  0
    0.9999    4.1219   -0.3672 C   0  0  0  0  0  0  0  0  0  0  0  0
    1.2339    4.9711    0.2899 H   0  0  0  0  0  0  0  0  0  0  0  0
    0.3596    3.0025    0.1661 C   0  0  0  0  0  0  0  0  0  0  0  0
    0.0988    2.9775    1.2313 H   0  0  0  0  0  0  0  0  0  0  0  0
  1 14  1  0  0  0  0
  1  6  1  0  0  0  0
  2 15  1  0  0  0  0
  2 18  1  0  0  0  0
  3 21  1  0  0  0  0
  5 54  1  0  0  0  0
  6  8  1  0  0  0  0
  7  6  1  0  0  0  0
  8 10  2  0  0  0  0
  8  9  1  0  0  0  0
 10 11  1  0  0  0  0
 12 13  1  0  0  0  0
 12 10  1  0  0  0  0
 14 12  2  0  0  0  0
 15 16  1  0  0  0  0
 15 14  1  0  0  0  0
 17 15  1  0  0  0  0
 18 20  1  0  0  0  0
 19 18  1  0  0  0  0
 21 18  1  1  0  0  0
 21 22  1  0  0  0  0
 22 23  1  0  0  0  0
 24 22  2  0  0  0  0
 24 25  1  0  0  0  0
 26 24  1  0  0  0  0
 27 26  1  0  0  0  0
 28  3  1  0  0  0  0
 28 26  2  0  0  0  0
 29 28  1  0  0  0  0
 30  2  1  0  0  0  0
 31 30  1  0  0  0  0
 32 30  1  0  0  0  0
 33 34  1  6  0  0  0
 33  4  1  0  0  0  0
 33 30  1  0  0  0  0
 35 36  1  0  0  0  0
 35 33  1  0  0  0  0
 37 35  1  0  0  0  0
 38 35  1  0  0  0  0
 38 41  1  0  0  0  0
 39 38  1  0  0  0  0
 40 38  1  0  0  0  0
 41  4  1  0  0  0  0
 41 42  1  0  0  0  0
 43 41  1  0  0  0  0
 44  4  1  0  0  0  0
 45 44  1  0  0  0  0
 46 44  1  0  0  0  0
 47 44  1  1  0  0  0
 47  5  1  0  0  0  0
 48 47  1  0  0  0  0
 48 50  2  0  0  0  0
 49 48  1  0  0  0  0
 50 52  1  0  0  0  0
 51 50  1  0  0  0  0
 52 54  2  0  0  0  0
 52 53  1  0  0  0  0
 54 55  1  0  0  0  0
M  END
