7,8,9,10,11
q = 0.0, confidence = 0.936

 70 74  0  0  1  0  0  0  0  0999 V2000
   -3.2620    0.7743    1.5888 O   0  0  0  0  0  0  0  0  0  0  0  0
   -3.4785    0.6623   -0.7305 O   0  0  0  0  0  0  0  0  0  0  0  0
   -1.4483    3.6884    1.4115 O   0  0  0  0  0  0  0  0  0  0  0  0
   -2.8614    3.2886   -0.3176 O   0  0  0  0  0  0  0  0  0  0  0  0
   -3.5571   -2.6410   -0.6139 O   0  0  0  0  0  0  0  0  0  0  0  0
   -3.8698   -1.8569    1.4853 O   0  0  0  0  0  0  0  0  0  0  0  0
   -0.3697    0.0010   -1.4479 N   0  0  0  0  0  0  0  0  0  0  0  0
    0.0653   -0.2156    1.3904 N   0  0  0  0  0  0  0  0  0  0  0  0
    1.5830    1.5606   -0.5928 N   0  0  0  0  0  2  0  0  0  0  0  0
    0.7934   -2.1909   -0.5808 N   0  0  0  0  0  2  0  0  0  0  0  0
    2.7498   -0.5160    0.9392 N   0  0  0  0  0  2  0  0  0  0  0  0
   -0.7597    1.3947   -1.0674 C   0  0  1  0  0  0  0  0  0  0  0  0
   -1.4081    1.4970    0.3373 C   0  0  2  0  0  0  0  0  0  0  0  0
   -0.4524    1.1681    1.4972 C   0  0  0  0  0  0  0  0  0  0  0  0
   -1.0909   -1.1521    1.4439 C   0  0  0  0  0  0  0  0  0  0  0  0
   -2.0374   -0.9241    0.2628 C   0  0  2  0  0  0  0  0  0  0  0  0
   -1.3096   -1.1145   -1.0989 C   0  0  2  0  0  0  0  0  0  0  0  0
   -2.6238    0.5239    0.3695 C   0  0  0  0  0  0  0  0  0  0  0  0
   -0.1680   -0.0266   -2.9208 C   0  0  0  0  0  0  0  0  0  0  0  0
    0.5026    2.2172   -1.1042 C   0  0  1  0  0  3  0  0  0  0  0  0
    2.7647    2.2209   -0.5433 C   0  0  0  0  0  0  0  0  0  0  0  0
    2.8982    3.5493   -0.9587 C   0  0  0  0  0  0  0  0  0  0  0  0
    1.7864    4.2255   -1.4790 C   0  0  0  0  0  0  0  0  0  0  0  0
    0.5658    3.5355   -1.5586 C   0  0  0  0  0  0  0  0  0  0  0  0
   -1.8854    2.9419    0.5658 C   0  0  0  0  0  0  0  0  0  0  0  0
   -3.3998    4.6219   -0.1613 C   0  0  0  0  0  0  0  0  0  0  0  0
    0.9456   -0.5368    2.5467 C   0  0  0  0  0  0  0  0  0  0  0  0
   -3.2165   -1.9148    0.2932 C   0  0  0  0  0  0  0  0  0  0  0  0
   -5.0183   -2.7297    1.6124 C   0  0  0  0  0  0  0  0  0  0  0  0
   -0.4587   -2.3751   -1.0984 C   0  0  2  0  0  3  0  0  0  0  0  0
    1.6429   -3.2438   -0.5193 C   0  0  0  0  0  0  0  0  0  0  0  0
    1.2710   -4.5217   -0.9457 C   0  0  0  0  0  0  0  0  0  0  0  0
   -0.0082   -4.7172   -1.4851 C   0  0  0  0  0  0  0  0  0  0  0  0
   -0.8835   -3.6215   -1.5669 C   0  0  0  0  0  0  0  0  0  0  0  0
    2.4004   -0.3391    2.2477 C   0  0  1  0  0  3  0  0  0  0  0  0
    4.0799   -0.5802    0.6460 C   0  0  0  0  0  0  0  0  0  0  0  0
    5.0743   -0.4302    1.6163 C   0  0  0  0  0  0  0  0  0  0  0  0
    4.7118   -0.1803    2.9478 C   0  0  0  0  0  0  0  0  0  0  0  0
    3.3449   -0.1414    3.2605 C   0  0  0  0  0  0  0  0  0  0  0  0
   -3.8626    0.0167    1.7691 H   0  0  0  0  0  0  0  0  0  0  0  0
   -3.7366    1.6113   -0.7579 H   0  0  0  0  0  0  0  0  0  0  0  0
   -1.5030    1.7818   -1.7933 H   0  0  0  0  0  0  0  0  0  0  0  0
    0.3959    1.8740    1.5163 H   0  0  0  0  0  0  0  0  0  0  0  0
   -1.0157    1.2949    2.4458 H   0  0  0  0  0  0  0  0  0  0  0  0
   -1.6443   -1.0037    2.3946 H   0  0  0  0  0  0  0  0  0  0  0  0
   -0.7026   -2.1866    1.4285 H   0  0  0  0  0  0  0  0  0  0  0  0
   -2.1049   -1.1888   -1.8660 H   0  0  0  0  0  0  0  0  0  0  0  0
    0.2130   -1.0176   -3.2210 H   0  0  0  0  0  0  0  0  0  0  0  0
    0.5994    0.7137   -3.2040 H   0  0  0  0  0  0  0  0  0  0  0  0
   -1.1311    0.1908   -3.4316 H   0  0  0  0  0  0  0  0  0  0  0  0
    3.6263    1.6565   -0.1637 H   0  0  0  0  0  0  0  0  0  0  0  0
    3.8794    4.0389   -0.8852 H   0  0  0  0  0  0  0  0  0  0  0  0
    1.8683    5.2647   -1.8281 H   0  0  0  0  0  0  0  0  0  0  0  0
   -0.3349    4.0087   -1.9755 H   0  0  0  0  0  0  0  0  0  0  0  0
   -3.8752    4.7264    0.8328 H   0  0  0  0  0  0  0  0  0  0  0  0
   -4.1425    4.7445   -0.9678 H   0  0  0  0  0  0  0  0  0  0  0  0
   -2.5903    5.3710   -0.2528 H   0  0  0  0  0  0  0  0  0  0  0  0
    0.6266    0.0186    3.4547 H   0  0  0  0  0  0  0  0  0  0  0  0
    0.8087   -1.6159    2.7727 H   0  0  0  0  0  0  0  0  0  0  0  0
   -5.4062   -2.5679    2.6323 H   0  0  0  0  0  0  0  0  0  0  0  0
   -5.7798   -2.4722    0.8515 H   0  0  0  0  0  0  0  0  0  0  0  0
   -4.7093   -3.7825    1.4711 H   0  0  0  0  0  0  0  0  0  0  0  0
    2.6478   -3.0304   -0.1302 H   0  0  0  0  0  0  0  0  0  0  0  0
    1.9921   -5.3477   -0.8698 H   0  0  0  0  0  0  0  0  0  0  0  0
   -0.3208   -5.7064   -1.8496 H   0  0  0  0  0  0  0  0  0  0  0  0
   -1.8963   -3.7211   -1.9771 H   0  0  0  0  0  0  0  0  0  0  0  0
    4.3034   -0.7376   -0.4218 H   0  0  0  0  0  0  0  0  0  0  0  0
    6.1291   -0.4968    1.3133 H   0  0  0  0  0  0  0  0  0  0  0  0
    5.4721   -0.0293    3.7275 H   0  0  0  0  0  0  0  0  0  0  0  0
    3.0034    0.0236    4.2930 H   0  0  0  0  0  0  0  0  0  0  0  0
  1 40  1  0  0  0  0
  2 18  1  0  0  0  0
  4 26  1  0  0  0  0
  4 25  1  0  0  0  0
  5 28  2  0  0  0  0
  6 29  1  0  0  0  0
  7 17  1  0  0  0  0
  7 12  1  0  0  0  0
  8 15  1  0  0  0  0
  8 14  1  0  0  0  0
  8 27  1  0  0  0  0
  9 21  1  0  0  0  0
 10 31  1  0  0  0  0
 11 35  1  0  0  0  0
 12 42  1  6  0  0  0
 12 13  1  0  0  0  0
 13 18  1  0  0  0  0
 13 25  1  1  0  0  0
 13 14  1  0  0  0  0
 14 43  1  0  0  0  0
 14 44  1  0  0  0  0
 15 45  1  0  0  0  0
 16 28  1  1  0  0  0
 16 18  1  0  0  0  0
 16 15  1  0  0  0  0
 17 47  1  6  0  0  0
 17 30  1  0  0  0  0
 17 16  1  0  0  0  0
 18  1  1  0  0  0  0
 19  7  1  0  0  0  0
 20 24  1  1  0  0  0
 20 12  1  0  0  0  0
 20  9  1  0  0  0  0
 21 51  1  0  0  0  0
 22 52  1  0  0  0  0
 22 21  2  0  0  0  0
 23 22  1  0  0  0  0
 24 23  2  0  0  0  0
 25  3  2  0  0  0  0
 26 55  1  0  0  0  0
 27 59  1  0  0  0  0
 27 58  1  0  0  0  0
 28  6  1  0  0  0  0
 29 60  1  0  0  0  0
 30 34  1  1  0  0  0
 30 10  1  0  0  0  0
 31 63  1  0  0  0  0
 32 64  1  0  0  0  0
 32 31  2  0  0  0  0
 33 32  1  0  0  0  0
 34 33  2  0  0  0  0
 35 27  1  1  0  0  0
 35 39  1  0  0  0  0
 36 11  1  0  0  0  0
 36 37  2  0  0  0  0
 37 38  1  0  0  0  0
 38 39  2  0  0  0  0
 38 69  1  0  0  0  0
 39 70  1  0  0  0  0
 41  2  1  0  0  0  0
 46 15  1  0  0  0  0
 48 19  1  0  0  0  0
 49 19  1  0  0  0  0
 50 19  1  0  0  0  0
 53 23  1  0  0  0  0
 54 24  1  0  0  0  0
 56 26  1  0  0  0  0
 57 26  1  0  0  0  0
 61 29  1  0  0  0  0
 62 29  1  0  0  0  0
 65 33  1  0  0  0  0
 66 34  1  0  0  0  0
 67 36  1  0  0  0  0
 68 37  1  0  0  0  0
M  END
