1,2,3,4,5
 OpenBabel05122313063D

 40 40  0  0  0  0  0  0  0  0999 V2000
   -0.8526    0.5601    1.3599 N   0  0  0  0  0  0  0  0  0  0  0  0
    1.0247   -1.5575    1.7039 N   0  0  0  0  0  0  0  0  0  0  0  0
    2.6164   -1.4027   -0.6325 N   0  0  0  0  0  0  0  0  0  0  0  0
    2.0554    1.2234   -1.5677 N   0  0  0  0  0  0  0  0  0  0  0  0
    1.7121    1.8122    1.1845 N   0  0  0  0  0  0  0  0  0  0  0  0
   -1.0667   -0.4799    2.3810 C   0  0  0  0  0  0  0  0  0  0  0  0
   -2.1486   -0.6549    2.5652 H   0  0  0  0  0  0  0  0  0  0  0  0
   -0.6371   -0.1290    3.3449 H   0  0  0  0  0  0  0  0  0  0  0  0
   -0.4010   -1.7945    1.9815 C   0  0  0  0  0  0  0  0  0  0  0  0
   -0.5636   -2.5584    2.7753 H   0  0  0  0  0  0  0  0  0  0  0  0
   -0.8559   -2.1723    1.0415 H   0  0  0  0  0  0  0  0  0  0  0  0
    1.7710   -2.7252    1.2096 C   0  0  0  0  0  0  0  0  0  0  0  0
    1.1082   -3.2596    0.4965 H   0  0  0  0  0  0  0  0  0  0  0  0
    2.0279   -3.4434    2.0190 H   0  0  0  0  0  0  0  0  0  0  0  0
    3.0300   -2.2679    0.4703 C   0  0  0  0  0  0  0  0  0  0  0  0
    3.6903   -1.6835    1.1489 H   0  0  0  0  0  0  0  0  0  0  0  0
    3.6185   -3.1541    0.1394 H   0  0  0  0  0  0  0  0  0  0  0  0
    3.6386   -0.6658   -1.3715 C   0  0  0  0  0  0  0  0  0  0  0  0
    4.3205   -1.3250   -1.9565 H   0  0  0  0  0  0  0  0  0  0  0  0
    4.2768   -0.1257   -0.6380 H   0  0  0  0  0  0  0  0  0  0  0  0
    2.9408    0.3195   -2.3148 C   0  0  0  0  0  0  0  0  0  0  0  0
    3.6954    0.8679   -2.9220 H   0  0  0  0  0  0  0  0  0  0  0  0
    2.3034   -0.2497   -3.0232 H   0  0  0  0  0  0  0  0  0  0  0  0
    2.6843    2.4110   -0.9922 C   0  0  0  0  0  0  0  0  0  0  0  0
    2.8182    3.2383   -1.7255 H   0  0  0  0  0  0  0  0  0  0  0  0
    3.7043    2.1349   -0.6475 H   0  0  0  0  0  0  0  0  0  0  0  0
    1.8674    2.8987    0.2004 C   0  0  0  0  0  0  0  0  0  0  0  0
    2.3364    3.8036    0.6486 H   0  0  0  0  0  0  0  0  0  0  0  0
    0.8551    3.2005   -0.1415 H   0  0  0  0  0  0  0  0  0  0  0  0
    0.7914    2.1316    2.2904 C   0  0  0  0  0  0  0  0  0  0  0  0
    0.9312    3.1714    2.6628 H   0  0  0  0  0  0  0  0  0  0  0  0
    1.0343    1.4578    3.1381 H   0  0  0  0  0  0  0  0  0  0  0  0
   -0.6665    1.9168    1.8710 C   0  0  0  0  0  0  0  0  0  0  0  0
   -1.3324    2.1535    2.7322 H   0  0  0  0  0  0  0  0  0  0  0  0
   -0.9432    2.6251    1.0631 H   0  0  0  0  0  0  0  0  0  0  0  0
   -1.6224    0.5389    0.6710 H   0  0  0  0  0  0  0  0  0  0  0  0
    1.4815   -1.2035    2.5571 H   0  0  0  0  0  0  0  0  0  0  0  0
    2.0457   -1.9550   -1.2931 H   0  0  0  0  0  0  0  0  0  0  0  0
    1.2420    1.4644   -2.1492 H   0  0  0  0  0  0  0  0  0  0  0  0
    2.6397    1.5969    1.5736 H   0  0  0  0  0  0  0  0  0  0  0  0
  1 33  1  0  0  0  0
  1  6  1  0  0  0  0
  2  9  1  0  0  0  0
  2 37  1  0  0  0  0
  3 15  1  0  0  0  0
  4 24  1  0  0  0  0
  5 40  1  0  0  0  0
  5 30  1  0  0  0  0
  6  7  1  0  0  0  0
  6  8  1  0  0  0  0
  9  6  1  0  0  0  0
  9 10  1  0  0  0  0
 11  9  1  0  0  0  0
 12  2  1  0  0  0  0
 12 14  1  0  0  0  0
 13 12  1  0  0  0  0
 15 16  1  0  0  0  0
 15 12  1  0  0  0  0
 17 15  1  0  0  0  0
 18 20  1  0  0  0  0
 18  3  1  0  0  0  0
 19 18  1  0  0  0  0
 21  4  1  0  0  0  0
 21 18  1  0  0  0  0
 22 21  1  0  0  0  0
 23 21  1  0  0  0  0
 24 26  1  0  0  0  0
 24 27  1  0  0  0  0
 25 24  1  0  0  0  0
 27 28  1  0  0  0  0
 27  5  1  0  0  0  0
 29 27  1  0  0  0  0
 30 31  1  0  0  0  0
 30 32  1  0  0  0  0
 33 30  1  0  0  0  0
 33 34  1  0  0  0  0
 35 33  1  0  0  0  0
 36  1  1  0  0  0  0
 38  3  1  0  0  0  0
 39  4  1  0  0  0  0
M  END
