1,2,3,4,5
 OpenBabel05122313063D

 57 59  0  0  1  0  0  0  0  0999 V2000
   -1.7738    0.2504   -0.2002 N   0  0  0  0  0  2  0  0  0  0  0  0
   -0.3772   -1.9720    0.2369 N   0  0  0  0  0  0  0  0  0  0  0  0
    2.2070   -0.3493   -0.2615 N   0  0  2  0  0  0  0  0  0  0  0  0
    0.7581    2.0346   -0.7492 N   0  0  0  0  0  0  0  0  0  0  0  0
    0.3509    0.2201    1.7974 N   0  0  1  0  0  0  0  0  0  0  0  0
   -2.4869    1.4067   -0.1007 C   0  0  0  0  0  3  0  0  0  0  0  0
   -1.9092    2.3338   -0.0550 H   0  0  0  0  0  0  0  0  0  0  0  0
   -3.8810    1.4667   -0.0551 C   0  0  0  0  0  0  0  0  0  0  0  0
   -4.3711    2.4479    0.0187 H   0  0  0  0  0  0  0  0  0  0  0  0
   -4.6235    0.2786   -0.1011 C   0  0  0  0  0  0  0  0  0  0  0  0
   -5.7218    0.2875   -0.0628 H   0  0  0  0  0  0  0  0  0  0  0  0
   -3.9105   -0.9246   -0.1961 C   0  0  0  0  0  0  0  0  0  0  0  0
   -4.4321   -1.8921   -0.2347 H   0  0  0  0  0  0  0  0  0  0  0  0
   -2.5136   -0.9057   -0.2531 C   0  0  0  0  0  0  0  0  0  0  0  0
   -1.6970   -2.1381   -0.4317 C   0  0  0  0  0  0  0  0  0  0  0  0
   -2.2240   -3.0484   -0.0700 H   0  0  0  0  0  0  0  0  0  0  0  0
   -1.4853   -2.2469   -1.5162 H   0  0  0  0  0  0  0  0  0  0  0  0
    0.5153   -3.0549   -0.2716 C   0  0  0  0  0  0  0  0  0  0  0  0
    0.3927   -3.0594   -1.3714 H   0  0  0  0  0  0  0  0  0  0  0  0
    0.1483   -4.0306    0.1206 H   0  0  0  0  0  0  0  0  0  0  0  0
    1.9925   -2.8723    0.0449 C   0  0  0  0  0  0  0  0  0  0  0  0
    2.1916   -2.8244    1.1368 H   0  0  0  0  0  0  0  0  0  0  0  0
    2.5094   -3.7942   -0.2923 H   0  0  0  0  0  0  0  0  0  0  0  0
    2.6264   -1.7095   -0.7044 C   0  0  0  0  0  0  0  0  0  0  0  0
    3.7367   -1.7708   -0.6383 H   0  0  0  0  0  0  0  0  0  0  0  0
    2.3399   -1.7828   -1.7714 H   0  0  0  0  0  0  0  0  0  0  0  0
    2.7329    0.6091   -1.2774 C   0  0  0  0  0  0  0  0  0  0  0  0
    2.3539    0.2596   -2.2565 H   0  0  0  0  0  0  0  0  0  0  0  0
    3.8470    0.5908   -1.2966 H   0  0  0  0  0  0  0  0  0  0  0  0
    2.2379    2.0066   -0.9924 C   0  0  0  0  0  0  0  0  0  0  0  0
    2.7497    2.4317   -0.1077 H   0  0  0  0  0  0  0  0  0  0  0  0
    2.4995    2.6781   -1.8373 H   0  0  0  0  0  0  0  0  0  0  0  0
    0.0978    2.4653   -2.0119 C   0  0  0  0  0  0  0  0  0  0  0  0
    0.4007    3.5053   -2.2673 H   0  0  0  0  0  0  0  0  0  0  0  0
   -1.0002    2.4233   -1.9075 H   0  0  0  0  0  0  0  0  0  0  0  0
    0.3720    1.7726   -2.8251 H   0  0  0  0  0  0  0  0  0  0  0  0
    0.5029    3.0876    0.2761 C   0  0  0  0  0  0  0  0  0  0  0  0
   -0.5651    3.3704    0.2263 H   0  0  0  0  0  0  0  0  0  0  0  0
    1.0580    4.0090   -0.0150 H   0  0  0  0  0  0  0  0  0  0  0  0
    0.8501    2.7204    1.7147 C   0  0  0  0  0  0  0  0  0  0  0  0
    0.6452    3.6200    2.3310 H   0  0  0  0  0  0  0  0  0  0  0  0
    1.9378    2.5422    1.8398 H   0  0  0  0  0  0  0  0  0  0  0  0
    0.0373    1.5795    2.3144 C   0  0  0  0  0  0  0  0  0  0  0  0
    0.1692    1.5742    3.4213 H   0  0  0  0  0  0  0  0  0  0  0  0
   -1.0401    1.7553    2.1250 H   0  0  0  0  0  0  0  0  0  0  0  0
    1.7285   -0.2170    2.1963 C   0  0  0  0  0  0  0  0  0  0  0  0
    2.0501    0.3190    3.1159 H   0  0  0  0  0  0  0  0  0  0  0  0
    1.6808   -1.2847    2.4690 H   0  0  0  0  0  0  0  0  0  0  0  0
    2.7543   -0.0223    1.0891 C   0  0  0  0  0  0  0  0  0  0  0  0
    3.6551   -0.6377    1.3033 H   0  0  0  0  0  0  0  0  0  0  0  0
    3.1006    1.0246    1.0820 H   0  0  0  0  0  0  0  0  0  0  0  0
   -0.6456   -0.7259    2.3807 C   0  0  0  0  0  0  0  0  0  0  0  0
   -1.6497   -0.2943    2.2203 H   0  0  0  0  0  0  0  0  0  0  0  0
   -0.5021   -0.8195    3.4819 H   0  0  0  0  0  0  0  0  0  0  0  0
   -0.5275   -2.0894    1.7210 C   0  0  0  0  0  0  0  0  0  0  0  0
    0.3498   -2.6358    2.1153 H   0  0  0  0  0  0  0  0  0  0  0  0
   -1.4119   -2.7104    1.9772 H   0  0  0  0  0  0  0  0  0  0  0  0
  1  6  1  0  0  0  0
  2 55  1  0  0  0  0
  3 27  1  6  0  0  0
  3 49  1  0  0  0  0
  4 37  1  0  0  0  0
  5 46  1  1  0  0  0
  5 43  1  0  0  0  0
  5 52  1  0  0  0  0
  6  8  1  0  0  0  0
  6  7  1  0  0  0  0
  8  9  1  0  0  0  0
 10 11  1  0  0  0  0
 10  8  2  0  0  0  0
 12 10  1  0  0  0  0
 13 12  1  0  0  0  0
 14  1  1  0  0  0  0
 14 12  2  0  0  0  0
 15 14  1  0  0  0  0
 15 16  1  0  0  0  0
 15  2  1  0  0  0  0
 17 15  1  0  0  0  0
 18 21  1  0  0  0  0
 18 20  1  0  0  0  0
 18  2  1  0  0  0  0
 19 18  1  0  0  0  0
 21 22  1  0  0  0  0
 23 21  1  0  0  0  0
 24 25  1  0  0  0  0
 24  3  1  0  0  0  0
 24 21  1  0  0  0  0
 26 24  1  0  0  0  0
 27 30  1  0  0  0  0
 28 27  1  0  0  0  0
 29 27  1  0  0  0  0
 30  4  1  0  0  0  0
 30 31  1  0  0  0  0
 32 30  1  0  0  0  0
 33 35  1  0  0  0  0
 33  4  1  0  0  0  0
 34 33  1  0  0  0  0
 36 33  1  0  0  0  0
 37 40  1  0  0  0  0
 38 37  1  0  0  0  0
 39 37  1  0  0  0  0
 40 42  1  0  0  0  0
 40 43  1  0  0  0  0
 40 41  1  0  0  0  0
 43 44  1  0  0  0  0
 45 43  1  0  0  0  0
 46 48  1  0  0  0  0
 46 47  1  0  0  0  0
 49 50  1  0  0  0  0
 49 46  1  0  0  0  0
 51 49  1  0  0  0  0
 52 54  1  0  0  0  0
 53 52  1  0  0  0  0
 55 57  1  0  0  0  0
 55 56  1  0  0  0  0
 55 52  1  0  0  0  0
M  END
