9,10,11,12,13
 OpenBabel05122313063D

 73 77  0  0  1  0  0  0  0  0999 V2000
    3.9651   -1.6886    1.3995 O   0  0  0  0  0  0  0  0  0  0  0  0
    3.7111   -2.4160   -0.7273 O   0  0  0  0  0  0  0  0  0  0  0  0
    1.2541    3.7193    1.4942 O   0  0  0  0  0  0  0  0  0  0  0  0
    2.7148    3.4601   -0.2219 O   0  0  0  0  0  0  0  0  0  0  0  0
    3.4760    0.8868   -0.7275 O   0  0  0  0  0  0  0  0  0  0  0  0
    3.6879    1.8473   -0.7133 H   0  0  0  0  0  0  0  0  0  0  0  0
    3.2237    0.9014    1.5902 O   0  0  0  0  0  0  0  0  0  0  0  0
    3.8600    0.1690    1.7510 H   0  0  0  0  0  0  0  0  0  0  0  0
   -1.6172    1.5394   -0.6390 N   0  0  0  0  0  2  0  0  0  0  0  0
   -0.6583   -2.1750   -0.7389 N   0  0  0  0  0  2  0  0  0  0  0  0
    0.4125    0.0934   -1.5137 N   0  0  0  0  0  0  0  0  0  0  0  0
   -2.7151   -0.5943    0.8103 N   0  0  0  0  0  2  0  0  0  0  0  0
   -0.0508   -0.2592    1.3262 N   0  0  0  0  0  0  0  0  0  0  0  0
    2.1007   -0.8033    0.1869 C   0  0  2  0  0  0  0  0  0  0  0  0
    1.3999   -0.9861   -1.1890 C   0  0  1  0  0  0  0  0  0  0  0  0
    2.2061   -0.9988   -1.9482 H   0  0  0  0  0  0  0  0  0  0  0  0
    0.7340    1.4886   -1.0814 C   0  0  2  0  0  0  0  0  0  0  0  0
    1.4739    1.9312   -1.7784 H   0  0  0  0  0  0  0  0  0  0  0  0
    1.3492    1.5702    0.3389 C   0  0  1  0  0  0  0  0  0  0  0  0
    0.3975    1.1467    1.4722 C   0  0  0  0  0  0  0  0  0  0  0  0
    0.9440    1.2756    2.4304 H   0  0  0  0  0  0  0  0  0  0  0  0
   -0.4861    1.8078    1.5044 H   0  0  0  0  0  0  0  0  0  0  0  0
    1.1575   -1.1271    1.3487 C   0  0  0  0  0  0  0  0  0  0  0  0
    0.8473   -2.1814    1.2787 H   0  0  0  0  0  0  0  0  0  0  0  0
    1.7016   -0.9866    2.3053 H   0  0  0  0  0  0  0  0  0  0  0  0
    2.6144    0.6640    0.3534 C   0  0  0  0  0  0  0  0  0  0  0  0
    3.3263   -1.7371    0.1989 C   0  0  0  0  0  0  0  0  0  0  0  0
    5.1532   -2.5088    1.5097 C   0  0  0  0  0  0  0  0  0  0  0  0
    4.8969   -3.5700    1.3308 H   0  0  0  0  0  0  0  0  0  0  0  0
    5.5242   -2.3626    2.5382 H   0  0  0  0  0  0  0  0  0  0  0  0
    5.9080   -2.1900    0.7655 H   0  0  0  0  0  0  0  0  0  0  0  0
    1.7440    3.0290    0.6298 C   0  0  0  0  0  0  0  0  0  0  0  0
    3.1770    4.8135   -0.0066 C   0  0  0  0  0  0  0  0  0  0  0  0
    2.3302    5.5212   -0.0885 H   0  0  0  0  0  0  0  0  0  0  0  0
    3.9276    5.0052   -0.7920 H   0  0  0  0  0  0  0  0  0  0  0  0
    3.6266    4.9066    1.0006 H   0  0  0  0  0  0  0  0  0  0  0  0
   -0.5605    2.2565   -1.1160 C   0  0  2  0  0  3  0  0  0  0  0  0
   -0.6731    3.5830   -1.5359 C   0  0  0  0  0  0  0  0  0  0  0  0
    0.2129    4.1046   -1.9257 H   0  0  0  0  0  0  0  0  0  0  0  0
   -1.9228    4.2183   -1.4565 C   0  0  0  0  0  0  0  0  0  0  0  0
   -2.0446    5.2623   -1.7787 H   0  0  0  0  0  0  0  0  0  0  0  0
   -3.0110    3.4808   -0.9715 C   0  0  0  0  0  0  0  0  0  0  0  0
   -4.0137    3.9252   -0.8995 H   0  0  0  0  0  0  0  0  0  0  0  0
   -2.8262    2.1483   -0.5900 C   0  0  0  0  0  0  0  0  0  0  0  0
   -3.6693    1.5394   -0.2398 H   0  0  0  0  0  0  0  0  0  0  0  0
    0.6093   -2.2850   -1.2397 C   0  0  1  0  0  3  0  0  0  0  0  0
    1.0978   -3.4950   -1.7406 C   0  0  0  0  0  0  0  0  0  0  0  0
    2.1208   -3.5350   -2.1356 H   0  0  0  0  0  0  0  0  0  0  0  0
    0.2720   -4.6311   -1.7112 C   0  0  0  0  0  0  0  0  0  0  0  0
    0.6355   -5.5925   -2.1019 H   0  0  0  0  0  0  0  0  0  0  0  0
   -1.0246   -4.5109   -1.1914 C   0  0  0  0  0  0  0  0  0  0  0  0
   -1.7094   -5.3701   -1.1583 H   0  0  0  0  0  0  0  0  0  0  0  0
   -1.4610   -3.2662   -0.7296 C   0  0  0  0  0  0  0  0  0  0  0  0
   -2.4820   -3.1092   -0.3555 H   0  0  0  0  0  0  0  0  0  0  0  0
   -0.9592   -0.6043    2.4872 C   0  0  2  0  0  0  0  0  0  0  0  0
   -0.6680    0.0385    3.3473 H   0  0  0  0  0  0  0  0  0  0  0  0
   -0.8849   -2.0707    2.9509 C   0  0  0  0  0  0  0  0  0  0  0  0
   -1.1348   -2.7653    2.1252 H   0  0  0  0  0  0  0  0  0  0  0  0
   -1.6386   -2.2175    3.7468 H   0  0  0  0  0  0  0  0  0  0  0  0
    0.0996   -2.3387    3.3763 H   0  0  0  0  0  0  0  0  0  0  0  0
   -2.3958   -0.3389    2.1130 C   0  0  2  0  0  3  0  0  0  0  0  0
   -3.3662   -0.0510    3.0794 C   0  0  0  0  0  0  0  0  0  0  0  0
   -3.0503    0.1857    4.1064 H   0  0  0  0  0  0  0  0  0  0  0  0
   -4.7249   -0.1042    2.7348 C   0  0  0  0  0  0  0  0  0  0  0  0
   -5.5036    0.1172    3.4789 H   0  0  0  0  0  0  0  0  0  0  0  0
   -5.0556   -0.4702    1.4219 C   0  0  0  0  0  0  0  0  0  0  0  0
   -6.1026   -0.5658    1.1003 H   0  0  0  0  0  0  0  0  0  0  0  0
   -4.0371   -0.6910    0.4906 C   0  0  0  0  0  0  0  0  0  0  0  0
   -4.2346   -0.9126   -0.5707 H   0  0  0  0  0  0  0  0  0  0  0  0
    0.2287    0.1053   -2.9890 C   0  0  0  0  0  0  0  0  0  0  0  0
    1.1860    0.3853   -3.4799 H   0  0  0  0  0  0  0  0  0  0  0  0
   -0.5704    0.8168   -3.2580 H   0  0  0  0  0  0  0  0  0  0  0  0
   -0.1003   -0.8925   -3.3258 H   0  0  0  0  0  0  0  0  0  0  0  0
  1 28  1  0  0  0  0
  2 27  2  0  0  0  0
  4 33  1  0  0  0  0
  4 32  1  0  0  0  0
  5  6  1  0  0  0  0
  5 26  1  0  0  0  0
  7  8  1  0  0  0  0
  9 44  1  0  0  0  0
 10 53  1  0  0  0  0
 11 15  1  0  0  0  0
 11 17  1  0  0  0  0
 12 61  1  0  0  0  0
 13 23  1  0  0  0  0
 13 20  1  0  0  0  0
 13 55  1  0  0  0  0
 14 27  1  1  0  0  0
 14 26  1  0  0  0  0
 14 23  1  0  0  0  0
 15 16  1  6  0  0  0
 15 14  1  0  0  0  0
 17 18  1  6  0  0  0
 17 19  1  0  0  0  0
 19 26  1  0  0  0  0
 19 32  1  1  0  0  0
 19 20  1  0  0  0  0
 20 22  1  0  0  0  0
 20 21  1  0  0  0  0
 23 25  1  0  0  0  0
 24 23  1  0  0  0  0
 26  7  1  0  0  0  0
 27  1  1  0  0  0  0
 28 30  1  0  0  0  0
 29 28  1  0  0  0  0
 31 28  1  0  0  0  0
 32  3  2  0  0  0  0
 33 36  1  0  0  0  0
 34 33  1  0  0  0  0
 35 33  1  0  0  0  0
 37 38  1  1  0  0  0
 37 17  1  0  0  0  0
 37  9  1  0  0  0  0
 38 40  2  0  0  0  0
 39 38  1  0  0  0  0
 40 42  1  0  0  0  0
 41 40  1  0  0  0  0
 42 43  1  0  0  0  0
 42 44  2  0  0  0  0
 44 45  1  0  0  0  0
 46 47  1  1  0  0  0
 46 15  1  0  0  0  0
 46 10  1  0  0  0  0
 47 49  2  0  0  0  0
 48 47  1  0  0  0  0
 49 51  1  0  0  0  0
 50 49  1  0  0  0  0
 51 52  1  0  0  0  0
 51 53  2  0  0  0  0
 53 54  1  0  0  0  0
 55 57  1  0  0  0  0
 55 56  1  1  0  0  0
 57 60  1  0  0  0  0
 57 59  1  0  0  0  0
 58 57  1  0  0  0  0
 61 55  1  1  0  0  0
 61 62  1  0  0  0  0
 62 63  1  0  0  0  0
 64 62  2  0  0  0  0
 64 65  1  0  0  0  0
 66 64  1  0  0  0  0
 67 66  1  0  0  0  0
 68 12  1  0  0  0  0
 68 66  2  0  0  0  0
 69 68  1  0  0  0  0
 70 11  1  0  0  0  0
 71 70  1  0  0  0  0
 72 70  1  0  0  0  0
 73 70  1  0  0  0  0
M  END
