1,2,4,9,12
 OpenBabel05122313063D

 62 66  0  0  1  0  0  0  0  0999 V2000
   -1.3139    0.3232    0.1276 N   0  0  0  0  0  0  0  0  0  0  0  0
    1.0407    1.7079    0.2122 N   0  0  0  0  0  2  0  0  0  0  0  0
   -1.3895   -2.0964   -0.0642 C   0  0  1  0  0  3  0  0  0  0  0  0
    0.5518   -0.7286    1.7181 N   0  0  0  0  0  2  0  0  0  0  0  0
    2.2471    2.2595   -0.0755 C   0  0  0  0  0  0  0  0  0  0  0  0
   -4.0543    2.2062   -0.7606 C   0  0  0  0  0  0  0  0  0  0  0  0
   -3.3394    3.0174   -0.9747 H   0  0  0  0  0  0  0  0  0  0  0  0
    3.2557    1.2407   -0.4008 C   0  0  0  0  0  0  0  0  0  0  0  0
    2.7981   -0.0692   -0.3650 N   0  0  0  0  0  2  0  0  0  0  0  0
    4.5984    1.5487   -0.6578 C   0  0  0  0  0  0  0  0  0  0  0  0
    4.9205    2.5981   -0.6909 H   0  0  0  0  0  0  0  0  0  0  0  0
   -0.1955   -1.9860   -0.7232 N   0  0  0  0  0  2  0  0  0  0  0  0
   -0.7363   -3.9749   -1.9696 C   0  0  0  0  0  0  0  0  0  0  0  0
   -0.4517   -4.6851   -2.7586 H   0  0  0  0  0  0  0  0  0  0  0  0
   -0.7326   -1.0586    2.0611 C   0  0  1  0  0  3  0  0  0  0  0  0
   -1.2486    1.5778    0.9659 C   0  0  0  0  0  0  0  0  0  0  0  0
   -2.1936    2.1498    0.8891 H   0  0  0  0  0  0  0  0  0  0  0  0
   -1.1500    1.2775    2.0289 H   0  0  0  0  0  0  0  0  0  0  0  0
   -1.6784   -0.9430    0.8894 C   0  0  1  0  0  0  0  0  0  0  0  0
   -2.7366   -0.9596    1.2237 H   0  0  0  0  0  0  0  0  0  0  0  0
   -3.6168    0.8650   -0.8144 C   0  0  0  0  0  0  0  0  0  0  0  0
   -0.0423    2.4286    0.6072 C   0  0  0  0  0  0  0  0  0  0  0  0
   -0.0772   -1.5349    4.3333 C   0  0  0  0  0  0  0  0  0  0  0  0
   -0.3191   -1.8532    5.3572 H   0  0  0  0  0  0  0  0  0  0  0  0
    3.2155   -2.4938   -0.4082 C   0  0  0  0  0  0  0  0  0  0  0  0
    3.9865   -3.1360    0.0588 H   0  0  0  0  0  0  0  0  0  0  0  0
    2.2788   -2.5473    0.1764 H   0  0  0  0  0  0  0  0  0  0  0  0
    3.0123   -2.9123   -1.4149 H   0  0  0  0  0  0  0  0  0  0  0  0
   -2.1706    0.5409   -1.0972 C   0  0  0  0  0  0  0  0  0  0  0  0
   -2.0729   -0.3673   -1.7198 H   0  0  0  0  0  0  0  0  0  0  0  0
   -1.6689    1.3486   -1.6639 H   0  0  0  0  0  0  0  0  0  0  0  0
    1.2958    4.4298    0.3995 C   0  0  0  0  0  0  0  0  0  0  0  0
    1.3914    5.5232    0.4624 H   0  0  0  0  0  0  0  0  0  0  0  0
    3.6985   -1.0784   -0.5150 C   0  0  0  0  0  0  0  0  0  0  0  0
   -1.9226   -4.1368   -1.2382 C   0  0  0  0  0  0  0  0  0  0  0  0
   -2.5916   -4.9877   -1.4321 H   0  0  0  0  0  0  0  0  0  0  0  0
   -6.3190    1.4866   -0.2489 C   0  0  0  0  0  0  0  0  0  0  0  0
   -7.3699    1.7278   -0.0307 H   0  0  0  0  0  0  0  0  0  0  0  0
   -2.2594   -3.1703   -0.2781 C   0  0  0  0  0  0  0  0  0  0  0  0
   -3.2007   -3.2330    0.2869 H   0  0  0  0  0  0  0  0  0  0  0  0
    0.0591    3.8165    0.7024 C   0  0  0  0  0  0  0  0  0  0  0  0
   -0.8091    4.4182    1.0065 H   0  0  0  0  0  0  0  0  0  0  0  0
    0.0979   -2.8885   -1.6870 C   0  0  0  0  0  0  0  0  0  0  0  0
    1.0241   -2.7037   -2.2470 H   0  0  0  0  0  0  0  0  0  0  0  0
    2.3979    3.6564    0.0170 C   0  0  0  0  0  0  0  0  0  0  0  0
    3.3591    4.1339   -0.2166 H   0  0  0  0  0  0  0  0  0  0  0  0
   -5.9051    0.1472   -0.3261 C   0  0  0  0  0  0  0  0  0  0  0  0
   -6.6344   -0.6636   -0.1792 H   0  0  0  0  0  0  0  0  0  0  0  0
    1.2356   -1.1757    3.9828 C   0  0  0  0  0  0  0  0  0  0  0  0
    2.0491   -1.2068    4.7213 H   0  0  0  0  0  0  0  0  0  0  0  0
    1.5153   -0.7730    2.6750 C   0  0  0  0  0  0  0  0  0  0  0  0
    2.5256   -0.4825    2.3521 H   0  0  0  0  0  0  0  0  0  0  0  0
   -4.5664   -0.1592   -0.6110 C   0  0  0  0  0  0  0  0  0  0  0  0
   -4.2581   -1.2114   -0.7122 H   0  0  0  0  0  0  0  0  0  0  0  0
   -1.0785   -1.4672    3.3506 C   0  0  0  0  0  0  0  0  0  0  0  0
   -2.1237   -1.7193    3.5814 H   0  0  0  0  0  0  0  0  0  0  0  0
   -5.3926    2.5163   -0.4762 C   0  0  0  0  0  0  0  0  0  0  0  0
   -5.7176    3.5671   -0.4463 H   0  0  0  0  0  0  0  0  0  0  0  0
    5.0568   -0.8073   -0.7687 C   0  0  0  0  0  0  0  0  0  0  0  0
    5.7490   -1.6515   -0.8979 H   0  0  0  0  0  0  0  0  0  0  0  0
    5.5131    0.5114   -0.8611 C   0  0  0  0  0  0  0  0  0  0  0  0
    6.5697    0.7284   -1.0733 H   0  0  0  0  0  0  0  0  0  0  0  0
  1 19  1  0  0  0  0
  1 16  1  0  0  0  0
  2 22  1  0  0  0  0
  3 19  1  6  0  0  0
  4 15  1  0  0  0  0
  4 51  1  0  0  0  0
  5 45  1  0  0  0  0
  5  2  1  0  0  0  0
  6 57  1  0  0  0  0
  7  6  1  0  0  0  0
  8  9  1  0  0  0  0
  8  5  2  0  0  0  0
 10  8  1  0  0  0  0
 11 10  1  0  0  0  0
 12  3  1  0  0  0  0
 13 43  2  0  0  0  0
 13 35  1  0  0  0  0
 14 13  1  0  0  0  0
 15 19  1  6  0  0  0
 15 55  1  0  0  0  0
 16 18  1  0  0  0  0
 17 16  1  0  0  0  0
 19 20  1  1  0  0  0
 21  6  2  0  0  0  0
 21 53  1  0  0  0  0
 22 41  2  0  0  0  0
 22 16  1  0  0  0  0
 23 24  1  0  0  0  0
 25 26  1  0  0  0  0
 25 27  1  0  0  0  0
 28 25  1  0  0  0  0
 29 21  1  0  0  0  0
 29  1  1  0  0  0  0
 30 29  1  0  0  0  0
 31 29  1  0  0  0  0
 32 33  1  0  0  0  0
 32 41  1  0  0  0  0
 34 25  1  0  0  0  0
 34  9  1  0  0  0  0
 35 39  2  0  0  0  0
 36 35  1  0  0  0  0
 37 38  1  0  0  0  0
 39  3  1  0  0  0  0
 39 40  1  0  0  0  0
 41 42  1  0  0  0  0
 43 12  1  0  0  0  0
 44 43  1  0  0  0  0
 45 32  2  0  0  0  0
 46 45  1  0  0  0  0
 47 37  1  0  0  0  0
 47 48  1  0  0  0  0
 49 23  1  0  0  0  0
 49 50  1  0  0  0  0
 51 49  2  0  0  0  0
 52 51  1  0  0  0  0
 53 47  2  0  0  0  0
 54 53  1  0  0  0  0
 55 56  1  0  0  0  0
 55 23  2  0  0  0  0
 57 58  1  0  0  0  0
 57 37  2  0  0  0  0
 59 34  2  0  0  0  0
 60 59  1  0  0  0  0
 61 59  1  0  0  0  0
 61 10  2  0  0  0  0
 62 61  1  0  0  0  0
M  END
