5,6,7,8,9
 OpenBabel05122313063D

 55 59  0  0  1  0  0  0  0  0999 V2000
   -3.5397   -0.1580    2.0784 O   0  0  0  0  0  0  0  0  0  0  0  0
   -3.5116    0.5921    2.7028 H   0  0  0  0  0  0  0  0  0  0  0  0
    3.5542   -0.1606    2.0545 O   0  0  0  0  0  0  0  0  0  0  0  0
    4.3648   -0.1207    1.5108 H   0  0  0  0  0  0  0  0  0  0  0  0
   -1.4409    1.4141   -0.4874 N   0  0  0  0  0  2  0  0  0  0  0  0
   -1.4896   -1.2678   -0.6833 N   0  0  0  0  0  2  0  0  0  0  0  0
    0.0335   -0.0846    1.3292 N   0  0  0  0  0  2  0  0  0  0  0  0
    1.4718   -1.2690   -0.7540 N   0  0  0  0  0  2  0  0  0  0  0  0
    1.5008    1.3678   -0.5682 N   0  0  0  0  0  2  0  0  0  0  0  0
   -1.5325    2.4866   -1.3141 C   0  0  0  0  0  3  0  0  0  0  0  0
   -0.7793    2.5512   -2.1031 H   0  0  0  0  0  0  0  0  0  0  0  0
   -2.5615    3.4268   -1.2372 C   0  0  0  0  0  0  0  0  0  0  0  0
   -2.5653    4.2747   -1.9365 H   0  0  0  0  0  0  0  0  0  0  0  0
   -3.5802    3.2472   -0.2949 C   0  0  0  0  0  0  0  0  0  0  0  0
   -4.4171    3.9562   -0.2159 H   0  0  0  0  0  0  0  0  0  0  0  0
   -3.5264    2.1113    0.5216 C   0  0  0  0  0  0  0  0  0  0  0  0
   -4.3404    1.8819    1.2208 H   0  0  0  0  0  0  0  0  0  0  0  0
   -2.4457    1.2267    0.4072 C   0  0  0  0  0  0  0  0  0  0  0  0
   -2.4156   -0.0641    1.2397 C   0  0  2  0  0  0  0  0  0  0  0  0
   -2.4684   -1.2320    0.2574 C   0  0  1  0  0  3  0  0  0  0  0  0
   -3.5137   -2.1618    0.3124 C   0  0  0  0  0  0  0  0  0  0  0  0
   -4.2614   -2.0683    1.1091 H   0  0  0  0  0  0  0  0  0  0  0  0
   -3.5802   -3.1664   -0.6599 C   0  0  0  0  0  0  0  0  0  0  0  0
   -4.3860   -3.9146   -0.6388 H   0  0  0  0  0  0  0  0  0  0  0  0
   -2.6156   -3.1677   -1.6751 C   0  0  0  0  0  0  0  0  0  0  0  0
   -2.6428   -3.8995   -2.4948 H   0  0  0  0  0  0  0  0  0  0  0  0
   -1.6047   -2.2047   -1.6580 C   0  0  0  0  0  0  0  0  0  0  0  0
   -0.8892   -2.1276   -2.4817 H   0  0  0  0  0  0  0  0  0  0  0  0
   -1.1220   -0.1640    2.0391 C   0  0  1  0  0  3  0  0  0  0  0  0
   -1.1471   -0.3655    3.4236 C   0  0  0  0  0  0  0  0  0  0  0  0
   -2.1129   -0.4864    3.9304 H   0  0  0  0  0  0  0  0  0  0  0  0
    0.0581   -0.4441    4.1320 C   0  0  0  0  0  0  0  0  0  0  0  0
    0.0631   -0.5992    5.2204 H   0  0  0  0  0  0  0  0  0  0  0  0
    1.2544   -0.3316    3.4156 C   0  0  0  0  0  0  0  0  0  0  0  0
    2.2379   -0.3841    3.8979 H   0  0  0  0  0  0  0  0  0  0  0  0
    1.1953   -0.1647    2.0296 C   0  0  0  0  0  0  0  0  0  0  0  0
    2.4501   -0.0899    1.1889 C   0  0  2  0  0  0  0  0  0  0  0  0
    2.4363   -1.2700    0.2019 C   0  0  2  0  0  3  0  0  0  0  0  0
    3.4140   -2.2706    0.2814 C   0  0  0  0  0  0  0  0  0  0  0  0
    4.1229   -2.2631    1.1197 H   0  0  0  0  0  0  0  0  0  0  0  0
    3.4601   -3.2667   -0.7023 C   0  0  0  0  0  0  0  0  0  0  0  0
    4.2116   -4.0681   -0.6542 H   0  0  0  0  0  0  0  0  0  0  0  0
    2.5478   -3.1879   -1.7617 C   0  0  0  0  0  0  0  0  0  0  0  0
    2.5752   -3.8983   -2.6000 H   0  0  0  0  0  0  0  0  0  0  0  0
    1.5815   -2.1800   -1.7545 C   0  0  0  0  0  0  0  0  0  0  0  0
    0.9003   -2.0343   -2.6009 H   0  0  0  0  0  0  0  0  0  0  0  0
    2.4498    1.2243    0.3923 C   0  0  1  0  0  3  0  0  0  0  0  0
    3.4344    2.1938    0.6253 C   0  0  0  0  0  0  0  0  0  0  0  0
    4.1280    2.0620    1.4660 H   0  0  0  0  0  0  0  0  0  0  0  0
    3.5085    3.3141   -0.2125 C   0  0  0  0  0  0  0  0  0  0  0  0
    4.2648    4.0938   -0.0412 H   0  0  0  0  0  0  0  0  0  0  0  0
    2.6209    3.3867   -1.2933 C   0  0  0  0  0  0  0  0  0  0  0  0
    2.6761    4.1997   -2.0310 H   0  0  0  0  0  0  0  0  0  0  0  0
    1.6441    2.3997   -1.4394 C   0  0  0  0  0  0  0  0  0  0  0  0
    0.9840    2.3697   -2.3151 H   0  0  0  0  0  0  0  0  0  0  0  0
  1  2  1  0  0  0  0
  4  3  1  0  0  0  0
  5 18  1  0  0  0  0
  6 20  1  0  0  0  0
  7 36  1  0  0  0  0
  7 29  1  0  0  0  0
  8 38  1  0  0  0  0
  9 47  1  0  0  0  0
 10 12  1  0  0  0  0
 10  5  1  0  0  0  0
 11 10  1  0  0  0  0
 12 14  2  0  0  0  0
 13 12  1  0  0  0  0
 14 15  1  0  0  0  0
 14 16  1  0  0  0  0
 16 17  1  0  0  0  0
 18 16  2  0  0  0  0
 18 19  1  0  0  0  0
 19  1  1  1  0  0  0
 20 21  1  0  0  0  0
 20 19  1  6  0  0  0
 21 22  1  0  0  0  0
 23 24  1  0  0  0  0
 23 21  2  0  0  0  0
 25 27  2  0  0  0  0
 25 23  1  0  0  0  0
 26 25  1  0  0  0  0
 27  6  1  0  0  0  0
 28 27  1  0  0  0  0
 29 19  1  6  0  0  0
 29 30  1  0  0  0  0
 30 31  1  0  0  0  0
 30 32  2  0  0  0  0
 32 33  1  0  0  0  0
 34 35  1  0  0  0  0
 34 32  1  0  0  0  0
 36 34  2  0  0  0  0
 37 36  1  0  0  0  0
 37  3  1  1  0  0  0
 38 39  1  0  0  0  0
 38 37  1  6  0  0  0
 39 40  1  0  0  0  0
 41 42  1  0  0  0  0
 41 39  2  0  0  0  0
 43 45  2  0  0  0  0
 43 41  1  0  0  0  0
 44 43  1  0  0  0  0
 45  8  1  0  0  0  0
 46 45  1  0  0  0  0
 47 48  1  0  0  0  0
 47 37  1  6  0  0  0
 48 49  1  0  0  0  0
 50 51  1  0  0  0  0
 50 48  2  0  0  0  0
 52 50  1  0  0  0  0
 53 52  1  0  0  0  0
 54 52  2  0  0  0  0
 54  9  1  0  0  0  0
 55 54  1  0  0  0  0
M  END
