5,6,7,8,9
 OpenBabel05122313063D

 79 84  0  0  1  0  0  0  0  0999 V2000
    0.4247    5.0710   -1.8791 O   0  0  0  0  0  0  0  0  0  0  0  0
   -4.1594    0.1432    0.9277 O   0  0  0  0  0  0  0  0  0  0  0  0
   -8.2699   -0.5141    0.0735 O   0  0  0  0  0  0  0  0  0  0  0  0
   -6.7947    0.3230    1.5705 O   0  0  0  0  0  0  0  0  0  0  0  0
    1.8338   -0.3076    2.1113 N   0  0  0  0  0  2  0  0  0  0  0  0
    0.5847   -0.9930    0.0475 N   0  0  0  0  0  2  0  0  0  0  0  0
    2.4918   -1.3238   -1.5463 N   0  0  0  0  0  2  0  0  0  0  0  0
    4.3134   -0.5044    0.5881 N   0  0  0  0  0  2  0  0  0  0  0  0
    2.4455    1.0845   -0.2116 N   0  0  0  0  0  2  0  0  0  0  0  0
   -0.8301    3.1254   -1.4179 N   0  0  0  0  0  2  0  0  0  0  0  0
    2.6254    0.0459    3.1389 C   0  0  0  0  0  3  0  0  0  0  0  0
    2.1069    0.3451    4.4042 C   0  0  0  0  0  0  0  0  0  0  0  0
    0.7211    0.2744    4.6073 C   0  0  0  0  0  0  0  0  0  0  0  0
   -0.1028   -0.0978    3.5387 C   0  0  0  0  0  0  0  0  0  0  0  0
    0.4768   -0.3891    2.2957 C   0  0  0  0  0  0  0  0  0  0  0  0
   -0.2540   -0.8008    1.0915 C   0  0  2  0  0  3  0  0  0  0  0  0
   -1.6287   -1.0029    0.9357 C   0  0  0  0  0  0  0  0  0  0  0  0
   -2.1440   -1.4112   -0.3225 C   0  0  0  0  0  0  0  0  0  0  0  0
   -1.2177   -1.6107   -1.3778 C   0  0  0  0  0  0  0  0  0  0  0  0
    0.1496   -1.4060   -1.1626 C   0  0  0  0  0  0  0  0  0  0  0  0
    1.2649   -1.5812   -2.1025 C   0  0  2  0  0  3  0  0  0  0  0  0
    1.1494   -1.9841   -3.4403 C   0  0  0  0  0  0  0  0  0  0  0  0
    2.3070   -2.1320   -4.2137 C   0  0  0  0  0  0  0  0  0  0  0  0
    3.5539   -1.8767   -3.6256 C   0  0  0  0  0  0  0  0  0  0  0  0
    3.6042   -1.4737   -2.2859 C   0  0  0  0  0  0  0  0  0  0  0  0
    5.1923   -1.4360    1.0212 C   0  0  0  0  0  3  0  0  0  0  0  0
    6.5482   -1.1473    1.1909 C   0  0  0  0  0  0  0  0  0  0  0  0
    7.0091    0.1515    0.9016 C   0  0  0  0  0  0  0  0  0  0  0  0
    6.1015    1.1129    0.4547 C   0  0  0  0  0  0  0  0  0  0  0  0
    4.7414    0.7694    0.3010 C   0  0  0  0  0  0  0  0  0  0  0  0
    3.6911    1.6672   -0.1532 C   0  0  1  0  0  3  0  0  0  0  0  0
    3.8572    3.0144   -0.5252 C   0  0  0  0  0  0  0  0  0  0  0  0
    2.7560    3.7541   -0.9631 C   0  0  0  0  0  0  0  0  0  0  0  0
    1.4896    3.1379   -1.0148 C   0  0  0  0  0  0  0  0  0  0  0  0
    1.3857    1.7926   -0.6241 C   0  0  0  0  0  0  0  0  0  0  0  0
   -3.5846   -1.6457   -0.5456 C   0  0  0  0  0  0  0  0  0  0  0  0
   -3.9913   -2.6741   -1.4264 C   0  0  0  0  0  0  0  0  0  0  0  0
   -5.3417   -2.8965   -1.7057 C   0  0  0  0  0  0  0  0  0  0  0  0
   -6.3098   -2.0988   -1.0876 C   0  0  0  0  0  0  0  0  0  0  0  0
   -5.9558   -1.0807   -0.1792 C   0  0  0  0  0  0  0  0  0  0  0  0
   -4.5809   -0.8326    0.0838 C   0  0  0  0  0  0  0  0  0  0  0  0
   -4.3017    1.5276    0.5107 C   0  0  0  0  0  0  0  0  0  0  0  0
   -3.3077    1.8871   -0.5802 C   0  0  0  0  0  0  0  0  0  0  0  0
   -3.2069    3.3907   -0.8463 C   0  0  0  0  0  0  0  0  0  0  0  0
   -2.0692    3.7347   -1.8260 C   0  0  0  0  0  0  0  0  0  0  0  0
    0.2692    3.8910   -1.4918 C   0  0  0  0  0  0  0  0  0  0  0  0
   -7.1256   -0.3925    0.4737 C   0  0  0  0  0  0  0  0  0  0  0  0
   -7.9001    0.9498    2.2417 C   0  0  0  0  0  0  0  0  0  0  0  0
   -5.3510    1.7201    0.2058 H   0  0  0  0  0  0  0  0  0  0  0  0
   -4.1142    2.1106    1.4342 H   0  0  0  0  0  0  0  0  0  0  0  0
   -2.2967    1.5373   -0.2866 H   0  0  0  0  0  0  0  0  0  0  0  0
   -3.5669    1.3505   -1.5202 H   0  0  0  0  0  0  0  0  0  0  0  0
   -1.9761    4.8388   -1.9428 H   0  0  0  0  0  0  0  0  0  0  0  0
   -2.3504    3.3395   -2.8353 H   0  0  0  0  0  0  0  0  0  0  0  0
   -4.1652    3.7926   -1.2402 H   0  0  0  0  0  0  0  0  0  0  0  0
   -3.0133    3.9169    0.1147 H   0  0  0  0  0  0  0  0  0  0  0  0
    4.8547    3.4737   -0.4745 H   0  0  0  0  0  0  0  0  0  0  0  0
    0.3893    1.3316   -0.6790 H   0  0  0  0  0  0  0  0  0  0  0  0
    6.4344    2.1331    0.2221 H   0  0  0  0  0  0  0  0  0  0  0  0
    2.8260    4.8063   -1.2777 H   0  0  0  0  0  0  0  0  0  0  0  0
    8.0711    0.4099    1.0249 H   0  0  0  0  0  0  0  0  0  0  0  0
    4.7533   -2.4270    1.2249 H   0  0  0  0  0  0  0  0  0  0  0  0
    7.2283   -1.9340    1.5452 H   0  0  0  0  0  0  0  0  0  0  0  0
   -1.5758   -1.9019   -2.3738 H   0  0  0  0  0  0  0  0  0  0  0  0
   -3.2302   -3.3278   -1.8785 H   0  0  0  0  0  0  0  0  0  0  0  0
    2.2360   -2.4462   -5.2650 H   0  0  0  0  0  0  0  0  0  0  0  0
   -2.3135   -0.8456    1.7759 H   0  0  0  0  0  0  0  0  0  0  0  0
    3.7048    0.0844    2.9392 H   0  0  0  0  0  0  0  0  0  0  0  0
    0.1566   -2.1797   -3.8678 H   0  0  0  0  0  0  0  0  0  0  0  0
   -1.1926   -0.1654    3.6600 H   0  0  0  0  0  0  0  0  0  0  0  0
   -5.6413   -3.7042   -2.3884 H   0  0  0  0  0  0  0  0  0  0  0  0
    2.7917    0.6302    5.2148 H   0  0  0  0  0  0  0  0  0  0  0  0
    0.2854    0.5057    5.5900 H   0  0  0  0  0  0  0  0  0  0  0  0
   -7.3835   -2.2545   -1.2685 H   0  0  0  0  0  0  0  0  0  0  0  0
    4.4886   -1.9848   -4.1930 H   0  0  0  0  0  0  0  0  0  0  0  0
    4.5597   -1.2677   -1.7848 H   0  0  0  0  0  0  0  0  0  0  0  0
   -8.4203    1.6566    1.5651 H   0  0  0  0  0  0  0  0  0  0  0  0
   -7.4658    1.4844    3.1044 H   0  0  0  0  0  0  0  0  0  0  0  0
   -8.6323    0.1908    2.5811 H   0  0  0  0  0  0  0  0  0  0  0  0
  1 46  2  0  0  0  0
  3 47  2  0  0  0  0
  4 48  1  0  0  0  0
  5 15  1  0  0  0  0
  5 11  1  0  0  0  0
  6 16  1  0  0  0  0
  8 26  1  0  0  0  0
  9 31  1  0  0  0  0
 11 12  1  0  0  0  0
 12 13  2  0  0  0  0
 12 72  1  0  0  0  0
 13 73  1  0  0  0  0
 14 70  1  0  0  0  0
 14 13  1  0  0  0  0
 15 14  2  0  0  0  0
 16 15  1  1  0  0  0
 17 16  1  0  0  0  0
 17 67  1  0  0  0  0
 18 17  2  0  0  0  0
 19 20  2  0  0  0  0
 19 18  1  0  0  0  0
 20  6  1  0  0  0  0
 21  7  1  0  0  0  0
 21 20  1  1  0  0  0
 22 21  1  0  0  0  0
 23 24  1  0  0  0  0
 23 22  2  0  0  0  0
 24 25  2  0  0  0  0
 25 76  1  0  0  0  0
 25  7  1  0  0  0  0
 26 27  1  0  0  0  0
 26 62  1  0  0  0  0
 27 63  1  0  0  0  0
 28 61  1  0  0  0  0
 28 27  2  0  0  0  0
 29 28  1  0  0  0  0
 30 29  2  0  0  0  0
 30  8  1  0  0  0  0
 31 30  1  6  0  0  0
 32 57  1  0  0  0  0
 32 31  1  0  0  0  0
 33 32  2  0  0  0  0
 34 33  1  0  0  0  0
 34 35  2  0  0  0  0
 35  9  1  0  0  0  0
 36 18  1  0  0  0  0
 36 41  1  0  0  0  0
 37 36  2  0  0  0  0
 38 37  1  0  0  0  0
 38 39  2  0  0  0  0
 39 40  1  0  0  0  0
 40 41  2  0  0  0  0
 40 47  1  0  0  0  0
 41  2  1  0  0  0  0
 42  2  1  0  0  0  0
 42 50  1  0  0  0  0
 43 51  1  0  0  0  0
 43 42  1  0  0  0  0
 44 43  1  0  0  0  0
 44 56  1  0  0  0  0
 45 10  1  0  0  0  0
 45 44  1  0  0  0  0
 46 10  1  0  0  0  0
 46 34  1  0  0  0  0
 47  4  1  0  0  0  0
 48 79  1  0  0  0  0
 48 78  1  0  0  0  0
 49 42  1  0  0  0  0
 52 43  1  0  0  0  0
 53 45  1  0  0  0  0
 54 45  1  0  0  0  0
 55 44  1  0  0  0  0
 58 35  1  0  0  0  0
 59 29  1  0  0  0  0
 60 33  1  0  0  0  0
 64 19  1  0  0  0  0
 65 37  1  0  0  0  0
 66 23  1  0  0  0  0
 68 11  1  0  0  0  0
 69 22  1  0  0  0  0
 71 38  1  0  0  0  0
 74 39  1  0  0  0  0
 75 24  1  0  0  0  0
 77 48  1  0  0  0  0
M  END
