8,9,32,33,34
 OpenBabel05122313063D

 48 51  0  0  1  0  0  0  0  0999 V2000
   -1.6530    4.2389   -0.3191 Cl  0  0  0  0  0  0  0  0  0  0  0  0
   -1.7694   -3.3546   -2.3000 Cl  0  0  0  0  0  0  0  0  0  0  0  0
   -1.3928   -2.0763    3.6217 Cl  0  0  0  0  0  0  0  0  0  0  0  0
   -3.0836    0.0961    0.0532 B   0  0  1  0  0  0  0  0  0  0  0  0
   -2.5236    1.4568   -0.2009 O   0  0  0  0  0  0  0  0  0  0  0  0
   -2.5684   -0.9006   -0.9493 O   0  0  0  0  0  0  0  0  0  0  0  0
   -2.7397   -0.4074    1.4451 O   0  0  0  0  0  0  0  0  0  0  0  0
   -1.1924    1.5751   -0.3440 N   0  0  0  0  0  2  0  0  0  0  0  0
   -1.2320   -1.0273   -1.0392 N   0  0  0  0  0  2  0  0  0  0  0  0
   -1.4459   -0.1734    1.6721 N   0  0  0  0  0  0  0  0  0  0  0  0
   -0.6915    2.8085   -0.4124 C   0  0  0  0  0  0  0  0  0  0  0  0
   -0.7598   -2.1110   -1.6592 C   0  0  0  0  0  0  0  0  0  0  0  0
   -0.7586   -0.8422    2.5288 C   0  0  0  0  0  0  0  0  0  0  0  0
   -4.6781    0.1574   -0.0939 C   0  0  0  0  0  0  0  0  0  0  0  0
   -5.4260   -1.0185   -0.3178 C   0  0  0  0  0  0  0  0  0  0  0  0
   -4.8912   -1.9753   -0.4282 H   0  0  0  0  0  0  0  0  0  0  0  0
   -6.8260   -0.9845   -0.4191 C   0  0  0  0  0  0  0  0  0  0  0  0
   -7.3889   -1.9157   -0.5953 H   0  0  0  0  0  0  0  0  0  0  0  0
   -7.5102    0.2365   -0.2993 C   0  0  0  0  0  0  0  0  0  0  0  0
   -8.6090    0.2672   -0.3780 H   0  0  0  0  0  0  0  0  0  0  0  0
   -6.7828    1.4187   -0.0838 C   0  0  0  0  0  0  0  0  0  0  0  0
   -7.3117    2.3818    0.0041 H   0  0  0  0  0  0  0  0  0  0  0  0
   -5.3827    1.3751    0.0160 C   0  0  0  0  0  0  0  0  0  0  0  0
   -4.8124    2.3045    0.1727 H   0  0  0  0  0  0  0  0  0  0  0  0
    1.7196   -1.0028    3.7752 Cl  0  0  0  0  0  0  0  0  0  0  0  0
    1.5599   -3.4829   -2.3659 Cl  0  0  0  0  0  0  0  0  0  0  0  0
    1.6726    4.2776   -0.5509 Cl  0  0  0  0  0  0  0  0  0  0  0  0
    3.0489    0.1031   -0.2376 B   0  0  1  0  0  0  0  0  0  0  0  0
    2.5133   -0.1865    1.1491 O   0  0  0  0  0  0  0  0  0  0  0  0
    2.5877   -0.9575   -1.1973 O   0  0  0  0  0  0  0  0  0  0  0  0
    2.6077    1.4708   -0.6777 O   0  0  0  0  0  0  0  0  0  0  0  0
    1.1839   -0.3430    1.2396 N   0  0  0  0  0  2  0  0  0  0  0  0
    1.2449   -1.0293   -1.2935 N   0  0  0  0  0  2  0  0  0  0  0  0
    1.2674    1.6149   -0.6658 N   0  0  0  0  0  2  0  0  0  0  0  0
    0.6954   -0.6882    2.4036 C   0  0  1  0  0  3  0  0  0  0  0  0
    0.6751   -2.1299   -1.7638 C   0  0  0  0  0  0  0  0  0  0  0  0
    0.7385    2.8287   -0.5654 C   0  0  0  0  0  0  0  0  0  0  0  0
    4.6478    0.0796   -0.1773 C   0  0  0  0  0  0  0  0  0  0  0  0
    5.4132    0.6425   -1.2211 C   0  0  0  0  0  0  0  0  0  0  0  0
    4.8927    1.1215   -2.0657 H   0  0  0  0  0  0  0  0  0  0  0  0
    6.8165    0.6118   -1.1960 C   0  0  0  0  0  0  0  0  0  0  0  0
    7.3931    1.0583   -2.0223 H   0  0  0  0  0  0  0  0  0  0  0  0
    7.4865    0.0134   -0.1158 C   0  0  0  0  0  0  0  0  0  0  0  0
    8.5879   -0.0130   -0.0922 H   0  0  0  0  0  0  0  0  0  0  0  0
    6.7426   -0.5481    0.9348 C   0  0  0  0  0  0  0  0  0  0  0  0
    7.2612   -1.0155    1.7876 H   0  0  0  0  0  0  0  0  0  0  0  0
    5.3391   -0.5130    0.9007 C   0  0  0  0  0  0  0  0  0  0  0  0
    4.7556   -0.9450    1.7289 H   0  0  0  0  0  0  0  0  0  0  0  0
  2 12  1  0  0  0  0
  4 14  1  6  0  0  0
  4  7  1  0  0  0  0
  5  4  1  0  0  0  0
  6  4  1  0  0  0  0
  7 10  1  0  0  0  0
  8  5  1  0  0  0  0
  9  6  1  0  0  0  0
 10 13  2  0  0  0  0
 11  8  1  0  0  0  0
 11  1  1  0  0  0  0
 12  9  1  0  0  0  0
 13  3  1  0  0  0  0
 14 23  1  0  0  0  0
 15 14  2  0  0  0  0
 16 15  1  0  0  0  0
 17 15  1  0  0  0  0
 17 19  2  0  0  0  0
 18 17  1  0  0  0  0
 19 21  1  0  0  0  0
 20 19  1  0  0  0  0
 21 22  1  0  0  0  0
 21 23  2  0  0  0  0
 23 24  1  0  0  0  0
 26 36  1  0  0  0  0
 28 38  1  1  0  0  0
 28 29  1  0  0  0  0
 29 32  1  0  0  0  0
 30 28  1  0  0  0  0
 31 34  1  0  0  0  0
 31 28  1  0  0  0  0
 32 35  1  0  0  0  0
 33 30  1  0  0  0  0
 34 37  1  0  0  0  0
 35 13  1  0  0  0  0
 35 25  1  6  0  0  0
 36 12  2  0  0  0  0
 36 33  1  0  0  0  0
 37 27  1  0  0  0  0
 37 11  2  0  0  0  0
 38 47  1  0  0  0  0
 39 41  1  0  0  0  0
 39 38  2  0  0  0  0
 40 39  1  0  0  0  0
 41 43  2  0  0  0  0
 42 41  1  0  0  0  0
 43 44  1  0  0  0  0
 43 45  1  0  0  0  0
 45 46  1  0  0  0  0
 47 45  2  0  0  0  0
 47 48  1  0  0  0  0
M  END
