28,29,31,33,35
 OpenBabel05122313063D

 39 39  0  0  0  0  0  0  0  0999 V2000
   -0.3047   -2.7622   -0.0172 C   0  0  0  0  0  0  0  0  0  0  0  0
   -0.4693   -3.2514   -1.0089 H   0  0  0  0  0  0  0  0  0  0  0  0
   -0.8357   -3.4213    0.7032 H   0  0  0  0  0  0  0  0  0  0  0  0
    1.1749   -2.6674    0.3206 C   0  0  0  0  0  0  0  0  0  0  0  0
    1.2959   -2.4934    1.4064 H   0  0  0  0  0  0  0  0  0  0  0  0
    1.7293   -3.5939    0.0521 H   0  0  0  0  0  0  0  0  0  0  0  0
    2.0466   -1.6589   -1.7991 C   0  0  0  0  0  0  0  0  0  0  0  0
    2.3395   -2.7058   -2.0341 H   0  0  0  0  0  0  0  0  0  0  0  0
    2.9153   -1.0228   -2.0588 H   0  0  0  0  0  0  0  0  0  0  0  0
    0.8196   -1.2611   -2.6227 C   0  0  0  0  0  0  0  0  0  0  0  0
    1.0785   -1.1565   -3.6991 H   0  0  0  0  0  0  0  0  0  0  0  0
    0.0381   -2.0373   -2.5389 H   0  0  0  0  0  0  0  0  0  0  0  0
    0.8192    1.2574   -2.6245 C   0  0  0  0  0  0  0  0  0  0  0  0
    0.0375    2.0335   -2.5416 H   0  0  0  0  0  0  0  0  0  0  0  0
    1.0779    1.1515   -3.7007 H   0  0  0  0  0  0  0  0  0  0  0  0
    2.0462    1.6566   -1.8016 C   0  0  0  0  0  0  0  0  0  0  0  0
    2.9150    1.0205   -2.0605 H   0  0  0  0  0  0  0  0  0  0  0  0
    2.3387    2.7033   -2.0380 H   0  0  0  0  0  0  0  0  0  0  0  0
    1.1747    2.6679    0.3169 C   0  0  0  0  0  0  0  0  0  0  0  0
    1.7290    3.5941    0.0471 H   0  0  0  0  0  0  0  0  0  0  0  0
    1.2958    2.4954    1.4029 H   0  0  0  0  0  0  0  0  0  0  0  0
   -0.3049    2.7622   -0.0209 C   0  0  0  0  0  0  0  0  0  0  0  0
   -0.8360    3.4220    0.6987 H   0  0  0  0  0  0  0  0  0  0  0  0
   -0.4695    3.2503   -1.0132 H   0  0  0  0  0  0  0  0  0  0  0  0
   -2.2021    1.3503    0.0231 C   0  0  0  0  0  0  0  0  0  0  0  0
   -2.8432    0.0001    0.4221 C   0  0  0  0  0  0  0  0  0  0  0  0
   -2.2020   -1.3503    0.0242 C   0  0  0  0  0  0  0  0  0  0  0  0
   -0.8486   -1.4089    0.0335 N   0  0  0  0  0  2  0  0  0  0  0  0
    1.7618   -1.4887   -0.3622 N   0  0  0  0  0  0  0  0  0  0  0  0
    2.5903   -1.1524    0.1749 H   0  0  0  0  0  0  0  0  0  0  0  0
    0.2405   -0.0016   -2.0887 N   0  0  0  0  0  0  0  0  0  0  0  0
   -0.7753   -0.0018   -2.2535 H   0  0  0  0  0  0  0  0  0  0  0  0
    1.7616    1.4883   -0.3644 N   0  0  0  0  0  0  0  0  0  0  0  0
    2.5903    1.1529    0.1730 H   0  0  0  0  0  0  0  0  0  0  0  0
   -0.8488    1.4089    0.0311 N   0  0  0  0  0  2  0  0  0  0  0  0
   -2.9243    2.3408   -0.1538 O   0  0  0  0  0  0  0  0  0  0  0  0
   -2.9240   -2.3409   -0.1525 O   0  0  0  0  0  0  0  0  0  0  0  0
   -4.1282   -0.0001   -0.0107 F   0  0  0  0  0  0  0  0  0  0  0  0
   -2.8776    0.0007    1.8119 F   0  0  0  0  0  0  0  0  0  0  0  0
  1 28  1  0  0  0  0
  1  4  1  0  0  0  0
  1  3  1  0  0  0  0
  2  1  1  0  0  0  0
  4  5  1  0  0  0  0
  6  4  1  0  0  0  0
  7 29  1  0  0  0  0
  8  7  1  0  0  0  0
  9  7  1  0  0  0  0
 10 12  1  0  0  0  0
 10 31  1  0  0  0  0
 10  7  1  0  0  0  0
 11 10  1  0  0  0  0
 13 14  1  0  0  0  0
 13 31  1  0  0  0  0
 13 16  1  0  0  0  0
 15 13  1  0  0  0  0
 16 33  1  0  0  0  0
 17 16  1  0  0  0  0
 18 16  1  0  0  0  0
 19 21  1  0  0  0  0
 20 19  1  0  0  0  0
 22 35  1  0  0  0  0
 22 19  1  0  0  0  0
 22 23  1  0  0  0  0
 24 22  1  0  0  0  0
 25 35  1  0  0  0  0
 25 26  1  0  0  0  0
 26 39  1  0  0  0  0
 27 28  1  0  0  0  0
 27 26  1  0  0  0  0
 29 30  1  0  0  0  0
 29  4  1  0  0  0  0
 32 31  1  0  0  0  0
 33 34  1  0  0  0  0
 33 19  1  0  0  0  0
 36 25  2  0  0  0  0
 37 27  2  0  0  0  0
 38 26  1  0  0  0  0
M  END
