2,3,4,5,6
 OpenBabel05122313063D

 51 52  0  0  1  0  0  0  0  0999 V2000
    2.9163    2.5329   -0.0868 N   0  0  0  0  0  0  0  0  0  0  0  0
    1.2003    1.1638    0.0361 N   0  0  0  0  0  2  0  0  0  0  0  0
   -0.2225    0.2520    1.9820 N   0  0  0  0  0  2  0  0  0  0  0  0
   -1.4581   -1.9594    0.2254 N   0  0  0  0  0  0  0  0  0  0  0  0
   -0.1369   -0.6150   -1.7849 N   0  0  0  0  0  2  0  0  0  0  0  0
   -1.4989    1.0953   -0.4750 N   0  0  0  0  0  2  0  0  0  0  0  0
   -2.7464    2.8339   -1.0190 N   0  0  0  0  0  0  0  0  0  0  0  0
    2.5017    1.1667   -2.1531 C   0  0  0  0  0  0  0  0  0  0  0  0
    2.1620    1.6119   -0.7749 C   0  0  2  0  0  3  0  0  0  0  0  0
    2.4516    2.6543    1.1998 C   0  0  0  0  0  0  0  0  0  0  0  0
    1.3748    1.7791    1.2722 C   0  0  0  0  0  0  0  0  0  0  0  0
    0.5602    1.2481    2.3232 C   0  0  0  0  0  3  0  0  0  0  0  0
   -0.8985   -0.4492    3.0721 C   0  0  0  0  0  0  0  0  0  0  0  0
   -2.0617   -1.3124    2.6121 C   0  0  0  0  0  0  0  0  0  0  0  0
   -1.6376   -2.4020    1.6362 C   0  0  0  0  0  0  0  0  0  0  0  0
   -2.7816   -1.6657   -0.3635 C   0  0  0  0  0  0  0  0  0  0  0  0
   -0.8395   -3.1334   -0.4833 C   0  0  0  0  0  0  0  0  0  0  0  0
   -0.5700   -2.9843   -1.9773 C   0  0  0  0  0  0  0  0  0  0  0  0
    0.4003   -1.8496   -2.3352 C   0  0  0  0  0  0  0  0  0  0  0  0
   -0.8162    0.1931   -2.5693 C   0  0  0  0  0  3  0  0  0  0  0  0
   -1.5364    1.2163   -1.8703 C   0  0  0  0  0  0  0  0  0  0  0  0
   -2.3219    2.3088   -2.2164 C   0  0  0  0  0  0  0  0  0  0  0  0
   -2.2406    2.0929    0.0245 C   0  0  2  0  0  3  0  0  0  0  0  0
   -2.5145    2.4266    1.4494 C   0  0  0  0  0  0  0  0  0  0  0  0
    3.7378    3.0044   -0.4684 H   0  0  0  0  0  0  0  0  0  0  0  0
   -3.3565    3.6458   -0.9111 H   0  0  0  0  0  0  0  0  0  0  0  0
    3.3015    1.7993   -2.5808 H   0  0  0  0  0  0  0  0  0  0  0  0
    2.8773    0.1224   -2.1212 H   0  0  0  0  0  0  0  0  0  0  0  0
    1.6256    1.2093   -2.8244 H   0  0  0  0  0  0  0  0  0  0  0  0
    2.9213    3.3037    1.9439 H   0  0  0  0  0  0  0  0  0  0  0  0
    0.6384    1.6056    3.3653 H   0  0  0  0  0  0  0  0  0  0  0  0
   -0.1429   -1.1085    3.5556 H   0  0  0  0  0  0  0  0  0  0  0  0
   -1.2281    0.2773    3.8474 H   0  0  0  0  0  0  0  0  0  0  0  0
   -2.4891   -1.8054    3.5085 H   0  0  0  0  0  0  0  0  0  0  0  0
   -2.8835   -0.6938    2.1945 H   0  0  0  0  0  0  0  0  0  0  0  0
   -2.3809   -3.2320    1.6439 H   0  0  0  0  0  0  0  0  0  0  0  0
   -0.6678   -2.8275    1.9631 H   0  0  0  0  0  0  0  0  0  0  0  0
   -3.2839   -0.8648    0.2054 H   0  0  0  0  0  0  0  0  0  0  0  0
   -2.6756   -1.3208   -1.4059 H   0  0  0  0  0  0  0  0  0  0  0  0
   -3.4261   -2.5733   -0.3510 H   0  0  0  0  0  0  0  0  0  0  0  0
    0.1143   -3.3332    0.0396 H   0  0  0  0  0  0  0  0  0  0  0  0
   -1.5122   -4.0080   -0.3285 H   0  0  0  0  0  0  0  0  0  0  0  0
   -0.1372   -3.9452   -2.3238 H   0  0  0  0  0  0  0  0  0  0  0  0
   -1.5143   -2.8500   -2.5466 H   0  0  0  0  0  0  0  0  0  0  0  0
    0.5109   -1.7752   -3.4385 H   0  0  0  0  0  0  0  0  0  0  0  0
    1.3931   -2.0394   -1.8846 H   0  0  0  0  0  0  0  0  0  0  0  0
   -0.8667    0.0544   -3.6632 H   0  0  0  0  0  0  0  0  0  0  0  0
   -2.6013    2.7343   -3.1845 H   0  0  0  0  0  0  0  0  0  0  0  0
   -2.7187    1.5122    2.0350 H   0  0  0  0  0  0  0  0  0  0  0  0
   -1.6488    2.9353    1.9211 H   0  0  0  0  0  0  0  0  0  0  0  0
   -3.3927    3.0944    1.5344 H   0  0  0  0  0  0  0  0  0  0  0  0
  1 10  1  0  0  0  0
  2 11  1  0  0  0  0
  3 12  1  0  0  0  0
  3 13  1  0  0  0  0
  4 15  1  0  0  0  0
  6 23  1  0  0  0  0
  7 26  1  0  0  0  0
  7 23  1  0  0  0  0
  8 28  1  0  0  0  0
  9  8  1  1  0  0  0
  9  1  1  0  0  0  0
  9  2  1  0  0  0  0
 10 11  2  0  0  0  0
 10 30  1  0  0  0  0
 11 12  1  0  0  0  0
 12 31  1  0  0  0  0
 13 32  1  0  0  0  0
 13 33  1  0  0  0  0
 14 13  1  0  0  0  0
 14 34  1  0  0  0  0
 15 36  1  0  0  0  0
 15 37  1  0  0  0  0
 15 14  1  0  0  0  0
 16 40  1  0  0  0  0
 16 38  1  0  0  0  0
 16  4  1  0  0  0  0
 17 42  1  0  0  0  0
 17 41  1  0  0  0  0
 17  4  1  0  0  0  0
 18 17  1  0  0  0  0
 19 18  1  0  0  0  0
 19 46  1  0  0  0  0
 19  5  1  0  0  0  0
 20 21  1  0  0  0  0
 20  5  1  0  0  0  0
 21  6  1  0  0  0  0
 22 21  2  0  0  0  0
 22  7  1  0  0  0  0
 23 24  1  1  0  0  0
 24 51  1  0  0  0  0
 24 50  1  0  0  0  0
 24 49  1  0  0  0  0
 25  1  1  0  0  0  0
 27  8  1  0  0  0  0
 29  8  1  0  0  0  0
 35 14  1  0  0  0  0
 39 16  1  0  0  0  0
 43 18  1  0  0  0  0
 44 18  1  0  0  0  0
 45 19  1  0  0  0  0
 47 20  1  0  0  0  0
 48 22  1  0  0  0  0
M  END
