5,8,22,33,36
 OpenBabel05122313063D

 83 87  0  0  1  0  0  0  0  0999 V2000
    4.6611   -0.0253   -0.1182 N   0  0  2  0  0  0  0  0  0  0  0  0
   -4.9256    0.1528    0.5767 N   0  0  1  0  0  0  0  0  0  0  0  0
    4.7137    0.5077   -1.4704 C   0  0  0  0  0  0  0  0  0  0  0  0
    3.5267    0.1397   -2.3783 C   0  0  0  0  0  0  0  0  0  0  0  0
    2.2861    0.7769   -1.9798 N   0  0  0  0  0  2  0  0  0  0  0  0
    1.8330    1.7422   -2.6980 C   0  0  0  0  0  0  0  0  0  0  0  0
    0.5967    2.4726   -2.3619 C   0  0  0  0  0  0  0  0  0  0  0  0
   -0.1125    2.0589   -1.2893 N   0  0  0  0  0  2  0  0  0  0  0  0
   -1.2357    2.7226   -0.9561 C   0  0  0  0  0  0  0  0  0  0  0  0
   -1.7111    3.8273   -1.7028 C   0  0  0  0  0  0  0  0  0  0  0  0
   -0.9828    4.2519   -2.8150 C   0  0  0  0  0  0  0  0  0  0  0  0
    0.1963    3.5679   -3.1523 C   0  0  0  0  0  0  0  0  0  0  0  0
   -1.9645    2.2373    0.2352 C   0  0  0  0  0  0  0  0  0  0  0  0
   -3.1226    2.6958    0.5366 N   0  0  0  0  0  0  0  0  0  0  0  0
   -3.8067    2.1557    1.6814 C   0  0  0  0  0  0  0  0  0  0  0  0
   -5.1027    1.4250    1.2554 C   0  0  0  0  0  0  0  0  0  0  0  0
    5.4704    0.7282    0.8341 C   0  0  0  0  0  0  0  0  0  0  0  0
    4.7502    1.9665    1.4109 C   0  0  0  0  0  0  0  0  0  0  0  0
    3.7263    1.5379    2.3331 N   0  0  0  0  0  0  0  0  0  0  0  0
    2.5624    1.3123    1.8482 C   0  0  0  0  0  0  0  0  0  0  0  0
    1.4663    0.7582    2.6715 C   0  0  2  0  0  3  0  0  0  0  0  0
    0.4507    0.1720    1.9966 N   0  0  0  0  0  2  0  0  0  0  0  0
   -0.5979   -0.3331    2.6894 C   0  0  0  0  0  0  0  0  0  0  0  0
   -0.6728   -0.2474    4.0938 C   0  0  0  0  0  0  0  0  0  0  0  0
    0.3887    0.3377    4.7945 C   0  0  0  0  0  0  0  0  0  0  0  0
    1.4821    0.8391    4.0777 C   0  0  0  0  0  0  0  0  0  0  0  0
   -1.6609   -0.9886    1.8982 C   0  0  0  0  0  0  0  0  0  0  0  0
   -2.8035   -1.2813    2.3983 N   0  0  0  0  0  0  0  0  0  0  0  0
   -3.7829   -1.9143    1.5502 C   0  0  0  0  0  0  0  0  0  0  0  0
   -5.0536   -1.0492    1.3843 C   0  0  0  0  0  0  0  0  0  0  0  0
    4.7916   -1.4735   -0.0223 C   0  0  0  0  0  0  0  0  0  0  0  0
    3.6650   -2.1681    0.7696 C   0  0  0  0  0  0  0  0  0  0  0  0
    2.4034   -2.1419    0.0644 N   0  0  0  0  0  2  0  0  0  0  0  0
    1.8702   -3.2487   -0.3061 C   0  0  0  0  0  0  0  0  0  0  0  0
    0.5650   -3.3222   -0.9947 C   0  0  0  0  0  0  0  0  0  0  0  0
   -0.1572   -2.1869   -1.1493 N   0  0  0  0  0  2  0  0  0  0  0  0
   -1.3902   -2.2630   -1.6916 C   0  0  0  0  0  0  0  0  0  0  0  0
   -1.9401   -3.4843   -2.1434 C   0  0  0  0  0  0  0  0  0  0  0  0
   -1.1852   -4.6516   -2.0192 C   0  0  0  0  0  0  0  0  0  0  0  0
    0.0834   -4.5740   -1.4246 C   0  0  0  0  0  0  0  0  0  0  0  0
   -2.1844   -1.0136   -1.7349 C   0  0  0  0  0  0  0  0  0  0  0  0
   -3.4484   -1.0536   -1.9379 N   0  0  0  0  0  0  0  0  0  0  0  0
   -4.2212    0.1586   -1.8848 C   0  0  0  0  0  0  0  0  0  0  0  0
   -5.3383    0.0737   -0.8133 C   0  0  0  0  0  0  0  0  0  0  0  0
    5.6448    0.1880   -2.0089 H   0  0  0  0  0  0  0  0  0  0  0  0
    4.7616    1.6144   -1.4077 H   0  0  0  0  0  0  0  0  0  0  0  0
    3.8074    0.4145   -3.4219 H   0  0  0  0  0  0  0  0  0  0  0  0
    3.3675   -0.9588   -2.3528 H   0  0  0  0  0  0  0  0  0  0  0  0
    2.3654    2.0790   -3.6170 H   0  0  0  0  0  0  0  0  0  0  0  0
   -2.6427    4.3106   -1.3757 H   0  0  0  0  0  0  0  0  0  0  0  0
   -1.3223    5.1089   -3.4155 H   0  0  0  0  0  0  0  0  0  0  0  0
    0.8056    3.8747   -4.0156 H   0  0  0  0  0  0  0  0  0  0  0  0
   -1.4279    1.4657    0.8307 H   0  0  0  0  0  0  0  0  0  0  0  0
   -4.1217    3.0089    2.3216 H   0  0  0  0  0  0  0  0  0  0  0  0
   -3.1777    1.4707    2.2970 H   0  0  0  0  0  0  0  0  0  0  0  0
   -5.6722    2.1166    0.5987 H   0  0  0  0  0  0  0  0  0  0  0  0
   -5.7089    1.2810    2.1781 H   0  0  0  0  0  0  0  0  0  0  0  0
    6.4413    1.0556    0.3859 H   0  0  0  0  0  0  0  0  0  0  0  0
    5.7231    0.0683    1.6879 H   0  0  0  0  0  0  0  0  0  0  0  0
    5.4985    2.5810    1.9519 H   0  0  0  0  0  0  0  0  0  0  0  0
    4.3480    2.5818    0.5698 H   0  0  0  0  0  0  0  0  0  0  0  0
    2.2956    1.4963    0.7770 H   0  0  0  0  0  0  0  0  0  0  0  0
   -1.5637   -0.6564    4.5912 H   0  0  0  0  0  0  0  0  0  0  0  0
    0.3646    0.4017    5.8928 H   0  0  0  0  0  0  0  0  0  0  0  0
    2.3527    1.3021    4.5633 H   0  0  0  0  0  0  0  0  0  0  0  0
   -1.3785   -1.2107    0.8429 H   0  0  0  0  0  0  0  0  0  0  0  0
   -4.1087   -2.8493    2.0578 H   0  0  0  0  0  0  0  0  0  0  0  0
   -3.3857   -2.1905    0.5455 H   0  0  0  0  0  0  0  0  0  0  0  0
   -5.8364   -1.7132    0.9512 H   0  0  0  0  0  0  0  0  0  0  0  0
   -5.3969   -0.7674    2.4024 H   0  0  0  0  0  0  0  0  0  0  0  0
    4.8295   -1.9216   -1.0377 H   0  0  0  0  0  0  0  0  0  0  0  0
    5.7542   -1.7571    0.4626 H   0  0  0  0  0  0  0  0  0  0  0  0
    3.9866   -3.2113    1.0052 H   0  0  0  0  0  0  0  0  0  0  0  0
    3.5350   -1.6236    1.7299 H   0  0  0  0  0  0  0  0  0  0  0  0
    2.3579   -4.2304   -0.0990 H   0  0  0  0  0  0  0  0  0  0  0  0
   -2.9548   -3.4695   -2.5654 H   0  0  0  0  0  0  0  0  0  0  0  0
   -1.5811   -5.6170   -2.3676 H   0  0  0  0  0  0  0  0  0  0  0  0
    0.7018   -5.4730   -1.2840 H   0  0  0  0  0  0  0  0  0  0  0  0
   -1.6110   -0.0743   -1.5426 H   0  0  0  0  0  0  0  0  0  0  0  0
   -4.7421    0.2620   -2.8628 H   0  0  0  0  0  0  0  0  0  0  0  0
   -3.6066    1.0744   -1.7216 H   0  0  0  0  0  0  0  0  0  0  0  0
   -6.0523    0.8975   -1.0370 H   0  0  0  0  0  0  0  0  0  0  0  0
   -5.8823   -0.8807   -0.9841 H   0  0  0  0  0  0  0  0  0  0  0  0
  1  3  1  6  0  0  0
  1 31  1  0  0  0  0
  1 17  1  0  0  0  0
  2 44  1  6  0  0  0
  2 16  1  0  0  0  0
  2 30  1  0  0  0  0
  3 46  1  0  0  0  0
  4 48  1  0  0  0  0
  4  5  1  0  0  0  0
  4  3  1  0  0  0  0
  6  7  2  0  0  0  0
  6  5  1  0  0  0  0
  7  8  1  0  0  0  0
  8  9  1  0  0  0  0
  9 13  1  0  0  0  0
 10 50  1  0  0  0  0
 10  9  2  0  0  0  0
 11 10  1  0  0  0  0
 12 11  2  0  0  0  0
 12  7  1  0  0  0  0
 13 14  2  0  0  0  0
 13 53  1  0  0  0  0
 14 15  1  0  0  0  0
 15 55  1  0  0  0  0
 15 54  1  0  0  0  0
 16 15  1  0  0  0  0
 16 57  1  0  0  0  0
 17 18  1  0  0  0  0
 17 59  1  0  0  0  0
 18 60  1  0  0  0  0
 18 19  1  0  0  0  0
 20 19  2  0  0  0  0
 21 20  1  6  0  0  0
 21 26  1  0  0  0  0
 22 21  1  0  0  0  0
 22 23  1  0  0  0  0
 23 24  2  0  0  0  0
 24 63  1  0  0  0  0
 24 25  1  0  0  0  0
 25 64  1  0  0  0  0
 26 65  1  0  0  0  0
 26 25  2  0  0  0  0
 27 28  2  0  0  0  0
 27 23  1  0  0  0  0
 29 67  1  0  0  0  0
 29 28  1  0  0  0  0
 30 29  1  0  0  0  0
 30 70  1  0  0  0  0
 31 72  1  0  0  0  0
 31 32  1  0  0  0  0
 32 73  1  0  0  0  0
 32 74  1  0  0  0  0
 33 32  1  0  0  0  0
 34 75  1  0  0  0  0
 34 33  1  0  0  0  0
 35 34  2  0  0  0  0
 36 35  1  0  0  0  0
 37 36  1  0  0  0  0
 38 39  1  0  0  0  0
 38 37  2  0  0  0  0
 39 40  2  0  0  0  0
 40 78  1  0  0  0  0
 40 35  1  0  0  0  0
 41 37  1  0  0  0  0
 41 79  1  0  0  0  0
 42 43  1  0  0  0  0
 42 41  2  0  0  0  0
 43 81  1  0  0  0  0
 43 44  1  0  0  0  0
 45  3  1  0  0  0  0
 47  4  1  0  0  0  0
 49  6  1  0  0  0  0
 51 11  1  0  0  0  0
 52 12  1  0  0  0  0
 56 16  1  0  0  0  0
 58 17  1  0  0  0  0
 61 18  1  0  0  0  0
 62 20  1  0  0  0  0
 66 27  1  0  0  0  0
 68 29  1  0  0  0  0
 69 30  1  0  0  0  0
 71 31  1  0  0  0  0
 76 38  1  0  0  0  0
 77 39  1  0  0  0  0
 80 43  1  0  0  0  0
 82 44  1  0  0  0  0
 83 44  1  0  0  0  0
M  END
