1,2,3,4,5
 OpenBabel05122313063D

 51 54  0  0  1  0  0  0  0  0999 V2000
   -0.3977    1.9456   -0.5830 N   0  0  0  0  0  2  0  0  0  0  0  0
    1.8406    0.6875   -0.4007 N   0  0  0  0  0  2  0  0  0  0  0  0
    0.4977   -1.3679    1.0695 N   0  0  0  0  0  2  0  0  0  0  0  0
   -0.0273   -0.8338   -1.4966 N   0  0  0  0  0  2  0  0  0  0  0  0
   -1.9050    0.1437    0.2564 N   0  0  0  0  0  2  0  0  0  0  0  0
   -1.6045    2.4511   -0.2700 C   0  0  2  0  0  3  0  0  0  0  0  0
   -1.8931    3.7756   -0.6207 C   0  0  0  0  0  0  0  0  0  0  0  0
   -2.8697    4.2184   -0.3795 H   0  0  0  0  0  0  0  0  0  0  0  0
   -0.8985    4.5208   -1.2791 C   0  0  0  0  0  0  0  0  0  0  0  0
   -1.1046    5.5611   -1.5716 H   0  0  0  0  0  0  0  0  0  0  0  0
    0.3630    3.9625   -1.5487 C   0  0  0  0  0  0  0  0  0  0  0  0
    1.1532    4.5530   -2.0334 H   0  0  0  0  0  0  0  0  0  0  0  0
    0.5975    2.6359   -1.1610 C   0  0  0  0  0  0  0  0  0  0  0  0
    1.8708    1.8439   -1.2989 C   0  0  0  0  0  0  0  0  0  0  0  0
    1.9946    1.5359   -2.3644 H   0  0  0  0  0  0  0  0  0  0  0  0
    2.7458    2.4874   -1.0569 H   0  0  0  0  0  0  0  0  0  0  0  0
    2.8979   -0.1522   -0.3509 C   0  0  0  0  0  0  0  0  0  0  0  0
    4.0146   -0.0535   -1.2511 C   0  0  0  0  0  0  0  0  0  0  0  0
    4.0291    0.7267   -2.0227 H   0  0  0  0  0  0  0  0  0  0  0  0
    5.0704   -0.9530   -1.1772 C   0  0  0  0  0  0  0  0  0  0  0  0
    5.9147   -0.8558   -1.8758 H   0  0  0  0  0  0  0  0  0  0  0  0
    5.0599   -1.9993   -0.2272 C   0  0  0  0  0  0  0  0  0  0  0  0
    5.9063   -2.6987   -0.1662 H   0  0  0  0  0  0  0  0  0  0  0  0
    3.9770   -2.1273    0.6534 C   0  0  0  0  0  0  0  0  0  0  0  0
    3.9766   -2.9295    1.4071 H   0  0  0  0  0  0  0  0  0  0  0  0
    2.9209   -1.2054    0.6479 C   0  0  0  0  0  0  0  0  0  0  0  0
    1.8216   -1.2530    1.6762 C   0  0  0  0  0  0  0  0  0  0  0  0
    1.9739   -2.1284    2.3455 H   0  0  0  0  0  0  0  0  0  0  0  0
    1.8468   -0.3437    2.3086 H   0  0  0  0  0  0  0  0  0  0  0  0
    0.2582   -2.5091    0.2476 C   0  0  0  0  0  0  0  0  0  0  0  0
   -0.8229   -2.7776    0.2790 H   0  0  0  0  0  0  0  0  0  0  0  0
    0.8622   -3.3877    0.5641 H   0  0  0  0  0  0  0  0  0  0  0  0
    0.5649   -2.1100   -1.2347 C   0  0  0  0  0  0  0  0  0  0  0  0
    1.6774   -2.0400   -1.3023 H   0  0  0  0  0  0  0  0  0  0  0  0
    0.2081   -2.8834   -1.9493 H   0  0  0  0  0  0  0  0  0  0  0  0
   -1.3009   -0.8847   -2.2009 C   0  0  0  0  0  0  0  0  0  0  0  0
   -1.1544   -1.4334   -3.1577 H   0  0  0  0  0  0  0  0  0  0  0  0
   -1.6125    0.1508   -2.4478 H   0  0  0  0  0  0  0  0  0  0  0  0
   -2.3695   -1.5643   -1.3708 C   0  0  0  0  0  0  0  0  0  0  0  0
   -3.0991   -2.6921   -1.7683 C   0  0  0  0  0  0  0  0  0  0  0  0
   -2.8514   -3.1978   -2.7145 H   0  0  0  0  0  0  0  0  0  0  0  0
   -4.1915   -3.1296   -1.0025 C   0  0  0  0  0  0  0  0  0  0  0  0
   -4.7828   -3.9948   -1.3365 H   0  0  0  0  0  0  0  0  0  0  0  0
   -4.5514   -2.4444    0.1780 C   0  0  0  0  0  0  0  0  0  0  0  0
   -5.4035   -2.7988    0.7771 H   0  0  0  0  0  0  0  0  0  0  0  0
   -3.8169   -1.3415    0.6136 C   0  0  0  0  0  0  0  0  0  0  0  0
   -4.0494   -0.8391    1.5635 H   0  0  0  0  0  0  0  0  0  0  0  0
   -2.6833   -0.9080   -0.1314 C   0  0  0  0  0  0  0  0  0  0  0  0
   -2.4554    1.4639    0.5039 C   0  0  0  0  0  0  0  0  0  0  0  0
   -2.3696    1.7139    1.5902 H   0  0  0  0  0  0  0  0  0  0  0  0
   -3.5263    1.5197    0.2179 H   0  0  0  0  0  0  0  0  0  0  0  0
  1  6  1  0  0  0  0
  2 17  1  0  0  0  0
  3 27  1  0  0  0  0
  4 33  1  0  0  0  0
  5 49  1  0  0  0  0
  6  7  1  1  0  0  0
  6 49  1  0  0  0  0
  7  8  1  0  0  0  0
  9  7  2  0  0  0  0
 10  9  1  0  0  0  0
 11  9  1  0  0  0  0
 11 13  2  0  0  0  0
 12 11  1  0  0  0  0
 13  1  1  0  0  0  0
 14 13  1  0  0  0  0
 14 16  1  0  0  0  0
 14  2  1  0  0  0  0
 15 14  1  0  0  0  0
 17 26  1  0  0  0  0
 18 20  1  0  0  0  0
 18 17  2  0  0  0  0
 19 18  1  0  0  0  0
 20 22  2  0  0  0  0
 21 20  1  0  0  0  0
 22 23  1  0  0  0  0
 22 24  1  0  0  0  0
 24 25  1  0  0  0  0
 26 24  2  0  0  0  0
 26 27  1  0  0  0  0
 27 29  1  0  0  0  0
 27 28  1  0  0  0  0
 30 31  1  0  0  0  0
 30 32  1  0  0  0  0
 30  3  1  0  0  0  0
 33 30  1  0  0  0  0
 34 33  1  0  0  0  0
 35 33  1  0  0  0  0
 36  4  1  0  0  0  0
 36 39  1  0  0  0  0
 37 36  1  0  0  0  0
 38 36  1  0  0  0  0
 39 48  1  0  0  0  0
 40 39  2  0  0  0  0
 40 42  1  0  0  0  0
 41 40  1  0  0  0  0
 42 44  2  0  0  0  0
 43 42  1  0  0  0  0
 44 46  1  0  0  0  0
 44 45  1  0  0  0  0
 46 47  1  0  0  0  0
 48  5  1  0  0  0  0
 48 46  2  0  0  0  0
 49 50  1  0  0  0  0
 51 49  1  0  0  0  0
M  END
