1,2,3,4,5
 OpenBabel05122313063D

 59 63  0  0  1  0  0  0  0  0999 V2000
    1.5748   -1.3418   -0.6722 N   0  0  0  0  0  2  0  0  0  0  0  0
    0.1764   -0.0003    1.4746 N   0  0  0  0  0  2  0  0  0  0  0  0
   -1.5155   -1.3756   -0.3826 N   0  0  0  0  0  2  0  0  0  0  0  0
    1.5748    1.3420   -0.6717 N   0  0  0  0  0  2  0  0  0  0  0  0
   -1.5154    1.3757   -0.3820 N   0  0  0  0  0  2  0  0  0  0  0  0
   -0.9504   -0.0005    2.2522 C   0  0  2  0  0  3  0  0  0  0  0  0
    3.6287    2.2063    0.2215 C   0  0  0  0  0  0  0  0  0  0  0  0
    4.4398    2.1497    0.9555 H   0  0  0  0  0  0  0  0  0  0  0  0
    2.6051   -1.2433    0.2163 C   0  0  1  0  0  3  0  0  0  0  0  0
   -2.4251    1.2479    0.6267 C   0  0  2  0  0  3  0  0  0  0  0  0
    3.6287   -2.2064    0.2209 C   0  0  0  0  0  0  0  0  0  0  0  0
    4.4397   -2.1500    0.9549 H   0  0  0  0  0  0  0  0  0  0  0  0
    1.5368   -0.0006    3.4637 C   0  0  0  0  0  0  0  0  0  0  0  0
    2.5264   -0.0006    3.9322 H   0  0  0  0  0  0  0  0  0  0  0  0
   -2.4251   -1.2482    0.6262 C   0  0  1  0  0  3  0  0  0  0  0  0
    3.6327    3.2409   -0.7226 C   0  0  0  0  0  0  0  0  0  0  0  0
    4.4296    3.9986   -0.7119 H   0  0  0  0  0  0  0  0  0  0  0  0
    1.4081   -0.0003    2.0691 C   0  0  0  0  0  0  0  0  0  0  0  0
   -2.3135   -0.0004    1.5309 C   0  0  1  0  0  0  0  0  0  0  0  0
    2.6051    1.2433    0.2167 C   0  0  2  0  0  3  0  0  0  0  0  0
   -1.6525    2.4032   -1.2595 C   0  0  0  0  0  0  0  0  0  0  0  0
   -0.9392    2.4215   -2.0901 H   0  0  0  0  0  0  0  0  0  0  0  0
    1.6286    2.2899   -1.6417 C   0  0  0  0  0  0  0  0  0  0  0  0
    0.8587    2.2024   -2.4191 H   0  0  0  0  0  0  0  0  0  0  0  0
   -1.6526   -2.4026   -1.2606 C   0  0  0  0  0  0  0  0  0  0  0  0
   -0.9393   -2.4206   -2.0912 H   0  0  0  0  0  0  0  0  0  0  0  0
   -3.4534   -0.0006    2.5609 C   0  0  0  0  0  0  0  0  0  0  0  0
   -3.4031   -0.8935    3.2093 H   0  0  0  0  0  0  0  0  0  0  0  0
   -4.4379   -0.0004    2.0601 H   0  0  0  0  0  0  0  0  0  0  0  0
   -3.4030    0.8919    3.2098 H   0  0  0  0  0  0  0  0  0  0  0  0
   -3.4409    2.2047    0.7947 C   0  0  0  0  0  0  0  0  0  0  0  0
   -4.1605    2.1093    1.6146 H   0  0  0  0  0  0  0  0  0  0  0  0
    0.3945   -0.0008    4.2694 C   0  0  0  0  0  0  0  0  0  0  0  0
    0.4795   -0.0010    5.3652 H   0  0  0  0  0  0  0  0  0  0  0  0
    3.9264   -0.0003    1.9696 C   0  0  0  0  0  0  0  0  0  0  0  0
    3.9816   -0.8924    2.6187 H   0  0  0  0  0  0  0  0  0  0  0  0
    3.9816    0.8918    2.6188 H   0  0  0  0  0  0  0  0  0  0  0  0
    4.8164   -0.0002    1.3153 H   0  0  0  0  0  0  0  0  0  0  0  0
    2.6291    3.2589   -1.6983 C   0  0  0  0  0  0  0  0  0  0  0  0
    2.6174    4.0055   -2.5046 H   0  0  0  0  0  0  0  0  0  0  0  0
    1.6287   -2.2894   -1.6424 C   0  0  0  0  0  0  0  0  0  0  0  0
    0.8588   -2.2017   -2.4198 H   0  0  0  0  0  0  0  0  0  0  0  0
   -3.4409   -2.2051    0.7938 C   0  0  0  0  0  0  0  0  0  0  0  0
   -4.1604   -2.1101    1.6138 H   0  0  0  0  0  0  0  0  0  0  0  0
    2.6342   -0.0002    1.1392 C   0  0  2  0  0  0  0  0  0  0  0  0
   -2.6460   -3.3729   -1.1516 C   0  0  0  0  0  0  0  0  0  0  0  0
   -2.7025   -4.1762   -1.8990 H   0  0  0  0  0  0  0  0  0  0  0  0
   -2.6459    3.3734   -1.1501 C   0  0  0  0  0  0  0  0  0  0  0  0
   -2.7024    4.1771   -1.8971 H   0  0  0  0  0  0  0  0  0  0  0  0
    3.6327   -3.2408   -0.7234 C   0  0  0  0  0  0  0  0  0  0  0  0
    4.4296   -3.9985   -0.7130 H   0  0  0  0  0  0  0  0  0  0  0  0
   -3.5533    3.2843   -0.0888 C   0  0  0  0  0  0  0  0  0  0  0  0
   -4.3495    4.0309    0.0442 H   0  0  0  0  0  0  0  0  0  0  0  0
   -0.8584   -0.0007    3.6503 C   0  0  0  0  0  0  0  0  0  0  0  0
   -1.7626   -0.0009    4.2675 H   0  0  0  0  0  0  0  0  0  0  0  0
    2.6291   -3.2585   -1.6991 C   0  0  0  0  0  0  0  0  0  0  0  0
    2.6174   -4.0050   -2.5056 H   0  0  0  0  0  0  0  0  0  0  0  0
   -3.5534   -3.2843   -0.0902 C   0  0  0  0  0  0  0  0  0  0  0  0
   -4.3496   -4.0309    0.0424 H   0  0  0  0  0  0  0  0  0  0  0  0
  1  9  1  0  0  0  0
  2 18  1  0  0  0  0
  2  6  1  0  0  0  0
  3 15  1  0  0  0  0
  4 20  1  0  0  0  0
  5 10  1  0  0  0  0
  6 19  1  1  0  0  0
  6 54  1  0  0  0  0
  7  8  1  0  0  0  0
  9 11  1  0  0  0  0
  9 45  1  6  0  0  0
 10 31  1  0  0  0  0
 10 19  1  6  0  0  0
 11 12  1  0  0  0  0
 13 14  1  0  0  0  0
 13 33  1  0  0  0  0
 15 43  1  0  0  0  0
 15 19  1  6  0  0  0
 16 17  1  0  0  0  0
 16  7  2  0  0  0  0
 18 13  2  0  0  0  0
 19 27  1  1  0  0  0
 20  7  1  0  0  0  0
 20 45  1  6  0  0  0
 21 48  2  0  0  0  0
 21  5  1  0  0  0  0
 22 21  1  0  0  0  0
 23  4  1  0  0  0  0
 24 23  1  0  0  0  0
 25 46  2  0  0  0  0
 25  3  1  0  0  0  0
 26 25  1  0  0  0  0
 27 28  1  0  0  0  0
 27 30  1  0  0  0  0
 29 27  1  0  0  0  0
 31 32  1  0  0  0  0
 33 34  1  0  0  0  0
 35 36  1  0  0  0  0
 35 37  1  0  0  0  0
 38 35  1  0  0  0  0
 39 23  2  0  0  0  0
 39 16  1  0  0  0  0
 40 39  1  0  0  0  0
 41  1  1  0  0  0  0
 42 41  1  0  0  0  0
 43 44  1  0  0  0  0
 45 35  1  1  0  0  0
 45 18  1  0  0  0  0
 46 58  1  0  0  0  0
 47 46  1  0  0  0  0
 48 52  1  0  0  0  0
 49 48  1  0  0  0  0
 50 51  1  0  0  0  0
 50 11  2  0  0  0  0
 52 53  1  0  0  0  0
 52 31  2  0  0  0  0
 54 55  1  0  0  0  0
 54 33  2  0  0  0  0
 56 41  2  0  0  0  0
 56 50  1  0  0  0  0
 57 56  1  0  0  0  0
 58 59  1  0  0  0  0
 58 43  2  0  0  0  0
M  END
