1,2,3,6,9
 OpenBabel05122313063D

 49 48  0  0  1  0  0  0  0  0999 V2000
    0.1027    1.6162   -0.0437 N   0  0  0  0  0  2  0  0  0  0  0  0
   -2.2127    0.4015    0.0908 N   0  0  0  0  0  0  0  0  0  0  0  0
   -0.5172   -0.2431   -1.9619 N   0  0  0  0  0  0  0  0  0  0  0  0
   -0.2684    0.6379   -2.4419 H   0  0  0  0  0  0  0  0  0  0  0  0
    0.0600   -0.9821   -2.3888 H   0  0  0  0  0  0  0  0  0  0  0  0
   -0.6364   -0.5561    2.0372 N   0  0  0  0  0  0  0  0  0  0  0  0
   -0.2747   -1.5250    2.0444 H   0  0  0  0  0  0  0  0  0  0  0  0
   -0.1535   -0.0358    2.7817 H   0  0  0  0  0  0  0  0  0  0  0  0
    1.8625   -0.3267    0.0621 N   0  0  0  0  0  0  0  0  0  0  0  0
   -1.0160    2.5580    0.0560 C   0  0  0  0  0  0  0  0  0  0  0  0
   -0.7733    3.4380    0.6893 H   0  0  0  0  0  0  0  0  0  0  0  0
   -1.2418    2.9634   -0.9568 H   0  0  0  0  0  0  0  0  0  0  0  0
   -2.1989    1.7940    0.6348 C   0  0  0  0  0  0  0  0  0  0  0  0
   -3.1648    2.3086    0.4377 H   0  0  0  0  0  0  0  0  0  0  0  0
   -2.0849    1.7325    1.7310 H   0  0  0  0  0  0  0  0  0  0  0  0
   -2.7723    0.3769   -1.2950 C   0  0  0  0  0  0  0  0  0  0  0  0
   -3.8453    0.0910   -1.2869 H   0  0  0  0  0  0  0  0  0  0  0  0
   -2.7224    1.4081   -1.7019 H   0  0  0  0  0  0  0  0  0  0  0  0
   -1.9539   -0.5576   -2.1719 C   0  0  0  0  0  0  0  0  0  0  0  0
   -2.2596   -0.4601   -3.2361 H   0  0  0  0  0  0  0  0  0  0  0  0
   -2.0895   -1.6118   -1.8607 H   0  0  0  0  0  0  0  0  0  0  0  0
   -2.8991   -0.5317    1.0185 C   0  0  0  0  0  0  0  0  0  0  0  0
   -3.9478   -0.2106    1.2161 H   0  0  0  0  0  0  0  0  0  0  0  0
   -2.9110   -1.5238    0.5292 H   0  0  0  0  0  0  0  0  0  0  0  0
   -2.1019   -0.6099    2.3241 C   0  0  0  0  0  0  0  0  0  0  0  0
   -2.3695   -1.5413    2.8618 H   0  0  0  0  0  0  0  0  0  0  0  0
   -2.3628    0.2260    3.0021 H   0  0  0  0  0  0  0  0  0  0  0  0
    1.2988    2.0236   -0.4162 C   0  0  1  0  0  3  0  0  0  0  0  0
    2.2588    0.8966   -0.6874 C   0  0  0  0  0  0  0  0  0  0  0  0
    2.2348    0.6552   -1.7729 H   0  0  0  0  0  0  0  0  0  0  0  0
    3.3104    1.1930   -0.4770 H   0  0  0  0  0  0  0  0  0  0  0  0
    1.6741    3.4527   -0.6613 C   0  0  0  0  0  0  0  0  0  0  0  0
    1.0750    3.9102   -1.4792 H   0  0  0  0  0  0  0  0  0  0  0  0
    2.7405    3.5447   -0.9383 H   0  0  0  0  0  0  0  0  0  0  0  0
    1.5061    4.0834    0.2390 H   0  0  0  0  0  0  0  0  0  0  0  0
    3.7508   -0.0543    1.8314 C   0  0  0  0  0  0  0  0  0  0  0  0
    4.2405    0.8071    1.3358 H   0  0  0  0  0  0  0  0  0  0  0  0
    4.3237   -0.9687    1.5863 H   0  0  0  0  0  0  0  0  0  0  0  0
    3.8517    0.1073    2.9228 H   0  0  0  0  0  0  0  0  0  0  0  0
    2.2612   -0.1751    1.5013 C   0  0  0  0  0  0  0  0  0  0  0  0
    1.8537   -1.0608    2.0264 H   0  0  0  0  0  0  0  0  0  0  0  0
    1.7301    0.7213    1.8785 H   0  0  0  0  0  0  0  0  0  0  0  0
    2.1868   -1.9684   -1.9029 C   0  0  0  0  0  0  0  0  0  0  0  0
    2.3022   -1.1606   -2.6551 H   0  0  0  0  0  0  0  0  0  0  0  0
    1.1660   -2.3980   -1.9325 H   0  0  0  0  0  0  0  0  0  0  0  0
    2.8814   -2.7741   -2.2116 H   0  0  0  0  0  0  0  0  0  0  0  0
    2.5455   -1.5425   -0.4866 C   0  0  0  0  0  0  0  0  0  0  0  0
    2.2847   -2.3702    0.2016 H   0  0  0  0  0  0  0  0  0  0  0  0
    3.6437   -1.3813   -0.4229 H   0  0  0  0  0  0  0  0  0  0  0  0
  1 10  1  0  0  0  0
  2 13  1  0  0  0  0
  2 22  1  0  0  0  0
  4  3  1  0  0  0  0
  5  3  1  0  0  0  0
  6  7  1  0  0  0  0
  6 25  1  0  0  0  0
  6  8  1  0  0  0  0
  9 40  1  0  0  0  0
 10 13  1  0  0  0  0
 10 11  1  0  0  0  0
 12 10  1  0  0  0  0
 13 15  1  0  0  0  0
 14 13  1  0  0  0  0
 16 17  1  0  0  0  0
 16  2  1  0  0  0  0
 18 16  1  0  0  0  0
 19  3  1  0  0  0  0
 19 21  1  0  0  0  0
 19 16  1  0  0  0  0
 20 19  1  0  0  0  0
 22 23  1  0  0  0  0
 22 25  1  0  0  0  0
 24 22  1  0  0  0  0
 25 26  1  0  0  0  0
 25 27  1  0  0  0  0
 28  1  1  6  0  0  0
 29 31  1  0  0  0  0
 29 28  1  0  0  0  0
 29  9  1  0  0  0  0
 30 29  1  0  0  0  0
 32 28  1  0  0  0  0
 32 35  1  0  0  0  0
 33 32  1  0  0  0  0
 34 32  1  0  0  0  0
 36 39  1  0  0  0  0
 37 36  1  0  0  0  0
 38 36  1  0  0  0  0
 40 36  1  0  0  0  0
 40 42  1  0  0  0  0
 40 41  1  0  0  0  0
 43 47  1  0  0  0  0
 44 43  1  0  0  0  0
 45 43  1  0  0  0  0
 46 43  1  0  0  0  0
 47 49  1  0  0  0  0
 47  9  1  0  0  0  0
 47 48  1  0  0  0  0
M  END
