1,3,4,5,6
 OpenBabel05122313063D

 49 52  0  0  1  0  0  0  0  0999 V2000
   -0.6517   -1.9400    0.0914 N   0  0  0  0  0  2  0  0  0  0  0  0
    0.5187    0.0011   -3.6593 O   0  0  0  0  0  0  0  0  0  0  0  0
   -2.0702    0.0023   -1.0258 N   0  0  0  0  0  0  0  0  0  0  0  0
    1.2069   -0.0017    1.1678 N   0  0  0  0  0  2  0  0  0  0  0  0
    0.5805   -0.0002   -1.3261 N   0  0  0  0  0  2  0  0  0  0  0  0
   -0.6477    1.9410    0.0926 N   0  0  0  0  0  2  0  0  0  0  0  0
    2.7733   -0.0039    3.0076 C   0  0  0  0  0  0  0  0  0  0  0  0
    2.9127   -0.0045    4.0979 H   0  0  0  0  0  0  0  0  0  0  0  0
   -0.0159    0.0010   -2.5511 C   0  0  0  0  0  0  0  0  0  0  0  0
    2.2772   -0.0023    0.2903 C   0  0  0  0  0  0  0  0  0  0  0  0
   -2.8120    1.2469   -0.7095 C   0  0  0  0  0  0  0  0  0  0  0  0
   -3.5446    1.5131   -1.5022 H   0  0  0  0  0  0  0  0  0  0  0  0
   -3.3804    1.0722    0.2275 H   0  0  0  0  0  0  0  0  0  0  0  0
    1.4585   -0.0025    2.4863 C   0  0  0  0  0  0  0  0  0  0  0  0
    0.5859   -0.0021    3.1538 H   0  0  0  0  0  0  0  0  0  0  0  0
    1.9448   -0.0015   -1.1030 C   0  0  0  0  0  0  0  0  0  0  0  0
   -1.8159    2.3544   -0.4775 C   0  0  1  0  0  3  0  0  0  0  0  0
    0.3059    2.8574    0.3681 C   0  0  0  0  0  0  0  0  0  0  0  0
    1.2358    2.4763    0.8122 H   0  0  0  0  0  0  0  0  0  0  0  0
    3.8607   -0.0044    2.1441 C   0  0  0  0  0  0  0  0  0  0  0  0
    4.8908   -0.0055    2.5312 H   0  0  0  0  0  0  0  0  0  0  0  0
   -2.0603   -3.6934   -0.7859 C   0  0  0  0  0  0  0  0  0  0  0  0
   -3.0092   -3.9836   -1.2598 H   0  0  0  0  0  0  0  0  0  0  0  0
    0.1212   -4.2202    0.0985 C   0  0  0  0  0  0  0  0  0  0  0  0
    0.9254   -4.9288    0.3417 H   0  0  0  0  0  0  0  0  0  0  0  0
    3.6393   -0.0037    0.7364 C   0  0  0  0  0  0  0  0  0  0  0  0
   -1.0766   -4.6496   -0.4882 C   0  0  0  0  0  0  0  0  0  0  0  0
   -1.2410   -5.7114   -0.7223 H   0  0  0  0  0  0  0  0  0  0  0  0
    0.1303    4.2195    0.1004 C   0  0  0  0  0  0  0  0  0  0  0  0
    0.9361    4.9262    0.3438 H   0  0  0  0  0  0  0  0  0  0  0  0
   -1.5496    0.0022   -2.4353 C   0  0  0  0  0  0  0  0  0  0  0  0
   -1.9327   -0.8845   -2.9794 H   0  0  0  0  0  0  0  0  0  0  0  0
   -1.9314    0.8895   -2.9792 H   0  0  0  0  0  0  0  0  0  0  0  0
   -1.8209   -2.3506   -0.4787 C   0  0  1  0  0  3  0  0  0  0  0  0
    0.2999   -2.8585    0.3665 C   0  0  0  0  0  0  0  0  0  0  0  0
    1.2307   -2.4795    0.8106 H   0  0  0  0  0  0  0  0  0  0  0  0
    4.6682   -0.0042   -0.2456 C   0  0  0  0  0  3  0  0  0  0  0  0
    5.7194   -0.0053    0.0771 H   0  0  0  0  0  0  0  0  0  0  0  0
    4.3318   -0.0034   -1.5976 C   0  0  0  0  0  0  0  0  0  0  0  0
    5.1335   -0.0038   -2.3518 H   0  0  0  0  0  0  0  0  0  0  0  0
   -2.8147   -1.2409   -0.7102 C   0  0  0  0  0  0  0  0  0  0  0  0
   -3.5477   -1.5051   -1.5032 H   0  0  0  0  0  0  0  0  0  0  0  0
   -3.3828   -1.0655    0.2268 H   0  0  0  0  0  0  0  0  0  0  0  0
    2.9891   -0.0020   -2.0442 C   0  0  0  0  0  0  0  0  0  0  0  0
    2.7373   -0.0014   -3.1115 H   0  0  0  0  0  0  0  0  0  0  0  0
   -1.0665    4.6518   -0.4864 C   0  0  0  0  0  0  0  0  0  0  0  0
   -1.2285    5.7140   -0.7202 H   0  0  0  0  0  0  0  0  0  0  0  0
   -2.0523    3.6978   -0.7843 C   0  0  0  0  0  0  0  0  0  0  0  0
   -3.0005    3.9902   -1.2583 H   0  0  0  0  0  0  0  0  0  0  0  0
  1 35  1  0  0  0  0
  2  9  2  0  0  0  0
  3 41  1  0  0  0  0
  3 11  1  0  0  0  0
  4 14  1  0  0  0  0
  5 16  1  0  0  0  0
  6 18  1  0  0  0  0
  7  8  1  0  0  0  0
  9 31  1  0  0  0  0
  9  5  1  0  0  0  0
 10 26  1  0  0  0  0
 10  4  1  0  0  0  0
 11 13  1  0  0  0  0
 12 11  1  0  0  0  0
 14  7  2  0  0  0  0
 14 15  1  0  0  0  0
 16 10  2  0  0  0  0
 17 11  1  1  0  0  0
 17  6  1  0  0  0  0
 18 19  1  0  0  0  0
 20 21  1  0  0  0  0
 20  7  1  0  0  0  0
 22 27  2  0  0  0  0
 22 34  1  0  0  0  0
 23 22  1  0  0  0  0
 24 25  1  0  0  0  0
 24 35  2  0  0  0  0
 26 20  2  0  0  0  0
 27 24  1  0  0  0  0
 28 27  1  0  0  0  0
 29 30  1  0  0  0  0
 29 18  2  0  0  0  0
 31  3  1  0  0  0  0
 32 31  1  0  0  0  0
 33 31  1  0  0  0  0
 34 41  1  1  0  0  0
 34  1  1  0  0  0  0
 35 36  1  0  0  0  0
 37 38  1  0  0  0  0
 37 26  1  0  0  0  0
 39 37  1  0  0  0  0
 40 39  1  0  0  0  0
 41 43  1  0  0  0  0
 42 41  1  0  0  0  0
 44 39  2  0  0  0  0
 44 16  1  0  0  0  0
 45 44  1  0  0  0  0
 46 29  1  0  0  0  0
 47 46  1  0  0  0  0
 48 46  2  0  0  0  0
 48 17  1  0  0  0  0
 49 48  1  0  0  0  0
M  END
