1,20,23,35,47
 OpenBabel05122313063D

 67 71  0  0  1  0  0  0  0  0999 V2000
   -0.4360   -0.1689    1.5225 N   0  0  0  0  0  0  0  0  0  0  0  0
   -1.0959    1.1318    1.5480 C   0  0  0  0  0  0  0  0  0  0  0  0
   -1.8033    1.3924    0.1937 C   0  0  2  0  0  0  0  0  0  0  0  0
   -2.8870    0.2939   -0.0352 C   0  0  0  0  0  0  0  0  0  0  0  0
   -3.8286    0.4789    0.9820 O   0  0  0  0  0  0  0  0  0  0  0  0
   -3.4738    0.3526   -1.3162 O   0  0  0  0  0  0  0  0  0  0  0  0
   -3.7898    1.2785   -1.4153 H   0  0  0  0  0  0  0  0  0  0  0  0
   -2.1602   -1.0940    0.0230 C   0  0  1  0  0  0  0  0  0  0  0  0
   -1.4461   -1.2158    1.3935 C   0  0  0  0  0  0  0  0  0  0  0  0
   -2.2098   -1.1224    2.1946 H   0  0  0  0  0  0  0  0  0  0  0  0
   -0.9683   -2.2058    1.5081 H   0  0  0  0  0  0  0  0  0  0  0  0
   -3.2089   -2.1893   -0.1787 C   0  0  0  0  0  0  0  0  0  0  0  0
   -4.1078   -2.2011    0.8514 O   0  0  0  0  0  0  0  0  0  0  0  0
   -5.1436   -3.1978    0.7619 C   0  0  0  0  0  0  0  0  0  0  0  0
   -5.7586   -3.0766    1.6703 H   0  0  0  0  0  0  0  0  0  0  0  0
   -5.7517   -3.0452   -0.1512 H   0  0  0  0  0  0  0  0  0  0  0  0
   -4.6960   -4.2095    0.7263 H   0  0  0  0  0  0  0  0  0  0  0  0
   -3.2840   -2.9625   -1.1115 O   0  0  0  0  0  0  0  0  0  0  0  0
   -1.1545   -1.1998   -1.1628 C   0  0  1  0  0  0  0  0  0  0  0  0
   -0.2637    0.0089   -1.2901 N   0  0  0  0  0  0  0  0  0  0  0  0
   -0.8433    1.3694   -1.0335 C   0  0  2  0  0  0  0  0  0  0  0  0
    0.3213    2.2920   -0.7547 C   0  0  2  0  0  3  0  0  0  0  0  0
    1.2649    1.7190    0.0445 N   0  0  0  0  0  2  0  0  0  0  0  0
    2.3049    2.4638    0.4871 C   0  0  0  0  0  0  0  0  0  0  0  0
    2.4367    3.8096    0.1187 C   0  0  0  0  0  0  0  0  0  0  0  0
    1.4843    4.4013   -0.7232 C   0  0  0  0  0  0  0  0  0  0  0  0
    0.3982    3.6241   -1.1647 C   0  0  0  0  0  0  0  0  0  0  0  0
   -0.3857    4.0430   -1.8130 H   0  0  0  0  0  0  0  0  0  0  0  0
    1.5771    5.4541   -1.0279 H   0  0  0  0  0  0  0  0  0  0  0  0
    3.2881    4.3869    0.5068 H   0  0  0  0  0  0  0  0  0  0  0  0
    2.9689    1.9606    1.2066 H   0  0  0  0  0  0  0  0  0  0  0  0
   -1.4245    1.7081   -1.9165 H   0  0  0  0  0  0  0  0  0  0  0  0
    0.4237   -0.0146   -2.6236 C   0  0  0  0  0  0  0  0  0  0  0  0
    1.9293   -0.0902   -2.5015 C   0  0  1  0  0  3  0  0  0  0  0  0
    2.4141   -0.2328   -1.2409 N   0  0  0  0  0  2  0  0  0  0  0  0
    3.7510   -0.3287   -1.0397 C   0  0  0  0  0  0  0  0  0  0  0  0
    4.6533   -0.2904   -2.1063 C   0  0  0  0  0  0  0  0  0  0  0  0
    4.1669   -0.1419   -3.4154 C   0  0  0  0  0  0  0  0  0  0  0  0
    2.7809   -0.0386   -3.6116 C   0  0  0  0  0  0  0  0  0  0  0  0
    2.3585    0.0810   -4.6205 H   0  0  0  0  0  0  0  0  0  0  0  0
    4.8550   -0.1042   -4.2728 H   0  0  0  0  0  0  0  0  0  0  0  0
    5.7309   -0.3719   -1.9040 H   0  0  0  0  0  0  0  0  0  0  0  0
    4.0267   -0.4320    0.0252 H   0  0  0  0  0  0  0  0  0  0  0  0
    0.1320    0.8814   -3.2106 H   0  0  0  0  0  0  0  0  0  0  0  0
    0.0598   -0.8915   -3.1974 H   0  0  0  0  0  0  0  0  0  0  0  0
   -0.2147   -2.3782   -0.9483 C   0  0  1  0  0  3  0  0  0  0  0  0
    0.8442   -2.0702   -0.1431 N   0  0  0  0  0  2  0  0  0  0  0  0
    1.7229   -3.0313    0.2263 C   0  0  0  0  0  0  0  0  0  0  0  0
    1.5860   -4.3467   -0.2291 C   0  0  0  0  0  0  0  0  0  0  0  0
    0.5264   -4.6711   -1.0917 C   0  0  0  0  0  0  0  0  0  0  0  0
   -0.3926   -3.6686   -1.4533 C   0  0  0  0  0  0  0  0  0  0  0  0
   -1.2567   -3.8805   -2.0959 H   0  0  0  0  0  0  0  0  0  0  0  0
    0.4089   -5.6943   -1.4778 H   0  0  0  0  0  0  0  0  0  0  0  0
    2.3116   -5.1075    0.0933 H   0  0  0  0  0  0  0  0  0  0  0  0
    2.5138   -2.6721    0.9071 H   0  0  0  0  0  0  0  0  0  0  0  0
   -1.7592   -1.3338   -2.0817 H   0  0  0  0  0  0  0  0  0  0  0  0
   -2.4737    2.7685    0.2690 C   0  0  0  0  0  0  0  0  0  0  0  0
   -3.2286    3.0250   -0.8519 O   0  0  0  0  0  0  0  0  0  0  0  0
   -3.9192    4.2876   -0.8459 C   0  0  0  0  0  0  0  0  0  0  0  0
   -4.4574    4.3465   -1.8081 H   0  0  0  0  0  0  0  0  0  0  0  0
   -4.6277    4.3372    0.0041 H   0  0  0  0  0  0  0  0  0  0  0  0
   -3.1955    5.1204   -0.7496 H   0  0  0  0  0  0  0  0  0  0  0  0
   -2.3703    3.5589    1.1769 O   0  0  0  0  0  0  0  0  0  0  0  0
   -0.3530    1.9127    1.7836 H   0  0  0  0  0  0  0  0  0  0  0  0
   -1.8760    1.1755    2.3369 H   0  0  0  0  0  0  0  0  0  0  0  0
   -4.3171   -0.3674    1.0885 H   0  0  0  0  0  0  0  0  0  0  0  0
    0.1541   -0.3913    2.4650 H   0  0  0  0  0  0  0  0  0  0  0  0
  1  2  1  0  0  0  0
  1 67  1  0  0  0  0
  2 64  1  0  0  0  0
  2 65  1  0  0  0  0
  3 57  1  1  0  0  0
  3  2  1  0  0  0  0
  4  8  1  0  0  0  0
  4  3  1  0  0  0  0
  4  5  1  0  0  0  0
  5 66  1  0  0  0  0
  6  4  1  0  0  0  0
  7  6  1  0  0  0  0
  8 12  1  6  0  0  0
  8  9  1  0  0  0  0
  9 11  1  0  0  0  0
  9  1  1  0  0  0  0
  9 10  1  0  0  0  0
 12 13  1  0  0  0  0
 14 13  1  0  0  0  0
 14 15  1  0  0  0  0
 16 14  1  0  0  0  0
 17 14  1  0  0  0  0
 18 12  2  0  0  0  0
 19 56  1  6  0  0  0
 19 46  1  0  0  0  0
 19  8  1  0  0  0  0
 20 19  1  0  0  0  0
 20 21  1  0  0  0  0
 21 32  1  6  0  0  0
 21 22  1  0  0  0  0
 21  3  1  0  0  0  0
 22 27  1  1  0  0  0
 22 23  1  0  0  0  0
 23 24  1  0  0  0  0
 24 31  1  0  0  0  0
 25 24  2  0  0  0  0
 25 30  1  0  0  0  0
 26 25  1  0  0  0  0
 27 26  2  0  0  0  0
 28 27  1  0  0  0  0
 29 26  1  0  0  0  0
 33 20  1  0  0  0  0
 34 33  1  6  0  0  0
 34 35  1  0  0  0  0
 35 36  1  0  0  0  0
 36 43  1  0  0  0  0
 37 42  1  0  0  0  0
 37 36  2  0  0  0  0
 38 37  1  0  0  0  0
 39 38  2  0  0  0  0
 39 34  1  0  0  0  0
 40 39  1  0  0  0  0
 41 38  1  0  0  0  0
 44 33  1  0  0  0  0
 45 33  1  0  0  0  0
 46 51  1  1  0  0  0
 46 47  1  0  0  0  0
 47 48  1  0  0  0  0
 48 55  1  0  0  0  0
 49 54  1  0  0  0  0
 49 48  2  0  0  0  0
 50 49  1  0  0  0  0
 51 50  2  0  0  0  0
 52 51  1  0  0  0  0
 53 50  1  0  0  0  0
 57 63  2  0  0  0  0
 58 59  1  0  0  0  0
 58 57  1  0  0  0  0
 59 62  1  0  0  0  0
 59 61  1  0  0  0  0
 60 59  1  0  0  0  0
M  END
