4,5,6,7,8
 OpenBabel05122313063D

 50 51  0  0  0  0  0  0  0  0999 V2000
    0.4798    3.5032   -0.1714 O   0  0  0  0  0  0  0  0  0  0  0  0
    5.8914   -1.7852   -0.2925 O   0  0  0  0  0  0  0  0  0  0  0  0
    6.5605    0.2191    0.2798 O   0  0  0  0  0  0  0  0  0  0  0  0
   -2.4587    1.4613    0.1664 N   0  0  0  0  0  0  0  0  0  0  0  0
   -2.4827   -0.6255   -1.7957 N   0  0  0  0  0  0  0  0  0  0  0  0
   -1.1271   -2.3743    0.0182 N   0  0  0  0  0  0  0  0  0  0  0  0
   -1.2342   -0.3678    2.0272 N   0  0  0  0  0  0  0  0  0  0  0  0
    0.2984    1.1748   -0.3947 N   0  0  0  0  0  2  0  0  0  0  0  0
    5.6978   -0.5925   -0.0499 N   0  0  0  0  0  0  0  0  0  0  0  0
   -3.7240    1.1166   -0.5046 C   0  0  0  0  0  0  0  0  0  0  0  0
   -3.4753    0.4711   -1.8746 C   0  0  0  0  0  0  0  0  0  0  0  0
   -3.0220   -1.9694   -1.5215 C   0  0  0  0  0  0  0  0  0  0  0  0
   -1.8810   -2.9134   -1.1348 C   0  0  0  0  0  0  0  0  0  0  0  0
   -1.7115   -2.6843    1.3414 C   0  0  0  0  0  0  0  0  0  0  0  0
   -1.0994   -1.7813    2.4143 C   0  0  0  0  0  0  0  0  0  0  0  0
   -2.4990    0.3028    2.3757 C   0  0  0  0  0  0  0  0  0  0  0  0
   -2.5869    1.6358    1.6303 C   0  0  0  0  0  0  0  0  0  0  0  0
   -1.7097    2.5782   -0.4565 C   0  0  0  0  0  0  0  0  0  0  0  0
   -0.1680    2.4671   -0.3021 C   0  0  0  0  0  0  0  0  0  0  0  0
    1.6549    0.8287   -0.3316 C   0  0  0  0  0  0  0  0  0  0  0  0
    1.9921   -0.5186   -0.6397 C   0  0  0  0  0  0  0  0  0  0  0  0
    3.3007   -0.9904   -0.5551 C   0  0  0  0  0  0  0  0  0  0  0  0
    4.3075   -0.0994   -0.1597 C   0  0  0  0  0  0  0  0  0  0  0  0
    4.0205    1.2424    0.1240 C   0  0  0  0  0  0  0  0  0  0  0  0
    2.7065    1.7116    0.0354 C   0  0  0  0  0  0  0  0  0  0  0  0
   -4.2731    0.4074    0.1503 H   0  0  0  0  0  0  0  0  0  0  0  0
   -4.3857    2.0038   -0.6336 H   0  0  0  0  0  0  0  0  0  0  0  0
   -3.0779    1.2263   -2.5803 H   0  0  0  0  0  0  0  0  0  0  0  0
   -4.4406    0.1223   -2.3008 H   0  0  0  0  0  0  0  0  0  0  0  0
   -1.9494   -0.6544   -2.6752 H   0  0  0  0  0  0  0  0  0  0  0  0
   -3.7520   -1.8850   -0.6891 H   0  0  0  0  0  0  0  0  0  0  0  0
   -3.5796   -2.3874   -2.3881 H   0  0  0  0  0  0  0  0  0  0  0  0
   -1.1755   -3.0097   -1.9861 H   0  0  0  0  0  0  0  0  0  0  0  0
   -2.2795   -3.9307   -0.9311 H   0  0  0  0  0  0  0  0  0  0  0  0
   -0.1599   -2.7267   -0.0070 H   0  0  0  0  0  0  0  0  0  0  0  0
   -2.8066   -2.5133    1.2797 H   0  0  0  0  0  0  0  0  0  0  0  0
   -1.5729   -3.7530    1.6133 H   0  0  0  0  0  0  0  0  0  0  0  0
   -0.0167   -2.0027    2.5122 H   0  0  0  0  0  0  0  0  0  0  0  0
   -1.5633   -2.0008    3.4009 H   0  0  0  0  0  0  0  0  0  0  0  0
   -0.4437    0.1783    2.3951 H   0  0  0  0  0  0  0  0  0  0  0  0
   -3.3387   -0.3639    2.0853 H   0  0  0  0  0  0  0  0  0  0  0  0
   -2.5991    0.4770    3.4701 H   0  0  0  0  0  0  0  0  0  0  0  0
   -1.7522    2.2873    1.9620 H   0  0  0  0  0  0  0  0  0  0  0  0
   -3.5259    2.1689    1.8980 H   0  0  0  0  0  0  0  0  0  0  0  0
   -1.9264    2.5994   -1.5437 H   0  0  0  0  0  0  0  0  0  0  0  0
   -2.0193    3.5634   -0.0491 H   0  0  0  0  0  0  0  0  0  0  0  0
    1.1954   -1.1902   -1.0055 H   0  0  0  0  0  0  0  0  0  0  0  0
    3.5764   -2.0256   -0.7975 H   0  0  0  0  0  0  0  0  0  0  0  0
    4.8457    1.9067    0.4155 H   0  0  0  0  0  0  0  0  0  0  0  0
    2.4686    2.7613    0.2411 H   0  0  0  0  0  0  0  0  0  0  0  0
  2  9  2  0  0  0  0
  4 17  1  0  0  0  0
  5 12  1  0  0  0  0
  6 14  1  0  0  0  0
  7 16  1  0  0  0  0
  7 40  1  0  0  0  0
  7 15  1  0  0  0  0
  8 20  1  0  0  0  0
  8 19  1  0  0  0  0
  9  3  2  0  0  0  0
 10 26  1  0  0  0  0
 10  4  1  0  0  0  0
 11  5  1  0  0  0  0
 11 10  1  0  0  0  0
 12 13  1  0  0  0  0
 12 31  1  0  0  0  0
 13 34  1  0  0  0  0
 13  6  1  0  0  0  0
 14 37  1  0  0  0  0
 14 15  1  0  0  0  0
 15 38  1  0  0  0  0
 15 39  1  0  0  0  0
 16 42  1  0  0  0  0
 17 44  1  0  0  0  0
 17 43  1  0  0  0  0
 17 16  1  0  0  0  0
 18 19  1  0  0  0  0
 18 46  1  0  0  0  0
 18  4  1  0  0  0  0
 19  1  2  0  0  0  0
 20 25  1  0  0  0  0
 21 22  1  0  0  0  0
 21 20  2  0  0  0  0
 22 23  2  0  0  0  0
 23  9  1  0  0  0  0
 23 24  1  0  0  0  0
 24 49  1  0  0  0  0
 25 24  2  0  0  0  0
 25 50  1  0  0  0  0
 27 10  1  0  0  0  0
 28 11  1  0  0  0  0
 29 11  1  0  0  0  0
 30  5  1  0  0  0  0
 32 12  1  0  0  0  0
 33 13  1  0  0  0  0
 35  6  1  0  0  0  0
 36 14  1  0  0  0  0
 41 16  1  0  0  0  0
 45 18  1  0  0  0  0
 47 21  1  0  0  0  0
 48 22  1  0  0  0  0
M  END
