1,3,5,7,10
 OpenBabel05122313063D

 71 82  0  0  0  0  0  0  0  0999 V2000
   -0.8503   -1.7162   -0.6584 N   0  0  0  0  0  2  0  0  0  0  0  0
    1.1036   -3.0540   -1.1726 N   0  0  0  0  0  0  0  0  0  0  0  0
    1.6615   -0.8365   -0.4285 N   0  0  0  0  0  0  0  0  0  0  0  0
    3.1384    1.1057   -0.1162 N   0  0  0  0  0  0  0  0  0  0  0  0
    0.8307    1.7061   -0.5874 N   0  0  0  0  0  0  0  0  0  0  0  0
   -1.1004    3.0574   -1.1536 N   0  0  0  0  0  0  0  0  0  0  0  0
   -1.6873    0.8222   -0.4856 N   0  0  0  0  0  0  0  0  0  0  0  0
   -3.1765   -1.1252   -0.2767 N   0  0  0  0  0  0  0  0  0  0  0  0
    2.3452   -0.0876    1.7889 N   0  0  0  0  0  2  0  0  0  0  0  0
   -0.0475   -0.0275    1.3257 N   0  0  0  0  0  0  0  0  0  0  0  0
   -2.4582    0.0278    1.6854 N   0  0  0  0  0  2  0  0  0  0  0  0
   -2.2394   -1.9291   -0.6580 C   0  0  0  0  0  0  0  0  0  0  0  0
   -2.4757   -3.2993   -1.1757 C   0  0  0  0  0  0  0  0  0  0  0  0
   -3.6496   -4.0273   -1.3786 C   0  0  0  0  0  0  0  0  0  0  0  0
   -4.6281   -3.5818   -1.1471 H   0  0  0  0  0  0  0  0  0  0  0  0
   -3.5250   -5.3352   -1.8851 C   0  0  0  0  0  0  0  0  0  0  0  0
   -4.4293   -5.9369   -2.0631 H   0  0  0  0  0  0  0  0  0  0  0  0
   -2.2602   -5.8915   -2.1665 C   0  0  0  0  0  0  0  0  0  0  0  0
   -2.1980   -6.9180   -2.5586 H   0  0  0  0  0  0  0  0  0  0  0  0
   -1.0794   -5.1576   -1.9479 C   0  0  0  0  0  0  0  0  0  0  0  0
   -0.0838   -5.5783   -2.1504 H   0  0  0  0  0  0  0  0  0  0  0  0
   -1.2108   -3.8564   -1.4550 C   0  0  0  0  0  0  0  0  0  0  0  0
   -0.2026   -2.8344   -1.1021 C   0  0  0  0  0  0  0  0  0  0  0  0
    1.9468   -2.1083   -0.7023 C   0  0  0  0  0  0  0  0  0  0  0  0
    3.3532   -2.3811   -0.3508 C   0  0  0  0  0  0  0  0  0  0  0  0
    4.1419   -3.5237   -0.5308 C   0  0  0  0  0  0  0  0  0  0  0  0
    3.7221   -4.4175   -1.0148 H   0  0  0  0  0  0  0  0  0  0  0  0
    5.4705   -3.4737   -0.0754 C   0  0  0  0  0  0  0  0  0  0  0  0
    6.1255   -4.3487   -0.2042 H   0  0  0  0  0  0  0  0  0  0  0  0
    5.9766   -2.3149    0.5477 C   0  0  0  0  0  0  0  0  0  0  0  0
    7.0215   -2.3029    0.8942 H   0  0  0  0  0  0  0  0  0  0  0  0
    5.1689   -1.1760    0.7386 C   0  0  0  0  0  0  0  0  0  0  0  0
    5.5526   -0.2714    1.2320 H   0  0  0  0  0  0  0  0  0  0  0  0
    3.8555   -1.2294    0.2792 C   0  0  0  0  0  0  0  0  0  0  0  0
    2.7322   -0.1981    0.3836 C   0  0  0  0  0  0  0  0  0  0  0  0
    2.2198    1.9196   -0.5179 C   0  0  0  0  0  0  0  0  0  0  0  0
    2.4773    3.3000   -0.9959 C   0  0  0  0  0  0  0  0  0  0  0  0
    3.6593    4.0302   -1.1367 C   0  0  0  0  0  0  0  0  0  0  0  0
    4.6269    3.5780   -0.8745 H   0  0  0  0  0  0  0  0  0  0  0  0
    3.5566    5.3480   -1.6214 C   0  0  0  0  0  0  0  0  0  0  0  0
    4.4680    5.9515   -1.7503 H   0  0  0  0  0  0  0  0  0  0  0  0
    2.3047    5.9126   -1.9427 C   0  0  0  0  0  0  0  0  0  0  0  0
    2.2598    6.9470   -2.3158 H   0  0  0  0  0  0  0  0  0  0  0  0
    1.1153    5.1771   -1.7872 C   0  0  0  0  0  0  0  0  0  0  0  0
    0.1293    5.6044   -2.0205 H   0  0  0  0  0  0  0  0  0  0  0  0
    1.2250    3.8656   -1.3151 C   0  0  0  0  0  3  0  0  0  0  0  0
    0.2025    2.8379   -1.0259 C   0  0  0  0  0  0  0  0  0  0  0  0
   -1.9643    2.1008   -0.7390 C   0  0  0  0  0  0  0  0  0  0  0  0
   -3.3817    2.3676   -0.4348 C   0  0  0  0  0  0  0  0  0  0  0  0
   -4.1618    3.5166   -0.6148 C   0  0  0  0  0  0  0  0  0  0  0  0
   -3.7234    4.4224   -1.0584 H   0  0  0  0  0  0  0  0  0  0  0  0
   -5.5067    3.4572   -0.2120 C   0  0  0  0  0  0  0  0  0  0  0  0
   -6.1554    4.3366   -0.3425 H   0  0  0  0  0  0  0  0  0  0  0  0
   -6.0371    2.2831    0.3603 C   0  0  0  0  0  0  0  0  0  0  0  0
   -7.0946    2.2640    0.6658 H   0  0  0  0  0  0  0  0  0  0  0  0
   -5.2386    1.1381    0.5522 C   0  0  0  0  0  0  0  0  0  0  0  0
   -5.6417    0.2213    1.0061 H   0  0  0  0  0  0  0  0  0  0  0  0
   -3.9083    1.2005    0.1454 C   0  0  0  0  0  0  0  0  0  0  0  0
   -2.7917    0.1640    0.2687 C   0  0  0  0  0  0  0  0  0  0  0  0
    1.0897   -0.0433    2.1216 C   0  0  0  0  0  0  0  0  0  0  0  0
    0.6100   -0.0404    3.5282 C   0  0  0  0  0  0  0  0  0  0  0  0
    1.3093   -0.0462    4.7372 C   0  0  0  0  0  0  0  0  0  0  0  0
    2.4090   -0.0357    4.7408 H   0  0  0  0  0  0  0  0  0  0  0  0
    0.5567   -0.0665    5.9261 C   0  0  0  0  0  0  0  0  0  0  0  0
    1.0748   -0.0703    6.8973 H   0  0  0  0  0  0  0  0  0  0  0  0
   -0.8527   -0.0832    5.8950 C   0  0  0  0  0  0  0  0  0  0  0  0
   -1.4129   -0.1002    6.8424 H   0  0  0  0  0  0  0  0  0  0  0  0
   -1.5526   -0.0779    4.6742 C   0  0  0  0  0  0  0  0  0  0  0  0
   -2.6513   -0.0884    4.6295 H   0  0  0  0  0  0  0  0  0  0  0  0
   -0.8009   -0.0586    3.4970 C   0  0  0  0  0  3  0  0  0  0  0  0
   -1.2184   -0.0262    2.0710 C   0  0  0  0  0  0  0  0  0  0  0  0
  1 12  1  0  0  0  0
  2 23  2  0  0  0  0
  2 24  1  0  0  0  0
  3 35  1  0  0  0  0
  4 35  2  0  0  0  0
  5 36  1  0  0  0  0
  6 47  1  0  0  0  0
  6 48  2  0  0  0  0
  7 59  2  0  0  0  0
  8 59  1  0  0  0  0
  9 60  1  0  0  0  0
 10 71  2  0  0  0  0
 10 60  1  0  0  0  0
 11 71  1  0  0  0  0
 12  8  2  0  0  0  0
 13 12  1  0  0  0  0
 14 13  1  0  0  0  0
 14 15  1  0  0  0  0
 16 14  2  0  0  0  0
 17 16  1  0  0  0  0
 18 20  2  0  0  0  0
 18 16  1  0  0  0  0
 19 18  1  0  0  0  0
 20 22  1  0  0  0  0
 21 20  1  0  0  0  0
 22 13  2  0  0  0  0
 22 23  1  0  0  0  0
 23  1  1  0  0  0  0
 24  3  2  0  0  0  0
 24 25  1  0  0  0  0
 25 34  1  0  0  0  0
 26 25  2  0  0  0  0
 26 28  1  0  0  0  0
 27 26  1  0  0  0  0
 28 30  2  0  0  0  0
 29 28  1  0  0  0  0
 30 32  1  0  0  0  0
 30 31  1  0  0  0  0
 32 33  1  0  0  0  0
 34 35  1  0  0  0  0
 34 32  2  0  0  0  0
 35  9  1  0  0  0  0
 36  4  1  0  0  0  0
 37 36  2  0  0  0  0
 38 37  1  0  0  0  0
 38 39  1  0  0  0  0
 40 38  2  0  0  0  0
 41 40  1  0  0  0  0
 42 44  2  0  0  0  0
 42 40  1  0  0  0  0
 43 42  1  0  0  0  0
 44 46  1  0  0  0  0
 45 44  1  0  0  0  0
 46 47  1  0  0  0  0
 46 37  1  0  0  0  0
 47  5  2  0  0  0  0
 48  7  1  0  0  0  0
 48 49  1  0  0  0  0
 49 58  1  0  0  0  0
 50 49  2  0  0  0  0
 50 52  1  0  0  0  0
 51 50  1  0  0  0  0
 52 54  2  0  0  0  0
 53 52  1  0  0  0  0
 54 56  1  0  0  0  0
 54 55  1  0  0  0  0
 56 57  1  0  0  0  0
 58 59  1  0  0  0  0
 58 56  2  0  0  0  0
 59 11  1  0  0  0  0
 60 61  2  0  0  0  0
 61 62  1  0  0  0  0
 62 63  1  0  0  0  0
 62 64  2  0  0  0  0
 64 65  1  0  0  0  0
 66 64  1  0  0  0  0
 66 67  1  0  0  0  0
 68 66  2  0  0  0  0
 69 68  1  0  0  0  0
 70 61  1  0  0  0  0
 70 68  1  0  0  0  0
 71 70  1  0  0  0  0
M  END
