3,4,5,6,7
 OpenBabel05122313063D

 61 65  0  0  1  0  0  0  0  0999 V2000
    3.5936   -0.9208   -1.6862 O   0  0  0  0  0  0  0  0  0  0  0  0
   -3.5671   -0.9422   -1.7154 O   0  0  0  0  0  0  0  0  0  0  0  0
    0.0082   -0.5810   -1.0481 N   0  0  0  0  0  2  0  0  0  0  0  0
   -1.4835    1.5420    0.0222 N   0  0  0  0  0  2  0  0  0  0  0  0
   -1.5211   -0.8008    1.2689 N   0  0  0  0  0  2  0  0  0  0  0  0
    1.5164   -0.8020    1.2747 N   0  0  0  0  0  2  0  0  0  0  0  0
    1.4615    1.5551    0.0031 N   0  0  0  0  0  2  0  0  0  0  0  0
    1.1760   -1.0396   -1.5703 C   0  0  2  0  0  3  0  0  0  0  0  0
    1.2197   -2.0879   -2.4972 C   0  0  0  0  0  0  0  0  0  0  0  0
    0.0248   -2.6437   -2.9639 C   0  0  0  0  0  0  0  0  0  0  0  0
   -1.1787   -2.0996   -2.5052 C   0  0  0  0  0  0  0  0  0  0  0  0
   -1.1506   -1.0495   -1.5801 C   0  0  0  0  0  0  0  0  0  0  0  0
    2.4644   -0.5021   -0.9591 C   0  0  2  0  0  0  0  0  0  0  0  0
    3.7191   -0.4956   -3.0491 C   0  0  0  0  0  0  0  0  0  0  0  0
    2.4883    1.0151   -0.7056 C   0  0  2  0  0  3  0  0  0  0  0  0
    3.6328    1.7569   -1.0362 C   0  0  0  0  0  0  0  0  0  0  0  0
    3.7132    3.1098   -0.6905 C   0  0  0  0  0  0  0  0  0  0  0  0
    2.6537    3.6662    0.0331 C   0  0  0  0  0  0  0  0  0  0  0  0
    1.5731    2.8551    0.3793 C   0  0  0  0  0  0  0  0  0  0  0  0
    2.5335   -1.1321    0.4341 C   0  0  1  0  0  3  0  0  0  0  0  0
    3.6054   -1.9524    0.8028 C   0  0  0  0  0  0  0  0  0  0  0  0
    3.6570   -2.4500    2.1099 C   0  0  0  0  0  0  0  0  0  0  0  0
    2.6478   -2.0670    3.0026 C   0  0  0  0  0  0  0  0  0  0  0  0
    1.6147   -1.2409    2.5542 C   0  0  0  0  0  0  0  0  0  0  0  0
   -2.4451   -0.5161   -0.9813 C   0  0  1  0  0  0  0  0  0  0  0  0
   -3.6817   -0.5291   -3.0827 C   0  0  0  0  0  0  0  0  0  0  0  0
   -2.4820    1.0025   -0.7273 C   0  0  1  0  0  3  0  0  0  0  0  0
   -3.6221    1.7399   -1.0823 C   0  0  0  0  0  0  0  0  0  0  0  0
   -3.7329    3.0825   -0.7055 C   0  0  0  0  0  0  0  0  0  0  0  0
   -2.7179    3.6278    0.0872 C   0  0  0  0  0  0  0  0  0  0  0  0
   -1.6384    2.8222    0.4492 C   0  0  0  0  0  0  0  0  0  0  0  0
   -2.5249   -1.1411    0.4157 C   0  0  2  0  0  3  0  0  0  0  0  0
   -3.5983   -1.9627    0.7772 C   0  0  0  0  0  0  0  0  0  0  0  0
   -3.6682   -2.4459    2.0890 C   0  0  0  0  0  0  0  0  0  0  0  0
   -2.6784   -2.0440    2.9949 C   0  0  0  0  0  0  0  0  0  0  0  0
   -1.6414   -1.2191    2.5533 C   0  0  0  0  0  0  0  0  0  0  0  0
    2.1915   -2.4887   -2.8040 H   0  0  0  0  0  0  0  0  0  0  0  0
    0.0313   -3.4921   -3.6628 H   0  0  0  0  0  0  0  0  0  0  0  0
   -2.1445   -2.5101   -2.8185 H   0  0  0  0  0  0  0  0  0  0  0  0
    4.7161   -0.0306   -3.1871 H   0  0  0  0  0  0  0  0  0  0  0  0
    3.6540   -1.3693   -3.7295 H   0  0  0  0  0  0  0  0  0  0  0  0
    2.9400    0.2369   -3.3413 H   0  0  0  0  0  0  0  0  0  0  0  0
    4.4727    1.2588   -1.5304 H   0  0  0  0  0  0  0  0  0  0  0  0
    4.6010    3.7032   -0.9532 H   0  0  0  0  0  0  0  0  0  0  0  0
    2.6682    4.7121    0.3703 H   0  0  0  0  0  0  0  0  0  0  0  0
    0.7967    3.2324    1.0480 H   0  0  0  0  0  0  0  0  0  0  0  0
    4.3794   -2.1691    0.0565 H   0  0  0  0  0  0  0  0  0  0  0  0
    4.4827   -3.1022    2.4301 H   0  0  0  0  0  0  0  0  0  0  0  0
    2.6569   -2.3878    4.0538 H   0  0  0  0  0  0  0  0  0  0  0  0
    0.8651   -0.8543    3.2511 H   0  0  0  0  0  0  0  0  0  0  0  0
   -2.9052    0.2069   -3.3732 H   0  0  0  0  0  0  0  0  0  0  0  0
   -3.6038   -1.4072   -3.7561 H   0  0  0  0  0  0  0  0  0  0  0  0
   -4.6811   -0.0732   -3.2339 H   0  0  0  0  0  0  0  0  0  0  0  0
   -4.4390    1.2469   -1.6179 H   0  0  0  0  0  0  0  0  0  0  0  0
   -4.6160    3.6726   -0.9906 H   0  0  0  0  0  0  0  0  0  0  0  0
   -2.7690    4.6581    0.4664 H   0  0  0  0  0  0  0  0  0  0  0  0
   -0.9102    3.1699    1.1880 H   0  0  0  0  0  0  0  0  0  0  0  0
   -4.3606   -2.1902    0.0221 H   0  0  0  0  0  0  0  0  0  0  0  0
   -4.4954   -3.0993    2.4028 H   0  0  0  0  0  0  0  0  0  0  0  0
   -2.7064   -2.3483    4.0507 H   0  0  0  0  0  0  0  0  0  0  0  0
   -0.9094   -0.8104    3.2576 H   0  0  0  0  0  0  0  0  0  0  0  0
  4 31  1  0  0  0  0
  5 36  1  0  0  0  0
  6 24  1  0  0  0  0
  7 19  1  0  0  0  0
  8  3  1  0  0  0  0
  8 13  1  1  0  0  0
  9  8  1  0  0  0  0
 10 11  1  0  0  0  0
 10  9  2  0  0  0  0
 11 12  2  0  0  0  0
 12  3  1  0  0  0  0
 12 25  1  0  0  0  0
 13  1  1  6  0  0  0
 14  1  1  0  0  0  0
 15 13  1  1  0  0  0
 15  7  1  0  0  0  0
 16 15  1  0  0  0  0
 16 17  2  0  0  0  0
 17 18  1  0  0  0  0
 18 45  1  0  0  0  0
 18 19  2  0  0  0  0
 19 46  1  0  0  0  0
 20 13  1  1  0  0  0
 20 21  1  0  0  0  0
 20  6  1  0  0  0  0
 21 22  2  0  0  0  0
 22 48  1  0  0  0  0
 22 23  1  0  0  0  0
 23 49  1  0  0  0  0
 24 23  2  0  0  0  0
 24 50  1  0  0  0  0
 25  2  1  6  0  0  0
 26  2  1  0  0  0  0
 27 25  1  1  0  0  0
 27  4  1  0  0  0  0
 28 27  1  0  0  0  0
 28 29  2  0  0  0  0
 29 30  1  0  0  0  0
 30 31  2  0  0  0  0
 30 56  1  0  0  0  0
 31 57  1  0  0  0  0
 32 25  1  1  0  0  0
 32 33  1  0  0  0  0
 32  5  1  0  0  0  0
 33 34  2  0  0  0  0
 34 59  1  0  0  0  0
 34 35  1  0  0  0  0
 35 60  1  0  0  0  0
 36 35  2  0  0  0  0
 36 61  1  0  0  0  0
 37  9  1  0  0  0  0
 38 10  1  0  0  0  0
 39 11  1  0  0  0  0
 40 14  1  0  0  0  0
 41 14  1  0  0  0  0
 42 14  1  0  0  0  0
 43 16  1  0  0  0  0
 44 17  1  0  0  0  0
 47 21  1  0  0  0  0
 51 26  1  0  0  0  0
 52 26  1  0  0  0  0
 53 26  1  0  0  0  0
 54 28  1  0  0  0  0
 55 29  1  0  0  0  0
 58 33  1  0  0  0  0
M  END
