3,4,5,6,7
q = -3.0, confidence = 0.34

 63 65  0  0  0  0  0  0  0  0999 V2000
   -2.6353    1.4280   -0.1423 Si  0  0  0  0  0  0  0  0  0  0  0  0
    1.0737   -1.4620   -1.9098 Si  0  0  0  0  0  0  0  0  0  0  0  0
    1.5097   -0.9567   -0.2842 N   0  0  0  0  0  2  0  0  0  0  0  0
   -1.3469   -2.3637    1.1129 N   0  0  0  0  0  2  0  0  0  0  0  0
   -0.6567   -1.8816   -1.5559 N   0  0  0  0  0  0  0  0  0  0  0  0
   -0.8963    1.4399   -0.2395 N   0  0  0  0  0  2  0  0  0  0  0  0
   -2.7761   -0.3870   -0.0623 N   0  0  0  0  0  0  0  0  0  0  0  0
   -1.7727   -1.2119   -2.2404 C   0  0  0  0  0  0  0  0  0  0  0  0
   -2.0772   -1.7493   -3.1718 H   0  0  0  0  0  0  0  0  0  0  0  0
   -1.4348   -0.2039   -2.5507 H   0  0  0  0  0  0  0  0  0  0  0  0
   -3.0192   -1.0752   -1.3523 C   0  0  0  0  0  0  0  0  0  0  0  0
   -3.8121   -0.5642   -1.9435 H   0  0  0  0  0  0  0  0  0  0  0  0
   -3.4194   -2.0842   -1.1330 H   0  0  0  0  0  0  0  0  0  0  0  0
   -3.4159   -1.0636    1.0855 C   0  0  0  0  0  0  0  0  0  0  0  0
   -4.5220   -1.1491    0.9673 H   0  0  0  0  0  0  0  0  0  0  0  0
   -3.2351   -0.4434    1.9861 H   0  0  0  0  0  0  0  0  0  0  0  0
   -2.7802   -2.4544    1.2940 C   0  0  0  0  0  0  0  0  0  0  0  0
   -3.0738   -2.8170    2.3116 H   0  0  0  0  0  0  0  0  0  0  0  0
   -3.2414   -3.1869    0.5854 H   0  0  0  0  0  0  0  0  0  0  0  0
   -0.7311   -3.4570    0.3783 C   0  0  0  0  0  0  0  0  0  0  0  0
   -1.1129   -4.4587    0.6920 H   0  0  0  0  0  0  0  0  0  0  0  0
    0.3608   -3.4722    0.5912 H   0  0  0  0  0  0  0  0  0  0  0  0
   -0.9352   -3.2805   -1.1479 C   0  0  0  0  0  0  0  0  0  0  0  0
   -0.3103   -4.0059   -1.7146 H   0  0  0  0  0  0  0  0  0  0  0  0
   -1.9861   -3.5205   -1.4097 H   0  0  0  0  0  0  0  0  0  0  0  0
    2.0537   -2.9676   -2.4771 C   0  0  0  0  0  0  0  0  0  0  0  0
    1.6548   -3.3807   -3.4262 H   0  0  0  0  0  0  0  0  0  0  0  0
    2.0568   -3.7682   -1.7113 H   0  0  0  0  0  0  0  0  0  0  0  0
    3.1089   -2.6738   -2.6486 H   0  0  0  0  0  0  0  0  0  0  0  0
    1.0992   -0.1148   -3.2274 C   0  0  0  0  0  0  0  0  0  0  0  0
    0.5996   -0.4477   -4.1606 H   0  0  0  0  0  0  0  0  0  0  0  0
    2.1452    0.1493   -3.4831 H   0  0  0  0  0  0  0  0  0  0  0  0
    0.6084    0.8095   -2.8618 H   0  0  0  0  0  0  0  0  0  0  0  0
   -3.3492    2.1731    1.4360 C   0  0  0  0  0  0  0  0  0  0  0  0
   -4.4263    1.9412    1.5644 H   0  0  0  0  0  0  0  0  0  0  0  0
   -3.2390    3.2761    1.4098 H   0  0  0  0  0  0  0  0  0  0  0  0
   -2.7921    1.8088    2.3225 H   0  0  0  0  0  0  0  0  0  0  0  0
   -3.5558    2.0905   -1.6525 C   0  0  0  0  0  0  0  0  0  0  0  0
   -4.6280    1.8048   -1.6238 H   0  0  0  0  0  0  0  0  0  0  0  0
   -3.1174    1.7247   -2.6019 H   0  0  0  0  0  0  0  0  0  0  0  0
   -3.5055    3.1973   -1.6730 H   0  0  0  0  0  0  0  0  0  0  0  0
    2.8096   -0.7141    0.1791 C   0  0  0  0  0  0  0  0  0  0  0  0
    3.8754   -0.3572   -0.6900 C   0  0  0  0  0  0  0  0  0  0  0  0
    3.6818   -0.2550   -1.7690 H   0  0  0  0  0  0  0  0  0  0  0  0
    5.1636   -0.1045   -0.1975 C   0  0  0  0  0  0  0  0  0  0  0  0
    5.9645    0.1722   -0.9011 H   0  0  0  0  0  0  0  0  0  0  0  0
    5.4341   -0.1926    1.1767 C   0  0  0  0  0  0  0  0  0  0  0  0
    6.4445    0.0093    1.5619 H   0  0  0  0  0  0  0  0  0  0  0  0
    4.3905   -0.5409    2.0518 C   0  0  0  0  0  0  0  0  0  0  0  0
    4.5818   -0.6165    3.1337 H   0  0  0  0  0  0  0  0  0  0  0  0
    3.1039   -0.7999    1.5659 C   0  0  0  0  0  0  0  0  0  0  0  0
    2.2869   -1.0685    2.2532 H   0  0  0  0  0  0  0  0  0  0  0  0
   -0.0979    2.5713   -0.4301 C   0  0  0  0  0  0  0  0  0  0  0  0
   -0.6333    3.8886   -0.4876 C   0  0  0  0  0  0  0  0  0  0  0  0
   -1.7178    4.0393   -0.3687 H   0  0  0  0  0  0  0  0  0  0  0  0
    0.1867    5.0072   -0.6828 C   0  0  0  0  0  0  0  0  0  0  0  0
   -0.2705    6.0087   -0.7207 H   0  0  0  0  0  0  0  0  0  0  0  0
    1.5767    4.8632   -0.8232 C   0  0  0  0  0  0  0  0  0  0  0  0
    2.2192    5.7435   -0.9723 H   0  0  0  0  0  0  0  0  0  0  0  0
    2.1278    3.5726   -0.7632 C   0  0  0  0  0  0  0  0  0  0  0  0
    3.2149    3.4269   -0.8634 H   0  0  0  0  0  0  0  0  0  0  0  0
    1.3124    2.4507   -0.5731 C   0  0  0  0  0  0  0  0  0  0  0  0
    1.7656    1.4516   -0.5341 H   0  0  0  0  0  0  0  0  0  0  0  0
  1  7  1  0  0  0  0
  1 34  1  0  0  0  0
  2  5  1  0  0  0  0
  2  3  1  0  0  0  0
  3 42  1  0  0  0  0
  4 17  1  0  0  0  0
  5 23  1  0  0  0  0
  6  1  1  0  0  0  0
  7 14  1  0  0  0  0
  8  5  1  0  0  0  0
  8 11  1  0  0  0  0
  9  8  1  0  0  0  0
 10  8  1  0  0  0  0
 11 13  1  0  0  0  0
 11  7  1  0  0  0  0
 12 11  1  0  0  0  0
 14 17  1  0  0  0  0
 14 16  1  0  0  0  0
 15 14  1  0  0  0  0
 17 18  1  0  0  0  0
 19 17  1  0  0  0  0
 20 22  1  0  0  0  0
 20 21  1  0  0  0  0
 20  4  1  0  0  0  0
 23 20  1  0  0  0  0
 24 23  1  0  0  0  0
 25 23  1  0  0  0  0
 26  2  1  0  0  0  0
 26 28  1  0  0  0  0
 27 26  1  0  0  0  0
 29 26  1  0  0  0  0
 30 33  1  0  0  0  0
 30  2  1  0  0  0  0
 31 30  1  0  0  0  0
 32 30  1  0  0  0  0
 34 35  1  0  0  0  0
 34 37  1  0  0  0  0
 36 34  1  0  0  0  0
 38 39  1  0  0  0  0
 38  1  1  0  0  0  0
 40 38  1  0  0  0  0
 41 38  1  0  0  0  0
 42 51  1  0  0  0  0
 43 45  1  0  0  0  0
 43 42  2  0  0  0  0
 44 43  1  0  0  0  0
 45 47  2  0  0  0  0
 46 45  1  0  0  0  0
 47 48  1  0  0  0  0
 47 49  1  0  0  0  0
 49 50  1  0  0  0  0
 51 49  2  0  0  0  0
 51 52  1  0  0  0  0
 53  6  1  0  0  0  0
 54 53  1  0  0  0  0
 54 55  1  0  0  0  0
 56 54  2  0  0  0  0
 57 56  1  0  0  0  0
 58 60  2  0  0  0  0
 58 56  1  0  0  0  0
 59 58  1  0  0  0  0
 60 62  1  0  0  0  0
 61 60  1  0  0  0  0
 62 63  1  0  0  0  0
 62 53  2  0  0  0  0
M  END
