1,2,3,4,5
q = 0.0, confidence = 0.928

 47 51  0  0  1  0  0  0  0  0999 V2000
    1.1858   -1.6432   -0.6006 N   0  0  0  0  0  2  0  0  0  0  0  0
    2.0039    0.6417   -0.0062 N   0  0  0  0  0  2  0  0  0  0  0  0
    0.0009    2.1162    0.0001 N   0  0  0  0  0  2  0  0  0  0  0  0
   -2.0033    0.6436    0.0060 N   0  0  0  0  0  2  0  0  0  0  0  0
   -1.1875   -1.6419    0.6009 N   0  0  0  0  0  2  0  0  0  0  0  0
    0.6709   -2.7117   -1.2681 C   0  0  0  0  0  3  0  0  0  0  0  0
    1.4424   -3.8276   -1.5869 C   0  0  0  0  0  0  0  0  0  0  0  0
    2.7986   -3.8591   -1.2183 C   0  0  0  0  0  0  0  0  0  0  0  0
    3.3501   -2.7298   -0.6094 C   0  0  0  0  0  0  0  0  0  0  0  0
    2.5324   -1.6180   -0.3436 C   0  0  0  0  0  0  0  0  0  0  0  0
    2.9981   -0.3039    0.0563 C   0  0  1  0  0  3  0  0  0  0  0  0
    4.3245    0.0449    0.3471 C   0  0  0  0  0  0  0  0  0  0  0  0
    4.6545    1.3874    0.5655 C   0  0  0  0  0  0  0  0  0  0  0  0
    3.6468    2.3534    0.4696 C   0  0  0  0  0  0  0  0  0  0  0  0
    2.3305    1.9578    0.1915 C   0  0  0  0  0  0  0  0  0  0  0  0
    1.1770    2.8245    0.1037 C   0  0  1  0  0  3  0  0  0  0  0  0
    1.1987    4.2253    0.1169 C   0  0  0  0  0  0  0  0  0  0  0  0
    0.0023    4.9416    0.0002 C   0  0  0  0  0  0  0  0  0  0  0  0
   -1.1948    4.2265   -0.1166 C   0  0  0  0  0  0  0  0  0  0  0  0
   -1.1744    2.8256   -0.1035 C   0  0  0  0  0  0  0  0  0  0  0  0
   -2.3287    1.9600   -0.1917 C   0  0  1  0  0  3  0  0  0  0  0  0
   -3.6445    2.3568   -0.4699 C   0  0  0  0  0  0  0  0  0  0  0  0
   -4.6531    1.3917   -0.5661 C   0  0  0  0  0  0  0  0  0  0  0  0
   -4.3244    0.0489   -0.3478 C   0  0  0  0  0  0  0  0  0  0  0  0
   -2.9984   -0.3011   -0.0567 C   0  0  0  0  0  0  0  0  0  0  0  0
   -2.5340   -1.6156    0.3434 C   0  0  2  0  0  3  0  0  0  0  0  0
   -3.3527   -2.7267    0.6089 C   0  0  0  0  0  0  0  0  0  0  0  0
   -2.8024   -3.8564    1.2182 C   0  0  0  0  0  0  0  0  0  0  0  0
   -1.4463   -3.8260    1.5873 C   0  0  0  0  0  0  0  0  0  0  0  0
   -0.6738   -2.7107    1.2688 C   0  0  0  0  0  0  0  0  0  0  0  0
   -0.3854   -2.6403   -1.5535 H   0  0  0  0  0  0  0  0  0  0  0  0
    0.9729   -4.6655   -2.1202 H   0  0  0  0  0  0  0  0  0  0  0  0
    3.4229   -4.7374   -1.4358 H   0  0  0  0  0  0  0  0  0  0  0  0
    4.4205   -2.6859   -0.3687 H   0  0  0  0  0  0  0  0  0  0  0  0
    5.0957   -0.7355    0.3827 H   0  0  0  0  0  0  0  0  0  0  0  0
    5.6882    1.6788    0.7971 H   0  0  0  0  0  0  0  0  0  0  0  0
    3.8710    3.4166    0.6254 H   0  0  0  0  0  0  0  0  0  0  0  0
    2.1597    4.7481    0.2097 H   0  0  0  0  0  0  0  0  0  0  0  0
    0.0028    6.0400    0.0002 H   0  0  0  0  0  0  0  0  0  0  0  0
   -2.1553    4.7501   -0.2095 H   0  0  0  0  0  0  0  0  0  0  0  0
   -3.8677    3.4202   -0.6257 H   0  0  0  0  0  0  0  0  0  0  0  0
   -5.6865    1.6841   -0.7979 H   0  0  0  0  0  0  0  0  0  0  0  0
   -5.0964   -0.7308   -0.3835 H   0  0  0  0  0  0  0  0  0  0  0  0
   -4.4230   -2.6820    0.3677 H   0  0  0  0  0  0  0  0  0  0  0  0
   -3.4274   -4.7343    1.4354 H   0  0  0  0  0  0  0  0  0  0  0  0
   -0.9777   -4.6642    2.1209 H   0  0  0  0  0  0  0  0  0  0  0  0
    0.3825   -2.6401    1.5546 H   0  0  0  0  0  0  0  0  0  0  0  0
  1 10  1  0  0  0  0
  2 11  1  0  0  0  0
  2 15  1  0  0  0  0
  3 16  1  0  0  0  0
  5 30  1  0  0  0  0
  6  1  1  0  0  0  0
  7  6  1  0  0  0  0
  7  8  2  0  0  0  0
  8  9  1  0  0  0  0
  9 34  1  0  0  0  0
  9 10  2  0  0  0  0
 11 10  1  6  0  0  0
 11 12  1  0  0  0  0
 12 35  1  0  0  0  0
 12 13  2  0  0  0  0
 13 36  1  0  0  0  0
 14 13  1  0  0  0  0
 14 37  1  0  0  0  0
 15 14  2  0  0  0  0
 16 17  1  0  0  0  0
 16 15  1  6  0  0  0
 17 38  1  0  0  0  0
 18 39  1  0  0  0  0
 18 17  2  0  0  0  0
 19 20  2  0  0  0  0
 19 18  1  0  0  0  0
 20  3  1  0  0  0  0
 21 20  1  6  0  0  0
 21  4  1  0  0  0  0
 22 21  1  0  0  0  0
 23 22  2  0  0  0  0
 23 24  1  0  0  0  0
 24 25  2  0  0  0  0
 25  4  1  0  0  0  0
 26 25  1  1  0  0  0
 26  5  1  0  0  0  0
 26 27  1  0  0  0  0
 27 28  2  0  0  0  0
 28 45  1  0  0  0  0
 28 29  1  0  0  0  0
 29 46  1  0  0  0  0
 30 47  1  0  0  0  0
 30 29  2  0  0  0  0
 31  6  1  0  0  0  0
 32  7  1  0  0  0  0
 33  8  1  0  0  0  0
 40 19  1  0  0  0  0
 41 22  1  0  0  0  0
 42 23  1  0  0  0  0
 43 24  1  0  0  0  0
 44 27  1  0  0  0  0
M  END
