1,2,3,5
q = -2.0, confidence = 0.828

 75 78  0  0  1  0  0  0  0  0999 V2000
    3.0312   -0.0092   -0.5770 N   0  0  0  0  0  0  0  0  0  0  0  0
    1.2263    1.6591    0.3330 N   0  0  0  0  0  2  0  0  0  0  0  0
   -0.7439    0.2493   -0.9082 N   0  0  0  0  0  2  0  0  0  0  0  0
    2.4952    2.2391    2.2212 O   0  0  0  0  0  0  0  0  0  0  0  0
    0.9781   -1.3319   -1.8821 O   0  5  0  0  0  0  0  0  0  0  0  0
   -0.4770   -2.9092   -2.5703 O   0  0  0  0  0  0  0  0  0  0  0  0
   -3.6907   -4.9543    0.8655 O   0  0  0  0  0  0  0  0  0  0  0  0
   -4.3827   -4.7439    0.2119 H   0  0  0  0  0  0  0  0  0  0  0  0
   -1.0600    0.0551    2.1627 O   0  0  0  0  0  0  0  0  0  0  0  0
    3.5330   -1.4042   -0.7690 C   0  0  0  0  0  0  0  0  0  0  0  0
    3.1048   -1.7629   -1.7240 H   0  0  0  0  0  0  0  0  0  0  0  0
    3.0824   -2.0256    0.0284 H   0  0  0  0  0  0  0  0  0  0  0  0
    5.0603   -1.4881   -0.7803 C   0  0  0  0  0  0  0  0  0  0  0  0
    5.4744   -1.2079    0.2135 H   0  0  0  0  0  0  0  0  0  0  0  0
    5.3483   -2.5464   -0.9473 H   0  0  0  0  0  0  0  0  0  0  0  0
    5.6465   -0.5820   -1.8694 C   0  0  0  0  0  0  0  0  0  0  0  0
    6.7556   -0.6059   -1.8532 H   0  0  0  0  0  0  0  0  0  0  0  0
    5.3342   -0.9658   -2.8660 H   0  0  0  0  0  0  0  0  0  0  0  0
    5.1335    0.8524   -1.6984 C   0  0  0  0  0  0  0  0  0  0  0  0
    5.4579    1.4987   -2.5400 H   0  0  0  0  0  0  0  0  0  0  0  0
    5.5707    1.3036   -0.7811 H   0  0  0  0  0  0  0  0  0  0  0  0
    3.6028    0.8928   -1.6258 C   0  0  0  0  0  0  0  0  0  0  0  0
    3.2284    1.9163   -1.4307 H   0  0  0  0  0  0  0  0  0  0  0  0
    3.1669    0.5574   -2.5893 H   0  0  0  0  0  0  0  0  0  0  0  0
    3.2831    0.4829    0.7970 C   0  0  0  0  0  0  0  0  0  0  0  0
    4.3144    0.8647    0.9458 H   0  0  0  0  0  0  0  0  0  0  0  0
    3.1401   -0.3643    1.4977 H   0  0  0  0  0  0  0  0  0  0  0  0
    2.3019    1.5789    1.1972 C   0  0  0  0  0  0  0  0  0  0  0  0
    0.3137    2.7055    0.3719 C   0  0  0  0  0  0  0  0  0  0  0  0
    0.6610    3.9705    0.9258 C   0  0  0  0  0  0  0  0  0  0  0  0
    1.6500    4.0839    1.3821 H   0  0  0  0  0  0  0  0  0  0  0  0
   -0.2262    5.0449    0.9067 C   0  0  0  0  0  0  0  0  0  0  0  0
    0.0932    6.0091    1.3316 H   0  0  0  0  0  0  0  0  0  0  0  0
   -1.5126    4.9080    0.3498 C   0  0  0  0  0  0  0  0  0  0  0  0
   -2.2120    5.7563    0.3293 H   0  0  0  0  0  0  0  0  0  0  0  0
   -1.8874    3.6752   -0.1749 C   0  0  0  0  0  3  0  0  0  0  0  0
   -2.8897    3.5515   -0.6076 H   0  0  0  0  0  0  0  0  0  0  0  0
   -1.0094    2.5560   -0.1771 C   0  0  0  0  0  0  0  0  0  0  0  0
   -1.5191    1.2838   -0.6739 C   0  0  0  0  0  0  0  0  0  0  0  0
   -2.9992    1.1497   -0.8826 C   0  0  0  0  0  0  0  0  0  0  0  0
   -3.8606    0.9968    0.2230 C   0  0  0  0  0  0  0  0  0  0  0  0
   -3.4332    0.9826    1.2363 H   0  0  0  0  0  0  0  0  0  0  0  0
   -5.2418    0.8529    0.0264 C   0  0  0  0  0  0  0  0  0  0  0  0
   -5.9058    0.7271    0.8950 H   0  0  0  0  0  0  0  0  0  0  0  0
   -5.7759    0.8707   -1.2723 C   0  0  0  0  0  0  0  0  0  0  0  0
   -6.8602    0.7601   -1.4246 H   0  0  0  0  0  0  0  0  0  0  0  0
   -4.9238    1.0338   -2.3760 C   0  0  0  0  0  0  0  0  0  0  0  0
   -5.3375    1.0538   -3.3956 H   0  0  0  0  0  0  0  0  0  0  0  0
   -3.5408    1.1706   -2.1839 C   0  0  0  0  0  0  0  0  0  0  0  0
   -2.8691    1.2980   -3.0467 H   0  0  0  0  0  0  0  0  0  0  0  0
   -1.2888   -1.0812   -1.1998 C   0  0  1  0  0  0  0  0  0  0  0  0
   -2.2086   -1.0175   -1.8138 H   0  0  0  0  0  0  0  0  0  0  0  0
   -0.2177   -1.8681   -1.9779 C   0  0  0  0  0  0  0  0  0  0  0  0
   -1.6680   -1.7981    0.1388 C   0  0  1  0  0  0  0  0  0  0  0  0
   -2.3690   -1.1057    0.6454 H   0  0  0  0  0  0  0  0  0  0  0  0
   -2.4315   -3.1026   -0.1367 C   0  0  0  0  0  0  0  0  0  0  0  0
   -3.2782   -2.8620   -0.8192 H   0  0  0  0  0  0  0  0  0  0  0  0
   -1.8038   -3.8287   -0.6903 H   0  0  0  0  0  0  0  0  0  0  0  0
   -2.9921   -3.7515    1.1293 C   0  0  0  0  0  0  0  0  0  0  0  0
   -3.6257   -3.0063    1.6773 H   0  0  0  0  0  0  0  0  0  0  0  0
   -2.1639   -4.0205    1.8173 H   0  0  0  0  0  0  0  0  0  0  0  0
   -0.4666   -1.9598    1.0574 C   0  0  0  0  0  0  0  0  0  0  0  0
    0.4077   -3.0526    0.9330 C   0  0  0  0  0  0  0  0  0  0  0  0
    0.2184   -3.7898    0.1388 H   0  0  0  0  0  0  0  0  0  0  0  0
    1.5093   -3.2224    1.7881 C   0  0  0  0  0  0  0  0  0  0  0  0
    2.1676   -4.0959    1.6720 H   0  0  0  0  0  0  0  0  0  0  0  0
    1.7503   -2.2750    2.7920 C   0  0  0  0  0  0  0  0  0  0  0  0
    2.6028   -2.3942    3.4785 H   0  0  0  0  0  0  0  0  0  0  0  0
    0.9044   -1.1630    2.9364 C   0  0  0  0  0  0  0  0  0  0  0  0
    1.1161   -0.4187    3.7147 H   0  0  0  0  0  0  0  0  0  0  0  0
   -0.1988   -0.9980    2.0740 C   0  0  0  0  0  0  0  0  0  0  0  0
   -0.8197    1.0586    3.1419 C   0  0  0  0  0  0  0  0  0  0  0  0
   -0.9138    0.6491    4.1722 H   0  0  0  0  0  0  0  0  0  0  0  0
   -1.5939    1.8318    2.9832 H   0  0  0  0  0  0  0  0  0  0  0  0
    0.1799    1.5279    3.0204 H   0  0  0  0  0  0  0  0  0  0  0  0
  1 25  1  0  0  0  0
  2 29  1  0  0  0  0
  2 28  1  0  0  0  0
  3 39  1  0  0  0  0
  6 53  2  0  0  0  0
  7 59  1  0  0  0  0
  8  7  1  0  0  0  0
  9 72  1  0  0  0  0
 10  1  1  0  0  0  0
 10 12  1  0  0  0  0
 11 10  1  0  0  0  0
 13 10  1  0  0  0  0
 13 14  1  0  0  0  0
 15 13  1  0  0  0  0
 16 17  1  0  0  0  0
 16 19  1  0  0  0  0
 16 13  1  0  0  0  0
 18 16  1  0  0  0  0
 19 22  1  0  0  0  0
 19 21  1  0  0  0  0
 20 19  1  0  0  0  0
 22 23  1  0  0  0  0
 22  1  1  0  0  0  0
 24 22  1  0  0  0  0
 25 26  1  0  0  0  0
 25 28  1  0  0  0  0
 25 27  1  0  0  0  0
 28  4  2  0  0  0  0
 29 30  2  0  0  0  0
 30 31  1  0  0  0  0
 32 30  1  0  0  0  0
 32 33  1  0  0  0  0
 34 32  2  0  0  0  0
 35 34  1  0  0  0  0
 36 34  1  0  0  0  0
 37 36  1  0  0  0  0
 38 36  1  0  0  0  0
 38 29  1  0  0  0  0
 39 38  2  0  0  0  0
 40 39  1  0  0  0  0
 40 41  1  0  0  0  0
 41 42  1  0  0  0  0
 43 41  2  0  0  0  0
 43 44  1  0  0  0  0
 45 43  1  0  0  0  0
 46 45  1  0  0  0  0
 47 49  1  0  0  0  0
 47 45  2  0  0  0  0
 48 47  1  0  0  0  0
 49 40  2  0  0  0  0
 50 49  1  0  0  0  0
 51 52  1  6  0  0  0
 51  3  1  0  0  0  0
 51 54  1  0  0  0  0
 53  5  1  0  0  0  0
 53 51  1  0  0  0  0
 54 55  1  1  0  0  0
 54 62  1  0  0  0  0
 56 54  1  0  0  0  0
 56 59  1  0  0  0  0
 57 56  1  0  0  0  0
 58 56  1  0  0  0  0
 59 60  1  0  0  0  0
 59 61  1  0  0  0  0
 62 71  1  0  0  0  0
 63 62  2  0  0  0  0
 63 65  1  0  0  0  0
 64 63  1  0  0  0  0
 65 67  2  0  0  0  0
 66 65  1  0  0  0  0
 67 69  1  0  0  0  0
 67 68  1  0  0  0  0
 69 70  1  0  0  0  0
 71  9  1  0  0  0  0
 71 69  2  0  0  0  0
 72 73  1  0  0  0  0
 74 72  1  0  0  0  0
 75 72  1  0  0  0  0
M  CHG  1   5  -1
M  END
