1,4,5,6
q = -1.0

 44 46  0  0  0  0  0  0  0  0999 V2000
    0.1114    0.9444   -1.4366 O   0  5  0  0  0  0  0  0  0  0  0  0
   -3.0577    0.0736   -1.6594 C   0  0  0  0  0  3  0  0  0  0  0  0
   -2.5655   -0.2119   -2.6011 H   0  0  0  0  0  0  0  0  0  0  0  0
   -2.3226   -0.0120   -0.5387 N   0  0  0  0  0  2  0  0  0  0  0  0
   -0.5104    0.5097    1.4830 N   0  0  0  0  0  0  0  0  0  0  0  0
    1.3332   -1.3067   -0.3289 N   0  0  0  0  0  2  0  0  0  0  0  0
    3.3952   -1.8878   -1.4013 C   0  0  0  0  0  0  0  0  0  0  0  0
    3.9645   -2.0088   -2.3333 H   0  0  0  0  0  0  0  0  0  0  0  0
   -4.3853    0.5122   -1.6161 C   0  0  0  0  0  0  0  0  0  0  0  0
   -4.9692    0.5760   -2.5448 H   0  0  0  0  0  0  0  0  0  0  0  0
    1.0558    1.6732   -0.8940 C   0  0  0  0  0  0  0  0  0  0  0  0
   -2.8218    0.3288    0.6725 C   0  0  0  0  0  0  0  0  0  0  0  0
    0.8892    2.2585    0.4140 C   0  0  0  0  0  0  0  0  0  0  0  0
    0.4949   -0.0019    2.4288 C   0  0  0  0  0  0  0  0  0  0  0  0
    0.1028    0.0290    3.4717 H   0  0  0  0  0  0  0  0  0  0  0  0
    1.3686    0.6782    2.3989 H   0  0  0  0  0  0  0  0  0  0  0  0
    2.0706   -1.4527   -1.4500 C   0  0  0  0  0  3  0  0  0  0  0  0
    1.5723   -1.2027   -2.3984 H   0  0  0  0  0  0  0  0  0  0  0  0
   -0.3661    1.9540    1.1872 C   0  0  0  0  0  0  0  0  0  0  0  0
   -1.2412    2.2508    0.5710 H   0  0  0  0  0  0  0  0  0  0  0  0
   -0.4061    2.5581    2.1237 H   0  0  0  0  0  0  0  0  0  0  0  0
    0.9632   -1.4373    2.1180 C   0  0  0  0  0  0  0  0  0  0  0  0
    1.5232   -1.8157    2.9943 H   0  0  0  0  0  0  0  0  0  0  0  0
    0.0852   -2.1058    1.9756 H   0  0  0  0  0  0  0  0  0  0  0  0
   -4.9358    0.8656   -0.3756 C   0  0  0  0  0  0  0  0  0  0  0  0
   -5.9769    1.2148   -0.3078 H   0  0  0  0  0  0  0  0  0  0  0  0
    1.8417   -1.5754    0.9022 C   0  0  0  0  0  0  0  0  0  0  0  0
    2.2659    1.9251   -1.6142 C   0  0  0  0  0  0  0  0  0  0  0  0
    2.3705    1.4730   -2.6112 H   0  0  0  0  0  0  0  0  0  0  0  0
   -1.8900    0.1583    1.8501 C   0  0  0  0  0  0  0  0  0  0  0  0
   -2.2622    0.7436    2.7238 H   0  0  0  0  0  0  0  0  0  0  0  0
   -1.9110   -0.9182    2.1302 H   0  0  0  0  0  0  0  0  0  0  0  0
   -4.1445    0.7813    0.7789 C   0  0  0  0  0  0  0  0  0  0  0  0
   -4.5428    1.0648    1.7637 H   0  0  0  0  0  0  0  0  0  0  0  0
    1.9006    3.0753    0.9271 C   0  0  0  0  0  0  0  0  0  0  0  0
    1.7775    3.5212    1.9271 H   0  0  0  0  0  0  0  0  0  0  0  0
    3.0668    3.3485    0.1823 C   0  0  0  0  0  0  0  0  0  0  0  0
    3.8405    4.0087    0.6008 H   0  0  0  0  0  0  0  0  0  0  0  0
    3.9616   -2.1578   -0.1472 C   0  0  0  0  0  0  0  0  0  0  0  0
    5.0047   -2.4980   -0.0657 H   0  0  0  0  0  0  0  0  0  0  0  0
    3.2402    2.7756   -1.0927 C   0  0  0  0  0  0  0  0  0  0  0  0
    4.1477    2.9949   -1.6749 H   0  0  0  0  0  0  0  0  0  0  0  0
    3.1819   -1.9948    1.0032 C   0  0  0  0  0  0  0  0  0  0  0  0
    3.5980   -2.2039    1.9991 H   0  0  0  0  0  0  0  0  0  0  0  0
  1 11  1  0  0  0  0
  2  9  1  0  0  0  0
  2  4  1  0  0  0  0
  3  2  1  0  0  0  0
  4 12  1  0  0  0  0
  5 30  1  0  0  0  0
  5 14  1  0  0  0  0
  6 27  1  0  0  0  0
  7 39  2  0  0  0  0
  8  7  1  0  0  0  0
  9 25  2  0  0  0  0
 10  9  1  0  0  0  0
 11 13  1  0  0  0  0
 12 33  2  0  0  0  0
 12 30  1  0  0  0  0
 13 35  2  0  0  0  0
 13 19  1  0  0  0  0
 14 15  1  0  0  0  0
 16 14  1  0  0  0  0
 17  7  1  0  0  0  0
 17  6  1  0  0  0  0
 18 17  1  0  0  0  0
 19  5  1  0  0  0  0
 19 21  1  0  0  0  0
 20 19  1  0  0  0  0
 22 14  1  0  0  0  0
 22 23  1  0  0  0  0
 24 22  1  0  0  0  0
 25 26  1  0  0  0  0
 25 33  1  0  0  0  0
 27 43  2  0  0  0  0
 27 22  1  0  0  0  0
 28 41  1  0  0  0  0
 28 11  2  0  0  0  0
 29 28  1  0  0  0  0
 30 32  1  0  0  0  0
 30 31  1  0  0  0  0
 33 34  1  0  0  0  0
 35 36  1  0  0  0  0
 37 38  1  0  0  0  0
 37 35  1  0  0  0  0
 39 40  1  0  0  0  0
 39 43  1  0  0  0  0
 41 37  2  0  0  0  0
 42 41  1  0  0  0  0
 43 44  1  0  0  0  0
M  CHG  1   1  -1
M  END
