1,2,3,4
q = -2.0, confidence = 0.822

 65 68  0  0  1  0  0  0  0  0999 V2000
    0.6994   -1.5100   -1.8635 O   0  5  0  0  0  0  0  0  0  0  0  0
   -0.9797   -0.0732   -0.5856 N   0  0  0  0  0  2  0  0  0  0  0  0
    2.7847   -0.0521   -1.1120 N   0  0  0  0  0  0  0  0  0  0  0  0
    1.0852    1.5746    0.2116 N   0  0  0  0  0  2  0  0  0  0  0  0
   -1.7859    0.8720   -0.1485 C   0  0  0  0  0  0  0  0  0  0  0  0
    2.8084   -1.6640    0.8323 C   0  0  0  0  0  0  0  0  0  0  0  0
    2.4215    1.7815    0.5438 C   0  0  0  0  0  0  0  0  0  0  0  0
   -1.6007   -2.2435    0.3752 C   0  0  0  0  0  0  0  0  0  0  0  0
   -2.4463   -1.8499    0.9750 H   0  0  0  0  0  0  0  0  0  0  0  0
   -0.6825   -2.0750    0.9710 H   0  0  0  0  0  0  0  0  0  0  0  0
   -0.7975   -3.0228   -2.6032 O   0  0  0  0  0  0  0  0  0  0  0  0
    2.8803    2.4588    1.4617 O   0  0  0  0  0  0  0  0  0  0  0  0
   -0.4944   -2.0621   -1.9070 C   0  0  0  0  0  0  0  0  0  0  0  0
    3.3681    1.1728   -0.4877 C   0  0  2  0  0  0  0  0  0  0  0  0
    4.3244    0.9339    0.0174 H   0  0  0  0  0  0  0  0  0  0  0  0
   -1.9688    4.3337    1.3060 C   0  0  0  0  0  0  0  0  0  0  0  0
   -2.7534    5.0675    1.5405 H   0  0  0  0  0  0  0  0  0  0  0  0
   -1.4849   -1.4184   -0.9230 C   0  0  2  0  0  0  0  0  0  0  0  0
   -2.4745   -1.3651   -1.4181 H   0  0  0  0  0  0  0  0  0  0  0  0
    1.8491   -2.6853    0.9877 C   0  0  0  0  0  0  0  0  0  0  0  0
    1.4891   -3.2164    0.0936 H   0  0  0  0  0  0  0  0  0  0  0  0
    3.3144   -1.3329   -0.5541 C   0  0  0  0  0  0  0  0  0  0  0  0
    4.4274   -1.2772   -0.5713 H   0  0  0  0  0  0  0  0  0  0  0  0
    2.9922   -2.1234   -1.2555 H   0  0  0  0  0  0  0  0  0  0  0  0
   -1.3130    2.1399    0.3871 C   0  0  0  0  0  0  0  0  0  0  0  0
    0.0789    2.4281    0.6474 C   0  0  2  0  0  3  0  0  0  0  0  0
   -0.6179    4.5905    1.6093 C   0  0  0  0  0  0  0  0  0  0  0  0
   -0.3290    5.5341    2.0979 H   0  0  0  0  0  0  0  0  0  0  0  0
   -3.2682    0.6280   -0.1810 C   0  0  0  0  0  0  0  0  0  0  0  0
   -1.8764   -4.3070    1.4960 O   0  0  0  0  0  0  0  0  0  0  0  0
   -1.9630   -5.2705    1.3886 H   0  0  0  0  0  0  0  0  0  0  0  0
    0.3736    3.6646    1.2989 C   0  0  0  0  0  0  0  0  0  0  0  0
    1.4156    3.8701    1.5616 H   0  0  0  0  0  0  0  0  0  0  0  0
   -3.9727    0.3134    0.9986 C   0  0  0  0  0  0  0  0  0  0  0  0
   -3.4297    0.2632    1.9543 H   0  0  0  0  0  0  0  0  0  0  0  0
    3.6025    2.1715   -1.6586 C   0  0  0  0  0  0  0  0  0  0  0  0
    4.6885    2.2439   -1.8673 H   0  0  0  0  0  0  0  0  0  0  0  0
    3.2484    3.1892   -1.4056 H   0  0  0  0  0  0  0  0  0  0  0  0
    3.2702   -0.9918    1.9829 C   0  0  0  0  0  0  0  0  0  0  0  0
    4.0315   -0.2022    1.9013 H   0  0  0  0  0  0  0  0  0  0  0  0
   -2.2945    3.1209    0.7129 C   0  0  0  0  0  0  0  0  0  0  0  0
   -3.3451    2.9003    0.4823 H   0  0  0  0  0  0  0  0  0  0  0  0
    2.8696    1.5431   -2.8531 C   0  0  0  0  0  0  0  0  0  0  0  0
    3.2908    1.8473   -3.8306 H   0  0  0  0  0  0  0  0  0  0  0  0
    1.7934    1.8123   -2.8419 H   0  0  0  0  0  0  0  0  0  0  0  0
   -3.9696    0.7159   -1.4007 C   0  0  0  0  0  0  0  0  0  0  0  0
   -3.4226    0.9724   -2.3209 H   0  0  0  0  0  0  0  0  0  0  0  0
    1.7836   -2.3134    3.3853 C   0  0  0  0  0  0  0  0  0  0  0  0
    1.3752   -2.5545    4.3786 H   0  0  0  0  0  0  0  0  0  0  0  0
    3.0339    0.0551   -2.5820 C   0  0  0  0  0  0  0  0  0  0  0  0
    2.3355   -0.6170   -3.1136 H   0  0  0  0  0  0  0  0  0  0  0  0
    4.0805   -0.2679   -2.7917 H   0  0  0  0  0  0  0  0  0  0  0  0
   -5.3525    0.4841   -1.4403 C   0  0  0  0  0  0  0  0  0  0  0  0
   -5.8906    0.5573   -2.3973 H   0  0  0  0  0  0  0  0  0  0  0  0
    2.7550   -1.3093    3.2481 C   0  0  0  0  0  0  0  0  0  0  0  0
    3.1153   -0.7630    4.1327 H   0  0  0  0  0  0  0  0  0  0  0  0
   -5.3546    0.0763    0.9549 C   0  0  0  0  0  0  0  0  0  0  0  0
   -5.8941   -0.1734    1.8809 H   0  0  0  0  0  0  0  0  0  0  0  0
   -6.0465    0.1596   -0.2638 C   0  0  0  0  0  0  0  0  0  0  0  0
   -7.1308   -0.0254   -0.2964 H   0  0  0  0  0  0  0  0  0  0  0  0
    1.3355   -3.0103    2.2522 C   0  0  0  0  0  0  0  0  0  0  0  0
    0.5520   -3.7794    2.3397 H   0  0  0  0  0  0  0  0  0  0  0  0
   -1.7976   -3.7420    0.1893 C   0  0  0  0  0  0  0  0  0  0  0  0
   -0.9551   -4.1728   -0.3980 H   0  0  0  0  0  0  0  0  0  0  0  0
   -2.7231   -3.9350   -0.4058 H   0  0  0  0  0  0  0  0  0  0  0  0
  2  5  1  0  0  0  0
  3 22  1  0  0  0  0
  3 14  1  0  0  0  0
  4  7  1  0  0  0  0
  5 25  2  0  0  0  0
  6 20  2  0  0  0  0
  6 39  1  0  0  0  0
  7 12  2  0  0  0  0
  8 10  1  0  0  0  0
  8  9  1  0  0  0  0
 11 13  2  0  0  0  0
 13  1  1  0  0  0  0
 13 18  1  0  0  0  0
 14 15  1  1  0  0  0
 14  7  1  0  0  0  0
 16 17  1  0  0  0  0
 16 27  1  0  0  0  0
 18 19  1  6  0  0  0
 18  2  1  0  0  0  0
 18  8  1  0  0  0  0
 20 61  1  0  0  0  0
 21 20  1  0  0  0  0
 22  6  1  0  0  0  0
 23 22  1  0  0  0  0
 24 22  1  0  0  0  0
 25 26  1  0  0  0  0
 25 41  1  0  0  0  0
 26  4  1  6  0  0  0
 26 32  1  0  0  0  0
 27 28  1  0  0  0  0
 29  5  1  0  0  0  0
 29 34  1  0  0  0  0
 31 30  1  0  0  0  0
 32 33  1  0  0  0  0
 32 27  2  0  0  0  0
 34 35  1  0  0  0  0
 36 38  1  0  0  0  0
 36 14  1  0  0  0  0
 37 36  1  0  0  0  0
 39 55  2  0  0  0  0
 40 39  1  0  0  0  0
 41 16  2  0  0  0  0
 42 41  1  0  0  0  0
 43 45  1  0  0  0  0
 43 50  1  0  0  0  0
 43 36  1  0  0  0  0
 44 43  1  0  0  0  0
 46 29  2  0  0  0  0
 47 46  1  0  0  0  0
 48 49  1  0  0  0  0
 50  3  1  0  0  0  0
 51 50  1  0  0  0  0
 52 50  1  0  0  0  0
 53 46  1  0  0  0  0
 53 59  2  0  0  0  0
 54 53  1  0  0  0  0
 55 48  1  0  0  0  0
 55 56  1  0  0  0  0
 57 34  2  0  0  0  0
 57 58  1  0  0  0  0
 59 57  1  0  0  0  0
 60 59  1  0  0  0  0
 61 62  1  0  0  0  0
 61 48  2  0  0  0  0
 63  8  1  0  0  0  0
 63 30  1  0  0  0  0
 64 63  1  0  0  0  0
 65 63  1  0  0  0  0
M  CHG  1   1  -1
M  END
