7,12,46,59
q = -1.0, confidence = 0.126

 67 70  0  0  1  0  0  0  0  0999 V2000
    3.6454    1.4002    0.2213 N   0  0  0  0  0  0  0  0  0  0  0  0
    3.6030    2.2525   -0.9729 C   0  0  0  0  0  0  0  0  0  0  0  0
    4.0513    1.6839   -1.8145 H   0  0  0  0  0  0  0  0  0  0  0  0
    4.1999    3.1859   -0.8493 H   0  0  0  0  0  0  0  0  0  0  0  0
    2.1708    2.6766   -1.3941 C   0  0  0  0  0  0  0  0  0  0  0  0
    1.9916    3.8181   -1.8508 O   0  0  0  0  0  0  0  0  0  0  0  0
    1.2472    1.7070   -1.2494 N   0  0  0  0  0  2  0  0  0  0  0  0
   -0.1042    2.0350   -1.6233 C   0  0  0  0  0  0  0  0  0  0  0  0
   -0.2278    2.1445   -2.7280 H   0  0  0  0  0  0  0  0  0  0  0  0
   -0.4124    3.0237   -1.2003 H   0  0  0  0  0  0  0  0  0  0  0  0
   -1.0563    0.9639   -1.0958 C   0  0  2  0  0  3  0  0  0  0  0  0
   -0.8121    0.3243   -0.0517 O   0  0  0  0  0  1  0  0  0  0  0  0
   -2.1734    0.7150   -1.8150 N   0  0  0  0  0  0  0  0  0  0  0  0
   -2.3562    1.2761   -2.6469 H   0  0  0  0  0  0  0  0  0  0  0  0
   -3.0874   -0.3603   -1.4535 C   0  0  0  0  0  0  0  0  0  0  0  0
   -2.4979   -1.2913   -1.3248 H   0  0  0  0  0  0  0  0  0  0  0  0
   -3.7782   -0.5251   -2.3027 H   0  0  0  0  0  0  0  0  0  0  0  0
   -3.8797   -0.0725   -0.1521 C   0  0  0  0  0  0  0  0  0  0  0  0
   -3.1050    0.0609    0.6310 H   0  0  0  0  0  0  0  0  0  0  0  0
   -4.7006   -1.2971    0.2480 C   0  0  0  0  0  0  0  0  0  0  0  0
   -4.0181   -2.4949    0.5610 C   0  0  0  0  0  0  0  0  0  0  0  0
   -2.9177   -2.5375    0.5130 H   0  0  0  0  0  0  0  0  0  0  0  0
   -4.7276   -3.6475    0.9245 C   0  0  0  0  0  0  0  0  0  0  0  0
   -4.1735   -4.5696    1.1580 H   0  0  0  0  0  0  0  0  0  0  0  0
   -6.1306   -3.6272    0.9920 C   0  0  0  0  0  0  0  0  0  0  0  0
   -6.6866   -4.5327    1.2799 H   0  0  0  0  0  0  0  0  0  0  0  0
   -6.8160   -2.4409    0.6939 C   0  0  0  0  0  0  0  0  0  0  0  0
   -7.9152   -2.4082    0.7505 H   0  0  0  0  0  0  0  0  0  0  0  0
   -6.1067   -1.2858    0.3246 C   0  0  0  0  0  0  0  0  0  0  0  0
   -6.6564   -0.3593    0.1040 H   0  0  0  0  0  0  0  0  0  0  0  0
   -4.6571    1.2268   -0.2486 C   0  0  0  0  0  0  0  0  0  0  0  0
   -5.5079    1.5060   -1.3394 C   0  0  0  0  0  0  0  0  0  0  0  0
   -5.6322    0.7597   -2.1399 H   0  0  0  0  0  0  0  0  0  0  0  0
   -6.2102    2.7181   -1.4165 C   0  0  0  0  0  0  0  0  0  0  0  0
   -6.8704    2.9140   -2.2756 H   0  0  0  0  0  0  0  0  0  0  0  0
   -6.0725    3.6795   -0.4023 C   0  0  0  0  0  0  0  0  0  0  0  0
   -6.6204    4.6321   -0.4635 H   0  0  0  0  0  0  0  0  0  0  0  0
   -5.2282    3.4168    0.6872 C   0  0  0  0  0  0  0  0  0  0  0  0
   -5.1091    4.1650    1.4859 H   0  0  0  0  0  0  0  0  0  0  0  0
   -4.5289    2.2022    0.7590 C   0  0  0  0  0  0  0  0  0  0  0  0
   -3.8621    2.0002    1.6122 H   0  0  0  0  0  0  0  0  0  0  0  0
    3.3110    2.1188    1.4415 C   0  0  0  0  0  0  0  0  0  0  0  0
    2.4989    2.8336    1.1827 H   0  0  0  0  0  0  0  0  0  0  0  0
    4.1598    2.7359    1.8282 H   0  0  0  0  0  0  0  0  0  0  0  0
    2.7915    1.2200    2.5499 C   0  0  2  0  0  3  0  0  0  0  0  0
    2.0088    0.1838    2.1872 N   0  0  0  0  0  2  0  0  0  0  0  0
    1.4525   -0.6077    3.1223 C   0  0  0  0  0  0  0  0  0  0  0  0
    0.8274   -1.4301    2.7357 H   0  0  0  0  0  0  0  0  0  0  0  0
    1.6607   -0.3955    4.4923 C   0  0  0  0  0  0  0  0  0  0  0  0
    1.1886   -1.0597    5.2302 H   0  0  0  0  0  0  0  0  0  0  0  0
    2.4829    0.6698    4.8863 C   0  0  0  0  0  0  0  0  0  0  0  0
    2.6779    0.8626    5.9522 H   0  0  0  0  0  0  0  0  0  0  0  0
    3.0603    1.4861    3.9036 C   0  0  0  0  0  0  0  0  0  0  0  0
    3.7134    2.3287    4.1762 H   0  0  0  0  0  0  0  0  0  0  0  0
    4.8244    0.5561    0.3297 C   0  0  0  0  0  0  0  0  0  0  0  0
    4.8231    0.0931    1.3422 H   0  0  0  0  0  0  0  0  0  0  0  0
    5.7809    1.1303    0.2484 H   0  0  0  0  0  0  0  0  0  0  0  0
    4.8294   -0.5739   -0.6875 C   0  0  2  0  0  3  0  0  0  0  0  0
    3.6470   -1.1568   -0.9712 N   0  0  0  0  0  2  0  0  0  0  0  0
    3.5909   -2.1885   -1.8326 C   0  0  0  0  0  0  0  0  0  0  0  0
    2.5793   -2.5853   -2.0270 H   0  0  0  0  0  0  0  0  0  0  0  0
    4.7376   -2.7041   -2.4519 C   0  0  0  0  0  0  0  0  0  0  0  0
    4.6537   -3.5493   -3.1498 H   0  0  0  0  0  0  0  0  0  0  0  0
    5.9746   -2.1086   -2.1679 C   0  0  0  0  0  0  0  0  0  0  0  0
    6.8966   -2.4769   -2.6427 H   0  0  0  0  0  0  0  0  0  0  0  0
    6.0212   -1.0249   -1.2798 C   0  0  0  0  0  0  0  0  0  0  0  0
    6.9720   -0.5232   -1.0453 H   0  0  0  0  0  0  0  0  0  0  0  0
  1 55  1  0  0  0  0
  1 42  1  0  0  0  0
  2  4  1  0  0  0  0
  2  1  1  0  0  0  0
  3  2  1  0  0  0  0
  5  7  1  0  0  0  0
  5  2  1  0  0  0  0
  6  5  2  0  0  0  0
  8  7  1  0  0  0  0
  8 10  1  0  0  0  0
  8 11  1  0  0  0  0
  9  8  1  0  0  0  0
 11 12  1  6  0  0  0
 13 15  1  0  0  0  0
 13 11  1  0  0  0  0
 14 13  1  0  0  0  0
 15 16  1  0  0  0  0
 15 18  1  0  0  0  0
 17 15  1  0  0  0  0
 18 20  1  0  0  0  0
 18 19  1  0  0  0  0
 20 29  2  0  0  0  0
 20 21  1  0  0  0  0
 21 23  2  0  0  0  0
 22 21  1  0  0  0  0
 23 25  1  0  0  0  0
 23 24  1  0  0  0  0
 25 26  1  0  0  0  0
 27 28  1  0  0  0  0
 27 25  2  0  0  0  0
 29 27  1  0  0  0  0
 30 29  1  0  0  0  0
 31 18  1  0  0  0  0
 31 40  1  0  0  0  0
 32 31  2  0  0  0  0
 33 32  1  0  0  0  0
 34 32  1  0  0  0  0
 34 36  2  0  0  0  0
 35 34  1  0  0  0  0
 36 38  1  0  0  0  0
 37 36  1  0  0  0  0
 38 40  2  0  0  0  0
 38 39  1  0  0  0  0
 40 41  1  0  0  0  0
 42 44  1  0  0  0  0
 43 42  1  0  0  0  0
 45 42  1  1  0  0  0
 45 53  1  0  0  0  0
 46 45  1  0  0  0  0
 46 47  1  0  0  0  0
 47 49  2  0  0  0  0
 48 47  1  0  0  0  0
 49 51  1  0  0  0  0
 49 50  1  0  0  0  0
 51 52  1  0  0  0  0
 53 54  1  0  0  0  0
 53 51  2  0  0  0  0
 55 56  1  0  0  0  0
 57 55  1  0  0  0  0
 58 55  1  1  0  0  0
 59 58  1  0  0  0  0
 60 59  1  0  0  0  0
 61 60  1  0  0  0  0
 62 64  1  0  0  0  0
 62 60  2  0  0  0  0
 63 62  1  0  0  0  0
 64 66  2  0  0  0  0
 65 64  1  0  0  0  0
 66 67  1  0  0  0  0
 66 58  1  0  0  0  0
M  END
