1,4,5,6
q = -1.0

 72 76  0  0  1  0  0  0  0  0999 V2000
    1.0672    1.2342   -2.1663 O   0  5  0  0  0  0  0  0  0  0  0  0
    0.6079    3.4376   -2.3862 O   0  0  0  0  0  0  0  0  0  0  0  0
    2.2682   -1.1399    2.5145 O   0  0  0  0  0  0  0  0  0  0  0  0
   -0.8659    0.7097   -0.5777 N   0  0  0  0  0  2  0  0  0  0  0  0
    0.7097   -0.9982    0.7791 N   0  0  0  0  0  2  0  0  0  0  0  0
    2.5355   -0.9057   -1.1204 N   0  0  0  0  0  0  0  0  0  0  0  0
    0.1344    2.9841    0.8852 N   0  0  0  0  0  0  0  0  0  0  0  0
    2.1770    3.0375    1.6604 N   0  0  0  0  0  0  0  0  0  0  0  0
    0.3392    2.3051   -1.9965 C   0  0  0  0  0  0  0  0  0  0  0  0
   -0.9331    2.0579   -1.1451 C   0  0  2  0  0  0  0  0  0  0  0  0
   -1.8245    2.2120   -1.7880 H   0  0  0  0  0  0  0  0  0  0  0  0
   -1.8951    0.1540    0.0507 C   0  0  0  0  0  0  0  0  0  0  0  0
   -1.7372   -0.9698    0.9510 C   0  0  0  0  0  0  0  0  0  0  0  0
   -0.4412   -1.4124    1.4113 C   0  0  1  0  0  3  0  0  0  0  0  0
   -0.3975   -2.3644    2.4702 C   0  0  0  0  0  0  0  0  0  0  0  0
    0.5793   -2.6568    2.8723 H   0  0  0  0  0  0  0  0  0  0  0  0
   -1.5599   -2.9419    2.9681 C   0  0  0  0  0  0  0  0  0  0  0  0
   -1.4830   -3.6974    3.7649 H   0  0  0  0  0  0  0  0  0  0  0  0
   -2.8257   -2.5899    2.4485 C   0  0  0  0  0  0  0  0  0  0  0  0
   -3.7390   -3.0733    2.8232 H   0  0  0  0  0  0  0  0  0  0  0  0
   -2.9027   -1.6110    1.4680 C   0  0  0  0  0  0  0  0  0  0  0  0
   -3.8830   -1.3173    1.0693 H   0  0  0  0  0  0  0  0  0  0  0  0
    1.9784   -1.1231    1.3189 C   0  0  0  0  0  0  0  0  0  0  0  0
    3.0643   -1.2701    0.2457 C   0  0  2  0  0  0  0  0  0  0  0  0
    3.3597   -2.3416    0.2682 H   0  0  0  0  0  0  0  0  0  0  0  0
    4.2873   -0.3627    0.4907 C   0  0  0  0  0  0  0  0  0  0  0  0
    4.3039   -0.0300    1.5473 H   0  0  0  0  0  0  0  0  0  0  0  0
    5.2253   -0.9228    0.3105 H   0  0  0  0  0  0  0  0  0  0  0  0
    4.1352    0.7487   -0.5556 C   0  0  0  0  0  0  0  0  0  0  0  0
    3.3926    1.5096   -0.2373 H   0  0  0  0  0  0  0  0  0  0  0  0
    5.0830    1.2670   -0.7961 H   0  0  0  0  0  0  0  0  0  0  0  0
    3.5676   -0.0142   -1.7404 C   0  0  0  0  0  0  0  0  0  0  0  0
    3.0909    0.6158   -2.5118 H   0  0  0  0  0  0  0  0  0  0  0  0
    4.3528   -0.6517   -2.2047 H   0  0  0  0  0  0  0  0  0  0  0  0
   -0.9920    3.1339   -0.0454 C   0  0  0  0  0  0  0  0  0  0  0  0
   -0.9127    4.1219   -0.5356 H   0  0  0  0  0  0  0  0  0  0  0  0
   -1.9292    3.0777    0.5384 H   0  0  0  0  0  0  0  0  0  0  0  0
    1.3545    3.5317    0.7121 C   0  0  0  0  0  3  0  0  0  0  0  0
    1.6208    4.2194   -0.0995 H   0  0  0  0  0  0  0  0  0  0  0  0
    1.4709    2.1362    2.4438 C   0  0  0  0  0  0  0  0  0  0  0  0
    1.9376    1.5564    3.2468 H   0  0  0  0  0  0  0  0  0  0  0  0
    0.1894    2.0974    1.9486 C   0  0  0  0  0  0  0  0  0  0  0  0
   -0.6725    1.4991    2.2586 H   0  0  0  0  0  0  0  0  0  0  0  0
    3.5730    3.4218    1.8609 C   0  0  0  0  0  0  0  0  0  0  0  0
    3.9326    3.9675    0.9711 H   0  0  0  0  0  0  0  0  0  0  0  0
    4.1854    2.5122    2.0014 H   0  0  0  0  0  0  0  0  0  0  0  0
    3.6641    4.0699    2.7537 H   0  0  0  0  0  0  0  0  0  0  0  0
   -3.2572    0.7391   -0.1512 C   0  0  0  0  0  0  0  0  0  0  0  0
   -3.9704    1.3308    0.9136 C   0  0  0  0  0  0  0  0  0  0  0  0
   -3.5334    1.3385    1.9246 H   0  0  0  0  0  0  0  0  0  0  0  0
   -5.2365    1.8924    0.6918 C   0  0  0  0  0  0  0  0  0  0  0  0
   -5.7834    2.3543    1.5272 H   0  0  0  0  0  0  0  0  0  0  0  0
   -5.8089    1.8542   -0.5898 C   0  0  0  0  0  0  0  0  0  0  0  0
   -6.8049    2.2886   -0.7610 H   0  0  0  0  0  0  0  0  0  0  0  0
   -5.1136    1.2507   -1.6504 C   0  0  0  0  0  0  0  0  0  0  0  0
   -5.5665    1.2040   -2.6519 H   0  0  0  0  0  0  0  0  0  0  0  0
   -3.8421    0.7002   -1.4357 C   0  0  0  0  0  0  0  0  0  0  0  0
   -3.2991    0.2174   -2.2632 H   0  0  0  0  0  0  0  0  0  0  0  0
    2.2361   -2.0710   -2.0206 C   0  0  0  0  0  0  0  0  0  0  0  0
    2.1105   -1.6441   -3.0348 H   0  0  0  0  0  0  0  0  0  0  0  0
    3.1320   -2.7311   -2.0388 H   0  0  0  0  0  0  0  0  0  0  0  0
    1.0003   -2.8417   -1.6290 C   0  0  0  0  0  0  0  0  0  0  0  0
   -0.2596   -2.4398   -2.1216 C   0  0  0  0  0  0  0  0  0  0  0  0
   -0.3179   -1.6189   -2.8542 H   0  0  0  0  0  0  0  0  0  0  0  0
   -1.4288   -3.0840   -1.6951 C   0  0  0  0  0  0  0  0  0  0  0  0
   -2.4063   -2.7629   -2.0858 H   0  0  0  0  0  0  0  0  0  0  0  0
   -1.3544   -4.1431   -0.7752 C   0  0  0  0  0  0  0  0  0  0  0  0
   -2.2724   -4.6439   -0.4344 H   0  0  0  0  0  0  0  0  0  0  0  0
   -0.1043   -4.5660   -0.3002 C   0  0  0  0  0  0  0  0  0  0  0  0
   -0.0388   -5.4054    0.4077 H   0  0  0  0  0  0  0  0  0  0  0  0
    1.0666   -3.9218   -0.7306 C   0  0  0  0  0  0  0  0  0  0  0  0
    2.0449   -4.2676   -0.3605 H   0  0  0  0  0  0  0  0  0  0  0  0
  1  9  1  0  0  0  0
  2  9  2  0  0  0  0
  4 12  1  0  0  0  0
  5 23  1  0  0  0  0
  6 24  1  0  0  0  0
  7 42  1  0  0  0  0
  8 44  1  0  0  0  0
  8 40  1  0  0  0  0
  9 10  1  0  0  0  0
 10 11  1  6  0  0  0
 10  4  1  0  0  0  0
 10 35  1  0  0  0  0
 12 13  2  0  0  0  0
 13 14  1  0  0  0  0
 13 21  1  0  0  0  0
 14  5  1  6  0  0  0
 14 15  1  0  0  0  0
 15 16  1  0  0  0  0
 15 17  2  0  0  0  0
 17 18  1  0  0  0  0
 19 20  1  0  0  0  0
 19 17  1  0  0  0  0
 21 19  2  0  0  0  0
 22 21  1  0  0  0  0
 23  3  2  0  0  0  0
 24 25  1  6  0  0  0
 24 26  1  0  0  0  0
 24 23  1  0  0  0  0
 26 27  1  0  0  0  0
 28 26  1  0  0  0  0
 29 30  1  0  0  0  0
 29 26  1  0  0  0  0
 31 29  1  0  0  0  0
 32  6  1  0  0  0  0
 32 29  1  0  0  0  0
 33 32  1  0  0  0  0
 34 32  1  0  0  0  0
 35 37  1  0  0  0  0
 35  7  1  0  0  0  0
 36 35  1  0  0  0  0
 38  7  1  0  0  0  0
 38  8  1  0  0  0  0
 39 38  1  0  0  0  0
 40 41  1  0  0  0  0
 42 43  1  0  0  0  0
 42 40  2  0  0  0  0
 44 46  1  0  0  0  0
 44 47  1  0  0  0  0
 45 44  1  0  0  0  0
 48 12  1  0  0  0  0
 48 49  1  0  0  0  0
 49 50  1  0  0  0  0
 51 49  2  0  0  0  0
 51 52  1  0  0  0  0
 53 51  1  0  0  0  0
 54 53  1  0  0  0  0
 55 57  1  0  0  0  0
 55 53  2  0  0  0  0
 56 55  1  0  0  0  0
 57 48  2  0  0  0  0
 58 57  1  0  0  0  0
 59 62  1  0  0  0  0
 59  6  1  0  0  0  0
 60 59  1  0  0  0  0
 61 59  1  0  0  0  0
 62 71  1  0  0  0  0
 63 65  1  0  0  0  0
 63 62  2  0  0  0  0
 64 63  1  0  0  0  0
 65 67  2  0  0  0  0
 66 65  1  0  0  0  0
 67 68  1  0  0  0  0
 67 69  1  0  0  0  0
 69 70  1  0  0  0  0
 71 72  1  0  0  0  0
 71 69  2  0  0  0  0
M  CHG  1   1  -1
M  END
