1,4,5,6
q = -2.0, confidence = 0.812

 74 77  0  0  1  0  0  0  0  0999 V2000
   -0.8537   -1.3856   -2.1311 O   0  5  0  0  0  0  0  0  0  0  0  0
    0.3370   -3.0600   -3.0284 O   0  0  0  0  0  0  0  0  0  0  0  0
   -2.8036    1.4037    2.3904 O   0  0  0  0  0  0  0  0  0  0  0  0
    0.9433   -0.5037   -0.5526 N   0  0  0  0  0  2  0  0  0  0  0  0
   -1.0816    0.7734    0.9019 N   0  0  0  0  0  2  0  0  0  0  0  0
   -2.8452   -0.1136   -0.8820 N   0  0  0  0  0  0  0  0  0  0  0  0
    0.2181   -2.1316   -2.2387 C   0  0  0  0  0  0  0  0  0  0  0  0
    1.3603   -1.7709   -1.2357 C   0  0  1  0  0  0  0  0  0  0  0  0
    2.6580   -1.7636   -2.0564 C   0  0  0  0  0  0  0  0  0  0  0  0
    2.7305   -0.8621   -2.6932 H   0  0  0  0  0  0  0  0  0  0  0  0
    2.5859   -2.6452   -2.7230 H   0  0  0  0  0  0  0  0  0  0  0  0
    3.5712   -1.8501   -1.4437 H   0  0  0  0  0  0  0  0  0  0  0  0
    1.4215   -2.9037   -0.1744 C   0  0  0  0  0  0  0  0  0  0  0  0
    1.7223   -3.8260   -0.7139 H   0  0  0  0  0  0  0  0  0  0  0  0
    2.2421   -2.6620    0.5336 H   0  0  0  0  0  0  0  0  0  0  0  0
    0.1160   -3.1447    0.5813 C   0  0  0  0  0  0  0  0  0  0  0  0
   -0.6305   -3.5751   -0.1207 H   0  0  0  0  0  0  0  0  0  0  0  0
   -0.3042   -2.1718    0.9202 H   0  0  0  0  0  0  0  0  0  0  0  0
    0.2517   -4.0665    1.8034 C   0  0  0  0  0  0  0  0  0  0  0  0
    0.7112   -5.0300    1.4861 H   0  0  0  0  0  0  0  0  0  0  0  0
    0.9478   -3.6084    2.5393 H   0  0  0  0  0  0  0  0  0  0  0  0
   -1.0795   -4.3264    2.4512 C   0  0  0  0  0  0  0  0  0  0  0  0
   -1.7908   -4.9347    1.8606 H   0  0  0  0  0  0  0  0  0  0  0  0
   -1.4755   -3.8404    3.6409 C   0  0  0  0  0  0  0  0  0  0  0  0
   -0.8037   -3.2211    4.2593 H   0  0  0  0  0  0  0  0  0  0  0  0
   -2.4797   -4.0445    4.0441 H   0  0  0  0  0  0  0  0  0  0  0  0
    1.7521    0.3116    0.0941 C   0  0  0  0  0  0  0  0  0  0  0  0
    3.2446    0.1324    0.0562 C   0  0  0  0  0  0  0  0  0  0  0  0
    4.0135    0.7774   -0.9332 C   0  0  0  0  0  0  0  0  0  0  0  0
    3.5072    1.3877   -1.6962 H   0  0  0  0  0  0  0  0  0  0  0  0
    5.4076    0.6359   -0.9505 C   0  0  0  0  0  0  0  0  0  0  0  0
    5.9979    1.1370   -1.7326 H   0  0  0  0  0  0  0  0  0  0  0  0
    6.0491   -0.1453    0.0249 C   0  0  0  0  0  0  0  0  0  0  0  0
    7.1432   -0.2617    0.0068 H   0  0  0  0  0  0  0  0  0  0  0  0
    5.2915   -0.7632    1.0319 C   0  0  0  0  0  0  0  0  0  0  0  0
    5.7899   -1.3600    1.8107 H   0  0  0  0  0  0  0  0  0  0  0  0
    3.8964   -0.6141    1.0560 C   0  0  0  0  0  0  0  0  0  0  0  0
    3.3040   -1.0740    1.8610 H   0  0  0  0  0  0  0  0  0  0  0  0
    1.2894    1.4280    0.9235 C   0  0  0  0  0  0  0  0  0  0  0  0
   -0.0683    1.5838    1.3892 C   0  0  0  0  0  0  0  0  0  0  0  0
   -0.3261    2.6288    2.3276 C   0  0  0  0  0  0  0  0  0  0  0  0
   -1.3398    2.7064    2.7308 H   0  0  0  0  0  0  0  0  0  0  0  0
    0.6583    3.5319    2.7149 C   0  0  0  0  0  0  0  0  0  0  0  0
    0.3965    4.3356    3.4210 H   0  0  0  0  0  0  0  0  0  0  0  0
    1.9683    3.4245    2.2134 C   0  0  0  0  0  0  0  0  0  0  0  0
    2.7517    4.1376    2.5084 H   0  0  0  0  0  0  0  0  0  0  0  0
    2.2661    2.3729    1.3553 C   0  0  0  0  0  3  0  0  0  0  0  0
    3.2956    2.2647    0.9931 H   0  0  0  0  0  0  0  0  0  0  0  0
   -2.3838    0.8473    1.3742 C   0  0  0  0  0  0  0  0  0  0  0  0
   -3.3683    0.0828    0.4986 C   0  0  2  0  0  0  0  0  0  0  0  0
   -4.3059    0.6803    0.4627 H   0  0  0  0  0  0  0  0  0  0  0  0
   -3.6682   -1.3463    1.0354 C   0  0  0  0  0  0  0  0  0  0  0  0
   -2.9602   -1.6318    1.8379 H   0  0  0  0  0  0  0  0  0  0  0  0
   -4.6829   -1.3710    1.4757 H   0  0  0  0  0  0  0  0  0  0  0  0
   -3.5359   -2.2758   -0.1912 C   0  0  0  0  0  0  0  0  0  0  0  0
   -2.5746   -2.8223   -0.1643 H   0  0  0  0  0  0  0  0  0  0  0  0
   -4.3457   -3.0278   -0.2537 H   0  0  0  0  0  0  0  0  0  0  0  0
   -3.5447   -1.3307   -1.3846 C   0  0  0  0  0  0  0  0  0  0  0  0
   -3.0129   -1.7145   -2.2734 H   0  0  0  0  0  0  0  0  0  0  0  0
   -4.5841   -1.0377   -1.6609 H   0  0  0  0  0  0  0  0  0  0  0  0
   -3.0542    1.0363   -1.8157 C   0  0  0  0  0  0  0  0  0  0  0  0
   -2.8628    0.6360   -2.8301 H   0  0  0  0  0  0  0  0  0  0  0  0
   -4.1245    1.3403   -1.7603 H   0  0  0  0  0  0  0  0  0  0  0  0
   -2.1451    2.2125   -1.5529 C   0  0  0  0  0  0  0  0  0  0  0  0
   -2.5277    3.2533   -0.6888 C   0  0  0  0  0  0  0  0  0  0  0  0
   -3.5284    3.2424   -0.2295 H   0  0  0  0  0  0  0  0  0  0  0  0
   -1.6302    4.2879   -0.3777 C   0  0  0  0  0  0  0  0  0  0  0  0
   -1.9343    5.0838    0.3180 H   0  0  0  0  0  0  0  0  0  0  0  0
   -0.3455    4.2974   -0.9393 C   0  0  0  0  0  0  0  0  0  0  0  0
    0.3641    5.0972   -0.6807 H   0  0  0  0  0  0  0  0  0  0  0  0
    0.0364    3.2746   -1.8229 C   0  0  0  0  0  0  0  0  0  0  0  0
    1.0413    3.2813   -2.2719 H   0  0  0  0  0  0  0  0  0  0  0  0
   -0.8575    2.2398   -2.1305 C   0  0  0  0  0  0  0  0  0  0  0  0
   -0.5601    1.4382   -2.8242 H   0  0  0  0  0  0  0  0  0  0  0  0
  2  7  2  0  0  0  0
  4 27  1  0  0  0  0
  5 49  1  0  0  0  0
  5 40  1  0  0  0  0
  6 50  1  0  0  0  0
  7  1  1  0  0  0  0
  8  7  1  6  0  0  0
  8  4  1  0  0  0  0
  8 13  1  0  0  0  0
  9 12  1  0  0  0  0
  9  8  1  0  0  0  0
 10  9  1  0  0  0  0
 11  9  1  0  0  0  0
 13 15  1  0  0  0  0
 13 16  1  0  0  0  0
 14 13  1  0  0  0  0
 16 18  1  0  0  0  0
 16 19  1  0  0  0  0
 17 16  1  0  0  0  0
 19 22  1  0  0  0  0
 19 21  1  0  0  0  0
 20 19  1  0  0  0  0
 22 24  2  0  0  0  0
 23 22  1  0  0  0  0
 24 26  1  0  0  0  0
 24 25  1  0  0  0  0
 27 39  2  0  0  0  0
 28 27  1  0  0  0  0
 28 37  1  0  0  0  0
 29 28  2  0  0  0  0
 30 29  1  0  0  0  0
 31 29  1  0  0  0  0
 31 33  2  0  0  0  0
 32 31  1  0  0  0  0
 33 35  1  0  0  0  0
 34 33  1  0  0  0  0
 35 37  2  0  0  0  0
 35 36  1  0  0  0  0
 37 38  1  0  0  0  0
 39 47  1  0  0  0  0
 39 40  1  0  0  0  0
 40 41  2  0  0  0  0
 41 43  1  0  0  0  0
 41 42  1  0  0  0  0
 43 44  1  0  0  0  0
 45 46  1  0  0  0  0
 45 43  2  0  0  0  0
 47 45  1  0  0  0  0
 48 47  1  0  0  0  0
 49  3  2  0  0  0  0
 50 51  1  6  0  0  0
 50 52  1  0  0  0  0
 50 49  1  0  0  0  0
 52 54  1  0  0  0  0
 52 53  1  0  0  0  0
 55 56  1  0  0  0  0
 55 52  1  0  0  0  0
 57 55  1  0  0  0  0
 58  6  1  0  0  0  0
 58 55  1  0  0  0  0
 59 58  1  0  0  0  0
 60 58  1  0  0  0  0
 61 63  1  0  0  0  0
 61 64  1  0  0  0  0
 61  6  1  0  0  0  0
 62 61  1  0  0  0  0
 64 65  1  0  0  0  0
 65 67  2  0  0  0  0
 65 66  1  0  0  0  0
 67 68  1  0  0  0  0
 69 70  1  0  0  0  0
 69 67  1  0  0  0  0
 71 69  2  0  0  0  0
 72 71  1  0  0  0  0
 73 71  1  0  0  0  0
 73 64  2  0  0  0  0
 74 73  1  0  0  0  0
M  CHG  1   1  -1
M  END
