1,2,3,4
q = -2.0, confidence = 0.936

 47 48  0  0  1  0  0  0  0  0999 V2000
    1.0772   -1.2011    0.1330 N   0  0  0  0  0  2  0  0  0  0  0  0
    1.4635    1.2895    0.0524 N   0  0  0  0  0  2  0  0  0  0  0  0
   -1.2309    1.7094   -0.6541 N   0  0  0  0  0  2  0  0  0  0  0  0
   -1.5892   -0.9614   -0.1881 O   0  5  0  0  0  0  0  0  0  0  0  0
    0.2617    3.4752    0.1442 C   0  0  0  0  0  0  0  0  0  0  0  0
    0.4854    4.5515   -0.0014 H   0  0  0  0  0  0  0  0  0  0  0  0
   -0.3415    3.3948    1.0711 H   0  0  0  0  0  0  0  0  0  0  0  0
    2.3399   -0.8749   -0.1924 C   0  0  0  0  0  0  0  0  0  0  0  0
   -2.5394    1.6881   -0.7568 C   0  0  0  0  0  3  0  0  0  0  0  0
   -3.0285    2.6153   -1.1215 H   0  0  0  0  0  0  0  0  0  0  0  0
   -3.4087    0.5905   -0.4804 C   0  0  0  0  0  0  0  0  0  0  0  0
    2.5943    0.5746   -0.0806 C   0  0  2  0  0  3  0  0  0  0  0  0
   -4.8186    0.7743   -0.5485 C   0  0  0  0  0  0  0  0  0  0  0  0
   -5.2073    1.7898   -0.7296 H   0  0  0  0  0  0  0  0  0  0  0  0
   -2.8616   -0.7244   -0.2541 C   0  0  0  0  0  0  0  0  0  0  0  0
    5.1622    0.6441   -0.2539 C   0  0  0  0  0  0  0  0  0  0  0  0
    5.9876    1.3623   -0.1117 H   0  0  0  0  0  0  0  0  0  0  0  0
   -5.6920   -0.2937   -0.3942 C   0  0  0  0  0  0  0  0  0  0  0  0
   -6.7796   -0.1395   -0.4365 H   0  0  0  0  0  0  0  0  0  0  0  0
   -0.1039   -2.7267    1.6982 C   0  0  0  0  0  0  0  0  0  0  0  0
   -0.2025   -3.7964    1.9739 H   0  0  0  0  0  0  0  0  0  0  0  0
    0.3836   -2.1995    2.5420 H   0  0  0  0  0  0  0  0  0  0  0  0
   -1.1112   -2.2993    1.5558 H   0  0  0  0  0  0  0  0  0  0  0  0
    3.8914    1.1651    0.0116 C   0  0  0  0  0  0  0  0  0  0  0  0
    3.9006    2.2099    0.3480 H   0  0  0  0  0  0  0  0  0  0  0  0
   -0.5621    2.9521   -1.0279 C   0  0  0  0  0  0  0  0  0  0  0  0
    0.0989    2.7624   -1.9025 H   0  0  0  0  0  0  0  0  0  0  0  0
   -1.3218    3.6995   -1.3428 H   0  0  0  0  0  0  0  0  0  0  0  0
    3.3045   -1.8388   -0.6220 C   0  0  0  0  0  0  0  0  0  0  0  0
    2.8912   -2.8354   -0.8269 H   0  0  0  0  0  0  0  0  0  0  0  0
   -5.1585   -1.5931   -0.1936 C   0  0  0  0  0  0  0  0  0  0  0  0
   -5.8437   -2.4478   -0.0771 H   0  0  0  0  0  0  0  0  0  0  0  0
    5.5395   -0.6359   -0.6838 C   0  0  0  0  0  0  0  0  0  0  0  0
    6.6085   -0.8027   -0.8868 H   0  0  0  0  0  0  0  0  0  0  0  0
    4.6772   -1.7293   -0.8583 C   0  0  0  0  0  0  0  0  0  0  0  0
    5.1527   -2.6582   -1.2165 H   0  0  0  0  0  0  0  0  0  0  0  0
    1.5820    2.7231    0.2737 C   0  0  0  0  0  0  0  0  0  0  0  0
    2.2906    3.1408   -0.4783 H   0  0  0  0  0  0  0  0  0  0  0  0
    2.0307    2.9250    1.2744 H   0  0  0  0  0  0  0  0  0  0  0  0
   -3.7874   -1.8110   -0.1394 C   0  0  0  0  0  0  0  0  0  0  0  0
   -3.3738   -2.8182    0.0143 H   0  0  0  0  0  0  0  0  0  0  0  0
    0.1530   -3.3468   -0.7786 C   0  0  0  0  0  0  0  0  0  0  0  0
   -0.8181   -2.9012   -1.0585 H   0  0  0  0  0  0  0  0  0  0  0  0
    0.8278   -3.2868   -1.6566 H   0  0  0  0  0  0  0  0  0  0  0  0
    0.0043   -4.4186   -0.5342 H   0  0  0  0  0  0  0  0  0  0  0  0
    0.7485   -2.6080    0.4287 C   0  0  0  0  0  0  0  0  0  0  0  0
    1.7153   -3.0999    0.6761 H   0  0  0  0  0  0  0  0  0  0  0  0
  1 46  1  0  0  0  0
  2 37  1  0  0  0  0
  5 37  1  0  0  0  0
  5  7  1  0  0  0  0
  6  5  1  0  0  0  0
  8 12  1  0  0  0  0
  8  1  1  0  0  0  0
  9  3  1  0  0  0  0
  9 11  1  0  0  0  0
 10  9  1  0  0  0  0
 11 15  1  0  0  0  0
 12 24  1  0  0  0  0
 12  2  1  1  0  0  0
 13 11  2  0  0  0  0
 13 18  1  0  0  0  0
 14 13  1  0  0  0  0
 15  4  1  0  0  0  0
 15 40  2  0  0  0  0
 16 17  1  0  0  0  0
 16 24  2  0  0  0  0
 18 31  2  0  0  0  0
 19 18  1  0  0  0  0
 20 21  1  0  0  0  0
 20 22  1  0  0  0  0
 23 20  1  0  0  0  0
 24 25  1  0  0  0  0
 26  3  1  0  0  0  0
 26  5  1  0  0  0  0
 27 26  1  0  0  0  0
 28 26  1  0  0  0  0
 29  8  2  0  0  0  0
 30 29  1  0  0  0  0
 31 40  1  0  0  0  0
 31 32  1  0  0  0  0
 33 16  1  0  0  0  0
 34 33  1  0  0  0  0
 35 33  2  0  0  0  0
 35 29  1  0  0  0  0
 36 35  1  0  0  0  0
 37 39  1  0  0  0  0
 38 37  1  0  0  0  0
 40 41  1  0  0  0  0
 42 45  1  0  0  0  0
 42 46  1  0  0  0  0
 43 42  1  0  0  0  0
 44 42  1  0  0  0  0
 46 47  1  0  0  0  0
 46 20  1  0  0  0  0
M  CHG  1   4  -1
M  END
