1,5,6,7
q = -2.0, confidence = 0.834

 55 57  0  0  1  0  0  0  0  0999 V2000
   -2.2693    0.0934    1.3658 O   0  5  0  0  0  0  0  0  0  0  0  0
   -3.8677    1.5917    1.9154 O   0  0  0  0  0  0  0  0  0  0  0  0
   -2.9163    1.3202   -1.6780 O   0  0  0  0  0  0  0  0  0  0  0  0
    1.4817   -2.0543   -2.3456 O   0  0  0  0  0  0  0  0  0  0  0  0
   -0.7570    1.7481    0.1449 N   0  0  0  0  0  2  0  0  0  0  0  0
    0.6164   -0.3411   -0.9741 N   0  0  0  0  0  2  0  0  0  0  0  0
   -1.1018   -2.0313    0.1722 N   0  0  0  0  0  0  0  0  0  0  0  0
   -2.8378    1.2793    1.3385 C   0  0  0  0  0  0  0  0  0  0  0  0
   -2.0901    2.2859    0.4344 C   0  0  2  0  0  0  0  0  0  0  0  0
   -2.8659    2.4877   -0.8874 C   0  0  0  0  0  0  0  0  0  0  0  0
    0.3002    2.4897   -0.1070 C   0  0  0  0  0  0  0  0  0  0  0  0
    0.2274    3.9986   -0.0126 C   0  0  0  0  0  0  0  0  0  0  0  0
    1.5753    1.8825   -0.4881 C   0  0  0  0  0  0  0  0  0  0  0  0
    1.6944    0.5374   -1.0025 C   0  0  1  0  0  3  0  0  0  0  0  0
    2.9709    0.1397   -1.5002 C   0  0  0  0  0  0  0  0  0  0  0  0
    4.0883    0.9639   -1.4039 C   0  0  0  0  0  0  0  0  0  0  0  0
    3.9914    2.2465   -0.8341 C   0  0  0  0  0  0  0  0  0  0  0  0
    2.7431    2.6908   -0.4114 C   0  0  0  0  0  0  0  0  0  0  0  0
    0.6565   -1.6026   -1.5516 C   0  0  0  0  0  0  0  0  0  0  0  0
   -0.5320   -2.4669   -1.1360 C   0  0  2  0  0  0  0  0  0  0  0  0
   -1.7192   -2.3964   -2.1422 C   0  0  0  0  0  0  0  0  0  0  0  0
   -2.9653   -2.0787   -1.2847 C   0  0  0  0  0  0  0  0  0  0  0  0
   -2.5350   -2.4420    0.1293 C   0  0  0  0  0  0  0  0  0  0  0  0
   -0.4160   -2.5747    1.3830 C   0  0  0  0  0  0  0  0  0  0  0  0
    0.9306   -1.9432    1.6422 C   0  0  0  0  0  0  0  0  0  0  0  0
    2.1124   -2.5010    1.1239 C   0  0  0  0  0  0  0  0  0  0  0  0
    3.3434   -1.8470    1.2943 C   0  0  0  0  0  0  0  0  0  0  0  0
    3.4034   -0.6316    1.9910 C   0  0  0  0  0  0  0  0  0  0  0  0
    2.2303   -0.0764    2.5278 C   0  0  0  0  0  0  0  0  0  0  0  0
    1.0015   -0.7292    2.3588 C   0  0  0  0  0  0  0  0  0  0  0  0
   -1.9986    0.9692   -1.7222 H   0  0  0  0  0  0  0  0  0  0  0  0
   -2.0573    3.2533    0.9738 H   0  0  0  0  0  0  0  0  0  0  0  0
   -2.4052    3.3401   -1.4459 H   0  0  0  0  0  0  0  0  0  0  0  0
   -3.9070    2.7670   -0.6267 H   0  0  0  0  0  0  0  0  0  0  0  0
   -0.8081    4.3750   -0.0130 H   0  0  0  0  0  0  0  0  0  0  0  0
    0.7097    4.3522    0.9233 H   0  0  0  0  0  0  0  0  0  0  0  0
    0.7644    4.4699   -0.8563 H   0  0  0  0  0  0  0  0  0  0  0  0
    3.0507   -0.8524   -1.9540 H   0  0  0  0  0  0  0  0  0  0  0  0
    5.0564    0.5940   -1.7760 H   0  0  0  0  0  0  0  0  0  0  0  0
    4.8742    2.8955   -0.7401 H   0  0  0  0  0  0  0  0  0  0  0  0
    2.6634    3.7007    0.0118 H   0  0  0  0  0  0  0  0  0  0  0  0
   -0.1610   -3.5116   -1.0551 H   0  0  0  0  0  0  0  0  0  0  0  0
   -1.8126   -3.3651   -2.6691 H   0  0  0  0  0  0  0  0  0  0  0  0
   -1.5411   -1.6266   -2.9180 H   0  0  0  0  0  0  0  0  0  0  0  0
   -3.8597   -2.6471   -1.6044 H   0  0  0  0  0  0  0  0  0  0  0  0
   -3.2198   -1.0009   -1.3288 H   0  0  0  0  0  0  0  0  0  0  0  0
   -2.5832   -3.5423    0.3021 H   0  0  0  0  0  0  0  0  0  0  0  0
   -3.0862   -1.9125    0.9273 H   0  0  0  0  0  0  0  0  0  0  0  0
   -0.3259   -3.6789    1.2697 H   0  0  0  0  0  0  0  0  0  0  0  0
   -1.0971   -2.3679    2.2311 H   0  0  0  0  0  0  0  0  0  0  0  0
    2.0696   -3.4462    0.5604 H   0  0  0  0  0  0  0  0  0  0  0  0
    4.2583   -2.2857    0.8690 H   0  0  0  0  0  0  0  0  0  0  0  0
    4.3649   -0.1102    2.1093 H   0  0  0  0  0  0  0  0  0  0  0  0
    2.2734    0.8740    3.0808 H   0  0  0  0  0  0  0  0  0  0  0  0
    0.0810   -0.2994    2.7837 H   0  0  0  0  0  0  0  0  0  0  0  0
  3 10  1  0  0  0  0
  4 19  2  0  0  0  0
  5  9  1  0  0  0  0
  7 24  1  0  0  0  0
  8  1  1  0  0  0  0
  8  2  2  0  0  0  0
  9 32  1  1  0  0  0
  9  8  1  0  0  0  0
 10 34  1  0  0  0  0
 10  9  1  0  0  0  0
 11 12  1  0  0  0  0
 11  5  1  0  0  0  0
 12 36  1  0  0  0  0
 13 18  1  0  0  0  0
 13 11  2  0  0  0  0
 14  6  1  1  0  0  0
 14 13  1  0  0  0  0
 15 16  2  0  0  0  0
 15 14  1  0  0  0  0
 16 17  1  0  0  0  0
 17 40  1  0  0  0  0
 17 18  2  0  0  0  0
 18 41  1  0  0  0  0
 19 20  1  0  0  0  0
 19  6  1  0  0  0  0
 20 42  1  1  0  0  0
 20  7  1  0  0  0  0
 21 22  1  0  0  0  0
 21 20  1  0  0  0  0
 22 23  1  0  0  0  0
 23  7  1  0  0  0  0
 23 47  1  0  0  0  0
 23 48  1  0  0  0  0
 24 25  1  0  0  0  0
 24 50  1  0  0  0  0
 25 30  1  0  0  0  0
 26 27  1  0  0  0  0
 26 25  2  0  0  0  0
 27 28  2  0  0  0  0
 28 53  1  0  0  0  0
 28 29  1  0  0  0  0
 29 54  1  0  0  0  0
 30 29  2  0  0  0  0
 30 55  1  0  0  0  0
 31  3  1  0  0  0  0
 33 10  1  0  0  0  0
 35 12  1  0  0  0  0
 37 12  1  0  0  0  0
 38 15  1  0  0  0  0
 39 16  1  0  0  0  0
 43 21  1  0  0  0  0
 44 21  1  0  0  0  0
 45 22  1  0  0  0  0
 46 22  1  0  0  0  0
 49 24  1  0  0  0  0
 51 26  1  0  0  0  0
 52 27  1  0  0  0  0
M  CHG  1   1  -1
M  END
