1,4,5,6
q = -2.0, confidence = 0.848

 43 45  0  0  1  0  0  0  0  0999 V2000
   -1.0875   -2.4313    0.5622 O   0  5  0  0  0  0  0  0  0  0  0  0
    0.1692   -4.2769    0.2437 O   0  0  0  0  0  0  0  0  0  0  0  0
   -2.8419    2.8000   -0.7889 O   0  0  0  0  0  0  0  0  0  0  0  0
   -2.9607   -0.6057    0.1579 N   0  0  0  0  0  2  0  0  0  0  0  0
   -1.1876    1.2381   -0.1271 N   0  0  0  0  0  2  0  0  0  0  0  0
    0.7408   -0.7604   -0.0795 N   0  0  0  0  0  2  0  0  0  0  0  0
   -3.7741   -1.6534    0.4043 C   0  0  0  0  0  3  0  0  0  0  0  0
   -3.2646   -2.5782    0.7160 H   0  0  0  0  0  0  0  0  0  0  0  0
   -5.1613   -1.5364    0.2439 C   0  0  0  0  0  0  0  0  0  0  0  0
   -5.8015   -2.4046    0.4556 H   0  0  0  0  0  0  0  0  0  0  0  0
   -5.7073   -0.3171   -0.1891 C   0  0  0  0  0  0  0  0  0  0  0  0
   -6.7936   -0.2097   -0.3264 H   0  0  0  0  0  0  0  0  0  0  0  0
   -4.8465    0.7609   -0.4437 C   0  0  0  0  0  0  0  0  0  0  0  0
   -5.1909    1.7483   -0.7828 H   0  0  0  0  0  0  0  0  0  0  0  0
   -3.4751    0.5764   -0.2521 C   0  0  0  0  0  0  0  0  0  0  0  0
   -2.4699    1.6769   -0.4380 C   0  0  0  0  0  0  0  0  0  0  0  0
   -0.1206    2.1089    0.0566 C   0  0  2  0  0  3  0  0  0  0  0  0
    1.2279    1.6116    0.2305 C   0  0  0  0  0  0  0  0  0  0  0  0
    2.2575    2.5361    0.5720 C   0  0  0  0  0  0  0  0  0  0  0  0
    3.2674    2.1453    0.7503 H   0  0  0  0  0  0  0  0  0  0  0  0
    2.0281    3.9015    0.6941 C   0  0  0  0  0  0  0  0  0  0  0  0
    2.8486    4.5802    0.9682 H   0  0  0  0  0  0  0  0  0  0  0  0
    0.7317    4.3891    0.4500 C   0  0  0  0  0  0  0  0  0  0  0  0
    0.5219    5.4679    0.5175 H   0  0  0  0  0  0  0  0  0  0  0  0
   -0.3102    3.5204    0.1320 C   0  0  0  0  0  0  0  0  0  0  0  0
   -1.3131    3.9116   -0.0628 H   0  0  0  0  0  0  0  0  0  0  0  0
    1.6218    0.2203    0.0357 C   0  0  0  0  0  0  0  0  0  0  0  0
    3.0843   -0.0960   -0.0252 C   0  0  0  0  0  0  0  0  0  0  0  0
    3.6696   -0.8996    0.9735 C   0  0  0  0  0  0  0  0  0  0  0  0
    3.0464   -1.2801    1.7964 H   0  0  0  0  0  0  0  0  0  0  0  0
    5.0330   -1.2175    0.9130 C   0  0  0  0  0  0  0  0  0  0  0  0
    5.4822   -1.8417    1.6999 H   0  0  0  0  0  0  0  0  0  0  0  0
    5.8215   -0.7466   -0.1495 C   0  0  0  0  0  0  0  0  0  0  0  0
    6.8902   -1.0041   -0.1993 H   0  0  0  0  0  0  0  0  0  0  0  0
    5.2446    0.0588   -1.1446 C   0  0  0  0  0  0  0  0  0  0  0  0
    5.8588    0.4341   -1.9771 H   0  0  0  0  0  0  0  0  0  0  0  0
    3.8836    0.3906   -1.0800 C   0  0  0  0  0  0  0  0  0  0  0  0
    3.4279    1.0254   -1.8548 H   0  0  0  0  0  0  0  0  0  0  0  0
    1.0343   -2.1137   -0.4037 C   0  0  0  0  0  0  0  0  0  0  0  0
    0.0030   -3.0678    0.1817 C   0  0  0  0  0  0  0  0  0  0  0  0
    1.9880   -2.5914   -1.2317 C   0  0  0  0  0  0  0  0  0  0  0  0
    2.7116   -1.9651   -1.7677 H   0  0  0  0  0  0  0  0  0  0  0  0
    2.0053   -3.6835   -1.3682 H   0  0  0  0  0  0  0  0  0  0  0  0
  3 16  2  0  0  0  0
  4  7  1  0  0  0  0
  6 27  1  0  0  0  0
  7  8  1  0  0  0  0
  9  7  1  0  0  0  0
  9 10  1  0  0  0  0
 11  9  2  0  0  0  0
 12 11  1  0  0  0  0
 13 15  2  0  0  0  0
 13 11  1  0  0  0  0
 14 13  1  0  0  0  0
 15  4  1  0  0  0  0
 16 15  1  0  0  0  0
 16  5  1  0  0  0  0
 17  5  1  1  0  0  0
 17 25  1  0  0  0  0
 17 18  1  0  0  0  0
 18 19  1  0  0  0  0
 19 21  2  0  0  0  0
 19 20  1  0  0  0  0
 21 22  1  0  0  0  0
 23 24  1  0  0  0  0
 23 21  1  0  0  0  0
 25 23  2  0  0  0  0
 26 25  1  0  0  0  0
 27 18  2  0  0  0  0
 28 27  1  0  0  0  0
 28 29  1  0  0  0  0
 29 30  1  0  0  0  0
 31 29  2  0  0  0  0
 31 32  1  0  0  0  0
 33 31  1  0  0  0  0
 34 33  1  0  0  0  0
 35 37  1  0  0  0  0
 35 33  2  0  0  0  0
 36 35  1  0  0  0  0
 37 28  2  0  0  0  0
 38 37  1  0  0  0  0
 39  6  1  0  0  0  0
 39 40  1  0  0  0  0
 40  2  2  0  0  0  0
 40  1  1  0  0  0  0
 41 39  2  0  0  0  0
 42 41  1  0  0  0  0
 43 41  1  0  0  0  0
M  CHG  1   1  -1
M  END
