2,5,6,7
q = -2.0, confidence = 0.782

 74 77  0  0  1  0  0  0  0  0999 V2000
   -0.8349    0.8834   -2.8044 F   0  0  0  0  0  0  0  0  0  0  0  0
   -0.6896   -2.2631   -1.5575 O   0  5  0  0  0  0  0  0  0  0  0  0
    0.7735   -3.8715   -2.1018 O   0  0  0  0  0  0  0  0  0  0  0  0
   -2.9525    0.9772    2.4429 O   0  0  0  0  0  0  0  0  0  0  0  0
    0.9493   -0.6786   -0.4257 N   0  0  0  0  0  2  0  0  0  0  0  0
   -1.2152    0.4573    0.9278 N   0  0  0  0  0  2  0  0  0  0  0  0
   -2.8362   -0.9827   -0.5781 N   0  0  0  0  0  0  0  0  0  0  0  0
    0.5063   -2.7989   -1.5753 C   0  0  0  0  0  0  0  0  0  0  0  0
    1.5960   -1.9665   -0.8325 C   0  0  2  0  0  0  0  0  0  0  0  0
    1.5837    0.4288   -0.1016 C   0  0  0  0  0  0  0  0  0  0  0  0
    3.0450    0.6074   -0.4019 C   0  0  0  0  0  0  0  0  0  0  0  0
    4.0247    0.3337    0.5709 C   0  0  0  0  0  0  0  0  0  0  0  0
    3.7101   -0.0319    1.5600 H   0  0  0  0  0  0  0  0  0  0  0  0
    5.3820    0.5286    0.2743 C   0  0  0  0  0  0  0  0  0  0  0  0
    6.1442    0.3001    1.0346 H   0  0  0  0  0  0  0  0  0  0  0  0
    5.7673    1.0197   -0.9836 C   0  0  0  0  0  0  0  0  0  0  0  0
    6.8325    1.1722   -1.2141 H   0  0  0  0  0  0  0  0  0  0  0  0
    4.7888    1.3280   -1.9430 C   0  0  0  0  0  0  0  0  0  0  0  0
    5.0847    1.7252   -2.9257 H   0  0  0  0  0  0  0  0  0  0  0  0
    3.4323    1.1255   -1.6535 C   0  0  0  0  0  0  0  0  0  0  0  0
    2.6589    1.3587   -2.4014 H   0  0  0  0  0  0  0  0  0  0  0  0
    0.9528    1.5590    0.5889 C   0  0  0  0  0  0  0  0  0  0  0  0
    1.7263    2.7451    0.7493 C   0  0  0  0  0  3  0  0  0  0  0  0
    2.7069    2.8001    0.2612 H   0  0  0  0  0  0  0  0  0  0  0  0
    1.2933    3.8281    1.5066 C   0  0  0  0  0  0  0  0  0  0  0  0
    1.9216    4.7262    1.5969 H   0  0  0  0  0  0  0  0  0  0  0  0
    0.0609    3.7315    2.1776 C   0  0  0  0  0  0  0  0  0  0  0  0
   -0.2921    4.5568    2.8155 H   0  0  0  0  0  0  0  0  0  0  0  0
   -0.7354    2.5985    2.0389 C   0  0  0  0  0  0  0  0  0  0  0  0
   -1.6948    2.5232    2.5589 H   0  0  0  0  0  0  0  0  0  0  0  0
   -0.3542    1.5092    1.2000 C   0  0  0  0  0  0  0  0  0  0  0  0
   -2.4813    0.3600    1.4862 C   0  0  0  0  0  0  0  0  0  0  0  0
   -3.3304   -0.7021    0.7974 C   0  0  2  0  0  0  0  0  0  0  0  0
   -4.3755   -0.3217    0.7567 H   0  0  0  0  0  0  0  0  0  0  0  0
   -3.2904   -2.0763    1.5225 C   0  0  0  0  0  0  0  0  0  0  0  0
   -4.2235   -2.2217    2.0986 H   0  0  0  0  0  0  0  0  0  0  0  0
   -2.4544   -2.1098    2.2482 H   0  0  0  0  0  0  0  0  0  0  0  0
   -3.1084   -3.1250    0.3993 C   0  0  0  0  0  0  0  0  0  0  0  0
   -2.0761   -3.5238    0.3920 H   0  0  0  0  0  0  0  0  0  0  0  0
   -3.8006   -3.9832    0.4956 H   0  0  0  0  0  0  0  0  0  0  0  0
   -3.3491   -2.3470   -0.8889 C   0  0  0  0  0  0  0  0  0  0  0  0
   -2.8106   -2.7536   -1.7626 H   0  0  0  0  0  0  0  0  0  0  0  0
   -4.4370   -2.2584   -1.1150 H   0  0  0  0  0  0  0  0  0  0  0  0
   -3.2652   -0.0077   -1.6280 C   0  0  0  0  0  0  0  0  0  0  0  0
   -2.9205   -0.4306   -2.5909 H   0  0  0  0  0  0  0  0  0  0  0  0
   -4.3791    0.0157   -1.6372 H   0  0  0  0  0  0  0  0  0  0  0  0
   -2.7328    1.3934   -1.4626 C   0  0  0  0  0  0  0  0  0  0  0  0
   -1.5151    1.7813   -2.0541 C   0  0  0  0  0  0  0  0  0  0  0  0
   -0.9682    3.0555   -1.8860 C   0  0  0  0  0  0  0  0  0  0  0  0
   -0.0019    3.2888   -2.3544 H   0  0  0  0  0  0  0  0  0  0  0  0
   -1.6627    3.9960   -1.1128 C   0  0  0  0  0  0  0  0  0  0  0  0
   -1.2327    4.9965   -0.9600 H   0  0  0  0  0  0  0  0  0  0  0  0
   -2.8906    3.6533   -0.5263 C   0  0  0  0  0  0  0  0  0  0  0  0
   -3.4369    4.3863    0.0842 H   0  0  0  0  0  0  0  0  0  0  0  0
   -3.4175    2.3671   -0.7090 C   0  0  0  0  0  0  0  0  0  0  0  0
   -4.3756    2.0985   -0.2383 H   0  0  0  0  0  0  0  0  0  0  0  0
    1.9755   -2.7284    0.4687 C   0  0  0  0  0  0  0  0  0  0  0  0
    2.4778   -3.6623    0.1458 H   0  0  0  0  0  0  0  0  0  0  0  0
    2.7382   -2.1154    0.9928 H   0  0  0  0  0  0  0  0  0  0  0  0
    0.8036   -3.0508    1.4147 C   0  0  0  0  0  0  0  0  0  0  0  0
    0.4975   -4.1095    1.2926 H   0  0  0  0  0  0  0  0  0  0  0  0
   -0.0826   -2.4431    1.1169 H   0  0  0  0  0  0  0  0  0  0  0  0
    1.0955   -2.7536    2.8975 C   0  0  0  0  0  0  0  0  0  0  0  0
    0.2556   -3.1587    3.5061 H   0  0  0  0  0  0  0  0  0  0  0  0
    2.0124   -3.2870    3.2311 H   0  0  0  0  0  0  0  0  0  0  0  0
    1.2209   -1.2804    3.1675 C   0  0  0  0  0  0  0  0  0  0  0  0
    0.3459   -0.6698    2.8770 H   0  0  0  0  0  0  0  0  0  0  0  0
    2.2921   -0.6592    3.6935 C   0  0  0  0  0  0  0  0  0  0  0  0
    3.1924   -1.2219    3.9952 H   0  0  0  0  0  0  0  0  0  0  0  0
    2.2998    0.4305    3.8521 H   0  0  0  0  0  0  0  0  0  0  0  0
    2.8053   -1.9204   -1.7768 C   0  0  0  0  0  0  0  0  0  0  0  0
    3.7465   -1.6292   -1.2804 H   0  0  0  0  0  0  0  0  0  0  0  0
    2.6238   -1.2486   -2.6361 H   0  0  0  0  0  0  0  0  0  0  0  0
    2.9065   -2.9517   -2.1679 H   0  0  0  0  0  0  0  0  0  0  0  0
  1 48  1  0  0  0  0
  3  8  2  0  0  0  0
  5 10  1  0  0  0  0
  6 31  1  0  0  0  0
  6 32  1  0  0  0  0
  7 33  1  0  0  0  0
  8  2  1  0  0  0  0
  9  8  1  6  0  0  0
  9  5  1  0  0  0  0
  9 57  1  0  0  0  0
 10 22  2  0  0  0  0
 11 10  1  0  0  0  0
 11 12  1  0  0  0  0
 12 13  1  0  0  0  0
 14 12  2  0  0  0  0
 14 15  1  0  0  0  0
 16 14  1  0  0  0  0
 17 16  1  0  0  0  0
 18 20  1  0  0  0  0
 18 16  2  0  0  0  0
 19 18  1  0  0  0  0
 20 11  2  0  0  0  0
 21 20  1  0  0  0  0
 22 23  1  0  0  0  0
 22 31  1  0  0  0  0
 23 25  1  0  0  0  0
 24 23  1  0  0  0  0
 25 26  1  0  0  0  0
 25 27  2  0  0  0  0
 27 28  1  0  0  0  0
 29 27  1  0  0  0  0
 29 30  1  0  0  0  0
 31 29  2  0  0  0  0
 32  4  2  0  0  0  0
 33 34  1  6  0  0  0
 33 32  1  0  0  0  0
 33 35  1  0  0  0  0
 35 36  1  0  0  0  0
 35 37  1  0  0  0  0
 38 40  1  0  0  0  0
 38 35  1  0  0  0  0
 39 38  1  0  0  0  0
 41  7  1  0  0  0  0
 41 38  1  0  0  0  0
 42 41  1  0  0  0  0
 43 41  1  0  0  0  0
 44 47  1  0  0  0  0
 44  7  1  0  0  0  0
 45 44  1  0  0  0  0
 46 44  1  0  0  0  0
 47 55  1  0  0  0  0
 48 49  1  0  0  0  0
 48 47  2  0  0  0  0
 49 51  2  0  0  0  0
 50 49  1  0  0  0  0
 51 52  1  0  0  0  0
 51 53  1  0  0  0  0
 53 54  1  0  0  0  0
 55 53  2  0  0  0  0
 55 56  1  0  0  0  0
 57 59  1  0  0  0  0
 57 60  1  0  0  0  0
 58 57  1  0  0  0  0
 60 63  1  0  0  0  0
 61 60  1  0  0  0  0
 62 60  1  0  0  0  0
 63 66  1  0  0  0  0
 63 65  1  0  0  0  0
 63 64  1  0  0  0  0
 66 68  2  0  0  0  0
 67 66  1  0  0  0  0
 68 70  1  0  0  0  0
 68 69  1  0  0  0  0
 71 72  1  0  0  0  0
 71  9  1  0  0  0  0
 73 71  1  0  0  0  0
 74 71  1  0  0  0  0
M  CHG  1   2  -1
M  END
