1,10,20,35
q = -1.0

 46 47  0  0  1  0  0  0  0  0999 V2000
   -1.0593    0.2316   -0.1143 O   0  0  0  0  0  1  0  0  0  0  0  0
   -2.0798   -0.5772   -0.0574 C   0  0  2  0  0  3  0  0  0  0  0  0
   -1.9664   -1.9751   -0.1202 C   0  0  0  0  0  0  0  0  0  0  0  0
   -2.8901   -2.5646   -0.1233 H   0  0  0  0  0  0  0  0  0  0  0  0
   -0.7497   -2.6793   -0.2795 C   0  0  0  0  0  0  0  0  0  0  0  0
   -0.8125   -4.1746   -0.4824 C   0  0  0  0  0  0  0  0  0  0  0  0
   -0.4110   -4.4614   -1.4763 H   0  0  0  0  0  0  0  0  0  0  0  0
   -1.8537   -4.5346   -0.4182 H   0  0  0  0  0  0  0  0  0  0  0  0
   -0.2148   -4.7127    0.2819 H   0  0  0  0  0  0  0  0  0  0  0  0
    0.4365   -2.0598   -0.2788 N   0  0  0  0  0  2  0  0  0  0  0  0
    1.6795   -2.7606   -0.6202 C   0  0  0  0  0  0  0  0  0  0  0  0
    1.6666   -3.8175   -0.2875 H   0  0  0  0  0  0  0  0  0  0  0  0
    1.8135   -2.7657   -1.7250 H   0  0  0  0  0  0  0  0  0  0  0  0
    2.8440   -2.0153    0.0443 C   0  0  2  0  0  0  0  0  0  0  0  0
    3.7846   -2.2277   -0.5071 H   0  0  0  0  0  0  0  0  0  0  0  0
    3.0140   -2.3858    1.5236 C   0  0  0  0  0  0  0  0  0  0  0  0
    2.0694   -2.2078    2.0747 H   0  0  0  0  0  0  0  0  0  0  0  0
    3.8141   -1.7861    1.9991 H   0  0  0  0  0  0  0  0  0  0  0  0
    3.2837   -3.4556    1.6169 H   0  0  0  0  0  0  0  0  0  0  0  0
    2.4979   -0.5933   -0.0761 N   0  0  0  0  0  2  0  0  0  0  0  0
    3.3341    0.4208   -0.0643 C   0  0  0  0  0  0  0  0  0  0  0  0
    4.8246    0.3256   -0.0271 C   0  0  0  0  0  0  0  0  0  0  0  0
    5.2160    0.7394    0.9261 H   0  0  0  0  0  0  0  0  0  0  0  0
    5.2720    0.9248   -0.8464 H   0  0  0  0  0  0  0  0  0  0  0  0
    5.1851   -0.7132   -0.1228 H   0  0  0  0  0  0  0  0  0  0  0  0
    2.6333    1.7088   -0.0451 C   0  0  0  0  0  0  0  0  0  0  0  0
    3.2295    2.9792   -0.0215 C   0  0  0  0  0  0  0  0  0  0  0  0
    4.3238    3.0752   -0.0468 H   0  0  0  0  0  0  0  0  0  0  0  0
    2.4084    4.1137    0.0399 C   0  0  0  0  0  0  0  0  0  0  0  0
    2.8530    5.1193    0.0594 H   0  0  0  0  0  0  0  0  0  0  0  0
    1.0149    3.9474    0.0817 C   0  0  0  0  0  0  0  0  0  0  0  0
    0.3386    4.8119    0.1378 H   0  0  0  0  0  0  0  0  0  0  0  0
    0.4789    2.6532    0.0539 C   0  0  0  0  0  0  0  0  0  0  0  0
   -0.6022    2.4480    0.0898 H   0  0  0  0  0  0  0  0  0  0  0  0
    1.2674    1.5656   -0.0137 N   0  0  0  0  0  2  0  0  0  0  0  0
   -3.4057    0.0841    0.0378 C   0  0  0  0  0  0  0  0  0  0  0  0
   -3.5722    1.3856   -0.4884 C   0  0  0  0  0  0  0  0  0  0  0  0
   -2.7202    1.8750   -0.9816 H   0  0  0  0  0  0  0  0  0  0  0  0
   -4.8140    2.0270   -0.4171 C   0  0  0  0  0  0  0  0  0  0  0  0
   -4.9366    3.0331   -0.8451 H   0  0  0  0  0  0  0  0  0  0  0  0
   -5.9045    1.3844    0.1923 C   0  0  0  0  0  0  0  0  0  0  0  0
   -6.8799    1.8899    0.2516 H   0  0  0  0  0  0  0  0  0  0  0  0
   -5.7474    0.0950    0.7264 C   0  0  0  0  0  0  0  0  0  0  0  0
   -6.5958   -0.4071    1.2144 H   0  0  0  0  0  0  0  0  0  0  0  0
   -4.5093   -0.5545    0.6471 C   0  0  0  0  0  0  0  0  0  0  0  0
   -4.3915   -1.5533    1.0920 H   0  0  0  0  0  0  0  0  0  0  0  0
  2  1  1  6  0  0  0
  2 36  1  0  0  0  0
  3  2  1  0  0  0  0
  4  3  1  0  0  0  0
  5 10  1  0  0  0  0
  5  3  2  0  0  0  0
  6  8  1  0  0  0  0
  6  5  1  0  0  0  0
  6  9  1  0  0  0  0
  7  6  1  0  0  0  0
 11 12  1  0  0  0  0
 11 10  1  0  0  0  0
 11 14  1  0  0  0  0
 13 11  1  0  0  0  0
 14 15  1  6  0  0  0
 14 16  1  0  0  0  0
 16 19  1  0  0  0  0
 16 18  1  0  0  0  0
 16 17  1  0  0  0  0
 20 21  1  0  0  0  0
 20 14  1  0  0  0  0
 21 26  2  0  0  0  0
 21 22  1  0  0  0  0
 22 23  1  0  0  0  0
 24 22  1  0  0  0  0
 25 22  1  0  0  0  0
 26 27  1  0  0  0  0
 26 35  1  0  0  0  0
 27 29  2  0  0  0  0
 28 27  1  0  0  0  0
 29 30  1  0  0  0  0
 29 31  1  0  0  0  0
 31 32  1  0  0  0  0
 33 31  2  0  0  0  0
 33 34  1  0  0  0  0
 35 33  1  0  0  0  0
 36 45  1  0  0  0  0
 37 39  1  0  0  0  0
 37 36  2  0  0  0  0
 38 37  1  0  0  0  0
 39 41  2  0  0  0  0
 40 39  1  0  0  0  0
 41 42  1  0  0  0  0
 41 43  1  0  0  0  0
 43 44  1  0  0  0  0
 45 43  2  0  0  0  0
 45 46  1  0  0  0  0
M  END
