1,2,3,4
q = -1.0

 71 73  0  0  1  0  0  0  0  0999 V2000
    0.5442    1.0018   -0.4593 O   0  5  0  0  0  0  0  0  0  0  0  0
    3.0345   -0.0067   -0.7572 N   0  0  0  0  0  2  0  0  0  0  0  0
    1.0546   -1.9755   -0.5826 N   0  0  0  0  0  0  0  0  0  0  0  0
    0.3514   -0.5506    1.8139 N   0  0  0  0  0  2  0  0  0  0  0  0
    3.4897    2.3134   -0.2106 C   0  0  0  0  0  0  0  0  0  0  0  0
    3.7302    1.1117   -1.0709 C   0  0  1  0  0  3  0  0  0  0  0  0
    4.6307    1.0969   -2.1518 C   0  0  0  0  0  0  0  0  0  0  0  0
    4.8028   -0.0762   -2.8950 C   0  0  0  0  0  0  0  0  0  0  0  0
    4.0718   -1.2203   -2.5436 C   0  0  0  0  0  0  0  0  0  0  0  0
    3.1906   -1.1592   -1.4579 C   0  0  0  0  0  0  0  0  0  0  0  0
    2.3975   -2.3612   -0.9659 C   0  0  0  0  0  0  0  0  0  0  0  0
    0.3933   -2.6384    0.5191 C   0  0  0  0  0  0  0  0  0  0  0  0
   -0.3171   -1.6837    1.4722 C   0  0  1  0  0  3  0  0  0  0  0  0
   -1.5264   -2.0150    2.0959 C   0  0  0  0  0  0  0  0  0  0  0  0
   -2.0239   -1.1797    3.1032 C   0  0  0  0  0  0  0  0  0  0  0  0
   -1.2652   -0.0745    3.5076 C   0  0  0  0  0  0  0  0  0  0  0  0
   -0.0538    0.2166    2.8557 C   0  0  0  0  0  0  0  0  0  0  0  0
    0.8783    1.2945    3.3163 C   0  0  0  0  0  0  0  0  0  0  0  0
    0.1898   -1.5445   -1.6759 C   0  0  0  0  0  0  0  0  0  0  0  0
   -0.9688   -0.6936   -1.2287 C   0  0  0  0  0  0  0  0  0  0  0  0
   -2.2822   -1.1573   -1.3753 C   0  0  0  0  0  0  0  0  0  0  0  0
   -3.3909   -0.3541   -1.0597 C   0  0  0  0  0  0  0  0  0  0  0  0
   -3.1153    0.9774   -0.6879 C   0  0  0  0  0  0  0  0  0  0  0  0
   -1.8196    1.5029   -0.5332 C   0  0  0  0  0  0  0  0  0  0  0  0
   -0.7005    0.6160   -0.7090 C   0  0  0  0  0  0  0  0  0  0  0  0
   -4.8155   -0.9298   -1.1333 C   0  0  0  0  0  0  0  0  0  0  0  0
   -5.0943   -1.4675   -2.5547 C   0  0  0  0  0  0  0  0  0  0  0  0
   -5.8861    0.1225   -0.7967 C   0  0  0  0  0  0  0  0  0  0  0  0
   -4.9378   -2.0875   -0.1147 C   0  0  0  0  0  0  0  0  0  0  0  0
   -1.6006    3.0040   -0.2628 C   0  0  0  0  0  0  0  0  0  0  0  0
   -0.7671    3.5904   -1.4278 C   0  0  0  0  0  0  0  0  0  0  0  0
   -0.8418    3.2142    1.0621 C   0  0  0  0  0  0  0  0  0  0  0  0
   -2.9232    3.7870   -0.1832 C   0  0  0  0  0  0  0  0  0  0  0  0
    4.1865    3.1374   -0.4526 H   0  0  0  0  0  0  0  0  0  0  0  0
    2.4444    2.6615   -0.3393 H   0  0  0  0  0  0  0  0  0  0  0  0
    3.6048    2.0194    0.8532 H   0  0  0  0  0  0  0  0  0  0  0  0
    5.1874    2.0120   -2.3989 H   0  0  0  0  0  0  0  0  0  0  0  0
    5.4994   -0.0993   -3.7463 H   0  0  0  0  0  0  0  0  0  0  0  0
    4.1739   -2.1609   -3.1041 H   0  0  0  0  0  0  0  0  0  0  0  0
    2.9205   -2.7327   -0.0579 H   0  0  0  0  0  0  0  0  0  0  0  0
    2.4364   -3.1653   -1.7436 H   0  0  0  0  0  0  0  0  0  0  0  0
   -0.3298   -3.4260    0.1932 H   0  0  0  0  0  0  0  0  0  0  0  0
    1.1767   -3.1366    1.1300 H   0  0  0  0  0  0  0  0  0  0  0  0
   -2.0711   -2.9138    1.7744 H   0  0  0  0  0  0  0  0  0  0  0  0
   -2.9875   -1.4018    3.5859 H   0  0  0  0  0  0  0  0  0  0  0  0
   -1.5994    0.5739    4.3298 H   0  0  0  0  0  0  0  0  0  0  0  0
    1.2291    1.9030    2.4626 H   0  0  0  0  0  0  0  0  0  0  0  0
    0.4060    1.9489    4.0720 H   0  0  0  0  0  0  0  0  0  0  0  0
    1.7844    0.8123    3.7401 H   0  0  0  0  0  0  0  0  0  0  0  0
    0.8245   -0.9485   -2.3682 H   0  0  0  0  0  0  0  0  0  0  0  0
   -0.1952   -2.4233   -2.2546 H   0  0  0  0  0  0  0  0  0  0  0  0
   -2.4271   -2.1847   -1.7504 H   0  0  0  0  0  0  0  0  0  0  0  0
   -3.9615    1.6502   -0.5078 H   0  0  0  0  0  0  0  0  0  0  0  0
   -4.3756   -2.2603   -2.8427 H   0  0  0  0  0  0  0  0  0  0  0  0
   -6.1149   -1.9002   -2.6187 H   0  0  0  0  0  0  0  0  0  0  0  0
   -5.0156   -0.6545   -3.3045 H   0  0  0  0  0  0  0  0  0  0  0  0
   -6.8957   -0.3328   -0.8540 H   0  0  0  0  0  0  0  0  0  0  0  0
   -5.7581    0.5262    0.2278 H   0  0  0  0  0  0  0  0  0  0  0  0
   -5.8618    0.9743   -1.5059 H   0  0  0  0  0  0  0  0  0  0  0  0
   -4.2083   -2.8943   -0.3300 H   0  0  0  0  0  0  0  0  0  0  0  0
   -4.7429   -1.7238    0.9151 H   0  0  0  0  0  0  0  0  0  0  0  0
   -5.9547   -2.5334   -0.1394 H   0  0  0  0  0  0  0  0  0  0  0  0
   -1.3152    3.4966   -2.3874 H   0  0  0  0  0  0  0  0  0  0  0  0
   -0.5583    4.6672   -1.2536 H   0  0  0  0  0  0  0  0  0  0  0  0
    0.1953    3.0523   -1.5246 H   0  0  0  0  0  0  0  0  0  0  0  0
    0.1380    2.7099    1.0122 H   0  0  0  0  0  0  0  0  0  0  0  0
   -0.6827    4.2962    1.2544 H   0  0  0  0  0  0  0  0  0  0  0  0
   -1.4109    2.7910    1.9149 H   0  0  0  0  0  0  0  0  0  0  0  0
   -3.5609    3.4422    0.6564 H   0  0  0  0  0  0  0  0  0  0  0  0
   -2.7055    4.8614   -0.0152 H   0  0  0  0  0  0  0  0  0  0  0  0
   -3.5127    3.7082   -1.1190 H   0  0  0  0  0  0  0  0  0  0  0  0
  3 12  1  0  0  0  0
  4 17  1  0  0  0  0
  5 36  1  0  0  0  0
  6  2  1  0  0  0  0
  6  5  1  1  0  0  0
  7  6  1  0  0  0  0
  8  9  1  0  0  0  0
  8  7  2  0  0  0  0
  9 10  2  0  0  0  0
 10 11  1  0  0  0  0
 10  2  1  0  0  0  0
 11  3  1  0  0  0  0
 11 40  1  0  0  0  0
 12 43  1  0  0  0  0
 13 12  1  1  0  0  0
 13  4  1  0  0  0  0
 13 14  1  0  0  0  0
 14 15  2  0  0  0  0
 15 16  1  0  0  0  0
 15 45  1  0  0  0  0
 16 46  1  0  0  0  0
 17 18  1  0  0  0  0
 17 16  2  0  0  0  0
 18 49  1  0  0  0  0
 18 48  1  0  0  0  0
 19 20  1  0  0  0  0
 19  3  1  0  0  0  0
 20 25  1  0  0  0  0
 21 20  2  0  0  0  0
 21 22  1  0  0  0  0
 22 23  2  0  0  0  0
 23 24  1  0  0  0  0
 23 53  1  0  0  0  0
 24 30  1  0  0  0  0
 25 24  2  0  0  0  0
 25  1  1  0  0  0  0
 26 22  1  0  0  0  0
 26 28  1  0  0  0  0
 26 29  1  0  0  0  0
 27 26  1  0  0  0  0
 28 58  1  0  0  0  0
 29 61  1  0  0  0  0
 30 33  1  0  0  0  0
 30 32  1  0  0  0  0
 31 64  1  0  0  0  0
 31 30  1  0  0  0  0
 32 67  1  0  0  0  0
 32 68  1  0  0  0  0
 33 70  1  0  0  0  0
 33 69  1  0  0  0  0
 34  5  1  0  0  0  0
 35  5  1  0  0  0  0
 37  7  1  0  0  0  0
 38  8  1  0  0  0  0
 39  9  1  0  0  0  0
 41 11  1  0  0  0  0
 42 12  1  0  0  0  0
 44 14  1  0  0  0  0
 47 18  1  0  0  0  0
 50 19  1  0  0  0  0
 51 19  1  0  0  0  0
 52 21  1  0  0  0  0
 54 27  1  0  0  0  0
 55 27  1  0  0  0  0
 56 27  1  0  0  0  0
 57 28  1  0  0  0  0
 59 28  1  0  0  0  0
 60 29  1  0  0  0  0
 62 29  1  0  0  0  0
 63 31  1  0  0  0  0
 65 31  1  0  0  0  0
 66 32  1  0  0  0  0
 71 33  1  0  0  0  0
M  CHG  1   1  -1
M  END
