1,2,4,7
q = -1.0, confidence = 0.05

 43 44  0  0  1  0  0  0  0  0999 V2000
    1.0432   -0.9545   -0.0629 N   0  0  0  0  0  2  0  0  0  0  0  0
   -0.7173   -2.8961   -0.0629 N   0  0  0  0  0  0  0  0  0  0  0  0
   -0.6451   -3.2261   -1.0415 H   0  0  0  0  0  0  0  0  0  0  0  0
   -2.6997   -1.2173   -0.0845 N   0  0  0  0  0  2  0  0  0  0  0  0
    2.7221    2.5271    0.7303 O   0  0  0  0  0  0  0  0  0  0  0  0
    3.1565    3.3745    0.9462 H   0  0  0  0  0  0  0  0  0  0  0  0
   -0.9289    0.8471   -0.1827 O   0  0  0  0  0  1  0  0  0  0  0  0
    3.6522    1.6361    0.3195 C   0  0  0  0  0  0  0  0  0  0  0  0
    5.0257    1.9404    0.3021 C   0  0  0  0  0  0  0  0  0  0  0  0
    5.3633    2.9361    0.6316 H   0  0  0  0  0  0  0  0  0  0  0  0
    5.9531    0.9873   -0.1293 C   0  0  0  0  0  0  0  0  0  0  0  0
    7.0235    1.2413   -0.1389 H   0  0  0  0  0  0  0  0  0  0  0  0
    5.5248   -0.2828   -0.5594 C   0  0  0  0  0  0  0  0  0  0  0  0
    6.2546   -1.0195   -0.9233 H   0  0  0  0  0  0  0  0  0  0  0  0
    4.1659   -0.5967   -0.5361 C   0  0  0  0  0  0  0  0  0  0  0  0
    3.8469   -1.5720   -0.9226 H   0  0  0  0  0  0  0  0  0  0  0  0
    3.1935    0.3407   -0.0912 C   0  0  0  0  0  0  0  0  0  0  0  0
    1.7564    0.1396   -0.0849 C   0  0  0  0  0  3  0  0  0  0  0  0
    1.1368    1.0548   -0.0800 H   0  0  0  0  0  0  0  0  0  0  0  0
    1.6157   -2.3024    0.0357 C   0  0  0  0  0  0  0  0  0  0  0  0
    2.5387   -2.3157    0.6516 H   0  0  0  0  0  0  0  0  0  0  0  0
    1.8926   -2.6664   -0.9800 H   0  0  0  0  0  0  0  0  0  0  0  0
    0.5479   -3.2031    0.6423 C   0  0  0  0  0  0  0  0  0  0  0  0
    0.8149   -4.2790    0.5653 H   0  0  0  0  0  0  0  0  0  0  0  0
    0.4001   -2.9599    1.7132 H   0  0  0  0  0  0  0  0  0  0  0  0
   -1.9756   -3.4202    0.5256 C   0  0  0  0  0  0  0  0  0  0  0  0
   -1.9425   -3.2196    1.6149 H   0  0  0  0  0  0  0  0  0  0  0  0
   -2.0771   -4.5157    0.3730 H   0  0  0  0  0  0  0  0  0  0  0  0
   -3.1003   -2.6297   -0.1266 C   0  0  0  0  0  0  0  0  0  0  0  0
   -3.2298   -2.9498   -1.1862 H   0  0  0  0  0  0  0  0  0  0  0  0
   -4.0694   -2.8009    0.3872 H   0  0  0  0  0  0  0  0  0  0  0  0
   -3.6105   -0.2679   -0.0558 C   0  0  0  0  0  0  0  0  0  0  0  0
   -4.6731   -0.5792   -0.0151 H   0  0  0  0  0  0  0  0  0  0  0  0
   -3.3411    1.1302   -0.0661 C   0  0  0  0  0  0  0  0  0  0  0  0
   -4.4267    2.0554   -0.0110 C   0  0  0  0  0  0  0  0  0  0  0  0
   -5.4533    1.6590    0.0302 H   0  0  0  0  0  0  0  0  0  0  0  0
   -4.2026    3.4228   -0.0099 C   0  0  0  0  0  0  0  0  0  0  0  0
   -5.0449    4.1272    0.0311 H   0  0  0  0  0  0  0  0  0  0  0  0
   -2.8695    3.9039   -0.0603 C   0  0  0  0  0  0  0  0  0  0  0  0
   -2.6843    4.9890   -0.0582 H   0  0  0  0  0  0  0  0  0  0  0  0
   -1.7872    3.0326   -0.1116 C   0  0  0  0  0  0  0  0  0  0  0  0
   -0.7527    3.4030   -0.1484 H   0  0  0  0  0  0  0  0  0  0  0  0
   -1.9865    1.6222   -0.1218 C   0  0  2  0  0  3  0  0  0  0  0  0
  1 20  1  0  0  0  0
  2 26  1  0  0  0  0
  2 23  1  0  0  0  0
  3  2  1  0  0  0  0
  4 32  1  0  0  0  0
  5  6  1  0  0  0  0
  8  5  1  0  0  0  0
  9  8  1  0  0  0  0
  9 10  1  0  0  0  0
 11  9  2  0  0  0  0
 12 11  1  0  0  0  0
 13 15  2  0  0  0  0
 13 11  1  0  0  0  0
 14 13  1  0  0  0  0
 15 17  1  0  0  0  0
 16 15  1  0  0  0  0
 17 18  1  0  0  0  0
 17  8  2  0  0  0  0
 18 19  1  0  0  0  0
 18  1  1  0  0  0  0
 20 23  1  0  0  0  0
 20 21  1  0  0  0  0
 22 20  1  0  0  0  0
 23 25  1  0  0  0  0
 24 23  1  0  0  0  0
 26 27  1  0  0  0  0
 28 26  1  0  0  0  0
 29  4  1  0  0  0  0
 29 31  1  0  0  0  0
 29 26  1  0  0  0  0
 30 29  1  0  0  0  0
 32 33  1  0  0  0  0
 34 32  2  0  0  0  0
 34 35  1  0  0  0  0
 35 37  2  0  0  0  0
 35 36  1  0  0  0  0
 37 38  1  0  0  0  0
 39 40  1  0  0  0  0
 39 37  1  0  0  0  0
 41 39  2  0  0  0  0
 42 41  1  0  0  0  0
 43  7  1  6  0  0  0
 43 41  1  0  0  0  0
 43 34  1  0  0  0  0
M  END
