1,2,3,4
q = -1.0, confidence = 0.112

 41 43  0  0  1  0  0  0  0  0999 V2000
    0.0377   -0.4914   -1.5720 O   0  5  0  0  0  0  0  0  0  0  0  0
   -0.7336    1.6556    0.2150 N   0  0  0  0  0  2  0  0  0  0  0  0
    2.6285   -0.5429   -0.2483 N   0  0  0  0  0  2  0  0  0  0  0  0
    0.4376   -0.5963    1.4418 N   0  0  0  0  0  0  0  0  0  0  0  0
   -1.4235    2.4778   -0.6013 C   0  0  0  0  0  3  0  0  0  0  0  0
   -0.9268    2.7657   -1.5376 H   0  0  0  0  0  0  0  0  0  0  0  0
   -2.7086    2.9160   -0.2749 C   0  0  0  0  0  0  0  0  0  0  0  0
   -3.2437    3.5850   -0.9626 H   0  0  0  0  0  0  0  0  0  0  0  0
   -3.2909    2.4702    0.9192 C   0  0  0  0  0  0  0  0  0  0  0  0
   -4.3078    2.7842    1.1969 H   0  0  0  0  0  0  0  0  0  0  0  0
   -2.5704    1.6017    1.7501 C   0  0  0  0  0  0  0  0  0  0  0  0
   -3.0090    1.2171    2.6815 H   0  0  0  0  0  0  0  0  0  0  0  0
   -1.2828    1.1967    1.3806 C   0  0  0  0  0  0  0  0  0  0  0  0
   -0.4228    0.3020    2.2541 C   0  0  0  0  0  0  0  0  0  0  0  0
    0.2550    0.9614    2.8341 H   0  0  0  0  0  0  0  0  0  0  0  0
   -1.0595   -0.2668    2.9635 H   0  0  0  0  0  0  0  0  0  0  0  0
    1.7664   -0.9249    2.0232 C   0  0  0  0  0  0  0  0  0  0  0  0
    1.7069   -1.7601    2.7527 H   0  0  0  0  0  0  0  0  0  0  0  0
    2.1363   -0.0145    2.5379 H   0  0  0  0  0  0  0  0  0  0  0  0
    2.7461   -1.2562    0.9136 C   0  0  2  0  0  3  0  0  0  0  0  0
    3.7535   -2.2187    1.0409 C   0  0  0  0  0  0  0  0  0  0  0  0
    3.8360   -2.7916    1.9754 H   0  0  0  0  0  0  0  0  0  0  0  0
    4.6368   -2.4446   -0.0254 C   0  0  0  0  0  0  0  0  0  0  0  0
    5.4334   -3.1974    0.0660 H   0  0  0  0  0  0  0  0  0  0  0  0
    4.4777   -1.7166   -1.2119 C   0  0  0  0  0  0  0  0  0  0  0  0
    5.1340   -1.8769   -2.0783 H   0  0  0  0  0  0  0  0  0  0  0  0
    3.4496   -0.7729   -1.2922 C   0  0  0  0  0  0  0  0  0  0  0  0
    3.2605   -0.1862   -2.2015 H   0  0  0  0  0  0  0  0  0  0  0  0
   -0.2684   -1.8212    0.9460 C   0  0  0  0  0  0  0  0  0  0  0  0
    0.4941   -2.3999    0.3821 H   0  0  0  0  0  0  0  0  0  0  0  0
   -0.5840   -2.4302    1.8210 H   0  0  0  0  0  0  0  0  0  0  0  0
   -1.4348   -1.5221    0.0506 C   0  0  0  0  0  0  0  0  0  0  0  0
   -1.1900   -0.8900   -1.2067 C   0  0  0  0  0  0  0  0  0  0  0  0
   -2.2856   -0.6880   -2.0806 C   0  0  0  0  0  0  0  0  0  0  0  0
   -2.0915   -0.2152   -3.0545 H   0  0  0  0  0  0  0  0  0  0  0  0
   -3.5791   -1.0796   -1.7223 C   0  0  0  0  0  0  0  0  0  0  0  0
   -4.4228   -0.9205   -2.4089 H   0  0  0  0  0  0  0  0  0  0  0  0
   -3.8101   -1.6694   -0.4653 C   0  0  0  0  0  0  0  0  0  0  0  0
   -5.4244   -2.1220    0.0038 Cl  0  0  0  0  0  0  0  0  0  0  0  0
   -2.7400   -1.8966    0.4127 C   0  0  0  0  0  0  0  0  0  0  0  0
   -2.9298   -2.3840    1.3811 H   0  0  0  0  0  0  0  0  0  0  0  0
  1 33  1  0  0  0  0
  2 13  1  0  0  0  0
  3 20  1  0  0  0  0
  4 17  1  0  0  0  0
  4 14  1  0  0  0  0
  5  7  1  0  0  0  0
  5  2  1  0  0  0  0
  6  5  1  0  0  0  0
  7  9  2  0  0  0  0
  8  7  1  0  0  0  0
  9 10  1  0  0  0  0
  9 11  1  0  0  0  0
 11 12  1  0  0  0  0
 13 11  2  0  0  0  0
 13 14  1  0  0  0  0
 14 15  1  0  0  0  0
 14 16  1  0  0  0  0
 17 19  1  0  0  0  0
 17 18  1  0  0  0  0
 20 21  1  0  0  0  0
 20 17  1  1  0  0  0
 21 22  1  0  0  0  0
 23 24  1  0  0  0  0
 23 21  2  0  0  0  0
 25 23  1  0  0  0  0
 26 25  1  0  0  0  0
 27 25  2  0  0  0  0
 27  3  1  0  0  0  0
 28 27  1  0  0  0  0
 29  4  1  0  0  0  0
 29 31  1  0  0  0  0
 30 29  1  0  0  0  0
 32 40  1  0  0  0  0
 32 29  1  0  0  0  0
 33 32  2  0  0  0  0
 34 36  2  0  0  0  0
 34 33  1  0  0  0  0
 35 34  1  0  0  0  0
 36 38  1  0  0  0  0
 37 36  1  0  0  0  0
 38 39  1  0  0  0  0
 38 40  2  0  0  0  0
 40 41  1  0  0  0  0
M  CHG  1   1  -1
M  END
