2,3,4,6
q = -1.0, confidence = 0.204

 39 39  0  0  1  0  0  0  0  0999 V2000
    5.6928   -0.4829    0.0045 Br  0  0  0  0  0  0  0  0  0  0  0  0
   -0.1685    0.9888   -0.5092 O   0  0  0  0  0  1  0  0  0  0  0  0
   -2.7598    1.5294   -0.6037 N   0  0  0  0  0  0  0  0  0  0  0  0
   -3.3364   -0.8643    0.5084 N   0  0  0  0  0  0  0  0  0  0  0  0
   -2.1044   -1.3191   -2.1554 N   0  0  0  0  0  0  0  0  0  0  0  0
   -0.7523   -1.3391    0.8286 N   0  0  0  0  0  2  0  0  0  0  0  0
   -4.1930    1.3028   -0.3109 C   0  0  0  0  0  0  0  0  0  0  0  0
   -4.7113    0.9450   -1.2204 H   0  0  0  0  0  0  0  0  0  0  0  0
   -4.7075    2.2364    0.0004 H   0  0  0  0  0  0  0  0  0  0  0  0
   -4.2654    0.2707    0.8063 C   0  0  0  0  0  0  0  0  0  0  0  0
   -3.9159    0.7316    1.7513 H   0  0  0  0  0  0  0  0  0  0  0  0
   -5.3020   -0.0977    0.9720 H   0  0  0  0  0  0  0  0  0  0  0  0
   -3.8778   -1.8170   -0.5191 C   0  0  0  0  0  0  0  0  0  0  0  0
   -4.9783   -1.9040   -0.3890 H   0  0  0  0  0  0  0  0  0  0  0  0
   -3.4564   -2.8153   -0.2880 H   0  0  0  0  0  0  0  0  0  0  0  0
   -3.5411   -1.4970   -1.9790 C   0  0  0  0  0  0  0  0  0  0  0  0
   -3.9941   -2.3146   -2.5899 H   0  0  0  0  0  0  0  0  0  0  0  0
   -4.0489   -0.5692   -2.3070 H   0  0  0  0  0  0  0  0  0  0  0  0
   -2.9517   -1.6036    1.7525 C   0  0  0  0  0  0  0  0  0  0  0  0
   -3.7540   -2.3072    2.0659 H   0  0  0  0  0  0  0  0  0  0  0  0
   -2.8192   -0.8528    2.5548 H   0  0  0  0  0  0  0  0  0  0  0  0
   -1.6299   -2.3095    1.4952 C   0  0  0  0  0  0  0  0  0  0  0  0
   -1.1912   -2.6797    2.4460 H   0  0  0  0  0  0  0  0  0  0  0  0
   -1.7675   -3.1989    0.8402 H   0  0  0  0  0  0  0  0  0  0  0  0
    0.5510   -1.4694    0.9058 C   0  0  0  0  0  0  0  0  0  0  0  0
    0.9518   -2.3148    1.4994 H   0  0  0  0  0  0  0  0  0  0  0  0
    1.5038   -0.5941    0.2923 C   0  0  0  0  0  0  0  0  0  0  0  0
    2.8897   -0.9042    0.4043 C   0  0  0  0  0  0  0  0  0  0  0  0
    3.1945   -1.8240    0.9248 H   0  0  0  0  0  0  0  0  0  0  0  0
    3.8506   -0.0588   -0.1365 C   0  0  0  0  0  0  0  0  0  0  0  0
    3.4534    1.1311   -0.7943 C   0  0  0  0  0  0  0  0  0  0  0  0
    4.2175    1.7978   -1.2195 H   0  0  0  0  0  0  0  0  0  0  0  0
    2.1051    1.4561   -0.9052 C   0  0  0  0  0  0  0  0  0  0  0  0
    1.7911    2.3773   -1.4173 H   0  0  0  0  0  0  0  0  0  0  0  0
    1.0914    0.6085   -0.3802 C   0  0  2  0  0  3  0  0  0  0  0  0
   -1.6038   -2.2155   -2.0950 H   0  0  0  0  0  0  0  0  0  0  0  0
   -2.3456    2.3060   -0.0118 H   0  0  0  0  0  0  0  0  0  0  0  0
   -2.5999    1.8055   -1.5823 H   0  0  0  0  0  0  0  0  0  0  0  0
   -1.8856   -0.9299   -3.0802 H   0  0  0  0  0  0  0  0  0  0  0  0
  3  7  1  0  0  0  0
  3 37  1  0  0  0  0
  4 10  1  0  0  0  0
  4 19  1  0  0  0  0
  5 36  1  0  0  0  0
  5 16  1  0  0  0  0
  6 25  1  0  0  0  0
  6 22  1  0  0  0  0
  7  9  1  0  0  0  0
  7 10  1  0  0  0  0
  8  7  1  0  0  0  0
 10 12  1  0  0  0  0
 10 11  1  0  0  0  0
 13 14  1  0  0  0  0
 13 15  1  0  0  0  0
 13  4  1  0  0  0  0
 16 13  1  0  0  0  0
 17 16  1  0  0  0  0
 18 16  1  0  0  0  0
 19 20  1  0  0  0  0
 19 21  1  0  0  0  0
 22 19  1  0  0  0  0
 22 23  1  0  0  0  0
 24 22  1  0  0  0  0
 25 26  1  0  0  0  0
 27 28  1  0  0  0  0
 27 25  2  0  0  0  0
 28 29  1  0  0  0  0
 30  1  1  0  0  0  0
 30 28  2  0  0  0  0
 31 30  1  0  0  0  0
 32 31  1  0  0  0  0
 33 31  2  0  0  0  0
 33 35  1  0  0  0  0
 34 33  1  0  0  0  0
 35  2  1  1  0  0  0
 35 27  1  0  0  0  0
 38  3  1  0  0  0  0
 39  5  1  0  0  0  0
M  END
