1,14,21,43
q = -1.0, confidence = 0.046

 43 45  0  0  0  0  0  0  0  0999 V2000
   -2.3189    0.8618   -0.0275 O   0  5  0  0  0  0  0  0  0  0  0  0
   -3.5158    0.3196    0.0265 C   0  0  0  0  0  0  0  0  0  0  0  0
   -4.6413    1.1805    0.1608 C   0  0  0  0  0  0  0  0  0  0  0  0
   -4.4563    2.2626    0.2162 H   0  0  0  0  0  0  0  0  0  0  0  0
   -5.9307    0.6634    0.2223 C   0  0  0  0  0  0  0  0  0  0  0  0
   -6.7810    1.3543    0.3289 H   0  0  0  0  0  0  0  0  0  0  0  0
   -6.1684   -0.7322    0.1485 C   0  0  0  0  0  0  0  0  0  0  0  0
   -7.1946   -1.1224    0.1968 H   0  0  0  0  0  0  0  0  0  0  0  0
   -5.0927   -1.5956    0.0110 C   0  0  0  0  0  3  0  0  0  0  0  0
   -5.2561   -2.6826   -0.0540 H   0  0  0  0  0  0  0  0  0  0  0  0
   -3.7556   -1.1023   -0.0507 C   0  0  0  0  0  0  0  0  0  0  0  0
   -2.6797   -2.0219   -0.2213 C   0  0  0  0  0  0  0  0  0  0  0  0
   -2.9387   -3.0907   -0.3563 H   0  0  0  0  0  0  0  0  0  0  0  0
   -1.4065   -1.6983   -0.2468 N   0  0  0  0  0  2  0  0  0  0  0  0
   -0.3708   -2.6840   -0.5891 C   0  0  0  0  0  0  0  0  0  0  0  0
   -0.6691   -3.7084   -0.2830 H   0  0  0  0  0  0  0  0  0  0  0  0
   -0.2329   -2.6870   -1.6922 H   0  0  0  0  0  0  0  0  0  0  0  0
    0.9227   -2.2414    0.0934 C   0  0  0  0  0  0  0  0  0  0  0  0
    1.8285   -2.6835   -0.3701 H   0  0  0  0  0  0  0  0  0  0  0  0
    0.9076   -2.5418    1.1631 H   0  0  0  0  0  0  0  0  0  0  0  0
    0.9359   -0.7830    0.0259 N   0  0  0  0  0  2  0  0  0  0  0  0
    1.9991   -0.0015    0.0211 C   0  0  0  0  0  0  0  0  0  0  0  0
    3.3959   -0.4771    0.0548 C   0  0  0  0  0  0  0  0  0  0  0  0
    3.8357   -1.3619    1.0664 C   0  0  0  0  0  0  0  0  0  0  0  0
    3.1426   -1.6784    1.8596 H   0  0  0  0  0  0  0  0  0  0  0  0
    5.1654   -1.8015    1.0878 C   0  0  0  0  0  0  0  0  0  0  0  0
    5.5034   -2.4773    1.8871 H   0  0  0  0  0  0  0  0  0  0  0  0
    6.0653   -1.3758    0.0972 C   0  0  0  0  0  0  0  0  0  0  0  0
    7.1079   -1.7262    0.1144 H   0  0  0  0  0  0  0  0  0  0  0  0
    5.6353   -0.5015   -0.9145 C   0  0  0  0  0  0  0  0  0  0  0  0
    6.3363   -0.1744   -1.6965 H   0  0  0  0  0  0  0  0  0  0  0  0
    4.3108   -0.0459   -0.9353 C   0  0  0  0  0  0  0  0  0  0  0  0
    3.9727    0.6238   -1.7404 H   0  0  0  0  0  0  0  0  0  0  0  0
    1.6314    1.4210    0.0132 C   0  0  0  0  0  0  0  0  0  0  0  0
    2.5114    2.5134    0.0665 C   0  0  0  0  0  0  0  0  0  0  0  0
    3.5949    2.3367    0.1042 H   0  0  0  0  0  0  0  0  0  0  0  0
    1.9814    3.8113    0.0851 C   0  0  0  0  0  0  0  0  0  0  0  0
    2.6527    4.6815    0.1248 H   0  0  0  0  0  0  0  0  0  0  0  0
    0.5885    3.9853    0.0617 C   0  0  0  0  0  0  0  0  0  0  0  0
    0.1373    4.9873    0.0777 H   0  0  0  0  0  0  0  0  0  0  0  0
   -0.2395    2.8554    0.0301 C   0  0  0  0  0  0  0  0  0  0  0  0
   -1.3396    2.9084    0.0257 H   0  0  0  0  0  0  0  0  0  0  0  0
    0.2709    1.6121    0.0078 N   0  0  0  0  0  2  0  0  0  0  0  0
  1  2  1  0  0  0  0
  2  3  2  0  0  0  0
  3  4  1  0  0  0  0
  3  5  1  0  0  0  0
  5  6  1  0  0  0  0
  7  8  1  0  0  0  0
  7  5  2  0  0  0  0
  9  7  1  0  0  0  0
 10  9  1  0  0  0  0
 11  9  1  0  0  0  0
 11  2  1  0  0  0  0
 12 11  2  0  0  0  0
 13 12  1  0  0  0  0
 14 12  1  0  0  0  0
 15 16  1  0  0  0  0
 15 14  1  0  0  0  0
 15 18  1  0  0  0  0
 17 15  1  0  0  0  0
 18 20  1  0  0  0  0
 19 18  1  0  0  0  0
 21 18  1  0  0  0  0
 22 21  1  0  0  0  0
 22 23  1  0  0  0  0
 23 24  1  0  0  0  0
 24 26  2  0  0  0  0
 24 25  1  0  0  0  0
 26 27  1  0  0  0  0
 28 29  1  0  0  0  0
 28 26  1  0  0  0  0
 30 28  2  0  0  0  0
 31 30  1  0  0  0  0
 32 30  1  0  0  0  0
 32 23  2  0  0  0  0
 33 32  1  0  0  0  0
 34 22  2  0  0  0  0
 34 35  1  0  0  0  0
 35 37  2  0  0  0  0
 35 36  1  0  0  0  0
 37 38  1  0  0  0  0
 39 40  1  0  0  0  0
 39 37  1  0  0  0  0
 41 39  2  0  0  0  0
 42 41  1  0  0  0  0
 43 34  1  0  0  0  0
 43 41  1  0  0  0  0
M  CHG  1   1  -1
M  END
