1,2,3,4
q = -1.0, confidence = 0.21

 75 78  0  0  1  0  0  0  0  0999 V2000
    0.9232   -1.7794    1.8839 N   0  0  0  0  0  2  0  0  0  0  0  0
    2.6051   -0.7118   -1.1500 N   0  0  0  0  0  2  0  0  0  0  0  0
    0.1514   -1.9470   -0.7378 N   0  0  0  0  0  0  0  0  0  0  0  0
   -0.1720    0.9797    0.0986 O   0  5  0  0  0  0  0  0  0  0  0  0
    0.0734   -2.7883    1.5785 C   0  0  1  0  0  3  0  0  0  0  0  0
   -0.1829   -3.8183    2.4970 C   0  0  0  0  0  0  0  0  0  0  0  0
   -0.8683   -4.6346    2.2252 H   0  0  0  0  0  0  0  0  0  0  0  0
    0.4345   -3.7815    3.7541 C   0  0  0  0  0  0  0  0  0  0  0  0
    0.2440   -4.5784    4.4885 H   0  0  0  0  0  0  0  0  0  0  0  0
    1.2947   -2.7169    4.0647 C   0  0  0  0  0  0  0  0  0  0  0  0
    1.7907   -2.6467    5.0428 H   0  0  0  0  0  0  0  0  0  0  0  0
    1.5141   -1.7328    3.0962 C   0  0  0  0  0  0  0  0  0  0  0  0
    2.1623   -0.8620    3.2786 H   0  0  0  0  0  0  0  0  0  0  0  0
   -0.6331   -2.7024    0.2405 C   0  0  0  0  0  0  0  0  0  0  0  0
   -0.9114   -3.7190   -0.1194 H   0  0  0  0  0  0  0  0  0  0  0  0
   -1.5861   -2.1429    0.3839 H   0  0  0  0  0  0  0  0  0  0  0  0
    2.4035   -1.8895   -1.7901 C   0  0  1  0  0  3  0  0  0  0  0  0
    3.2802   -2.3454   -2.7834 C   0  0  0  0  0  0  0  0  0  0  0  0
    3.0803   -3.2981   -3.2947 H   0  0  0  0  0  0  0  0  0  0  0  0
    4.4045   -1.5726   -3.1002 C   0  0  0  0  0  0  0  0  0  0  0  0
    5.1147   -1.9105   -3.8695 H   0  0  0  0  0  0  0  0  0  0  0  0
    4.5935   -0.3475   -2.4524 C   0  0  0  0  0  0  0  0  0  0  0  0
    5.4328    0.3102   -2.7166 H   0  0  0  0  0  0  0  0  0  0  0  0
    3.6585    0.0815   -1.4906 C   0  0  0  0  0  0  0  0  0  0  0  0
    3.7680    1.4245   -0.8743 C   0  0  0  0  0  0  0  0  0  0  0  0
    2.6379    2.2734   -0.8210 C   0  0  0  0  0  0  0  0  0  0  0  0
    1.6627    1.9290   -1.1997 H   0  0  0  0  0  0  0  0  0  0  0  0
    2.7509    3.5615   -0.2744 C   0  0  0  0  0  0  0  0  0  0  0  0
    1.8665    4.2156   -0.2453 H   0  0  0  0  0  0  0  0  0  0  0  0
    3.9849    4.0131    0.2248 C   0  0  0  0  0  0  0  0  0  0  0  0
    4.0698    5.0231    0.6525 H   0  0  0  0  0  0  0  0  0  0  0  0
    5.1117    3.1753    0.1699 C   0  0  0  0  0  0  0  0  0  0  0  0
    6.0781    3.5236    0.5631 H   0  0  0  0  0  0  0  0  0  0  0  0
    5.0080    1.8917   -0.3843 C   0  0  0  0  0  0  0  0  0  0  0  0
    5.8903    1.2345   -0.4149 H   0  0  0  0  0  0  0  0  0  0  0  0
    1.2259   -2.7348   -1.3417 C   0  0  0  0  0  0  0  0  0  0  0  0
    0.8615   -3.3467   -2.2000 H   0  0  0  0  0  0  0  0  0  0  0  0
    1.5994   -3.4546   -0.5801 H   0  0  0  0  0  0  0  0  0  0  0  0
   -1.7560   -0.3583   -1.1240 C   0  0  0  0  0  0  0  0  0  0  0  0
   -3.0933   -0.6395   -1.4743 C   0  0  0  0  0  0  0  0  0  0  0  0
   -3.2793   -1.4717   -2.1695 H   0  0  0  0  0  0  0  0  0  0  0  0
   -4.1607    0.1161   -0.9754 C   0  0  0  0  0  0  0  0  0  0  0  0
   -3.8308    1.1693   -0.0938 C   0  0  0  0  0  0  0  0  0  0  0  0
   -4.6548    1.7705    0.3119 H   0  0  0  0  0  0  0  0  0  0  0  0
   -2.5245    1.4919    0.3041 C   0  0  0  0  0  0  0  0  0  0  0  0
   -1.4452    0.7104   -0.2284 C   0  0  0  0  0  0  0  0  0  0  0  0
   -0.6610   -1.1866   -1.7417 C   0  0  0  0  0  0  0  0  0  0  0  0
   -1.0982   -1.8982   -2.4787 H   0  0  0  0  0  0  0  0  0  0  0  0
    0.0614   -0.5462   -2.2943 H   0  0  0  0  0  0  0  0  0  0  0  0
   -5.6304   -0.1489   -1.3424 C   0  0  0  0  0  0  0  0  0  0  0  0
   -6.4320   -0.4568   -0.0572 C   0  0  0  0  0  0  0  0  0  0  0  0
   -6.0338   -1.3576    0.4528 H   0  0  0  0  0  0  0  0  0  0  0  0
   -7.4987   -0.6421   -0.2990 H   0  0  0  0  0  0  0  0  0  0  0  0
   -6.3945    0.3839    0.6639 H   0  0  0  0  0  0  0  0  0  0  0  0
   -5.7772   -1.3408   -2.3035 C   0  0  0  0  0  0  0  0  0  0  0  0
   -5.2451   -1.1675   -3.2608 H   0  0  0  0  0  0  0  0  0  0  0  0
   -6.8468   -1.5021   -2.5439 H   0  0  0  0  0  0  0  0  0  0  0  0
   -5.3929   -2.2809   -1.8572 H   0  0  0  0  0  0  0  0  0  0  0  0
   -6.2180    1.1062   -2.0274 C   0  0  0  0  0  0  0  0  0  0  0  0
   -5.6621    1.3481   -2.9556 H   0  0  0  0  0  0  0  0  0  0  0  0
   -6.1734    1.9944   -1.3663 H   0  0  0  0  0  0  0  0  0  0  0  0
   -7.2818    0.9410   -2.2954 H   0  0  0  0  0  0  0  0  0  0  0  0
   -2.2596    2.6308    1.3098 C   0  0  0  0  0  0  0  0  0  0  0  0
   -3.5488    3.3762    1.7041 C   0  0  0  0  0  0  0  0  0  0  0  0
   -4.2840    2.7106    2.1990 H   0  0  0  0  0  0  0  0  0  0  0  0
   -4.0397    3.8457    0.8282 H   0  0  0  0  0  0  0  0  0  0  0  0
   -3.3026    4.1853    2.4205 H   0  0  0  0  0  0  0  0  0  0  0  0
   -1.6670    2.0278    2.6061 C   0  0  0  0  0  0  0  0  0  0  0  0
   -2.4084    1.3675    3.0994 H   0  0  0  0  0  0  0  0  0  0  0  0
   -1.3930    2.8283    3.3241 H   0  0  0  0  0  0  0  0  0  0  0  0
   -0.7678    1.4149    2.4067 H   0  0  0  0  0  0  0  0  0  0  0  0
   -1.2979    3.6776    0.6983 C   0  0  0  0  0  0  0  0  0  0  0  0
   -1.7541    4.1434   -0.1985 H   0  0  0  0  0  0  0  0  0  0  0  0
   -0.3422    3.2163    0.3891 H   0  0  0  0  0  0  0  0  0  0  0  0
   -1.0910    4.4845    1.4318 H   0  0  0  0  0  0  0  0  0  0  0  0
  1 12  1  0  0  0  0
  3 14  1  0  0  0  0
  5 14  1  1  0  0  0
  5  1  1  0  0  0  0
  5  6  1  0  0  0  0
  6  8  2  0  0  0  0
  7  6  1  0  0  0  0
  8 10  1  0  0  0  0
  8  9  1  0  0  0  0
 10 11  1  0  0  0  0
 12 13  1  0  0  0  0
 12 10  2  0  0  0  0
 14 16  1  0  0  0  0
 15 14  1  0  0  0  0
 17 36  1  1  0  0  0
 17  2  1  0  0  0  0
 18 17  1  0  0  0  0
 19 18  1  0  0  0  0
 20 18  2  0  0  0  0
 20 22  1  0  0  0  0
 21 20  1  0  0  0  0
 22 24  2  0  0  0  0
 23 22  1  0  0  0  0
 24  2  1  0  0  0  0
 24 25  1  0  0  0  0
 25 26  2  0  0  0  0
 25 34  1  0  0  0  0
 26 28  1  0  0  0  0
 27 26  1  0  0  0  0
 28 29  1  0  0  0  0
 28 30  2  0  0  0  0
 30 31  1  0  0  0  0
 32 30  1  0  0  0  0
 32 33  1  0  0  0  0
 34 32  2  0  0  0  0
 35 34  1  0  0  0  0
 36  3  1  0  0  0  0
 36 38  1  0  0  0  0
 37 36  1  0  0  0  0
 39 46  1  0  0  0  0
 40 39  2  0  0  0  0
 40 42  1  0  0  0  0
 41 40  1  0  0  0  0
 42 43  2  0  0  0  0
 43 45  1  0  0  0  0
 43 44  1  0  0  0  0
 45 63  1  0  0  0  0
 46  4  1  0  0  0  0
 46 45  2  0  0  0  0
 47 39  1  0  0  0  0
 47  3  1  0  0  0  0
 48 47  1  0  0  0  0
 49 47  1  0  0  0  0
 50 42  1  0  0  0  0
 50 51  1  0  0  0  0
 51 52  1  0  0  0  0
 51 54  1  0  0  0  0
 53 51  1  0  0  0  0
 55 58  1  0  0  0  0
 55 50  1  0  0  0  0
 56 55  1  0  0  0  0
 57 55  1  0  0  0  0
 59 61  1  0  0  0  0
 59 50  1  0  0  0  0
 60 59  1  0  0  0  0
 62 59  1  0  0  0  0
 63 64  1  0  0  0  0
 63 68  1  0  0  0  0
 64 65  1  0  0  0  0
 64 67  1  0  0  0  0
 66 64  1  0  0  0  0
 68 69  1  0  0  0  0
 68 70  1  0  0  0  0
 71 68  1  0  0  0  0
 72 63  1  0  0  0  0
 72 75  1  0  0  0  0
 73 72  1  0  0  0  0
 74 72  1  0  0  0  0
M  CHG  1   4  -1
M  END
