1,5,7,8
q = -1.0

 39 40  0  0  1  0  0  0  0  0999 V2000
    1.0880   -0.8300    0.0013 O   0  5  0  0  0  0  0  0  0  0  0  0
   -4.5655    0.2428   -0.0113 O   0  0  0  0  0  0  0  0  0  0  0  0
    3.6410   -1.5580   -0.0023 N   0  0  0  0  0  0  0  0  0  0  0  0
    1.6496    1.4278    0.0008 N   0  0  0  0  0  0  0  0  0  0  0  0
    0.3021    1.5740    0.0013 N   0  0  0  0  0  2  0  0  0  0  0  0
   -2.5507    2.0463   -0.0013 N   0  0  0  0  0  2  0  0  0  0  0  0
   -2.2645    0.7797   -0.0012 N   0  0  0  0  0  2  0  0  0  0  0  0
   -1.5909   -1.6732    0.0030 N   0  0  0  0  0  2  0  0  0  0  0  0
    4.8915   -2.0837   -0.0038 C   0  0  0  0  0  3  0  0  0  0  0  0
    5.9874   -1.2335   -0.0039 C   0  0  0  0  0  0  0  0  0  0  0  0
    5.7668    0.1660   -0.0024 C   0  0  0  0  0  0  0  0  0  0  0  0
    4.4687    0.6746   -0.0009 C   0  0  0  0  0  0  0  0  0  0  0  0
    3.3780   -0.2176   -0.0008 C   0  0  0  0  0  0  0  0  0  0  0  0
    1.9646    0.1423    0.0007 C   0  0  0  0  0  0  0  0  0  0  0  0
   -0.2124    2.8116    0.0025 C   0  0  0  0  0  0  0  0  0  0  0  0
    0.6871    4.0109    0.0042 C   0  0  0  0  0  0  0  0  0  0  0  0
   -1.6430    3.0115    0.0010 C   0  0  0  0  0  0  0  0  0  0  0  0
   -2.1935    4.4140    0.0015 C   0  0  0  0  0  0  0  0  0  0  0  0
   -3.4036   -0.0984   -0.0056 C   0  0  0  0  0  0  0  0  0  0  0  0
   -2.9368   -1.5205   -0.0024 C   0  0  2  0  0  3  0  0  0  0  0  0
   -3.8165   -2.6043   -0.0037 C   0  0  0  0  0  0  0  0  0  0  0  0
   -3.2774   -3.9000    0.0011 C   0  0  0  0  0  0  0  0  0  0  0  0
   -1.8827   -4.0526    0.0072 C   0  0  0  0  0  0  0  0  0  0  0  0
   -1.0647   -2.9139    0.0079 C   0  0  0  0  0  0  0  0  0  0  0  0
    2.7959   -2.1509   -0.0023 H   0  0  0  0  0  0  0  0  0  0  0  0
    4.9682   -3.1797   -0.0050 H   0  0  0  0  0  0  0  0  0  0  0  0
    7.0017   -1.6540   -0.0051 H   0  0  0  0  0  0  0  0  0  0  0  0
    6.6248    0.8543   -0.0025 H   0  0  0  0  0  0  0  0  0  0  0  0
    4.2548    1.7512    0.0002 H   0  0  0  0  0  0  0  0  0  0  0  0
    1.7459    3.7063    0.0116 H   0  0  0  0  0  0  0  0  0  0  0  0
    0.4920    4.6408   -0.8876 H   0  0  0  0  0  0  0  0  0  0  0  0
    0.4804    4.6476    0.8882 H   0  0  0  0  0  0  0  0  0  0  0  0
   -1.8625    4.9882   -0.8881 H   0  0  0  0  0  0  0  0  0  0  0  0
   -1.8692    4.9847    0.8960 H   0  0  0  0  0  0  0  0  0  0  0  0
   -3.2964    4.3654   -0.0025 H   0  0  0  0  0  0  0  0  0  0  0  0
   -4.8973   -2.4014   -0.0082 H   0  0  0  0  0  0  0  0  0  0  0  0
   -3.9365   -4.7805    0.0003 H   0  0  0  0  0  0  0  0  0  0  0  0
   -1.4201   -5.0496    0.0114 H   0  0  0  0  0  0  0  0  0  0  0  0
    0.0320   -2.9728    0.0125 H   0  0  0  0  0  0  0  0  0  0  0  0
  2 19  2  0  0  0  0
  3 13  1  0  0  0  0
  4  5  1  0  0  0  0
  5 15  1  0  0  0  0
  6  7  1  0  0  0  0
  6 17  1  0  0  0  0
  8 24  1  0  0  0  0
  9  3  1  0  0  0  0
 10  9  1  0  0  0  0
 10 11  2  0  0  0  0
 11 12  1  0  0  0  0
 12 13  2  0  0  0  0
 12 29  1  0  0  0  0
 13 14  1  0  0  0  0
 14  4  2  0  0  0  0
 14  1  1  0  0  0  0
 15 16  1  0  0  0  0
 16 30  1  0  0  0  0
 16 32  1  0  0  0  0
 17 18  1  0  0  0  0
 17 15  2  0  0  0  0
 18 34  1  0  0  0  0
 19  7  1  0  0  0  0
 20 19  1  1  0  0  0
 20  8  1  0  0  0  0
 21 20  1  0  0  0  0
 21 22  2  0  0  0  0
 22 23  1  0  0  0  0
 23 24  2  0  0  0  0
 23 38  1  0  0  0  0
 24 39  1  0  0  0  0
 25  3  1  0  0  0  0
 26  9  1  0  0  0  0
 27 10  1  0  0  0  0
 28 11  1  0  0  0  0
 31 16  1  0  0  0  0
 33 18  1  0  0  0  0
 35 18  1  0  0  0  0
 36 21  1  0  0  0  0
 37 22  1  0  0  0  0
M  CHG  1   1  -1
M  END
