4,5,6,10
q = -2.0, confidence = 0.842

 75 80  0  0  1  0  0  0  0  0999 V2000
    5.0366    0.7337    2.6793 Cl  0  0  0  0  0  0  0  0  0  0  0  0
    3.3838   -0.0905   -2.3455 Cl  0  0  0  0  0  0  0  0  0  0  0  0
    4.8095   -2.0103   -0.2455 Cl  0  0  0  0  0  0  0  0  0  0  0  0
   -0.3566    1.1209   -0.7378 N   0  0  0  0  0  2  0  0  0  0  0  0
   -0.2668   -1.2158    0.7218 N   0  0  0  0  0  2  0  0  0  0  0  0
   -1.8205   -2.3567   -1.1140 N   0  0  0  0  0  0  0  0  0  0  0  0
   -5.2073    1.3299    0.5809 N   0  0  0  0  0  0  0  0  0  0  0  0
   -6.1970    1.1051    0.5048 H   0  0  0  0  0  0  0  0  0  0  0  0
   -2.6042    1.8983   -3.4312 O   0  5  0  0  0  0  0  0  0  0  0  0
   -1.9092    0.0119   -2.4109 O   0  0  0  0  0  0  0  0  0  0  0  0
   -0.6437   -2.9626    2.2584 O   0  0  0  0  0  0  0  0  0  0  0  0
   -1.9529    1.3176   -2.5734 C   0  0  0  0  0  0  0  0  0  0  0  0
   -1.1329    2.0869   -1.5238 C   0  0  1  0  0  0  0  0  0  0  0  0
   -0.4617    2.7914   -2.0539 H   0  0  0  0  0  0  0  0  0  0  0  0
    0.7440    1.4614   -0.1017 C   0  0  0  0  0  0  0  0  0  0  0  0
    1.4451    0.5556    0.7993 C   0  0  0  0  0  0  0  0  0  0  0  0
    2.7272    0.9690    1.2566 C   0  0  0  0  0  3  0  0  0  0  0  0
    3.1675    1.8914    0.8594 H   0  0  0  0  0  0  0  0  0  0  0  0
    3.4430    0.2228    2.1824 C   0  0  0  0  0  0  0  0  0  0  0  0
    2.8792   -0.9509    2.7167 C   0  0  0  0  0  0  0  0  0  0  0  0
    3.4326   -1.5305    3.4693 H   0  0  0  0  0  0  0  0  0  0  0  0
    1.6321   -1.3836    2.2796 C   0  0  0  0  0  0  0  0  0  0  0  0
    1.1898   -2.2928    2.6982 H   0  0  0  0  0  0  0  0  0  0  0  0
    0.8927   -0.6917    1.2719 C   0  0  0  0  0  0  0  0  0  0  0  0
   -0.8637   -2.3707    1.2002 C   0  0  0  0  0  0  0  0  0  0  0  0
   -1.9394   -2.9172    0.2657 C   0  0  1  0  0  0  0  0  0  0  0  0
   -1.8049   -4.0209    0.2370 H   0  0  0  0  0  0  0  0  0  0  0  0
   -3.3835   -2.5679    0.7307 C   0  0  0  0  0  0  0  0  0  0  0  0
   -3.9239   -3.4997    0.9862 H   0  0  0  0  0  0  0  0  0  0  0  0
   -3.3735   -1.9330    1.6362 H   0  0  0  0  0  0  0  0  0  0  0  0
   -4.0264   -1.8556   -0.4749 C   0  0  0  0  0  0  0  0  0  0  0  0
   -5.1058   -2.0761   -0.5846 H   0  0  0  0  0  0  0  0  0  0  0  0
   -3.9105   -0.7571   -0.3947 H   0  0  0  0  0  0  0  0  0  0  0  0
   -3.2089   -2.3486   -1.6574 C   0  0  0  0  0  0  0  0  0  0  0  0
   -3.2459   -1.6924   -2.5454 H   0  0  0  0  0  0  0  0  0  0  0  0
   -3.4821   -3.3926   -1.9378 H   0  0  0  0  0  0  0  0  0  0  0  0
   -0.8860   -3.0871   -2.0211 C   0  0  0  0  0  0  0  0  0  0  0  0
   -1.1567   -4.1675   -2.0121 H   0  0  0  0  0  0  0  0  0  0  0  0
   -1.0779   -2.6905   -3.0369 H   0  0  0  0  0  0  0  0  0  0  0  0
    0.5665   -2.8958   -1.6584 C   0  0  0  0  0  0  0  0  0  0  0  0
    1.2569   -1.7721   -2.1537 C   0  0  0  0  0  0  0  0  0  0  0  0
    0.7748   -1.0947   -2.8731 H   0  0  0  0  0  0  0  0  0  0  0  0
    2.5649   -1.4969   -1.7330 C   0  0  0  0  0  0  0  0  0  0  0  0
    3.2062   -2.3510   -0.8071 C   0  0  0  0  0  0  0  0  0  0  0  0
    2.5268   -3.4826   -0.3314 C   0  0  0  0  0  0  0  0  0  0  0  0
    3.0331   -4.1383    0.3898 H   0  0  0  0  0  0  0  0  0  0  0  0
    1.2196   -3.7537   -0.7578 C   0  0  0  0  0  0  0  0  0  0  0  0
    0.6959   -4.6339   -0.3556 H   0  0  0  0  0  0  0  0  0  0  0  0
   -2.0912    2.9352   -0.6490 C   0  0  0  0  0  0  0  0  0  0  0  0
   -1.4813    3.5250    0.0658 H   0  0  0  0  0  0  0  0  0  0  0  0
   -2.5592    3.6539   -1.3509 H   0  0  0  0  0  0  0  0  0  0  0  0
   -3.1626    2.1750    0.0736 C   0  0  0  0  0  0  0  0  0  0  0  0
   -4.4800    2.0537   -0.3472 C   0  0  0  0  0  0  0  0  0  0  0  0
   -4.9469    2.4415   -1.2599 H   0  0  0  0  0  0  0  0  0  0  0  0
   -4.3804    0.9493    1.6211 C   0  0  0  0  0  0  0  0  0  0  0  0
   -3.0714    1.4617    1.3302 C   0  0  0  0  0  0  0  0  0  0  0  0
   -2.0227    1.1855    2.2372 C   0  0  0  0  0  0  0  0  0  0  0  0
   -1.0033    1.5458    2.0398 H   0  0  0  0  0  0  0  0  0  0  0  0
   -2.2864    0.4222    3.3774 C   0  0  0  0  0  0  0  0  0  0  0  0
   -1.4663    0.1818    4.0698 H   0  0  0  0  0  0  0  0  0  0  0  0
   -3.5891   -0.0662    3.6462 C   0  0  0  0  0  0  0  0  0  0  0  0
   -3.7653   -0.6664    4.5513 H   0  0  0  0  0  0  0  0  0  0  0  0
   -4.6535    0.1932    2.7748 C   0  0  0  0  0  0  0  0  0  0  0  0
   -5.6644   -0.1908    2.9800 H   0  0  0  0  0  0  0  0  0  0  0  0
    1.2889    2.8502   -0.2685 C   0  0  0  0  0  0  0  0  0  0  0  0
    1.1452    3.7990    0.7642 C   0  0  0  0  0  0  0  0  0  0  0  0
    0.6419    3.5095    1.6994 H   0  0  0  0  0  0  0  0  0  0  0  0
    1.6474    5.0989    0.6054 C   0  0  0  0  0  0  0  0  0  0  0  0
    1.5273    5.8325    1.4167 H   0  0  0  0  0  0  0  0  0  0  0  0
    2.3050    5.4600   -0.5811 C   0  0  0  0  0  0  0  0  0  0  0  0
    2.7018    6.4790   -0.7036 H   0  0  0  0  0  0  0  0  0  0  0  0
    2.4618    4.5156   -1.6081 C   0  0  0  0  0  0  0  0  0  0  0  0
    2.9852    4.7904   -2.5363 H   0  0  0  0  0  0  0  0  0  0  0  0
    1.9557    3.2165   -1.4555 C   0  0  0  0  0  0  0  0  0  0  0  0
    2.0865    2.4678   -2.2509 H   0  0  0  0  0  0  0  0  0  0  0  0
  2 43  1  0  0  0  0
  4 15  1  0  0  0  0
  5 25  1  0  0  0  0
  5 24  1  0  0  0  0
  6 26  1  0  0  0  0
  7 55  1  0  0  0  0
  8  7  1  0  0  0  0
  9 12  1  0  0  0  0
 12 10  2  0  0  0  0
 12 13  1  0  0  0  0
 13 14  1  6  0  0  0
 13  4  1  0  0  0  0
 13 49  1  0  0  0  0
 15 16  2  0  0  0  0
 16 17  1  0  0  0  0
 16 24  1  0  0  0  0
 17 19  1  0  0  0  0
 18 17  1  0  0  0  0
 19  1  1  0  0  0  0
 19 20  2  0  0  0  0
 20 21  1  0  0  0  0
 22 23  1  0  0  0  0
 22 20  1  0  0  0  0
 24 22  2  0  0  0  0
 25 11  2  0  0  0  0
 26 27  1  6  0  0  0
 26 28  1  0  0  0  0
 26 25  1  0  0  0  0
 28 29  1  0  0  0  0
 28 30  1  0  0  0  0
 31 33  1  0  0  0  0
 31 28  1  0  0  0  0
 32 31  1  0  0  0  0
 34  6  1  0  0  0  0
 34 31  1  0  0  0  0
 35 34  1  0  0  0  0
 36 34  1  0  0  0  0
 37 38  1  0  0  0  0
 37 40  1  0  0  0  0
 37  6  1  0  0  0  0
 39 37  1  0  0  0  0
 40 47  1  0  0  0  0
 41 43  1  0  0  0  0
 41 40  2  0  0  0  0
 42 41  1  0  0  0  0
 43 44  2  0  0  0  0
 44 45  1  0  0  0  0
 44  3  1  0  0  0  0
 45 46  1  0  0  0  0
 47 48  1  0  0  0  0
 47 45  2  0  0  0  0
 49 50  1  0  0  0  0
 49 52  1  0  0  0  0
 51 49  1  0  0  0  0
 52 56  1  0  0  0  0
 53 52  2  0  0  0  0
 53  7  1  0  0  0  0
 54 53  1  0  0  0  0
 55 63  1  0  0  0  0
 56 55  2  0  0  0  0
 56 57  1  0  0  0  0
 57 59  2  0  0  0  0
 58 57  1  0  0  0  0
 59 61  1  0  0  0  0
 59 60  1  0  0  0  0
 61 62  1  0  0  0  0
 63 64  1  0  0  0  0
 63 61  2  0  0  0  0
 65 15  1  0  0  0  0
 65 66  1  0  0  0  0
 66 67  1  0  0  0  0
 68 66  2  0  0  0  0
 68 69  1  0  0  0  0
 70 68  1  0  0  0  0
 71 70  1  0  0  0  0
 72 74  1  0  0  0  0
 72 70  2  0  0  0  0
 73 72  1  0  0  0  0
 74 65  2  0  0  0  0
 75 74  1  0  0  0  0
M  CHG  1   9  -1
M  END
