1,5,7
q = -1.0

 35 35  0  0  0  0  0  0  0  0999 V2000
    0.6223    1.7527   -0.8781 O   0  5  0  0  0  0  0  0  0  0  0  0
    1.3698    3.6300    0.1327 O   0  0  0  0  0  0  0  0  0  0  0  0
   -4.4280    0.9635   -0.7507 O   0  0  0  0  0  0  0  0  0  0  0  0
   -3.8517   -0.0409    1.1917 O   0  0  0  0  0  0  0  0  0  0  0  0
    0.9127   -2.1273   -0.2921 N   0  0  0  0  0  0  0  0  0  0  0  0
    1.6048    0.1989    1.0683 N   0  0  0  0  0  0  0  0  0  0  0  0
   -1.1297   -0.2663    0.3206 N   0  0  0  0  0  0  0  0  0  0  0  0
    1.7334   -2.2534    0.9411 C   0  0  0  0  0  0  0  0  0  0  0  0
    2.4974   -0.9566    1.2454 C   0  0  0  0  0  0  0  0  0  0  0  0
    0.5318    0.2789    2.0786 C   0  0  0  0  0  0  0  0  0  0  0  0
   -0.8403    0.5960    1.4789 C   0  0  0  0  0  0  0  0  0  0  0  0
   -1.3271   -1.6904    0.6681 C   0  0  0  0  0  0  0  0  0  0  0  0
   -0.4785   -2.6184   -0.2053 C   0  0  0  0  0  0  0  0  0  0  0  0
    1.3661    2.4202   -0.0026 C   0  0  0  0  0  0  0  0  0  0  0  0
    2.2668    1.4944    0.8483 C   0  0  0  0  0  0  0  0  0  0  0  0
   -2.1673    0.2858   -0.5481 C   0  0  0  0  0  0  0  0  0  0  0  0
   -3.5470    0.3701    0.0842 C   0  0  0  0  0  0  0  0  0  0  0  0
    2.5467    2.0058    1.7958 H   0  0  0  0  0  0  0  0  0  0  0  0
    3.1828    1.3155    0.2484 H   0  0  0  0  0  0  0  0  0  0  0  0
    1.3900   -2.5812   -1.0805 H   0  0  0  0  0  0  0  0  0  0  0  0
    1.0571   -2.5130    1.7798 H   0  0  0  0  0  0  0  0  0  0  0  0
    2.4499   -3.0960    0.8534 H   0  0  0  0  0  0  0  0  0  0  0  0
    3.3173   -0.8386    0.5124 H   0  0  0  0  0  0  0  0  0  0  0  0
    2.9375   -1.0118    2.2702 H   0  0  0  0  0  0  0  0  0  0  0  0
    0.4850   -0.6867    2.6197 H   0  0  0  0  0  0  0  0  0  0  0  0
    0.7753    1.0441    2.8494 H   0  0  0  0  0  0  0  0  0  0  0  0
   -0.8641    1.6423    1.1205 H   0  0  0  0  0  0  0  0  0  0  0  0
   -1.6185    0.5006    2.2693 H   0  0  0  0  0  0  0  0  0  0  0  0
   -1.0669   -1.8322    1.7360 H   0  0  0  0  0  0  0  0  0  0  0  0
   -2.3946   -1.9829    0.5969 H   0  0  0  0  0  0  0  0  0  0  0  0
   -0.8624   -2.6192   -1.2434 H   0  0  0  0  0  0  0  0  0  0  0  0
   -0.5269   -3.6572    0.1942 H   0  0  0  0  0  0  0  0  0  0  0  0
   -1.8489    1.2965   -0.8803 H   0  0  0  0  0  0  0  0  0  0  0  0
   -2.2093   -0.3040   -1.4878 H   0  0  0  0  0  0  0  0  0  0  0  0
   -5.2866    0.9747   -0.2731 H   0  0  0  0  0  0  0  0  0  0  0  0
  1 14  1  0  0  0  0
  3 35  1  0  0  0  0
  3 17  1  0  0  0  0
  5 13  1  0  0  0  0
  5  8  1  0  0  0  0
  6  9  1  0  0  0  0
  6 10  1  0  0  0  0
  7 12  1  0  0  0  0
  7 11  1  0  0  0  0
  8  9  1  0  0  0  0
  8 21  1  0  0  0  0
  9 24  1  0  0  0  0
 10 25  1  0  0  0  0
 10 26  1  0  0  0  0
 11 10  1  0  0  0  0
 11 28  1  0  0  0  0
 12 29  1  0  0  0  0
 13 32  1  0  0  0  0
 13 12  1  0  0  0  0
 14  2  2  0  0  0  0
 14 15  1  0  0  0  0
 15  6  1  0  0  0  0
 15 18  1  0  0  0  0
 16 17  1  0  0  0  0
 16  7  1  0  0  0  0
 17  4  2  0  0  0  0
 19 15  1  0  0  0  0
 20  5  1  0  0  0  0
 22  8  1  0  0  0  0
 23  9  1  0  0  0  0
 27 11  1  0  0  0  0
 30 12  1  0  0  0  0
 31 13  1  0  0  0  0
 33 16  1  0  0  0  0
 34 16  1  0  0  0  0
M  CHG  1   1  -1
M  END
