1,2,3,4
q = -1.0

 65 67  0  0  1  0  0  0  0  0999 V2000
   -0.0006    1.1297   -0.5319 O   0  5  0  0  0  0  0  0  0  0  0  0
   -3.0701   -1.0671    0.2383 N   0  0  0  0  0  2  0  0  0  0  0  0
   -0.8210   -1.6295   -0.9512 N   0  0  0  0  0  0  0  0  0  0  0  0
   -0.5286   -0.5841    1.4863 N   0  0  0  0  0  2  0  0  0  0  0  0
   -4.0246   -0.8386    1.1605 C   0  0  0  0  0  3  0  0  0  0  0  0
   -5.1380   -1.6774    1.2808 C   0  0  0  0  0  0  0  0  0  0  0  0
   -5.2491   -2.7842    0.4261 C   0  0  0  0  0  0  0  0  0  0  0  0
   -4.2426   -3.0200   -0.5234 C   0  0  0  0  0  0  0  0  0  0  0  0
   -3.1620   -2.1338   -0.5996 C   0  0  0  0  0  0  0  0  0  0  0  0
   -2.0248   -2.2315   -1.5835 C   0  0  0  0  0  0  0  0  0  0  0  0
   -0.2660   -2.5262    0.1055 C   0  0  0  0  0  0  0  0  0  0  0  0
    0.1779   -1.7265    1.2933 C   0  0  2  0  0  3  0  0  0  0  0  0
    1.1534   -2.1440    2.2056 C   0  0  0  0  0  0  0  0  0  0  0  0
    1.3726   -1.3774    3.3580 C   0  0  0  0  0  0  0  0  0  0  0  0
    0.6009   -0.2254    3.5672 C   0  0  0  0  0  0  0  0  0  0  0  0
   -0.3344    0.1508    2.5981 C   0  0  0  0  0  0  0  0  0  0  0  0
    0.2370   -1.2545   -1.9429 C   0  0  0  0  0  0  0  0  0  0  0  0
    1.4239   -0.6396   -1.2653 C   0  0  0  0  0  0  0  0  0  0  0  0
    1.2231    0.6191   -0.6201 C   0  0  0  0  0  0  0  0  0  0  0  0
    2.3680    1.3250   -0.1233 C   0  0  0  0  0  0  0  0  0  0  0  0
    3.6057    0.6569   -0.1618 C   0  0  0  0  0  0  0  0  0  0  0  0
    3.7976   -0.6404   -0.6831 C   0  0  0  0  0  0  0  0  0  0  0  0
    2.6808   -1.2580   -1.2737 C   0  0  0  0  0  0  0  0  0  0  0  0
    2.2544    2.7850    0.3553 C   0  0  0  0  0  0  0  0  0  0  0  0
    1.3197    2.8903    1.5803 C   0  0  0  0  0  0  0  0  0  0  0  0
    1.6807    3.6402   -0.8009 C   0  0  0  0  0  0  0  0  0  0  0  0
    3.6216    3.3717    0.7496 C   0  0  0  0  0  0  0  0  0  0  0  0
    5.1481   -1.3738   -0.6266 C   0  0  0  0  0  0  0  0  0  0  0  0
    6.2504   -0.5125    0.0134 C   0  0  0  0  0  0  0  0  0  0  0  0
    5.5953   -1.7569   -2.0552 C   0  0  0  0  0  0  0  0  0  0  0  0
    4.9774   -2.6563    0.2218 C   0  0  0  0  0  0  0  0  0  0  0  0
   -3.8731    0.0488    1.7935 H   0  0  0  0  0  0  0  0  0  0  0  0
   -5.9040   -1.4609    2.0384 H   0  0  0  0  0  0  0  0  0  0  0  0
   -6.1108   -3.4637    0.5005 H   0  0  0  0  0  0  0  0  0  0  0  0
   -4.2929   -3.8828   -1.2032 H   0  0  0  0  0  0  0  0  0  0  0  0
   -2.2594   -1.6207   -2.4778 H   0  0  0  0  0  0  0  0  0  0  0  0
   -1.8364   -3.2771   -1.9085 H   0  0  0  0  0  0  0  0  0  0  0  0
   -1.0747   -3.2120    0.4370 H   0  0  0  0  0  0  0  0  0  0  0  0
    0.5549   -3.1509   -0.3004 H   0  0  0  0  0  0  0  0  0  0  0  0
    1.7346   -3.0549    2.0050 H   0  0  0  0  0  0  0  0  0  0  0  0
    2.1403   -1.6775    4.0862 H   0  0  0  0  0  0  0  0  0  0  0  0
    0.7345    0.3996    4.4609 H   0  0  0  0  0  0  0  0  0  0  0  0
   -0.9408    1.0640    2.6709 H   0  0  0  0  0  0  0  0  0  0  0  0
    0.5317   -2.1642   -2.5104 H   0  0  0  0  0  0  0  0  0  0  0  0
   -0.2482   -0.5366   -2.6357 H   0  0  0  0  0  0  0  0  0  0  0  0
    4.4771    1.1816    0.2452 H   0  0  0  0  0  0  0  0  0  0  0  0
    2.7834   -2.2407   -1.7629 H   0  0  0  0  0  0  0  0  0  0  0  0
    1.7203    2.3054    2.4327 H   0  0  0  0  0  0  0  0  0  0  0  0
    1.2363    3.9486    1.9046 H   0  0  0  0  0  0  0  0  0  0  0  0
    0.3113    2.5144    1.3323 H   0  0  0  0  0  0  0  0  0  0  0  0
    0.6741    3.2866   -1.0955 H   0  0  0  0  0  0  0  0  0  0  0  0
    1.6032    4.7021   -0.4880 H   0  0  0  0  0  0  0  0  0  0  0  0
    2.3427    3.5949   -1.6890 H   0  0  0  0  0  0  0  0  0  0  0  0
    4.3383    3.3621   -0.0958 H   0  0  0  0  0  0  0  0  0  0  0  0
    3.4931    4.4270    1.0627 H   0  0  0  0  0  0  0  0  0  0  0  0
    4.0809    2.8285    1.6003 H   0  0  0  0  0  0  0  0  0  0  0  0
    6.4320    0.4180   -0.5608 H   0  0  0  0  0  0  0  0  0  0  0  0
    6.0042   -0.2319    1.0574 H   0  0  0  0  0  0  0  0  0  0  0  0
    7.2029   -1.0784    0.0379 H   0  0  0  0  0  0  0  0  0  0  0  0
    5.7206   -0.8539   -2.6857 H   0  0  0  0  0  0  0  0  0  0  0  0
    6.5654   -2.2940   -2.0268 H   0  0  0  0  0  0  0  0  0  0  0  0
    4.8631   -2.4207   -2.5570 H   0  0  0  0  0  0  0  0  0  0  0  0
    5.9344   -3.2136    0.2877 H   0  0  0  0  0  0  0  0  0  0  0  0
    4.6546   -2.4057    1.2535 H   0  0  0  0  0  0  0  0  0  0  0  0
    4.2218   -3.3394   -0.2170 H   0  0  0  0  0  0  0  0  0  0  0  0
  2  5  1  0  0  0  0
  3 11  1  0  0  0  0
  4 16  1  0  0  0  0
  5  6  1  0  0  0  0
  5 32  1  0  0  0  0
  6 33  1  0  0  0  0
  7 34  1  0  0  0  0
  7  6  2  0  0  0  0
  8  7  1  0  0  0  0
  9  8  2  0  0  0  0
  9  2  1  0  0  0  0
 10  3  1  0  0  0  0
 10  9  1  0  0  0  0
 11 38  1  0  0  0  0
 12 11  1  1  0  0  0
 12  4  1  0  0  0  0
 12 13  1  0  0  0  0
 13 14  2  0  0  0  0
 14 15  1  0  0  0  0
 14 41  1  0  0  0  0
 15 42  1  0  0  0  0
 16 43  1  0  0  0  0
 16 15  2  0  0  0  0
 17 18  1  0  0  0  0
 17  3  1  0  0  0  0
 18 19  1  0  0  0  0
 19  1  1  0  0  0  0
 19 20  2  0  0  0  0
 20 24  1  0  0  0  0
 21 20  1  0  0  0  0
 21 46  1  0  0  0  0
 22 28  1  0  0  0  0
 22 21  2  0  0  0  0
 23 18  2  0  0  0  0
 23 22  1  0  0  0  0
 24 27  1  0  0  0  0
 24 25  1  0  0  0  0
 25 49  1  0  0  0  0
 25 48  1  0  0  0  0
 26 52  1  0  0  0  0
 26 24  1  0  0  0  0
 27 55  1  0  0  0  0
 27 56  1  0  0  0  0
 28 29  1  0  0  0  0
 28 31  1  0  0  0  0
 29 59  1  0  0  0  0
 29 58  1  0  0  0  0
 30 61  1  0  0  0  0
 30 28  1  0  0  0  0
 31 63  1  0  0  0  0
 31 64  1  0  0  0  0
 35  8  1  0  0  0  0
 36 10  1  0  0  0  0
 37 10  1  0  0  0  0
 39 11  1  0  0  0  0
 40 13  1  0  0  0  0
 44 17  1  0  0  0  0
 45 17  1  0  0  0  0
 47 23  1  0  0  0  0
 50 25  1  0  0  0  0
 51 26  1  0  0  0  0
 53 26  1  0  0  0  0
 54 27  1  0  0  0  0
 57 29  1  0  0  0  0
 60 30  1  0  0  0  0
 62 30  1  0  0  0  0
 65 31  1  0  0  0  0
M  CHG  1   1  -1
M  END
