1,4,5,6
q = -2.0, confidence = 0.83

 57 59  0  0  1  0  0  0  0  0999 V2000
   -0.6301   -2.0112   -0.5715 O   0  5  0  0  0  0  0  0  0  0  0  0
    0.2588   -4.0781   -0.7103 O   0  0  0  0  0  0  0  0  0  0  0  0
   -1.1294    3.5572    0.4871 O   0  0  0  0  0  0  0  0  0  0  0  0
    0.1142    1.5998    0.0307 N   0  0  0  0  0  2  0  0  0  0  0  0
   -2.1342    0.1828   -0.2122 N   0  0  0  0  0  0  0  0  0  0  0  0
    1.5382   -0.7810   -0.0539 N   0  0  0  0  0  2  0  0  0  0  0  0
    3.8274    2.0957   -0.2649 C   0  0  0  0  0  3  0  0  0  0  0  0
    4.7434    1.4907   -0.2406 H   0  0  0  0  0  0  0  0  0  0  0  0
    1.6490   -2.2411    0.0306 C   0  0  0  0  0  0  0  0  0  0  0  0
    1.8055   -2.5532    1.0870 H   0  0  0  0  0  0  0  0  0  0  0  0
    2.5131   -2.6341   -0.5395 H   0  0  0  0  0  0  0  0  0  0  0  0
    2.6124   -0.0216   -0.0153 C   0  0  0  0  0  0  0  0  0  0  0  0
   -5.1717    0.2172    1.1410 C   0  0  0  0  0  0  0  0  0  0  0  0
   -4.6393    0.6763    1.9867 H   0  0  0  0  0  0  0  0  0  0  0  0
    3.9242    3.4714   -0.4331 C   0  0  0  0  0  0  0  0  0  0  0  0
    4.9079    3.9519   -0.5366 H   0  0  0  0  0  0  0  0  0  0  0  0
   -2.4057    0.3537   -1.6589 C   0  0  0  0  0  0  0  0  0  0  0  0
   -2.1976   -0.6018   -2.1754 H   0  0  0  0  0  0  0  0  0  0  0  0
   -1.7362    1.1358   -2.0621 H   0  0  0  0  0  0  0  0  0  0  0  0
   -3.4619    0.6513   -1.8333 H   0  0  0  0  0  0  0  0  0  0  0  0
    1.3586    2.2063   -0.1419 C   0  0  0  0  0  0  0  0  0  0  0  0
    0.3522   -2.8852   -0.4702 C   0  0  0  0  0  0  0  0  0  0  0  0
   -7.2502   -0.1122   -0.0807 C   0  0  0  0  0  0  0  0  0  0  0  0
   -8.3246    0.0902   -0.2068 H   0  0  0  0  0  0  0  0  0  0  0  0
   -1.0269    2.3430    0.3155 C   0  0  0  0  0  0  0  0  0  0  0  0
   -2.5589   -1.2742    1.7980 C   0  0  0  0  0  0  0  0  0  0  0  0
   -1.4805   -1.5237    1.8063 H   0  0  0  0  0  0  0  0  0  0  0  0
   -3.1230   -2.1640    2.1379 H   0  0  0  0  0  0  0  0  0  0  0  0
   -2.7456   -0.4670    2.5340 H   0  0  0  0  0  0  0  0  0  0  0  0
   -6.5404    0.4773    0.9772 C   0  0  0  0  0  0  0  0  0  0  0  0
   -7.0577    1.1419    1.6857 H   0  0  0  0  0  0  0  0  0  0  0  0
   -2.9964   -0.9240    0.3786 C   0  0  1  0  0  0  0  0  0  0  0  0
   -2.7522   -1.7958   -0.2560 H   0  0  0  0  0  0  0  0  0  0  0  0
    2.7377    4.2257   -0.4742 C   0  0  0  0  0  0  0  0  0  0  0  0
    2.7783    5.3164   -0.6200 H   0  0  0  0  0  0  0  0  0  0  0  0
   -4.4841   -0.6305    0.2472 C   0  0  0  0  0  0  0  0  0  0  0  0
   -6.5832   -0.9685   -0.9701 C   0  0  0  0  0  0  0  0  0  0  0  0
   -7.1326   -1.4453   -1.7960 H   0  0  0  0  0  0  0  0  0  0  0  0
    5.9111   -1.7824   -0.7856 C   0  0  0  0  0  0  0  0  0  0  0  0
    6.4826   -2.1160   -1.6649 H   0  0  0  0  0  0  0  0  0  0  0  0
    1.4944    3.6149   -0.3253 C   0  0  0  0  0  0  0  0  0  0  0  0
    0.5845    4.2209   -0.3235 H   0  0  0  0  0  0  0  0  0  0  0  0
    2.5756    1.4276   -0.1366 C   0  0  0  0  0  0  0  0  0  0  0  0
    4.4489   -0.9245    1.4520 C   0  0  0  0  0  0  0  0  0  0  0  0
    3.8752   -0.5792    2.3256 H   0  0  0  0  0  0  0  0  0  0  0  0
    3.9434   -0.6953    0.1576 C   0  0  0  0  0  0  0  0  0  0  0  0
    5.6777   -1.5793    1.6244 C   0  0  0  0  0  0  0  0  0  0  0  0
    6.0664   -1.7519    2.6394 H   0  0  0  0  0  0  0  0  0  0  0  0
   -2.2639    1.4690    0.4934 C   0  0  0  0  0  0  0  0  0  0  0  0
   -2.3671    1.2777    1.5792 H   0  0  0  0  0  0  0  0  0  0  0  0
   -3.1584    2.0391    0.1687 H   0  0  0  0  0  0  0  0  0  0  0  0
    6.4098   -2.0105    0.5070 C   0  0  0  0  0  0  0  0  0  0  0  0
    7.3731   -2.5246    0.6435 H   0  0  0  0  0  0  0  0  0  0  0  0
    4.6830   -1.1281   -0.9618 C   0  0  0  0  0  0  0  0  0  0  0  0
    4.2905   -0.9447   -1.9737 H   0  0  0  0  0  0  0  0  0  0  0  0
   -5.2138   -1.2229   -0.8044 C   0  0  0  0  0  0  0  0  0  0  0  0
   -4.6940   -1.9017   -1.4991 H   0  0  0  0  0  0  0  0  0  0  0  0
  1 22  1  0  0  0  0
  2 22  2  0  0  0  0
  4 25  1  0  0  0  0
  5 32  1  0  0  0  0
  5 49  1  0  0  0  0
  6 12  1  0  0  0  0
  6  9  1  0  0  0  0
  7  8  1  0  0  0  0
  7 43  1  0  0  0  0
  9 10  1  0  0  0  0
 11  9  1  0  0  0  0
 12 46  1  0  0  0  0
 13 14  1  0  0  0  0
 15  7  1  0  0  0  0
 16 15  1  0  0  0  0
 17  5  1  0  0  0  0
 18 17  1  0  0  0  0
 19 17  1  0  0  0  0
 20 17  1  0  0  0  0
 21 43  1  0  0  0  0
 21  4  1  0  0  0  0
 22  9  1  0  0  0  0
 23 30  2  0  0  0  0
 24 23  1  0  0  0  0
 25  3  2  0  0  0  0
 25 49  1  0  0  0  0
 26 27  1  0  0  0  0
 26 28  1  0  0  0  0
 26 29  1  0  0  0  0
 30 13  1  0  0  0  0
 30 31  1  0  0  0  0
 32 33  1  6  0  0  0
 32 26  1  0  0  0  0
 34 15  2  0  0  0  0
 34 41  1  0  0  0  0
 35 34  1  0  0  0  0
 36 32  1  0  0  0  0
 36 13  2  0  0  0  0
 37 56  2  0  0  0  0
 37 23  1  0  0  0  0
 38 37  1  0  0  0  0
 39 52  1  0  0  0  0
 40 39  1  0  0  0  0
 41 42  1  0  0  0  0
 41 21  2  0  0  0  0
 43 12  2  0  0  0  0
 44 47  1  0  0  0  0
 44 45  1  0  0  0  0
 46 44  2  0  0  0  0
 47 48  1  0  0  0  0
 49 50  1  0  0  0  0
 51 49  1  0  0  0  0
 52 53  1  0  0  0  0
 52 47  2  0  0  0  0
 54 39  2  0  0  0  0
 54 46  1  0  0  0  0
 55 54  1  0  0  0  0
 56 36  1  0  0  0  0
 57 56  1  0  0  0  0
M  CHG  1   1  -1
M  END
