1,4,5,6
q = -2.0, confidence = 0.858

 70 74  0  0  1  0  0  0  0  0999 V2000
   -0.0668   -2.0944   -1.4793 O   0  5  0  0  0  0  0  0  0  0  0  0
    1.8640   -2.7423   -2.4475 O   0  0  0  0  0  0  0  0  0  0  0  0
   -3.4526    0.3479    2.3823 O   0  0  0  0  0  0  0  0  0  0  0  0
    0.8728   -0.0559   -0.2743 N   0  0  0  0  0  2  0  0  0  0  0  0
   -1.5495    0.3121    0.9837 N   0  0  0  0  0  2  0  0  0  0  0  0
   -2.4695   -1.8422   -0.3172 N   0  0  0  0  0  0  0  0  0  0  0  0
    2.7438   -1.4712    0.2042 N   0  0  0  0  0  0  0  0  0  0  0  0
    1.2272   -2.0051   -1.7046 C   0  0  0  0  0  0  0  0  0  0  0  0
    1.9219   -0.9188   -0.8535 C   0  0  1  0  0  0  0  0  0  0  0  0
    2.5931   -0.3303   -1.5121 H   0  0  0  0  0  0  0  0  0  0  0  0
    1.1743    1.1561    0.1394 C   0  0  0  0  0  0  0  0  0  0  0  0
    0.2143    2.0332    0.7891 C   0  0  0  0  0  0  0  0  0  0  0  0
    0.6196    3.3784    1.0241 C   0  0  0  0  0  3  0  0  0  0  0  0
    1.6228    3.6815    0.6959 H   0  0  0  0  0  0  0  0  0  0  0  0
   -0.2069    4.3079    1.6427 C   0  0  0  0  0  0  0  0  0  0  0  0
    0.1357    5.3409    1.8000 H   0  0  0  0  0  0  0  0  0  0  0  0
   -1.4812    3.8900    2.0705 C   0  0  0  0  0  0  0  0  0  0  0  0
   -2.1591    4.6010    2.5684 H   0  0  0  0  0  0  0  0  0  0  0  0
   -1.9076    2.5782    1.8809 C   0  0  0  0  0  0  0  0  0  0  0  0
   -2.8889    2.2605    2.2435 H   0  0  0  0  0  0  0  0  0  0  0  0
   -1.0959    1.6050    1.2239 C   0  0  0  0  0  0  0  0  0  0  0  0
   -2.7339   -0.1676    1.5244 C   0  0  0  0  0  0  0  0  0  0  0  0
   -3.1172   -1.5454    0.9914 C   0  0  2  0  0  0  0  0  0  0  0  0
   -4.2229   -1.5503    0.8765 H   0  0  0  0  0  0  0  0  0  0  0  0
   -2.6747   -2.6989    1.9414 C   0  0  0  0  0  0  0  0  0  0  0  0
   -3.5703   -3.2032    2.3522 H   0  0  0  0  0  0  0  0  0  0  0  0
   -2.0989   -2.3103    2.8027 H   0  0  0  0  0  0  0  0  0  0  0  0
   -1.8454   -3.6518    1.0568 C   0  0  0  0  0  0  0  0  0  0  0  0
   -0.7616   -3.4327    1.1360 H   0  0  0  0  0  0  0  0  0  0  0  0
   -1.9928   -4.7186    1.3129 H   0  0  0  0  0  0  0  0  0  0  0  0
   -2.3136   -3.3237   -0.3531 C   0  0  0  0  0  0  0  0  0  0  0  0
   -3.3101   -3.7766   -0.5647 H   0  0  0  0  0  0  0  0  0  0  0  0
   -1.5985   -3.5932   -1.1508 H   0  0  0  0  0  0  0  0  0  0  0  0
    4.0506   -1.9978   -0.1908 C   0  0  0  0  0  0  0  0  0  0  0  0
    4.6782   -1.1768   -0.5982 H   0  0  0  0  0  0  0  0  0  0  0  0
    3.9537   -2.7791   -0.9819 H   0  0  0  0  0  0  0  0  0  0  0  0
    4.5944   -2.5938    1.1230 C   0  0  0  0  0  0  0  0  0  0  0  0
    5.1854   -3.5103    0.9317 H   0  0  0  0  0  0  0  0  0  0  0  0
    5.2638   -1.8721    1.6314 H   0  0  0  0  0  0  0  0  0  0  0  0
    3.3316   -2.8694    1.9897 C   0  0  0  0  0  0  0  0  0  0  0  0
    3.3441   -2.2451    2.9048 H   0  0  0  0  0  0  0  0  0  0  0  0
    3.2553   -3.9252    2.3146 H   0  0  0  0  0  0  0  0  0  0  0  0
    2.1497   -2.4704    1.0881 C   0  0  0  0  0  0  0  0  0  0  0  0
    1.7722   -3.3620    0.5220 H   0  0  0  0  0  0  0  0  0  0  0  0
    1.2908   -2.0380    1.6425 H   0  0  0  0  0  0  0  0  0  0  0  0
    2.5708    1.6565   -0.0967 C   0  0  0  0  0  0  0  0  0  0  0  0
    3.5887    1.4155    0.8463 C   0  0  0  0  0  0  0  0  0  0  0  0
    3.3473    0.8743    1.7710 H   0  0  0  0  0  0  0  0  0  0  0  0
    4.8982    1.8487    0.5915 C   0  0  0  0  0  0  0  0  0  0  0  0
    5.6892    1.6558    1.3320 H   0  0  0  0  0  0  0  0  0  0  0  0
    5.2017    2.5233   -0.6027 C   0  0  0  0  0  0  0  0  0  0  0  0
    6.2311    2.8588   -0.8003 H   0  0  0  0  0  0  0  0  0  0  0  0
    4.1893    2.7702   -1.5428 C   0  0  0  0  0  0  0  0  0  0  0  0
    4.4203    3.3000   -2.4792 H   0  0  0  0  0  0  0  0  0  0  0  0
    2.8779    2.3376   -1.2917 C   0  0  0  0  0  0  0  0  0  0  0  0
    2.0793    2.5255   -2.0263 H   0  0  0  0  0  0  0  0  0  0  0  0
   -3.1986   -1.3355   -1.5196 C   0  0  0  0  0  0  0  0  0  0  0  0
   -4.2587   -1.6714   -1.4555 H   0  0  0  0  0  0  0  0  0  0  0  0
   -2.7269   -1.8327   -2.3890 H   0  0  0  0  0  0  0  0  0  0  0  0
   -3.1095    0.1641   -1.6728 C   0  0  0  0  0  0  0  0  0  0  0  0
   -2.0125    0.7283   -2.3585 C   0  0  0  0  0  0  0  0  0  0  0  0
   -1.2884    0.0642   -2.8552 H   0  0  0  0  0  0  0  0  0  0  0  0
   -1.8417    2.1187   -2.4018 C   0  0  0  0  0  0  0  0  0  0  0  0
   -0.9785    2.5479   -2.9332 H   0  0  0  0  0  0  0  0  0  0  0  0
   -2.7653    2.9625   -1.7633 C   0  0  0  0  0  0  0  0  0  0  0  0
   -2.6192    4.0529   -1.7784 H   0  0  0  0  0  0  0  0  0  0  0  0
   -3.8715    2.4106   -1.1014 C   0  0  0  0  0  0  0  0  0  0  0  0
   -4.5990    3.0661   -0.6001 H   0  0  0  0  0  0  0  0  0  0  0  0
   -4.0454    1.0177   -1.0628 C   0  0  0  0  0  0  0  0  0  0  0  0
   -4.9061    0.5908   -0.5247 H   0  0  0  0  0  0  0  0  0  0  0  0
  2  8  2  0  0  0  0
  4 11  1  0  0  0  0
  5 21  1  0  0  0  0
  5 22  1  0  0  0  0
  6 23  1  0  0  0  0
  7 43  1  0  0  0  0
  8  1  1  0  0  0  0
  8  9  1  0  0  0  0
  9 10  1  6  0  0  0
  9  4  1  0  0  0  0
  9  7  1  0  0  0  0
 11 12  2  0  0  0  0
 12 13  1  0  0  0  0
 12 21  1  0  0  0  0
 13 15  1  0  0  0  0
 14 13  1  0  0  0  0
 15 16  1  0  0  0  0
 15 17  2  0  0  0  0
 17 18  1  0  0  0  0
 19 17  1  0  0  0  0
 19 20  1  0  0  0  0
 21 19  2  0  0  0  0
 22  3  2  0  0  0  0
 23 24  1  6  0  0  0
 23 22  1  0  0  0  0
 23 25  1  0  0  0  0
 25 26  1  0  0  0  0
 25 27  1  0  0  0  0
 28 29  1  0  0  0  0
 28 30  1  0  0  0  0
 28 25  1  0  0  0  0
 31  6  1  0  0  0  0
 31 28  1  0  0  0  0
 32 31  1  0  0  0  0
 33 31  1  0  0  0  0
 34  7  1  0  0  0  0
 34 37  1  0  0  0  0
 35 34  1  0  0  0  0
 36 34  1  0  0  0  0
 37 39  1  0  0  0  0
 37 40  1  0  0  0  0
 38 37  1  0  0  0  0
 40 42  1  0  0  0  0
 40 41  1  0  0  0  0
 43 45  1  0  0  0  0
 43 40  1  0  0  0  0
 44 43  1  0  0  0  0
 46 11  1  0  0  0  0
 46 47  1  0  0  0  0
 47 48  1  0  0  0  0
 49 47  2  0  0  0  0
 49 50  1  0  0  0  0
 51 49  1  0  0  0  0
 52 51  1  0  0  0  0
 53 55  1  0  0  0  0
 53 51  2  0  0  0  0
 54 53  1  0  0  0  0
 55 46  2  0  0  0  0
 56 55  1  0  0  0  0
 57 58  1  0  0  0  0
 57  6  1  0  0  0  0
 59 57  1  0  0  0  0
 60 57  1  0  0  0  0
 60 69  1  0  0  0  0
 61 60  2  0  0  0  0
 62 61  1  0  0  0  0
 63 61  1  0  0  0  0
 63 65  2  0  0  0  0
 64 63  1  0  0  0  0
 65 67  1  0  0  0  0
 66 65  1  0  0  0  0
 67 69  2  0  0  0  0
 67 68  1  0  0  0  0
 69 70  1  0  0  0  0
M  CHG  1   1  -1
M  END
