2,7,8,9
q = -2.0, confidence = 0.86

 70 73  0  0  1  0  0  0  0  0999 V2000
   -4.6058    0.3252    0.7369 F   0  0  0  0  0  0  0  0  0  0  0  0
   -0.1064   -1.7853    1.6530 O   0  5  0  0  0  0  0  0  0  0  0  0
   -2.1157   -1.7404    2.6723 O   0  0  0  0  0  0  0  0  0  0  0  0
    3.6205   -0.8604   -2.5539 O   0  0  0  0  0  0  0  0  0  0  0  0
   -4.5299   -2.6597   -1.1862 O   0  0  0  0  0  0  0  0  0  0  0  0
   -6.1521   -1.1498   -0.6927 O   0  0  0  0  0  0  0  0  0  0  0  0
   -0.4217    0.3297    0.2875 N   0  0  0  0  0  2  0  0  0  0  0  0
    1.9198   -0.1867   -1.0633 N   0  0  0  0  0  2  0  0  0  0  0  0
    2.1513   -2.4498    0.3431 N   0  0  0  0  0  0  0  0  0  0  0  0
   -1.3122   -1.3023    1.8562 C   0  0  0  0  0  0  0  0  0  0  0  0
   -1.6667   -0.1546    0.8955 C   0  0  2  0  0  0  0  0  0  0  0  0
   -2.1785    0.6513    1.4562 H   0  0  0  0  0  0  0  0  0  0  0  0
   -0.2932    1.5687   -0.1373 C   0  0  0  0  0  0  0  0  0  0  0  0
    0.8934    2.0472   -0.8296 C   0  0  0  0  0  0  0  0  0  0  0  0
    1.9329    1.1780   -1.3308 C   0  0  1  0  0  3  0  0  0  0  0  0
    2.9868    1.7919   -2.0716 C   0  0  0  0  0  0  0  0  0  0  0  0
    3.7537    1.1399   -2.4992 H   0  0  0  0  0  0  0  0  0  0  0  0
    3.0566    3.1711   -2.2498 C   0  0  0  0  0  0  0  0  0  0  0  0
    3.9060    3.5908   -2.8112 H   0  0  0  0  0  0  0  0  0  0  0  0
    2.0657    4.0220   -1.7249 C   0  0  0  0  0  0  0  0  0  0  0  0
    2.1214    5.1118   -1.8610 H   0  0  0  0  0  0  0  0  0  0  0  0
    0.9992    3.4512   -1.0407 C   0  0  0  0  0  0  0  0  0  0  0  0
    0.2062    4.0965   -0.6391 H   0  0  0  0  0  0  0  0  0  0  0  0
    2.8342   -1.0637   -1.6278 C   0  0  0  0  0  0  0  0  0  0  0  0
    2.7804   -2.4590   -1.0103 C   0  0  2  0  0  0  0  0  0  0  0  0
    3.8304   -2.8157   -0.9367 H   0  0  0  0  0  0  0  0  0  0  0  0
    1.9344   -3.4604   -1.8530 C   0  0  0  0  0  0  0  0  0  0  0  0
    1.5008   -2.9702   -2.7452 H   0  0  0  0  0  0  0  0  0  0  0  0
    2.5853   -4.2786   -2.2169 H   0  0  0  0  0  0  0  0  0  0  0  0
    0.8614   -3.9915   -0.8829 C   0  0  0  0  0  0  0  0  0  0  0  0
   -0.0706   -3.3931   -0.9479 H   0  0  0  0  0  0  0  0  0  0  0  0
    0.5939   -5.0494   -1.0683 H   0  0  0  0  0  0  0  0  0  0  0  0
    1.4941   -3.7803    0.4843 C   0  0  0  0  0  0  0  0  0  0  0  0
    0.7800   -3.7450    1.3263 H   0  0  0  0  0  0  0  0  0  0  0  0
    2.2819   -4.5431    0.6862 H   0  0  0  0  0  0  0  0  0  0  0  0
   -2.6458   -0.6672   -0.1814 C   0  0  0  0  0  0  0  0  0  0  0  0
   -2.7224    0.0820   -0.9960 H   0  0  0  0  0  0  0  0  0  0  0  0
   -2.2780   -1.6135   -0.6269 H   0  0  0  0  0  0  0  0  0  0  0  0
   -4.0393   -0.8960    0.3916 C   0  0  2  0  0  0  0  0  0  0  0  0
   -3.9522   -1.5087    1.3198 H   0  0  0  0  0  0  0  0  0  0  0  0
   -4.9144   -1.6694   -0.5912 C   0  0  0  0  0  0  0  0  0  0  0  0
   -7.0370   -1.8602   -1.5696 C   0  0  0  0  0  0  0  0  0  0  0  0
   -7.9964   -1.3143   -1.5431 H   0  0  0  0  0  0  0  0  0  0  0  0
   -7.1751   -2.9055   -1.2271 H   0  0  0  0  0  0  0  0  0  0  0  0
   -6.6324   -1.8854   -2.6015 H   0  0  0  0  0  0  0  0  0  0  0  0
   -1.4206    2.5285    0.1090 C   0  0  0  0  0  0  0  0  0  0  0  0
   -2.3370    2.8380   -0.9146 C   0  0  0  0  0  0  0  0  0  0  0  0
   -2.1946    2.4055   -1.9166 H   0  0  0  0  0  0  0  0  0  0  0  0
   -3.4210    3.6900   -0.6576 C   0  0  0  0  0  0  0  0  0  0  0  0
   -4.1390    3.9165   -1.4601 H   0  0  0  0  0  0  0  0  0  0  0  0
   -3.5897    4.2514    0.6172 C   0  0  0  0  0  0  0  0  0  0  0  0
   -4.4424    4.9171    0.8181 H   0  0  0  0  0  0  0  0  0  0  0  0
   -2.6683    3.9623    1.6362 C   0  0  0  0  0  0  0  0  0  0  0  0
   -2.7933    4.4044    2.6361 H   0  0  0  0  0  0  0  0  0  0  0  0
   -1.5889    3.1032    1.3856 C   0  0  0  0  0  0  0  0  0  0  0  0
   -0.8679    2.8671    2.1834 H   0  0  0  0  0  0  0  0  0  0  0  0
    3.0808   -2.1626    1.4773 C   0  0  0  0  0  0  0  0  0  0  0  0
    2.5222   -2.4213    2.3975 H   0  0  0  0  0  0  0  0  0  0  0  0
    3.9583   -2.8437    1.3955 H   0  0  0  0  0  0  0  0  0  0  0  0
    3.5137   -0.7166    1.5258 C   0  0  0  0  0  0  0  0  0  0  0  0
    2.7079    0.2276    2.1980 C   0  0  0  0  0  0  0  0  0  0  0  0
    1.8271   -0.1191    2.7601 H   0  0  0  0  0  0  0  0  0  0  0  0
    3.0218    1.5927    2.1468 C   0  0  0  0  0  0  0  0  0  0  0  0
    2.3815    2.3217    2.6662 H   0  0  0  0  0  0  0  0  0  0  0  0
    4.1459    2.0312    1.4279 C   0  0  0  0  0  0  0  0  0  0  0  0
    4.3790    3.1047    1.3691 H   0  0  0  0  0  0  0  0  0  0  0  0
    4.9650    1.0969    0.7781 C   0  0  0  0  0  0  0  0  0  0  0  0
    5.8469    1.4338    0.2134 H   0  0  0  0  0  0  0  0  0  0  0  0
    4.6526   -0.2712    0.8322 C   0  0  0  0  0  0  0  0  0  0  0  0
    5.2903   -0.9971    0.3040 H   0  0  0  0  0  0  0  0  0  0  0  0
  2 10  1  0  0  0  0
  4 24  2  0  0  0  0
  5 41  2  0  0  0  0
  6 41  1  0  0  0  0
  7 11  1  0  0  0  0
  9 33  1  0  0  0  0
  9 57  1  0  0  0  0
 10  3  2  0  0  0  0
 11 12  1  1  0  0  0
 11 10  1  0  0  0  0
 13 46  1  0  0  0  0
 13  7  1  0  0  0  0
 14 13  2  0  0  0  0
 15  8  1  1  0  0  0
 15 14  1  0  0  0  0
 16 15  1  0  0  0  0
 17 16  1  0  0  0  0
 18 16  2  0  0  0  0
 18 20  1  0  0  0  0
 19 18  1  0  0  0  0
 20 22  2  0  0  0  0
 21 20  1  0  0  0  0
 22 14  1  0  0  0  0
 22 23  1  0  0  0  0
 24  8  1  0  0  0  0
 24 25  1  0  0  0  0
 25 26  1  1  0  0  0
 25  9  1  0  0  0  0
 27 25  1  0  0  0  0
 27 30  1  0  0  0  0
 28 27  1  0  0  0  0
 29 27  1  0  0  0  0
 30 33  1  0  0  0  0
 31 30  1  0  0  0  0
 32 30  1  0  0  0  0
 33 35  1  0  0  0  0
 33 34  1  0  0  0  0
 36 39  1  0  0  0  0
 36 11  1  0  0  0  0
 37 36  1  0  0  0  0
 38 36  1  0  0  0  0
 39  1  1  0  0  0  0
 39 40  1  1  0  0  0
 41 39  1  0  0  0  0
 42 43  1  0  0  0  0
 42 44  1  0  0  0  0
 42  6  1  0  0  0  0
 45 42  1  0  0  0  0
 46 55  1  0  0  0  0
 47 49  1  0  0  0  0
 47 46  2  0  0  0  0
 48 47  1  0  0  0  0
 49 51  2  0  0  0  0
 50 49  1  0  0  0  0
 51 52  1  0  0  0  0
 51 53  1  0  0  0  0
 53 54  1  0  0  0  0
 55 53  2  0  0  0  0
 55 56  1  0  0  0  0
 57 60  1  0  0  0  0
 57 58  1  0  0  0  0
 59 57  1  0  0  0  0
 60 61  1  0  0  0  0
 61 62  1  0  0  0  0
 63 61  2  0  0  0  0
 63 64  1  0  0  0  0
 65 63  1  0  0  0  0
 66 65  1  0  0  0  0
 67 69  1  0  0  0  0
 67 65  2  0  0  0  0
 68 67  1  0  0  0  0
 69 60  2  0  0  0  0
 70 69  1  0  0  0  0
M  CHG  1   2  -1
M  END
