1,3,4,5
q = -1.0

 25 24  0  0  0  0  0  0  0  0999 V2000
    1.1918   -0.0732    1.4041 O   0  5  0  0  0  0  0  0  0  0  0  0
    3.4200   -0.0742    1.1154 O   0  0  0  0  0  0  0  0  0  0  0  0
    0.5590    0.1334   -1.1747 N   0  0  0  0  0  0  0  0  0  0  0  0
   -0.5553    1.9085    0.5234 N   0  0  0  0  0  0  0  0  0  0  0  0
   -0.3794   -1.9990    0.2106 N   0  0  0  0  0  0  0  0  0  0  0  0
    2.2920   -0.0088    0.6726 C   0  0  0  0  0  0  0  0  0  0  0  0
    2.0218    0.1774   -0.8351 C   0  0  0  0  0  0  0  0  0  0  0  0
    0.0785    1.4176   -1.7721 C   0  0  0  0  0  0  0  0  0  0  0  0
    0.1211    2.4755   -0.6756 C   0  0  0  0  0  0  0  0  0  0  0  0
    0.2077   -1.0831   -1.9677 C   0  0  0  0  0  0  0  0  0  0  0  0
    0.3681   -2.2866   -1.0483 C   0  0  0  0  0  0  0  0  0  0  0  0
   -0.1752    2.2937    1.4009 H   0  0  0  0  0  0  0  0  0  0  0  0
   -1.5717    2.0942    0.5014 H   0  0  0  0  0  0  0  0  0  0  0  0
    2.4571    1.1457   -1.1488 H   0  0  0  0  0  0  0  0  0  0  0  0
    2.5729   -0.5984   -1.4011 H   0  0  0  0  0  0  0  0  0  0  0  0
    0.0268   -2.5183    1.0032 H   0  0  0  0  0  0  0  0  0  0  0  0
   -1.3724   -2.2686    0.1091 H   0  0  0  0  0  0  0  0  0  0  0  0
    0.7019    1.7001   -2.6473 H   0  0  0  0  0  0  0  0  0  0  0  0
   -0.9638    1.2529   -2.1076 H   0  0  0  0  0  0  0  0  0  0  0  0
    1.1631    2.7253   -0.3970 H   0  0  0  0  0  0  0  0  0  0  0  0
   -0.3597    3.4156   -1.0135 H   0  0  0  0  0  0  0  0  0  0  0  0
    0.8517   -1.1633   -2.8694 H   0  0  0  0  0  0  0  0  0  0  0  0
   -0.8482   -0.9770   -2.2839 H   0  0  0  0  0  0  0  0  0  0  0  0
    1.4310   -2.4531   -0.7857 H   0  0  0  0  0  0  0  0  0  0  0  0
    0.0043   -3.2123   -1.5384 H   0  0  0  0  0  0  0  0  0  0  0  0
  3  7  1  0  0  0  0
  4 12  1  0  0  0  0
  5 16  1  0  0  0  0
  6  2  2  0  0  0  0
  6  1  1  0  0  0  0
  7  6  1  0  0  0  0
  8  3  1  0  0  0  0
  8  9  1  0  0  0  0
  9 20  1  0  0  0  0
  9  4  1  0  0  0  0
 10  3  1  0  0  0  0
 10 11  1  0  0  0  0
 11 24  1  0  0  0  0
 11  5  1  0  0  0  0
 13  4  1  0  0  0  0
 14  7  1  0  0  0  0
 15  7  1  0  0  0  0
 17  5  1  0  0  0  0
 18  8  1  0  0  0  0
 19  8  1  0  0  0  0
 21  9  1  0  0  0  0
 22 10  1  0  0  0  0
 23 10  1  0  0  0  0
 25 11  1  0  0  0  0
M  CHG  1   1  -1
M  END
