3,5,6,7
q = -2.0, confidence = 0.974

 52 56  0  0  1  0  0  0  0  0999 V2000
   -3.1282    2.7897   -0.8202 O   0  0  0  0  0  0  0  0  0  0  0  0
    0.9237   -4.0489   -0.2203 O   0  0  0  0  0  0  0  0  0  0  0  0
    0.6267   -0.0016   -1.7512 O   0  0  0  0  0  1  0  0  0  0  0  0
    1.3164   -1.2486   -2.1417 O   0  0  0  0  0  0  0  0  0  0  0  0
   -1.5590    1.1711   -0.8334 N   0  0  0  0  0  2  0  0  0  0  0  0
   -2.1626   -1.1837    0.4772 N   0  0  0  0  0  2  0  0  0  0  0  0
    0.3057   -1.8979   -0.2049 N   0  0  0  0  0  2  0  0  0  0  0  0
   -0.8725    2.3727   -1.3713 C   0  0  1  0  0  0  0  0  0  0  0  0
   -0.2915    2.0736   -2.2647 H   0  0  0  0  0  0  0  0  0  0  0  0
   -2.0845    3.2516   -1.7178 C   0  0  0  0  0  0  0  0  0  0  0  0
   -1.9273    4.3316   -1.5439 H   0  0  0  0  0  0  0  0  0  0  0  0
   -2.4283    3.0877   -2.7617 H   0  0  0  0  0  0  0  0  0  0  0  0
   -2.7691    1.5305   -0.4504 C   0  0  1  0  0  3  0  0  0  0  0  0
   -3.6670    0.7421    0.3174 C   0  0  0  0  0  0  0  0  0  0  0  0
   -4.6467    1.1710    0.5609 H   0  0  0  0  0  0  0  0  0  0  0  0
   -3.3407   -0.5269    0.7559 C   0  0  0  0  0  0  0  0  0  0  0  0
   -4.2439   -1.3971    1.6053 C   0  0  0  0  0  0  0  0  0  0  0  0
   -5.2955   -1.3654    1.2602 H   0  0  0  0  0  0  0  0  0  0  0  0
   -4.2366   -1.0195    2.6506 H   0  0  0  0  0  0  0  0  0  0  0  0
   -3.5927   -2.7851    1.5010 C   0  0  0  0  0  0  0  0  0  0  0  0
   -3.5110   -3.3171    2.4690 H   0  0  0  0  0  0  0  0  0  0  0  0
   -4.1569   -3.4532    0.8152 H   0  0  0  0  0  0  0  0  0  0  0  0
   -2.2286   -2.4925    0.9054 C   0  0  1  0  0  3  0  0  0  0  0  0
   -1.2436   -3.4594    0.7457 C   0  0  0  0  0  0  0  0  0  0  0  0
   -1.4350   -4.4960    1.0476 H   0  0  0  0  0  0  0  0  0  0  0  0
   -0.0159   -3.1310    0.1196 C   0  0  0  0  0  0  0  0  0  0  0  0
    1.8871   -3.3725   -1.0736 C   0  0  0  0  0  0  0  0  0  0  0  0
    1.7148   -3.6766   -2.1273 H   0  0  0  0  0  0  0  0  0  0  0  0
    2.9017   -3.6611   -0.7453 H   0  0  0  0  0  0  0  0  0  0  0  0
    1.5925   -1.8537   -0.9048 C   0  0  1  0  0  0  0  0  0  0  0  0
    2.6609   -1.0989   -0.1137 C   0  0  0  0  0  0  0  0  0  0  0  0
    2.6514   -1.0798    1.2912 C   0  0  0  0  0  0  0  0  0  0  0  0
    1.8180   -1.5510    1.8338 H   0  0  0  0  0  0  0  0  0  0  0  0
    3.6809   -0.4371    1.9965 C   0  0  0  0  0  0  0  0  0  0  0  0
    3.6604   -0.4185    3.0968 H   0  0  0  0  0  0  0  0  0  0  0  0
    4.7279    0.1879    1.3019 C   0  0  0  0  0  0  0  0  0  0  0  0
    5.5351    0.6918    1.8552 H   0  0  0  0  0  0  0  0  0  0  0  0
    4.7348    0.1776   -0.1035 C   0  0  0  0  0  0  0  0  0  0  0  0
    5.5456    0.6783   -0.6548 H   0  0  0  0  0  0  0  0  0  0  0  0
    3.7050   -0.4618   -0.8082 C   0  0  0  0  0  0  0  0  0  0  0  0
    3.6832   -0.4590   -1.9079 H   0  0  0  0  0  0  0  0  0  0  0  0
    0.0663    2.9416   -0.3133 C   0  0  0  0  0  0  0  0  0  0  0  0
   -0.4081    3.8002    0.7004 C   0  0  0  0  0  0  0  0  0  0  0  0
   -1.4677    4.0987    0.7214 H   0  0  0  0  0  0  0  0  0  0  0  0
    0.4562    4.2656    1.7025 C   0  0  0  0  0  0  0  0  0  0  0  0
    0.0717    4.9366    2.4861 H   0  0  0  0  0  0  0  0  0  0  0  0
    1.8043    3.8728    1.7093 C   0  0  0  0  0  0  0  0  0  0  0  0
    2.4813    4.2353    2.4981 H   0  0  0  0  0  0  0  0  0  0  0  0
    2.2806    3.0097    0.7105 C   0  0  0  0  0  0  0  0  0  0  0  0
    3.3293    2.6767    0.7158 H   0  0  0  0  0  0  0  0  0  0  0  0
    1.4185    2.5478   -0.2949 C   0  0  0  0  0  0  0  0  0  0  0  0
    1.7736    1.8359   -1.0546 H   0  0  0  0  0  0  0  0  0  0  0  0
  1 13  1  0  0  0  0
  2 26  1  0  0  0  0
  4  3  1  0  0  0  0
  5 13  1  0  0  0  0
  6 16  1  0  0  0  0
  6 23  1  0  0  0  0
  7 26  1  0  0  0  0
  8  9  1  6  0  0  0
  8  5  1  0  0  0  0
  8 42  1  0  0  0  0
 10 11  1  0  0  0  0
 10  8  1  0  0  0  0
 10  1  1  0  0  0  0
 12 10  1  0  0  0  0
 13 14  1  1  0  0  0
 14 15  1  0  0  0  0
 14 16  2  0  0  0  0
 16 17  1  0  0  0  0
 17 19  1  0  0  0  0
 18 17  1  0  0  0  0
 20 17  1  0  0  0  0
 20 21  1  0  0  0  0
 22 20  1  0  0  0  0
 23 24  1  6  0  0  0
 23 20  1  0  0  0  0
 24 25  1  0  0  0  0
 26 24  2  0  0  0  0
 27 30  1  0  0  0  0
 27 29  1  0  0  0  0
 27  2  1  0  0  0  0
 28 27  1  0  0  0  0
 30  4  1  6  0  0  0
 30  7  1  0  0  0  0
 30 31  1  0  0  0  0
 31 32  1  0  0  0  0
 32 33  1  0  0  0  0
 32 34  2  0  0  0  0
 34 35  1  0  0  0  0
 36 37  1  0  0  0  0
 36 34  1  0  0  0  0
 38 36  2  0  0  0  0
 39 38  1  0  0  0  0
 40 31  2  0  0  0  0
 40 38  1  0  0  0  0
 41 40  1  0  0  0  0
 42 51  2  0  0  0  0
 42 43  1  0  0  0  0
 43 44  1  0  0  0  0
 43 45  2  0  0  0  0
 45 47  1  0  0  0  0
 45 46  1  0  0  0  0
 47 48  1  0  0  0  0
 49 50  1  0  0  0  0
 49 47  2  0  0  0  0
 51 49  1  0  0  0  0
 52 51  1  0  0  0  0
M  END
