2,3,5,6
q = -2.0, confidence = 0.846

 36 36  0  0  1  0  0  0  0  0999 V2000
   -0.2132    3.6537    0.0001 S   0  0  0  0  0  0  0  0  0  0  0  0
   -0.9981   -2.4491    0.0000 O   0  0  0  0  0  1  0  0  0  0  0  0
   -1.9143    0.1556    0.0002 N   0  0  0  0  0  2  0  0  0  0  0  0
   -1.8496    1.5203    0.0001 N   0  0  0  0  0  0  0  0  0  0  0  0
    0.4153    0.9784    0.0001 N   0  0  0  0  0  2  0  0  0  0  0  0
    1.3529   -1.5428    0.0004 N   0  0  0  0  0  2  0  0  0  0  0  0
    1.3019   -2.5697    0.0006 H   0  0  0  0  0  0  0  0  0  0  0  0
   -0.6056    1.9277    0.0001 C   0  0  0  0  0  0  0  0  0  0  0  0
    1.7120    1.3160   -0.0002 C   0  0  0  0  0  0  0  0  0  0  0  0
    1.9545    2.3955   -0.0005 H   0  0  0  0  0  0  0  0  0  0  0  0
    2.7922    0.4129   -0.0001 C   0  0  0  0  0  0  0  0  0  0  0  0
    2.5836   -1.0304    0.0002 C   0  0  0  0  0  0  0  0  0  0  0  0
   -2.2557   -2.7415   -0.0001 C   0  0  1  0  0  3  0  0  0  0  0  0
   -3.3029   -1.8038   -0.0002 C   0  0  0  0  0  0  0  0  0  0  0  0
   -4.3316   -2.1862   -0.0003 H   0  0  0  0  0  0  0  0  0  0  0  0
   -3.1375   -0.3999   -0.0001 C   0  0  0  0  0  0  0  0  0  0  0  0
   -1.8903    4.3490   -0.0001 C   0  0  0  0  0  0  0  0  0  0  0  0
   -1.7576    5.4474   -0.0003 H   0  0  0  0  0  0  0  0  0  0  0  0
   -2.4427    4.0270    0.9020 H   0  0  0  0  0  0  0  0  0  0  0  0
   -2.4426    4.0267   -0.9021 H   0  0  0  0  0  0  0  0  0  0  0  0
    4.1312    0.9244   -0.0004 C   0  0  0  0  0  3  0  0  0  0  0  0
    4.2659    2.0178   -0.0007 H   0  0  0  0  0  0  0  0  0  0  0  0
    5.2286    0.0866   -0.0004 C   0  0  0  0  0  0  0  0  0  0  0  0
    6.2479    0.4984   -0.0006 H   0  0  0  0  0  0  0  0  0  0  0  0
    5.0266   -1.3271   -0.0001 C   0  0  0  0  0  0  0  0  0  0  0  0
    5.8987   -1.9994   -0.0000 H   0  0  0  0  0  0  0  0  0  0  0  0
    3.7556   -1.8669    0.0002 C   0  0  0  0  0  0  0  0  0  0  0  0
    3.6099   -2.9586    0.0005 H   0  0  0  0  0  0  0  0  0  0  0  0
   -4.3413    0.5025   -0.0003 C   0  0  0  0  0  0  0  0  0  0  0  0
   -4.3230    1.1716    0.8833 H   0  0  0  0  0  0  0  0  0  0  0  0
   -5.2764   -0.0857    0.0002 H   0  0  0  0  0  0  0  0  0  0  0  0
   -4.3235    1.1705   -0.8848 H   0  0  0  0  0  0  0  0  0  0  0  0
   -2.5531   -4.2220   -0.0003 C   0  0  0  0  0  0  0  0  0  0  0  0
   -2.0901   -4.6959   -0.8904 H   0  0  0  0  0  0  0  0  0  0  0  0
   -3.6377   -4.4342   -0.0003 H   0  0  0  0  0  0  0  0  0  0  0  0
   -2.0901   -4.6961    0.8897 H   0  0  0  0  0  0  0  0  0  0  0  0
  4  3  1  0  0  0  0
  5  8  1  0  0  0  0
  6  7  1  0  0  0  0
  8  4  2  0  0  0  0
  8  1  1  0  0  0  0
  9 11  2  0  0  0  0
  9  5  1  0  0  0  0
 10  9  1  0  0  0  0
 11 12  1  0  0  0  0
 12 27  2  0  0  0  0
 12  6  1  0  0  0  0
 13  2  1  6  0  0  0
 14 13  1  0  0  0  0
 14 16  2  0  0  0  0
 15 14  1  0  0  0  0
 16  3  1  0  0  0  0
 17  1  1  0  0  0  0
 17 19  1  0  0  0  0
 18 17  1  0  0  0  0
 20 17  1  0  0  0  0
 21 23  1  0  0  0  0
 21 11  1  0  0  0  0
 22 21  1  0  0  0  0
 23 25  2  0  0  0  0
 24 23  1  0  0  0  0
 25 26  1  0  0  0  0
 25 27  1  0  0  0  0
 27 28  1  0  0  0  0
 29 16  1  0  0  0  0
 29 31  1  0  0  0  0
 29 30  1  0  0  0  0
 32 29  1  0  0  0  0
 33 35  1  0  0  0  0
 33 13  1  0  0  0  0
 33 36  1  0  0  0  0
 34 33  1  0  0  0  0
M  END
