2,4,5,8
q = -2.0, confidence = 0.802

 68 72  0  0  1  0  0  0  0  0999 V2000
    3.2164   -0.1169   -2.5386 O   0  0  0  0  0  0  0  0  0  0  0  0
    2.1970   -2.0574    0.3224 N   0  0  0  0  0  0  0  0  0  0  0  0
    2.5016   -0.5068   -1.6145 C   0  0  0  0  0  0  0  0  0  0  0  0
   -0.0330   -1.8077    1.8357 O   0  5  0  0  0  0  0  0  0  0  0  0
    1.4599    0.1597   -0.9866 N   0  0  0  0  0  2  0  0  0  0  0  0
    2.6811   -1.9270   -1.0821 C   0  0  2  0  0  0  0  0  0  0  0  0
    3.7659   -2.1641   -1.1319 H   0  0  0  0  0  0  0  0  0  0  0  0
   -0.8665    0.1565    0.4574 N   0  0  0  0  0  2  0  0  0  0  0  0
   -1.9677   -2.1359    2.9550 O   0  0  0  0  0  0  0  0  0  0  0  0
    1.8603   -2.9757   -1.8915 C   0  0  0  0  0  0  0  0  0  0  0  0
    1.2003   -2.4815   -2.6301 H   0  0  0  0  0  0  0  0  0  0  0  0
    2.5512   -3.6279   -2.4590 H   0  0  0  0  0  0  0  0  0  0  0  0
    1.0559   -3.7669   -0.8368 C   0  0  0  0  0  0  0  0  0  0  0  0
    0.0163   -3.3882   -0.7606 H   0  0  0  0  0  0  0  0  0  0  0  0
    1.0010   -4.8497   -1.0601 H   0  0  0  0  0  0  0  0  0  0  0  0
    1.7936   -3.4846    0.4649 C   0  0  0  0  0  0  0  0  0  0  0  0
    2.7177   -4.1023    0.5509 H   0  0  0  0  0  0  0  0  0  0  0  0
    1.1799   -3.5987    1.3766 H   0  0  0  0  0  0  0  0  0  0  0  0
    3.1699   -1.6455    1.3778 C   0  0  0  0  0  0  0  0  0  0  0  0
    4.1418   -2.1522    1.1808 H   0  0  0  0  0  0  0  0  0  0  0  0
    2.7614   -2.0331    2.3310 H   0  0  0  0  0  0  0  0  0  0  0  0
    3.3400   -0.1477    1.4620 C   0  0  0  0  0  0  0  0  0  0  0  0
    4.3267    0.5197    0.7158 C   0  0  0  0  0  0  0  0  0  0  0  0
    5.0403   -0.0600    0.1098 H   0  0  0  0  0  0  0  0  0  0  0  0
    4.3866    1.9229    0.7084 C   0  0  0  0  0  0  0  0  0  0  0  0
    5.1512    2.4336    0.1044 H   0  0  0  0  0  0  0  0  0  0  0  0
    3.4642    2.6695    1.4553 C   0  0  0  0  0  0  0  0  0  0  0  0
    3.4997    3.7690    1.4351 H   0  0  0  0  0  0  0  0  0  0  0  0
    2.4903    2.0102    2.2233 C   0  0  0  0  0  0  0  0  0  0  0  0
    1.7700    2.5920    2.8179 H   0  0  0  0  0  0  0  0  0  0  0  0
    2.4293    0.6099    2.2298 C   0  0  0  0  0  0  0  0  0  0  0  0
    1.6677    0.0893    2.8308 H   0  0  0  0  0  0  0  0  0  0  0  0
   -1.3107   -1.6078    2.0713 C   0  0  0  0  0  0  0  0  0  0  0  0
   -1.9490   -0.6338    1.0422 C   0  0  2  0  0  0  0  0  0  0  0  0
   -2.6739    0.0099    1.5794 H   0  0  0  0  0  0  0  0  0  0  0  0
   -2.6993   -1.4431   -0.0091 C   0  0  0  0  0  0  0  0  0  0  0  0
   -2.2499   -1.5390   -1.3403 C   0  0  0  0  0  0  0  0  0  0  0  0
   -1.3432   -0.9977   -1.6500 H   0  0  0  0  0  0  0  0  0  0  0  0
   -2.9535   -2.3216   -2.2709 C   0  0  0  0  0  0  0  0  0  0  0  0
   -2.5944   -2.3838   -3.3098 H   0  0  0  0  0  0  0  0  0  0  0  0
   -4.1062   -3.0187   -1.8802 C   0  0  0  0  0  0  0  0  0  0  0  0
   -4.6583   -3.6300   -2.6101 H   0  0  0  0  0  0  0  0  0  0  0  0
   -4.5512   -2.9321   -0.5500 C   0  0  0  0  0  0  0  0  0  0  0  0
   -5.4521   -3.4796   -0.2334 H   0  0  0  0  0  0  0  0  0  0  0  0
   -3.8533   -2.1515    0.3809 C   0  0  0  0  0  0  0  0  0  0  0  0
   -4.1804   -2.1011    1.4301 H   0  0  0  0  0  0  0  0  0  0  0  0
   -1.0606    1.3706   -0.0057 C   0  0  0  0  0  0  0  0  0  0  0  0
   -2.4104    1.9990    0.1791 C   0  0  0  0  0  0  0  0  0  0  0  0
   -3.3830    1.8981   -0.8344 C   0  0  0  0  0  0  0  0  0  0  0  0
   -3.1389    1.3703   -1.7679 H   0  0  0  0  0  0  0  0  0  0  0  0
   -4.6554    2.4574   -0.6457 C   0  0  0  0  0  0  0  0  0  0  0  0
   -5.4117    2.3693   -1.4400 H   0  0  0  0  0  0  0  0  0  0  0  0
   -4.9642    3.1233    0.5508 C   0  0  0  0  0  0  0  0  0  0  0  0
   -5.9633    3.5609    0.6964 H   0  0  0  0  0  0  0  0  0  0  0  0
   -3.9963    3.2294    1.5625 C   0  0  0  0  0  0  0  0  0  0  0  0
   -4.2334    3.7507    2.5023 H   0  0  0  0  0  0  0  0  0  0  0  0
   -2.7241    2.6675    1.3801 C   0  0  0  0  0  0  0  0  0  0  0  0
   -1.9623    2.7441    2.1712 H   0  0  0  0  0  0  0  0  0  0  0  0
   -0.0240    2.1139   -0.7059 C   0  0  0  0  0  0  0  0  0  0  0  0
    1.1823    1.5039   -1.2158 C   0  0  1  0  0  3  0  0  0  0  0  0
    2.0741    2.3447   -1.9448 C   0  0  0  0  0  0  0  0  0  0  0  0
    2.9718    1.8867   -2.3699 H   0  0  0  0  0  0  0  0  0  0  0  0
    1.8243    3.7034   -2.1229 C   0  0  0  0  0  0  0  0  0  0  0  0
    2.5582    4.3093   -2.6771 H   0  0  0  0  0  0  0  0  0  0  0  0
    0.6569    4.3008   -1.6112 C   0  0  0  0  0  0  0  0  0  0  0  0
    0.4574    5.3726   -1.7552 H   0  0  0  0  0  0  0  0  0  0  0  0
   -0.2513    3.5009   -0.9274 C   0  0  0  0  0  0  0  0  0  0  0  0
   -1.1768    3.9434   -0.5341 H   0  0  0  0  0  0  0  0  0  0  0  0
  1  3  2  0  0  0  0
  2 16  1  0  0  0  0
  2 19  1  0  0  0  0
  3  6  1  0  0  0  0
  3  5  1  0  0  0  0
  4 33  1  0  0  0  0
  6  7  1  6  0  0  0
  6  2  1  0  0  0  0
  8 34  1  0  0  0  0
 10  6  1  0  0  0  0
 10 13  1  0  0  0  0
 11 10  1  0  0  0  0
 12 10  1  0  0  0  0
 13 14  1  0  0  0  0
 13 16  1  0  0  0  0
 15 13  1  0  0  0  0
 16 17  1  0  0  0  0
 16 18  1  0  0  0  0
 19 22  1  0  0  0  0
 19 21  1  0  0  0  0
 20 19  1  0  0  0  0
 22 31  1  0  0  0  0
 23 22  2  0  0  0  0
 24 23  1  0  0  0  0
 25 23  1  0  0  0  0
 25 27  2  0  0  0  0
 26 25  1  0  0  0  0
 27 29  1  0  0  0  0
 28 27  1  0  0  0  0
 29 31  2  0  0  0  0
 29 30  1  0  0  0  0
 31 32  1  0  0  0  0
 33  9  2  0  0  0  0
 34 35  1  1  0  0  0
 34 33  1  0  0  0  0
 36 45  1  0  0  0  0
 36 34  1  0  0  0  0
 37 36  2  0  0  0  0
 38 37  1  0  0  0  0
 39 41  2  0  0  0  0
 39 37  1  0  0  0  0
 40 39  1  0  0  0  0
 41 43  1  0  0  0  0
 42 41  1  0  0  0  0
 43 44  1  0  0  0  0
 43 45  2  0  0  0  0
 45 46  1  0  0  0  0
 47 48  1  0  0  0  0
 47  8  1  0  0  0  0
 48 57  1  0  0  0  0
 49 51  1  0  0  0  0
 49 48  2  0  0  0  0
 50 49  1  0  0  0  0
 51 53  2  0  0  0  0
 52 51  1  0  0  0  0
 53 54  1  0  0  0  0
 53 55  1  0  0  0  0
 55 56  1  0  0  0  0
 57 55  2  0  0  0  0
 57 58  1  0  0  0  0
 59 47  2  0  0  0  0
 60  5  1  1  0  0  0
 60 59  1  0  0  0  0
 61 60  1  0  0  0  0
 62 61  1  0  0  0  0
 63 61  2  0  0  0  0
 63 65  1  0  0  0  0
 64 63  1  0  0  0  0
 65 67  2  0  0  0  0
 66 65  1  0  0  0  0
 67 59  1  0  0  0  0
 67 68  1  0  0  0  0
M  CHG  1   4  -1
M  END
