2,3,4,5
q = -1.0, confidence = 0.034

 35 36  0  0  1  0  0  0  0  0999 V2000
   -5.4744    0.2120    0.0654 Br  0  0  0  0  0  0  0  0  0  0  0  0
    0.3900   -1.3043   -0.1395 O   0  0  0  0  0  1  0  0  0  0  0  0
    0.9689    1.3779   -0.0731 N   0  0  0  0  0  2  0  0  0  0  0  0
    3.4960    0.7122    0.1924 N   0  0  0  0  0  0  0  0  0  0  0  0
    3.1755   -1.6469   -0.1158 N   0  0  0  0  0  0  0  0  0  0  0  0
    2.8193   -2.6041   -0.2460 H   0  0  0  0  0  0  0  0  0  0  0  0
   -1.2833    0.4725   -0.0559 C   0  0  0  0  0  0  0  0  0  0  0  0
   -0.8636   -0.9103   -0.0862 C   0  0  1  0  0  3  0  0  0  0  0  0
   -1.8786   -1.9097   -0.0688 C   0  0  0  0  0  0  0  0  0  0  0  0
   -1.5609   -2.9615   -0.0936 H   0  0  0  0  0  0  0  0  0  0  0  0
   -3.2250   -1.5736   -0.0232 C   0  0  0  0  0  0  0  0  0  0  0  0
   -3.9887   -2.3648   -0.0105 H   0  0  0  0  0  0  0  0  0  0  0  0
   -3.6290   -0.2127    0.0052 C   0  0  0  0  0  0  0  0  0  0  0  0
   -2.6742    0.7923   -0.0138 C   0  0  0  0  0  0  0  0  0  0  0  0
   -2.9821    1.8481    0.0042 H   0  0  0  0  0  0  0  0  0  0  0  0
   -0.3367    1.5390   -0.0987 C   0  0  0  0  0  0  0  0  0  0  0  0
   -0.7287    2.5727   -0.1684 H   0  0  0  0  0  0  0  0  0  0  0  0
    1.8985    2.4896   -0.3159 C   0  0  0  0  0  0  0  0  0  0  0  0
    1.4870    3.4588    0.0392 H   0  0  0  0  0  0  0  0  0  0  0  0
    2.0640    2.5951   -1.4118 H   0  0  0  0  0  0  0  0  0  0  0  0
    3.2073    2.1597    0.3998 C   0  0  0  0  0  0  0  0  0  0  0  0
    4.0519    2.7941    0.0576 H   0  0  0  0  0  0  0  0  0  0  0  0
    3.0860    2.3087    1.4900 H   0  0  0  0  0  0  0  0  0  0  0  0
    4.1871    0.3493   -1.0764 C   0  0  0  0  0  0  0  0  0  0  0  0
    5.2647    0.6198   -1.0131 H   0  0  0  0  0  0  0  0  0  0  0  0
    3.7397    0.9306   -1.9041 H   0  0  0  0  0  0  0  0  0  0  0  0
    3.9705   -1.1771   -1.2794 C   0  0  0  0  0  0  0  0  0  0  0  0
    3.3983   -1.3815   -2.2032 H   0  0  0  0  0  0  0  0  0  0  0  0
    4.9366   -1.7243   -1.3433 H   0  0  0  0  0  0  0  0  0  0  0  0
    4.1633    0.0261    1.3342 C   0  0  0  0  0  0  0  0  0  0  0  0
    3.6853    0.3710    2.2695 H   0  0  0  0  0  0  0  0  0  0  0  0
    5.2384    0.3087    1.3733 H   0  0  0  0  0  0  0  0  0  0  0  0
    3.9577   -1.4985    1.1338 C   0  0  0  0  0  0  0  0  0  0  0  0
    4.9245   -2.0432    1.0640 H   0  0  0  0  0  0  0  0  0  0  0  0
    3.3766   -1.9344    1.9675 H   0  0  0  0  0  0  0  0  0  0  0  0
  4 21  1  0  0  0  0
  4 30  1  0  0  0  0
  5 33  1  0  0  0  0
  6  5  1  0  0  0  0
  7 14  1  0  0  0  0
  8  2  1  6  0  0  0
  8  9  1  0  0  0  0
  8  7  1  0  0  0  0
  9 11  2  0  0  0  0
 10  9  1  0  0  0  0
 11 12  1  0  0  0  0
 11 13  1  0  0  0  0
 13  1  1  0  0  0  0
 14 15  1  0  0  0  0
 14 13  2  0  0  0  0
 16  3  1  0  0  0  0
 16  7  2  0  0  0  0
 17 16  1  0  0  0  0
 18  3  1  0  0  0  0
 18 19  1  0  0  0  0
 18 21  1  0  0  0  0
 20 18  1  0  0  0  0
 21 23  1  0  0  0  0
 22 21  1  0  0  0  0
 24 25  1  0  0  0  0
 24  4  1  0  0  0  0
 26 24  1  0  0  0  0
 27 24  1  0  0  0  0
 27  5  1  0  0  0  0
 28 27  1  0  0  0  0
 29 27  1  0  0  0  0
 30 32  1  0  0  0  0
 30 31  1  0  0  0  0
 33 30  1  0  0  0  0
 33 35  1  0  0  0  0
 34 33  1  0  0  0  0
M  END
