54,55,56,57
q = -1.0, confidence = 0.028

 57 57  0  0  0  0  0  0  0  0999 V2000
    2.1692   -0.9954   -0.7025 C   0  0  0  0  0  0  0  0  0  0  0  0
    3.3663   -0.7170   -1.4054 C   0  0  0  0  0  0  0  0  0  0  0  0
    3.2914   -0.4710   -2.4753 H   0  0  0  0  0  0  0  0  0  0  0  0
    4.6080   -0.7557   -0.7599 C   0  0  0  0  0  0  0  0  0  0  0  0
    5.5224   -0.5343   -1.3314 H   0  0  0  0  0  0  0  0  0  0  0  0
    4.6940   -1.0748    0.6062 C   0  0  0  0  0  0  0  0  0  0  0  0
    5.6683   -1.1058    1.1141 H   0  0  0  0  0  0  0  0  0  0  0  0
    3.5192   -1.3730    1.3097 C   0  0  0  0  0  0  0  0  0  0  0  0
    3.5759   -1.6515    2.3749 H   0  0  0  0  0  0  0  0  0  0  0  0
    2.2574   -1.3477    0.6822 C   0  0  0  0  0  0  0  0  0  0  0  0
    1.0194   -1.7495    1.4415 C   0  0  0  0  0  0  0  0  0  0  0  0
    1.2955   -2.1409    2.4469 H   0  0  0  0  0  0  0  0  0  0  0  0
    0.5029   -2.5684    0.8988 H   0  0  0  0  0  0  0  0  0  0  0  0
   -1.2659   -1.1263    2.1584 C   0  0  0  0  0  0  0  0  0  0  0  0
   -1.8106   -0.2549    2.5748 H   0  0  0  0  0  0  0  0  0  0  0  0
   -1.0936   -1.8230    3.0107 H   0  0  0  0  0  0  0  0  0  0  0  0
   -2.1215   -1.8283    1.1026 C   0  0  0  0  0  0  0  0  0  0  0  0
   -1.6126   -2.7518    0.7720 H   0  0  0  0  0  0  0  0  0  0  0  0
   -3.0850   -2.1471    1.5543 H   0  0  0  0  0  0  0  0  0  0  0  0
    0.5475    0.5307    2.3085 C   0  0  0  0  0  0  0  0  0  0  0  0
    1.6407    0.5557    2.1335 H   0  0  0  0  0  0  0  0  0  0  0  0
    0.4029    0.4502    3.4093 H   0  0  0  0  0  0  0  0  0  0  0  0
   -0.1041    1.8203    1.8031 C   0  0  0  0  0  0  0  0  0  0  0  0
   -1.1844    1.8334    2.0600 H   0  0  0  0  0  0  0  0  0  0  0  0
    0.3564    2.6874    2.3256 H   0  0  0  0  0  0  0  0  0  0  0  0
    1.4250    2.2815   -0.0431 C   0  0  0  0  0  0  0  0  0  0  0  0
    2.0466    1.4340    0.3054 H   0  0  0  0  0  0  0  0  0  0  0  0
    1.7519    3.1767    0.5321 H   0  0  0  0  0  0  0  0  0  0  0  0
    1.6688    2.4841   -1.5295 C   0  0  0  0  0  0  0  0  0  0  0  0
    1.3126    1.6095   -2.1045 H   0  0  0  0  0  0  0  0  0  0  0  0
    2.7580    2.5679   -1.7054 H   0  0  0  0  0  0  0  0  0  0  0  0
    1.1943    3.4023   -1.9283 H   0  0  0  0  0  0  0  0  0  0  0  0
   -0.9621    2.9856   -0.1909 C   0  0  0  0  0  0  0  0  0  0  0  0
   -1.9708    2.6521    0.1269 H   0  0  0  0  0  0  0  0  0  0  0  0
   -0.9481    2.9130   -1.2962 H   0  0  0  0  0  0  0  0  0  0  0  0
   -0.7302    4.4288    0.2475 C   0  0  0  0  0  0  0  0  0  0  0  0
   -0.7696    4.5486    1.3482 H   0  0  0  0  0  0  0  0  0  0  0  0
   -1.5266    5.0699   -0.1785 H   0  0  0  0  0  0  0  0  0  0  0  0
    0.2379    4.8307   -0.1098 H   0  0  0  0  0  0  0  0  0  0  0  0
   -2.7227   -1.8128   -1.2982 C   0  0  0  0  0  0  0  0  0  0  0  0
   -3.7038   -2.2985   -1.1053 H   0  0  0  0  0  0  0  0  0  0  0  0
   -2.8632   -1.0905   -2.1256 H   0  0  0  0  0  0  0  0  0  0  0  0
   -1.6949   -2.8612   -1.7062 C   0  0  0  0  0  0  0  0  0  0  0  0
   -0.6704   -2.4420   -1.7753 H   0  0  0  0  0  0  0  0  0  0  0  0
   -1.9692   -3.2558   -2.7038 H   0  0  0  0  0  0  0  0  0  0  0  0
   -1.6701   -3.7318   -1.0211 H   0  0  0  0  0  0  0  0  0  0  0  0
   -3.3499    0.0951    0.1276 C   0  0  0  0  0  0  0  0  0  0  0  0
   -3.3267    0.7359   -0.7782 H   0  0  0  0  0  0  0  0  0  0  0  0
   -2.9748    0.7178    0.9665 H   0  0  0  0  0  0  0  0  0  0  0  0
   -4.7867   -0.3338    0.4198 C   0  0  0  0  0  0  0  0  0  0  0  0
   -5.2488   -0.8747   -0.4278 H   0  0  0  0  0  0  0  0  0  0  0  0
   -5.3994    0.5707    0.6023 H   0  0  0  0  0  0  0  0  0  0  0  0
   -4.8705   -0.9682    1.3242 H   0  0  0  0  0  0  0  0  0  0  0  0
    0.0149   -0.6475    1.5996 N   0  0  0  0  0  0  0  0  0  0  0  0
    0.0043    1.9690    0.3260 N   0  0  0  0  0  0  0  0  0  0  0  0
   -2.3420   -0.9882   -0.1044 N   0  0  0  0  0  0  0  0  0  0  0  0
    0.9828   -0.9154   -1.3234 O   0  5  0  0  0  0  0  0  0  0  0  0
  1 10  1  0  0  0  0
  2  4  1  0  0  0  0
  2  1  2  0  0  0  0
  3  2  1  0  0  0  0
  4  6  2  0  0  0  0
  5  4  1  0  0  0  0
  6  7  1  0  0  0  0
  6  8  1  0  0  0  0
  8  9  1  0  0  0  0
 10  8  2  0  0  0  0
 10 11  1  0  0  0  0
 11 54  1  0  0  0  0
 11 12  1  0  0  0  0
 13 11  1  0  0  0  0
 14 15  1  0  0  0  0
 14 16  1  0  0  0  0
 17 19  1  0  0  0  0
 17 14  1  0  0  0  0
 18 17  1  0  0  0  0
 20 22  1  0  0  0  0
 21 20  1  0  0  0  0
 23 24  1  0  0  0  0
 23 20  1  0  0  0  0
 23 25  1  0  0  0  0
 26 27  1  0  0  0  0
 26 55  1  0  0  0  0
 26 28  1  0  0  0  0
 29 26  1  0  0  0  0
 30 29  1  0  0  0  0
 31 29  1  0  0  0  0
 32 29  1  0  0  0  0
 33 34  1  0  0  0  0
 33 36  1  0  0  0  0
 33 55  1  0  0  0  0
 35 33  1  0  0  0  0
 36 37  1  0  0  0  0
 38 36  1  0  0  0  0
 39 36  1  0  0  0  0
 40 41  1  0  0  0  0
 40 56  1  0  0  0  0
 42 40  1  0  0  0  0
 43 40  1  0  0  0  0
 43 46  1  0  0  0  0
 44 43  1  0  0  0  0
 45 43  1  0  0  0  0
 47 50  1  0  0  0  0
 47 49  1  0  0  0  0
 48 47  1  0  0  0  0
 50 52  1  0  0  0  0
 50 53  1  0  0  0  0
 51 50  1  0  0  0  0
 54 14  1  0  0  0  0
 54 20  1  0  0  0  0
 55 23  1  0  0  0  0
 56 47  1  0  0  0  0
 56 17  1  0  0  0  0
 57  1  1  0  0  0  0
M  CHG  1  57  -1
M  END
