1,2,3,4
q = -1.0

 67 68  0  0  1  0  0  0  0  0999 V2000
    0.2630    0.3830   -0.6259 O   0  5  0  0  0  0  0  0  0  0  0  0
    0.1683   -2.5689   -0.1907 N   0  0  0  0  0  0  0  0  0  0  0  0
    2.8182   -1.4837   -0.9293 N   0  0  0  0  0  0  0  0  0  0  0  0
    2.9770    0.9782    0.2544 N   0  0  0  0  0  2  0  0  0  0  0  0
   -3.0767   -1.1426   -0.6235 C   0  0  0  0  0  0  0  0  0  0  0  0
   -3.5025   -2.1363   -0.8313 H   0  0  0  0  0  0  0  0  0  0  0  0
   -1.8889    1.3857   -0.1251 C   0  0  0  0  0  0  0  0  0  0  0  0
   -1.6870   -0.9828   -0.7484 C   0  0  0  0  0  0  0  0  0  0  0  0
   -3.2725    1.1713   -0.0227 C   0  0  0  0  0  0  0  0  0  0  0  0
   -3.9064    2.0211    0.2671 H   0  0  0  0  0  0  0  0  0  0  0  0
   -1.0558    0.2742   -0.4983 C   0  0  0  0  0  0  0  0  0  0  0  0
   -1.2588    2.7557    0.1895 C   0  0  0  0  0  0  0  0  0  0  0  0
   -3.9054   -0.0704   -0.2576 C   0  0  0  0  0  0  0  0  0  0  0  0
    1.2286   -3.3993   -0.7630 C   0  0  0  0  0  0  0  0  0  0  0  0
    0.8161   -4.2549   -1.3572 H   0  0  0  0  0  0  0  0  0  0  0  0
    1.7979   -3.8481    0.0782 H   0  0  0  0  0  0  0  0  0  0  0  0
   -0.8078   -2.1108   -1.2115 C   0  0  0  0  0  0  0  0  0  0  0  0
   -1.4269   -2.9775   -1.5525 H   0  0  0  0  0  0  0  0  0  0  0  0
   -0.2252   -1.7526   -2.0840 H   0  0  0  0  0  0  0  0  0  0  0  0
    2.1751   -2.5942   -1.6546 C   0  0  0  0  0  0  0  0  0  0  0  0
    2.9368   -3.2761   -2.1012 H   0  0  0  0  0  0  0  0  0  0  0  0
    1.6085   -2.1654   -2.5031 H   0  0  0  0  0  0  0  0  0  0  0  0
   -0.3369    2.6025    1.4216 C   0  0  0  0  0  0  0  0  0  0  0  0
    0.1779    3.5608    1.6484 H   0  0  0  0  0  0  0  0  0  0  0  0
    0.4282    1.8281    1.2333 H   0  0  0  0  0  0  0  0  0  0  0  0
   -0.9215    2.3034    2.3153 H   0  0  0  0  0  0  0  0  0  0  0  0
   -0.4353    3.2519   -1.0220 C   0  0  0  0  0  0  0  0  0  0  0  0
   -1.0914    3.3977   -1.9048 H   0  0  0  0  0  0  0  0  0  0  0  0
    0.3458    2.5137   -1.2812 H   0  0  0  0  0  0  0  0  0  0  0  0
    0.0469    4.2253   -0.7885 H   0  0  0  0  0  0  0  0  0  0  0  0
    3.4169    0.9233   -1.0138 C   0  0  2  0  0  3  0  0  0  0  0  0
   -2.3130    3.8280    0.5161 C   0  0  0  0  0  0  0  0  0  0  0  0
   -3.0121    3.9923   -0.3293 H   0  0  0  0  0  0  0  0  0  0  0  0
   -1.8072    4.7930    0.7245 H   0  0  0  0  0  0  0  0  0  0  0  0
   -2.9117    3.5670    1.4125 H   0  0  0  0  0  0  0  0  0  0  0  0
   -0.5102   -3.2400    0.9167 C   0  0  0  0  0  0  0  0  0  0  0  0
   -1.0045   -4.1888    0.5905 H   0  0  0  0  0  0  0  0  0  0  0  0
   -1.2864   -2.5666    1.3268 H   0  0  0  0  0  0  0  0  0  0  0  0
    0.2142   -3.4689    1.7219 H   0  0  0  0  0  0  0  0  0  0  0  0
   -5.4318   -0.1937   -0.1057 C   0  0  0  0  0  0  0  0  0  0  0  0
    4.1279    1.9860   -1.5982 C   0  0  0  0  0  0  0  0  0  0  0  0
    4.4844    1.9094   -2.6364 H   0  0  0  0  0  0  0  0  0  0  0  0
    4.0423   -1.9219   -0.2498 C   0  0  0  0  0  0  0  0  0  0  0  0
    4.8318   -2.2275   -0.9785 H   0  0  0  0  0  0  0  0  0  0  0  0
    3.8166   -2.7795    0.4112 H   0  0  0  0  0  0  0  0  0  0  0  0
    4.4331   -1.1080    0.3879 H   0  0  0  0  0  0  0  0  0  0  0  0
    3.0438   -0.3194   -1.7943 C   0  0  0  0  0  0  0  0  0  0  0  0
    2.0764   -0.0979   -2.2949 H   0  0  0  0  0  0  0  0  0  0  0  0
    3.8111   -0.5219   -2.5813 H   0  0  0  0  0  0  0  0  0  0  0  0
    4.3625    3.1380   -0.8356 C   0  0  0  0  0  0  0  0  0  0  0  0
    4.9080    3.9897   -1.2696 H   0  0  0  0  0  0  0  0  0  0  0  0
    3.8985    3.1873    0.4875 C   0  0  0  0  0  0  0  0  0  0  0  0
    4.0660    4.0701    1.1210 H   0  0  0  0  0  0  0  0  0  0  0  0
   -5.8367    0.1652    1.3424 C   0  0  0  0  0  0  0  0  0  0  0  0
   -6.9372    0.0932    1.4742 H   0  0  0  0  0  0  0  0  0  0  0  0
   -5.5318    1.1972    1.6071 H   0  0  0  0  0  0  0  0  0  0  0  0
   -5.3551   -0.5223    2.0670 H   0  0  0  0  0  0  0  0  0  0  0  0
   -6.1293    0.7762   -1.0865 C   0  0  0  0  0  0  0  0  0  0  0  0
   -7.2336    0.7127   -0.9863 H   0  0  0  0  0  0  0  0  0  0  0  0
   -5.8619    0.5345   -2.1352 H   0  0  0  0  0  0  0  0  0  0  0  0
   -5.8333    1.8277   -0.8996 H   0  0  0  0  0  0  0  0  0  0  0  0
    3.2122    2.0739    0.9911 C   0  0  0  0  0  0  0  0  0  0  0  0
    2.8261    2.0541    2.0237 H   0  0  0  0  0  0  0  0  0  0  0  0
   -5.9278   -1.6190   -0.4042 C   0  0  0  0  0  0  0  0  0  0  0  0
   -5.4804   -2.3622    0.2867 H   0  0  0  0  0  0  0  0  0  0  0  0
   -5.6888   -1.9278   -1.4420 H   0  0  0  0  0  0  0  0  0  0  0  0
   -7.0293   -1.6707   -0.2843 H   0  0  0  0  0  0  0  0  0  0  0  0
  1 11  1  0  0  0  0
  2 36  1  0  0  0  0
  3 43  1  0  0  0  0
  4 62  1  0  0  0  0
  5 13  1  0  0  0  0
  6  5  1  0  0  0  0
  7  9  1  0  0  0  0
  7 12  1  0  0  0  0
  8  5  2  0  0  0  0
  8 11  1  0  0  0  0
  9 10  1  0  0  0  0
 11  7  2  0  0  0  0
 12 32  1  0  0  0  0
 12 23  1  0  0  0  0
 13 40  1  0  0  0  0
 13  9  2  0  0  0  0
 14  2  1  0  0  0  0
 14 16  1  0  0  0  0
 15 14  1  0  0  0  0
 17  8  1  0  0  0  0
 17  2  1  0  0  0  0
 18 17  1  0  0  0  0
 19 17  1  0  0  0  0
 20  3  1  0  0  0  0
 20 14  1  0  0  0  0
 21 20  1  0  0  0  0
 22 20  1  0  0  0  0
 23 24  1  0  0  0  0
 23 26  1  0  0  0  0
 25 23  1  0  0  0  0
 27 30  1  0  0  0  0
 27 12  1  0  0  0  0
 28 27  1  0  0  0  0
 29 27  1  0  0  0  0
 31 47  1  6  0  0  0
 31  4  1  0  0  0  0
 32 34  1  0  0  0  0
 32 35  1  0  0  0  0
 33 32  1  0  0  0  0
 36 38  1  0  0  0  0
 36 39  1  0  0  0  0
 37 36  1  0  0  0  0
 40 54  1  0  0  0  0
 41 31  1  0  0  0  0
 41 50  2  0  0  0  0
 42 41  1  0  0  0  0
 43 46  1  0  0  0  0
 43 45  1  0  0  0  0
 44 43  1  0  0  0  0
 47  3  1  0  0  0  0
 48 47  1  0  0  0  0
 49 47  1  0  0  0  0
 50 52  1  0  0  0  0
 51 50  1  0  0  0  0
 52 62  2  0  0  0  0
 52 53  1  0  0  0  0
 54 55  1  0  0  0  0
 54 56  1  0  0  0  0
 54 57  1  0  0  0  0
 58 59  1  0  0  0  0
 58 61  1  0  0  0  0
 58 40  1  0  0  0  0
 60 58  1  0  0  0  0
 62 63  1  0  0  0  0
 64 67  1  0  0  0  0
 64 40  1  0  0  0  0
 64 65  1  0  0  0  0
 66 64  1  0  0  0  0
M  CHG  1   1  -1
M  END
