1,2,3,4
q = -1.0

 75 78  0  0  1  0  0  0  0  0999 V2000
   -0.2595    1.0845   -0.4503 O   0  5  0  0  0  0  0  0  0  0  0  0
    0.2788   -1.8612    0.1151 N   0  0  0  0  0  0  0  0  0  0  0  0
    2.9139   -0.9428   -0.5019 N   0  0  0  0  0  0  0  0  0  0  0  0
    2.5859    1.7213   -0.1466 N   0  0  0  0  0  2  0  0  0  0  0  0
    2.7843   -2.3196    0.0210 C   0  0  2  0  0  0  0  0  0  0  0  0
    2.9959   -2.2863    1.1077 H   0  0  0  0  0  0  0  0  0  0  0  0
   -3.9120    0.9817   -0.1303 C   0  0  0  0  0  0  0  0  0  0  0  0
   -4.7431    1.6563    0.1063 H   0  0  0  0  0  0  0  0  0  0  0  0
   -3.1155   -1.2036   -0.7064 C   0  0  0  0  0  0  0  0  0  0  0  0
   -3.2822   -2.2691   -0.9401 H   0  0  0  0  0  0  0  0  0  0  0  0
   -4.2079   -0.3658   -0.4209 C   0  0  0  0  0  0  0  0  0  0  0  0
    3.8613    1.2914   -0.1931 C   0  0  1  0  0  3  0  0  0  0  0  0
    3.3009    3.9705   -0.5627 C   0  0  0  0  0  0  0  0  0  0  0  0
    3.0355    5.0273   -0.7082 H   0  0  0  0  0  0  0  0  0  0  0  0
    3.8083   -3.1402   -0.7940 C   0  0  0  0  0  0  0  0  0  0  0  0
    3.5199   -4.2069   -0.8715 H   0  0  0  0  0  0  0  0  0  0  0  0
    4.7990   -3.1136   -0.2986 H   0  0  0  0  0  0  0  0  0  0  0  0
   -1.5104    0.6441   -0.4185 C   0  0  0  0  0  0  0  0  0  0  0  0
    4.6345    3.5386   -0.6143 C   0  0  0  0  0  0  0  0  0  0  0  0
    5.4473    4.2564   -0.8025 H   0  0  0  0  0  0  0  0  0  0  0  0
   -2.6104    1.5148   -0.1157 C   0  0  0  0  0  0  0  0  0  0  0  0
    4.9225    2.1775   -0.4323 C   0  0  0  0  0  0  0  0  0  0  0  0
    5.9563    1.8029   -0.4746 H   0  0  0  0  0  0  0  0  0  0  0  0
    4.0417   -0.1885    0.0742 C   0  0  0  0  0  0  0  0  0  0  0  0
    5.0366   -0.5326   -0.2886 H   0  0  0  0  0  0  0  0  0  0  0  0
    3.9885   -0.3283    1.1781 H   0  0  0  0  0  0  0  0  0  0  0  0
    1.3430   -2.8685   -0.1803 C   0  0  1  0  0  0  0  0  0  0  0  0
    1.2346   -3.1930   -1.2374 H   0  0  0  0  0  0  0  0  0  0  0  0
   -1.7969   -0.7271   -0.7095 C   0  0  0  0  0  0  0  0  0  0  0  0
    1.0782   -4.0344    0.7910 C   0  0  0  0  0  0  0  0  0  0  0  0
    0.3351   -4.7321    0.3519 H   0  0  0  0  0  0  0  0  0  0  0  0
    1.9917   -4.6209    1.0152 H   0  0  0  0  0  0  0  0  0  0  0  0
   -0.6529   -1.6480   -1.0333 C   0  0  0  0  0  0  0  0  0  0  0  0
   -0.0500   -1.2195   -1.8639 H   0  0  0  0  0  0  0  0  0  0  0  0
   -1.0529   -2.6328   -1.3744 H   0  0  0  0  0  0  0  0  0  0  0  0
   -2.3468    2.9903    0.2373 C   0  0  0  0  0  0  0  0  0  0  0  0
   -1.6440    3.6850   -0.9531 C   0  0  0  0  0  0  0  0  0  0  0  0
   -1.3726    4.7300   -0.6904 H   0  0  0  0  0  0  0  0  0  0  0  0
   -2.3158    3.7185   -1.8353 H   0  0  0  0  0  0  0  0  0  0  0  0
   -0.7315    3.1298   -1.2394 H   0  0  0  0  0  0  0  0  0  0  0  0
   -1.4589    3.0582    1.5035 C   0  0  0  0  0  0  0  0  0  0  0  0
   -1.9980    2.6382    2.3769 H   0  0  0  0  0  0  0  0  0  0  0  0
   -1.1956    4.1112    1.7402 H   0  0  0  0  0  0  0  0  0  0  0  0
   -0.5267    2.4783    1.3732 H   0  0  0  0  0  0  0  0  0  0  0  0
    3.0446   -1.1165   -1.9684 C   0  0  0  0  0  0  0  0  0  0  0  0
    3.5118   -0.2185   -2.4152 H   0  0  0  0  0  0  0  0  0  0  0  0
    2.0305   -1.2023   -2.4060 H   0  0  0  0  0  0  0  0  0  0  0  0
    3.8551   -2.4257   -2.1724 C   0  0  0  0  0  0  0  0  0  0  0  0
    3.4096   -3.0405   -2.9787 H   0  0  0  0  0  0  0  0  0  0  0  0
    4.8989   -2.2154   -2.4771 H   0  0  0  0  0  0  0  0  0  0  0  0
    2.2983    3.0191   -0.3276 C   0  0  0  0  0  0  0  0  0  0  0  0
    1.2290    3.2812   -0.2852 H   0  0  0  0  0  0  0  0  0  0  0  0
   -0.4414   -2.2945    1.3544 C   0  0  0  0  0  0  0  0  0  0  0  0
   -0.6438   -1.4215    2.0038 H   0  0  0  0  0  0  0  0  0  0  0  0
   -1.4150   -2.7538    1.0745 H   0  0  0  0  0  0  0  0  0  0  0  0
   -3.6424    3.7667    0.5328 C   0  0  0  0  0  0  0  0  0  0  0  0
   -4.1922    3.3448    1.3986 H   0  0  0  0  0  0  0  0  0  0  0  0
   -4.3283    3.7790   -0.3388 H   0  0  0  0  0  0  0  0  0  0  0  0
   -3.3949    4.8200    0.7776 H   0  0  0  0  0  0  0  0  0  0  0  0
   -5.6397   -0.9311   -0.4250 C   0  0  0  0  0  0  0  0  0  0  0  0
   -5.7489   -2.0621    0.6232 C   0  0  0  0  0  0  0  0  0  0  0  0
   -5.0385   -2.8860    0.4102 H   0  0  0  0  0  0  0  0  0  0  0  0
   -6.7723   -2.4936    0.6345 H   0  0  0  0  0  0  0  0  0  0  0  0
   -5.5233   -1.6790    1.6391 H   0  0  0  0  0  0  0  0  0  0  0  0
   -5.9662   -1.4988   -1.8250 C   0  0  0  0  0  0  0  0  0  0  0  0
   -5.2606   -2.3033   -2.1140 H   0  0  0  0  0  0  0  0  0  0  0  0
   -5.9023   -0.7043   -2.5959 H   0  0  0  0  0  0  0  0  0  0  0  0
   -6.9919   -1.9244   -1.8496 H   0  0  0  0  0  0  0  0  0  0  0  0
    0.4808   -3.3184    2.0076 C   0  0  0  0  0  0  0  0  0  0  0  0
   -0.0595   -3.9958    2.6966 H   0  0  0  0  0  0  0  0  0  0  0  0
    1.2619   -2.7842    2.5871 H   0  0  0  0  0  0  0  0  0  0  0  0
   -6.6884    0.1420   -0.0846 C   0  0  0  0  0  0  0  0  0  0  0  0
   -7.7040   -0.3037   -0.0993 H   0  0  0  0  0  0  0  0  0  0  0  0
   -6.6768    0.9746   -0.8165 H   0  0  0  0  0  0  0  0  0  0  0  0
   -6.5252    0.5708    0.9247 H   0  0  0  0  0  0  0  0  0  0  0  0
  1 18  1  0  0  0  0
  2 53  1  0  0  0  0
  3  5  1  0  0  0  0
  3 24  1  0  0  0  0
  5  6  1  1  0  0  0
  7 21  1  0  0  0  0
  7  8  1  0  0  0  0
  9 11  1  0  0  0  0
 10  9  1  0  0  0  0
 11  7  2  0  0  0  0
 12  4  1  0  0  0  0
 12 24  1  1  0  0  0
 13 51  2  0  0  0  0
 14 13  1  0  0  0  0
 15 17  1  0  0  0  0
 15  5  1  0  0  0  0
 16 15  1  0  0  0  0
 18 21  2  0  0  0  0
 19 13  1  0  0  0  0
 19 22  2  0  0  0  0
 20 19  1  0  0  0  0
 21 36  1  0  0  0  0
 22 12  1  0  0  0  0
 23 22  1  0  0  0  0
 24 26  1  0  0  0  0
 25 24  1  0  0  0  0
 27 28  1  6  0  0  0
 27  5  1  0  0  0  0
 27  2  1  0  0  0  0
 27 30  1  0  0  0  0
 29  9  2  0  0  0  0
 29 18  1  0  0  0  0
 30 32  1  0  0  0  0
 30 69  1  0  0  0  0
 31 30  1  0  0  0  0
 33 29  1  0  0  0  0
 33  2  1  0  0  0  0
 34 33  1  0  0  0  0
 35 33  1  0  0  0  0
 36 56  1  0  0  0  0
 36 41  1  0  0  0  0
 37 38  1  0  0  0  0
 37 36  1  0  0  0  0
 39 37  1  0  0  0  0
 40 37  1  0  0  0  0
 41 43  1  0  0  0  0
 41 42  1  0  0  0  0
 44 41  1  0  0  0  0
 45  3  1  0  0  0  0
 46 45  1  0  0  0  0
 47 45  1  0  0  0  0
 48 45  1  0  0  0  0
 48 15  1  0  0  0  0
 49 48  1  0  0  0  0
 50 48  1  0  0  0  0
 51 52  1  0  0  0  0
 51  4  1  0  0  0  0
 53 54  1  0  0  0  0
 53 69  1  0  0  0  0
 55 53  1  0  0  0  0
 56 59  1  0  0  0  0
 56 57  1  0  0  0  0
 58 56  1  0  0  0  0
 60 11  1  0  0  0  0
 60 72  1  0  0  0  0
 60 61  1  0  0  0  0
 61 63  1  0  0  0  0
 61 64  1  0  0  0  0
 62 61  1  0  0  0  0
 65 60  1  0  0  0  0
 66 65  1  0  0  0  0
 67 65  1  0  0  0  0
 68 65  1  0  0  0  0
 69 71  1  0  0  0  0
 69 70  1  0  0  0  0
 72 75  1  0  0  0  0
 73 72  1  0  0  0  0
 74 72  1  0  0  0  0
M  CHG  1   1  -1
M  END
