1,2,3,4
q = -2.0, confidence = 0.828

 66 68  0  0  1  0  0  0  0  0999 V2000
   -1.0229   -1.6348   -1.6702 O   0  5  0  0  0  0  0  0  0  0  0  0
   -0.9769    1.3039    0.5968 N   0  0  0  0  0  2  0  0  0  0  0  0
    0.8989   -0.2984   -0.6193 N   0  0  0  0  0  2  0  0  0  0  0  0
   -2.8279    0.0900   -0.7790 N   0  0  0  0  0  0  0  0  0  0  0  0
   -3.2735    0.4753    0.5819 C   0  0  2  0  0  0  0  0  0  0  0  0
   -2.5158    2.0643    2.2083 O   0  0  0  0  0  0  0  0  0  0  0  0
   -2.9928    2.4308   -1.6617 C   0  0  0  0  0  0  0  0  0  0  0  0
    0.2175   -3.4022   -2.3183 O   0  0  0  0  0  0  0  0  0  0  0  0
    1.4052    1.8798    0.3637 C   0  0  0  0  0  0  0  0  0  0  0  0
    1.2895   -1.6489   -1.0502 C   0  0  2  0  0  0  0  0  0  0  0  0
    1.7793    0.6173   -0.2662 C   0  0  0  0  0  0  0  0  0  0  0  0
   -3.3190    0.9551   -1.9238 C   0  0  0  0  0  0  0  0  0  0  0  0
    0.0975   -2.3135   -1.7712 C   0  0  0  0  0  0  0  0  0  0  0  0
   -2.2132    1.3881    1.2257 C   0  0  0  0  0  0  0  0  0  0  0  0
   -4.8378    0.7511   -2.0722 C   0  0  0  0  0  0  0  0  0  0  0  0
    0.0784    2.1626    0.8653 C   0  0  0  0  0  0  0  0  0  0  0  0
   -2.6095    0.4839   -3.2008 C   0  0  0  0  0  0  0  0  0  0  0  0
    3.2378    0.3495   -0.4985 C   0  0  0  0  0  0  0  0  0  0  0  0
    2.4263    2.8568    0.5433 C   0  0  0  0  0  3  0  0  0  0  0  0
   -1.3183   -2.8572    3.2525 C   0  0  0  0  0  0  0  0  0  0  0  0
    3.7560    0.3623   -1.8097 C   0  0  0  0  0  0  0  0  0  0  0  0
   -1.3024   -3.7686    2.1840 C   0  0  0  0  0  0  0  0  0  0  0  0
    5.4637   -0.1784    0.3508 C   0  0  0  0  0  0  0  0  0  0  0  0
    0.6050   -1.7225    2.2934 C   0  0  0  0  0  0  0  0  0  0  0  0
   -3.5402   -0.7618    1.4364 C   0  0  0  0  0  0  0  0  0  0  0  0
   -0.1059    3.3743    1.5942 C   0  0  0  0  0  0  0  0  0  0  0  0
    5.1160    0.1045   -2.0371 C   0  0  0  0  0  0  0  0  0  0  0  0
    1.7003   -2.5394    0.1505 C   0  0  0  0  0  0  0  0  0  0  0  0
    2.2034    4.0520    1.2172 C   0  0  0  0  0  0  0  0  0  0  0  0
    5.9709   -0.1717   -0.9584 C   0  0  0  0  0  0  0  0  0  0  0  0
    0.6460   -2.6442    1.2264 C   0  0  0  0  0  0  0  0  0  0  0  0
    0.9258    4.2955    1.7570 C   0  0  0  0  0  0  0  0  0  0  0  0
    4.1058    0.0857    0.5810 C   0  0  0  0  0  0  0  0  0  0  0  0
   -0.3316   -3.6598    1.1768 C   0  0  0  0  0  0  0  0  0  0  0  0
   -0.3674   -1.8250    3.2987 C   0  0  0  0  0  0  0  0  0  0  0  0
    1.9109   -3.5373   -0.2834 H   0  0  0  0  0  0  0  0  0  0  0  0
    2.6458   -2.1488    0.5757 H   0  0  0  0  0  0  0  0  0  0  0  0
    6.1303   -0.3883    1.2007 H   0  0  0  0  0  0  0  0  0  0  0  0
    3.4222    2.6515    0.1284 H   0  0  0  0  0  0  0  0  0  0  0  0
    5.5099    0.1208   -3.0644 H   0  0  0  0  0  0  0  0  0  0  0  0
    3.0149    4.7854    1.3297 H   0  0  0  0  0  0  0  0  0  0  0  0
   -3.7624   -0.4473    2.4736 H   0  0  0  0  0  0  0  0  0  0  0  0
   -4.2040    1.0803    0.5384 H   0  0  0  0  0  0  0  0  0  0  0  0
    2.1466   -1.6140   -1.7517 H   0  0  0  0  0  0  0  0  0  0  0  0
    3.0848    0.5858   -2.6532 H   0  0  0  0  0  0  0  0  0  0  0  0
   -1.5228    0.6906   -3.1480 H   0  0  0  0  0  0  0  0  0  0  0  0
   -3.4925    2.8251   -0.7551 H   0  0  0  0  0  0  0  0  0  0  0  0
    3.7090    0.0952    1.6076 H   0  0  0  0  0  0  0  0  0  0  0  0
    1.3520   -0.9145    2.3408 H   0  0  0  0  0  0  0  0  0  0  0  0
   -0.3824   -1.0947    4.1218 H   0  0  0  0  0  0  0  0  0  0  0  0
   -2.0503   -4.5749    2.1357 H   0  0  0  0  0  0  0  0  0  0  0  0
   -0.3221   -4.3693    0.3348 H   0  0  0  0  0  0  0  0  0  0  0  0
    0.7264    5.2265    2.3101 H   0  0  0  0  0  0  0  0  0  0  0  0
   -3.0292    1.0153   -4.0776 H   0  0  0  0  0  0  0  0  0  0  0  0
   -5.0767   -0.3116   -2.2841 H   0  0  0  0  0  0  0  0  0  0  0  0
   -5.3920    1.0603   -1.1635 H   0  0  0  0  0  0  0  0  0  0  0  0
   -1.0928    3.5626    2.0286 H   0  0  0  0  0  0  0  0  0  0  0  0
   -1.9026    2.5802   -1.5474 H   0  0  0  0  0  0  0  0  0  0  0  0
   -2.0775   -2.9449    4.0446 H   0  0  0  0  0  0  0  0  0  0  0  0
   -2.7250   -0.6067   -3.3530 H   0  0  0  0  0  0  0  0  0  0  0  0
    7.0369   -0.3774   -1.1382 H   0  0  0  0  0  0  0  0  0  0  0  0
   -3.3408    3.0344   -2.5226 H   0  0  0  0  0  0  0  0  0  0  0  0
   -5.2216    1.3566   -2.9163 H   0  0  0  0  0  0  0  0  0  0  0  0
   -2.6542   -1.4261    1.4595 H   0  0  0  0  0  0  0  0  0  0  0  0
   -3.1205   -0.8777   -0.9908 H   0  0  0  0  0  0  0  0  0  0  0  0
   -4.4081   -1.3329    1.0477 H   0  0  0  0  0  0  0  0  0  0  0  0
  2 16  1  0  0  0  0
  2 14  1  0  0  0  0
  3 11  1  0  0  0  0
  4  5  1  0  0  0  0
  5 43  1  6  0  0  0
  5 14  1  0  0  0  0
  5 25  1  0  0  0  0
  7 58  1  0  0  0  0
  7 47  1  0  0  0  0
  8 13  2  0  0  0  0
  9 19  1  0  0  0  0
  9 16  1  0  0  0  0
 10 44  1  6  0  0  0
 10  3  1  0  0  0  0
 10 28  1  0  0  0  0
 11  9  2  0  0  0  0
 12  7  1  0  0  0  0
 12  4  1  0  0  0  0
 13  1  1  0  0  0  0
 13 10  1  0  0  0  0
 14  6  2  0  0  0  0
 15 12  1  0  0  0  0
 15 56  1  0  0  0  0
 16 26  2  0  0  0  0
 17 46  1  0  0  0  0
 17 12  1  0  0  0  0
 18 11  1  0  0  0  0
 18 33  1  0  0  0  0
 19 29  1  0  0  0  0
 20 35  1  0  0  0  0
 20 59  1  0  0  0  0
 21 18  2  0  0  0  0
 22 20  2  0  0  0  0
 23 33  2  0  0  0  0
 23 38  1  0  0  0  0
 24 49  1  0  0  0  0
 24 35  2  0  0  0  0
 25 64  1  0  0  0  0
 25 42  1  0  0  0  0
 26 32  1  0  0  0  0
 26 57  1  0  0  0  0
 27 21  1  0  0  0  0
 27 30  2  0  0  0  0
 28 37  1  0  0  0  0
 28 31  1  0  0  0  0
 29 41  1  0  0  0  0
 29 32  2  0  0  0  0
 30 23  1  0  0  0  0
 31 24  1  0  0  0  0
 32 53  1  0  0  0  0
 33 48  1  0  0  0  0
 34 31  2  0  0  0  0
 34 22  1  0  0  0  0
 35 50  1  0  0  0  0
 36 28  1  0  0  0  0
 39 19  1  0  0  0  0
 40 27  1  0  0  0  0
 45 21  1  0  0  0  0
 51 22  1  0  0  0  0
 52 34  1  0  0  0  0
 54 17  1  0  0  0  0
 55 15  1  0  0  0  0
 60 17  1  0  0  0  0
 61 30  1  0  0  0  0
 62  7  1  0  0  0  0
 63 15  1  0  0  0  0
 65  4  1  0  0  0  0
 66 25  1  0  0  0  0
M  CHG  1   1  -1
M  END
