1,5,10,13
q = -1.0, confidence = 0.386

 32 32  0  0  1  0  0  0  0  0999 V2000
   -0.5746    1.7567    0.0758 O   0  5  0  0  0  0  0  0  0  0  0  0
   -1.7863    2.0655   -0.2536 C   0  0  0  0  0  0  0  0  0  0  0  0
   -2.8340    1.1517   -0.4495 C   0  0  0  0  0  0  0  0  0  0  0  0
   -2.7345   -0.2627   -0.4196 C   0  0  2  0  0  3  0  0  0  0  0  0
   -1.5983   -0.9091   -0.1338 N   0  0  0  0  0  2  0  0  0  0  0  0
   -2.0166    3.5422   -0.4478 C   0  0  0  0  0  0  0  0  0  0  0  0
   -3.9789   -1.0538   -0.7515 C   0  0  0  0  0  0  0  0  0  0  0  0
   -1.5074   -2.3799   -0.1571 C   0  0  0  0  0  0  0  0  0  0  0  0
   -0.0911   -2.7528   -0.5915 C   0  0  0  0  0  0  0  0  0  0  0  0
    0.8163   -1.7390   -0.0838 N   0  0  0  0  0  2  0  0  0  0  0  0
    2.2110   -1.8268   -0.5281 C   0  0  0  0  0  0  0  0  0  0  0  0
    2.7682   -0.4373   -0.4988 C   0  0  0  0  0  0  0  0  0  0  0  0
    1.8577    0.5325   -0.0821 N   0  0  0  0  0  2  0  0  0  0  0  0
    2.4633    1.7760   -0.1713 C   0  0  0  0  0  0  0  0  0  0  0  0
    3.7641    1.5942   -0.6214 C   0  0  0  0  0  0  0  0  0  0  0  0
    3.9615    0.1839   -0.8341 C   0  0  0  0  0  0  0  0  0  0  0  0
   -3.8142    1.5687   -0.7135 H   0  0  0  0  0  0  0  0  0  0  0  0
   -3.0641    3.7829   -0.7038 H   0  0  0  0  0  0  0  0  0  0  0  0
   -1.3472    3.9111   -1.2519 H   0  0  0  0  0  0  0  0  0  0  0  0
   -1.7266    4.0824    0.4764 H   0  0  0  0  0  0  0  0  0  0  0  0
   -4.2257   -1.7675    0.0606 H   0  0  0  0  0  0  0  0  0  0  0  0
   -3.8398   -1.6501   -1.6774 H   0  0  0  0  0  0  0  0  0  0  0  0
   -4.8428   -0.3834   -0.9035 H   0  0  0  0  0  0  0  0  0  0  0  0
   -2.2509   -2.8421   -0.8368 H   0  0  0  0  0  0  0  0  0  0  0  0
   -1.7110   -2.7577    0.8700 H   0  0  0  0  0  0  0  0  0  0  0  0
   -0.0309   -2.8057   -1.7079 H   0  0  0  0  0  0  0  0  0  0  0  0
    0.1727   -3.7685   -0.2128 H   0  0  0  0  0  0  0  0  0  0  0  0
    2.7834   -2.5256    0.1300 H   0  0  0  0  0  0  0  0  0  0  0  0
    2.2552   -2.2614   -1.5566 H   0  0  0  0  0  0  0  0  0  0  0  0
    1.9155    2.6817    0.1081 H   0  0  0  0  0  0  0  0  0  0  0  0
    4.5057    2.3860   -0.7842 H   0  0  0  0  0  0  0  0  0  0  0  0
    4.8735   -0.3020   -1.2014 H   0  0  0  0  0  0  0  0  0  0  0  0
  2  1  1  0  0  0  0
  3  2  2  0  0  0  0
  4  3  1  6  0  0  0
  4  5  1  0  0  0  0
  6  2  1  0  0  0  0
  6 20  1  0  0  0  0
  7  4  1  0  0  0  0
  7 21  1  0  0  0  0
  8  5  1  0  0  0  0
  8 25  1  0  0  0  0
  9 27  1  0  0  0  0
  9  8  1  0  0  0  0
  9 10  1  0  0  0  0
 11 12  1  0  0  0  0
 11 10  1  0  0  0  0
 11 28  1  0  0  0  0
 12 13  1  0  0  0  0
 14 13  1  0  0  0  0
 14 30  1  0  0  0  0
 15 14  2  0  0  0  0
 16 15  1  0  0  0  0
 16 12  2  0  0  0  0
 17  3  1  0  0  0  0
 18  6  1  0  0  0  0
 19  6  1  0  0  0  0
 22  7  1  0  0  0  0
 23  7  1  0  0  0  0
 24  8  1  0  0  0  0
 26  9  1  0  0  0  0
 29 11  1  0  0  0  0
 31 15  1  0  0  0  0
 32 16  1  0  0  0  0
M  CHG  1   1  -1
M  END
