1,2,3,4
q = -1.0

 31 30  0  0  1  0  0  0  0  0999 V2000
    0.8882   -1.5987    0.0060 O   0  5  0  0  0  0  0  0  0  0  0  0
   -1.7297   -1.8360    0.0392 N   0  0  0  0  0  0  0  0  0  0  0  0
   -1.9581    0.8114   -0.2327 N   0  0  0  0  0  0  0  0  0  0  0  0
    0.6164    1.1469   -0.0339 N   0  0  0  0  0  2  0  0  0  0  0  0
   -3.0968   -1.3164   -0.2241 C   0  0  0  0  0  0  0  0  0  0  0  0
   -3.1466    0.1094    0.3142 C   0  0  0  0  0  0  0  0  0  0  0  0
   -1.5547    2.0934    0.3965 C   0  0  0  0  0  0  0  0  0  0  0  0
   -0.1538    2.3936   -0.1176 C   0  0  0  0  0  0  0  0  0  0  0  0
    1.9530    1.1498   -0.0254 C   0  0  2  0  0  3  0  0  0  0  0  0
    2.7078   -0.0499    0.0182 C   0  0  0  0  0  0  0  0  0  0  0  0
    2.1625   -1.3372    0.0477 C   0  0  0  0  0  0  0  0  0  0  0  0
    2.6956    2.4638   -0.0545 C   0  0  0  0  0  0  0  0  0  0  0  0
    3.0413   -2.5562    0.1345 C   0  0  0  0  0  0  0  0  0  0  0  0
   -1.6492   -2.2180    0.9953 H   0  0  0  0  0  0  0  0  0  0  0  0
   -1.4732   -2.6145   -0.5864 H   0  0  0  0  0  0  0  0  0  0  0  0
   -2.1060    0.9750   -1.2444 H   0  0  0  0  0  0  0  0  0  0  0  0
   -3.2571   -1.3165   -1.3218 H   0  0  0  0  0  0  0  0  0  0  0  0
   -3.8910   -1.9493    0.2229 H   0  0  0  0  0  0  0  0  0  0  0  0
   -3.0623    0.1162    1.4203 H   0  0  0  0  0  0  0  0  0  0  0  0
   -4.0951    0.6229    0.0476 H   0  0  0  0  0  0  0  0  0  0  0  0
   -2.2746    2.9094    0.1721 H   0  0  0  0  0  0  0  0  0  0  0  0
   -1.5372    1.9336    1.4931 H   0  0  0  0  0  0  0  0  0  0  0  0
    0.2996    3.2115    0.4789 H   0  0  0  0  0  0  0  0  0  0  0  0
   -0.1980    2.7576   -1.1719 H   0  0  0  0  0  0  0  0  0  0  0  0
    3.8003    0.0419    0.0467 H   0  0  0  0  0  0  0  0  0  0  0  0
    3.7865    2.2981   -0.0713 H   0  0  0  0  0  0  0  0  0  0  0  0
    2.4591    3.0811    0.8375 H   0  0  0  0  0  0  0  0  0  0  0  0
    2.4228    3.0621   -0.9481 H   0  0  0  0  0  0  0  0  0  0  0  0
    4.1137   -2.2939    0.1570 H   0  0  0  0  0  0  0  0  0  0  0  0
    2.8478   -3.2215   -0.7316 H   0  0  0  0  0  0  0  0  0  0  0  0
    2.7907   -3.1356    1.0467 H   0  0  0  0  0  0  0  0  0  0  0  0
  1 11  1  0  0  0  0
  2 14  1  0  0  0  0
  3  6  1  0  0  0  0
  3  7  1  0  0  0  0
  5  2  1  0  0  0  0
  5 18  1  0  0  0  0
  5  6  1  0  0  0  0
  6 19  1  0  0  0  0
  7 22  1  0  0  0  0
  8  4  1  0  0  0  0
  8  7  1  0  0  0  0
  8 23  1  0  0  0  0
  9  4  1  1  0  0  0
  9 10  1  0  0  0  0
 10 25  1  0  0  0  0
 10 11  2  0  0  0  0
 11 13  1  0  0  0  0
 12  9  1  0  0  0  0
 12 27  1  0  0  0  0
 13 29  1  0  0  0  0
 13 31  1  0  0  0  0
 15  2  1  0  0  0  0
 16  3  1  0  0  0  0
 17  5  1  0  0  0  0
 20  6  1  0  0  0  0
 21  7  1  0  0  0  0
 24  8  1  0  0  0  0
 26 12  1  0  0  0  0
 28 12  1  0  0  0  0
 30 13  1  0  0  0  0
M  CHG  1   1  -1
M  END
