2,5,6,7
q = -2.0, confidence = 0.842

 61 64  0  0  1  0  0  0  0  0999 V2000
    0.0174   -0.3592   -2.8659 Cl  0  0  0  0  0  0  0  0  0  0  0  0
   -0.6244   -2.6955   -0.4727 O   0  5  0  0  0  0  0  0  0  0  0  0
    0.8957   -4.3048   -0.8888 O   0  0  0  0  0  0  0  0  0  0  0  0
   -2.9615    1.7540    2.1012 O   0  0  0  0  0  0  0  0  0  0  0  0
    1.0061   -0.9803    0.4559 N   0  0  0  0  0  2  0  0  0  0  0  0
   -1.1199    0.6530    1.1108 N   0  0  0  0  0  2  0  0  0  0  0  0
   -2.7079   -1.0143   -0.2000 N   0  0  0  0  0  0  0  0  0  0  0  0
    0.5866   -3.2107   -0.4403 C   0  0  0  0  0  0  0  0  0  0  0  0
    1.5997   -2.3171    0.2987 C   0  0  2  0  0  0  0  0  0  0  0  0
    2.5236   -2.2677   -0.3107 H   0  0  0  0  0  0  0  0  0  0  0  0
    1.9356   -2.9415    1.6583 C   0  0  0  0  0  0  0  0  0  0  0  0
    2.7323   -2.3716    2.1750 H   0  0  0  0  0  0  0  0  0  0  0  0
    2.2805   -3.9804    1.4932 H   0  0  0  0  0  0  0  0  0  0  0  0
    1.0348   -2.9620    2.3044 H   0  0  0  0  0  0  0  0  0  0  0  0
    1.7455    0.1050    0.5341 C   0  0  0  0  0  0  0  0  0  0  0  0
    1.2040    1.4232    0.8405 C   0  0  0  0  0  0  0  0  0  0  0  0
   -0.1662    1.6545    1.2377 C   0  0  0  0  0  0  0  0  0  0  0  0
   -0.4986    2.9646    1.6958 C   0  0  0  0  0  0  0  0  0  0  0  0
   -1.5155    3.1279    2.0648 H   0  0  0  0  0  0  0  0  0  0  0  0
    0.4181    4.0124    1.6544 C   0  0  0  0  0  0  0  0  0  0  0  0
    0.1004    5.0100    1.9961 H   0  0  0  0  0  0  0  0  0  0  0  0
    1.7261    3.8103    1.1769 C   0  0  0  0  0  0  0  0  0  0  0  0
    2.4475    4.6388    1.1262 H   0  0  0  0  0  0  0  0  0  0  0  0
    2.1029    2.5261    0.7987 C   0  0  0  0  0  3  0  0  0  0  0  0
    3.1316    2.3454    0.4595 H   0  0  0  0  0  0  0  0  0  0  0  0
    3.2230   -0.0138    0.2937 C   0  0  0  0  0  0  0  0  0  0  0  0
    3.6983   -0.1033   -1.0314 C   0  0  0  0  0  0  0  0  0  0  0  0
    2.9761   -0.0867   -1.8626 H   0  0  0  0  0  0  0  0  0  0  0  0
    5.0738   -0.2151   -1.2805 C   0  0  0  0  0  0  0  0  0  0  0  0
    5.4366   -0.2841   -2.3172 H   0  0  0  0  0  0  0  0  0  0  0  0
    5.9843   -0.2421   -0.2117 C   0  0  0  0  0  0  0  0  0  0  0  0
    7.0631   -0.3334   -0.4086 H   0  0  0  0  0  0  0  0  0  0  0  0
    5.5157   -0.1502    1.1084 C   0  0  0  0  0  0  0  0  0  0  0  0
    6.2260   -0.1674    1.9488 H   0  0  0  0  0  0  0  0  0  0  0  0
    4.1407   -0.0325    1.3619 C   0  0  0  0  0  0  0  0  0  0  0  0
    3.7701    0.0559    2.3944 H   0  0  0  0  0  0  0  0  0  0  0  0
   -2.4523    0.8430    1.4459 C   0  0  0  0  0  0  0  0  0  0  0  0
   -3.3486   -0.2776    0.9256 C   0  0  2  0  0  0  0  0  0  0  0  0
   -4.2969    0.1926    0.5821 H   0  0  0  0  0  0  0  0  0  0  0  0
   -3.6551   -1.3654    1.9960 C   0  0  0  0  0  0  0  0  0  0  0  0
   -3.0315   -1.2195    2.8987 H   0  0  0  0  0  0  0  0  0  0  0  0
   -4.7112   -1.2828    2.3157 H   0  0  0  0  0  0  0  0  0  0  0  0
   -3.3610   -2.7129    1.2994 C   0  0  0  0  0  0  0  0  0  0  0  0
   -4.1109   -3.4926    1.5337 H   0  0  0  0  0  0  0  0  0  0  0  0
   -2.3650   -3.1047    1.5853 H   0  0  0  0  0  0  0  0  0  0  0  0
   -3.3394   -2.3638   -0.1826 C   0  0  0  0  0  0  0  0  0  0  0  0
   -2.7399   -3.0563   -0.7990 H   0  0  0  0  0  0  0  0  0  0  0  0
   -4.3701   -2.2696   -0.5967 H   0  0  0  0  0  0  0  0  0  0  0  0
   -2.8379   -0.3807   -1.5491 C   0  0  0  0  0  0  0  0  0  0  0  0
   -3.9237   -0.2440   -1.7576 H   0  0  0  0  0  0  0  0  0  0  0  0
   -2.4350   -1.1165   -2.2707 H   0  0  0  0  0  0  0  0  0  0  0  0
   -2.1237    0.9410   -1.7067 C   0  0  0  0  0  0  0  0  0  0  0  0
   -0.8204    1.0513   -2.2461 C   0  0  0  0  0  0  0  0  0  0  0  0
   -0.1546    2.2846   -2.3165 C   0  0  0  0  0  0  0  0  0  0  0  0
    0.8647    2.3219   -2.7243 H   0  0  0  0  0  0  0  0  0  0  0  0
   -0.7912    3.4453   -1.8609 C   0  0  0  0  0  0  0  0  0  0  0  0
   -0.2577    4.4063   -1.8970 H   0  0  0  0  0  0  0  0  0  0  0  0
   -2.0981    3.3732   -1.3574 C   0  0  0  0  0  0  0  0  0  0  0  0
   -2.6087    4.2792   -1.0010 H   0  0  0  0  0  0  0  0  0  0  0  0
   -2.7504    2.1361   -1.2963 C   0  0  0  0  0  0  0  0  0  0  0  0
   -3.7726    2.0849   -0.8919 H   0  0  0  0  0  0  0  0  0  0  0  0
  1 53  1  0  0  0  0
  2  8  1  0  0  0  0
  3  8  2  0  0  0  0
  5 15  1  0  0  0  0
  6 17  1  0  0  0  0
  6 37  1  0  0  0  0
  7 46  1  0  0  0  0
  7 38  1  0  0  0  0
  8  9  1  0  0  0  0
  9 10  1  6  0  0  0
  9  5  1  0  0  0  0
  9 11  1  0  0  0  0
 11 12  1  0  0  0  0
 11 14  1  0  0  0  0
 13 11  1  0  0  0  0
 15 16  2  0  0  0  0
 16 17  1  0  0  0  0
 17 18  2  0  0  0  0
 18 19  1  0  0  0  0
 20 18  1  0  0  0  0
 20 21  1  0  0  0  0
 22 20  2  0  0  0  0
 23 22  1  0  0  0  0
 24 16  1  0  0  0  0
 24 22  1  0  0  0  0
 25 24  1  0  0  0  0
 26 15  1  0  0  0  0
 26 35  1  0  0  0  0
 27 26  2  0  0  0  0
 28 27  1  0  0  0  0
 29 27  1  0  0  0  0
 29 31  2  0  0  0  0
 30 29  1  0  0  0  0
 31 33  1  0  0  0  0
 32 31  1  0  0  0  0
 33 35  2  0  0  0  0
 33 34  1  0  0  0  0
 35 36  1  0  0  0  0
 37  4  2  0  0  0  0
 38 39  1  6  0  0  0
 38 37  1  0  0  0  0
 38 40  1  0  0  0  0
 40 42  1  0  0  0  0
 40 41  1  0  0  0  0
 43 44  1  0  0  0  0
 43 45  1  0  0  0  0
 43 40  1  0  0  0  0
 46 43  1  0  0  0  0
 47 46  1  0  0  0  0
 48 46  1  0  0  0  0
 49  7  1  0  0  0  0
 50 49  1  0  0  0  0
 51 49  1  0  0  0  0
 52 49  1  0  0  0  0
 52 60  1  0  0  0  0
 53 52  2  0  0  0  0
 54 53  1  0  0  0  0
 54 56  2  0  0  0  0
 55 54  1  0  0  0  0
 56 58  1  0  0  0  0
 57 56  1  0  0  0  0
 58 60  2  0  0  0  0
 58 59  1  0  0  0  0
 60 61  1  0  0  0  0
M  CHG  1   2  -1
M  END
