4,5,6,8
q = -2.0, confidence = 0.872

 77 81  0  0  1  0  0  0  0  0999 V2000
    0.6336    5.5544   -0.8608 Cl  0  0  0  0  0  0  0  0  0  0  0  0
    2.0055    3.7572    2.3131 Cl  0  0  0  0  0  0  0  0  0  0  0  0
   -0.2783    1.5619    2.7204 Cl  0  0  0  0  0  0  0  0  0  0  0  0
   -0.6195   -0.7065   -0.7218 N   0  0  0  0  0  2  0  0  0  0  0  0
    2.0377   -0.2555   -1.1955 N   0  0  0  0  0  2  0  0  0  0  0  0
    2.6713   -2.5346    0.0181 N   0  0  0  0  0  0  0  0  0  0  0  0
   -1.3267   -3.9099    2.0346 O   0  5  0  0  0  0  0  0  0  0  0  0
    0.1660   -2.8484    0.7705 O   0  0  0  0  0  0  0  0  0  0  0  0
    4.1986   -0.0699   -2.0985 O   0  0  0  0  0  0  0  0  0  0  0  0
   -1.0597   -3.0489    1.2005 C   0  0  0  0  0  0  0  0  0  0  0  0
   -2.1532   -2.1371    0.6117 C   0  0  1  0  0  0  0  0  0  0  0  0
   -2.2255   -1.2634    1.2991 H   0  0  0  0  0  0  0  0  0  0  0  0
   -1.7707   -1.6118   -0.7742 C   0  0  0  0  0  0  0  0  0  0  0  0
   -1.5033   -2.4697   -1.4272 H   0  0  0  0  0  0  0  0  0  0  0  0
   -2.6375   -1.0977   -1.2339 H   0  0  0  0  0  0  0  0  0  0  0  0
   -0.7772    0.5818   -0.9314 C   0  0  0  0  0  0  0  0  0  0  0  0
    0.3418    1.5140   -1.0028 C   0  0  0  0  0  0  0  0  0  0  0  0
    0.0381    2.8980   -0.9038 C   0  0  0  0  0  0  0  0  0  0  0  0
   -0.9918    3.2094   -0.6921 H   0  0  0  0  0  0  0  0  0  0  0  0
    1.0249    3.8647   -1.0498 C   0  0  0  0  0  0  0  0  0  0  0  0
    2.3429    3.4729   -1.3452 C   0  0  0  0  0  0  0  0  0  0  0  0
    3.1223    4.2360   -1.4824 H   0  0  0  0  0  0  0  0  0  0  0  0
    2.6629    2.1223   -1.4468 C   0  0  0  0  0  0  0  0  0  0  0  0
    3.6864    1.8220   -1.6885 H   0  0  0  0  0  0  0  0  0  0  0  0
    1.6985    1.0930   -1.2312 C   0  0  1  0  0  3  0  0  0  0  0  0
    3.3003   -0.7020   -1.5367 C   0  0  0  0  0  0  0  0  0  0  0  0
    3.5200   -2.1813   -1.1789 C   0  0  2  0  0  0  0  0  0  0  0  0
    2.9127   -3.0988   -2.2877 C   0  0  0  0  0  0  0  0  0  0  0  0
    2.1960   -2.5277   -2.9084 H   0  0  0  0  0  0  0  0  0  0  0  0
    3.7198   -3.4458   -2.9607 H   0  0  0  0  0  0  0  0  0  0  0  0
    2.2053   -4.2584   -1.5433 C   0  0  0  0  0  0  0  0  0  0  0  0
    1.1108   -4.2236   -1.7087 H   0  0  0  0  0  0  0  0  0  0  0  0
    2.5580   -5.2553   -1.8699 H   0  0  0  0  0  0  0  0  0  0  0  0
    2.5033   -4.0125   -0.0672 C   0  0  0  0  0  0  0  0  0  0  0  0
    3.4529   -4.4957    0.2523 H   0  0  0  0  0  0  0  0  0  0  0  0
    1.6884   -4.3152    0.6139 H   0  0  0  0  0  0  0  0  0  0  0  0
    5.0130   -2.4597   -0.9985 C   0  0  0  0  0  0  0  0  0  0  0  0
    5.4572   -1.8696   -0.1746 H   0  0  0  0  0  0  0  0  0  0  0  0
    5.5246   -2.1410   -1.9252 H   0  0  0  0  0  0  0  0  0  0  0  0
    5.2178   -3.5339   -0.8252 H   0  0  0  0  0  0  0  0  0  0  0  0
   -3.5146   -2.8600    0.6026 C   0  0  0  0  0  0  0  0  0  0  0  0
   -3.5641   -3.4326    1.5497 H   0  0  0  0  0  0  0  0  0  0  0  0
   -3.5164   -3.6096   -0.2174 H   0  0  0  0  0  0  0  0  0  0  0  0
   -4.7061   -1.9426    0.4701 C   0  0  0  0  0  0  0  0  0  0  0  0
   -5.3324   -1.7170   -0.7724 C   0  0  0  0  0  0  0  0  0  0  0  0
   -4.9529   -2.2337   -1.6686 H   0  0  0  0  0  0  0  0  0  0  0  0
   -6.4408   -0.8626   -0.8805 C   0  0  0  0  0  0  0  0  0  0  0  0
   -6.9141   -0.7031   -1.8613 H   0  0  0  0  0  0  0  0  0  0  0  0
   -6.9479   -0.2196    0.2584 C   0  0  0  0  0  0  0  0  0  0  0  0
   -7.8231    0.4429    0.1776 H   0  0  0  0  0  0  0  0  0  0  0  0
   -6.3312   -0.4291    1.5032 C   0  0  0  0  0  0  0  0  0  0  0  0
   -6.7254    0.0661    2.4042 H   0  0  0  0  0  0  0  0  0  0  0  0
   -5.2202   -1.2784    1.6045 C   0  0  0  0  0  0  0  0  0  0  0  0
   -4.7483   -1.4494    2.5856 H   0  0  0  0  0  0  0  0  0  0  0  0
   -2.1510    1.1453   -1.1454 C   0  0  0  0  0  0  0  0  0  0  0  0
   -3.0113    1.3649   -0.0507 C   0  0  0  0  0  0  0  0  0  0  0  0
   -2.6704    1.1152    0.9644 H   0  0  0  0  0  0  0  0  0  0  0  0
   -4.2824    1.9183   -0.2560 C   0  0  0  0  0  0  0  0  0  0  0  0
   -4.9484    2.0809    0.6029 H   0  0  0  0  0  0  0  0  0  0  0  0
   -4.7086    2.2451   -1.5521 C   0  0  0  0  0  0  0  0  0  0  0  0
   -5.7120    2.6681   -1.7102 H   0  0  0  0  0  0  0  0  0  0  0  0
   -3.8550    2.0299   -2.6454 C   0  0  0  0  0  0  0  0  0  0  0  0
   -4.1833    2.2894   -3.6632 H   0  0  0  0  0  0  0  0  0  0  0  0
   -2.5759    1.4916   -2.4438 C   0  0  0  0  0  0  0  0  0  0  0  0
   -1.8953    1.3367   -3.2946 H   0  0  0  0  0  0  0  0  0  0  0  0
    3.1479   -2.1302    1.3768 C   0  0  0  0  0  0  0  0  0  0  0  0
    4.2147   -2.4093    1.5020 H   0  0  0  0  0  0  0  0  0  0  0  0
    2.5524   -2.7431    2.0800 H   0  0  0  0  0  0  0  0  0  0  0  0
    2.9213   -0.6681    1.6853 C   0  0  0  0  0  0  0  0  0  0  0  0
    3.9181    0.3050    1.5112 C   0  0  0  0  0  0  0  0  0  0  0  0
    4.9281    0.0121    1.1886 H   0  0  0  0  0  0  0  0  0  0  0  0
    3.6353    1.6633    1.7196 C   0  0  0  0  0  0  0  0  0  0  0  0
    4.4093    2.4290    1.5741 H   0  0  0  0  0  0  0  0  0  0  0  0
    2.3464    2.0720    2.0946 C   0  0  0  0  0  0  0  0  0  0  0  0
    1.3396    1.0974    2.2783 C   0  0  0  0  0  0  0  0  0  0  0  0
    1.6338   -0.2593    2.0907 C   0  0  0  0  0  0  0  0  0  0  0  0
    0.8512   -1.0068    2.2784 H   0  0  0  0  0  0  0  0  0  0  0  0
  6 66  1  0  0  0  0
  8 10  2  0  0  0  0
  9 26  2  0  0  0  0
 10  7  1  0  0  0  0
 11 10  1  0  0  0  0
 11 12  1  1  0  0  0
 13  4  1  0  0  0  0
 13 11  1  0  0  0  0
 14 13  1  0  0  0  0
 15 13  1  0  0  0  0
 16  4  1  0  0  0  0
 17 16  2  0  0  0  0
 17 18  1  0  0  0  0
 18 19  1  0  0  0  0
 20 18  2  0  0  0  0
 20  1  1  0  0  0  0
 21 20  1  0  0  0  0
 22 21  1  0  0  0  0
 23 21  2  0  0  0  0
 23 25  1  0  0  0  0
 24 23  1  0  0  0  0
 25  5  1  1  0  0  0
 25 17  1  0  0  0  0
 26  5  1  0  0  0  0
 27 26  1  6  0  0  0
 27 37  1  0  0  0  0
 27  6  1  0  0  0  0
 28 31  1  0  0  0  0
 28 27  1  0  0  0  0
 29 28  1  0  0  0  0
 30 28  1  0  0  0  0
 31 34  1  0  0  0  0
 32 31  1  0  0  0  0
 33 31  1  0  0  0  0
 34  6  1  0  0  0  0
 34 35  1  0  0  0  0
 34 36  1  0  0  0  0
 37 40  1  0  0  0  0
 37 38  1  0  0  0  0
 39 37  1  0  0  0  0
 41 11  1  0  0  0  0
 41 42  1  0  0  0  0
 43 41  1  0  0  0  0
 44 41  1  0  0  0  0
 44 53  1  0  0  0  0
 45 44  2  0  0  0  0
 46 45  1  0  0  0  0
 47 45  1  0  0  0  0
 47 49  2  0  0  0  0
 48 47  1  0  0  0  0
 49 51  1  0  0  0  0
 50 49  1  0  0  0  0
 51 53  2  0  0  0  0
 51 52  1  0  0  0  0
 53 54  1  0  0  0  0
 55 16  1  0  0  0  0
 55 56  1  0  0  0  0
 56 57  1  0  0  0  0
 58 56  2  0  0  0  0
 58 59  1  0  0  0  0
 60 58  1  0  0  0  0
 61 60  1  0  0  0  0
 62 64  1  0  0  0  0
 62 60  2  0  0  0  0
 63 62  1  0  0  0  0
 64 55  2  0  0  0  0
 65 64  1  0  0  0  0
 66 67  1  0  0  0  0
 66 69  1  0  0  0  0
 66 68  1  0  0  0  0
 69 76  1  0  0  0  0
 70 69  2  0  0  0  0
 70 72  1  0  0  0  0
 71 70  1  0  0  0  0
 72 74  2  0  0  0  0
 73 72  1  0  0  0  0
 74 75  1  0  0  0  0
 74  2  1  0  0  0  0
 75  3  1  0  0  0  0
 76 75  2  0  0  0  0
 76 77  1  0  0  0  0
M  CHG  1   7  -1
M  END
