1,2,3,4
q = -1.0, confidence = 0.024

 41 40  0  0  1  0  0  0  0  0999 V2000
   -1.2656   -1.5892   -0.2946 O   0  0  0  0  0  1  0  0  0  0  0  0
   -1.4964    1.1145    0.0780 N   0  0  0  0  0  2  0  0  0  0  0  0
    1.0696    1.2916   -0.2599 N   0  0  0  0  0  2  0  0  0  0  0  0
    1.2254   -1.4312   -0.6109 N   0  0  0  0  0  0  0  0  0  0  0  0
    0.7218   -2.3241   -0.4677 H   0  0  0  0  0  0  0  0  0  0  0  0
    1.5350   -1.4326   -1.5966 H   0  0  0  0  0  0  0  0  0  0  0  0
   -3.1951   -2.9512   -0.3314 C   0  0  0  0  0  0  0  0  0  0  0  0
   -2.9687   -3.3608   -1.3374 H   0  0  0  0  0  0  0  0  0  0  0  0
   -4.2905   -2.9167   -0.1956 H   0  0  0  0  0  0  0  0  0  0  0  0
   -2.7593   -3.6540    0.4078 H   0  0  0  0  0  0  0  0  0  0  0  0
   -2.5630   -1.5941   -0.1802 C   0  0  1  0  0  3  0  0  0  0  0  0
   -3.3289   -0.4555    0.0685 C   0  0  0  0  0  0  0  0  0  0  0  0
   -4.4146   -0.5765    0.1652 H   0  0  0  0  0  0  0  0  0  0  0  0
   -2.7967    0.8511    0.2235 C   0  0  0  0  0  0  0  0  0  0  0  0
   -3.7522    1.9672    0.5741 C   0  0  0  0  0  0  0  0  0  0  0  0
   -3.4776    2.4435    1.5379 H   0  0  0  0  0  0  0  0  0  0  0  0
   -4.7843    1.5864    0.6615 H   0  0  0  0  0  0  0  0  0  0  0  0
   -3.7462    2.7640   -0.1985 H   0  0  0  0  0  0  0  0  0  0  0  0
   -0.9611    2.4483    0.3392 C   0  0  0  0  0  0  0  0  0  0  0  0
   -0.7846    2.5862    1.4309 H   0  0  0  0  0  0  0  0  0  0  0  0
   -1.6539    3.2518    0.0172 H   0  0  0  0  0  0  0  0  0  0  0  0
    0.3505    2.5672   -0.4178 C   0  0  0  0  0  0  0  0  0  0  0  0
    0.1531    2.7099   -1.5024 H   0  0  0  0  0  0  0  0  0  0  0  0
    0.9395    3.4331   -0.0598 H   0  0  0  0  0  0  0  0  0  0  0  0
    3.2136    2.5110   -0.2748 C   0  0  0  0  0  0  0  0  0  0  0  0
    2.9451    3.1286   -1.1553 H   0  0  0  0  0  0  0  0  0  0  0  0
    4.2868    2.2578   -0.3448 H   0  0  0  0  0  0  0  0  0  0  0  0
    3.0813    3.1470    0.6267 H   0  0  0  0  0  0  0  0  0  0  0  0
    2.3716    1.2637   -0.1846 C   0  0  2  0  0  3  0  0  0  0  0  0
    3.1444   -0.0262   -0.0663 C   0  0  0  0  0  0  0  0  0  0  0  0
    3.9646    0.1331    0.6654 H   0  0  0  0  0  0  0  0  0  0  0  0
    3.6755   -0.1596   -1.0397 H   0  0  0  0  0  0  0  0  0  0  0  0
    2.4024   -1.3228    0.2979 C   0  0  0  0  0  0  0  0  0  0  0  0
    3.3368   -2.5236    0.0823 C   0  0  0  0  0  0  0  0  0  0  0  0
    2.8264   -3.4697    0.3522 H   0  0  0  0  0  0  0  0  0  0  0  0
    4.2403   -2.4375    0.7170 H   0  0  0  0  0  0  0  0  0  0  0  0
    3.6703   -2.5952   -0.9733 H   0  0  0  0  0  0  0  0  0  0  0  0
    1.8916   -1.2915    1.7454 C   0  0  0  0  0  0  0  0  0  0  0  0
    1.2646   -2.1800    1.9600 H   0  0  0  0  0  0  0  0  0  0  0  0
    1.2807   -0.3888    1.9424 H   0  0  0  0  0  0  0  0  0  0  0  0
    2.7438   -1.3002    2.4520 H   0  0  0  0  0  0  0  0  0  0  0  0
  2 14  1  0  0  0  0
  2 19  1  0  0  0  0
  4  5  1  0  0  0  0
  4 33  1  0  0  0  0
  6  4  1  0  0  0  0
  7  9  1  0  0  0  0
  7 11  1  0  0  0  0
  7 10  1  0  0  0  0
  8  7  1  0  0  0  0
 11  1  1  1  0  0  0
 11 12  1  0  0  0  0
 12 13  1  0  0  0  0
 12 14  2  0  0  0  0
 14 15  1  0  0  0  0
 15 17  1  0  0  0  0
 15 16  1  0  0  0  0
 18 15  1  0  0  0  0
 19 20  1  0  0  0  0
 21 19  1  0  0  0  0
 22  3  1  0  0  0  0
 22 24  1  0  0  0  0
 22 19  1  0  0  0  0
 23 22  1  0  0  0  0
 25 29  1  0  0  0  0
 25 28  1  0  0  0  0
 26 25  1  0  0  0  0
 27 25  1  0  0  0  0
 29  3  1  6  0  0  0
 29 30  1  0  0  0  0
 30 33  1  0  0  0  0
 30 31  1  0  0  0  0
 32 30  1  0  0  0  0
 33 38  1  0  0  0  0
 34 33  1  0  0  0  0
 34 35  1  0  0  0  0
 34 36  1  0  0  0  0
 37 34  1  0  0  0  0
 38 40  1  0  0  0  0
 38 39  1  0  0  0  0
 38 41  1  0  0  0  0
M  END
