1,10,23,35
q = -1.0

 61 63  0  0  0  0  0  0  0  0999 V2000
    0.4481   -1.5007    0.1324 O   0  5  0  0  0  0  0  0  0  0  0  0
    1.4949   -0.7612   -0.0599 C   0  0  0  0  0  0  0  0  0  0  0  0
    2.8344   -1.3070   -0.0662 C   0  0  0  0  0  0  0  0  0  0  0  0
    3.9027   -0.4310   -0.2589 C   0  0  0  0  0  0  0  0  0  0  0  0
    4.9143   -0.8520   -0.2574 H   0  0  0  0  0  0  0  0  0  0  0  0
    3.7688    0.9740   -0.4540 C   0  0  0  0  0  0  0  0  0  0  0  0
    2.4795    1.5023   -0.4516 C   0  0  0  0  0  0  0  0  0  0  0  0
    2.3362    2.5823   -0.6053 H   0  0  0  0  0  0  0  0  0  0  0  0
    1.3472    0.6761   -0.2670 C   0  0  0  0  0  0  0  0  0  0  0  0
    0.0342    1.1214   -0.2646 N   0  0  0  0  0  2  0  0  0  0  0  0
   -0.3334    2.3740   -0.3847 C   0  0  0  0  0  3  0  0  0  0  0  0
    0.4418    3.1623   -0.4761 H   0  0  0  0  0  0  0  0  0  0  0  0
   -1.6914    2.8877   -0.3794 C   0  0  0  0  0  0  0  0  0  0  0  0
   -1.8134    4.3021   -0.2902 C   0  0  0  0  0  0  0  0  0  0  0  0
   -0.8881    4.8971   -0.2402 H   0  0  0  0  0  0  0  0  0  0  0  0
   -3.0481    4.9449   -0.2389 C   0  0  0  0  0  0  0  0  0  0  0  0
   -3.0946    6.0402   -0.1485 H   0  0  0  0  0  0  0  0  0  0  0  0
   -4.2336    4.1832   -0.2774 C   0  0  0  0  0  0  0  0  0  0  0  0
   -5.2146    4.6745   -0.1972 H   0  0  0  0  0  0  0  0  0  0  0  0
   -4.1568    2.7970   -0.4017 C   0  0  0  0  0  0  0  0  0  0  0  0
   -5.0812    2.2019   -0.4000 H   0  0  0  0  0  0  0  0  0  0  0  0
   -2.9109    2.1253   -0.4763 C   0  0  0  0  0  0  0  0  0  0  0  0
   -2.8332    0.7477   -0.6438 N   0  0  0  0  0  2  0  0  0  0  0  0
   -3.7839    0.0047   -1.1313 C   0  0  0  0  0  0  0  0  0  0  0  0
   -4.7369    0.4137   -1.5225 H   0  0  0  0  0  0  0  0  0  0  0  0
   -3.5819   -1.4411   -1.1931 C   0  0  0  0  0  0  0  0  0  0  0  0
   -4.5333   -2.3247   -1.7430 C   0  0  0  0  0  0  0  0  0  0  0  0
   -5.4819   -1.9313   -2.1377 H   0  0  0  0  0  0  0  0  0  0  0  0
   -4.2445   -3.6939   -1.7736 C   0  0  0  0  0  0  0  0  0  0  0  0
   -4.9700   -4.4043   -2.1973 H   0  0  0  0  0  0  0  0  0  0  0  0
   -3.0191   -4.1488   -1.2584 C   0  0  0  0  0  0  0  0  0  0  0  0
   -2.7544   -5.2155   -1.2692 H   0  0  0  0  0  0  0  0  0  0  0  0
   -2.1268   -3.2086   -0.7184 C   0  0  0  0  0  0  0  0  0  0  0  0
   -1.1508   -3.4965   -0.2950 H   0  0  0  0  0  0  0  0  0  0  0  0
   -2.4069   -1.9004   -0.6890 N   0  0  0  0  0  2  0  0  0  0  0  0
    3.0460   -2.8155    0.1467 C   0  0  0  0  0  0  0  0  0  0  0  0
    2.4682   -3.2315    1.5209 C   0  0  0  0  0  0  0  0  0  0  0  0
    2.9779   -2.6861    2.3411 H   0  0  0  0  0  0  0  0  0  0  0  0
    1.3864   -3.0122    1.5774 H   0  0  0  0  0  0  0  0  0  0  0  0
    2.6202   -4.3186    1.6869 H   0  0  0  0  0  0  0  0  0  0  0  0
    4.5356   -3.2010    0.1229 C   0  0  0  0  0  0  0  0  0  0  0  0
    5.0154   -2.9556   -0.8466 H   0  0  0  0  0  0  0  0  0  0  0  0
    5.1078   -2.6992    0.9296 H   0  0  0  0  0  0  0  0  0  0  0  0
    4.6359   -4.2945    0.2757 H   0  0  0  0  0  0  0  0  0  0  0  0
    2.3341   -3.5962   -0.9840 C   0  0  0  0  0  0  0  0  0  0  0  0
    2.7798   -3.3508   -1.9697 H   0  0  0  0  0  0  0  0  0  0  0  0
    2.4405   -4.6895   -0.8225 H   0  0  0  0  0  0  0  0  0  0  0  0
    1.2581   -3.3443   -1.0174 H   0  0  0  0  0  0  0  0  0  0  0  0
    4.9834    1.8981   -0.6636 C   0  0  0  0  0  0  0  0  0  0  0  0
    6.3155    1.1282   -0.6260 C   0  0  0  0  0  0  0  0  0  0  0  0
    6.3729    0.3612   -1.4245 H   0  0  0  0  0  0  0  0  0  0  0  0
    7.1590    1.8314   -0.7784 H   0  0  0  0  0  0  0  0  0  0  0  0
    6.4742    0.6241    0.3485 H   0  0  0  0  0  0  0  0  0  0  0  0
    4.8658    2.5944   -2.0386 C   0  0  0  0  0  0  0  0  0  0  0  0
    4.8431    1.8485   -2.8587 H   0  0  0  0  0  0  0  0  0  0  0  0
    3.9422    3.2027   -2.1126 H   0  0  0  0  0  0  0  0  0  0  0  0
    5.7292    3.2708   -2.2097 H   0  0  0  0  0  0  0  0  0  0  0  0
    5.0112    2.9666    0.4533 C   0  0  0  0  0  0  0  0  0  0  0  0
    4.0924    3.5863    0.4513 H   0  0  0  0  0  0  0  0  0  0  0  0
    5.0935    2.4923    1.4520 H   0  0  0  0  0  0  0  0  0  0  0  0
    5.8774    3.6481    0.3209 H   0  0  0  0  0  0  0  0  0  0  0  0
  2  1  1  0  0  0  0
  3  2  1  0  0  0  0
  3 36  1  0  0  0  0
  4  5  1  0  0  0  0
  4  3  2  0  0  0  0
  6  7  2  0  0  0  0
  6  4  1  0  0  0  0
  7  9  1  0  0  0  0
  8  7  1  0  0  0  0
  9 10  1  0  0  0  0
  9  2  2  0  0  0  0
 11 13  1  0  0  0  0
 11 10  1  0  0  0  0
 12 11  1  0  0  0  0
 13 14  1  0  0  0  0
 14 15  1  0  0  0  0
 14 16  2  0  0  0  0
 16 17  1  0  0  0  0
 18 16  1  0  0  0  0
 18 19  1  0  0  0  0
 20 21  1  0  0  0  0
 20 18  2  0  0  0  0
 22 20  1  0  0  0  0
 22 13  2  0  0  0  0
 23 22  1  0  0  0  0
 24 23  1  0  0  0  0
 25 24  1  0  0  0  0
 26 24  2  0  0  0  0
 26 35  1  0  0  0  0
 27 26  1  0  0  0  0
 28 27  1  0  0  0  0
 29 27  2  0  0  0  0
 29 31  1  0  0  0  0
 30 29  1  0  0  0  0
 31 33  2  0  0  0  0
 32 31  1  0  0  0  0
 33 35  1  0  0  0  0
 33 34  1  0  0  0  0
 36 37  1  0  0  0  0
 37 39  1  0  0  0  0
 37 40  1  0  0  0  0
 37 38  1  0  0  0  0
 41 36  1  0  0  0  0
 41 44  1  0  0  0  0
 41 43  1  0  0  0  0
 42 41  1  0  0  0  0
 45 47  1  0  0  0  0
 45 36  1  0  0  0  0
 46 45  1  0  0  0  0
 48 45  1  0  0  0  0
 49 50  1  0  0  0  0
 49  6  1  0  0  0  0
 49 58  1  0  0  0  0
 50 53  1  0  0  0  0
 51 50  1  0  0  0  0
 52 50  1  0  0  0  0
 54 49  1  0  0  0  0
 55 54  1  0  0  0  0
 56 54  1  0  0  0  0
 57 54  1  0  0  0  0
 58 60  1  0  0  0  0
 59 58  1  0  0  0  0
 61 58  1  0  0  0  0
M  CHG  1   1  -1
M  END
