1,2,8,11
q = -2.0, confidence = 0.894

 61 63  0  0  0  0  0  0  0  0999 V2000
   -0.0578    1.1182   -0.0006 N   0  0  0  0  0  2  0  0  0  0  0  0
    0.3012   -1.3939   -0.0012 O   0  5  0  0  0  0  0  0  0  0  0  0
   -1.8444   -3.1564    0.0003 C   0  0  0  0  0  3  0  0  0  0  0  0
   -0.7527   -3.2843    0.0003 H   0  0  0  0  0  0  0  0  0  0  0  0
   -2.7481   -4.2268    0.0001 C   0  0  0  0  0  0  0  0  0  0  0  0
   -2.3605   -5.2555    0.0000 H   0  0  0  0  0  0  0  0  0  0  0  0
   -5.1679    0.1481    0.0009 O   0  0  0  0  0  0  0  0  0  0  0  0
   -2.2795   -1.8787    0.0004 N   0  0  0  0  0  2  0  0  0  0  0  0
   -4.1279   -3.9673   -0.0000 C   0  0  0  0  0  0  0  0  0  0  0  0
   -4.8530   -4.7947   -0.0002 H   0  0  0  0  0  0  0  0  0  0  0  0
   -2.8479    0.6526   -0.0000 N   0  0  0  0  0  2  0  0  0  0  0  0
   -3.6049   -1.6187    0.0002 C   0  0  0  0  0  0  0  0  0  0  0  0
   -3.9727   -0.1641    0.0004 C   0  0  0  0  0  0  0  0  0  0  0  0
   -2.9615    2.0452    0.0001 C   0  0  0  0  0  0  0  0  0  0  0  0
   -4.2136    2.7273    0.0004 C   0  0  0  0  0  0  0  0  0  0  0  0
   -5.1257    2.1249    0.0007 H   0  0  0  0  0  0  0  0  0  0  0  0
   -4.2966    4.1210    0.0003 C   0  0  0  0  0  0  0  0  0  0  0  0
   -5.2929    4.5896    0.0006 H   0  0  0  0  0  0  0  0  0  0  0  0
   -3.1399    4.9224   -0.0001 C   0  0  0  0  0  0  0  0  0  0  0  0
   -3.2087    6.0198   -0.0002 H   0  0  0  0  0  0  0  0  0  0  0  0
   -1.9036    4.2883   -0.0003 C   0  0  0  0  0  3  0  0  0  0  0  0
   -0.9780    4.8851   -0.0006 H   0  0  0  0  0  0  0  0  0  0  0  0
   -1.7779    2.8705   -0.0003 C   0  0  0  0  0  0  0  0  0  0  0  0
   -0.4329    2.3754   -0.0003 C   0  0  0  0  0  0  0  0  0  0  0  0
    0.3575    3.1472   -0.0000 H   0  0  0  0  0  0  0  0  0  0  0  0
    1.3003    0.7182   -0.0005 C   0  0  0  0  0  0  0  0  0  0  0  0
    2.4247    1.5669   -0.0002 C   0  0  0  0  0  0  0  0  0  0  0  0
    2.2938    2.6560   -0.0003 H   0  0  0  0  0  0  0  0  0  0  0  0
    3.7096    1.0139    0.0001 C   0  0  0  0  0  0  0  0  0  0  0  0
    3.8220   -0.4025    0.0002 C   0  0  0  0  0  0  0  0  0  0  0  0
    4.8317   -0.8345    0.0005 H   0  0  0  0  0  0  0  0  0  0  0  0
    1.4290   -0.6946   -0.0006 C   0  0  0  0  0  0  0  0  0  0  0  0
    4.6697    3.3782    0.0005 C   0  0  0  0  0  0  0  0  0  0  0  0
    4.0928    3.6772    0.8992 H   0  0  0  0  0  0  0  0  0  0  0  0
    4.0928    3.6775   -0.8980 H   0  0  0  0  0  0  0  0  0  0  0  0
    5.6118    3.9625    0.0007 H   0  0  0  0  0  0  0  0  0  0  0  0
    4.9865    1.8730    0.0003 C   0  0  0  0  0  0  0  0  0  0  0  0
    5.8198    1.5528   -1.2618 C   0  0  0  0  0  0  0  0  0  0  0  0
    6.7517    2.1559   -1.2779 H   0  0  0  0  0  0  0  0  0  0  0  0
    5.2448    1.7795   -2.1823 H   0  0  0  0  0  0  0  0  0  0  0  0
    6.1105    0.4842   -1.3017 H   0  0  0  0  0  0  0  0  0  0  0  0
    5.8198    1.5525    1.2623 C   0  0  0  0  0  0  0  0  0  0  0  0
    6.1105    0.4838    1.3019 H   0  0  0  0  0  0  0  0  0  0  0  0
    5.2448    1.7788    2.1829 H   0  0  0  0  0  0  0  0  0  0  0  0
    6.7516    2.1555    1.2786 H   0  0  0  0  0  0  0  0  0  0  0  0
    2.9021   -2.8107    0.0001 C   0  0  0  0  0  0  0  0  0  0  0  0
    4.3813   -3.2331    0.0006 C   0  0  0  0  0  0  0  0  0  0  0  0
    4.9175   -2.8658    0.8990 H   0  0  0  0  0  0  0  0  0  0  0  0
    4.9181   -2.8660   -0.8976 H   0  0  0  0  0  0  0  0  0  0  0  0
    4.4505   -4.3398    0.0007 H   0  0  0  0  0  0  0  0  0  0  0  0
    2.2379   -3.3944   -1.2694 C   0  0  0  0  0  0  0  0  0  0  0  0
    2.7541   -3.0304   -2.1808 H   0  0  0  0  0  0  0  0  0  0  0  0
    1.1758   -3.0937   -1.3390 H   0  0  0  0  0  0  0  0  0  0  0  0
    2.2960   -4.5031   -1.2623 H   0  0  0  0  0  0  0  0  0  0  0  0
    2.2371   -3.3941    1.2693 C   0  0  0  0  0  0  0  0  0  0  0  0
    2.2951   -4.5027    1.2625 H   0  0  0  0  0  0  0  0  0  0  0  0
    1.1750   -3.0932    1.3383 H   0  0  0  0  0  0  0  0  0  0  0  0
    2.7529   -3.0298    2.1809 H   0  0  0  0  0  0  0  0  0  0  0  0
    2.7336   -1.2838   -0.0001 C   0  0  0  0  0  0  0  0  0  0  0  0
   -4.5641   -2.6346    0.0001 C   0  0  0  0  0  0  0  0  0  0  0  0
   -5.6226   -2.3380    0.0000 H   0  0  0  0  0  0  0  0  0  0  0  0
  1 26  1  0  0  0  0
  1 24  1  0  0  0  0
  2 32  1  0  0  0  0
  3  4  1  0  0  0  0
  3  8  1  0  0  0  0
  5  3  1  0  0  0  0
  6  5  1  0  0  0  0
  9 60  1  0  0  0  0
  9  5  2  0  0  0  0
 10  9  1  0  0  0  0
 11 14  1  0  0  0  0
 11 13  1  0  0  0  0
 12  8  1  0  0  0  0
 12 13  1  0  0  0  0
 13  7  2  0  0  0  0
 14 15  2  0  0  0  0
 15 16  1  0  0  0  0
 17 15  1  0  0  0  0
 17 18  1  0  0  0  0
 19 17  2  0  0  0  0
 20 19  1  0  0  0  0
 21 23  1  0  0  0  0
 21 19  1  0  0  0  0
 22 21  1  0  0  0  0
 23 14  1  0  0  0  0
 24 23  2  0  0  0  0
 24 25  1  0  0  0  0
 26 27  1  0  0  0  0
 27 29  2  0  0  0  0
 28 27  1  0  0  0  0
 29 30  1  0  0  0  0
 29 37  1  0  0  0  0
 30 31  1  0  0  0  0
 32 26  2  0  0  0  0
 32 59  1  0  0  0  0
 33 36  1  0  0  0  0
 33 34  1  0  0  0  0
 35 33  1  0  0  0  0
 37 33  1  0  0  0  0
 37 42  1  0  0  0  0
 38 37  1  0  0  0  0
 39 38  1  0  0  0  0
 40 38  1  0  0  0  0
 41 38  1  0  0  0  0
 42 45  1  0  0  0  0
 42 43  1  0  0  0  0
 42 44  1  0  0  0  0
 46 47  1  0  0  0  0
 46 55  1  0  0  0  0
 47 50  1  0  0  0  0
 47 48  1  0  0  0  0
 49 47  1  0  0  0  0
 51 54  1  0  0  0  0
 51 46  1  0  0  0  0
 52 51  1  0  0  0  0
 53 51  1  0  0  0  0
 55 57  1  0  0  0  0
 55 58  1  0  0  0  0
 56 55  1  0  0  0  0
 59 46  1  0  0  0  0
 59 30  2  0  0  0  0
 60 12  2  0  0  0  0
 61 60  1  0  0  0  0
M  CHG  1   2  -1
M  END
