3,4,5,6
q = -2.0, confidence = 0.862

 45 47  0  0  0  0  0  0  0  0999 V2000
   -2.2758    3.0479    0.9979 O   0  0  0  0  0  0  0  0  0  0  0  0
   -1.7571   -4.3088   -0.1241 O   0  5  0  0  0  0  0  0  0  0  0  0
   -1.3731   -2.2279   -0.8592 O   0  0  0  0  0  0  0  0  0  0  0  0
   -2.8951   -0.2155   -0.2178 N   0  0  0  0  0  2  0  0  0  0  0  0
   -0.8895    1.3558    0.1025 N   0  0  0  0  0  2  0  0  0  0  0  0
    0.7913   -0.8371   -0.0260 N   0  0  0  0  0  2  0  0  0  0  0  0
   -3.8587   -1.1101   -0.5225 C   0  0  0  0  0  3  0  0  0  0  0  0
   -3.4992   -2.0562   -0.9581 H   0  0  0  0  0  0  0  0  0  0  0  0
   -5.2079   -0.8280   -0.2687 C   0  0  0  0  0  0  0  0  0  0  0  0
   -5.9689   -1.5769   -0.5306 H   0  0  0  0  0  0  0  0  0  0  0  0
   -5.5623    0.3970    0.3183 C   0  0  0  0  0  0  0  0  0  0  0  0
   -6.6161    0.6307    0.5322 H   0  0  0  0  0  0  0  0  0  0  0  0
   -4.5503    1.3188    0.6230 C   0  0  0  0  0  0  0  0  0  0  0  0
   -4.7379    2.3040    1.0733 H   0  0  0  0  0  0  0  0  0  0  0  0
   -3.2279    0.9753    0.3315 C   0  0  0  0  0  0  0  0  0  0  0  0
   -2.0813    1.9198    0.5375 C   0  0  0  0  0  0  0  0  0  0  0  0
    0.2506    2.1207   -0.1057 C   0  0  0  0  0  0  0  0  0  0  0  0
    0.2022    3.5423   -0.1956 C   0  0  0  0  0  0  0  0  0  0  0  0
   -0.7542    4.0397   -0.0088 H   0  0  0  0  0  0  0  0  0  0  0  0
    1.3318    4.2958   -0.5099 C   0  0  0  0  0  0  0  0  0  0  0  0
    1.2350    5.3895   -0.5920 H   0  0  0  0  0  0  0  0  0  0  0  0
    2.5763    3.6769   -0.7257 C   0  0  0  0  0  0  0  0  0  0  0  0
    3.4668    4.2681   -0.9835 H   0  0  0  0  0  0  0  0  0  0  0  0
    2.6626    2.2942   -0.5990 C   0  0  0  0  0  3  0  0  0  0  0  0
    3.6296    1.7985   -0.7565 H   0  0  0  0  0  0  0  0  0  0  0  0
    1.5331    1.4892   -0.2822 C   0  0  0  0  0  0  0  0  0  0  0  0
    1.7547    0.0590   -0.0884 C   0  0  0  0  0  0  0  0  0  0  0  0
    1.1422   -2.2382    0.2917 C   0  0  0  0  0  0  0  0  0  0  0  0
    2.0284   -2.2451    0.9569 H   0  0  0  0  0  0  0  0  0  0  0  0
    1.4445   -2.7509   -0.6465 H   0  0  0  0  0  0  0  0  0  0  0  0
   -0.0049   -3.0067    0.9367 C   0  0  0  0  0  0  0  0  0  0  0  0
    0.3558   -3.9878    1.3024 H   0  0  0  0  0  0  0  0  0  0  0  0
   -0.3901   -2.4506    1.8192 H   0  0  0  0  0  0  0  0  0  0  0  0
   -1.1421   -3.2510   -0.0573 C   0  0  0  0  0  0  0  0  0  0  0  0
    3.1784   -0.3896    0.0753 C   0  0  0  0  0  0  0  0  0  0  0  0
    3.8806   -0.1064    1.2645 C   0  0  0  0  0  0  0  0  0  0  0  0
    3.3784    0.4540    2.0675 H   0  0  0  0  0  0  0  0  0  0  0  0
    5.2070   -0.5349    1.4193 C   0  0  0  0  0  0  0  0  0  0  0  0
    5.7453   -0.3164    2.3539 H   0  0  0  0  0  0  0  0  0  0  0  0
    5.8486   -1.2321    0.3830 C   0  0  0  0  0  0  0  0  0  0  0  0
    6.8915   -1.5619    0.5033 H   0  0  0  0  0  0  0  0  0  0  0  0
    5.1584   -1.5029   -0.8094 C   0  0  0  0  0  0  0  0  0  0  0  0
    5.6599   -2.0408   -1.6280 H   0  0  0  0  0  0  0  0  0  0  0  0
    3.8271   -1.0892   -0.9621 C   0  0  0  0  0  0  0  0  0  0  0  0
    3.2847   -1.2990   -1.8966 H   0  0  0  0  0  0  0  0  0  0  0  0
  2 34  1  0  0  0  0
  3 34  2  0  0  0  0
  4 15  1  0  0  0  0
  5 16  1  0  0  0  0
  6 28  1  0  0  0  0
  7  9  1  0  0  0  0
  7  4  1  0  0  0  0
  8  7  1  0  0  0  0
  9 11  2  0  0  0  0
 10  9  1  0  0  0  0
 11 12  1  0  0  0  0
 11 13  1  0  0  0  0
 13 14  1  0  0  0  0
 15 16  1  0  0  0  0
 15 13  2  0  0  0  0
 16  1  2  0  0  0  0
 17  5  1  0  0  0  0
 18 17  2  0  0  0  0
 18 19  1  0  0  0  0
 20 18  1  0  0  0  0
 21 20  1  0  0  0  0
 22 24  1  0  0  0  0
 22 20  2  0  0  0  0
 23 22  1  0  0  0  0
 24 26  1  0  0  0  0
 25 24  1  0  0  0  0
 26 17  1  0  0  0  0
 26 27  2  0  0  0  0
 27  6  1  0  0  0  0
 27 35  1  0  0  0  0
 28 31  1  0  0  0  0
 28 29  1  0  0  0  0
 30 28  1  0  0  0  0
 31 32  1  0  0  0  0
 31 33  1  0  0  0  0
 34 31  1  0  0  0  0
 35 36  1  0  0  0  0
 36 38  2  0  0  0  0
 36 37  1  0  0  0  0
 38 39  1  0  0  0  0
 40 41  1  0  0  0  0
 40 38  1  0  0  0  0
 42 40  2  0  0  0  0
 43 42  1  0  0  0  0
 44 42  1  0  0  0  0
 44 35  2  0  0  0  0
 45 44  1  0  0  0  0
M  CHG  1   2  -1
M  END
