1,2,4,6
q = -1.0

 44 45  0  0  0  0  0  0  0  0999 V2000
   -1.0465    2.3232    1.6007 N   0  0  0  0  0  2  0  0  0  0  0  0
   -1.2577   -0.1452    2.8808 N   0  0  0  0  0  0  0  0  0  0  0  0
   -0.4149   -0.4331    3.3952 H   0  0  0  0  0  0  0  0  0  0  0  0
   -1.7273   -1.2716    0.2913 N   0  0  0  0  0  0  0  0  0  0  0  0
   -1.1682   -1.7449   -0.4323 H   0  0  0  0  0  0  0  0  0  0  0  0
   -0.9738    1.2426   -1.1014 O   0  5  0  0  0  0  0  0  0  0  0  0
   -1.2820    3.4258    0.9328 C   0  0  0  0  0  3  0  0  0  0  0  0
   -1.4660    4.3541    1.5186 H   0  0  0  0  0  0  0  0  0  0  0  0
   -1.3385    3.5806   -0.4918 C   0  0  0  0  0  0  0  0  0  0  0  0
   -1.1894    2.4881   -1.4397 C   0  0  0  0  0  0  0  0  0  0  0  0
   -1.2976    2.8153   -2.8257 C   0  0  0  0  0  0  0  0  0  0  0  0
   -1.1917    1.9876   -3.5426 H   0  0  0  0  0  0  0  0  0  0  0  0
   -1.5290    4.1159   -3.2584 C   0  0  0  0  0  0  0  0  0  0  0  0
   -1.6032    4.3203   -4.3379 H   0  0  0  0  0  0  0  0  0  0  0  0
   -1.6736    5.1797   -2.3337 C   0  0  0  0  0  0  0  0  0  0  0  0
   -1.8585    6.2042   -2.6855 H   0  0  0  0  0  0  0  0  0  0  0  0
   -1.5817    4.9020   -0.9790 C   0  0  0  0  0  0  0  0  0  0  0  0
   -1.6952    5.7135   -0.2418 H   0  0  0  0  0  0  0  0  0  0  0  0
   -3.0608   -0.9700   -0.3198 C   0  0  0  0  0  0  0  0  0  0  0  0
   -2.8494   -0.2613   -1.1447 H   0  0  0  0  0  0  0  0  0  0  0  0
   -3.6662   -0.4218    0.4302 H   0  0  0  0  0  0  0  0  0  0  0  0
   -3.7897   -2.1980   -0.8063 C   0  0  0  0  0  0  0  0  0  0  0  0
   -3.4118   -2.8012   -2.0243 C   0  0  0  0  0  0  0  0  0  0  0  0
   -2.6289   -2.3336   -2.6445 H   0  0  0  0  0  0  0  0  0  0  0  0
   -4.0382   -3.9755   -2.4643 C   0  0  0  0  0  0  0  0  0  0  0  0
   -3.7412   -4.4310   -3.4208 H   0  0  0  0  0  0  0  0  0  0  0  0
   -5.0558   -4.5609   -1.6926 C   0  0  0  0  0  0  0  0  0  0  0  0
   -5.5522   -5.4789   -2.0408 H   0  0  0  0  0  0  0  0  0  0  0  0
   -5.4468   -3.9655   -0.4837 C   0  0  0  0  0  0  0  0  0  0  0  0
   -6.2517   -4.4141    0.1174 H   0  0  0  0  0  0  0  0  0  0  0  0
   -4.8158   -2.7912   -0.0440 C   0  0  0  0  0  0  0  0  0  0  0  0
   -5.1374   -2.3180    0.8983 H   0  0  0  0  0  0  0  0  0  0  0  0
   -1.0654    2.3060    3.0508 C   0  0  0  0  0  0  0  0  0  0  0  0
   -1.5336    3.2189    3.4809 H   0  0  0  0  0  0  0  0  0  0  0  0
   -0.0201    2.2674    3.4390 H   0  0  0  0  0  0  0  0  0  0  0  0
   -1.8280    1.0586    3.5161 C   0  0  0  0  0  0  0  0  0  0  0  0
   -1.8394    0.9951    4.6267 H   0  0  0  0  0  0  0  0  0  0  0  0
   -2.8821    1.1431    3.1806 H   0  0  0  0  0  0  0  0  0  0  0  0
   -2.1537   -1.3034    2.7242 C   0  0  0  0  0  0  0  0  0  0  0  0
   -3.1850   -0.9162    2.5941 H   0  0  0  0  0  0  0  0  0  0  0  0
   -2.1800   -1.9577    3.6229 H   0  0  0  0  0  0  0  0  0  0  0  0
   -1.7559   -2.1256    1.4961 C   0  0  0  0  0  0  0  0  0  0  0  0
   -0.7365   -2.5425    1.6360 H   0  0  0  0  0  0  0  0  0  0  0  0
   -2.4493   -2.9865    1.3764 H   0  0  0  0  0  0  0  0  0  0  0  0
  1 33  1  0  0  0  0
  2  3  1  0  0  0  0
  2 36  1  0  0  0  0
  4 42  1  0  0  0  0
  5  4  1  0  0  0  0
  7  8  1  0  0  0  0
  7  1  1  0  0  0  0
  9  7  1  0  0  0  0
 10  6  1  0  0  0  0
 10  9  2  0  0  0  0
 11 10  1  0  0  0  0
 12 11  1  0  0  0  0
 13 11  2  0  0  0  0
 13 15  1  0  0  0  0
 14 13  1  0  0  0  0
 15 17  2  0  0  0  0
 16 15  1  0  0  0  0
 17  9  1  0  0  0  0
 17 18  1  0  0  0  0
 19  4  1  0  0  0  0
 19 21  1  0  0  0  0
 20 19  1  0  0  0  0
 22 19  1  0  0  0  0
 22 31  1  0  0  0  0
 23 22  2  0  0  0  0
 24 23  1  0  0  0  0
 25 23  1  0  0  0  0
 25 27  2  0  0  0  0
 26 25  1  0  0  0  0
 27 29  1  0  0  0  0
 28 27  1  0  0  0  0
 29 31  2  0  0  0  0
 29 30  1  0  0  0  0
 31 32  1  0  0  0  0
 33 35  1  0  0  0  0
 33 34  1  0  0  0  0
 33 36  1  0  0  0  0
 36 37  1  0  0  0  0
 38 36  1  0  0  0  0
 39  2  1  0  0  0  0
 39 41  1  0  0  0  0
 40 39  1  0  0  0  0
 42 43  1  0  0  0  0
 42 39  1  0  0  0  0
 44 42  1  0  0  0  0
M  CHG  1   6  -1
M  END
