1,2,3,4
q = -1.0, confidence = 0.25

 37 39  0  0  1  0  0  0  0  0999 V2000
    1.0245   -1.5913   -0.2614 O   0  5  0  0  0  0  0  0  0  0  0  0
    0.9806    1.2229    0.0698 N   0  0  0  0  0  2  0  0  0  0  0  0
   -1.5447    0.9450   -0.1148 N   0  0  0  0  0  2  0  0  0  0  0  0
   -1.6540   -1.6528   -0.0435 N   0  0  0  0  0  2  0  0  0  0  0  0
    2.3592   -1.4241   -0.4251 C   0  0  0  0  0  0  0  0  0  0  0  0
    3.0964   -2.5875   -0.7397 C   0  0  0  0  0  0  0  0  0  0  0  0
    4.4832   -2.5327   -0.8952 C   0  0  0  0  0  0  0  0  0  0  0  0
    5.1602   -1.3088   -0.7404 C   0  0  0  0  0  0  0  0  0  0  0  0
    4.4314   -0.1559   -0.4452 C   0  0  0  0  0  0  0  0  0  0  0  0
    4.9219    0.8221   -0.3369 H   0  0  0  0  0  0  0  0  0  0  0  0
    3.0257   -0.1780   -0.2852 C   0  0  0  0  0  0  0  0  0  0  0  0
    2.3849    1.1610   -0.0621 C   0  0  0  0  0  0  0  0  0  0  0  0
    3.0850    2.1729   -0.0330 O   0  0  0  0  0  0  0  0  0  0  0  0
    0.2752    2.4580   -0.0972 C   0  0  0  0  0  0  0  0  0  0  0  0
    0.8157    3.7572   -0.1666 C   0  0  0  0  0  0  0  0  0  0  0  0
   -0.0385    4.8535   -0.3722 C   0  0  0  0  0  0  0  0  0  0  0  0
   -1.4229    4.6805   -0.5102 C   0  0  0  0  0  0  0  0  0  0  0  0
   -1.9826    3.3964   -0.4380 C   0  0  0  0  0  0  0  0  0  0  0  0
   -1.1353    2.2954   -0.2276 C   0  0  0  0  0  0  0  0  0  0  0  0
   -2.7716    0.4521   -0.5407 C   0  0  0  0  0  0  0  0  0  0  0  0
   -3.7348    1.0914   -0.9548 O   0  0  0  0  0  0  0  0  0  0  0  0
   -2.7944   -1.0539   -0.4843 C   0  0  1  0  0  3  0  0  0  0  0  0
   -3.9102   -1.8035   -0.8591 C   0  0  0  0  0  0  0  0  0  0  0  0
   -3.8485   -3.2020   -0.7485 C   0  0  0  0  0  0  0  0  0  0  0  0
   -2.6694   -3.8061   -0.2819 C   0  0  0  0  0  0  0  0  0  0  0  0
   -1.5729   -2.9999    0.0459 C   0  0  0  0  0  0  0  0  0  0  0  0
    2.5411   -3.5306   -0.8464 H   0  0  0  0  0  0  0  0  0  0  0  0
    5.0409   -3.4512   -1.1343 H   0  0  0  0  0  0  0  0  0  0  0  0
    6.2528   -1.2576   -0.8553 H   0  0  0  0  0  0  0  0  0  0  0  0
    1.8950    3.8906   -0.0556 H   0  0  0  0  0  0  0  0  0  0  0  0
    0.3974    5.8630   -0.4182 H   0  0  0  0  0  0  0  0  0  0  0  0
   -2.0789    5.5490   -0.6707 H   0  0  0  0  0  0  0  0  0  0  0  0
   -3.0596    3.2286   -0.5494 H   0  0  0  0  0  0  0  0  0  0  0  0
   -4.7975   -1.2621   -1.2167 H   0  0  0  0  0  0  0  0  0  0  0  0
   -4.7149   -3.8198   -1.0281 H   0  0  0  0  0  0  0  0  0  0  0  0
   -2.5865   -4.8977   -0.1858 H   0  0  0  0  0  0  0  0  0  0  0  0
   -0.5993   -3.4007    0.3636 H   0  0  0  0  0  0  0  0  0  0  0  0
  4 26  1  0  0  0  0
  5 11  1  0  0  0  0
  5  1  1  0  0  0  0
  6  5  2  0  0  0  0
  7  8  2  0  0  0  0
  7  6  1  0  0  0  0
  8  9  1  0  0  0  0
  9 10  1  0  0  0  0
  9 11  2  0  0  0  0
 11 12  1  0  0  0  0
 12 13  2  0  0  0  0
 12  2  1  0  0  0  0
 14  2  1  0  0  0  0
 15 14  1  0  0  0  0
 15 30  1  0  0  0  0
 16 15  2  0  0  0  0
 17 18  2  0  0  0  0
 17 16  1  0  0  0  0
 18 19  1  0  0  0  0
 19  3  1  0  0  0  0
 19 14  2  0  0  0  0
 20  3  1  0  0  0  0
 21 20  2  0  0  0  0
 22 20  1  6  0  0  0
 22  4  1  0  0  0  0
 23 24  2  0  0  0  0
 23 22  1  0  0  0  0
 24 25  1  0  0  0  0
 25 36  1  0  0  0  0
 25 26  2  0  0  0  0
 26 37  1  0  0  0  0
 27  6  1  0  0  0  0
 28  7  1  0  0  0  0
 29  8  1  0  0  0  0
 31 16  1  0  0  0  0
 32 17  1  0  0  0  0
 33 18  1  0  0  0  0
 34 23  1  0  0  0  0
 35 24  1  0  0  0  0
M  CHG  1   1  -1
M  END
