1,2,3,5
q = -1.0, confidence = 0.03

 31 31  0  0  1  0  0  0  0  0999 V2000
   -0.7555   -1.1911   -0.1932 O   0  0  0  0  0  1  0  0  0  0  0  0
    0.0816    1.4177    0.0375 N   0  0  0  0  0  2  0  0  0  0  0  0
    2.6030    0.6420    0.0465 N   0  0  0  0  0  0  0  0  0  0  0  0
    2.9418    0.7252    1.0213 H   0  0  0  0  0  0  0  0  0  0  0  0
    1.8794   -1.9686   -0.3908 N   0  0  0  0  0  0  0  0  0  0  0  0
    1.6698   -2.2317   -1.3670 H   0  0  0  0  0  0  0  0  0  0  0  0
    1.6293   -2.8078    0.1555 H   0  0  0  0  0  0  0  0  0  0  0  0
   -1.9781   -0.6903   -0.1551 C   0  0  2  0  0  3  0  0  0  0  0  0
   -3.0801   -1.5885   -0.2224 C   0  0  0  0  0  0  0  0  0  0  0  0
   -2.8546   -2.6632   -0.2838 H   0  0  0  0  0  0  0  0  0  0  0  0
   -4.3899   -1.1219   -0.2166 C   0  0  0  0  0  0  0  0  0  0  0  0
   -5.2221   -1.8403   -0.2673 H   0  0  0  0  0  0  0  0  0  0  0  0
   -4.6636    0.2676   -0.1505 C   0  0  0  0  0  0  0  0  0  0  0  0
   -5.7025    0.6268   -0.1496 H   0  0  0  0  0  0  0  0  0  0  0  0
   -3.6106    1.1691   -0.0910 C   0  0  0  0  0  0  0  0  0  0  0  0
   -3.8111    2.2512   -0.0442 H   0  0  0  0  0  0  0  0  0  0  0  0
   -2.2528    0.7302   -0.0864 C   0  0  0  0  0  0  0  0  0  0  0  0
   -1.2107    1.7078   -0.0452 C   0  0  0  0  0  0  0  0  0  0  0  0
   -1.5078    2.7736   -0.0983 H   0  0  0  0  0  0  0  0  0  0  0  0
    1.0686    2.5040    0.1456 C   0  0  0  0  0  0  0  0  0  0  0  0
    1.2390    2.7526    1.2202 H   0  0  0  0  0  0  0  0  0  0  0  0
    0.7169    3.4374   -0.3433 H   0  0  0  0  0  0  0  0  0  0  0  0
    2.3636    2.0060   -0.4880 C   0  0  0  0  0  0  0  0  0  0  0  0
    2.2329    1.9143   -1.5858 H   0  0  0  0  0  0  0  0  0  0  0  0
    3.2168    2.6935   -0.2990 H   0  0  0  0  0  0  0  0  0  0  0  0
    3.5528   -0.2190   -0.6959 C   0  0  0  0  0  0  0  0  0  0  0  0
    4.6129    0.0861   -0.5515 H   0  0  0  0  0  0  0  0  0  0  0  0
    3.3261   -0.1167   -1.7782 H   0  0  0  0  0  0  0  0  0  0  0  0
    3.3237   -1.6554   -0.2359 C   0  0  0  0  0  0  0  0  0  0  0  0
    3.9829   -2.3589   -0.7871 H   0  0  0  0  0  0  0  0  0  0  0  0
    3.5744   -1.7483    0.8412 H   0  0  0  0  0  0  0  0  0  0  0  0
  2 20  1  0  0  0  0
  3  4  1  0  0  0  0
  5 29  1  0  0  0  0
  5  7  1  0  0  0  0
  6  5  1  0  0  0  0
  8  1  1  6  0  0  0
  8 17  1  0  0  0  0
  9 11  2  0  0  0  0
  9  8  1  0  0  0  0
 10  9  1  0  0  0  0
 11 13  1  0  0  0  0
 12 11  1  0  0  0  0
 13 14  1  0  0  0  0
 13 15  2  0  0  0  0
 15 17  1  0  0  0  0
 15 16  1  0  0  0  0
 17 18  2  0  0  0  0
 18  2  1  0  0  0  0
 19 18  1  0  0  0  0
 20 21  1  0  0  0  0
 22 20  1  0  0  0  0
 23 25  1  0  0  0  0
 23  3  1  0  0  0  0
 23 20  1  0  0  0  0
 24 23  1  0  0  0  0
 26 27  1  0  0  0  0
 26 29  1  0  0  0  0
 26  3  1  0  0  0  0
 28 26  1  0  0  0  0
 29 31  1  0  0  0  0
 30 29  1  0  0  0  0
M  END
