2,3,4,6
q = -1.0, confidence = 0.418

 34 34  0  0  1  0  0  0  0  0999 V2000
    1.2756   -2.3005   -0.2032 S   0  0  0  0  0  0  0  0  0  0  0  0
    0.6557   -1.2691   -1.3686 O   0  0  0  0  0  1  0  0  0  0  0  0
    2.2604    0.4888    0.0605 N   0  0  0  0  0  2  0  0  0  0  0  0
    0.0482    1.7551   -0.3218 N   0  0  0  0  0  2  0  0  0  0  0  0
   -2.6850    0.4529    0.0760 N   0  0  0  0  0  0  0  0  0  0  0  0
   -1.7509   -0.5482    0.0222 N   0  0  0  0  0  2  0  0  0  0  0  0
    3.0451   -1.8365   -0.1551 C   0  0  0  0  0  0  0  0  0  0  0  0
    3.4248   -2.2655    0.7977 H   0  0  0  0  0  0  0  0  0  0  0  0
    3.5879   -2.3236   -0.9888 H   0  0  0  0  0  0  0  0  0  0  0  0
    3.3346   -0.3312   -0.2017 C   0  0  0  0  0  0  0  0  0  0  0  0
    2.4753    1.9174   -0.1280 C   0  0  0  0  0  0  0  0  0  0  0  0
    3.1890    2.1095   -0.9567 H   0  0  0  0  0  0  0  0  0  0  0  0
    2.9250    2.3892    0.7747 H   0  0  0  0  0  0  0  0  0  0  0  0
    1.1550    2.6160   -0.4139 C   0  0  0  0  0  0  0  0  0  0  0  0
   -1.2494    2.3685   -0.5771 C   0  0  0  0  0  0  0  0  0  0  0  0
   -1.5728    2.2035   -1.6295 H   0  0  0  0  0  0  0  0  0  0  0  0
   -1.1442    3.4653   -0.4383 H   0  0  0  0  0  0  0  0  0  0  0  0
   -2.3030    1.8266    0.3793 C   0  0  0  0  0  0  0  0  0  0  0  0
   -1.9310    1.8802    1.4242 H   0  0  0  0  0  0  0  0  0  0  0  0
   -3.2255    2.4315    0.3135 H   0  0  0  0  0  0  0  0  0  0  0  0
   -3.9377   -0.0177   -0.1786 C   0  0  1  0  0  3  0  0  0  0  0  0
   -3.8036   -1.3893   -0.4123 C   0  0  0  0  0  0  0  0  0  0  0  0
   -4.6076   -2.0935   -0.6481 H   0  0  0  0  0  0  0  0  0  0  0  0
   -2.4336   -1.6862   -0.2783 C   0  0  0  0  0  0  0  0  0  0  0  0
   -1.7843   -3.0171   -0.4300 C   0  0  0  0  0  0  0  0  0  0  0  0
   -1.1200   -3.0289   -1.3175 H   0  0  0  0  0  0  0  0  0  0  0  0
   -2.5524   -3.8034   -0.5458 H   0  0  0  0  0  0  0  0  0  0  0  0
   -1.1614   -3.2586    0.4539 H   0  0  0  0  0  0  0  0  0  0  0  0
   -5.1596    0.8406   -0.1764 C   0  0  0  0  0  0  0  0  0  0  0  0
   -5.1046    1.6472   -0.9366 H   0  0  0  0  0  0  0  0  0  0  0  0
   -5.3318    1.3187    0.8100 H   0  0  0  0  0  0  0  0  0  0  0  0
   -6.0452    0.2218   -0.4086 H   0  0  0  0  0  0  0  0  0  0  0  0
    4.4626    0.0677   -0.4803 O   0  0  0  0  0  0  0  0  0  0  0  0
    1.0666    3.8085   -0.6793 O   0  0  0  0  0  0  0  0  0  0  0  0
  1  7  1  0  0  0  0
  2  1  1  0  0  0  0
  5 18  1  0  0  0  0
  6  5  1  0  0  0  0
  7  8  1  0  0  0  0
  9  7  1  0  0  0  0
 10  7  1  0  0  0  0
 10  3  1  0  0  0  0
 11  3  1  0  0  0  0
 11 13  1  0  0  0  0
 12 11  1  0  0  0  0
 14  4  1  0  0  0  0
 14 11  1  0  0  0  0
 15 17  1  0  0  0  0
 15  4  1  0  0  0  0
 15 18  1  0  0  0  0
 16 15  1  0  0  0  0
 18 19  1  0  0  0  0
 20 18  1  0  0  0  0
 21 29  1  1  0  0  0
 21  5  1  0  0  0  0
 22 24  2  0  0  0  0
 22 21  1  0  0  0  0
 23 22  1  0  0  0  0
 24  6  1  0  0  0  0
 25 24  1  0  0  0  0
 25 28  1  0  0  0  0
 26 25  1  0  0  0  0
 27 25  1  0  0  0  0
 29 31  1  0  0  0  0
 30 29  1  0  0  0  0
 32 29  1  0  0  0  0
 33 10  2  0  0  0  0
 34 14  2  0  0  0  0
M  END
