1,3,4,5
q = -1.0, confidence = 0.002

 28 27  0  0  0  0  0  0  0  0999 V2000
   -1.0393   -0.3463   -1.5099 O   0  5  0  0  0  0  0  0  0  0  0  0
   -3.2610   -0.1815   -1.8621 O   0  0  0  0  0  0  0  0  0  0  0  0
   -1.2579   -0.0742    1.1535 N   0  0  0  0  0  0  0  0  0  0  0  0
    0.3627    1.6726   -0.6301 N   0  0  0  0  0  0  0  0  0  0  0  0
    1.7135   -0.5356   -1.3839 N   0  0  0  0  0  0  0  0  0  0  0  0
   -2.3001   -0.3120   -1.1199 C   0  0  0  0  0  0  0  0  0  0  0  0
   -2.4684   -0.4912    0.4022 C   0  0  0  0  0  0  0  0  0  0  0  0
   -1.3777    1.2048    1.8831 C   0  0  0  0  0  0  0  0  0  0  0  0
   -1.3167    2.4528    1.0019 C   0  0  0  0  0  0  0  0  0  0  0  0
    0.0487    2.7063    0.3631 C   0  0  0  0  0  0  0  0  0  0  0  0
    1.6138    1.8646   -1.3915 C   0  0  0  0  0  0  0  0  0  0  0  0
    1.7855    0.6320   -2.2744 C   0  0  0  0  0  0  0  0  0  0  0  0
   -2.6263   -1.5731    0.5864 H   0  0  0  0  0  0  0  0  0  0  0  0
   -3.3742    0.0465    0.7471 H   0  0  0  0  0  0  0  0  0  0  0  0
   -0.9882   -0.8273    1.8166 H   0  0  0  0  0  0  0  0  0  0  0  0
   -2.3346    1.2017    2.4504 H   0  0  0  0  0  0  0  0  0  0  0  0
   -0.5518    1.2220    2.6201 H   0  0  0  0  0  0  0  0  0  0  0  0
   -2.1017    2.4166    0.2132 H   0  0  0  0  0  0  0  0  0  0  0  0
   -1.5692    3.3272    1.6355 H   0  0  0  0  0  0  0  0  0  0  0  0
    0.8492    2.6997    1.1329 H   0  0  0  0  0  0  0  0  0  0  0  0
    0.0632    3.7119   -0.1172 H   0  0  0  0  0  0  0  0  0  0  0  0
   -0.4168    1.5939   -1.3084 H   0  0  0  0  0  0  0  0  0  0  0  0
    1.5911    2.8032   -1.9890 H   0  0  0  0  0  0  0  0  0  0  0  0
    2.4478    1.9318   -0.6635 H   0  0  0  0  0  0  0  0  0  0  0  0
    2.7414    0.6759   -2.8383 H   0  0  0  0  0  0  0  0  0  0  0  0
    0.9527    0.5589   -3.0027 H   0  0  0  0  0  0  0  0  0  0  0  0
    2.5577   -0.5962   -0.7821 H   0  0  0  0  0  0  0  0  0  0  0  0
    1.5291   -1.4447   -1.8400 H   0  0  0  0  0  0  0  0  0  0  0  0
  1  6  1  0  0  0  0
  2  6  2  0  0  0  0
  3 15  1  0  0  0  0
  3  8  1  0  0  0  0
  4 10  1  0  0  0  0
  5 27  1  0  0  0  0
  6  7  1  0  0  0  0
  7 13  1  0  0  0  0
  7 14  1  0  0  0  0
  7  3  1  0  0  0  0
  8 16  1  0  0  0  0
  8 17  1  0  0  0  0
  9 19  1  0  0  0  0
  9  8  1  0  0  0  0
 10  9  1  0  0  0  0
 10 20  1  0  0  0  0
 11 24  1  0  0  0  0
 11  4  1  0  0  0  0
 12 11  1  0  0  0  0
 12  5  1  0  0  0  0
 18  9  1  0  0  0  0
 21 10  1  0  0  0  0
 22  4  1  0  0  0  0
 23 11  1  0  0  0  0
 25 12  1  0  0  0  0
 26 12  1  0  0  0  0
 28  5  1  0  0  0  0
M  CHG  1   1  -1
M  END
