1,3,4,5
q = -1.0, confidence = 0.008

 28 27  0  0  0  0  0  0  0  0999 V2000
   -0.8197   -1.3385   -1.1325 O   0  5  0  0  0  0  0  0  0  0  0  0
   -2.9991   -1.7725   -1.5319 O   0  0  0  0  0  0  0  0  0  0  0  0
   -1.3441    0.6825    0.6068 N   0  0  0  0  0  0  0  0  0  0  0  0
    0.1237   -1.5060    1.4284 N   0  0  0  0  0  0  0  0  0  0  0  0
    0.5715    0.9686   -1.5835 N   0  0  0  0  0  0  0  0  0  0  0  0
   -2.1030   -1.1058   -1.0331 C   0  0  0  0  0  0  0  0  0  0  0  0
   -2.4494    0.1850   -0.2550 C   0  0  0  0  0  0  0  0  0  0  0  0
   -1.5025    0.1662    1.9954 C   0  0  0  0  0  0  0  0  0  0  0  0
   -1.2173   -1.3311    2.0074 C   0  0  0  0  0  0  0  0  0  0  0  0
   -1.2424    2.1660    0.6046 C   0  0  0  0  0  0  0  0  0  0  0  0
   -0.9626    2.7830   -0.7677 C   0  0  0  0  0  0  0  0  0  0  0  0
    0.3817    2.4173   -1.3959 C   0  0  0  0  0  0  0  0  0  0  0  0
    0.3415   -2.4475    1.0655 H   0  0  0  0  0  0  0  0  0  0  0  0
    0.8487   -1.2099    2.1073 H   0  0  0  0  0  0  0  0  0  0  0  0
    1.5496    0.7290   -1.8586 H   0  0  0  0  0  0  0  0  0  0  0  0
   -0.0482    0.5818   -2.3132 H   0  0  0  0  0  0  0  0  0  0  0  0
   -3.3773    0.0303    0.3343 H   0  0  0  0  0  0  0  0  0  0  0  0
   -2.6917    0.9451   -1.0214 H   0  0  0  0  0  0  0  0  0  0  0  0
   -0.7507    0.6792    2.6263 H   0  0  0  0  0  0  0  0  0  0  0  0
   -2.5196    0.3981    2.3844 H   0  0  0  0  0  0  0  0  0  0  0  0
   -1.9532   -1.8924    1.3988 H   0  0  0  0  0  0  0  0  0  0  0  0
   -1.2799   -1.7247    3.0443 H   0  0  0  0  0  0  0  0  0  0  0  0
   -2.1882    2.5926    1.0134 H   0  0  0  0  0  0  0  0  0  0  0  0
   -0.4307    2.4337    1.3112 H   0  0  0  0  0  0  0  0  0  0  0  0
   -1.7909    2.5581   -1.4737 H   0  0  0  0  0  0  0  0  0  0  0  0
   -0.9883    3.8847   -0.6398 H   0  0  0  0  0  0  0  0  0  0  0  0
    1.2128    2.7604   -0.7516 H   0  0  0  0  0  0  0  0  0  0  0  0
    0.4817    2.9410   -2.3715 H   0  0  0  0  0  0  0  0  0  0  0  0
  1  6  1  0  0  0  0
  2  6  2  0  0  0  0
  3  8  1  0  0  0  0
  4  9  1  0  0  0  0
  4 14  1  0  0  0  0
  5 12  1  0  0  0  0
  6  7  1  0  0  0  0
  7 17  1  0  0  0  0
  7  3  1  0  0  0  0
  8  9  1  0  0  0  0
  8 20  1  0  0  0  0
  8 19  1  0  0  0  0
  9 22  1  0  0  0  0
 10  3  1  0  0  0  0
 10 23  1  0  0  0  0
 10 24  1  0  0  0  0
 11 26  1  0  0  0  0
 11 10  1  0  0  0  0
 12 11  1  0  0  0  0
 12 27  1  0  0  0  0
 13  4  1  0  0  0  0
 15  5  1  0  0  0  0
 16  5  1  0  0  0  0
 18  7  1  0  0  0  0
 21  9  1  0  0  0  0
 25 11  1  0  0  0  0
 28 12  1  0  0  0  0
M  CHG  1   1  -1
M  END
