2,5,6,7
q = -2.0, confidence = 0.822

 73 78  0  0  1  0  0  0  0  0999 V2000
   -0.5917   -2.9537   -2.6154 O   0  5  0  0  0  0  0  0  0  0  0  0
    0.4140   -1.0398   -1.9576 O   0  0  0  0  0  0  0  0  0  0  0  0
    1.2544    3.1431    1.6666 O   0  0  0  0  0  0  0  0  0  0  0  0
    0.8089   -5.0655    0.5267 O   0  0  0  0  0  0  0  0  0  0  0  0
   -1.6229   -0.1214   -0.7099 N   0  0  0  0  0  2  0  0  0  0  0  0
   -0.1178    2.0126    0.1288 N   0  0  0  0  0  2  0  0  0  0  0  0
    2.0451    0.8261   -0.9411 N   0  0  0  0  0  0  0  0  0  0  0  0
   -1.0744   -3.7380    0.1236 N   0  0  0  0  0  0  0  0  0  0  0  0
   -0.5589   -1.9206   -1.9584 C   0  0  0  0  0  0  0  0  0  0  0  0
   -1.6815   -1.5591   -0.9727 C   0  0  1  0  0  0  0  0  0  0  0  0
   -2.6495   -1.8557   -1.4210 H   0  0  0  0  0  0  0  0  0  0  0  0
   -2.6742    0.5553   -0.2890 C   0  0  0  0  0  0  0  0  0  0  0  0
   -2.5861    1.9227    0.1953 C   0  0  0  0  0  0  0  0  0  0  0  0
   -3.8061    2.6137    0.4561 C   0  0  0  0  0  3  0  0  0  0  0  0
   -4.7510    2.1060    0.2196 H   0  0  0  0  0  0  0  0  0  0  0  0
   -3.8329    3.8956    0.9878 C   0  0  0  0  0  0  0  0  0  0  0  0
   -4.7913    4.4023    1.1714 H   0  0  0  0  0  0  0  0  0  0  0  0
   -2.6091    4.5271    1.2912 C   0  0  0  0  0  0  0  0  0  0  0  0
   -2.6015    5.5399    1.7230 H   0  0  0  0  0  0  0  0  0  0  0  0
   -1.3968    3.8898    1.0493 C   0  0  0  0  0  0  0  0  0  0  0  0
   -0.4581    4.3883    1.3116 H   0  0  0  0  0  0  0  0  0  0  0  0
   -1.3320    2.5863    0.4708 C   0  0  0  0  0  0  0  0  0  0  0  0
    1.0916    2.4736    0.6494 C   0  0  0  0  0  0  0  0  0  0  0  0
    2.2632    2.1421   -0.2699 C   0  0  2  0  0  0  0  0  0  0  0  0
    3.1877    2.1242    0.3364 H   0  0  0  0  0  0  0  0  0  0  0  0
    2.3826    3.1798   -1.4227 C   0  0  0  0  0  0  0  0  0  0  0  0
    1.7419    4.0657   -1.2480 H   0  0  0  0  0  0  0  0  0  0  0  0
    3.4298    3.5363   -1.4849 H   0  0  0  0  0  0  0  0  0  0  0  0
    2.0028    2.3982   -2.6918 C   0  0  0  0  0  0  0  0  0  0  0  0
    0.9039    2.4036   -2.8441 H   0  0  0  0  0  0  0  0  0  0  0  0
    2.4783    2.8018   -3.6064 H   0  0  0  0  0  0  0  0  0  0  0  0
    2.4739    0.9889   -2.3602 C   0  0  0  0  0  0  0  0  0  0  0  0
    3.5834    0.9281   -2.4141 H   0  0  0  0  0  0  0  0  0  0  0  0
    2.0320    0.1757   -2.9648 H   0  0  0  0  0  0  0  0  0  0  0  0
    2.6553   -0.3430   -0.2203 C   0  0  0  0  0  0  0  0  0  0  0  0
    2.1580   -0.3964    0.7657 H   0  0  0  0  0  0  0  0  0  0  0  0
    2.3553   -1.2382   -0.7951 H   0  0  0  0  0  0  0  0  0  0  0  0
    4.1532   -0.2857   -0.0361 C   0  0  0  0  0  0  0  0  0  0  0  0
    4.7099    0.2727    1.1343 C   0  0  0  0  0  0  0  0  0  0  0  0
    4.0399    0.6416    1.9274 H   0  0  0  0  0  0  0  0  0  0  0  0
    6.1005    0.3417    1.3063 C   0  0  0  0  0  0  0  0  0  0  0  0
    6.5176    0.7782    2.2265 H   0  0  0  0  0  0  0  0  0  0  0  0
    6.9567   -0.1549    0.3108 C   0  0  0  0  0  0  0  0  0  0  0  0
    8.0478   -0.1045    0.4453 H   0  0  0  0  0  0  0  0  0  0  0  0
    6.4160   -0.7317   -0.8494 C   0  0  0  0  0  0  0  0  0  0  0  0
    7.0820   -1.1418   -1.6238 H   0  0  0  0  0  0  0  0  0  0  0  0
    5.0250   -0.7991   -1.0187 C   0  0  0  0  0  0  0  0  0  0  0  0
    4.6041   -1.2760   -1.9178 H   0  0  0  0  0  0  0  0  0  0  0  0
   -4.0107   -0.1272   -0.2620 C   0  0  0  0  0  0  0  0  0  0  0  0
   -4.7253   -0.3384   -1.4589 C   0  0  0  0  0  0  0  0  0  0  0  0
   -4.3020    0.0165   -2.4110 H   0  0  0  0  0  0  0  0  0  0  0  0
   -5.9665   -0.9916   -1.4344 C   0  0  0  0  0  0  0  0  0  0  0  0
   -6.5177   -1.1505   -2.3734 H   0  0  0  0  0  0  0  0  0  0  0  0
   -6.5028   -1.4417   -0.2174 C   0  0  0  0  0  0  0  0  0  0  0  0
   -7.4748   -1.9571   -0.2005 H   0  0  0  0  0  0  0  0  0  0  0  0
   -5.7985   -1.2292    0.9785 C   0  0  0  0  0  0  0  0  0  0  0  0
   -6.2165   -1.5762    1.9354 H   0  0  0  0  0  0  0  0  0  0  0  0
   -4.5599   -0.5711    0.9584 C   0  0  0  0  0  0  0  0  0  0  0  0
   -4.0109   -0.3910    1.8954 H   0  0  0  0  0  0  0  0  0  0  0  0
   -1.5206   -2.3781    0.3670 C   0  0  2  0  0  0  0  0  0  0  0  0
   -2.5221   -2.3643    0.8548 H   0  0  0  0  0  0  0  0  0  0  0  0
    0.1650   -4.0398    0.6877 C   0  0  0  0  0  0  0  0  0  0  0  0
    0.5019   -2.8485    1.5306 C   0  0  0  0  0  0  0  0  0  0  0  0
   -0.4783   -1.8602    1.3449 C   0  0  0  0  0  0  0  0  0  0  0  0
   -0.4116   -0.6596    2.0677 C   0  0  0  0  0  0  0  0  0  0  0  0
   -1.1797    0.1205    1.9745 H   0  0  0  0  0  0  0  0  0  0  0  0
    0.6764   -0.4632    2.9386 C   0  0  0  0  0  0  0  0  0  0  0  0
    0.7557    0.4879    3.4866 H   0  0  0  0  0  0  0  0  0  0  0  0
    1.6664   -1.4545    3.1038 C   0  0  0  0  0  0  0  0  0  0  0  0
    2.5064   -1.2734    3.7916 H   0  0  0  0  0  0  0  0  0  0  0  0
    1.5830   -2.6674    2.4011 C   0  0  0  0  0  0  0  0  0  0  0  0
    2.3308   -3.4661    2.5178 H   0  0  0  0  0  0  0  0  0  0  0  0
   -1.3521   -4.2266   -0.7324 H   0  0  0  0  0  0  0  0  0  0  0  0
  1  9  1  0  0  0  0
  4 62  2  0  0  0  0
  5 12  1  0  0  0  0
  6 22  1  0  0  0  0
  6 23  1  0  0  0  0
  7 24  1  0  0  0  0
  7 35  1  0  0  0  0
  8 60  1  0  0  0  0
  8 62  1  0  0  0  0
  9  2  2  0  0  0  0
  9 10  1  0  0  0  0
 10 11  1  6  0  0  0
 10  5  1  0  0  0  0
 10 60  1  0  0  0  0
 12 49  1  0  0  0  0
 12 13  2  0  0  0  0
 13 14  1  0  0  0  0
 13 22  1  0  0  0  0
 14 16  1  0  0  0  0
 15 14  1  0  0  0  0
 16 17  1  0  0  0  0
 16 18  2  0  0  0  0
 18 19  1  0  0  0  0
 20 18  1  0  0  0  0
 20 21  1  0  0  0  0
 22 20  2  0  0  0  0
 23  3  2  0  0  0  0
 24 25  1  1  0  0  0
 24 23  1  0  0  0  0
 26 27  1  0  0  0  0
 26 24  1  0  0  0  0
 28 26  1  0  0  0  0
 29 32  1  0  0  0  0
 29 26  1  0  0  0  0
 30 29  1  0  0  0  0
 31 29  1  0  0  0  0
 32  7  1  0  0  0  0
 33 32  1  0  0  0  0
 34 32  1  0  0  0  0
 35 38  1  0  0  0  0
 35 36  1  0  0  0  0
 37 35  1  0  0  0  0
 38 39  1  0  0  0  0
 39 41  2  0  0  0  0
 39 40  1  0  0  0  0
 41 42  1  0  0  0  0
 43 44  1  0  0  0  0
 43 41  1  0  0  0  0
 45 43  2  0  0  0  0
 46 45  1  0  0  0  0
 47 45  1  0  0  0  0
 47 38  2  0  0  0  0
 48 47  1  0  0  0  0
 49 58  1  0  0  0  0
 50 52  1  0  0  0  0
 50 49  2  0  0  0  0
 51 50  1  0  0  0  0
 52 54  2  0  0  0  0
 53 52  1  0  0  0  0
 54 55  1  0  0  0  0
 54 56  1  0  0  0  0
 56 57  1  0  0  0  0
 58 56  2  0  0  0  0
 58 59  1  0  0  0  0
 60 61  1  1  0  0  0
 60 64  1  0  0  0  0
 62 63  1  0  0  0  0
 63 71  1  0  0  0  0
 64 63  2  0  0  0  0
 64 65  1  0  0  0  0
 65 67  2  0  0  0  0
 66 65  1  0  0  0  0
 67 69  1  0  0  0  0
 67 68  1  0  0  0  0
 69 70  1  0  0  0  0
 71 72  1  0  0  0  0
 71 69  2  0  0  0  0
 73  8  1  0  0  0  0
M  CHG  1   1  -1
M  END
