2,5,6,7
q = -2.0, confidence = 0.854

 73 78  0  0  1  0  0  0  0  0999 V2000
    2.6892   -0.5643    2.4495 O   0  5  0  0  0  0  0  0  0  0  0  0
    0.7494   -1.3228    1.5789 O   0  0  0  0  0  0  0  0  0  0  0  0
   -3.2387   -1.7238   -2.4276 O   0  0  0  0  0  0  0  0  0  0  0  0
    2.7932   -3.0014   -1.8646 O   0  0  0  0  0  0  0  0  0  0  0  0
    0.2832    0.7419    0.1661 N   0  0  0  0  0  2  0  0  0  0  0  0
   -1.8941   -0.5070   -0.9347 N   0  0  0  0  0  2  0  0  0  0  0  0
   -1.3949   -2.6369    0.5879 N   0  0  0  0  0  0  0  0  0  0  0  0
    2.1180   -0.8248   -1.3726 N   0  0  0  0  0  0  0  0  0  0  0  0
    1.7590   -0.4816    1.6623 C   0  0  0  0  0  0  0  0  0  0  0  0
    1.6760    0.6425    0.6088 C   0  0  1  0  0  0  0  0  0  0  0  0
    2.0424    1.5855    1.0569 H   0  0  0  0  0  0  0  0  0  0  0  0
   -0.2454    1.8692   -0.2661 C   0  0  0  0  0  0  0  0  0  0  0  0
   -1.5748    1.9395   -0.8480 C   0  0  0  0  0  0  0  0  0  0  0  0
   -2.1298    3.2338   -1.0636 C   0  0  0  0  0  0  0  0  0  0  0  0
   -1.5513    4.1080   -0.7355 H   0  0  0  0  0  0  0  0  0  0  0  0
   -3.3704    3.4188   -1.6599 C   0  0  0  0  0  0  0  0  0  0  0  0
   -3.7753    4.4312   -1.8021 H   0  0  0  0  0  0  0  0  0  0  0  0
   -4.0848    2.2831   -2.0909 C   0  0  0  0  0  0  0  0  0  0  0  0
   -5.0632    2.3991   -2.5825 H   0  0  0  0  0  0  0  0  0  0  0  0
   -3.5754    1.0018   -1.9043 C   0  0  0  0  0  0  0  0  0  0  0  0
   -4.1335    0.1321   -2.2635 H   0  0  0  0  0  0  0  0  0  0  0  0
   -2.3302    0.7737   -1.2457 C   0  0  2  0  0  3  0  0  0  0  0  0
   -2.5152   -1.6438   -1.4365 C   0  0  0  0  0  0  0  0  0  0  0  0
   -2.2646   -2.9039   -0.6065 C   0  0  1  0  0  0  0  0  0  0  0  0
   -3.2723   -3.2301   -0.2721 H   0  0  0  0  0  0  0  0  0  0  0  0
   -1.5792   -4.0432   -1.4003 C   0  0  0  0  0  0  0  0  0  0  0  0
   -2.1266   -4.9925   -1.2337 H   0  0  0  0  0  0  0  0  0  0  0  0
   -1.6080   -3.8355   -2.4867 H   0  0  0  0  0  0  0  0  0  0  0  0
   -0.1687   -4.1304   -0.8038 C   0  0  0  0  0  0  0  0  0  0  0  0
    0.2851   -5.1343   -0.9090 H   0  0  0  0  0  0  0  0  0  0  0  0
    0.5398   -3.4225   -1.2799 H   0  0  0  0  0  0  0  0  0  0  0  0
   -0.4110   -3.7662    0.6527 C   0  0  0  0  0  0  0  0  0  0  0  0
   -0.8953   -4.6129    1.1922 H   0  0  0  0  0  0  0  0  0  0  0  0
    0.4781   -3.4359    1.2195 H   0  0  0  0  0  0  0  0  0  0  0  0
   -2.1369   -2.4776    1.8789 C   0  0  0  0  0  0  0  0  0  0  0  0
   -2.8075   -3.3571    2.0105 H   0  0  0  0  0  0  0  0  0  0  0  0
   -1.3672   -2.5016    2.6740 H   0  0  0  0  0  0  0  0  0  0  0  0
   -2.9123   -1.1815    1.9463 C   0  0  0  0  0  0  0  0  0  0  0  0
   -2.2860   -0.0196    2.4477 C   0  0  0  0  0  0  0  0  0  0  0  0
   -1.2765   -0.0980    2.8791 H   0  0  0  0  0  0  0  0  0  0  0  0
   -2.9388    1.2197    2.3940 C   0  0  0  0  0  0  0  0  0  0  0  0
   -2.4367    2.1200    2.7800 H   0  0  0  0  0  0  0  0  0  0  0  0
   -4.2264    1.3165    1.8412 C   0  0  0  0  0  0  0  0  0  0  0  0
   -4.7283    2.2933    1.7769 H   0  0  0  0  0  0  0  0  0  0  0  0
   -4.8687    0.1625    1.3703 C   0  0  0  0  0  0  0  0  0  0  0  0
   -5.8810    0.2290    0.9445 H   0  0  0  0  0  0  0  0  0  0  0  0
   -4.2169   -1.0800    1.4307 C   0  0  0  0  0  0  0  0  0  0  0  0
   -4.7281   -1.9802    1.0547 H   0  0  0  0  0  0  0  0  0  0  0  0
    0.5575    3.1314   -0.1514 C   0  0  0  0  0  0  0  0  0  0  0  0
    1.1746    3.6952   -1.2860 C   0  0  0  0  0  0  0  0  0  0  0  0
    1.0368    3.2186   -2.2685 H   0  0  0  0  0  0  0  0  0  0  0  0
    1.9499    4.8581   -1.1639 C   0  0  0  0  0  0  0  0  0  0  0  0
    2.4322    5.2882   -2.0546 H   0  0  0  0  0  0  0  0  0  0  0  0
    2.1068    5.4728    0.0886 C   0  0  0  0  0  0  0  0  0  0  0  0
    2.7138    6.3858    0.1825 H   0  0  0  0  0  0  0  0  0  0  0  0
    1.4831    4.9234    1.2204 C   0  0  0  0  0  0  0  0  0  0  0  0
    1.5971    5.4053    2.2030 H   0  0  0  0  0  0  0  0  0  0  0  0
    0.7132    3.7569    1.1029 C   0  0  0  0  0  0  0  0  0  0  0  0
    0.2245    3.3208    1.9878 H   0  0  0  0  0  0  0  0  0  0  0  0
    2.5766    0.3335   -0.6302 C   0  0  1  0  0  0  0  0  0  0  0  0
    2.5610    1.2479   -1.2676 H   0  0  0  0  0  0  0  0  0  0  0  0
    3.0063   -1.8895   -1.3917 C   0  0  0  0  0  0  0  0  0  0  0  0
    4.2350   -1.3665   -0.7196 C   0  0  0  0  0  0  0  0  0  0  0  0
    3.9953   -0.0555   -0.2748 C   0  0  0  0  0  0  0  0  0  0  0  0
    4.9862    0.6608    0.4020 C   0  0  0  0  0  0  0  0  0  0  0  0
    4.8047    1.6819    0.7701 H   0  0  0  0  0  0  0  0  0  0  0  0
    6.2252    0.0325    0.6151 C   0  0  0  0  0  0  0  0  0  0  0  0
    7.0212    0.5737    1.1486 H   0  0  0  0  0  0  0  0  0  0  0  0
    6.4634   -1.2831    0.1676 C   0  0  0  0  0  0  0  0  0  0  0  0
    7.4429   -1.7488    0.3542 H   0  0  0  0  0  0  0  0  0  0  0  0
    5.4636   -2.0008   -0.5063 C   0  0  0  0  0  0  0  0  0  0  0  0
    5.6210   -3.0296   -0.8630 H   0  0  0  0  0  0  0  0  0  0  0  0
    1.1494   -0.9191   -1.6870 H   0  0  0  0  0  0  0  0  0  0  0  0
  2  9  2  0  0  0  0
  3 23  2  0  0  0  0
  4 62  2  0  0  0  0
  5 10  1  0  0  0  0
  7 32  1  0  0  0  0
  7 35  1  0  0  0  0
  8 60  1  0  0  0  0
  9  1  1  0  0  0  0
 10 11  1  1  0  0  0
 10  9  1  0  0  0  0
 12 49  1  0  0  0  0
 12  5  1  0  0  0  0
 13 12  2  0  0  0  0
 14 13  1  0  0  0  0
 14 15  1  0  0  0  0
 16 14  2  0  0  0  0
 17 16  1  0  0  0  0
 18 20  2  0  0  0  0
 18 16  1  0  0  0  0
 19 18  1  0  0  0  0
 20 22  1  0  0  0  0
 21 20  1  0  0  0  0
 22  6  1  1  0  0  0
 22 13  1  0  0  0  0
 23  6  1  0  0  0  0
 23 24  1  0  0  0  0
 24 25  1  1  0  0  0
 24  7  1  0  0  0  0
 26 27  1  0  0  0  0
 26 29  1  0  0  0  0
 26 24  1  0  0  0  0
 28 26  1  0  0  0  0
 29 32  1  0  0  0  0
 30 29  1  0  0  0  0
 31 29  1  0  0  0  0
 32 33  1  0  0  0  0
 32 34  1  0  0  0  0
 35 38  1  0  0  0  0
 35 36  1  0  0  0  0
 35 37  1  0  0  0  0
 38 39  1  0  0  0  0
 39 40  1  0  0  0  0
 41 39  2  0  0  0  0
 41 42  1  0  0  0  0
 43 41  1  0  0  0  0
 44 43  1  0  0  0  0
 45 47  1  0  0  0  0
 45 43  2  0  0  0  0
 46 45  1  0  0  0  0
 47 38  2  0  0  0  0
 48 47  1  0  0  0  0
 49 58  1  0  0  0  0
 50 52  1  0  0  0  0
 50 49  2  0  0  0  0
 51 50  1  0  0  0  0
 52 54  2  0  0  0  0
 53 52  1  0  0  0  0
 54 55  1  0  0  0  0
 54 56  1  0  0  0  0
 56 57  1  0  0  0  0
 58 56  2  0  0  0  0
 58 59  1  0  0  0  0
 60 61  1  6  0  0  0
 60 64  1  0  0  0  0
 60 10  1  0  0  0  0
 62  8  1  0  0  0  0
 62 63  1  0  0  0  0
 63 71  2  0  0  0  0
 63 64  1  0  0  0  0
 64 65  2  0  0  0  0
 65 67  1  0  0  0  0
 65 66  1  0  0  0  0
 67 68  1  0  0  0  0
 69 70  1  0  0  0  0
 69 67  2  0  0  0  0
 71 69  1  0  0  0  0
 72 71  1  0  0  0  0
 73  8  1  0  0  0  0
M  CHG  1   1  -1
M  END
