1,2,4,10
q = -2.0, confidence = 0.912

 45 47  0  0  0  0  0  0  0  0999 V2000
   -1.5585    0.6993    0.0097 N   0  0  0  0  0  2  0  0  0  0  0  0
    1.1775    0.7800   -0.2902 O   0  5  0  0  0  0  0  0  0  0  0  0
    1.0143    2.0655   -0.2507 C   0  0  0  0  0  0  0  0  0  0  0  0
   -1.4352   -1.8182   -0.4111 N   0  0  0  0  0  2  0  0  0  0  0  0
    2.2014    2.8665   -0.1892 C   0  0  0  0  0  0  0  0  0  0  0  0
    3.1553    2.3232   -0.1240 H   0  0  0  0  0  0  0  0  0  0  0  0
    1.1891   -2.9821   -0.9190 N   0  0  0  0  0  2  0  0  0  0  0  0
    2.1420    4.2492   -0.2345 C   0  0  0  0  0  0  0  0  0  0  0  0
    3.0724    4.8370   -0.1935 H   0  0  0  0  0  0  0  0  0  0  0  0
    1.2638   -1.8172   -0.3680 N   0  0  0  0  0  2  0  0  0  0  0  0
    0.8909    4.9112   -0.3358 C   0  0  0  0  0  0  0  0  0  0  0  0
    0.8431    6.0093   -0.3641 H   0  0  0  0  0  0  0  0  0  0  0  0
   -0.2752    4.1627   -0.3834 C   0  0  0  0  0  3  0  0  0  0  0  0
   -1.2352    4.6939   -0.4345 H   0  0  0  0  0  0  0  0  0  0  0  0
   -0.2693    2.7328   -0.3202 C   0  0  0  0  0  0  0  0  0  0  0  0
   -1.5169    2.0057   -0.2807 C   0  0  0  0  0  0  0  0  0  0  0  0
   -2.7388    0.0036    0.3367 C   0  0  0  0  0  0  0  0  0  0  0  0
   -3.8836    0.5238    0.9783 C   0  0  0  0  0  0  0  0  0  0  0  0
   -3.9093    1.5707    1.3031 H   0  0  0  0  0  0  0  0  0  0  0  0
   -4.9765   -0.3091    1.2558 C   0  0  0  0  0  0  0  0  0  0  0  0
   -5.8570    0.1070    1.7670 H   0  0  0  0  0  0  0  0  0  0  0  0
   -4.9385   -1.6723    0.9119 C   0  0  0  0  0  0  0  0  0  0  0  0
   -5.7949   -2.3237    1.1407 H   0  0  0  0  0  0  0  0  0  0  0  0
   -3.7876   -2.2198    0.3314 C   0  0  0  0  0  0  0  0  0  0  0  0
   -3.7309   -3.2999    0.1359 H   0  0  0  0  0  0  0  0  0  0  0  0
   -2.6780   -1.3943    0.0636 C   0  0  0  0  0  0  0  0  0  0  0  0
   -1.2449   -2.9878   -1.0197 C   0  0  0  0  0  0  0  0  0  0  0  0
   -2.1275   -3.6027   -1.2695 H   0  0  0  0  0  0  0  0  0  0  0  0
    0.0234   -3.5018   -1.3299 C   0  0  0  0  0  0  0  0  0  0  0  0
    0.0977   -4.4707   -1.8438 H   0  0  0  0  0  0  0  0  0  0  0  0
    2.5622   -1.5204    0.1571 C   0  0  0  0  0  0  0  0  0  0  0  0
    2.6754   -0.8337    1.3810 C   0  0  0  0  0  0  0  0  0  0  0  0
    1.7625   -0.5313    1.9125 H   0  0  0  0  0  0  0  0  0  0  0  0
    3.9404   -0.5490    1.9087 C   0  0  0  0  0  0  0  0  0  0  0  0
    4.0192   -0.0164    2.8686 H   0  0  0  0  0  0  0  0  0  0  0  0
    5.1016   -0.9417    1.2220 C   0  0  0  0  0  0  0  0  0  0  0  0
    6.0948   -0.7119    1.6365 H   0  0  0  0  0  0  0  0  0  0  0  0
    4.9859   -1.6341    0.0049 C   0  0  0  0  0  0  0  0  0  0  0  0
    5.8899   -1.9456   -0.5407 H   0  0  0  0  0  0  0  0  0  0  0  0
    3.7242   -1.9287   -0.5266 C   0  0  0  0  0  0  0  0  0  0  0  0
    3.6126   -2.4726   -1.4745 H   0  0  0  0  0  0  0  0  0  0  0  0
   -2.7810    2.7644   -0.6266 C   0  0  0  0  0  0  0  0  0  0  0  0
   -3.5928    2.0760   -0.9201 H   0  0  0  0  0  0  0  0  0  0  0  0
   -2.5756    3.4447   -1.4740 H   0  0  0  0  0  0  0  0  0  0  0  0
   -3.1516    3.3917    0.2101 H   0  0  0  0  0  0  0  0  0  0  0  0
  1 17  1  0  0  0  0
  2  3  1  0  0  0  0
  3  5  2  0  0  0  0
  4 26  1  0  0  0  0
  5  6  1  0  0  0  0
  7 10  1  0  0  0  0
  8  9  1  0  0  0  0
  8  5  1  0  0  0  0
 10 31  1  0  0  0  0
 11  8  2  0  0  0  0
 12 11  1  0  0  0  0
 13 11  1  0  0  0  0
 13 15  1  0  0  0  0
 14 13  1  0  0  0  0
 15 16  2  0  0  0  0
 15  3  1  0  0  0  0
 16  1  1  0  0  0  0
 17 18  1  0  0  0  0
 18 20  2  0  0  0  0
 18 19  1  0  0  0  0
 20 21  1  0  0  0  0
 22 23  1  0  0  0  0
 22 20  1  0  0  0  0
 24 22  2  0  0  0  0
 25 24  1  0  0  0  0
 26 24  1  0  0  0  0
 26 17  2  0  0  0  0
 27  4  1  0  0  0  0
 28 27  1  0  0  0  0
 29 27  2  0  0  0  0
 29  7  1  0  0  0  0
 30 29  1  0  0  0  0
 31 32  1  0  0  0  0
 32 34  2  0  0  0  0
 32 33  1  0  0  0  0
 34 35  1  0  0  0  0
 36 37  1  0  0  0  0
 36 34  1  0  0  0  0
 38 36  2  0  0  0  0
 39 38  1  0  0  0  0
 40 38  1  0  0  0  0
 40 31  2  0  0  0  0
 41 40  1  0  0  0  0
 42 16  1  0  0  0  0
 42 45  1  0  0  0  0
 43 42  1  0  0  0  0
 44 42  1  0  0  0  0
M  CHG  1   2  -1
M  END
