2,4,5,6
q = -2.0, confidence = 0.854

 62 66  0  0  1  0  0  0  0  0999 V2000
    1.1105    3.1713   -1.9942 O   0  0  0  0  0  0  0  0  0  0  0  0
    0.3171   -2.2913   -1.1957 O   0  5  0  0  0  0  0  0  0  0  0  0
   -0.8196   -4.2381   -1.1868 O   0  0  0  0  0  0  0  0  0  0  0  0
   -1.6245   -0.7999   -0.4159 N   0  0  0  0  0  2  0  0  0  0  0  0
   -0.0229    1.3965   -0.9299 N   0  0  0  0  0  2  0  0  0  0  0  0
    1.9596   -0.2564   -1.3883 N   0  0  0  0  0  0  0  0  0  0  0  0
    2.1333   -1.1115   -1.9400 H   0  0  0  0  0  0  0  0  0  0  0  0
   -4.0947   -0.9785    1.6931 C   0  0  0  0  0  0  0  0  0  0  0  0
   -3.2750   -1.0126    2.4272 H   0  0  0  0  0  0  0  0  0  0  0  0
   -5.3649   -1.4716    2.0266 C   0  0  0  0  0  0  0  0  0  0  0  0
   -5.5400   -1.8973    3.0261 H   0  0  0  0  0  0  0  0  0  0  0  0
   -6.4089   -1.4213    1.0891 C   0  0  0  0  0  0  0  0  0  0  0  0
   -7.4043   -1.8103    1.3513 H   0  0  0  0  0  0  0  0  0  0  0  0
   -6.1806   -0.8712   -0.1820 C   0  0  0  0  0  0  0  0  0  0  0  0
   -6.9968   -0.8261   -0.9188 H   0  0  0  0  0  0  0  0  0  0  0  0
   -4.9124   -0.3738   -0.5177 C   0  0  0  0  0  0  0  0  0  0  0  0
   -4.7319    0.0656   -1.5105 H   0  0  0  0  0  0  0  0  0  0  0  0
   -3.8604   -0.4263    0.4176 C   0  0  0  0  0  0  0  0  0  0  0  0
   -2.4952    0.0744    0.0446 C   0  0  0  0  0  0  0  0  0  0  0  0
   -2.2056    1.4932    0.2077 C   0  0  0  0  0  0  0  0  0  0  0  0
   -3.1830    2.2847    0.8766 C   0  0  0  0  0  0  0  0  0  0  0  0
   -4.0911    1.7882    1.2442 H   0  0  0  0  0  0  0  0  0  0  0  0
   -3.0199    3.6494    1.0839 C   0  0  0  0  0  0  0  0  0  0  0  0
   -3.7929    4.2271    1.6112 H   0  0  0  0  0  0  0  0  0  0  0  0
   -1.8506    4.2703    0.6058 C   0  0  0  0  0  0  0  0  0  0  0  0
   -1.6949    5.3498    0.7576 H   0  0  0  0  0  0  0  0  0  0  0  0
   -0.8754    3.5369   -0.0663 C   0  0  0  0  0  0  0  0  0  0  0  0
    0.0145    4.0347   -0.4630 H   0  0  0  0  0  0  0  0  0  0  0  0
   -1.0067    2.1341   -0.2828 C   0  0  1  0  0  3  0  0  0  0  0  0
    0.9772    1.9854   -1.6978 C   0  0  0  0  0  0  0  0  0  0  0  0
    1.9662    0.9460   -2.2392 C   0  0  0  0  0  0  0  0  0  0  0  0
    1.6457    0.6570   -3.2607 H   0  0  0  0  0  0  0  0  0  0  0  0
    2.9642    1.4210   -2.3314 H   0  0  0  0  0  0  0  0  0  0  0  0
   -0.7622   -3.0300   -1.0221 C   0  0  0  0  0  0  0  0  0  0  0  0
   -1.9850   -2.2122   -0.5812 C   0  0  0  0  0  0  0  0  0  0  0  0
   -2.7886   -2.3292   -1.3393 H   0  0  0  0  0  0  0  0  0  0  0  0
   -2.3898   -2.6439    0.3569 H   0  0  0  0  0  0  0  0  0  0  0  0
    2.9362   -0.2703   -0.2415 C   0  0  2  0  0  0  0  0  0  0  0  0
    2.6329   -1.4970    0.6425 C   0  0  0  0  0  0  0  0  0  0  0  0
    2.6558   -2.4204    0.0277 H   0  0  0  0  0  0  0  0  0  0  0  0
    1.5944   -1.4140    1.0263 H   0  0  0  0  0  0  0  0  0  0  0  0
    3.6372   -1.5747    1.8059 C   0  0  2  0  0  0  0  0  0  0  0  0
    3.3991   -2.4652    2.4242 H   0  0  0  0  0  0  0  0  0  0  0  0
    3.5210   -0.2981    2.6600 C   0  0  0  0  0  0  0  0  0  0  0  0
    2.4978   -0.2148    3.0846 H   0  0  0  0  0  0  0  0  0  0  0  0
    4.2257   -0.3434    3.5175 H   0  0  0  0  0  0  0  0  0  0  0  0
    3.8314    0.9305    1.7846 C   0  0  2  0  0  0  0  0  0  0  0  0
    3.7384    1.8564    2.3898 H   0  0  0  0  0  0  0  0  0  0  0  0
    2.8232    1.0031    0.6195 C   0  0  0  0  0  0  0  0  0  0  0  0
    1.7874    1.0918    1.0052 H   0  0  0  0  0  0  0  0  0  0  0  0
    3.0225    1.9101    0.0117 H   0  0  0  0  0  0  0  0  0  0  0  0
    4.3773   -0.3957   -0.7877 C   0  0  0  0  0  0  0  0  0  0  0  0
    4.4529   -1.3124   -1.4131 H   0  0  0  0  0  0  0  0  0  0  0  0
    4.6184    0.4702   -1.4401 H   0  0  0  0  0  0  0  0  0  0  0  0
    5.3824   -0.4645    0.3784 C   0  0  2  0  0  0  0  0  0  0  0  0
    6.4094   -0.5474   -0.0355 H   0  0  0  0  0  0  0  0  0  0  0  0
    5.0682   -1.6951    1.2494 C   0  0  0  0  0  0  0  0  0  0  0  0
    5.1684   -2.6246    0.6492 H   0  0  0  0  0  0  0  0  0  0  0  0
    5.7989   -1.7678    2.0830 H   0  0  0  0  0  0  0  0  0  0  0  0
    5.2622    0.8171    1.2250 C   0  0  0  0  0  0  0  0  0  0  0  0
    5.9970    0.7931    2.0575 H   0  0  0  0  0  0  0  0  0  0  0  0
    5.5035    1.7087    0.6069 H   0  0  0  0  0  0  0  0  0  0  0  0
  1 30  2  0  0  0  0
  2 34  1  0  0  0  0
  3 34  2  0  0  0  0
  4 19  1  0  0  0  0
  7  6  1  0  0  0  0
  8 10  1  0  0  0  0
  8  9  1  0  0  0  0
 10 11  1  0  0  0  0
 12 13  1  0  0  0  0
 12 10  2  0  0  0  0
 14 12  1  0  0  0  0
 15 14  1  0  0  0  0
 16 14  2  0  0  0  0
 16 18  1  0  0  0  0
 17 16  1  0  0  0  0
 18  8  2  0  0  0  0
 19 20  2  0  0  0  0
 19 18  1  0  0  0  0
 20 21  1  0  0  0  0
 21 23  2  0  0  0  0
 21 22  1  0  0  0  0
 23 24  1  0  0  0  0
 25 26  1  0  0  0  0
 25 23  1  0  0  0  0
 27 25  2  0  0  0  0
 28 27  1  0  0  0  0
 29  5  1  1  0  0  0
 29 27  1  0  0  0  0
 29 20  1  0  0  0  0
 30  5  1  0  0  0  0
 31 30  1  0  0  0  0
 31  6  1  0  0  0  0
 32 31  1  0  0  0  0
 33 31  1  0  0  0  0
 34 35  1  0  0  0  0
 35  4  1  0  0  0  0
 35 37  1  0  0  0  0
 36 35  1  0  0  0  0
 38  6  1  6  0  0  0
 38 49  1  0  0  0  0
 38 39  1  0  0  0  0
 39 41  1  0  0  0  0
 39 42  1  0  0  0  0
 40 39  1  0  0  0  0
 42 43  1  1  0  0  0
 42 44  1  0  0  0  0
 44 45  1  0  0  0  0
 44 46  1  0  0  0  0
 47 48  1  1  0  0  0
 47 44  1  0  0  0  0
 49 50  1  0  0  0  0
 49 47  1  0  0  0  0
 51 49  1  0  0  0  0
 52 38  1  0  0  0  0
 52 55  1  0  0  0  0
 53 52  1  0  0  0  0
 54 52  1  0  0  0  0
 55 56  1  6  0  0  0
 55 60  1  0  0  0  0
 55 57  1  0  0  0  0
 57 42  1  0  0  0  0
 57 59  1  0  0  0  0
 58 57  1  0  0  0  0
 60 47  1  0  0  0  0
 60 61  1  0  0  0  0
 62 60  1  0  0  0  0
M  CHG  1   2  -1
M  END
