3,4,5,6
q = -2.0, confidence = 0.844

 50 51  0  0  1  0  0  0  0  0999 V2000
   -2.5212    2.8057   -1.4221 O   0  0  0  0  0  0  0  0  0  0  0  0
    0.1291   -4.3635   -0.5443 O   0  5  0  0  0  0  0  0  0  0  0  0
   -1.1384   -2.5033   -0.4205 O   0  0  0  0  0  0  0  0  0  0  0  0
    0.7963   -0.8282   -0.1985 N   0  0  0  0  0  2  0  0  0  0  0  0
   -1.0501    1.2067   -0.5026 N   0  0  0  0  0  2  0  0  0  0  0  0
   -2.9448   -0.6052   -0.4142 N   0  0  0  0  0  0  0  0  0  0  0  0
   -3.1514   -1.5151   -0.8552 H   0  0  0  0  0  0  0  0  0  0  0  0
    3.6757   -0.6755    1.3028 C   0  0  0  0  0  0  0  0  0  0  0  0
    3.0425   -0.7117    2.2026 H   0  0  0  0  0  0  0  0  0  0  0  0
    5.0254   -1.0514    1.3712 C   0  0  0  0  0  0  0  0  0  0  0  0
    5.4506   -1.3873    2.3290 H   0  0  0  0  0  0  0  0  0  0  0  0
    5.8309   -0.9985    0.2224 C   0  0  0  0  0  0  0  0  0  0  0  0
    6.8890   -1.2957    0.2769 H   0  0  0  0  0  0  0  0  0  0  0  0
    5.2842   -0.5628   -0.9949 C   0  0  0  0  0  0  0  0  0  0  0  0
    5.9126   -0.5158   -1.8971 H   0  0  0  0  0  0  0  0  0  0  0  0
    3.9357   -0.1823   -1.0661 C   0  0  0  0  0  0  0  0  0  0  0  0
    3.5056    0.1681   -2.0167 H   0  0  0  0  0  0  0  0  0  0  0  0
    3.1220   -0.2384    0.0825 C   0  0  0  0  0  0  0  0  0  0  0  0
    1.6713    0.1370   -0.0046 C   0  0  0  0  0  0  0  0  0  0  0  0
    1.3076    1.5423    0.1243 C   0  0  0  0  0  0  0  0  0  0  0  0
    2.3359    2.4490    0.5105 C   0  0  0  0  0  0  0  0  0  0  0  0
    3.3391    2.0459    0.7041 H   0  0  0  0  0  0  0  0  0  0  0  0
    2.1080    3.8124    0.6575 C   0  0  0  0  0  0  0  0  0  0  0  0
    2.9245    4.4817    0.9651 H   0  0  0  0  0  0  0  0  0  0  0  0
    0.8169    4.3129    0.4047 C   0  0  0  0  0  0  0  0  0  0  0  0
    0.6085    5.3885    0.5147 H   0  0  0  0  0  0  0  0  0  0  0  0
   -0.2147    3.4634    0.0111 C   0  0  0  0  0  0  0  0  0  0  0  0
   -1.2065    3.8668   -0.2149 H   0  0  0  0  0  0  0  0  0  0  0  0
   -0.0166    2.0595   -0.1344 C   0  0  2  0  0  3  0  0  0  0  0  0
   -2.2309    1.6605   -1.0816 C   0  0  0  0  0  0  0  0  0  0  0  0
   -3.2163    0.5127   -1.3343 C   0  0  0  0  0  0  0  0  0  0  0  0
   -4.2495    0.9097   -1.2624 H   0  0  0  0  0  0  0  0  0  0  0  0
   -3.0755    0.1546   -2.3745 H   0  0  0  0  0  0  0  0  0  0  0  0
    1.2279   -2.2225   -0.3472 C   0  0  0  0  0  0  0  0  0  0  0  0
    1.8617   -2.5480    0.5027 H   0  0  0  0  0  0  0  0  0  0  0  0
    1.8538   -2.3477   -1.2566 H   0  0  0  0  0  0  0  0  0  0  0  0
    0.0102   -3.1525   -0.4483 C   0  0  0  0  0  0  0  0  0  0  0  0
   -3.6845   -0.5824    0.9110 C   0  0  0  0  0  0  0  0  0  0  0  0
   -3.1064   -1.7067    1.7812 C   0  0  0  0  0  0  0  0  0  0  0  0
   -2.0516   -1.4978    2.0464 H   0  0  0  0  0  0  0  0  0  0  0  0
   -3.1206   -2.6797    1.2530 H   0  0  0  0  0  0  0  0  0  0  0  0
   -3.6958   -1.7953    2.7150 H   0  0  0  0  0  0  0  0  0  0  0  0
   -3.4954    0.7706    1.6081 C   0  0  0  0  0  0  0  0  0  0  0  0
   -2.4240    0.9744    1.7941 H   0  0  0  0  0  0  0  0  0  0  0  0
   -4.0215    0.7484    2.5823 H   0  0  0  0  0  0  0  0  0  0  0  0
   -3.9120    1.6148    1.0243 H   0  0  0  0  0  0  0  0  0  0  0  0
   -5.1761   -0.8499    0.6414 C   0  0  0  0  0  0  0  0  0  0  0  0
   -5.6316   -0.0697   -0.0007 H   0  0  0  0  0  0  0  0  0  0  0  0
   -5.7372   -0.8611    1.5960 H   0  0  0  0  0  0  0  0  0  0  0  0
   -5.3219   -1.8361    0.1542 H   0  0  0  0  0  0  0  0  0  0  0  0
  1 30  2  0  0  0  0
  2 37  1  0  0  0  0
  4 19  1  0  0  0  0
  6 38  1  0  0  0  0
  7  6  1  0  0  0  0
  8 10  1  0  0  0  0
  8  9  1  0  0  0  0
 10 11  1  0  0  0  0
 12 13  1  0  0  0  0
 12 10  2  0  0  0  0
 14 12  1  0  0  0  0
 15 14  1  0  0  0  0
 16 14  2  0  0  0  0
 16 18  1  0  0  0  0
 17 16  1  0  0  0  0
 18  8  2  0  0  0  0
 19 18  1  0  0  0  0
 19 20  2  0  0  0  0
 20 21  1  0  0  0  0
 21 23  2  0  0  0  0
 21 22  1  0  0  0  0
 23 24  1  0  0  0  0
 25 26  1  0  0  0  0
 25 23  1  0  0  0  0
 27 25  2  0  0  0  0
 28 27  1  0  0  0  0
 29  5  1  1  0  0  0
 29 27  1  0  0  0  0
 29 20  1  0  0  0  0
 30  5  1  0  0  0  0
 31 32  1  0  0  0  0
 31 30  1  0  0  0  0
 31  6  1  0  0  0  0
 33 31  1  0  0  0  0
 34  4  1  0  0  0  0
 34 35  1  0  0  0  0
 36 34  1  0  0  0  0
 37  3  2  0  0  0  0
 37 34  1  0  0  0  0
 38 43  1  0  0  0  0
 38 39  1  0  0  0  0
 39 40  1  0  0  0  0
 39 42  1  0  0  0  0
 41 39  1  0  0  0  0
 43 44  1  0  0  0  0
 43 45  1  0  0  0  0
 46 43  1  0  0  0  0
 47 38  1  0  0  0  0
 47 49  1  0  0  0  0
 48 47  1  0  0  0  0
 50 47  1  0  0  0  0
M  CHG  1   2  -1
M  END
