1,2,3,4
q = -1.0

 41 43  0  0  1  0  0  0  0  0999 V2000
    0.7305   -1.8234    0.8824 N   0  0  0  0  0  2  0  0  0  0  0  0
    1.3304    1.8838   -0.4267 N   0  0  0  0  0  2  0  0  0  0  0  0
    2.5989    0.1262    1.3034 N   0  0  0  0  0  0  0  0  0  0  0  0
    2.7560   -0.9705   -1.6045 O   0  5  0  0  0  0  0  0  0  0  0  0
    1.0221   -1.5609    2.1708 C   0  0  2  0  0  3  0  0  0  0  0  0
    0.6128   -2.4241    3.1984 C   0  0  0  0  0  0  0  0  0  0  0  0
    0.8663   -2.1938    4.2436 H   0  0  0  0  0  0  0  0  0  0  0  0
   -0.1290   -3.5662    2.8659 C   0  0  0  0  0  0  0  0  0  0  0  0
   -0.4675   -4.2547    3.6549 H   0  0  0  0  0  0  0  0  0  0  0  0
   -0.4359   -3.8195    1.5207 C   0  0  0  0  0  0  0  0  0  0  0  0
   -1.0277   -4.6944    1.2178 H   0  0  0  0  0  0  0  0  0  0  0  0
    0.0167   -2.9135    0.5553 C   0  0  0  0  0  0  0  0  0  0  0  0
   -0.2108   -3.0425   -0.5145 H   0  0  0  0  0  0  0  0  0  0  0  0
    1.9714    2.4255    0.6264 C   0  0  2  0  0  3  0  0  0  0  0  0
    1.7481    3.7577    1.0098 C   0  0  0  0  0  0  0  0  0  0  0  0
    2.2695    4.1694    1.8867 H   0  0  0  0  0  0  0  0  0  0  0  0
    0.8506    4.5367    0.2687 C   0  0  0  0  0  0  0  0  0  0  0  0
    0.6522    5.5803    0.5560 H   0  0  0  0  0  0  0  0  0  0  0  0
    0.1984    3.9639   -0.8329 C   0  0  0  0  0  0  0  0  0  0  0  0
   -0.5241    4.5333   -1.4341 H   0  0  0  0  0  0  0  0  0  0  0  0
    0.4608    2.6245   -1.1379 C   0  0  0  0  0  0  0  0  0  0  0  0
   -0.0606    2.1014   -1.9540 H   0  0  0  0  0  0  0  0  0  0  0  0
    4.5880   -0.4838   -0.0891 C   0  0  0  0  0  0  0  0  0  0  0  0
    5.9407   -0.1132    0.0516 C   0  0  0  0  0  0  0  0  0  0  0  0
    6.3582   -0.0256    1.0696 H   0  0  0  0  0  0  0  0  0  0  0  0
    6.7602    0.1270   -1.0588 C   0  0  0  0  0  0  0  0  0  0  0  0
    7.8141    0.4115   -0.9252 H   0  0  0  0  0  0  0  0  0  0  0  0
    6.2071   -0.0137   -2.3461 C   0  0  0  0  0  0  0  0  0  0  0  0
    6.8344    0.1653   -3.2343 H   0  0  0  0  0  0  0  0  0  0  0  0
    4.8686   -0.3750   -2.5143 C   0  0  0  0  0  0  0  0  0  0  0  0
    4.4291   -0.4880   -3.5169 H   0  0  0  0  0  0  0  0  0  0  0  0
    4.0093   -0.6163   -1.4021 C   0  0  0  0  0  0  0  0  0  0  0  0
    1.7334   -0.2503    2.4252 C   0  0  0  0  0  0  0  0  0  0  0  0
    2.2936   -0.2925    3.3900 H   0  0  0  0  0  0  0  0  0  0  0  0
    0.9303    0.5168    2.5074 H   0  0  0  0  0  0  0  0  0  0  0  0
    2.9804    1.5390    1.3232 C   0  0  0  0  0  0  0  0  0  0  0  0
    3.9361    1.6172    0.7572 H   0  0  0  0  0  0  0  0  0  0  0  0
    3.1806    1.9121    2.3536 H   0  0  0  0  0  0  0  0  0  0  0  0
    3.7592   -0.7974    1.1260 C   0  0  0  0  0  0  0  0  0  0  0  0
    3.3278   -1.8170    1.0369 H   0  0  0  0  0  0  0  0  0  0  0  0
    4.3967   -0.7827    2.0421 H   0  0  0  0  0  0  0  0  0  0  0  0
  1  5  1  0  0  0  0
  2 14  1  0  0  0  0
  3 36  1  0  0  0  0
  3 33  1  0  0  0  0
  4 32  1  0  0  0  0
  5 33  1  1  0  0  0
  5  6  1  0  0  0  0
  6  7  1  0  0  0  0
  8  6  2  0  0  0  0
  8  9  1  0  0  0  0
 10  8  1  0  0  0  0
 11 10  1  0  0  0  0
 12  1  1  0  0  0  0
 12 10  2  0  0  0  0
 13 12  1  0  0  0  0
 14 15  1  0  0  0  0
 14 36  1  6  0  0  0
 15 16  1  0  0  0  0
 17 18  1  0  0  0  0
 17 15  2  0  0  0  0
 19 17  1  0  0  0  0
 20 19  1  0  0  0  0
 21 19  2  0  0  0  0
 21  2  1  0  0  0  0
 22 21  1  0  0  0  0
 23 24  1  0  0  0  0
 23 39  1  0  0  0  0
 24 25  1  0  0  0  0
 26 27  1  0  0  0  0
 26 24  2  0  0  0  0
 28 26  1  0  0  0  0
 29 28  1  0  0  0  0
 30 28  2  0  0  0  0
 30 32  1  0  0  0  0
 31 30  1  0  0  0  0
 32 23  2  0  0  0  0
 33 35  1  0  0  0  0
 33 34  1  0  0  0  0
 36 38  1  0  0  0  0
 37 36  1  0  0  0  0
 39  3  1  0  0  0  0
 39 41  1  0  0  0  0
 40 39  1  0  0  0  0
M  CHG  1   4  -1
M  END
