5,6,7,8
q = -2.0, confidence = 0.812

 62 65  0  0  1  0  0  0  0  0999 V2000
   -1.4719    3.1956   -0.9380 O   0  0  0  0  0  0  0  0  0  0  0  0
    0.6467   -3.9468    1.2751 O   0  5  0  0  0  0  0  0  0  0  0  0
    0.2256   -2.2083   -1.9424 O   0  0  0  0  0  0  0  0  0  0  0  0
   -0.4559   -2.6206   -1.3767 H   0  0  0  0  0  0  0  0  0  0  0  0
   -0.4821   -2.0079    0.9988 O   0  0  0  0  0  0  0  0  0  0  0  0
   -0.0409    1.5757    0.0009 N   0  0  0  0  0  2  0  0  0  0  0  0
    1.5402   -0.6651    0.1899 N   0  0  0  0  0  2  0  0  0  0  0  0
   -2.1679    0.0317    0.5827 N   0  0  0  0  0  0  0  0  0  0  0  0
    3.6191    3.7512   -0.1302 C   0  0  0  0  0  0  0  0  0  0  0  0
    4.5624    4.3161   -0.1254 H   0  0  0  0  0  0  0  0  0  0  0  0
    2.3784    4.4092   -0.2418 C   0  0  0  0  0  0  0  0  0  0  0  0
    2.3390    5.5060   -0.3310 H   0  0  0  0  0  0  0  0  0  0  0  0
    1.1858    3.6923   -0.2419 C   0  0  0  0  0  0  0  0  0  0  0  0
    0.2342    4.2199   -0.3578 H   0  0  0  0  0  0  0  0  0  0  0  0
    1.1569    2.2707   -0.1111 C   0  0  1  0  0  3  0  0  0  0  0  0
    2.4297    1.5938   -0.0285 C   0  0  0  0  0  0  0  0  0  0  0  0
    3.6278    2.3661   -0.0326 C   0  0  0  0  0  0  0  0  0  0  0  0
    4.5867    1.8372    0.0503 H   0  0  0  0  0  0  0  0  0  0  0  0
    2.5637    0.1472    0.0217 C   0  0  0  0  0  0  0  0  0  0  0  0
    3.9344   -0.4431   -0.1475 C   0  0  0  0  0  0  0  0  0  0  0  0
    4.6415   -0.9309    0.9704 C   0  0  0  0  0  0  0  0  0  0  0  0
    4.1848   -0.8647    1.9697 H   0  0  0  0  0  0  0  0  0  0  0  0
    5.9170   -1.4922    0.8102 C   0  0  0  0  0  0  0  0  0  0  0  0
    6.4617   -1.8682    1.6894 H   0  0  0  0  0  0  0  0  0  0  0  0
    6.4959   -1.5748   -0.4662 C   0  0  0  0  0  0  0  0  0  0  0  0
    7.4951   -2.0184   -0.5909 H   0  0  0  0  0  0  0  0  0  0  0  0
    5.7986   -1.0859   -1.5823 C   0  0  0  0  0  0  0  0  0  0  0  0
    6.2499   -1.1432   -2.5843 H   0  0  0  0  0  0  0  0  0  0  0  0
    4.5255   -0.5180   -1.4247 C   0  0  0  0  0  0  0  0  0  0  0  0
    3.9825   -0.1186   -2.2947 H   0  0  0  0  0  0  0  0  0  0  0  0
    1.4818   -2.5680   -1.4102 C   0  0  0  0  0  0  0  0  0  0  0  0
    2.2498   -2.0831   -2.0461 H   0  0  0  0  0  0  0  0  0  0  0  0
    1.6584   -3.6698   -1.4312 H   0  0  0  0  0  0  0  0  0  0  0  0
    1.6830   -2.1192    0.0609 C   0  0  2  0  0  0  0  0  0  0  0  0
    2.6753   -2.4787    0.3931 H   0  0  0  0  0  0  0  0  0  0  0  0
    0.5759   -2.7898    0.8888 C   0  0  0  0  0  0  0  0  0  0  0  0
   -2.6430   -0.3591    1.9419 C   0  0  0  0  0  0  0  0  0  0  0  0
   -2.2043   -1.3379    2.2083 H   0  0  0  0  0  0  0  0  0  0  0  0
   -3.7530   -0.4349    1.9326 H   0  0  0  0  0  0  0  0  0  0  0  0
   -2.1979    0.8187    2.7974 C   0  0  0  0  0  0  0  0  0  0  0  0
   -1.1043    0.7614    2.9754 H   0  0  0  0  0  0  0  0  0  0  0  0
   -2.7048    0.8447    3.7812 H   0  0  0  0  0  0  0  0  0  0  0  0
   -2.5463    2.0256    1.9095 C   0  0  0  0  0  0  0  0  0  0  0  0
   -3.5893    2.3537    2.0876 H   0  0  0  0  0  0  0  0  0  0  0  0
   -1.8906    2.8994    2.0878 H   0  0  0  0  0  0  0  0  0  0  0  0
   -2.4174    1.4958    0.4512 C   0  0  1  0  0  0  0  0  0  0  0  0
   -3.3499    1.6868   -0.1121 H   0  0  0  0  0  0  0  0  0  0  0  0
   -1.2669    2.1776   -0.2804 C   0  0  0  0  0  0  0  0  0  0  0  0
   -2.7219   -0.7956   -0.5411 C   0  0  0  0  0  0  0  0  0  0  0  0
   -2.1849   -0.4874   -1.4599 H   0  0  0  0  0  0  0  0  0  0  0  0
   -2.4260   -1.8354   -0.3066 H   0  0  0  0  0  0  0  0  0  0  0  0
   -4.2165   -0.6990   -0.7461 C   0  0  0  0  0  0  0  0  0  0  0  0
   -5.0957   -1.5609   -0.0580 C   0  0  0  0  0  0  0  0  0  0  0  0
   -4.6829   -2.3335    0.6099 H   0  0  0  0  0  0  0  0  0  0  0  0
   -6.4839   -1.4567   -0.2307 C   0  0  0  0  0  0  0  0  0  0  0  0
   -7.1557   -2.1396    0.3111 H   0  0  0  0  0  0  0  0  0  0  0  0
   -7.0137   -0.4906   -1.1006 C   0  0  0  0  0  0  0  0  0  0  0  0
   -8.1026   -0.4095   -1.2384 H   0  0  0  0  0  0  0  0  0  0  0  0
   -6.1492    0.3618   -1.8054 C   0  0  0  0  0  0  0  0  0  0  0  0
   -6.5570    1.1105   -2.5013 H   0  0  0  0  0  0  0  0  0  0  0  0
   -4.7613    0.2552   -1.6312 C   0  0  0  0  0  0  0  0  0  0  0  0
   -4.0860    0.9143   -2.2001 H   0  0  0  0  0  0  0  0  0  0  0  0
  1 48  2  0  0  0  0
  3 31  1  0  0  0  0
  3  4  1  0  0  0  0
  8 37  1  0  0  0  0
  9 10  1  0  0  0  0
  9 17  2  0  0  0  0
 11  9  1  0  0  0  0
 12 11  1  0  0  0  0
 13 11  2  0  0  0  0
 13 15  1  0  0  0  0
 14 13  1  0  0  0  0
 15 16  1  0  0  0  0
 15  6  1  1  0  0  0
 16 19  2  0  0  0  0
 17 16  1  0  0  0  0
 17 18  1  0  0  0  0
 19  7  1  0  0  0  0
 20 19  1  0  0  0  0
 20 21  1  0  0  0  0
 21 22  1  0  0  0  0
 23 21  2  0  0  0  0
 23 24  1  0  0  0  0
 25 23  1  0  0  0  0
 26 25  1  0  0  0  0
 27 29  1  0  0  0  0
 27 25  2  0  0  0  0
 28 27  1  0  0  0  0
 29 20  2  0  0  0  0
 30 29  1  0  0  0  0
 31 34  1  0  0  0  0
 32 31  1  0  0  0  0
 33 31  1  0  0  0  0
 34  7  1  0  0  0  0
 34 35  1  1  0  0  0
 34 36  1  0  0  0  0
 36  5  2  0  0  0  0
 36  2  1  0  0  0  0
 37 38  1  0  0  0  0
 37 40  1  0  0  0  0
 39 37  1  0  0  0  0
 40 41  1  0  0  0  0
 40 42  1  0  0  0  0
 43 44  1  0  0  0  0
 43 45  1  0  0  0  0
 43 40  1  0  0  0  0
 46 47  1  6  0  0  0
 46  8  1  0  0  0  0
 46 43  1  0  0  0  0
 48  6  1  0  0  0  0
 48 46  1  0  0  0  0
 49 51  1  0  0  0  0
 49  8  1  0  0  0  0
 50 49  1  0  0  0  0
 52 49  1  0  0  0  0
 52 53  1  0  0  0  0
 53 54  1  0  0  0  0
 55 53  2  0  0  0  0
 55 56  1  0  0  0  0
 57 55  1  0  0  0  0
 58 57  1  0  0  0  0
 59 61  1  0  0  0  0
 59 57  2  0  0  0  0
 60 59  1  0  0  0  0
 61 52  2  0  0  0  0
 62 61  1  0  0  0  0
M  CHG  1   2  -1
M  END
