1,2,3,7
q = -2.0, confidence = 0.786

 72 77  0  0  1  0  0  0  0  0999 V2000
   -0.3609    0.5463    0.4229 N   0  0  0  0  0  2  0  0  0  0  0  0
    1.8345   -0.2626   -0.9889 N   0  0  0  0  0  2  0  0  0  0  0  0
    1.7589   -2.5827    0.3483 N   0  0  0  0  0  0  0  0  0  0  0  0
   -3.2419   -1.0577   -2.1845 N   0  0  0  0  0  0  0  0  0  0  0  0
   -3.2360   -1.2656   -3.1807 H   0  0  0  0  0  0  0  0  0  0  0  0
   -2.2041   -1.1702    2.9317 O   0  5  0  0  0  0  0  0  0  0  0  0
   -0.2827   -1.5753    1.8168 O   0  0  0  0  0  0  0  0  0  0  0  0
    3.3886   -1.1425   -2.5313 O   0  0  0  0  0  0  0  0  0  0  0  0
   -1.4116   -0.9347    2.0319 C   0  0  0  0  0  0  0  0  0  0  0  0
   -1.6693    0.1628    0.9635 C   0  0  2  0  0  0  0  0  0  0  0  0
   -2.1766    1.0184    1.4557 H   0  0  0  0  0  0  0  0  0  0  0  0
   -0.1152    1.7531   -0.0310 C   0  0  0  0  0  0  0  0  0  0  0  0
    1.1257    2.0879   -0.7159 C   0  0  0  0  0  0  0  0  0  0  0  0
    1.4043    3.4665   -0.9274 C   0  0  0  0  0  0  0  0  0  0  0  0
    0.6929    4.2049   -0.5325 H   0  0  0  0  0  0  0  0  0  0  0  0
    2.5399    3.8979   -1.6039 C   0  0  0  0  0  0  0  0  0  0  0  0
    2.7330    4.9718   -1.7405 H   0  0  0  0  0  0  0  0  0  0  0  0
    3.4220    2.9295   -2.1190 C   0  0  0  0  0  0  0  0  0  0  0  0
    4.3238    3.2400   -2.6697 H   0  0  0  0  0  0  0  0  0  0  0  0
    3.1761    1.5689   -1.9472 C   0  0  0  0  0  0  0  0  0  0  0  0
    3.8560    0.8254   -2.3731 H   0  0  0  0  0  0  0  0  0  0  0  0
    2.0438    1.0941   -1.2222 C   0  0  1  0  0  3  0  0  0  0  0  0
    2.5855   -1.2522   -1.6034 C   0  0  0  0  0  0  0  0  0  0  0  0
    2.2752   -2.6422   -1.0498 C   0  0  2  0  0  0  0  0  0  0  0  0
    3.2208   -3.2258   -1.0800 H   0  0  0  0  0  0  0  0  0  0  0  0
    1.1633   -3.3751   -1.8601 C   0  0  0  0  0  0  0  0  0  0  0  0
    0.7331   -2.7132   -2.6362 H   0  0  0  0  0  0  0  0  0  0  0  0
    1.6008   -4.2464   -2.3840 H   0  0  0  0  0  0  0  0  0  0  0  0
    0.1134   -3.8053   -0.8129 C   0  0  0  0  0  0  0  0  0  0  0  0
   -0.7183   -3.0732   -0.7543 H   0  0  0  0  0  0  0  0  0  0  0  0
   -0.3257   -4.7991   -1.0244 H   0  0  0  0  0  0  0  0  0  0  0  0
    0.8890   -3.7829    0.4969 C   0  0  0  0  0  0  0  0  0  0  0  0
    0.2630   -3.6673    1.3999 H   0  0  0  0  0  0  0  0  0  0  0  0
    1.5421   -4.6808    0.5990 H   0  0  0  0  0  0  0  0  0  0  0  0
    2.8008   -2.5110    1.4155 C   0  0  0  0  0  0  0  0  0  0  0  0
    3.5492   -3.3159    1.2357 H   0  0  0  0  0  0  0  0  0  0  0  0
    2.2744   -2.7298    2.3647 H   0  0  0  0  0  0  0  0  0  0  0  0
    3.4610   -1.1555    1.4948 C   0  0  0  0  0  0  0  0  0  0  0  0
    2.8462   -0.1301    2.2454 C   0  0  0  0  0  0  0  0  0  0  0  0
    1.9474   -0.3609    2.8380 H   0  0  0  0  0  0  0  0  0  0  0  0
    3.3715    1.1693    2.2331 C   0  0  0  0  0  0  0  0  0  0  0  0
    2.8796    1.9638    2.8144 H   0  0  0  0  0  0  0  0  0  0  0  0
    4.5186    1.4586    1.4759 C   0  0  0  0  0  0  0  0  0  0  0  0
    4.9191    2.4831    1.4505 H   0  0  0  0  0  0  0  0  0  0  0  0
    5.1473    0.4401    0.7455 C   0  0  0  0  0  0  0  0  0  0  0  0
    6.0453    0.6609    0.1496 H   0  0  0  0  0  0  0  0  0  0  0  0
    4.6223   -0.8625    0.7589 C   0  0  0  0  0  0  0  0  0  0  0  0
    5.1083   -1.6529    0.1658 H   0  0  0  0  0  0  0  0  0  0  0  0
   -2.5404   -0.3721   -0.1448 C   0  0  0  0  0  0  0  0  0  0  0  0
   -2.1679   -0.5533   -1.4711 C   0  0  0  0  0  0  0  0  0  0  0  0
   -1.2064   -0.3503   -1.9563 H   0  0  0  0  0  0  0  0  0  0  0  0
   -4.3264   -1.2179   -1.3421 C   0  0  0  0  0  0  0  0  0  0  0  0
   -3.9143   -0.8022   -0.0331 C   0  0  0  0  0  0  0  0  0  0  0  0
   -4.8326   -0.8797    1.0383 C   0  0  0  0  0  0  0  0  0  0  0  0
   -4.5074   -0.6124    2.0541 H   0  0  0  0  0  0  0  0  0  0  0  0
   -6.1247   -1.3444    0.7790 C   0  0  0  0  0  0  0  0  0  0  0  0
   -6.8509   -1.4150    1.6028 H   0  0  0  0  0  0  0  0  0  0  0  0
   -6.5181   -1.7400   -0.5242 C   0  0  0  0  0  0  0  0  0  0  0  0
   -7.5433   -2.1033   -0.6925 H   0  0  0  0  0  0  0  0  0  0  0  0
   -5.6265   -1.6869   -1.6011 C   0  0  0  0  0  0  0  0  0  0  0  0
   -5.9317   -2.0017   -2.6106 H   0  0  0  0  0  0  0  0  0  0  0  0
   -1.1592    2.8148    0.1495 C   0  0  0  0  0  0  0  0  0  0  0  0
   -2.0690    3.1013   -0.8864 C   0  0  0  0  0  0  0  0  0  0  0  0
   -1.9969    2.5506   -1.8355 H   0  0  0  0  0  0  0  0  0  0  0  0
   -3.0638    4.0724   -0.7005 C   0  0  0  0  0  0  0  0  0  0  0  0
   -3.7762    4.2852   -1.5117 H   0  0  0  0  0  0  0  0  0  0  0  0
   -3.1537    4.7674    0.5158 C   0  0  0  0  0  0  0  0  0  0  0  0
   -3.9356    5.5282    0.6595 H   0  0  0  0  0  0  0  0  0  0  0  0
   -2.2456    4.4889    1.5498 C   0  0  0  0  0  0  0  0  0  0  0  0
   -2.3122    5.0306    2.5053 H   0  0  0  0  0  0  0  0  0  0  0  0
   -1.2533    3.5139    1.3701 C   0  0  0  0  0  0  0  0  0  0  0  0
   -0.5422    3.2865    2.1792 H   0  0  0  0  0  0  0  0  0  0  0  0
  1 10  1  0  0  0  0
  3 32  1  0  0  0  0
  3 35  1  0  0  0  0
  4 50  1  0  0  0  0
  4 52  1  0  0  0  0
  5  4  1  0  0  0  0
  7  9  2  0  0  0  0
  8 23  2  0  0  0  0
  9  6  1  0  0  0  0
 10 11  1  1  0  0  0
 10  9  1  0  0  0  0
 12 62  1  0  0  0  0
 12  1  1  0  0  0  0
 13 12  2  0  0  0  0
 14 13  1  0  0  0  0
 14 15  1  0  0  0  0
 16 14  2  0  0  0  0
 17 16  1  0  0  0  0
 18 20  2  0  0  0  0
 18 16  1  0  0  0  0
 19 18  1  0  0  0  0
 20 22  1  0  0  0  0
 21 20  1  0  0  0  0
 22  2  1  1  0  0  0
 22 13  1  0  0  0  0
 23 24  1  0  0  0  0
 23  2  1  0  0  0  0
 24 25  1  6  0  0  0
 24  3  1  0  0  0  0
 26 24  1  0  0  0  0
 26 29  1  0  0  0  0
 27 26  1  0  0  0  0
 28 26  1  0  0  0  0
 29 30  1  0  0  0  0
 29 32  1  0  0  0  0
 31 29  1  0  0  0  0
 32 34  1  0  0  0  0
 32 33  1  0  0  0  0
 35 38  1  0  0  0  0
 35 37  1  0  0  0  0
 36 35  1  0  0  0  0
 38 39  1  0  0  0  0
 39 40  1  0  0  0  0
 41 39  2  0  0  0  0
 41 42  1  0  0  0  0
 43 41  1  0  0  0  0
 44 43  1  0  0  0  0
 45 47  1  0  0  0  0
 45 43  2  0  0  0  0
 46 45  1  0  0  0  0
 47 38  2  0  0  0  0
 48 47  1  0  0  0  0
 49 53  1  0  0  0  0
 49 10  1  0  0  0  0
 50 49  2  0  0  0  0
 51 50  1  0  0  0  0
 52 53  1  0  0  0  0
 53 54  2  0  0  0  0
 54 55  1  0  0  0  0
 56 54  1  0  0  0  0
 56 57  1  0  0  0  0
 58 56  2  0  0  0  0
 59 58  1  0  0  0  0
 60 52  2  0  0  0  0
 60 58  1  0  0  0  0
 61 60  1  0  0  0  0
 62 71  1  0  0  0  0
 63 65  1  0  0  0  0
 63 62  2  0  0  0  0
 64 63  1  0  0  0  0
 65 67  2  0  0  0  0
 66 65  1  0  0  0  0
 67 68  1  0  0  0  0
 67 69  1  0  0  0  0
 69 70  1  0  0  0  0
 71 69  2  0  0  0  0
 71 72  1  0  0  0  0
M  CHG  1   6  -1
M  END
