1,3,4,5
q = -1.0

 31 30  0  0  0  0  0  0  0  0999 V2000
   -0.5714   -0.6061    1.7988 O   0  5  0  0  0  0  0  0  0  0  0  0
   -2.6948   -0.6704    2.5681 O   0  0  0  0  0  0  0  0  0  0  0  0
   -1.3310    0.7451   -0.4843 N   0  0  0  0  0  0  0  0  0  0  0  0
    1.0249    1.4615    1.0359 N   0  0  0  0  0  0  0  0  0  0  0  0
   -0.1101   -2.0376   -0.3572 N   0  0  0  0  0  0  0  0  0  0  0  0
   -1.8392   -0.2687    1.7916 C   0  0  0  0  0  0  0  0  0  0  0  0
   -2.1930    0.7940    0.7284 C   0  0  0  0  0  0  0  0  0  0  0  0
   -1.0643    2.1114   -1.0403 C   0  0  0  0  0  0  0  0  0  0  0  0
   -0.3960    3.1237   -0.1146 C   0  0  0  0  0  0  0  0  0  0  0  0
    1.0106    2.7503    0.3348 C   0  0  0  0  0  0  0  0  0  0  0  0
   -2.0308    0.0004   -1.5757 C   0  0  0  0  0  0  0  0  0  0  0  0
   -2.3017   -1.4790   -1.3252 C   0  0  0  0  0  0  0  0  0  0  0  0
   -1.0486   -2.3390   -1.4405 C   0  0  0  0  0  0  0  0  0  0  0  0
   -2.0642    1.7734    1.2294 H   0  0  0  0  0  0  0  0  0  0  0  0
   -3.2669    0.7165    0.4618 H   0  0  0  0  0  0  0  0  0  0  0  0
    0.4734    1.4894    1.9085 H   0  0  0  0  0  0  0  0  0  0  0  0
    1.9825    1.1577    1.3251 H   0  0  0  0  0  0  0  0  0  0  0  0
   -0.4396    1.9609   -1.9432 H   0  0  0  0  0  0  0  0  0  0  0  0
    0.8093   -2.5164   -0.4437 H   0  0  0  0  0  0  0  0  0  0  0  0
   -0.4912   -2.3451    0.5540 H   0  0  0  0  0  0  0  0  0  0  0  0
   -2.0373    2.5320   -1.3848 H   0  0  0  0  0  0  0  0  0  0  0  0
   -0.3478    4.0819   -0.6715 H   0  0  0  0  0  0  0  0  0  0  0  0
   -1.0353    3.3372    0.7700 H   0  0  0  0  0  0  0  0  0  0  0  0
    1.4215    3.5498    0.9895 H   0  0  0  0  0  0  0  0  0  0  0  0
    1.6906    2.6538   -0.5338 H   0  0  0  0  0  0  0  0  0  0  0  0
   -2.9928    0.5291   -1.7657 H   0  0  0  0  0  0  0  0  0  0  0  0
   -1.3997    0.0997   -2.4788 H   0  0  0  0  0  0  0  0  0  0  0  0
   -2.8060   -1.6433   -0.3474 H   0  0  0  0  0  0  0  0  0  0  0  0
   -3.0277   -1.8101   -2.0957 H   0  0  0  0  0  0  0  0  0  0  0  0
   -0.5347   -2.1314   -2.3986 H   0  0  0  0  0  0  0  0  0  0  0  0
   -1.3174   -3.4179   -1.4179 H   0  0  0  0  0  0  0  0  0  0  0  0
  3  7  1  0  0  0  0
  4 17  1  0  0  0  0
  4 16  1  0  0  0  0
  5 20  1  0  0  0  0
  6  1  1  0  0  0  0
  6  2  2  0  0  0  0
  7 14  1  0  0  0  0
  7  6  1  0  0  0  0
  8  3  1  0  0  0  0
  8  9  1  0  0  0  0
  9 10  1  0  0  0  0
  9 23  1  0  0  0  0
 10 24  1  0  0  0  0
 10  4  1  0  0  0  0
 11 12  1  0  0  0  0
 11  3  1  0  0  0  0
 12 28  1  0  0  0  0
 13 31  1  0  0  0  0
 13 12  1  0  0  0  0
 13  5  1  0  0  0  0
 15  7  1  0  0  0  0
 18  8  1  0  0  0  0
 19  5  1  0  0  0  0
 21  8  1  0  0  0  0
 22  9  1  0  0  0  0
 25 10  1  0  0  0  0
 26 11  1  0  0  0  0
 27 11  1  0  0  0  0
 29 12  1  0  0  0  0
 30 13  1  0  0  0  0
M  CHG  1   1  -1
M  END
