1,3,4,6
q = -1.0

 50 50  0  0  0  0  0  0  0  0999 V2000
   -0.7487    0.0848   -0.3642 O   0  5  0  0  0  0  0  0  0  0  0  0
   -3.2292    0.8874   -0.3378 O   0  0  0  0  0  0  0  0  0  0  0  0
    1.1011   -1.9176   -0.1153 N   0  0  0  0  0  2  0  0  0  0  0  0
    1.7588    0.1927   -1.8045 N   0  0  0  0  0  0  0  0  0  0  0  0
    2.6568    0.6463   -1.5644 H   0  0  0  0  0  0  0  0  0  0  0  0
    0.8395    2.1190    0.3850 N   0  0  0  0  0  0  0  0  0  0  0  0
   -1.6458   -0.8477   -0.2313 C   0  0  0  0  0  0  0  0  0  0  0  0
   -3.0330   -0.4580   -0.2303 C   0  0  0  0  0  0  0  0  0  0  0  0
   -4.0360   -1.4190   -0.1001 C   0  0  0  0  0  0  0  0  0  0  0  0
   -5.0917   -1.1157   -0.0794 H   0  0  0  0  0  0  0  0  0  0  0  0
   -3.7098   -2.7946    0.0236 C   0  0  0  0  0  0  0  0  0  0  0  0
   -4.5183   -3.5324    0.1272 H   0  0  0  0  0  0  0  0  0  0  0  0
   -2.3837   -3.1975    0.0241 C   0  0  0  0  0  0  0  0  0  0  0  0
   -2.1197   -4.2614    0.1272 H   0  0  0  0  0  0  0  0  0  0  0  0
   -1.3376   -2.2374   -0.0939 C   0  0  0  0  0  0  0  0  0  0  0  0
   -4.5541    1.3902   -0.2174 C   0  0  0  0  0  0  0  0  0  0  0  0
   -4.9995    1.0523    0.7474 H   0  0  0  0  0  0  0  0  0  0  0  0
   -5.1935    0.9824   -1.0361 H   0  0  0  0  0  0  0  0  0  0  0  0
   -4.4872    2.9043   -0.2853 C   0  0  0  0  0  0  0  0  0  0  0  0
   -3.8611    3.3051    0.5365 H   0  0  0  0  0  0  0  0  0  0  0  0
   -5.5019    3.3396   -0.1958 H   0  0  0  0  0  0  0  0  0  0  0  0
   -4.0493    3.2356   -1.2480 H   0  0  0  0  0  0  0  0  0  0  0  0
    0.0292   -2.6683   -0.1356 C   0  0  0  0  0  3  0  0  0  0  0  0
    0.1912   -3.7621   -0.2241 H   0  0  0  0  0  0  0  0  0  0  0  0
    2.3917   -2.5434   -0.3714 C   0  0  0  0  0  0  0  0  0  0  0  0
    2.2451   -3.6412   -0.4640 H   0  0  0  0  0  0  0  0  0  0  0  0
    3.0562   -2.3526    0.4916 H   0  0  0  0  0  0  0  0  0  0  0  0
    3.0251   -1.9689   -1.6651 C   0  0  0  0  0  0  0  0  0  0  0  0
    3.9240   -1.3763   -1.4044 H   0  0  0  0  0  0  0  0  0  0  0  0
    3.3554   -2.7993   -2.3213 H   0  0  0  0  0  0  0  0  0  0  0  0
    2.0747   -1.0877   -2.4750 C   0  0  0  0  0  0  0  0  0  0  0  0
    2.5295   -0.8712   -3.4689 H   0  0  0  0  0  0  0  0  0  0  0  0
    1.1140   -1.6083   -2.6697 H   0  0  0  0  0  0  0  0  0  0  0  0
    0.9489    1.0734   -2.6578 C   0  0  0  0  0  0  0  0  0  0  0  0
   -0.0786    0.6559   -2.6861 H   0  0  0  0  0  0  0  0  0  0  0  0
    1.3518    1.0581   -3.6974 H   0  0  0  0  0  0  0  0  0  0  0  0
    0.9199    2.5061   -2.1430 C   0  0  0  0  0  0  0  0  0  0  0  0
    1.9542    2.9136   -2.0968 H   0  0  0  0  0  0  0  0  0  0  0  0
    0.3938    3.1252   -2.8984 H   0  0  0  0  0  0  0  0  0  0  0  0
    0.1868    2.7006   -0.8213 C   0  0  0  0  0  0  0  0  0  0  0  0
   -0.8169    2.2391   -0.8860 H   0  0  0  0  0  0  0  0  0  0  0  0
    0.0536    3.7928   -0.6372 H   0  0  0  0  0  0  0  0  0  0  0  0
   -0.0913    2.3536    1.5145 C   0  0  0  0  0  0  0  0  0  0  0  0
    0.3685    1.9974    2.4511 H   0  0  0  0  0  0  0  0  0  0  0  0
   -1.0326    1.8055    1.3302 H   0  0  0  0  0  0  0  0  0  0  0  0
   -0.3102    3.4427    1.5971 H   0  0  0  0  0  0  0  0  0  0  0  0
    2.1063    2.8176    0.6791 C   0  0  0  0  0  0  0  0  0  0  0  0
    1.9298    3.9163    0.7386 H   0  0  0  0  0  0  0  0  0  0  0  0
    2.8659    2.6092   -0.0941 H   0  0  0  0  0  0  0  0  0  0  0  0
    2.5059    2.4711    1.6487 H   0  0  0  0  0  0  0  0  0  0  0  0
  1  7  1  0  0  0  0
  2  8  1  0  0  0  0
  2 16  1  0  0  0  0
  4  5  1  0  0  0  0
  6 47  1  0  0  0  0
  6 43  1  0  0  0  0
  7  8  2  0  0  0  0
  7 15  1  0  0  0  0
  8  9  1  0  0  0  0
  9 10  1  0  0  0  0
  9 11  2  0  0  0  0
 11 13  1  0  0  0  0
 11 12  1  0  0  0  0
 13 14  1  0  0  0  0
 15 13  2  0  0  0  0
 16 17  1  0  0  0  0
 18 16  1  0  0  0  0
 19 16  1  0  0  0  0
 19 21  1  0  0  0  0
 19 20  1  0  0  0  0
 22 19  1  0  0  0  0
 23  3  1  0  0  0  0
 23 15  1  0  0  0  0
 24 23  1  0  0  0  0
 25  3  1  0  0  0  0
 25 27  1  0  0  0  0
 26 25  1  0  0  0  0
 28 29  1  0  0  0  0
 28 25  1  0  0  0  0
 30 28  1  0  0  0  0
 31  4  1  0  0  0  0
 31 28  1  0  0  0  0
 32 31  1  0  0  0  0
 33 31  1  0  0  0  0
 34 37  1  0  0  0  0
 34  4  1  0  0  0  0
 35 34  1  0  0  0  0
 36 34  1  0  0  0  0
 37 38  1  0  0  0  0
 37 40  1  0  0  0  0
 39 37  1  0  0  0  0
 40 42  1  0  0  0  0
 40  6  1  0  0  0  0
 41 40  1  0  0  0  0
 43 46  1  0  0  0  0
 43 44  1  0  0  0  0
 45 43  1  0  0  0  0
 47 48  1  0  0  0  0
 47 50  1  0  0  0  0
 49 47  1  0  0  0  0
M  CHG  1   1  -1
M  END
