1,2,3,4
q = -1.0, confidence = 0.158

 61 65  0  0  1  0  0  0  0  0999 V2000
    1.3223    0.6284   -1.2342 O   0  0  0  0  0  1  0  0  0  0  0  0
    1.3206   -1.9382   -0.3799 N   0  0  0  0  0  2  0  0  0  0  0  0
   -1.3728    0.6034   -1.1023 N   0  0  0  0  0  2  0  0  0  0  0  0
   -1.2746   -1.9989   -0.6513 N   0  0  0  0  0  0  0  0  0  0  0  0
    2.5772   -1.8087    0.1358 C   0  0  1  0  0  3  0  0  0  0  0  0
    2.9834   -0.5477    0.7899 C   0  0  0  0  0  0  0  0  0  0  0  0
    2.0851    0.1207    1.6507 C   0  0  0  0  0  0  0  0  0  0  0  0
    2.4815    1.2712    2.3399 C   0  0  0  0  0  0  0  0  0  0  0  0
    3.7859    1.7690    2.1850 C   0  0  0  0  0  0  0  0  0  0  0  0
    4.6905    1.1061    1.3412 C   0  0  0  0  0  0  0  0  0  0  0  0
    4.2959   -0.0482    0.6508 C   0  0  0  0  0  0  0  0  0  0  0  0
    3.4441   -2.9243    0.1325 C   0  0  0  0  0  0  0  0  0  0  0  0
    2.9994   -4.1662   -0.3241 C   0  0  0  0  0  0  0  0  0  0  0  0
    1.6689   -4.2998   -0.7549 C   0  0  0  0  0  0  0  0  0  0  0  0
    0.8656   -3.1605   -0.7755 C   0  0  0  0  0  0  0  0  0  0  0  0
   -0.5534   -3.1398   -1.2820 C   0  0  0  0  0  0  0  0  0  0  0  0
   -1.3014    1.9688   -1.0153 C   0  0  0  0  0  0  0  0  0  0  0  0
   -0.0145    2.6336   -0.8379 C   0  0  0  0  0  0  0  0  0  0  0  0
    1.2239    1.9258   -1.0343 C   0  0  2  0  0  3  0  0  0  0  0  0
    2.4406    2.6666   -1.0357 C   0  0  0  0  0  0  0  0  0  0  0  0
    2.4545    4.0305   -0.7751 C   0  0  0  0  0  0  0  0  0  0  0  0
    1.2502    4.7194   -0.5044 C   0  0  0  0  0  0  0  0  0  0  0  0
    0.0467    4.0267   -0.5471 C   0  0  0  0  0  0  0  0  0  0  0  0
   -2.5150    2.7028   -1.1422 C   0  0  0  0  0  0  0  0  0  0  0  0
   -3.7336    2.0582   -1.3067 C   0  0  0  0  0  0  0  0  0  0  0  0
   -3.7716    0.6521   -1.3831 C   0  0  0  0  0  0  0  0  0  0  0  0
   -2.5687   -0.0345   -1.2950 C   0  0  0  0  0  0  0  0  0  0  0  0
   -2.4371   -1.5234   -1.4557 C   0  0  0  0  0  0  0  0  0  0  0  0
   -1.6606   -2.3358    0.7693 C   0  0  0  0  0  0  0  0  0  0  0  0
   -2.5205   -1.2921    1.4361 C   0  0  0  0  0  0  0  0  0  0  0  0
   -3.8992   -1.5251    1.6100 C   0  0  0  0  0  0  0  0  0  0  0  0
   -4.7261   -0.5419    2.1742 C   0  0  0  0  0  0  0  0  0  0  0  0
   -4.1806    0.6880    2.5721 C   0  0  0  0  0  0  0  0  0  0  0  0
   -2.8036    0.9236    2.4221 C   0  0  0  0  0  0  0  0  0  0  0  0
   -1.9805   -0.0622    1.8646 C   0  0  0  0  0  0  0  0  0  0  0  0
    1.0772   -0.2924    1.8010 H   0  0  0  0  0  0  0  0  0  0  0  0
    1.7729    1.7779    3.0117 H   0  0  0  0  0  0  0  0  0  0  0  0
    4.0977    2.6746    2.7258 H   0  0  0  0  0  0  0  0  0  0  0  0
    5.7119    1.4943    1.2135 H   0  0  0  0  0  0  0  0  0  0  0  0
    5.0033   -0.5491   -0.0272 H   0  0  0  0  0  0  0  0  0  0  0  0
    4.4536   -2.8079    0.5496 H   0  0  0  0  0  0  0  0  0  0  0  0
    3.6703   -5.0376   -0.3082 H   0  0  0  0  0  0  0  0  0  0  0  0
    1.2633   -5.2692   -1.0772 H   0  0  0  0  0  0  0  0  0  0  0  0
   -1.0708   -4.1065   -1.0941 H   0  0  0  0  0  0  0  0  0  0  0  0
   -0.5493   -2.9743   -2.3797 H   0  0  0  0  0  0  0  0  0  0  0  0
    3.3658    2.1051   -1.2232 H   0  0  0  0  0  0  0  0  0  0  0  0
    3.4134    4.5708   -0.7624 H   0  0  0  0  0  0  0  0  0  0  0  0
    1.2615    5.7921   -0.2657 H   0  0  0  0  0  0  0  0  0  0  0  0
   -0.8808    4.5755   -0.3333 H   0  0  0  0  0  0  0  0  0  0  0  0
   -2.4777    3.7981   -1.1264 H   0  0  0  0  0  0  0  0  0  0  0  0
   -4.6605    2.6443   -1.3885 H   0  0  0  0  0  0  0  0  0  0  0  0
   -4.7149    0.1038   -1.5072 H   0  0  0  0  0  0  0  0  0  0  0  0
   -2.2221   -1.7513   -2.5207 H   0  0  0  0  0  0  0  0  0  0  0  0
   -3.3722   -2.0545   -1.1821 H   0  0  0  0  0  0  0  0  0  0  0  0
   -2.2064   -3.3050    0.7432 H   0  0  0  0  0  0  0  0  0  0  0  0
   -0.7155   -2.5010    1.3235 H   0  0  0  0  0  0  0  0  0  0  0  0
   -4.3316   -2.4915    1.3042 H   0  0  0  0  0  0  0  0  0  0  0  0
   -5.8000   -0.7397    2.3072 H   0  0  0  0  0  0  0  0  0  0  0  0
   -4.8273    1.4614    3.0128 H   0  0  0  0  0  0  0  0  0  0  0  0
   -2.3676    1.8811    2.7436 H   0  0  0  0  0  0  0  0  0  0  0  0
   -0.9064    0.1378    1.7337 H   0  0  0  0  0  0  0  0  0  0  0  0
  2  5  1  0  0  0  0
  3 17  1  0  0  0  0
  4 29  1  0  0  0  0
  5  6  1  1  0  0  0
  6  7  1  0  0  0  0
  7 36  1  0  0  0  0
  7  8  2  0  0  0  0
  8 37  1  0  0  0  0
  9  8  1  0  0  0  0
  9 38  1  0  0  0  0
 10  9  2  0  0  0  0
 11  6  2  0  0  0  0
 11 10  1  0  0  0  0
 12  5  1  0  0  0  0
 12 41  1  0  0  0  0
 13 42  1  0  0  0  0
 13 12  2  0  0  0  0
 14 13  1  0  0  0  0
 15 14  2  0  0  0  0
 15  2  1  0  0  0  0
 16 44  1  0  0  0  0
 16 15  1  0  0  0  0
 16  4  1  0  0  0  0
 17 18  2  0  0  0  0
 18 23  1  0  0  0  0
 19  1  1  6  0  0  0
 19 18  1  0  0  0  0
 20 19  1  0  0  0  0
 20 21  2  0  0  0  0
 21 47  1  0  0  0  0
 21 22  1  0  0  0  0
 22 48  1  0  0  0  0
 23 22  2  0  0  0  0
 23 49  1  0  0  0  0
 24 50  1  0  0  0  0
 24 17  1  0  0  0  0
 25 24  2  0  0  0  0
 26 25  1  0  0  0  0
 26 27  2  0  0  0  0
 27  3  1  0  0  0  0
 28 27  1  0  0  0  0
 28 54  1  0  0  0  0
 28  4  1  0  0  0  0
 29 56  1  0  0  0  0
 29 30  1  0  0  0  0
 30 31  2  0  0  0  0
 30 35  1  0  0  0  0
 31 32  1  0  0  0  0
 32 58  1  0  0  0  0
 32 33  2  0  0  0  0
 33 59  1  0  0  0  0
 34 33  1  0  0  0  0
 34 60  1  0  0  0  0
 35 34  2  0  0  0  0
 39 10  1  0  0  0  0
 40 11  1  0  0  0  0
 43 14  1  0  0  0  0
 45 16  1  0  0  0  0
 46 20  1  0  0  0  0
 51 25  1  0  0  0  0
 52 26  1  0  0  0  0
 53 28  1  0  0  0  0
 55 29  1  0  0  0  0
 57 31  1  0  0  0  0
 61 35  1  0  0  0  0
M  END
