2,4,6,7
q = -2.0, confidence = 0.794

 73 76  0  0  1  0  0  0  0  0999 V2000
   -2.8972   -0.8617   -2.4492 O   0  0  0  0  0  0  0  0  0  0  0  0
   -0.5425    1.5845    2.0475 O   0  5  0  0  0  0  0  0  0  0  0  0
    1.0025    2.8842    3.0527 O   0  0  0  0  0  0  0  0  0  0  0  0
   -2.6588    0.5258    0.8297 N   0  0  0  0  0  0  0  0  0  0  0  0
   -2.8341    1.4219    1.3104 H   0  0  0  0  0  0  0  0  0  0  0  0
   -1.0896   -0.5391   -0.9753 N   0  0  0  0  0  2  0  0  0  0  0  0
    1.0768    0.3641    0.4841 N   0  0  0  0  0  2  0  0  0  0  0  0
   -3.0664   -0.0687    3.1918 C   0  0  0  0  0  0  0  0  0  0  0  0
   -2.0641    0.3271    3.4450 H   0  0  0  0  0  0  0  0  0  0  0  0
   -3.3250   -0.8854    3.8921 H   0  0  0  0  0  0  0  0  0  0  0  0
   -3.7971    0.7533    3.3369 H   0  0  0  0  0  0  0  0  0  0  0  0
   -3.1140   -0.5815    1.7512 C   0  0  2  0  0  0  0  0  0  0  0  0
   -4.1682   -0.8165    1.5008 H   0  0  0  0  0  0  0  0  0  0  0  0
   -2.2955   -1.8438    1.5191 C   0  0  0  0  0  0  0  0  0  0  0  0
   -2.7861   -2.8646    0.6877 C   0  0  0  0  0  0  0  0  0  0  0  0
   -3.7901   -2.7701    0.2451 H   0  0  0  0  0  0  0  0  0  0  0  0
   -1.9986   -3.9885    0.3856 C   0  0  0  0  0  0  0  0  0  0  0  0
   -2.3911   -4.7661   -0.2861 H   0  0  0  0  0  0  0  0  0  0  0  0
   -0.7114   -4.1085    0.9261 C   0  0  0  0  0  0  0  0  0  0  0  0
   -0.0848   -4.9775    0.6767 H   0  0  0  0  0  0  0  0  0  0  0  0
   -0.2201   -3.1044    1.7768 C   0  0  0  0  0  0  0  0  0  0  0  0
    0.7889   -3.1954    2.2076 H   0  0  0  0  0  0  0  0  0  0  0  0
   -1.0032   -1.9797    2.0718 C   0  0  0  0  0  0  0  0  0  0  0  0
   -0.6066   -1.1996    2.7374 H   0  0  0  0  0  0  0  0  0  0  0  0
   -3.2152    0.5977   -0.5588 C   0  0  0  0  0  0  0  0  0  0  0  0
   -4.7052    0.2688   -0.6670 C   0  0  0  0  0  0  0  0  0  0  0  0
   -4.9328   -0.7806   -0.4019 H   0  0  0  0  0  0  0  0  0  0  0  0
   -5.0148    0.4007   -1.7198 H   0  0  0  0  0  0  0  0  0  0  0  0
   -5.3071    0.9449   -0.0264 H   0  0  0  0  0  0  0  0  0  0  0  0
   -2.9586    2.0302   -1.0571 C   0  0  0  0  0  0  0  0  0  0  0  0
   -3.5822    2.7587   -0.4973 H   0  0  0  0  0  0  0  0  0  0  0  0
   -3.2116    2.1065   -2.1311 H   0  0  0  0  0  0  0  0  0  0  0  0
   -1.8938    2.3066   -0.9335 H   0  0  0  0  0  0  0  0  0  0  0  0
   -2.3854   -0.3747   -1.4394 C   0  0  0  0  0  0  0  0  0  0  0  0
   -0.2135   -1.4883   -1.4818 C   0  0  2  0  0  3  0  0  0  0  0  0
   -0.6229   -2.4584   -2.4447 C   0  0  0  0  0  0  0  0  0  0  0  0
   -1.6354   -2.3713   -2.8497 H   0  0  0  0  0  0  0  0  0  0  0  0
    0.2144   -3.4953   -2.8476 C   0  0  0  0  0  0  0  0  0  0  0  0
   -0.1638   -4.2326   -3.5731 H   0  0  0  0  0  0  0  0  0  0  0  0
    1.5194   -3.6122   -2.3339 C   0  0  0  0  0  0  0  0  0  0  0  0
    2.1784   -4.4383   -2.6381 H   0  0  0  0  0  0  0  0  0  0  0  0
    1.9709   -2.6436   -1.4446 C   0  0  0  0  0  0  0  0  0  0  0  0
    2.9949   -2.7098   -1.0536 H   0  0  0  0  0  0  0  0  0  0  0  0
    1.1518   -1.5635   -1.0093 C   0  0  0  0  0  0  0  0  0  0  0  0
    1.7656   -0.5730   -0.1324 C   0  0  0  0  0  0  0  0  0  0  0  0
    3.2504   -0.6375    0.0772 C   0  0  0  0  0  0  0  0  0  0  0  0
    4.1433   -0.2302   -0.9344 C   0  0  0  0  0  0  0  0  0  0  0  0
    3.7432    0.1244   -1.8964 H   0  0  0  0  0  0  0  0  0  0  0  0
    5.5285   -0.2866   -0.7213 C   0  0  0  0  0  0  0  0  0  0  0  0
    6.2165    0.0381   -1.5165 H   0  0  0  0  0  0  0  0  0  0  0  0
    6.0354   -0.7592    0.4997 C   0  0  0  0  0  0  0  0  0  0  0  0
    7.1224   -0.8045    0.6653 H   0  0  0  0  0  0  0  0  0  0  0  0
    5.1523   -1.1793    1.5070 C   0  0  0  0  0  0  0  0  0  0  0  0
    5.5442   -1.5586    2.4627 H   0  0  0  0  0  0  0  0  0  0  0  0
    3.7666   -1.1177    1.2983 C   0  0  0  0  0  0  0  0  0  0  0  0
    3.0708   -1.4513    2.0839 H   0  0  0  0  0  0  0  0  0  0  0  0
    1.7120    1.4453    1.2476 C   0  0  1  0  0  0  0  0  0  0  0  0
    2.5678    1.0643    1.8403 H   0  0  0  0  0  0  0  0  0  0  0  0
    2.2494    2.5719    0.3311 C   0  0  0  0  0  0  0  0  0  0  0  0
    2.6467    3.3444    1.0198 H   0  0  0  0  0  0  0  0  0  0  0  0
    3.1001    2.1734   -0.2565 H   0  0  0  0  0  0  0  0  0  0  0  0
    1.2152    3.1724   -0.5909 C   0  0  0  0  0  0  0  0  0  0  0  0
    1.0250    2.6656   -1.8932 C   0  0  0  0  0  0  0  0  0  0  0  0
    1.6301    1.8110   -2.2349 H   0  0  0  0  0  0  0  0  0  0  0  0
    0.0853    3.2414   -2.7608 C   0  0  0  0  0  0  0  0  0  0  0  0
   -0.0447    2.8336   -3.7748 H   0  0  0  0  0  0  0  0  0  0  0  0
   -0.6851    4.3356   -2.3357 C   0  0  0  0  0  0  0  0  0  0  0  0
   -1.4173    4.7945   -3.0175 H   0  0  0  0  0  0  0  0  0  0  0  0
   -0.5246    4.8325   -1.0321 C   0  0  0  0  0  0  0  0  0  0  0  0
   -1.1319    5.6837   -0.6877 H   0  0  0  0  0  0  0  0  0  0  0  0
    0.4149    4.2535   -0.1657 C   0  0  0  0  0  0  0  0  0  0  0  0
    0.5415    4.6416    0.8570 H   0  0  0  0  0  0  0  0  0  0  0  0
    0.6789    2.0382    2.2293 C   0  0  0  0  0  0  0  0  0  0  0  0
  1 34  2  0  0  0  0
  2 73  1  0  0  0  0
  4  5  1  0  0  0  0
  4 12  1  0  0  0  0
  7 57  1  0  0  0  0
  8 11  1  0  0  0  0
  8  9  1  0  0  0  0
  8 10  1  0  0  0  0
 12 13  1  6  0  0  0
 12  8  1  0  0  0  0
 14 12  1  0  0  0  0
 14 23  1  0  0  0  0
 15 14  2  0  0  0  0
 16 15  1  0  0  0  0
 17 15  1  0  0  0  0
 17 19  2  0  0  0  0
 18 17  1  0  0  0  0
 19 21  1  0  0  0  0
 20 19  1  0  0  0  0
 21 23  2  0  0  0  0
 21 22  1  0  0  0  0
 23 24  1  0  0  0  0
 25  4  1  0  0  0  0
 26 25  1  0  0  0  0
 26 27  1  0  0  0  0
 26 29  1  0  0  0  0
 28 26  1  0  0  0  0
 30 33  1  0  0  0  0
 30 25  1  0  0  0  0
 30 31  1  0  0  0  0
 32 30  1  0  0  0  0
 34  6  1  0  0  0  0
 34 25  1  0  0  0  0
 35 44  1  0  0  0  0
 35  6  1  1  0  0  0
 36 35  1  0  0  0  0
 37 36  1  0  0  0  0
 38 36  2  0  0  0  0
 38 40  1  0  0  0  0
 39 38  1  0  0  0  0
 40 42  2  0  0  0  0
 41 40  1  0  0  0  0
 42 43  1  0  0  0  0
 42 44  1  0  0  0  0
 44 45  2  0  0  0  0
 45 46  1  0  0  0  0
 45  7  1  0  0  0  0
 46 55  1  0  0  0  0
 47 49  1  0  0  0  0
 47 46  2  0  0  0  0
 48 47  1  0  0  0  0
 49 51  2  0  0  0  0
 50 49  1  0  0  0  0
 51 52  1  0  0  0  0
 51 53  1  0  0  0  0
 53 54  1  0  0  0  0
 55 53  2  0  0  0  0
 55 56  1  0  0  0  0
 57 58  1  1  0  0  0
 57 73  1  0  0  0  0
 59 60  1  0  0  0  0
 59 57  1  0  0  0  0
 61 59  1  0  0  0  0
 62 71  1  0  0  0  0
 62 59  1  0  0  0  0
 63 62  2  0  0  0  0
 64 63  1  0  0  0  0
 65 67  2  0  0  0  0
 65 63  1  0  0  0  0
 66 65  1  0  0  0  0
 67 69  1  0  0  0  0
 68 67  1  0  0  0  0
 69 70  1  0  0  0  0
 69 71  2  0  0  0  0
 71 72  1  0  0  0  0
 73  3  2  0  0  0  0
M  CHG  1   2  -1
M  END
