2,4,6,7
q = -2.0, confidence = 0.79

 70 73  0  0  1  0  0  0  0  0999 V2000
   -3.1243   -0.0056    2.6522 O   0  0  0  0  0  0  0  0  0  0  0  0
   -0.0330   -2.0689   -1.6197 O   0  5  0  0  0  0  0  0  0  0  0  0
    1.8621   -2.5747   -2.7397 O   0  0  0  0  0  0  0  0  0  0  0  0
   -2.3409   -1.8877   -0.2661 N   0  0  0  0  0  0  0  0  0  0  0  0
   -2.1040   -2.8527   -0.5441 H   0  0  0  0  0  0  0  0  0  0  0  0
   -1.3764    0.1477    1.0827 N   0  0  0  0  0  2  0  0  0  0  0  0
    0.9316   -0.0447   -0.3934 N   0  0  0  0  0  2  0  0  0  0  0  0
   -4.0111    1.0366   -0.7643 C   0  0  0  0  0  0  0  0  0  0  0  0
   -4.8502    0.6244   -0.1821 H   0  0  0  0  0  0  0  0  0  0  0  0
   -3.8078    2.4265   -0.8000 C   0  0  0  0  0  0  0  0  0  0  0  0
   -4.4904    3.0930   -0.2523 H   0  0  0  0  0  0  0  0  0  0  0  0
   -2.7278    2.9588   -1.5170 C   0  0  0  0  0  0  0  0  0  0  0  0
   -2.5548    4.0451   -1.5314 H   0  0  0  0  0  0  0  0  0  0  0  0
   -1.8594    2.0963   -2.2064 C   0  0  0  0  0  0  0  0  0  0  0  0
   -1.0122    2.5085   -2.7757 H   0  0  0  0  0  0  0  0  0  0  0  0
   -2.0600    0.7091   -2.1674 C   0  0  0  0  0  0  0  0  0  0  0  0
   -1.3735    0.0442   -2.7110 H   0  0  0  0  0  0  0  0  0  0  0  0
   -3.1369    0.1643   -1.4339 C   0  0  0  0  0  0  0  0  0  0  0  0
   -3.3018   -1.3427   -1.2980 C   0  0  1  0  0  0  0  0  0  0  0  0
   -4.3322   -1.5361   -0.9372 H   0  0  0  0  0  0  0  0  0  0  0  0
   -3.0959   -2.1086   -2.6063 C   0  0  0  0  0  0  0  0  0  0  0  0
   -3.3845   -3.1731   -2.4842 H   0  0  0  0  0  0  0  0  0  0  0  0
   -2.0351   -2.0816   -2.9222 H   0  0  0  0  0  0  0  0  0  0  0  0
   -3.7270   -1.6718   -3.4033 H   0  0  0  0  0  0  0  0  0  0  0  0
   -2.7364   -1.8769    1.1792 C   0  0  0  0  0  0  0  0  0  0  0  0
   -1.7999   -2.8622    1.9048 C   0  0  0  0  0  0  0  0  0  0  0  0
   -1.9596   -2.7916    2.9973 H   0  0  0  0  0  0  0  0  0  0  0  0
   -0.7373   -2.6308    1.6878 H   0  0  0  0  0  0  0  0  0  0  0  0
   -2.0069   -3.9062    1.5884 H   0  0  0  0  0  0  0  0  0  0  0  0
   -4.1931   -2.2619    1.4413 C   0  0  0  0  0  0  0  0  0  0  0  0
   -4.9088   -1.5334    1.0170 H   0  0  0  0  0  0  0  0  0  0  0  0
   -4.3632   -2.2669    2.5335 H   0  0  0  0  0  0  0  0  0  0  0  0
   -4.4159   -3.2699    1.0363 H   0  0  0  0  0  0  0  0  0  0  0  0
   -2.4501   -0.4496    1.7211 C   0  0  0  0  0  0  0  0  0  0  0  0
   -1.0010    1.4698    1.2950 C   0  0  0  0  0  0  0  0  0  0  0  0
   -1.8063    2.3724    2.0489 C   0  0  0  0  0  0  0  0  0  0  0  0
   -2.7116    1.9753    2.5171 H   0  0  0  0  0  0  0  0  0  0  0  0
   -1.4692    3.7170    2.1892 C   0  0  0  0  0  0  0  0  0  0  0  0
   -2.1402    4.3756    2.7627 H   0  0  0  0  0  0  0  0  0  0  0  0
   -0.2944    4.2339    1.6121 C   0  0  0  0  0  0  0  0  0  0  0  0
   -0.0272    5.2949    1.7222 H   0  0  0  0  0  0  0  0  0  0  0  0
    0.5377    3.3675    0.9117 C   0  0  0  0  0  3  0  0  0  0  0  0
    1.4710    3.7473    0.4741 H   0  0  0  0  0  0  0  0  0  0  0  0
    0.2235    1.9920    0.7313 C   0  0  0  0  0  0  0  0  0  0  0  0
    1.1969    1.1742    0.0199 C   0  0  0  0  0  0  0  0  0  0  0  0
    2.5641    1.7335   -0.2429 C   0  0  0  0  0  0  0  0  0  0  0  0
    3.5746    1.6378    0.7331 C   0  0  0  0  0  0  0  0  0  0  0  0
    3.3502    1.1644    1.6999 H   0  0  0  0  0  0  0  0  0  0  0  0
    4.8596    2.1320    0.4646 C   0  0  0  0  0  0  0  0  0  0  0  0
    5.6456    2.0477    1.2300 H   0  0  0  0  0  0  0  0  0  0  0  0
    5.1434    2.7273   -0.7745 C   0  0  0  0  0  0  0  0  0  0  0  0
    6.1527    3.1136   -0.9825 H   0  0  0  0  0  0  0  0  0  0  0  0
    4.1377    2.8287   -1.7491 C   0  0  0  0  0  0  0  0  0  0  0  0
    4.3548    3.2955   -2.7217 H   0  0  0  0  0  0  0  0  0  0  0  0
    2.8526    2.3315   -1.4867 C   0  0  0  0  0  0  0  0  0  0  0  0
    2.0602    2.4050   -2.2476 H   0  0  0  0  0  0  0  0  0  0  0  0
    1.9579   -0.9103   -0.9731 C   0  0  1  0  0  0  0  0  0  0  0  0
    2.6640   -0.3291   -1.5995 H   0  0  0  0  0  0  0  0  0  0  0  0
    2.7532   -1.6492    0.0953 C   0  0  0  0  0  0  0  0  0  0  0  0
    3.9108   -2.3543   -0.2882 C   0  0  0  0  0  0  0  0  0  0  0  0
    4.2097   -2.3548   -1.3469 H   0  0  0  0  0  0  0  0  0  0  0  0
    4.6518   -3.0662    0.6644 C   0  0  0  0  0  0  0  0  0  0  0  0
    5.5567   -3.6106    0.3534 H   0  0  0  0  0  0  0  0  0  0  0  0
    4.2458   -3.0865    2.0095 C   0  0  0  0  0  0  0  0  0  0  0  0
    4.8322   -3.6427    2.7565 H   0  0  0  0  0  0  0  0  0  0  0  0
    3.0869   -2.3956    2.3932 C   0  0  0  0  0  0  0  0  0  0  0  0
    2.7563   -2.4094    3.4432 H   0  0  0  0  0  0  0  0  0  0  0  0
    2.3403   -1.6826    1.4410 C   0  0  0  0  0  0  0  0  0  0  0  0
    1.4299   -1.1440    1.7442 H   0  0  0  0  0  0  0  0  0  0  0  0
    1.2484   -1.9452   -1.8926 C   0  0  0  0  0  0  0  0  0  0  0  0
  3 70  2  0  0  0  0
  4 25  1  0  0  0  0
  5  4  1  0  0  0  0
  6 35  1  0  0  0  0
  6 34  1  0  0  0  0
  7 45  1  0  0  0  0
  8  9  1  0  0  0  0
 10  8  1  0  0  0  0
 10 11  1  0  0  0  0
 12 10  2  0  0  0  0
 13 12  1  0  0  0  0
 14 16  2  0  0  0  0
 14 12  1  0  0  0  0
 15 14  1  0  0  0  0
 16 18  1  0  0  0  0
 17 16  1  0  0  0  0
 18 19  1  0  0  0  0
 18  8  2  0  0  0  0
 19 20  1  1  0  0  0
 19  4  1  0  0  0  0
 21 22  1  0  0  0  0
 21 19  1  0  0  0  0
 23 21  1  0  0  0  0
 24 21  1  0  0  0  0
 25 30  1  0  0  0  0
 25 34  1  0  0  0  0
 25 26  1  0  0  0  0
 26 27  1  0  0  0  0
 28 26  1  0  0  0  0
 29 26  1  0  0  0  0
 30 32  1  0  0  0  0
 31 30  1  0  0  0  0
 33 30  1  0  0  0  0
 34  1  2  0  0  0  0
 35 36  2  0  0  0  0
 36 38  1  0  0  0  0
 36 37  1  0  0  0  0
 38 39  1  0  0  0  0
 40 41  1  0  0  0  0
 40 38  2  0  0  0  0
 42 40  1  0  0  0  0
 43 42  1  0  0  0  0
 44 42  1  0  0  0  0
 44 35  1  0  0  0  0
 45 44  2  0  0  0  0
 46 45  1  0  0  0  0
 46 47  1  0  0  0  0
 47 48  1  0  0  0  0
 49 47  2  0  0  0  0
 49 50  1  0  0  0  0
 51 49  1  0  0  0  0
 52 51  1  0  0  0  0
 53 55  1  0  0  0  0
 53 51  2  0  0  0  0
 54 53  1  0  0  0  0
 55 46  2  0  0  0  0
 56 55  1  0  0  0  0
 57 58  1  6  0  0  0
 57  7  1  0  0  0  0
 57 59  1  0  0  0  0
 59 68  1  0  0  0  0
 60 59  2  0  0  0  0
 60 62  1  0  0  0  0
 61 60  1  0  0  0  0
 62 64  2  0  0  0  0
 63 62  1  0  0  0  0
 64 66  1  0  0  0  0
 64 65  1  0  0  0  0
 66 67  1  0  0  0  0
 68 69  1  0  0  0  0
 68 66  2  0  0  0  0
 70  2  1  0  0  0  0
 70 57  1  0  0  0  0
M  CHG  1   2  -1
M  END
