43,44,45,48
q = -1.0, confidence = 0.124

 49 50  0  0  1  0  0  0  0  0999 V2000
    0.6678    2.4020   -0.4449 C   0  0  0  0  0  3  0  0  0  0  0  0
   -0.3644    2.4149   -0.0568 H   0  0  0  0  0  0  0  0  0  0  0  0
    1.4350    3.5512   -0.6571 C   0  0  0  0  0  0  0  0  0  0  0  0
    1.0118    4.5367   -0.4173 H   0  0  0  0  0  0  0  0  0  0  0  0
    2.7353    3.4226   -1.1688 C   0  0  0  0  0  0  0  0  0  0  0  0
    3.3606    4.3114   -1.3383 H   0  0  0  0  0  0  0  0  0  0  0  0
    3.2327    2.1432   -1.4609 C   0  0  0  0  0  0  0  0  0  0  0  0
    4.2468    2.0048   -1.8627 H   0  0  0  0  0  0  0  0  0  0  0  0
    2.4138    1.0342   -1.2298 C   0  0  0  0  0  0  0  0  0  0  0  0
    2.7758   -0.3908   -1.5586 C   0  0  0  0  0  0  0  0  0  0  0  0
    3.8641   -0.5850   -1.4449 H   0  0  0  0  0  0  0  0  0  0  0  0
    2.5169   -0.5897   -2.6200 H   0  0  0  0  0  0  0  0  0  0  0  0
    2.6264   -1.5865    0.6059 C   0  0  0  0  0  0  0  0  0  0  0  0
    3.6022   -2.0828    0.3954 H   0  0  0  0  0  0  0  0  0  0  0  0
    1.9969   -2.3267    1.1368 H   0  0  0  0  0  0  0  0  0  0  0  0
    2.8306   -0.3707    1.4985 C   0  0  0  0  0  0  0  0  0  0  0  0
    3.4988    0.3781    1.0256 H   0  0  0  0  0  0  0  0  0  0  0  0
    1.8627    0.1392    1.6843 H   0  0  0  0  0  0  0  0  0  0  0  0
    3.4456   -0.7450    2.8451 C   0  0  0  0  0  0  0  0  0  0  0  0
    2.7654   -1.4577    3.3772 H   0  0  0  0  0  0  0  0  0  0  0  0
    4.4087   -1.2911    2.6756 H   0  0  0  0  0  0  0  0  0  0  0  0
    1.6405   -2.6035   -1.4072 C   0  0  0  0  0  0  0  0  0  0  0  0
    2.5182   -3.2860   -1.4167 H   0  0  0  0  0  0  0  0  0  0  0  0
    1.3820   -2.3532   -2.4546 H   0  0  0  0  0  0  0  0  0  0  0  0
    0.4335   -3.2248   -0.7163 C   0  0  0  0  0  0  0  0  0  0  0  0
   -0.0063   -4.0216   -1.3525 H   0  0  0  0  0  0  0  0  0  0  0  0
    0.7203   -3.7057    0.2447 H   0  0  0  0  0  0  0  0  0  0  0  0
   -1.8007   -2.4045   -0.2823 C   0  0  0  0  0  0  0  0  0  0  0  0
   -2.1167   -3.4639   -0.3532 H   0  0  0  0  0  0  0  0  0  0  0  0
   -2.8154   -1.4458   -0.0007 C   0  0  0  0  0  0  0  0  0  0  0  0
   -2.4869   -0.0508    0.0786 C   0  0  2  0  0  3  0  0  0  0  0  0
   -3.5477    0.8885    0.3494 C   0  0  0  0  0  0  0  0  0  0  0  0
   -4.8524    0.4280    0.5319 C   0  0  0  0  0  0  0  0  0  0  0  0
   -5.6606    1.1415    0.7412 H   0  0  0  0  0  0  0  0  0  0  0  0
   -5.1611   -0.9556    0.4481 C   0  0  0  0  0  0  0  0  0  0  0  0
   -6.2004   -1.2821    0.5936 H   0  0  0  0  0  0  0  0  0  0  0  0
   -4.1667   -1.8787    0.1852 C   0  0  0  0  0  0  0  0  0  0  0  0
   -4.3969   -2.9523    0.1167 H   0  0  0  0  0  0  0  0  0  0  0  0
   -4.1325    3.1719    0.6759 C   0  0  0  0  0  0  0  0  0  0  0  0
   -4.9218    3.1882   -0.1077 H   0  0  0  0  0  0  0  0  0  0  0  0
   -3.6067    4.1438    0.6795 H   0  0  0  0  0  0  0  0  0  0  0  0
   -4.6113    3.0141    1.6675 H   0  0  0  0  0  0  0  0  0  0  0  0
    1.1572    1.1747   -0.7281 N   0  0  0  0  0  2  0  0  0  0  0  0
    1.9678   -1.3183   -0.7145 N   0  0  0  0  0  0  0  0  0  0  0  0
   -0.5238   -2.1387   -0.4711 N   0  0  0  0  0  2  0  0  0  0  0  0
    3.6271    0.4590    3.5538 O   0  0  0  0  0  0  0  0  0  0  0  0
    4.0116    0.2497    4.4235 H   0  0  0  0  0  0  0  0  0  0  0  0
   -1.2849    0.4394   -0.0812 O   0  0  0  0  0  1  0  0  0  0  0  0
   -3.1489    2.1840    0.4071 O   0  0  0  0  0  0  0  0  0  0  0  0
  1  2  1  0  0  0  0
  3  1  1  0  0  0  0
  3  4  1  0  0  0  0
  5  3  2  0  0  0  0
  6  5  1  0  0  0  0
  7  9  2  0  0  0  0
  7  5  1  0  0  0  0
  8  7  1  0  0  0  0
  9 43  1  0  0  0  0
 10 11  1  0  0  0  0
 10  9  1  0  0  0  0
 10 44  1  0  0  0  0
 12 10  1  0  0  0  0
 13 15  1  0  0  0  0
 13 16  1  0  0  0  0
 14 13  1  0  0  0  0
 16 18  1  0  0  0  0
 16 19  1  0  0  0  0
 17 16  1  0  0  0  0
 19 20  1  0  0  0  0
 19 46  1  0  0  0  0
 21 19  1  0  0  0  0
 22 25  1  0  0  0  0
 22 44  1  0  0  0  0
 23 22  1  0  0  0  0
 24 22  1  0  0  0  0
 25 45  1  0  0  0  0
 25 27  1  0  0  0  0
 26 25  1  0  0  0  0
 28 30  2  0  0  0  0
 29 28  1  0  0  0  0
 30 31  1  0  0  0  0
 30 37  1  0  0  0  0
 31 48  1  6  0  0  0
 31 32  1  0  0  0  0
 32 49  1  0  0  0  0
 32 33  2  0  0  0  0
 33 34  1  0  0  0  0
 35 33  1  0  0  0  0
 35 36  1  0  0  0  0
 37 35  2  0  0  0  0
 38 37  1  0  0  0  0
 39 41  1  0  0  0  0
 39 42  1  0  0  0  0
 40 39  1  0  0  0  0
 43  1  1  0  0  0  0
 44 13  1  0  0  0  0
 45 28  1  0  0  0  0
 46 47  1  0  0  0  0
 49 39  1  0  0  0  0
M  END
