1,18,28,38
q = -1.0, confidence = 0.064

 47 47  0  0  0  0  0  0  0  0999 V2000
    1.1752    0.7120    0.3689 O   0  5  0  0  0  0  0  0  0  0  0  0
    2.0965   -0.1996    0.5215 C   0  0  0  0  0  0  0  0  0  0  0  0
    3.4570    0.1393    0.2003 C   0  0  0  0  0  0  0  0  0  0  0  0
    4.4784   -0.7971    0.3782 C   0  0  0  0  0  0  0  0  0  0  0  0
    5.5131   -0.5417    0.1111 H   0  0  0  0  0  0  0  0  0  0  0  0
    4.1971   -2.0901    0.8858 C   0  0  0  0  0  0  0  0  0  0  0  0
    5.0172   -2.8120    1.0065 H   0  0  0  0  0  0  0  0  0  0  0  0
    2.8953   -2.4389    1.2158 C   0  0  0  0  0  0  0  0  0  0  0  0
    2.6615   -3.4426    1.6013 H   0  0  0  0  0  0  0  0  0  0  0  0
    1.8365   -1.5072    1.0359 C   0  0  0  0  0  0  0  0  0  0  0  0
    3.6198    1.4030   -0.2956 O   0  0  0  0  0  0  0  0  0  0  0  0
    4.9221    1.7975   -0.6768 C   0  0  0  0  0  0  0  0  0  0  0  0
    5.6283    1.7860    0.1844 H   0  0  0  0  0  0  0  0  0  0  0  0
    4.8392    2.8319   -1.0596 H   0  0  0  0  0  0  0  0  0  0  0  0
    5.3347    1.1462   -1.4803 H   0  0  0  0  0  0  0  0  0  0  0  0
    0.5029   -1.8448    1.4464 C   0  0  0  0  0  3  0  0  0  0  0  0
    0.3975   -2.7428    2.0870 H   0  0  0  0  0  0  0  0  0  0  0  0
   -0.5937   -1.1909    1.1664 N   0  0  0  0  0  2  0  0  0  0  0  0
   -1.8391   -1.6071    1.8017 C   0  0  0  0  0  0  0  0  0  0  0  0
   -1.6126   -2.4364    2.5046 H   0  0  0  0  0  0  0  0  0  0  0  0
   -2.5328   -2.0035    1.0340 H   0  0  0  0  0  0  0  0  0  0  0  0
   -2.4968   -0.4258    2.5561 C   0  0  0  0  0  0  0  0  0  0  0  0
   -3.4317   -0.1198    2.0442 H   0  0  0  0  0  0  0  0  0  0  0  0
   -2.7955   -0.7595    3.5702 H   0  0  0  0  0  0  0  0  0  0  0  0
   -1.5769    0.7811    2.7241 C   0  0  0  0  0  0  0  0  0  0  0  0
   -2.0305    1.4955    3.4479 H   0  0  0  0  0  0  0  0  0  0  0  0
   -0.5939    0.4797    3.1415 H   0  0  0  0  0  0  0  0  0  0  0  0
   -1.3143    1.5007    1.4553 N   0  0  0  0  0  0  0  0  0  0  0  0
   -0.5357    2.7304    1.6805 C   0  0  0  0  0  0  0  0  0  0  0  0
    0.5036    2.4237    1.9156 H   0  0  0  0  0  0  0  0  0  0  0  0
   -0.9465    3.2653    2.5674 H   0  0  0  0  0  0  0  0  0  0  0  0
   -0.5546    3.6534    0.4703 C   0  0  0  0  0  0  0  0  0  0  0  0
   -0.0597    4.6021    0.7626 H   0  0  0  0  0  0  0  0  0  0  0  0
   -1.6021    3.9331    0.2203 H   0  0  0  0  0  0  0  0  0  0  0  0
    0.1873    3.1218   -0.7495 C   0  0  0  0  0  0  0  0  0  0  0  0
    0.2812    3.9376   -1.5041 H   0  0  0  0  0  0  0  0  0  0  0  0
    1.2071    2.8122   -0.4515 H   0  0  0  0  0  0  0  0  0  0  0  0
   -0.4230    1.9474   -1.4310 N   0  0  0  0  0  0  0  0  0  0  0  0
   -1.7089    2.3086   -2.0577 C   0  0  0  0  0  0  0  0  0  0  0  0
   -1.5634    3.1592   -2.7623 H   0  0  0  0  0  0  0  0  0  0  0  0
   -2.4584    2.5890   -1.2973 H   0  0  0  0  0  0  0  0  0  0  0  0
   -2.1050    1.4351   -2.6023 H   0  0  0  0  0  0  0  0  0  0  0  0
    0.5236    1.5500   -2.5001 C   0  0  0  0  0  0  0  0  0  0  0  0
    0.1144    0.6947   -3.0608 H   0  0  0  0  0  0  0  0  0  0  0  0
    1.4804    1.2506   -2.0381 H   0  0  0  0  0  0  0  0  0  0  0  0
    0.6912    2.4136   -3.1833 H   0  0  0  0  0  0  0  0  0  0  0  0
   -2.2315    1.7386    1.0431 H   0  0  0  0  0  0  0  0  0  0  0  0
  1  2  1  0  0  0  0
  2 10  1  0  0  0  0
  3  4  1  0  0  0  0
  3  2  2  0  0  0  0
  4  6  2  0  0  0  0
  5  4  1  0  0  0  0
  6  7  1  0  0  0  0
  6  8  1  0  0  0  0
  8  9  1  0  0  0  0
 10  8  2  0  0  0  0
 10 16  1  0  0  0  0
 11  3  1  0  0  0  0
 12 11  1  0  0  0  0
 12 13  1  0  0  0  0
 14 12  1  0  0  0  0
 15 12  1  0  0  0  0
 16 17  1  0  0  0  0
 18 16  1  0  0  0  0
 18 19  1  0  0  0  0
 19 20  1  0  0  0  0
 19 22  1  0  0  0  0
 21 19  1  0  0  0  0
 22 25  1  0  0  0  0
 22 24  1  0  0  0  0
 23 22  1  0  0  0  0
 25 27  1  0  0  0  0
 25 26  1  0  0  0  0
 28 29  1  0  0  0  0
 28 25  1  0  0  0  0
 29 30  1  0  0  0  0
 29 31  1  0  0  0  0
 32 33  1  0  0  0  0
 32 29  1  0  0  0  0
 34 32  1  0  0  0  0
 35 37  1  0  0  0  0
 35 32  1  0  0  0  0
 36 35  1  0  0  0  0
 38 35  1  0  0  0  0
 39 38  1  0  0  0  0
 39 41  1  0  0  0  0
 40 39  1  0  0  0  0
 42 39  1  0  0  0  0
 43 45  1  0  0  0  0
 43 38  1  0  0  0  0
 44 43  1  0  0  0  0
 46 43  1  0  0  0  0
 47 28  1  0  0  0  0
M  CHG  1   1  -1
M  END
