1,15,24,29
q = -1.0, confidence = 0.1

 35 37  0  0  1  0  0  0  0  0999 V2000
   -0.2943    1.9658   -0.1265 N   0  0  0  0  0  2  0  0  0  0  0  0
   -0.1863    2.8571   -1.1385 C   0  0  2  0  0  3  0  0  0  0  0  0
   -0.1273    2.3629   -2.5460 C   0  0  0  0  0  0  0  0  0  0  0  0
    0.9409    2.1308   -2.7546 H   0  0  0  0  0  0  0  0  0  0  0  0
   -0.4630    3.1375   -3.2594 H   0  0  0  0  0  0  0  0  0  0  0  0
   -0.6817    1.4158   -2.6823 H   0  0  0  0  0  0  0  0  0  0  0  0
   -0.0398    4.2317   -0.8391 C   0  0  0  0  0  0  0  0  0  0  0  0
    0.0313    4.9459   -1.6713 H   0  0  0  0  0  0  0  0  0  0  0  0
    0.0403    4.6650    0.4842 C   0  0  0  0  0  0  0  0  0  0  0  0
    0.1590    5.7334    0.7163 H   0  0  0  0  0  0  0  0  0  0  0  0
    0.0021    3.7159    1.5160 C   0  0  0  0  0  0  0  0  0  0  0  0
    0.1114    4.0161    2.5666 H   0  0  0  0  0  0  0  0  0  0  0  0
   -0.1552    2.3692    1.1798 C   0  0  0  0  0  0  0  0  0  0  0  0
   -0.1169    1.2625    2.1520 C   0  0  1  0  0  3  0  0  0  0  0  0
   -0.2300    0.0620    1.5536 N   0  0  0  0  0  2  0  0  0  0  0  0
   -0.1901   -1.1235    2.2146 C   0  0  0  0  0  0  0  0  0  0  0  0
    0.0157   -1.1261    3.6015 C   0  0  0  0  0  0  0  0  0  0  0  0
    0.0675   -2.0715    4.1587 H   0  0  0  0  0  0  0  0  0  0  0  0
    0.1479    0.1096    4.2585 C   0  0  0  0  0  0  0  0  0  0  0  0
    0.3105    0.1323    5.3455 H   0  0  0  0  0  0  0  0  0  0  0  0
    0.0715    1.3152    3.5434 C   0  0  0  0  0  0  0  0  0  0  0  0
    0.1733    2.2788    4.0601 H   0  0  0  0  0  0  0  0  0  0  0  0
   -0.3973   -2.2545    1.2917 C   0  0  1  0  0  3  0  0  0  0  0  0
   -0.6607   -1.8144    0.0313 N   0  0  0  0  0  2  0  0  0  0  0  0
   -0.8151   -2.6047   -1.0424 C   0  0  0  0  0  0  0  0  0  0  0  0
   -0.9424   -1.7747   -2.3058 C   0  0  0  0  0  0  0  0  0  0  0  0
   -1.6879   -2.2231   -3.0039 H   0  0  0  0  0  0  0  0  0  0  0  0
    0.0519   -1.8256   -2.8179 H   0  0  0  0  0  0  0  0  0  0  0  0
   -1.2895   -0.4521   -1.9913 O   0  0  0  0  0  1  0  0  0  0  0  0
   -0.7609   -3.9976   -0.8622 C   0  0  0  0  0  0  0  0  0  0  0  0
   -0.8849   -4.6739   -1.7201 H   0  0  0  0  0  0  0  0  0  0  0  0
   -0.5326   -4.5014    0.4294 C   0  0  0  0  0  0  0  0  0  0  0  0
   -0.4890   -5.5888    0.5893 H   0  0  0  0  0  0  0  0  0  0  0  0
   -0.3381   -3.6347    1.5220 C   0  0  0  0  0  0  0  0  0  0  0  0
   -0.1279   -4.0289    2.5256 H   0  0  0  0  0  0  0  0  0  0  0  0
  1 13  1  0  0  0  0
  2  3  1  1  0  0  0
  2  7  1  0  0  0  0
  2  1  1  0  0  0  0
  4  3  1  0  0  0  0
  5  3  1  0  0  0  0
  6  3  1  0  0  0  0
  7  9  2  0  0  0  0
  8  7  1  0  0  0  0
  9 10  1  0  0  0  0
  9 11  1  0  0  0  0
 11 12  1  0  0  0  0
 13 11  2  0  0  0  0
 14 13  1  6  0  0  0
 14 21  1  0  0  0  0
 15 14  1  0  0  0  0
 15 16  1  0  0  0  0
 16 17  2  0  0  0  0
 17 18  1  0  0  0  0
 17 19  1  0  0  0  0
 19 20  1  0  0  0  0
 21 22  1  0  0  0  0
 21 19  2  0  0  0  0
 23 34  1  0  0  0  0
 23 16  1  6  0  0  0
 24 23  1  0  0  0  0
 25 30  2  0  0  0  0
 25 24  1  0  0  0  0
 26 29  1  0  0  0  0
 26 25  1  0  0  0  0
 27 26  1  0  0  0  0
 28 26  1  0  0  0  0
 30 32  1  0  0  0  0
 31 30  1  0  0  0  0
 32 33  1  0  0  0  0
 32 34  2  0  0  0  0
 34 35  1  0  0  0  0
M  END
