1,2,3,4
q = -1.0

 35 35  0  0  1  0  0  0  0  0999 V2000
    1.0867   -1.6120    0.0616 O   0  0  0  0  0  1  0  0  0  0  0  0
    0.8816    1.1459   -0.0396 N   0  0  0  0  0  2  0  0  0  0  0  0
   -1.7303    0.8061   -0.1541 N   0  0  0  0  0  0  0  0  0  0  0  0
   -1.7080   -1.5679    0.1806 N   0  0  0  0  0  0  0  0  0  0  0  0
    3.2195   -2.6155   -0.0653 C   0  0  0  0  0  0  0  0  0  0  0  0
    3.0183   -3.2373    0.8307 H   0  0  0  0  0  0  0  0  0  0  0  0
    4.2967   -2.3760   -0.1068 H   0  0  0  0  0  0  0  0  0  0  0  0
    2.9513   -3.2305   -0.9488 H   0  0  0  0  0  0  0  0  0  0  0  0
    2.3637   -1.3775   -0.0292 C   0  0  2  0  0  3  0  0  0  0  0  0
    2.9376   -0.1000   -0.0793 C   0  0  0  0  0  0  0  0  0  0  0  0
    4.0315   -0.0378   -0.1312 H   0  0  0  0  0  0  0  0  0  0  0  0
    2.2176    1.1207   -0.0239 C   0  0  0  0  0  0  0  0  0  0  0  0
    2.9923    2.4132    0.0696 C   0  0  0  0  0  0  0  0  0  0  0  0
    2.7945    2.9293    1.0323 H   0  0  0  0  0  0  0  0  0  0  0  0
    2.7139    3.1152   -0.7434 H   0  0  0  0  0  0  0  0  0  0  0  0
    4.0778    2.2253    0.0028 H   0  0  0  0  0  0  0  0  0  0  0  0
    0.1112    2.3654    0.2307 C   0  0  0  0  0  0  0  0  0  0  0  0
    0.0231    2.5281    1.3306 H   0  0  0  0  0  0  0  0  0  0  0  0
    0.5969    3.2760   -0.1774 H   0  0  0  0  0  0  0  0  0  0  0  0
   -1.2653    2.1972   -0.4058 C   0  0  0  0  0  0  0  0  0  0  0  0
   -1.1817    2.3096   -1.5040 H   0  0  0  0  0  0  0  0  0  0  0  0
   -2.0018    2.9428   -0.0379 H   0  0  0  0  0  0  0  0  0  0  0  0
   -2.5564    0.2043   -1.2368 C   0  0  0  0  0  0  0  0  0  0  0  0
   -2.0993    0.4728   -2.2068 H   0  0  0  0  0  0  0  0  0  0  0  0
   -3.5850    0.6274   -1.2124 H   0  0  0  0  0  0  0  0  0  0  0  0
   -2.5420   -1.3313   -1.0205 C   0  0  0  0  0  0  0  0  0  0  0  0
   -3.5662   -1.7417   -0.8812 H   0  0  0  0  0  0  0  0  0  0  0  0
   -2.0776   -1.8496   -1.8797 H   0  0  0  0  0  0  0  0  0  0  0  0
   -2.3583   -0.9835    1.3813 C   0  0  0  0  0  0  0  0  0  0  0  0
   -1.7612   -1.2532    2.2719 H   0  0  0  0  0  0  0  0  0  0  0  0
   -3.3834   -1.3943    1.5148 H   0  0  0  0  0  0  0  0  0  0  0  0
   -2.3798    0.5555    1.1621 C   0  0  0  0  0  0  0  0  0  0  0  0
   -3.4132    0.9687    1.1614 H   0  0  0  0  0  0  0  0  0  0  0  0
   -1.8046    1.0807    1.9471 H   0  0  0  0  0  0  0  0  0  0  0  0
   -1.4769   -2.5629    0.3082 H   0  0  0  0  0  0  0  0  0  0  0  0
  2 12  1  0  0  0  0
  2 17  1  0  0  0  0
  3 32  1  0  0  0  0
  4 35  1  0  0  0  0
  4 29  1  0  0  0  0
  5  9  1  0  0  0  0
  5  6  1  0  0  0  0
  7  5  1  0  0  0  0
  8  5  1  0  0  0  0
  9  1  1  1  0  0  0
 10  9  1  0  0  0  0
 10 12  2  0  0  0  0
 11 10  1  0  0  0  0
 12 13  1  0  0  0  0
 13 14  1  0  0  0  0
 15 13  1  0  0  0  0
 16 13  1  0  0  0  0
 17 18  1  0  0  0  0
 19 17  1  0  0  0  0
 20  3  1  0  0  0  0
 20 22  1  0  0  0  0
 20 17  1  0  0  0  0
 21 20  1  0  0  0  0
 23 25  1  0  0  0  0
 23 26  1  0  0  0  0
 23  3  1  0  0  0  0
 24 23  1  0  0  0  0
 26 27  1  0  0  0  0
 26  4  1  0  0  0  0
 28 26  1  0  0  0  0
 29 31  1  0  0  0  0
 29 30  1  0  0  0  0
 32 29  1  0  0  0  0
 32 34  1  0  0  0  0
 33 32  1  0  0  0  0
M  END
