2,4,5,6
q = -2.0, confidence = 0.818

 76 80  0  0  1  0  0  0  0  0999 V2000
    3.6208    0.3526   -2.7358 O   0  0  0  0  0  0  0  0  0  0  0  0
    0.6797   -1.1363    1.7843 O   0  5  0  0  0  0  0  0  0  0  0  0
   -1.1654   -2.0807    2.6604 O   0  0  0  0  0  0  0  0  0  0  0  0
    3.1403   -0.3751    0.7711 N   0  0  0  0  0  0  0  0  0  0  0  0
    1.8872    0.7611   -1.1959 N   0  0  0  0  0  2  0  0  0  0  0  0
   -0.5062    0.3618    0.0970 N   0  0  0  0  0  2  0  0  0  0  0  0
   -4.2151   -4.2854   -0.8586 N   0  0  0  0  0  0  0  0  0  0  0  0
   -5.1046   -0.6537    1.3799 N   0  0  0  0  0  0  0  0  0  0  0  0
    2.4790    1.5257    2.2557 C   0  0  0  0  0  0  0  0  0  0  0  0
    2.1718    1.0456    3.5430 C   0  0  0  0  0  0  0  0  0  0  0  0
    2.7770    0.2398    3.9851 H   0  0  0  0  0  0  0  0  0  0  0  0
    1.0811    1.5654    4.2549 C   0  0  0  0  0  0  0  0  0  0  0  0
    0.8389    1.1661    5.2509 H   0  0  0  0  0  0  0  0  0  0  0  0
    0.2983    2.5886    3.6974 C   0  0  0  0  0  0  0  0  0  0  0  0
   -0.5570    2.9951    4.2584 H   0  0  0  0  0  0  0  0  0  0  0  0
    0.6199    3.1013    2.4293 C   0  0  0  0  0  0  0  0  0  0  0  0
    0.0246    3.9165    1.9905 H   0  0  0  0  0  0  0  0  0  0  0  0
    1.7017    2.5712    1.7137 C   0  0  0  0  0  0  0  0  0  0  0  0
    1.9396    2.9634    0.7130 H   0  0  0  0  0  0  0  0  0  0  0  0
    3.5748    0.9041    1.4188 C   0  0  0  0  0  0  0  0  0  0  0  0
    4.4884    0.7008    2.0208 H   0  0  0  0  0  0  0  0  0  0  0  0
    3.8518    1.6041    0.6082 H   0  0  0  0  0  0  0  0  0  0  0  0
    3.4144   -1.5991    1.5693 C   0  0  0  0  0  0  0  0  0  0  0  0
    2.7337   -1.6458    2.4372 H   0  0  0  0  0  0  0  0  0  0  0  0
    4.4733   -1.5560    1.9150 H   0  0  0  0  0  0  0  0  0  0  0  0
    3.1930   -2.7213    0.5622 C   0  0  0  0  0  0  0  0  0  0  0  0
    2.1092   -2.9351    0.4911 H   0  0  0  0  0  0  0  0  0  0  0  0
    3.7020   -3.6566    0.8641 H   0  0  0  0  0  0  0  0  0  0  0  0
    3.7241   -2.1485   -0.7713 C   0  0  0  0  0  0  0  0  0  0  0  0
    3.0602   -2.4072   -1.6170 H   0  0  0  0  0  0  0  0  0  0  0  0
    4.7334   -2.5294   -1.0172 H   0  0  0  0  0  0  0  0  0  0  0  0
    3.7847   -0.6134   -0.5539 C   0  0  1  0  0  0  0  0  0  0  0  0
    4.8456   -0.2780   -0.5219 H   0  0  0  0  0  0  0  0  0  0  0  0
    3.0942    0.2232   -1.6324 C   0  0  0  0  0  0  0  0  0  0  0  0
    1.2321    1.7900   -1.8565 C   0  0  0  0  0  0  0  0  0  0  0  0
   -0.1068    2.1814   -1.4759 C   0  0  0  0  0  0  0  0  0  0  0  0
   -0.6675    3.3589   -2.0507 C   0  0  0  0  0  3  0  0  0  0  0  0
   -1.6697    3.6682   -1.7254 H   0  0  0  0  0  0  0  0  0  0  0  0
    0.0074    4.1166   -2.9998 C   0  0  0  0  0  0  0  0  0  0  0  0
   -0.4535    5.0233   -3.4174 H   0  0  0  0  0  0  0  0  0  0  0  0
    1.2811    3.6892   -3.4232 C   0  0  0  0  0  0  0  0  0  0  0  0
    1.8287    4.2573   -4.1911 H   0  0  0  0  0  0  0  0  0  0  0  0
    1.8738    2.5542   -2.8760 C   0  0  0  0  0  0  0  0  0  0  0  0
    2.8586    2.2237   -3.2211 H   0  0  0  0  0  0  0  0  0  0  0  0
   -0.9536    1.3972   -0.5868 C   0  0  0  0  0  0  0  0  0  0  0  0
   -2.4006    1.7724   -0.4623 C   0  0  0  0  0  0  0  0  0  0  0  0
   -2.8755    2.3403    0.7384 C   0  0  0  0  0  0  0  0  0  0  0  0
   -2.1700    2.5232    1.5636 H   0  0  0  0  0  0  0  0  0  0  0  0
   -4.2329    2.6606    0.8783 C   0  0  0  0  0  0  0  0  0  0  0  0
   -4.5970    3.0919    1.8223 H   0  0  0  0  0  0  0  0  0  0  0  0
   -5.1278    2.4150   -0.1741 C   0  0  0  0  0  0  0  0  0  0  0  0
   -6.1960    2.6476   -0.0536 H   0  0  0  0  0  0  0  0  0  0  0  0
   -4.6599    1.8626   -1.3759 C   0  0  0  0  0  0  0  0  0  0  0  0
   -5.3577    1.6695   -2.2042 H   0  0  0  0  0  0  0  0  0  0  0  0
   -3.3015    1.5469   -1.5235 C   0  0  0  0  0  0  0  0  0  0  0  0
   -2.9295    1.1247   -2.4699 H   0  0  0  0  0  0  0  0  0  0  0  0
   -1.4130   -0.5362    0.8169 C   0  0  2  0  0  0  0  0  0  0  0  0
   -2.2159    0.0292    1.3305 H   0  0  0  0  0  0  0  0  0  0  0  0
   -0.6077   -1.3185    1.8678 C   0  0  0  0  0  0  0  0  0  0  0  0
   -2.0915   -1.5261   -0.1823 C   0  0  1  0  0  0  0  0  0  0  0  0
   -2.5961   -0.9070   -0.9497 H   0  0  0  0  0  0  0  0  0  0  0  0
   -1.0775   -2.4102   -0.8814 C   0  0  0  0  0  0  0  0  0  0  0  0
   -0.6135   -3.6163   -0.3199 C   0  0  0  0  0  0  0  0  0  0  0  0
   -0.9929   -3.9564    0.6546 H   0  0  0  0  0  0  0  0  0  0  0  0
    0.3472   -4.3883   -0.9905 C   0  0  0  0  0  0  0  0  0  0  0  0
    0.6890   -5.3348   -0.5454 H   0  0  0  0  0  0  0  0  0  0  0  0
    0.8685   -3.9598   -2.2215 C   0  0  0  0  0  0  0  0  0  0  0  0
    1.6176   -4.5708   -2.7475 H   0  0  0  0  0  0  0  0  0  0  0  0
    0.4275   -2.7490   -2.7793 C   0  0  0  0  0  0  0  0  0  0  0  0
    0.8372   -2.3962   -3.7376 H   0  0  0  0  0  0  0  0  0  0  0  0
   -0.5417   -1.9855   -2.1146 C   0  0  0  0  0  0  0  0  0  0  0  0
   -0.8896   -1.0402   -2.5592 H   0  0  0  0  0  0  0  0  0  0  0  0
   -3.2119   -2.3127    0.5779 C   0  0  0  0  0  0  0  0  0  0  0  0
   -2.7413   -2.7220    1.5096 H   0  0  0  0  0  0  0  0  0  0  0  0
   -3.7736   -3.4074   -0.2227 C   0  0  0  0  0  0  0  0  0  0  0  0
   -4.2782   -1.4021    1.0224 C   0  0  0  0  0  0  0  0  0  0  0  0
  1 34  2  0  0  0  0
  2 59  1  0  0  0  0
  4 20  1  0  0  0  0
  4 23  1  0  0  0  0
  6 57  1  0  0  0  0
  7 75  3  0  0  0  0
  9 10  1  0  0  0  0
 10 11  1  0  0  0  0
 10 12  2  0  0  0  0
 12 13  1  0  0  0  0
 14 12  1  0  0  0  0
 14 15  1  0  0  0  0
 16 14  2  0  0  0  0
 17 16  1  0  0  0  0
 18  9  2  0  0  0  0
 18 16  1  0  0  0  0
 19 18  1  0  0  0  0
 20 21  1  0  0  0  0
 20  9  1  0  0  0  0
 22 20  1  0  0  0  0
 23 25  1  0  0  0  0
 23 24  1  0  0  0  0
 26 28  1  0  0  0  0
 26 23  1  0  0  0  0
 27 26  1  0  0  0  0
 29 32  1  0  0  0  0
 29 26  1  0  0  0  0
 30 29  1  0  0  0  0
 31 29  1  0  0  0  0
 32 33  1  1  0  0  0
 32  4  1  0  0  0  0
 34  5  1  0  0  0  0
 34 32  1  0  0  0  0
 35 36  1  0  0  0  0
 35  5  1  0  0  0  0
 36 45  2  0  0  0  0
 37 38  1  0  0  0  0
 37 36  1  0  0  0  0
 39 37  1  0  0  0  0
 40 39  1  0  0  0  0
 41 39  2  0  0  0  0
 41 43  1  0  0  0  0
 42 41  1  0  0  0  0
 43 35  2  0  0  0  0
 44 43  1  0  0  0  0
 45 46  1  0  0  0  0
 45  6  1  0  0  0  0
 46 47  1  0  0  0  0
 47 49  2  0  0  0  0
 47 48  1  0  0  0  0
 49 50  1  0  0  0  0
 51 52  1  0  0  0  0
 51 49  1  0  0  0  0
 53 51  2  0  0  0  0
 54 53  1  0  0  0  0
 55 53  1  0  0  0  0
 55 46  2  0  0  0  0
 56 55  1  0  0  0  0
 57 58  1  1  0  0  0
 57 59  1  0  0  0  0
 59  3  2  0  0  0  0
 60 61  1  6  0  0  0
 60 73  1  0  0  0  0
 60 57  1  0  0  0  0
 62 63  1  0  0  0  0
 62 60  1  0  0  0  0
 63 64  1  0  0  0  0
 65 66  1  0  0  0  0
 65 63  2  0  0  0  0
 67 65  1  0  0  0  0
 68 67  1  0  0  0  0
 69 67  2  0  0  0  0
 69 71  1  0  0  0  0
 70 69  1  0  0  0  0
 71 62  2  0  0  0  0
 72 71  1  0  0  0  0
 73 76  1  0  0  0  0
 73 74  1  0  0  0  0
 75 73  1  0  0  0  0
 76  8  3  0  0  0  0
M  CHG  1   2  -1
M  END
