4,5,6,10
q = -2.0, confidence = 0.952

 76 80  0  0  1  0  0  0  0  0999 V2000
    9.4155    0.1733   -1.3277 F   0  0  0  0  0  0  0  0  0  0  0  0
    9.3325   -0.1792    0.8285 F   0  0  0  0  0  0  0  0  0  0  0  0
    8.9503   -1.8137   -0.5627 F   0  0  0  0  0  0  0  0  0  0  0  0
   -3.0227   -1.0068   -1.1526 N   0  0  0  0  0  2  0  0  0  0  0  0
   -0.8661   -2.6069   -0.4383 N   0  0  0  0  0  0  0  0  0  0  0  0
    0.5695   -0.5715    0.5996 N   0  0  0  0  0  2  0  0  0  0  0  0
   -3.9203   -2.7886   -2.3991 O   0  0  0  0  0  0  0  0  0  0  0  0
    2.5356   -1.8191    0.5830 O   0  0  0  0  0  0  0  0  0  0  0  0
    2.4243    0.5167   -1.5087 O   0  0  0  0  0  0  0  0  0  0  0  0
   -1.6486    1.3442   -0.1382 O   0  5  0  0  0  0  0  0  0  0  0  0
   -4.1464   -0.2271   -0.9667 C   0  0  1  0  0  3  0  0  0  0  0  0
   -5.4582   -0.7467   -1.1822 C   0  0  0  0  0  0  0  0  0  0  0  0
   -5.5390   -1.7585   -1.5923 H   0  0  0  0  0  0  0  0  0  0  0  0
   -6.5967   -0.0129   -0.8690 C   0  0  0  0  0  0  0  0  0  0  0  0
   -7.5854   -0.4722   -1.0253 H   0  0  0  0  0  0  0  0  0  0  0  0
   -6.4994    1.2893   -0.3364 C   0  0  0  0  0  0  0  0  0  0  0  0
   -7.3992    1.8527   -0.0505 H   0  0  0  0  0  0  0  0  0  0  0  0
   -5.2396    1.8523   -0.1826 C   0  0  0  0  0  0  0  0  0  0  0  0
   -5.1498    2.8629    0.2374 H   0  0  0  0  0  0  0  0  0  0  0  0
   -4.0414    1.1483   -0.5088 C   0  0  0  0  0  0  0  0  0  0  0  0
   -2.7822    1.8766   -0.3441 C   0  0  0  0  0  0  0  0  0  0  0  0
   -2.7323    3.3674   -0.3977 C   0  0  0  0  0  0  0  0  0  0  0  0
   -3.5397    4.1220   -1.2788 C   0  0  0  0  0  0  0  0  0  0  0  0
   -4.2631    3.6109   -1.9302 H   0  0  0  0  0  0  0  0  0  0  0  0
   -3.3923    5.5137   -1.3518 C   0  0  0  0  0  0  0  0  0  0  0  0
   -4.0151    6.0915   -2.0512 H   0  0  0  0  0  0  0  0  0  0  0  0
   -2.4466    6.1667   -0.5453 C   0  0  0  0  0  0  0  0  0  0  0  0
   -2.3375    7.2605   -0.6011 H   0  0  0  0  0  0  0  0  0  0  0  0
   -1.6293    5.4206    0.3217 C   0  0  0  0  0  0  0  0  0  0  0  0
   -0.8779    5.9269    0.9461 H   0  0  0  0  0  0  0  0  0  0  0  0
   -1.7587    4.0295    0.3863 C   0  0  0  0  0  0  0  0  0  0  0  0
   -1.1046    3.4329    1.0394 H   0  0  0  0  0  0  0  0  0  0  0  0
   -3.0171   -2.2562   -1.7584 C   0  0  0  0  0  0  0  0  0  0  0  0
   -1.6541   -2.9801   -1.6450 C   0  0  0  0  0  0  0  0  0  0  0  0
   -1.8336   -4.0743   -1.6953 H   0  0  0  0  0  0  0  0  0  0  0  0
   -1.0586   -2.6951   -2.5355 H   0  0  0  0  0  0  0  0  0  0  0  0
   -1.2743   -3.3887    0.7829 C   0  0  0  0  0  0  0  0  0  0  0  0
   -1.1287   -4.4660    0.5446 H   0  0  0  0  0  0  0  0  0  0  0  0
   -0.5520   -3.1115    1.5747 H   0  0  0  0  0  0  0  0  0  0  0  0
   -2.6847   -3.1255    1.2492 C   0  0  0  0  0  0  0  0  0  0  0  0
   -3.7661   -3.8920    0.7779 C   0  0  0  0  0  0  0  0  0  0  0  0
   -3.5844   -4.7317    0.0896 H   0  0  0  0  0  0  0  0  0  0  0  0
   -5.0809   -3.5811    1.1600 C   0  0  0  0  0  0  0  0  0  0  0  0
   -5.9176   -4.1800    0.7707 H   0  0  0  0  0  0  0  0  0  0  0  0
   -5.3251   -2.5054    2.0253 C   0  0  0  0  0  0  0  0  0  0  0  0
   -6.3563   -2.2533    2.3151 H   0  0  0  0  0  0  0  0  0  0  0  0
   -4.2501   -1.7492    2.5220 C   0  0  0  0  0  0  0  0  0  0  0  0
   -4.4357   -0.9098    3.2087 H   0  0  0  0  0  0  0  0  0  0  0  0
   -2.9396   -2.0602    2.1385 C   0  0  0  0  0  0  0  0  0  0  0  0
   -2.0949   -1.4666    2.5214 H   0  0  0  0  0  0  0  0  0  0  0  0
    0.6165   -2.6800   -0.5945 C   0  0  0  0  0  0  0  0  0  0  0  0
    0.8702   -2.4275   -1.6440 H   0  0  0  0  0  0  0  0  0  0  0  0
    0.9981   -3.7001   -0.3804 H   0  0  0  0  0  0  0  0  0  0  0  0
    1.3486   -1.6485    0.2872 C   0  0  0  0  0  0  0  0  0  0  0  0
    1.1070    0.5688    1.2105 C   0  0  0  0  0  0  0  0  0  0  0  0
    0.3985    1.1872    2.2626 C   0  0  0  0  0  0  0  0  0  0  0  0
   -0.5506    0.7334    2.5851 H   0  0  0  0  0  0  0  0  0  0  0  0
    0.8858    2.3451    2.8832 C   0  0  0  0  0  0  0  0  0  0  0  0
    0.3115    2.8091    3.6999 H   0  0  0  0  0  0  0  0  0  0  0  0
    2.1118    2.8975    2.4787 C   0  0  0  0  0  0  0  0  0  0  0  0
    2.5076    3.7996    2.9686 H   0  0  0  0  0  0  0  0  0  0  0  0
    2.8325    2.2854    1.4421 C   0  0  0  0  0  0  0  0  0  0  0  0
    3.7898    2.7168    1.1102 H   0  0  0  0  0  0  0  0  0  0  0  0
    2.3388    1.1418    0.7862 C   0  0  0  0  0  0  0  0  0  0  0  0
    3.0373    0.6408   -0.4497 C   0  0  0  0  0  0  0  0  0  0  0  0
    4.5150    0.3822   -0.3817 C   0  0  0  0  0  0  0  0  0  0  0  0
    5.2493    0.3791   -1.5845 C   0  0  0  0  0  0  0  0  0  0  0  0
    4.7093    0.5824   -2.5211 H   0  0  0  0  0  0  0  0  0  0  0  0
    6.6232    0.1244   -1.5749 C   0  0  0  0  0  0  0  0  0  0  0  0
    7.2025    0.1418   -2.5094 H   0  0  0  0  0  0  0  0  0  0  0  0
    7.2730   -0.1514   -0.3569 C   0  0  0  0  0  0  0  0  0  0  0  0
    6.5439   -0.1699    0.8454 C   0  0  0  0  0  0  0  0  0  0  0  0
    7.0585   -0.3956    1.7903 H   0  0  0  0  0  0  0  0  0  0  0  0
    5.1710    0.1001    0.8328 C   0  0  0  0  0  0  0  0  0  0  0  0
    4.5877    0.0625    1.7635 H   0  0  0  0  0  0  0  0  0  0  0  0
    8.7450   -0.4882   -0.3528 C   0  0  0  0  0  0  0  0  0  0  0  0
  1 76  1  0  0  0  0
  3 76  1  0  0  0  0
  5 37  1  0  0  0  0
  6 55  1  0  0  0  0
  7 33  2  0  0  0  0
  9 65  2  0  0  0  0
 11  4  1  1  0  0  0
 11 20  1  0  0  0  0
 12 11  1  0  0  0  0
 12 14  2  0  0  0  0
 13 12  1  0  0  0  0
 14 16  1  0  0  0  0
 15 14  1  0  0  0  0
 16 18  2  0  0  0  0
 16 17  1  0  0  0  0
 18 19  1  0  0  0  0
 20 21  2  0  0  0  0
 20 18  1  0  0  0  0
 21 10  1  0  0  0  0
 22 21  1  0  0  0  0
 22 31  1  0  0  0  0
 23 22  2  0  0  0  0
 24 23  1  0  0  0  0
 25 23  1  0  0  0  0
 25 27  2  0  0  0  0
 26 25  1  0  0  0  0
 27 29  1  0  0  0  0
 28 27  1  0  0  0  0
 29 31  2  0  0  0  0
 29 30  1  0  0  0  0
 31 32  1  0  0  0  0
 33 34  1  0  0  0  0
 33  4  1  0  0  0  0
 34  5  1  0  0  0  0
 35 34  1  0  0  0  0
 36 34  1  0  0  0  0
 37 40  1  0  0  0  0
 37 39  1  0  0  0  0
 38 37  1  0  0  0  0
 40 49  1  0  0  0  0
 41 43  1  0  0  0  0
 41 40  2  0  0  0  0
 42 41  1  0  0  0  0
 43 45  2  0  0  0  0
 44 43  1  0  0  0  0
 45 46  1  0  0  0  0
 45 47  1  0  0  0  0
 47 48  1  0  0  0  0
 49 50  1  0  0  0  0
 49 47  2  0  0  0  0
 51  5  1  0  0  0  0
 51 53  1  0  0  0  0
 51 54  1  0  0  0  0
 52 51  1  0  0  0  0
 54  8  2  0  0  0  0
 54  6  1  0  0  0  0
 55 56  1  0  0  0  0
 56 57  1  0  0  0  0
 56 58  2  0  0  0  0
 58 59  1  0  0  0  0
 60 58  1  0  0  0  0
 60 61  1  0  0  0  0
 62 60  2  0  0  0  0
 63 62  1  0  0  0  0
 64 55  2  0  0  0  0
 64 62  1  0  0  0  0
 65 66  1  0  0  0  0
 65 64  1  0  0  0  0
 66 74  1  0  0  0  0
 67 69  1  0  0  0  0
 67 66  2  0  0  0  0
 68 67  1  0  0  0  0
 69 71  2  0  0  0  0
 70 69  1  0  0  0  0
 71 76  1  0  0  0  0
 71 72  1  0  0  0  0
 72 73  1  0  0  0  0
 74 72  2  0  0  0  0
 74 75  1  0  0  0  0
 76  2  1  0  0  0  0
M  CHG  1  10  -1
M  END
