2,5,6,7
q = -2.0, confidence = 0.88

 59 62  0  0  1  0  0  0  0  0999 V2000
    0.0303   -0.4704   -2.8354 Cl  0  0  0  0  0  0  0  0  0  0  0  0
   -0.5940   -2.7115   -0.4159 O   0  5  0  0  0  0  0  0  0  0  0  0
    0.9107   -4.3875   -0.5366 O   0  0  0  0  0  0  0  0  0  0  0  0
   -2.9951    1.7723    2.0596 O   0  0  0  0  0  0  0  0  0  0  0  0
    1.0070   -0.9901    0.5800 N   0  0  0  0  0  2  0  0  0  0  0  0
   -1.1371    0.6551    1.1205 N   0  0  0  0  0  2  0  0  0  0  0  0
   -2.7011   -1.0419   -0.1826 N   0  0  0  0  0  0  0  0  0  0  0  0
    0.5874   -3.2557   -0.2044 C   0  0  0  0  0  0  0  0  0  0  0  0
    1.5076   -2.3175    0.5591 C   0  0  0  0  0  0  0  0  0  0  0  0
    2.5774   -2.8081    1.2197 C   0  0  0  0  0  0  0  0  0  0  0  0
    3.2333   -2.2017    1.8570 H   0  0  0  0  0  0  0  0  0  0  0  0
    2.7733   -3.8845    1.1002 H   0  0  0  0  0  0  0  0  0  0  0  0
    1.7468    0.1093    0.5948 C   0  0  0  0  0  0  0  0  0  0  0  0
    1.1797    1.4317    0.8117 C   0  0  0  0  0  0  0  0  0  0  0  0
   -0.1915    1.6641    1.2157 C   0  0  0  0  0  0  0  0  0  0  0  0
   -0.5329    2.9849    1.6356 C   0  0  0  0  0  0  0  0  0  0  0  0
   -1.5431    3.1457    2.0238 H   0  0  0  0  0  0  0  0  0  0  0  0
    0.3617    4.0456    1.5207 C   0  0  0  0  0  0  0  0  0  0  0  0
    0.0371    5.0511    1.8312 H   0  0  0  0  0  0  0  0  0  0  0  0
    1.6534    3.8473    0.9971 C   0  0  0  0  0  0  0  0  0  0  0  0
    2.3512    4.6879    0.8715 H   0  0  0  0  0  0  0  0  0  0  0  0
    2.0468    2.5545    0.6723 C   0  0  0  0  0  3  0  0  0  0  0  0
    3.0641    2.3813    0.2984 H   0  0  0  0  0  0  0  0  0  0  0  0
   -2.4755    0.8478    1.4331 C   0  0  0  0  0  0  0  0  0  0  0  0
   -3.3582   -0.2887    0.9239 C   0  0  2  0  0  0  0  0  0  0  0  0
   -4.3055    0.1688    0.5616 H   0  0  0  0  0  0  0  0  0  0  0  0
   -3.6684   -1.3582    2.0117 C   0  0  0  0  0  0  0  0  0  0  0  0
   -3.0590   -1.1888    2.9199 H   0  0  0  0  0  0  0  0  0  0  0  0
   -4.7297   -1.2796    2.3149 H   0  0  0  0  0  0  0  0  0  0  0  0
   -3.3518   -2.7161    1.3462 C   0  0  0  0  0  0  0  0  0  0  0  0
   -4.0954   -3.4991    1.5890 H   0  0  0  0  0  0  0  0  0  0  0  0
   -2.3549   -3.0904    1.6518 H   0  0  0  0  0  0  0  0  0  0  0  0
   -3.3191   -2.3975   -0.1423 C   0  0  0  0  0  0  0  0  0  0  0  0
   -2.7062   -3.0963   -0.7383 H   0  0  0  0  0  0  0  0  0  0  0  0
   -4.3464   -2.3232   -0.5687 H   0  0  0  0  0  0  0  0  0  0  0  0
   -2.8286   -0.4349   -1.5435 C   0  0  0  0  0  0  0  0  0  0  0  0
   -3.9135   -0.2958   -1.7548 H   0  0  0  0  0  0  0  0  0  0  0  0
   -2.4298   -1.1864   -2.2508 H   0  0  0  0  0  0  0  0  0  0  0  0
   -2.1047    0.8779   -1.7258 C   0  0  0  0  0  0  0  0  0  0  0  0
   -0.7965    0.9634   -2.2580 C   0  0  0  0  0  0  0  0  0  0  0  0
   -0.1195    2.1887   -2.3546 C   0  0  0  0  0  0  0  0  0  0  0  0
    0.9034    2.2056   -2.7548 H   0  0  0  0  0  0  0  0  0  0  0  0
   -0.7500    3.3658   -1.9338 C   0  0  0  0  0  0  0  0  0  0  0  0
   -0.2086    4.3212   -1.9910 H   0  0  0  0  0  0  0  0  0  0  0  0
   -2.0608    3.3172   -1.4371 C   0  0  0  0  0  0  0  0  0  0  0  0
   -2.5660    4.2363   -1.1076 H   0  0  0  0  0  0  0  0  0  0  0  0
   -2.7242    2.0875   -1.3488 C   0  0  0  0  0  0  0  0  0  0  0  0
   -3.7494    2.0549   -0.9500 H   0  0  0  0  0  0  0  0  0  0  0  0
    3.2188   -0.0068    0.3432 C   0  0  0  0  0  0  0  0  0  0  0  0
    4.1688    0.3152    1.3334 C   0  0  0  0  0  0  0  0  0  0  0  0
    3.8254    0.6683    2.3176 H   0  0  0  0  0  0  0  0  0  0  0  0
    5.5387    0.1760    1.0680 C   0  0  0  0  0  0  0  0  0  0  0  0
    6.2738    0.4188    1.8502 H   0  0  0  0  0  0  0  0  0  0  0  0
    5.9709   -0.2712   -0.1912 C   0  0  0  0  0  0  0  0  0  0  0  0
    7.0464   -0.3786   -0.3986 H   0  0  0  0  0  0  0  0  0  0  0  0
    5.0281   -0.5769   -1.1859 C   0  0  0  0  0  0  0  0  0  0  0  0
    5.3617   -0.9210   -2.1765 H   0  0  0  0  0  0  0  0  0  0  0  0
    3.6578   -0.4503   -0.9207 C   0  0  0  0  0  0  0  0  0  0  0  0
    2.9120   -0.6940   -1.6923 H   0  0  0  0  0  0  0  0  0  0  0  0
  1 40  1  0  0  0  0
  2  8  1  0  0  0  0
  3  8  2  0  0  0  0
  5 13  1  0  0  0  0
  6 15  1  0  0  0  0
  6 24  1  0  0  0  0
  7 33  1  0  0  0  0
  7 25  1  0  0  0  0
  8  9  1  0  0  0  0
  9  5  1  0  0  0  0
  9 10  2  0  0  0  0
 10 11  1  0  0  0  0
 12 10  1  0  0  0  0
 13 14  2  0  0  0  0
 14 15  1  0  0  0  0
 15 16  2  0  0  0  0
 16 17  1  0  0  0  0
 18 16  1  0  0  0  0
 18 19  1  0  0  0  0
 20 18  2  0  0  0  0
 21 20  1  0  0  0  0
 22 14  1  0  0  0  0
 22 20  1  0  0  0  0
 23 22  1  0  0  0  0
 24  4  2  0  0  0  0
 25 26  1  6  0  0  0
 25 24  1  0  0  0  0
 25 27  1  0  0  0  0
 27 29  1  0  0  0  0
 27 28  1  0  0  0  0
 30 31  1  0  0  0  0
 30 32  1  0  0  0  0
 30 27  1  0  0  0  0
 33 30  1  0  0  0  0
 34 33  1  0  0  0  0
 35 33  1  0  0  0  0
 36  7  1  0  0  0  0
 37 36  1  0  0  0  0
 38 36  1  0  0  0  0
 39 36  1  0  0  0  0
 39 47  1  0  0  0  0
 40 39  2  0  0  0  0
 41 40  1  0  0  0  0
 41 43  2  0  0  0  0
 42 41  1  0  0  0  0
 43 45  1  0  0  0  0
 44 43  1  0  0  0  0
 45 47  2  0  0  0  0
 45 46  1  0  0  0  0
 47 48  1  0  0  0  0
 49 13  1  0  0  0  0
 49 50  1  0  0  0  0
 50 51  1  0  0  0  0
 52 50  2  0  0  0  0
 52 53  1  0  0  0  0
 54 52  1  0  0  0  0
 55 54  1  0  0  0  0
 56 58  1  0  0  0  0
 56 54  2  0  0  0  0
 57 56  1  0  0  0  0
 58 49  2  0  0  0  0
 59 58  1  0  0  0  0
M  CHG  1   2  -1
M  END
