1,4,5,6
q = -2.0, confidence = 0.84

 38 37  0  0  1  0  0  0  0  0999 V2000
    1.1484    1.6728    0.5611 O   0  0  0  0  0  1  0  0  0  0  0  0
   -4.7549    0.0404   -0.4088 O   0  0  0  0  0  0  0  0  0  0  0  0
   -1.2881    2.2220   -0.0318 O   0  0  0  0  0  1  0  0  0  0  0  0
    2.0285   -0.8377   -0.1250 N   0  0  0  0  0  2  0  0  0  0  0  0
   -0.7829   -1.4546    0.1478 N   0  0  0  0  0  2  0  0  0  0  0  0
   -1.2725    0.9894    0.0571 N   0  0  0  0  0  2  0  0  0  0  0  0
    2.6085    3.5221    0.5065 C   0  0  0  0  0  0  0  0  0  0  0  0
    2.3249    2.0665    0.2264 C   0  0  1  0  0  3  0  0  0  0  0  0
    3.2902    1.2313   -0.3508 C   0  0  0  0  0  0  0  0  0  0  0  0
    3.1380   -0.1712   -0.4811 C   0  0  0  0  0  0  0  0  0  0  0  0
    4.3317   -0.9256   -1.0321 C   0  0  0  0  0  0  0  0  0  0  0  0
    2.0899   -2.2970   -0.1357 C   0  0  0  0  0  0  0  0  0  0  0  0
    1.0769   -2.9296    0.8094 C   0  0  0  0  0  0  0  0  0  0  0  0
   -0.3535   -2.8344    0.3076 C   0  0  0  0  0  0  0  0  0  0  0  0
   -3.0973   -2.2842   -0.0370 C   0  0  0  0  0  0  0  0  0  0  0  0
   -2.0755   -1.1876    0.0094 C   0  0  0  0  0  0  0  0  0  0  0  0
   -2.4075    0.2162   -0.0796 C   0  0  0  0  0  0  0  0  0  0  0  0
   -3.7667    0.7767   -0.2928 C   0  0  0  0  0  0  0  0  0  0  0  0
   -3.9566    2.2791   -0.3684 C   0  0  0  0  0  0  0  0  0  0  0  0
    3.5899    3.8438    0.1125 H   0  0  0  0  0  0  0  0  0  0  0  0
    2.5838    3.7006    1.6016 H   0  0  0  0  0  0  0  0  0  0  0  0
    1.8023    4.1425    0.0661 H   0  0  0  0  0  0  0  0  0  0  0  0
    4.2465    1.6731   -0.6583 H   0  0  0  0  0  0  0  0  0  0  0  0
    4.0427   -1.5966   -1.8664 H   0  0  0  0  0  0  0  0  0  0  0  0
    4.8062   -1.5635   -0.2563 H   0  0  0  0  0  0  0  0  0  0  0  0
    5.0989   -0.2218   -1.4004 H   0  0  0  0  0  0  0  0  0  0  0  0
    1.9274   -2.6949   -1.1675 H   0  0  0  0  0  0  0  0  0  0  0  0
    3.1001   -2.6399    0.1700 H   0  0  0  0  0  0  0  0  0  0  0  0
    1.1635   -2.4545    1.8101 H   0  0  0  0  0  0  0  0  0  0  0  0
    1.3284   -4.0029    0.9362 H   0  0  0  0  0  0  0  0  0  0  0  0
   -1.0279   -3.3658    1.0141 H   0  0  0  0  0  0  0  0  0  0  0  0
   -0.4383   -3.3730   -0.6670 H   0  0  0  0  0  0  0  0  0  0  0  0
   -4.0912   -1.8556   -0.2490 H   0  0  0  0  0  0  0  0  0  0  0  0
   -3.1330   -2.8200    0.9362 H   0  0  0  0  0  0  0  0  0  0  0  0
   -2.8293   -3.0370   -0.8067 H   0  0  0  0  0  0  0  0  0  0  0  0
   -3.3659    2.7188   -1.1961 H   0  0  0  0  0  0  0  0  0  0  0  0
   -3.5905    2.7818    0.5483 H   0  0  0  0  0  0  0  0  0  0  0  0
   -5.0362    2.4674   -0.5145 H   0  0  0  0  0  0  0  0  0  0  0  0
  2 18  2  0  0  0  0
  3  6  1  0  0  0  0
  5 14  1  0  0  0  0
  7 21  1  0  0  0  0
  8  7  1  0  0  0  0
  8  1  1  1  0  0  0
  9  8  1  0  0  0  0
 10  9  2  0  0  0  0
 10  4  1  0  0  0  0
 11 10  1  0  0  0  0
 11 25  1  0  0  0  0
 12  4  1  0  0  0  0
 12 28  1  0  0  0  0
 12 13  1  0  0  0  0
 13 30  1  0  0  0  0
 13 29  1  0  0  0  0
 14 13  1  0  0  0  0
 14 31  1  0  0  0  0
 15 16  1  0  0  0  0
 15 34  1  0  0  0  0
 16  5  1  0  0  0  0
 17 16  2  0  0  0  0
 17  6  1  0  0  0  0
 18 17  1  0  0  0  0
 19 18  1  0  0  0  0
 19 37  1  0  0  0  0
 20  7  1  0  0  0  0
 22  7  1  0  0  0  0
 23  9  1  0  0  0  0
 24 11  1  0  0  0  0
 26 11  1  0  0  0  0
 27 12  1  0  0  0  0
 32 14  1  0  0  0  0
 33 15  1  0  0  0  0
 35 15  1  0  0  0  0
 36 19  1  0  0  0  0
 38 19  1  0  0  0  0
M  END
