16,22,23,30
q = -1.0, confidence = 0.128

 52 55  0  0  1  0  0  0  0  0999 V2000
    1.0521   -1.9934   -1.2557 C   0  0  0  0  0  0  0  0  0  0  0  0
    2.6022   -0.5860   -0.2156 C   0  0  0  0  0  0  0  0  0  0  0  0
    2.8514    0.6221    0.5138 C   0  0  0  0  0  0  0  0  0  0  0  0
    3.7107   -1.4058   -0.6214 C   0  0  0  0  0  0  0  0  0  0  0  0
    5.2347    0.1183    0.5024 C   0  0  0  0  0  0  0  0  0  0  0  0
    6.2541    0.4073    0.7976 H   0  0  0  0  0  0  0  0  0  0  0  0
    4.1537    0.9572    0.8775 C   0  0  0  0  0  0  0  0  0  0  0  0
    4.3474    1.8840    1.4352 H   0  0  0  0  0  0  0  0  0  0  0  0
    5.0311   -1.0352   -0.2422 C   0  0  0  0  0  3  0  0  0  0  0  0
    5.8763   -1.6681   -0.5482 H   0  0  0  0  0  0  0  0  0  0  0  0
    2.0884   -2.8360   -1.7345 C   0  0  0  0  0  0  0  0  0  0  0  0
    1.8340   -3.7055   -2.3579 H   0  0  0  0  0  0  0  0  0  0  0  0
    3.4036   -2.5566   -1.3990 C   0  0  0  0  0  0  0  0  0  0  0  0
    4.2209   -3.2092   -1.7421 H   0  0  0  0  0  0  0  0  0  0  0  0
    1.7468    1.3572    0.7704 O   0  0  0  0  0  0  0  0  0  0  0  0
    1.3059   -0.9172   -0.5055 N   0  0  0  0  0  2  0  0  0  0  0  0
   -0.0144    2.8188    3.4916 O   0  5  0  0  0  0  0  0  0  0  0  0
    0.2395    2.0919    2.5421 C   0  0  0  0  0  0  0  0  0  0  0  0
    1.6593    2.1952    1.9394 C   0  0  0  0  0  0  0  0  0  0  0  0
    1.8771    3.2482    1.6675 H   0  0  0  0  0  0  0  0  0  0  0  0
    2.3938    1.8685    2.7044 H   0  0  0  0  0  0  0  0  0  0  0  0
   -0.5571    1.2237    1.9833 O   0  0  0  0  0  0  0  0  0  0  0  0
   -1.1208    1.5966   -1.0320 N   0  0  0  0  0  2  0  0  0  0  0  0
   -1.3907    1.2224   -2.3023 C   0  0  2  0  0  3  0  0  0  0  0  0
   -1.3728    2.8585   -0.6301 C   0  0  0  0  0  0  0  0  0  0  0  0
   -1.1663    3.0745    0.4300 H   0  0  0  0  0  0  0  0  0  0  0  0
   -1.0592   -0.2137   -2.6651 C   0  0  0  0  0  0  0  0  0  0  0  0
   -1.6533   -0.5300   -3.5544 H   0  0  0  0  0  0  0  0  0  0  0  0
    0.0090   -0.2550   -2.9709 H   0  0  0  0  0  0  0  0  0  0  0  0
   -1.8187   -1.1434    1.1418 N   0  0  0  0  0  2  0  0  0  0  0  0
   -1.2288   -1.1053   -1.5206 N   0  0  0  0  0  0  0  0  0  0  0  0
   -1.8908    3.8226   -1.5020 C   0  0  0  0  0  0  0  0  0  0  0  0
   -2.0845    4.8421   -1.1401 H   0  0  0  0  0  0  0  0  0  0  0  0
   -1.9211    2.1303   -3.2302 C   0  0  0  0  0  0  0  0  0  0  0  0
   -2.1424    1.8011   -4.2562 H   0  0  0  0  0  0  0  0  0  0  0  0
   -2.1650    3.4511   -2.8263 C   0  0  0  0  0  0  0  0  0  0  0  0
   -2.5795    4.1808   -3.5379 H   0  0  0  0  0  0  0  0  0  0  0  0
   -2.7271   -1.7170    0.3235 C   0  0  1  0  0  3  0  0  0  0  0  0
   -3.7499   -2.5369    0.8217 C   0  0  0  0  0  0  0  0  0  0  0  0
   -4.4712   -2.9982    0.1310 H   0  0  0  0  0  0  0  0  0  0  0  0
   -1.9068   -1.3278    2.4748 C   0  0  0  0  0  0  0  0  0  0  0  0
   -1.1663   -0.7826    3.0792 H   0  0  0  0  0  0  0  0  0  0  0  0
   -3.8369   -2.7456    2.2056 C   0  0  0  0  0  0  0  0  0  0  0  0
   -4.6308   -3.3838    2.6218 H   0  0  0  0  0  0  0  0  0  0  0  0
   -2.9025   -2.1270    3.0483 C   0  0  0  0  0  0  0  0  0  0  0  0
   -2.9414   -2.2551    4.1391 H   0  0  0  0  0  0  0  0  0  0  0  0
   -2.6158   -1.3639   -1.1478 C   0  0  0  0  0  0  0  0  0  0  0  0
   -3.0940   -2.1533   -1.7742 H   0  0  0  0  0  0  0  0  0  0  0  0
   -3.1962   -0.4316   -1.3222 H   0  0  0  0  0  0  0  0  0  0  0  0
   -0.3996   -2.3041   -1.5548 C   0  0  0  0  0  0  0  0  0  0  0  0
   -0.4755   -2.8560   -2.5217 H   0  0  0  0  0  0  0  0  0  0  0  0
   -0.7744   -3.0016   -0.7740 H   0  0  0  0  0  0  0  0  0  0  0  0
  1 16  1  0  0  0  0
  2  3  2  0  0  0  0
  3 15  1  0  0  0  0
  3  7  1  0  0  0  0
  4  9  1  0  0  0  0
  4  2  1  0  0  0  0
  5  6  1  0  0  0  0
  5  7  2  0  0  0  0
  7  8  1  0  0  0  0
  9  5  1  0  0  0  0
 10  9  1  0  0  0  0
 11 13  1  0  0  0  0
 11  1  2  0  0  0  0
 12 11  1  0  0  0  0
 13  4  2  0  0  0  0
 14 13  1  0  0  0  0
 15 19  1  0  0  0  0
 16  2  1  0  0  0  0
 18 17  1  0  0  0  0
 19 18  1  0  0  0  0
 19 21  1  0  0  0  0
 20 19  1  0  0  0  0
 22 18  2  0  0  0  0
 23 25  1  0  0  0  0
 24 27  1  6  0  0  0
 24 23  1  0  0  0  0
 25 26  1  0  0  0  0
 27 31  1  0  0  0  0
 28 27  1  0  0  0  0
 29 27  1  0  0  0  0
 30 41  1  0  0  0  0
 31 47  1  0  0  0  0
 32 33  1  0  0  0  0
 32 25  2  0  0  0  0
 34 36  2  0  0  0  0
 34 24  1  0  0  0  0
 35 34  1  0  0  0  0
 36 32  1  0  0  0  0
 37 36  1  0  0  0  0
 38 47  1  1  0  0  0
 38 39  1  0  0  0  0
 38 30  1  0  0  0  0
 39 43  2  0  0  0  0
 40 39  1  0  0  0  0
 41 45  2  0  0  0  0
 41 42  1  0  0  0  0
 43 44  1  0  0  0  0
 43 45  1  0  0  0  0
 45 46  1  0  0  0  0
 48 47  1  0  0  0  0
 49 47  1  0  0  0  0
 50 31  1  0  0  0  0
 50  1  1  0  0  0  0
 50 52  1  0  0  0  0
 51 50  1  0  0  0  0
M  CHG  1  17  -1
M  END
