1,5,6,7
q = -2.0, confidence = 0.852

 75 79  0  0  1  0  0  0  0  0999 V2000
    0.4134   -2.3456    0.6466 O   0  5  0  0  0  0  0  0  0  0  0  0
   -1.0789   -3.5016    1.8335 O   0  0  0  0  0  0  0  0  0  0  0  0
   -3.0855   -3.1191   -0.8348 O   0  0  0  0  0  0  0  0  0  0  0  0
    4.3707    0.8153   -1.9303 O   0  0  0  0  0  0  0  0  0  0  0  0
    2.2755    0.5126   -0.8995 N   0  0  0  0  0  2  0  0  0  0  0  0
    2.8581   -2.0046   -0.2668 N   0  0  0  0  0  0  0  0  0  0  0  0
   -0.3640    0.0329   -0.4395 N   0  0  0  0  0  2  0  0  0  0  0  0
   -0.8044   -2.5784    1.0702 C   0  0  0  0  0  0  0  0  0  0  0  0
   -1.9080   -1.6154    0.5790 C   0  0  1  0  0  0  0  0  0  0  0  0
   -1.5120   -0.8438   -0.6800 C   0  0  0  0  0  0  0  0  0  0  0  0
   -0.5023    1.3409   -0.4238 C   0  0  0  0  0  0  0  0  0  0  0  0
   -1.8689    1.9482   -0.5439 C   0  0  0  0  0  0  0  0  0  0  0  0
   -2.7750    1.9028    0.5352 C   0  0  0  0  0  0  0  0  0  0  0  0
   -2.2531    2.5852   -1.7414 C   0  0  0  0  0  0  0  0  0  0  0  0
   -4.0484    2.4756    0.4139 C   0  0  0  0  0  0  0  0  0  0  0  0
   -3.5329    3.1451   -1.8639 C   0  0  0  0  0  0  0  0  0  0  0  0
   -4.4321    3.0913   -0.7871 C   0  0  0  0  0  0  0  0  0  0  0  0
    0.6322    2.2510   -0.3310 C   0  0  0  0  0  0  0  0  0  0  0  0
    1.9768    1.8476   -0.6532 C   0  0  1  0  0  3  0  0  0  0  0  0
    0.3732    3.6032    0.0241 C   0  0  0  0  0  0  0  0  0  0  0  0
    1.3795    4.5627    0.0572 C   0  0  0  0  0  0  0  0  0  0  0  0
    2.6834    4.1807   -0.3115 C   0  0  0  0  0  0  0  0  0  0  0  0
    2.9736    2.8667   -0.6711 C   0  0  0  0  0  0  0  0  0  0  0  0
    3.4985    0.1155   -1.4139 C   0  0  0  0  0  0  0  0  0  0  0  0
    3.6979   -1.3941   -1.3355 C   0  0  2  0  0  0  0  0  0  0  0  0
    3.2919   -2.1287   -2.6487 C   0  0  0  0  0  0  0  0  0  0  0  0
    2.2906   -3.2159   -2.2067 C   0  0  0  0  0  0  0  0  0  0  0  0
    2.5964   -3.3964   -0.7272 C   0  0  0  0  0  0  0  0  0  0  0  0
    3.4444   -1.9843    1.1051 C   0  0  0  0  0  0  0  0  0  0  0  0
    3.4786   -0.6059    1.7212 C   0  0  0  0  0  0  0  0  0  0  0  0
    2.3461   -0.1251    2.4127 C   0  0  0  0  0  0  0  0  0  0  0  0
    4.5924    0.2384    1.5670 C   0  0  0  0  0  0  0  0  0  0  0  0
    2.3218    1.1841    2.9125 C   0  0  0  0  0  0  0  0  0  0  0  0
    4.5694    1.5490    2.0708 C   0  0  0  0  0  0  0  0  0  0  0  0
    3.4321    2.0260    2.7380 C   0  0  0  0  0  0  0  0  0  0  0  0
   -3.2246   -2.3903    0.3806 C   0  0  1  0  0  0  0  0  0  0  0  0
   -4.4493   -1.4866    0.3853 C   0  0  0  0  0  0  0  0  0  0  0  0
   -5.0386   -1.0528   -0.8171 C   0  0  0  0  0  0  0  0  0  0  0  0
   -5.0099   -1.0638    1.6075 C   0  0  0  0  0  0  0  0  0  0  0  0
   -6.1608   -0.2099   -0.7997 C   0  0  0  0  0  0  0  0  0  0  0  0
   -6.1340   -0.2262    1.6273 C   0  0  0  0  0  0  0  0  0  0  0  0
   -6.7139    0.2040    0.4215 C   0  0  0  0  0  0  0  0  0  0  0  0
   -2.0739   -0.8905    1.4053 H   0  0  0  0  0  0  0  0  0  0  0  0
   -1.2394   -1.5727   -1.4684 H   0  0  0  0  0  0  0  0  0  0  0  0
   -2.3740   -0.2575   -1.0541 H   0  0  0  0  0  0  0  0  0  0  0  0
   -2.4760    1.4187    1.4767 H   0  0  0  0  0  0  0  0  0  0  0  0
   -1.5396    2.6350   -2.5776 H   0  0  0  0  0  0  0  0  0  0  0  0
   -4.7498    2.4247    1.2586 H   0  0  0  0  0  0  0  0  0  0  0  0
   -3.8280    3.6300   -2.8068 H   0  0  0  0  0  0  0  0  0  0  0  0
   -5.4372    3.5285   -0.8841 H   0  0  0  0  0  0  0  0  0  0  0  0
   -0.6565    3.8845    0.2846 H   0  0  0  0  0  0  0  0  0  0  0  0
    1.1529    5.5982    0.3500 H   0  0  0  0  0  0  0  0  0  0  0  0
    3.4966    4.9234   -0.3150 H   0  0  0  0  0  0  0  0  0  0  0  0
    3.9870    2.5866   -0.9725 H   0  0  0  0  0  0  0  0  0  0  0  0
    4.7738   -1.5686   -1.1178 H   0  0  0  0  0  0  0  0  0  0  0  0
    2.8560   -1.4254   -3.3836 H   0  0  0  0  0  0  0  0  0  0  0  0
    4.1912   -2.5717   -3.1179 H   0  0  0  0  0  0  0  0  0  0  0  0
    1.2438   -2.8673   -2.3212 H   0  0  0  0  0  0  0  0  0  0  0  0
    2.3946   -4.1586   -2.7776 H   0  0  0  0  0  0  0  0  0  0  0  0
    3.5248   -3.9956   -0.5778 H   0  0  0  0  0  0  0  0  0  0  0  0
    1.7749   -3.8255   -0.1260 H   0  0  0  0  0  0  0  0  0  0  0  0
    2.7990   -2.6497    1.7100 H   0  0  0  0  0  0  0  0  0  0  0  0
    4.4660   -2.4261    1.0581 H   0  0  0  0  0  0  0  0  0  0  0  0
    1.4820   -0.7916    2.5558 H   0  0  0  0  0  0  0  0  0  0  0  0
    5.4831   -0.1240    1.0303 H   0  0  0  0  0  0  0  0  0  0  0  0
    1.4293    1.5518    3.4410 H   0  0  0  0  0  0  0  0  0  0  0  0
    5.4424    2.2036    1.9295 H   0  0  0  0  0  0  0  0  0  0  0  0
    3.4065    3.0588    3.1161 H   0  0  0  0  0  0  0  0  0  0  0  0
   -3.2760   -3.0803    1.2542 H   0  0  0  0  0  0  0  0  0  0  0  0
   -4.6084   -1.4008   -1.7682 H   0  0  0  0  0  0  0  0  0  0  0  0
   -4.5647   -1.4111    2.5544 H   0  0  0  0  0  0  0  0  0  0  0  0
   -6.6077    0.1246   -1.7485 H   0  0  0  0  0  0  0  0  0  0  0  0
   -6.5686    0.0850    2.5900 H   0  0  0  0  0  0  0  0  0  0  0  0
   -7.5990    0.8582    0.4357 H   0  0  0  0  0  0  0  0  0  0  0  0
   -3.8253   -3.7513   -0.8773 H   0  0  0  0  0  0  0  0  0  0  0  0
  1  8  1  0  0  0  0
  3 36  1  0  0  0  0
  4 24  2  0  0  0  0
  6 29  1  0  0  0  0
  7 11  1  0  0  0  0
  8  2  2  0  0  0  0
  9  8  1  0  0  0  0
  9 43  1  1  0  0  0
 10  7  1  0  0  0  0
 10  9  1  0  0  0  0
 11 18  2  0  0  0  0
 12 11  1  0  0  0  0
 12 13  1  0  0  0  0
 13 46  1  0  0  0  0
 14 12  2  0  0  0  0
 15 13  2  0  0  0  0
 15 48  1  0  0  0  0
 16 14  1  0  0  0  0
 16 17  2  0  0  0  0
 17 15  1  0  0  0  0
 18 20  1  0  0  0  0
 19  5  1  1  0  0  0
 19 18  1  0  0  0  0
 20 21  2  0  0  0  0
 20 51  1  0  0  0  0
 21 52  1  0  0  0  0
 22 21  1  0  0  0  0
 23 19  1  0  0  0  0
 23 22  2  0  0  0  0
 24 25  1  0  0  0  0
 24  5  1  0  0  0  0
 25 55  1  1  0  0  0
 25  6  1  0  0  0  0
 26 27  1  0  0  0  0
 26 25  1  0  0  0  0
 27 28  1  0  0  0  0
 28 60  1  0  0  0  0
 28  6  1  0  0  0  0
 28 61  1  0  0  0  0
 29 62  1  0  0  0  0
 29 30  1  0  0  0  0
 30 31  1  0  0  0  0
 31 64  1  0  0  0  0
 31 33  2  0  0  0  0
 32 30  2  0  0  0  0
 32 34  1  0  0  0  0
 33 66  1  0  0  0  0
 34 35  2  0  0  0  0
 35 33  1  0  0  0  0
 35 68  1  0  0  0  0
 36 37  1  0  0  0  0
 36  9  1  0  0  0  0
 36 69  1  1  0  0  0
 37 39  1  0  0  0  0
 38 40  1  0  0  0  0
 38 37  2  0  0  0  0
 39 41  2  0  0  0  0
 39 71  1  0  0  0  0
 40 42  2  0  0  0  0
 41 73  1  0  0  0  0
 42 74  1  0  0  0  0
 42 41  1  0  0  0  0
 44 10  1  0  0  0  0
 45 10  1  0  0  0  0
 47 14  1  0  0  0  0
 49 16  1  0  0  0  0
 50 17  1  0  0  0  0
 53 22  1  0  0  0  0
 54 23  1  0  0  0  0
 56 26  1  0  0  0  0
 57 26  1  0  0  0  0
 58 27  1  0  0  0  0
 59 27  1  0  0  0  0
 63 29  1  0  0  0  0
 65 32  1  0  0  0  0
 67 34  1  0  0  0  0
 70 38  1  0  0  0  0
 72 40  1  0  0  0  0
 75  3  1  0  0  0  0
M  CHG  1   1  -1
M  END
