3,4,5,6
q = -2.0, confidence = 0.852

 49 51  0  0  1  0  0  0  0  0999 V2000
   -3.5367    1.4428   -0.7817 O   0  0  0  0  0  0  0  0  0  0  0  0
    4.1102   -0.5885    0.5475 O   0  0  0  0  0  0  0  0  0  0  0  0
   -0.0877   -1.8155   -0.2512 O   0  0  0  0  0  1  0  0  0  0  0  0
   -1.6063    0.3350   -0.4100 N   0  0  0  0  0  2  0  0  0  0  0  0
    0.6491    1.8774    0.0390 N   0  0  0  0  0  2  0  0  0  0  0  0
    1.8873   -0.4585    0.3335 N   0  0  0  0  0  2  0  0  0  0  0  0
   -2.6307   -0.7237   -0.4645 C   0  0  2  0  0  0  0  0  0  0  0  0
   -2.2745   -1.5208   -1.1451 H   0  0  0  0  0  0  0  0  0  0  0  0
   -3.8372    0.0484   -1.0347 C   0  0  0  0  0  0  0  0  0  0  0  0
   -4.8000   -0.1909   -0.5425 H   0  0  0  0  0  0  0  0  0  0  0  0
   -3.9508   -0.0873   -2.1318 H   0  0  0  0  0  0  0  0  0  0  0  0
   -2.2061    1.5051   -0.5195 C   0  0  2  0  0  3  0  0  0  0  0  0
   -1.5926    2.7764   -0.3661 C   0  0  0  0  0  0  0  0  0  0  0  0
   -2.2251    3.6659   -0.4741 H   0  0  0  0  0  0  0  0  0  0  0  0
   -0.2472    2.9149   -0.0891 C   0  0  0  0  0  0  0  0  0  0  0  0
    0.4438    4.2455    0.1275 C   0  0  0  0  0  0  0  0  0  0  0  0
    0.1761    4.6351    1.1337 H   0  0  0  0  0  0  0  0  0  0  0  0
    0.1217    5.0074   -0.6084 H   0  0  0  0  0  0  0  0  0  0  0  0
    1.9329    3.8810    0.0437 C   0  0  0  0  0  0  0  0  0  0  0  0
    2.5614    4.3644    0.8167 H   0  0  0  0  0  0  0  0  0  0  0  0
    2.3651    4.1581   -0.9423 H   0  0  0  0  0  0  0  0  0  0  0  0
    1.9312    2.3703    0.1783 C   0  0  2  0  0  3  0  0  0  0  0  0
    3.0849    1.6210    0.3511 C   0  0  0  0  0  0  0  0  0  0  0  0
    4.0614    2.1163    0.4114 H   0  0  0  0  0  0  0  0  0  0  0  0
    3.0166    0.2064    0.4075 C   0  0  0  0  0  0  0  0  0  0  0  0
    3.6534   -1.9592    0.3201 C   0  0  0  0  0  0  0  0  0  0  0  0
    4.1678   -2.6124    1.0485 H   0  0  0  0  0  0  0  0  0  0  0  0
    3.9509   -2.2497   -0.7102 H   0  0  0  0  0  0  0  0  0  0  0  0
    2.1242   -1.8921    0.4981 C   0  0  2  0  0  0  0  0  0  0  0  0
    1.8238   -2.1884    1.5301 H   0  0  0  0  0  0  0  0  0  0  0  0
    1.1035   -2.5452   -0.4715 C   0  0  0  0  0  0  0  0  0  0  0  0
    0.8352   -4.0103   -0.1062 C   0  0  0  0  0  0  0  0  0  0  0  0
    0.5057   -4.0858    0.9491 H   0  0  0  0  0  0  0  0  0  0  0  0
    1.7355   -4.6435   -0.2491 H   0  0  0  0  0  0  0  0  0  0  0  0
    0.0235   -4.4087   -0.7466 H   0  0  0  0  0  0  0  0  0  0  0  0
    1.5498   -2.4233   -1.9397 C   0  0  0  0  0  0  0  0  0  0  0  0
    0.7046   -2.7240   -2.5888 H   0  0  0  0  0  0  0  0  0  0  0  0
    2.4220   -3.0652   -2.1859 H   0  0  0  0  0  0  0  0  0  0  0  0
    1.8023   -1.3706   -2.1800 H   0  0  0  0  0  0  0  0  0  0  0  0
   -2.8514   -1.3677    0.9269 C   0  0  0  0  0  0  0  0  0  0  0  0
   -1.8487   -1.7614    1.1936 H   0  0  0  0  0  0  0  0  0  0  0  0
   -3.8138   -2.5545    0.8213 C   0  0  0  0  0  0  0  0  0  0  0  0
   -3.9073   -3.0748    1.7960 H   0  0  0  0  0  0  0  0  0  0  0  0
   -3.4585   -3.2960    0.0764 H   0  0  0  0  0  0  0  0  0  0  0  0
   -4.8373   -2.2374    0.5241 H   0  0  0  0  0  0  0  0  0  0  0  0
   -3.2884   -0.3592    1.9931 C   0  0  0  0  0  0  0  0  0  0  0  0
   -2.5520    0.4634    2.0922 H   0  0  0  0  0  0  0  0  0  0  0  0
   -3.3734   -0.8515    2.9831 H   0  0  0  0  0  0  0  0  0  0  0  0
   -4.2777    0.0928    1.7662 H   0  0  0  0  0  0  0  0  0  0  0  0
  1 12  1  0  0  0  0
  5 22  1  0  0  0  0
  6 25  1  0  0  0  0
  6 29  1  0  0  0  0
  7  8  1  6  0  0  0
  7  4  1  0  0  0  0
  7 40  1  0  0  0  0
  9  1  1  0  0  0  0
  9 10  1  0  0  0  0
  9  7  1  0  0  0  0
 11  9  1  0  0  0  0
 12  4  1  0  0  0  0
 12 13  1  1  0  0  0
 13 15  2  0  0  0  0
 14 13  1  0  0  0  0
 15  5  1  0  0  0  0
 15 16  1  0  0  0  0
 16 17  1  0  0  0  0
 18 16  1  0  0  0  0
 19 16  1  0  0  0  0
 19 22  1  0  0  0  0
 19 20  1  0  0  0  0
 21 19  1  0  0  0  0
 22 23  1  6  0  0  0
 23 25  2  0  0  0  0
 23 24  1  0  0  0  0
 25  2  1  0  0  0  0
 26 29  1  0  0  0  0
 26  2  1  0  0  0  0
 26 27  1  0  0  0  0
 28 26  1  0  0  0  0
 29 30  1  1  0  0  0
 31  3  1  0  0  0  0
 31 32  1  0  0  0  0
 31 29  1  0  0  0  0
 32 33  1  0  0  0  0
 34 32  1  0  0  0  0
 35 32  1  0  0  0  0
 36 31  1  0  0  0  0
 37 36  1  0  0  0  0
 38 36  1  0  0  0  0
 39 36  1  0  0  0  0
 40 41  1  0  0  0  0
 40 46  1  0  0  0  0
 42 40  1  0  0  0  0
 42 43  1  0  0  0  0
 44 42  1  0  0  0  0
 45 42  1  0  0  0  0
 46 47  1  0  0  0  0
 46 48  1  0  0  0  0
 49 46  1  0  0  0  0
M  END
