2,4,5,6
q = -1.0, confidence = 0.108

 58 60  0  0  0  0  0  0  0  0999 V2000
   -1.1711   -0.5157   -1.8067 O   0  0  0  0  0  0  0  0  0  0  0  0
    0.1576   -1.5944   -0.0756 O   0  5  0  0  0  0  0  0  0  0  0  0
    1.2593    0.4738   -1.8687 O   0  0  0  0  0  0  0  0  0  0  0  0
   -1.2537    1.9412   -0.2439 N   0  0  0  0  0  2  0  0  0  0  0  0
   -0.5194    0.3124    2.0162 N   0  0  0  0  0  2  0  0  0  0  0  0
    1.6756    1.6229    0.6060 N   0  0  0  0  0  2  0  0  0  0  0  0
   -0.3145    4.0265    2.7909 C   0  0  0  0  0  0  0  0  0  0  0  0
    0.2698    3.9156    3.7265 H   0  0  0  0  0  0  0  0  0  0  0  0
   -1.3739    4.1913    3.0719 H   0  0  0  0  0  0  0  0  0  0  0  0
    0.0458    4.9384    2.2733 H   0  0  0  0  0  0  0  0  0  0  0  0
   -0.1668    2.7835    1.8961 C   0  0  0  0  0  0  0  0  0  0  0  0
   -0.8398    3.1146    0.5226 C   0  0  0  0  0  0  0  0  0  0  0  0
   -1.7153    3.7791    0.7007 H   0  0  0  0  0  0  0  0  0  0  0  0
   -0.1106    3.6920   -0.0884 H   0  0  0  0  0  0  0  0  0  0  0  0
   -2.4683    1.8958   -0.6999 C   0  0  0  0  0  3  0  0  0  0  0  0
   -3.1244    2.7741   -0.5024 H   0  0  0  0  0  0  0  0  0  0  0  0
   -3.1418    0.8078   -1.3983 C   0  0  0  0  0  0  0  0  0  0  0  0
   -2.5278   -0.4004   -1.8463 C   0  0  0  0  0  0  0  0  0  0  0  0
   -3.3164   -1.4378   -2.3690 C   0  0  0  0  0  0  0  0  0  0  0  0
   -2.8198   -2.3604   -2.7043 H   0  0  0  0  0  0  0  0  0  0  0  0
   -4.7042   -1.2848   -2.4871 C   0  0  0  0  0  0  0  0  0  0  0  0
   -5.3057   -2.1067   -2.9035 H   0  0  0  0  0  0  0  0  0  0  0  0
   -5.3241   -0.0841   -2.0977 C   0  0  0  0  0  0  0  0  0  0  0  0
   -6.4102    0.0431   -2.2081 H   0  0  0  0  0  0  0  0  0  0  0  0
   -4.5462    0.9434   -1.5634 C   0  0  0  0  0  0  0  0  0  0  0  0
   -5.0250    1.8801   -1.2370 H   0  0  0  0  0  0  0  0  0  0  0  0
   -0.8721    1.5945    2.6041 C   0  0  0  0  0  0  0  0  0  0  0  0
   -0.6287    1.6156    3.6914 H   0  0  0  0  0  0  0  0  0  0  0  0
   -1.9738    1.7460    2.5253 H   0  0  0  0  0  0  0  0  0  0  0  0
   -0.4620   -0.7649    2.7461 C   0  0  0  0  0  3  0  0  0  0  0  0
   -0.6693   -0.6726    3.8372 H   0  0  0  0  0  0  0  0  0  0  0  0
   -0.1721   -2.1044    2.2918 C   0  0  0  0  0  0  0  0  0  0  0  0
    0.0874   -2.4693    0.9168 C   0  0  0  0  0  0  0  0  0  0  0  0
    0.2788   -3.8456    0.6242 C   0  0  0  0  0  0  0  0  0  0  0  0
    0.4747   -4.1157   -0.4240 H   0  0  0  0  0  0  0  0  0  0  0  0
    0.2435   -4.8178    1.6225 C   0  0  0  0  0  0  0  0  0  0  0  0
    0.4047   -5.8733    1.3539 H   0  0  0  0  0  0  0  0  0  0  0  0
    0.0112   -4.4645    2.9702 C   0  0  0  0  0  0  0  0  0  0  0  0
   -0.0122   -5.2341    3.7542 H   0  0  0  0  0  0  0  0  0  0  0  0
   -0.1934   -3.1268    3.2849 C   0  0  0  0  0  0  0  0  0  0  0  0
   -0.3889   -2.8319    4.3285 H   0  0  0  0  0  0  0  0  0  0  0  0
    1.3504    2.5053    1.7316 C   0  0  0  0  0  0  0  0  0  0  0  0
    1.8806    3.4745    1.6043 H   0  0  0  0  0  0  0  0  0  0  0  0
    1.7322    2.0571    2.6767 H   0  0  0  0  0  0  0  0  0  0  0  0
    2.9098    1.5407    0.2150 C   0  0  0  0  0  3  0  0  0  0  0  0
    3.6878    2.1187    0.7629 H   0  0  0  0  0  0  0  0  0  0  0  0
    3.4140    0.7324   -0.8851 C   0  0  0  0  0  0  0  0  0  0  0  0
    2.5880    0.1708   -1.9006 C   0  0  0  0  0  0  0  0  0  0  0  0
    3.1439   -0.6173   -2.9174 C   0  0  0  0  0  0  0  0  0  0  0  0
    2.4884   -1.0421   -3.6937 H   0  0  0  0  0  0  0  0  0  0  0  0
    4.5256   -0.8507   -2.9453 C   0  0  0  0  0  0  0  0  0  0  0  0
    4.9498   -1.4724   -3.7476 H   0  0  0  0  0  0  0  0  0  0  0  0
    5.3666   -0.2874   -1.9692 C   0  0  0  0  0  0  0  0  0  0  0  0
    6.4509   -0.4628   -2.0021 H   0  0  0  0  0  0  0  0  0  0  0  0
    4.8109    0.5012   -0.9607 C   0  0  0  0  0  0  0  0  0  0  0  0
    5.4588    0.9488   -0.1911 H   0  0  0  0  0  0  0  0  0  0  0  0
   -0.8227   -1.3294   -1.2870 H   0  0  0  0  0  0  0  0  0  0  0  0
    0.7362    0.0070   -2.5558 H   0  0  0  0  0  0  0  0  0  0  0  0
  1 57  1  0  0  0  0
  2 33  1  0  0  0  0
  4 12  1  0  0  0  0
  5 27  1  0  0  0  0
  5 30  1  0  0  0  0
  6 42  1  0  0  0  0
  7  9  1  0  0  0  0
  7  8  1  0  0  0  0
 10  7  1  0  0  0  0
 11 27  1  0  0  0  0
 11  7  1  0  0  0  0
 12 13  1  0  0  0  0
 12 11  1  0  0  0  0
 14 12  1  0  0  0  0
 15 16  1  0  0  0  0
 15  4  1  0  0  0  0
 17 15  1  0  0  0  0
 18  1  1  0  0  0  0
 18 17  2  0  0  0  0
 19 18  1  0  0  0  0
 20 19  1  0  0  0  0
 21 19  2  0  0  0  0
 21 23  1  0  0  0  0
 22 21  1  0  0  0  0
 23 25  2  0  0  0  0
 24 23  1  0  0  0  0
 25 17  1  0  0  0  0
 25 26  1  0  0  0  0
 27 28  1  0  0  0  0
 29 27  1  0  0  0  0
 30 31  1  0  0  0  0
 32 30  1  0  0  0  0
 32 40  1  0  0  0  0
 33 32  2  0  0  0  0
 34 33  1  0  0  0  0
 34 36  2  0  0  0  0
 35 34  1  0  0  0  0
 36 38  1  0  0  0  0
 37 36  1  0  0  0  0
 38 40  2  0  0  0  0
 38 39  1  0  0  0  0
 40 41  1  0  0  0  0
 42 11  1  0  0  0  0
 42 44  1  0  0  0  0
 43 42  1  0  0  0  0
 45  6  1  0  0  0  0
 45 46  1  0  0  0  0
 47 45  1  0  0  0  0
 48  3  1  0  0  0  0
 48 47  2  0  0  0  0
 49 48  1  0  0  0  0
 50 49  1  0  0  0  0
 51 49  2  0  0  0  0
 51 53  1  0  0  0  0
 52 51  1  0  0  0  0
 53 55  2  0  0  0  0
 54 53  1  0  0  0  0
 55 47  1  0  0  0  0
 55 56  1  0  0  0  0
 58  3  1  0  0  0  0
M  CHG  1   2  -1
M  END
