1,2,3,4
q = -1.0

 47 50  0  0  1  0  0  0  0  0999 V2000
    2.4147   -1.1752    0.1052 O   0  5  0  0  0  0  0  0  0  0  0  0
   -0.1559   -2.0267   -0.2153 N   0  0  0  0  0  2  0  0  0  0  0  0
   -0.9885    0.3567   -0.2618 N   0  0  0  0  0  2  0  0  0  0  0  0
    1.3298    1.4391   -0.0511 N   0  0  0  0  0  2  0  0  0  0  0  0
    0.4229   -3.2318   -0.2753 C   0  0  0  0  0  3  0  0  0  0  0  0
    1.5235   -3.2165   -0.2909 H   0  0  0  0  0  0  0  0  0  0  0  0
   -0.3453   -4.4045   -0.2949 C   0  0  0  0  0  0  0  0  0  0  0  0
    0.1571   -5.3809   -0.3413 H   0  0  0  0  0  0  0  0  0  0  0  0
   -1.7450   -4.3072   -0.2441 C   0  0  0  0  0  0  0  0  0  0  0  0
   -2.3689   -5.2131   -0.2476 H   0  0  0  0  0  0  0  0  0  0  0  0
   -2.3417   -3.0415   -0.1856 C   0  0  0  0  0  0  0  0  0  0  0  0
   -3.4324   -2.9185   -0.1386 H   0  0  0  0  0  0  0  0  0  0  0  0
   -1.5155   -1.9037   -0.1859 C   0  0  0  0  0  0  0  0  0  0  0  0
   -1.9723   -0.5143   -0.1615 C   0  0  1  0  0  3  0  0  0  0  0  0
   -3.3855   -0.1742    0.1297 C   0  0  0  0  0  0  0  0  0  0  0  0
   -3.6760    0.3519    1.4082 C   0  0  0  0  0  0  0  0  0  0  0  0
   -2.8475    0.4935    2.1201 H   0  0  0  0  0  0  0  0  0  0  0  0
   -4.9969    0.6744    1.7435 C   0  0  0  0  0  0  0  0  0  0  0  0
   -5.2223    1.0828    2.7403 H   0  0  0  0  0  0  0  0  0  0  0  0
   -6.0312    0.4746    0.8128 C   0  0  0  0  0  0  0  0  0  0  0  0
   -7.0675    0.7327    1.0784 H   0  0  0  0  0  0  0  0  0  0  0  0
   -5.7449   -0.0590   -0.4540 C   0  0  0  0  0  0  0  0  0  0  0  0
   -6.5547   -0.2168   -1.1823 H   0  0  0  0  0  0  0  0  0  0  0  0
   -4.4247   -0.3900   -0.7972 C   0  0  0  0  0  0  0  0  0  0  0  0
   -4.1914   -0.7958   -1.7934 H   0  0  0  0  0  0  0  0  0  0  0  0
   -1.0179    1.7538   -0.3392 C   0  0  0  0  0  0  0  0  0  0  0  0
   -2.1504    2.5619   -0.5715 C   0  0  0  0  0  0  0  0  0  0  0  0
   -3.1355    2.1033   -0.7126 H   0  0  0  0  0  0  0  0  0  0  0  0
   -2.0074    3.9509   -0.6388 C   0  0  0  0  0  0  0  0  0  0  0  0
   -2.8898    4.5801   -0.8245 H   0  0  0  0  0  0  0  0  0  0  0  0
   -0.7391    4.5402   -0.4753 C   0  0  0  0  0  0  0  0  0  0  0  0
   -0.6322    5.6342   -0.5253 H   0  0  0  0  0  0  0  0  0  0  0  0
    0.3955    3.7499   -0.2671 C   0  0  0  0  0  0  0  0  0  0  0  0
    1.3781    4.2296   -0.1650 H   0  0  0  0  0  0  0  0  0  0  0  0
    0.2763    2.3461   -0.2097 C   0  0  0  0  0  0  0  0  0  0  0  0
    2.5886    1.7861    0.1075 C   0  0  0  0  0  3  0  0  0  0  0  0
    2.8333    2.8642    0.1356 H   0  0  0  0  0  0  0  0  0  0  0  0
    3.6884    0.8949    0.2441 C   0  0  0  0  0  0  0  0  0  0  0  0
    4.9909    1.4627    0.3970 C   0  0  0  0  0  0  0  0  0  0  0  0
    5.0763    2.5614    0.4121 H   0  0  0  0  0  0  0  0  0  0  0  0
    6.1232    0.6760    0.5222 C   0  0  0  0  0  0  0  0  0  0  0  0
    7.1156    1.1339    0.6387 H   0  0  0  0  0  0  0  0  0  0  0  0
    5.9803   -0.7373    0.4949 C   0  0  0  0  0  0  0  0  0  0  0  0
    6.8727   -1.3756    0.5925 H   0  0  0  0  0  0  0  0  0  0  0  0
    4.7365   -1.3313    0.3475 C   0  0  0  0  0  0  0  0  0  0  0  0
    4.6224   -2.4247    0.3279 H   0  0  0  0  0  0  0  0  0  0  0  0
    3.5401   -0.5511    0.2220 C   0  0  0  0  0  0  0  0  0  0  0  0
  1 47  1  0  0  0  0
  2 13  1  0  0  0  0
  4 36  1  0  0  0  0
  5  2  1  0  0  0  0
  6  5  1  0  0  0  0
  7  5  1  0  0  0  0
  7  9  2  0  0  0  0
  8  7  1  0  0  0  0
  9 11  1  0  0  0  0
 10  9  1  0  0  0  0
 11 12  1  0  0  0  0
 13 11  2  0  0  0  0
 13 14  1  0  0  0  0
 14  3  1  1  0  0  0
 14 15  1  0  0  0  0
 15 16  1  0  0  0  0
 16 18  2  0  0  0  0
 16 17  1  0  0  0  0
 18 19  1  0  0  0  0
 20 21  1  0  0  0  0
 20 18  1  0  0  0  0
 22 20  2  0  0  0  0
 23 22  1  0  0  0  0
 24 22  1  0  0  0  0
 24 15  2  0  0  0  0
 25 24  1  0  0  0  0
 26  3  1  0  0  0  0
 26 35  1  0  0  0  0
 27 26  2  0  0  0  0
 28 27  1  0  0  0  0
 29 27  1  0  0  0  0
 29 31  2  0  0  0  0
 30 29  1  0  0  0  0
 31 33  1  0  0  0  0
 32 31  1  0  0  0  0
 33 35  2  0  0  0  0
 33 34  1  0  0  0  0
 35  4  1  0  0  0  0
 36 37  1  0  0  0  0
 36 38  1  0  0  0  0
 38 39  1  0  0  0  0
 39 40  1  0  0  0  0
 39 41  2  0  0  0  0
 41 42  1  0  0  0  0
 43 41  1  0  0  0  0
 43 44  1  0  0  0  0
 45 43  2  0  0  0  0
 46 45  1  0  0  0  0
 47 38  2  0  0  0  0
 47 45  1  0  0  0  0
M  CHG  1   1  -1
M  END
