1,4,5,6
q = -2.0, confidence = 0.834

 80 84  0  0  1  0  0  0  0  0999 V2000
   -0.4228   -1.7683   -1.8133 O   0  5  0  0  0  0  0  0  0  0  0  0
    1.2859   -1.5770   -3.2668 O   0  0  0  0  0  0  0  0  0  0  0  0
   -3.4856   -0.7408    2.8816 O   0  0  0  0  0  0  0  0  0  0  0  0
    0.0936    0.3685   -0.5501 N   0  0  0  0  0  2  0  0  0  0  0  0
   -2.0215   -0.1121    1.1415 N   0  0  0  0  0  2  0  0  0  0  0  0
   -2.4253   -2.4281   -0.1307 N   0  0  0  0  0  0  0  0  0  0  0  0
    0.7060   -1.2435   -2.2386 C   0  0  0  0  0  0  0  0  0  0  0  0
    1.2532   -0.1683   -1.2839 C   0  0  2  0  0  0  0  0  0  0  0  0
    1.7341    0.6223   -1.8876 H   0  0  0  0  0  0  0  0  0  0  0  0
    2.2813   -0.6905   -0.2519 C   0  0  0  0  0  0  0  0  0  0  0  0
    1.8006   -1.4806    0.3641 H   0  0  0  0  0  0  0  0  0  0  0  0
    2.4584    0.1596    0.4360 H   0  0  0  0  0  0  0  0  0  0  0  0
    3.6625   -1.2017   -0.7709 C   0  0  0  0  0  0  0  0  0  0  0  0
    4.6503   -1.0495    0.4043 C   0  0  0  0  0  0  0  0  0  0  0  0
    5.2289   -2.1510    1.0644 C   0  0  0  0  0  0  0  0  0  0  0  0
    4.9900   -3.1729    0.7405 H   0  0  0  0  0  0  0  0  0  0  0  0
    6.1160   -1.9738    2.1403 C   0  0  0  0  0  0  0  0  0  0  0  0
    6.5508   -2.8563    2.6348 H   0  0  0  0  0  0  0  0  0  0  0  0
    6.4475   -0.6867    2.5830 C   0  0  0  0  0  0  0  0  0  0  0  0
    7.1427   -0.5477    3.4249 H   0  0  0  0  0  0  0  0  0  0  0  0
    5.8809    0.4242    1.9365 C   0  0  0  0  0  0  0  0  0  0  0  0
    6.1315    1.4440    2.2683 H   0  0  0  0  0  0  0  0  0  0  0  0
    4.9968    0.2417    0.8657 C   0  0  0  0  0  0  0  0  0  0  0  0
    4.5643    1.1286    0.3777 H   0  0  0  0  0  0  0  0  0  0  0  0
    4.1535   -0.3507   -1.9663 C   0  0  0  0  0  0  0  0  0  0  0  0
    4.1531    0.7346   -1.7392 H   0  0  0  0  0  0  0  0  0  0  0  0
    3.5007   -0.5252   -2.8445 H   0  0  0  0  0  0  0  0  0  0  0  0
    5.1892   -0.6377   -2.2366 H   0  0  0  0  0  0  0  0  0  0  0  0
    3.5500   -2.6653   -1.2352 C   0  0  0  0  0  0  0  0  0  0  0  0
    4.5417   -3.0640   -1.5298 H   0  0  0  0  0  0  0  0  0  0  0  0
    2.8842   -2.7355   -2.1144 H   0  0  0  0  0  0  0  0  0  0  0  0
    3.1400   -3.3183   -0.4378 H   0  0  0  0  0  0  0  0  0  0  0  0
    0.0510    1.6063   -0.1083 C   0  0  0  0  0  0  0  0  0  0  0  0
    1.1836    2.5345   -0.4384 C   0  0  0  0  0  0  0  0  0  0  0  0
    2.1262    2.8759    0.5524 C   0  0  0  0  0  0  0  0  0  0  0  0
    2.0015    2.4854    1.5736 H   0  0  0  0  0  0  0  0  0  0  0  0
    3.2156    3.7023    0.2382 C   0  0  0  0  0  0  0  0  0  0  0  0
    3.9494    3.9564    1.0180 H   0  0  0  0  0  0  0  0  0  0  0  0
    3.3683    4.2029   -1.0647 C   0  0  0  0  0  0  0  0  0  0  0  0
    4.2239    4.8494   -1.3109 H   0  0  0  0  0  0  0  0  0  0  0  0
    2.4221    3.8818   -2.0515 C   0  0  0  0  0  0  0  0  0  0  0  0
    2.5317    4.2788   -3.0719 H   0  0  0  0  0  0  0  0  0  0  0  0
    1.3350    3.0515   -1.7415 C   0  0  0  0  0  0  0  0  0  0  0  0
    0.5932    2.7969   -2.5140 H   0  0  0  0  0  0  0  0  0  0  0  0
   -1.0449    2.1126    0.7068 C   0  0  0  0  0  0  0  0  0  0  0  0
   -1.1299    3.5226    0.8802 C   0  0  0  0  0  3  0  0  0  0  0  0
   -0.3949    4.1544    0.3630 H   0  0  0  0  0  0  0  0  0  0  0  0
   -2.1109    4.1165    1.6660 C   0  0  0  0  0  0  0  0  0  0  0  0
   -2.1558    5.2104    1.7689 H   0  0  0  0  0  0  0  0  0  0  0  0
   -3.0290    3.2846    2.3339 C   0  0  0  0  0  0  0  0  0  0  0  0
   -3.8074    3.7238    2.9773 H   0  0  0  0  0  0  0  0  0  0  0  0
   -2.9760    1.8999    2.1951 C   0  0  0  0  0  0  0  0  0  0  0  0
   -3.6831    1.2626    2.7336 H   0  0  0  0  0  0  0  0  0  0  0  0
   -2.0140    1.2619    1.3567 C   0  0  0  0  0  0  0  0  0  0  0  0
   -2.8299   -0.9749    1.8654 C   0  0  0  0  0  0  0  0  0  0  0  0
   -2.8195   -2.3967    1.3077 C   0  0  2  0  0  0  0  0  0  0  0  0
   -3.8489   -2.7986    1.4266 H   0  0  0  0  0  0  0  0  0  0  0  0
   -1.7963   -3.3213    2.0335 C   0  0  0  0  0  0  0  0  0  0  0  0
   -1.2095   -2.7591    2.7845 H   0  0  0  0  0  0  0  0  0  0  0  0
   -2.3390   -4.1186    2.5765 H   0  0  0  0  0  0  0  0  0  0  0  0
   -0.9126   -3.9039    0.9113 C   0  0  0  0  0  0  0  0  0  0  0  0
    0.0150   -3.3094    0.7824 H   0  0  0  0  0  0  0  0  0  0  0  0
   -0.6156   -4.9543    1.0950 H   0  0  0  0  0  0  0  0  0  0  0  0
   -1.7756   -3.7533   -0.3331 C   0  0  0  0  0  0  0  0  0  0  0  0
   -1.2168   -3.7418   -1.2861 H   0  0  0  0  0  0  0  0  0  0  0  0
   -2.5709   -4.5338   -0.3701 H   0  0  0  0  0  0  0  0  0  0  0  0
   -3.5356   -2.1991   -1.1042 C   0  0  0  0  0  0  0  0  0  0  0  0
   -4.3725   -2.8899   -0.8534 H   0  0  0  0  0  0  0  0  0  0  0  0
   -3.1308   -2.4852   -2.0941 H   0  0  0  0  0  0  0  0  0  0  0  0
   -4.0019   -0.7633   -1.1346 C   0  0  0  0  0  0  0  0  0  0  0  0
   -5.0279   -0.3096   -0.2873 C   0  0  0  0  0  0  0  0  0  0  0  0
   -5.5568   -1.0238    0.3630 H   0  0  0  0  0  0  0  0  0  0  0  0
   -5.3611    1.0538   -0.2381 C   0  0  0  0  0  0  0  0  0  0  0  0
   -6.1518    1.3984    0.4447 H   0  0  0  0  0  0  0  0  0  0  0  0
   -4.6763    1.9742   -1.0444 C   0  0  0  0  0  0  0  0  0  0  0  0
   -4.9237    3.0448   -0.9917 H   0  0  0  0  0  0  0  0  0  0  0  0
   -3.6677    1.5261   -1.9131 C   0  0  0  0  0  0  0  0  0  0  0  0
   -3.1339    2.2437   -2.5543 H   0  0  0  0  0  0  0  0  0  0  0  0
   -3.3337    0.1658   -1.9609 C   0  0  0  0  0  0  0  0  0  0  0  0
   -2.5455   -0.1889   -2.6428 H   0  0  0  0  0  0  0  0  0  0  0  0
  2  7  2  0  0  0  0
  4 33  1  0  0  0  0
  5 54  1  0  0  0  0
  5 55  1  0  0  0  0
  6 56  1  0  0  0  0
  7  1  1  0  0  0  0
  7  8  1  0  0  0  0
  8  9  1  6  0  0  0
  8  4  1  0  0  0  0
  8 10  1  0  0  0  0
 10 11  1  0  0  0  0
 10 12  1  0  0  0  0
 13 10  1  0  0  0  0
 13 14  1  0  0  0  0
 14 23  2  0  0  0  0
 14 15  1  0  0  0  0
 15 17  2  0  0  0  0
 16 15  1  0  0  0  0
 17 19  1  0  0  0  0
 17 18  1  0  0  0  0
 19 20  1  0  0  0  0
 21 22  1  0  0  0  0
 21 19  2  0  0  0  0
 23 21  1  0  0  0  0
 24 23  1  0  0  0  0
 25 26  1  0  0  0  0
 25 13  1  0  0  0  0
 27 25  1  0  0  0  0
 28 25  1  0  0  0  0
 29 13  1  0  0  0  0
 29 32  1  0  0  0  0
 30 29  1  0  0  0  0
 31 29  1  0  0  0  0
 33 45  2  0  0  0  0
 34 33  1  0  0  0  0
 34 35  1  0  0  0  0
 35 36  1  0  0  0  0
 37 35  2  0  0  0  0
 37 38  1  0  0  0  0
 39 37  1  0  0  0  0
 40 39  1  0  0  0  0
 41 43  1  0  0  0  0
 41 39  2  0  0  0  0
 42 41  1  0  0  0  0
 43 34  2  0  0  0  0
 44 43  1  0  0  0  0
 45 46  1  0  0  0  0
 45 54  1  0  0  0  0
 46 48  1  0  0  0  0
 47 46  1  0  0  0  0
 48 49  1  0  0  0  0
 48 50  2  0  0  0  0
 50 51  1  0  0  0  0
 52 50  1  0  0  0  0
 52 53  1  0  0  0  0
 54 52  2  0  0  0  0
 55  3  2  0  0  0  0
 56 57  1  1  0  0  0
 56 55  1  0  0  0  0
 56 58  1  0  0  0  0
 58 60  1  0  0  0  0
 58 59  1  0  0  0  0
 61 63  1  0  0  0  0
 61 58  1  0  0  0  0
 62 61  1  0  0  0  0
 64  6  1  0  0  0  0
 64 61  1  0  0  0  0
 65 64  1  0  0  0  0
 66 64  1  0  0  0  0
 67 68  1  0  0  0  0
 67  6  1  0  0  0  0
 69 67  1  0  0  0  0
 70 67  1  0  0  0  0
 70 71  1  0  0  0  0
 71 73  2  0  0  0  0
 71 72  1  0  0  0  0
 73 74  1  0  0  0  0
 75 76  1  0  0  0  0
 75 73  1  0  0  0  0
 77 75  2  0  0  0  0
 78 77  1  0  0  0  0
 79 77  1  0  0  0  0
 79 70  2  0  0  0  0
 80 79  1  0  0  0  0
M  CHG  1   1  -1
M  END
