29,30,31,32
q = -1.0, confidence = 0.026

 33 34  0  0  1  0  0  0  0  0999 V2000
    2.3912   -0.8932    0.7768 C   0  0  1  0  0  3  0  0  0  0  0  0
    3.6888   -1.4099    0.7952 C   0  0  0  0  0  0  0  0  0  0  0  0
    3.8994   -2.3143    1.3844 H   0  0  0  0  0  0  0  0  0  0  0  0
    4.7026   -0.7720    0.0614 C   0  0  0  0  0  0  0  0  0  0  0  0
    5.7294   -1.1653    0.0666 H   0  0  0  0  0  0  0  0  0  0  0  0
    4.3693    0.3663   -0.6853 C   0  0  0  0  0  0  0  0  0  0  0  0
    5.1212    0.8980   -1.2854 H   0  0  0  0  0  0  0  0  0  0  0  0
    3.0505    0.8289   -0.6768 C   0  0  0  0  0  0  0  0  0  0  0  0
    2.7352    1.7085   -1.2547 H   0  0  0  0  0  0  0  0  0  0  0  0
   -2.3912   -0.8924    0.7776 C   0  0  2  0  0  3  0  0  0  0  0  0
   -3.6888   -1.4089    0.7959 C   0  0  0  0  0  0  0  0  0  0  0  0
   -3.8996   -2.3133    1.3851 H   0  0  0  0  0  0  0  0  0  0  0  0
   -4.7026   -0.7708    0.0622 C   0  0  0  0  0  0  0  0  0  0  0  0
   -5.7294   -1.1641    0.0673 H   0  0  0  0  0  0  0  0  0  0  0  0
   -4.3691    0.3674   -0.6845 C   0  0  0  0  0  0  0  0  0  0  0  0
   -5.1209    0.8992   -1.2846 H   0  0  0  0  0  0  0  0  0  0  0  0
   -3.0503    0.8298   -0.6760 C   0  0  0  0  0  0  0  0  0  0  0  0
   -2.7349    1.7094   -1.2539 H   0  0  0  0  0  0  0  0  0  0  0  0
    1.2561   -1.4951    1.5811 C   0  0  0  0  0  0  0  0  0  0  0  0
    1.5192   -2.5260    1.9103 H   0  0  0  0  0  0  0  0  0  0  0  0
    1.0981   -0.8720    2.4872 H   0  0  0  0  0  0  0  0  0  0  0  0
   -1.2560   -1.4945    1.5816 C   0  0  0  0  0  0  0  0  0  0  0  0
   -1.0974   -0.8712    2.4874 H   0  0  0  0  0  0  0  0  0  0  0  0
   -1.5193   -2.5252    1.9111 H   0  0  0  0  0  0  0  0  0  0  0  0
   -0.0006   -2.4497   -0.3293 C   0  0  0  0  0  0  0  0  0  0  0  0
   -0.8889   -3.1074   -0.2520 H   0  0  0  0  0  0  0  0  0  0  0  0
    0.8882   -3.1070   -0.2530 H   0  0  0  0  0  0  0  0  0  0  0  0
   -0.0015   -1.8286   -1.7585 C   0  0  0  0  0  0  0  0  0  0  0  0
    2.0724    0.2241    0.0435 N   0  0  0  0  0  2  0  0  0  0  0  0
   -2.0722    0.2249    0.0442 N   0  0  0  0  0  2  0  0  0  0  0  0
   -0.0001   -1.4663    0.7944 N   0  0  0  0  0  0  0  0  0  0  0  0
   -0.0006   -0.5268   -1.7985 O   0  5  0  0  0  0  0  0  0  0  0  0
   -0.0028   -2.6027   -2.7066 O   0  0  0  0  0  0  0  0  0  0  0  0
  1  2  1  0  0  0  0
  1 19  1  1  0  0  0
  2  3  1  0  0  0  0
  4  5  1  0  0  0  0
  4  2  2  0  0  0  0
  6  8  2  0  0  0  0
  6  4  1  0  0  0  0
  7  6  1  0  0  0  0
  8 29  1  0  0  0  0
  9  8  1  0  0  0  0
 10 11  1  0  0  0  0
 10 22  1  1  0  0  0
 11 12  1  0  0  0  0
 13 14  1  0  0  0  0
 13 11  2  0  0  0  0
 15 17  2  0  0  0  0
 15 13  1  0  0  0  0
 16 15  1  0  0  0  0
 17 30  1  0  0  0  0
 18 17  1  0  0  0  0
 19 20  1  0  0  0  0
 19 21  1  0  0  0  0
 22 24  1  0  0  0  0
 22 23  1  0  0  0  0
 25 27  1  0  0  0  0
 25 26  1  0  0  0  0
 25 31  1  0  0  0  0
 28 25  1  0  0  0  0
 29  1  1  0  0  0  0
 30 10  1  0  0  0  0
 31 19  1  0  0  0  0
 31 22  1  0  0  0  0
 32 28  1  0  0  0  0
 33 28  2  0  0  0  0
M  CHG  1  32  -1
M  END
