1,2,3,10
q = -1.0

 35 35  0  0  1  0  0  0  0  0999 V2000
   -0.5542    0.7170   -0.1024 O   0  0  0  0  0  1  0  0  0  0  0  0
    0.9237   -1.5792   -0.0996 N   0  0  0  0  0  2  0  0  0  0  0  0
    3.0805   -0.1283   -0.1904 N   0  0  0  0  0  0  0  0  0  0  0  0
    3.3522   -0.1717   -1.1885 H   0  0  0  0  0  0  0  0  0  0  0  0
   -2.8770    1.8811    0.0008 O   0  0  0  0  0  0  0  0  0  0  0  0
   -1.5122   -1.5210   -0.0082 C   0  0  0  0  0  0  0  0  0  0  0  0
   -1.5889   -0.0868   -0.0329 C   0  0  1  0  0  3  0  0  0  0  0  0
   -0.2489   -2.1773   -0.0428 C   0  0  0  0  0  0  0  0  0  0  0  0
   -0.2544   -3.2843   -0.0123 H   0  0  0  0  0  0  0  0  0  0  0  0
    1.6521    2.1262    0.0348 N   0  0  0  0  0  0  0  0  0  0  0  0
    1.1136    2.7031   -0.6293 H   0  0  0  0  0  0  0  0  0  0  0  0
    1.3255    2.4162    0.9704 H   0  0  0  0  0  0  0  0  0  0  0  0
   -2.8931    0.5269    0.0240 C   0  0  0  0  0  0  0  0  0  0  0  0
   -2.7064   -2.3070    0.0663 C   0  0  0  0  0  0  0  0  0  0  0  0
   -2.6221   -3.4036    0.0847 H   0  0  0  0  0  0  0  0  0  0  0  0
   -4.0355   -0.2737    0.0913 C   0  0  0  0  0  0  0  0  0  0  0  0
   -5.0282    0.1944    0.1301 H   0  0  0  0  0  0  0  0  0  0  0  0
    2.1708   -2.3513   -0.1834 C   0  0  0  0  0  0  0  0  0  0  0  0
    2.3981   -2.5842   -1.2493 H   0  0  0  0  0  0  0  0  0  0  0  0
    2.0935   -3.3203    0.3530 H   0  0  0  0  0  0  0  0  0  0  0  0
    3.2700   -1.4764    0.4077 C   0  0  0  0  0  0  0  0  0  0  0  0
    3.1390   -1.3768    1.5036 H   0  0  0  0  0  0  0  0  0  0  0  0
    4.2867   -1.8776    0.2102 H   0  0  0  0  0  0  0  0  0  0  0  0
   -3.9417   -1.6896    0.1127 C   0  0  0  0  0  0  0  0  0  0  0  0
   -4.8622   -2.2875    0.1680 H   0  0  0  0  0  0  0  0  0  0  0  0
    3.7746    1.0234    0.4409 C   0  0  0  0  0  0  0  0  0  0  0  0
    4.8697    1.0054    0.2540 H   0  0  0  0  0  0  0  0  0  0  0  0
    3.6210    0.9493    1.5371 H   0  0  0  0  0  0  0  0  0  0  0  0
   -4.1225    2.5617    0.0419 C   0  0  0  0  0  0  0  0  0  0  0  0
   -4.7604    2.3029   -0.8320 H   0  0  0  0  0  0  0  0  0  0  0  0
   -3.8893    3.6414    0.0114 H   0  0  0  0  0  0  0  0  0  0  0  0
   -4.6829    2.3369    0.9762 H   0  0  0  0  0  0  0  0  0  0  0  0
    3.1215    2.2864   -0.1136 C   0  0  0  0  0  0  0  0  0  0  0  0
    3.3473    2.3894   -1.1948 H   0  0  0  0  0  0  0  0  0  0  0  0
    3.5079    3.1969    0.3890 H   0  0  0  0  0  0  0  0  0  0  0  0
  2  8  1  0  0  0  0
  3 21  1  0  0  0  0
  3 26  1  0  0  0  0
  4  3  1  0  0  0  0
  5 13  1  0  0  0  0
  5 29  1  0  0  0  0
  6 14  1  0  0  0  0
  7  1  1  1  0  0  0
  7  6  1  0  0  0  0
  7 13  1  0  0  0  0
  8  9  1  0  0  0  0
  8  6  2  0  0  0  0
 10 12  1  0  0  0  0
 11 10  1  0  0  0  0
 13 16  2  0  0  0  0
 14 15  1  0  0  0  0
 14 24  2  0  0  0  0
 16 24  1  0  0  0  0
 16 17  1  0  0  0  0
 18  2  1  0  0  0  0
 18 20  1  0  0  0  0
 18 21  1  0  0  0  0
 19 18  1  0  0  0  0
 21 22  1  0  0  0  0
 23 21  1  0  0  0  0
 24 25  1  0  0  0  0
 26 28  1  0  0  0  0
 27 26  1  0  0  0  0
 29 32  1  0  0  0  0
 30 29  1  0  0  0  0
 31 29  1  0  0  0  0
 33 10  1  0  0  0  0
 33 35  1  0  0  0  0
 33 26  1  0  0  0  0
 34 33  1  0  0  0  0
M  END
