1,5,7,9
q = -1.0, confidence = 0.126

 51 52  0  0  1  0  0  0  0  0999 V2000
   -1.2628    0.5937   -0.2450 O   0  0  0  0  0  1  0  0  0  0  0  0
    2.7924    1.3794    0.6714 O   0  0  0  0  0  0  0  0  0  0  0  0
    3.5223    2.0016    0.8938 H   0  0  0  0  0  0  0  0  0  0  0  0
   -0.1665    2.9308   -0.2856 O   0  0  0  0  0  0  0  0  0  0  0  0
   -1.9413   -3.0727   -0.0075 N   0  0  0  0  0  0  0  0  0  0  0  0
   -2.0057   -3.4282   -0.9776 H   0  0  0  0  0  0  0  0  0  0  0  0
    0.2290   -1.5924   -0.1251 N   0  0  0  0  0  2  0  0  0  0  0  0
    5.3817    1.3856    0.5778 O   0  0  0  0  0  0  0  0  0  0  0  0
   -3.4635   -0.9618    0.0202 N   0  0  0  0  0  2  0  0  0  0  0  0
    1.1762   -0.6925   -0.1679 C   0  0  0  0  0  3  0  0  0  0  0  0
    0.7951    0.3474   -0.1428 H   0  0  0  0  0  0  0  0  0  0  0  0
    2.6182   -0.8509   -0.2291 C   0  0  0  0  0  0  0  0  0  0  0  0
    3.3862    0.2710    0.1896 C   0  0  0  0  0  0  0  0  0  0  0  0
   -3.5141    1.4752    0.0001 C   0  0  0  0  0  0  0  0  0  0  0  0
   -0.7447   -3.6582    0.6403 C   0  0  0  0  0  0  0  0  0  0  0  0
   -0.7387   -4.7676    0.5749 H   0  0  0  0  0  0  0  0  0  0  0  0
   -0.7740   -3.3755    1.7114 H   0  0  0  0  0  0  0  0  0  0  0  0
    4.8084    0.2354    0.1268 C   0  0  0  0  0  0  0  0  0  0  0  0
    0.4706   -3.0377   -0.0386 C   0  0  0  0  0  0  0  0  0  0  0  0
    1.3983   -3.2701    0.5239 H   0  0  0  0  0  0  0  0  0  0  0  0
    0.5930   -3.4591   -1.0623 H   0  0  0  0  0  0  0  0  0  0  0  0
   -3.2541   -3.2648    0.6597 C   0  0  0  0  0  0  0  0  0  0  0  0
   -3.1116   -3.0587    1.7391 H   0  0  0  0  0  0  0  0  0  0  0  0
   -3.6264   -4.3052    0.5466 H   0  0  0  0  0  0  0  0  0  0  0  0
   -1.5166    2.9208   -0.1669 C   0  0  0  0  0  0  0  0  0  0  0  0
   -2.0920    1.5983   -0.1396 C   0  0  1  0  0  3  0  0  0  0  0  0
   -4.1127    0.1840    0.0633 C   0  0  0  0  0  0  0  0  0  0  0  0
   -5.2150    0.1432    0.1661 H   0  0  0  0  0  0  0  0  0  0  0  0
    3.3172   -1.9882   -0.7362 C   0  0  0  0  0  0  0  0  0  0  0  0
    2.7602   -2.8415   -1.1391 H   0  0  0  0  0  0  0  0  0  0  0  0
    5.4654   -0.8964   -0.3611 C   0  0  0  0  0  0  0  0  0  0  0  0
    6.5621   -0.9278   -0.4129 H   0  0  0  0  0  0  0  0  0  0  0  0
   -4.3299    2.6474    0.0928 C   0  0  0  0  0  0  0  0  0  0  0  0
   -5.4189    2.5321    0.1974 H   0  0  0  0  0  0  0  0  0  0  0  0
   -4.1922   -2.2361    0.0421 C   0  0  0  0  0  0  0  0  0  0  0  0
   -4.4561   -2.5354   -0.9986 H   0  0  0  0  0  0  0  0  0  0  0  0
   -5.1430   -2.1608    0.6108 H   0  0  0  0  0  0  0  0  0  0  0  0
   -2.3426    4.0411   -0.0753 C   0  0  0  0  0  0  0  0  0  0  0  0
   -1.9049    5.0484   -0.1009 H   0  0  0  0  0  0  0  0  0  0  0  0
    4.7068   -2.0030   -0.8030 C   0  0  0  0  0  0  0  0  0  0  0  0
    5.2268   -2.8796   -1.2143 H   0  0  0  0  0  0  0  0  0  0  0  0
   -3.7507    3.9022    0.0528 C   0  0  0  0  0  0  0  0  0  0  0  0
   -4.3736    4.8050    0.1228 H   0  0  0  0  0  0  0  0  0  0  0  0
    0.5025    4.1786   -0.2941 C   0  0  0  0  0  0  0  0  0  0  0  0
    0.1993    4.8041   -1.1630 H   0  0  0  0  0  0  0  0  0  0  0  0
    1.5801    3.9456   -0.3722 H   0  0  0  0  0  0  0  0  0  0  0  0
    0.3183    4.7511    0.6424 H   0  0  0  0  0  0  0  0  0  0  0  0
    6.8017    1.4966    0.5653 C   0  0  0  0  0  0  0  0  0  0  0  0
    7.2692    0.7204    1.2085 H   0  0  0  0  0  0  0  0  0  0  0  0
    7.0407    2.4970    0.9673 H   0  0  0  0  0  0  0  0  0  0  0  0
    7.2009    1.4095   -0.4680 H   0  0  0  0  0  0  0  0  0  0  0  0
  2  3  1  0  0  0  0
  4 25  1  0  0  0  0
  5 15  1  0  0  0  0
  5 22  1  0  0  0  0
  6  5  1  0  0  0  0
  7 19  1  0  0  0  0
  9 35  1  0  0  0  0
  9 27  1  0  0  0  0
 10 11  1  0  0  0  0
 10  7  1  0  0  0  0
 12 10  1  0  0  0  0
 12 13  1  0  0  0  0
 13  2  1  0  0  0  0
 14 27  2  0  0  0  0
 14 33  1  0  0  0  0
 15 17  1  0  0  0  0
 16 15  1  0  0  0  0
 18 13  2  0  0  0  0
 18  8  1  0  0  0  0
 19 20  1  0  0  0  0
 19 15  1  0  0  0  0
 21 19  1  0  0  0  0
 22 23  1  0  0  0  0
 24 22  1  0  0  0  0
 25 26  1  0  0  0  0
 25 38  2  0  0  0  0
 26  1  1  1  0  0  0
 26 14  1  0  0  0  0
 27 28  1  0  0  0  0
 29 12  2  0  0  0  0
 30 29  1  0  0  0  0
 31 18  1  0  0  0  0
 32 31  1  0  0  0  0
 33 34  1  0  0  0  0
 35 37  1  0  0  0  0
 35 22  1  0  0  0  0
 36 35  1  0  0  0  0
 38 42  1  0  0  0  0
 39 38  1  0  0  0  0
 40 29  1  0  0  0  0
 40 31  2  0  0  0  0
 41 40  1  0  0  0  0
 42 33  2  0  0  0  0
 42 43  1  0  0  0  0
 44  4  1  0  0  0  0
 44 47  1  0  0  0  0
 45 44  1  0  0  0  0
 46 44  1  0  0  0  0
 48  8  1  0  0  0  0
 48 50  1  0  0  0  0
 48 49  1  0  0  0  0
 51 48  1  0  0  0  0
M  END
