1,2,4,7
q = -1.0, confidence = 0.002

 34 33  0  0  1  0  0  0  0  0999 V2000
    1.0420    1.2079   -0.2288 N   0  0  0  0  0  2  0  0  0  0  0  0
   -1.6182    1.2261   -0.0091 N   0  0  0  0  0  0  0  0  0  0  0  0
   -1.7861    1.3677    1.0123 H   0  0  0  0  0  0  0  0  0  0  0  0
   -1.5159   -1.5910    0.6123 N   0  0  0  0  0  0  0  0  0  0  0  0
   -0.9418   -2.4223    0.3981 H   0  0  0  0  0  0  0  0  0  0  0  0
   -1.6508   -1.5247    1.6332 H   0  0  0  0  0  0  0  0  0  0  0  0
    1.0526   -1.5448    0.4062 O   0  5  0  0  0  0  0  0  0  0  0  0
    3.0670   -2.7374    0.2101 C   0  0  0  0  0  0  0  0  0  0  0  0
    2.9654   -3.1387    1.2391 H   0  0  0  0  0  0  0  0  0  0  0  0
    4.1388   -2.6159   -0.0295 H   0  0  0  0  0  0  0  0  0  0  0  0
    2.6198   -3.4850   -0.4771 H   0  0  0  0  0  0  0  0  0  0  0  0
    2.3001   -1.4420    0.0954 C   0  0  0  0  0  0  0  0  0  0  0  0
    2.9445   -0.2682   -0.3108 C   0  0  0  0  0  0  0  0  0  0  0  0
    4.0190   -0.3296   -0.5237 H   0  0  0  0  0  0  0  0  0  0  0  0
    2.3427    1.0191   -0.3788 C   0  0  2  0  0  3  0  0  0  0  0  0
    3.2502    2.2070   -0.6152 C   0  0  0  0  0  0  0  0  0  0  0  0
    2.9202    2.8042   -1.4901 H   0  0  0  0  0  0  0  0  0  0  0  0
    4.2880    1.8758   -0.7962 H   0  0  0  0  0  0  0  0  0  0  0  0
    3.2551    2.8825    0.2656 H   0  0  0  0  0  0  0  0  0  0  0  0
    0.4366    2.5249   -0.1171 C   0  0  0  0  0  0  0  0  0  0  0  0
    0.4496    2.8573    0.9495 H   0  0  0  0  0  0  0  0  0  0  0  0
    0.9791    3.2962   -0.7016 H   0  0  0  0  0  0  0  0  0  0  0  0
   -0.9924    2.4156   -0.6275 C   0  0  0  0  0  0  0  0  0  0  0  0
   -0.9681    2.2281   -1.7179 H   0  0  0  0  0  0  0  0  0  0  0  0
   -1.5832    3.3341   -0.4170 H   0  0  0  0  0  0  0  0  0  0  0  0
   -2.8955    0.8522   -0.6462 C   0  0  0  0  0  0  0  0  0  0  0  0
   -3.5742    1.7354   -0.6359 H   0  0  0  0  0  0  0  0  0  0  0  0
   -2.6821    0.6122   -1.7079 H   0  0  0  0  0  0  0  0  0  0  0  0
   -3.5750   -0.3223    0.0546 C   0  0  0  0  0  0  0  0  0  0  0  0
   -3.7330   -0.0775    1.1283 H   0  0  0  0  0  0  0  0  0  0  0  0
   -4.5835   -0.4520   -0.3880 H   0  0  0  0  0  0  0  0  0  0  0  0
   -2.8198   -1.6436   -0.0699 C   0  0  0  0  0  0  0  0  0  0  0  0
   -2.6239   -1.8847   -1.1332 H   0  0  0  0  0  0  0  0  0  0  0  0
   -3.4378   -2.4683    0.3486 H   0  0  0  0  0  0  0  0  0  0  0  0
  1 20  1  0  0  0  0
  2  3  1  0  0  0  0
  4  6  1  0  0  0  0
  5  4  1  0  0  0  0
  8  9  1  0  0  0  0
 10  8  1  0  0  0  0
 11  8  1  0  0  0  0
 12  8  1  0  0  0  0
 12  7  1  0  0  0  0
 13 12  2  0  0  0  0
 14 13  1  0  0  0  0
 15 13  1  1  0  0  0
 15  1  1  0  0  0  0
 16 15  1  0  0  0  0
 16 19  1  0  0  0  0
 17 16  1  0  0  0  0
 18 16  1  0  0  0  0
 20 21  1  0  0  0  0
 22 20  1  0  0  0  0
 23 25  1  0  0  0  0
 23 20  1  0  0  0  0
 23  2  1  0  0  0  0
 24 23  1  0  0  0  0
 26 27  1  0  0  0  0
 26  2  1  0  0  0  0
 26 29  1  0  0  0  0
 28 26  1  0  0  0  0
 29 30  1  0  0  0  0
 31 29  1  0  0  0  0
 32 29  1  0  0  0  0
 32 34  1  0  0  0  0
 32  4  1  0  0  0  0
 33 32  1  0  0  0  0
M  CHG  1   7  -1
M  END
