1,2,3,4
q = -1.0

 60 64  0  0  1  0  0  0  0  0999 V2000
   -0.9899   -0.3853   -1.4194 O   0  0  0  0  0  1  0  0  0  0  0  0
   -1.4557    1.9082   -0.0254 N   0  0  0  0  0  2  0  0  0  0  0  0
    1.5802    0.2338   -1.4602 N   0  0  0  0  0  2  0  0  0  0  0  0
    1.1358    2.4197   -0.0558 N   0  0  0  0  0  0  0  0  0  0  0  0
    1.2527   -0.1413    1.4229 N   0  0  0  0  0  0  0  0  0  0  0  0
   -2.7138    1.4164    0.2088 C   0  0  0  0  0  0  0  0  0  0  0  0
   -3.0865    0.0798   -0.2451 C   0  0  0  0  0  0  0  0  0  0  0  0
   -2.2330   -0.6882   -1.1145 C   0  0  2  0  0  3  0  0  0  0  0  0
   -2.7517   -1.8808   -1.7010 C   0  0  0  0  0  0  0  0  0  0  0  0
   -4.0167   -2.3537   -1.3830 C   0  0  0  0  0  0  0  0  0  0  0  0
   -4.8273   -1.6548   -0.4589 C   0  0  0  0  0  0  0  0  0  0  0  0
   -4.3640   -0.4633    0.0833 C   0  0  0  0  0  0  0  0  0  0  0  0
   -3.6506    2.2826    0.8461 C   0  0  0  0  0  0  0  0  0  0  0  0
   -3.3082    3.5749    1.2169 C   0  0  0  0  0  0  0  0  0  0  0  0
   -2.0153    4.0602    0.9290 C   0  0  0  0  0  0  0  0  0  0  0  0
   -1.1304    3.2019    0.2920 C   0  0  0  0  0  0  0  0  0  0  0  0
    0.2387    3.6014   -0.1846 C   0  0  0  0  0  0  0  0  0  0  0  0
    1.7142   -1.0335   -1.9017 C   0  0  0  0  0  3  0  0  0  0  0  0
    2.9526   -1.5290   -2.3215 C   0  0  0  0  0  0  0  0  0  0  0  0
    4.0770   -0.6922   -2.2658 C   0  0  0  0  0  0  0  0  0  0  0  0
    3.9283    0.6232   -1.7980 C   0  0  0  0  0  0  0  0  0  0  0  0
    2.6600    1.0585   -1.4046 C   0  0  0  0  0  0  0  0  0  0  0  0
    2.3232    2.4572   -0.9569 C   0  0  0  0  0  0  0  0  0  0  0  0
    1.5234    2.2343    1.3812 C   0  0  0  0  0  0  0  0  0  0  0  0
    2.1097    0.8692    1.6408 C   0  0  0  0  0  0  0  0  0  0  0  0
    3.4414    0.6767    2.0337 C   0  0  0  0  0  0  0  0  0  0  0  0
    3.8897   -0.6459    2.1981 C   0  0  0  0  0  0  0  0  0  0  0  0
    3.0069   -1.6997    1.9536 C   0  0  0  0  0  0  0  0  0  0  0  0
    1.6747   -1.4165    1.5585 C   0  0  0  0  0  0  0  0  0  0  0  0
    0.6838   -2.4814    1.2815 C   0  0  0  0  0  0  0  0  0  0  0  0
    1.0788   -3.7734    0.8676 C   0  0  0  0  0  0  0  0  0  0  0  0
    0.1176   -4.7591    0.6057 C   0  0  0  0  0  0  0  0  0  0  0  0
   -1.2481   -4.4719    0.7637 C   0  0  0  0  0  0  0  0  0  0  0  0
   -1.6506   -3.1906    1.1756 C   0  0  0  0  0  0  0  0  0  0  0  0
   -0.6933   -2.2016    1.4239 C   0  0  0  0  0  0  0  0  0  0  0  0
   -2.0931   -2.4254   -2.3919 H   0  0  0  0  0  0  0  0  0  0  0  0
   -4.3787   -3.2867   -1.8409 H   0  0  0  0  0  0  0  0  0  0  0  0
   -5.8179   -2.0399   -0.1794 H   0  0  0  0  0  0  0  0  0  0  0  0
   -5.0126    0.0701    0.7909 H   0  0  0  0  0  0  0  0  0  0  0  0
   -4.6701    1.9242    1.0270 H   0  0  0  0  0  0  0  0  0  0  0  0
   -4.0472    4.2203    1.7134 H   0  0  0  0  0  0  0  0  0  0  0  0
   -1.7123    5.0861    1.1795 H   0  0  0  0  0  0  0  0  0  0  0  0
    0.7866   -1.6259   -1.9011 H   0  0  0  0  0  0  0  0  0  0  0  0
    3.0284   -2.5657   -2.6783 H   0  0  0  0  0  0  0  0  0  0  0  0
    5.0649   -1.0595   -2.5801 H   0  0  0  0  0  0  0  0  0  0  0  0
    4.7876    1.3064   -1.7377 H   0  0  0  0  0  0  0  0  0  0  0  0
    4.1090    1.5327    2.2116 H   0  0  0  0  0  0  0  0  0  0  0  0
    4.9220   -0.8487    2.5200 H   0  0  0  0  0  0  0  0  0  0  0  0
    3.3308   -2.7399    2.0955 H   0  0  0  0  0  0  0  0  0  0  0  0
    2.1448   -4.0071    0.7257 H   0  0  0  0  0  0  0  0  0  0  0  0
    0.4366   -5.7591    0.2759 H   0  0  0  0  0  0  0  0  0  0  0  0
   -2.0010   -5.2489    0.5634 H   0  0  0  0  0  0  0  0  0  0  0  0
   -2.7187   -2.9577    1.2971 H   0  0  0  0  0  0  0  0  0  0  0  0
   -0.9971   -1.1945    1.7409 H   0  0  0  0  0  0  0  0  0  0  0  0
    0.6340    4.4834    0.3642 H   0  0  0  0  0  0  0  0  0  0  0  0
    0.1836    3.8676   -1.2610 H   0  0  0  0  0  0  0  0  0  0  0  0
    2.0495    3.0579   -1.8498 H   0  0  0  0  0  0  0  0  0  0  0  0
    3.1865    2.9607   -0.4725 H   0  0  0  0  0  0  0  0  0  0  0  0
    2.2262    3.0455    1.6692 H   0  0  0  0  0  0  0  0  0  0  0  0
    0.5960    2.3474    1.9771 H   0  0  0  0  0  0  0  0  0  0  0  0
  2  6  1  0  0  0  0
  2 16  1  0  0  0  0
  3 22  1  0  0  0  0
  4 24  1  0  0  0  0
  5 29  2  0  0  0  0
  5 25  1  0  0  0  0
  6 13  1  0  0  0  0
  7 12  1  0  0  0  0
  7  6  2  0  0  0  0
  8  1  1  1  0  0  0
  8  7  1  0  0  0  0
  9 10  2  0  0  0  0
  9  8  1  0  0  0  0
 10 11  1  0  0  0  0
 11 38  1  0  0  0  0
 11 12  2  0  0  0  0
 12 39  1  0  0  0  0
 13 40  1  0  0  0  0
 13 14  2  0  0  0  0
 14 41  1  0  0  0  0
 15 42  1  0  0  0  0
 15 14  1  0  0  0  0
 16 15  2  0  0  0  0
 17  4  1  0  0  0  0
 17 16  1  0  0  0  0
 17 55  1  0  0  0  0
 18 43  1  0  0  0  0
 18  3  1  0  0  0  0
 19 20  2  0  0  0  0
 19 18  1  0  0  0  0
 20 21  1  0  0  0  0
 21 46  1  0  0  0  0
 21 22  2  0  0  0  0
 22 23  1  0  0  0  0
 23 58  1  0  0  0  0
 23  4  1  0  0  0  0
 24 25  1  0  0  0  0
 24 59  1  0  0  0  0
 24 60  1  0  0  0  0
 25 26  2  0  0  0  0
 26 27  1  0  0  0  0
 26 47  1  0  0  0  0
 27 48  1  0  0  0  0
 28 49  1  0  0  0  0
 28 27  2  0  0  0  0
 29 28  1  0  0  0  0
 30 35  1  0  0  0  0
 30 29  1  0  0  0  0
 31 30  2  0  0  0  0
 32 33  2  0  0  0  0
 32 31  1  0  0  0  0
 33 34  1  0  0  0  0
 34 53  1  0  0  0  0
 34 35  2  0  0  0  0
 35 54  1  0  0  0  0
 36  9  1  0  0  0  0
 37 10  1  0  0  0  0
 44 19  1  0  0  0  0
 45 20  1  0  0  0  0
 50 31  1  0  0  0  0
 51 32  1  0  0  0  0
 52 33  1  0  0  0  0
 56 17  1  0  0  0  0
 57 23  1  0  0  0  0
M  END
