1,6,12,15
q = -1.0

 39 39  0  0  1  0  0  0  0  0999 V2000
    0.7863    1.8651    0.0393 O   0  0  0  0  0  1  0  0  0  0  0  0
    2.0289    2.2294   -0.0840 C   0  0  2  0  0  3  0  0  0  0  0  0
    3.0995    1.3383   -0.2120 C   0  0  0  0  0  0  0  0  0  0  0  0
    4.1068    1.7614   -0.3084 H   0  0  0  0  0  0  0  0  0  0  0  0
    2.9826   -0.0752   -0.1843 C   0  0  0  0  0  0  0  0  0  0  0  0
    1.7955   -0.6838   -0.1145 N   0  0  0  0  0  2  0  0  0  0  0  0
    1.6699   -2.1380    0.1181 C   0  0  2  0  0  0  0  0  0  0  0  0
    2.5064   -2.6753   -0.3743 H   0  0  0  0  0  0  0  0  0  0  0  0
    0.3577   -2.5594   -0.5563 C   0  0  0  0  0  0  0  0  0  0  0  0
    0.4958   -2.6210   -1.6573 H   0  0  0  0  0  0  0  0  0  0  0  0
    0.0102   -3.5493   -0.1973 H   0  0  0  0  0  0  0  0  0  0  0  0
   -0.6045   -1.4986   -0.2826 N   0  0  0  0  0  2  0  0  0  0  0  0
   -1.9142   -1.5992   -0.2539 C   0  0  0  0  0  0  0  0  0  0  0  0
   -2.5579   -0.2970   -0.0499 C   0  0  0  0  0  0  0  0  0  0  0  0
   -1.6525    0.7330    0.0289 N   0  0  0  0  0  2  0  0  0  0  0  0
   -2.0836    1.9959    0.1971 C   0  0  0  0  0  0  0  0  0  0  0  0
   -1.2907    2.7582    0.2481 H   0  0  0  0  0  0  0  0  0  0  0  0
   -3.4480    2.2984    0.2964 C   0  0  0  0  0  0  0  0  0  0  0  0
   -3.7625    3.3425    0.4335 H   0  0  0  0  0  0  0  0  0  0  0  0
   -4.3881    1.2586    0.2173 C   0  0  0  0  0  0  0  0  0  0  0  0
   -5.4646    1.4706    0.2919 H   0  0  0  0  0  0  0  0  0  0  0  0
   -3.9377   -0.0572    0.0404 C   0  0  0  0  0  0  0  0  0  0  0  0
   -4.6484   -0.8925   -0.0286 H   0  0  0  0  0  0  0  0  0  0  0  0
    2.2471    3.7180   -0.0716 C   0  0  0  0  0  0  0  0  0  0  0  0
    1.6774    4.1872   -0.8998 H   0  0  0  0  0  0  0  0  0  0  0  0
    3.3143    3.9832   -0.1721 H   0  0  0  0  0  0  0  0  0  0  0  0
    1.8550    4.1454    0.8739 H   0  0  0  0  0  0  0  0  0  0  0  0
    4.2523   -0.8927   -0.2353 C   0  0  0  0  0  0  0  0  0  0  0  0
    4.2457   -1.5913   -1.0971 H   0  0  0  0  0  0  0  0  0  0  0  0
    4.3817   -1.5022    0.6819 H   0  0  0  0  0  0  0  0  0  0  0  0
    5.1340   -0.2364   -0.3340 H   0  0  0  0  0  0  0  0  0  0  0  0
    1.6707   -2.4602    1.6176 C   0  0  0  0  0  0  0  0  0  0  0  0
    2.5901   -2.0858    2.1069 H   0  0  0  0  0  0  0  0  0  0  0  0
    1.6152   -3.5543    1.7839 H   0  0  0  0  0  0  0  0  0  0  0  0
    0.8040   -1.9805    2.1162 H   0  0  0  0  0  0  0  0  0  0  0  0
   -2.6992   -2.8547   -0.4470 C   0  0  0  0  0  0  0  0  0  0  0  0
   -2.0569   -3.7498   -0.5139 H   0  0  0  0  0  0  0  0  0  0  0  0
   -3.2999   -2.7943   -1.3791 H   0  0  0  0  0  0  0  0  0  0  0  0
   -3.4138   -3.0006    0.3886 H   0  0  0  0  0  0  0  0  0  0  0  0
  2 24  1  0  0  0  0
  2  1  1  1  0  0  0
  3  5  2  0  0  0  0
  3  2  1  0  0  0  0
  4  3  1  0  0  0  0
  5  6  1  0  0  0  0
  6  7  1  0  0  0  0
  7  8  1  6  0  0  0
  7 32  1  0  0  0  0
  9 12  1  0  0  0  0
  9 11  1  0  0  0  0
  9  7  1  0  0  0  0
 10  9  1  0  0  0  0
 12 13  1  0  0  0  0
 13 14  2  0  0  0  0
 14 15  1  0  0  0  0
 14 22  1  0  0  0  0
 15 16  1  0  0  0  0
 16 17  1  0  0  0  0
 16 18  2  0  0  0  0
 18 19  1  0  0  0  0
 20 21  1  0  0  0  0
 20 18  1  0  0  0  0
 22 20  2  0  0  0  0
 23 22  1  0  0  0  0
 24 27  1  0  0  0  0
 25 24  1  0  0  0  0
 26 24  1  0  0  0  0
 28  5  1  0  0  0  0
 28 30  1  0  0  0  0
 29 28  1  0  0  0  0
 31 28  1  0  0  0  0
 32 34  1  0  0  0  0
 32 33  1  0  0  0  0
 32 35  1  0  0  0  0
 36 13  1  0  0  0  0
 36 39  1  0  0  0  0
 37 36  1  0  0  0  0
 38 36  1  0  0  0  0
M  END
