2,3,4,6
q = 0.0, confidence = 0.942

 40 44  0  0  1  0  0  0  0  0999 V2000
    2.4203    1.2837   -1.7898 N   0  0  0  0  0  0  0  0  0  0  0  0
    1.9981   -0.7752   -0.8485 N   0  0  0  0  0  2  0  0  0  0  0  0
   -0.0290   -2.1540   -0.2888 N   0  0  0  0  0  2  0  0  0  0  0  0
   -1.9782   -0.6467   -0.9795 N   0  0  0  0  0  2  0  0  0  0  0  0
   -2.4952    1.4507   -1.8122 N   0  0  0  0  0  0  0  0  0  0  0  0
    1.1373    1.5048   -1.7755 O   0  0  0  0  0  1  0  0  0  0  0  0
    2.9359    0.0871   -1.2884 C   0  0  1  0  0  3  0  0  0  0  0  0
    3.2890    2.2139   -2.2714 C   0  0  0  0  0  3  0  0  0  0  0  0
    4.6750    1.9819   -2.2539 C   0  0  0  0  0  0  0  0  0  0  0  0
    5.2137    0.7992   -1.7506 C   0  0  0  0  0  0  0  0  0  0  0  0
    4.3277   -0.1926   -1.2515 C   0  0  0  0  0  0  0  0  0  0  0  0
    4.6897   -1.4655   -0.7045 C   0  0  0  0  0  0  0  0  0  0  0  0
    3.7112   -2.3571   -0.2808 C   0  0  0  0  0  0  0  0  0  0  0  0
    2.3394   -2.0113   -0.3726 C   0  0  0  0  0  0  0  0  0  0  0  0
    1.1638   -2.8218   -0.0443 C   0  0  2  0  0  3  0  0  0  0  0  0
    1.1198   -4.1361    0.4388 C   0  0  0  0  0  0  0  0  0  0  0  0
   -0.1248   -4.7650    0.6259 C   0  0  0  0  0  0  0  0  0  0  0  0
   -1.3122   -4.0879    0.3117 C   0  0  0  0  0  0  0  0  0  0  0  0
   -1.2471   -2.7637   -0.1563 C   0  0  0  0  0  0  0  0  0  0  0  0
   -2.3526   -1.8830   -0.5490 C   0  0  0  0  0  0  0  0  0  0  0  0
   -3.7165   -2.2764   -0.4907 C   0  0  0  0  0  0  0  0  0  0  0  0
   -4.7014   -1.3992   -0.9006 C   0  0  0  0  0  0  0  0  0  0  0  0
   -4.3322   -0.1098   -1.3768 C   0  0  0  0  0  0  0  0  0  0  0  0
   -5.2605    0.8619   -1.8394 C   0  0  0  0  0  3  0  0  0  0  0  0
   -4.7896    2.0894   -2.2790 C   0  0  0  0  0  0  0  0  0  0  0  0
   -3.3902    2.3337   -2.2359 C   0  0  0  0  0  0  0  0  0  0  0  0
   -2.9377    0.2430   -1.3961 C   0  0  0  0  0  0  0  0  0  0  0  0
    2.8117    3.1237   -2.6570 H   0  0  0  0  0  0  0  0  0  0  0  0
    5.3267    2.7704   -2.6555 H   0  0  0  0  0  0  0  0  0  0  0  0
    6.2991    0.6271   -1.7422 H   0  0  0  0  0  0  0  0  0  0  0  0
    5.7534   -1.7343   -0.6385 H   0  0  0  0  0  0  0  0  0  0  0  0
    3.9966   -3.3403    0.1178 H   0  0  0  0  0  0  0  0  0  0  0  0
    2.0546   -4.6729    0.6506 H   0  0  0  0  0  0  0  0  0  0  0  0
   -0.1643   -5.7986    0.9967 H   0  0  0  0  0  0  0  0  0  0  0  0
   -2.2838   -4.5871    0.4244 H   0  0  0  0  0  0  0  0  0  0  0  0
   -3.9756   -3.2784   -0.1250 H   0  0  0  0  0  0  0  0  0  0  0  0
   -5.7633   -1.6858   -0.8695 H   0  0  0  0  0  0  0  0  0  0  0  0
   -6.3355    0.6245   -1.8444 H   0  0  0  0  0  0  0  0  0  0  0  0
   -5.4730    2.8662   -2.6505 H   0  0  0  0  0  0  0  0  0  0  0  0
   -2.9953    3.3113   -2.5651 H   0  0  0  0  0  0  0  0  0  0  0  0
  1  6  1  0  0  0  0
  1  7  1  0  0  0  0
  2 14  1  0  0  0  0
  3 19  1  0  0  0  0
  3 15  1  0  0  0  0
  4 20  1  0  0  0  0
  5 27  2  0  0  0  0
  7 11  1  6  0  0  0
  7  2  1  0  0  0  0
  8  9  1  0  0  0  0
  8  1  1  0  0  0  0
  9 10  2  0  0  0  0
 10 30  1  0  0  0  0
 10 11  1  0  0  0  0
 11 12  2  0  0  0  0
 12 31  1  0  0  0  0
 12 13  1  0  0  0  0
 13 32  1  0  0  0  0
 14 13  2  0  0  0  0
 15 14  1  6  0  0  0
 15 16  1  0  0  0  0
 16 17  2  0  0  0  0
 16 33  1  0  0  0  0
 17 34  1  0  0  0  0
 18 35  1  0  0  0  0
 18 17  1  0  0  0  0
 19 18  2  0  0  0  0
 20 21  2  0  0  0  0
 20 19  1  0  0  0  0
 21 36  1  0  0  0  0
 22 37  1  0  0  0  0
 22 21  1  0  0  0  0
 23 22  2  0  0  0  0
 24 23  1  0  0  0  0
 25 26  2  0  0  0  0
 25 24  1  0  0  0  0
 26  5  1  0  0  0  0
 27 23  1  0  0  0  0
 27  4  1  0  0  0  0
 28  8  1  0  0  0  0
 29  9  1  0  0  0  0
 38 24  1  0  0  0  0
 39 25  1  0  0  0  0
 40 26  1  0  0  0  0
M  END
