1,2,3,4
q = -1.0, confidence = 0.222

 34 34  0  0  0  0  0  0  0  0999 V2000
   -1.3022   -1.2593   -0.0130 O   0  5  0  0  0  0  0  0  0  0  0  0
    1.1760   -2.3091    0.6223 N   0  0  0  0  0  0  0  0  0  0  0  0
    1.6508    0.2991    1.6520 N   0  0  0  0  0  0  0  0  0  0  0  0
   -0.4368    1.5056   -0.0775 N   0  0  0  0  0  2  0  0  0  0  0  0
    1.8279   -2.1356    1.9189 C   0  0  0  0  0  0  0  0  0  0  0  0
    2.5793   -0.8002    1.9346 C   0  0  0  0  0  0  0  0  0  0  0  0
    2.3072    1.5936    1.3995 C   0  0  0  0  0  0  0  0  0  0  0  0
    1.3088    2.7342    1.1933 C   0  0  0  0  0  0  0  0  0  0  0  0
    0.4554    2.6516   -0.0837 C   0  0  0  0  0  0  0  0  0  0  0  0
   -1.7267    1.6948   -0.0799 C   0  0  0  0  0  3  0  0  0  0  0  0
   -2.7585    0.6915   -0.0589 C   0  0  0  0  0  0  0  0  0  0  0  0
   -4.1060    1.1538   -0.0629 C   0  0  0  0  0  0  0  0  0  0  0  0
   -5.1871    0.2827   -0.0313 C   0  0  0  0  0  0  0  0  0  0  0  0
   -4.9326   -1.1106    0.0062 C   0  0  0  0  0  0  0  0  0  0  0  0
   -3.6333   -1.6022    0.0095 C   0  0  0  0  0  0  0  0  0  0  0  0
   -2.4887   -0.7376   -0.0232 C   0  0  0  0  0  0  0  0  0  0  0  0
    1.8192   -2.6399   -0.1085 H   0  0  0  0  0  0  0  0  0  0  0  0
    0.3391   -2.9029    0.6454 H   0  0  0  0  0  0  0  0  0  0  0  0
    1.0403   -2.1266    2.7028 H   0  0  0  0  0  0  0  0  0  0  0  0
    2.5303   -2.9580    2.1839 H   0  0  0  0  0  0  0  0  0  0  0  0
    3.3363   -0.7986    1.1211 H   0  0  0  0  0  0  0  0  0  0  0  0
    3.1220   -0.6686    2.9002 H   0  0  0  0  0  0  0  0  0  0  0  0
    2.9232    1.4636    0.4833 H   0  0  0  0  0  0  0  0  0  0  0  0
    2.9987    1.8551    2.2366 H   0  0  0  0  0  0  0  0  0  0  0  0
    1.8873    3.6808    1.1566 H   0  0  0  0  0  0  0  0  0  0  0  0
    0.6382    2.8178    2.0788 H   0  0  0  0  0  0  0  0  0  0  0  0
    1.1329    2.5491   -0.9607 H   0  0  0  0  0  0  0  0  0  0  0  0
   -0.1204    3.5997   -0.2015 H   0  0  0  0  0  0  0  0  0  0  0  0
   -2.0939    2.7488   -0.1021 H   0  0  0  0  0  0  0  0  0  0  0  0
    0.9833    0.4010    2.4308 H   0  0  0  0  0  0  0  0  0  0  0  0
   -4.2770    2.2431   -0.0924 H   0  0  0  0  0  0  0  0  0  0  0  0
   -6.2180    0.6646   -0.0364 H   0  0  0  0  0  0  0  0  0  0  0  0
   -5.7776   -1.8175    0.0303 H   0  0  0  0  0  0  0  0  0  0  0  0
   -3.4310   -2.6835    0.0334 H   0  0  0  0  0  0  0  0  0  0  0  0
  2 18  1  0  0  0  0
  2  5  1  0  0  0  0
  3  6  1  0  0  0  0
  3 30  1  0  0  0  0
  5  6  1  0  0  0  0
  5 20  1  0  0  0  0
  5 19  1  0  0  0  0
  6 22  1  0  0  0  0
  7  3  1  0  0  0  0
  7 24  1  0  0  0  0
  8  7  1  0  0  0  0
  8 26  1  0  0  0  0
  9  4  1  0  0  0  0
  9  8  1  0  0  0  0
 10  4  1  0  0  0  0
 10 11  1  0  0  0  0
 11 16  1  0  0  0  0
 12 11  2  0  0  0  0
 12 13  1  0  0  0  0
 13 14  2  0  0  0  0
 14 15  1  0  0  0  0
 14 33  1  0  0  0  0
 15 34  1  0  0  0  0
 16  1  1  0  0  0  0
 16 15  2  0  0  0  0
 17  2  1  0  0  0  0
 21  6  1  0  0  0  0
 23  7  1  0  0  0  0
 25  8  1  0  0  0  0
 27  9  1  0  0  0  0
 28  9  1  0  0  0  0
 29 10  1  0  0  0  0
 31 12  1  0  0  0  0
 32 13  1  0  0  0  0
M  CHG  1   1  -1
M  END
