1,5,6,7
q = -2.0, confidence = 0.848

 74 77  0  0  1  0  0  0  0  0999 V2000
    0.7045   -1.7948    1.0192 O   0  5  0  0  0  0  0  0  0  0  0  0
   -1.0707   -2.6949    2.0796 O   0  0  0  0  0  0  0  0  0  0  0  0
    3.3321    1.5407   -2.7493 O   0  0  0  0  0  0  0  0  0  0  0  0
   -2.3710   -1.0031   -1.9440 O   0  0  0  0  0  0  0  0  0  0  0  0
   -0.6603    0.0430   -0.0740 N   0  0  0  0  0  2  0  0  0  0  0  0
    1.6014    1.0847   -1.2107 N   0  0  0  0  0  2  0  0  0  0  0  0
    3.0440   -0.6880    0.0399 N   0  0  0  0  0  0  0  0  0  0  0  0
   -0.5810   -1.9713    1.2198 C   0  0  0  0  0  0  0  0  0  0  0  0
   -1.4229   -1.1769    0.2003 C   0  0  2  0  0  0  0  0  0  0  0  0
   -1.2107    1.2217   -0.2418 C   0  0  0  0  0  0  0  0  0  0  0  0
   -0.4573    2.3669   -0.7499 C   0  0  0  0  0  0  0  0  0  0  0  0
   -1.1031    3.6341   -0.7453 C   0  0  0  0  0  0  0  0  0  0  0  0
   -0.5258    4.7672   -1.3104 C   0  0  0  0  0  0  0  0  0  0  0  0
    0.7323    4.6453   -1.9272 C   0  0  0  0  0  0  0  0  0  0  0  0
    1.4069    3.4250   -1.9423 C   0  0  0  0  0  0  0  0  0  0  0  0
    0.8659    2.2611   -1.3231 C   0  0  1  0  0  3  0  0  0  0  0  0
    2.8089    0.8685   -1.8599 C   0  0  0  0  0  0  0  0  0  0  0  0
    3.5001   -0.3988   -1.3473 C   0  0  2  0  0  0  0  0  0  0  0  0
    3.1630   -1.6922   -2.1308 C   0  0  0  0  0  0  0  0  0  0  0  0
    2.9646   -2.7863   -1.0466 C   0  0  0  0  0  0  0  0  0  0  0  0
    3.3748   -2.1166    0.2658 C   0  0  0  0  0  0  0  0  0  0  0  0
    3.5875    0.2538    1.0693 C   0  0  0  0  0  0  0  0  0  0  0  0
    2.5973    0.4899    2.1879 C   0  0  0  0  0  0  0  0  0  0  0  0
    2.4464   -0.4315    3.2404 C   0  0  0  0  0  0  0  0  0  0  0  0
    1.4329   -0.2635    4.1948 C   0  0  0  0  0  0  0  0  0  0  0  0
    0.5695    0.8400    4.1176 C   0  0  0  0  0  0  0  0  0  0  0  0
    0.7334    1.7850    3.0909 C   0  0  0  0  0  0  0  0  0  0  0  0
    1.7400    1.6094    2.1316 C   0  0  0  0  0  0  0  0  0  0  0  0
   -1.6125   -1.9165   -1.1543 C   0  0  1  0  0  0  0  0  0  0  0  0
   -2.2803   -3.3317   -1.0937 C   0  0  0  0  0  0  0  0  0  0  0  0
   -2.7370   -3.6876   -2.5243 C   0  0  0  0  0  0  0  0  0  0  0  0
   -1.2589   -4.3960   -0.6471 C   0  0  0  0  0  0  0  0  0  0  0  0
   -3.4997   -3.3179   -0.1554 C   0  0  0  0  0  0  0  0  0  0  0  0
   -2.6469    1.4144    0.1429 C   0  0  0  0  0  0  0  0  0  0  0  0
   -2.9843    1.4220    1.5122 C   0  0  0  0  0  0  0  0  0  0  0  0
   -4.3176    1.6010    1.9100 C   0  0  0  0  0  0  0  0  0  0  0  0
   -5.3225    1.7690    0.9447 C   0  0  0  0  0  0  0  0  0  0  0  0
   -4.9897    1.7589   -0.4199 C   0  0  0  0  0  0  0  0  0  0  0  0
   -3.6583    1.5840   -0.8217 C   0  0  0  0  0  0  0  0  0  0  0  0
   -2.2313   -1.2377   -2.8776 H   0  0  0  0  0  0  0  0  0  0  0  0
   -2.4234   -0.9531    0.6129 H   0  0  0  0  0  0  0  0  0  0  0  0
   -2.0950    3.7081   -0.2796 H   0  0  0  0  0  0  0  0  0  0  0  0
   -1.0529    5.7319   -1.2825 H   0  0  0  0  0  0  0  0  0  0  0  0
    1.2046    5.5197   -2.4014 H   0  0  0  0  0  0  0  0  0  0  0  0
    2.3809    3.3342   -2.4338 H   0  0  0  0  0  0  0  0  0  0  0  0
    4.5973   -0.2119   -1.3607 H   0  0  0  0  0  0  0  0  0  0  0  0
    3.9786   -1.9303   -2.8393 H   0  0  0  0  0  0  0  0  0  0  0  0
    2.2413   -1.5518   -2.7285 H   0  0  0  0  0  0  0  0  0  0  0  0
    1.9019   -3.0891   -0.9785 H   0  0  0  0  0  0  0  0  0  0  0  0
    3.5631   -3.6965   -1.2423 H   0  0  0  0  0  0  0  0  0  0  0  0
    2.8211   -2.4959    1.1431 H   0  0  0  0  0  0  0  0  0  0  0  0
    4.4722   -2.1942    0.4437 H   0  0  0  0  0  0  0  0  0  0  0  0
    3.8013    1.2121    0.5585 H   0  0  0  0  0  0  0  0  0  0  0  0
    4.5512   -0.1524    1.4485 H   0  0  0  0  0  0  0  0  0  0  0  0
    3.1119   -1.3063    3.3001 H   0  0  0  0  0  0  0  0  0  0  0  0
    1.3083   -1.0064    4.9963 H   0  0  0  0  0  0  0  0  0  0  0  0
   -0.2294    0.9667    4.8640 H   0  0  0  0  0  0  0  0  0  0  0  0
    0.0707    2.6616    3.0291 H   0  0  0  0  0  0  0  0  0  0  0  0
    1.8565    2.3450    1.3213 H   0  0  0  0  0  0  0  0  0  0  0  0
   -0.5900   -2.0419   -1.5908 H   0  0  0  0  0  0  0  0  0  0  0  0
   -1.8889   -3.6579   -3.2436 H   0  0  0  0  0  0  0  0  0  0  0  0
   -3.1457   -4.7178   -2.5457 H   0  0  0  0  0  0  0  0  0  0  0  0
   -3.5323   -3.0045   -2.8824 H   0  0  0  0  0  0  0  0  0  0  0  0
   -0.3500   -4.3689   -1.2853 H   0  0  0  0  0  0  0  0  0  0  0  0
   -1.7042   -5.4071   -0.7485 H   0  0  0  0  0  0  0  0  0  0  0  0
   -0.9552   -4.2729    0.4077 H   0  0  0  0  0  0  0  0  0  0  0  0
   -3.1831   -3.1914    0.8988 H   0  0  0  0  0  0  0  0  0  0  0  0
   -4.0599   -4.2723   -0.2330 H   0  0  0  0  0  0  0  0  0  0  0  0
   -4.1902   -2.4932   -0.4273 H   0  0  0  0  0  0  0  0  0  0  0  0
   -2.1911    1.2807    2.2628 H   0  0  0  0  0  0  0  0  0  0  0  0
   -4.5718    1.6048    2.9807 H   0  0  0  0  0  0  0  0  0  0  0  0
   -6.3692    1.9053    1.2562 H   0  0  0  0  0  0  0  0  0  0  0  0
   -5.7763    1.8832   -1.1796 H   0  0  0  0  0  0  0  0  0  0  0  0
   -3.3916    1.5583   -1.8869 H   0  0  0  0  0  0  0  0  0  0  0  0
  1  8  1  0  0  0  0
  3 17  2  0  0  0  0
  4 29  1  0  0  0  0
  5  9  1  0  0  0  0
  7 21  1  0  0  0  0
  7 22  1  0  0  0  0
  8  2  2  0  0  0  0
  9 41  1  1  0  0  0
  9  8  1  0  0  0  0
 10  5  1  0  0  0  0
 10 34  1  0  0  0  0
 11 12  1  0  0  0  0
 11 10  2  0  0  0  0
 12 42  1  0  0  0  0
 13 43  1  0  0  0  0
 13 12  2  0  0  0  0
 14 13  1  0  0  0  0
 15 14  2  0  0  0  0
 15 16  1  0  0  0  0
 16  6  1  1  0  0  0
 16 11  1  0  0  0  0
 17 18  1  0  0  0  0
 17  6  1  0  0  0  0
 18 46  1  6  0  0  0
 18  7  1  0  0  0  0
 19 18  1  0  0  0  0
 19 20  1  0  0  0  0
 20 49  1  0  0  0  0
 20 21  1  0  0  0  0
 21 52  1  0  0  0  0
 21 51  1  0  0  0  0
 22 54  1  0  0  0  0
 22 23  1  0  0  0  0
 23 24  1  0  0  0  0
 24 55  1  0  0  0  0
 24 25  2  0  0  0  0
 25 56  1  0  0  0  0
 26 25  1  0  0  0  0
 26 57  1  0  0  0  0
 27 26  2  0  0  0  0
 28 23  2  0  0  0  0
 28 27  1  0  0  0  0
 29 60  1  6  0  0  0
 29 30  1  0  0  0  0
 29  9  1  0  0  0  0
 30 32  1  0  0  0  0
 30 33  1  0  0  0  0
 31 30  1  0  0  0  0
 32 66  1  0  0  0  0
 33 67  1  0  0  0  0
 34 35  1  0  0  0  0
 35 36  2  0  0  0  0
 35 70  1  0  0  0  0
 36 71  1  0  0  0  0
 37 72  1  0  0  0  0
 37 36  1  0  0  0  0
 38 37  2  0  0  0  0
 39 38  1  0  0  0  0
 39 34  2  0  0  0  0
 40  4  1  0  0  0  0
 44 14  1  0  0  0  0
 45 15  1  0  0  0  0
 47 19  1  0  0  0  0
 48 19  1  0  0  0  0
 50 20  1  0  0  0  0
 53 22  1  0  0  0  0
 58 27  1  0  0  0  0
 59 28  1  0  0  0  0
 61 31  1  0  0  0  0
 62 31  1  0  0  0  0
 63 31  1  0  0  0  0
 64 32  1  0  0  0  0
 65 32  1  0  0  0  0
 68 33  1  0  0  0  0
 69 33  1  0  0  0  0
 73 38  1  0  0  0  0
 74 39  1  0  0  0  0
M  CHG  1   1  -1
M  END
