6,8,10,19
q = -2.0, confidence = 0.874

 71 75  0  0  1  0  0  0  0  0999 V2000
   -0.4276    3.3158    0.0852 C   0  0  0  0  0  0  0  0  0  0  0  0
    4.9203   -0.1241    1.4368 Cl  0  0  0  0  0  0  0  0  0  0  0  0
    4.7149    3.0322   -1.0081 Cl  0  0  0  0  0  0  0  0  0  0  0  0
   -0.7806    6.1063    0.2464 C   0  0  0  0  0  0  0  0  0  0  0  0
   -3.6034   -0.5720    3.5074 O   0  5  0  0  0  0  0  0  0  0  0  0
   -2.1733   -1.0591    1.8648 O   0  0  0  0  0  0  0  0  0  0  0  0
   -0.5792    4.0830   -1.0882 C   0  0  0  0  0  0  0  0  0  0  0  0
   -1.1436   -2.8157    0.1953 N   0  0  0  0  0  0  0  0  0  0  0  0
    4.7489   -2.7087   -0.4194 Cl  0  0  0  0  0  0  0  0  0  0  0  0
   -1.1810    1.0061    0.3489 N   0  0  0  0  0  2  0  0  0  0  0  0
   -0.2234    1.8338   -0.0095 C   0  0  0  0  0  0  0  0  0  0  0  0
   -0.7658    5.4699   -1.0054 C   0  0  0  0  0  0  0  0  0  0  0  0
   -0.8938    6.0590   -1.9259 H   0  0  0  0  0  0  0  0  0  0  0  0
   -0.6101    5.3510    1.4173 C   0  0  0  0  0  0  0  0  0  0  0  0
   -0.6097    5.8464    2.3998 H   0  0  0  0  0  0  0  0  0  0  0  0
   -0.4371    3.9612    1.3392 C   0  0  0  0  0  0  0  0  0  0  0  0
    1.0494    1.3661   -0.5428 C   0  0  0  0  0  0  0  0  0  0  0  0
    1.2037    0.0626   -1.1333 C   0  0  2  0  0  3  0  0  0  0  0  0
    0.1902   -0.8816   -1.0403 N   0  0  0  0  0  2  0  0  0  0  0  0
    0.2327   -2.0754   -1.7426 C   0  0  0  0  0  0  0  0  0  0  0  0
   -0.7949   -3.0767   -1.2296 C   0  0  2  0  0  0  0  0  0  0  0  0
   -0.3465   -4.0896   -1.3276 H   0  0  0  0  0  0  0  0  0  0  0  0
   -0.1981   -3.3735    1.2052 C   0  0  0  0  0  0  0  0  0  0  0  0
   -0.7304   -3.3100    2.1734 H   0  0  0  0  0  0  0  0  0  0  0  0
   -0.0211   -4.4475    0.9702 H   0  0  0  0  0  0  0  0  0  0  0  0
    1.1068   -2.6193    1.3013 C   0  0  0  0  0  0  0  0  0  0  0  0
    1.1945   -1.4771    2.1257 C   0  0  0  0  0  0  0  0  0  0  0  0
    0.3292   -1.1846    2.7387 H   0  0  0  0  0  0  0  0  0  0  0  0
    2.3699   -0.7207    2.1687 C   0  0  0  0  0  0  0  0  0  0  0  0
    2.4455    0.1729    2.8035 H   0  0  0  0  0  0  0  0  0  0  0  0
    3.4817   -1.0904    1.3921 C   0  0  0  0  0  0  0  0  0  0  0  0
    3.4060   -2.2374    0.5743 C   0  0  0  0  0  0  0  0  0  0  0  0
    2.2226   -2.9956    0.5388 C   0  0  0  0  0  0  0  0  0  0  0  0
    2.1855   -3.8731   -0.1226 H   0  0  0  0  0  0  0  0  0  0  0  0
   -2.5058   -3.3960    0.3653 C   0  0  0  0  0  0  0  0  0  0  0  0
   -2.9430   -3.0119    1.3049 H   0  0  0  0  0  0  0  0  0  0  0  0
   -2.4021   -4.5045    0.4235 H   0  0  0  0  0  0  0  0  0  0  0  0
   -3.2345   -2.9687   -0.9008 C   0  0  0  0  0  0  0  0  0  0  0  0
   -4.0981   -3.6239   -1.1239 H   0  0  0  0  0  0  0  0  0  0  0  0
   -3.6230   -1.9407   -0.7742 H   0  0  0  0  0  0  0  0  0  0  0  0
   -2.1467   -3.0111   -1.9973 C   0  0  0  0  0  0  0  0  0  0  0  0
   -2.1932   -2.1142   -2.6441 H   0  0  0  0  0  0  0  0  0  0  0  0
   -2.2417   -3.8952   -2.6558 H   0  0  0  0  0  0  0  0  0  0  0  0
    0.9562   -2.3690   -2.6947 O   0  0  0  0  0  0  0  0  0  0  0  0
    2.4538   -0.2178   -1.7601 C   0  0  0  0  0  0  0  0  0  0  0  0
    2.5757   -1.1819   -2.2624 H   0  0  0  0  0  0  0  0  0  0  0  0
    3.5172    0.6779   -1.7247 C   0  0  0  0  0  0  0  0  0  0  0  0
    4.4825    0.4012   -2.1708 H   0  0  0  0  0  0  0  0  0  0  0  0
    3.3674    1.9269   -1.0922 C   0  0  0  0  0  0  0  0  0  0  0  0
    2.1435    2.2730   -0.5326 C   0  0  0  0  0  0  0  0  0  0  0  0
    2.0257    3.2568   -0.0609 H   0  0  0  0  0  0  0  0  0  0  0  0
   -2.5314    1.4997    0.6780 C   0  0  1  0  0  0  0  0  0  0  0  0
   -2.5534    2.5967    0.5021 H   0  0  0  0  0  0  0  0  0  0  0  0
   -3.5376    0.8789   -0.2901 C   0  0  0  0  0  0  0  0  0  0  0  0
   -3.2145    0.7954   -1.6618 C   0  0  0  0  0  0  0  0  0  0  0  0
   -2.2205    1.1174   -2.0063 H   0  0  0  0  0  0  0  0  0  0  0  0
   -4.1355    0.2878   -2.5879 C   0  0  0  0  0  0  0  0  0  0  0  0
   -3.8622    0.2297   -3.6525 H   0  0  0  0  0  0  0  0  0  0  0  0
   -5.3999   -0.1492   -2.1581 C   0  0  0  0  0  0  0  0  0  0  0  0
   -6.1235   -0.5520   -2.8827 H   0  0  0  0  0  0  0  0  0  0  0  0
   -5.7289   -0.0740   -0.7969 C   0  0  0  0  0  0  0  0  0  0  0  0
   -6.7120   -0.4228   -0.4460 H   0  0  0  0  0  0  0  0  0  0  0  0
   -4.8060    0.4352    0.1317 C   0  0  0  0  0  0  0  0  0  0  0  0
   -5.0801    0.4634    1.1957 H   0  0  0  0  0  0  0  0  0  0  0  0
   -2.8200    1.2573    2.1586 C   0  0  0  0  0  0  0  0  0  0  0  0
   -2.0099    1.7285    2.7538 H   0  0  0  0  0  0  0  0  0  0  0  0
   -3.7590    1.7553    2.4670 H   0  0  0  0  0  0  0  0  0  0  0  0
   -2.9019   -0.2186    2.5646 C   0  0  0  0  0  0  0  0  0  0  0  0
   -0.5508    3.5817   -2.0675 H   0  0  0  0  0  0  0  0  0  0  0  0
   -0.9197    7.1960    0.3091 H   0  0  0  0  0  0  0  0  0  0  0  0
   -0.2956    3.3679    2.2551 H   0  0  0  0  0  0  0  0  0  0  0  0
  1 16  1  0  0  0  0
  4 70  1  0  0  0  0
  4 14  1  0  0  0  0
  6 68  2  0  0  0  0
  7 12  1  0  0  0  0
  7  1  2  0  0  0  0
  8 35  1  0  0  0  0
  8 23  1  0  0  0  0
  9 32  1  0  0  0  0
 10 52  1  0  0  0  0
 11  1  1  0  0  0  0
 11 10  1  0  0  0  0
 12  4  2  0  0  0  0
 13 12  1  0  0  0  0
 14 15  1  0  0  0  0
 16 14  2  0  0  0  0
 16 71  1  0  0  0  0
 17 50  1  0  0  0  0
 17 11  2  0  0  0  0
 18 19  1  1  0  0  0
 18 17  1  0  0  0  0
 20 21  1  0  0  0  0
 20 19  1  0  0  0  0
 21 22  1  6  0  0  0
 21  8  1  0  0  0  0
 23 26  1  0  0  0  0
 23 24  1  0  0  0  0
 25 23  1  0  0  0  0
 26 27  1  0  0  0  0
 27 29  2  0  0  0  0
 27 28  1  0  0  0  0
 29 30  1  0  0  0  0
 31  2  1  0  0  0  0
 31 29  1  0  0  0  0
 32 31  2  0  0  0  0
 33 32  1  0  0  0  0
 33 26  2  0  0  0  0
 34 33  1  0  0  0  0
 35 37  1  0  0  0  0
 35 36  1  0  0  0  0
 38 40  1  0  0  0  0
 38 35  1  0  0  0  0
 39 38  1  0  0  0  0
 41 21  1  0  0  0  0
 41 38  1  0  0  0  0
 42 41  1  0  0  0  0
 43 41  1  0  0  0  0
 44 20  2  0  0  0  0
 45 47  2  0  0  0  0
 45 18  1  0  0  0  0
 46 45  1  0  0  0  0
 47 49  1  0  0  0  0
 48 47  1  0  0  0  0
 49  3  1  0  0  0  0
 49 50  2  0  0  0  0
 50 51  1  0  0  0  0
 52 53  1  6  0  0  0
 52 65  1  0  0  0  0
 54 63  1  0  0  0  0
 54 52  1  0  0  0  0
 55 54  2  0  0  0  0
 56 55  1  0  0  0  0
 57 59  2  0  0  0  0
 57 55  1  0  0  0  0
 58 57  1  0  0  0  0
 59 61  1  0  0  0  0
 60 59  1  0  0  0  0
 61 62  1  0  0  0  0
 61 63  2  0  0  0  0
 63 64  1  0  0  0  0
 65 67  1  0  0  0  0
 65 68  1  0  0  0  0
 65 66  1  0  0  0  0
 68  5  1  0  0  0  0
 69  7  1  0  0  0  0
M  CHG  1   5  -1
M  END
