3,5,6,7
q = -2.0, confidence = 0.814

 61 64  0  0  1  0  0  0  0  0999 V2000
    5.4549   -1.6331   -1.0022 F   0  0  0  0  0  0  0  0  0  0  0  0
    2.4936    2.1756   -1.9268 O   0  0  0  0  0  0  0  0  0  0  0  0
    0.7443   -2.3773    0.9990 O   0  5  0  0  0  0  0  0  0  0  0  0
   -0.5602   -4.1417    1.5218 O   0  0  0  0  0  0  0  0  0  0  0  0
    2.6909   -0.6765    0.2855 N   0  0  0  0  0  0  0  0  0  0  0  0
    0.8245    0.8485   -0.9057 N   0  0  0  0  0  2  0  0  0  0  0  0
   -1.0703   -0.9983   -0.1173 N   0  0  0  0  0  2  0  0  0  0  0  0
    3.4136   -1.9958    0.1779 C   0  0  0  0  0  0  0  0  0  0  0  0
    4.1876   -2.0698    0.9679 H   0  0  0  0  0  0  0  0  0  0  0  0
    2.6828   -2.8123    0.3272 H   0  0  0  0  0  0  0  0  0  0  0  0
    4.1123   -1.9946   -1.1796 C   0  0  1  0  0  0  0  0  0  0  0  0
    4.0948   -2.9853   -1.6795 H   0  0  0  0  0  0  0  0  0  0  0  0
    3.4116   -0.8905   -1.9574 C   0  0  0  0  0  0  0  0  0  0  0  0
    2.4475   -1.2608   -2.3650 H   0  0  0  0  0  0  0  0  0  0  0  0
    4.0257   -0.4967   -2.7875 H   0  0  0  0  0  0  0  0  0  0  0  0
    3.1440    0.1544   -0.8657 C   0  0  1  0  0  0  0  0  0  0  0  0
    4.0916    0.6817   -0.6218 H   0  0  0  0  0  0  0  0  0  0  0  0
    2.1116    1.1963   -1.2837 C   0  0  0  0  0  0  0  0  0  0  0  0
   -0.2444    1.7323   -1.0063 C   0  0  2  0  0  3  0  0  0  0  0  0
   -0.0690    3.0872   -1.4194 C   0  0  0  0  0  0  0  0  0  0  0  0
    0.9295    3.3922   -1.7453 H   0  0  0  0  0  0  0  0  0  0  0  0
   -1.1154    4.0058   -1.3998 C   0  0  0  0  0  0  0  0  0  0  0  0
   -0.9147    5.0446   -1.7054 H   0  0  0  0  0  0  0  0  0  0  0  0
   -2.4075    3.6239   -0.9945 C   0  0  0  0  0  0  0  0  0  0  0  0
   -3.2337    4.3491   -0.9686 H   0  0  0  0  0  0  0  0  0  0  0  0
   -2.6253    2.2959   -0.6466 C   0  0  0  0  0  0  0  0  0  0  0  0
   -3.6334    1.9751   -0.3519 H   0  0  0  0  0  0  0  0  0  0  0  0
   -1.5841    1.3248   -0.6510 C   0  0  0  0  0  0  0  0  0  0  0  0
   -1.9534   -0.0471   -0.3295 C   0  0  0  0  0  0  0  0  0  0  0  0
   -1.4665   -2.3983    0.1061 C   0  0  2  0  0  0  0  0  0  0  0  0
   -2.4292   -2.4533    0.6513 H   0  0  0  0  0  0  0  0  0  0  0  0
   -0.3827   -3.0645    0.9745 C   0  0  0  0  0  0  0  0  0  0  0  0
   -1.6048   -3.1645   -1.2153 C   0  0  0  0  0  0  0  0  0  0  0  0
   -2.4319   -2.7567   -1.8284 H   0  0  0  0  0  0  0  0  0  0  0  0
   -1.8119   -4.2281   -0.9883 H   0  0  0  0  0  0  0  0  0  0  0  0
   -0.6632   -3.1003   -1.7975 H   0  0  0  0  0  0  0  0  0  0  0  0
   -3.4145   -0.3819   -0.2388 C   0  0  0  0  0  0  0  0  0  0  0  0
   -4.0330   -0.5063    1.0223 C   0  0  0  0  0  0  0  0  0  0  0  0
   -3.4360   -0.3507    1.9342 H   0  0  0  0  0  0  0  0  0  0  0  0
   -5.3971   -0.8195    1.1133 C   0  0  0  0  0  0  0  0  0  0  0  0
   -5.8709   -0.9126    2.1021 H   0  0  0  0  0  0  0  0  0  0  0  0
   -6.1545   -1.0140   -0.0530 C   0  0  0  0  0  0  0  0  0  0  0  0
   -7.2240   -1.2624    0.0195 H   0  0  0  0  0  0  0  0  0  0  0  0
   -5.5452   -0.8862   -1.3112 C   0  0  0  0  0  0  0  0  0  0  0  0
   -6.1360   -1.0322   -2.2281 H   0  0  0  0  0  0  0  0  0  0  0  0
   -4.1822   -0.5674   -1.4054 C   0  0  0  0  0  0  0  0  0  0  0  0
   -3.7045   -0.4501   -2.3899 H   0  0  0  0  0  0  0  0  0  0  0  0
    2.8940   -0.0679    1.6401 C   0  0  0  0  0  0  0  0  0  0  0  0
    2.6872   -0.8795    2.3639 H   0  0  0  0  0  0  0  0  0  0  0  0
    3.9647    0.2230    1.7336 H   0  0  0  0  0  0  0  0  0  0  0  0
    1.9827    1.1036    1.9151 C   0  0  0  0  0  0  0  0  0  0  0  0
    2.3555    2.4151    1.5717 C   0  0  0  0  0  0  0  0  0  0  0  0
    3.3547    2.6073    1.1507 H   0  0  0  0  0  0  0  0  0  0  0  0
    1.4502    3.4772    1.7279 C   0  0  0  0  0  0  0  0  0  0  0  0
    1.7468    4.4949    1.4337 H   0  0  0  0  0  0  0  0  0  0  0  0
    0.1679    3.2386    2.2423 C   0  0  0  0  0  0  0  0  0  0  0  0
   -0.5482    4.0672    2.3464 H   0  0  0  0  0  0  0  0  0  0  0  0
   -0.2031    1.9360    2.6147 C   0  0  0  0  0  0  0  0  0  0  0  0
   -1.2056    1.7458    3.0271 H   0  0  0  0  0  0  0  0  0  0  0  0
    0.6988    0.8753    2.4555 C   0  0  0  0  0  0  0  0  0  0  0  0
    0.4111   -0.1467    2.7469 H   0  0  0  0  0  0  0  0  0  0  0  0
  2 18  2  0  0  0  0
  5 48  1  0  0  0  0
  7 30  1  0  0  0  0
  8  5  1  0  0  0  0
  8 10  1  0  0  0  0
  8  9  1  0  0  0  0
 11 12  1  6  0  0  0
 11  1  1  0  0  0  0
 11  8  1  0  0  0  0
 13 11  1  0  0  0  0
 13 16  1  0  0  0  0
 14 13  1  0  0  0  0
 15 13  1  0  0  0  0
 16 17  1  1  0  0  0
 16  5  1  0  0  0  0
 18  6  1  0  0  0  0
 18 16  1  0  0  0  0
 19  6  1  1  0  0  0
 19 28  1  0  0  0  0
 20 22  2  0  0  0  0
 20 19  1  0  0  0  0
 21 20  1  0  0  0  0
 22 24  1  0  0  0  0
 23 22  1  0  0  0  0
 24 25  1  0  0  0  0
 24 26  2  0  0  0  0
 26 27  1  0  0  0  0
 28 26  1  0  0  0  0
 28 29  2  0  0  0  0
 29 37  1  0  0  0  0
 29  7  1  0  0  0  0
 30 31  1  1  0  0  0
 30 32  1  0  0  0  0
 32  3  1  0  0  0  0
 32  4  2  0  0  0  0
 33 35  1  0  0  0  0
 33 30  1  0  0  0  0
 34 33  1  0  0  0  0
 36 33  1  0  0  0  0
 37 38  1  0  0  0  0
 38 40  2  0  0  0  0
 38 39  1  0  0  0  0
 40 41  1  0  0  0  0
 42 43  1  0  0  0  0
 42 40  1  0  0  0  0
 44 42  2  0  0  0  0
 45 44  1  0  0  0  0
 46 44  1  0  0  0  0
 46 37  2  0  0  0  0
 47 46  1  0  0  0  0
 48 50  1  0  0  0  0
 48 51  1  0  0  0  0
 48 49  1  0  0  0  0
 51 60  1  0  0  0  0
 52 54  1  0  0  0  0
 52 51  2  0  0  0  0
 53 52  1  0  0  0  0
 54 56  2  0  0  0  0
 55 54  1  0  0  0  0
 56 57  1  0  0  0  0
 56 58  1  0  0  0  0
 58 59  1  0  0  0  0
 60 58  2  0  0  0  0
 60 61  1  0  0  0  0
M  CHG  1   3  -1
M  END
