71,72
q = 0.0, confidence = 0.956

 72 73  0  0  1  0  0  0  0  0999 V2000
   -1.6122    0.3422    0.8055 N   0  0  0  0  0  0  0  0  0  0  0  0
    0.9095   -0.5204   -1.5314 N   0  0  0  0  0  0  0  0  0  0  0  0
    2.6496    2.3050    0.1971 N   0  0  0  0  0  0  0  0  0  0  0  0
   -2.3055    0.0369   -0.4177 C   0  0  0  0  0  0  0  0  0  0  0  0
   -2.8247   -1.2804   -0.5811 C   0  0  0  0  0  0  0  0  0  0  0  0
   -2.8257   -2.3225    0.5382 C   0  0  0  0  0  0  0  0  0  0  0  0
   -2.4496   -1.8233    1.4516 H   0  0  0  0  0  0  0  0  0  0  0  0
   -2.4169    1.0058   -1.4526 C   0  0  0  0  0  0  0  0  0  0  0  0
   -2.9989    0.6130   -2.6733 C   0  0  0  0  0  0  0  0  0  0  0  0
   -3.0842    1.3480   -3.4882 H   0  0  0  0  0  0  0  0  0  0  0  0
    0.0259    0.0489    2.4743 C   0  0  0  0  0  0  0  0  0  0  0  0
   -0.2744    0.1107    0.9533 C   0  0  2  0  0  3  0  0  0  0  0  0
    1.7488    3.4159    0.4522 C   0  0  0  0  0  0  0  0  0  0  0  0
    1.8983    4.2287   -0.2947 H   0  0  0  0  0  0  0  0  0  0  0  0
    1.9138    3.8592    1.4615 H   0  0  0  0  0  0  0  0  0  0  0  0
    0.7026    3.0645    0.3867 H   0  0  0  0  0  0  0  0  0  0  0  0
   -1.3812    0.2259    3.1160 C   0  0  0  0  0  0  0  0  0  0  0  0
   -1.8056   -0.7699    3.3603 H   0  0  0  0  0  0  0  0  0  0  0  0
   -1.3438    0.8068    4.0576 H   0  0  0  0  0  0  0  0  0  0  0  0
   -2.1220    2.4326    2.1253 C   0  0  0  0  0  0  0  0  0  0  0  0
   -1.0837    2.7561    1.9243 H   0  0  0  0  0  0  0  0  0  0  0  0
   -2.3923    2.7734    3.1445 H   0  0  0  0  0  0  0  0  0  0  0  0
   -2.7936    2.9447    1.4141 H   0  0  0  0  0  0  0  0  0  0  0  0
   -1.9041   -3.5283    0.2838 C   0  0  0  0  0  0  0  0  0  0  0  0
   -2.0743   -4.3028    1.0588 H   0  0  0  0  0  0  0  0  0  0  0  0
   -0.8324   -3.2581    0.3286 H   0  0  0  0  0  0  0  0  0  0  0  0
   -2.1011   -3.9943   -0.7036 H   0  0  0  0  0  0  0  0  0  0  0  0
   -3.4126   -1.6132   -1.8163 C   0  0  0  0  0  0  0  0  0  0  0  0
   -3.8153   -2.6268   -1.9633 H   0  0  0  0  0  0  0  0  0  0  0  0
    1.0238    1.1004    2.9915 C   0  0  0  0  0  0  0  0  0  0  0  0
    1.1447    0.9814    4.0876 H   0  0  0  0  0  0  0  0  0  0  0  0
    0.6862    2.1353    2.7987 H   0  0  0  0  0  0  0  0  0  0  0  0
    2.0210    0.9697    2.5330 H   0  0  0  0  0  0  0  0  0  0  0  0
   -3.7441    0.5363    2.1594 C   0  0  0  0  0  0  0  0  0  0  0  0
   -3.9074   -0.5515    2.2526 H   0  0  0  0  0  0  0  0  0  0  0  0
   -4.3118    0.9006    1.2797 H   0  0  0  0  0  0  0  0  0  0  0  0
   -4.1707    1.0196    3.0599 H   0  0  0  0  0  0  0  0  0  0  0  0
   -3.3264    3.3047   -1.0924 C   0  0  0  0  0  0  0  0  0  0  0  0
   -4.0185    2.8767   -0.3400 H   0  0  0  0  0  0  0  0  0  0  0  0
   -3.8778    3.3466   -2.0545 H   0  0  0  0  0  0  0  0  0  0  0  0
   -3.0891    4.3465   -0.7937 H   0  0  0  0  0  0  0  0  0  0  0  0
   -2.2629    0.8972    2.0533 C   0  0  0  0  0  0  0  0  0  0  0  0
    0.5732   -1.3509    2.8278 C   0  0  0  0  0  0  0  0  0  0  0  0
   -0.0500   -2.1536    2.3855 H   0  0  0  0  0  0  0  0  0  0  0  0
    0.5714   -1.4802    3.9306 H   0  0  0  0  0  0  0  0  0  0  0  0
    1.6033   -1.4816    2.4530 H   0  0  0  0  0  0  0  0  0  0  0  0
   -2.0399    2.4670   -1.2396 C   0  0  0  0  0  0  0  0  0  0  0  0
   -1.4764    2.5193   -0.2893 H   0  0  0  0  0  0  0  0  0  0  0  0
   -1.1421    3.0708   -2.3281 C   0  0  0  0  0  0  0  0  0  0  0  0
   -0.9508    4.1407   -2.1075 H   0  0  0  0  0  0  0  0  0  0  0  0
   -1.6125    3.0233   -3.3318 H   0  0  0  0  0  0  0  0  0  0  0  0
   -0.1664    2.5577   -2.3806 H   0  0  0  0  0  0  0  0  0  0  0  0
   -3.4841   -0.6861   -2.8617 C   0  0  0  0  0  0  0  0  0  0  0  0
   -3.9330   -0.9734   -3.8246 H   0  0  0  0  0  0  0  0  0  0  0  0
    1.1791    0.3479   -2.6850 C   0  0  0  0  0  0  0  0  0  0  0  0
    1.7144    1.2588   -2.3620 H   0  0  0  0  0  0  0  0  0  0  0  0
    0.2240    0.6351   -3.1798 H   0  0  0  0  0  0  0  0  0  0  0  0
    1.8083   -0.1818   -3.4307 H   0  0  0  0  0  0  0  0  0  0  0  0
   -4.2606   -2.8098    0.8206 C   0  0  0  0  0  0  0  0  0  0  0  0
   -4.2837   -3.4315    1.7387 H   0  0  0  0  0  0  0  0  0  0  0  0
   -4.6453   -3.4366   -0.0097 H   0  0  0  0  0  0  0  0  0  0  0  0
   -4.9678   -1.9674    0.9533 H   0  0  0  0  0  0  0  0  0  0  0  0
    0.1584   -1.6927   -1.9820 C   0  0  0  0  0  0  0  0  0  0  0  0
   -0.0806   -2.3419   -1.1280 H   0  0  0  0  0  0  0  0  0  0  0  0
    0.7649   -2.2753   -2.7057 H   0  0  0  0  0  0  0  0  0  0  0  0
   -0.7861   -1.3877   -2.4801 H   0  0  0  0  0  0  0  0  0  0  0  0
    4.0580    2.6753    0.1559 C   0  0  0  0  0  0  0  0  0  0  0  0
    4.2117    3.5463   -0.5192 H   0  0  0  0  0  0  0  0  0  0  0  0
    4.6591    1.8278   -0.2186 H   0  0  0  0  0  0  0  0  0  0  0  0
    4.4366    2.9545    1.1651 H   0  0  0  0  0  0  0  0  0  0  0  0
    0.7997    0.0405   -0.1329 B   0  0  0  0  0  0  0  0  0  0  0  0
    2.2082    0.9839    0.0368 B   0  0  0  0  0  2  0  0  0  0  0  0
  1 12  1  0  0  0  0
  1 42  1  0  0  0  0
  2 71  1  0  0  0  0
  3 13  1  0  0  0  0
  4  1  1  0  0  0  0
  5  4  1  0  0  0  0
  5  6  1  0  0  0  0
  6 59  1  0  0  0  0
  6  7  1  0  0  0  0
  8 47  1  0  0  0  0
  8  4  2  0  0  0  0
  9  8  1  0  0  0  0
 10  9  1  0  0  0  0
 11 43  1  0  0  0  0
 11 30  1  0  0  0  0
 11 17  1  0  0  0  0
 12 71  1  1  0  0  0
 12 11  1  0  0  0  0
 13 15  1  0  0  0  0
 14 13  1  0  0  0  0
 16 13  1  0  0  0  0
 17 18  1  0  0  0  0
 17 19  1  0  0  0  0
 20 22  1  0  0  0  0
 21 20  1  0  0  0  0
 23 20  1  0  0  0  0
 24 26  1  0  0  0  0
 24  6  1  0  0  0  0
 24 25  1  0  0  0  0
 27 24  1  0  0  0  0
 28  5  2  0  0  0  0
 29 28  1  0  0  0  0
 30 31  1  0  0  0  0
 32 30  1  0  0  0  0
 33 30  1  0  0  0  0
 34 35  1  0  0  0  0
 34 37  1  0  0  0  0
 36 34  1  0  0  0  0
 38 41  1  0  0  0  0
 38 39  1  0  0  0  0
 40 38  1  0  0  0  0
 42 20  1  0  0  0  0
 42 34  1  0  0  0  0
 42 17  1  0  0  0  0
 43 45  1  0  0  0  0
 44 43  1  0  0  0  0
 46 43  1  0  0  0  0
 47 38  1  0  0  0  0
 47 48  1  0  0  0  0
 49 50  1  0  0  0  0
 49 47  1  0  0  0  0
 51 49  1  0  0  0  0
 52 49  1  0  0  0  0
 53  9  2  0  0  0  0
 53 28  1  0  0  0  0
 54 53  1  0  0  0  0
 55 56  1  0  0  0  0
 55  2  1  0  0  0  0
 57 55  1  0  0  0  0
 58 55  1  0  0  0  0
 59 62  1  0  0  0  0
 59 60  1  0  0  0  0
 61 59  1  0  0  0  0
 63  2  1  0  0  0  0
 63 64  1  0  0  0  0
 65 63  1  0  0  0  0
 66 63  1  0  0  0  0
 67  3  1  0  0  0  0
 67 70  1  0  0  0  0
 68 67  1  0  0  0  0
 69 67  1  0  0  0  0
 71 72  1  0  0  0  0
 72  3  1  0  0  0  0
M  END
