49,54
q = 0.0, confidence = 0.934

 69 71  0  0  0  0  0  0  0  0999 V2000
   -1.7967   -1.6566    0.3790 N   0  0  0  0  0  0  0  0  0  0  0  0
    0.3799   -2.0013    0.5977 N   0  0  0  0  0  0  0  0  0  0  0  0
   -1.0417    1.4594   -0.6580 N   0  0  0  0  0  0  0  0  0  0  0  0
   -3.8635   -1.3682   -0.8872 C   0  0  0  0  0  0  0  0  0  0  0  0
    3.4724   -1.8632   -1.4757 C   0  0  0  0  0  0  0  0  0  0  0  0
    3.7516   -1.8693   -2.5413 H   0  0  0  0  0  0  0  0  0  0  0  0
    4.0959   -1.7507    0.8531 C   0  0  0  0  0  0  0  0  0  0  0  0
    4.8697   -1.6616    1.6325 H   0  0  0  0  0  0  0  0  0  0  0  0
   -3.0788   -1.0427    0.2464 C   0  0  0  0  0  0  0  0  0  0  0  0
    4.4775   -1.7367   -0.4974 C   0  0  0  0  0  0  0  0  0  0  0  0
   -1.7095   -3.0404    0.8679 C   0  0  0  0  0  0  0  0  0  0  0  0
   -2.3192   -3.7258    0.2458 H   0  0  0  0  0  0  0  0  0  0  0  0
   -2.1015   -3.0959    1.9087 H   0  0  0  0  0  0  0  0  0  0  0  0
   -3.5722   -0.1764    1.2534 C   0  0  0  0  0  0  0  0  0  0  0  0
   -0.5666   -1.0444    0.3286 C   0  0  0  0  0  3  0  0  0  0  0  0
    1.2790    1.6494    2.3987 N   0  0  0  0  0  0  0  0  0  0  0  0
    1.7641   -1.9039    0.2368 C   0  0  0  0  0  0  0  0  0  0  0  0
    2.1162   -1.9658   -1.1353 C   0  0  0  0  0  0  0  0  0  0  0  0
    2.3823   -1.8489    2.7058 C   0  0  0  0  0  0  0  0  0  0  0  0
    1.3082   -1.6392    2.8584 H   0  0  0  0  0  0  0  0  0  0  0  0
    2.9651   -1.0940    3.2694 H   0  0  0  0  0  0  0  0  0  0  0  0
    2.6065   -2.8375    3.1617 H   0  0  0  0  0  0  0  0  0  0  0  0
   -1.7316    2.5961   -0.0341 C   0  0  0  0  0  0  0  0  0  0  0  0
   -1.1972    2.9002    0.8832 H   0  0  0  0  0  0  0  0  0  0  0  0
   -2.7799    2.3196    0.2266 H   0  0  0  0  0  0  0  0  0  0  0  0
   -1.7598    3.4637   -0.7268 H   0  0  0  0  0  0  0  0  0  0  0  0
    1.0614   -2.1315   -2.1965 C   0  0  0  0  0  0  0  0  0  0  0  0
    1.5039   -2.0922   -3.2080 H   0  0  0  0  0  0  0  0  0  0  0  0
    0.3118   -1.3176   -2.1303 H   0  0  0  0  0  0  0  0  0  0  0  0
    0.5182   -3.0952   -2.0931 H   0  0  0  0  0  0  0  0  0  0  0  0
   -3.3433   -2.2993   -1.9519 C   0  0  0  0  0  0  0  0  0  0  0  0
   -2.2478   -2.1987   -2.0785 H   0  0  0  0  0  0  0  0  0  0  0  0
   -3.8300   -2.1024   -2.9261 H   0  0  0  0  0  0  0  0  0  0  0  0
   -3.5459   -3.3631   -1.6990 H   0  0  0  0  0  0  0  0  0  0  0  0
   -1.7362    1.0604   -1.8858 C   0  0  0  0  0  0  0  0  0  0  0  0
   -1.2732    0.1486   -2.3035 H   0  0  0  0  0  0  0  0  0  0  0  0
   -1.6575    1.8640   -2.6460 H   0  0  0  0  0  0  0  0  0  0  0  0
   -2.8130    0.8664   -1.6920 H   0  0  0  0  0  0  0  0  0  0  0  0
   -5.1386   -0.7866   -1.0085 C   0  0  0  0  0  0  0  0  0  0  0  0
   -5.7476   -1.0259   -1.8951 H   0  0  0  0  0  0  0  0  0  0  0  0
    5.9146   -1.5185   -0.8901 C   0  0  0  0  0  0  0  0  0  0  0  0
    6.1219   -0.4281   -0.9453 H   0  0  0  0  0  0  0  0  0  0  0  0
    6.1429   -1.9508   -1.8839 H   0  0  0  0  0  0  0  0  0  0  0  0
    6.6163   -1.9496   -0.1488 H   0  0  0  0  0  0  0  0  0  0  0  0
    0.7134    1.0743    3.6069 C   0  0  0  0  0  0  0  0  0  0  0  0
    0.2165    1.8533    4.2314 H   0  0  0  0  0  0  0  0  0  0  0  0
    1.4981    0.6008    4.2397 H   0  0  0  0  0  0  0  0  0  0  0  0
   -0.0327    0.3033    3.3461 H   0  0  0  0  0  0  0  0  0  0  0  0
    0.8257    1.3384    1.1039 B   0  0  0  0  0  2  0  0  0  0  0  0
   -2.7507    0.1364    2.4723 C   0  0  0  0  0  0  0  0  0  0  0  0
   -2.3825   -0.7870    2.9654 H   0  0  0  0  0  0  0  0  0  0  0  0
   -3.3323    0.7168    3.2126 H   0  0  0  0  0  0  0  0  0  0  0  0
   -1.8450    0.7166    2.1904 H   0  0  0  0  0  0  0  0  0  0  0  0
   -0.2825    0.4725    0.1920 B   0  0  0  0  0  0  0  0  0  0  0  0
    2.7476   -1.8304    1.2453 C   0  0  0  0  0  0  0  0  0  0  0  0
   -4.8459    0.3908    1.0770 C   0  0  0  0  0  0  0  0  0  0  0  0
   -5.2301    1.0726    1.8531 H   0  0  0  0  0  0  0  0  0  0  0  0
   -0.2058   -3.3332    0.7924 C   0  0  0  0  0  0  0  0  0  0  0  0
    0.1890   -3.8119    1.7125 H   0  0  0  0  0  0  0  0  0  0  0  0
    0.0570   -3.9923   -0.0647 H   0  0  0  0  0  0  0  0  0  0  0  0
   -5.6457    0.1034   -0.0456 C   0  0  0  0  0  0  0  0  0  0  0  0
   -6.9954    0.7536   -0.2156 C   0  0  0  0  0  0  0  0  0  0  0  0
   -6.8886    1.8046   -0.5598 H   0  0  0  0  0  0  0  0  0  0  0  0
   -7.5556    0.7844    0.7405 H   0  0  0  0  0  0  0  0  0  0  0  0
   -7.6157    0.2221   -0.9630 H   0  0  0  0  0  0  0  0  0  0  0  0
    2.3292    2.6232    2.6648 C   0  0  0  0  0  0  0  0  0  0  0  0
    2.0010    3.3423    3.4487 H   0  0  0  0  0  0  0  0  0  0  0  0
    2.5650    3.1902    1.7475 H   0  0  0  0  0  0  0  0  0  0  0  0
    3.2630    2.1327    3.0226 H   0  0  0  0  0  0  0  0  0  0  0  0
  1 11  1  0  0  0  0
  2 58  1  0  0  0  0
  3 23  1  0  0  0  0
  3 54  1  0  0  0  0
  4  9  1  0  0  0  0
  5 18  2  0  0  0  0
  5 10  1  0  0  0  0
  6  5  1  0  0  0  0
  7 55  1  0  0  0  0
  7  8  1  0  0  0  0
  9  1  1  0  0  0  0
  9 14  2  0  0  0  0
 10  7  2  0  0  0  0
 11 13  1  0  0  0  0
 12 11  1  0  0  0  0
 14 50  1  0  0  0  0
 15  1  1  0  0  0  0
 15  2  1  0  0  0  0
 16 66  1  0  0  0  0
 16 45  1  0  0  0  0
 17  2  1  0  0  0  0
 17 55  2  0  0  0  0
 18 17  1  0  0  0  0
 19 20  1  0  0  0  0
 19 22  1  0  0  0  0
 19 21  1  0  0  0  0
 23 25  1  0  0  0  0
 23 24  1  0  0  0  0
 26 23  1  0  0  0  0
 27 29  1  0  0  0  0
 27 30  1  0  0  0  0
 27 18  1  0  0  0  0
 28 27  1  0  0  0  0
 31 34  1  0  0  0  0
 31  4  1  0  0  0  0
 32 31  1  0  0  0  0
 33 31  1  0  0  0  0
 35 38  1  0  0  0  0
 35  3  1  0  0  0  0
 36 35  1  0  0  0  0
 37 35  1  0  0  0  0
 39  4  2  0  0  0  0
 39 61  1  0  0  0  0
 40 39  1  0  0  0  0
 41 10  1  0  0  0  0
 41 44  1  0  0  0  0
 42 41  1  0  0  0  0
 43 41  1  0  0  0  0
 45 46  1  0  0  0  0
 45 47  1  0  0  0  0
 48 45  1  0  0  0  0
 49 16  1  0  0  0  0
 50 51  1  0  0  0  0
 50 52  1  0  0  0  0
 53 50  1  0  0  0  0
 54 15  1  0  0  0  0
 54 49  1  0  0  0  0
 55 19  1  0  0  0  0
 56 14  1  0  0  0  0
 56 57  1  0  0  0  0
 58 11  1  0  0  0  0
 58 59  1  0  0  0  0
 60 58  1  0  0  0  0
 61 56  2  0  0  0  0
 62 61  1  0  0  0  0
 62 64  1  0  0  0  0
 63 62  1  0  0  0  0
 65 62  1  0  0  0  0
 66 69  1  0  0  0  0
 66 67  1  0  0  0  0
 68 66  1  0  0  0  0
M  END
