5,10
q = 0.0, confidence = 0.762

 22 25  0  0  1  0  0  0  0  0999 V2000
   -3.1415   -1.4556    0.3602 C   0  0  2  0  0  0  0  0  0  0  0  0
   -2.9300   -0.7312   -1.1837 B   0  0  0  0  0  0  0  0  0  0  0  0
   -4.5222   -0.8138   -0.3802 B   0  0  1  0  0  0  0  0  0  0  0  0
   -4.2253   -0.6205    1.3572 B   0  0  2  0  0  0  0  0  0  0  0  0
   -2.4573   -0.4675    1.6056 B   0  0  0  0  0  0  0  0  0  0  0  0
   -2.3488    0.8545   -0.8917 C   0  0  1  0  0  0  0  0  0  0  0  0
   -4.0109    0.6839   -1.1913 B   0  0  2  0  0  0  0  0  0  0  0  0
   -4.7949    0.7665    0.4130 B   0  0  1  0  0  0  0  0  0  0  0  0
   -3.4970    0.9852    1.6282 B   0  0  0  0  0  0  0  0  0  0  0  0
   -1.9305    1.0769    0.7614 B   0  0  0  0  0  2  0  0  0  0  0  0
   -3.4038    1.7976    0.0427 B   0  0  1  0  0  0  0  0  0  0  0  0
   -3.1424   -2.5493    0.4587 H   0  0  0  0  0  0  0  0  0  0  0  0
   -2.7781   -1.3347   -2.2170 H   0  0  0  0  0  0  0  0  0  0  0  0
   -5.3667   -1.5634   -0.8069 H   0  0  0  0  0  0  0  0  0  0  0  0
   -4.8621   -1.2441    2.1727 H   0  0  0  0  0  0  0  0  0  0  0  0
   -2.0339   -0.9401    2.6386 H   0  0  0  0  0  0  0  0  0  0  0  0
   -1.8131    1.4000   -1.6783 H   0  0  0  0  0  0  0  0  0  0  0  0
   -4.4590    1.0766   -2.2415 H   0  0  0  0  0  0  0  0  0  0  0  0
   -5.9071    1.2206    0.5494 H   0  0  0  0  0  0  0  0  0  0  0  0
   -3.6739    1.6040    2.6525 H   0  0  0  0  0  0  0  0  0  0  0  0
   -1.1182    1.9007    1.1116 H   0  0  0  0  0  0  0  0  0  0  0  0
   -3.4199    2.9928   -0.1314 H   0  0  0  0  0  0  0  0  0  0  0  0
  1 12  1  1  0  0  0
  1  4  1  0  0  0  0
  2  6  1  0  0  0  0
  2  1  1  0  0  0  0
  3 14  1  6  0  0  0
  3  1  1  0  0  0  0
  3  4  1  0  0  0  0
  4 15  1  1  0  0  0
  5  9  1  0  0  0  0
  5 16  1  0  0  0  0
  6 17  1  6  0  0  0
  6 11  1  0  0  0  0
  7 18  1  6  0  0  0
  7  6  1  0  0  0  0
  7  3  1  0  0  0  0
  7 11  1  0  0  0  0
  8 19  1  1  0  0  0
  8  4  1  0  0  0  0
  8  9  1  0  0  0  0
  9 20  1  0  0  0  0
 10 21  1  0  0  0  0
 10  5  1  0  0  0  0
 11 22  1  6  0  0  0
 11  8  1  0  0  0  0
 13  2  1  0  0  0  0
M  END
