3,6
q = 0.0, confidence = 0.51

 56 55  0  0  0  0  0  0  0  0999 V2000
    2.9661   -0.8295   -1.2273 Si  0  0  0  0  0  0  0  0  0  0  0  0
    1.9218   -0.3946    0.1918 N   0  0  0  0  0  0  0  0  0  0  0  0
    0.9956    0.6273    0.0615 B   0  0  0  0  0  0  0  0  0  0  0  0
    2.1624   -1.0457    1.8698 Si  0  0  0  0  0  0  0  0  0  0  0  0
   -1.8774   -0.4967   -0.1161 N   0  0  0  0  0  0  0  0  0  0  0  0
   -0.9755    0.5528   -0.0774 B   0  0  0  0  0  0  0  0  0  0  0  0
   -2.0415   -1.3596   -1.7047 Si  0  0  0  0  0  0  0  0  0  0  0  0
   -2.9776   -0.7144    1.3087 Si  0  0  0  0  0  0  0  0  0  0  0  0
    3.2509   -2.6981   -1.2273 C   0  0  0  0  0  0  0  0  0  0  0  0
    2.2924   -3.2462   -1.3278 H   0  0  0  0  0  0  0  0  0  0  0  0
    3.7643   -3.0678   -0.3190 H   0  0  0  0  0  0  0  0  0  0  0  0
    3.8823   -2.9654   -2.1000 H   0  0  0  0  0  0  0  0  0  0  0  0
    2.1109   -0.3558   -2.8331 C   0  0  0  0  0  0  0  0  0  0  0  0
    1.9220    0.7331   -2.8976 H   0  0  0  0  0  0  0  0  0  0  0  0
    1.1524   -0.8910   -2.9702 H   0  0  0  0  0  0  0  0  0  0  0  0
    2.7780   -0.6349   -3.6754 H   0  0  0  0  0  0  0  0  0  0  0  0
    4.5771    0.1336   -1.0808 C   0  0  0  0  0  0  0  0  0  0  0  0
    5.1331   -0.1020   -0.1528 H   0  0  0  0  0  0  0  0  0  0  0  0
    4.3553    1.2205   -1.0905 H   0  0  0  0  0  0  0  0  0  0  0  0
    5.2387   -0.0876   -1.9438 H   0  0  0  0  0  0  0  0  0  0  0  0
    3.9820   -1.4510    2.1686 C   0  0  0  0  0  0  0  0  0  0  0  0
    4.6008   -0.5321    2.1300 H   0  0  0  0  0  0  0  0  0  0  0  0
    4.4075   -2.1883    1.4617 H   0  0  0  0  0  0  0  0  0  0  0  0
    4.0772   -1.8742    3.1904 H   0  0  0  0  0  0  0  0  0  0  0  0
    1.0872   -2.5903    1.9942 C   0  0  0  0  0  0  0  0  0  0  0  0
    1.4297   -3.3754    1.2903 H   0  0  0  0  0  0  0  0  0  0  0  0
    0.0409   -2.3351    1.7304 H   0  0  0  0  0  0  0  0  0  0  0  0
    1.0975   -3.0145    3.0191 H   0  0  0  0  0  0  0  0  0  0  0  0
    1.6639    0.2568    3.1295 C   0  0  0  0  0  0  0  0  0  0  0  0
    0.6061    0.5657    3.0432 H   0  0  0  0  0  0  0  0  0  0  0  0
    2.2802    1.1706    3.0121 H   0  0  0  0  0  0  0  0  0  0  0  0
    1.8289   -0.1423    4.1520 H   0  0  0  0  0  0  0  0  0  0  0  0
   -0.8352   -2.8076   -1.6375 C   0  0  0  0  0  0  0  0  0  0  0  0
   -1.1581   -3.5480   -0.8775 H   0  0  0  0  0  0  0  0  0  0  0  0
    0.1694   -2.4447   -1.3445 H   0  0  0  0  0  0  0  0  0  0  0  0
   -0.7525   -3.3262   -2.6144 H   0  0  0  0  0  0  0  0  0  0  0  0
   -3.8055   -1.9829   -1.9520 C   0  0  0  0  0  0  0  0  0  0  0  0
   -4.5222   -1.1403   -2.0167 H   0  0  0  0  0  0  0  0  0  0  0  0
   -4.1519   -2.6805   -1.1656 H   0  0  0  0  0  0  0  0  0  0  0  0
   -3.8422   -2.5267   -2.9192 H   0  0  0  0  0  0  0  0  0  0  0  0
   -1.6664   -0.1406   -3.0868 C   0  0  0  0  0  0  0  0  0  0  0  0
   -0.6840    0.3521   -2.9627 H   0  0  0  0  0  0  0  0  0  0  0  0
   -2.4346    0.6594   -3.0914 H   0  0  0  0  0  0  0  0  0  0  0  0
   -1.6890   -0.6533   -4.0703 H   0  0  0  0  0  0  0  0  0  0  0  0
   -2.2174    0.1233    2.8111 C   0  0  0  0  0  0  0  0  0  0  0  0
   -1.9892    1.1906    2.6219 H   0  0  0  0  0  0  0  0  0  0  0  0
   -1.2804   -0.3793    3.1210 H   0  0  0  0  0  0  0  0  0  0  0  0
   -2.9309    0.0624    3.6589 H   0  0  0  0  0  0  0  0  0  0  0  0
   -3.1522   -2.5615    1.6648 C   0  0  0  0  0  0  0  0  0  0  0  0
   -2.1647   -3.0148    1.8870 H   0  0  0  0  0  0  0  0  0  0  0  0
   -3.6078   -3.1255    0.8279 H   0  0  0  0  0  0  0  0  0  0  0  0
   -3.7968   -2.7065    2.5564 H   0  0  0  0  0  0  0  0  0  0  0  0
   -4.6300    0.0906    0.8952 C   0  0  0  0  0  0  0  0  0  0  0  0
   -5.1794   -0.4560    0.1045 H   0  0  0  0  0  0  0  0  0  0  0  0
   -4.4605    1.1285    0.5420 H   0  0  0  0  0  0  0  0  0  0  0  0
   -5.2776    0.1317    1.7952 H   0  0  0  0  0  0  0  0  0  0  0  0
  1 17  1  0  0  0  0
  1  2  1  0  0  0  0
  2  4  1  0  0  0  0
  3  2  1  0  0  0  0
  4 25  1  0  0  0  0
  4 21  1  0  0  0  0
  4 29  1  0  0  0  0
  5  6  1  0  0  0  0
  5  8  1  0  0  0  0
  6  3  2  0  0  0  0
  7 33  1  0  0  0  0
  7  5  1  0  0  0  0
  8 49  1  0  0  0  0
  8 45  1  0  0  0  0
  9  1  1  0  0  0  0
  9 11  1  0  0  0  0
 10  9  1  0  0  0  0
 12  9  1  0  0  0  0
 13  1  1  0  0  0  0
 14 13  1  0  0  0  0
 15 13  1  0  0  0  0
 16 13  1  0  0  0  0
 17 18  1  0  0  0  0
 19 17  1  0  0  0  0
 20 17  1  0  0  0  0
 21 24  1  0  0  0  0
 22 21  1  0  0  0  0
 23 21  1  0  0  0  0
 25 28  1  0  0  0  0
 26 25  1  0  0  0  0
 27 25  1  0  0  0  0
 29 32  1  0  0  0  0
 30 29  1  0  0  0  0
 31 29  1  0  0  0  0
 33 35  1  0  0  0  0
 33 34  1  0  0  0  0
 36 33  1  0  0  0  0
 37  7  1  0  0  0  0
 37 39  1  0  0  0  0
 38 37  1  0  0  0  0
 40 37  1  0  0  0  0
 41 42  1  0  0  0  0
 41  7  1  0  0  0  0
 43 41  1  0  0  0  0
 44 41  1  0  0  0  0
 45 47  1  0  0  0  0
 45 48  1  0  0  0  0
 46 45  1  0  0  0  0
 49 50  1  0  0  0  0
 49 52  1  0  0  0  0
 51 49  1  0  0  0  0
 53  8  1  0  0  0  0
 53 56  1  0  0  0  0
 54 53  1  0  0  0  0
 55 53  1  0  0  0  0
M  END
