1,4
q = 0.0, confidence = 0.97

 30 32  0  0  0  0  0  0  0  0999 V2000
    1.4102   -0.6026    2.2749 B   0  0  0  0  0  0  0  0  0  0  0  0
    1.1931    0.9503    2.3102 C   0  0  0  0  0  0  0  0  0  0  0  0
   -0.1425    1.5162    2.3604 C   0  0  0  0  0  0  0  0  0  0  0  0
   -1.4104    0.6025    2.2748 B   0  0  0  0  0  0  0  0  0  0  0  0
   -1.1932   -0.9504    2.3101 C   0  0  0  0  0  0  0  0  0  0  0  0
    0.1423   -1.5163    2.3604 C   0  0  0  0  0  0  0  0  0  0  0  0
    0.2705   -2.9411    2.4134 C   0  0  0  0  0  0  0  0  0  0  0  0
   -0.8360   -3.7829    2.4200 C   0  0  0  0  0  0  0  0  0  0  0  0
   -2.1380   -3.2309    2.3265 C   0  0  0  0  0  0  0  0  0  0  0  0
   -2.3032   -1.8530    2.2576 C   0  0  0  0  0  0  0  0  0  0  0  0
    2.3030    1.8530    2.2578 C   0  0  0  0  0  0  0  0  0  0  0  0
    2.1379    3.2308    2.3266 C   0  0  0  0  0  0  0  0  0  0  0  0
    0.8358    3.7828    2.4201 C   0  0  0  0  0  0  0  0  0  0  0  0
   -0.2707    2.9410    2.4133 C   0  0  0  0  0  0  0  0  0  0  0  0
    2.8626   -1.2617    2.2843 C   0  0  0  0  0  0  0  0  0  0  0  0
   -2.8627    1.2616    2.2842 C   0  0  0  0  0  0  0  0  0  0  0  0
    1.2784   -3.3812    2.4649 H   0  0  0  0  0  0  0  0  0  0  0  0
   -0.7041   -4.8742    2.4960 H   0  0  0  0  0  0  0  0  0  0  0  0
   -3.0184   -3.8930    2.3154 H   0  0  0  0  0  0  0  0  0  0  0  0
   -3.3214   -1.4426    2.1815 H   0  0  0  0  0  0  0  0  0  0  0  0
    3.3212    1.4425    2.1817 H   0  0  0  0  0  0  0  0  0  0  0  0
    3.0183    3.8929    2.3156 H   0  0  0  0  0  0  0  0  0  0  0  0
    0.7039    4.8742    2.4960 H   0  0  0  0  0  0  0  0  0  0  0  0
   -1.2785    3.3811    2.4648 H   0  0  0  0  0  0  0  0  0  0  0  0
    3.0611   -1.6692    3.3014 H   0  0  0  0  0  0  0  0  0  0  0  0
    2.9554   -2.1234    1.5899 H   0  0  0  0  0  0  0  0  0  0  0  0
    3.6914   -0.5646    2.0570 H   0  0  0  0  0  0  0  0  0  0  0  0
   -3.0611    1.6692    3.3012 H   0  0  0  0  0  0  0  0  0  0  0  0
   -3.6916    0.5645    2.0570 H   0  0  0  0  0  0  0  0  0  0  0  0
   -2.9556    2.1233    1.5897 H   0  0  0  0  0  0  0  0  0  0  0  0
  1 15  1  0  0  0  0
  1  2  1  0  0  0  0
  1  6  1  0  0  0  0
  2  3  1  0  0  0  0
  3 14  2  0  0  0  0
  4 16  1  0  0  0  0
  4  5  1  0  0  0  0
  4  3  1  0  0  0  0
  5  6  1  0  0  0  0
  6  7  2  0  0  0  0
  7  8  1  0  0  0  0
  7 17  1  0  0  0  0
  8 18  1  0  0  0  0
  9  8  2  0  0  0  0
 10  5  2  0  0  0  0
 10  9  1  0  0  0  0
 11  2  2  0  0  0  0
 11 12  1  0  0  0  0
 12 13  2  0  0  0  0
 13 23  1  0  0  0  0
 14 13  1  0  0  0  0
 14 24  1  0  0  0  0
 15 25  1  0  0  0  0
 16 28  1  0  0  0  0
 19  9  1  0  0  0  0
 20 10  1  0  0  0  0
 21 11  1  0  0  0  0
 22 12  1  0  0  0  0
 26 15  1  0  0  0  0
 27 15  1  0  0  0  0
 29 16  1  0  0  0  0
 30 16  1  0  0  0  0
M  END
