1,25
 OpenBabel05122313053D

 52 52  0  0  0  0  0  0  0  0999 V2000
   -0.5244    1.2956    0.3315 B   0  0  0  0  0  0  0  0  0  0  0  0
   -1.8917    0.6144    0.4886 C   0  0  0  0  0  0  0  0  0  0  0  0
   -2.1075   -0.2863    1.5743 C   0  0  0  0  0  0  0  0  0  0  0  0
   -3.3076   -1.0315    1.6354 C   0  0  0  0  0  0  0  0  0  0  0  0
   -4.2721   -0.8407    0.6299 C   0  0  0  0  0  0  0  0  0  0  0  0
   -5.2060   -1.4252    0.6778 H   0  0  0  0  0  0  0  0  0  0  0  0
   -4.1039    0.0717   -0.4266 C   0  0  0  0  0  0  0  0  0  0  0  0
   -2.9009    0.8129   -0.5009 C   0  0  0  0  0  0  0  0  0  0  0  0
   -1.0647   -0.4691    2.6456 C   0  0  0  0  0  0  0  0  0  0  0  0
   -1.5082   -0.3900    3.6592 H   0  0  0  0  0  0  0  0  0  0  0  0
   -0.2604    0.2859    2.5678 H   0  0  0  0  0  0  0  0  0  0  0  0
   -0.5959   -1.4756    2.5868 H   0  0  0  0  0  0  0  0  0  0  0  0
   -3.5497   -2.0187    2.7481 C   0  0  0  0  0  0  0  0  0  0  0  0
   -2.7551   -2.7937    2.7876 H   0  0  0  0  0  0  0  0  0  0  0  0
   -4.5210   -2.5350    2.6261 H   0  0  0  0  0  0  0  0  0  0  0  0
   -3.5515   -1.5247    3.7429 H   0  0  0  0  0  0  0  0  0  0  0  0
   -5.1876    0.2547   -1.4574 C   0  0  0  0  0  0  0  0  0  0  0  0
   -6.0522   -0.4067   -1.2574 H   0  0  0  0  0  0  0  0  0  0  0  0
   -4.8207    0.0351   -2.4824 H   0  0  0  0  0  0  0  0  0  0  0  0
   -5.5581    1.3014   -1.4796 H   0  0  0  0  0  0  0  0  0  0  0  0
   -2.7181    1.8148   -1.6116 C   0  0  0  0  0  0  0  0  0  0  0  0
   -3.4893    2.6125   -1.5553 H   0  0  0  0  0  0  0  0  0  0  0  0
   -2.8306    1.3474   -2.6123 H   0  0  0  0  0  0  0  0  0  0  0  0
   -1.7312    2.3102   -1.5692 H   0  0  0  0  0  0  0  0  0  0  0  0
    1.0267    0.2984   -0.1619 B   0  0  0  0  0  0  0  0  0  0  0  0
    1.2495   -1.0381   -0.4074 N   0  0  0  0  0  0  0  0  0  0  0  0
    0.4170   -1.7842   -1.8428 Si  0  0  0  0  0  0  0  0  0  0  0  0
    0.0307   -0.4141   -3.0708 C   0  0  0  0  0  0  0  0  0  0  0  0
   -0.6625    0.3372   -2.6492 H   0  0  0  0  0  0  0  0  0  0  0  0
   -0.4380   -0.8489   -3.9779 H   0  0  0  0  0  0  0  0  0  0  0  0
    0.9550    0.1160   -3.3762 H   0  0  0  0  0  0  0  0  0  0  0  0
   -1.1507   -2.6307   -1.2335 C   0  0  0  0  0  0  0  0  0  0  0  0
   -0.9222   -3.4231   -0.4931 H   0  0  0  0  0  0  0  0  0  0  0  0
   -1.6853   -3.1025   -2.0840 H   0  0  0  0  0  0  0  0  0  0  0  0
   -1.8356   -1.9010   -0.7577 H   0  0  0  0  0  0  0  0  0  0  0  0
    1.5713   -3.0353   -2.6566 C   0  0  0  0  0  0  0  0  0  0  0  0
    2.4971   -2.5502   -3.0251 H   0  0  0  0  0  0  0  0  0  0  0  0
    1.0501   -3.4781   -3.5309 H   0  0  0  0  0  0  0  0  0  0  0  0
    1.8563   -3.8680   -1.9839 H   0  0  0  0  0  0  0  0  0  0  0  0
    2.4126   -1.9071    0.6909 Si  0  0  0  0  0  0  0  0  0  0  0  0
    4.0383   -2.1202   -0.2352 C   0  0  0  0  0  0  0  0  0  0  0  0
    3.9507   -2.7792   -1.1197 H   0  0  0  0  0  0  0  0  0  0  0  0
    4.8024   -2.5544    0.4425 H   0  0  0  0  0  0  0  0  0  0  0  0
    4.4021   -1.1273   -0.5702 H   0  0  0  0  0  0  0  0  0  0  0  0
    2.7272   -0.8753    2.2315 C   0  0  0  0  0  0  0  0  0  0  0  0
    3.2094    0.0898    1.9825 H   0  0  0  0  0  0  0  0  0  0  0  0
    3.4129   -1.4411    2.8964 H   0  0  0  0  0  0  0  0  0  0  0  0
    1.8019   -0.6577    2.7974 H   0  0  0  0  0  0  0  0  0  0  0  0
    1.6384   -3.5638    1.1600 C   0  0  0  0  0  0  0  0  0  0  0  0
    0.6720   -3.4153    1.6834 H   0  0  0  0  0  0  0  0  0  0  0  0
    2.3158   -4.1131    1.8458 H   0  0  0  0  0  0  0  0  0  0  0  0
    1.4554   -4.2118    0.2800 H   0  0  0  0  0  0  0  0  0  0  0  0
  1  2  1  0  0  0  0
  2  3  1  0  0  0  0
  3  4  2  0  0  0  0
  3  9  1  0  0  0  0
  4 13  1  0  0  0  0
  5  6  1  0  0  0  0
  5  4  1  0  0  0  0
  7  5  2  0  0  0  0
  8  7  1  0  0  0  0
  8  2  2  0  0  0  0
  9 10  1  0  0  0  0
 11  9  1  0  0  0  0
 12  9  1  0  0  0  0
 13 14  1  0  0  0  0
 13 16  1  0  0  0  0
 15 13  1  0  0  0  0
 17 18  1  0  0  0  0
 17  7  1  0  0  0  0
 19 17  1  0  0  0  0
 20 17  1  0  0  0  0
 21 24  1  0  0  0  0
 21 22  1  0  0  0  0
 21  8  1  0  0  0  0
 23 21  1  0  0  0  0
 25  1  2  0  0  0  0
 26 25  1  0  0  0  0
 26 40  1  0  0  0  0
 27 32  1  0  0  0  0
 27 26  1  0  0  0  0
 28 29  1  0  0  0  0
 28 27  1  0  0  0  0
 30 28  1  0  0  0  0
 31 28  1  0  0  0  0
 32 35  1  0  0  0  0
 32 33  1  0  0  0  0
 34 32  1  0  0  0  0
 36 39  1  0  0  0  0
 36 27  1  0  0  0  0
 37 36  1  0  0  0  0
 38 36  1  0  0  0  0
 40 49  1  0  0  0  0
 40 45  1  0  0  0  0
 41 43  1  0  0  0  0
 41 40  1  0  0  0  0
 42 41  1  0  0  0  0
 44 41  1  0  0  0  0
 45 48  1  0  0  0  0
 45 47  1  0  0  0  0
 46 45  1  0  0  0  0
 49 50  1  0  0  0  0
 49 51  1  0  0  0  0
 52 49  1  0  0  0  0
M  END
