3,4,8
 OpenBabel05122313063D

 32 33  0  0  0  0  0  0  0  0999 V2000
   -5.9495    0.5712    0.4118 O   0  0  0  0  0  0  0  0  0  0  0  0
   -3.0385   -2.8968    1.1821 O   0  0  0  0  0  0  0  0  0  0  0  0
    1.5491   -1.2359   -1.2585 N   0  0  0  0  0  1  0  0  0  0  0  0
   -1.5938    0.9076   -1.2362 N   0  0  0  0  0  2  0  0  0  0  0  0
   -1.8102    1.7908   -1.7008 H   0  0  0  0  0  0  0  0  0  0  0  0
   -3.8218    0.7632   -0.4440 N   0  0  0  0  0  0  0  0  0  0  0  0
   -4.4744   -1.1711    0.7523 N   0  0  0  0  0  0  0  0  0  0  0  0
   -0.9207   -1.4622   -0.4477 N   0  0  0  0  0  2  0  0  0  0  0  0
    1.9042   -2.4174   -0.7004 C   0  0  0  0  0  0  0  0  0  0  0  0
    3.2314   -2.9018   -0.7124 C   0  0  0  0  0  0  0  0  0  0  0  0
    4.0086   -2.2996   -1.2038 H   0  0  0  0  0  0  0  0  0  0  0  0
    3.5257   -4.1218   -0.0975 C   0  0  0  0  0  0  0  0  0  0  0  0
    4.5572   -4.5032   -0.1007 H   0  0  0  0  0  0  0  0  0  0  0  0
    2.4965   -4.8635    0.5219 C   0  0  0  0  0  0  0  0  0  0  0  0
    2.7313   -5.8248    1.0031 H   0  0  0  0  0  0  0  0  0  0  0  0
    1.1806   -4.3918    0.5313 C   0  0  0  0  0  0  0  0  0  0  0  0
    0.3851   -4.9730    1.0215 H   0  0  0  0  0  0  0  0  0  0  0  0
    0.8431   -3.1564   -0.0734 C   0  0  0  0  0  0  0  0  0  0  0  0
   -0.4968   -2.6530   -0.0062 C   0  0  0  0  0  3  0  0  0  0  0  0
   -1.2450   -3.2594    0.5276 H   0  0  0  0  0  0  0  0  0  0  0  0
   -2.2379   -1.0606   -0.1602 C   0  0  0  0  0  0  0  0  0  0  0  0
   -2.5626    0.2339   -0.6341 C   0  0  0  0  0  0  0  0  0  0  0  0
   -4.8384    0.0758    0.2550 C   0  0  0  0  0  0  0  0  0  0  0  0
   -3.1993   -1.8008    0.6221 C   0  0  0  0  0  0  0  0  0  0  0  0
   -4.1185    2.1070   -0.9249 C   0  0  0  0  0  0  0  0  0  0  0  0
   -3.4442    2.8472   -0.4461 H   0  0  0  0  0  0  0  0  0  0  0  0
   -5.1651    2.3247   -0.6520 H   0  0  0  0  0  0  0  0  0  0  0  0
   -4.0081    2.1615   -2.0276 H   0  0  0  0  0  0  0  0  0  0  0  0
   -5.4771   -1.9188    1.5080 C   0  0  0  0  0  0  0  0  0  0  0  0
   -6.4148   -1.3396    1.4856 H   0  0  0  0  0  0  0  0  0  0  0  0
   -5.1377   -2.0682    2.5515 H   0  0  0  0  0  0  0  0  0  0  0  0
   -5.6194   -2.9190    1.0565 H   0  0  0  0  0  0  0  0  0  0  0  0
  3  9  1  0  0  0  0
  4 22  1  0  0  0  0
  5  4  1  0  0  0  0
  6 23  1  0  0  0  0
  7 29  1  0  0  0  0
  8 21  1  0  0  0  0
  8 19  1  0  0  0  0
  9 18  1  0  0  0  0
 10  9  2  0  0  0  0
 10 12  1  0  0  0  0
 11 10  1  0  0  0  0
 12 14  2  0  0  0  0
 13 12  1  0  0  0  0
 14 16  1  0  0  0  0
 14 15  1  0  0  0  0
 16 17  1  0  0  0  0
 18 19  1  0  0  0  0
 18 16  2  0  0  0  0
 19 20  1  0  0  0  0
 21 24  1  0  0  0  0
 22  6  1  0  0  0  0
 22 21  2  0  0  0  0
 23  1  2  0  0  0  0
 23  7  1  0  0  0  0
 24  7  1  0  0  0  0
 24  2  2  0  0  0  0
 25 27  1  0  0  0  0
 25 26  1  0  0  0  0
 25  6  1  0  0  0  0
 28 25  1  0  0  0  0
 29 31  1  0  0  0  0
 30 29  1  0  0  0  0
 32 29  1  0  0  0  0
M  END
