1,3,5,6
q = -2.0, confidence = 0.842

 35 35  0  0  1  0  0  0  0  0999 V2000
    1.7213   -1.5869   -0.2042 S   0  0  0  0  0  1  0  0  0  0  0  0
   -3.1718    2.0834    0.0472 O   0  0  0  0  0  0  0  0  0  0  0  0
   -1.3028   -1.0064    0.0010 N   0  0  0  0  0  2  0  0  0  0  0  0
   -3.5193   -1.0063   -0.0119 N   0  0  0  0  0  0  0  0  0  0  0  0
   -0.9049    1.4745    0.0918 N   0  0  0  0  0  2  0  0  0  0  0  0
    1.6588    1.3275    0.1030 N   0  0  0  0  0  0  0  0  0  0  0  0
    1.8161    1.4703    1.1150 H   0  0  0  0  0  0  0  0  0  0  0  0
   -2.4033   -0.2296    0.0069 C   0  0  1  0  0  3  0  0  0  0  0  0
   -1.7194   -2.3148   -0.0199 C   0  0  0  0  0  0  0  0  0  0  0  0
   -1.0077   -3.1471   -0.0274 H   0  0  0  0  0  0  0  0  0  0  0  0
   -3.1064   -2.3294   -0.0295 C   0  0  0  0  0  0  0  0  0  0  0  0
   -3.8230   -3.1563   -0.0491 H   0  0  0  0  0  0  0  0  0  0  0  0
   -4.8867   -0.5035   -0.0112 C   0  0  0  0  0  0  0  0  0  0  0  0
   -4.8287    0.6026    0.0055 H   0  0  0  0  0  0  0  0  0  0  0  0
   -5.4290   -0.8689    0.8832 H   0  0  0  0  0  0  0  0  0  0  0  0
   -5.4193   -0.8412   -0.9222 H   0  0  0  0  0  0  0  0  0  0  0  0
   -2.2390    1.2578    0.0519 C   0  0  0  0  0  0  0  0  0  0  0  0
   -0.2953    2.7835    0.1226 C   0  0  0  0  0  0  0  0  0  0  0  0
   -0.2204    3.1776    1.1669 H   0  0  0  0  0  0  0  0  0  0  0  0
   -0.8808    3.5348   -0.4520 H   0  0  0  0  0  0  0  0  0  0  0  0
    1.1038    2.5889   -0.4669 C   0  0  0  0  0  0  0  0  0  0  0  0
    1.0365    2.4421   -1.5633 H   0  0  0  0  0  0  0  0  0  0  0  0
    1.7840    3.4483   -0.2711 H   0  0  0  0  0  0  0  0  0  0  0  0
    2.9245    0.8425   -0.4967 C   0  0  0  0  0  0  0  0  0  0  0  0
    3.7477    1.5720   -0.3018 H   0  0  0  0  0  0  0  0  0  0  0  0
    2.7661    0.7781   -1.5914 H   0  0  0  0  0  0  0  0  0  0  0  0
    3.2596   -0.5505    0.0478 C   0  0  0  0  0  0  0  0  0  0  0  0
    3.6199   -0.4987    1.5405 C   0  0  0  0  0  0  0  0  0  0  0  0
    4.5188    0.1321    1.7231 H   0  0  0  0  0  0  0  0  0  0  0  0
    3.8291   -1.5199    1.9134 H   0  0  0  0  0  0  0  0  0  0  0  0
    2.7780   -0.1131    2.1519 H   0  0  0  0  0  0  0  0  0  0  0  0
    4.4085   -1.1656   -0.7577 C   0  0  0  0  0  0  0  0  0  0  0  0
    5.3457   -0.5798   -0.6361 H   0  0  0  0  0  0  0  0  0  0  0  0
    4.1536   -1.2141   -1.8347 H   0  0  0  0  0  0  0  0  0  0  0  0
    4.6059   -2.1993   -0.4109 H   0  0  0  0  0  0  0  0  0  0  0  0
  1 27  1  0  0  0  0
  2 17  2  0  0  0  0
  3  8  1  0  0  0  0
  4 13  1  0  0  0  0
  4  8  1  0  0  0  0
  5 18  1  0  0  0  0
  6  7  1  0  0  0  0
  8 17  1  1  0  0  0
  9  3  1  0  0  0  0
 10  9  1  0  0  0  0
 11  9  2  0  0  0  0
 11  4  1  0  0  0  0
 12 11  1  0  0  0  0
 13 14  1  0  0  0  0
 13 15  1  0  0  0  0
 16 13  1  0  0  0  0
 17  5  1  0  0  0  0
 18 19  1  0  0  0  0
 20 18  1  0  0  0  0
 21 23  1  0  0  0  0
 21  6  1  0  0  0  0
 21 18  1  0  0  0  0
 22 21  1  0  0  0  0
 24 25  1  0  0  0  0
 24 27  1  0  0  0  0
 24  6  1  0  0  0  0
 26 24  1  0  0  0  0
 27 28  1  0  0  0  0
 28 29  1  0  0  0  0
 28 30  1  0  0  0  0
 28 31  1  0  0  0  0
 32 33  1  0  0  0  0
 32 35  1  0  0  0  0
 32 27  1  0  0  0  0
 34 32  1  0  0  0  0
M  END
