1,5,10,15
q = -1.0, confidence = 0.426

 49 49  0  0  1  0  0  0  0  0999 V2000
    0.7893    1.6847    0.3686 S   0  0  0  0  0  1  0  0  0  0  0  0
   -0.8918    1.9327   -0.1178 C   0  0  1  0  0  3  0  0  0  0  0  0
   -1.8662    1.0415    0.0222 N   0  0  0  0  0  0  0  0  0  0  0  0
   -1.7920   -0.2837    0.0172 C   0  0  0  0  0  0  0  0  0  0  0  0
   -0.7031   -1.0042   -0.3387 N   0  0  0  0  0  2  0  0  0  0  0  0
   -0.8610   -2.3221   -0.9608 C   0  0  0  0  0  0  0  0  0  0  0  0
   -1.5297   -2.2772   -1.8452 H   0  0  0  0  0  0  0  0  0  0  0  0
   -1.2965   -3.0763   -0.2713 H   0  0  0  0  0  0  0  0  0  0  0  0
    0.5023   -2.8393   -1.4038 C   0  0  0  0  0  0  0  0  0  0  0  0
    1.5271   -2.1123   -0.8320 N   0  0  0  0  0  2  0  0  0  0  0  0
    2.8960   -2.3916   -1.2137 C   0  0  0  0  0  0  0  0  0  0  0  0
    2.9821   -2.5862   -2.3034 H   0  0  0  0  0  0  0  0  0  0  0  0
    3.2882   -3.2997   -0.7039 H   0  0  0  0  0  0  0  0  0  0  0  0
    3.7634   -1.2039   -0.8316 C   0  0  0  0  0  0  0  0  0  0  0  0
    3.0432   -0.2240   -0.1452 N   0  0  0  0  0  2  0  0  0  0  0  0
    3.8045    0.9975    0.1631 C   0  0  0  0  0  0  0  0  0  0  0  0
    4.8458    0.8139   -0.1847 H   0  0  0  0  0  0  0  0  0  0  0  0
    3.4026    1.8500   -0.4307 H   0  0  0  0  0  0  0  0  0  0  0  0
    3.7957    1.3451    1.5810 C   0  0  0  0  0  0  0  0  0  0  0  0
    3.7709    1.6403    2.7672 C   0  0  0  0  0  0  0  0  0  0  0  0
    3.7513    1.8891    3.8184 H   0  0  0  0  0  0  0  0  0  0  0  0
   -1.2290    3.1548   -0.6065 N   0  0  0  0  0  0  0  0  0  0  0  0
   -2.6216    3.4288   -0.9804 C   0  0  0  0  0  0  0  0  0  0  0  0
   -2.7931    4.5141   -0.8304 H   0  0  0  0  0  0  0  0  0  0  0  0
   -3.2696    2.8778   -0.2708 H   0  0  0  0  0  0  0  0  0  0  0  0
   -2.9440    3.0186   -2.4164 C   0  0  0  0  0  0  0  0  0  0  0  0
   -2.2934    3.5407   -3.1471 H   0  0  0  0  0  0  0  0  0  0  0  0
   -3.9966    3.2657   -2.6606 H   0  0  0  0  0  0  0  0  0  0  0  0
   -2.8057    1.9273   -2.5488 H   0  0  0  0  0  0  0  0  0  0  0  0
   -0.2576    4.2408   -0.7604 C   0  0  0  0  0  0  0  0  0  0  0  0
   -0.5988    4.8615   -1.6142 H   0  0  0  0  0  0  0  0  0  0  0  0
    0.7155    3.7946   -1.0495 H   0  0  0  0  0  0  0  0  0  0  0  0
   -0.0965    5.0876    0.5019 C   0  0  0  0  0  0  0  0  0  0  0  0
   -1.0613    5.5330    0.8186 H   0  0  0  0  0  0  0  0  0  0  0  0
    0.6189    5.9138    0.3185 H   0  0  0  0  0  0  0  0  0  0  0  0
    0.2968    4.4719    1.3348 H   0  0  0  0  0  0  0  0  0  0  0  0
   -3.0551   -0.9851    0.3987 C   0  0  0  0  0  0  0  0  0  0  0  0
   -4.2937   -0.5516   -0.1155 C   0  0  0  0  0  0  0  0  0  0  0  0
   -4.3096    0.2871   -0.8269 H   0  0  0  0  0  0  0  0  0  0  0  0
   -5.4803   -1.1893    0.2705 C   0  0  0  0  0  0  0  0  0  0  0  0
   -6.4424   -0.8558   -0.1467 H   0  0  0  0  0  0  0  0  0  0  0  0
   -5.4421   -2.2485    1.1919 C   0  0  0  0  0  0  0  0  0  0  0  0
   -6.3748   -2.7450    1.4995 H   0  0  0  0  0  0  0  0  0  0  0  0
   -4.2132   -2.6685    1.7280 C   0  0  0  0  0  0  0  0  0  0  0  0
   -4.1824   -3.4831    2.4669 H   0  0  0  0  0  0  0  0  0  0  0  0
   -3.0231   -2.0461    1.3294 C   0  0  0  0  0  0  0  0  0  0  0  0
   -2.0612   -2.3562    1.7656 H   0  0  0  0  0  0  0  0  0  0  0  0
    0.6607   -3.7885   -2.1623 O   0  0  0  0  0  0  0  0  0  0  0  0
    4.9540   -1.1251   -1.1160 O   0  0  0  0  0  0  0  0  0  0  0  0
  2  3  1  0  0  0  0
  2  1  1  1  0  0  0
  4  3  2  0  0  0  0
  4 37  1  0  0  0  0
  5  4  1  0  0  0  0
  6  5  1  0  0  0  0
  6  8  1  0  0  0  0
  7  6  1  0  0  0  0
  9  6  1  0  0  0  0
  9 10  1  0  0  0  0
 11 10  1  0  0  0  0
 11 14  1  0  0  0  0
 11 13  1  0  0  0  0
 12 11  1  0  0  0  0
 14 15  1  0  0  0  0
 15 16  1  0  0  0  0
 16 19  1  0  0  0  0
 17 16  1  0  0  0  0
 18 16  1  0  0  0  0
 19 20  3  0  0  0  0
 20 21  1  0  0  0  0
 22  2  1  0  0  0  0
 23 24  1  0  0  0  0
 23 22  1  0  0  0  0
 23 25  1  0  0  0  0
 26 23  1  0  0  0  0
 27 26  1  0  0  0  0
 28 26  1  0  0  0  0
 29 26  1  0  0  0  0
 30 22  1  0  0  0  0
 30 33  1  0  0  0  0
 31 30  1  0  0  0  0
 32 30  1  0  0  0  0
 33 34  1  0  0  0  0
 33 36  1  0  0  0  0
 35 33  1  0  0  0  0
 37 46  1  0  0  0  0
 38 40  1  0  0  0  0
 38 37  2  0  0  0  0
 39 38  1  0  0  0  0
 40 42  2  0  0  0  0
 41 40  1  0  0  0  0
 42 43  1  0  0  0  0
 42 44  1  0  0  0  0
 44 45  1  0  0  0  0
 46 44  2  0  0  0  0
 46 47  1  0  0  0  0
 48  9  2  0  0  0  0
 49 14  2  0  0  0  0
M  END
