1,4,8,11
q = -1.0, confidence = 0.002

 29 29  0  0  1  0  0  0  0  0999 V2000
    0.9063   -1.2489    1.7275 N   0  0  0  0  0  0  0  0  0  0  0  0
    0.8719   -0.2321    2.8043 C   0  0  0  0  0  0  0  0  0  0  0  0
    1.3971    1.0780    2.2202 C   0  0  0  0  0  0  0  0  0  0  0  0
    0.8214    1.2202    0.8913 N   0  0  0  0  0  2  0  0  0  0  0  0
    0.8662    2.4263    0.2886 C   0  0  0  0  0  0  0  0  0  0  0  0
    1.1845    3.4998    0.8130 O   0  0  0  0  0  0  0  0  0  0  0  0
    0.4921    2.4019   -1.2071 C   0  0  0  0  0  0  0  0  0  0  0  0
    0.2561    0.7124   -1.9085 S   0  0  0  0  0  0  0  0  0  0  0  0
   -1.5645    0.6091   -2.0326 C   0  0  0  0  0  0  0  0  0  0  0  0
   -2.2322    0.3760   -0.7102 C   0  0  2  0  0  3  0  0  0  0  0  0
   -1.5112   -0.2608    0.2510 N   0  0  0  0  0  2  0  0  0  0  0  0
   -3.5823    0.7105   -0.5110 C   0  0  0  0  0  0  0  0  0  0  0  0
   -4.2245    0.3361    0.6741 C   0  0  0  0  0  0  0  0  0  0  0  0
   -3.4933   -0.3840    1.6278 C   0  0  0  0  0  0  0  0  0  0  0  0
   -2.1463   -0.6543    1.3739 C   0  0  0  0  0  0  0  0  0  0  0  0
    0.3468   -2.1026    1.8792 H   0  0  0  0  0  0  0  0  0  0  0  0
    1.8781   -1.5766    1.5134 H   0  0  0  0  0  0  0  0  0  0  0  0
   -0.1787   -0.1007    3.1325 H   0  0  0  0  0  0  0  0  0  0  0  0
    1.4598   -0.5599    3.6882 H   0  0  0  0  0  0  0  0  0  0  0  0
    1.1441    1.9455    2.8663 H   0  0  0  0  0  0  0  0  0  0  0  0
    2.5125    1.0480    2.1632 H   0  0  0  0  0  0  0  0  0  0  0  0
   -0.4128    3.0122   -1.3978 H   0  0  0  0  0  0  0  0  0  0  0  0
    1.3302    2.8531   -1.7725 H   0  0  0  0  0  0  0  0  0  0  0  0
   -1.9738    1.4882   -2.5671 H   0  0  0  0  0  0  0  0  0  0  0  0
   -1.7125   -0.2919   -2.6655 H   0  0  0  0  0  0  0  0  0  0  0  0
   -4.1234    1.2485   -1.3028 H   0  0  0  0  0  0  0  0  0  0  0  0
   -5.2814    0.5894    0.8437 H   0  0  0  0  0  0  0  0  0  0  0  0
   -3.9506   -0.7313    2.5649 H   0  0  0  0  0  0  0  0  0  0  0  0
   -1.5517   -1.2145    2.1062 H   0  0  0  0  0  0  0  0  0  0  0  0
  1 16  1  0  0  0  0
  1  2  1  0  0  0  0
  2 18  1  0  0  0  0
  2 19  1  0  0  0  0
  3  2  1  0  0  0  0
  3 20  1  0  0  0  0
  4  3  1  0  0  0  0
  5  6  2  0  0  0  0
  5  4  1  0  0  0  0
  7  5  1  0  0  0  0
  8  7  1  0  0  0  0
  9  8  1  0  0  0  0
 10  9  1  6  0  0  0
 10 12  1  0  0  0  0
 10 11  1  0  0  0  0
 11 15  1  0  0  0  0
 12 13  2  0  0  0  0
 13 27  1  0  0  0  0
 13 14  1  0  0  0  0
 14 28  1  0  0  0  0
 15 14  2  0  0  0  0
 15 29  1  0  0  0  0
 17  1  1  0  0  0  0
 21  3  1  0  0  0  0
 22  7  1  0  0  0  0
 23  7  1  0  0  0  0
 24  9  1  0  0  0  0
 25  9  1  0  0  0  0
 26 12  1  0  0  0  0
M  END
