1,3,4,5
q = -1.0, confidence = 0.002

 29 29  0  0  0  0  0  0  0  0999 V2000
    2.4015   -0.5019    0.3428 S   0  0  0  0  0  0  0  0  0  0  0  0
    1.6548    3.4033    0.3928 O   0  0  0  0  0  0  0  0  0  0  0  0
   -1.7005    0.0421   -0.2280 N   0  0  0  0  0  2  0  0  0  0  0  0
    0.3706    1.5105    0.1281 N   0  0  0  0  0  2  0  0  0  0  0  0
    0.5557   -0.2988   -2.0029 N   0  0  0  0  0  0  0  0  0  0  0  0
   -2.7091   -0.8575   -0.2090 C   0  0  0  0  0  3  0  0  0  0  0  0
   -4.0383   -0.4704   -0.3892 C   0  0  0  0  0  0  0  0  0  0  0  0
   -4.3340    0.8911   -0.5599 C   0  0  0  0  0  0  0  0  0  0  0  0
   -3.2879    1.8192   -0.5246 C   0  0  0  0  0  0  0  0  0  0  0  0
   -1.9693    1.3701   -0.3489 C   0  0  0  0  0  0  0  0  0  0  0  0
   -0.7862    2.2904   -0.2407 C   0  0  0  0  0  0  0  0  0  0  0  0
    1.5104    2.1738    0.4176 C   0  0  0  0  0  0  0  0  0  0  0  0
    2.6698    1.2495    0.8189 C   0  0  0  0  0  0  0  0  0  0  0  0
    2.9136   -0.4545   -1.4257 C   0  0  0  0  0  0  0  0  0  0  0  0
    1.8850    0.2715   -2.2831 C   0  0  0  0  0  0  0  0  0  0  0  0
   -0.1788    0.1737   -2.5451 H   0  0  0  0  0  0  0  0  0  0  0  0
    0.5614   -1.3146   -2.2239 H   0  0  0  0  0  0  0  0  0  0  0  0
   -0.9969    3.0973    0.5001 H   0  0  0  0  0  0  0  0  0  0  0  0
   -0.6375    2.8393   -1.2060 H   0  0  0  0  0  0  0  0  0  0  0  0
    3.6236    1.6073    0.3849 H   0  0  0  0  0  0  0  0  0  0  0  0
    2.7624    1.2328    1.9217 H   0  0  0  0  0  0  0  0  0  0  0  0
    2.9786   -1.5247   -1.7044 H   0  0  0  0  0  0  0  0  0  0  0  0
    3.9212   -0.0010   -1.5006 H   0  0  0  0  0  0  0  0  0  0  0  0
    2.1591    0.1750   -3.3583 H   0  0  0  0  0  0  0  0  0  0  0  0
    1.8653    1.3525   -2.0402 H   0  0  0  0  0  0  0  0  0  0  0  0
   -2.4152   -1.8994   -0.0103 H   0  0  0  0  0  0  0  0  0  0  0  0
   -4.8288   -1.2336   -0.3777 H   0  0  0  0  0  0  0  0  0  0  0  0
   -5.3727    1.2274   -0.6964 H   0  0  0  0  0  0  0  0  0  0  0  0
   -3.4781    2.8987   -0.6136 H   0  0  0  0  0  0  0  0  0  0  0  0
  1 13  1  0  0  0  0
  2 12  2  0  0  0  0
  3  6  1  0  0  0  0
  4 12  1  0  0  0  0
  6 26  1  0  0  0  0
  7 27  1  0  0  0  0
  7  6  1  0  0  0  0
  8  9  1  0  0  0  0
  8  7  2  0  0  0  0
  9 10  2  0  0  0  0
 10 11  1  0  0  0  0
 10  3  1  0  0  0  0
 11  4  1  0  0  0  0
 11 18  1  0  0  0  0
 12 13  1  0  0  0  0
 13 21  1  0  0  0  0
 14  1  1  0  0  0  0
 15 25  1  0  0  0  0
 15  5  1  0  0  0  0
 15 14  1  0  0  0  0
 16  5  1  0  0  0  0
 17  5  1  0  0  0  0
 19 11  1  0  0  0  0
 20 13  1  0  0  0  0
 22 14  1  0  0  0  0
 23 14  1  0  0  0  0
 24 15  1  0  0  0  0
 28  8  1  0  0  0  0
 29  9  1  0  0  0  0
M  END
