1,3,4,5
q = -1.0, confidence = 0.002

 47 48  0  0  1  0  0  0  0  0999 V2000
    0.8346   -1.4608   -0.2424 S   0  0  0  0  0  1  0  0  0  0  0  0
    3.7273   -2.1903   -0.4879 S   0  0  0  0  0  0  0  0  0  0  0  0
    0.8096    1.5528    0.1043 N   0  0  0  0  0  2  0  0  0  0  0  0
   -1.8270    1.6330    0.0771 N   0  0  0  0  0  0  0  0  0  0  0  0
   -2.0108   -0.9292    0.1765 N   0  0  0  0  0  2  0  0  0  0  0  0
   -3.1512   -0.2571   -0.1857 N   0  0  0  0  0  0  0  0  0  0  0  0
    2.8047   -3.7390   -0.6881 C   0  0  0  0  0  0  0  0  0  0  0  0
    2.4873   -0.9775   -0.1933 C   0  0  1  0  0  3  0  0  0  0  0  0
    2.9501    0.3166    0.0535 C   0  0  0  0  0  0  0  0  0  0  0  0
    4.4176    0.6969    0.1244 C   0  0  0  0  0  0  0  0  0  0  0  0
    4.3950    2.0910    0.7762 C   0  0  0  0  0  0  0  0  0  0  0  0
    3.0388    2.6901    0.3651 C   0  0  0  0  0  0  0  0  0  0  0  0
    2.1389    1.4751    0.1816 C   0  0  0  0  0  0  0  0  0  0  0  0
    0.1962    2.8874    0.1799 C   0  0  0  0  0  0  0  0  0  0  0  0
   -1.1698    2.8422   -0.4914 C   0  0  2  0  0  0  0  0  0  0  0  0
   -1.9923    4.1157   -0.3281 C   0  0  0  0  0  0  0  0  0  0  0  0
   -2.9738    1.0898   -0.6680 C   0  0  0  0  0  0  0  0  0  0  0  0
   -2.4143   -2.1484    0.6108 C   0  0  2  0  0  3  0  0  0  0  0  0
   -3.8240   -2.2363    0.4919 C   0  0  0  0  0  0  0  0  0  0  0  0
   -4.2750   -1.0180   -0.0147 C   0  0  0  0  0  0  0  0  0  0  0  0
   -1.4931   -3.1948    1.1425 C   0  0  0  0  0  0  0  0  0  0  0  0
   -5.6464   -0.5301   -0.3394 C   0  0  0  0  0  0  0  0  0  0  0  0
    2.1319   -3.6939   -1.5657 H   0  0  0  0  0  0  0  0  0  0  0  0
    3.5792   -4.5118   -0.8542 H   0  0  0  0  0  0  0  0  0  0  0  0
    2.2279   -3.9815    0.2251 H   0  0  0  0  0  0  0  0  0  0  0  0
    5.0204   -0.0367    0.6988 H   0  0  0  0  0  0  0  0  0  0  0  0
    4.8573    0.7305   -0.8988 H   0  0  0  0  0  0  0  0  0  0  0  0
    4.4247    1.9836    1.8797 H   0  0  0  0  0  0  0  0  0  0  0  0
    5.2512    2.7268    0.4821 H   0  0  0  0  0  0  0  0  0  0  0  0
    2.6432    3.4150    1.1043 H   0  0  0  0  0  0  0  0  0  0  0  0
    3.1134    3.2328   -0.6061 H   0  0  0  0  0  0  0  0  0  0  0  0
    0.0801    3.2095    1.2432 H   0  0  0  0  0  0  0  0  0  0  0  0
    0.8204    3.6563   -0.3183 H   0  0  0  0  0  0  0  0  0  0  0  0
   -1.0146    2.6179   -1.5686 H   0  0  0  0  0  0  0  0  0  0  0  0
   -2.9671    4.0464   -0.8499 H   0  0  0  0  0  0  0  0  0  0  0  0
   -2.1811    4.3406    0.7423 H   0  0  0  0  0  0  0  0  0  0  0  0
   -1.4530    4.9804   -0.7613 H   0  0  0  0  0  0  0  0  0  0  0  0
   -3.9158    1.6577   -0.5184 H   0  0  0  0  0  0  0  0  0  0  0  0
   -2.7144    1.1071   -1.7491 H   0  0  0  0  0  0  0  0  0  0  0  0
   -4.4455   -3.0960    0.7622 H   0  0  0  0  0  0  0  0  0  0  0  0
   -2.0662   -3.9230    1.7457 H   0  0  0  0  0  0  0  0  0  0  0  0
   -0.9935   -3.7489    0.3220 H   0  0  0  0  0  0  0  0  0  0  0  0
   -0.6955   -2.7508    1.7677 H   0  0  0  0  0  0  0  0  0  0  0  0
   -5.7560   -0.2868   -1.4166 H   0  0  0  0  0  0  0  0  0  0  0  0
   -6.3875   -1.3121   -0.0951 H   0  0  0  0  0  0  0  0  0  0  0  0
   -5.9144    0.3771    0.2420 H   0  0  0  0  0  0  0  0  0  0  0  0
   -2.1100    1.8212    1.0549 H   0  0  0  0  0  0  0  0  0  0  0  0
  2  8  1  0  0  0  0
  3 14  1  0  0  0  0
  3 13  1  0  0  0  0
  4 47  1  0  0  0  0
  5 18  1  0  0  0  0
  6 20  1  0  0  0  0
  6  5  1  0  0  0  0
  7  2  1  0  0  0  0
  7 25  1  0  0  0  0
  8  1  1  6  0  0  0
  8  9  1  0  0  0  0
  9 10  1  0  0  0  0
  9 13  2  0  0  0  0
 10 26  1  0  0  0  0
 10 11  1  0  0  0  0
 11 28  1  0  0  0  0
 12 11  1  0  0  0  0
 12 30  1  0  0  0  0
 13 12  1  0  0  0  0
 14 32  1  0  0  0  0
 15 34  1  6  0  0  0
 15 16  1  0  0  0  0
 15  4  1  0  0  0  0
 15 14  1  0  0  0  0
 16 36  1  0  0  0  0
 17 38  1  0  0  0  0
 17  6  1  0  0  0  0
 17  4  1  0  0  0  0
 18 21  1  1  0  0  0
 19 18  1  0  0  0  0
 19 40  1  0  0  0  0
 20 19  2  0  0  0  0
 21 41  1  0  0  0  0
 21 43  1  0  0  0  0
 22 45  1  0  0  0  0
 22 20  1  0  0  0  0
 22 46  1  0  0  0  0
 23  7  1  0  0  0  0
 24  7  1  0  0  0  0
 27 10  1  0  0  0  0
 29 11  1  0  0  0  0
 31 12  1  0  0  0  0
 33 14  1  0  0  0  0
 35 16  1  0  0  0  0
 37 16  1  0  0  0  0
 39 17  1  0  0  0  0
 42 21  1  0  0  0  0
 44 22  1  0  0  0  0
M  END
