43,45,48,53
q = -2.0, confidence = 0.938

 53 55  0  0  0  0  0  0  0  0999 V2000
    1.3155    3.4904    0.0002 C   0  0  0  0  0  0  0  0  0  0  0  0
    1.4635    4.8869    0.0002 C   0  0  0  0  0  0  0  0  0  0  0  0
    2.4654    5.3336    0.0003 H   0  0  0  0  0  0  0  0  0  0  0  0
    0.3171    5.6955    0.0001 C   0  0  0  0  0  0  0  0  0  0  0  0
    0.4129    6.7912    0.0001 H   0  0  0  0  0  0  0  0  0  0  0  0
   -0.9410    5.1021   -0.0001 C   0  0  0  0  0  0  0  0  0  0  0  0
   -1.8431    5.7236   -0.0001 H   0  0  0  0  0  0  0  0  0  0  0  0
   -1.0614    3.6817   -0.0001 C   0  0  0  0  0  0  0  0  0  0  0  0
   -2.3840    3.0643   -0.0003 C   0  0  0  0  0  0  0  0  0  0  0  0
   -3.5957    3.9746   -0.0007 C   0  0  0  0  0  0  0  0  0  0  0  0
   -4.5117    3.3573   -0.0009 H   0  0  0  0  0  0  0  0  0  0  0  0
   -3.6297    4.6315   -0.8954 H   0  0  0  0  0  0  0  0  0  0  0  0
   -3.6302    4.6316    0.8940 H   0  0  0  0  0  0  0  0  0  0  0  0
   -2.6721   -0.5057    0.0004 C   0  0  0  0  0  0  0  0  0  0  0  0
   -5.1487   -1.0837   -0.0000 C   0  0  0  0  0  0  0  0  0  0  0  0
   -6.3970   -0.4112   -0.0011 C   0  0  0  0  0  0  0  0  0  0  0  0
   -6.4161    0.6905   -0.0019 H   0  0  0  0  0  0  0  0  0  0  0  0
   -7.6014   -1.1170   -0.0013 C   0  0  0  0  0  0  0  0  0  0  0  0
   -8.5629   -0.5851   -0.0021 H   0  0  0  0  0  0  0  0  0  0  0  0
   -7.5772   -2.5221   -0.0003 C   0  0  0  0  0  0  0  0  0  0  0  0
   -6.3522   -3.2058    0.0008 C   0  0  0  0  0  0  0  0  0  0  0  0
   -6.3439   -4.3050    0.0016 H   0  0  0  0  0  0  0  0  0  0  0  0
   -5.1444   -2.4972    0.0009 C   0  0  0  0  0  0  0  0  0  0  0  0
   -4.1823   -3.0252    0.0018 H   0  0  0  0  0  0  0  0  0  0  0  0
    2.4399    2.5655    0.0002 C   0  0  0  0  0  0  0  0  0  0  0  0
    3.8813    2.9631    0.0003 C   0  0  0  0  0  0  0  0  0  0  0  0
    4.3954    2.5374    0.8869 H   0  0  0  0  0  0  0  0  0  0  0  0
    4.0202    4.0576    0.0007 H   0  0  0  0  0  0  0  0  0  0  0  0
    4.3954    2.5380   -0.8867 H   0  0  0  0  0  0  0  0  0  0  0  0
    2.5951   -0.8861    0.0001 C   0  0  0  0  0  0  0  0  0  0  0  0
    4.8562   -2.0264   -0.0001 C   0  0  0  0  0  0  0  0  0  0  0  0
    5.7120   -0.9017   -0.0002 C   0  0  0  0  0  0  0  0  0  0  0  0
    5.2684    0.1005   -0.0002 H   0  0  0  0  0  0  0  0  0  0  0  0
    7.1003   -1.0785   -0.0003 C   0  0  0  0  0  0  0  0  0  0  0  0
    7.7671   -0.2047   -0.0004 H   0  0  0  0  0  0  0  0  0  0  0  0
    7.6522   -2.3694   -0.0004 C   0  0  0  0  0  0  0  0  0  0  0  0
    6.8130   -3.4963   -0.0003 C   0  0  0  0  0  0  0  0  0  0  0  0
    7.2491   -4.5048   -0.0003 H   0  0  0  0  0  0  0  0  0  0  0  0
    5.4273   -3.3213   -0.0002 C   0  0  0  0  0  0  0  0  0  0  0  0
    4.7710   -4.2062   -0.0001 H   0  0  0  0  0  0  0  0  0  0  0  0
   -9.0789   -3.4148   -0.0005 Cl  0  0  0  0  0  0  0  0  0  0  0  0
    9.3844   -2.5773   -0.0006 Cl  0  0  0  0  0  0  0  0  0  0  0  0
    0.0612    2.9210    0.0001 N   0  0  0  0  0  2  0  0  0  0  0  0
   -2.6701    1.7791   -0.0002 N   0  0  0  0  0  0  0  0  0  0  0  0
   -1.9000    0.7160    0.0002 N   0  0  0  0  0  2  0  0  0  0  0  0
   -4.0131   -0.2715    0.0000 N   0  0  0  0  0  0  0  0  0  0  0  0
   -4.1692    0.7567   -0.0004 H   0  0  0  0  0  0  0  0  0  0  0  0
    2.1026    1.2781    0.0002 N   0  0  0  0  0  2  0  0  0  0  0  0
    3.0731    0.3588    0.0001 N   0  0  0  0  0  0  0  0  0  0  0  0
    3.4569   -1.9452   -0.0000 N   0  0  0  0  0  0  0  0  0  0  0  0
    2.9701   -2.8464    0.0001 H   0  0  0  0  0  0  0  0  0  0  0  0
   -1.9494   -2.0059    0.0012 S   0  0  0  0  0  0  0  0  0  0  0  0
    0.8785   -1.3394    0.0003 S   0  0  0  0  0  1  0  0  0  0  0  0
  1  2  1  0  0  0  0
  1 25  2  0  0  0  0
  2  3  1  0  0  0  0
  4  5  1  0  0  0  0
  4  2  2  0  0  0  0
  6  4  1  0  0  0  0
  7  6  1  0  0  0  0
  8  6  2  0  0  0  0
  8 43  1  0  0  0  0
  9 44  2  0  0  0  0
  9  8  1  0  0  0  0
 10  9  1  0  0  0  0
 10 13  1  0  0  0  0
 11 10  1  0  0  0  0
 12 10  1  0  0  0  0
 14 52  2  0  0  0  0
 15 46  1  0  0  0  0
 15 23  1  0  0  0  0
 16 15  2  0  0  0  0
 17 16  1  0  0  0  0
 18 16  1  0  0  0  0
 18 20  2  0  0  0  0
 19 18  1  0  0  0  0
 20 21  1  0  0  0  0
 21 23  2  0  0  0  0
 21 22  1  0  0  0  0
 23 24  1  0  0  0  0
 25 26  1  0  0  0  0
 26 28  1  0  0  0  0
 26 27  1  0  0  0  0
 29 26  1  0  0  0  0
 30 53  1  0  0  0  0
 31 50  1  0  0  0  0
 32 33  1  0  0  0  0
 32 31  2  0  0  0  0
 34 32  1  0  0  0  0
 35 34  1  0  0  0  0
 36 34  2  0  0  0  0
 36 37  1  0  0  0  0
 37 39  2  0  0  0  0
 38 37  1  0  0  0  0
 39 31  1  0  0  0  0
 39 40  1  0  0  0  0
 41 20  1  0  0  0  0
 42 36  1  0  0  0  0
 43  1  1  0  0  0  0
 44 45  1  0  0  0  0
 45 14  1  0  0  0  0
 46 14  1  0  0  0  0
 47 46  1  0  0  0  0
 48 25  1  0  0  0  0
 49 30  2  0  0  0  0
 49 48  1  0  0  0  0
 50 51  1  0  0  0  0
 50 30  1  0  0  0  0
M  END
