1,5,6,10
 OpenBabel05122313063D

 55 57  0  0  0  0  0  0  0  0999 V2000
    1.2594    0.3765   -0.8356 S   0  0  0  0  0  1  0  0  0  0  0  0
   -1.1583    2.8643   -2.3892 S   0  0  0  0  0  0  0  0  0  0  0  0
    6.2215   -0.6700    0.2798 O   0  0  0  0  0  0  0  0  0  0  0  0
    0.3722    4.4288    2.3645 O   0  0  0  0  0  0  0  0  0  0  0  0
   -2.1783   -1.6196    0.0925 N   0  0  0  0  0  2  0  0  0  0  0  0
    0.2994   -2.0954    0.0131 N   0  0  0  0  0  2  0  0  0  0  0  0
    1.6352   -2.1982   -0.0664 N   0  0  0  0  0  0  0  0  0  0  0  0
    3.5588   -1.0267   -0.5889 N   0  0  0  0  0  0  0  0  0  0  0  0
   -3.0165    1.0987   -0.5280 N   0  0  0  0  0  0  0  0  0  0  0  0
   -1.7148    0.9879   -0.5270 N   0  0  0  0  0  2  0  0  0  0  0  0
   -0.3598    2.7645    0.1843 N   0  0  0  0  0  0  0  0  0  0  0  0
   -3.4915   -1.2450    0.0495 C   0  0  0  0  0  0  0  0  0  0  0  0
   -4.4996   -2.2081    0.3496 C   0  0  0  0  0  0  0  0  0  0  0  0
   -4.1539   -3.5119    0.6849 C   0  0  0  0  0  0  0  0  0  0  0  0
   -2.7966   -3.8789    0.7180 C   0  0  0  0  0  0  0  0  0  0  0  0
   -1.8253   -2.9182    0.4126 C   0  0  0  0  0  0  0  0  0  0  0  0
   -0.4000   -3.1697    0.3788 C   0  0  0  0  0  0  0  0  0  0  0  0
    0.2740   -4.4640    0.6942 C   0  0  0  0  0  0  0  0  0  0  0  0
    2.2040   -1.0555   -0.4614 C   0  0  0  0  0  0  0  0  0  0  0  0
    4.3942   -2.1863   -0.2832 C   0  0  0  0  0  0  0  0  0  0  0  0
    5.4676   -1.7834    0.7311 C   0  0  0  0  0  0  0  0  0  0  0  0
    5.3866    0.4540    0.0569 C   0  0  0  0  0  0  0  0  0  0  0  0
    4.3081    0.1564   -0.9893 C   0  0  0  0  0  0  0  0  0  0  0  0
   -3.8652    0.1148   -0.2811 C   0  0  0  0  0  0  0  0  0  0  0  0
   -5.3244    0.5065   -0.3420 C   0  0  0  0  0  0  0  0  0  0  0  0
   -1.0625    2.2301   -0.8561 C   0  0  0  0  0  0  0  0  0  0  0  0
    0.5614    3.8799   -0.0047 C   0  0  0  0  0  0  0  0  0  0  0  0
    0.3010    4.9554    1.0471 C   0  0  0  0  0  0  0  0  0  0  0  0
   -0.5800    3.3954    2.5374 C   0  0  0  0  0  0  0  0  0  0  0  0
   -0.3666    2.2439    1.5496 C   0  0  0  0  0  0  0  0  0  0  0  0
    4.7876   -0.0311   -1.9770 H   0  0  0  0  0  0  0  0  0  0  0  0
    3.6115    1.0101   -1.0977 H   0  0  0  0  0  0  0  0  0  0  0  0
    4.8894    0.7690    1.0084 H   0  0  0  0  0  0  0  0  0  0  0  0
    6.0398    1.2802   -0.2879 H   0  0  0  0  0  0  0  0  0  0  0  0
    6.1825   -2.6161    0.8865 H   0  0  0  0  0  0  0  0  0  0  0  0
    4.9765   -1.5524    1.7094 H   0  0  0  0  0  0  0  0  0  0  0  0
    3.7438   -2.9909    0.1044 H   0  0  0  0  0  0  0  0  0  0  0  0
    4.8824   -2.5373   -1.2208 H   0  0  0  0  0  0  0  0  0  0  0  0
   -0.4445   -5.2515    0.9820 H   0  0  0  0  0  0  0  0  0  0  0  0
    0.8627   -4.8155   -0.1786 H   0  0  0  0  0  0  0  0  0  0  0  0
    1.0046   -4.3272    1.5185 H   0  0  0  0  0  0  0  0  0  0  0  0
   -2.4932   -4.9035    0.9690 H   0  0  0  0  0  0  0  0  0  0  0  0
   -4.9341   -4.2513    0.9183 H   0  0  0  0  0  0  0  0  0  0  0  0
   -5.5526   -1.9048    0.3164 H   0  0  0  0  0  0  0  0  0  0  0  0
   -5.8867   -0.0734   -1.1042 H   0  0  0  0  0  0  0  0  0  0  0  0
   -5.8464    0.3725    0.6296 H   0  0  0  0  0  0  0  0  0  0  0  0
   -5.3793    1.5748   -0.6173 H   0  0  0  0  0  0  0  0  0  0  0  0
    1.6020    3.4937    0.0950 H   0  0  0  0  0  0  0  0  0  0  0  0
    0.4131    4.2622   -1.0346 H   0  0  0  0  0  0  0  0  0  0  0  0
   -0.7031    5.4126    0.8641 H   0  0  0  0  0  0  0  0  0  0  0  0
    1.0663    5.7537    0.9763 H   0  0  0  0  0  0  0  0  0  0  0  0
   -0.4725    3.0240    3.5764 H   0  0  0  0  0  0  0  0  0  0  0  0
   -1.6181    3.7935    2.4108 H   0  0  0  0  0  0  0  0  0  0  0  0
   -1.1650    1.4885    1.6552 H   0  0  0  0  0  0  0  0  0  0  0  0
    0.6085    1.7414    1.7455 H   0  0  0  0  0  0  0  0  0  0  0  0
  1 19  1  0  0  0  0
  2 26  2  0  0  0  0
  3 21  1  0  0  0  0
  4 29  1  0  0  0  0
  5 16  1  0  0  0  0
  6 17  1  0  0  0  0
  7  6  1  0  0  0  0
  8 19  1  0  0  0  0
  8 20  1  0  0  0  0
  9 10  1  0  0  0  0
  9 24  2  0  0  0  0
 11 30  1  0  0  0  0
 12  5  1  0  0  0  0
 12 13  2  0  0  0  0
 13 14  1  0  0  0  0
 14 15  2  0  0  0  0
 14 43  1  0  0  0  0
 15 42  1  0  0  0  0
 16 15  1  0  0  0  0
 17 16  2  0  0  0  0
 17 18  1  0  0  0  0
 18 39  1  0  0  0  0
 18 41  1  0  0  0  0
 19  7  2  0  0  0  0
 20 37  1  0  0  0  0
 20 21  1  0  0  0  0
 21 35  1  0  0  0  0
 21 36  1  0  0  0  0
 22  3  1  0  0  0  0
 22 33  1  0  0  0  0
 23  8  1  0  0  0  0
 23 22  1  0  0  0  0
 24 12  1  0  0  0  0
 25 24  1  0  0  0  0
 25 46  1  0  0  0  0
 26 10  1  0  0  0  0
 26 11  1  0  0  0  0
 27 48  1  0  0  0  0
 27 11  1  0  0  0  0
 27 28  1  0  0  0  0
 28  4  1  0  0  0  0
 29 52  1  0  0  0  0
 30 54  1  0  0  0  0
 30 55  1  0  0  0  0
 30 29  1  0  0  0  0
 31 23  1  0  0  0  0
 32 23  1  0  0  0  0
 34 22  1  0  0  0  0
 38 20  1  0  0  0  0
 40 18  1  0  0  0  0
 44 13  1  0  0  0  0
 45 25  1  0  0  0  0
 47 25  1  0  0  0  0
 49 27  1  0  0  0  0
 50 28  1  0  0  0  0
 51 28  1  0  0  0  0
 53 29  1  0  0  0  0
M  END
