1,3,4,9
 OpenBabel05122313063D

 47 49  0  0  0  0  0  0  0  0999 V2000
    0.9693   -1.4407    0.0000 S   0  0  0  0  0  1  0  0  0  0  0  0
   -1.8410   -2.2063    0.0007 S   0  0  0  0  0  0  0  0  0  0  0  0
   -0.0095    2.7819    0.0000 N   0  0  0  0  0  2  0  0  0  0  0  0
   -1.9055    0.5124    0.0002 N   0  0  0  0  0  2  0  0  0  0  0  0
    3.1030    0.3400   -0.0001 N   0  0  0  0  0  0  0  0  0  0  0  0
   -2.7143    1.5466    0.0000 N   0  0  0  0  0  0  0  0  0  0  0  0
   -3.9782   -0.5604    0.0002 N   0  0  0  0  0  0  0  0  0  0  0  0
   -4.1826    0.4583   -0.0000 H   0  0  0  0  0  0  0  0  0  0  0  0
    2.0984    1.2146   -0.0000 N   0  0  0  0  0  2  0  0  0  0  0  0
    3.5655   -1.9533   -0.0003 N   0  0  0  0  0  0  0  0  0  0  0  0
   -2.4324    2.8280   -0.0001 C   0  0  0  0  0  0  0  0  0  0  0  0
   -3.3166    3.4863   -0.0002 H   0  0  0  0  0  0  0  0  0  0  0  0
   -1.1537    3.4983   -0.0000 C   0  0  0  0  0  0  0  0  0  0  0  0
   -5.0196   -2.8306    0.0003 C   0  0  0  0  0  0  0  0  0  0  0  0
   -4.0369   -3.3182    0.0007 H   0  0  0  0  0  0  0  0  0  0  0  0
    2.6713   -0.9246   -0.0002 C   0  0  0  0  0  0  0  0  0  0  0  0
   -2.6306   -0.7410    0.0003 C   0  0  0  0  0  0  0  0  0  0  0  0
    0.1338    5.5658   -0.0000 C   0  0  0  0  0  0  0  0  0  0  0  0
    0.1868    6.6646   -0.0001 H   0  0  0  0  0  0  0  0  0  0  0  0
    1.3154    4.8021    0.0000 C   0  0  0  0  0  0  0  0  0  0  0  0
    2.3060    5.2771    0.0000 H   0  0  0  0  0  0  0  0  0  0  0  0
    1.2179    3.4010    0.0000 C   0  0  0  0  0  0  0  0  0  0  0  0
    2.3533    2.5149    0.0000 C   0  0  0  0  0  0  0  0  0  0  0  0
    3.3946    2.8703   -0.0000 H   0  0  0  0  0  0  0  0  0  0  0  0
   -1.1003    4.9209   -0.0001 C   0  0  0  0  0  0  0  0  0  0  0  0
   -2.0428    5.4867   -0.0001 H   0  0  0  0  0  0  0  0  0  0  0  0
   -6.3545   -0.7915   -0.0005 C   0  0  0  0  0  0  0  0  0  0  0  0
   -6.4098    0.3091   -0.0008 H   0  0  0  0  0  0  0  0  0  0  0  0
   -6.2058   -3.5783    0.0001 C   0  0  0  0  0  0  0  0  0  0  0  0
   -6.1383   -4.6771    0.0003 H   0  0  0  0  0  0  0  0  0  0  0  0
    4.9691   -2.0013   -0.0002 C   0  0  0  0  0  0  0  0  0  0  0  0
   -5.0829   -1.4190   -0.0000 C   0  0  0  0  0  0  0  0  0  0  0  0
    5.7972   -0.8570   -0.0002 C   0  0  0  0  0  0  0  0  0  0  0  0
    5.3312    0.1348   -0.0002 H   0  0  0  0  0  0  0  0  0  0  0  0
   -7.4625   -2.9548   -0.0005 C   0  0  0  0  0  0  0  0  0  0  0  0
   -8.3845   -3.5549   -0.0006 H   0  0  0  0  0  0  0  0  0  0  0  0
    7.1896   -1.0151   -0.0001 C   0  0  0  0  0  0  0  0  0  0  0  0
    7.8257   -0.1167   -0.0001 H   0  0  0  0  0  0  0  0  0  0  0  0
    5.5622   -3.2861   -0.0002 C   0  0  0  0  0  0  0  0  0  0  0  0
    4.9182   -4.1804   -0.0002 H   0  0  0  0  0  0  0  0  0  0  0  0
   -7.5274   -1.5510   -0.0008 C   0  0  0  0  0  0  0  0  0  0  0  0
   -8.5023   -1.0401   -0.0012 H   0  0  0  0  0  0  0  0  0  0  0  0
    7.7791   -2.2890   -0.0001 C   0  0  0  0  0  0  0  0  0  0  0  0
    8.8737   -2.3971   -0.0000 H   0  0  0  0  0  0  0  0  0  0  0  0
    6.9535   -3.4253   -0.0001 C   0  0  0  0  0  0  0  0  0  0  0  0
    7.3953   -4.4331   -0.0001 H   0  0  0  0  0  0  0  0  0  0  0  0
    3.1052   -2.8687   -0.0003 H   0  0  0  0  0  0  0  0  0  0  0  0
  4 17  1  0  0  0  0
  5  9  1  0  0  0  0
  6  4  1  0  0  0  0
  7 17  1  0  0  0  0
  8  7  1  0  0  0  0
  9 23  1  0  0  0  0
 10 31  1  0  0  0  0
 10 16  1  0  0  0  0
 11 13  1  0  0  0  0
 11  6  2  0  0  0  0
 12 11  1  0  0  0  0
 13  3  1  0  0  0  0
 14 15  1  0  0  0  0
 16  5  2  0  0  0  0
 16  1  1  0  0  0  0
 17  2  2  0  0  0  0
 18 20  2  0  0  0  0
 19 18  1  0  0  0  0
 20 22  1  0  0  0  0
 21 20  1  0  0  0  0
 22  3  1  0  0  0  0
 23 22  2  0  0  0  0
 24 23  1  0  0  0  0
 25 18  1  0  0  0  0
 25 13  2  0  0  0  0
 26 25  1  0  0  0  0
 27 32  1  0  0  0  0
 28 27  1  0  0  0  0
 29 14  1  0  0  0  0
 29 30  1  0  0  0  0
 31 33  2  0  0  0  0
 31 39  1  0  0  0  0
 32  7  1  0  0  0  0
 32 14  2  0  0  0  0
 33 37  1  0  0  0  0
 34 33  1  0  0  0  0
 35 29  2  0  0  0  0
 36 35  1  0  0  0  0
 37 38  1  0  0  0  0
 37 43  2  0  0  0  0
 39 45  2  0  0  0  0
 40 39  1  0  0  0  0
 41 27  2  0  0  0  0
 41 35  1  0  0  0  0
 42 41  1  0  0  0  0
 43 44  1  0  0  0  0
 45 43  1  0  0  0  0
 45 46  1  0  0  0  0
 47 10  1  0  0  0  0
M  END
