1,2,3,5
 OpenBabel05122313063D

 75 76  0  0  1  0  0  0  0  0999 V2000
   -2.2490   -0.8150    2.4562 S   0  0  0  0  0  0  0  0  0  0  0  0
   -2.3988   -1.8255   -0.5256 N   0  0  0  0  0  0  0  0  0  0  0  0
    0.3490   -2.0942   -0.4480 N   0  0  0  0  0  2  0  0  0  0  0  0
    2.3186   -0.8881   -0.2231 N   0  0  0  0  0  0  0  0  0  0  0  0
   -1.5498    0.8129   -0.9217 N   0  0  0  0  0  2  0  0  0  0  0  0
   -0.4758    2.6328    0.0560 N   0  0  0  0  0  0  0  0  0  0  0  0
   -4.0225    1.1873    3.3483 C   0  0  0  0  0  0  0  0  0  0  0  0
   -2.9501    0.8845    2.3140 C   0  0  0  0  0  0  0  0  0  0  0  0
   -3.5562   -1.8517    1.7051 C   0  0  0  0  0  0  0  0  0  0  0  0
   -3.6758   -1.6992    0.1880 C   0  0  0  0  0  0  0  0  0  0  0  0
   -1.8263   -3.1798   -0.5275 C   0  0  0  0  0  0  0  0  0  0  0  0
   -0.3600   -3.1525   -0.9172 C   0  0  2  0  0  3  0  0  0  0  0  0
    0.2136   -4.1589   -1.6866 C   0  0  0  0  0  0  0  0  0  0  0  0
    1.5974   -4.0636   -1.9646 C   0  0  0  0  0  0  0  0  0  0  0  0
    2.3374   -2.9948   -1.4874 C   0  0  0  0  0  0  0  0  0  0  0  0
    1.6934   -1.9790   -0.7107 C   0  0  0  0  0  0  0  0  0  0  0  0
    3.7171   -0.5390   -0.3897 C   0  0  0  0  0  0  0  0  0  0  0  0
    4.6383   -0.8973    0.8102 C   0  0  0  0  0  0  0  0  0  0  0  0
    4.1125   -0.2192    2.0880 C   0  0  0  0  0  0  0  0  0  0  0  0
    6.0437   -0.3662    0.4813 C   0  0  0  0  0  0  0  0  0  0  0  0
    4.6893   -2.4203    1.0168 C   0  0  0  0  0  0  0  0  0  0  0  0
   -2.4629   -1.2365   -1.8733 C   0  0  0  0  0  0  0  0  0  0  0  0
   -2.3885    0.2771   -1.8472 C   0  0  2  0  0  3  0  0  0  0  0  0
   -3.0716    1.0477   -2.7820 C   0  0  0  0  0  0  0  0  0  0  0  0
   -2.8411    2.4421   -2.7760 C   0  0  0  0  0  0  0  0  0  0  0  0
   -1.9691    3.0028   -1.8582 C   0  0  0  0  0  0  0  0  0  0  0  0
   -1.3112    2.1680   -0.8977 C   0  0  0  0  0  0  0  0  0  0  0  0
    0.0975    3.9660    0.1079 C   0  0  0  0  0  0  0  0  0  0  0  0
    0.0002    4.3572    1.1442 H   0  0  0  0  0  0  0  0  0  0  0  0
   -0.4864    4.6518   -0.5350 H   0  0  0  0  0  0  0  0  0  0  0  0
    1.5967    4.0303   -0.3079 C   0  0  0  0  0  0  0  0  0  0  0  0
    2.4669    3.3658    0.7757 C   0  0  0  0  0  0  0  0  0  0  0  0
    2.3914    3.9135    1.7381 H   0  0  0  0  0  0  0  0  0  0  0  0
    3.5346    3.3689    0.4747 H   0  0  0  0  0  0  0  0  0  0  0  0
    2.1621    2.3154    0.9584 H   0  0  0  0  0  0  0  0  0  0  0  0
    1.8028    3.3142   -1.6538 C   0  0  0  0  0  0  0  0  0  0  0  0
    1.5865    2.2291   -1.5732 H   0  0  0  0  0  0  0  0  0  0  0  0
    2.8530    3.4229   -1.9924 H   0  0  0  0  0  0  0  0  0  0  0  0
    1.1506    3.7346   -2.4473 H   0  0  0  0  0  0  0  0  0  0  0  0
    1.9751    5.5156   -0.4352 C   0  0  0  0  0  0  0  0  0  0  0  0
   -3.6403    1.0579    4.3795 H   0  0  0  0  0  0  0  0  0  0  0  0
   -4.9135    0.5388    3.2270 H   0  0  0  0  0  0  0  0  0  0  0  0
   -4.3635    2.2366    3.2360 H   0  0  0  0  0  0  0  0  0  0  0  0
   -2.0554    1.5297    2.4293 H   0  0  0  0  0  0  0  0  0  0  0  0
   -3.3053    1.0293    1.2733 H   0  0  0  0  0  0  0  0  0  0  0  0
   -4.5254   -1.6204    2.1899 H   0  0  0  0  0  0  0  0  0  0  0  0
   -3.2954   -2.8861    2.0068 H   0  0  0  0  0  0  0  0  0  0  0  0
    1.7442   -0.2742    0.4172 H   0  0  0  0  0  0  0  0  0  0  0  0
   -4.0833   -0.6957   -0.0525 H   0  0  0  0  0  0  0  0  0  0  0  0
   -4.4225   -2.4387   -0.1888 H   0  0  0  0  0  0  0  0  0  0  0  0
   -2.3868   -3.8714   -1.1970 H   0  0  0  0  0  0  0  0  0  0  0  0
   -1.9119   -3.5901    0.5012 H   0  0  0  0  0  0  0  0  0  0  0  0
   -0.0204    1.8983    0.6687 H   0  0  0  0  0  0  0  0  0  0  0  0
    3.4118   -2.9258   -1.6927 H   0  0  0  0  0  0  0  0  0  0  0  0
    2.0921   -4.8421   -2.5646 H   0  0  0  0  0  0  0  0  0  0  0  0
   -0.3931   -4.9946   -2.0602 H   0  0  0  0  0  0  0  0  0  0  0  0
    3.7624    0.5603   -0.5476 H   0  0  0  0  0  0  0  0  0  0  0  0
    4.1147   -1.0004   -1.3166 H   0  0  0  0  0  0  0  0  0  0  0  0
    4.7793   -0.4348    2.9468 H   0  0  0  0  0  0  0  0  0  0  0  0
    3.0987   -0.5843    2.3507 H   0  0  0  0  0  0  0  0  0  0  0  0
    4.0584    0.8824    1.9680 H   0  0  0  0  0  0  0  0  0  0  0  0
    6.4463   -0.8290   -0.4435 H   0  0  0  0  0  0  0  0  0  0  0  0
    6.0368    0.7340    0.3362 H   0  0  0  0  0  0  0  0  0  0  0  0
    6.7512   -0.5920    1.3040 H   0  0  0  0  0  0  0  0  0  0  0  0
    3.6818   -2.8402    1.2144 H   0  0  0  0  0  0  0  0  0  0  0  0
    5.3305   -2.6733    1.8852 H   0  0  0  0  0  0  0  0  0  0  0  0
    5.1124   -2.9381    0.1315 H   0  0  0  0  0  0  0  0  0  0  0  0
   -1.5857   -1.6130   -2.4426 H   0  0  0  0  0  0  0  0  0  0  0  0
   -3.3686   -1.5692   -2.4280 H   0  0  0  0  0  0  0  0  0  0  0  0
   -3.7478    0.5777   -3.5088 H   0  0  0  0  0  0  0  0  0  0  0  0
   -3.3550    3.0890   -3.5028 H   0  0  0  0  0  0  0  0  0  0  0  0
   -1.7905    4.0844   -1.8576 H   0  0  0  0  0  0  0  0  0  0  0  0
    3.0533    5.6271   -0.6671 H   0  0  0  0  0  0  0  0  0  0  0  0
    1.4034    6.0133   -1.2457 H   0  0  0  0  0  0  0  0  0  0  0  0
    1.7783    6.0652    0.5086 H   0  0  0  0  0  0  0  0  0  0  0  0
  2 10  1  0  0  0  0
  4 48  1  0  0  0  0
  5 27  1  0  0  0  0
  6 28  1  0  0  0  0
  6 53  1  0  0  0  0
  7 41  1  0  0  0  0
  8 44  1  0  0  0  0
  8  1  1  0  0  0  0
  8  7  1  0  0  0  0
  9 47  1  0  0  0  0
  9 46  1  0  0  0  0
  9  1  1  0  0  0  0
 10  9  1  0  0  0  0
 11  2  1  0  0  0  0
 11 52  1  0  0  0  0
 12 11  1  1  0  0  0
 12  3  1  0  0  0  0
 13 12  1  0  0  0  0
 14 13  2  0  0  0  0
 14 15  1  0  0  0  0
 15 16  2  0  0  0  0
 16  3  1  0  0  0  0
 16  4  1  0  0  0  0
 17  4  1  0  0  0  0
 17 18  1  0  0  0  0
 18 21  1  0  0  0  0
 18 19  1  0  0  0  0
 19 60  1  0  0  0  0
 19 59  1  0  0  0  0
 20 18  1  0  0  0  0
 20 64  1  0  0  0  0
 21 65  1  0  0  0  0
 21 66  1  0  0  0  0
 22  2  1  0  0  0  0
 23 22  1  6  0  0  0
 23  5  1  0  0  0  0
 24 25  2  0  0  0  0
 24 23  1  0  0  0  0
 25 26  1  0  0  0  0
 26 72  1  0  0  0  0
 26 27  2  0  0  0  0
 27  6  1  0  0  0  0
 28 29  1  0  0  0  0
 30 28  1  0  0  0  0
 31 28  1  0  0  0  0
 31 32  1  0  0  0  0
 32 35  1  0  0  0  0
 32 33  1  0  0  0  0
 34 32  1  0  0  0  0
 36 37  1  0  0  0  0
 36 31  1  0  0  0  0
 38 36  1  0  0  0  0
 39 36  1  0  0  0  0
 40 31  1  0  0  0  0
 40 75  1  0  0  0  0
 42  7  1  0  0  0  0
 43  7  1  0  0  0  0
 45  8  1  0  0  0  0
 49 10  1  0  0  0  0
 50 10  1  0  0  0  0
 51 11  1  0  0  0  0
 54 15  1  0  0  0  0
 55 14  1  0  0  0  0
 56 13  1  0  0  0  0
 57 17  1  0  0  0  0
 58 17  1  0  0  0  0
 61 19  1  0  0  0  0
 62 20  1  0  0  0  0
 63 20  1  0  0  0  0
 67 21  1  0  0  0  0
 68 22  1  0  0  0  0
 69 22  1  0  0  0  0
 70 24  1  0  0  0  0
 71 25  1  0  0  0  0
 73 40  1  0  0  0  0
 74 40  1  0  0  0  0
M  END
