1,5,10,15
 OpenBabel05122313063D

 50 50  0  0  1  0  0  0  0  0999 V2000
    0.7200    1.2889   -0.8535 S   0  0  0  0  0  1  0  0  0  0  0  0
   -0.7968    1.9590   -0.2300 C   0  0  2  0  0  3  0  0  0  0  0  0
   -1.8964    1.2405   -0.0736 N   0  0  0  0  0  2  0  0  0  0  0  0
   -2.0175   -0.0693    0.1175 C   0  0  1  0  0  3  0  0  0  0  0  0
   -1.0478   -0.8506    0.6344 N   0  0  0  0  0  2  0  0  0  0  0  0
   -1.3505   -2.1749    1.1836 C   0  0  0  0  0  0  0  0  0  0  0  0
   -2.3534   -2.5570    0.9218 H   0  0  0  0  0  0  0  0  0  0  0  0
   -1.3005   -2.1183    2.2954 H   0  0  0  0  0  0  0  0  0  0  0  0
   -0.2882   -3.1809    0.7338 C   0  0  0  0  0  0  0  0  0  0  0  0
    0.8650   -2.5258    0.3458 N   0  0  0  0  0  2  0  0  0  0  0  0
    2.0045   -3.2697   -0.1515 C   0  0  0  0  0  0  0  0  0  0  0  0
    1.7035   -4.0166   -0.9163 H   0  0  0  0  0  0  0  0  0  0  0  0
    2.5082   -3.8413    0.6596 H   0  0  0  0  0  0  0  0  0  0  0  0
    3.0030   -2.2947   -0.7594 C   0  0  0  0  0  0  0  0  0  0  0  0
    2.6004   -0.9634   -0.6195 N   0  0  0  0  0  2  0  0  0  0  0  0
    3.4615    0.0236   -1.2586 C   0  0  0  0  0  0  0  0  0  0  0  0
    2.9434    0.5715   -2.0711 H   0  0  0  0  0  0  0  0  0  0  0  0
    4.3151   -0.5344   -1.7082 H   0  0  0  0  0  0  0  0  0  0  0  0
    4.0198    1.0619   -0.3003 C   0  0  0  0  0  0  0  0  0  0  0  0
    4.4260    0.5040    0.8646 O   0  0  0  0  0  0  0  0  0  0  0  0
    4.7474    1.2490    1.4173 H   0  0  0  0  0  0  0  0  0  0  0  0
    4.1169    2.2520   -0.5384 O   0  0  0  0  0  0  0  0  0  0  0  0
   -0.8436    3.2922    0.0126 N   0  0  0  0  0  0  0  0  0  0  0  0
   -2.0922    3.8914    0.4963 C   0  0  0  0  0  0  0  0  0  0  0  0
   -2.9286    3.3565    0.0039 H   0  0  0  0  0  0  0  0  0  0  0  0
   -2.1080    4.9442    0.1482 H   0  0  0  0  0  0  0  0  0  0  0  0
   -2.2367    3.8135    2.0155 C   0  0  0  0  0  0  0  0  0  0  0  0
   -2.2566    2.7574    2.3496 H   0  0  0  0  0  0  0  0  0  0  0  0
   -3.1805    4.2968    2.3385 H   0  0  0  0  0  0  0  0  0  0  0  0
   -1.3983    4.3239    2.5313 H   0  0  0  0  0  0  0  0  0  0  0  0
    0.3933    4.7824   -1.5690 C   0  0  0  0  0  0  0  0  0  0  0  0
    0.5207    3.9886   -2.3314 H   0  0  0  0  0  0  0  0  0  0  0  0
    1.2647    5.4632   -1.6380 H   0  0  0  0  0  0  0  0  0  0  0  0
   -0.5187    5.3633   -1.8156 H   0  0  0  0  0  0  0  0  0  0  0  0
    0.3157    4.1720   -0.1705 C   0  0  0  0  0  0  0  0  0  0  0  0
    1.2339    3.5846    0.0357 H   0  0  0  0  0  0  0  0  0  0  0  0
    0.2473    4.9629    0.6048 H   0  0  0  0  0  0  0  0  0  0  0  0
   -3.3530   -0.6224   -0.2674 C   0  0  0  0  0  0  0  0  0  0  0  0
   -4.5305    0.0430    0.1295 C   0  0  0  0  0  0  0  0  0  0  0  0
   -4.4470    0.9380    0.7630 H   0  0  0  0  0  0  0  0  0  0  0  0
   -5.7837   -0.4361   -0.2746 C   0  0  0  0  0  0  0  0  0  0  0  0
   -6.6983    0.0816    0.0517 H   0  0  0  0  0  0  0  0  0  0  0  0
   -5.8726   -1.5707   -1.0973 C   0  0  0  0  0  0  0  0  0  0  0  0
   -6.8568   -1.9438   -1.4185 H   0  0  0  0  0  0  0  0  0  0  0  0
   -4.7024   -2.2253   -1.5152 C   0  0  0  0  0  0  0  0  0  0  0  0
   -4.7654   -3.1049   -2.1732 H   0  0  0  0  0  0  0  0  0  0  0  0
   -3.4481   -1.7592   -1.0993 C   0  0  0  0  0  0  0  0  0  0  0  0
   -2.5325   -2.2660   -1.4405 H   0  0  0  0  0  0  0  0  0  0  0  0
   -0.4327   -4.3962    0.7499 O   0  0  0  0  0  0  0  0  0  0  0  0
    4.0337   -2.6527   -1.3181 O   0  0  0  0  0  0  0  0  0  0  0  0
  2  1  1  6  0  0  0
  2  3  1  0  0  0  0
  2 23  1  0  0  0  0
  4  3  1  1  0  0  0
  4  5  1  0  0  0  0
  5  6  1  0  0  0  0
  6  8  1  0  0  0  0
  7  6  1  0  0  0  0
  9 49  2  0  0  0  0
  9  6  1  0  0  0  0
 10  9  1  0  0  0  0
 11 10  1  0  0  0  0
 11 13  1  0  0  0  0
 12 11  1  0  0  0  0
 14 15  1  0  0  0  0
 14 11  1  0  0  0  0
 16 15  1  0  0  0  0
 16 19  1  0  0  0  0
 17 16  1  0  0  0  0
 18 16  1  0  0  0  0
 19 20  1  0  0  0  0
 20 21  1  0  0  0  0
 22 19  2  0  0  0  0
 23 24  1  0  0  0  0
 24 27  1  0  0  0  0
 25 24  1  0  0  0  0
 26 24  1  0  0  0  0
 27 29  1  0  0  0  0
 27 28  1  0  0  0  0
 27 30  1  0  0  0  0
 31 35  1  0  0  0  0
 32 31  1  0  0  0  0
 33 31  1  0  0  0  0
 34 31  1  0  0  0  0
 35 23  1  0  0  0  0
 35 36  1  0  0  0  0
 35 37  1  0  0  0  0
 38  4  1  0  0  0  0
 38 39  1  0  0  0  0
 39 40  1  0  0  0  0
 41 42  1  0  0  0  0
 41 39  2  0  0  0  0
 43 41  1  0  0  0  0
 44 43  1  0  0  0  0
 45 47  1  0  0  0  0
 45 43  2  0  0  0  0
 46 45  1  0  0  0  0
 47 38  2  0  0  0  0
 48 47  1  0  0  0  0
 50 14  2  0  0  0  0
M  END
