1,4,5,7
 OpenBabel05122313063D

 60 61  0  0  1  0  0  0  0  0999 V2000
    1.1144    1.7250   -0.4067 S   0  0  0  0  0  1  0  0  0  0  0  0
    4.0647    2.2336   -0.3678 S   0  0  0  0  0  0  0  0  0  0  0  0
   -1.3758   -1.2690    1.5500 O   0  0  0  0  0  0  0  0  0  0  0  0
    0.8439   -1.2826   -0.6999 N   0  0  0  0  0  2  0  0  0  0  0  0
   -1.9070   -1.2412   -0.7064 N   0  0  0  0  0  0  0  0  0  0  0  0
   -2.9942    0.8346   -0.6526 N   0  0  0  0  0  0  0  0  0  0  0  0
   -1.8210    1.3475   -0.1579 N   0  0  0  0  0  2  0  0  0  0  0  0
    2.7207    1.0964   -0.3869 C   0  0  2  0  0  3  0  0  0  0  0  0
    3.0689   -0.2552   -0.3980 C   0  0  0  0  0  0  0  0  0  0  0  0
    4.4956   -0.7693   -0.3422 C   0  0  0  0  0  0  0  0  0  0  0  0
    4.3231   -2.2615   -0.0066 C   0  0  0  0  0  0  0  0  0  0  0  0
    2.9606   -2.6400   -0.6129 C   0  0  0  0  0  0  0  0  0  0  0  0
    2.1672   -1.3420   -0.5660 C   0  0  0  0  0  0  0  0  0  0  0  0
    0.1238   -2.5437   -0.9403 C   0  0  0  0  0  0  0  0  0  0  0  0
   -1.2285   -2.2509   -1.5804 C   0  0  1  0  0  0  0  0  0  0  0  0
   -2.0560   -3.4969   -1.8899 C   0  0  0  0  0  0  0  0  0  0  0  0
   -2.9123   -0.4084   -1.3831 C   0  0  0  0  0  0  0  0  0  0  0  0
   -5.4694    1.2862   -0.7314 C   0  0  0  0  0  0  0  0  0  0  0  0
   -4.0729    1.6090   -0.3180 C   0  0  2  0  0  3  0  0  0  0  0  0
   -3.5567    2.6657    0.4305 C   0  0  0  0  0  0  0  0  0  0  0  0
   -2.1561    2.4680    0.5232 C   0  0  0  0  0  0  0  0  0  0  0  0
   -1.1725    3.3153    1.2588 C   0  0  0  0  0  0  0  0  0  0  0  0
    3.2749    3.8636   -0.2674 C   0  0  0  0  0  0  0  0  0  0  0  0
   -2.3252   -1.7198    0.6334 C   0  0  0  0  0  0  0  0  0  0  0  0
   -1.3127   -1.9747    2.7930 C   0  0  0  0  0  0  0  0  0  0  0  0
   -0.2002   -1.3624    3.6313 C   0  0  0  0  0  0  0  0  0  0  0  0
    1.1703   -1.3844    2.9521 C   0  0  0  0  0  0  0  0  0  0  0  0
    4.9978   -0.6275   -1.3267 H   0  0  0  0  0  0  0  0  0  0  0  0
    5.1140   -0.2290    0.4042 H   0  0  0  0  0  0  0  0  0  0  0  0
    5.1505   -2.8944   -0.3792 H   0  0  0  0  0  0  0  0  0  0  0  0
    4.2760   -2.3884    1.0946 H   0  0  0  0  0  0  0  0  0  0  0  0
    3.0646   -2.9640   -1.6745 H   0  0  0  0  0  0  0  0  0  0  0  0
    2.4611   -3.4698   -0.0741 H   0  0  0  0  0  0  0  0  0  0  0  0
    0.6966   -3.2093   -1.6180 H   0  0  0  0  0  0  0  0  0  0  0  0
   -0.0160   -3.1013    0.0153 H   0  0  0  0  0  0  0  0  0  0  0  0
   -1.0274   -1.7080   -2.5284 H   0  0  0  0  0  0  0  0  0  0  0  0
   -3.0418   -3.2344   -2.3223 H   0  0  0  0  0  0  0  0  0  0  0  0
   -1.5272   -4.1197   -2.6373 H   0  0  0  0  0  0  0  0  0  0  0  0
   -2.2238   -4.1301   -0.9958 H   0  0  0  0  0  0  0  0  0  0  0  0
   -2.5651   -0.2395   -2.4247 H   0  0  0  0  0  0  0  0  0  0  0  0
   -3.9248   -0.8646   -1.4176 H   0  0  0  0  0  0  0  0  0  0  0  0
   -5.7982    0.2950   -0.3543 H   0  0  0  0  0  0  0  0  0  0  0  0
   -6.1624    2.0432   -0.3224 H   0  0  0  0  0  0  0  0  0  0  0  0
   -5.5867    1.2838   -1.8349 H   0  0  0  0  0  0  0  0  0  0  0  0
   -4.1286    3.4877    0.8727 H   0  0  0  0  0  0  0  0  0  0  0  0
   -0.4293    2.6924    1.7922 H   0  0  0  0  0  0  0  0  0  0  0  0
   -0.6090    3.9755    0.5685 H   0  0  0  0  0  0  0  0  0  0  0  0
   -1.7020    3.9562    1.9876 H   0  0  0  0  0  0  0  0  0  0  0  0
    2.6602    3.9543    0.6490 H   0  0  0  0  0  0  0  0  0  0  0  0
    4.1139    4.5841   -0.2245 H   0  0  0  0  0  0  0  0  0  0  0  0
    2.6582    4.0666   -1.1636 H   0  0  0  0  0  0  0  0  0  0  0  0
   -2.3979   -2.8331    0.6391 H   0  0  0  0  0  0  0  0  0  0  0  0
   -3.3413   -1.3134    0.8549 H   0  0  0  0  0  0  0  0  0  0  0  0
   -2.2908   -1.9096    3.3243 H   0  0  0  0  0  0  0  0  0  0  0  0
   -1.1111   -3.0566    2.5907 H   0  0  0  0  0  0  0  0  0  0  0  0
   -0.4843   -0.3174    3.8801 H   0  0  0  0  0  0  0  0  0  0  0  0
   -0.1716   -1.9131    4.5952 H   0  0  0  0  0  0  0  0  0  0  0  0
    1.9516   -0.9714    3.6193 H   0  0  0  0  0  0  0  0  0  0  0  0
    1.4733   -2.4194    2.6849 H   0  0  0  0  0  0  0  0  0  0  0  0
    1.1658   -0.7829    2.0221 H   0  0  0  0  0  0  0  0  0  0  0  0
  2 23  1  0  0  0  0
  3 25  1  0  0  0  0
  4 13  1  0  0  0  0
  5 24  1  0  0  0  0
  6 19  1  0  0  0  0
  6  7  1  0  0  0  0
  7 21  1  0  0  0  0
  8  1  1  6  0  0  0
  8  2  1  0  0  0  0
  9  8  1  0  0  0  0
  9 10  1  0  0  0  0
 10 11  1  0  0  0  0
 10 29  1  0  0  0  0
 11 31  1  0  0  0  0
 12 13  1  0  0  0  0
 12 33  1  0  0  0  0
 12 11  1  0  0  0  0
 13  9  2  0  0  0  0
 14  4  1  0  0  0  0
 14 35  1  0  0  0  0
 15 36  1  6  0  0  0
 15 14  1  0  0  0  0
 15  5  1  0  0  0  0
 16 15  1  0  0  0  0
 16 39  1  0  0  0  0
 17  5  1  0  0  0  0
 17  6  1  0  0  0  0
 18 42  1  0  0  0  0
 18 43  1  0  0  0  0
 19 18  1  6  0  0  0
 19 20  1  0  0  0  0
 20 21  2  0  0  0  0
 20 45  1  0  0  0  0
 21 22  1  0  0  0  0
 22 46  1  0  0  0  0
 22 48  1  0  0  0  0
 23 50  1  0  0  0  0
 23 49  1  0  0  0  0
 24 52  1  0  0  0  0
 24 53  1  0  0  0  0
 24  3  1  0  0  0  0
 25 54  1  0  0  0  0
 25 26  1  0  0  0  0
 26 56  1  0  0  0  0
 26 57  1  0  0  0  0
 27 58  1  0  0  0  0
 27 26  1  0  0  0  0
 28 10  1  0  0  0  0
 30 11  1  0  0  0  0
 32 12  1  0  0  0  0
 34 14  1  0  0  0  0
 37 16  1  0  0  0  0
 38 16  1  0  0  0  0
 40 17  1  0  0  0  0
 41 17  1  0  0  0  0
 44 18  1  0  0  0  0
 47 22  1  0  0  0  0
 51 23  1  0  0  0  0
 55 25  1  0  0  0  0
 59 27  1  0  0  0  0
 60 27  1  0  0  0  0
M  END
