1,8,14,20
 OpenBabel05122313063D

 28 28  0  0  0  0  0  0  0  0999 V2000
   -1.0970   -1.4201   -0.2076 N   0  0  0  0  0  2  0  0  0  0  0  0
   -1.1464   -2.8127   -0.6044 C   0  0  0  0  0  0  0  0  0  0  0  0
   -1.7327   -3.4288    0.1192 H   0  0  0  0  0  0  0  0  0  0  0  0
   -0.1210   -3.2256   -0.6446 H   0  0  0  0  0  0  0  0  0  0  0  0
   -1.6156   -2.9475   -1.6083 H   0  0  0  0  0  0  0  0  0  0  0  0
   -2.2869   -0.6982   -0.2733 C   0  0  0  0  0  0  0  0  0  0  0  0
   -2.1487    0.7180   -0.1003 C   0  0  0  0  0  0  0  0  0  0  0  0
   -0.8060    1.0933    0.0975 N   0  0  0  0  0  2  0  0  0  0  0  0
   -0.3229    2.3935    0.0298 C   0  0  0  0  0  0  0  0  0  0  0  0
   -0.9993    3.4215   -0.0171 O   0  0  0  0  0  0  0  0  0  0  0  0
    1.2092    2.4255   -0.0021 C   0  0  0  0  0  0  0  0  0  0  0  0
    1.5394    3.0681   -0.8463 H   0  0  0  0  0  0  0  0  0  0  0  0
    1.5693    2.9345    0.9224 H   0  0  0  0  0  0  0  0  0  0  0  0
    1.7433    1.0780   -0.1225 N   0  0  0  0  0  2  0  0  0  0  0  0
    2.9853    0.9273   -0.6977 C   0  0  0  0  0  0  0  0  0  0  0  0
    3.7173    1.8675   -1.0247 O   0  0  0  0  0  0  0  0  0  0  0  0
    3.4030   -0.5306   -0.8944 C   0  0  0  0  0  0  0  0  0  0  0  0
    4.1641   -0.7846   -0.1259 H   0  0  0  0  0  0  0  0  0  0  0  0
    3.8932   -0.6184   -1.8848 H   0  0  0  0  0  0  0  0  0  0  0  0
    1.9817   -1.7067   -0.7629 S   0  0  0  0  0  1  0  0  0  0  0  0
   -3.5709   -1.2300   -0.5244 C   0  0  0  0  0  0  0  0  0  0  0  0
   -3.6993   -2.3125   -0.6639 H   0  0  0  0  0  0  0  0  0  0  0  0
   -4.6900   -0.3779   -0.5815 C   0  0  0  0  0  0  0  0  0  0  0  0
   -5.6871   -0.8095   -0.7664 H   0  0  0  0  0  0  0  0  0  0  0  0
   -4.5440    1.0051   -0.4022 C   0  0  0  0  0  0  0  0  0  0  0  0
   -5.4234    1.6666   -0.4491 H   0  0  0  0  0  0  0  0  0  0  0  0
   -3.2703    1.5600   -0.1644 C   0  0  0  0  0  0  0  0  0  0  0  0
   -3.1180    2.6386   -0.0384 H   0  0  0  0  0  0  0  0  0  0  0  0
  2  1  1  0  0  0  0
  2  3  1  0  0  0  0
  4  2  1  0  0  0  0
  5  2  1  0  0  0  0
  6  1  1  0  0  0  0
  6  7  1  0  0  0  0
  7  8  1  0  0  0  0
  9  8  1  0  0  0  0
 10  9  2  0  0  0  0
 11  9  1  0  0  0  0
 11 13  1  0  0  0  0
 12 11  1  0  0  0  0
 14 11  1  0  0  0  0
 15 14  1  0  0  0  0
 16 15  2  0  0  0  0
 17 20  1  0  0  0  0
 17 15  1  0  0  0  0
 17 18  1  0  0  0  0
 19 17  1  0  0  0  0
 21  6  2  0  0  0  0
 22 21  1  0  0  0  0
 23 21  1  0  0  0  0
 23 25  2  0  0  0  0
 24 23  1  0  0  0  0
 25 27  1  0  0  0  0
 26 25  1  0  0  0  0
 27  7  2  0  0  0  0
 27 28  1  0  0  0  0
M  END
