1,5,8,9
 OpenBabel05122313063D

 39 39  0  0  1  0  0  0  0  0999 V2000
    0.9841   -1.8405    1.0901 S   0  0  0  0  0  1  0  0  0  0  0  0
   -1.3828    3.3675    0.3605 O   0  0  0  0  0  0  0  0  0  0  0  0
    3.6450    2.3175    0.9748 O   0  0  0  0  0  0  0  0  0  0  0  0
    4.7653   -2.2971   -0.0304 O   0  0  0  0  0  0  0  0  0  0  0  0
   -1.4604   -0.2349    0.0442 N   0  0  0  0  0  0  0  0  0  0  0  0
   -1.9593   -0.9575   -0.4978 H   0  0  0  0  0  0  0  0  0  0  0  0
   -1.5442   -0.5436    1.0281 H   0  0  0  0  0  0  0  0  0  0  0  0
    0.2367    1.7537   -0.0065 N   0  0  0  0  0  2  0  0  0  0  0  0
    2.4156    0.4731    0.2806 N   0  0  0  0  0  2  0  0  0  0  0  0
    4.2130   -0.6375   -1.5016 N   0  0  0  0  0  0  0  0  0  0  0  0
    4.6761   -1.1196   -2.2718 H   0  0  0  0  0  0  0  0  0  0  0  0
    3.6133    0.1622   -1.7000 H   0  0  0  0  0  0  0  0  0  0  0  0
   -2.1025    1.1025   -0.1341 C   0  0  2  0  0  0  0  0  0  0  0  0
   -2.3875    1.1680   -1.2066 H   0  0  0  0  0  0  0  0  0  0  0  0
   -1.0573    2.2131    0.1093 C   0  0  0  0  0  0  0  0  0  0  0  0
    1.3525    2.6599    0.2432 C   0  0  0  0  0  0  0  0  0  0  0  0
    1.1479    3.3254    1.1076 H   0  0  0  0  0  0  0  0  0  0  0  0
    1.5388    3.3298   -0.6256 H   0  0  0  0  0  0  0  0  0  0  0  0
    2.6107    1.8371    0.5338 C   0  0  0  0  0  0  0  0  0  0  0  0
    3.3967   -0.4880    0.8147 C   0  0  2  0  0  0  0  0  0  0  0  0
    4.1576    0.1003    1.3753 H   0  0  0  0  0  0  0  0  0  0  0  0
    4.1812   -1.2485   -0.2860 C   0  0  0  0  0  0  0  0  0  0  0  0
    2.6993   -1.4747    1.7417 C   0  0  0  0  0  0  0  0  0  0  0  0
    2.5771   -1.0688    2.7644 H   0  0  0  0  0  0  0  0  0  0  0  0
    3.2768   -2.4184    1.7767 H   0  0  0  0  0  0  0  0  0  0  0  0
   -3.3547    1.2871    0.7313 C   0  0  0  0  0  0  0  0  0  0  0  0
   -3.7108    2.3215    0.5536 H   0  0  0  0  0  0  0  0  0  0  0  0
   -3.0615    1.2389    1.8020 H   0  0  0  0  0  0  0  0  0  0  0  0
   -4.4154    0.2573    0.4205 C   0  0  0  0  0  0  0  0  0  0  0  0
   -5.2160    0.3808   -0.7347 C   0  0  0  0  0  0  0  0  0  0  0  0
   -5.1092    1.2713   -1.3753 H   0  0  0  0  0  0  0  0  0  0  0  0
   -6.1511   -0.6089   -1.0692 C   0  0  0  0  0  0  0  0  0  0  0  0
   -6.7720   -0.4922   -1.9704 H   0  0  0  0  0  0  0  0  0  0  0  0
   -6.3004   -1.7433   -0.2542 C   0  0  0  0  0  0  0  0  0  0  0  0
   -7.0352   -2.5194   -0.5160 H   0  0  0  0  0  0  0  0  0  0  0  0
   -5.5131   -1.8779    0.8990 C   0  0  0  0  0  0  0  0  0  0  0  0
   -5.6294   -2.7589    1.5482 H   0  0  0  0  0  0  0  0  0  0  0  0
   -4.5783   -0.8842    1.2318 C   0  0  0  0  0  0  0  0  0  0  0  0
   -3.9762   -0.9885    2.1496 H   0  0  0  0  0  0  0  0  0  0  0  0
  1 23  1  0  0  0  0
  5  7  1  0  0  0  0
  6  5  1  0  0  0  0
  8 15  1  0  0  0  0
  8 16  1  0  0  0  0
  9 19  1  0  0  0  0
  9 20  1  0  0  0  0
 10 22  1  0  0  0  0
 11 10  1  0  0  0  0
 12 10  1  0  0  0  0
 13 14  1  6  0  0  0
 13  5  1  0  0  0  0
 13 15  1  0  0  0  0
 13 26  1  0  0  0  0
 15  2  2  0  0  0  0
 16 19  1  0  0  0  0
 16 17  1  0  0  0  0
 18 16  1  0  0  0  0
 19  3  2  0  0  0  0
 20 21  1  1  0  0  0
 20 23  1  0  0  0  0
 22  4  2  0  0  0  0
 22 20  1  0  0  0  0
 23 25  1  0  0  0  0
 23 24  1  0  0  0  0
 26 28  1  0  0  0  0
 27 26  1  0  0  0  0
 29 26  1  0  0  0  0
 29 38  1  0  0  0  0
 30 29  2  0  0  0  0
 31 30  1  0  0  0  0
 32 30  1  0  0  0  0
 32 34  2  0  0  0  0
 33 32  1  0  0  0  0
 34 36  1  0  0  0  0
 35 34  1  0  0  0  0
 36 38  2  0  0  0  0
 36 37  1  0  0  0  0
 38 39  1  0  0  0  0
M  END
