1,3,6,14
 OpenBabel05122313063D

 45 46  0  0  0  0  0  0  0  0999 V2000
   -0.4780   -2.4554   -0.5715 S   0  0  0  0  0  1  0  0  0  0  0  0
    0.9600    1.3983   -1.9382 S   0  0  0  0  0  0  0  0  0  0  0  0
    1.3183   -0.5983    0.5154 N   0  0  0  0  0  2  0  0  0  0  0  0
    3.0960   -1.1633    1.6785 N   0  0  0  0  0  0  0  0  0  0  0  0
    3.6709   -1.5358    2.4368 H   0  0  0  0  0  0  0  0  0  0  0  0
   -2.3777   -0.2473   -0.2860 N   0  0  0  0  0  0  0  0  0  0  0  0
    2.4439   -0.2742   -0.2298 C   0  0  0  0  0  0  0  0  0  0  0  0
    0.5122    2.3280    0.7426 C   0  0  0  0  0  0  0  0  0  0  0  0
    1.2136    1.7574    1.3798 H   0  0  0  0  0  0  0  0  0  0  0  0
    0.3074    3.2896    1.2694 H   0  0  0  0  0  0  0  0  0  0  0  0
   -2.2883   -2.6536   -0.8453 C   0  0  0  0  0  0  0  0  0  0  0  0
   -2.4513   -3.3847   -1.6626 H   0  0  0  0  0  0  0  0  0  0  0  0
   -2.7839   -3.0647    0.0592 H   0  0  0  0  0  0  0  0  0  0  0  0
   -0.7345    1.5299    0.6700 N   0  0  0  0  0  0  0  0  0  0  0  0
   -2.9409   -0.4579    1.0866 C   0  0  0  0  0  0  0  0  0  0  0  0
   -2.4851   -1.3858    1.4804 H   0  0  0  0  0  0  0  0  0  0  0  0
   -4.0400   -0.6232    1.0022 H   0  0  0  0  0  0  0  0  0  0  0  0
    1.7369   -1.1484    1.6578 C   0  0  0  0  0  3  0  0  0  0  0  0
    1.0984   -1.5616    2.4447 H   0  0  0  0  0  0  0  0  0  0  0  0
   -2.6899    1.1070   -0.8154 C   0  0  0  0  0  0  0  0  0  0  0  0
   -3.7678    1.3404   -0.6678 H   0  0  0  0  0  0  0  0  0  0  0  0
   -2.5052    1.0667   -1.9042 H   0  0  0  0  0  0  0  0  0  0  0  0
   -1.7726    2.1739   -0.1834 C   0  0  0  0  0  0  0  0  0  0  0  0
   -1.2651    2.7228   -0.9938 H   0  0  0  0  0  0  0  0  0  0  0  0
   -2.3357    2.9292    0.4068 H   0  0  0  0  0  0  0  0  0  0  0  0
    5.0329   -0.5157    0.1871 C   0  0  0  0  0  0  0  0  0  0  0  0
    5.1929    0.1076   -0.7118 H   0  0  0  0  0  0  0  0  0  0  0  0
    5.4782   -1.5119   -0.0185 H   0  0  0  0  0  0  0  0  0  0  0  0
    5.6031   -0.0576    1.0210 H   0  0  0  0  0  0  0  0  0  0  0  0
    3.5796   -0.6146    0.5005 C   0  0  0  0  0  0  0  0  0  0  0  0
    1.1557    2.6503   -0.6183 C   0  0  0  0  0  0  0  0  0  0  0  0
    2.2329    2.8664   -0.4707 H   0  0  0  0  0  0  0  0  0  0  0  0
    0.7206    3.5710   -1.0559 H   0  0  0  0  0  0  0  0  0  0  0  0
   -2.8537   -1.3061   -1.2363 C   0  0  0  0  0  0  0  0  0  0  0  0
   -2.4702   -1.0237   -2.2363 H   0  0  0  0  0  0  0  0  0  0  0  0
   -3.9689   -1.2943   -1.2660 H   0  0  0  0  0  0  0  0  0  0  0  0
    2.3455    0.2465   -1.6233 C   0  0  0  0  0  0  0  0  0  0  0  0
    2.1345   -0.5860   -2.3298 H   0  0  0  0  0  0  0  0  0  0  0  0
    3.2997    0.7158   -1.9361 H   0  0  0  0  0  0  0  0  0  0  0  0
   -1.2657    1.2815    2.0427 C   0  0  0  0  0  0  0  0  0  0  0  0
   -1.2690    2.2381    2.6178 H   0  0  0  0  0  0  0  0  0  0  0  0
   -0.5575    0.5979    2.5530 H   0  0  0  0  0  0  0  0  0  0  0  0
   -2.6912    0.7222    2.0286 C   0  0  0  0  0  0  0  0  0  0  0  0
   -3.4031    1.5402    1.7966 H   0  0  0  0  0  0  0  0  0  0  0  0
   -2.9478    0.4018    3.0582 H   0  0  0  0  0  0  0  0  0  0  0  0
  2 37  1  0  0  0  0
  2 31  1  0  0  0  0
  3 18  1  0  0  0  0
  4  5  1  0  0  0  0
  6 15  1  0  0  0  0
  7 30  2  0  0  0  0
  7  3  1  0  0  0  0
  8 10  1  0  0  0  0
  8  9  1  0  0  0  0
 11  1  1  0  0  0  0
 11 13  1  0  0  0  0
 12 11  1  0  0  0  0
 14  8  1  0  0  0  0
 14 40  1  0  0  0  0
 15 16  1  0  0  0  0
 15 43  1  0  0  0  0
 17 15  1  0  0  0  0
 18  4  1  0  0  0  0
 18 19  1  0  0  0  0
 20 21  1  0  0  0  0
 20  6  1  0  0  0  0
 20 23  1  0  0  0  0
 22 20  1  0  0  0  0
 23 25  1  0  0  0  0
 23 14  1  0  0  0  0
 24 23  1  0  0  0  0
 26 30  1  0  0  0  0
 26 29  1  0  0  0  0
 27 26  1  0  0  0  0
 28 26  1  0  0  0  0
 30  4  1  0  0  0  0
 31 32  1  0  0  0  0
 31  8  1  0  0  0  0
 33 31  1  0  0  0  0
 34 11  1  0  0  0  0
 34  6  1  0  0  0  0
 35 34  1  0  0  0  0
 36 34  1  0  0  0  0
 37  7  1  0  0  0  0
 38 37  1  0  0  0  0
 39 37  1  0  0  0  0
 40 42  1  0  0  0  0
 40 41  1  0  0  0  0
 43 40  1  0  0  0  0
 43 45  1  0  0  0  0
 44 43  1  0  0  0  0
M  END
