1,2,3,4
 OpenBabel05122313063D

 46 47  0  0  1  0  0  0  0  0999 V2000
    1.8065   -0.8428   -1.5700 S   0  0  0  0  0  1  0  0  0  0  0  0
   -1.8618   -0.3230   -0.0455 N   0  0  0  0  0  2  0  0  0  0  0  0
    0.6667   -1.1379    1.2062 N   0  0  0  0  0  0  0  0  0  0  0  0
    0.2572    1.5468   -0.0062 N   0  0  0  0  0  2  0  0  0  0  0  0
   -2.7464    0.6856   -0.2787 C   0  0  0  0  0  3  0  0  0  0  0  0
   -4.1266    0.5043   -0.1884 C   0  0  0  0  0  0  0  0  0  0  0  0
   -4.6348   -0.7679    0.1190 C   0  0  0  0  0  0  0  0  0  0  0  0
   -3.7226   -1.8119    0.3410 C   0  0  0  0  0  0  0  0  0  0  0  0
   -2.3473   -1.5623    0.2575 C   0  0  0  0  0  0  0  0  0  0  0  0
   -1.2975   -2.5983    0.5514 C   0  0  0  0  0  0  0  0  0  0  0  0
   -0.3782   -2.1027    1.6738 C   0  0  0  0  0  0  0  0  0  0  0  0
    0.9161   -0.1670    2.3054 C   0  0  0  0  0  0  0  0  0  0  0  0
   -0.1297    0.9510    2.3487 C   0  0  0  0  0  0  0  0  0  0  0  0
    0.1318    1.9873    1.2918 C   0  0  1  0  0  3  0  0  0  0  0  0
    0.3434    3.3303    1.6312 C   0  0  0  0  0  0  0  0  0  0  0  0
    0.7069    4.2692    0.6550 C   0  0  0  0  0  0  0  0  0  0  0  0
    0.8712    3.8030   -0.6603 C   0  0  0  0  0  0  0  0  0  0  0  0
    0.6470    2.4623   -0.9589 C   0  0  0  0  0  0  0  0  0  0  0  0
    1.9112   -1.9226    0.9069 C   0  0  0  0  0  0  0  0  0  0  0  0
    2.8678   -1.2995   -0.1116 C   0  0  0  0  0  0  0  0  0  0  0  0
    3.6206   -0.0515    0.3742 C   0  0  0  0  0  0  0  0  0  0  0  0
    3.8781   -2.3743   -0.5393 C   0  0  0  0  0  0  0  0  0  0  0  0
   -2.3049    1.6503   -0.5629 H   0  0  0  0  0  0  0  0  0  0  0  0
   -4.7953    1.3566   -0.3767 H   0  0  0  0  0  0  0  0  0  0  0  0
   -5.7183   -0.9456    0.1819 H   0  0  0  0  0  0  0  0  0  0  0  0
   -4.0690   -2.8284    0.5796 H   0  0  0  0  0  0  0  0  0  0  0  0
   -1.7812   -3.5467    0.8585 H   0  0  0  0  0  0  0  0  0  0  0  0
   -0.6920   -2.8143   -0.3602 H   0  0  0  0  0  0  0  0  0  0  0  0
   -1.0037   -1.6032    2.4392 H   0  0  0  0  0  0  0  0  0  0  0  0
    0.1250   -2.9527    2.1847 H   0  0  0  0  0  0  0  0  0  0  0  0
    0.9427   -0.7153    3.2753 H   0  0  0  0  0  0  0  0  0  0  0  0
    1.9169    0.2757    2.1623 H   0  0  0  0  0  0  0  0  0  0  0  0
   -0.0899    1.4388    3.3423 H   0  0  0  0  0  0  0  0  0  0  0  0
   -1.1485    0.5216    2.2433 H   0  0  0  0  0  0  0  0  0  0  0  0
    0.2273    3.6272    2.6844 H   0  0  0  0  0  0  0  0  0  0  0  0
    0.8715    5.3244    0.9158 H   0  0  0  0  0  0  0  0  0  0  0  0
    1.1753    4.4776   -1.4739 H   0  0  0  0  0  0  0  0  0  0  0  0
    0.7335    2.0603   -1.9764 H   0  0  0  0  0  0  0  0  0  0  0  0
    1.5780   -2.8849    0.4718 H   0  0  0  0  0  0  0  0  0  0  0  0
    2.4224   -2.1568    1.8737 H   0  0  0  0  0  0  0  0  0  0  0  0
    4.1879   -0.2537    1.3104 H   0  0  0  0  0  0  0  0  0  0  0  0
    4.3444    0.2668   -0.4017 H   0  0  0  0  0  0  0  0  0  0  0  0
    2.9401    0.8053    0.5388 H   0  0  0  0  0  0  0  0  0  0  0  0
    4.5313   -1.9820   -1.3436 H   0  0  0  0  0  0  0  0  0  0  0  0
    3.3631   -3.2737   -0.9325 H   0  0  0  0  0  0  0  0  0  0  0  0
    4.5267   -2.6806    0.3107 H   0  0  0  0  0  0  0  0  0  0  0  0
  1 20  1  0  0  0  0
  2  9  1  0  0  0  0
  3 11  1  0  0  0  0
  3 12  1  0  0  0  0
  4 14  1  0  0  0  0
  5  6  1  0  0  0  0
  5  2  1  0  0  0  0
  6  7  2  0  0  0  0
  7 25  1  0  0  0  0
  7  8  1  0  0  0  0
  8 26  1  0  0  0  0
  9  8  2  0  0  0  0
  9 10  1  0  0  0  0
 10 27  1  0  0  0  0
 10 11  1  0  0  0  0
 11 30  1  0  0  0  0
 11 29  1  0  0  0  0
 12 13  1  0  0  0  0
 12 31  1  0  0  0  0
 13 33  1  0  0  0  0
 14 15  1  0  0  0  0
 14 13  1  1  0  0  0
 15 35  1  0  0  0  0
 16 36  1  0  0  0  0
 16 15  2  0  0  0  0
 17 16  1  0  0  0  0
 18 17  2  0  0  0  0
 18  4  1  0  0  0  0
 19  3  1  0  0  0  0
 19 40  1  0  0  0  0
 20 21  1  0  0  0  0
 20 19  1  0  0  0  0
 21 43  1  0  0  0  0
 21 41  1  0  0  0  0
 22 20  1  0  0  0  0
 22 46  1  0  0  0  0
 23  5  1  0  0  0  0
 24  6  1  0  0  0  0
 28 10  1  0  0  0  0
 32 12  1  0  0  0  0
 34 13  1  0  0  0  0
 37 17  1  0  0  0  0
 38 18  1  0  0  0  0
 39 19  1  0  0  0  0
 42 21  1  0  0  0  0
 44 22  1  0  0  0  0
 45 22  1  0  0  0  0
M  END
