1,59,60,61
q = -1.0, confidence = 0.006

 61 63  0  0  1  0  0  0  0  0999 V2000
   -0.6111   -2.4749   -1.4149 S   0  0  0  0  0  1  0  0  0  0  0  0
   -2.3643   -2.4108   -1.4873 C   0  0  0  0  0  0  0  0  0  0  0  0
   -3.0172   -3.1588   -2.5003 C   0  0  0  0  0  0  0  0  0  0  0  0
   -2.3922   -3.7424   -3.1922 H   0  0  0  0  0  0  0  0  0  0  0  0
   -4.4037   -3.1405   -2.6489 C   0  0  0  0  0  0  0  0  0  0  0  0
   -4.8700   -3.7226   -3.4586 H   0  0  0  0  0  0  0  0  0  0  0  0
   -5.2044   -2.3560   -1.7925 C   0  0  0  0  0  0  0  0  0  0  0  0
   -6.2930   -2.3010   -1.9403 H   0  0  0  0  0  0  0  0  0  0  0  0
   -4.6033   -1.6323   -0.7648 C   0  0  0  0  0  0  0  0  0  0  0  0
   -5.2231   -0.9856   -0.1322 H   0  0  0  0  0  0  0  0  0  0  0  0
   -3.1947   -1.6594   -0.5674 C   0  0  0  0  0  0  0  0  0  0  0  0
   -2.9235   -0.5418    1.5931 C   0  0  1  0  0  3  0  0  0  0  0  0
   -4.2800   -0.7410    2.2063 C   0  0  0  0  0  0  0  0  0  0  0  0
   -4.7295   -1.6897    1.8550 H   0  0  0  0  0  0  0  0  0  0  0  0
   -4.9746    0.0802    1.9269 H   0  0  0  0  0  0  0  0  0  0  0  0
   -4.2214   -0.7662    3.3107 H   0  0  0  0  0  0  0  0  0  0  0  0
   -1.8721    0.1563    2.3856 C   0  0  2  0  0  3  0  0  0  0  0  0
   -2.0924    0.9203    3.5517 C   0  0  0  0  0  0  0  0  0  0  0  0
   -3.1028    1.0435    3.9633 H   0  0  0  0  0  0  0  0  0  0  0  0
   -1.0001    1.5667    4.1448 C   0  0  0  0  0  0  0  0  0  0  0  0
   -1.1542    2.1896    5.0384 H   0  0  0  0  0  0  0  0  0  0  0  0
    0.2845    1.4481    3.5912 C   0  0  0  0  0  0  0  0  0  0  0  0
    1.1403    1.9750    4.0319 H   0  0  0  0  0  0  0  0  0  0  0  0
    0.4309    0.6600    2.4362 C   0  0  0  0  0  0  0  0  0  0  0  0
    1.7181    0.4155    1.7045 C   0  0  2  0  0  3  0  0  0  0  0  0
    2.9756    1.0492    2.2039 C   0  0  0  0  0  0  0  0  0  0  0  0
    3.8607    0.6469    1.6791 H   0  0  0  0  0  0  0  0  0  0  0  0
    3.0976    0.9192    3.2971 H   0  0  0  0  0  0  0  0  0  0  0  0
    2.9036    2.1386    1.9968 H   0  0  0  0  0  0  0  0  0  0  0  0
    2.7554   -0.8187   -0.0717 C   0  0  0  0  0  0  0  0  0  0  0  0
    3.4075   -0.0114   -1.0364 C   0  0  0  0  0  0  0  0  0  0  0  0
    4.5108   -0.5690   -1.7117 C   0  0  0  0  0  0  0  0  0  0  0  0
    5.0372    0.0408   -2.4619 H   0  0  0  0  0  0  0  0  0  0  0  0
    4.9316   -1.8805   -1.4661 C   0  0  0  0  0  0  0  0  0  0  0  0
    5.7982   -2.2920   -2.0052 H   0  0  0  0  0  0  0  0  0  0  0  0
    4.2278   -2.6809   -0.5553 C   0  0  0  0  0  0  0  0  0  0  0  0
    4.5397   -3.7228   -0.3915 H   0  0  0  0  0  0  0  0  0  0  0  0
    3.1216   -2.1756    0.1477 C   0  0  0  0  0  0  0  0  0  0  0  0
    2.8689    1.3554   -1.4304 C   0  0  0  0  0  0  0  0  0  0  0  0
    2.0607    1.6318   -0.7280 H   0  0  0  0  0  0  0  0  0  0  0  0
    3.9244    2.4680   -1.3629 C   0  0  0  0  0  0  0  0  0  0  0  0
    4.3907    2.5286   -0.3583 H   0  0  0  0  0  0  0  0  0  0  0  0
    3.4506    3.4473   -1.5761 H   0  0  0  0  0  0  0  0  0  0  0  0
    4.7377    2.3193   -2.1038 H   0  0  0  0  0  0  0  0  0  0  0  0
    2.2290    1.2610   -2.8288 C   0  0  0  0  0  0  0  0  0  0  0  0
    1.7602    2.2244   -3.1065 H   0  0  0  0  0  0  0  0  0  0  0  0
    1.4396    0.4840   -2.8493 H   0  0  0  0  0  0  0  0  0  0  0  0
    2.9858    1.0045   -3.5994 H   0  0  0  0  0  0  0  0  0  0  0  0
    2.3436   -3.0227    1.1478 C   0  0  0  0  0  0  0  0  0  0  0  0
    1.3170   -2.5980    1.1878 H   0  0  0  0  0  0  0  0  0  0  0  0
    2.9510   -2.9032    2.5574 C   0  0  0  0  0  0  0  0  0  0  0  0
    2.3519   -3.4718    3.2983 H   0  0  0  0  0  0  0  0  0  0  0  0
    3.0006   -1.8487    2.8968 H   0  0  0  0  0  0  0  0  0  0  0  0
    3.9860   -3.3037    2.5732 H   0  0  0  0  0  0  0  0  0  0  0  0
    2.1993   -4.4879    0.7200 C   0  0  0  0  0  0  0  0  0  0  0  0
    3.1727   -5.0206    0.7118 H   0  0  0  0  0  0  0  0  0  0  0  0
    1.7484   -4.5632   -0.2891 H   0  0  0  0  0  0  0  0  0  0  0  0
    1.5385   -5.0278    1.4280 H   0  0  0  0  0  0  0  0  0  0  0  0
   -2.5291   -0.9579    0.4212 N   0  0  0  0  0  2  0  0  0  0  0  0
   -0.6260    0.0410    1.9000 N   0  0  0  0  0  2  0  0  0  0  0  0
    1.6319   -0.3457    0.6600 N   0  0  0  0  0  2  0  0  0  0  0  0
  2  1  1  0  0  0  0
  2 11  1  0  0  0  0
  3  2  2  0  0  0  0
  4  3  1  0  0  0  0
  5  3  1  0  0  0  0
  5  7  2  0  0  0  0
  6  5  1  0  0  0  0
  7  9  1  0  0  0  0
  8  7  1  0  0  0  0
  9 11  2  0  0  0  0
  9 10  1  0  0  0  0
 11 59  1  0  0  0  0
 12 59  1  1  0  0  0
 12 13  1  0  0  0  0
 13 16  1  0  0  0  0
 14 13  1  0  0  0  0
 15 13  1  0  0  0  0
 17 12  1  6  0  0  0
 17 18  1  0  0  0  0
 18 19  1  0  0  0  0
 18 20  2  0  0  0  0
 20 21  1  0  0  0  0
 22 23  1  0  0  0  0
 22 20  1  0  0  0  0
 24 22  2  0  0  0  0
 25 61  1  6  0  0  0
 25 26  1  0  0  0  0
 25 24  1  0  0  0  0
 26 28  1  0  0  0  0
 27 26  1  0  0  0  0
 29 26  1  0  0  0  0
 30 38  1  0  0  0  0
 30 61  1  0  0  0  0
 31 30  2  0  0  0  0
 32 34  2  0  0  0  0
 32 31  1  0  0  0  0
 33 32  1  0  0  0  0
 34 36  1  0  0  0  0
 35 34  1  0  0  0  0
 36 37  1  0  0  0  0
 36 38  2  0  0  0  0
 38 49  1  0  0  0  0
 39 41  1  0  0  0  0
 39 31  1  0  0  0  0
 39 40  1  0  0  0  0
 41 42  1  0  0  0  0
 43 41  1  0  0  0  0
 44 41  1  0  0  0  0
 45 39  1  0  0  0  0
 46 45  1  0  0  0  0
 47 45  1  0  0  0  0
 48 45  1  0  0  0  0
 49 50  1  0  0  0  0
 49 51  1  0  0  0  0
 51 54  1  0  0  0  0
 51 53  1  0  0  0  0
 51 52  1  0  0  0  0
 55 49  1  0  0  0  0
 55 58  1  0  0  0  0
 56 55  1  0  0  0  0
 57 55  1  0  0  0  0
 60 17  1  0  0  0  0
 60 24  1  0  0  0  0
M  END
