1,59,60,61
 OpenBabel05122313063D

 61 63  0  0  1  0  0  0  0  0999 V2000
    0.4266    2.0834    0.1650 S   0  0  0  0  0  1  0  0  0  0  0  0
    2.1763    2.3280    0.3894 C   0  0  0  0  0  0  0  0  0  0  0  0
    2.7001    3.4968    0.9644 C   0  0  0  0  0  0  0  0  0  0  0  0
    2.0201    4.3206    1.2272 H   0  0  0  0  0  0  0  0  0  0  0  0
    4.0783    3.5919    1.2152 C   0  0  0  0  0  0  0  0  0  0  0  0
    4.4876    4.5037    1.6746 H   0  0  0  0  0  0  0  0  0  0  0  0
    4.9305    2.5207    0.8986 C   0  0  0  0  0  0  0  0  0  0  0  0
    6.0051    2.5871    1.1231 H   0  0  0  0  0  0  0  0  0  0  0  0
    4.4237    1.3576    0.2988 C   0  0  0  0  0  0  0  0  0  0  0  0
    5.1009    0.5212    0.0890 H   0  0  0  0  0  0  0  0  0  0  0  0
    3.0441    1.2606    0.0179 C   0  0  0  0  0  0  0  0  0  0  0  0
    2.8703   -0.7075   -1.4432 C   0  0  0  0  0  0  0  0  0  0  0  0
    4.2510   -0.6804   -2.0181 C   0  0  0  0  0  0  0  0  0  0  0  0
    4.6104    0.3601   -2.1404 H   0  0  0  0  0  0  0  0  0  0  0  0
    4.2729   -1.1744   -3.0067 H   0  0  0  0  0  0  0  0  0  0  0  0
    4.9806   -1.2087   -1.3682 H   0  0  0  0  0  0  0  0  0  0  0  0
    1.8608   -1.6345   -1.9390 C   0  0  0  0  0  0  0  0  0  0  0  0
    1.9867   -2.6702   -2.8827 C   0  0  0  0  0  0  0  0  0  0  0  0
    2.9731   -2.9296   -3.2906 H   0  0  0  0  0  0  0  0  0  0  0  0
    0.8363   -3.3652   -3.2985 C   0  0  0  0  0  0  0  0  0  0  0  0
    0.9262   -4.1802   -4.0304 H   0  0  0  0  0  0  0  0  0  0  0  0
   -0.4272   -3.0112   -2.7971 C   0  0  0  0  0  0  0  0  0  0  0  0
   -1.3345   -3.5346   -3.1295 H   0  0  0  0  0  0  0  0  0  0  0  0
   -0.5217   -1.9652   -1.8600 C   0  0  0  0  0  0  0  0  0  0  0  0
   -1.6986   -1.3619   -1.2590 C   0  0  2  0  0  3  0  0  0  0  0  0
   -3.0822   -1.8417   -1.5594 C   0  0  0  0  0  0  0  0  0  0  0  0
   -3.2349   -2.8541   -1.1276 H   0  0  0  0  0  0  0  0  0  0  0  0
   -3.2521   -1.9281   -2.6515 H   0  0  0  0  0  0  0  0  0  0  0  0
   -3.8439   -1.1662   -1.1312 H   0  0  0  0  0  0  0  0  0  0  0  0
   -2.4323    0.5160    0.0567 C   0  0  0  0  0  0  0  0  0  0  0  0
   -2.9869    0.2795    1.3388 C   0  0  0  0  0  0  0  0  0  0  0  0
   -3.9698    1.1692    1.8094 C   0  0  0  0  0  0  0  0  0  0  0  0
   -4.4178    1.0002    2.8004 H   0  0  0  0  0  0  0  0  0  0  0  0
   -4.3864    2.2601    1.0387 C   0  0  0  0  0  0  0  0  0  0  0  0
   -5.1564    2.9453    1.4228 H   0  0  0  0  0  0  0  0  0  0  0  0
   -3.8207    2.4781   -0.2230 C   0  0  0  0  0  0  0  0  0  0  0  0
   -4.1536    3.3373   -0.8237 H   0  0  0  0  0  0  0  0  0  0  0  0
   -2.8347    1.6212   -0.7459 C   0  0  0  0  0  0  0  0  0  0  0  0
   -2.5479   -0.8967    2.1981 C   0  0  0  0  0  0  0  0  0  0  0  0
   -1.7817   -1.4524    1.6241 H   0  0  0  0  0  0  0  0  0  0  0  0
   -3.7048   -1.8710    2.4749 C   0  0  0  0  0  0  0  0  0  0  0  0
   -3.3497   -2.7478    3.0543 H   0  0  0  0  0  0  0  0  0  0  0  0
   -4.1586   -2.2411    1.5336 H   0  0  0  0  0  0  0  0  0  0  0  0
   -4.5104   -1.3882    3.0646 H   0  0  0  0  0  0  0  0  0  0  0  0
   -1.8880   -0.4150    3.5012 C   0  0  0  0  0  0  0  0  0  0  0  0
   -2.6209    0.0957    4.1586 H   0  0  0  0  0  0  0  0  0  0  0  0
   -1.0712    0.3047    3.2939 H   0  0  0  0  0  0  0  0  0  0  0  0
   -1.4672   -1.2691    4.0702 H   0  0  0  0  0  0  0  0  0  0  0  0
   -2.2686    1.8725   -2.1413 C   0  0  0  0  0  0  0  0  0  0  0  0
   -1.3556    1.2503   -2.2463 H   0  0  0  0  0  0  0  0  0  0  0  0
   -3.2695    1.4391   -3.2294 C   0  0  0  0  0  0  0  0  0  0  0  0
   -3.5615    0.3761   -3.1316 H   0  0  0  0  0  0  0  0  0  0  0  0
   -2.8356    1.5837   -4.2395 H   0  0  0  0  0  0  0  0  0  0  0  0
   -4.1984    2.0430   -3.1723 H   0  0  0  0  0  0  0  0  0  0  0  0
   -1.8459    3.3350   -2.3537 C   0  0  0  0  0  0  0  0  0  0  0  0
   -2.7170    4.0212   -2.3452 H   0  0  0  0  0  0  0  0  0  0  0  0
   -1.3513    3.4498   -3.3391 H   0  0  0  0  0  0  0  0  0  0  0  0
   -1.1377    3.6687   -1.5704 H   0  0  0  0  0  0  0  0  0  0  0  0
    2.3724    0.1618   -0.5594 N   0  0  0  0  0  2  0  0  0  0  0  0
    0.6201   -1.3313   -1.4349 N   0  0  0  0  0  2  0  0  0  0  0  0
   -1.3978   -0.3460   -0.4479 N   0  0  0  0  0  2  0  0  0  0  0  0
  1  2  1  0  0  0  0
  2  3  1  0  0  0  0
  3  5  2  0  0  0  0
  3  4  1  0  0  0  0
  5  6  1  0  0  0  0
  7  8  1  0  0  0  0
  7  5  1  0  0  0  0
  9  7  2  0  0  0  0
 10  9  1  0  0  0  0
 11  9  1  0  0  0  0
 11  2  2  0  0  0  0
 12 59  1  0  0  0  0
 13 12  1  0  0  0  0
 13 16  1  0  0  0  0
 14 13  1  0  0  0  0
 15 13  1  0  0  0  0
 17 12  2  0  0  0  0
 17 60  1  0  0  0  0
 18 17  1  0  0  0  0
 19 18  1  0  0  0  0
 20 18  2  0  0  0  0
 20 22  1  0  0  0  0
 21 20  1  0  0  0  0
 22 24  2  0  0  0  0
 23 22  1  0  0  0  0
 24 60  1  0  0  0  0
 24 25  1  0  0  0  0
 25 61  1  6  0  0  0
 26 25  1  0  0  0  0
 26 29  1  0  0  0  0
 26 27  1  0  0  0  0
 28 26  1  0  0  0  0
 30 31  1  0  0  0  0
 31 32  2  0  0  0  0
 31 39  1  0  0  0  0
 32 33  1  0  0  0  0
 34 35  1  0  0  0  0
 34 32  1  0  0  0  0
 36 34  2  0  0  0  0
 37 36  1  0  0  0  0
 38 36  1  0  0  0  0
 38 30  2  0  0  0  0
 39 41  1  0  0  0  0
 39 45  1  0  0  0  0
 40 39  1  0  0  0  0
 41 42  1  0  0  0  0
 41 44  1  0  0  0  0
 43 41  1  0  0  0  0
 45 48  1  0  0  0  0
 45 46  1  0  0  0  0
 47 45  1  0  0  0  0
 49 38  1  0  0  0  0
 50 49  1  0  0  0  0
 51 54  1  0  0  0  0
 51 52  1  0  0  0  0
 51 49  1  0  0  0  0
 53 51  1  0  0  0  0
 55 56  1  0  0  0  0
 55 49  1  0  0  0  0
 55 58  1  0  0  0  0
 57 55  1  0  0  0  0
 59 11  1  0  0  0  0
 61 30  1  0  0  0  0
M  END
