1,4,5,6
 OpenBabel05122313063D

 26 26  0  0  1  0  0  0  0  0999 V2000
   -0.9514   -1.9870   -0.7966 S   0  0  0  0  0  1  0  0  0  0  0  0
   -4.1739    0.3032   -0.9094 O   0  0  0  0  0  0  0  0  0  0  0  0
    1.8201    2.9655   -0.6686 O   0  0  0  0  0  0  0  0  0  0  0  0
   -2.1026    0.4585    0.0990 N   0  0  0  0  0  2  0  0  0  0  0  0
    0.1382    1.5688    0.1244 N   0  0  0  0  0  2  0  0  0  0  0  0
    1.6710   -0.5203    0.0457 N   0  0  0  0  0  2  0  0  0  0  0  0
   -2.7570   -1.6577   -0.9316 C   0  0  0  0  0  0  0  0  0  0  0  0
   -3.1041   -0.2082   -0.5979 C   0  0  0  0  0  0  0  0  0  0  0  0
   -2.2388    1.8991    0.3512 C   0  0  0  0  0  0  0  0  0  0  0  0
   -0.9250    2.5598   -0.0818 C   0  0  0  0  0  0  0  0  0  0  0  0
    1.4141    1.8703   -0.2833 C   0  0  0  0  0  0  0  0  0  0  0  0
    2.2967    0.6452   -0.2604 C   0  0  2  0  0  3  0  0  0  0  0  0
    3.6602    0.6931   -0.5550 C   0  0  0  0  0  0  0  0  0  0  0  0
    4.4000   -0.4983   -0.5097 C   0  0  0  0  0  0  0  0  0  0  0  0
    3.7464   -1.6963   -0.1816 C   0  0  0  0  0  0  0  0  0  0  0  0
    2.3706   -1.6750    0.0800 C   0  0  0  0  0  0  0  0  0  0  0  0
   -3.1113   -1.8806   -1.9568 H   0  0  0  0  0  0  0  0  0  0  0  0
   -3.3038   -2.3261   -0.2342 H   0  0  0  0  0  0  0  0  0  0  0  0
   -3.1144    2.2925   -0.2021 H   0  0  0  0  0  0  0  0  0  0  0  0
   -2.4181    2.0628    1.4362 H   0  0  0  0  0  0  0  0  0  0  0  0
   -0.7144    3.4863    0.4921 H   0  0  0  0  0  0  0  0  0  0  0  0
   -0.9466    2.8455   -1.1568 H   0  0  0  0  0  0  0  0  0  0  0  0
    4.0968    1.6703   -0.8067 H   0  0  0  0  0  0  0  0  0  0  0  0
    5.4774   -0.4954   -0.7325 H   0  0  0  0  0  0  0  0  0  0  0  0
    4.2884   -2.6514   -0.1399 H   0  0  0  0  0  0  0  0  0  0  0  0
    1.7974   -2.5850    0.3128 H   0  0  0  0  0  0  0  0  0  0  0  0
  2  8  2  0  0  0  0
  3 11  2  0  0  0  0
  4  9  1  0  0  0  0
  6 16  1  0  0  0  0
  7  1  1  0  0  0  0
  7  8  1  0  0  0  0
  7 18  1  0  0  0  0
  8  4  1  0  0  0  0
  9 20  1  0  0  0  0
 10  5  1  0  0  0  0
 10  9  1  0  0  0  0
 10 21  1  0  0  0  0
 11  5  1  0  0  0  0
 12 11  1  6  0  0  0
 12  6  1  0  0  0  0
 13 14  2  0  0  0  0
 13 12  1  0  0  0  0
 14 15  1  0  0  0  0
 15 25  1  0  0  0  0
 15 16  2  0  0  0  0
 16 26  1  0  0  0  0
 17  7  1  0  0  0  0
 19  9  1  0  0  0  0
 22 10  1  0  0  0  0
 23 13  1  0  0  0  0
 24 14  1  0  0  0  0
M  END
