1,2,3,4
 OpenBabel05122313063D

 33 33  0  0  0  0  0  0  0  0999 V2000
   -0.2322   -2.0323   -0.2903 S   0  0  0  0  0  1  0  0  0  0  0  0
    2.3163   -0.7668    0.1515 N   0  0  0  0  0  2  0  0  0  0  0  0
    1.4437    1.6205    0.1956 N   0  0  0  0  0  2  0  0  0  0  0  0
   -0.9707    1.0378   -0.2900 N   0  0  0  0  0  2  0  0  0  0  0  0
    3.4682   -2.5376    1.0808 O   0  0  0  0  0  0  0  0  0  0  0  0
    3.2152    2.4950    1.4025 O   0  0  0  0  0  0  0  0  0  0  0  0
   -1.8358    3.0495    0.4846 O   0  0  0  0  0  0  0  0  0  0  0  0
   -2.5863   -1.0679    3.0748 O   0  0  0  0  0  0  0  0  0  0  0  0
   -0.9682    0.2923    2.3136 O   0  0  0  0  0  0  0  0  0  0  0  0
    1.3015   -2.9864    0.0986 C   0  0  0  0  0  0  0  0  0  0  0  0
    2.4744   -2.0939    0.4984 C   0  0  0  0  0  0  0  0  0  0  0  0
    3.3164    0.1793    0.6351 C   0  0  0  0  0  0  0  0  0  0  0  0
    2.6830    1.5650    0.7944 C   0  0  0  0  0  0  0  0  0  0  0  0
    0.5757    2.7567    0.4231 C   0  0  0  0  0  0  0  0  0  0  0  0
   -0.8773    2.3318    0.2138 C   0  0  0  0  0  0  0  0  0  0  0  0
   -2.2531    0.4315   -0.3007 C   0  0  0  0  0  0  0  0  0  0  0  0
   -2.9993    0.4561   -1.4973 C   0  0  0  0  0  0  0  0  0  0  0  0
   -4.2481   -0.1645   -1.5901 C   0  0  0  0  0  0  0  0  0  0  0  0
   -4.7803   -0.8401   -0.4769 C   0  0  0  0  0  0  0  0  0  0  0  0
   -4.0503   -0.8805    0.7122 C   0  0  0  0  0  0  0  0  0  0  0  0
   -2.7926   -0.2478    0.8286 C   0  0  0  0  0  0  0  0  0  0  0  0
   -2.1281   -0.3951    2.1593 C   0  0  0  0  0  0  0  0  0  0  0  0
    1.5987   -3.5837   -0.7898 H   0  0  0  0  0  0  0  0  0  0  0  0
    1.1164   -3.6996    0.9265 H   0  0  0  0  0  0  0  0  0  0  0  0
    3.7388   -0.1496    1.6072 H   0  0  0  0  0  0  0  0  0  0  0  0
    4.1815    0.2583   -0.0635 H   0  0  0  0  0  0  0  0  0  0  0  0
    0.6868    3.1507    1.4560 H   0  0  0  0  0  0  0  0  0  0  0  0
    0.8054    3.6073   -0.2590 H   0  0  0  0  0  0  0  0  0  0  0  0
   -2.5555    0.9742   -2.3596 H   0  0  0  0  0  0  0  0  0  0  0  0
   -4.8083   -0.1274   -2.5378 H   0  0  0  0  0  0  0  0  0  0  0  0
   -5.7589   -1.3401   -0.5424 H   0  0  0  0  0  0  0  0  0  0  0  0
   -4.4256   -1.4112    1.5992 H   0  0  0  0  0  0  0  0  0  0  0  0
   -0.6624    0.0530    3.2146 H   0  0  0  0  0  0  0  0  0  0  0  0
  1 10  1  0  0  0  0
  2 11  1  0  0  0  0
  2 12  1  0  0  0  0
  3 14  1  0  0  0  0
  3 13  1  0  0  0  0
  4 15  1  0  0  0  0
  9 33  1  0  0  0  0
 10 11  1  0  0  0  0
 10 24  1  0  0  0  0
 11  5  2  0  0  0  0
 12 13  1  0  0  0  0
 12 25  1  0  0  0  0
 13  6  2  0  0  0  0
 14 27  1  0  0  0  0
 15 14  1  0  0  0  0
 15  7  2  0  0  0  0
 16  4  1  0  0  0  0
 16 21  1  0  0  0  0
 17 16  2  0  0  0  0
 18 17  1  0  0  0  0
 18 19  2  0  0  0  0
 19 20  1  0  0  0  0
 20 21  2  0  0  0  0
 20 32  1  0  0  0  0
 21 22  1  0  0  0  0
 22  9  1  0  0  0  0
 22  8  2  0  0  0  0
 23 10  1  0  0  0  0
 26 12  1  0  0  0  0
 28 14  1  0  0  0  0
 29 17  1  0  0  0  0
 30 18  1  0  0  0  0
 31 19  1  0  0  0  0
M  END
