1,36,37,38
 OpenBabel05122313063D

 38 39  0  0  1  0  0  0  0  0999 V2000
    0.2630   -1.1463    1.7055 S   0  0  0  0  0  0  0  0  0  0  0  0
   -0.1121    1.5700    1.9044 C   0  0  0  0  0  0  0  0  0  0  0  0
   -1.1955    1.4586    2.1175 H   0  0  0  0  0  0  0  0  0  0  0  0
    0.1966    2.5613    2.3106 H   0  0  0  0  0  0  0  0  0  0  0  0
    0.6449    0.4394    2.5792 C   0  0  0  0  0  0  0  0  0  0  0  0
    0.3955    0.3681    3.6570 H   0  0  0  0  0  0  0  0  0  0  0  0
    1.7433    0.5571    2.4911 H   0  0  0  0  0  0  0  0  0  0  0  0
   -1.3302   -1.6008    2.4655 C   0  0  0  0  0  0  0  0  0  0  0  0
   -1.1741   -1.9055    3.5181 H   0  0  0  0  0  0  0  0  0  0  0  0
   -1.6714   -2.4681    1.8693 H   0  0  0  0  0  0  0  0  0  0  0  0
   -2.0793   -0.7895    2.3916 H   0  0  0  0  0  0  0  0  0  0  0  0
   -2.2961    1.2152   -0.1644 C   0  0  2  0  0  3  0  0  0  0  0  0
   -3.6472    1.5632   -0.0801 C   0  0  0  0  0  0  0  0  0  0  0  0
   -3.9260    2.6173    0.0660 H   0  0  0  0  0  0  0  0  0  0  0  0
   -4.6255    0.5619   -0.2041 C   0  0  0  0  0  0  0  0  0  0  0  0
   -5.6947    0.8130   -0.1465 H   0  0  0  0  0  0  0  0  0  0  0  0
   -4.2025   -0.7584   -0.4201 C   0  0  0  0  0  0  0  0  0  0  0  0
   -4.9275   -1.5750   -0.5508 H   0  0  0  0  0  0  0  0  0  0  0  0
   -2.8348   -1.0450   -0.4720 C   0  0  0  0  0  0  0  0  0  0  0  0
   -2.4273   -2.0540   -0.6524 H   0  0  0  0  0  0  0  0  0  0  0  0
   -1.1650    2.2044   -0.1942 C   0  0  0  0  0  0  0  0  0  0  0  0
   -0.9134    2.3558   -1.2683 H   0  0  0  0  0  0  0  0  0  0  0  0
   -1.4287    3.1730    0.2870 H   0  0  0  0  0  0  0  0  0  0  0  0
    2.3981    1.0975   -0.0654 C   0  0  1  0  0  3  0  0  0  0  0  0
    3.7619    1.3744    0.0623 C   0  0  0  0  0  0  0  0  0  0  0  0
    4.0907    2.4054    0.2603 H   0  0  0  0  0  0  0  0  0  0  0  0
    4.6905    0.3284   -0.0764 C   0  0  0  0  0  0  0  0  0  0  0  0
    5.7691    0.5232    0.0154 H   0  0  0  0  0  0  0  0  0  0  0  0
    4.2098   -0.9640   -0.3364 C   0  0  0  0  0  0  0  0  0  0  0  0
    4.8970   -1.8135   -0.4602 H   0  0  0  0  0  0  0  0  0  0  0  0
    2.8316   -1.1793   -0.4351 C   0  0  0  0  0  0  0  0  0  0  0  0
    2.3749   -2.1641   -0.6301 H   0  0  0  0  0  0  0  0  0  0  0  0
    1.3154    2.1433   -0.0645 C   0  0  0  0  0  0  0  0  0  0  0  0
    1.6098    3.0598    0.4946 H   0  0  0  0  0  0  0  0  0  0  0  0
    1.1401    2.3905   -1.1352 H   0  0  0  0  0  0  0  0  0  0  0  0
    0.0328    1.5670    0.4178 N   0  0  0  0  0  0  0  0  0  0  0  0
   -1.8905   -0.0831   -0.3252 N   0  0  0  0  0  2  0  0  0  0  0  0
    1.9400   -0.1681   -0.3021 N   0  0  0  0  0  2  0  0  0  0  0  0
  1  8  1  0  0  0  0
  1  5  1  0  0  0  0
  2  3  1  0  0  0  0
  2  4  1  0  0  0  0
  2  5  1  0  0  0  0
  5  6  1  0  0  0  0
  7  5  1  0  0  0  0
  8  9  1  0  0  0  0
 10  8  1  0  0  0  0
 11  8  1  0  0  0  0
 12 21  1  6  0  0  0
 12 13  1  0  0  0  0
 13 14  1  0  0  0  0
 15 16  1  0  0  0  0
 15 13  2  0  0  0  0
 17 15  1  0  0  0  0
 18 17  1  0  0  0  0
 19 17  2  0  0  0  0
 19 37  1  0  0  0  0
 20 19  1  0  0  0  0
 21 23  1  0  0  0  0
 21 36  1  0  0  0  0
 22 21  1  0  0  0  0
 24 33  1  6  0  0  0
 24 25  1  0  0  0  0
 25 26  1  0  0  0  0
 27 28  1  0  0  0  0
 27 25  2  0  0  0  0
 29 27  1  0  0  0  0
 30 29  1  0  0  0  0
 31 29  2  0  0  0  0
 31 38  1  0  0  0  0
 32 31  1  0  0  0  0
 33 36  1  0  0  0  0
 33 34  1  0  0  0  0
 35 33  1  0  0  0  0
 36  2  1  0  0  0  0
 37 12  1  0  0  0  0
 38 24  1  0  0  0  0
M  END
