1,2,3,4
 OpenBabel05122313063D

 56 57  0  0  1  0  0  0  0  0999 V2000
   -0.2242    1.9715   -0.9455 S   0  0  0  0  0  0  0  0  0  0  0  0
   -1.3335   -1.6936   -0.3515 N   0  0  0  0  0  2  0  0  0  0  0  0
    0.0877    0.2875    1.7775 N   0  0  0  0  0  0  0  0  0  0  0  0
    1.9104   -0.8054   -0.6672 N   0  0  0  0  0  2  0  0  0  0  0  0
   -1.0003   -0.4603    2.4521 C   0  0  0  0  0  0  0  0  0  0  0  0
   -2.2931   -0.6050    1.6252 C   0  0  0  0  0  0  0  0  0  0  0  0
   -2.2698   -1.7432    0.6365 C   0  0  2  0  0  3  0  0  0  0  0  0
   -3.1599   -2.8267    0.7344 C   0  0  0  0  0  0  0  0  0  0  0  0
   -3.0954   -3.8693   -0.1991 C   0  0  0  0  0  0  0  0  0  0  0  0
   -2.1247   -3.8090   -1.2104 C   0  0  0  0  0  0  0  0  0  0  0  0
   -1.2652   -2.7088   -1.2458 C   0  0  0  0  0  0  0  0  0  0  0  0
    1.3981   -0.1286    2.3305 C   0  0  0  0  0  0  0  0  0  0  0  0
    1.9402   -1.4340    1.7097 C   0  0  0  0  0  0  0  0  0  0  0  0
   -0.1486    1.7421    1.8608 C   0  0  0  0  0  0  0  0  0  0  0  0
    0.3899    2.6286    0.7124 C   0  0  0  0  0  0  0  0  0  0  0  0
    4.6360   -1.3703   -1.0021 C   0  0  0  0  0  0  0  0  0  0  0  0
    2.5174   -0.6247   -1.8637 C   0  0  0  0  0  3  0  0  0  0  0  0
    3.8708   -0.8977   -2.0783 C   0  0  0  0  0  0  0  0  0  0  0  0
    4.0128   -1.5484    0.2399 C   0  0  0  0  0  0  0  0  0  0  0  0
    2.6434   -1.2630    0.3847 C   0  0  0  0  0  0  0  0  0  0  0  0
    1.9181    2.6092    0.5542 C   0  0  0  0  0  0  0  0  0  0  0  0
   -0.0774    4.0663    0.9607 C   0  0  0  0  0  0  0  0  0  0  0  0
   -2.0314    2.4382   -1.0631 C   0  0  0  0  0  0  0  0  0  0  0  0
   -2.1944    3.7988   -1.7384 C   0  0  0  0  0  0  0  0  0  0  0  0
   -2.7502    1.3290   -1.8302 C   0  0  0  0  0  0  0  0  0  0  0  0
   -3.9053   -2.8425    1.5428 H   0  0  0  0  0  0  0  0  0  0  0  0
   -3.7926   -4.7179   -0.1375 H   0  0  0  0  0  0  0  0  0  0  0  0
   -2.0320   -4.6019   -1.9659 H   0  0  0  0  0  0  0  0  0  0  0  0
   -0.4845   -2.6212   -2.0175 H   0  0  0  0  0  0  0  0  0  0  0  0
    5.7052   -1.5968   -1.1275 H   0  0  0  0  0  0  0  0  0  0  0  0
    1.8799   -0.2398   -2.6756 H   0  0  0  0  0  0  0  0  0  0  0  0
    4.3121   -0.7401   -3.0726 H   0  0  0  0  0  0  0  0  0  0  0  0
    4.5832   -1.9152    1.1058 H   0  0  0  0  0  0  0  0  0  0  0  0
   -0.6222   -1.4735    2.6936 H   0  0  0  0  0  0  0  0  0  0  0  0
   -1.2354    0.0214    3.4304 H   0  0  0  0  0  0  0  0  0  0  0  0
   -3.1386   -0.7584    2.3234 H   0  0  0  0  0  0  0  0  0  0  0  0
   -2.4990    0.3462    1.0880 H   0  0  0  0  0  0  0  0  0  0  0  0
    2.1290    0.6823    2.1667 H   0  0  0  0  0  0  0  0  0  0  0  0
    1.3174   -0.2552    3.4358 H   0  0  0  0  0  0  0  0  0  0  0  0
    2.6480   -1.8924    2.4273 H   0  0  0  0  0  0  0  0  0  0  0  0
    1.1052   -2.1581    1.5878 H   0  0  0  0  0  0  0  0  0  0  0  0
   -1.2449    1.9003    1.9017 H   0  0  0  0  0  0  0  0  0  0  0  0
    0.2488    2.1443    2.8243 H   0  0  0  0  0  0  0  0  0  0  0  0
    2.2311    3.3495   -0.2070 H   0  0  0  0  0  0  0  0  0  0  0  0
    2.4026    2.8826    1.5145 H   0  0  0  0  0  0  0  0  0  0  0  0
    2.2935    1.6195    0.2342 H   0  0  0  0  0  0  0  0  0  0  0  0
   -1.1763    4.1429    1.0743 H   0  0  0  0  0  0  0  0  0  0  0  0
    0.3794    4.4441    1.8988 H   0  0  0  0  0  0  0  0  0  0  0  0
    0.2433    4.7345    0.1391 H   0  0  0  0  0  0  0  0  0  0  0  0
   -1.7871    3.7724   -2.7690 H   0  0  0  0  0  0  0  0  0  0  0  0
   -3.2715    4.0573   -1.8052 H   0  0  0  0  0  0  0  0  0  0  0  0
   -1.6848    4.6119   -1.1908 H   0  0  0  0  0  0  0  0  0  0  0  0
   -2.3581    1.2453   -2.8648 H   0  0  0  0  0  0  0  0  0  0  0  0
   -2.6306    0.3443   -1.3407 H   0  0  0  0  0  0  0  0  0  0  0  0
   -3.8313    1.5643   -1.9036 H   0  0  0  0  0  0  0  0  0  0  0  0
   -2.4073    2.4725   -0.0173 H   0  0  0  0  0  0  0  0  0  0  0  0
  1 15  1  0  0  0  0
  2  7  1  0  0  0  0
  3 14  1  0  0  0  0
  3 12  1  0  0  0  0
  3  5  1  0  0  0  0
  4 20  1  0  0  0  0
  5 34  1  0  0  0  0
  5 35  1  0  0  0  0
  6 36  1  0  0  0  0
  6  5  1  0  0  0  0
  7  8  1  0  0  0  0
  7  6  1  1  0  0  0
  8 26  1  0  0  0  0
  9 27  1  0  0  0  0
  9  8  2  0  0  0  0
 10  9  1  0  0  0  0
 11 10  2  0  0  0  0
 11  2  1  0  0  0  0
 12 39  1  0  0  0  0
 13 12  1  0  0  0  0
 13 40  1  0  0  0  0
 14 42  1  0  0  0  0
 14 43  1  0  0  0  0
 15 22  1  0  0  0  0
 15 14  1  0  0  0  0
 16 19  1  0  0  0  0
 17  4  1  0  0  0  0
 18 17  1  0  0  0  0
 18 16  2  0  0  0  0
 19 20  2  0  0  0  0
 19 33  1  0  0  0  0
 20 13  1  0  0  0  0
 21 15  1  0  0  0  0
 21 45  1  0  0  0  0
 22 47  1  0  0  0  0
 22 48  1  0  0  0  0
 23  1  1  0  0  0  0
 23 56  1  0  0  0  0
 24 52  1  0  0  0  0
 24 23  1  0  0  0  0
 25 54  1  0  0  0  0
 25 23  1  0  0  0  0
 28 10  1  0  0  0  0
 29 11  1  0  0  0  0
 30 16  1  0  0  0  0
 31 17  1  0  0  0  0
 32 18  1  0  0  0  0
 37  6  1  0  0  0  0
 38 12  1  0  0  0  0
 41 13  1  0  0  0  0
 44 21  1  0  0  0  0
 46 21  1  0  0  0  0
 49 22  1  0  0  0  0
 50 24  1  0  0  0  0
 51 24  1  0  0  0  0
 53 25  1  0  0  0  0
 55 25  1  0  0  0  0
M  END
