1,3,4,10
 OpenBabel05122313063D

 28 27  0  0  0  0  0  0  0  0999 V2000
   -2.3405   -0.7848   -0.2794 N   0  0  0  0  0  0  0  0  0  0  0  0
   -2.4523   -1.3502   -1.1359 H   0  0  0  0  0  0  0  0  0  0  0  0
   -1.0415    1.5227    0.0195 N   0  0  0  0  0  2  0  0  0  0  0  0
    1.3072    0.6930    0.5022 N   0  0  0  0  0  2  0  0  0  0  0  0
   -2.9818    2.7694    0.2289 O   0  0  0  0  0  0  0  0  0  0  0  0
    2.1149    2.7614    1.1863 O   0  0  0  0  0  0  0  0  0  0  0  0
    4.5416   -0.9695    0.2360 O   0  0  0  0  0  0  0  0  0  0  0  0
    5.0968   -1.1270   -0.5583 H   0  0  0  0  0  0  0  0  0  0  0  0
    3.3099    0.0499   -1.3684 O   0  0  0  0  0  0  0  0  0  0  0  0
    0.0538   -2.0352    1.0269 S   0  0  0  0  0  1  0  0  0  0  0  0
   -1.6520   -2.7766    0.9956 C   0  0  0  0  0  0  0  0  0  0  0  0
   -1.7979   -3.3457    1.9347 H   0  0  0  0  0  0  0  0  0  0  0  0
   -1.7323   -3.4918    0.1491 H   0  0  0  0  0  0  0  0  0  0  0  0
   -2.6767   -1.6645    0.8834 C   0  0  0  0  0  0  0  0  0  0  0  0
   -3.7108   -2.0562    0.7599 H   0  0  0  0  0  0  0  0  0  0  0  0
   -2.6508   -1.0261    1.7898 H   0  0  0  0  0  0  0  0  0  0  0  0
   -3.1799    0.4418   -0.3935 C   0  0  0  0  0  0  0  0  0  0  0  0
   -4.0856    0.3710    0.2409 H   0  0  0  0  0  0  0  0  0  0  0  0
   -3.5184    0.5544   -1.4431 H   0  0  0  0  0  0  0  0  0  0  0  0
   -2.4074    1.7161   -0.0088 C   0  0  0  0  0  0  0  0  0  0  0  0
   -0.1770    2.6214    0.4254 C   0  0  0  0  0  0  0  0  0  0  0  0
   -0.5710    3.1376    1.3261 H   0  0  0  0  0  0  0  0  0  0  0  0
   -0.1006    3.3957   -0.3687 H   0  0  0  0  0  0  0  0  0  0  0  0
    1.2113    2.0720    0.7326 C   0  0  0  0  0  0  0  0  0  0  0  0
    2.5402    0.0717    0.9473 C   0  0  0  0  0  0  0  0  0  0  0  0
    2.3358   -0.8554    1.5241 H   0  0  0  0  0  0  0  0  0  0  0  0
    3.0817    0.7757    1.6165 H   0  0  0  0  0  0  0  0  0  0  0  0
    3.4705   -0.2637   -0.2077 C   0  0  0  0  0  0  0  0  0  0  0  0
  1 14  1  0  0  0  0
  2  1  1  0  0  0  0
  3 21  1  0  0  0  0
  4 24  1  0  0  0  0
  4 25  1  0  0  0  0
  8  7  1  0  0  0  0
  9 28  2  0  0  0  0
 11 10  1  0  0  0  0
 11 12  1  0  0  0  0
 13 11  1  0  0  0  0
 14 11  1  0  0  0  0
 14 16  1  0  0  0  0
 15 14  1  0  0  0  0
 17  1  1  0  0  0  0
 17 20  1  0  0  0  0
 17 18  1  0  0  0  0
 19 17  1  0  0  0  0
 20  3  1  0  0  0  0
 20  5  2  0  0  0  0
 21 24  1  0  0  0  0
 21 22  1  0  0  0  0
 23 21  1  0  0  0  0
 24  6  2  0  0  0  0
 25 26  1  0  0  0  0
 25 27  1  0  0  0  0
 28  7  1  0  0  0  0
 28 25  1  0  0  0  0
M  END
