1,3,6,8
 OpenBabel05122313063D

 60 62  0  0  1  0  0  0  0  0999 V2000
    1.9049    1.6003   -0.1549 S   0  0  0  0  0  1  0  0  0  0  0  0
    4.8535    1.4644   -0.7055 S   0  0  0  0  0  0  0  0  0  0  0  0
    1.2265   -1.5815   -0.4026 N   0  0  0  0  0  2  0  0  0  0  0  0
   -1.6440   -1.4562   -1.0777 N   0  0  0  0  0  0  0  0  0  0  0  0
   -2.3636    0.7810   -1.4626 N   0  0  0  0  0  0  0  0  0  0  0  0
   -1.3200    1.3397   -0.7947 N   0  0  0  0  0  2  0  0  0  0  0  0
   -2.2756   -0.8317    1.1750 N   0  0  0  0  0  0  0  0  0  0  0  0
   -1.0055   -0.4948    1.5102 N   0  0  0  0  0  2  0  0  0  0  0  0
    3.3493    0.7208   -0.1942 C   0  0  2  0  0  3  0  0  0  0  0  0
    4.4397    3.2209   -0.8414 C   0  0  0  0  0  0  0  0  0  0  0  0
    3.4845   -0.6664    0.1625 C   0  0  0  0  0  0  0  0  0  0  0  0
    2.4381   -1.7410    0.0859 C   0  0  0  0  0  0  0  0  0  0  0  0
    3.0725   -2.9772    0.5392 C   0  0  0  0  0  0  0  0  0  0  0  0
    4.3911   -2.6981    0.8317 C   0  0  0  0  0  0  0  0  0  0  0  0
    4.6503   -1.2924    0.5986 C   0  0  0  0  0  3  0  0  0  0  0  0
    0.3791   -2.7660   -0.5387 C   0  0  0  0  0  0  0  0  0  0  0  0
   -0.7418   -2.5184   -1.5615 C   0  0  1  0  0  0  0  0  0  0  0  0
   -1.4510   -3.8157   -1.9668 C   0  0  0  0  0  0  0  0  0  0  0  0
   -2.1920   -0.5376   -2.0524 C   0  0  0  0  0  0  0  0  0  0  0  0
   -4.7509    1.2536   -2.1486 C   0  0  0  0  0  0  0  0  0  0  0  0
   -3.4657    1.5983   -1.4698 C   0  0  2  0  0  3  0  0  0  0  0  0
   -3.0931    2.7394   -0.7581 C   0  0  0  0  0  0  0  0  0  0  0  0
   -1.7514    2.5366   -0.3479 C   0  0  0  0  0  0  0  0  0  0  0  0
   -0.8792    3.4405    0.4598 C   0  0  0  0  0  0  0  0  0  0  0  0
   -2.4936   -1.7508    0.0514 C   0  0  0  0  0  0  0  0  0  0  0  0
   -4.6544   -0.6220    1.9842 C   0  0  0  0  0  0  0  0  0  0  0  0
   -3.1845   -0.3878    2.0988 C   0  0  2  0  0  3  0  0  0  0  0  0
   -2.4405    0.2815    3.0749 C   0  0  0  0  0  0  0  0  0  0  0  0
   -1.0861    0.1968    2.6681 C   0  0  0  0  0  0  0  0  0  0  0  0
    0.1420    0.7347    3.3280 C   0  0  0  0  0  0  0  0  0  0  0  0
    5.3880    3.7251   -1.1085 H   0  0  0  0  0  0  0  0  0  0  0  0
    3.6855    3.3802   -1.6350 H   0  0  0  0  0  0  0  0  0  0  0  0
    4.0560    3.6102    0.1216 H   0  0  0  0  0  0  0  0  0  0  0  0
    2.5844   -3.9541    0.6229 H   0  0  0  0  0  0  0  0  0  0  0  0
    5.1345   -3.4145    1.2051 H   0  0  0  0  0  0  0  0  0  0  0  0
    5.6072   -0.7873    0.7842 H   0  0  0  0  0  0  0  0  0  0  0  0
    0.9764   -3.6378   -0.8736 H   0  0  0  0  0  0  0  0  0  0  0  0
   -0.0555   -3.0386    0.4498 H   0  0  0  0  0  0  0  0  0  0  0  0
   -0.2499   -2.0905   -2.4602 H   0  0  0  0  0  0  0  0  0  0  0  0
   -1.8972   -4.3378   -1.0953 H   0  0  0  0  0  0  0  0  0  0  0  0
   -2.2591   -3.6160   -2.6979 H   0  0  0  0  0  0  0  0  0  0  0  0
   -0.7388   -4.5200   -2.4400 H   0  0  0  0  0  0  0  0  0  0  0  0
   -1.4855   -0.4811   -2.9070 H   0  0  0  0  0  0  0  0  0  0  0  0
   -3.1891   -0.8392   -2.4479 H   0  0  0  0  0  0  0  0  0  0  0  0
   -4.6304    1.1511   -3.2470 H   0  0  0  0  0  0  0  0  0  0  0  0
   -5.1895    0.3061   -1.7711 H   0  0  0  0  0  0  0  0  0  0  0  0
   -5.4895    2.0558   -1.9694 H   0  0  0  0  0  0  0  0  0  0  0  0
   -3.7191    3.6155   -0.5593 H   0  0  0  0  0  0  0  0  0  0  0  0
   -0.0351    3.8309   -0.1444 H   0  0  0  0  0  0  0  0  0  0  0  0
   -1.4592    4.3012    0.8393 H   0  0  0  0  0  0  0  0  0  0  0  0
   -0.4399    2.9030    1.3234 H   0  0  0  0  0  0  0  0  0  0  0  0
   -2.2988   -2.7868    0.3979 H   0  0  0  0  0  0  0  0  0  0  0  0
   -3.5729   -1.6895   -0.2052 H   0  0  0  0  0  0  0  0  0  0  0  0
   -5.1756   -0.1369    2.8291 H   0  0  0  0  0  0  0  0  0  0  0  0
   -5.0671   -0.1918    1.0473 H   0  0  0  0  0  0  0  0  0  0  0  0
   -4.9151   -1.7006    2.0068 H   0  0  0  0  0  0  0  0  0  0  0  0
   -2.8386    0.7774    3.9665 H   0  0  0  0  0  0  0  0  0  0  0  0
    0.9627    0.8390    2.5910 H   0  0  0  0  0  0  0  0  0  0  0  0
   -0.0520    1.7223    3.7889 H   0  0  0  0  0  0  0  0  0  0  0  0
    0.4888    0.0572    4.1360 H   0  0  0  0  0  0  0  0  0  0  0  0
  2  9  1  0  0  0  0
  3 12  1  0  0  0  0
  4 25  1  0  0  0  0
  5  6  1  0  0  0  0
  6 23  1  0  0  0  0
  7  8  1  0  0  0  0
  7 27  1  0  0  0  0
  8 29  1  0  0  0  0
  9  1  1  6  0  0  0
  9 11  1  0  0  0  0
 10  2  1  0  0  0  0
 10 33  1  0  0  0  0
 11 15  1  0  0  0  0
 12 11  2  0  0  0  0
 12 13  1  0  0  0  0
 13 34  1  0  0  0  0
 13 14  2  0  0  0  0
 14 35  1  0  0  0  0
 15 36  1  0  0  0  0
 15 14  1  0  0  0  0
 16  3  1  0  0  0  0
 16 38  1  0  0  0  0
 17 39  1  6  0  0  0
 17  4  1  0  0  0  0
 17 16  1  0  0  0  0
 18 17  1  0  0  0  0
 18 40  1  0  0  0  0
 19  5  1  0  0  0  0
 19  4  1  0  0  0  0
 20 47  1  0  0  0  0
 20 46  1  0  0  0  0
 21 20  1  6  0  0  0
 21  5  1  0  0  0  0
 21 22  1  0  0  0  0
 22 48  1  0  0  0  0
 22 23  2  0  0  0  0
 23 24  1  0  0  0  0
 24 50  1  0  0  0  0
 24 51  1  0  0  0  0
 25 52  1  0  0  0  0
 25  7  1  0  0  0  0
 26 56  1  0  0  0  0
 26 54  1  0  0  0  0
 27 26  1  6  0  0  0
 27 28  1  0  0  0  0
 28 57  1  0  0  0  0
 29 28  2  0  0  0  0
 29 30  1  0  0  0  0
 30 59  1  0  0  0  0
 30 60  1  0  0  0  0
 31 10  1  0  0  0  0
 32 10  1  0  0  0  0
 37 16  1  0  0  0  0
 41 18  1  0  0  0  0
 42 18  1  0  0  0  0
 43 19  1  0  0  0  0
 44 19  1  0  0  0  0
 45 20  1  0  0  0  0
 49 24  1  0  0  0  0
 53 25  1  0  0  0  0
 55 26  1  0  0  0  0
 58 30  1  0  0  0  0
M  END
