2,3,4,5
q = -2.0, confidence = 0.778

 39 40  0  0  1  0  0  0  0  0999 V2000
   -2.9446   -1.0100   -0.8934 S   0  0  0  0  0  0  0  0  0  0  0  0
    2.9112    1.6134    0.2549 S   0  0  0  0  0  1  0  0  0  0  0  0
   -0.3478   -0.8530   -0.3383 N   0  0  0  0  0  0  0  0  0  0  0  0
    2.2184   -1.0975   -0.0679 N   0  0  0  0  0  2  0  0  0  0  0  0
   -0.1371    1.7500   -0.1588 N   0  0  0  0  0  2  0  0  0  0  0  0
    2.2830   -3.3178   -0.7420 O   0  0  0  0  0  0  0  0  0  0  0  0
   -2.4669   -1.5266    0.8505 C   0  0  0  0  0  0  0  0  0  0  0  0
   -0.9662   -1.1113    0.9865 C   0  0  0  0  0  0  0  0  0  0  0  0
   -0.9012   -0.1764    1.5757 H   0  0  0  0  0  0  0  0  0  0  0  0
   -0.3631   -1.8758    1.5115 H   0  0  0  0  0  0  0  0  0  0  0  0
    0.2161   -2.0713   -0.9734 C   0  0  0  0  0  0  0  0  0  0  0  0
    0.1852   -1.9408   -2.0736 H   0  0  0  0  0  0  0  0  0  0  0  0
   -0.3641   -2.9836   -0.7335 H   0  0  0  0  0  0  0  0  0  0  0  0
    1.6934   -2.2488   -0.5607 C   0  0  0  0  0  0  0  0  0  0  0  0
    3.6581   -1.0129    0.1783 C   0  0  0  0  0  0  0  0  0  0  0  0
    4.2002   -0.9521   -0.7941 H   0  0  0  0  0  0  0  0  0  0  0  0
    4.0163   -1.9333    0.6904 H   0  0  0  0  0  0  0  0  0  0  0  0
    3.9091    0.2449    0.9934 C   0  0  0  0  0  0  0  0  0  0  0  0
    4.9783    0.5407    0.9840 H   0  0  0  0  0  0  0  0  0  0  0  0
    3.6016    0.0965    2.0501 H   0  0  0  0  0  0  0  0  0  0  0  0
   -1.3519   -0.1093   -1.1185 C   0  0  2  0  0  0  0  0  0  0  0  0
   -1.0799   -0.1464   -2.1936 H   0  0  0  0  0  0  0  0  0  0  0  0
   -1.3515    1.3356   -0.6392 C   0  0  2  0  0  3  0  0  0  0  0  0
   -2.4515    2.1909   -0.7091 C   0  0  0  0  0  0  0  0  0  0  0  0
   -3.4078    1.7906   -1.0756 H   0  0  0  0  0  0  0  0  0  0  0  0
   -2.3115    3.5245   -0.2904 C   0  0  0  0  0  0  0  0  0  0  0  0
   -3.1632    4.2183   -0.3405 H   0  0  0  0  0  0  0  0  0  0  0  0
   -1.0660    3.9440    0.2049 C   0  0  0  0  0  0  0  0  0  0  0  0
   -0.9091    4.9739    0.5566 H   0  0  0  0  0  0  0  0  0  0  0  0
   -0.0090    3.0341    0.2692 C   0  0  0  0  0  0  0  0  0  0  0  0
    0.9837    3.2906    0.6747 H   0  0  0  0  0  0  0  0  0  0  0  0
   -3.3169   -0.7669    1.8767 C   0  0  0  0  0  0  0  0  0  0  0  0
   -3.0009   -1.0350    2.9078 H   0  0  0  0  0  0  0  0  0  0  0  0
   -4.3894   -1.0242    1.7741 H   0  0  0  0  0  0  0  0  0  0  0  0
   -3.2100    0.3285    1.7523 H   0  0  0  0  0  0  0  0  0  0  0  0
   -2.6886   -3.0398    0.9788 C   0  0  0  0  0  0  0  0  0  0  0  0
   -2.4122   -3.3769    1.9998 H   0  0  0  0  0  0  0  0  0  0  0  0
   -2.0856   -3.6103    0.2476 H   0  0  0  0  0  0  0  0  0  0  0  0
   -3.7540   -3.2988    0.8173 H   0  0  0  0  0  0  0  0  0  0  0  0
  1  7  1  0  0  0  0
  2 18  1  0  0  0  0
  3  8  1  0  0  0  0
  4 15  1  0  0  0  0
  5 30  1  0  0  0  0
  6 14  2  0  0  0  0
  7 36  1  0  0  0  0
  7  8  1  0  0  0  0
  7 32  1  0  0  0  0
  8 10  1  0  0  0  0
  8  9  1  0  0  0  0
 11 13  1  0  0  0  0
 11 14  1  0  0  0  0
 11  3  1  0  0  0  0
 12 11  1  0  0  0  0
 14  4  1  0  0  0  0
 15 17  1  0  0  0  0
 15 18  1  0  0  0  0
 16 15  1  0  0  0  0
 18 20  1  0  0  0  0
 19 18  1  0  0  0  0
 21 22  1  6  0  0  0
 21  1  1  0  0  0  0
 21 23  1  0  0  0  0
 21  3  1  0  0  0  0
 23 24  1  6  0  0  0
 23  5  1  0  0  0  0
 24 26  2  0  0  0  0
 25 24  1  0  0  0  0
 26 28  1  0  0  0  0
 27 26  1  0  0  0  0
 28 30  2  0  0  0  0
 28 29  1  0  0  0  0
 30 31  1  0  0  0  0
 32 33  1  0  0  0  0
 34 32  1  0  0  0  0
 35 32  1  0  0  0  0
 36 37  1  0  0  0  0
 38 36  1  0  0  0  0
 39 36  1  0  0  0  0
M  END
