1,2,3,6
q = 0.0, confidence = 0.978

 74 74  0  0  0  0  0  0  0  0999 V2000
    0.0138   -2.0154    0.9802 S   0  0  0  0  0  0  0  0  0  0  0  0
    0.5286   -0.9606   -2.0232 N   0  0  0  0  0  0  0  0  0  0  0  0
   -2.0081   -0.2056   -0.8374 N   0  0  0  0  0  2  0  0  0  0  0  0
   -4.3060   -0.6602   -0.3663 N   0  0  0  0  0  0  0  0  0  0  0  0
   -3.2612    1.2819    0.4499 N   0  0  0  0  0  0  0  0  0  0  0  0
    1.1459    1.4707   -0.6036 N   0  0  0  0  0  2  0  0  0  0  0  0
    1.8382    3.7532   -0.4761 N   0  0  0  0  0  0  0  0  0  0  0  0
    1.8519    2.3812    1.4282 N   0  0  0  0  0  0  0  0  0  0  0  0
    0.9673   -2.3663   -1.8923 C   0  0  0  0  0  0  0  0  0  0  0  0
    1.3606   -2.7501   -2.8645 H   0  0  0  0  0  0  0  0  0  0  0  0
    0.0664   -2.9704   -1.6527 H   0  0  0  0  0  0  0  0  0  0  0  0
    2.0085   -2.5812   -0.8159 C   0  0  0  0  0  0  0  0  0  0  0  0
    3.3261   -2.9209   -1.1698 C   0  0  0  0  0  0  0  0  0  0  0  0
    3.5687   -3.0324   -2.2385 H   0  0  0  0  0  0  0  0  0  0  0  0
    4.3231   -3.1251   -0.2038 C   0  0  0  0  0  0  0  0  0  0  0  0
    5.3440   -3.3937   -0.5111 H   0  0  0  0  0  0  0  0  0  0  0  0
    4.0011   -2.9893    1.1526 C   0  0  0  0  0  0  0  0  0  0  0  0
    4.7673   -3.1518    1.9254 H   0  0  0  0  0  0  0  0  0  0  0  0
    2.6941   -2.6550    1.5397 C   0  0  0  0  0  0  0  0  0  0  0  0
    2.4607   -2.5696    2.6091 H   0  0  0  0  0  0  0  0  0  0  0  0
    1.6990   -2.4473    0.5666 C   0  0  0  0  0  0  0  0  0  0  0  0
   -0.0481   -2.0428    2.8131 C   0  0  0  0  0  0  0  0  0  0  0  0
    0.1326   -3.0834    3.1505 H   0  0  0  0  0  0  0  0  0  0  0  0
    0.7607   -1.3955    3.2072 H   0  0  0  0  0  0  0  0  0  0  0  0
   -1.4181   -1.5303    3.2434 C   0  0  0  0  0  0  0  0  0  0  0  0
   -1.4895   -1.5184    4.3487 H   0  0  0  0  0  0  0  0  0  0  0  0
   -2.2349   -2.1724    2.8569 H   0  0  0  0  0  0  0  0  0  0  0  0
   -1.5871   -0.4988    2.8715 H   0  0  0  0  0  0  0  0  0  0  0  0
    1.6108   -0.0639   -2.4583 C   0  0  0  0  0  0  0  0  0  0  0  0
    1.7761   -0.1208   -3.5618 H   0  0  0  0  0  0  0  0  0  0  0  0
    2.5415   -0.4102   -1.9667 H   0  0  0  0  0  0  0  0  0  0  0  0
    1.3632    1.3918   -2.0437 C   0  0  0  0  0  0  0  0  0  0  0  0
    2.2386    2.0017   -2.3595 H   0  0  0  0  0  0  0  0  0  0  0  0
    0.4893    1.7923   -2.6080 H   0  0  0  0  0  0  0  0  0  0  0  0
    1.5858    2.5105    0.0795 C   0  0  0  0  0  3  0  0  0  0  0  0
    2.9695    4.5719   -0.0676 C   0  0  0  0  0  0  0  0  0  0  0  0
    2.6542    5.4990    0.4623 H   0  0  0  0  0  0  0  0  0  0  0  0
    3.5578    4.8780   -0.9598 H   0  0  0  0  0  0  0  0  0  0  0  0
    3.6277    3.9900    0.6020 H   0  0  0  0  0  0  0  0  0  0  0  0
    0.9565    4.3281   -1.4773 C   0  0  0  0  0  0  0  0  0  0  0  0
    0.0213    3.7431   -1.5376 H   0  0  0  0  0  0  0  0  0  0  0  0
    1.4165    4.3666   -2.4897 H   0  0  0  0  0  0  0  0  0  0  0  0
    0.6902    5.3684   -1.1886 H   0  0  0  0  0  0  0  0  0  0  0  0
    1.4287    3.4014    2.3783 C   0  0  0  0  0  0  0  0  0  0  0  0
    1.1090    4.3124    1.8427 H   0  0  0  0  0  0  0  0  0  0  0  0
    2.2481    3.6706    3.0773 H   0  0  0  0  0  0  0  0  0  0  0  0
    0.5657    3.0392    2.9831 H   0  0  0  0  0  0  0  0  0  0  0  0
    2.0672    1.0598    1.9831 C   0  0  0  0  0  0  0  0  0  0  0  0
    1.1026    0.5247    2.1611 H   0  0  0  0  0  0  0  0  0  0  0  0
    2.6130    1.1531    2.9432 H   0  0  0  0  0  0  0  0  0  0  0  0
    2.6600    0.4405    1.2849 H   0  0  0  0  0  0  0  0  0  0  0  0
   -3.1555    0.1054   -0.2712 C   0  0  0  0  0  3  0  0  0  0  0  0
   -4.2525   -2.1084   -0.2628 C   0  0  0  0  0  0  0  0  0  0  0  0
   -4.4576   -2.6214   -1.2289 H   0  0  0  0  0  0  0  0  0  0  0  0
   -5.0114   -2.4586    0.4708 H   0  0  0  0  0  0  0  0  0  0  0  0
   -3.2580   -2.4251    0.1018 H   0  0  0  0  0  0  0  0  0  0  0  0
   -5.6244   -0.0690   -0.5333 C   0  0  0  0  0  0  0  0  0  0  0  0
   -6.2796   -0.2307    0.3526 H   0  0  0  0  0  0  0  0  0  0  0  0
   -6.1340   -0.5172   -1.4140 H   0  0  0  0  0  0  0  0  0  0  0  0
   -5.5264    1.0181   -0.7041 H   0  0  0  0  0  0  0  0  0  0  0  0
   -3.9834    1.3263    1.7142 C   0  0  0  0  0  0  0  0  0  0  0  0
   -4.5561    0.3939    1.8594 H   0  0  0  0  0  0  0  0  0  0  0  0
   -4.6874    2.1842    1.7515 H   0  0  0  0  0  0  0  0  0  0  0  0
   -3.2746    1.4276    2.5681 H   0  0  0  0  0  0  0  0  0  0  0  0
   -2.2499    2.3050    0.2772 C   0  0  0  0  0  0  0  0  0  0  0  0
   -1.3193    2.0772    0.8552 H   0  0  0  0  0  0  0  0  0  0  0  0
   -2.6549    3.2808    0.6129 H   0  0  0  0  0  0  0  0  0  0  0  0
   -1.9612    2.3701   -0.7879 H   0  0  0  0  0  0  0  0  0  0  0  0
   -0.7114   -0.8373   -2.8108 C   0  0  0  0  0  0  0  0  0  0  0  0
   -0.6922   -1.5069   -3.7040 H   0  0  0  0  0  0  0  0  0  0  0  0
   -0.7810    0.2028   -3.1858 H   0  0  0  0  0  0  0  0  0  0  0  0
   -1.9550   -1.1289   -1.9614 C   0  0  0  0  0  0  0  0  0  0  0  0
   -2.8635   -1.0506   -2.6005 H   0  0  0  0  0  0  0  0  0  0  0  0
   -1.9119   -2.1900   -1.6225 H   0  0  0  0  0  0  0  0  0  0  0  0
  1 22  1  0  0  0  0
  2  9  1  0  0  0  0
  3 52  1  0  0  0  0
  4 52  1  0  0  0  0
  4 53  1  0  0  0  0
  5 61  1  0  0  0  0
  6 35  1  0  0  0  0
  7 36  1  0  0  0  0
  7 35  1  0  0  0  0
  8 48  1  0  0  0  0
  8 44  1  0  0  0  0
  9 11  1  0  0  0  0
  9 12  1  0  0  0  0
 10  9  1  0  0  0  0
 12 21  1  0  0  0  0
 13 12  2  0  0  0  0
 13 15  1  0  0  0  0
 14 13  1  0  0  0  0
 15 17  2  0  0  0  0
 16 15  1  0  0  0  0
 17 19  1  0  0  0  0
 17 18  1  0  0  0  0
 19 20  1  0  0  0  0
 21  1  1  0  0  0  0
 21 19  2  0  0  0  0
 22 23  1  0  0  0  0
 22 24  1  0  0  0  0
 22 25  1  0  0  0  0
 25 26  1  0  0  0  0
 27 25  1  0  0  0  0
 28 25  1  0  0  0  0
 29 32  1  0  0  0  0
 29  2  1  0  0  0  0
 29 31  1  0  0  0  0
 30 29  1  0  0  0  0
 32  6  1  0  0  0  0
 33 32  1  0  0  0  0
 34 32  1  0  0  0  0
 35  8  1  0  0  0  0
 36 37  1  0  0  0  0
 36 39  1  0  0  0  0
 38 36  1  0  0  0  0
 40 43  1  0  0  0  0
 40  7  1  0  0  0  0
 41 40  1  0  0  0  0
 42 40  1  0  0  0  0
 44 47  1  0  0  0  0
 44 46  1  0  0  0  0
 45 44  1  0  0  0  0
 48 49  1  0  0  0  0
 48 50  1  0  0  0  0
 51 48  1  0  0  0  0
 52  5  1  0  0  0  0
 53 56  1  0  0  0  0
 53 55  1  0  0  0  0
 54 53  1  0  0  0  0
 57  4  1  0  0  0  0
 57 58  1  0  0  0  0
 59 57  1  0  0  0  0
 60 57  1  0  0  0  0
 61 63  1  0  0  0  0
 61 62  1  0  0  0  0
 61 64  1  0  0  0  0
 65  5  1  0  0  0  0
 65 67  1  0  0  0  0
 65 66  1  0  0  0  0
 68 65  1  0  0  0  0
 69  2  1  0  0  0  0
 69 72  1  0  0  0  0
 70 69  1  0  0  0  0
 71 69  1  0  0  0  0
 72 74  1  0  0  0  0
 72  3  1  0  0  0  0
 73 72  1  0  0  0  0
M  END
