1,3,5,6
q = -1.0, confidence = 0.248

 54 56  0  0  0  0  0  0  0  0999 V2000
    1.2322    2.0218   -0.6514 S   0  0  0  0  0  1  0  0  0  0  0  0
   -3.9551    0.4687   -0.0021 O   0  0  0  0  0  0  0  0  0  0  0  0
    2.2505   -1.8932    0.1119 N   0  0  0  0  0  2  0  0  0  0  0  0
   -9.4230    1.0054   -0.0181 O   0  0  0  0  0  0  0  0  0  0  0  0
   -0.1261   -1.0667    0.1989 N   0  0  0  0  0  2  0  0  0  0  0  0
    3.4856    0.3480   -0.1076 N   0  0  0  0  0  2  0  0  0  0  0  0
    1.4062   -2.8646    0.4062 N   0  0  0  0  0  2  0  0  0  0  0  0
    3.9150    1.5623   -0.0494 N   0  0  0  0  0  0  0  0  0  0  0  0
    3.5850   -1.9962    0.0764 C   0  0  0  0  0  0  0  0  0  0  0  0
    3.1464    3.7899   -0.2743 N   0  0  0  0  0  2  0  0  0  0  0  0
   -2.5119   -1.4497    0.1628 C   0  0  0  0  0  0  0  0  0  0  0  0
    4.2441   -3.3456    0.1408 C   0  0  0  0  0  0  0  0  0  0  0  0
    3.7017   -3.9388    0.9061 H   0  0  0  0  0  0  0  0  0  0  0  0
    5.2907   -3.2326    0.4856 H   0  0  0  0  0  0  0  0  0  0  0  0
   -1.3851   -0.6077    0.1162 C   0  0  0  0  0  3  0  0  0  0  0  0
   -1.5032    0.4839    0.0432 H   0  0  0  0  0  0  0  0  0  0  0  0
    0.1258   -2.4338    0.3052 C   0  0  0  0  0  0  0  0  0  0  0  0
    2.9254    2.5207   -0.3000 C   0  0  0  0  0  0  0  0  0  0  0  0
    4.2758   -0.7484   -0.0985 C   0  0  0  0  0  0  0  0  0  0  0  0
    5.7654   -0.6000   -0.2366 C   0  0  0  0  0  0  0  0  0  0  0  0
    5.9551    0.2137   -0.9666 H   0  0  0  0  0  0  0  0  0  0  0  0
    6.1919   -1.5289   -0.6667 H   0  0  0  0  0  0  0  0  0  0  0  0
   -5.8580    2.0361   -0.1385 C   0  0  0  0  0  0  0  0  0  0  0  0
   -5.2352    2.9367   -0.2281 H   0  0  0  0  0  0  0  0  0  0  0  0
   -5.2928    0.7671   -0.0219 C   0  0  0  0  0  0  0  0  0  0  0  0
   -0.9754   -3.3370    0.3412 C   0  0  0  0  0  0  0  0  0  0  0  0
   -0.7588   -4.4118    0.4014 H   0  0  0  0  0  0  0  0  0  0  0  0
   -7.2588    2.1055   -0.1364 C   0  0  0  0  0  0  0  0  0  0  0  0
   -7.7529    3.0867   -0.2266 H   0  0  0  0  0  0  0  0  0  0  0  0
   -3.8523   -0.9010    0.1284 C   0  0  0  0  0  0  0  0  0  0  0  0
    4.4916    4.3076   -0.2049 C   0  0  0  0  0  0  0  0  0  0  0  0
    4.7316    4.7442   -1.2034 H   0  0  0  0  0  0  0  0  0  0  0  0
    5.2382    3.4950   -0.0307 H   0  0  0  0  0  0  0  0  0  0  0  0
   -6.0658   -0.4202    0.0958 C   0  0  0  0  0  0  0  0  0  0  0  0
   -2.2680   -2.8522    0.2704 C   0  0  0  0  0  0  0  0  0  0  0  0
   -3.1147   -3.5538    0.2903 H   0  0  0  0  0  0  0  0  0  0  0  0
   -5.1065   -1.4868    0.1944 C   0  0  0  0  0  0  0  0  0  0  0  0
   -5.3166   -2.5559    0.3020 H   0  0  0  0  0  0  0  0  0  0  0  0
   -8.0599    0.9374   -0.0204 C   0  0  0  0  0  0  0  0  0  0  0  0
    4.1961   -4.0900   -1.2037 C   0  0  0  0  0  0  0  0  0  0  0  0
    3.1465   -4.2292   -1.5291 H   0  0  0  0  0  0  0  0  0  0  0  0
    4.6640   -5.0908   -1.1159 H   0  0  0  0  0  0  0  0  0  0  0  0
    4.7301   -3.5283   -1.9965 H   0  0  0  0  0  0  0  0  0  0  0  0
   -7.4727   -0.3333    0.0963 C   0  0  0  0  0  0  0  0  0  0  0  0
   -8.1157   -1.2198    0.1846 H   0  0  0  0  0  0  0  0  0  0  0  0
    6.4538   -0.2549    1.0948 C   0  0  0  0  0  0  0  0  0  0  0  0
    6.0397    0.6854    1.5080 H   0  0  0  0  0  0  0  0  0  0  0  0
    7.5444   -0.1184    0.9507 H   0  0  0  0  0  0  0  0  0  0  0  0
    6.3045   -1.0568    1.8460 H   0  0  0  0  0  0  0  0  0  0  0  0
    4.6042    5.4036    0.8548 C   0  0  0  0  0  0  0  0  0  0  0  0
    3.8570    6.2015    0.6733 H   0  0  0  0  0  0  0  0  0  0  0  0
    5.6162    5.8564    0.8451 H   0  0  0  0  0  0  0  0  0  0  0  0
    4.4185    4.9907    1.8667 H   0  0  0  0  0  0  0  0  0  0  0  0
   -9.6843    1.9402   -0.1044 H   0  0  0  0  0  0  0  0  0  0  0  0
  1 18  1  0  0  0  0
  2 30  1  0  0  0  0
  3  7  1  0  0  0  0
  5 17  1  0  0  0  0
  6 19  1  0  0  0  0
  6  8  1  0  0  0  0
  9  3  1  0  0  0  0
  9 12  1  0  0  0  0
 10 31  1  0  0  0  0
 11 35  2  0  0  0  0
 12 14  1  0  0  0  0
 12 13  1  0  0  0  0
 15 11  1  0  0  0  0
 15  5  1  0  0  0  0
 16 15  1  0  0  0  0
 17 26  2  0  0  0  0
 17  7  1  0  0  0  0
 18 10  1  0  0  0  0
 18  8  2  0  0  0  0
 19  9  2  0  0  0  0
 20 19  1  0  0  0  0
 20 46  1  0  0  0  0
 21 20  1  0  0  0  0
 22 20  1  0  0  0  0
 23 28  2  0  0  0  0
 23 25  1  0  0  0  0
 24 23  1  0  0  0  0
 25  2  1  0  0  0  0
 25 34  2  0  0  0  0
 26 27  1  0  0  0  0
 28 39  1  0  0  0  0
 29 28  1  0  0  0  0
 30 11  1  0  0  0  0
 30 37  2  0  0  0  0
 31 33  1  0  0  0  0
 31 50  1  0  0  0  0
 32 31  1  0  0  0  0
 34 44  1  0  0  0  0
 34 37  1  0  0  0  0
 35 36  1  0  0  0  0
 35 26  1  0  0  0  0
 37 38  1  0  0  0  0
 39  4  1  0  0  0  0
 39 44  2  0  0  0  0
 40 42  1  0  0  0  0
 40 12  1  0  0  0  0
 41 40  1  0  0  0  0
 43 40  1  0  0  0  0
 44 45  1  0  0  0  0
 46 47  1  0  0  0  0
 46 49  1  0  0  0  0
 48 46  1  0  0  0  0
 50 53  1  0  0  0  0
 51 50  1  0  0  0  0
 52 50  1  0  0  0  0
 54  4  1  0  0  0  0
M  END
