1,2,20,26
q = -2.0, confidence = 0.838

 27 26  0  0  0  0  0  0  0  0999 V2000
   -1.8629   -0.4369    0.9139 S   0  0  0  0  0  0  0  0  0  0  0  0
    0.6674    1.4536    0.6979 N   0  0  0  0  0  0  0  0  0  0  0  0
   -0.2258    1.6133    1.8773 C   0  0  0  0  0  0  0  0  0  0  0  0
   -0.1497    2.6504    2.2773 H   0  0  0  0  0  0  0  0  0  0  0  0
    0.1376    0.9241    2.6666 H   0  0  0  0  0  0  0  0  0  0  0  0
   -1.6856    1.3141    1.5399 C   0  0  0  0  0  0  0  0  0  0  0  0
   -2.0789    1.9978    0.7603 H   0  0  0  0  0  0  0  0  0  0  0  0
   -2.3121    1.4228    2.4461 H   0  0  0  0  0  0  0  0  0  0  0  0
   -3.2054   -0.2321   -0.3335 C   0  0  0  0  0  0  0  0  0  0  0  0
   -2.8557    0.4954   -1.0931 H   0  0  0  0  0  0  0  0  0  0  0  0
   -3.2329   -1.2294   -0.8175 H   0  0  0  0  0  0  0  0  0  0  0  0
   -4.5396    0.1387    0.2960 C   0  0  0  0  0  0  0  0  0  0  0  0
   -5.3185    0.1743   -0.4925 H   0  0  0  0  0  0  0  0  0  0  0  0
   -4.5108    1.1415    0.7678 H   0  0  0  0  0  0  0  0  0  0  0  0
   -4.8571   -0.5984    1.0600 H   0  0  0  0  0  0  0  0  0  0  0  0
    0.3580    2.4490   -0.3705 C   0  0  0  0  0  0  0  0  0  0  0  0
    1.2901    2.6622   -0.9310 H   0  0  0  0  0  0  0  0  0  0  0  0
   -0.0013    3.4029    0.0651 H   0  0  0  0  0  0  0  0  0  0  0  0
   -0.6578    1.8985   -1.3893 C   0  0  0  0  0  0  0  0  0  0  0  0
   -0.5110    0.6027   -1.5961 O   0  5  0  0  0  0  0  0  0  0  0  0
   -1.4893    2.6124   -1.9261 O   0  0  0  0  0  0  0  0  0  0  0  0
    2.1225    1.4430    1.0016 C   0  0  0  0  0  0  0  0  0  0  0  0
    2.2929    0.8197    1.9039 H   0  0  0  0  0  0  0  0  0  0  0  0
    2.5143    2.4623    1.1983 H   0  0  0  0  0  0  0  0  0  0  0  0
    2.8960    0.8096   -0.1934 C   0  0  0  0  0  0  0  0  0  0  0  0
    2.1999   -0.0768   -0.8902 O   0  5  0  0  0  0  0  0  0  0  0  0
    4.0474    1.1328   -0.4185 O   0  0  0  0  0  0  0  0  0  0  0  0
  1  6  1  0  0  0  0
  2 22  1  0  0  0  0
  2  3  1  0  0  0  0
  3  4  1  0  0  0  0
  3  5  1  0  0  0  0
  6  3  1  0  0  0  0
  6  8  1  0  0  0  0
  7  6  1  0  0  0  0
  9 12  1  0  0  0  0
  9  1  1  0  0  0  0
 10  9  1  0  0  0  0
 11  9  1  0  0  0  0
 12 14  1  0  0  0  0
 12 15  1  0  0  0  0
 13 12  1  0  0  0  0
 16 18  1  0  0  0  0
 16  2  1  0  0  0  0
 17 16  1  0  0  0  0
 19 16  1  0  0  0  0
 20 19  1  0  0  0  0
 21 19  2  0  0  0  0
 22 24  1  0  0  0  0
 22 23  1  0  0  0  0
 25 22  1  0  0  0  0
 26 25  1  0  0  0  0
 27 25  2  0  0  0  0
M  CHG  2  20  -1  26  -1
M  END
