1,2,4,6
 OpenBabel05122313063D

 20 19  0  0  1  0  0  0  0  0999 V2000
   -0.2648   -1.7565   -1.5394 S   0  0  0  0  0  1  0  0  0  0  0  0
    0.8796   -0.7770    1.3468 O   0  5  0  0  0  0  0  0  0  0  0  0
    0.1590   -2.5043    2.6137 O   0  0  0  0  0  0  0  0  0  0  0  0
   -0.6810    1.7166   -1.0061 O   0  5  0  0  0  0  0  0  0  0  0  0
   -2.5704    2.9512   -0.9729 O   0  0  0  0  0  0  0  0  0  0  0  0
   -1.6162   -0.0230    0.7039 N   0  0  0  0  0  0  0  0  0  0  0  0
   -2.3917   -0.7530   -0.2163 N   0  0  0  0  0  0  0  0  0  0  0  0
   -2.8657   -1.9444   -2.1109 N   0  0  0  0  0  0  0  0  0  0  0  0
   -1.8869   -1.4551   -1.2861 C   0  0  2  0  0  3  0  0  0  0  0  0
   -1.4113   -0.7623    1.9842 C   0  0  0  0  0  0  0  0  0  0  0  0
   -0.0467   -1.4772    1.9956 C   0  0  0  0  0  0  0  0  0  0  0  0
   -2.1741    1.3537    0.8108 C   0  0  0  0  0  0  0  0  0  0  0  0
   -1.8370    2.0942   -0.5019 C   0  0  0  0  0  0  0  0  0  0  0  0
   -3.4017   -0.7372   -0.0378 H   0  0  0  0  0  0  0  0  0  0  0  0
   -2.5116   -2.3950   -2.9555 H   0  0  0  0  0  0  0  0  0  0  0  0
   -3.7389   -1.4201   -2.2206 H   0  0  0  0  0  0  0  0  0  0  0  0
   -2.2379   -1.4749    2.1686 H   0  0  0  0  0  0  0  0  0  0  0  0
   -1.3824   -0.0142    2.8012 H   0  0  0  0  0  0  0  0  0  0  0  0
   -1.6334    1.8446    1.6467 H   0  0  0  0  0  0  0  0  0  0  0  0
   -3.2683    1.3444    1.0138 H   0  0  0  0  0  0  0  0  0  0  0  0
  2 11  1  0  0  0  0
  4 13  1  0  0  0  0
  5 13  2  0  0  0  0
  6 12  1  0  0  0  0
  6 10  1  0  0  0  0
  7 14  1  0  0  0  0
  7  6  1  0  0  0  0
  8  9  1  0  0  0  0
  9  1  1  1  0  0  0
  9  7  1  0  0  0  0
 10 11  1  0  0  0  0
 10 17  1  0  0  0  0
 10 18  1  0  0  0  0
 11  3  2  0  0  0  0
 12 20  1  0  0  0  0
 12 19  1  0  0  0  0
 13 12  1  0  0  0  0
 15  8  1  0  0  0  0
 16  8  1  0  0  0  0
M  CHG  2   2  -1   4  -1
M  END
