1,2,3,4
 OpenBabel05122313063D

 39 41  0  0  0  0  0  0  0  0999 V2000
    1.1384    0.5423    0.7201 O   0  5  0  0  0  0  0  0  0  0  0  0
   -2.6418    0.7763   -0.9107 O   0  5  0  0  0  0  0  0  0  0  0  0
   -0.6791   -1.1501   -1.0957 N   0  0  0  0  0  2  0  0  0  0  0  0
    0.8354    1.0845   -2.2786 S   0  0  0  0  0  0  0  0  0  0  0  0
    7.0473   -0.1442   -0.3930 Br  0  0  0  0  0  0  0  0  0  0  0  0
    2.3569   -1.6133    2.5256 Br  0  0  0  0  0  0  0  0  0  0  0  0
   -5.4163    1.6910   -0.6075 Cl  0  0  0  0  0  0  0  0  0  0  0  0
   -6.5997   -3.6051   -0.9217 Cl  0  0  0  0  0  0  0  0  0  0  0  0
    2.2213    2.0327   -1.3931 C   0  0  0  0  0  0  0  0  0  0  0  0
    2.8160    2.5486   -2.1691 H   0  0  0  0  0  0  0  0  0  0  0  0
    1.6387    2.7793   -0.8150 H   0  0  0  0  0  0  0  0  0  0  0  0
    3.0690    1.1591   -0.5285 C   0  0  0  0  0  0  0  0  0  0  0  0
    4.4412    0.9944   -0.7835 C   0  0  0  0  0  0  0  0  0  0  0  0
    4.9237    1.5723   -1.5852 H   0  0  0  0  0  0  0  0  0  0  0  0
    5.1895    0.0797   -0.0302 C   0  0  0  0  0  0  0  0  0  0  0  0
    4.5835   -0.6967    0.9708 C   0  0  0  0  0  0  0  0  0  0  0  0
    5.1663   -1.4282    1.5460 H   0  0  0  0  0  0  0  0  0  0  0  0
    3.2153   -0.5331    1.2191 C   0  0  0  0  0  0  0  0  0  0  0  0
    2.4243    0.4038    0.4988 C   0  0  0  0  0  0  0  0  0  0  0  0
    1.4212   -0.6037   -2.1762 C   0  0  0  0  0  0  0  0  0  0  0  0
    2.6794   -0.9783   -2.6765 C   0  0  0  0  0  0  0  0  0  0  0  0
    3.2928   -0.2373   -3.2074 H   0  0  0  0  0  0  0  0  0  0  0  0
    3.1603   -2.2794   -2.4754 C   0  0  0  0  0  0  0  0  0  0  0  0
    4.1615   -2.5520   -2.8393 H   0  0  0  0  0  0  0  0  0  0  0  0
    2.3718   -3.2189   -1.7919 C   0  0  0  0  0  0  0  0  0  0  0  0
    2.7571   -4.2324   -1.6062 H   0  0  0  0  0  0  0  0  0  0  0  0
    1.0948   -2.8708   -1.3345 C   0  0  0  0  0  0  0  0  0  0  0  0
    0.4850   -3.5973   -0.7779 H   0  0  0  0  0  0  0  0  0  0  0  0
    0.6009   -1.5651   -1.5295 C   0  0  0  0  0  0  0  0  0  0  0  0
   -1.7110   -1.9347   -1.2861 C   0  0  0  0  0  3  0  0  0  0  0  0
   -1.5367   -2.9405   -1.7244 H   0  0  0  0  0  0  0  0  0  0  0  0
   -3.0899   -1.5869   -1.0472 C   0  0  0  0  0  0  0  0  0  0  0  0
   -3.4904   -0.2071   -0.9126 C   0  0  0  0  0  0  0  0  0  0  0  0
   -4.8978    0.0415   -0.7921 C   0  0  0  0  0  0  0  0  0  0  0  0
   -5.8365   -0.9884   -0.7823 C   0  0  0  0  0  0  0  0  0  0  0  0
   -6.9034   -0.7567   -0.6638 H   0  0  0  0  0  0  0  0  0  0  0  0
   -5.4097   -2.3283   -0.9253 C   0  0  0  0  0  0  0  0  0  0  0  0
   -4.0594   -2.6252   -1.0738 C   0  0  0  0  0  0  0  0  0  0  0  0
   -3.7379   -3.6693   -1.1989 H   0  0  0  0  0  0  0  0  0  0  0  0
  4 20  1  0  0  0  0
  4  9  1  0  0  0  0
  5 15  1  0  0  0  0
  9 11  1  0  0  0  0
  9 12  1  0  0  0  0
 10  9  1  0  0  0  0
 12 19  1  0  0  0  0
 13 12  2  0  0  0  0
 13 15  1  0  0  0  0
 14 13  1  0  0  0  0
 15 16  2  0  0  0  0
 16 18  1  0  0  0  0
 16 17  1  0  0  0  0
 18  6  1  0  0  0  0
 19  1  1  0  0  0  0
 19 18  2  0  0  0  0
 20 29  1  0  0  0  0
 21 23  1  0  0  0  0
 21 20  2  0  0  0  0
 22 21  1  0  0  0  0
 23 25  2  0  0  0  0
 24 23  1  0  0  0  0
 25 26  1  0  0  0  0
 25 27  1  0  0  0  0
 27 28  1  0  0  0  0
 29 27  2  0  0  0  0
 29  3  1  0  0  0  0
 30  3  1  0  0  0  0
 30 32  1  0  0  0  0
 31 30  1  0  0  0  0
 32 33  1  0  0  0  0
 33  2  1  0  0  0  0
 33 34  2  0  0  0  0
 34 35  1  0  0  0  0
 34  7  1  0  0  0  0
 35 36  1  0  0  0  0
 37  8  1  0  0  0  0
 37 35  2  0  0  0  0
 38 32  2  0  0  0  0
 38 37  1  0  0  0  0
 39 38  1  0  0  0  0
M  CHG  2   1  -1   2  -1
M  END
