1,2,3,4
 OpenBabel05122313063D

 39 41  0  0  0  0  0  0  0  0999 V2000
    1.6991    0.5442    0.7103 O   0  5  0  0  0  0  0  0  0  0  0  0
   -2.1093    0.9461   -0.8267 O   0  5  0  0  0  0  0  0  0  0  0  0
   -0.2642   -1.0958   -0.9901 N   0  0  0  0  0  2  0  0  0  0  0  0
    1.3423    1.0011   -2.2968 S   0  0  0  0  0  0  0  0  0  0  0  0
    2.9684    0.3237    0.4610 C   0  0  0  0  0  0  0  0  0  0  0  0
    3.7248   -0.6294    1.1971 C   0  0  0  0  0  0  0  0  0  0  0  0
    5.0735   -0.8826    0.9193 C   0  0  0  0  0  0  0  0  0  0  0  0
    5.6293   -1.6246    1.5075 H   0  0  0  0  0  0  0  0  0  0  0  0
    5.6943   -0.1819   -0.1274 C   0  0  0  0  0  0  0  0  0  0  0  0
    4.9790    0.7467   -0.8954 C   0  0  0  0  0  0  0  0  0  0  0  0
    5.4711    1.2653   -1.7313 H   0  0  0  0  0  0  0  0  0  0  0  0
    3.6265    1.0016   -0.6110 C   0  0  0  0  0  0  0  0  0  0  0  0
    2.8081    1.8933   -1.4853 C   0  0  0  0  0  0  0  0  0  0  0  0
    3.4102    2.3432   -2.2958 H   0  0  0  0  0  0  0  0  0  0  0  0
    2.2896    2.6951   -0.9202 H   0  0  0  0  0  0  0  0  0  0  0  0
    2.8443   -1.6044    2.5700 Br  0  0  0  0  0  0  0  0  0  0  0  0
    7.5248   -0.5282   -0.5303 Br  0  0  0  0  0  0  0  0  0  0  0  0
    1.8304   -0.7145   -2.1489 C   0  0  0  0  0  0  0  0  0  0  0  0
    3.0491   -1.1806   -2.6698 C   0  0  0  0  0  0  0  0  0  0  0  0
    3.6884   -0.4966   -3.2448 H   0  0  0  0  0  0  0  0  0  0  0  0
    3.4592   -2.4999   -2.4339 C   0  0  0  0  0  0  0  0  0  0  0  0
    4.4313   -2.8443   -2.8155 H   0  0  0  0  0  0  0  0  0  0  0  0
    2.6383   -3.3661   -1.6940 C   0  0  0  0  0  0  0  0  0  0  0  0
    2.9693   -4.3934   -1.4816 H   0  0  0  0  0  0  0  0  0  0  0  0
    1.3983   -2.9266   -1.2140 C   0  0  0  0  0  0  0  0  0  0  0  0
    0.7645   -3.5957   -0.6138 H   0  0  0  0  0  0  0  0  0  0  0  0
    0.9756   -1.6018   -1.4437 C   0  0  0  0  0  0  0  0  0  0  0  0
   -1.3447   -1.8254   -1.1165 C   0  0  0  0  0  3  0  0  0  0  0  0
   -1.2428   -2.8566   -1.5169 H   0  0  0  0  0  0  0  0  0  0  0  0
   -2.6939   -1.3887   -0.8531 C   0  0  0  0  0  0  0  0  0  0  0  0
   -3.7184   -2.3719   -0.8093 C   0  0  0  0  0  0  0  0  0  0  0  0
   -3.4513   -3.4352   -0.8983 H   0  0  0  0  0  0  0  0  0  0  0  0
   -5.0457   -1.9946   -0.6394 C   0  0  0  0  0  0  0  0  0  0  0  0
   -5.3965   -0.6286   -0.5473 C   0  0  0  0  0  0  0  0  0  0  0  0
   -6.4461   -0.3330   -0.4145 H   0  0  0  0  0  0  0  0  0  0  0  0
   -4.4031    0.3460   -0.6264 C   0  0  0  0  0  0  0  0  0  0  0  0
   -3.0145    0.0173   -0.7670 C   0  0  0  0  0  0  0  0  0  0  0  0
   -4.8687    2.1802   -0.4980 Br  0  0  0  0  0  0  0  0  0  0  0  0
   -6.4142   -3.3131   -0.5397 Br  0  0  0  0  0  0  0  0  0  0  0  0
  2 37  1  0  0  0  0
  4 18  1  0  0  0  0
  4 13  1  0  0  0  0
  5  1  1  0  0  0  0
  5  6  1  0  0  0  0
  6 16  1  0  0  0  0
  7  6  2  0  0  0  0
  7  8  1  0  0  0  0
  9  7  1  0  0  0  0
 10 12  1  0  0  0  0
 10  9  2  0  0  0  0
 11 10  1  0  0  0  0
 12  5  2  0  0  0  0
 13 15  1  0  0  0  0
 13 12  1  0  0  0  0
 14 13  1  0  0  0  0
 17  9  1  0  0  0  0
 18 27  1  0  0  0  0
 19 21  1  0  0  0  0
 19 18  2  0  0  0  0
 20 19  1  0  0  0  0
 21 23  2  0  0  0  0
 22 21  1  0  0  0  0
 23 24  1  0  0  0  0
 23 25  1  0  0  0  0
 25 26  1  0  0  0  0
 27 25  2  0  0  0  0
 27  3  1  0  0  0  0
 28  3  1  0  0  0  0
 28 30  1  0  0  0  0
 29 28  1  0  0  0  0
 30 31  2  0  0  0  0
 30 37  1  0  0  0  0
 31 33  1  0  0  0  0
 32 31  1  0  0  0  0
 33 34  2  0  0  0  0
 33 39  1  0  0  0  0
 34 35  1  0  0  0  0
 36 34  1  0  0  0  0
 36 38  1  0  0  0  0
 37 36  2  0  0  0  0
M  CHG  2   1  -1   2  -1
M  END
