1,4
q = -1.0, confidence = 0.0

 34 36  0  0  0  0  0  0  0  0999 V2000
    0.2759   -0.2929   -1.8460 Se  0  0  0  0  0  1  0  0  0  0  0  0
   -1.0747   -0.0644   -0.1517 P   0  0  0  0  0  4  0  0  0  0  0  0
   -0.2619   -0.7592    1.3013 C   0  0  0  0  0  0  0  0  0  0  0  0
    1.1585   -0.7214    1.3277 C   0  0  0  0  0  3  0  0  0  0  0  0
    1.7421   -1.2038    2.5253 C   0  0  0  0  0  0  0  0  0  0  0  0
    0.9763   -1.6959    3.5937 C   0  0  0  0  0  0  0  0  0  0  0  0
   -0.4260   -1.7330    3.5188 C   0  0  0  0  0  0  0  0  0  0  0  0
   -1.0523   -1.2592    2.3614 C   0  0  0  0  0  0  0  0  0  0  0  0
   -1.4826    1.6856    0.1909 C   0  0  0  0  0  0  0  0  0  0  0  0
   -1.6282    2.5804   -0.8866 C   0  0  0  0  0  0  0  0  0  0  0  0
   -1.9473    3.9217   -0.6366 C   0  0  0  0  0  0  0  0  0  0  0  0
   -2.1115    4.3720    0.6840 C   0  0  0  0  0  0  0  0  0  0  0  0
   -1.9569    3.4806    1.7571 C   0  0  0  0  0  0  0  0  0  0  0  0
   -1.6418    2.1351    1.5162 C   0  0  0  0  0  0  0  0  0  0  0  0
   -2.6622   -0.9226   -0.4214 C   0  0  0  0  0  0  0  0  0  0  0  0
   -2.6214   -2.2792   -0.8078 C   0  0  0  0  0  0  0  0  0  0  0  0
   -3.8174   -2.9827   -0.9970 C   0  0  0  0  0  0  0  0  0  0  0  0
   -5.0525   -2.3382   -0.8075 C   0  0  0  0  0  0  0  0  0  0  0  0
   -5.0920   -0.9879   -0.4278 C   0  0  0  0  0  0  0  0  0  0  0  0
   -3.8984   -0.2748   -0.2330 C   0  0  0  0  0  0  0  0  0  0  0  0
    2.8371   -1.2106    2.6343 H   0  0  0  0  0  0  0  0  0  0  0  0
    1.4863   -2.0674    4.4967 H   0  0  0  0  0  0  0  0  0  0  0  0
   -1.0245   -2.1320    4.3513 H   0  0  0  0  0  0  0  0  0  0  0  0
   -2.1503   -1.2813    2.2726 H   0  0  0  0  0  0  0  0  0  0  0  0
   -1.4600    2.2233   -1.9149 H   0  0  0  0  0  0  0  0  0  0  0  0
   -2.0548    4.6233   -1.4774 H   0  0  0  0  0  0  0  0  0  0  0  0
   -2.3493    5.4289    0.8781 H   0  0  0  0  0  0  0  0  0  0  0  0
   -2.0695    3.8364    2.7922 H   0  0  0  0  0  0  0  0  0  0  0  0
   -1.4980    1.4393    2.3564 H   0  0  0  0  0  0  0  0  0  0  0  0
   -1.6488   -2.7709   -0.9667 H   0  0  0  0  0  0  0  0  0  0  0  0
   -3.7864   -4.0405   -1.2982 H   0  0  0  0  0  0  0  0  0  0  0  0
   -5.9903   -2.8933   -0.9607 H   0  0  0  0  0  0  0  0  0  0  0  0
   -6.0585   -0.4822   -0.2831 H   0  0  0  0  0  0  0  0  0  0  0  0
   -3.9261    0.7842    0.0636 H   0  0  0  0  0  0  0  0  0  0  0  0
  1  2  1  0  0  0  0
  2  9  1  0  0  0  0
  2  3  1  0  0  0  0
  3  4  2  0  0  0  0
  3  8  1  0  0  0  0
  4  5  1  0  0  0  0
  5 21  1  0  0  0  0
  5  6  2  0  0  0  0
  6 22  1  0  0  0  0
  7  6  1  0  0  0  0
  7 23  1  0  0  0  0
  8  7  2  0  0  0  0
  9 14  1  0  0  0  0
 10 11  1  0  0  0  0
 10  9  2  0  0  0  0
 11 12  2  0  0  0  0
 12 27  1  0  0  0  0
 12 13  1  0  0  0  0
 13 28  1  0  0  0  0
 14 13  2  0  0  0  0
 14 29  1  0  0  0  0
 15 20  1  0  0  0  0
 15  2  1  0  0  0  0
 16 15  2  0  0  0  0
 17 16  1  0  0  0  0
 17 18  2  0  0  0  0
 18 19  1  0  0  0  0
 19 33  1  0  0  0  0
 19 20  2  0  0  0  0
 20 34  1  0  0  0  0
 24  8  1  0  0  0  0
 25 10  1  0  0  0  0
 26 11  1  0  0  0  0
 30 16  1  0  0  0  0
 31 17  1  0  0  0  0
 32 18  1  0  0  0  0
M  END
