1,2
 OpenBabel05122313053D

  9  8  0  0  0  0  0  0  0  0999 V2000
    2.2053   -0.0001   -1.0404 Se  0  0  0  0  0  1  0  0  0  0  0  0
    0.4936   -0.0001    1.9258 C   0  0  0  0  0  3  0  0  0  0  0  0
   -0.3111   -0.0001    2.6892 H   0  0  0  0  0  0  0  0  0  0  0  0
    1.7615   -0.0001    2.4468 C   0  0  0  0  0  0  0  0  0  0  0  0
    1.8321   -0.0001    3.5520 H   0  0  0  0  0  0  0  0  0  0  0  0
    3.0561   -0.0001    1.7841 C   0  0  0  0  0  0  0  0  0  0  0  0
    3.9260   -0.0002    2.4649 H   0  0  0  0  0  0  0  0  0  0  0  0
    3.3568   -0.0002    0.4465 C   0  0  0  0  0  0  0  0  0  0  0  0
    4.4212   -0.0002    0.1530 H   0  0  0  0  0  0  0  0  0  0  0  0
  1  8  1  0  0  0  0
  2  4  2  0  0  0  0
  2  3  1  0  0  0  0
  4  5  1  0  0  0  0
  6  4  1  0  0  0  0
  6  7  1  0  0  0  0
  8  6  2  0  0  0  0
  9  8  1  0  0  0  0
M  END
