1,6
 OpenBabel05122313053D

 24 25  0  0  0  0  0  0  0  0999 V2000
    0.3661    1.9660    0.0852 Se  0  0  0  0  0  1  0  0  0  0  0  0
    4.3505    0.8669    0.1589 O   0  0  0  0  0  0  0  0  0  0  0  0
    2.7632    3.4348    0.1843 N   0  0  0  0  0  0  0  0  0  0  0  0
    2.2428    2.1885    0.1468 C   0  0  0  0  0  0  0  0  0  0  0  0
    2.9513    0.9471    0.1465 C   0  0  0  0  0  0  0  0  0  0  0  0
    2.3336   -0.3093    0.0963 C   0  0  0  0  0  3  0  0  0  0  0  0
    3.4395   -1.2408    0.0791 C   0  0  0  0  0  0  0  0  0  0  0  0
    3.5516   -2.6519    0.0313 C   0  0  0  0  0  3  0  0  0  0  0  0
    4.8275   -3.2209    0.0275 C   0  0  0  0  0  0  0  0  0  0  0  0
    5.9953   -2.4189    0.0695 C   0  0  0  0  0  0  0  0  0  0  0  0
    5.9208   -1.0196    0.1162 C   0  0  0  0  0  0  0  0  0  0  0  0
    4.6364   -0.4678    0.1192 C   0  0  0  0  0  0  0  0  0  0  0  0
    4.1772    3.7420    0.3836 C   0  0  0  0  0  0  0  0  0  0  0  0
    1.8733    4.5892    0.1479 C   0  0  0  0  0  0  0  0  0  0  0  0
    2.6340   -3.2561    0.0002 H   0  0  0  0  0  0  0  0  0  0  0  0
    4.9328   -4.3157   -0.0089 H   0  0  0  0  0  0  0  0  0  0  0  0
    6.9840   -2.9027    0.0649 H   0  0  0  0  0  0  0  0  0  0  0  0
    6.8180   -0.3855    0.1480 H   0  0  0  0  0  0  0  0  0  0  0  0
    4.5436    4.3843   -0.4446 H   0  0  0  0  0  0  0  0  0  0  0  0
    4.3113    4.2968    1.3372 H   0  0  0  0  0  0  0  0  0  0  0  0
    4.7760    2.8201    0.4155 H   0  0  0  0  0  0  0  0  0  0  0  0
    2.4723    5.4999   -0.0360 H   0  0  0  0  0  0  0  0  0  0  0  0
    1.1258    4.4732   -0.6633 H   0  0  0  0  0  0  0  0  0  0  0  0
    1.3203    4.7037    1.1058 H   0  0  0  0  0  0  0  0  0  0  0  0
  1  4  1  0  0  0  0
  3 13  1  0  0  0  0
  4  3  1  0  0  0  0
  5  4  2  0  0  0  0
  5  2  1  0  0  0  0
  6  5  1  0  0  0  0
  7  6  2  0  0  0  0
  7 12  1  0  0  0  0
  8  7  1  0  0  0  0
  9  8  1  0  0  0  0
  9 10  2  0  0  0  0
 10 11  1  0  0  0  0
 11 12  2  0  0  0  0
 11 18  1  0  0  0  0
 12  2  1  0  0  0  0
 13 21  1  0  0  0  0
 13 20  1  0  0  0  0
 14  3  1  0  0  0  0
 14 24  1  0  0  0  0
 15  8  1  0  0  0  0
 16  9  1  0  0  0  0
 17 10  1  0  0  0  0
 19 13  1  0  0  0  0
 22 14  1  0  0  0  0
 23 14  1  0  0  0  0
M  END
