1,2,3,4
q = 0.0, confidence = 0.782

 47 48  0  0  0  0  0  0  0  0999 V2000
   -2.5620    1.5508   -1.3673 S   0  0  0  0  0  1  0  0  0  0  0  0
   -2.5296   -1.6002   -1.3690 S   0  0  0  0  0  1  0  0  0  0  0  0
   -0.5496    1.5241    0.8738 P   0  0  2  0  0  0  0  0  0  0  0  0
   -0.5191   -1.5347    0.8730 P   0  0  2  0  0  0  0  0  0  0  0  0
   -1.9586    3.1780   -0.7171 C   0  0  0  0  0  0  0  0  0  0  0  0
   -1.5421    3.0829    0.7475 C   0  0  0  0  0  0  0  0  0  0  0  0
   -0.2015    1.2925    2.6778 C   0  0  0  0  0  0  0  0  0  0  0  0
    0.5712    0.0051    3.0111 C   0  0  0  0  0  0  0  0  0  0  0  0
   -0.1766   -1.2969    2.6773 C   0  0  0  0  0  0  0  0  0  0  0  0
   -1.4807   -3.1127    0.7458 C   0  0  0  0  0  0  0  0  0  0  0  0
   -1.8943   -3.2154   -0.7191 C   0  0  0  0  0  0  0  0  0  0  0  0
    1.0774    1.9194    0.1065 C   0  0  0  0  0  0  0  0  0  0  0  0
    1.1780    1.7489   -1.2919 C   0  0  0  0  0  0  0  0  0  0  0  0
    2.3871    2.0158   -1.9486 C   0  0  0  0  0  0  0  0  0  0  0  0
    3.5114    2.4326   -1.2179 C   0  0  0  0  0  0  0  0  0  0  0  0
    3.4187    2.5991    0.1727 C   0  0  0  0  0  0  0  0  0  0  0  0
    2.2057    2.3494    0.8335 C   0  0  0  0  0  0  0  0  0  0  0  0
    1.1158   -1.8977    0.1064 C   0  0  0  0  0  0  0  0  0  0  0  0
    2.2513   -2.3074    0.8338 C   0  0  0  0  0  0  0  0  0  0  0  0
    3.4693   -2.5335    0.1736 C   0  0  0  0  0  0  0  0  0  0  0  0
    3.5599   -2.3634   -1.2168 C   0  0  0  0  0  0  0  0  0  0  0  0
    2.4286   -1.9668   -1.9478 C   0  0  0  0  0  0  0  0  0  0  0  0
    1.2142   -1.7235   -1.2916 C   0  0  0  0  0  0  0  0  0  0  0  0
   -2.7833    3.9084   -0.8467 H   0  0  0  0  0  0  0  0  0  0  0  0
   -1.1025    3.5349   -1.3296 H   0  0  0  0  0  0  0  0  0  0  0  0
   -0.9698    3.9650    1.1095 H   0  0  0  0  0  0  0  0  0  0  0  0
   -2.4299    2.9283    1.3966 H   0  0  0  0  0  0  0  0  0  0  0  0
    0.3350    2.1826    3.0685 H   0  0  0  0  0  0  0  0  0  0  0  0
   -1.1987    1.2844    3.1681 H   0  0  0  0  0  0  0  0  0  0  0  0
    0.8027    0.0071    4.0974 H   0  0  0  0  0  0  0  0  0  0  0  0
    1.5530    0.0145    2.4903 H   0  0  0  0  0  0  0  0  0  0  0  0
    0.3768   -2.1766    3.0682 H   0  0  0  0  0  0  0  0  0  0  0  0
   -1.1739   -1.3080    3.1670 H   0  0  0  0  0  0  0  0  0  0  0  0
   -2.3717   -2.9758    1.3944 H   0  0  0  0  0  0  0  0  0  0  0  0
   -0.8913   -3.9835    1.1078 H   0  0  0  0  0  0  0  0  0  0  0  0
   -1.0309   -3.5548   -1.3313 H   0  0  0  0  0  0  0  0  0  0  0  0
   -2.7043   -3.9621   -0.8496 H   0  0  0  0  0  0  0  0  0  0  0  0
    0.2894    1.4033   -1.8489 H   0  0  0  0  0  0  0  0  0  0  0  0
    2.4539    1.8847   -3.0394 H   0  0  0  0  0  0  0  0  0  0  0  0
    4.4648    2.6263   -1.7328 H   0  0  0  0  0  0  0  0  0  0  0  0
    4.2973    2.9259    0.7497 H   0  0  0  0  0  0  0  0  0  0  0  0
    2.1501    2.4924    1.9233 H   0  0  0  0  0  0  0  0  0  0  0  0
    2.1976   -2.4529    1.9233 H   0  0  0  0  0  0  0  0  0  0  0  0
    4.3535   -2.8446    0.7508 H   0  0  0  0  0  0  0  0  0  0  0  0
    4.5171   -2.5386   -1.7312 H   0  0  0  0  0  0  0  0  0  0  0  0
    2.4937   -1.8330   -3.0384 H   0  0  0  0  0  0  0  0  0  0  0  0
    0.3195   -1.3941   -1.8489 H   0  0  0  0  0  0  0  0  0  0  0  0
  1  5  1  0  0  0  0
  2 11  1  0  0  0  0
  3  6  1  1  0  0  0
  3  7  1  0  0  0  0
  4 10  1  1  0  0  0
  4  9  1  0  0  0  0
  5  6  1  0  0  0  0
  6 26  1  0  0  0  0
  6 27  1  0  0  0  0
  7  8  1  0  0  0  0
  7 28  1  0  0  0  0
  7 29  1  0  0  0  0
  8 30  1  0  0  0  0
  9  8  1  0  0  0  0
  9 32  1  0  0  0  0
  9 33  1  0  0  0  0
 10 35  1  0  0  0  0
 10 34  1  0  0  0  0
 11 10  1  0  0  0  0
 12 17  1  0  0  0  0
 12  3  1  0  0  0  0
 13 12  2  0  0  0  0
 14 13  1  0  0  0  0
 14 15  2  0  0  0  0
 15 16  1  0  0  0  0
 16 41  1  0  0  0  0
 16 17  2  0  0  0  0
 17 42  1  0  0  0  0
 18 19  1  0  0  0  0
 18  4  1  0  0  0  0
 19 43  1  0  0  0  0
 20 44  1  0  0  0  0
 20 19  2  0  0  0  0
 21 20  1  0  0  0  0
 22 23  1  0  0  0  0
 22 21  2  0  0  0  0
 23 18  2  0  0  0  0
 24  5  1  0  0  0  0
 25  5  1  0  0  0  0
 31  8  1  0  0  0  0
 36 11  1  0  0  0  0
 37 11  1  0  0  0  0
 38 13  1  0  0  0  0
 39 14  1  0  0  0  0
 40 15  1  0  0  0  0
 45 21  1  0  0  0  0
 46 22  1  0  0  0  0
 47 23  1  0  0  0  0
M  END
