1,2,3,4
q = -2.0, confidence = 0.864

 72 77  0  0  0  0  0  0  0  0999 V2000
    1.3380   -1.4227    1.2755 S   0  0  0  0  0  1  0  0  0  0  0  0
    0.6029    1.3424    0.0586 S   0  0  0  0  0  1  0  0  0  0  0  0
   -2.4028    0.6603   -0.0958 P   0  0  2  0  0  0  0  0  0  0  0  0
   -0.4551   -1.3722   -1.1813 P   0  0  2  0  0  0  0  0  0  0  0  0
    2.1097   -1.5444   -0.3177 C   0  0  0  0  0  0  0  0  0  0  0  0
    1.3249   -1.4887   -1.5030 C   0  0  0  0  0  0  0  0  0  0  0  0
    1.8899   -1.5702   -2.7841 C   0  0  0  0  0  0  0  0  0  0  0  0
    1.2462   -1.5382   -3.6772 H   0  0  0  0  0  0  0  0  0  0  0  0
    3.2801   -1.6848   -2.9139 C   0  0  0  0  0  0  0  0  0  0  0  0
    3.7460   -1.7378   -3.9087 H   0  0  0  0  0  0  0  0  0  0  0  0
    4.0724   -1.7346   -1.7571 C   0  0  0  0  0  0  0  0  0  0  0  0
    5.1647   -1.8343   -1.8521 H   0  0  0  0  0  0  0  0  0  0  0  0
    3.5260   -1.6770   -0.4576 C   0  0  0  0  0  0  0  0  0  0  0  0
    4.4432   -1.7092    0.7119 C   0  0  0  0  0  0  0  0  0  0  0  0
    4.2256   -2.5817    1.8014 C   0  0  0  0  0  0  0  0  0  0  0  0
    3.3508   -3.2479    1.7920 H   0  0  0  0  0  0  0  0  0  0  0  0
    5.1185   -2.6146    2.8814 C   0  0  0  0  0  0  0  0  0  0  0  0
    4.9339   -3.3053    3.7185 H   0  0  0  0  0  0  0  0  0  0  0  0
    6.2429   -1.7742    2.8977 C   0  0  0  0  0  0  0  0  0  0  0  0
    6.9394   -1.7970    3.7497 H   0  0  0  0  0  0  0  0  0  0  0  0
    6.4707   -0.9017    1.8218 C   0  0  0  0  0  0  0  0  0  0  0  0
    7.3444   -0.2319    1.8289 H   0  0  0  0  0  0  0  0  0  0  0  0
    5.5806   -0.8717    0.7392 C   0  0  0  0  0  0  0  0  0  0  0  0
    5.7484   -0.1699   -0.0921 H   0  0  0  0  0  0  0  0  0  0  0  0
   -1.0934   -3.0773   -1.4419 C   0  0  0  0  0  0  0  0  0  0  0  0
   -0.5890   -4.0839   -0.5882 C   0  0  0  0  0  0  0  0  0  0  0  0
    0.1486   -3.8166    0.1867 H   0  0  0  0  0  0  0  0  0  0  0  0
   -1.0320   -5.4056   -0.7206 C   0  0  0  0  0  0  0  0  0  0  0  0
   -0.6319   -6.1824   -0.0516 H   0  0  0  0  0  0  0  0  0  0  0  0
   -1.9862   -5.7386   -1.6968 C   0  0  0  0  0  0  0  0  0  0  0  0
   -2.3358   -6.7774   -1.7959 H   0  0  0  0  0  0  0  0  0  0  0  0
   -2.4936   -4.7428   -2.5441 C   0  0  0  0  0  0  0  0  0  0  0  0
   -3.2395   -4.9973   -3.3125 H   0  0  0  0  0  0  0  0  0  0  0  0
   -2.0492   -3.4164   -2.4196 C   0  0  0  0  0  0  0  0  0  0  0  0
   -2.4530   -2.6528   -3.1010 H   0  0  0  0  0  0  0  0  0  0  0  0
   -1.3254   -0.3171   -2.4338 C   0  0  0  0  0  0  0  0  0  0  0  0
   -0.6953    0.5896   -2.5410 H   0  0  0  0  0  0  0  0  0  0  0  0
   -1.4008   -0.8074   -3.4248 H   0  0  0  0  0  0  0  0  0  0  0  0
   -2.6969    0.0304   -1.8378 C   0  0  0  0  0  0  0  0  0  0  0  0
   -3.3479   -0.8665   -1.7849 H   0  0  0  0  0  0  0  0  0  0  0  0
   -3.2282    0.8112   -2.4185 H   0  0  0  0  0  0  0  0  0  0  0  0
   -4.0258    0.6571    0.7425 C   0  0  0  0  0  0  0  0  0  0  0  0
   -4.9180   -0.4226    0.5749 C   0  0  0  0  0  0  0  0  0  0  0  0
   -4.6815   -1.2398   -0.1232 H   0  0  0  0  0  0  0  0  0  0  0  0
   -6.1072   -0.4766    1.3158 C   0  0  0  0  0  0  0  0  0  0  0  0
   -6.7977   -1.3219    1.1756 H   0  0  0  0  0  0  0  0  0  0  0  0
   -6.4104    0.5368    2.2387 C   0  0  0  0  0  0  0  0  0  0  0  0
   -7.3433    0.4912    2.8205 H   0  0  0  0  0  0  0  0  0  0  0  0
   -5.5151    1.6020    2.4258 C   0  0  0  0  0  0  0  0  0  0  0  0
   -5.7415    2.3927    3.1570 H   0  0  0  0  0  0  0  0  0  0  0  0
   -4.3255    1.6629    1.6864 C   0  0  0  0  0  0  0  0  0  0  0  0
   -3.6206    2.4933    1.8429 H   0  0  0  0  0  0  0  0  0  0  0  0
   -1.9265    2.3946   -0.3798 C   0  0  0  0  0  0  0  0  0  0  0  0
   -2.8449    3.3933   -0.7545 C   0  0  0  0  0  0  0  0  0  0  0  0
   -3.9227    3.1672   -0.7792 H   0  0  0  0  0  0  0  0  0  0  0  0
   -2.3798    4.6702   -1.0877 C   0  0  0  0  0  0  0  0  0  0  0  0
   -3.0853    5.4656   -1.3687 H   0  0  0  0  0  0  0  0  0  0  0  0
   -0.9984    4.9275   -1.0508 C   0  0  0  0  0  0  0  0  0  0  0  0
   -0.6271    5.9349   -1.2946 H   0  0  0  0  0  0  0  0  0  0  0  0
   -0.0563    3.9476   -0.6846 C   0  0  0  0  0  0  0  0  0  0  0  0
   -0.5267    2.6385   -0.3405 C   0  0  0  0  0  0  0  0  0  0  0  0
    1.3911    4.2965   -0.6878 C   0  0  0  0  0  0  0  0  0  0  0  0
    2.2171    4.0338    0.4284 C   0  0  0  0  0  0  0  0  0  0  0  0
    1.7897    3.5368    1.3107 H   0  0  0  0  0  0  0  0  0  0  0  0
    3.5688    4.4022    0.4176 C   0  0  0  0  0  0  0  0  0  0  0  0
    4.1948    4.1919    1.2981 H   0  0  0  0  0  0  0  0  0  0  0  0
    4.1238    5.0350   -0.7068 C   0  0  0  0  0  0  0  0  0  0  0  0
    5.1878    5.3169   -0.7148 H   0  0  0  0  0  0  0  0  0  0  0  0
    3.3138    5.3041   -1.8206 C   0  0  0  0  0  0  0  0  0  0  0  0
    3.7399    5.7954   -2.7088 H   0  0  0  0  0  0  0  0  0  0  0  0
    1.9594    4.9397   -1.8092 C   0  0  0  0  0  0  0  0  0  0  0  0
    1.3296    5.1368   -2.6906 H   0  0  0  0  0  0  0  0  0  0  0  0
  3 39  1  6  0  0  0
  3 42  1  0  0  0  0
  4 36  1  6  0  0  0
  5  1  1  0  0  0  0
  6  4  1  0  0  0  0
  6  5  2  0  0  0  0
  7  6  1  0  0  0  0
  8  7  1  0  0  0  0
  9  7  2  0  0  0  0
  9 11  1  0  0  0  0
 10  9  1  0  0  0  0
 11 13  2  0  0  0  0
 12 11  1  0  0  0  0
 13  5  1  0  0  0  0
 13 14  1  0  0  0  0
 14 23  2  0  0  0  0
 14 15  1  0  0  0  0
 15 17  2  0  0  0  0
 16 15  1  0  0  0  0
 17 19  1  0  0  0  0
 17 18  1  0  0  0  0
 19 20  1  0  0  0  0
 21 22  1  0  0  0  0
 21 19  2  0  0  0  0
 23 21  1  0  0  0  0
 24 23  1  0  0  0  0
 25  4  1  0  0  0  0
 25 26  1  0  0  0  0
 26 27  1  0  0  0  0
 28 26  2  0  0  0  0
 28 29  1  0  0  0  0
 30 28  1  0  0  0  0
 31 30  1  0  0  0  0
 32 34  1  0  0  0  0
 32 30  2  0  0  0  0
 33 32  1  0  0  0  0
 34 25  2  0  0  0  0
 35 34  1  0  0  0  0
 36 39  1  0  0  0  0
 37 36  1  0  0  0  0
 38 36  1  0  0  0  0
 39 40  1  0  0  0  0
 41 39  1  0  0  0  0
 42 51  1  0  0  0  0
 43 42  2  0  0  0  0
 43 45  1  0  0  0  0
 44 43  1  0  0  0  0
 45 47  2  0  0  0  0
 46 45  1  0  0  0  0
 47 49  1  0  0  0  0
 47 48  1  0  0  0  0
 49 50  1  0  0  0  0
 51 52  1  0  0  0  0
 51 49  2  0  0  0  0
 53 61  1  0  0  0  0
 53  3  1  0  0  0  0
 54 53  2  0  0  0  0
 55 54  1  0  0  0  0
 56 58  2  0  0  0  0
 56 54  1  0  0  0  0
 57 56  1  0  0  0  0
 58 60  1  0  0  0  0
 59 58  1  0  0  0  0
 60 61  2  0  0  0  0
 61  2  1  0  0  0  0
 62 60  1  0  0  0  0
 62 63  1  0  0  0  0
 63 64  1  0  0  0  0
 65 63  2  0  0  0  0
 65 66  1  0  0  0  0
 67 65  1  0  0  0  0
 68 67  1  0  0  0  0
 69 71  1  0  0  0  0
 69 67  2  0  0  0  0
 70 69  1  0  0  0  0
 71 62  2  0  0  0  0
 72 71  1  0  0  0  0
M  END
