1,2,27,34
q = 0.0, confidence = 0.998

 52 53  0  0  0  0  0  0  0  0999 V2000
    0.9027   -2.0730    0.5955 S   0  0  0  0  0  0  0  0  0  0  0  0
   -1.3751   -0.6598   -0.9687 P   0  0  2  0  0  0  0  0  0  0  0  0
    1.1628   -2.5931    2.3131 C   0  0  0  0  0  0  0  0  0  0  0  0
   -0.5663   -3.0895    0.1506 C   0  0  0  0  0  0  0  0  0  0  0  0
   -1.1823   -2.5127   -1.1178 C   0  0  0  0  0  0  0  0  0  0  0  0
   -3.1478   -0.2767   -0.8805 C   0  0  0  0  0  0  0  0  0  0  0  0
   -4.0200   -1.1473   -0.1909 C   0  0  0  0  0  0  0  0  0  0  0  0
   -5.3804   -0.8343   -0.0801 C   0  0  0  0  0  0  0  0  0  0  0  0
   -5.8804    0.3531   -0.6386 C   0  0  0  0  0  0  0  0  0  0  0  0
   -5.0145    1.2321   -1.3069 C   0  0  0  0  0  0  0  0  0  0  0  0
   -3.6518    0.9244   -1.4245 C   0  0  0  0  0  0  0  0  0  0  0  0
   -0.7652    0.0044   -2.5996 C   0  0  0  0  0  0  0  0  0  0  0  0
    0.2535   -2.3548    2.8973 H   0  0  0  0  0  0  0  0  0  0  0  0
    1.4005   -3.6739    2.3087 H   0  0  0  0  0  0  0  0  0  0  0  0
    2.0176   -1.9980    2.6800 H   0  0  0  0  0  0  0  0  0  0  0  0
   -0.2300   -4.1372    0.0155 H   0  0  0  0  0  0  0  0  0  0  0  0
   -1.2624   -3.0144    1.0100 H   0  0  0  0  0  0  0  0  0  0  0  0
   -2.1645   -2.9762   -1.3373 H   0  0  0  0  0  0  0  0  0  0  0  0
   -0.5298   -2.6957   -1.9969 H   0  0  0  0  0  0  0  0  0  0  0  0
   -3.6388   -2.0654    0.2777 H   0  0  0  0  0  0  0  0  0  0  0  0
   -6.0538   -1.5208    0.4538 H   0  0  0  0  0  0  0  0  0  0  0  0
   -6.9495    0.5962   -0.5486 H   0  0  0  0  0  0  0  0  0  0  0  0
   -5.4005    2.1660   -1.7414 H   0  0  0  0  0  0  0  0  0  0  0  0
   -2.9891    1.6336   -1.9404 H   0  0  0  0  0  0  0  0  0  0  0  0
   -1.1957   -0.5786   -3.4394 H   0  0  0  0  0  0  0  0  0  0  0  0
   -1.1544    1.0384   -2.6962 H   0  0  0  0  0  0  0  0  0  0  0  0
   -0.9027    2.0730    0.5955 S   0  0  0  0  0  0  0  0  0  0  0  0
   -1.1627    2.5931    2.3131 C   0  0  0  0  0  0  0  0  0  0  0  0
   -0.2535    2.3548    2.8973 H   0  0  0  0  0  0  0  0  0  0  0  0
   -1.4005    3.6738    2.3087 H   0  0  0  0  0  0  0  0  0  0  0  0
   -2.0176    1.9979    2.6801 H   0  0  0  0  0  0  0  0  0  0  0  0
    0.5663    3.0895    0.1506 C   0  0  0  0  0  0  0  0  0  0  0  0
    1.1823    2.5127   -1.1178 C   0  0  0  0  0  0  0  0  0  0  0  0
    1.3751    0.6598   -0.9687 P   0  0  2  0  0  0  0  0  0  0  0  0
    3.1478    0.2767   -0.8805 C   0  0  0  0  0  0  0  0  0  0  0  0
    4.0200    1.1474   -0.1910 C   0  0  0  0  0  0  0  0  0  0  0  0
    5.3804    0.8344   -0.0802 C   0  0  0  0  0  0  0  0  0  0  0  0
    5.8804   -0.3531   -0.6386 C   0  0  0  0  0  0  0  0  0  0  0  0
    5.0145   -1.2322   -1.3069 C   0  0  0  0  0  0  0  0  0  0  0  0
    3.6518   -0.9244   -1.4245 C   0  0  0  0  0  0  0  0  0  0  0  0
    2.9891   -1.6336   -1.9403 H   0  0  0  0  0  0  0  0  0  0  0  0
    5.4005   -2.1660   -1.7413 H   0  0  0  0  0  0  0  0  0  0  0  0
    6.9495   -0.5962   -0.5487 H   0  0  0  0  0  0  0  0  0  0  0  0
    6.0538    1.5209    0.4537 H   0  0  0  0  0  0  0  0  0  0  0  0
    3.6388    2.0654    0.2776 H   0  0  0  0  0  0  0  0  0  0  0  0
    0.7652   -0.0044   -2.5996 C   0  0  0  0  0  0  0  0  0  0  0  0
    1.1957    0.5786   -3.4394 H   0  0  0  0  0  0  0  0  0  0  0  0
    1.1544   -1.0384   -2.6962 H   0  0  0  0  0  0  0  0  0  0  0  0
    2.1644    2.9762   -1.3373 H   0  0  0  0  0  0  0  0  0  0  0  0
    0.5298    2.6957   -1.9969 H   0  0  0  0  0  0  0  0  0  0  0  0
    0.2300    4.1372    0.0156 H   0  0  0  0  0  0  0  0  0  0  0  0
    1.2624    3.0144    1.0100 H   0  0  0  0  0  0  0  0  0  0  0  0
  1  3  1  0  0  0  0
  2 12  1  6  0  0  0
  2  6  1  0  0  0  0
  3 15  1  0  0  0  0
  3 13  1  0  0  0  0
  4  1  1  0  0  0  0
  4 17  1  0  0  0  0
  5  2  1  0  0  0  0
  5  4  1  0  0  0  0
  6  7  1  0  0  0  0
  7  8  2  0  0  0  0
  7 20  1  0  0  0  0
  8 21  1  0  0  0  0
  9 22  1  0  0  0  0
  9  8  1  0  0  0  0
 10  9  2  0  0  0  0
 11 10  1  0  0  0  0
 11  6  2  0  0  0  0
 12 46  1  0  0  0  0
 14  3  1  0  0  0  0
 16  4  1  0  0  0  0
 18  5  1  0  0  0  0
 19  5  1  0  0  0  0
 23 10  1  0  0  0  0
 24 11  1  0  0  0  0
 25 12  1  0  0  0  0
 26 12  1  0  0  0  0
 27 28  1  0  0  0  0
 28 31  1  0  0  0  0
 28 29  1  0  0  0  0
 30 28  1  0  0  0  0
 32 27  1  0  0  0  0
 32 52  1  0  0  0  0
 33 34  1  0  0  0  0
 33 32  1  0  0  0  0
 34 46  1  6  0  0  0
 34 35  1  0  0  0  0
 35 36  1  0  0  0  0
 36 37  2  0  0  0  0
 36 45  1  0  0  0  0
 37 44  1  0  0  0  0
 38 43  1  0  0  0  0
 38 37  1  0  0  0  0
 39 38  2  0  0  0  0
 40 39  1  0  0  0  0
 40 35  2  0  0  0  0
 41 40  1  0  0  0  0
 42 39  1  0  0  0  0
 47 46  1  0  0  0  0
 48 46  1  0  0  0  0
 49 33  1  0  0  0  0
 50 33  1  0  0  0  0
 51 32  1  0  0  0  0
M  END
