1,2,3
q = -2.0, confidence = 0.928

 29 30  0  0  0  0  0  0  0  0999 V2000
   -0.3330    0.0000   -1.0083 S   0  0  0  0  0  0  0  0  0  0  0  0
    0.3057   -1.3567    1.6429 O   0  5  0  0  0  0  0  0  0  0  0  0
    0.3064    1.3577    1.6425 O   0  5  0  0  0  0  0  0  0  0  0  0
   -0.6682   -1.9345    0.9545 C   0  0  0  0  0  0  0  0  0  0  0  0
   -1.2754   -3.1122    1.4614 C   0  0  0  0  0  0  0  0  0  0  0  0
   -0.8952   -3.5142    2.4116 H   0  0  0  0  0  0  0  0  0  0  0  0
   -2.3176   -3.7337    0.7714 C   0  0  0  0  0  0  0  0  0  0  0  0
   -2.7703   -4.6453    1.1937 H   0  0  0  0  0  0  0  0  0  0  0  0
   -2.8035   -3.2272   -0.4557 C   0  0  0  0  0  0  0  0  0  0  0  0
   -2.1919   -2.0679   -0.9701 C   0  0  0  0  0  0  0  0  0  0  0  0
   -2.5310   -1.6459   -1.9290 H   0  0  0  0  0  0  0  0  0  0  0  0
   -1.1517   -1.4224   -0.2843 C   0  0  0  0  0  0  0  0  0  0  0  0
   -0.6677    1.9351    0.9540 C   0  0  0  0  0  0  0  0  0  0  0  0
   -1.2749    3.1131    1.4607 C   0  0  0  0  0  0  0  0  0  0  0  0
   -0.8944    3.5154    2.4107 H   0  0  0  0  0  0  0  0  0  0  0  0
   -2.3174    3.7341    0.7709 C   0  0  0  0  0  0  0  0  0  0  0  0
   -2.7700    4.6459    1.1930 H   0  0  0  0  0  0  0  0  0  0  0  0
   -2.8036    3.2272   -0.4559 C   0  0  0  0  0  0  0  0  0  0  0  0
   -2.1921    2.0678   -0.9701 C   0  0  0  0  0  0  0  0  0  0  0  0
   -2.5314    1.6454   -1.9288 H   0  0  0  0  0  0  0  0  0  0  0  0
   -1.1515    1.4226   -0.2844 C   0  0  0  0  0  0  0  0  0  0  0  0
   -3.9451   -3.8987   -1.1759 C   0  0  0  0  0  0  0  0  0  0  0  0
   -3.7773   -4.9910   -1.2752 H   0  0  0  0  0  0  0  0  0  0  0  0
   -4.0884   -3.4819   -2.1916 H   0  0  0  0  0  0  0  0  0  0  0  0
   -4.9016   -3.7709   -0.6250 H   0  0  0  0  0  0  0  0  0  0  0  0
   -3.9453    3.8985   -1.1761 C   0  0  0  0  0  0  0  0  0  0  0  0
   -4.0912    3.4788   -2.1903 H   0  0  0  0  0  0  0  0  0  0  0  0
   -3.7755    4.9902   -1.2793 H   0  0  0  0  0  0  0  0  0  0  0  0
   -4.9010    3.7744   -0.6230 H   0  0  0  0  0  0  0  0  0  0  0  0
  1 21  1  0  0  0  0
  1 12  1  0  0  0  0
  4  5  1  0  0  0  0
  4  2  1  0  0  0  0
  5  6  1  0  0  0  0
  7  8  1  0  0  0  0
  7  5  2  0  0  0  0
  9  7  1  0  0  0  0
 10  9  2  0  0  0  0
 10 12  1  0  0  0  0
 11 10  1  0  0  0  0
 12  4  2  0  0  0  0
 13 14  1  0  0  0  0
 13  3  1  0  0  0  0
 14 15  1  0  0  0  0
 16 17  1  0  0  0  0
 16 14  2  0  0  0  0
 18 16  1  0  0  0  0
 19 18  2  0  0  0  0
 19 21  1  0  0  0  0
 20 19  1  0  0  0  0
 21 13  2  0  0  0  0
 22 25  1  0  0  0  0
 22  9  1  0  0  0  0
 23 22  1  0  0  0  0
 24 22  1  0  0  0  0
 26 29  1  0  0  0  0
 26 18  1  0  0  0  0
 27 26  1  0  0  0  0
 28 26  1  0  0  0  0
M  CHG  2   2  -1   3  -1
M  END
